drugbank_target|P00778 Alpha-lytic protease (DB04237; DB07411)
 OpenBabel12092120023D

  0  0  0     0  0            999 V3000
M  V30 BEGIN CTAB
M  V30 COUNTS 5745 5784 0 0 0
M  V30 BEGIN ATOM
M  V30 1 H -0.908 1.98254 -0.117106 0
M  V30 2 N 0 1.576 0 0
M  V30 3 C 0.933 2.03868 1.02534 0
M  V30 4 C 1.911 0.928543 1.3348 0
M  V30 5 O 3.095 1.19667 1.45644 0
M  V30 6 C 0.222 2.43627 2.35294 0
M  V30 7 C -0.732 3.65373 2.2001 0
M  V30 8 S 0.101 5.13292 1.52614 0
M  V30 9 C 1.257 5.56322 2.86805 0
M  V30 10 H 1.49 2.90518 0.631377 0
M  V30 11 H -0.977 1.52953 0.210867 0
M  V30 12 H 0.981 2.67203 3.11629 0
M  V30 13 H -0.358 1.57376 2.7183 0
M  V30 14 H -1.165 3.90944 3.18086 0
M  V30 15 H -1.563 3.418 1.51819 0
M  V30 16 H 0.729 5.58782 3.83104 0
M  V30 17 H 1.672 6.56266 2.65933 0
M  V30 18 H 2.08 4.83886 2.90714 0
M  V30 19 N 1.4781 -0.272755 1.55222 0
M  V30 20 C 2.7081 -1.02107 1.79604 0
M  V30 21 C 3.1161 -1.80419 0.569693 0
M  V30 22 O 2.4591 -1.77566 -0.470743 0
M  V30 23 C 2.5211 -2.02675 2.96922 0
M  V30 24 C 2.1851 -1.43299 4.33952 0
M  V30 25 C 3.1821 -0.84853 5.12929 0
M  V30 26 C 0.8671 -1.46012 4.8061 0
M  V30 27 C 2.8611 -0.299109 6.36698 0
M  V30 28 C 0.5481 -0.906833 6.04334 0
M  V30 29 C 1.5461 -0.32733 6.82215 0
M  V30 30 O 1.2341 0.217479 8.03606 0
M  V30 31 H 0.9661 -0.307322 0.602104 0
M  V30 32 H 3.5201 -0.308862 2.03065 0
M  V30 33 H 1.7501 -2.77656 2.69155 0
M  V30 34 H 3.4391 -2.63637 3.08626 0
M  V30 35 H 4.2051 -0.820265 4.78013 0
M  V30 36 H 0.0841 -1.90056 4.2 0
M  V30 37 H 3.6281 0.153852 6.9743 0
M  V30 38 H -0.4749 -0.932339 6.38731 0
M  V30 39 H 0.2931 0.106863 8.1843 0
M  V30 40 N 2.9562 -1.48159 -0.537278 0
M  V30 41 C 4.2022 -1.56035 -1.29541 0
M  V30 42 C 4.5352 -0.230377 -1.92829 0
M  V30 43 O 3.8102 0.762952 -1.78911 0
M  V30 44 C 4.0932 -2.69323 -2.39034 0
M  V30 45 C 3.9462 -4.12002 -1.80485 0
M  V30 46 C 5.2652 -2.78408 -3.40847 0
M  V30 47 H 2.3842 -0.567992 -0.469632 0
M  V30 48 H 5.0262 -1.80302 -0.599277 0
M  V30 49 H 3.1762 -2.48763 -2.98412 0
M  V30 50 H 4.8482 -4.43981 -1.25215 0
M  V30 51 H 3.0912 -4.19344 -1.11055 0
M  V30 52 H 3.7622 -4.87077 -2.59731 0
M  V30 53 H 6.2382 -2.97012 -2.91416 0
M  V30 54 H 5.1142 -3.59416 -4.14863 0
M  V30 55 H 5.3752 -1.86269 -4.00944 0
M  V30 56 N 4.4343 0.785586 -1.36625 0
M  V30 57 C 5.6593 1.57963 -1.34397 0
M  V30 58 C 6.0843 1.87964 0.071526 0
M  V30 59 O 5.4423 1.48182 1.0446 0
M  V30 60 C 5.4903 2.87511 -2.17646 0
M  V30 61 O 4.5943 3.81281 -1.57158 0
M  V30 62 H 3.9353 0.479014 -0.459828 0
M  V30 63 H 6.4653 0.973411 -1.79961 0
M  V30 64 H 6.4753 3.36745 -2.30362 0
M  V30 65 H 5.1503 2.65002 -3.20541 0
M  V30 66 H 3.7273 3.39885 -1.53403 0
M  V30 67 N 5.9124 1.20967 1.01018 0
M  V30 68 C 6.8604 0.961223 2.1181 0
M  V30 69 C 7.8544 -0.0897034 1.69162 0
M  V30 70 O 9.0604 0.0612271 1.79896 0
M  V30 71 H 5.4354 0.29355 0.692338 0
M  V30 72 H 7.4064 1.90178 2.29946 0
M  V30 73 C 6.1554 0.536854 3.4353 0
M  V30 74 H 5.4784 1.33713 3.76777 0
M  V30 75 H 6.9184 0.402286 4.22087 0
M  V30 76 C 5.3774 -0.751574 3.2841 0
M  V30 77 O 5.9074 -1.80841 3.58691 0
M  V30 78 N 4.1134 -0.716079 2.81639 0
M  V30 79 H 3.6604 0.144236 2.57196 0
M  V30 80 H 3.6184 -1.57847 2.71904 0
M  V30 81 N 7.3905 -1.2043 1.01659 0
M  V30 82 C 8.3405 -2.21076 0.557623 0
M  V30 83 C 9.3245 -1.56176 -0.387029 0
M  V30 84 O 10.5165 -1.7575 -0.209996 0
M  V30 85 C 7.6455 -3.43146 -0.102707 0
M  V30 86 C 6.7315 -4.15213 0.863652 0
M  V30 87 N 7.1225 -4.63662 2.02117 0
M  V30 88 C 5.4205 -4.40716 0.684472 0
M  V30 89 C 6.1215 -5.18868 2.62966 0
M  V30 90 N 5.0975 -5.0893 1.91027 0
M  V30 91 H 8.8995 -2.56201 1.44008 0
M  V30 92 H 6.4135 -1.36366 0.881931 0
M  V30 93 H 8.4105 -4.14475 -0.449054 0
M  V30 94 H 7.0705 -3.09526 -0.981003 0
M  V30 95 H 8.0815 -4.58877 2.40109 0
M  V30 96 H 4.7585 -4.17245 -0.14577 0
M  V30 97 H 6.1485 -5.6673 3.60924 0
M  V30 98 N 8.8686 -0.792821 -1.36206 0
M  V30 99 C 10.2846 -0.474903 -1.52371 0
M  V30 100 C 10.4846 1.00622 -1.74578 0
M  V30 101 O 9.5406 1.79162 -1.77924 0
M  V30 102 C 10.8536 -1.3083 -2.70747 0
M  V30 103 C 12.4016 -1.30234 -2.84619 0
M  V30 104 C 12.8766 -2.11956 -4.06004 0
M  V30 105 N 14.3676 -2.09419 -4.13156 0
M  V30 106 C 15.1026 -2.69419 -5.06163 0
M  V30 107 N 14.5986 -3.3829 -6.04592 0
M  V30 108 N 16.3916 -2.59134 -4.98804 0
M  V30 109 H 8.5426 -1.75222 -1.20046 0
M  V30 110 H 10.8056 -0.745024 -0.586211 0
M  V30 111 H 10.5116 -2.35881 -2.6087 0
M  V30 112 H 10.3856 -0.95196 -3.6499 0
M  V30 113 H 12.7726 -0.259748 -2.93955 0
M  V30 114 H 12.8536 -1.69847 -1.91274 0
M  V30 115 H 12.4976 -3.16248 -3.97429 0
M  V30 116 H 12.4276 -1.69711 -4.98503 0
M  V30 117 H 14.9186 -1.59297 -3.42685 0
M  V30 118 H 15.2316 -3.81394 -6.7213 0
M  V30 119 H 13.5766 -3.42393 -6.04807 0
M  V30 120 H 16.7676 -2.04927 -4.20859 0
M  V30 121 H 16.9406 -3.06185 -5.711 0
M  V30 122 N 10.3467 1.47872 -0.545128 0
M  V30 123 C 11.5717 2.07391 -0.0190611 0
M  V30 124 C 11.9967 1.39688 1.25971 0
M  V30 125 O 11.3547 0.467816 1.7516 0
M  V30 126 C 11.4027 3.60188 0.172335 0
M  V30 127 O 10.5067 3.9339 1.23766 0
M  V30 128 H 9.8477 0.662411 -0.0459059 0
M  V30 129 H 12.3777 1.90066 -0.757365 0
M  V30 130 H 12.3877 4.06129 0.390305 0
M  V30 131 H 11.0627 4.08865 -0.761725 0
M  V30 132 H 9.6397 3.5921 1.00114 0
M  V30 133 N 11.8248 0.280983 1.55075 0
M  V30 134 C 13.2408 -0.0729964 1.59433 0
M  V30 135 C 13.4408 -1.5411 1.29817 0
M  V30 136 O 12.4968 -2.29086 1.06187 0
M  V30 137 C 13.8098 0.306921 2.9913 0
M  V30 138 C 15.3578 0.254023 3.11968 0
M  V30 139 C 15.8328 0.608467 4.5394 0
M  V30 140 N 17.3238 0.560241 4.59799 0
M  V30 141 C 18.0588 0.80722 5.6769 0
M  V30 142 N 17.5548 1.11912 6.83701 0
M  V30 143 N 19.3478 0.735623 5.57266 0
M  V30 144 H 11.4988 1.238 1.7259 0
M  V30 145 H 13.7618 0.500547 0.805082 0
M  V30 146 H 13.4678 1.32816 3.25657 0
M  V30 147 H 13.3418 -0.349363 3.75579 0
M  V30 148 H 15.7288 -0.75794 2.852 0
M  V30 149 H 15.8098 0.944649 2.37718 0
M  V30 150 H 15.4538 1.61814 4.81434 0
M  V30 151 H 15.3838 -0.104013 5.26497 0
M  V30 152 H 17.8748 0.329288 3.76463 0
M  V30 153 H 18.1878 1.29409 7.61888 0
M  V30 154 H 16.5328 1.15695 6.85303 0
M  V30 155 H 19.7238 0.491752 4.6551 0
M  V30 156 H 19.8968 0.931482 6.4127 0
M  V30 157 N 13.3029 -1.57598 0.00835791 0
M  V30 158 C 14.7189 -1.55764 -0.347822 0
M  V30 159 C 14.9189 -1.01186 -1.74252 0
M  V30 160 O 13.9749 -0.649371 -2.44007 0
M  V30 161 C 15.2879 -2.99927 -0.215407 0
M  V30 162 C 16.8359 -3.11656 -0.289725 0
M  V30 163 C 17.3109 -4.57621 -0.18634 0
M  V30 164 N 18.8019 -4.62557 -0.243978 0
M  V30 165 C 19.5369 -5.73094 -0.18745 0
M  V30 166 N 19.0329 -6.92753 -0.0810331 0
M  V30 167 N 20.8259 -5.61588 -0.239925 0
M  V30 168 H 12.9769 -1.91411 0.92062 0
M  V30 169 H 15.2399 -0.879562 0.353659 0
M  V30 170 H 14.9459 -3.43729 0.744512 0
M  V30 171 H 14.8199 -3.63865 -0.994097 0
M  V30 172 H 17.2069 -2.67779 -1.24009 0
M  V30 173 H 17.2879 -2.5048 0.51898 0
M  V30 174 H 16.9319 -5.02174 0.760519 0
M  V30 175 H 16.8619 -5.16752 -1.01364 0
M  V30 176 H 19.3529 -3.76481 -0.327217 0
M  V30 177 H 19.6659 -7.72787 -0.0440241 0
M  V30 178 H 18.0109 -6.94984 -0.0465419 0
M  V30 179 H 21.2019 -4.66996 -0.321317 0
M  V30 180 H 21.3749 -6.47714 -0.192407 0
M  V30 181 N 14.781 0.264519 -1.55364 0
M  V30 182 C 16.027 0.99646 -1.76631 0
M  V30 183 C 16.36 1.85632 -0.570478 0
M  V30 184 O 15.635 1.89647 0.43175 0
M  V30 185 C 15.918 1.87187 -3.07625 0
M  V30 186 C 15.771 1.04138 -4.37579 0
M  V30 187 C 17.09 2.85749 -3.34717 0
M  V30 188 H 14.209 0.360841 -0.642622 0
M  V30 189 H 16.851 0.268218 -1.88097 0
M  V30 190 H 15.001 2.49279 -2.9798 0
M  V30 191 H 16.673 0.440517 -4.59192 0
M  V30 192 H 14.916 0.345115 -4.32425 0
M  V30 193 H 15.587 1.68729 -5.2558 0
M  V30 194 H 18.063 2.33793 -3.4421 0
M  V30 195 H 16.939 3.44136 -4.27623 0
M  V30 196 H 17.2 3.61311 -2.54768 0
M  V30 197 N 16.2591 1.48442 0.529413 0
M  V30 198 C 17.2221 1.62524 1.61612 0
M  V30 199 C 18.2221 0.498509 1.52877 0
M  V30 200 O 19.4121 0.76431 1.56537 0
M  V30 201 C 16.5441 1.59597 3.01233 0
M  V30 202 H 17.7371 2.59423 1.50465 0
M  V30 203 H 15.2901 1.37047 0.751514 0
M  V30 204 H 16.0251 0.641781 3.17886 0
M  V30 205 H 15.8101 2.41397 3.08982 0
M  V30 206 H 17.3001 1.72646 3.80241 0
M  V30 207 N 17.7372 -0.778329 1.37039 0
M  V30 208 C 19.1532 -1.07796 1.17695 0
M  V30 209 C 19.3532 -2.01498 0.00860115 0
M  V30 210 O 18.4092 -2.43901 -0.653352 0
M  V30 211 C 19.7222 -1.68178 2.49272 0
M  V30 212 C 21.2702 -1.80467 2.55735 0
M  V30 213 C 21.7452 -2.44263 3.87427 0
M  V30 214 N 23.2362 -2.51721 3.88833 0
M  V30 215 C 23.9712 -3.01919 4.87476 0
M  V30 216 N 23.4672 -3.5234 5.96513 0
M  V30 217 N 25.2602 -3.00733 4.74885 0
M  V30 218 H 17.4112 -0.156032 2.11826 0
M  V30 219 H 19.6742 -0.131844 0.938787 0
M  V30 220 H 19.3802 -1.06796 3.35093 0
M  V30 221 H 19.2542 -2.67554 2.65885 0
M  V30 222 H 21.6412 -2.40984 1.70325 0
M  V30 223 H 21.7222 -0.798656 2.43013 0
M  V30 224 H 21.3662 -1.84388 4.73248 0
M  V30 225 H 21.2962 -3.45458 3.9745 0
M  V30 226 H 23.7872 -2.1603 3.10063 0
M  V30 227 H 24.1002 -3.89027 6.67741 0
M  V30 228 H 22.4452 -3.50462 6.00168 0
M  V30 229 H 25.6362 -2.60638 3.88826 0
M  V30 230 H 25.8092 -3.39545 5.51918 0
M  V30 231 N 19.2153 -1.21501 -1.00376 0
M  V30 232 C 20.4613 -1.03452 -1.74429 0
M  V30 233 C 20.7943 0.430764 -1.89362 0
M  V30 234 O 20.0693 1.31962 -1.42886 0
M  V30 235 C 20.3523 -1.73375 -3.15615 0
M  V30 236 C 20.2053 -3.27431 -3.08397 0
M  V30 237 C 21.5243 -1.47732 -4.14564 0
M  V30 238 H 18.6433 -0.377226 -0.633143 0
M  V30 239 H 21.2853 -1.49693 -1.17013 0
M  V30 240 H 19.4353 -1.34064 -3.64636 0
M  V30 241 H 21.1073 -3.76119 -2.67081 0
M  V30 242 H 19.3503 -3.5767 -2.45468 0
M  V30 243 H 20.0213 -3.71524 -4.08258 0
M  V30 244 H 22.4973 -1.8186 -3.74254 0
M  V30 245 H 21.3733 -1.99169 -5.11491 0
M  V30 246 H 21.6343 -0.407589 -4.40217 0
M  V30 247 N 20.6934 1.19889 -1.02296 0
M  V30 248 C 21.9184 1.9393 -0.735237 0
M  V30 249 C 22.3434 1.74639 0.698782 0
M  V30 250 O 21.7014 1.04481 1.48167 0
M  V30 251 C 21.7494 3.43916 -1.08417 0
M  V30 252 O 20.8534 4.11917 -0.199446 0
M  V30 253 H 20.1944 0.605645 -0.272196 0
M  V30 254 H 22.7244 1.52137 -1.36804 0
M  V30 255 H 22.7344 3.9456 -1.03856 0
M  V30 256 H 21.4094 3.5728 -2.12894 0
M  V30 257 H 19.9864 3.71666 -0.303136 0
M  V30 258 N 22.1715 0.800033 1.35784 0
M  V30 259 C 23.4175 0.377901 1.99248 0
M  V30 260 C 23.7505 -1.05052 1.63333 0
M  V30 261 O 23.0255 -1.72768 0.893385 0
M  V30 262 C 23.3085 0.553922 3.55814 0
M  V30 263 C 23.1615 2.0268 4.01548 0
M  V30 264 C 24.4805 -0.0244802 4.40093 0
M  V30 265 H 21.5995 0.138782 0.723815 0
M  V30 266 H 24.2415 1.00835 1.61035 0
M  V30 267 H 22.3915 0.0172398 3.88496 0
M  V30 268 H 24.0635 2.62536 3.79305 0
M  V30 269 H 22.3065 2.5256 3.52698 0
M  V30 270 H 22.9775 2.10087 5.10458 0
M  V30 271 H 25.4535 0.433775 4.13833 0
M  V30 272 H 24.3295 0.128637 5.48749 0
M  V30 273 H 24.5905 -1.11758 4.27741 0
M  V30 274 N 23.6496 -1.47581 0.552962 0
M  V30 275 C 24.8746 -2.07378 0.0300593 0
M  V30 276 C 25.2996 -1.40355 -1.25229 0
M  V30 277 O 24.6576 -0.477099 -1.7491 0
M  V30 278 C 24.7056 -3.60274 -0.153231 0
M  V30 279 O 23.8096 -3.94041 -1.21678 0
M  V30 280 H 23.1506 -0.662158 0.0494182 0
M  V30 281 H 25.6806 -1.89662 0.767434 0
M  V30 282 H 25.6906 -4.0633 -0.368761 0
M  V30 283 H 24.3656 -4.08455 0.783397 0
M  V30 284 H 22.9426 -3.59735 -0.982079 0
M  V30 285 N 25.1277 -0.289203 -1.54924 0
M  V30 286 C 26.3677 0.324536 -2.01807 0
M  V30 287 C 26.7317 1.5199 -1.17316 0
M  V30 288 O 27.9327 2.20422 -1.53843 0
M  V30 289 C 26.2037 0.683578 -3.50802 0
M  V30 290 S 27.7627 1.28185 -4.19659 0
M  V30 291 H 24.5807 0.100236 -0.703899 0
M  V30 292 H 27.1827 -0.414325 -1.91059 0
M  V30 293 H 25.8867 -0.195073 -4.09936 0
M  V30 294 H 25.4177 1.45354 -3.65562 0
M  V30 295 H 27.4327 2.57006 -4.24456 0
M  V30 296 N 26.6058 1.57591 -0.0167156 0
M  V30 297 C 27.5358 2.12496 0.967858 0
M  V30 298 C 28.5168 1.03807 1.34752 0
M  V30 299 O 29.7018 1.31577 1.42833 0
M  V30 300 C 26.8318 2.64194 2.25431 0
M  V30 301 C 25.7858 3.77559 2.01576 0
M  V30 302 C 25.1118 4.15636 3.36379 0
M  V30 303 C 26.4118 5.04151 1.36489 0
M  V30 304 H 28.1058 2.95013 0.510643 0
M  V30 305 H 25.6518 1.41915 0.244181 0
M  V30 306 H 27.6048 3.01236 2.94678 0
M  V30 307 H 26.3288 1.78821 2.73296 0
M  V30 308 H 24.9878 3.40937 1.34751 0
M  V30 309 H 24.6358 3.27263 3.81979 0
M  V30 310 H 24.3358 4.92022 3.21229 0
M  V30 311 H 25.8598 4.5525 4.06915 0
M  V30 312 H 27.2738 5.38857 1.95718 0
M  V30 313 H 25.6708 5.85453 1.31776 0
M  V30 314 H 26.7408 4.83733 0.336219 0
M  V30 315 N 28.0839 -0.256276 1.55502 0
M  V30 316 C 29.3299 -0.987079 1.77157 0
M  V30 317 C 29.6629 -1.85327 0.580315 0
M  V30 318 O 28.9379 -1.89874 -0.421686 0
M  V30 319 C 29.2209 -1.85553 3.08613 0
M  V30 320 C 29.0739 -1.01816 4.38125 0
M  V30 321 C 30.3929 -2.8397 3.36228 0
M  V30 322 H 27.5119 -0.357428 0.644526 0
M  V30 323 H 30.1539 -0.258239 1.88237 0
M  V30 324 H 28.3039 -2.47695 2.99298 0
M  V30 325 H 29.9759 -0.416159 4.59419 0
M  V30 326 H 28.2189 -0.322178 4.32602 0
M  V30 327 H 28.8899 -1.65939 5.26468 0
M  V30 328 H 31.3659 -2.31964 3.45445 0
M  V30 329 H 30.2419 -3.41864 4.29442 0
M  V30 330 H 30.5029 -3.59955 2.56681 0
M  V30 331 N 29.562 -1.4872 -0.521534 0
M  V30 332 C 30.525 -1.63379 -1.60748 0
M  V30 333 C 31.525 -0.50661 -1.52611 0
M  V30 334 O 32.715 -0.772601 -1.5613 0
M  V30 335 C 29.847 -1.61192 -3.00383 0
M  V30 336 H 31.04 -2.60217 -1.49087 0
M  V30 337 H 28.593 -1.37444 -0.744235 0
M  V30 338 H 29.328 -0.65863 -3.17541 0
M  V30 339 H 29.113 -2.43032 -3.07698 0
M  V30 340 H 30.603 -1.7466 -3.7932 0
M  V30 341 N 31.0401 0.771051 -1.3745 0
M  V30 342 C 32.0031 1.86598 -1.33093 0
M  V30 343 C 33.0031 1.59076 -0.234845 0
M  V30 344 O 34.1931 1.67145 -0.490732 0
M  V30 345 C 31.3251 3.23747 -1.06773 0
M  V30 346 H 32.5181 1.91873 -2.30488 0
M  V30 347 H 30.0711 0.970876 -1.2249 0
M  V30 348 H 30.8061 3.24148 -0.099129 0
M  V30 349 H 30.5911 3.45115 -1.86112 0
M  V30 350 H 32.0811 4.03824 -1.06377 0
M  V30 351 N 32.5182 1.22032 0.997298 0
M  V30 352 C 33.4482 1.01065 2.10495 0
M  V30 353 C 34.4292 -0.0669542 1.69968 0
M  V30 354 O 35.6142 0.0943987 1.9397 0
M  V30 355 C 32.7442 0.582874 3.42374 0
M  V30 356 C 31.6982 1.60592 3.96729 0
M  V30 357 C 31.0242 1.03412 5.24605 0
M  V30 358 C 32.3242 2.99478 4.27914 0
M  V30 359 H 34.0182 1.93708 2.28292 0
M  V30 360 H 31.5642 0.932761 1.09707 0
M  V30 361 H 33.5172 0.423332 4.19268 0
M  V30 362 H 32.2412 -0.379213 3.24391 0
M  V30 363 H 30.9002 1.75316 3.21963 0
M  V30 364 H 30.5482 0.063518 5.0296 0
M  V30 365 H 30.2482 1.71754 5.61938 0
M  V30 366 H 31.7722 0.886066 6.04137 0
M  V30 367 H 33.1862 2.88153 4.95622 0
M  V30 368 H 31.5832 3.64903 4.76409 0
M  V30 369 H 32.6532 3.49742 3.3587 0
M  V30 370 N 33.9963 -1.19345 1.0293 0
M  V30 371 C 34.9593 -2.20793 0.615069 0
M  V30 372 C 35.9593 -1.57553 -0.321533 0
M  V30 373 O 37.1493 -1.73862 -0.108483 0
M  V30 374 C 34.2813 -3.40754 -0.0999222 0
M  V30 375 H 35.4743 -2.58955 1.51269 0
M  V30 376 H 33.0273 -1.3303 0.820534 0
M  V30 377 H 33.7623 -3.0811 -1.01187 0
M  V30 378 H 33.5473 -3.87889 0.57309 0
M  V30 379 H 35.0373 -4.15898 -0.376645 0
M  V30 380 N 35.4744 -0.807222 -1.35358 0
M  V30 381 C 36.4374 -0.223665 -2.28106 0
M  V30 382 C 37.4374 0.589354 -1.4961 0
M  V30 383 O 38.6274 0.407745 -1.69361 0
M  V30 384 C 35.7594 0.688149 -3.33882 0
M  V30 385 H 36.9524 -1.04169 -2.81227 0
M  V30 386 H 34.5054 -0.577921 -1.45223 0
M  V30 387 H 35.2404 1.52984 -2.85948 0
M  V30 388 H 35.0254 0.10687 -3.91954 0
M  V30 389 H 36.5154 1.09075 -4.03104 0
M  V30 390 N 36.9525 1.47285 -0.560781 0
M  V30 391 C 37.8855 2.27009 0.232821 0
M  V30 392 C 38.8635 1.34273 0.917039 0
M  V30 393 O 40.0475 1.63659 0.935315 0
M  V30 394 C 37.1745 3.11406 1.33206 0
M  V30 395 C 36.2205 4.19746 0.756019 0
M  V30 396 S 37.0535 5.34003 -0.400165 0
M  V30 397 C 38.2095 6.21964 0.700805 0
M  V30 398 H 38.4425 2.93971 -0.443683 0
M  V30 399 H 35.9755 1.50446 -0.347181 0
M  V30 400 H 37.9335 3.60601 1.96156 0
M  V30 401 H 36.5945 2.438 1.98041 0
M  V30 402 H 35.7875 4.78541 1.5816 0
M  V30 403 H 35.3895 3.73451 0.202619 0
M  V30 404 H 37.6815 6.58529 1.59202 0
M  V30 405 H 38.6245 7.07941 0.150126 0
M  V30 406 H 39.0325 5.5566 0.995083 0
M  V30 407 N 38.4306 0.297415 1.54768 0
M  V30 408 C 39.6556 -0.318435 2.04941 0
M  V30 409 C 40.0806 -1.4701 1.17345 0
M  V30 410 O 39.4386 -1.80436 0.176758 0
M  V30 411 C 39.4866 -0.755749 3.52592 0
M  V30 412 O 38.5906 -1.86088 3.68028 0
M  V30 413 H 37.9316 -0.062421 0.661059 0
M  V30 414 H 40.4616 0.438215 1.99852 0
M  V30 415 H 40.4716 -1.04552 3.94376 0
M  V30 416 H 39.1466 0.0867233 4.1581 0
M  V30 417 H 37.7236 -1.57193 3.38149 0
M  V30 418 N 39.9087 -1.5758 0.0250728 0
M  V30 419 C 41.1487 -1.93497 -0.65865 0
M  V30 420 C 41.5127 -0.901409 -1.69525 0
M  V30 421 O 42.7137 -1.14664 -2.43116 0
M  V30 422 C 40.9847 -3.34352 -1.26267 0
M  V30 423 S 42.5437 -3.92191 -1.96803 0
M  V30 424 H 39.3617 -0.67709 -0.216958 0
M  V30 425 H 41.9637 -1.95303 0.0877692 0
M  V30 426 H 40.6677 -4.07395 -0.495741 0
M  V30 427 H 40.1987 -3.3598 -2.04648 0
M  V30 428 H 42.2137 -3.75298 -3.24601 0
M  V30 429 N 41.3868 0.248026 -1.55636 0
M  V30 430 C 42.6348 0.974295 -1.77065 0
M  V30 431 C 42.9558 1.85897 -0.588849 0
M  V30 432 O 42.2258 1.91868 0.395407 0
M  V30 433 H 40.8058 0.362733 -0.653019 0
M  V30 434 H 43.4678 0.266244 -1.93073 0
M  V30 435 H 42.5638 1.59667 -2.68166 0
M  V30 436 N 42.8649 1.48995 0.513639 0
M  V30 437 C 43.8279 1.64229 1.59879 0
M  V30 438 C 44.8279 0.514696 1.5234 0
M  V30 439 O 46.0179 0.78087 1.55718 0
M  V30 440 C 43.1499 1.62783 2.99524 0
M  V30 441 H 44.3429 2.61004 1.47705 0
M  V30 442 H 41.8959 1.37837 0.736936 0
M  V30 443 H 42.6309 0.675461 3.17188 0
M  V30 444 H 42.4159 2.4466 3.06404 0
M  V30 445 H 43.9059 1.76669 3.78388 0
M  V30 446 N 44.343 -0.763751 1.37857 0
M  V30 447 C 45.306 -1.85889 1.34081 0
M  V30 448 C 46.306 -1.58949 0.243277 0
M  V30 449 O 47.496 -1.66882 0.499589 0
M  V30 450 C 44.628 -3.23176 1.08489 0
M  V30 451 H 45.821 -1.90648 2.31502 0
M  V30 452 H 43.374 -0.964367 1.23003 0
M  V30 453 H 44.109 -3.24091 0.116318 0
M  V30 454 H 43.894 -3.44124 1.8794 0
M  V30 455 H 45.384 -4.03254 1.08517 0
M  V30 456 N 45.8211 -1.22559 -0.990812 0
M  V30 457 C 46.7511 -1.0218 -2.09956 0
M  V30 458 C 47.7321 0.0579394 -1.70001 0
M  V30 459 O 48.9171 -0.104684 -1.93918 0
M  V30 460 C 46.0471 -0.601023 -3.4206 0
M  V30 461 C 45.0011 -1.62694 -3.95872 0
M  V30 462 C 44.3271 -1.06193 -5.24049 0
M  V30 463 C 45.6271 -3.01743 -4.2632 0
M  V30 464 H 47.3211 -1.94916 -2.27262 0
M  V30 465 H 44.8671 -0.938566 -1.09211 0
M  V30 466 H 46.8201 -0.445561 -4.19038 0
M  V30 467 H 45.5441 0.362005 -3.24588 0
M  V30 468 H 44.2031 -1.77021 -3.21028 0
M  V30 469 H 43.8511 -0.0901903 -5.02919 0
M  V30 470 H 43.5511 -1.74732 -5.61019 0
M  V30 471 H 45.0751 -0.918092 -6.03658 0
M  V30 472 H 46.4891 -2.90777 -4.94087 0
M  V30 473 H 44.8861 -3.67425 -4.74467 0
M  V30 474 H 45.9561 -3.51518 -3.34011 0
M  V30 475 N 47.2992 1.18797 -1.03562 0
M  V30 476 C 48.2622 2.20464 -0.626769 0
M  V30 477 C 49.2622 1.57721 0.313173 0
M  V30 478 O 50.4522 1.73917 0.0992615 0
M  V30 479 C 47.5842 3.40802 0.0818498 0
M  V30 480 H 48.7772 2.58149 -1.5264 0
M  V30 481 H 46.3302 1.32593 -0.827578 0
M  V30 482 H 47.0652 3.08642 0.995518 0
M  V30 483 H 46.8502 3.8758 -0.593652 0
M  V30 484 H 48.3402 4.16092 0.354584 0
M  V30 485 N 48.7773 0.814389 1.34928 0
M  V30 486 C 49.7403 0.235759 2.27984 0
M  V30 487 C 50.7403 -0.581412 1.49921 0
M  V30 488 O 51.9303 -0.398758 1.69575 0
M  V30 489 C 49.0623 -0.670433 3.34242 0
M  V30 490 H 50.2553 1.05659 2.80671 0
M  V30 491 H 47.8083 0.585614 1.44915 0
M  V30 492 H 48.5433 -1.51466 2.86755 0
M  V30 493 H 48.3283 -0.0860822 3.92005 0
M  V30 494 H 49.8183 -1.06935 4.03676 0
M  V30 495 N 50.2554 -1.46986 0.568584 0
M  V30 496 C 51.5324 -1.95592 -0.0174074 0
M  V30 497 C 51.9124 -1.51124 -1.47393 0
M  V30 498 O 51.2604 -0.755329 -2.15655 0
M  V30 499 C 51.4704 -3.48719 0.139913 0
M  V30 500 C 52.8184 -4.246 0.000426376 0
M  V30 501 O 53.8424 -3.56135 0.0680316 0
M  V30 502 O 52.7014 -5.46302 -0.146988 0
M  V30 503 H 49.7954 -0.82498 -0.0577599 0
M  V30 504 H 52.3414 -1.57335 0.635909 0
M  V30 505 H 51.1134 -3.73927 1.15301 0
M  V30 506 H 50.7364 -3.93771 -0.550491 0
M  V30 507 N 51.7335 -0.305618 -1.54608 0
M  V30 508 C 52.6655 0.602161 -2.21149 0
M  V30 509 C 53.6785 1.09394 -1.20569 0
M  V30 510 O 54.8675 1.0106 -1.47136 0
M  V30 511 C 51.9675 1.83692 -2.84799 0
M  V30 512 C 51.1405 1.48686 -4.11353 0
M  V30 513 C 50.1995 2.57725 -4.58764 0
M  V30 514 O 49.2255 2.22623 -5.23858 0
M  V30 515 N 50.4275 3.88346 -4.31471 0
M  V30 516 H 53.1925 0.0324966 -2.99682 0
M  V30 517 H 50.7535 -0.128021 -1.61393 0
M  V30 518 H 52.7455 2.55994 -3.13448 0
M  V30 519 H 51.3155 2.31486 -2.10078 0
M  V30 520 H 50.5355 0.596269 -3.89664 0
M  V30 521 H 51.8235 1.22842 -4.93748 0
M  V30 522 H 51.2215 4.19671 -3.79331 0
M  V30 523 H 49.7785 4.56932 -4.64818 0
M  V30 524 N 53.2116 1.57565 -0.0334293 0
M  V30 525 C 54.4576 1.92262 0.645226 0
M  V30 526 C 54.7906 0.910543 1.71531 0
M  V30 527 O 54.0656 -0.066099 1.94388 0
M  V30 528 C 54.3486 3.37422 1.2577 0
M  V30 529 C 54.2016 4.49369 0.196891 0
M  V30 530 C 55.5206 3.82628 2.17449 0
M  V30 531 H 52.6396 0.699171 0.233085 0
M  V30 532 H 55.2816 1.89779 -0.0915694 0
M  V30 533 H 53.4316 3.39669 1.88566 0
M  V30 534 H 55.1036 4.59254 -0.433962 0
M  V30 535 H 53.3466 4.31168 -0.477137 0
M  V30 536 H 54.0176 5.47978 0.665124 0
M  V30 537 H 56.4936 3.82145 1.64634 0
M  V30 538 H 55.3696 4.84883 2.57254 0
M  V30 539 H 55.6306 3.18376 3.0674 0
M  V30 540 N 54.6897 -0.239769 1.55765 0
M  V30 541 C 55.9667 -0.990056 1.68693 0
M  V30 542 C 56.3467 -2.03107 0.5754 0
M  V30 543 O 55.6947 -2.24604 -0.42017 0
M  V30 544 C 55.9047 -1.61696 3.09282 0
M  V30 545 C 57.2527 -2.11613 3.6811 0
M  V30 546 O 58.2767 -1.71624 3.12127 0
M  V30 547 O 57.1357 -2.85057 4.66267 0
M  V30 548 H 54.2297 -0.461299 0.686391 0
M  V30 549 H 56.7757 -0.232991 1.68093 0
M  V30 550 H 55.5477 -0.864357 3.81634 0
M  V30 551 H 55.1707 -2.44005 3.13923 0
M  V30 552 N 56.1678 -1.49265 -0.50573 0
M  V30 553 C 57.5788 -1.51769 -1.08734 0
M  V30 554 C 57.9298 -0.301192 -1.93874 0
M  V30 555 O 57.0548 0.589456 -2.08217 0
M  V30 556 C 57.6498 -2.75017 -1.97867 0
M  V30 557 C 56.2088 -2.80314 -2.51199 0
M  V30 558 C 55.3558 -2.4562 -1.28709 0
M  V30 559 H 58.3068 -1.56031 -0.289855 0
M  V30 560 H 58.3278 -2.5491 -2.82491 0
M  V30 561 H 57.8398 -3.63539 -1.35873 0
M  V30 562 H 55.9408 -1.96061 -3.16845 0
M  V30 563 H 56.0538 -3.82366 -2.88675 0
M  V30 564 H 54.4178 -1.97297 -1.61078 0
M  V30 565 H 55.2008 -3.36411 -0.6843 0
M  V30 566 N 57.6459 0.756429 -1.3826 0
M  V30 567 C 58.5779 1.87971 -1.31147 0
M  V30 568 C 59.5909 1.61248 -0.224239 0
M  V30 569 O 60.7799 1.71881 -0.481581 0
M  V30 570 C 57.8799 3.23545 -1.00857 0
M  V30 571 C 57.0529 3.77794 -2.20432 0
M  V30 572 C 56.1119 4.91877 -1.86931 0
M  V30 573 O 55.1379 5.06659 -2.59395 0
M  V30 574 N 56.3399 5.74643 -0.822568 0
M  V30 575 H 59.1049 1.94585 -2.2794 0
M  V30 576 H 56.6659 0.936234 -1.32084 0
M  V30 577 H 58.6579 3.97403 -0.765021 0
M  V30 578 H 57.2279 3.12335 -0.128687 0
M  V30 579 H 56.4479 2.95534 -2.6087 0
M  V30 580 H 57.7359 4.10771 -3.00241 0
M  V30 581 H 57.1339 5.65266 -0.221575 0
M  V30 582 H 55.6909 6.48661 -0.638899 0
M  V30 583 N 59.124 1.23083 0.984299 0
M  V30 584 C 60.054 1.03292 2.09411 0
M  V30 585 C 61.035 -0.048923 1.7003 0
M  V30 586 O 62.22 0.114967 1.93859 0
M  V30 587 C 59.35 0.619155 3.41736 0
M  V30 588 C 58.304 1.64791 3.95004 0
M  V30 589 C 57.63 1.0897 5.23478 0
M  V30 590 C 58.93 3.03999 4.24714 0
M  V30 591 H 60.624 1.96119 2.26225 0
M  V30 592 H 58.17 0.944344 1.08711 0
M  V30 593 H 60.123 0.467777 4.18796 0
M  V30 594 H 58.847 -0.344786 3.24775 0
M  V30 595 H 57.506 1.78721 3.20085 0
M  V30 596 H 57.154 0.11686 5.02864 0
M  V30 597 H 56.854 1.77704 5.60085 0
M  V30 598 H 58.378 0.950093 6.03163 0
M  V30 599 H 59.792 2.93393 4.92538 0
M  V30 600 H 58.189 3.69936 4.72512 0
M  V30 601 H 59.259 3.53285 3.32142 0
M  V30 602 N 60.6021 -1.18246 1.0419 0
M  V30 603 C 61.5491 -2.2192 0.634037 0
M  V30 604 C 62.5191 -1.62179 -0.358765 0
M  V30 605 O 63.7041 -1.89122 -0.252466 0
M  V30 606 C 60.8441 -3.451 0.00445535 0
M  V30 607 C 59.9571 -4.19174 1.04487 0
M  V30 608 C 59.0921 -5.29813 0.383676 0
M  V30 609 C 58.1311 -5.9566 1.4091 0
M  V30 610 N 57.2681 -6.97834 0.772784 0
M  V30 611 H 62.1081 -2.56164 1.52263 0
M  V30 612 H 59.6451 -1.25843 0.761701 0
M  V30 613 H 61.6031 -4.15485 -0.377919 0
M  V30 614 H 60.2331 -3.11472 -0.847652 0
M  V30 615 H 59.2851 -3.47604 1.54518 0
M  V30 616 H 60.5971 -4.64267 1.82368 0
M  V30 617 H 59.7511 -6.06677 -0.0528366 0
M  V30 618 H 58.4901 -4.85825 -0.427208 0
M  V30 619 H 57.4951 -5.17535 1.85574 0
M  V30 620 H 58.7201 -6.4173 2.22171 0
M  V30 621 H 56.6661 -6.55998 -0.0177708 0
M  V30 622 H 56.5831 -7.41186 1.48928 0
M  V30 623 H 57.8511 -7.78665 0.36071 0
M  V30 624 N 62.0802 -0.821533 -1.34494 0
M  V30 625 C 63.3272 -0.408946 -1.98328 0
M  V30 626 C 63.6552 1.02764 -1.65136 0
M  V30 627 O 62.9102 1.73026 -0.914349 0
M  V30 628 C 63.2092 -0.556512 -3.53041 0
M  V30 629 C 62.8752 -1.95861 -4.0614 0
M  V30 630 C 61.5372 -2.34217 -4.20352 0
M  V30 631 C 63.8892 -2.87523 -4.34718 0
M  V30 632 C 61.2172 -3.63572 -4.6047 0
M  V30 633 C 63.5692 -4.1634 -4.76281 0
M  V30 634 C 62.2332 -4.54675 -4.88699 0
M  V30 635 H 61.5032 -0.149644 -0.725732 0
M  V30 636 H 64.1502 -1.04521 -1.6046 0
M  V30 637 H 62.4552 0.163148 -3.9146 0
M  V30 638 H 64.1522 -0.217826 -4.00408 0
M  V30 639 H 60.7422 -1.65066 -3.95539 0
M  V30 640 H 64.9262 -2.59133 -4.23277 0
M  V30 641 H 60.1822 -3.93101 -4.68275 0
M  V30 642 H 64.3562 -4.87455 -4.97354 0
M  V30 643 H 61.9832 -5.54959 -5.19542 0
M  V30 644 N 63.5583 1.46682 -0.576371 0
M  V30 645 C 64.5213 2.28707 0.150239 0
M  V30 646 C 65.5213 1.38035 0.824794 0
M  V30 647 O 66.7113 1.60476 0.677719 0
M  V30 648 C 63.8433 3.18248 1.22192 0
M  V30 649 H 65.0363 2.94423 -0.570521 0
M  V30 650 H 62.5893 1.52688 -0.334078 0
M  V30 651 H 63.3243 2.57265 1.97447 0
M  V30 652 H 63.1093 3.85 0.742812 0
M  V30 653 H 64.5993 3.80001 1.73172 0
M  V30 654 N 65.0364 0.313813 1.54444 0
M  V30 655 C 65.9694 -0.598866 2.20202 0
M  V30 656 C 66.9474 -1.12318 1.17573 0
M  V30 657 O 68.1314 -1.18899 1.46271 0
M  V30 658 C 65.2584 -1.82071 2.85601 0
M  V30 659 C 64.3044 -1.42851 4.01865 0
M  V30 660 S 65.1374 -0.473512 5.33402 0
M  V30 661 C 66.2934 -1.70286 6.0229 0
M  V30 662 H 66.5264 -0.0402532 2.97273 0
M  V30 663 H 64.0594 0.0979165 1.54089 0
M  V30 664 H 66.0174 -2.52184 3.23904 0
M  V30 665 H 64.6784 -2.3505 2.08351 0
M  V30 666 H 63.8714 -2.33871 4.46453 0
M  V30 667 H 63.4734 -0.807198 3.65185 0
M  V30 668 H 65.7654 -2.64168 6.23876 0
M  V30 669 H 66.7084 -1.29932 6.96077 0
M  V30 670 H 67.1164 -1.88541 5.32083 0
M  V30 671 N 66.5145 -1.57545 0.0417849 0
M  V30 672 C 67.4465 -2.07904 -0.964799 0
M  V30 673 C 68.4595 -1.00497 -1.28079 0
M  V30 674 O 69.6485 -1.28087 -1.24322 0
M  V30 675 C 66.7485 -2.49928 -2.28887 0
M  V30 676 C 65.9215 -3.80562 -2.15619 0
M  V30 677 C 64.9805 -4.08999 -3.31069 0
M  V30 678 O 64.0065 -4.79061 -3.0739 0
M  V30 679 N 65.2085 -3.6017 -4.55256 0
M  V30 680 H 67.9735 -2.94886 -0.535029 0
M  V30 681 H 65.5345 -1.61252 -0.144681 0
M  V30 682 H 67.5265 -2.66034 -3.04972 0
M  V30 683 H 66.0965 -1.68245 -2.63463 0
M  V30 684 H 65.3165 -3.74129 -1.24183 0
M  V30 685 H 66.6045 -4.66126 -2.03971 0
M  V30 686 H 66.0025 -3.03512 -4.77386 0
M  V30 687 H 64.5595 -3.81532 -5.28466 0
M  V30 688 N 67.9926 0.231505 -1.5589 0
M  V30 689 C 69.4086 0.580748 -1.48659 0
M  V30 690 C 69.6086 1.87617 -0.73498 0
M  V30 691 O 68.6646 2.51046 -0.270586 0
M  V30 692 C 69.9776 0.669202 -2.93159 0
M  V30 693 C 71.5256 0.760499 -3.03621 0
M  V30 694 C 72.0006 0.880383 -4.49459 0
M  V30 695 N 73.4916 0.944861 -4.53461 0
M  V30 696 C 74.2266 1.05716 -5.63571 0
M  V30 697 N 73.7226 1.13403 -6.83456 0
M  V30 698 N 75.5156 1.09152 -5.514 0
M  V30 699 H 67.6666 -0.618695 -2.03189 0
M  V30 700 H 69.9296 -0.215728 -0.923128 0
M  V30 701 H 69.6356 -0.212904 -3.51055 0
M  V30 702 H 69.5096 1.5361 -3.44505 0
M  V30 703 H 71.8966 1.63305 -2.45796 0
M  V30 704 H 71.9776 -0.131864 -2.5546 0
M  V30 705 H 71.6216 0.0123284 -5.07899 0
M  V30 706 H 71.5516 1.78802 -4.95316 0
M  V30 707 H 74.0426 0.896176 -3.6712 0
M  V30 708 H 74.3556 1.21921 -7.63122 0
M  V30 709 H 72.7006 1.10333 -6.86186 0
M  V30 710 H 75.8916 1.02805 -4.56671 0
M  V30 711 H 76.0646 1.17558 -6.37247 0
M  V30 712 N 69.4707 1.49531 0.497807 0
M  V30 713 C 70.7477 1.49682 1.25915 0
M  V30 714 C 71.1277 0.226339 2.09883 0
M  V30 715 O 70.4757 -0.791189 2.14365 0
M  V30 716 C 70.6857 2.77755 2.11313 0
M  V30 717 C 72.0337 3.27371 2.70395 0
M  V30 718 O 73.0577 2.78894 2.21578 0
M  V30 719 O 71.9167 4.11808 3.59272 0
M  V30 720 H 69.0107 0.599228 0.56996 0
M  V30 721 H 71.5567 1.61798 0.511816 0
M  V30 722 H 70.3287 3.61713 1.49264 0
M  V30 723 H 69.9517 2.68515 2.93233 0
M  V30 724 N 70.9488 -0.749086 1.3866 0
M  V30 725 C 71.8788 -1.8764 1.38973 0
M  V30 726 C 72.8598 -1.68178 0.255004 0
M  V30 727 O 74.0448 -1.88704 0.458754 0
M  V30 728 C 71.1748 -3.25222 1.21851 0
M  V30 729 C 70.1288 -3.59295 2.32575 0
M  V30 730 C 69.4548 -4.95663 2.00555 0
M  V30 731 C 70.7548 -3.63709 3.7485 0
M  V30 732 H 72.4488 -1.87635 2.3331 0
M  V30 733 H 69.9948 -0.901329 1.12303 0
M  V30 734 H 71.9478 -4.03746 1.20695 0
M  V30 735 H 70.6718 -3.25719 0.239775 0
M  V30 736 H 69.3308 -2.83093 2.32925 0
M  V30 737 H 68.9788 -4.92724 1.01154 0
M  V30 738 H 68.6788 -5.19429 2.74714 0
M  V30 739 H 70.2028 -5.7656 2.01024 0
M  V30 740 H 71.6168 -4.32338 3.76506 0
M  V30 741 H 70.0138 -3.98986 4.48252 0
M  V30 742 H 71.0838 -2.63834 4.06841 0
M  V30 743 N 72.4269 -1.23603 -0.977757 0
M  V30 744 C 73.6749 -1.06759 -1.71601 0
M  V30 745 C 73.9959 0.395929 -1.90938 0
M  V30 746 O 73.2659 1.28356 -1.47992 0
M  V30 747 H 71.8459 -0.392062 -0.635843 0
M  V30 748 H 74.5079 -1.55362 -1.1768 0
M  V30 749 H 73.6039 -1.55763 -2.70452 0
M  V30 750 N 73.905 1.17692 -1.04816 0
M  V30 751 C 75.154 1.87192 -0.751132 0
M  V30 752 C 75.467 1.8169 0.724441 0
M  V30 753 O 76.673 2.46625 1.13527 0
M  V30 754 C 75.129 3.35857 -1.29338 0
M  V30 755 C 74.737 3.4987 -2.79812 0
M  V30 756 C 76.481 4.10709 -1.07322 0
M  V30 757 C 74.388 4.92536 -3.27356 0
M  V30 758 H 73.318 0.701162 -0.277288 0
M  V30 759 H 75.969 1.32932 -1.26496 0
M  V30 760 H 74.351 3.89631 -0.707376 0
M  V30 761 H 75.525 3.06332 -3.44235 0
M  V30 762 H 73.84 2.88433 -3.00325 0
M  V30 763 H 76.437 5.15952 -1.4035 0
M  V30 764 H 76.78 4.16299 -0.0108001 0
M  V30 765 H 77.313 3.6313 -1.62423 0
M  V30 766 H 74.052 4.92119 -4.33012 0
M  V30 767 H 73.572 5.3676 -2.67673 0
M  V30 768 H 75.251 5.61288 -3.21815 0
M  V30 769 N 75.3831 0.828654 1.34056 0
M  V30 770 C 76.6301 0.419458 1.98108 0
M  V30 771 C 76.9581 -1.01886 1.65679 0
M  V30 772 O 76.2131 -1.72539 0.923512 0
M  V30 773 C 76.5121 0.575226 3.52741 0
M  V30 774 C 76.1781 1.98012 4.05095 0
M  V30 775 C 74.8401 2.36442 4.19104 0
M  V30 776 C 77.1921 2.89824 4.33188 0
M  V30 777 C 74.5201 3.66009 4.58535 0
M  V30 778 C 76.8721 4.1886 4.74066 0
M  V30 779 C 75.5361 4.5726 4.86281 0
M  V30 780 H 74.8061 0.153491 0.724929 0
M  V30 781 H 77.4531 1.05371 1.59904 0
M  V30 782 H 75.7581 -0.142385 3.91541 0
M  V30 783 H 77.4551 0.239057 4.00287 0
M  V30 784 H 74.0451 1.67162 3.94658 0
M  V30 785 H 78.2291 2.61375 4.21897 0
M  V30 786 H 73.4851 3.95579 4.66184 0
M  V30 787 H 77.6591 4.90086 4.94761 0
M  V30 788 H 75.2861 5.57707 5.16592 0
M  V30 789 N 76.8612 -1.46375 0.584142 0
M  V30 790 C 78.2722 -1.86031 0.157959 0
M  V30 791 C 78.6232 -1.48753 -1.27933 0
M  V30 792 O 77.7482 -0.903098 -1.96655 0
M  V30 793 C 78.3432 -3.37642 0.279892 0
M  V30 794 C 76.9022 -3.76289 -0.09143 0
M  V30 795 C 76.0492 -2.7039 0.615178 0
M  V30 796 H 79.0002 -1.37509 0.792274 0
M  V30 797 H 79.0212 -3.77275 -0.494364 0
M  V30 798 H 78.5332 -3.64742 1.32607 0
M  V30 799 H 76.6342 -3.54806 -1.13769 0
M  V30 800 H 76.7472 -4.78246 0.285886 0
M  V30 801 H 75.1112 -2.5464 0.0552833 0
M  V30 802 H 75.8942 -3.0033 1.66303 0
M  V30 803 N 78.3393 -0.321999 -1.54275 0
M  V30 804 C 79.5673 0.283052 -2.04955 0
M  V30 805 C 79.9823 1.45904 -1.19823 0
M  V30 806 O 79.3393 1.81063 -0.228545 0
M  V30 807 C 79.3903 0.719028 -3.54277 0
M  V30 808 O 79.1113 -0.410175 -4.36176 0
M  V30 809 C 80.6123 1.38705 -4.21041 0
M  V30 810 H 77.8323 0.0584616 -0.668448 0
M  V30 811 H 80.3763 -0.467734 -1.99079 0
M  V30 812 H 78.5313 1.41979 -3.60445 0
M  V30 813 H 78.9453 -0.0669416 -5.24457 0
M  V30 814 H 80.4193 1.64306 -5.2698 0
M  V30 815 H 80.8963 2.33385 -3.72059 0
M  V30 816 H 81.5023 0.728906 -4.19007 0
M  V30 817 N 79.8174 1.5752 -0.0501392 0
M  V30 818 C 80.7494 2.08413 0.95376 0
M  V30 819 C 81.7624 1.01175 1.27544 0
M  V30 820 O 82.9514 1.28744 1.23641 0
M  V30 821 C 80.0514 2.51138 2.27559 0
M  V30 822 C 79.2244 3.817 2.13598 0
M  V30 823 C 78.2834 4.10749 3.28895 0
M  V30 824 O 77.3094 4.80685 3.04845 0
M  V30 825 N 78.5114 3.62579 4.5334 0
M  V30 826 H 81.2764 2.95165 0.519383 0
M  V30 827 H 78.8374 1.61327 0.136127 0
M  V30 828 H 80.8294 2.67648 3.03557 0
M  V30 829 H 79.3994 1.6964 2.62567 0
M  V30 830 H 78.6194 3.74782 1.22197 0
M  V30 831 H 79.9074 4.67201 2.01496 0
M  V30 832 H 79.3054 3.06039 4.75769 0
M  V30 833 H 77.8624 3.84329 5.26436 0
M  V30 834 N 81.2955 -0.223234 1.56011 0
M  V30 835 C 82.2255 -1.27988 1.95298 0
M  V30 836 C 83.2065 -1.48976 0.820979 0
M  V30 837 O 84.3915 -1.61188 1.08315 0
M  V30 838 C 81.5215 -2.63 2.26822 0
M  V30 839 C 80.4755 -2.56671 3.42497 0
M  V30 840 C 79.8015 -3.95697 3.59622 0
M  V30 841 C 81.1015 -2.11601 4.77517 0
M  V30 842 H 82.7955 -0.953525 2.8381 0
M  V30 843 H 80.3415 -0.457244 1.36548 0
M  V30 844 H 82.2945 -3.37077 2.52898 0
M  V30 845 H 81.0185 -2.9732 1.35161 0
M  V30 846 H 79.6775 -1.85051 3.16467 0
M  V30 847 H 79.3255 -4.27322 2.6534 0
M  V30 848 H 79.0255 -3.92345 4.37424 0
M  V30 849 H 80.5495 -4.71438 3.88044 0
M  V30 850 H 81.9635 -2.7542 5.02809 0
M  V30 851 H 80.3605 -2.19311 5.5859 0
M  V30 852 H 81.4305 -1.06824 4.72987 0
M  V30 853 N 82.7736 -1.49793 -0.48987 0
M  V30 854 C 84.1846 -1.52914 -1.07118 0
M  V30 855 C 84.5356 -0.321738 -1.93544 0
M  V30 856 O 83.6606 0.567338 -2.08831 0
M  V30 857 C 84.2556 -2.771 -1.94938 0
M  V30 858 C 82.8146 -2.82963 -2.48212 0
M  V30 859 C 81.9616 -2.46972 -1.26096 0
M  V30 860 H 84.9126 -1.56329 -0.273289 0
M  V30 861 H 84.9336 -2.57892 -2.79771 0
M  V30 862 H 84.4456 -3.64959 -1.32009 0
M  V30 863 H 82.5466 -1.99411 -3.14748 0
M  V30 864 H 82.6596 -3.85406 -2.84603 0
M  V30 865 H 81.0236 -1.98994 -1.58976 0
M  V30 866 H 81.8066 -3.37118 -0.648581 0
M  V30 867 N 84.2517 0.741722 -1.39055 0
M  V30 868 C 85.1837 1.8657 -1.33133 0
M  V30 869 C 86.1967 1.61001 -0.241329 0
M  V30 870 O 87.3857 1.7136 -0.499784 0
M  V30 871 C 84.4857 3.22457 -1.04283 0
M  V30 872 C 83.6587 3.75435 -2.24427 0
M  V30 873 C 82.7177 4.89867 -1.92138 0
M  V30 874 O 81.7437 5.03879 -2.64754 0
M  V30 875 N 82.9457 5.73738 -0.88347 0
M  V30 876 H 85.7107 1.92156 -2.29991 0
M  V30 877 H 83.2717 0.922172 -1.3307 0
M  V30 878 H 85.2637 3.9657 -0.807128 0
M  V30 879 H 83.8337 3.12181 -0.161807 0
M  V30 880 H 83.0537 2.92751 -2.6399 0
M  V30 881 H 84.3417 4.07563 -3.04581 0
M  V30 882 H 83.7397 5.64999 -0.281517 0
M  V30 883 H 82.2967 6.47947 -0.707662 0
M  V30 884 N 85.7298 1.2412 0.971189 0
M  V30 885 C 86.9598 1.10415 1.7462 0
M  V30 886 C 87.3678 -0.346462 1.86001 0
M  V30 887 O 86.7108 -1.25104 1.34517 0
M  V30 888 C 86.7728 1.66596 3.18568 0
M  V30 889 C 86.4368 3.15446 3.3067 0
M  V30 890 C 87.4338 4.12636 3.16271 0
M  V30 891 C 85.1188 3.55337 3.55022 0
M  V30 892 C 87.1128 5.47699 3.26044 0
M  V30 893 C 84.7998 4.90542 3.64434 0
M  V30 894 C 85.7978 5.86532 3.49956 0
M  V30 895 O 85.4858 7.19279 3.59017 0
M  V30 896 H 85.2178 0.386616 0.55453 0
M  V30 897 H 87.7718 1.64633 1.22821 0
M  V30 898 H 86.0018 1.06808 3.71657 0
M  V30 899 H 87.6908 1.48232 3.77865 0
M  V30 900 H 88.4568 3.8316 2.97344 0
M  V30 901 H 84.3358 2.8113 3.65359 0
M  V30 902 H 87.8798 6.22603 3.14661 0
M  V30 903 H 83.7768 5.19691 3.82873 0
M  V30 904 H 84.5448 7.27153 3.75754 0
M  V30 905 N 87.2079 -1.17134 1.05439 0
M  V30 906 C 88.1379 -2.2342 0.678649 0
M  V30 907 C 89.1189 -1.66971 -0.32476 0
M  V30 908 O 90.3039 -1.93149 -0.201802 0
M  V30 909 C 87.4339 -3.47256 0.0552099 0
M  V30 910 C 86.3879 -4.16543 0.98365 0
M  V30 911 C 85.7139 -5.34231 0.223961 0
M  V30 912 C 87.0139 -4.68495 2.3089 0
M  V30 913 H 88.7079 -2.55105 1.56722 0
M  V30 914 H 86.2539 -1.2262 0.754998 0
M  V30 915 H 88.2069 -4.20828 -0.21946 0
M  V30 916 H 86.9309 -3.14846 -0.868319 0
M  V30 917 H 85.5899 -3.44887 1.24293 0
M  V30 918 H 85.2379 -4.98071 -0.702412 0
M  V30 919 H 84.9379 -5.81527 0.842627 0
M  V30 920 H 86.4619 -6.10585 -0.0433671 0
M  V30 921 H 87.8759 -5.33691 2.09396 0
M  V30 922 H 86.2729 -5.26379 2.88176 0
M  V30 923 H 87.3429 -3.85169 2.94572 0
M  V30 924 N 88.686 -0.835752 -1.33615 0
M  V30 925 C 89.618 -0.224151 -2.28101 0
M  V30 926 C 90.631 0.593331 -1.51603 0
M  V30 927 O 91.82 0.420911 -1.73466 0
M  V30 928 C 88.92 0.703309 -3.31522 0
M  V30 929 C 88.093 -0.0741528 -4.37337 0
M  V30 930 C 87.152 0.776176 -5.20444 0
M  V30 931 O 86.178 0.216506 -5.68788 0
M  V30 932 N 87.38 2.09401 -5.41416 0
M  V30 933 H 90.145 -1.03598 -2.81225 0
M  V30 934 H 87.706 -0.69392 -1.46275 0
M  V30 935 H 89.698 1.27707 -3.84022 0
M  V30 936 H 88.268 1.41585 -2.78698 0
M  V30 937 H 87.488 -0.82928 -3.85378 0
M  V30 938 H 88.776 -0.608863 -5.05144 0
M  V30 939 H 88.174 2.57229 -5.03835 0
M  V30 940 H 86.731 2.61633 -5.96985 0
M  V30 941 N 90.1641 1.46063 -0.591896 0
M  V30 942 C 91.3921 2.06717 -0.0868936 0
M  V30 943 C 91.8071 1.43916 1.22203 0
M  V30 944 O 91.1641 0.547698 1.74088 0
M  V30 945 C 91.2151 3.6142 0.0758725 0
M  V30 946 O 90.9361 4.21874 -1.18126 0
M  V30 947 C 92.4371 4.39025 0.61416 0
M  V30 948 H 89.6571 0.668162 -0.0616518 0
M  V30 949 H 92.2011 1.8755 -0.815175 0
M  V30 950 H 90.3561 3.79983 0.754413 0
M  V30 951 H 90.7701 5.14861 -1.00092 0
M  V30 952 H 92.2441 5.4783 0.677193 0
M  V30 953 H 92.7211 4.07708 1.63312 0
M  V30 954 H 93.3271 4.2529 -0.0298142 0
M  V30 955 N 91.6422 0.330177 1.54103 0
M  V30 956 C 92.5522 -0.541534 2.28264 0
M  V30 957 C 93.5682 -1.12351 1.32866 0
M  V30 958 O 94.7442 -1.14206 1.65888 0
M  V30 959 C 91.8092 -1.68322 3.03098 0
M  V30 960 C 90.8702 -1.13238 4.14096 0
M  V30 961 C 90.1032 -2.21966 4.85352 0
M  V30 962 O 90.3262 -3.42437 4.56172 0
M  V30 963 O 89.2602 -1.87013 5.7211 0
M  V30 964 H 93.0862 0.060938 3.03639 0
M  V30 965 H 90.6712 0.09565 1.49093 0
M  V30 966 H 92.5532 -2.34777 3.49939 0
M  V30 967 H 91.2282 -2.27176 2.30593 0
M  V30 968 H 90.1352 -0.432736 3.71589 0
M  V30 969 H 91.4682 -0.588898 4.88664 0
M  V30 970 N 93.1203 -1.57491 0.0584922 0
M  V30 971 C 94.0673 -2.11958 -0.913376 0
M  V30 972 C 95.0373 -1.02875 -1.30407 0
M  V30 973 O 96.2223 -1.30464 -1.39226 0
M  V30 974 C 93.3623 -2.67497 -2.18035 0
M  V30 975 C 92.4753 -3.90691 -1.84349 0
M  V30 976 C 91.6103 -4.3452 -3.05559 0
M  V30 977 C 90.6493 -5.50395 -2.67827 0
M  V30 978 N 89.7863 -5.89244 -3.81754 0
M  V30 979 H 94.6263 -2.94704 -0.442017 0
M  V30 980 H 92.1633 -1.45643 -0.206545 0
M  V30 981 H 94.1213 -2.978 -2.92183 0
M  V30 982 H 92.7513 -1.87537 -2.62735 0
M  V30 983 H 91.8033 -3.66934 -1.00319 0
M  V30 984 H 93.1153 -4.7489 -1.5258 0
M  V30 985 H 92.2693 -4.66414 -3.87998 0
M  V30 986 H 91.0083 -3.49147 -3.40511 0
M  V30 987 H 90.0133 -5.18165 -1.83806 0
M  V30 988 H 91.2383 -6.3749 -2.34059 0
M  V30 989 H 89.1843 -5.06823 -4.16493 0
M  V30 990 H 89.1013 -6.68151 -3.53708 0
M  V30 991 H 90.3693 -6.25756 -4.64811 0
M  V30 992 N 94.5984 0.214957 -1.56127 0
M  V30 993 C 95.5284 1.2695 -1.95974 0
M  V30 994 C 96.5094 1.48539 -0.828868 0
M  V30 995 O 97.6944 1.60611 -1.09168 0
M  V30 996 C 94.8244 2.61794 -2.28214 0
M  V30 997 C 93.7784 2.54851 -3.43853 0
M  V30 998 C 93.1044 3.93785 -3.61715 0
M  V30 999 C 94.4044 2.09065 -4.78632 0
M  V30 1000 H 96.0984 0.93846 -2.84312 0
M  V30 1001 H 93.6444 0.449996 -1.36788 0
M  V30 1002 H 95.5974 3.35731 -2.54682 0
M  V30 1003 H 94.3214 2.96599 -1.36736 0
M  V30 1004 H 92.9804 1.8337 -3.17444 0
M  V30 1005 H 92.6284 4.25908 -2.67602 0
M  V30 1006 H 92.3284 3.90019 -4.39498 0
M  V30 1007 H 93.8524 4.69374 -3.90539 0
M  V30 1008 H 95.2664 2.7275 -5.04262 0
M  V30 1009 H 93.6634 2.16346 -5.59745 0
M  V30 1010 H 94.7334 1.04315 -4.73547 0
M  V30 1011 N 96.0765 1.50051 0.48192 0
M  V30 1012 C 97.0395 1.67584 1.5636 0
M  V30 1013 C 98.0395 0.546894 1.51214 0
M  V30 1014 O 99.2295 0.813725 1.54026 0
M  V30 1015 C 96.3615 1.691 2.96003 0
M  V30 1016 H 97.5545 2.64078 1.42136 0
M  V30 1017 H 95.1075 1.39369 0.707533 0
M  V30 1018 H 95.8425 0.742589 3.15684 0
M  V30 1019 H 95.6275 2.51105 3.01146 0
M  V30 1020 H 97.1175 1.84656 3.74556 0
M  V30 1021 N 97.5546 -0.734337 1.39446 0
M  V30 1022 C 98.9706 -1.03997 1.21065 0
M  V30 1023 C 99.1706 -2.01369 0.0727019 0
M  V30 1024 O 98.2266 -2.45856 -0.575426 0
M  V30 1025 C 99.5396 -1.60163 2.54496 0
M  V30 1026 C 101.088 -1.7224 2.61347 0
M  V30 1027 C 101.563 -2.31814 3.95002 0
M  V30 1028 N 103.054 -2.39223 3.96644 0
M  V30 1029 C 103.789 -2.86258 4.96834 0
M  V30 1030 N 103.285 -3.33184 6.07421 0
M  V30 1031 N 105.078 -2.85473 4.84213 0
M  V30 1032 H 97.2286 -0.0885624 2.12215 0
M  V30 1033 H 99.4916 -0.10191 0.942506 0
M  V30 1034 H 99.1976 -0.960811 3.38321 0
M  V30 1035 H 99.0716 -2.5896 2.74262 0
M  V30 1036 H 101.459 -2.35443 1.77906 0
M  V30 1037 H 101.54 -0.720939 2.4543 0
M  V30 1038 H 101.184 -1.69238 4.78875 0
M  V30 1039 H 101.114 -3.32638 4.08239 0
M  V30 1040 H 103.605 -2.06057 3.16779 0
M  V30 1041 H 103.918 -3.67586 6.7978 0
M  V30 1042 H 102.263 -3.31191 6.11013 0
M  V30 1043 H 105.454 -2.48136 3.96921 0
M  V30 1044 H 105.627 -3.21814 5.62441 0
M  V30 1045 N 99.0327 -1.24633 -0.964593 0
M  V30 1046 C 100.261 -1.11501 -1.74285 0
M  V30 1047 C 100.676 0.332165 -1.85855 0
M  V30 1048 O 100.033 1.22903 -1.34911 0
M  V30 1049 C 100.084 -1.75258 -3.16175 0
M  V30 1050 O 99.8047 -3.14318 -3.05182 0
M  V30 1051 C 101.306 -1.67776 -4.10324 0
M  V30 1052 H 98.5257 -0.389407 -0.546446 0
M  V30 1053 H 101.07 -1.64801 -1.21083 0
M  V30 1054 H 99.2247 -1.25954 -3.66353 0
M  V30 1055 H 99.6387 -3.4551 -3.94618 0
M  V30 1056 H 101.113 -2.17064 -5.0753 0
M  V30 1057 H 101.59 -0.639584 -4.34518 0
M  V30 1058 H 102.196 -2.16522 -3.66058 0
M  V30 1059 N 100.511 1.16574 -1.06058 0
M  V30 1060 C 101.443 2.2045 -0.627239 0
M  V30 1061 C 102.456 1.59752 0.313534 0
M  V30 1062 O 103.645 1.78192 0.104896 0
M  V30 1063 C 100.745 3.3875 0.100974 0
M  V30 1064 C 99.9178 4.29008 -0.852687 0
M  V30 1065 C 98.9768 5.25944 -0.164152 0
M  V30 1066 O 98.0028 5.63535 -0.801047 0
M  V30 1067 N 99.2048 5.70075 1.09518 0
M  V30 1068 H 101.97 2.58249 -1.52077 0
M  V30 1069 H 99.5308 1.3156 -0.943594 0
M  V30 1070 H 101.523 4.00638 0.57194 0
M  V30 1071 H 100.093 2.99476 0.89628 0
M  V30 1072 H 99.3128 3.64419 -1.50308 0
M  V30 1073 H 100.601 4.86195 -1.49972 0
M  V30 1074 H 99.9988 5.41624 1.6328 0
M  V30 1075 H 98.5558 6.34067 1.51006 0
M  V30 1076 N 101.989 0.842826 1.3317 0
M  V30 1077 C 102.952 0.284065 2.27433 0
M  V30 1078 C 103.952 -0.54948 1.5112 0
M  V30 1079 O 105.142 -0.362699 1.70382 0
M  V30 1080 C 102.274 -0.599384 3.35589 0
M  V30 1081 H 103.467 1.11589 2.78366 0
M  V30 1082 H 101.02 0.616221 1.4364 0
M  V30 1083 H 101.755 -1.45349 2.89904 0
M  V30 1084 H 101.54 -0.00291266 3.921 0
M  V30 1085 H 103.03 -0.983488 4.05854 0
M  V30 1086 N 103.467 -1.45747 0.599634 0
M  V30 1087 C 104.43 -2.28917 -0.113835 0
M  V30 1088 C 105.43 -1.3933 -0.802729 0
M  V30 1089 O 106.62 -1.61534 -0.652103 0
M  V30 1090 C 103.752 -3.20152 -1.17114 0
M  V30 1091 H 104.945 -2.93478 0.617289 0
M  V30 1092 H 102.498 -1.52137 0.358327 0
M  V30 1093 H 103.233 -2.60374 -1.93329 0
M  V30 1094 H 103.018 -3.86133 -0.681468 0
M  V30 1095 H 104.508 -3.82708 -1.67105 0
M  V30 1096 N 104.945 -0.338344 -1.53925 0
M  V30 1097 C 105.908 0.508299 -2.23493 0
M  V30 1098 C 106.908 1.03175 -1.23335 0
M  V30 1099 O 108.098 0.921826 -1.47811 0
M  V30 1100 C 105.23 1.70754 -2.95052 0
M  V30 1101 H 106.423 -0.100058 -2.99733 0
M  V30 1102 H 103.976 -0.0896198 -1.56043 0
M  V30 1103 H 104.711 2.35474 -2.22986 0
M  V30 1104 H 104.496 1.33946 -3.68512 0
M  V30 1105 H 105.986 2.30818 -3.48013 0
M  V30 1106 N 106.423 1.57458 -0.0668435 0
M  V30 1107 C 107.672 1.92477 0.602947 0
M  V30 1108 C 107.985 0.948419 1.71068 0
M  V30 1109 O 109.191 1.19124 2.43971 0
M  V30 1110 C 107.647 3.41903 1.12383 0
M  V30 1111 C 107.255 4.47975 0.04737 0
M  V30 1112 C 108.999 3.85931 1.76797 0
M  V30 1113 C 106.906 5.88529 0.582022 0
M  V30 1114 H 105.836 0.718387 0.22899 0
M  V30 1115 H 108.487 1.82978 -0.138276 0
M  V30 1116 H 106.869 3.46459 1.91787 0
M  V30 1117 H 108.043 4.55029 -0.726978 0
M  V30 1118 H 106.358 4.13384 -0.500243 0
M  V30 1119 H 108.955 4.88322 2.17821 0
M  V30 1120 H 109.298 3.23029 2.62599 0
M  V30 1121 H 109.831 3.83958 1.04024 0
M  V30 1122 H 106.57 6.55065 -0.238721 0
M  V30 1123 H 106.09 5.85004 1.324 0
M  V30 1124 H 107.769 6.38258 1.05999 0
M  V30 1125 N 107.901 -0.206675 1.56239 0
M  V30 1126 C 108.811 -1.27686 1.96808 0
M  V30 1127 C 109.827 -1.50455 0.874035 0
M  V30 1128 O 111.003 -1.63295 1.17884 0
M  V30 1129 C 108.068 -2.60358 2.28942 0
M  V30 1130 C 107.129 -2.45762 3.51994 0
M  V30 1131 C 106.362 -3.72108 3.82585 0
M  V30 1132 O 106.585 -4.75776 3.14631 0
M  V30 1133 O 105.519 -3.6833 4.76043 0
M  V30 1134 H 109.345 -0.962593 2.88041 0
M  V30 1135 H 106.93 -0.410746 1.43643 0
M  V30 1136 H 108.812 -3.38687 2.50737 0
M  V30 1137 H 107.487 -2.91435 1.4088 0
M  V30 1138 H 106.394 -1.65584 3.35459 0
M  V30 1139 H 107.727 -2.19621 4.40486 0
M  V30 1140 N 109.379 -1.50304 -0.473955 0
M  V30 1141 C 110.795 -1.37667 -0.807466 0
M  V30 1142 C 110.995 -0.430555 -1.96846 0
M  V30 1143 O 110.051 0.127874 -2.52176 0
M  V30 1144 C 111.364 -2.78974 -1.12223 0
M  V30 1145 C 112.912 -2.87868 -1.22885 0
M  V30 1146 C 113.387 -4.30003 -1.57676 0
M  V30 1147 N 114.878 -4.3294 -1.64673 0
M  V30 1148 C 115.613 -5.3991 -1.93091 0
M  V30 1149 N 115.109 -6.57092 -2.1955 0
M  V30 1150 N 116.902 -5.27351 -1.94569 0
M  V30 1151 H 109.053 -2.10394 0.291212 0
M  V30 1152 H 111.316 -0.945575 0.0677609 0
M  V30 1153 H 111.022 -3.50031 -0.342229 0
M  V30 1154 H 110.896 -3.16038 -2.05913 0
M  V30 1155 H 113.283 -2.17032 -1.99953 0
M  V30 1156 H 113.364 -2.54352 -0.271814 0
M  V30 1157 H 113.008 -5.01375 -0.81149 0
M  V30 1158 H 112.938 -4.61004 -2.54525 0
M  V30 1159 H 115.429 -3.48441 -1.46277 0
M  V30 1160 H 115.742 -7.34425 -2.405 0
M  V30 1161 H 114.087 -6.60272 -2.16948 0
M  V30 1162 H 117.278 -4.34801 -1.73394 0
M  V30 1163 H 117.451 -6.10805 -2.16381 0
M  V30 1164 N 110.857 0.726932 -1.39834 0
M  V30 1165 C 111.767 1.87131 -1.41489 0
M  V30 1166 C 112.783 1.71239 -0.308757 0
M  V30 1167 O 113.959 1.93701 -0.551529 0
M  V30 1168 C 111.024 3.22811 -1.26468 0
M  V30 1169 C 110.085 3.51039 -2.47124 0
M  V30 1170 C 109.318 4.80245 -2.3281 0
M  V30 1171 O 109.541 5.54537 -1.33585 0
M  V30 1172 O 108.475 5.08554 -3.21957 0
M  V30 1173 H 112.301 1.8869 -2.3797 0
M  V30 1174 H 109.886 0.875837 -1.21035 0
M  V30 1175 H 111.768 4.03877 -1.20255 0
M  V30 1176 H 110.443 3.22005 -0.330862 0
M  V30 1177 H 109.35 2.70027 -2.58914 0
M  V30 1178 H 110.683 3.56632 -3.39227 0
M  V30 1179 N 112.336 1.25143 0.95797 0
M  V30 1180 C 113.583 1.09692 1.70217 0
M  V30 1181 C 113.911 -0.362654 1.91089 0
M  V30 1182 O 113.166 -1.28386 1.47701 0
M  V30 1183 C 113.465 1.79272 3.09187 0
M  V30 1184 C 113.131 3.29196 3.08125 0
M  V30 1185 C 111.793 3.70096 3.07543 0
M  V30 1186 C 114.145 4.24995 3.0171 0
M  V30 1187 C 111.473 5.05213 2.9829 0
M  V30 1188 C 113.825 5.60132 2.93999 0
M  V30 1189 C 112.489 6.00365 2.9175 0
M  V30 1190 H 111.759 0.401393 0.622868 0
M  V30 1191 H 114.406 1.55372 1.11945 0
M  V30 1192 H 112.711 1.26014 3.70982 0
M  V30 1193 H 114.408 1.64773 3.65583 0
M  V30 1194 H 110.998 2.96651 3.09348 0
M  V30 1195 H 115.182 3.9439 3.01281 0
M  V30 1196 H 110.438 5.35569 2.94916 0
M  V30 1197 H 114.612 6.3406 2.87996 0
M  V30 1198 H 112.239 7.05023 2.84336 0
M  V30 1199 N 113.814 -1.1601 1.06675 0
M  V30 1200 C 115.062 -1.86264 0.784229 0
M  V30 1201 C 115.383 -1.82328 -0.691488 0
M  V30 1202 O 114.653 -1.25947 -1.50047 0
M  V30 1203 H 113.233 -0.689621 0.28711 0
M  V30 1204 H 115.895 -1.40664 1.34906 0
M  V30 1205 H 114.991 -2.91595 1.11259 0
M  V30 1206 N 115.292 -0.849877 -1.32721 0
M  V30 1207 C 116.255 -0.296122 -2.27279 0
M  V30 1208 C 117.255 0.541458 -1.5141 0
M  V30 1209 O 118.445 0.353658 -1.70572 0
M  V30 1210 C 115.577 0.581579 -3.35902 0
M  V30 1211 H 116.77 -1.13064 -2.77771 0
M  V30 1212 H 114.323 -0.62383 -1.43311 0
M  V30 1213 H 115.058 1.43809 -2.9067 0
M  V30 1214 H 114.843 -0.0178814 -3.92096 0
M  V30 1215 H 116.333 0.961951 -4.0637 0
M  V30 1216 N 116.77 1.45427 -0.607355 0
M  V30 1217 C 117.702 2.2871 0.149752 0
M  V30 1218 C 118.715 1.39937 0.831958 0
M  V30 1219 O 119.904 1.64313 0.697385 0
M  V30 1220 C 117.004 3.15673 1.23304 0
M  V30 1221 C 116.177 4.32722 0.637996 0
M  V30 1222 C 115.236 5.00895 1.61215 0
M  V30 1223 O 114.262 5.57697 1.13854 0
M  V30 1224 N 115.464 5.00159 2.94655 0
M  V30 1225 H 118.229 2.94328 -0.564882 0
M  V30 1226 H 115.79 1.55612 -0.446823 0
M  V30 1227 H 117.782 3.58144 1.88454 0
M  V30 1228 H 116.352 2.51965 1.8502 0
M  V30 1229 H 115.572 3.93734 -0.191572 0
M  V30 1230 H 116.86 5.08321 0.220665 0
M  V30 1231 H 116.258 4.553 3.35735 0
M  V30 1232 H 114.815 5.46495 3.55228 0
M  V30 1233 N 118.248 0.346503 1.53744 0
M  V30 1234 C 119.495 -0.249104 2.00962 0
M  V30 1235 C 119.823 -1.5032 1.23426 0
M  V30 1236 O 119.078 -1.93217 0.310761 0
M  V30 1237 C 119.377 -0.605809 3.52228 0
M  V30 1238 C 119.043 0.551747 4.47512 0
M  V30 1239 C 117.705 0.86941 4.73281 0
M  V30 1240 C 120.057 1.32818 5.03993 0
M  V30 1241 C 117.385 1.96582 5.52786 0
M  V30 1242 C 119.737 2.41486 5.84694 0
M  V30 1243 C 118.401 2.73808 6.08757 0
M  V30 1244 H 117.671 -0.0911538 0.735372 0
M  V30 1245 H 120.318 0.475027 1.85515 0
M  V30 1246 H 118.623 -1.4107 3.65522 0
M  V30 1247 H 120.32 -1.07858 3.86222 0
M  V30 1248 H 116.91 0.294102 4.2759 0
M  V30 1249 H 121.094 1.09602 4.84047 0
M  V30 1250 H 116.35 2.22045 5.69654 0
M  V30 1251 H 120.524 3.02078 6.27473 0
M  V30 1252 H 118.151 3.58892 6.7015 0
M  V30 1253 N 119.726 -1.57421 0.075193 0
M  V30 1254 C 120.689 -2.11791 -0.876203 0
M  V30 1255 C 121.689 -1.04268 -1.22412 0
M  V30 1256 O 122.879 -1.30242 -1.15684 0
M  V30 1257 C 120.011 -2.62207 -2.17854 0
M  V30 1258 H 121.204 -2.9716 -0.40444 0
M  V30 1259 H 118.757 -1.55333 -0.173557 0
M  V30 1260 H 119.492 -1.803 -2.6956 0
M  V30 1261 H 119.277 -3.40802 -1.93897 0
M  V30 1262 H 120.767 -3.04335 -2.85955 0
M  V30 1263 N 121.204 0.198386 -1.56346 0
M  V30 1264 C 122.452 0.91747 -1.80075 0
M  V30 1265 C 122.773 1.83929 -0.647692 0
M  V30 1266 O 122.043 1.93029 0.334166 0
M  V30 1267 H 120.623 0.341774 -0.664228 0
M  V30 1268 H 123.285 0.204684 -1.93822 0
M  V30 1269 H 122.381 1.51055 -2.7311 0
M  V30 1270 N 122.682 1.50554 0.465978 0
M  V30 1271 C 123.907 1.65838 1.24549 0
M  V30 1272 C 124.332 0.343486 1.84937 0
M  V30 1273 O 123.69 -0.69324 1.67523 0
M  V30 1274 C 123.738 2.75533 2.32624 0
M  V30 1275 O 122.842 2.37142 3.37398 0
M  V30 1276 H 122.183 0.553893 0.366194 0
M  V30 1277 H 124.713 1.96959 0.553927 0
M  V30 1278 H 124.723 2.98763 2.77857 0
M  V30 1279 H 123.398 3.70962 1.88043 0
M  V30 1280 H 121.975 2.24377 2.97841 0
M  V30 1281 N 124.16 -0.719506 1.40217 0
M  V30 1282 C 125.406 -1.48034 1.39491 0
M  V30 1283 C 125.761 -1.92399 -0.00443536 0
M  V30 1284 O 125.054 -1.64993 -0.974061 0
M  V30 1285 C 125.248 -2.72271 2.31524 0
M  V30 1286 C 125.077 -2.40055 3.80268 0
M  V30 1287 C 123.847 -2.31588 4.49105 0
M  V30 1288 C 126.045 -2.04581 4.71859 0
M  V30 1289 N 124.027 -1.92006 5.83101 0
M  V30 1290 C 125.398 -1.75568 5.94623 0
M  V30 1291 C 127.453 -1.91183 4.59732 0
M  V30 1292 C 126.156 -1.34505 7.06612 0
M  V30 1293 C 128.182 -1.51524 5.71659 0
M  V30 1294 C 127.544 -1.23406 6.93506 0
M  V30 1295 H 123.643 -0.539927 0.565688 0
M  V30 1296 H 126.227 -0.834764 1.75897 0
M  V30 1297 H 124.398 -3.34584 1.97251 0
M  V30 1298 H 126.13 -3.38584 2.21682 0
M  V30 1299 H 122.885 -2.49199 4.02737 0
M  V30 1300 H 123.309 -1.74764 6.54054 0
M  V30 1301 H 127.951 -2.11584 3.66049 0
M  V30 1302 H 125.669 -1.12846 8.00182 0
M  V30 1303 H 129.255 -1.41741 5.6427 0
M  V30 1304 H 128.135 -0.931788 7.78645 0
M  V30 1305 N 125.638 -1.25649 -0.95132 0
M  V30 1306 C 126.887 -1.09988 -1.69073 0
M  V30 1307 C 127.2 0.358355 -1.92289 0
M  V30 1308 O 128.406 0.635466 -2.63958 0
M  V30 1309 C 126.862 -1.92012 -3.044 0
M  V30 1310 C 126.47 -3.42347 -2.88968 0
M  V30 1311 C 128.214 -1.8493 -3.82101 0
M  V30 1312 C 126.121 -4.16655 -4.19705 0
M  V30 1313 H 125.051 -0.407993 -0.63408 0
M  V30 1314 H 127.702 -1.49873 -1.05879 0
M  V30 1315 H 126.084 -1.44952 -3.68517 0
M  V30 1316 H 127.258 -3.97104 -2.33762 0
M  V30 1317 H 125.573 -3.50557 -2.24719 0
M  V30 1318 H 128.17 -2.37739 -4.78941 0
M  V30 1319 H 128.513 -0.817883 -4.08187 0
M  V30 1320 H 129.046 -2.29758 -3.2474 0
M  V30 1321 H 125.785 -5.20224 -3.98807 0
M  V30 1322 H 125.305 -3.66681 -4.74663 0
M  V30 1323 H 126.984 -4.24551 -4.88227 0
M  V30 1324 N 127.117 1.15442 -1.07289 0
M  V30 1325 C 128.027 2.23786 -0.704057 0
M  V30 1326 C 129.043 1.7166 0.284413 0
M  V30 1327 O 130.219 2.00972 0.131205 0
M  V30 1328 C 127.284 3.46535 -0.106792 0
M  V30 1329 C 126.345 4.13654 -1.14842 0
M  V30 1330 C 125.578 5.30544 -0.57956 0
M  V30 1331 O 125.801 5.67187 0.604585 0
M  V30 1332 O 124.735 5.87154 -1.32414 0
M  V30 1333 H 128.561 2.57664 -1.60757 0
M  V30 1334 H 126.146 1.23152 -0.845803 0
M  V30 1335 H 128.028 4.20804 0.224048 0
M  V30 1336 H 126.703 3.14407 0.770049 0
M  V30 1337 H 125.61 3.4131 -1.5316 0
M  V30 1338 H 126.943 4.49861 -1.99714 0
M  V30 1339 N 128.595 0.856903 1.32268 0
M  V30 1340 C 130.011 0.547061 1.49931 0
M  V30 1341 C 130.211 -0.921781 1.7918 0
M  V30 1342 O 129.267 -1.70469 1.8627 0
M  V30 1343 C 130.58 1.43599 2.64196 0
M  V30 1344 C 132.128 1.43665 2.78081 0
M  V30 1345 C 132.603 2.31085 3.95428 0
M  V30 1346 N 134.094 2.28893 4.02694 0
M  V30 1347 C 134.829 2.93262 4.92732 0
M  V30 1348 N 134.325 3.66751 5.87763 0
M  V30 1349 N 136.118 2.82638 4.85873 0
M  V30 1350 H 128.269 1.8075 1.11549 0
M  V30 1351 H 130.532 0.772144 0.549997 0
M  V30 1352 H 130.238 2.48058 2.49319 0
M  V30 1353 H 130.112 1.12502 3.60032 0
M  V30 1354 H 132.499 0.399701 2.92381 0
M  V30 1355 H 132.58 1.7878 1.82952 0
M  V30 1356 H 132.224 3.34849 3.81888 0
M  V30 1357 H 132.154 1.93302 4.89839 0
M  V30 1358 H 134.645 1.75466 3.34694 0
M  V30 1359 H 134.958 4.13027 6.53168 0
M  V30 1360 H 133.303 3.70859 5.87783 0
M  V30 1361 H 136.494 2.24774 4.10602 0
M  V30 1362 H 136.667 3.33084 5.55841 0
M  V30 1363 N 130.073 -1.45103 0.615059 0
M  V30 1364 C 131.021 -2.32331 -0.111791 0
M  V30 1365 C 132.015 -1.46409 -0.852102 0
M  V30 1366 O 133.221 -1.62849 -0.766821 0
M  V30 1367 H 129.596 -0.749993 -0.0549072 0
M  V30 1368 H 131.567 -2.91407 0.642225 0
M  V30 1369 C 130.316 -3.3015 -1.09071 0
M  V30 1370 H 129.639 -3.96265 -0.530485 0
M  V30 1371 H 131.079 -3.93898 -1.56908 0
M  V30 1372 C 129.538 -2.57875 -2.168 0
M  V30 1373 O 130.068 -2.36567 -3.24652 0
M  V30 1374 N 128.274 -2.17884 -1.92289 0
M  V30 1375 H 127.821 -2.35413 -1.04587 0
M  V30 1376 H 127.779 -1.6985 -2.64572 0
M  V30 1377 N 131.551 -0.354651 -1.53558 0
M  V30 1378 C 132.461 0.50515 -2.29097 0
M  V30 1379 C 133.477 1.10223 -1.34636 0
M  V30 1380 O 134.653 1.11553 -1.67684 0
M  V30 1381 C 131.718 1.63479 -3.05738 0
M  V30 1382 C 130.779 1.06636 -4.15845 0
M  V30 1383 C 130.012 2.14217 -4.88822 0
M  V30 1384 O 130.235 3.35137 -4.61562 0
M  V30 1385 O 129.169 1.77887 -5.75013 0
M  V30 1386 H 132.995 -0.109237 -3.03503 0
M  V30 1387 H 130.58 -0.119357 -1.48922 0
M  V30 1388 H 132.462 2.2918 -3.5363 0
M  V30 1389 H 131.137 2.23478 -2.34178 0
M  V30 1390 H 130.044 0.373565 -3.7223 0
M  V30 1391 H 131.377 0.511081 -4.89539 0
M  V30 1392 N 133.029 1.57378 -0.0835403 0
M  V30 1393 C 134.306 1.85363 0.624507 0
M  V30 1394 C 134.686 0.978239 1.87066 0
M  V30 1395 O 134.034 0.0475908 2.2845 0
M  V30 1396 C 134.244 3.35795 0.950947 0
M  V30 1397 C 135.592 4.03581 1.31939 0
M  V30 1398 O 136.616 3.40609 1.04232 0
M  V30 1399 O 135.475 5.14672 1.83779 0
M  V30 1400 H 132.569 0.766162 0.311329 0
M  V30 1401 H 135.115 1.69307 -0.115362 0
M  V30 1402 H 133.887 3.91244 0.0663899 0
M  V30 1403 H 133.51 3.57154 1.74719 0
M  V30 1404 N 134.507 -0.190092 1.56449 0
M  V30 1405 C 135.755 -0.907908 1.80559 0
M  V30 1406 C 136.076 -1.83583 0.657438 0
M  V30 1407 O 135.346 -1.93203 -0.323924 0
M  V30 1408 H 133.926 -0.338247 0.666032 0
M  V30 1409 H 136.588 -0.194403 1.93928 0
M  V30 1410 H 135.684 -1.49604 2.73907 0
M  V30 1411 N 135.985 -1.50799 -0.457987 0
M  V30 1412 C 137.21 -1.66496 -1.23668 0
M  V30 1413 C 137.635 -0.353288 -1.84752 0
M  V30 1414 O 136.993 0.684346 -1.67888 0
M  V30 1415 C 137.041 -2.76763 -2.3116 0
M  V30 1416 O 136.145 -2.38928 -3.36136 0
M  V30 1417 H 135.486 -0.555828 -0.363252 0
M  V30 1418 H 138.016 -1.9725 -0.543474 0
M  V30 1419 H 138.026 -3.00232 -2.76269 0
M  V30 1420 H 136.701 -3.71954 -1.86073 0
M  V30 1421 H 135.278 -2.25953 -2.96647 0
M  V30 1422 N 137.463 0.71206 -1.40597 0
M  V30 1423 C 138.71 1.47197 -1.39065 0
M  V30 1424 C 139.038 1.94499 0.00583891 0
M  V30 1425 O 138.293 1.68752 0.99102 0
M  V30 1426 C 138.592 2.71039 -2.32965 0
M  V30 1427 C 138.258 2.42484 -3.80148 0
M  V30 1428 C 136.92 2.34406 -4.20247 0
M  V30 1429 C 139.272 2.18598 -4.73143 0
M  V30 1430 C 136.6 2.00516 -5.51371 0
M  V30 1431 C 138.952 1.8622 -6.0457 0
M  V30 1432 C 137.616 1.76626 -6.43708 0
M  V30 1433 H 136.886 0.538634 -0.508876 0
M  V30 1434 H 139.533 0.815325 -1.73276 0
M  V30 1435 H 137.838 3.41558 -1.91951 0
M  V30 1436 H 139.535 3.29138 -2.29061 0
M  V30 1437 H 136.125 2.49659 -3.4838 0
M  V30 1438 H 140.309 2.23793 -4.42979 0
M  V30 1439 H 135.565 1.91628 -5.80593 0
M  V30 1440 H 139.739 1.66752 -6.76141 0
M  V30 1441 H 137.366 1.50133 -7.45228 0
M  V30 1442 N 138.941 1.26152 0.944643 0
M  V30 1443 C 139.888 1.07408 2.04285 0
M  V30 1444 C 140.858 -0.0198413 1.66088 0
M  V30 1445 O 142.043 0.139264 1.90291 0
M  V30 1446 C 139.183 0.70945 3.37729 0
M  V30 1447 C 138.296 1.87926 3.88983 0
M  V30 1448 C 137.431 1.45807 5.10797 0
M  V30 1449 C 136.47 2.5964 5.54305 0
M  V30 1450 N 135.607 2.18226 6.67324 0
M  V30 1451 H 140.447 2.01389 2.1965 0
M  V30 1452 H 137.984 1.00275 1.07626 0
M  V30 1453 H 139.942 0.478948 4.14442 0
M  V30 1454 H 138.572 -0.193389 3.2222 0
M  V30 1455 H 137.624 2.22279 3.08701 0
M  V30 1456 H 138.936 2.73377 4.17213 0
M  V30 1457 H 138.09 1.18781 5.94959 0
M  V30 1458 H 136.829 0.574414 4.84305 0
M  V30 1459 H 135.834 2.87399 4.68702 0
M  V30 1460 H 137.059 3.48599 5.828 0
M  V30 1461 H 135.005 1.3229 6.42523 0
M  V30 1462 H 134.922 2.97221 6.95123 0
M  V30 1463 H 136.19 1.94403 7.54869 0
M  V30 1464 N 140.419 -1.14872 1.07899 0
M  V30 1465 C 141.349 -2.2193 0.725887 0
M  V30 1466 C 142.33 -1.67622 -0.28927 0
M  V30 1467 O 143.515 -1.93533 -0.160787 0
M  V30 1468 C 140.645 -3.47061 0.128856 0
M  V30 1469 C 139.599 -4.14363 1.07178 0
M  V30 1470 C 138.925 -5.33636 0.337229 0
M  V30 1471 C 140.225 -4.63492 2.40775 0
M  V30 1472 H 141.919 -2.51724 1.62097 0
M  V30 1473 H 139.465 -1.20991 0.780838 0
M  V30 1474 H 141.418 -4.21199 -0.130147 0
M  V30 1475 H 140.142 -3.16617 -0.80134 0
M  V30 1476 H 138.801 -3.42173 1.3158 0
M  V30 1477 H 138.449 -4.99449 -0.596606 0
M  V30 1478 H 138.149 -5.79609 0.965788 0
M  V30 1479 H 139.673 -6.10539 0.0861567 0
M  V30 1480 H 141.087 -5.2913 2.20669 0
M  V30 1481 H 139.484 -5.20148 2.99276 0
M  V30 1482 H 140.554 -3.78834 3.02676 0
M  V30 1483 N 141.898 -0.863906 -1.31812 0
M  V30 1484 C 143.144 -0.472535 -1.97218 0
M  V30 1485 C 143.477 0.971394 -1.68159 0
M  V30 1486 O 142.752 1.68309 -0.974798 0
M  V30 1487 C 143.035 -0.723054 -3.52766 0
M  V30 1488 C 142.888 -2.21608 -3.91421 0
M  V30 1489 C 144.207 -0.185522 -4.39709 0
M  V30 1490 H 141.326 -0.173158 -0.71637 0
M  V30 1491 H 143.968 -1.08403 -1.56041 0
M  V30 1492 H 142.118 -0.202577 -3.87971 0
M  V30 1493 H 143.79 -2.80334 -3.66347 0
M  V30 1494 H 142.033 -2.691 -3.40246 0
M  V30 1495 H 142.704 -2.34203 -4.99853 0
M  V30 1496 H 145.18 -0.630726 -4.11292 0
M  V30 1497 H 144.056 -0.390306 -5.47511 0
M  V30 1498 H 144.317 0.912229 -4.32586 0
M  V30 1499 N 143.376 1.44774 -0.622745 0
M  V30 1500 C 144.339 2.29069 0.0774015 0
M  V30 1501 C 145.339 1.4059 0.780461 0
M  V30 1502 O 146.529 1.62551 0.626322 0
M  V30 1503 C 143.661 3.21974 1.12006 0
M  V30 1504 H 144.854 2.92459 -0.663901 0
M  V30 1505 H 142.407 1.51548 -0.382486 0
M  V30 1506 H 143.142 2.63417 1.89162 0
M  V30 1507 H 142.927 3.87168 0.619951 0
M  V30 1508 H 144.417 3.85318 1.60995 0
M  V30 1509 N 144.854 0.36279 1.53368 0
M  V30 1510 C 145.817 -0.472679 2.24273 0
M  V30 1511 C 146.817 -1.012 1.24961 0
M  V30 1512 O 148.007 -0.898194 1.49259 0
M  V30 1513 C 145.139 -1.66039 2.97731 0
M  V30 1514 H 146.332 0.14773 2.99536 0
M  V30 1515 H 143.885 0.114434 1.55881 0
M  V30 1516 H 144.62 -2.31896 2.26704 0
M  V30 1517 H 144.405 -1.28066 3.70596 0
M  V30 1518 H 145.895 -2.25252 3.51641 0
M  V30 1519 N 146.332 -1.57332 0.0918853 0
M  V30 1520 C 147.56 -1.98574 -0.581048 0
M  V30 1521 C 147.975 -0.970903 -1.61923 0
M  V30 1522 O 147.332 0.0399054 -1.82456 0
M  V30 1523 C 147.383 -3.39872 -1.23164 0
M  V30 1524 O 147.104 -4.37469 -0.234989 0
M  V30 1525 C 148.605 -3.96099 -1.99049 0
M  V30 1526 H 145.825 -0.65261 -0.156018 0
M  V30 1527 H 148.369 -2.0379 0.170225 0
M  V30 1528 H 146.524 -3.35679 -1.93386 0
M  V30 1529 H 146.938 -5.19751 -0.70418 0
M  V30 1530 H 148.412 -4.97127 -2.39934 0
M  V30 1531 H 148.889 -3.3374 -2.85507 0
M  V30 1532 H 149.495 -4.03755 -1.3365 0
M  V30 1533 N 147.81 0.181792 -1.56548 0
M  V30 1534 C 149.035 0.920019 -1.85877 0
M  V30 1535 C 149.46 1.75494 -0.677021 0
M  V30 1536 O 148.818 1.77399 0.374056 0
M  V30 1537 C 148.866 1.78112 -3.13542 0
M  V30 1538 O 147.97 2.88152 -2.95029 0
M  V30 1539 H 147.311 0.258334 -0.611686 0
M  V30 1540 H 149.841 0.183092 -2.03779 0
M  V30 1541 H 149.851 2.18314 -3.44678 0
M  V30 1542 H 148.526 1.16777 -3.99169 0
M  V30 1543 H 147.103 2.51609 -2.75222 0
M  V30 1544 N 149.288 1.51039 0.449983 0
M  V30 1545 C 150.536 1.62759 1.19808 0
M  V30 1546 C 150.857 0.339981 1.92013 0
M  V30 1547 O 150.127 -0.643606 1.85026 0
M  V30 1548 H 148.707 0.599811 0.445237 0
M  V30 1549 H 151.369 1.87914 0.517138 0
M  V30 1550 H 150.465 2.44911 1.93455 0
M  V30 1551 N 150.766 -0.704594 1.40972 0
M  V30 1552 C 151.729 -1.80035 1.41845 0
M  V30 1553 C 152.729 -1.57774 0.310474 0
M  V30 1554 O 153.919 -1.64613 0.56992 0
M  V30 1555 C 151.051 -3.18284 1.22098 0
M  V30 1556 H 152.244 -1.80658 2.3938 0
M  V30 1557 H 149.797 -0.911329 1.26982 0
M  V30 1558 H 150.532 -3.23306 0.253672 0
M  V30 1559 H 150.317 -3.35843 2.02366 0
M  V30 1560 H 151.807 -3.98289 1.25522 0
M  V30 1561 N 152.244 -1.26651 -0.937939 0
M  V30 1562 C 153.66 -1.03834 -1.21205 0
M  V30 1563 C 153.86 0.234502 -2.00131 0
M  V30 1564 O 152.916 0.942767 -2.3424 0
M  V30 1565 C 154.229 -2.27167 -1.97017 0
M  V30 1566 C 155.777 -2.32101 -2.09996 0
M  V30 1567 C 156.252 -3.55136 -2.8921 0
M  V30 1568 N 157.743 -3.55632 -2.96783 0
M  V30 1569 C 158.478 -4.475 -3.58512 0
M  V30 1570 N 157.974 -5.4966 -4.21717 0
M  V30 1571 N 159.767 -4.35145 -3.55816 0
M  V30 1572 H 151.918 -2.08398 -0.410391 0
M  V30 1573 H 154.181 -0.916031 -0.244114 0
M  V30 1574 H 153.887 -3.19765 -1.46434 0
M  V30 1575 H 153.761 -2.31672 -2.97671 0
M  V30 1576 H 156.148 -1.40015 -2.59769 0
M  V30 1577 H 156.229 -2.31605 -1.08594 0
M  V30 1578 H 155.873 -4.47553 -2.40123 0
M  V30 1579 H 155.803 -3.5288 -3.90875 0
M  V30 1580 H 158.294 -2.81743 -2.51852 0
M  V30 1581 H 158.607 -6.15943 -4.66727 0
M  V30 1582 H 156.952 -5.53514 -4.20294 0
M  V30 1583 H 160.143 -3.5455 -3.05634 0
M  V30 1584 H 160.316 -5.06934 -4.03636 0
M  V30 1585 N 153.722 1.14298 -1.08507 0
M  V30 1586 C 154.669 2.19414 -0.715965 0
M  V30 1587 C 155.639 1.63399 0.298326 0
M  V30 1588 O 156.824 1.89929 0.182101 0
M  V30 1589 C 153.964 3.44845 -0.132534 0
M  V30 1590 C 153.077 4.15007 -1.19973 0
M  V30 1591 C 152.212 5.28024 -0.580048 0
M  V30 1592 C 151.251 5.9002 -1.62921 0
M  V30 1593 N 150.388 6.94485 -1.03125 0
M  V30 1594 H 155.228 2.50336 -1.61666 0
M  V30 1595 H 152.765 1.2293 -0.807882 0
M  V30 1596 H 154.723 4.16601 0.223454 0
M  V30 1597 H 153.353 3.14403 0.731467 0
M  V30 1598 H 152.405 3.41629 -1.67313 0
M  V30 1599 H 153.717 4.57178 -1.99473 0
M  V30 1600 H 152.871 6.06455 -0.172364 0
M  V30 1601 H 151.61 4.87076 0.246603 0
M  V30 1602 H 150.615 5.10291 -2.04654 0
M  V30 1603 H 151.84 6.33042 -2.45835 0
M  V30 1604 H 149.786 6.55612 -0.225711 0
M  V30 1605 H 149.703 7.35148 -1.76334 0
M  V30 1606 H 150.971 7.7679 -0.649458 0
M  V30 1607 N 155.201 0.870884 1.31352 0
M  V30 1608 C 156.426 0.495957 2.01383 0
M  V30 1609 C 156.851 -0.904324 1.64935 0
M  V30 1610 O 156.209 -1.59687 0.858466 0
M  V30 1611 C 156.257 0.661433 3.54482 0
M  V30 1612 O 155.361 -0.298851 4.11316 0
M  V30 1613 H 154.702 0.197158 0.634054 0
M  V30 1614 H 157.232 1.17455 1.67527 0
M  V30 1615 H 157.242 0.555072 4.04207 0
M  V30 1616 H 155.917 1.68246 3.8035 0
M  V30 1617 H 154.494 -0.147368 3.72609 0
M  V30 1618 N 156.679 -1.44442 0.630414 0
M  V30 1619 C 157.904 -2.06927 0.139944 0
M  V30 1620 C 158.329 -1.46795 -1.17613 0
M  V30 1621 O 157.687 -0.569144 -1.72135 0
M  V30 1622 C 157.735 -3.6058 0.0379581 0
M  V30 1623 O 156.839 -3.99937 -1.0062 0
M  V30 1624 H 156.18 -0.658608 0.0844483 0
M  V30 1625 H 158.71 -1.85327 0.866891 0
M  V30 1626 H 158.72 -4.07714 -0.152856 0
M  V30 1627 H 157.395 -4.03728 0.998809 0
M  V30 1628 H 155.972 -3.64436 -0.79001 0
M  V30 1629 N 158.157 -0.370918 -1.53173 0
M  V30 1630 C 159.385 0.217704 -2.05751 0
M  V30 1631 C 159.8 1.42018 -1.24404 0
M  V30 1632 O 159.157 1.80245 -0.286033 0
M  V30 1633 C 159.208 0.605954 -3.56385 0
M  V30 1634 O 158.929 -0.548734 -4.3465 0
M  V30 1635 C 160.43 1.2524 -4.25241 0
M  V30 1636 H 157.65 0.0371659 -0.66997 0
M  V30 1637 H 160.194 -0.530832 -1.9749 0
M  V30 1638 H 158.349 1.3044 -3.6478 0
M  V30 1639 H 158.763 -0.23376 -5.23979 0
M  V30 1640 H 160.237 1.47458 -5.3194 0
M  V30 1641 H 160.714 2.2143 -3.79296 0
M  V30 1642 H 161.32 0.595233 -4.21114 0
M  V30 1643 N 159.635 1.57281 -0.100228 0
M  V30 1644 C 160.565 2.17328 0.853857 0
M  V30 1645 C 161.546 1.10804 1.2906 0
M  V30 1646 O 162.731 1.38963 1.35657 0
M  V30 1647 C 159.861 2.75772 2.11109 0
M  V30 1648 C 158.815 3.87713 1.81279 0
M  V30 1649 C 158.141 4.32882 3.13874 0
M  V30 1650 C 159.441 5.10677 1.09574 0
M  V30 1651 H 161.135 2.97305 0.353545 0
M  V30 1652 H 158.681 1.43009 0.168612 0
M  V30 1653 H 160.634 3.16433 2.78296 0
M  V30 1654 H 159.358 1.93057 2.63432 0
M  V30 1655 H 158.017 3.476 1.16489 0
M  V30 1656 H 157.665 3.47051 3.64095 0
M  V30 1657 H 157.365 5.08358 2.94696 0
M  V30 1658 H 158.889 4.7618 3.82211 0
M  V30 1659 H 160.303 5.48474 1.66879 0
M  V30 1660 H 158.7 5.91615 1.00557 0
M  V30 1661 H 159.77 4.84835 0.0793299 0
M  V30 1662 N 161.113 -0.173488 1.56642 0
M  V30 1663 C 162.361 -0.888706 1.81512 0
M  V30 1664 C 162.682 -1.82875 0.676872 0
M  V30 1665 O 161.952 -1.93536 -0.303414 0
M  V30 1666 H 160.532 -0.331164 0.669582 0
M  V30 1667 H 163.194 -0.173823 1.94123 0
M  V30 1668 H 162.29 -1.46691 2.75478 0
M  V30 1669 N 162.591 -1.51276 -0.441967 0
M  V30 1670 C 163.839 -1.63392 -1.18943 0
M  V30 1671 C 164.16 -0.350159 -1.9183 0
M  V30 1672 O 163.43 0.633784 -1.85364 0
M  V30 1673 H 162.01 -0.602164 -0.442049 0
M  V30 1674 H 164.672 -1.88186 -0.507165 0
M  V30 1675 H 163.768 -2.45934 -1.92154 0
M  V30 1676 N 164.069 0.697108 -1.41344 0
M  V30 1677 C 165.315 1.4593 -1.40827 0
M  V30 1678 C 165.648 1.94193 -0.0167098 0
M  V30 1679 O 164.923 1.69425 0.955263 0
M  V30 1680 C 165.206 2.67229 -2.41373 0
M  V30 1681 C 165.059 2.24741 -3.8963 0
M  V30 1682 C 166.378 3.69423 -2.39196 0
M  V30 1683 H 163.497 0.529303 -0.512842 0
M  V30 1684 H 166.139 0.794112 -1.72609 0
M  V30 1685 H 164.289 3.23982 -2.14401 0
M  V30 1686 H 165.961 1.73327 -4.27499 0
M  V30 1687 H 164.204 1.56542 -4.0457 0
M  V30 1688 H 164.875 3.1177 -4.55525 0
M  V30 1689 H 167.351 3.2234 -2.63128 0
M  V30 1690 H 166.227 4.51907 -3.11563 0
M  V30 1691 H 166.488 4.19012 -1.41001 0
M  V30 1692 N 165.547 1.27147 0.931209 0
M  V30 1693 C 166.457 1.11372 2.06478 0
M  V30 1694 C 167.473 0.044645 1.73943 0
M  V30 1695 O 168.649 0.250417 1.99837 0
M  V30 1696 C 165.714 0.758838 3.38294 0
M  V30 1697 C 164.775 1.90841 3.84549 0
M  V30 1698 C 164.008 1.57036 5.10074 0
M  V30 1699 O 164.231 0.476645 5.68405 0
M  V30 1700 O 163.165 2.40839 5.51616 0
M  V30 1701 H 166.991 2.06493 2.22698 0
M  V30 1702 H 164.576 1.06301 1.04978 0
M  V30 1703 H 166.458 0.574098 4.17471 0
M  V30 1704 H 165.133 -0.162879 3.2329 0
M  V30 1705 H 164.04 2.14819 3.06274 0
M  V30 1706 H 165.373 2.81021 4.04089 0
M  V30 1707 N 167.025 -1.13721 1.09112 0
M  V30 1708 C 168.271 -1.85198 0.826414 0
M  V30 1709 C 168.604 -1.83129 -0.646319 0
M  V30 1710 O 167.879 -1.2671 -1.47563 0
M  V30 1711 C 168.162 -3.33507 1.35812 0
M  V30 1712 C 168.015 -3.44108 2.89672 0
M  V30 1713 C 169.334 -4.28838 0.989256 0
M  V30 1714 H 166.453 -0.67243 0.301675 0
M  V30 1715 H 169.095 -1.33499 1.35197 0
M  V30 1716 H 167.245 -3.77666 0.911082 0
M  V30 1717 H 168.917 -3.08684 3.428 0
M  V30 1718 H 167.16 -2.85087 3.26967 0
M  V30 1719 H 167.831 -4.48388 3.21951 0
M  V30 1720 H 170.307 -3.92734 1.37475 0
M  V30 1721 H 169.183 -5.31051 1.38838 0
M  V30 1722 H 169.444 -4.4198 -0.102924 0
M  V30 1723 N 168.503 -0.877838 -1.30888 0
M  V30 1724 C 169.919 -0.570844 -1.49042 0
M  V30 1725 C 170.119 0.893159 -1.80624 0
M  V30 1726 O 169.175 1.67485 -1.88958 0
M  V30 1727 C 170.488 -1.47784 -2.61878 0
M  V30 1728 C 172.036 -1.48071 -2.75761 0
M  V30 1729 C 172.511 -2.37347 -3.91702 0
M  V30 1730 N 174.002 -2.35271 -3.99001 0
M  V30 1731 C 174.737 -3.01063 -4.88004 0
M  V30 1732 N 174.233 -3.76055 -5.81854 0
M  V30 1733 N 176.026 -2.90332 -4.81315 0
M  V30 1734 H 168.177 -1.82502 -1.0866 0
M  V30 1735 H 170.44 -0.780797 -0.537644 0
M  V30 1736 H 170.146 -2.51993 -2.45341 0
M  V30 1737 H 170.02 -1.18215 -3.58197 0
M  V30 1738 H 172.407 -0.446166 -2.91708 0
M  V30 1739 H 172.488 -1.81668 -1.80085 0
M  V30 1740 H 172.132 -3.40883 -3.76512 0
M  V30 1741 H 172.062 -2.01071 -4.86701 0
M  V30 1742 H 174.553 -1.80768 -3.3186 0
M  V30 1743 H 174.866 -4.23366 -6.46514 0
M  V30 1744 H 173.211 -3.80163 -5.81808 0
M  V30 1745 H 176.402 -2.31278 -4.06974 0
M  V30 1746 H 176.575 -3.41885 -5.50471 0
M  V30 1747 N 169.982 1.44106 -0.638065 0
M  V30 1748 C 170.93 2.3248 0.0748149 0
M  V30 1749 C 171.924 1.47746 0.828702 0
M  V30 1750 O 173.13 1.64049 0.740816 0
M  V30 1751 H 169.505 0.750771 0.0429686 0
M  V30 1752 H 171.476 2.90348 -0.688504 0
M  V30 1753 C 170.225 3.31843 1.03805 0
M  V30 1754 H 169.548 3.97059 0.467375 0
M  V30 1755 H 170.988 3.96345 1.50622 0
M  V30 1756 C 169.447 2.61291 2.1267 0
M  V30 1757 O 169.977 2.41702 3.20847 0
M  V30 1758 N 168.183 2.20915 1.88798 0
M  V30 1759 H 167.73 2.37047 1.00829 0
M  V30 1760 H 167.688 1.74038 2.61836 0
M  V30 1761 N 171.46 0.379036 1.52974 0
M  V30 1762 C 172.706 -0.206727 2.01744 0
M  V30 1763 C 173.039 -1.47314 1.26539 0
M  V30 1764 O 172.314 -1.91084 0.362903 0
M  V30 1765 C 172.597 -0.485066 3.56818 0
M  V30 1766 C 172.45 0.795919 4.42702 0
M  V30 1767 C 173.769 -1.28003 4.21074 0
M  V30 1768 H 170.888 -0.0736607 0.73331 0
M  V30 1769 H 173.53 0.506581 1.83122 0
M  V30 1770 H 171.68 -1.09272 3.72816 0
M  V30 1771 H 173.352 1.43307 4.38476 0
M  V30 1772 H 171.595 1.41344 4.10127 0
M  V30 1773 H 172.266 0.555947 5.49193 0
M  V30 1774 H 174.742 -0.765867 4.08991 0
M  V30 1775 H 173.618 -1.44352 5.29579 0
M  V30 1776 H 173.879 -2.29236 3.78026 0
M  V30 1777 N 172.938 -1.57226 0.108567 0
M  V30 1778 C 174.354 -1.5766 -0.248058 0
M  V30 1779 C 174.554 -1.12063 -1.67464 0
M  V30 1780 O 173.61 -0.803236 -2.39383 0
M  V30 1781 C 174.923 -3.0069 -0.0242287 0
M  V30 1782 C 176.471 -3.12868 -0.0909372 0
M  V30 1783 C 176.946 -4.57879 0.105067 0
M  V30 1784 N 178.437 -4.63172 0.0506846 0
M  V30 1785 C 179.172 -5.73126 0.177396 0
M  V30 1786 N 178.668 -6.91866 0.359696 0
M  V30 1787 N 180.461 -5.61977 0.117709 0
M  V30 1788 H 172.612 -1.85169 1.04049 0
M  V30 1789 H 174.875 -0.85529 0.40888 0
M  V30 1790 H 174.581 -3.38299 0.961604 0
M  V30 1791 H 174.455 -3.6945 -0.76068 0
M  V30 1792 H 176.842 -2.75124 -1.06729 0
M  V30 1793 H 176.923 -2.46672 0.677225 0
M  V30 1794 H 176.567 -4.96321 1.07834 0
M  V30 1795 H 176.497 -5.22153 -0.682954 0
M  V30 1796 H 178.988 -3.778 -0.0871266 0
M  V30 1797 H 179.301 -7.71503 0.447529 0
M  V30 1798 H 177.646 -6.93874 0.395536 0
M  V30 1799 H 180.837 -4.68094 -0.0236741 0
M  V30 1800 H 181.01 -6.47627 0.219905 0
M  V30 1801 N 174.416 0.165178 -1.56732 0
M  V30 1802 C 175.646 0.894919 -1.86212 0
M  V30 1803 C 176.054 1.76066 -0.692627 0
M  V30 1804 O 175.397 1.80387 0.347303 0
M  V30 1805 C 175.459 1.8174 -3.10179 0
M  V30 1806 C 175.123 1.13064 -4.42793 0
M  V30 1807 C 176.12 0.493169 -5.17556 0
M  V30 1808 C 173.805 1.12556 -4.89527 0
M  V30 1809 C 175.799 -0.140209 -6.37246 0
M  V30 1810 C 173.486 0.488366 -6.09145 0
M  V30 1811 C 174.484 -0.143411 -6.82849 0
M  V30 1812 O 174.172 -0.77055 -8.00199 0
M  V30 1813 H 173.904 0.265114 -0.621844 0
M  V30 1814 H 176.458 0.168242 -2.0471 0
M  V30 1815 H 174.688 2.58455 -2.87642 0
M  V30 1816 H 176.377 2.4175 -3.26055 0
M  V30 1817 H 177.143 0.489023 -4.82528 0
M  V30 1818 H 173.022 1.60672 -4.32094 0
M  V30 1819 H 176.566 -0.633932 -6.94714 0
M  V30 1820 H 172.463 0.490116 -6.43637 0
M  V30 1821 H 173.231 -0.670408 -8.1575 0
M  V30 1822 N 175.894 1.51508 0.433938 0
M  V30 1823 C 177.119 1.68443 1.21003 0
M  V30 1824 C 177.544 0.382636 1.84167 0
M  V30 1825 O 176.902 -0.65755 1.68956 0
M  V30 1826 C 176.95 2.80405 2.26727 0
M  V30 1827 O 176.054 2.44245 3.32292 0
M  V30 1828 H 175.395 0.561536 0.354363 0
M  V30 1829 H 177.925 1.9809 0.512024 0
M  V30 1830 H 177.935 3.0459 2.71457 0
M  V30 1831 H 176.61 3.74867 1.80132 0
M  V30 1832 H 175.187 2.30644 2.93015 0
M  V30 1833 N 177.372 -0.689602 1.41712 0
M  V30 1834 C 178.302 -1.81577 1.46806 0
M  V30 1835 C 179.283 -1.66945 0.326105 0
M  V30 1836 O 180.468 -1.86588 0.538377 0
M  V30 1837 C 177.598 -3.19762 1.35535 0
M  V30 1838 C 176.552 -3.49107 2.47605 0
M  V30 1839 C 175.878 -4.86711 2.21397 0
M  V30 1840 C 177.178 -3.47483 3.89939 0
M  V30 1841 H 178.872 -1.7757 2.41058 0
M  V30 1842 H 176.418 -0.852887 1.16025 0
M  V30 1843 H 178.371 -3.98263 1.3771 0
M  V30 1844 H 177.095 -3.24409 0.377708 0
M  V30 1845 H 175.754 -2.72959 2.44722 0
M  V30 1846 H 175.402 -4.8799 1.21961 0
M  V30 1847 H 175.102 -5.0731 2.96497 0
M  V30 1848 H 176.626 -5.67515 2.25297 0
M  V30 1849 H 178.04 -4.1598 3.94505 0
M  V30 1850 H 176.437 -3.79615 4.64771 0
M  V30 1851 H 177.507 -2.46341 4.17665 0
M  V30 1852 N 178.85 -1.27639 -0.924453 0
M  V30 1853 C 179.797 -1.10644 -2.0255 0
M  V30 1854 C 180.767 -0.00658438 -1.66099 0
M  V30 1855 O 181.952 -0.16952 -1.90045 0
M  V30 1856 C 179.092 -0.76309 -3.36557 0
M  V30 1857 C 178.205 -1.94091 -3.85944 0
M  V30 1858 C 177.34 -1.53914 -5.08413 0
M  V30 1859 C 176.379 -2.68425 -5.50104 0
M  V30 1860 N 175.516 -2.28815 -6.63768 0
M  V30 1861 H 180.356 -2.04858 -2.16419 0
M  V30 1862 H 177.893 -1.01974 -1.06017 0
M  V30 1863 H 179.851 -0.544822 -4.13627 0
M  V30 1864 H 178.481 0.142102 -3.22487 0
M  V30 1865 H 177.533 -2.27162 -3.05125 0
M  V30 1866 H 178.845 -2.7998 -4.12811 0
M  V30 1867 H 177.999 -1.28231 -5.92994 0
M  V30 1868 H 176.738 -0.651391 -4.8333 0
M  V30 1869 H 175.743 -2.94819 -4.64071 0
M  V30 1870 H 176.968 -3.57826 -5.7718 0
M  V30 1871 H 174.914 -1.42495 -6.40337 0
M  V30 1872 H 174.831 -3.08242 -6.90306 0
M  V30 1873 H 176.099 -2.06387 -7.51681 0
M  V30 1874 N 180.328 1.1314 -1.09713 0
M  V30 1875 C 181.26 2.18343 -0.697056 0
M  V30 1876 C 182.273 1.60669 0.262551 0
M  V30 1877 O 183.462 1.78435 0.0481527 0
M  V30 1878 C 180.562 3.38899 -0.00684728 0
M  V30 1879 C 179.735 4.26078 -0.988741 0
M  V30 1880 C 178.794 5.25155 -0.331394 0
M  V30 1881 O 177.82 5.60701 -0.979926 0
M  V30 1882 N 179.022 5.73271 0.913261 0
M  V30 1883 H 181.787 2.5328 -1.60216 0
M  V30 1884 H 179.348 1.28491 -0.984971 0
M  V30 1885 H 181.34 4.02255 0.444191 0
M  V30 1886 H 179.91 3.02175 0.800551 0
M  V30 1887 H 179.13 3.59453 -1.61826 0
M  V30 1888 H 180.418 4.81178 -1.65364 0
M  V30 1889 H 179.816 5.46544 1.45966 0
M  V30 1890 H 178.373 6.3855 1.30757 0
M  V30 1891 N 181.806 0.884767 1.30421 0
M  V30 1892 C 182.736 0.367574 2.30589 0
M  V30 1893 C 183.717 -0.549464 1.60981 0
M  V30 1894 O 184.902 -0.46336 1.88591 0
M  V30 1895 C 182.032 -0.418944 3.44764 0
M  V30 1896 C 180.986 0.406316 4.26067 0
M  V30 1897 C 180.312 -0.506793 5.32293 0
M  V30 1898 C 181.612 1.64832 4.95608 0
M  V30 1899 H 183.306 1.20462 2.74097 0
M  V30 1900 H 180.852 0.580695 1.31772 0
M  V30 1901 H 182.805 -0.791395 4.13902 0
M  V30 1902 H 181.529 -1.28964 3.0006 0
M  V30 1903 H 180.188 0.760903 3.58617 0
M  V30 1904 H 179.836 -1.37519 4.83836 0
M  V30 1905 H 179.536 0.0415828 5.87585 0
M  V30 1906 H 181.06 -0.875764 6.04287 0
M  V30 1907 H 182.474 1.34646 5.57264 0
M  V30 1908 H 180.871 2.13688 5.60765 0
M  V30 1909 H 181.941 2.39284 4.21748 0
M  V30 1910 N 183.284 -1.43765 0.645699 0
M  V30 1911 C 184.216 -2.29027 -0.0890605 0
M  V30 1912 C 185.229 -1.42093 -0.794563 0
M  V30 1913 O 186.418 -1.66104 -0.653575 0
M  V30 1914 C 183.518 -3.18831 -1.14891 0
M  V30 1915 C 182.691 -4.34261 -0.523043 0
M  V30 1916 C 181.75 -5.04994 -1.47878 0
M  V30 1917 O 180.776 -5.6052 -0.990277 0
M  V30 1918 N 181.978 -5.07795 -2.81291 0
M  V30 1919 H 184.743 -2.92727 0.64272 0
M  V30 1920 H 182.304 -1.54373 0.487924 0
M  V30 1921 H 184.296 -3.63015 -1.78892 0
M  V30 1922 H 182.866 -2.56782 -1.78275 0
M  V30 1923 H 182.086 -3.93088 0.295896 0
M  V30 1924 H 183.374 -5.08728 -0.0858147 0
M  V30 1925 H 182.772 -4.64042 -3.23546 0
M  V30 1926 H 181.329 -5.55721 -3.40614 0
M  V30 1927 N 184.763 -0.387143 -1.52771 0
M  V30 1928 C 185.988 0.198407 -2.06449 0
M  V30 1929 C 186.413 1.39918 -1.25716 0
M  V30 1930 O 185.771 1.79099 -0.281657 0
M  V30 1931 C 185.819 0.548893 -3.56398 0
M  V30 1932 O 184.923 1.64315 -3.78252 0
M  V30 1933 H 184.264 0.0237731 -0.663574 0
M  V30 1934 H 186.794 -0.553989 -1.96957 0
M  V30 1935 H 186.804 0.813812 -3.99801 0
M  V30 1936 H 185.479 -0.329005 -4.14597 0
M  V30 1937 H 184.056 1.37211 -3.46738 0
M  V30 1938 N 186.241 1.57166 -0.116904 0
M  V30 1939 C 187.204 2.14039 0.819742 0
M  V30 1940 C 188.204 1.07477 1.19605 0
M  V30 1941 O 189.394 1.33263 1.1219 0
M  V30 1942 C 186.526 2.67891 2.10826 0
M  V30 1943 H 187.719 2.98128 0.325511 0
M  V30 1944 H 185.272 1.55739 0.132312 0
M  V30 1945 H 186.007 1.87384 2.64685 0
M  V30 1946 H 185.792 3.45823 1.84793 0
M  V30 1947 H 187.282 3.11809 2.77785 0
M  V30 1948 N 187.719 -0.156864 1.56817 0
M  V30 1949 C 188.652 -1.22316 1.9265 0
M  V30 1950 C 189.63 -1.42059 0.791076 0
M  V30 1951 O 190.814 -1.56831 1.04576 0
M  V30 1952 C 187.941 -2.58375 2.18998 0
M  V30 1953 C 186.987 -2.55284 3.41661 0
M  V30 1954 S 187.82 -2.02946 4.95553 0
M  V30 1955 C 188.976 -3.40753 5.25013 0
M  V30 1956 H 189.209 -0.917403 2.82791 0
M  V30 1957 H 186.742 -0.362059 1.50095 0
M  V30 1958 H 188.7 -3.36677 2.34859 0
M  V30 1959 H 187.361 -2.86145 1.29538 0
M  V30 1960 H 186.554 -3.55418 3.57343 0
M  V30 1961 H 186.156 -1.85086 3.24991 0
M  V30 1962 H 188.448 -4.36819 5.17876 0
M  V30 1963 H 189.391 -3.29933 6.26538 0
M  V30 1964 H 189.799 -3.37433 4.52548 0
M  V30 1965 N 189.197 -1.51736 -0.425897 0
M  V30 1966 C 190.107 -1.76738 -1.54275 0
M  V30 1967 C 191.123 -0.65211 -1.61318 0
M  V30 1968 O 192.299 -0.935654 -1.78346 0
M  V30 1969 C 189.364 -1.89755 -2.90162 0
M  V30 1970 C 188.425 -3.13633 -2.93143 0
M  V30 1971 C 187.658 -3.2602 -4.22548 0
M  V30 1972 O 187.881 -2.44067 -5.15546 0
M  V30 1973 O 186.815 -4.19071 -4.32046 0
M  V30 1974 H 190.641 -2.71502 -1.36089 0
M  V30 1975 H 188.226 -1.36376 -0.610069 0
M  V30 1976 H 190.108 -2.00236 -3.70788 0
M  V30 1977 H 188.783 -0.981785 -3.08452 0
M  V30 1978 H 187.69 -3.08622 -2.11431 0
M  V30 1979 H 189.023 -4.04936 -2.798 0
M  V30 1980 N 190.675 0.682077 -1.42076 0
M  V30 1981 C 191.607 1.80755 -1.40926 0
M  V30 1982 C 192.62 1.59833 -0.309398 0
M  V30 1983 O 193.809 1.69087 -0.572014 0
M  V30 1984 C 190.909 3.17744 -1.17865 0
M  V30 1985 C 190.082 3.65578 -2.40149 0
M  V30 1986 C 189.141 4.81277 -2.12742 0
M  V30 1987 O 188.167 4.92197 -2.85887 0
M  V30 1988 N 189.369 5.69474 -1.12602 0
M  V30 1989 H 192.134 1.82229 -2.37935 0
M  V30 1990 H 189.695 0.864903 -1.36861 0
M  V30 1991 H 191.687 3.9279 -0.9746 0
M  V30 1992 H 190.257 3.11214 -0.294068 0
M  V30 1993 H 189.477 2.81291 -2.76169 0
M  V30 1994 H 190.765 3.94278 -3.21593 0
M  V30 1995 H 190.163 5.63297 -0.520899 0
M  V30 1996 H 188.72 6.44363 -0.981842 0
M  V30 1997 N 192.153 1.28127 0.917671 0
M  V30 1998 C 193.083 1.14248 2.03641 0
M  V30 1999 C 194.064 0.0412748 1.7005 0
M  V30 2000 O 195.249 0.217566 1.92977 0
M  V30 2001 C 192.379 0.799431 3.37974 0
M  V30 2002 C 191.333 1.85497 3.85713 0
M  V30 2003 C 190.659 1.36565 5.16966 0
M  V30 2004 C 191.959 3.26085 4.08002 0
M  V30 2005 H 193.653 2.07835 2.15511 0
M  V30 2006 H 191.199 1.00064 1.03553 0
M  V30 2007 H 193.152 0.689114 4.15727 0
M  V30 2008 H 191.876 -0.172145 3.26146 0
M  V30 2009 H 190.535 1.95437 3.10161 0
M  V30 2010 H 190.183 0.383253 5.01538 0
M  V30 2011 H 189.883 2.07143 5.49878 0
M  V30 2012 H 191.407 1.26848 5.97279 0
M  V30 2013 H 192.821 3.19089 4.76293 0
M  V30 2014 H 191.218 3.94462 4.52238 0
M  V30 2015 H 192.288 3.70394 3.12948 0
M  V30 2016 N 193.631 -1.12557 1.10312 0
M  V30 2017 C 194.908 -1.80363 0.756878 0
M  V30 2018 C 195.288 -1.97067 -0.756824 0
M  V30 2019 O 194.636 -1.54601 -1.68259 0
M  V30 2020 C 194.846 -3.14812 1.50647 0
M  V30 2021 C 196.194 -3.90029 1.67817 0
M  V30 2022 O 197.218 -3.24464 1.46974 0
M  V30 2023 O 196.077 -5.07652 2.02365 0
M  V30 2024 H 193.171 -0.780667 0.272926 0
M  V30 2025 H 195.717 -1.19404 1.20586 0
M  V30 2026 H 194.489 -2.97936 2.53672 0
M  V30 2027 H 194.112 -3.83478 1.05026 0
M  V30 2028 N 195.109 -0.891671 -1.2995 0
M  V30 2029 C 196.072 -0.36828 -2.26222 0
M  V30 2030 C 197.072 0.493014 -1.53056 0
M  V30 2031 O 198.262 0.299213 -1.71611 0
M  V30 2032 C 195.394 0.47442 -3.37583 0
M  V30 2033 H 196.587 -1.21844 -2.74033 0
M  V30 2034 H 194.14 -0.669107 -1.41254 0
M  V30 2035 H 194.875 1.34489 -2.95099 0
M  V30 2036 H 194.66 -0.142615 -3.91841 0
M  V30 2037 H 196.15 0.83218 -4.09224 0
M  V30 2038 N 196.587 1.43421 -0.653314 0
M  V30 2039 C 197.835 2.01414 -0.166415 0
M  V30 2040 C 198.156 1.51803 1.22397 0
M  V30 2041 O 197.426 0.730693 1.81763 0
M  V30 2042 H 196.006 0.744703 -0.0585319 0
M  V30 2043 H 198.668 1.75629 -0.845003 0
M  V30 2044 H 197.764 3.11734 -0.151111 0
M  V30 2045 N 198.065 0.39524 1.52563 0
M  V30 2046 C 199.028 -0.425001 2.25225 0
M  V30 2047 C 200.028 -0.985266 1.27079 0
M  V30 2048 O 201.218 -0.866332 1.5113 0
M  V30 2049 C 198.35 -1.59686 3.01186 0
M  V30 2050 H 199.543 0.211233 2.99155 0
M  V30 2051 H 197.096 0.147472 1.55603 0
M  V30 2052 H 197.831 -2.27035 2.31572 0
M  V30 2053 H 197.616 -1.20176 3.73229 0
M  V30 2054 H 199.106 -2.17743 3.5634 0
M  V30 2055 N 199.544 -1.57102 0.125237 0
M  V30 2056 C 200.492 -2.16905 -0.839927 0
M  V30 2057 C 201.486 -1.11998 -1.27094 0
M  V30 2058 O 202.692 -1.3029 -1.24195 0
M  V30 2059 H 199.067 -0.694252 -0.288995 0
M  V30 2060 H 201.038 -2.96774 -0.311115 0
M  V30 2061 C 199.787 -2.78795 -2.07771 0
M  V30 2062 H 199.11 -3.59221 -1.755 0
M  V30 2063 H 200.55 -3.2417 -2.73295 0
M  V30 2064 C 199.009 -1.76193 -2.87155 0
M  V30 2065 O 199.539 -1.21909 -3.82755 0
M  V30 2066 N 197.745 -1.45991 -2.51267 0
M  V30 2067 H 197.292 -1.90325 -1.73592 0
M  V30 2068 H 197.25 -0.775844 -3.04677 0
M  V30 2069 N 201.022 0.148545 -1.56898 0
M  V30 2070 C 201.985 1.16736 -1.97244 0
M  V30 2071 C 202.985 1.35947 -0.858777 0
M  V30 2072 O 204.175 1.32966 -1.12542 0
M  V30 2073 C 201.307 2.52798 -2.28705 0
M  V30 2074 H 202.5 0.821279 -2.88435 0
M  V30 2075 H 200.053 0.391831 -1.51309 0
M  V30 2076 H 200.788 2.92381 -1.403 0
M  V30 2077 H 200.573 2.40216 -3.09901 0
M  V30 2078 H 202.063 3.26179 -2.60762 0
M  V30 2079 N 202.5 1.5196 0.417844 0
M  V30 2080 C 203.916 1.40569 0.755816 0
M  V30 2081 C 204.116 0.503316 1.95113 0
M  V30 2082 O 203.172 -0.0341925 2.52477 0
M  V30 2083 C 204.485 2.82947 1.01791 0
M  V30 2084 C 206.033 2.92231 1.12116 0
M  V30 2085 C 206.508 4.35559 1.41608 0
M  V30 2086 N 207.999 4.38753 1.48491 0
M  V30 2087 C 208.734 5.46705 1.7292 0
M  V30 2088 N 208.23 6.64788 1.95011 0
M  V30 2089 N 210.023 5.34209 1.74863 0
M  V30 2090 H 202.174 2.09168 -0.369098 0
M  V30 2091 H 204.437 0.942409 -0.102809 0
M  V30 2092 H 204.143 3.5106 0.212081 0
M  V30 2093 H 204.017 3.23462 1.94042 0
M  V30 2094 H 206.404 2.24304 1.9176 0
M  V30 2095 H 206.485 2.55185 0.177225 0
M  V30 2096 H 206.129 5.04042 0.624848 0
M  V30 2097 H 206.059 4.70133 2.37239 0
M  V30 2098 H 208.55 3.5363 1.33244 0
M  V30 2099 H 208.863 7.42845 2.13076 0
M  V30 2100 H 207.208 6.67869 1.92293 0
M  V30 2101 H 210.399 4.40937 1.57137 0
M  V30 2102 H 210.572 6.18415 1.93563 0
M  V30 2103 N 203.978 -0.674533 1.42435 0
M  V30 2104 C 205.224 -1.43671 1.43131 0
M  V30 2105 C 205.557 -1.94142 0.0476021 0
M  V30 2106 O 204.832 -1.70924 -0.928188 0
M  V30 2107 C 205.115 -2.63355 2.45594 0
M  V30 2108 C 204.968 -2.18514 3.93156 0
M  V30 2109 C 206.287 -3.65571 2.45043 0
M  V30 2110 H 203.406 -0.521077 0.521198 0
M  V30 2111 H 206.048 -0.766551 1.7385 0
M  V30 2112 H 204.198 -3.2053 2.19528 0
M  V30 2113 H 205.87 -1.66504 4.30202 0
M  V30 2114 H 204.113 -1.50086 4.07009 0
M  V30 2115 H 204.784 -3.04484 4.60428 0
M  V30 2116 H 207.26 -3.18113 2.68223 0
M  V30 2117 H 206.136 -4.46893 3.18713 0
M  V30 2118 H 206.397 -4.16716 1.47649 0
M  V30 2119 N 205.456 -1.28612 -0.910864 0
M  V30 2120 C 206.403 -1.12786 -2.01365 0
M  V30 2121 C 207.373 -0.024201 -1.66082 0
M  V30 2122 O 208.558 -0.189667 -1.89855 0
M  V30 2123 C 205.698 -0.798743 -3.35729 0
M  V30 2124 C 204.811 -1.98173 -3.83864 0
M  V30 2125 C 203.946 -1.59298 -5.06752 0
M  V30 2126 C 202.985 -2.74245 -5.47226 0
M  V30 2127 N 202.122 -2.35842 -6.61304 0
M  V30 2128 H 206.962 -2.07142 -2.14234 0
M  V30 2129 H 204.499 -1.03093 -1.0493 0
M  V30 2130 H 206.457 -0.588662 -4.13026 0
M  V30 2131 H 205.087 0.10789 -3.2262 0
M  V30 2132 H 204.139 -2.30386 -3.02699 0
M  V30 2133 H 205.451 -2.84343 -4.09818 0
M  V30 2134 H 204.605 -1.34513 -5.916 0
M  V30 2135 H 203.344 -0.702618 -4.82612 0
M  V30 2136 H 202.349 -2.99725 -4.60918 0
M  V30 2137 H 203.574 -3.63928 -5.73353 0
M  V30 2138 H 201.52 -1.49279 -6.38789 0
M  V30 2139 H 201.437 -3.15546 -6.86998 0
M  V30 2140 H 202.705 -2.14348 -7.4945 0
M  V30 2141 N 206.934 1.1197 -1.10907 0
M  V30 2142 C 208.182 1.83225 -0.852819 0
M  V30 2143 C 208.503 1.84769 0.623341 0
M  V30 2144 O 207.773 1.3143 1.45269 0
M  V30 2145 H 206.353 0.67849 -0.312507 0
M  V30 2146 H 209.015 1.3556 -1.40033 0
M  V30 2147 H 208.111 2.87265 -1.22005 0
M  V30 2148 N 208.412 0.89855 1.29475 0
M  V30 2149 C 209.658 0.524658 1.95896 0
M  V30 2150 C 209.991 -0.926468 1.70676 0
M  V30 2151 O 209.266 -1.65665 1.01908 0
M  V30 2152 C 209.549 0.81633 3.50725 0
M  V30 2153 C 209.402 2.31907 3.85408 0
M  V30 2154 C 210.721 0.302038 4.39062 0
M  V30 2155 H 207.84 0.19209 0.711527 0
M  V30 2156 H 210.482 1.12502 1.53112 0
M  V30 2157 H 208.632 0.305369 3.87298 0
M  V30 2158 H 210.304 2.89949 3.58786 0
M  V30 2159 H 208.547 2.78027 3.32992 0
M  V30 2160 H 209.218 2.47373 4.93468 0
M  V30 2161 H 211.694 0.739551 4.09475 0
M  V30 2162 H 210.57 0.535331 5.46283 0
M  V30 2163 H 210.831 -0.797216 4.34853 0
M  V30 2164 N 209.89 -1.43072 0.660911 0
M  V30 2165 C 211.115 -2.06584 0.183805 0
M  V30 2166 C 211.54 -1.49257 -1.14472 0
M  V30 2167 O 210.898 -0.605528 -1.70889 0
M  V30 2168 C 210.946 -3.60418 0.114434 0
M  V30 2169 O 210.05 -4.01981 -0.921137 0
M  V30 2170 H 209.391 -0.656669 0.0983994 0
M  V30 2171 H 211.921 -1.83447 0.906006 0
M  V30 2172 H 211.931 -4.07946 -0.0663394 0
M  V30 2173 H 210.606 -4.01519 1.08422 0
M  V30 2174 H 209.183 -3.66029 -0.71253 0
M  V30 2175 N 211.368 -0.403325 -1.52352 0
M  V30 2176 C 212.315 0.425011 -2.26853 0
M  V30 2177 C 213.285 1.04598 -1.29029 0
M  V30 2178 O 214.47 1.07135 -1.57882 0
M  V30 2179 C 211.61 1.53888 -3.08889 0
M  V30 2180 C 210.723 0.939396 -4.21663 0
M  V30 2181 C 209.858 2.02547 -4.91068 0
M  V30 2182 C 208.897 1.40263 -5.95813 0
M  V30 2183 N 208.034 2.4286 -6.58759 0
M  V30 2184 H 212.874 -0.21674 -2.97211 0
M  V30 2185 H 210.411 -0.118722 -1.4662 0
M  V30 2186 H 212.369 2.19558 -3.54753 0
M  V30 2187 H 210.999 2.15074 -2.40714 0
M  V30 2188 H 210.051 0.171898 -3.80011 0
M  V30 2189 H 211.363 0.44436 -4.96817 0
M  V30 2190 H 210.517 2.75958 -5.40308 0
M  V30 2191 H 209.256 2.55415 -4.15469 0
M  V30 2192 H 208.261 0.653833 -5.45898 0
M  V30 2193 H 209.486 0.881719 -6.73352 0
M  V30 2194 H 207.432 2.94871 -5.85992 0
M  V30 2195 H 207.349 1.98152 -7.2957 0
M  V30 2196 H 208.617 3.15858 -7.12639 0
M  V30 2197 N 212.846 1.57033 -0.133567 0
M  V30 2198 C 214.257 1.82593 0.389464 0
M  V30 2199 C 214.608 1.05156 1.6564 0
M  V30 2200 O 213.733 0.292644 2.14412 0
M  V30 2201 C 214.328 3.31204 0.713377 0
M  V30 2202 C 212.887 3.57393 1.18098 0
M  V30 2203 C 212.034 2.76598 0.197126 0
M  V30 2204 H 214.985 1.54598 -0.358481 0
M  V30 2205 H 215.006 3.46627 1.56939 0
M  V30 2206 H 214.518 3.87537 -0.2089 0
M  V30 2207 H 212.619 3.06433 2.11966 0
M  V30 2208 H 212.732 4.65915 1.11624 0
M  V30 2209 H 211.096 2.45257 0.687088 0
M  V30 2210 H 211.879 3.35697 -0.718504 0
M  V30 2211 N 214.325 -0.140222 1.56975 0
M  V30 2212 C 215.255 -1.17456 2.01808 0
M  V30 2213 C 216.236 -1.44415 0.898794 0
M  V30 2214 O 217.421 -1.5522 1.16707 0
M  V30 2215 C 214.551 -2.50607 2.40444 0
M  V30 2216 C 213.505 -2.38155 3.55621 0
M  V30 2217 C 212.831 -3.76078 3.80091 0
M  V30 2218 C 214.131 -1.85991 4.88062 0
M  V30 2219 H 215.825 -0.801743 2.88466 0
M  V30 2220 H 213.371 -0.38422 1.38779 0
M  V30 2221 H 215.324 -3.23197 2.7041 0
M  V30 2222 H 214.048 -2.89737 1.50732 0
M  V30 2223 H 212.707 -1.68016 3.25832 0
M  V30 2224 H 212.355 -4.12656 2.87618 0
M  V30 2225 H 212.055 -3.68606 4.57606 0
M  V30 2226 H 213.579 -4.50206 4.12488 0
M  V30 2227 H 214.993 -2.4838 5.16701 0
M  V30 2228 H 213.39 -1.89393 5.6943 0
M  V30 2229 H 214.46 -0.816023 4.77984 0
M  V30 2230 N 215.803 -1.52179 -0.40978 0
M  V30 2231 C 217.08 -1.56769 -1.16974 0
M  V30 2232 C 217.46 -0.348322 -2.08206 0
M  V30 2233 O 216.808 0.664862 -2.18613 0
M  V30 2234 C 217.018 -2.89603 -1.9476 0
M  V30 2235 C 218.366 -3.42579 -2.50849 0
M  V30 2236 O 219.39 -2.91338 -2.04941 0
M  V30 2237 O 218.249 -4.32054 -3.34652 0
M  V30 2238 H 215.343 -0.631439 -0.534054 0
M  V30 2239 H 217.889 -1.64507 -0.416613 0
M  V30 2240 H 216.661 -3.698 -1.27921 0
M  V30 2241 H 216.284 -2.85155 -2.77079 0
M  V30 2242 N 217.281 0.66697 -1.42791 0
M  V30 2243 C 218.529 1.42417 -1.43394 0
M  V30 2244 C 218.85 1.94925 -0.0542373 0
M  V30 2245 O 218.12 1.73564 0.908415 0
M  V30 2246 H 216.7 0.528515 -0.527902 0
M  V30 2247 H 219.362 0.787562 -1.78279 0
M  V30 2248 H 218.458 2.27333 -2.13837 0
M  V30 2249 N 218.759 1.29093 0.90403 0
M  V30 2250 C 220.005 1.16986 1.65656 0
M  V30 2251 C 220.338 -0.278925 1.92186 0
M  V30 2252 O 219.613 -1.2019 1.5292 0
M  V30 2253 C 219.896 1.97908 3.0084 0
M  V30 2254 C 219.749 3.50903 2.81403 0
M  V30 2255 C 221.068 1.80208 4.01513 0
M  V30 2256 H 218.187 0.426346 0.601164 0
M  V30 2257 H 220.829 1.58518 1.04747 0
M  V30 2258 H 218.979 1.62616 3.52829 0
M  V30 2259 H 220.651 3.96153 2.36348 0
M  V30 2260 H 218.894 3.76045 2.1627 0
M  V30 2261 H 219.565 4.02791 3.77443 0
M  V30 2262 H 222.041 2.11025 3.58619 0
M  V30 2263 H 220.917 2.39184 4.94047 0
M  V30 2264 H 221.178 0.756119 4.35586 0
M  V30 2265 N 220.237 -1.11381 1.11499 0
M  V30 2266 C 221.169 -2.17207 0.731704 0
M  V30 2267 C 222.182 -1.61066 -0.236957 0
M  V30 2268 O 223.371 -1.78489 -0.0197591 0
M  V30 2269 C 220.471 -3.38846 0.0607624 0
M  V30 2270 C 219.644 -4.24451 1.0564 0
M  V30 2271 C 218.703 -5.24562 0.4149 0
M  V30 2272 O 217.729 -5.59071 1.069 0
M  V30 2273 N 218.931 -5.74651 -0.821943 0
M  V30 2274 H 221.696 -2.50699 1.64225 0
M  V30 2275 H 219.257 -1.26908 1.00529 0
M  V30 2276 H 221.249 -4.02911 -0.380139 0
M  V30 2277 H 219.819 -3.03411 -0.752376 0
M  V30 2278 H 219.039 -3.56833 1.67524 0
M  V30 2279 H 220.327 -4.78486 1.72998 0
M  V30 2280 H 219.725 -5.48797 -1.37252 0
M  V30 2281 H 218.282 -6.40549 -1.20582 0
M  V30 2282 N 221.715 -0.905404 -1.28997 0
M  V30 2283 C 222.94 -0.549175 -1.99997 0
M  V30 2284 C 223.365 0.860276 -1.67275 0
M  V30 2285 O 222.723 1.57355 -0.900502 0
M  V30 2286 C 222.771 -0.755185 -3.52604 0
M  V30 2287 O 221.875 0.189692 -4.11964 0
M  V30 2288 H 221.216 -0.213899 -0.628604 0
M  V30 2289 H 223.746 -1.21856 -1.64354 0
M  V30 2290 H 223.756 -0.662045 -4.02593 0
M  V30 2291 H 222.431 -1.78271 -3.75755 0
M  V30 2292 H 221.008 0.0485257 -3.72868 0
M  V30 2293 N 223.193 1.4272 -0.668489 0
M  V30 2294 C 224.439 2.02443 -0.197076 0
M  V30 2295 C 224.794 1.51882 1.18109 0
M  V30 2296 O 224.087 0.708618 1.78015 0
M  V30 2297 C 224.281 3.57021 -0.164499 0
M  V30 2298 C 224.11 4.22583 -1.53797 0
M  V30 2299 C 222.88 4.58019 -2.13416 0
M  V30 2300 C 225.078 4.50588 -2.47941 0
M  V30 2301 N 223.06 5.08729 -3.4361 0
M  V30 2302 C 224.431 5.02782 -3.62782 0
M  V30 2303 C 226.486 4.32571 -2.46551 0
M  V30 2304 C 225.189 5.38852 -4.76478 0
M  V30 2305 C 227.215 4.69713 -3.59338 0
M  V30 2306 C 226.577 5.22053 -4.72906 0
M  V30 2307 H 222.676 0.773214 -0.116894 0
M  V30 2308 H 225.26 1.73673 -0.880108 0
M  V30 2309 H 223.431 3.85323 0.487925 0
M  V30 2310 H 225.163 4.03439 0.319207 0
M  V30 2311 H 221.918 4.43566 -1.65969 0
M  V30 2312 H 222.342 5.38521 -4.10273 0
M  V30 2313 H 226.984 3.91365 -1.59978 0
M  V30 2314 H 224.702 5.78993 -5.63731 0
M  V30 2315 H 228.288 4.57454 -3.59482 0
M  V30 2316 H 227.168 5.50258 -5.58736 0
M  V30 2317 N 224.671 0.411399 1.52136 0
M  V30 2318 C 225.901 -0.16284 2.05957 0
M  V30 2319 C 226.309 -1.3922 1.28119 0
M  V30 2320 O 225.652 -1.80768 0.326881 0
M  V30 2321 C 225.714 -0.575946 3.54856 0
M  V30 2322 C 225.378 0.542998 4.53763 0
M  V30 2323 C 226.375 1.40726 5.00492 0
M  V30 2324 C 224.06 0.716337 4.97166 0
M  V30 2325 C 226.054 2.4298 5.8927 0
M  V30 2326 C 223.741 1.74218 5.8574 0
M  V30 2327 C 224.739 2.59731 6.31687 0
M  V30 2328 O 224.427 3.60558 7.18507 0
M  V30 2329 H 224.159 -0.0229125 0.675612 0
M  V30 2330 H 226.713 0.581634 1.96993 0
M  V30 2331 H 224.943 -1.37274 3.61515 0
M  V30 2332 H 226.632 -1.07836 3.91313 0
M  V30 2333 H 227.398 1.28476 4.67674 0
M  V30 2334 H 223.277 0.0603857 4.6096 0
M  V30 2335 H 226.821 3.0976 6.25055 0
M  V30 2336 H 222.718 1.86498 6.17971 0
M  V30 2337 H 223.486 3.56829 7.36624 0
M  V30 2338 N 226.149 -1.5696 0.141893 0
M  V30 2339 C 227.395 -1.9625 -0.511248 0
M  V30 2340 C 227.728 -1.02654 -1.64851 0
M  V30 2341 O 227.003 -0.0679676 -1.94381 0
M  V30 2342 C 227.286 -3.45285 -1.02227 0
M  V30 2343 C 227.139 -4.49658 0.113138 0
M  V30 2344 C 228.458 -3.96698 -1.90574 0
M  V30 2345 H 225.577 -0.713567 -0.184367 0
M  V30 2346 H 228.219 -1.88698 0.222087 0
M  V30 2347 H 226.369 -3.51852 -1.64719 0
M  V30 2348 H 228.041 -4.55174 0.749302 0
M  V30 2349 H 226.284 -4.26857 0.773026 0
M  V30 2350 H 226.955 -5.51258 -0.286053 0
M  V30 2351 H 229.431 -3.92578 -1.37918 0
M  V30 2352 H 228.307 -5.01453 -2.2324 0
M  V30 2353 H 228.568 -3.3875 -2.84079 0
M  V30 2354 N 227.627 0.131896 -1.57047 0
M  V30 2355 C 228.904 0.871495 -1.75112 0
M  V30 2356 C 229.284 1.9866 -0.713949 0
M  V30 2357 O 228.632 2.26965 0.264447 0
M  V30 2358 C 228.842 1.40007 -3.19686 0
M  V30 2359 C 230.19 1.85752 -3.81813 0
M  V30 2360 O 231.214 1.49715 -3.23209 0
M  V30 2361 O 230.073 2.5226 -4.84796 0
M  V30 2362 H 227.167 0.412919 -0.716538 0
M  V30 2363 H 229.713 0.116641 -1.69299 0
M  V30 2364 H 228.485 0.599404 -3.86682 0
M  V30 2365 H 228.108 2.218 -3.29986 0
M  V30 2366 N 229.106 1.52395 0.401703 0
M  V30 2367 C 230.517 1.58899 0.980202 0
M  V30 2368 C 230.868 0.434032 1.91339 0
M  V30 2369 O 229.993 -0.444619 2.11783 0
M  V30 2370 C 230.588 2.87994 1.78451 0
M  V30 2371 C 229.147 2.96953 2.31292 0
M  V30 2372 C 228.294 2.53903 1.11483 0
M  V30 2373 H 231.245 1.57657 0.18168 0
M  V30 2374 H 231.266 2.73765 2.64259 0
M  V30 2375 H 230.778 3.72035 1.10506 0
M  V30 2376 H 228.879 2.17422 3.02586 0
M  V30 2377 H 228.992 4.01344 2.61649 0
M  V30 2378 H 227.356 2.07925 1.47104 0
M  V30 2379 H 228.139 3.40326 0.450928 0
M  V30 2380 N 230.584 -0.659388 1.43143 0
M  V30 2381 C 232 -0.974337 1.26407 0
M  V30 2382 C 232.2 -2.007 0.179341 0
M  V30 2383 O 231.256 -2.4856 -0.444295 0
M  V30 2384 C 232.569 -1.46447 2.62628 0
M  V30 2385 C 234.117 -1.58144 2.7011 0
M  V30 2386 C 234.592 -2.1055 4.06734 0
M  V30 2387 N 236.083 -2.17861 4.08767 0
M  V30 2388 C 236.818 -2.59519 5.1131 0
M  V30 2389 N 236.314 -3.00518 6.24228 0
M  V30 2390 N 238.107 -2.59404 4.98664 0
M  V30 2391 H 230.258 0.0240528 2.12386 0
M  V30 2392 H 232.521 -0.0518065 0.946583 0
M  V30 2393 H 232.227 -0.780123 3.42939 0
M  V30 2394 H 232.101 -2.44058 2.87603 0
M  V30 2395 H 234.488 -2.25682 1.90136 0
M  V30 2396 H 234.569 -0.589828 2.48907 0
M  V30 2397 H 234.213 -1.43616 4.87172 0
M  V30 2398 H 234.143 -3.10531 4.25298 0
M  V30 2399 H 236.634 -1.88975 3.27257 0
M  V30 2400 H 236.947 -3.31036 6.98309 0
M  V30 2401 H 235.292 -2.98337 6.2771 0
M  V30 2402 H 238.483 -2.26747 4.09516 0
M  V30 2403 H 238.656 -2.91548 5.78709 0
M  V30 2404 N 232.062 -1.29571 -0.897171 0
M  V30 2405 C 233.287 -1.20705 -1.68656 0
M  V30 2406 C 233.712 0.228582 -1.86706 0
M  V30 2407 O 233.07 1.16494 -1.3892 0
M  V30 2408 C 233.118 -1.9282 -3.04717 0
M  V30 2409 O 232.222 -1.24697 -3.93096 0
M  V30 2410 H 231.563 -0.418126 -0.515816 0
M  V30 2411 H 234.093 -1.71183 -1.12061 0
M  V30 2412 H 234.103 -2.01372 -3.54843 0
M  V30 2413 H 232.778 -2.97239 -2.90899 0
M  V30 2414 H 231.355 -1.2442 -3.51531 0
M  V30 2415 N 233.54 1.10788 -1.12088 0
M  V30 2416 C 234.488 2.19111 -0.780587 0
M  V30 2417 C 235.482 1.67818 0.230961 0
M  V30 2418 O 236.688 1.79777 0.0895427 0
M  V30 2419 H 233.063 0.714477 -0.234578 0
M  V30 2420 H 235.034 2.45055 -1.70266 0
M  V30 2421 C 233.783 3.46818 -0.24747 0
M  V30 2422 H 233.106 3.86646 -1.01712 0
M  V30 2423 H 234.546 4.23973 -0.0476291 0
M  V30 2424 C 233.005 3.20968 1.02378 0
M  V30 2425 O 233.535 3.42298 2.10226 0
M  V30 2426 N 231.741 2.74658 0.949271 0
M  V30 2427 H 231.288 2.57501 0.0715173 0
M  V30 2428 H 231.246 2.57739 1.80049 0
M  V30 2429 N 235.018 0.912232 1.28515 0
M  V30 2430 C 235.981 0.404223 2.25607 0
M  V30 2431 C 236.981 -0.468602 1.53821 0
M  V30 2432 O 238.171 -0.271873 1.72065 0
M  V30 2433 C 235.303 -0.420653 3.38295 0
M  V30 2434 H 236.496 1.26188 2.7206 0
M  V30 2435 H 234.049 0.691495 1.40171 0
M  V30 2436 H 234.784 -1.29777 2.97201 0
M  V30 2437 H 234.569 0.204935 3.91564 0
M  V30 2438 H 236.059 -0.766971 4.10496 0
M  V30 2439 N 236.496 -1.42363 0.676048 0
M  V30 2440 C 237.742 -2.0182 0.199125 0
M  V30 2441 C 238.075 -1.53339 -1.19168 0
M  V30 2442 O 237.35 -0.736124 -1.80032 0
M  V30 2443 C 237.633 -3.59331 0.235144 0
M  V30 2444 C 237.486 -4.17989 1.66149 0
M  V30 2445 C 238.805 -4.3813 -0.41595 0
M  V30 2446 H 235.924 -0.733293 0.0738311 0
M  V30 2447 H 238.566 -1.69368 0.86107 0
M  V30 2448 H 236.716 -3.87109 -0.328487 0
M  V30 2449 H 238.388 -4.0116 2.27747 0
M  V30 2450 H 236.631 -3.7377 2.20178 0
M  V30 2451 H 237.302 -5.27126 1.63837 0
M  V30 2452 H 239.778 -4.16051 0.0638529 0
M  V30 2453 H 238.654 -5.47717 -0.360115 0
M  V30 2454 H 238.915 -4.16101 -1.49373 0
M  V30 2455 N 237.974 -0.419461 -1.51915 0
M  V30 2456 C 239.22 0.153166 -2.02221 0
M  V30 2457 C 239.553 1.43907 -1.30401 0
M  V30 2458 O 238.828 1.90055 -0.413438 0
M  V30 2459 C 239.111 0.390291 -3.57979 0
M  V30 2460 C 238.964 -0.913014 -4.40436 0
M  V30 2461 C 240.283 1.16794 -4.2432 0
M  V30 2462 H 237.402 0.0541924 -0.735005 0
M  V30 2463 H 240.044 -0.554955 -1.81715 0
M  V30 2464 H 238.194 0.993491 -3.75582 0
M  V30 2465 H 239.866 -1.54882 -4.34522 0
M  V30 2466 H 238.109 -1.52168 -4.06236 0
M  V30 2467 H 238.78 -0.701361 -5.47526 0
M  V30 2468 H 241.256 0.657161 -4.10878 0
M  V30 2469 H 240.132 1.3026 -5.3322 0
M  V30 2470 H 240.393 2.19132 -3.83971 0
M  V30 2471 N 239.452 1.56882 -0.150215 0
M  V30 2472 C 240.698 1.96518 0.500834 0
M  V30 2473 C 241.031 1.03527 1.64304 0
M  V30 2474 O 240.306 0.0782751 1.94342 0
M  V30 2475 C 240.589 3.45822 1.00395 0
M  V30 2476 C 240.442 4.49591 -0.136983 0
M  V30 2477 C 241.761 3.97704 1.88467 0
M  V30 2478 H 238.88 0.714535 0.18058 0
M  V30 2479 H 241.522 1.88577 -0.232091 0
M  V30 2480 H 239.672 3.5272 1.62851 0
M  V30 2481 H 241.344 4.5477 -0.77343 0
M  V30 2482 H 239.587 4.26441 -0.795652 0
M  V30 2483 H 240.258 5.51402 0.256815 0
M  V30 2484 H 242.734 3.93304 1.35834 0
M  V30 2485 H 241.61 5.0263 2.20578 0
M  V30 2486 H 241.871 3.40252 2.82279 0
M  V30 2487 N 240.93 -0.123565 1.57115 0
M  V30 2488 C 241.877 -1.15177 2.00007 0
M  V30 2489 C 242.847 -1.41403 0.871454 0
M  V30 2490 O 244.032 -1.53346 1.13533 0
M  V30 2491 C 241.172 -2.47436 2.40561 0
M  V30 2492 C 240.285 -2.28184 3.66819 0
M  V30 2493 C 239.42 -3.53641 3.96373 0
M  V30 2494 C 238.459 -3.29528 5.15827 0
M  V30 2495 N 237.596 -4.47175 5.41275 0
M  V30 2496 H 242.436 -0.779008 2.87638 0
M  V30 2497 H 239.973 -0.373166 1.42288 0
M  V30 2498 H 241.931 -3.24584 2.62109 0
M  V30 2499 H 240.561 -2.82614 1.55978 0
M  V30 2500 H 239.613 -1.41976 3.52912 0
M  V30 2501 H 240.925 -2.0634 4.5412 0
M  V30 2502 H 240.079 -4.39209 4.18545 0
M  V30 2503 H 238.818 -3.78512 3.07538 0
M  V30 2504 H 237.823 -2.42349 4.93505 0
M  V30 2505 H 239.048 -3.06031 6.06236 0
M  V30 2506 H 236.994 -4.72175 4.55397 0
M  V30 2507 H 236.911 -4.28419 6.22891 0
M  V30 2508 H 238.179 -5.3389 5.67963 0
M  V30 2509 N 242.408 -1.52605 -0.393616 0
M  V30 2510 C 243.654 -1.67672 -1.14079 0
M  V30 2511 C 243.987 -0.413121 -1.89755 0
M  V30 2512 O 243.262 0.588952 -1.85369 0
M  V30 2513 C 243.545 -2.9088 -2.12276 0
M  V30 2514 C 243.398 -4.27329 -1.40394 0
M  V30 2515 C 244.717 -3.09628 -3.12759 0
M  V30 2516 H 241.836 -0.610168 -0.413356 0
M  V30 2517 H 244.478 -1.85193 -0.424696 0
M  V30 2518 H 242.628 -2.76073 -2.73342 0
M  V30 2519 H 244.3 -4.53894 -0.82327 0
M  V30 2520 H 242.543 -4.2802 -0.705801 0
M  V30 2521 H 243.214 -5.09615 -2.12123 0
M  V30 2522 H 245.69 -3.23436 -2.61779 0
M  V30 2523 H 244.566 -3.97322 -3.78717 0
M  V30 2524 H 244.827 -2.23637 -3.81365 0
M  V30 2525 N 243.887 0.651787 -1.4349 0
M  V30 2526 C 245.164 1.40909 -1.35661 0
M  V30 2527 C 245.544 2.11099 -0.00511733 0
M  V30 2528 O 244.892 2.04892 1.0115 0
M  V30 2529 C 245.102 2.3926 -2.54078 0
M  V30 2530 C 246.45 3.03217 -2.97228 0
M  V30 2531 O 247.474 2.49588 -2.54135 0
M  V30 2532 O 246.333 4.00455 -3.71885 0
M  V30 2533 H 243.427 0.629625 -0.536191 0
M  V30 2534 H 245.973 0.678575 -1.55542 0
M  V30 2535 H 244.745 1.86352 -3.44076 0
M  V30 2536 H 244.368 3.1976 -2.36303 0
M  V30 2537 N 245.365 1.30045 0.890287 0
M  V30 2538 C 246.642 1.09227 1.62262 0
M  V30 2539 C 247.022 -0.360305 2.08002 0
M  V30 2540 O 246.37 -1.35084 1.84295 0
M  V30 2541 C 246.58 2.08835 2.79623 0
M  V30 2542 C 247.928 2.40266 3.50082 0
M  V30 2543 O 248.952 2.07104 2.89804 0
M  V30 2544 O 247.811 2.96967 4.58773 0
M  V30 2545 H 244.905 0.419132 0.712922 0
M  V30 2546 H 247.451 1.41451 0.937529 0
M  V30 2547 H 246.223 3.06633 2.43089 0
M  V30 2548 H 245.846 1.77397 3.55832 0
M  V30 2549 N 246.843 -1.10192 1.12674 0
M  V30 2550 C 248.091 -1.81845 0.881861 0
M  V30 2551 C 248.412 -1.85737 -0.593867 0
M  V30 2552 O 247.682 -1.33724 -1.4316 0
M  V30 2553 H 246.262 -0.673432 0.323261 0
M  V30 2554 H 248.924 -1.33316 1.42172 0
M  V30 2555 H 248.02 -2.85288 1.2656 0
M  V30 2556 N 248.321 -0.919034 -1.28029 0
M  V30 2557 C 249.284 -0.416182 -2.2539 0
M  V30 2558 C 250.284 0.460438 -1.54067 0
M  V30 2559 O 251.474 0.262744 -1.72207 0
M  V30 2560 C 248.606 0.402707 -3.38513 0
M  V30 2561 H 249.799 -1.27629 -2.71387 0
M  V30 2562 H 247.352 -0.698919 -1.39803 0
M  V30 2563 H 248.087 1.282 -2.97885 0
M  V30 2564 H 247.872 -0.225698 -3.9145 0
M  V30 2565 H 249.362 0.745191 -4.10897 0
M  V30 2566 N 249.799 1.42003 -0.683588 0
M  V30 2567 C 251.027 2.05746 -0.218182 0
M  V30 2568 C 251.442 1.51396 1.12804 0
M  V30 2569 O 250.799 0.657303 1.70252 0
M  V30 2570 C 250.85 3.61171 -0.154131 0
M  V30 2571 O 250.571 4.13508 -1.44716 0
M  V30 2572 C 252.072 4.42042 0.333713 0
M  V30 2573 H 249.292 0.662888 -0.10402 0
M  V30 2574 H 251.836 1.81987 -0.9328 0
M  V30 2575 H 249.991 3.84012 0.511231 0
M  V30 2576 H 250.405 5.07453 -1.32632 0
M  V30 2577 H 251.879 5.51028 0.327423 0
M  V30 2578 H 252.356 4.17269 1.37053 0
M  V30 2579 H 252.962 4.24239 -0.300222 0
M  V30 2580 N 251.277 0.427512 1.51691 0
M  V30 2581 C 252.187 -0.39527 2.31246 0
M  V30 2582 C 253.203 -1.03674 1.39742 0
M  V30 2583 O 254.379 -1.03425 1.72816 0
M  V30 2584 C 251.444 -1.48706 3.13189 0
M  V30 2585 C 250.505 -0.866743 4.20459 0
M  V30 2586 C 249.738 -1.90651 4.98486 0
M  V30 2587 O 249.961 -3.12733 4.77026 0
M  V30 2588 O 248.895 -1.5025 5.82845 0
M  V30 2589 H 252.721 0.253918 3.02637 0
M  V30 2590 H 250.306 0.190274 1.48183 0
M  V30 2591 H 252.188 -2.12047 3.64162 0
M  V30 2592 H 250.863 -2.12051 2.44573 0
M  V30 2593 H 249.77 -0.195544 3.73589 0
M  V30 2594 H 251.103 -0.276934 4.9142 0
M  V30 2595 N 252.755 -1.56801 0.158532 0
M  V30 2596 C 253.718 -2.16138 -0.762705 0
M  V30 2597 C 254.718 -1.1061 -1.16713 0
M  V30 2598 O 255.908 -1.36191 -1.08617 0
M  V30 2599 C 253.04 -2.73386 -2.03649 0
M  V30 2600 H 254.233 -2.98886 -0.246354 0
M  V30 2601 H 251.786 -1.56035 -0.0909744 0
M  V30 2602 H 252.521 -1.94335 -2.59623 0
M  V30 2603 H 252.306 -3.50601 -1.75559 0
M  V30 2604 H 253.796 -3.19065 -2.6942 0
M  V30 2605 N 254.233 0.115231 -1.57178 0
M  V30 2606 C 255.481 0.820727 -1.84685 0
M  V30 2607 C 255.802 1.80237 -0.744279 0
M  V30 2608 O 255.072 1.94529 0.231375 0
M  V30 2609 H 253.652 0.306084 -0.681411 0
M  V30 2610 H 256.314 0.101656 -1.94635 0
M  V30 2611 H 255.41 1.36366 -2.80733 0
M  V30 2612 N 255.711 1.52812 0.385517 0
M  V30 2613 C 256.957 1.68275 1.13188 0
M  V30 2614 C 257.29 0.423179 1.89533 0
M  V30 2615 O 256.565 -0.579113 1.85679 0
M  V30 2616 C 256.848 2.92001 2.1073 0
M  V30 2617 C 256.701 4.28067 1.38125 0
M  V30 2618 C 258.02 3.11283 3.11113 0
M  V30 2619 H 255.139 0.612352 0.410115 0
M  V30 2620 H 257.781 1.85415 0.414869 0
M  V30 2621 H 255.931 2.77519 2.71874 0
M  V30 2622 H 257.603 4.54324 0.799187 0
M  V30 2623 H 255.846 4.28388 0.683092 0
M  V30 2624 H 256.517 5.10733 2.09417 0
M  V30 2625 H 258.993 3.2482 2.6006 0
M  V30 2626 H 257.869 3.99325 3.76605 0
M  V30 2627 H 258.13 2.25656 3.80173 0
M  V30 2628 N 257.189 -0.644168 1.43834 0
M  V30 2629 C 258.466 -1.40188 1.36406 0
M  V30 2630 C 258.846 -2.11094 0.0163124 0
M  V30 2631 O 258.194 -2.05426 -1.00062 0
M  V30 2632 C 258.404 -2.3791 2.55343 0
M  V30 2633 C 259.752 -3.01637 2.98832 0
M  V30 2634 O 260.776 -2.48237 2.55455 0
M  V30 2635 O 259.635 -3.98477 3.74003 0
M  V30 2636 H 256.729 -0.626773 0.539523 0
M  V30 2637 H 259.275 -0.670317 1.559 0
M  V30 2638 H 258.047 -1.84525 3.4506 0
M  V30 2639 H 257.67 -3.18503 2.37995 0
M  V30 2640 N 258.668 -1.30515 -0.883378 0
M  V30 2641 C 259.915 -1.1943 -1.63532 0
M  V30 2642 C 260.243 0.250627 -1.92878 0
M  V30 2643 O 259.498 1.19556 -1.54935 0
M  V30 2644 C 259.797 -1.96994 -2.98209 0
M  V30 2645 C 259.463 -3.466 -2.88408 0
M  V30 2646 C 258.125 -3.87397 -2.85442 0
M  V30 2647 C 260.477 -4.41863 -2.76418 0
M  V30 2648 C 257.805 -5.21745 -2.68327 0
M  V30 2649 C 260.157 -5.7632 -2.60841 0
M  V30 2650 C 258.821 -6.16354 -2.56251 0
M  V30 2651 H 258.091 -0.437025 -0.598406 0
M  V30 2652 H 260.738 -1.61635 -1.02696 0
M  V30 2653 H 259.043 -1.47429 -3.63004 0
M  V30 2654 H 260.74 -1.85808 -3.55354 0
M  V30 2655 H 257.33 -3.14182 -2.91527 0
M  V30 2656 H 261.514 -4.11285 -2.77775 0
M  V30 2657 H 256.77 -5.51853 -2.63189 0
M  V30 2658 H 260.944 -6.49772 -2.50538 0
M  V30 2659 H 258.571 -7.20401 -2.42748 0
M  V30 2660 N 260.146 1.09593 -1.13257 0
M  V30 2661 C 261.392 1.82003 -0.89458 0
M  V30 2662 C 261.725 1.85402 0.577906 0
M  V30 2663 O 261 1.32099 1.42759 0
M  V30 2664 C 261.283 3.28237 -1.48096 0
M  V30 2665 C 261.136 3.3312 -3.02244 0
M  V30 2666 C 262.455 4.24871 -1.14774 0
M  V30 2667 H 259.574 0.66077 -0.326424 0
M  V30 2668 H 262.216 1.28389 -1.40058 0
M  V30 2669 H 260.366 3.74024 -1.05062 0
M  V30 2670 H 262.038 2.95748 -3.54021 0
M  V30 2671 H 260.281 2.72756 -3.37323 0
M  V30 2672 H 260.952 4.3613 -3.38371 0
M  V30 2673 H 263.428 3.87361 -1.51957 0
M  V30 2674 H 262.304 5.25532 -1.58452 0
M  V30 2675 H 262.565 4.42058 -0.0611849 0
M  V30 2676 N 261.624 0.925811 1.2754 0
M  V30 2677 C 262.587 0.428129 2.25166 0
M  V30 2678 C 263.587 -0.452261 1.54309 0
M  V30 2679 O 264.777 -0.253608 1.72344 0
M  V30 2680 C 261.909 -0.384749 3.38722 0
M  V30 2681 H 263.102 1.29066 2.70706 0
M  V30 2682 H 260.655 0.706323 1.3943 0
M  V30 2683 H 261.39 -1.26618 2.98561 0
M  V30 2684 H 261.175 0.246454 3.91325 0
M  V30 2685 H 262.665 -0.723389 4.11287 0
M  V30 2686 N 263.102 -1.41638 0.69111 0
M  V30 2687 C 264.032 -2.3347 0.037248 0
M  V30 2688 C 265.013 -1.51575 -0.771947 0
M  V30 2689 O 266.198 -1.80126 -0.72582 0
M  V30 2690 C 263.328 -3.35354 -0.903064 0
M  V30 2691 C 262.282 -4.27526 -0.201288 0
M  V30 2692 C 261.608 -5.19747 -1.25565 0
M  V30 2693 C 262.908 -5.13959 0.929689 0
M  V30 2694 H 264.602 -2.88397 0.804227 0
M  V30 2695 H 262.148 -1.38669 0.388189 0
M  V30 2696 H 264.101 -3.98519 -1.36969 0
M  V30 2697 H 262.825 -2.78767 -1.70166 0
M  V30 2698 H 261.484 -3.65779 0.245265 0
M  V30 2699 H 261.132 -4.59479 -2.04666 0
M  V30 2700 H 260.832 -5.8225 -0.791128 0
M  V30 2701 H 262.356 -5.85789 -1.72288 0
M  V30 2702 H 263.77 -5.70718 0.543546 0
M  V30 2703 H 262.167 -5.85379 1.32103 0
M  V30 2704 H 263.237 -4.51389 1.77133 0
M  V30 2705 N 264.58 -0.43555 -1.51462 0
M  V30 2706 C 265.805 0.132627 -2.06976 0
M  V30 2707 C 266.23 1.35848 -1.30104 0
M  V30 2708 O 265.588 1.78112 -0.338493 0
M  V30 2709 C 265.636 0.43523 -3.57964 0
M  V30 2710 O 264.74 1.52198 -3.83288 0
M  V30 2711 H 264.081 0.00265 -0.663995 0
M  V30 2712 H 266.611 -0.616369 -1.95095 0
M  V30 2713 H 266.621 0.686206 -4.02188 0
M  V30 2714 H 265.296 -0.460739 -4.1334 0
M  V30 2715 H 263.873 1.2611 -3.50928 0
M  V30 2716 N 266.058 1.56714 -0.166846 0
M  V30 2717 C 267.306 1.96358 0.478305 0
M  V30 2718 C 267.627 1.0537 1.6408 0
M  V30 2719 O 266.897 0.119154 1.95537 0
M  V30 2720 H 265.477 0.725065 0.179692 0
M  V30 2721 H 268.139 1.93329 -0.246985 0
M  V30 2722 H 267.235 3.00547 0.841292 0
M  V30 2723 N 267.536 -0.106894 1.57237 0
M  V30 2724 C 268.499 -1.11466 2.0027 0
M  V30 2725 C 269.499 -1.33623 0.894519 0
M  V30 2726 O 270.689 -1.29935 1.16028 0
M  V30 2727 C 267.821 -2.46646 2.35327 0
M  V30 2728 H 269.014 -0.744516 2.90512 0
M  V30 2729 H 266.567 -0.351576 1.52295 0
M  V30 2730 H 267.302 -2.88558 1.48003 0
M  V30 2731 H 267.087 -2.31915 3.16161 0
M  V30 2732 H 268.577 -3.19151 2.69318 0
M  V30 2733 N 269.014 -1.53014 -0.377408 0
M  V30 2734 C 270.291 -1.59215 -1.13622 0
M  V30 2735 C 270.671 -0.392407 -2.07421 0
M  V30 2736 O 270.019 0.618342 -2.19975 0
M  V30 2737 C 270.229 -2.93669 -1.88573 0
M  V30 2738 C 271.577 -3.47822 -2.43526 0
M  V30 2739 O 272.601 -2.9562 -1.98715 0
M  V30 2740 O 271.46 -4.39055 -3.25412 0
M  V30 2741 H 268.554 -0.642625 -0.52054 0
M  V30 2742 H 271.1 -1.65353 -0.381625 0
M  V30 2743 H 269.872 -3.7243 -1.20048 0
M  V30 2744 H 269.495 -2.90968 -2.70968 0
M  V30 2745 N 270.492 0.636531 -1.44174 0
M  V30 2746 C 271.717 1.42847 -1.50364 0
M  V30 2747 C 272.142 1.87665 -0.127867 0
M  V30 2748 O 271.5 1.58408 0.88185 0
M  V30 2749 C 271.548 2.62854 -2.4686 0
M  V30 2750 O 270.652 3.62501 -1.9664 0
M  V30 2751 H 269.993 0.427642 -0.507955 0
M  V30 2752 H 272.523 0.777422 -1.89255 0
M  V30 2753 H 272.533 3.10465 -2.64718 0
M  V30 2754 H 271.208 2.29578 -3.46795 0
M  V30 2755 H 269.785 3.21735 -1.88523 0
M  V30 2756 N 271.97 1.30982 0.876444 0
M  V30 2757 C 272.933 1.18054 1.96459 0
M  V30 2758 C 273.933 0.109399 1.60427 0
M  V30 2759 O 275.123 0.358173 1.70478 0
M  V30 2760 C 272.255 0.810616 3.31122 0
M  V30 2761 H 273.448 2.14735 2.09354 0
M  V30 2762 H 271.001 1.145 1.06392 0
M  V30 2763 H 271.736 -0.155322 3.23928 0
M  V30 2764 H 271.521 1.58481 3.58645 0
M  V30 2765 H 273.011 0.743876 4.10921 0
M  V30 2766 N 273.449 -1.08991 1.13837 0
M  V30 2767 C 274.381 -2.15606 0.777612 0
M  V30 2768 C 275.394 -1.61533 -0.202739 0
M  V30 2769 O 276.583 -1.78491 0.0181055 0
M  V30 2770 C 273.683 -3.3864 0.132623 0
M  V30 2771 C 272.856 -4.22115 1.1462 0
M  V30 2772 C 271.915 -5.23564 0.526074 0
M  V30 2773 O 270.941 -5.56678 1.18735 0
M  V30 2774 N 272.143 -5.76266 -0.699866 0
M  V30 2775 H 274.908 -2.47159 1.69506 0
M  V30 2776 H 272.469 -1.24747 1.03198 0
M  V30 2777 H 274.461 -4.03626 -0.29459 0
M  V30 2778 H 273.031 -3.04938 -0.687849 0
M  V30 2779 H 272.251 -3.53199 1.75055 0
M  V30 2780 H 273.539 -4.74709 1.83109 0
M  V30 2781 H 272.937 -5.51585 -1.25581 0
M  V30 2782 H 271.494 -6.42963 -1.06968 0
M  V30 2783 N 274.927 -0.932562 -1.27047 0
M  V30 2784 C 276.173 -0.576412 -1.94436 0
M  V30 2785 C 276.506 0.880891 -1.73072 0
M  V30 2786 O 275.781 1.62905 -1.06264 0
M  V30 2787 C 276.064 -0.909031 -3.48437 0
M  V30 2788 C 275.917 -2.42044 -3.79123 0
M  V30 2789 C 277.236 -0.418341 -4.38107 0
M  V30 2790 H 274.355 -0.210888 -0.706184 0
M  V30 2791 H 276.997 -1.16522 -1.50075 0
M  V30 2792 H 275.147 -0.407947 -3.86352 0
M  V30 2793 H 276.819 -2.99359 -3.50973 0
M  V30 2794 H 275.062 -2.86758 -3.25503 0
M  V30 2795 H 275.733 -2.6037 -4.86736 0
M  V30 2796 H 278.209 -0.847856 -4.0737 0
M  V30 2797 H 277.085 -0.679981 -5.44672 0
M  V30 2798 H 277.346 0.681642 -4.36814 0
M  V30 2799 N 276.405 1.4127 -0.698611 0
M  V30 2800 C 277.821 1.55241 -0.370462 0
M  V30 2801 C 278.021 1.67351 1.12231 0
M  V30 2802 O 277.077 1.65363 1.90818 0
M  V30 2803 C 278.39 2.78997 -1.12165 0
M  V30 2804 C 279.938 2.92797 -1.1063 0
M  V30 2805 C 280.413 4.19445 -1.8393 0
M  V30 2806 N 281.904 4.26409 -1.80914 0
M  V30 2807 C 282.639 5.23271 -2.34467 0
M  V30 2808 N 282.135 6.26145 -2.96504 0
M  V30 2809 N 283.928 5.15232 -2.24706 0
M  V30 2810 H 276.079 1.31654 -1.66676 0
M  V30 2811 H 278.342 0.635393 -0.703548 0
M  V30 2812 H 278.048 2.76268 -2.17644 0
M  V30 2813 H 277.922 3.70606 -0.702209 0
M  V30 2814 H 280.309 2.95039 -0.0597713 0
M  V30 2815 H 280.39 2.02353 -1.56483 0
M  V30 2816 H 280.034 4.17964 -2.88563 0
M  V30 2817 H 279.964 5.08866 -1.35509 0
M  V30 2818 H 282.455 3.527 -1.35687 0
M  V30 2819 H 282.768 6.96451 -3.34927 0
M  V30 2820 H 281.113 6.26638 -3.00583 0
M  V30 2821 H 284.304 4.33789 -1.7591 0
M  V30 2822 H 284.477 5.90552 -2.66745 0
M  V30 2823 N 277.883 0.443576 1.51229 0
M  V30 2824 C 279.132 -0.122332 2.01329 0
M  V30 2825 C 279.445 -1.43237 1.33201 0
M  V30 2826 O 280.651 -2.0816 1.74304 0
M  V30 2827 C 279.107 -0.268551 3.58897 0
M  V30 2828 C 278.715 1.03142 4.35965 0
M  V30 2829 C 280.459 -0.787894 4.17124 0
M  V30 2830 C 278.366 0.850504 5.85252 0
M  V30 2831 H 277.296 -0.0494929 0.752374 0
M  V30 2832 H 279.947 0.574289 1.74282 0
M  V30 2833 H 278.329 -1.02832 3.82415 0
M  V30 2834 H 279.503 1.80001 4.24189 0
M  V30 2835 H 277.818 1.47977 3.89219 0
M  V30 2836 H 280.415 -0.939841 5.26375 0
M  V30 2837 H 280.758 -1.77201 3.76703 0
M  V30 2838 H 281.291 -0.0862669 3.97706 0
M  V30 2839 H 278.03 1.80718 6.30096 0
M  V30 2840 H 277.55 0.121825 5.99676 0
M  V30 2841 H 279.229 0.506163 6.45017 0
M  V30 2842 N 279.361 -1.56624 0.175154 0
M  V30 2843 C 280.271 -2.21741 -0.766042 0
M  V30 2844 C 281.287 -1.21023 -1.25018 0
M  V30 2845 O 282.463 -1.53697 -1.3015 0
M  V30 2846 C 279.528 -2.84839 -1.97655 0
M  V30 2847 C 278.589 -4.00769 -1.53892 0
M  V30 2848 C 277.822 -4.60849 -2.69173 0
M  V30 2849 O 278.045 -4.19823 -3.86141 0
M  V30 2850 O 276.979 -5.50655 -2.43028 0
M  V30 2851 H 280.805 -3.02738 -0.241585 0
M  V30 2852 H 278.39 -1.49305 -0.053222 0
M  V30 2853 H 280.272 -3.24834 -2.68442 0
M  V30 2854 H 278.947 -2.06836 -2.48999 0
M  V30 2855 H 277.854 -3.65436 -0.80044 0
M  V30 2856 H 279.187 -4.80376 -1.07236 0
M  V30 2857 N 280.839 0.0985539 -1.57292 0
M  V30 2858 C 282.064 0.820196 -1.90493 0
M  V30 2859 C 282.489 1.71658 -0.769094 0
M  V30 2860 O 281.847 1.79133 0.279495 0
M  V30 2861 C 281.895 1.61242 -3.22542 0
M  V30 2862 O 280.999 2.72108 -3.09888 0
M  V30 2863 H 280.34 0.225547 -0.62452 0
M  V30 2864 H 282.87 0.0748159 -2.04463 0
M  V30 2865 H 282.88 1.99737 -3.55766 0
M  V30 2866 H 281.555 0.954535 -4.04798 0
M  V30 2867 H 280.132 2.36667 -2.88172 0
M  V30 2868 N 282.317 1.53212 0.369288 0
M  V30 2869 C 283.542 1.73423 1.1375 0
M  V30 2870 C 283.967 0.460404 1.82378 0
M  V30 2871 O 283.325 -0.585298 1.71592 0
M  V30 2872 C 283.373 2.89769 2.1463 0
M  V30 2873 O 282.477 2.58119 3.21634 0
M  V30 2874 H 281.818 0.576061 0.330227 0
M  V30 2875 H 284.348 2.00083 0.427547 0
M  V30 2876 H 284.358 3.15829 2.58294 0
M  V30 2877 H 283.033 3.8217 1.64071 0
M  V30 2878 H 281.61 2.42864 2.82969 0
M  V30 2879 N 283.795 -0.628877 1.44509 0
M  V30 2880 C 285.206 -1.21054 1.42137 0
M  V30 2881 C 285.557 -1.95715 0.137881 0
M  V30 2882 O 284.682 -2.02554 -0.761645 0
M  V30 2883 C 285.277 -2.20189 2.57493 0
M  V30 2884 C 283.836 -2.73777 2.58308 0
M  V30 2885 C 282.983 -1.48813 2.33987 0
M  V30 2886 H 285.934 -0.41942 1.53057 0
M  V30 2887 H 285.955 -3.02833 2.30375 0
M  V30 2888 H 285.467 -1.6582 3.50892 0
M  V30 2889 H 283.568 -3.32142 1.68856 0
M  V30 2890 H 283.681 -3.19662 3.56865 0
M  V30 2891 H 282.045 -1.77024 1.83124 0
M  V30 2892 H 282.828 -0.963442 3.29504 0
M  V30 2893 N 285.273 -1.31445 -0.869486 0
M  V30 2894 C 286.521 -1.20918 -1.61936 0
M  V30 2895 C 286.842 0.232683 -1.93607 0
M  V30 2896 O 286.112 1.15352 -1.58338 0
M  V30 2897 H 284.692 -0.44454 -0.600328 0
M  V30 2898 H 287.354 -1.64776 -1.0409 0
M  V30 2899 H 286.45 -1.78124 -2.56278 0
M  V30 2900 N 286.751 1.08385 -1.14413 0
M  V30 2901 C 287.698 2.15311 -0.831265 0
M  V30 2902 C 288.668 1.64751 0.211292 0
M  V30 2903 O 289.853 1.90627 0.0811674 0
M  V30 2904 C 286.993 3.43658 -0.315143 0
M  V30 2905 C 286.106 4.08064 -1.41802 0
M  V30 2906 C 285.241 5.24207 -0.859126 0
M  V30 2907 C 284.28 5.80554 -1.93967 0
M  V30 2908 N 283.417 6.88042 -1.39793 0
M  V30 2909 H 288.257 2.41415 -1.74708 0
M  V30 2910 H 285.794 1.18474 -0.871909 0
M  V30 2911 H 287.752 4.172 0.00230884 0
M  V30 2912 H 286.382 3.17839 0.56378 0
M  V30 2913 H 285.434 3.3228 -1.85187 0
M  V30 2914 H 286.746 4.45962 -2.23427 0
M  V30 2915 H 285.9 6.04689 -0.49359 0
M  V30 2916 H 284.639 4.87699 -0.011932 0
M  V30 2917 H 283.644 4.98725 -2.31415 0
M  V30 2918 H 284.869 6.19121 -2.79046 0
M  V30 2919 H 282.815 6.53493 -0.572919 0
M  V30 2920 H 282.732 7.24767 -2.15054 0
M  V30 2921 H 284 7.72255 -1.0603 0
M  V30 2922 N 288.23 0.939286 1.26551 0
M  V30 2923 C 289.16 0.465044 2.28822 0
M  V30 2924 C 290.141 -0.480692 1.63167 0
M  V30 2925 O 291.326 -0.382955 1.90387 0
M  V30 2926 C 288.456 -0.27234 3.46231 0
M  V30 2927 C 287.41 0.58666 4.2396 0
M  V30 2928 C 286.736 -0.280573 5.33963 0
M  V30 2929 C 288.036 1.85704 4.88171 0
M  V30 2930 H 289.73 1.31979 2.68741 0
M  V30 2931 H 287.276 0.636061 1.29191 0
M  V30 2932 H 289.229 -0.615133 4.16886 0
M  V30 2933 H 287.953 -1.16121 3.0526 0
M  V30 2934 H 286.612 0.91232 3.55067 0
M  V30 2935 H 286.26 -1.16874 4.89234 0
M  V30 2936 H 285.96 0.29076 5.8688 0
M  V30 2937 H 287.484 -0.618678 6.07458 0
M  V30 2938 H 288.898 1.58161 5.51052 0
M  V30 2939 H 287.295 2.37279 5.51197 0
M  V30 2940 H 288.365 2.56957 4.11219 0
M  V30 2941 N 289.708 -1.40897 0.706093 0
M  V30 2942 C 290.64 -2.29199 0.00815776 0
M  V30 2943 C 291.653 -1.45336 -0.733582 0
M  V30 2944 O 292.842 -1.68727 -0.582537 0
M  V30 2945 C 289.942 -3.23417 -1.01265 0
M  V30 2946 C 289.115 -4.36089 -0.338387 0
M  V30 2947 C 288.174 -5.10811 -1.26326 0
M  V30 2948 O 287.2 -5.64215 -0.751651 0
M  V30 2949 N 288.402 -5.19269 -2.595 0
M  V30 2950 H 291.167 -2.89738 0.766297 0
M  V30 2951 H 288.728 -1.52164 0.55296 0
M  V30 2952 H 290.72 -3.70276 -1.63334 0
M  V30 2953 H 289.29 -2.64112 -1.67223 0
M  V30 2954 H 288.51 -3.91479 0.462352 0
M  V30 2955 H 289.798 -5.08634 0.130031 0
M  V30 2956 H 289.196 -4.77347 -3.03573 0
M  V30 2957 H 287.753 -5.69667 -3.16737 0
M  V30 2958 N 291.186 -0.45159 -1.50991 0
M  V30 2959 C 292.414 0.108334 -2.06616 0
M  V30 2960 C 292.829 1.35224 -1.31757 0
M  V30 2961 O 292.186 1.78475 -0.381174 0
M  V30 2962 C 292.237 0.41619 -3.59096 0
M  V30 2963 O 291.958 -0.778361 -4.3113 0
M  V30 2964 C 293.459 1.02523 -4.31282 0
M  V30 2965 H 290.679 0.00159995 -0.670998 0
M  V30 2966 H 293.223 -0.634771 -1.94399 0
M  V30 2967 H 291.378 1.10921 -3.71181 0
M  V30 2968 H 291.792 -0.511181 -5.22003 0
M  V30 2969 H 293.266 1.19053 -5.39009 0
M  V30 2970 H 293.743 2.01013 -3.905 0
M  V30 2971 H 294.349 0.371173 -4.23677 0
M  V30 2972 N 292.664 1.56529 -0.183458 0
M  V30 2973 C 293.892 2.01623 0.464285 0
M  V30 2974 C 294.307 1.06366 1.55986 0
M  V30 2975 O 293.664 0.0665398 1.82379 0
M  V30 2976 C 293.715 3.46475 1.03139 0
M  V30 2977 O 293.436 4.38095 -0.0204675 0
M  V30 2978 C 294.937 4.0703 1.75617 0
M  V30 2979 H 292.157 0.660596 0.117704 0
M  V30 2980 H 294.701 2.02451 -0.288751 0
M  V30 2981 H 292.856 3.46383 1.73486 0
M  V30 2982 H 293.27 5.22973 0.399952 0
M  V30 2983 H 294.744 5.10271 2.10542 0
M  V30 2984 H 295.221 3.49819 2.65563 0
M  V30 2985 H 295.827 4.1086 1.09882 0
M  V30 2986 N 294.142 -0.090211 1.57342 0
M  V30 2987 C 295.105 -1.09335 2.01441 0
M  V30 2988 C 296.105 -1.32666 0.908641 0
M  V30 2989 O 297.295 -1.28697 1.174 0
M  V30 2990 C 294.427 -2.44136 2.3793 0
M  V30 2991 H 295.62 -0.713662 2.91285 0
M  V30 2992 H 293.173 -0.335404 1.52659 0
M  V30 2993 H 293.908 -2.86972 1.51055 0
M  V30 2994 H 293.693 -2.28548 3.18603 0
M  V30 2995 H 295.183 -3.16277 2.72688 0
M  V30 2996 N 295.62 -1.53406 -0.361157 0
M  V30 2997 C 296.568 -1.80832 -1.46296 0
M  V30 2998 C 297.562 -0.677699 -1.55253 0
M  V30 2999 O 298.768 -0.860723 -1.58087 0
M  V30 3000 H 295.143 -0.572627 -0.487445 0
M  V30 3001 H 297.114 -2.73045 -1.20371 0
M  V30 3002 C 295.863 -2.01907 -2.8307 0
M  V30 3003 H 295.186 -2.88349 -2.76938 0
M  V30 3004 H 296.626 -2.25072 -3.59331 0
M  V30 3005 C 295.085 -0.799449 -3.27277 0
M  V30 3006 O 295.615 0.00971761 -4.01699 0
M  V30 3007 N 293.821 -0.621637 -2.83873 0
M  V30 3008 H 293.368 -1.28126 -2.23476 0
M  V30 3009 H 293.326 0.19298 -3.13807 0
M  V30 3010 N 297.098 0.621204 -1.44841 0
M  V30 3011 C 298.347 1.37658 -1.47422 0
M  V30 3012 C 298.66 1.95264 -0.114629 0
M  V30 3013 O 299.866 2.71494 -0.0180199 0
M  V30 3014 C 298.322 2.49285 -2.59586 0
M  V30 3015 C 297.93 1.98149 -4.01797 0
M  V30 3016 C 299.674 3.26409 -2.71399 0
M  V30 3017 C 297.581 3.07178 -5.05367 0
M  V30 3018 H 296.511 0.517344 -0.548517 0
M  V30 3019 H 299.162 0.667257 -1.70938 0
M  V30 3020 H 297.544 3.22839 -2.29328 0
M  V30 3021 H 298.718 1.31395 -4.41669 0
M  V30 3022 H 297.033 1.33812 -3.94314 0
M  V30 3023 H 299.63 4.07706 -3.45948 0
M  V30 3024 H 299.973 3.76535 -1.77559 0
M  V30 3025 H 300.506 2.5995 -3.01116 0
M  V30 3026 H 297.245 2.61985 -6.00869 0
M  V30 3027 H 296.765 3.72542 -4.70077 0
M  V30 3028 H 298.444 3.71789 -5.29511 0
M  V30 3029 N 298.576 1.31904 0.862503 0
M  V30 3030 C 299.822 1.22197 1.61851 0
M  V30 3031 C 300.155 -0.217641 1.92977 0
M  V30 3032 O 299.43 -1.15264 1.56666 0
M  V30 3033 C 299.713 2.07378 2.94391 0
M  V30 3034 C 299.566 3.59678 2.70096 0
M  V30 3035 C 300.885 1.92891 3.95577 0
M  V30 3036 H 298.004 0.445255 0.587296 0
M  V30 3037 H 300.646 1.6177 0.99651 0
M  V30 3038 H 298.796 1.73758 3.47477 0
M  V30 3039 H 300.468 4.03472 2.23625 0
M  V30 3040 H 298.711 3.82735 2.04197 0
M  V30 3041 H 299.382 4.14595 3.64438 0
M  V30 3042 H 301.858 2.22327 3.51724 0
M  V30 3043 H 300.734 2.54781 4.86187 0
M  V30 3044 H 300.995 0.894315 4.3296 0
M  V30 3045 N 300.054 -1.07777 1.14986 0
M  V30 3046 C 301.302 -1.79934 0.920235 0
M  V30 3047 C 301.623 -1.86955 -0.554336 0
M  V30 3048 O 300.893 -1.36731 -1.40291 0
M  V30 3049 H 299.473 -0.666424 0.337473 0
M  V30 3050 H 302.135 -1.3027 1.44968 0
M  V30 3051 H 301.231 -2.82539 1.32583 0
M  V30 3052 N 301.532 -0.945985 -1.26051 0
M  V30 3053 C 302.78 -0.594941 -1.93145 0
M  V30 3054 C 303.101 0.86953 -1.7454 0
M  V30 3055 O 302.371 1.61838 -1.10387 0
M  V30 3056 H 300.951 -0.217044 -0.714773 0
M  V30 3057 H 303.613 -1.20235 -1.53393 0
M  V30 3058 H 302.709 -0.816835 -3.01221 0
M  V30 3059 N 303.011 1.40521 -0.713556 0
M  V30 3060 C 304.26 2.00155 -0.249192 0
M  V30 3061 C 304.573 1.57224 1.16362 0
M  V30 3062 O 305.779 2.09542 1.72639 0
M  V30 3063 C 304.235 3.5773 -0.3946 0
M  V30 3064 C 303.843 4.09635 -1.81392 0
M  V30 3065 C 305.587 4.24499 0.00907364 0
M  V30 3066 C 303.494 5.59707 -1.91003 0
M  V30 3067 H 302.424 0.74868 -0.0894114 0
M  V30 3068 H 305.075 1.60784 -0.884352 0
M  V30 3069 H 303.457 3.94792 0.30911 0
M  V30 3070 H 304.631 3.83955 -2.54785 0
M  V30 3071 H 302.946 3.55456 -2.16888 0
M  V30 3072 H 305.543 5.34683 -0.0420404 0
M  V30 3073 H 305.886 4.02824 1.05065 0
M  V30 3074 H 306.419 3.92536 -0.645007 0
M  V30 3075 H 303.158 5.86234 -2.93275 0
M  V30 3076 H 302.678 5.87258 -1.22019 0
M  V30 3077 H 304.357 6.24776 -1.6812 0
M  V30 3078 N 304.489 0.459591 1.5075 0
M  V30 3079 C 305.399 -0.34613 2.32033 0
M  V30 3080 C 306.415 -1.00686 1.41909 0
M  V30 3081 O 307.591 -0.997361 1.7497 0
M  V30 3082 C 304.656 -1.42029 3.16273 0
M  V30 3083 C 303.717 -0.777362 4.22203 0
M  V30 3084 C 302.95 -1.80034 5.02418 0
M  V30 3085 O 303.173 -3.02544 4.83553 0
M  V30 3086 O 302.107 -1.37853 5.85901 0
M  V30 3087 H 305.933 0.318054 3.0203 0
M  V30 3088 H 303.518 0.221663 1.47746 0
M  V30 3089 H 305.4 -2.04275 3.68578 0
M  V30 3090 H 304.075 -2.06815 2.49016 0
M  V30 3091 H 302.982 -0.116256 3.73919 0
M  V30 3092 H 304.315 -0.172634 4.91897 0
M  V30 3093 N 305.967 -1.56429 0.191757 0
M  V30 3094 C 307.197 -2.01574 -0.452928 0
M  V30 3095 C 307.605 -1.07107 -1.55964 0
M  V30 3096 O 306.948 -0.067534 -1.83576 0
M  V30 3097 C 307.01 -3.43121 -1.07278 0
M  V30 3098 C 306.674 -4.56879 -0.105214 0
M  V30 3099 C 307.671 -5.15379 0.684149 0
M  V30 3100 C 305.356 -5.023 0.00489824 0
M  V30 3101 C 307.35 -6.17746 1.57062 0
M  V30 3102 C 305.037 -6.04511 0.894935 0
M  V30 3103 C 306.035 -6.62108 1.67637 0
M  V30 3104 O 305.723 -7.62335 2.55149 0
M  V30 3105 H 305.455 -0.665554 -0.118379 0
M  V30 3106 H 308.009 -2.03245 0.296737 0
M  V30 3107 H 306.239 -3.38425 -1.87097 0
M  V30 3108 H 307.928 -3.72093 -1.62177 0
M  V30 3109 H 308.694 -4.81157 0.609365 0
M  V30 3110 H 304.573 -4.57168 -0.593156 0
M  V30 3111 H 308.117 -6.6263 2.181 0
M  V30 3112 H 304.014 -6.38157 0.970847 0
M  V30 3113 H 304.782 -7.79741 2.48892 0
M  V30 3114 N 307.445 0.0818655 -1.57387 0
M  V30 3115 C 308.67 0.799946 -1.91352 0
M  V30 3116 C 309.095 1.70833 -0.787258 0
M  V30 3117 O 308.453 1.79419 0.26048 0
M  V30 3118 C 308.501 1.57812 -3.24234 0
M  V30 3119 O 307.605 2.68806 -3.12757 0
M  V30 3120 H 306.946 0.21891 -0.626877 0
M  V30 3121 H 309.476 0.0531256 -2.04531 0
M  V30 3122 H 309.486 1.95952 -3.57864 0
M  V30 3123 H 308.161 0.911548 -4.05788 0
M  V30 3124 H 306.738 2.33597 -2.90666 0
M  V30 3125 N 308.923 1.53595 0.353017 0
M  V30 3126 C 310.172 1.69603 1.09168 0
M  V30 3127 C 310.485 0.460925 1.90092 0
M  V30 3128 O 311.691 0.501774 2.66823 0
M  V30 3129 C 310.147 2.99872 1.9901 0
M  V30 3130 C 309.755 4.30687 1.23339 0
M  V30 3131 C 311.499 3.25246 2.72792 0
M  V30 3132 C 309.406 5.52036 2.12156 0
M  V30 3133 H 308.336 0.631966 0.411261 0
M  V30 3134 H 310.987 1.80096 0.351802 0
M  V30 3135 H 309.369 2.83212 2.7678 0
M  V30 3136 H 310.543 4.58019 0.505456 0
M  V30 3137 H 308.858 4.11853 0.613663 0
M  V30 3138 H 311.455 4.13095 3.39495 0
M  V30 3139 H 311.798 2.41846 3.38846 0
M  V30 3140 H 312.331 3.42638 2.021 0
M  V30 3141 H 309.07 6.37951 1.50659 0
M  V30 3142 H 308.59 5.28966 2.82764 0
M  V30 3143 H 310.269 5.87313 2.71427 0
M  V30 3144 N 310.401 -0.613514 1.45168 0
M  V30 3145 C 311.349 -1.74572 1.53712 0
M  V30 3146 C 312.343 -1.64426 0.407505 0
M  V30 3147 O 313.549 -1.70291 0.583176 0
M  V30 3148 H 309.924 -0.576641 0.48269 0
M  V30 3149 H 311.895 -1.64492 2.48968 0
M  V30 3150 C 310.644 -3.12943 1.51532 0
M  V30 3151 H 309.967 -3.21407 2.37776 0
M  V30 3152 H 311.407 -3.9201 1.61569 0
M  V30 3153 C 309.866 -3.36053 0.238798 0
M  V30 3154 O 310.396 -3.95837 -0.6838 0
M  V30 3155 N 308.602 -2.9028 0.136359 0
M  V30 3156 H 308.149 -2.41811 0.887999 0
M  V30 3157 H 308.107 -3.06116 -0.716944 0
M  V30 3158 N 311.879 -1.3236 -0.855495 0
M  V30 3159 C 312.827 -1.2118 -1.9854 0
M  V30 3160 C 313.821 -0.116788 -1.68997 0
M  V30 3161 O 315.027 -0.279657 -1.77814 0
M  V30 3162 H 311.402 -0.375608 -0.651477 0
M  V30 3163 H 313.373 -2.16743 -2.05098 0
M  V30 3164 C 312.122 -0.950849 -3.34446 0
M  V30 3165 H 311.445 -1.78563 -3.57708 0
M  V30 3166 H 312.885 -0.912863 -4.14057 0
M  V30 3167 C 311.344 0.346404 -3.35114 0
M  V30 3168 O 311.874 1.35855 -3.7803 0
M  V30 3169 N 310.08 0.36808 -2.88259 0
M  V30 3170 H 309.627 -0.456102 -2.5353 0
M  V30 3171 H 309.585 1.23591 -2.89089 0
M  V30 3172 N 313.357 1.07166 -1.15556 0
M  V30 3173 C 314.32 2.12589 -0.856644 0
M  V30 3174 C 315.32 1.6015 0.14444 0
M  V30 3175 O 316.51 1.7399 -0.0854163 0
M  V30 3176 C 313.642 3.39753 -0.279405 0
M  V30 3177 H 314.835 2.40539 -1.79112 0
M  V30 3178 H 312.388 1.23086 -0.963298 0
M  V30 3179 H 313.123 3.17447 0.663174 0
M  V30 3180 H 312.908 3.79117 -1.00063 0
M  V30 3181 H 314.398 4.17507 -0.0879113 0
M  V30 3182 N 314.835 0.952656 1.25548 0
M  V30 3183 C 316.06 0.623025 1.97821 0
M  V30 3184 C 316.485 -0.7976 1.70352 0
M  V30 3185 O 315.843 -1.53905 0.958283 0
M  V30 3186 C 315.891 0.885532 3.49558 0
M  V30 3187 O 314.995 -0.0366641 4.12384 0
M  V30 3188 H 314.336 0.237082 0.620232 0
M  V30 3189 H 316.866 1.27871 1.59719 0
M  V30 3190 H 316.876 0.811009 3.99858 0
M  V30 3191 H 315.551 1.92094 3.6888 0
M  V30 3192 H 314.128 0.0898954 3.72792 0
M  V30 3193 N 316.313 -1.40141 0.720998 0
M  V30 3194 C 317.243 -2.33339 0.0867621 0
M  V30 3195 C 318.224 -1.53178 -0.739622 0
M  V30 3196 O 319.409 -1.81625 -0.687449 0
M  V30 3197 C 316.539 -3.37194 -0.831728 0
M  V30 3198 C 315.493 -4.27857 -0.110558 0
M  V30 3199 C 314.819 -5.22294 -1.14513 0
M  V30 3200 C 316.119 -5.11872 1.0385 0
M  V30 3201 H 317.813 -2.86626 0.865219 0
M  V30 3202 H 315.359 -1.37814 0.417516 0
M  V30 3203 H 317.312 -4.01335 -1.28485 0
M  V30 3204 H 316.036 -2.82314 -1.64214 0
M  V30 3205 H 314.695 -3.65176 0.322797 0
M  V30 3206 H 314.343 -4.63717 -1.94874 0
M  V30 3207 H 314.043 -5.83797 -0.667446 0
M  V30 3208 H 315.567 -5.89312 -1.59824 0
M  V30 3209 H 316.981 -5.69436 0.664482 0
M  V30 3210 H 315.378 -5.82445 1.4449 0
M  V30 3211 H 316.448 -4.4753 1.86668 0
M  V30 3212 N 317.792 -0.46758 -1.50504 0
M  V30 3213 C 319.032 0.0874114 -2.04213 0
M  V30 3214 C 319.396 1.37301 -1.34211 0
M  V30 3215 O 320.597 2.01015 -1.78456 0
M  V30 3216 C 318.868 0.270571 -3.56374 0
M  V30 3217 S 320.427 0.784623 -4.31728 0
M  V30 3218 H 317.245 0.0176153 -0.710782 0
M  V30 3219 H 319.847 -0.633915 -1.84937 0
M  V30 3220 H 318.551 -0.670942 -4.04878 0
M  V30 3221 H 318.082 1.01811 -3.79997 0
M  V30 3222 H 320.097 2.05849 -4.51487 0
M  V30 3223 N 319.27 1.56325 -0.20005 0
M  V30 3224 C 320.495 2.02548 0.44597 0
M  V30 3225 C 320.92 1.07922 1.5406 0
M  V30 3226 O 320.278 0.0635775 1.81188 0
M  V30 3227 C 320.326 3.47175 0.974761 0
M  V30 3228 O 319.43 3.55671 2.08739 0
M  V30 3229 H 318.771 0.655862 0.103638 0
M  V30 3230 H 321.301 2.02201 -0.312381 0
M  V30 3231 H 321.311 3.87067 1.2901 0
M  V30 3232 H 319.986 4.15538 0.17347 0
M  V30 3233 H 318.563 3.27657 1.78032 0
M  V30 3234 N 320.748 -0.0735177 1.57428 0
M  V30 3235 C 321.994 -0.774145 1.87443 0
M  V30 3236 C 322.327 -1.77311 0.792103 0
M  V30 3237 O 321.602 -1.93492 -0.197793 0
M  V30 3238 C 321.885 -1.48367 3.28115 0
M  V30 3239 C 321.738 -0.501227 4.46999 0
M  V30 3240 C 323.057 -2.429 3.66998 0
M  V30 3241 H 320.176 -0.279971 0.681752 0
M  V30 3242 H 322.818 -0.0373616 1.89963 0
M  V30 3243 H 320.968 -2.11171 3.26097 0
M  V30 3244 H 322.64 0.121468 4.6114 0
M  V30 3245 H 320.883 0.183593 4.33411 0
M  V30 3246 H 321.554 -1.03526 5.42205 0
M  V30 3247 H 324.03 -1.90175 3.70098 0
M  V30 3248 H 322.906 -2.89549 4.66318 0
M  V30 3249 H 323.167 -3.27628 2.96837 0
M  V30 3250 N 322.226 -1.5378 -0.344866 0
M  V30 3251 C 323.474 -1.70625 -1.08311 0
M  V30 3252 C 323.795 -0.471447 -1.89215 0
M  V30 3253 O 323.065 0.514616 -1.8902 0
M  V30 3254 H 321.645 -0.629058 -0.402859 0
M  V30 3255 H 324.307 -1.9103 -0.386459 0
M  V30 3256 H 323.403 -2.57656 -1.76124 0
M  V30 3257 N 323.704 0.605807 -1.45491 0
M  V30 3258 C 324.951 1.36476 -1.49601 0
M  V30 3259 C 325.279 1.94007 -0.138452 0
M  V30 3260 O 324.534 1.75638 0.863114 0
M  V30 3261 C 324.833 2.53012 -2.52428 0
M  V30 3262 C 324.499 2.13617 -3.97087 0
M  V30 3263 C 323.161 2.02587 -4.36477 0
M  V30 3264 C 325.513 1.82899 -4.88055 0
M  V30 3265 C 322.841 1.59064 -5.64726 0
M  V30 3266 C 325.193 1.40861 -6.16718 0
M  V30 3267 C 323.857 1.28391 -6.55036 0
M  V30 3268 H 323.127 0.499402 -0.547429 0
M  V30 3269 H 325.774 0.684546 -1.78847 0
M  V30 3270 H 324.079 3.26379 -2.16758 0
M  V30 3271 H 325.776 3.1124 -2.52845 0
M  V30 3272 H 322.366 2.23129 -3.65939 0
M  V30 3273 H 326.55 1.90317 -4.58359 0
M  V30 3274 H 321.806 1.48034 -5.93208 0
M  V30 3275 H 325.98 1.16138 -6.86648 0
M  V30 3276 H 323.607 0.944403 -7.54311 0
M  V30 3277 N 325.182 1.32811 0.848464 0
M  V30 3278 C 326.407 1.26882 1.6406 0
M  V30 3279 C 326.832 -0.15913 1.87426 0
M  V30 3280 O 326.19 -1.11258 1.43148 0
M  V30 3281 C 326.238 2.03997 2.97351 0
M  V30 3282 O 325.342 1.39201 3.88197 0
M  V30 3283 H 324.683 0.436982 0.499943 0
M  V30 3284 H 327.213 1.75224 1.0563 0
M  V30 3285 H 327.223 2.14403 3.47124 0
M  V30 3286 H 325.898 3.0783 2.79666 0
M  V30 3287 H 324.475 1.37381 3.46671 0
M  V30 3288 N 326.66 -1.06551 1.16123 0
M  V30 3289 C 327.906 -1.79567 0.94252 0
M  V30 3290 C 328.239 -1.86869 -0.528547 0
M  V30 3291 O 327.514 -1.35838 -1.39206 0
M  V30 3292 C 327.797 -3.24195 1.56747 0
M  V30 3293 C 327.65 -3.24989 3.10969 0
M  V30 3294 C 328.969 -4.21678 1.25998 0
M  V30 3295 H 326.088 -0.651883 0.343828 0
M  V30 3296 H 328.73 -1.2463 1.43413 0
M  V30 3297 H 326.88 -3.71107 1.14942 0
M  V30 3298 H 328.552 -2.86258 3.61737 0
M  V30 3299 H 326.795 -2.63716 3.44436 0
M  V30 3300 H 327.466 -4.27005 3.49815 0
M  V30 3301 H 329.942 -3.83196 1.62174 0
M  V30 3302 H 328.818 -5.21146 1.7233 0
M  V30 3303 H 329.079 -4.4174 0.178367 0
M  V30 3304 N 328.138 -0.959301 -1.25041 0
M  V30 3305 C 329.366 -0.633949 -1.96948 0
M  V30 3306 C 329.781 0.794916 -1.7125 0
M  V30 3307 O 329.138 1.53231 -0.991287 0
M  V30 3308 C 329.189 -0.888805 -3.50403 0
M  V30 3309 O 328.91 -2.26149 -3.75218 0
M  V30 3310 C 330.411 -0.576482 -4.39536 0
M  V30 3311 H 327.631 -0.237263 -0.627652 0
M  V30 3312 H 330.175 -1.28495 -1.59089 0
M  V30 3313 H 328.33 -0.284145 -3.86357 0
M  V30 3314 H 328.744 -2.33514 -4.6965 0
M  V30 3315 H 330.218 -0.805314 -5.46094 0
M  V30 3316 H 330.695 0.489075 -4.36468 0
M  V30 3317 H 331.301 -1.16067 -4.09156 0
M  V30 3318 N 329.616 1.39756 -0.72842 0
M  V30 3319 C 331.032 1.5442 -0.403308 0
M  V30 3320 C 331.232 1.69694 1.08656 0
M  V30 3321 O 330.288 1.69373 1.87267 0
M  V30 3322 C 331.601 2.76555 -1.18058 0
M  V30 3323 C 333.149 2.90384 -1.16815 0
M  V30 3324 C 333.624 4.15449 -1.92785 0
M  V30 3325 N 335.115 4.22475 -1.89918 0
M  V30 3326 C 335.85 5.1818 -2.45514 0
M  V30 3327 N 335.346 6.19714 -3.09719 0
M  V30 3328 N 337.139 5.1035 -2.35584 0
M  V30 3329 H 329.29 1.28089 -1.69431 0
M  V30 3330 H 331.553 0.620327 -0.716867 0
M  V30 3331 H 331.259 2.7159 -2.23455 0
M  V30 3332 H 331.133 3.69033 -0.780662 0
M  V30 3333 H 333.52 2.94846 -0.12234 0
M  V30 3334 H 333.601 1.98988 -1.6074 0
M  V30 3335 H 333.245 4.11749 -2.97364 0
M  V30 3336 H 333.175 5.05877 -1.46272 0
M  V30 3337 H 335.666 3.49743 -1.43138 0
M  V30 3338 H 335.979 6.8919 -3.49625 0
M  V30 3339 H 334.324 6.20121 -3.13807 0
M  V30 3340 H 337.515 4.2996 -1.85072 0
M  V30 3341 H 337.688 5.84761 -2.79211 0
M  V30 3342 N 331.094 0.475555 1.50254 0
M  V30 3343 C 332.342 -0.077738 2.0195 0
M  V30 3344 C 332.663 -1.39813 1.35931 0
M  V30 3345 O 331.933 -1.89249 0.506123 0
M  V30 3346 H 330.513 -0.031719 0.746326 0
M  V30 3347 H 333.175 0.626995 1.84539 0
M  V30 3348 H 332.271 -0.225995 3.11281 0
M  V30 3349 N 332.573 -1.56217 0.208337 0
M  V30 3350 C 333.536 -2.18455 -0.693557 0
M  V30 3351 C 334.536 -1.14268 -1.13135 0
M  V30 3352 O 335.726 -1.39577 -1.0423 0
M  V30 3353 C 332.858 -2.79727 -1.94848 0
M  V30 3354 H 334.051 -2.99519 -0.15114 0
M  V30 3355 H 331.604 -1.56245 -0.041287 0
M  V30 3356 H 332.339 -2.02497 -2.53309 0
M  V30 3357 H 332.124 -3.56009 -1.64316 0
M  V30 3358 H 333.614 -3.27475 -2.59133 0
M  V30 3359 N 334.051 0.0651679 -1.57465 0
M  V30 3360 C 335.279 0.775808 -1.91804 0
M  V30 3361 C 335.694 1.70782 -0.804916 0
M  V30 3362 O 335.051 1.81153 0.221311 0
M  V30 3363 C 335.102 1.56381 -3.25925 0
M  V30 3364 O 334.823 0.669248 -4.32958 0
M  V30 3365 C 336.324 2.37485 -3.7432 0
M  V30 3366 H 333.544 0.2202 -0.63384 0
M  V30 3367 H 336.088 0.0334587 -2.04473 0
M  V30 3368 H 334.243 2.25837 -3.14764 0
M  V30 3369 H 334.657 1.21801 -5.10162 0
M  V30 3370 H 336.131 2.88223 -4.70778 0
M  V30 3371 H 336.608 3.17307 -3.03666 0
M  V30 3372 H 337.214 1.73173 -3.88447 0
M  V30 3373 N 335.529 1.53961 0.336706 0
M  V30 3374 C 336.476 1.82428 1.41381 0
M  V30 3375 C 337.446 0.670444 1.51968 0
M  V30 3376 O 338.631 0.915565 1.67398 0
M  V30 3377 C 335.771 2.04564 2.77934 0
M  V30 3378 C 334.884 3.32267 2.76084 0
M  V30 3379 C 334.019 3.44434 4.04399 0
M  V30 3380 C 333.058 4.66061 3.96804 0
M  V30 3381 N 332.195 4.75224 5.16823 0
M  V30 3382 H 337.035 2.74324 1.16405 0
M  V30 3383 H 334.572 1.35869 0.563752 0
M  V30 3384 H 336.53 2.15388 3.57301 0
M  V30 3385 H 335.16 1.15974 3.01247 0
M  V30 3386 H 334.212 3.3025 1.88784 0
M  V30 3387 H 335.524 4.21733 2.66351 0
M  V30 3388 H 334.678 3.54728 4.92192 0
M  V30 3389 H 333.417 2.53037 4.16921 0
M  V30 3390 H 332.422 4.55838 3.07396 0
M  V30 3391 H 333.647 5.58829 3.85858 0
M  V30 3392 H 331.593 3.86739 5.29876 0
M  V30 3393 H 331.51 5.58636 5.09374 0
M  V30 3394 H 332.778 4.89835 6.06367 0
M  V30 3395 N 337.007 -0.598083 1.45811 0
M  V30 3396 C 338.255 -1.35413 1.50026 0
M  V30 3397 C 338.576 -1.94444 0.147177 0
M  V30 3398 O 337.846 -1.77701 -0.824571 0
M  V30 3399 H 336.426 -0.502727 0.552517 0
M  V30 3400 H 339.088 -0.701606 1.81834 0
M  V30 3401 H 338.184 -2.16871 2.2444 0
M  V30 3402 N 338.485 -1.33259 -0.841409 0
M  V30 3403 C 339.732 -1.24572 -1.5965 0
M  V30 3404 C 340.06 0.189137 -1.93578 0
M  V30 3405 O 339.315 1.14566 -1.5866 0
M  V30 3406 C 339.614 -2.06381 -2.9179 0
M  V30 3407 C 339.28 -3.556 -2.77235 0
M  V30 3408 C 337.942 -3.96282 -2.72973 0
M  V30 3409 C 340.294 -4.50433 -2.62221 0
M  V30 3410 C 337.622 -5.30017 -2.51592 0
M  V30 3411 C 339.974 -5.84327 -2.42374 0
M  V30 3412 C 338.638 -6.24194 -2.36512 0
M  V30 3413 H 337.908 -0.455842 -0.5842 0
M  V30 3414 H 340.555 -1.6482 -0.975016 0
M  V30 3415 H 338.86 -1.58903 -3.5813 0
M  V30 3416 H 340.557 -1.97019 -3.49263 0
M  V30 3417 H 337.147 -3.23298 -2.81384 0
M  V30 3418 H 341.331 -4.19914 -2.64549 0
M  V30 3419 H 336.587 -5.59947 -2.45499 0
M  V30 3420 H 340.761 -6.57414 -2.29739 0
M  V30 3421 H 338.388 -7.27759 -2.19706 0
M  V30 3422 N 339.963 1.05934 -1.16686 0
M  V30 3423 C 341.209 1.79065 -0.95203 0
M  V30 3424 C 341.542 1.87147 0.518629 0
M  V30 3425 O 340.817 1.36574 1.38484 0
M  V30 3426 C 341.1 3.23359 -1.58464 0
M  V30 3427 C 340.953 3.23336 -3.12689 0
M  V30 3428 C 342.272 4.21004 -1.28232 0
M  V30 3429 H 339.391 0.65005 -0.34728 0
M  V30 3430 H 342.033 1.23868 -1.44072 0
M  V30 3431 H 340.183 3.70493 -1.16908 0
M  V30 3432 H 341.855 2.84336 -3.6325 0
M  V30 3433 H 340.098 2.61886 -3.4583 0
M  V30 3434 H 340.769 4.25144 -3.52075 0
M  V30 3435 H 343.245 3.8233 -1.64203 0
M  V30 3436 H 342.121 5.20225 -1.75092 0
M  V30 3437 H 342.382 4.41639 -0.201791 0
M  V30 3438 N 341.441 0.965919 1.2453 0
M  V30 3439 C 342.669 0.644385 1.96609 0
M  V30 3440 C 343.084 -0.785823 1.71669 0
M  V30 3441 O 342.441 -1.52703 0.999399 0
M  V30 3442 C 342.492 0.907375 3.49927 0
M  V30 3443 O 342.213 2.28136 3.74013 0
M  V30 3444 C 343.714 0.599784 4.39224 0
M  V30 3445 H 340.934 0.240588 0.626385 0
M  V30 3446 H 343.478 1.29337 1.58405 0
M  V30 3447 H 341.633 0.304631 3.862 0
M  V30 3448 H 342.047 2.36002 4.68405 0
M  V30 3449 H 343.521 0.834263 5.45659 0
M  V30 3450 H 343.998 -0.465921 4.36722 0
M  V30 3451 H 344.604 1.18235 4.08535 0
M  V30 3452 N 342.919 -1.39368 0.735821 0
M  V30 3453 C 343.882 -2.2896 0.104874 0
M  V30 3454 C 344.882 -1.46347 -0.666274 0
M  V30 3455 O 346.072 -1.67014 -0.49517 0
M  V30 3456 C 343.204 -3.29857 -0.860656 0
M  V30 3457 H 344.397 -2.86259 0.894205 0
M  V30 3458 H 341.95 -1.48029 0.501704 0
M  V30 3459 H 342.685 -2.77615 -1.67631 0
M  V30 3460 H 342.47 -3.9087 -0.310327 0
M  V30 3461 H 343.96 -3.96893 -1.29867 0
M  V30 3462 N 344.397 -0.483516 -1.5 0
M  V30 3463 C 345.645 0.067027 -2.01989 0
M  V30 3464 C 345.966 1.3909 -1.36671 0
M  V30 3465 O 345.236 1.88978 -0.516152 0
M  V30 3466 H 343.816 0.0277606 -0.746484 0
M  V30 3467 H 346.478 -0.636773 -1.84204 0
M  V30 3468 H 345.574 0.209484 -3.11396 0
M  V30 3469 N 345.875 1.56104 -0.216619 0
M  V30 3470 C 346.825 2.16703 0.708798 0
M  V30 3471 C 347.809 1.11392 1.16106 0
M  V30 3472 O 349.001 1.37395 1.11587 0
M  V30 3473 C 346.13 2.84666 1.91886 0
M  V30 3474 C 345.216 3.97195 1.48651 0
M  V30 3475 N 345.607 4.99959 0.766434 0
M  V30 3476 C 343.905 4.09193 1.77418 0
M  V30 3477 C 344.606 5.79126 0.546659 0
M  V30 3478 N 343.582 5.32315 1.10188 0
M  V30 3479 H 347.384 2.93516 0.150162 0
M  V30 3480 H 344.898 1.6239 -0.0176768 0
M  V30 3481 H 346.895 3.26486 2.59253 0
M  V30 3482 H 345.555 2.09347 2.48202 0
M  V30 3483 H 346.566 5.16197 0.419634 0
M  V30 3484 H 343.243 3.45021 2.35088 0
M  V30 3485 H 344.633 6.71895 -0.026103 0
M  V30 3486 N 347.353 -0.0568162 1.57498 0
M  V30 3487 C 348.593 -0.758273 1.89815 0
M  V30 3488 C 348.957 -1.73978 0.812132 0
M  V30 3489 O 350.158 -2.48744 1.01881 0
M  V30 3490 C 348.429 -1.43465 3.27342 0
M  V30 3491 S 349.988 -2.1691 3.81439 0
M  V30 3492 H 346.806 -0.251836 0.664906 0
M  V30 3493 H 349.408 -0.0137997 1.95495 0
M  V30 3494 H 348.112 -0.706693 4.0427 0
M  V30 3495 H 347.643 -2.21825 3.24896 0
M  V30 3496 H 349.658 -3.43658 3.5793 0
M  V30 3497 N 348.832 -1.54138 -0.328536 0
M  V30 3498 C 350.08 -1.71765 -1.06496 0
M  V30 3499 C 350.401 -0.49149 -1.88704 0
M  V30 3500 O 349.671 0.494539 -1.89555 0
M  V30 3501 H 348.251 -0.633295 -0.396164 0
M  V30 3502 H 350.913 -1.91429 -0.366176 0
M  V30 3503 H 350.009 -2.5951 -1.73381 0
M  V30 3504 N 350.31 0.590341 -1.46126 0
M  V30 3505 C 351.538 1.37504 -1.54597 0
M  V30 3506 C 351.953 1.87897 -0.184447 0
M  V30 3507 O 351.31 1.63192 0.816984 0
M  V30 3508 C 351.361 2.56779 -2.54454 0
M  V30 3509 O 351.082 2.08476 -3.85317 0
M  V30 3510 C 352.583 3.49427 -2.72792 0
M  V30 3511 H 349.803 0.420325 -0.523037 0
M  V30 3512 H 352.347 0.718383 -1.91467 0
M  V30 3513 H 350.502 3.1845 -2.20609 0
M  V30 3514 H 350.916 2.86097 -4.396 0
M  V30 3515 H 352.39 4.29619 -3.466 0
M  V30 3516 H 352.867 4.00876 -1.79429 0
M  V30 3517 H 353.473 2.93598 -3.07702 0
M  V30 3518 N 351.788 1.33704 0.83433 0
M  V30 3519 C 353.034 1.25603 1.59222 0
M  V30 3520 C 353.367 -0.176659 1.93395 0
M  V30 3521 O 352.642 -1.11915 1.59076 0
M  V30 3522 C 352.925 2.13576 2.89926 0
M  V30 3523 C 352.778 3.65326 2.62406 0
M  V30 3524 C 354.097 2.01238 3.91397 0
M  V30 3525 H 351.216 0.457613 0.577719 0
M  V30 3526 H 353.858 1.63848 0.961972 0
M  V30 3527 H 352.008 1.8109 3.43713 0
M  V30 3528 H 353.68 4.08124 2.15017 0
M  V30 3529 H 351.923 3.8698 1.96033 0
M  V30 3530 H 352.594 4.22232 3.55562 0
M  V30 3531 H 355.07 2.29738 3.46929 0
M  V30 3532 H 353.946 2.65036 4.80673 0
M  V30 3533 H 354.207 0.985951 4.30966 0
M  V30 3534 N 353.266 -1.05314 1.17247 0
M  V30 3535 C 354.214 -2.15137 0.884238 0
M  V30 3536 C 355.208 -1.68729 -0.15063 0
M  V30 3537 O 356.414 -1.8 -0.00366673 0
M  V30 3538 H 352.789 -0.702471 0.2684 0
M  V30 3539 H 354.76 -2.36652 1.81764 0
M  V30 3540 C 353.509 -3.45243 0.412659 0
M  V30 3541 H 352.832 -3.81352 1.20043 0
M  V30 3542 H 354.272 -4.23263 0.249858 0
M  V30 3543 C 352.731 -3.25487 -0.86948 0
M  V30 3544 O 353.261 -3.51938 -1.93655 0
M  V30 3545 N 351.467 -2.78875 -0.817147 0
M  V30 3546 H 351.014 -2.57549 0.0514211 0
M  V30 3547 H 350.972 -2.66036 -1.67547 0
M  V30 3548 N 354.744 -0.972509 -1.24016 0
M  V30 3549 C 355.707 -0.511403 -2.23422 0
M  V30 3550 C 356.707 0.394679 -1.55881 0
M  V30 3551 O 357.897 0.189469 -1.73167 0
M  V30 3552 C 355.029 0.258769 -3.39916 0
M  V30 3553 H 356.222 -1.39024 -2.6573 0
M  V30 3554 H 353.775 -0.757585 -1.36713 0
M  V30 3555 H 354.51 1.1545 -3.03054 0
M  V30 3556 H 354.295 -0.391522 -3.9014 0
M  V30 3557 H 355.785 0.570244 -4.13688 0
M  V30 3558 N 356.222 1.38976 -0.743202 0
M  V30 3559 C 357.45 2.04636 -0.30525 0
M  V30 3560 C 357.865 1.56044 1.06281 0
M  V30 3561 O 357.222 0.728921 1.67311 0
M  V30 3562 C 357.273 3.60193 -0.307177 0
M  V30 3563 O 356.994 4.06998 -1.62124 0
M  V30 3564 C 358.495 4.4306 0.145928 0
M  V30 3565 H 355.715 0.65788 -0.132041 0
M  V30 3566 H 358.259 1.77866 -1.00915 0
M  V30 3567 H 356.414 3.85835 0.347898 0
M  V30 3568 H 356.828 5.01371 -1.54036 0
M  V30 3569 H 358.302 5.51921 0.0934183 0
M  V30 3570 H 358.779 4.22706 1.19231 0
M  V30 3571 H 359.385 4.22584 -0.479886 0
M  V30 3572 N 357.7 0.491464 1.49741 0
M  V30 3573 C 358.663 -0.280906 2.27472 0
M  V30 3574 C 359.663 -0.902454 1.33088 0
M  V30 3575 O 360.853 -0.768465 1.56334 0
M  V30 3576 C 357.985 -1.40209 3.10732 0
M  V30 3577 H 359.178 0.401056 2.97206 0
M  V30 3578 H 356.731 0.246131 1.5435 0
M  V30 3579 H 357.466 -2.11849 2.45541 0
M  V30 3580 H 357.251 -0.961969 3.80117 0
M  V30 3581 H 358.741 -1.9464 3.69466 0
M  V30 3582 N 359.178 -1.55987 0.224894 0
M  V30 3583 C 360.594 -1.59066 -0.130426 0
M  V30 3584 C 360.794 -1.24176 -1.5869 0
M  V30 3585 O 359.85 -0.978592 -2.32766 0
M  V30 3586 C 361.163 -3.00042 0.198883 0
M  V30 3587 C 362.711 -3.1268 0.141391 0
M  V30 3588 C 363.186 -4.55839 0.444422 0
M  V30 3589 N 364.677 -4.6152 0.394115 0
M  V30 3590 C 365.412 -5.70231 0.602038 0
M  V30 3591 N 364.908 -6.87291 0.871914 0
M  V30 3592 N 366.701 -5.59555 0.534245 0
M  V30 3593 H 358.852 -1.76941 1.17497 0
M  V30 3594 H 361.115 -0.822604 0.471197 0
M  V30 3595 H 360.821 -3.30234 1.2099 0
M  V30 3596 H 360.695 -3.74075 -0.484535 0
M  V30 3597 H 363.082 -2.82283 -0.860265 0
M  V30 3598 H 363.163 -2.40969 0.858335 0
M  V30 3599 H 362.807 -4.86954 1.44353 0
M  V30 3600 H 362.737 -5.2578 -0.293752 0
M  V30 3601 H 365.228 -3.77405 0.193356 0
M  V30 3602 H 365.541 -7.66058 1.01858 0
M  V30 3603 H 363.886 -6.89028 0.909145 0
M  V30 3604 H 367.077 -4.6698 0.323612 0
M  V30 3605 H 367.25 -6.44211 0.699693 0
M  V30 3606 N 360.656 0.0484629 -1.57525 0
M  V30 3607 C 361.905 0.742065 -1.87553 0
M  V30 3608 C 362.218 1.77545 -0.820802 0
M  V30 3609 O 363.424 2.52027 -1.00967 0
M  V30 3610 C 361.88 1.37081 -3.32771 0
M  V30 3611 C 361.488 0.374786 -4.4643 0
M  V30 3612 C 363.232 2.04542 -3.71972 0
M  V30 3613 C 361.139 1.01077 -5.82698 0
M  V30 3614 H 360.069 0.280903 -0.699721 0
M  V30 3615 H 362.72 -0.00411877 -1.835 0
M  V30 3616 H 361.102 2.16605 -3.31509 0
M  V30 3617 H 362.276 -0.392331 -4.59127 0
M  V30 3618 H 360.591 -0.196653 -4.15935 0
M  V30 3619 H 363.188 2.52943 -4.71088 0
M  V30 3620 H 363.531 2.85515 -3.02964 0
M  V30 3621 H 364.064 1.31819 -3.75325 0
M  V30 3622 H 360.803 0.240878 -6.55057 0
M  V30 3623 H 360.323 1.74819 -5.73758 0
M  V30 3624 H 362.002 1.52383 -6.28799 0
M  V30 3625 N 362.134 1.5431 0.320358 0
M  V30 3626 C 363.382 1.72327 1.05583 0
M  V30 3627 C 363.703 0.50149 1.88441 0
M  V30 3628 O 362.973 -0.48448 1.89815 0
M  V30 3629 H 361.553 0.635387 0.3928 0
M  V30 3630 H 364.215 1.91621 0.356019 0
M  V30 3631 H 363.311 2.60426 1.72003 0
M  V30 3632 N 363.613 -0.582584 1.46437 0
M  V30 3633 C 364.861 -1.33814 1.51453 0
M  V30 3634 C 365.182 -1.94277 0.167792 0
M  V30 3635 O 364.452 -1.78566 -0.805677 0
M  V30 3636 H 363.032 -0.496838 0.557818 0
M  V30 3637 H 365.694 -0.682281 1.82568 0
M  V30 3638 H 364.79 -2.14479 2.26728 0
M  V30 3639 N 365.091 -1.34144 -0.827227 0
M  V30 3640 C 366.054 -1.25264 -1.91942 0
M  V30 3641 C 367.054 -0.168866 -1.59911 0
M  V30 3642 O 368.244 -0.421198 -1.69031 0
M  V30 3643 C 365.376 -0.932952 -3.27885 0
M  V30 3644 H 366.569 -2.22357 -2.0124 0
M  V30 3645 H 364.122 -1.1837 -1.0207 0
M  V30 3646 H 364.857 0.0349917 -3.24281 0
M  V30 3647 H 364.642 -1.71682 -3.52516 0
M  V30 3648 H 366.132 -0.895874 -4.07877 0
M  V30 3649 N 366.569 1.04691 -1.17803 0
M  V30 3650 C 367.815 1.78045 -0.970969 0
M  V30 3651 C 368.148 1.87686 0.498751 0
M  V30 3652 O 367.423 1.38035 1.37027 0
M  V30 3653 C 367.706 3.2166 -1.61884 0
M  V30 3654 C 367.559 3.20001 -3.161 0
M  V30 3655 C 368.878 4.1962 -1.3269 0
M  V30 3656 H 365.997 0.64633 -0.354155 0
M  V30 3657 H 368.639 1.22333 -1.45378 0
M  V30 3658 H 366.789 3.69232 -1.20831 0
M  V30 3659 H 368.461 2.80467 -3.66246 0
M  V30 3660 H 366.704 2.58203 -3.48588 0
M  V30 3661 H 367.375 4.21386 -3.56564 0
M  V30 3662 H 369.851 3.80567 -1.68249 0
M  V30 3663 H 368.727 5.18339 -1.80599 0
M  V30 3664 H 368.988 4.414 -0.248622 0
M  V30 3665 N 368.047 0.979072 1.23499 0
M  V30 3666 C 369.293 0.648178 1.92163 0
M  V30 3667 C 369.626 -0.816049 1.76222 0
M  V30 3668 O 368.901 -1.58849 1.12237 0
M  V30 3669 C 369.184 1.03773 3.44824 0
M  V30 3670 C 369.037 2.55948 3.69879 0
M  V30 3671 C 370.356 0.580653 4.36253 0
M  V30 3672 H 367.475 0.236952 0.69787 0
M  V30 3673 H 370.117 1.22012 1.45647 0
M  V30 3674 H 368.267 0.551058 3.84572 0
M  V30 3675 H 369.939 3.12179 3.3962 0
M  V30 3676 H 368.182 2.98641 3.14636 0
M  V30 3677 H 368.853 2.78255 4.76737 0
M  V30 3678 H 371.329 0.998465 4.03943 0
M  V30 3679 H 370.205 0.881663 5.41773 0
M  V30 3680 H 370.466 -0.519052 4.39042 0
M  V30 3681 N 369.525 -1.3858 0.750561 0
M  V30 3682 C 370.773 -1.99789 0.30477 0
M  V30 3683 C 371.094 -1.59874 -1.11649 0
M  V30 3684 O 370.364 -0.85417 -1.76297 0
M  V30 3685 H 368.944 -0.738902 0.109694 0
M  V30 3686 H 371.606 -1.69391 0.963983 0
M  V30 3687 H 370.702 -3.09952 0.365499 0
M  V30 3688 N 371.003 -0.499398 -1.49478 0
M  V30 3689 C 372.231 0.0425456 -2.06856 0
M  V30 3690 C 372.646 1.30964 -1.35992 0
M  V30 3691 O 372.003 1.77172 -0.437762 0
M  V30 3692 C 372.054 0.301735 -3.60239 0
M  V30 3693 O 371.775 -0.915127 -4.28436 0
M  V30 3694 C 373.276 0.887499 -4.34325 0
M  V30 3695 H 370.496 -0.0197482 -0.670709 0
M  V30 3696 H 373.04 -0.696297 -1.92281 0
M  V30 3697 H 371.195 0.990556 -3.74522 0
M  V30 3698 H 371.609 -0.676993 -5.20113 0
M  V30 3699 H 373.083 1.01845 -5.42523 0
M  V30 3700 H 373.56 1.88488 -3.96698 0
M  V30 3701 H 374.166 0.236196 -4.24644 0
M  V30 3702 N 372.481 1.55866 -0.233164 0
M  V30 3703 C 373.728 1.98603 0.395374 0
M  V30 3704 C 374.056 1.12105 1.58942 0
M  V30 3705 O 373.311 0.168656 1.94972 0
M  V30 3706 C 373.61 3.46856 0.861724 0
M  V30 3707 C 373.276 4.50348 -0.223066 0
M  V30 3708 C 371.938 4.78371 -0.521038 0
M  V30 3709 C 374.29 5.12355 -0.956124 0
M  V30 3710 C 371.618 5.6568 -1.55638 0
M  V30 3711 C 373.97 6.00786 -1.98089 0
M  V30 3712 C 372.634 6.27148 -2.28565 0
M  V30 3713 H 371.904 0.726739 0.144677 0
M  V30 3714 H 374.551 1.88491 -0.338114 0
M  V30 3715 H 372.856 3.5423 1.67418 0
M  V30 3716 H 374.553 3.77302 1.35809 0
M  V30 3717 H 371.143 4.28596 0.0193234 0
M  V30 3718 H 375.327 4.90765 -0.739166 0
M  V30 3719 H 370.583 5.84365 -1.798 0
M  V30 3720 H 374.757 6.4788 -2.55391 0
M  V30 3721 H 372.384 6.94597 -3.08932 0
M  V30 3722 N 373.959 -0.0401083 1.57549 0
M  V30 3723 C 374.922 -1.02871 2.04817 0
M  V30 3724 C 375.922 -1.29708 0.950388 0
M  V30 3725 O 377.112 -1.24897 1.21435 0
M  V30 3726 C 374.244 -2.36443 2.45576 0
M  V30 3727 H 375.437 -0.620631 2.93408 0
M  V30 3728 H 372.99 -0.286667 1.53649 0
M  V30 3729 H 373.725 -2.82021 1.60108 0
M  V30 3730 H 373.51 -2.18296 3.25713 0
M  V30 3731 H 375 -3.07441 2.82612 0
M  V30 3732 N 375.437 -1.54477 -0.31217 0
M  V30 3733 C 376.4 -1.83923 -1.36766 0
M  V30 3734 C 377.4 -0.711563 -1.44199 0
M  V30 3735 O 378.59 -0.979866 -1.44029 0
M  V30 3736 C 375.722 -2.0095 -2.75376 0
M  V30 3737 H 376.915 -2.78239 -1.11906 0
M  V30 3738 H 374.468 -1.46369 -0.548257 0
M  V30 3739 H 375.203 -1.08883 -3.05475 0
M  V30 3740 H 374.988 -2.83018 -2.71373 0
M  V30 3741 H 376.478 -2.2514 -3.51713 0
M  V30 3742 N 376.915 0.57481 -1.46744 0
M  V30 3743 C 378.331 0.898981 -1.31873 0
M  V30 3744 C 378.531 1.99313 -0.29605 0
M  V30 3745 O 377.587 2.50728 0.298621 0
M  V30 3746 C 378.9 1.30886 -2.7072 0
M  V30 3747 C 380.448 1.42127 -2.78871 0
M  V30 3748 C 380.923 1.86478 -4.18318 0
M  V30 3749 N 382.414 1.93658 -4.20774 0
M  V30 3750 C 383.149 2.29267 -5.2557 0
M  V30 3751 N 382.645 2.63612 -6.40688 0
M  V30 3752 N 384.438 2.29889 -5.1294 0
M  V30 3753 H 376.589 -0.147839 -2.11885 0
M  V30 3754 H 378.852 -0.00347013 -0.947994 0
M  V30 3755 H 378.558 0.578853 -3.46904 0
M  V30 3756 H 378.432 2.26874 -3.01343 0
M  V30 3757 H 380.819 2.14213 -2.0297 0
M  V30 3758 H 380.9 0.443705 -2.51922 0
M  V30 3759 H 380.544 1.14968 -4.94717 0
M  V30 3760 H 380.474 2.85207 -4.42679 0
M  V30 3761 H 382.965 1.69574 -3.37718 0
M  V30 3762 H 383.278 2.89759 -7.16421 0
M  V30 3763 H 381.623 2.61232 -6.44036 0
M  V30 3764 H 384.814 2.02485 -4.22039 0
M  V30 3765 H 384.987 2.57312 -5.94722 0
M  V30 3766 N 378.394 1.34581 0.820102 0
M  V30 3767 C 379.64 1.27285 1.57881 0
M  V30 3768 C 379.973 -0.156137 1.93571 0
M  V30 3769 O 379.248 -1.10222 1.60254 0
M  V30 3770 C 379.531 2.16639 2.87645 0
M  V30 3771 C 379.384 3.68088 2.58517 0
M  V30 3772 C 380.703 2.05378 3.8924 0
M  V30 3773 H 377.822 0.463714 0.572833 0
M  V30 3774 H 380.464 1.64859 0.944539 0
M  V30 3775 H 378.614 1.84725 3.41773 0
M  V30 3776 H 380.286 4.10382 2.10676 0
M  V30 3777 H 378.529 3.89038 1.91917 0
M  V30 3778 H 379.2 4.2598 3.51063 0
M  V30 3779 H 381.676 2.33404 3.44473 0
M  V30 3780 H 380.552 2.7012 4.77835 0
M  V30 3781 H 380.813 1.0316 4.29896 0
M  V30 3782 N 379.872 -1.04064 1.18357 0
M  V30 3783 C 381.119 -1.77265 0.978947 0
M  V30 3784 C 381.447 -1.88189 -0.491428 0
M  V30 3785 O 380.702 -1.38653 -1.38108 0
M  V30 3786 C 381.001 -3.20634 1.57888 0
M  V30 3787 C 380.667 -3.29743 3.07539 0
M  V30 3788 C 379.329 -3.31937 3.48384 0
M  V30 3789 C 381.681 -3.29841 4.03552 0
M  V30 3790 C 379.009 -3.3187 4.83818 0
M  V30 3791 C 381.361 -3.31313 5.38901 0
M  V30 3792 C 380.025 -3.31799 5.79194 0
M  V30 3793 H 379.295 -0.648659 0.358222 0
M  V30 3794 H 381.942 -1.22225 1.47422 0
M  V30 3795 H 380.247 -3.78675 1.00561 0
M  V30 3796 H 381.944 -3.75917 1.39598 0
M  V30 3797 H 378.534 -3.28757 2.74986 0
M  V30 3798 H 382.718 -3.27337 3.73047 0
M  V30 3799 H 377.974 -3.30562 5.14333 0
M  V30 3800 H 382.148 -3.30338 6.13066 0
M  V30 3801 H 379.775 -3.315 6.84114 0
M  V30 3802 N 381.35 -0.985608 -1.22978 0
M  V30 3803 C 382.761 -0.693593 -1.73338 0
M  V30 3804 C 383.112 0.789935 -1.79595 0
M  V30 3805 O 382.237 1.61771 -1.43733 0
M  V30 3806 C 382.832 -1.25235 -3.14804 0
M  V30 3807 C 381.391 -1.00987 -3.626 0
M  V30 3808 C 380.538 -1.37695 -2.40698 0
M  V30 3809 H 383.489 -1.15884 -1.08428 0
M  V30 3810 H 383.51 -0.627329 -3.75293 0
M  V30 3811 H 383.022 -2.33209 -3.10218 0
M  V30 3812 H 381.123 0.0535565 -3.72562 0
M  V30 3813 H 381.236 -1.66812 -4.49122 0
M  V30 3814 H 379.6 -0.795459 -2.4196 0
M  V30 3815 H 380.383 -2.46657 -2.38779 0
M  V30 3816 N 382.828 1.3818 -0.7579 0
M  V30 3817 C 384.076 1.99624 -0.315361 0
M  V30 3818 C 384.397 1.60464 1.10799 0
M  V30 3819 O 383.667 0.863507 1.75842 0
M  V30 3820 H 382.247 0.73831 -0.113611 0
M  V30 3821 H 384.909 1.68878 -0.972952 0
M  V30 3822 H 384.005 3.09754 -0.381931 0
M  V30 3823 N 384.306 0.507319 1.49211 0
M  V30 3824 C 385.254 -0.281364 2.30892 0
M  V30 3825 C 386.248 -0.95687 1.39787 0
M  V30 3826 O 387.454 -0.883838 1.56807 0
M  V30 3827 H 383.829 -0.109597 0.743971 0
M  V30 3828 H 385.8 0.42744 2.95323 0
M  V30 3829 C 384.549 -1.32918 3.21291 0
M  V30 3830 H 383.872 -0.818799 3.91326 0
M  V30 3831 H 385.312 -1.85288 3.81372 0
M  V30 3832 C 383.771 -2.35074 2.41333 0
M  V30 3833 O 384.301 -3.4108 2.12197 0
M  V30 3834 N 382.507 -2.07705 2.03241 0
M  V30 3835 H 382.054 -1.2152 2.27136 0
M  V30 3836 H 382.012 -2.76283 1.50051 0
M  V30 3837 N 385.784 -1.5574 0.241426 0
M  V30 3838 C 387.061 -1.90704 -0.434881 0
M  V30 3839 C 387.441 -1.16145 -1.76277 0
M  V30 3840 O 386.789 -0.277152 -2.26813 0
M  V30 3841 C 386.999 -3.43657 -0.608343 0
M  V30 3842 C 388.347 -4.14806 -0.906725 0
M  V30 3843 O 389.371 -3.49366 -0.694408 0
M  V30 3844 O 388.23 -5.30548 -1.31075 0
M  V30 3845 H 385.324 -0.793592 -0.23268 0
M  V30 3846 H 387.87 -1.67288 0.285086 0
M  V30 3847 H 386.642 -3.89927 0.327505 0
M  V30 3848 H 386.265 -3.72918 -1.37906 0
M  V30 3849 N 387.262 0.0317525 -1.57568 0
M  V30 3850 C 388.678 0.38735 -1.54828 0
M  V30 3851 C 388.878 1.7677 -0.967187 0
M  V30 3852 O 387.934 2.45581 -0.587063 0
M  V30 3853 C 389.247 0.291667 -2.99282 0
M  V30 3854 C 390.795 0.368946 -3.10818 0
M  V30 3855 C 391.27 0.302741 -4.56998 0
M  V30 3856 N 392.761 0.361617 -4.61786 0
M  V30 3857 C 393.496 0.333238 -5.72431 0
M  V30 3858 N 392.992 0.257308 -6.92322 0
M  V30 3859 N 394.785 0.382769 -5.60795 0
M  V30 3860 H 386.936 -0.871609 -1.93692 0
M  V30 3861 H 389.199 -0.331161 -0.888277 0
M  V30 3862 H 388.905 -0.656794 -3.45513 0
M  V30 3863 H 388.779 1.08638 -3.61217 0
M  V30 3864 H 391.166 1.30784 -2.64536 0
M  V30 3865 H 391.247 -0.455066 -2.5172 0
M  V30 3866 H 390.891 -0.632473 -5.03947 0
M  V30 3867 H 390.821 1.14482 -5.14005 0
M  V30 3868 H 393.312 0.422923 -3.75526 0
M  V30 3869 H 393.625 0.24068 -7.72425 0
M  V30 3870 H 391.97 0.223396 -6.94641 0
M  V30 3871 H 395.161 0.44006 -4.66027 0
M  V30 3872 H 395.334 0.357184 -6.47015 0
M  V30 3873 N 388.74 1.54641 0.303973 0
M  V30 3874 C 389.703 1.84646 1.35789 0
M  V30 3875 C 390.703 0.7192 1.4382 0
M  V30 3876 O 391.893 0.987491 1.43507 0
M  V30 3877 C 389.025 2.02407 2.74307 0
M  V30 3878 H 390.218 2.78829 1.10429 0
M  V30 3879 H 387.771 1.46658 0.540487 0
M  V30 3880 H 388.506 1.10502 3.04893 0
M  V30 3881 H 388.291 2.84453 2.69868 0
M  V30 3882 H 389.781 2.27002 3.50514 0
M  V30 3883 N 390.218 -0.567019 1.47046 0
M  V30 3884 C 391.464 -1.32434 1.54379 0
M  V30 3885 C 391.819 -1.91365 0.199276 0
M  V30 3886 O 391.112 -1.74378 -0.793915 0
M  V30 3887 C 391.306 -2.4623 2.59047 0
M  V30 3888 C 391.135 -1.98448 4.03545 0
M  V30 3889 C 389.905 -1.82741 4.71098 0
M  V30 3890 C 392.103 -1.53477 4.90866 0
M  V30 3891 N 390.085 -1.29196 6.00151 0
M  V30 3892 C 391.456 -1.1163 6.09868 0
M  V30 3893 C 393.511 -1.41438 4.77388 0
M  V30 3894 C 392.214 -0.589425 7.16881 0
M  V30 3895 C 394.24 -0.901528 5.84488 0
M  V30 3896 C 393.602 -0.492932 7.02673 0
M  V30 3897 H 389.701 -0.477005 0.61967 0
M  V30 3898 H 392.285 -0.643856 1.83746 0
M  V30 3899 H 390.456 -3.11821 2.31564 0
M  V30 3900 H 392.188 -3.13213 2.56281 0
M  V30 3901 H 388.943 -2.05162 4.26855 0
M  V30 3902 H 389.367 -1.0454 6.6888 0
M  V30 3903 H 394.009 -1.71643 3.86392 0
M  V30 3904 H 391.727 -0.274994 8.07632 0
M  V30 3905 H 395.313 -0.812071 5.76105 0
M  V30 3906 H 394.193 -0.102227 7.84133 0
M  V30 3907 N 391.696 -1.35014 -0.812953 0
M  V30 3908 C 392.942 -1.2812 -1.57204 0
M  V30 3909 C 393.275 0.145869 -1.93651 0
M  V30 3910 O 392.55 1.0937 -1.60836 0
M  V30 3911 C 392.833 -2.18162 -2.86492 0
M  V30 3912 C 392.686 -3.69454 -2.56561 0
M  V30 3913 C 394.005 -2.07439 -3.88145 0
M  V30 3914 H 391.124 -0.466746 -0.570366 0
M  V30 3915 H 393.766 -1.65357 -0.935783 0
M  V30 3916 H 391.916 -1.86535 -3.40789 0
M  V30 3917 H 393.588 -4.11493 -2.08497 0
M  V30 3918 H 391.831 -3.9005 -1.89851 0
M  V30 3919 H 392.502 -4.27835 -3.48799 0
M  V30 3920 H 394.978 -2.35228 -3.4323 0
M  V30 3921 H 393.854 -2.7265 -4.76396 0
M  V30 3922 H 394.115 -1.05439 -4.29343 0
M  V30 3923 N 393.175 1.03435 -1.18907 0
M  V30 3924 C 394.4 1.80919 -1.01406 0
M  V30 3925 C 394.825 1.83055 0.432721 0
M  V30 3926 O 394.183 1.25252 1.31079 0
M  V30 3927 C 394.231 3.24091 -1.58105 0
M  V30 3928 O 393.335 4.04434 -0.806669 0
M  V30 3929 H 392.676 0.558709 -0.358803 0
M  V30 3930 H 395.206 1.30223 -1.57807 0
M  V30 3931 H 395.216 3.74853 -1.61087 0
M  V30 3932 H 393.891 3.21851 -2.6341 0
M  V30 3933 H 392.468 3.63091 -0.849666 0
M  V30 3934 N 394.653 0.992116 1.22453 0
M  V30 3935 C 395.583 0.561677 2.26644 0
M  V30 3936 C 396.564 -0.411055 1.65059 0
M  V30 3937 O 397.749 -0.301861 1.9184 0
M  V30 3938 C 394.879 -0.125247 3.47074 0
M  V30 3939 C 393.833 0.765948 4.21091 0
M  V30 3940 C 393.159 -0.0538484 5.34673 0
M  V30 3941 C 394.459 2.06242 4.79856 0
M  V30 3942 H 396.153 1.43259 2.62902 0
M  V30 3943 H 393.699 0.690283 1.26377 0
M  V30 3944 H 395.652 -0.437764 4.1912 0
M  V30 3945 H 394.376 -1.03069 3.0991 0
M  V30 3946 H 393.035 1.0621 3.50878 0
M  V30 3947 H 392.683 -0.960188 4.9375 0
M  V30 3948 H 392.383 0.539415 5.85119 0
M  V30 3949 H 393.907 -0.360477 6.09535 0
M  V30 3950 H 395.321 1.8139 5.43848 0
M  V30 3951 H 393.718 2.60444 5.40638 0
M  V30 3952 H 394.788 2.74167 3.99951 0
M  V30 3953 N 396.131 -1.37776 0.765217 0
M  V30 3954 C 397.359 -2.04124 0.337767 0
M  V30 3955 C 397.774 -1.57715 -1.03785 0
M  V30 3956 O 397.131 -0.755447 -1.6613 0
M  V30 3957 C 397.182 -3.59658 0.364442 0
M  V30 3958 O 396.903 -4.04367 1.68579 0
M  V30 3959 C 398.404 -4.43236 -0.0754221 0
M  V30 3960 H 395.624 -0.655696 0.142491 0
M  V30 3961 H 398.168 -1.76238 1.03732 0
M  V30 3962 H 396.323 -3.86339 -0.286471 0
M  V30 3963 H 396.737 -4.98857 1.61993 0
M  V30 3964 H 398.211 -5.52 -0.00560067 0
M  V30 3965 H 398.688 -4.2455 -1.12491 0
M  V30 3966 H 399.294 -4.21767 0.547055 0
M  V30 3967 N 397.609 -0.515225 -1.4894 0
M  V30 3968 C 398.834 0.022727 -2.07388 0
M  V30 3969 C 399.259 1.2876 -1.37122 0
M  V30 3970 O 398.617 1.76067 -0.432431 0
M  V30 3971 C 398.665 0.244869 -3.59768 0
M  V30 3972 O 397.769 1.31667 -3.90817 0
M  V30 3973 H 397.11 -0.0325506 -0.663202 0
M  V30 3974 H 399.64 -0.718918 -1.91553 0
M  V30 3975 H 399.65 0.47205 -4.0526 0
M  V30 3976 H 398.325 -0.679194 -4.10317 0
M  V30 3977 H 396.902 1.07331 -3.5712 0
M  V30 3978 N 399.087 1.5561 -0.249682 0
M  V30 3979 C 400.05 2.20217 0.635394 0
M  V30 3980 C 401.05 1.17227 1.10066 0
M  V30 3981 O 402.24 1.42292 1.00492 0
M  V30 3982 C 399.372 2.84794 1.87363 0
M  V30 3983 H 400.565 2.99814 0.0716752 0
M  V30 3984 H 398.118 1.563 -0.000153234 0
M  V30 3985 H 398.853 2.09142 2.47851 0
M  V30 3986 H 398.638 3.60241 1.5482 0
M  V30 3987 H 400.128 3.3423 2.5036 0
M  V30 3988 N 400.565 -0.0233959 1.57583 0
M  V30 3989 C 401.497 -1.04994 2.03737 0
M  V30 3990 C 402.51 -1.32125 0.951152 0
M  V30 3991 O 403.699 -1.29512 1.22837 0
M  V30 3992 C 400.799 -2.39026 2.40249 0
M  V30 3993 C 399.972 -2.31171 3.7132 0
M  V30 3994 C 399.031 -3.47698 3.94959 0
M  V30 3995 O 398.057 -3.26937 4.65941 0
M  V30 3996 N 399.259 -4.6976 3.41037 0
M  V30 3997 H 402.024 -0.656507 2.92421 0
M  V30 3998 H 399.585 -0.211235 1.60516 0
M  V30 3999 H 401.577 -3.15712 2.53196 0
M  V30 4000 H 400.147 -2.70194 1.57207 0
M  V30 4001 H 399.367 -1.39547 3.68674 0
M  V30 4002 H 400.655 -2.23071 4.57293 0
M  V30 4003 H 400.053 -4.89528 2.83512 0
M  V30 4004 H 398.61 -5.43791 3.59353 0
M  V30 4005 N 402.043 -1.548 -0.295768 0
M  V30 4006 C 403.271 -1.78327 -1.04914 0
M  V30 4007 C 403.686 -0.545316 -1.80753 0
M  V30 4008 O 403.043 0.485013 -1.75937 0
M  V30 4009 C 403.094 -2.99418 -2.02561 0
M  V30 4010 O 402.815 -4.18431 -1.29798 0
M  V30 4011 C 404.316 -3.35375 -2.89895 0
M  V30 4012 H 401.536 -0.594618 -0.310918 0
M  V30 4013 H 404.08 -2.01763 -0.333454 0
M  V30 4014 H 402.235 -2.78175 -2.69624 0
M  V30 4015 H 402.649 -4.86736 -1.95419 0
M  V30 4016 H 404.123 -4.23332 -3.54251 0
M  V30 4017 H 404.6 -2.53761 -3.58472 0
M  V30 4018 H 405.206 -3.58796 -2.28355 0
M  V30 4019 N 403.521 0.559213 -1.47345 0
M  V30 4020 C 404.451 1.67622 -1.62558 0
M  V30 4021 C 405.432 1.63331 -0.475087 0
M  V30 4022 O 406.617 1.80983 -0.704182 0
M  V30 4023 C 403.747 3.0626 -1.63774 0
M  V30 4024 C 402.701 3.25397 -2.7803 0
M  V30 4025 C 402.027 4.64801 -2.64318 0
M  V30 4026 C 403.327 3.10965 -4.19641 0
M  V30 4027 H 405.021 1.55146 -2.56067 0
M  V30 4028 H 402.567 0.744961 -1.23233 0
M  V30 4029 H 404.52 3.84247 -1.73008 0
M  V30 4030 H 403.244 3.1969 -0.66825 0
M  V30 4031 H 401.903 2.49817 -2.68304 0
M  V30 4032 H 401.551 4.75028 -1.65401 0
M  V30 4033 H 401.251 4.78555 -3.40968 0
M  V30 4034 H 402.775 5.44926 -2.75478 0
M  V30 4035 H 404.189 3.78772 -4.30354 0
M  V30 4036 H 402.586 3.36229 -4.97062 0
M  V30 4037 H 403.656 2.07736 -4.38148 0
M  V30 4038 N 404.999 1.35443 0.805782 0
M  V30 4039 C 405.929 1.31095 1.93226 0
M  V30 4040 C 406.91 0.185244 1.69088 0
M  V30 4041 O 408.095 0.380332 1.90439 0
M  V30 4042 C 405.225 1.08299 3.29983 0
M  V30 4043 C 404.179 2.17519 3.68605 0
M  V30 4044 C 403.505 1.79887 5.03532 0
M  V30 4045 C 404.805 3.5949 3.78898 0
M  V30 4046 H 406.499 2.25352 1.97122 0
M  V30 4047 H 404.045 1.0848 0.946996 0
M  V30 4048 H 405.998 1.03897 4.08391 0
M  V30 4049 H 404.722 0.104885 3.26432 0
M  V30 4050 H 403.381 2.2102 2.92482 0
M  V30 4051 H 403.029 0.80693 4.96485 0
M  V30 4052 H 402.729 2.53001 5.30344 0
M  V30 4053 H 404.253 1.77011 5.84379 0
M  V30 4054 H 405.667 3.58307 4.47536 0
M  V30 4055 H 404.064 4.31371 4.1718 0
M  V30 4056 H 405.134 3.95584 2.80431 0
M  V30 4057 N 406.477 -1.02803 1.19454 0
M  V30 4058 C 407.888 -1.57667 0.999899 0
M  V30 4059 C 408.239 -1.91041 -0.446956 0
M  V30 4060 O 407.364 -1.70978 -1.32648 0
M  V30 4061 C 407.959 -2.86477 1.80877 0
M  V30 4062 C 406.518 -3.37911 1.65811 0
M  V30 4063 C 405.665 -2.11343 1.79526 0
M  V30 4064 H 408.616 -0.853214 1.33813 0
M  V30 4065 H 408.637 -3.57408 1.30536 0
M  V30 4066 H 408.149 -2.62155 2.86175 0
M  V30 4067 H 406.25 -3.67218 0.63102 0
M  V30 4068 H 406.363 -4.10885 2.46395 0
M  V30 4069 H 404.727 -2.23254 1.22596 0
M  V30 4070 H 405.51 -1.89461 2.86285 0
M  V30 4071 N 407.956 -0.998596 -1.21925 0
M  V30 4072 C 409.372 -0.710303 -1.42923 0
M  V30 4073 C 409.572 0.716933 -1.88314 0
M  V30 4074 O 408.628 1.48712 -2.04062 0
M  V30 4075 C 409.941 -1.72072 -2.466 0
M  V30 4076 C 411.489 -1.73681 -2.60392 0
M  V30 4077 C 411.964 -2.73601 -3.67296 0
M  V30 4078 N 413.455 -2.7223 -3.7476 0
M  V30 4079 C 414.19 -3.46206 -4.57087 0
M  V30 4080 N 413.686 -4.29802 -5.43362 0
M  V30 4081 N 415.479 -3.34886 -4.51451 0
M  V30 4082 H 407.63 -1.92028 -0.9077 0
M  V30 4083 H 409.893 -0.828487 -0.460775 0
M  V30 4084 H 409.599 -2.74231 -2.20206 0
M  V30 4085 H 409.473 -1.51818 -3.45299 0
M  V30 4086 H 411.86 -0.722173 -2.86127 0
M  V30 4087 H 411.941 -1.98005 -1.61949 0
M  V30 4088 H 411.585 -3.75217 -3.42307 0
M  V30 4089 H 411.515 -2.46545 -4.65321 0
M  V30 4090 H 414.006 -2.11576 -3.1312 0
M  V30 4091 H 414.319 -4.83061 -6.03218 0
M  V30 4092 H 412.664 -4.33887 -5.42925 0
M  V30 4093 H 415.855 -2.69015 -3.83078 0
M  V30 4094 H 416.028 -3.92796 -5.15379 0
M  V30 4095 N 409.434 1.37368 -0.772513 0
M  V30 4096 C 410.68 1.99969 -0.337681 0
M  V30 4097 C 411.013 1.61184 1.08321 0
M  V30 4098 O 410.288 0.858395 1.74533 0
M  V30 4099 C 410.571 3.56858 -0.482121 0
M  V30 4100 C 410.424 4.0555 -1.94549 0
M  V30 4101 C 411.743 4.39955 0.113143 0
M  V30 4102 H 408.862 0.726464 -0.124171 0
M  V30 4103 H 411.504 1.63034 -0.975699 0
M  V30 4104 H 409.654 3.88452 0.0610361 0
M  V30 4105 H 411.326 3.84518 -2.54841 0
M  V30 4106 H 409.569 3.57715 -2.45403 0
M  V30 4107 H 410.24 5.14587 -1.9976 0
M  V30 4108 H 412.716 4.14623 -0.35031 0
M  V30 4109 H 411.592 5.48897 -0.0180514 0
M  V30 4110 H 411.853 4.25403 1.20354 0
M  V30 4111 N 410.912 0.523116 1.48665 0
M  V30 4112 C 411.875 -0.232592 2.28017 0
M  V30 4113 C 412.875 -0.874021 1.34972 0
M  V30 4114 O 414.065 -0.735132 1.57929 0
M  V30 4115 C 411.197 -1.33586 3.13636 0
M  V30 4116 H 412.39 0.464008 2.96289 0
M  V30 4117 H 409.943 0.278816 1.53793 0
M  V30 4118 H 410.678 -2.06593 2.4998 0
M  V30 4119 H 410.463 -0.881125 3.82071 0
M  V30 4120 H 411.953 -1.86759 3.73511 0
M  V30 4121 N 412.39 -1.55475 0.257931 0
M  V30 4122 C 413.338 -2.23244 -0.653076 0
M  V30 4123 C 414.332 -1.22366 -1.17144 0
M  V30 4124 O 415.538 -1.40347 -1.12706 0
M  V30 4125 H 411.913 -0.716247 -0.229117 0
M  V30 4126 H 413.884 -2.98343 -0.0584788 0
M  V30 4127 C 412.633 -2.95401 -1.83395 0
M  V30 4128 H 411.956 -3.72802 -1.44424 0
M  V30 4129 H 413.396 -3.46165 -2.44838 0
M  V30 4130 C 411.855 -1.99895 -2.71189 0
M  V30 4131 O 412.385 -1.53909 -3.71046 0
M  V30 4132 N 410.591 -1.6676 -2.3799 0
M  V30 4133 H 410.138 -2.04352 -1.56837 0
M  V30 4134 H 410.096 -1.03127 -2.97005 0
M  V30 4135 N 413.868 0.0150385 -1.57593 0
M  V30 4136 C 415.116 0.701613 -1.8953 0
M  V30 4137 C 415.437 1.75139 -0.857396 0
M  V30 4138 O 414.707 1.95607 0.107194 0
M  V30 4139 H 413.287 0.26213 -0.699498 0
M  V30 4140 H 415.949 -0.0223304 -1.94887 0
M  V30 4141 H 415.045 1.18236 -2.88837 0
M  V30 4142 N 415.346 1.54954 0.287554 0
M  V30 4143 C 416.571 1.79209 1.04397 0
M  V30 4144 C 416.996 0.556431 1.79682 0
M  V30 4145 O 416.354 -0.493518 1.74454 0
M  V30 4146 C 416.402 3.00739 1.98969 0
M  V30 4147 O 415.506 2.74805 3.075 0
M  V30 4148 H 414.847 0.592755 0.299227 0
M  V30 4149 H 417.377 2.02068 0.320886 0
M  V30 4150 H 417.387 3.29077 2.4119 0
M  V30 4151 H 416.062 3.90329 1.43582 0
M  V30 4152 H 414.639 2.57523 2.69697 0
M  V30 4153 N 416.824 -0.551391 1.4764 0
M  V30 4154 C 418.049 -1.33837 1.58437 0
M  V30 4155 C 418.474 -1.866 0.237063 0
M  V30 4156 O 417.832 -1.6328 -0.787994 0
M  V30 4157 C 417.88 -2.48014 2.61766 0
M  V30 4158 O 416.984 -3.50419 2.1744 0
M  V30 4159 H 416.325 -0.397299 0.532024 0
M  V30 4160 H 418.855 -0.665759 1.93465 0
M  V30 4161 H 418.865 -2.94503 2.82369 0
M  V30 4162 H 417.54 -2.08969 3.5959 0
M  V30 4163 H 416.117 -3.10196 2.06961 0
M  V30 4164 N 418.302 -1.35869 -0.798587 0
M  V30 4165 C 419.549 -1.29588 -1.55606 0
M  V30 4166 C 419.877 0.127456 -1.94082 0
M  V30 4167 O 419.132 1.09461 -1.62225 0
M  V30 4168 C 419.431 -2.1556 -2.85077 0
M  V30 4169 C 419.097 -3.6424 -2.65781 0
M  V30 4170 C 417.759 -4.04766 -2.60227 0
M  V30 4171 C 420.111 -4.58547 -2.47758 0
M  V30 4172 C 417.439 -5.37753 -2.34603 0
M  V30 4173 C 419.791 -5.91742 -2.23662 0
M  V30 4174 C 418.455 -6.31402 -2.16534 0
M  V30 4175 H 417.725 -0.474197 -0.569402 0
M  V30 4176 H 420.372 -1.67839 -0.922086 0
M  V30 4177 H 418.677 -1.70216 -3.52893 0
M  V30 4178 H 420.374 -2.08031 -3.42818 0
M  V30 4179 H 416.964 -3.32086 -2.70956 0
M  V30 4180 H 421.148 -4.28117 -2.51056 0
M  V30 4181 H 416.404 -5.67474 -2.2756 0
M  V30 4182 H 420.578 -6.6439 -2.08708 0
M  V30 4183 H 418.205 -7.34381 -1.96441 0
M  V30 4184 N 419.78 1.02168 -1.19998 0
M  V30 4185 C 421.026 1.75945 -1.00852 0
M  V30 4186 C 421.359 1.88702 0.458828 0
M  V30 4187 O 420.634 1.40911 1.34069 0
M  V30 4188 C 420.917 3.18154 -1.68671 0
M  V30 4189 C 420.77 3.13224 -3.22817 0
M  V30 4190 C 422.089 4.16711 -1.41561 0
M  V30 4191 H 419.208 0.638673 -0.367785 0
M  V30 4192 H 421.85 1.19222 -1.4794 0
M  V30 4193 H 420 3.66586 -1.28636 0
M  V30 4194 H 421.672 2.72635 -3.72112 0
M  V30 4195 H 419.915 2.50751 -3.53986 0
M  V30 4196 H 420.586 4.13728 -3.65422 0
M  V30 4197 H 423.062 3.76913 -1.76284 0
M  V30 4198 H 421.938 5.14391 -1.91553 0
M  V30 4199 H 422.199 4.40774 -0.342193 0
M  V30 4200 N 421.258 1.00505 1.21394 0
M  V30 4201 C 422.486 0.706609 1.9446 0
M  V30 4202 C 422.901 -0.73081 1.74082 0
M  V30 4203 O 422.258 -1.49446 1.04747 0
M  V30 4204 C 422.309 1.01824 3.46863 0
M  V30 4205 O 422.03 2.39919 3.66566 0
M  V30 4206 C 423.531 0.739216 4.37093 0
M  V30 4207 H 420.751 0.260394 0.618414 0
M  V30 4208 H 423.295 1.34311 1.54211 0
M  V30 4209 H 421.45 0.427343 3.85036 0
M  V30 4210 H 421.864 2.50784 4.6066 0
M  V30 4211 H 423.338 1.00744 5.42729 0
M  V30 4212 H 423.815 -0.326746 4.37983 0
M  V30 4213 H 424.421 1.31173 4.04566 0
M  V30 4214 N 422.737 -1.36956 0.779787 0
M  V30 4215 C 423.983 -1.99787 0.348281 0
M  V30 4216 C 424.316 -1.61756 -1.07465 0
M  V30 4217 O 423.591 -0.867639 -1.74075 0
M  V30 4218 C 423.874 -3.56597 0.50104 0
M  V30 4219 C 423.727 -4.04513 1.96697 0
M  V30 4220 C 425.046 -4.40008 -0.0898097 0
M  V30 4221 H 422.165 -0.725796 0.128022 0
M  V30 4222 H 424.807 -1.62514 0.984331 0
M  V30 4223 H 422.957 -3.88479 -0.0404347 0
M  V30 4224 H 424.629 -3.83161 2.56876 0
M  V30 4225 H 422.872 -3.56408 2.47297 0
M  V30 4226 H 423.543 -5.1352 2.02486 0
M  V30 4227 H 426.019 -4.14431 0.372293 0
M  V30 4228 H 424.895 -5.4888 0.0471605 0
M  V30 4229 H 425.156 -4.26035 -1.18096 0
M  V30 4230 N 424.215 -0.530993 -1.48385 0
M  V30 4231 C 425.631 -0.188919 -1.58478 0
M  V30 4232 C 425.831 1.30786 -1.53288 0
M  V30 4233 O 424.887 2.08619 -1.42248 0
M  V30 4234 C 426.2 -0.792343 -2.90073 0
M  V30 4235 C 427.748 -0.76117 -3.03604 0
M  V30 4236 C 428.223 -1.34319 -4.37861 0
M  V30 4237 N 429.714 -1.3052 -4.44431 0
M  V30 4238 C 430.449 -1.72543 -5.46824 0
M  V30 4239 N 429.945 -2.22299 -6.56167 0
M  V30 4240 N 431.738 -1.63773 -5.37712 0
M  V30 4241 H 423.889 -1.50377 -1.50002 0
M  V30 4242 H 426.152 -0.625559 -0.712306 0
M  V30 4243 H 425.858 -1.84323 -2.99529 0
M  V30 4244 H 425.732 -0.270026 -3.76232 0
M  V30 4245 H 428.119 0.280957 -2.93759 0
M  V30 4246 H 428.2 -1.32097 -2.19053 0
M  V30 4247 H 427.844 -2.38425 -4.4846 0
M  V30 4248 H 427.774 -0.759064 -5.21101 0
M  V30 4249 H 430.265 -0.940973 -3.65997 0
M  V30 4250 H 430.578 -2.52356 -7.30436 0
M  V30 4251 H 428.923 -2.26293 -6.57127 0
M  V30 4252 H 432.114 -1.24698 -4.51185 0
M  V30 4253 H 432.287 -1.96844 -6.17379 0
M  V30 4254 N 425.693 1.55336 -0.266172 0
M  V30 4255 C 426.941 1.99003 0.35246 0
M  V30 4256 C 427.262 1.15591 1.57047 0
M  V30 4257 O 426.532 0.243268 1.94384 0
M  V30 4258 H 425.112 0.735025 0.133217 0
M  V30 4259 H 427.774 1.91367 -0.369434 0
M  V30 4260 H 426.87 3.05289 0.648453 0
M  V30 4261 N 427.171 -0.0066808 1.57599 0
M  V30 4262 C 428.396 -0.707738 1.94951 0
M  V30 4263 C 428.821 -1.66882 0.867868 0
M  V30 4264 O 428.179 -1.80457 -0.17458 0
M  V30 4265 C 428.227 -1.42162 3.31394 0
M  V30 4266 O 427.331 -2.53578 3.25226 0
M  V30 4267 H 426.672 -0.188752 0.636607 0
M  V30 4268 H 429.202 0.0445193 2.04552 0
M  V30 4269 H 429.212 -1.78655 3.66806 0
M  V30 4270 H 427.887 -0.716903 4.09675 0
M  V30 4271 H 426.464 -2.19463 3.01481 0
M  V30 4272 N 428.649 -1.55105 -0.279332 0
M  V30 4273 C 429.877 -1.7943 -1.03017 0
M  V30 4274 C 430.292 -0.564456 -1.80165 0
M  V30 4275 O 429.649 0.466326 -1.76442 0
M  V30 4276 C 429.7 -3.0155 -1.99374 0
M  V30 4277 O 429.421 -4.19784 -1.25352 0
M  V30 4278 C 430.922 -3.3843 -2.86321 0
M  V30 4279 H 428.142 -0.597882 -0.304594 0
M  V30 4280 H 430.686 -2.02105 -0.312035 0
M  V30 4281 H 428.841 -2.81019 -2.66659 0
M  V30 4282 H 429.255 -4.88781 -1.90246 0
M  V30 4283 H 430.729 -4.27066 -3.49741 0
M  V30 4284 H 431.206 -2.57549 -3.5576 0
M  V30 4285 H 431.812 -3.61197 -2.24536 0
M  V30 4286 N 430.127 0.543554 -1.4793 0
M  V30 4287 C 431.037 1.67657 -1.64098 0
M  V30 4288 C 432.053 1.65934 -0.523622 0
M  V30 4289 O 433.229 1.85133 -0.792943 0
M  V30 4290 C 430.294 3.04146 -1.66421 0
M  V30 4291 C 429.355 3.16831 -2.89684 0
M  V30 4292 C 428.588 4.46809 -2.91886 0
M  V30 4293 O 428.811 5.33095 -2.02895 0
M  V30 4294 O 427.745 4.63573 -3.83906 0
M  V30 4295 H 431.571 1.56957 -2.59997 0
M  V30 4296 H 429.156 0.715116 -1.31173 0
M  V30 4297 H 431.038 3.85346 -1.70548 0
M  V30 4298 H 429.713 3.152 -0.736923 0
M  V30 4299 H 428.62 2.34977 -2.91095 0
M  V30 4300 H 429.953 3.10687 -3.81752 0
M  V30 4301 N 431.605 1.3629 0.791371 0
M  V30 4302 C 432.568 1.30309 1.88553 0
M  V30 4303 C 433.568 0.211204 1.59407 0
M  V30 4304 O 434.758 0.465865 1.67855 0
M  V30 4305 C 431.89 1.01956 3.25297 0
M  V30 4306 H 433.083 2.27614 1.95273 0
M  V30 4307 H 430.636 1.21035 0.988953 0
M  V30 4308 H 431.371 0.050998 3.2426 0
M  V30 4309 H 431.156 1.80968 3.4784 0
M  V30 4310 H 432.646 1.0037 4.05359 0
M  V30 4311 N 433.083 -1.0153 1.20538 0
M  V30 4312 C 434.046 -2.0826 0.957098 0
M  V30 4313 C 435.046 -1.60657 -0.0678655 0
M  V30 4314 O 436.236 -1.73385 0.168332 0
M  V30 4315 C 433.368 -3.38033 0.441188 0
M  V30 4316 H 434.561 -2.31719 1.90384 0
M  V30 4317 H 432.114 -1.1835 1.02093 0
M  V30 4318 H 432.849 -3.20249 -0.510961 0
M  V30 4319 H 432.634 -3.73911 1.18038 0
M  V30 4320 H 434.124 -4.16613 0.287009 0
M  V30 4321 N 434.561 -1.01147 -1.20859 0
M  V30 4322 C 435.807 -0.698899 -1.90377 0
M  V30 4323 C 436.14 0.76904 -1.78324 0
M  V30 4324 O 435.415 1.55817 -1.16409 0
M  V30 4325 C 435.698 -1.12878 -3.41951 0
M  V30 4326 C 435.551 -2.65665 -3.62963 0
M  V30 4327 C 436.87 -0.696114 -4.3456 0
M  V30 4328 H 433.989 -0.255372 -0.691342 0
M  V30 4329 H 436.631 -1.25831 -1.42361 0
M  V30 4330 H 434.781 -0.652827 -3.82976 0
M  V30 4331 H 436.453 -3.21074 -3.31224 0
M  V30 4332 H 434.696 -3.06878 -3.06608 0
M  V30 4333 H 435.367 -2.90797 -4.69192 0
M  V30 4334 H 437.843 -1.10521 -4.01154 0
M  V30 4335 H 436.719 -1.025 -5.39245 0
M  V30 4336 H 436.98 0.402465 -4.40264 0
M  V30 4337 N 436.039 1.36541 -0.78704 0
M  V30 4338 C 437.287 1.98911 -0.357633 0
M  V30 4339 C 437.608 1.62778 1.07371 0
M  V30 4340 O 436.878 0.900612 1.73971 0
M  V30 4341 H 435.458 0.735734 -0.129246 0
M  V30 4342 H 438.12 1.66776 -1.00855 0
M  V30 4343 H 437.216 3.08874 -0.447549 0
M  V30 4344 N 437.518 0.538854 1.48102 0
M  V30 4345 C 438.481 -0.208395 2.28251 0
M  V30 4346 C 439.481 -0.859656 1.35892 0
M  V30 4347 O 440.671 -0.71834 1.58699 0
M  V30 4348 C 437.803 -1.30252 3.15035 0
M  V30 4349 H 438.996 0.495407 2.9578 0
M  V30 4350 H 436.549 0.295112 1.53489 0
M  V30 4351 H 437.284 -2.0393 2.52157 0
M  V30 4352 H 437.069 -0.840551 3.82985 0
M  V30 4353 H 438.559 -1.82787 3.75471 0
M  V30 4354 N 438.996 -1.55193 0.274407 0
M  V30 4355 C 439.959 -2.212 -0.600279 0
M  V30 4356 C 440.959 -1.18963 -1.08187 0
M  V30 4357 O 442.149 -1.43873 -0.982158 0
M  V30 4358 C 439.281 -2.87739 -1.82809 0
M  V30 4359 H 440.474 -2.9989 -0.0239682 0
M  V30 4360 H 438.027 -1.5628 0.0250192 0
M  V30 4361 H 438.762 -2.13058 -2.44493 0
M  V30 4362 H 438.547 -3.62658 -1.49069 0
M  V30 4363 H 440.037 -3.38171 -2.45011 0
M  V30 4364 N 440.474 -0.00167713 -1.576 0
M  V30 4365 C 441.72 0.683832 -1.90923 0
M  V30 4366 C 442.053 1.7333 -0.875799 0
M  V30 4367 O 441.328 1.94215 0.10525 0
M  V30 4368 C 441.611 1.32543 -3.3482 0
M  V30 4369 C 441.464 0.287387 -4.48881 0
M  V30 4370 C 442.783 2.25114 -3.78169 0
M  V30 4371 H 439.902 0.247125 -0.694333 0
M  V30 4372 H 442.544 -0.0533149 -1.89925 0
M  V30 4373 H 440.694 1.95372 -3.35801 0
M  V30 4374 H 442.366 -0.341346 -4.60035 0
M  V30 4375 H 440.609 -0.39017 -4.32042 0
M  V30 4376 H 441.28 0.775393 -5.46527 0
M  V30 4377 H 443.756 1.723 -3.7875 0
M  V30 4378 H 442.632 2.66971 -4.79602 0
M  V30 4379 H 442.893 3.13092 -3.12131 0
M  V30 4380 N 441.952 1.55251 0.271103 0
M  V30 4381 C 443.192 1.77698 1.01008 0
M  V30 4382 C 443.556 0.567246 1.83429 0
M  V30 4383 O 444.757 0.670013 2.60316 0
M  V30 4384 C 443.028 3.04715 1.86772 0
M  V30 4385 S 444.587 3.48289 2.66909 0
M  V30 4386 H 441.405 0.624343 0.340172 0
M  V30 4387 H 444.007 1.9348 0.280315 0
M  V30 4388 H 442.711 3.90853 1.25149 0
M  V30 4389 H 442.242 2.91604 2.64066 0
M  V30 4390 H 444.257 3.07712 3.89266 0
M  V30 4391 N 443.43 -0.535701 1.48216 0
M  V30 4392 C 444.846 -0.863701 1.3421 0
M  V30 4393 C 445.046 -1.98458 0.34879 0
M  V30 4394 O 444.102 -2.51432 -0.23204 0
M  V30 4395 C 445.415 -1.23662 2.74095 0
M  V30 4396 C 446.963 -1.34683 2.82541 0
M  V30 4397 C 447.438 -1.75322 4.23115 0
M  V30 4398 N 448.929 -1.82434 4.2576 0
M  V30 4399 C 449.664 -2.15252 5.31464 0
M  V30 4400 N 449.16 -2.46533 6.47452 0
M  V30 4401 N 450.953 -2.16209 5.18855 0
M  V30 4402 H 443.104 0.203965 2.11418 0
M  V30 4403 H 445.367 0.0286033 0.947568 0
M  V30 4404 H 445.073 -0.486674 3.48316 0
M  V30 4405 H 444.947 -2.18805 3.07253 0
M  V30 4406 H 447.334 -2.08756 2.08579 0
M  V30 4407 H 447.415 -0.376756 2.5301 0
M  V30 4408 H 447.059 -1.01812 4.97591 0
M  V30 4409 H 446.989 -2.7337 4.50085 0
M  V30 4410 H 449.48 -1.6056 3.42095 0
M  V30 4411 H 449.793 -2.70662 7.23852 0
M  V30 4412 H 448.138 -2.44065 6.50736 0
M  V30 4413 H 451.329 -1.91224 4.2726 0
M  V30 4414 H 451.502 -2.41453 6.01335 0
M  V30 4415 N 444.908 -1.36708 -0.784132 0
M  V30 4416 C 446.133 -1.34565 -1.5782 0
M  V30 4417 C 446.558 0.0695257 -1.87971 0
M  V30 4418 O 445.916 1.04302 -1.48293 0
M  V30 4419 C 445.964 -2.17952 -2.87279 0
M  V30 4420 O 445.068 -1.57563 -3.81114 0
M  V30 4421 H 444.409 -0.460337 -0.478524 0
M  V30 4422 H 446.939 -1.80064 -0.971495 0
M  V30 4423 H 446.949 -2.30721 -3.365 0
M  V30 4424 H 445.624 -3.20823 -2.64661 0
M  V30 4425 H 444.201 -1.53764 -3.39722 0
M  V30 4426 N 446.386 1.0089 -1.21074 0
M  V30 4427 C 447.634 1.74262 -1.02358 0
M  V30 4428 C 447.955 1.89869 0.444393 0
M  V30 4429 O 447.225 1.44677 1.32081 0
M  V30 4430 H 445.805 0.645615 -0.375754 0
M  V30 4431 H 448.467 1.21596 -1.52317 0
M  V30 4432 H 447.563 2.74328 -1.4883 0
M  V30 4433 N 447.864 1.01787 1.20321 0
M  V30 4434 C 449.28 0.732951 1.41774 0
M  V30 4435 C 449.48 -0.686883 1.89431 0
M  V30 4436 O 448.536 -1.45446 2.06402 0
M  V30 4437 C 449.849 1.75973 2.43832 0
M  V30 4438 C 451.397 1.77802 2.57596 0
M  V30 4439 C 451.872 2.7941 3.62897 0
M  V30 4440 N 453.363 2.78157 3.70382 0
M  V30 4441 C 454.098 3.53434 4.51521 0
M  V30 4442 N 453.594 4.38392 5.36455 0
M  V30 4443 N 455.387 3.42026 4.46066 0
M  V30 4444 H 447.538 1.93447 0.877035 0
M  V30 4445 H 449.801 0.835712 0.447536 0
M  V30 4446 H 449.507 2.77699 2.15815 0
M  V30 4447 H 449.381 1.57292 3.4284 0
M  V30 4448 H 451.768 0.767602 2.84942 0
M  V30 4449 H 451.849 2.00557 1.58779 0
M  V30 4450 H 451.493 3.80616 3.36295 0
M  V30 4451 H 451.423 2.53916 4.61339 0
M  V30 4452 H 453.914 2.16531 3.09714 0
M  V30 4453 H 454.227 4.92596 5.95457 0
M  V30 4454 H 452.572 4.4247 5.35953 0
M  V30 4455 H 455.763 2.75075 3.78749 0
M  V30 4456 H 455.936 4.00946 5.09064 0
M  V30 4457 N 449.342 -1.36122 0.79427 0
M  V30 4458 C 450.57 -2.03362 0.380989 0
M  V30 4459 C 450.985 -1.59881 -1.00416 0
M  V30 4460 O 450.342 -0.790515 -1.6449 0
M  V30 4461 C 450.393 -3.58804 0.440649 0
M  V30 4462 O 450.114 -4.007 1.77118 0
M  V30 4463 C 451.615 -4.43296 0.0186117 0
M  V30 4464 H 448.835 -0.652526 0.156367 0
M  V30 4465 H 451.379 -1.73998 1.07447 0
M  V30 4466 H 449.534 -3.8686 -0.204458 0
M  V30 4467 H 449.948 -4.95309 1.72538 0
M  V30 4468 H 451.422 -5.51887 0.111488 0
M  V30 4469 H 451.899 -4.2684 -1.03461 0
M  V30 4470 H 452.505 -4.20512 0.636395 0
M  V30 4471 N 450.82 -0.546701 -1.47814 0
M  V30 4472 C 452.048 -0.0232857 -2.06887 0
M  V30 4473 C 452.463 1.26571 -1.4009 0
M  V30 4474 O 451.82 1.7569 -0.493906 0
M  V30 4475 C 451.871 0.186975 -3.61016 0
M  V30 4476 O 451.592 -1.05097 -4.25307 0
M  V30 4477 C 453.093 0.748872 -4.36929 0
M  V30 4478 H 450.313 -0.0410763 -0.669742 0
M  V30 4479 H 452.857 -0.757117 -1.89968 0
M  V30 4480 H 451.012 0.870903 -3.77484 0
M  V30 4481 H 451.426 -0.842121 -5.17695 0
M  V30 4482 H 452.9 0.845334 -5.45489 0
M  V30 4483 H 453.377 1.75772 -4.02493 0
M  V30 4484 H 453.983 0.100979 -4.2518 0
M  V30 4485 N 452.299 1.55045 -0.282633 0
M  V30 4486 C 453.547 1.99365 0.331334 0
M  V30 4487 C 453.868 1.1725 1.55812 0
M  V30 4488 O 453.138 0.263871 1.94115 0
M  V30 4489 H 451.718 0.736397 0.125414 0
M  V30 4490 H 454.38 1.90964 -0.389711 0
M  V30 4491 H 453.476 3.0596 0.616036 0
M  V30 4492 N 453.777 0.010035 1.57597 0
M  V30 4493 C 455.007 -0.682422 1.95004 0
M  V30 4494 C 455.415 -1.67278 0.884014 0
M  V30 4495 O 454.758 -1.83129 -0.144672 0
M  V30 4496 C 454.82 -1.46141 3.28456 0
M  V30 4497 C 454.484 -0.631523 4.52615 0
M  V30 4498 C 455.481 0.0850905 5.1983 0
M  V30 4499 C 453.166 -0.574539 4.99003 0
M  V30 4500 C 455.16 0.847566 6.3174 0
M  V30 4501 C 452.847 0.191655 6.10799 0
M  V30 4502 C 453.845 0.901432 6.77025 0
M  V30 4503 O 453.533 1.65511 7.86677 0
M  V30 4504 H 453.265 -0.194361 0.647456 0
M  V30 4505 H 455.819 0.060312 2.05311 0
M  V30 4506 H 454.049 -2.24885 3.14585 0
M  V30 4507 H 455.738 -2.04016 3.50902 0
M  V30 4508 H 456.504 0.0502812 4.84974 0
M  V30 4509 H 452.383 -1.11654 4.47274 0
M  V30 4510 H 455.927 1.4021 6.83364 0
M  V30 4511 H 451.824 0.228249 6.45096 0
M  V30 4512 H 452.592 1.57287 8.03245 0
M  V30 4513 N 455.255 -1.55392 -0.262866 0
M  V30 4514 C 456.187 -1.85392 -1.34768 0
M  V30 4515 C 457.2 -0.739069 -1.45057 0
M  V30 4516 O 458.389 -1.01703 -1.46693 0
M  V30 4517 C 455.489 -2.01088 -2.72795 0
M  V30 4518 C 454.662 -3.31828 -2.84972 0
M  V30 4519 C 453.721 -3.37464 -4.03738 0
M  V30 4520 O 452.747 -4.10778 -3.94018 0
M  V30 4521 N 453.949 -2.65599 -5.16176 0
M  V30 4522 H 456.714 -2.79029 -1.09375 0
M  V30 4523 H 454.275 -1.55434 -0.452981 0
M  V30 4524 H 456.267 -2.02217 -3.50557 0
M  V30 4525 H 454.837 -1.1427 -2.90966 0
M  V30 4526 H 454.057 -3.43152 -1.94012 0
M  V30 4527 H 455.345 -4.18032 -2.90045 0
M  V30 4528 H 454.743 -2.05736 -5.26962 0
M  V30 4529 H 453.3 -2.72439 -5.92132 0
M  V30 4530 N 456.733 0.527833 -1.48498 0
M  V30 4531 C 457.973 1.29401 -1.58224 0
M  V30 4532 C 458.337 1.90348 -0.251327 0
M  V30 4533 O 459.538 2.67868 -0.223588 0
M  V30 4534 C 457.809 2.35266 -2.69044 0
M  V30 4535 S 459.368 3.2158 -2.98549 0
M  V30 4536 H 456.186 0.440138 -0.558391 0
M  V30 4537 H 458.788 0.601079 -1.8603 0
M  V30 4538 H 457.492 1.88975 -3.64303 0
M  V30 4539 H 457.023 3.09263 -2.43146 0
M  V30 4540 H 459.038 4.35391 -2.38011 0
M  V30 4541 N 458.211 1.37122 0.776871 0
M  V30 4542 C 459.459 1.31787 1.53221 0
M  V30 4543 C 459.78 -0.0987589 1.9475 0
M  V30 4544 O 459.05 -1.0417 1.65908 0
M  V30 4545 H 457.63 0.484839 0.568278 0
M  V30 4546 H 460.292 1.71556 0.924917 0
M  V30 4547 H 459.388 1.95355 2.43398 0
M  V30 4548 N 459.689 -1.00246 1.21608 0
M  V30 4549 C 460.917 -1.77631 1.06089 0
M  V30 4550 C 461.332 -1.84746 -0.38916 0
M  V30 4551 O 460.689 -1.31068 -1.26994 0
M  V30 4552 C 460.74 -3.21415 1.65453 0
M  V30 4553 O 460.461 -3.14703 3.04785 0
M  V30 4554 C 461.962 -4.15289 1.55079 0
M  V30 4555 H 459.182 -0.558162 0.37242 0
M  V30 4556 H 461.726 -1.26093 1.60999 0
M  V30 4557 H 459.881 -3.70053 1.14629 0
M  V30 4558 H 460.295 -4.05056 3.33212 0
M  V30 4559 H 461.769 -5.13965 2.01355 0
M  V30 4560 H 462.246 -4.36279 0.505665 0
M  V30 4561 H 462.852 -3.72543 2.05163 0
M  V30 4562 N 461.167 -1.02423 -1.1978 0
M  V30 4563 C 462.416 -0.713265 -1.88667 0
M  V30 4564 C 462.729 0.7609 -1.80193 0
M  V30 4565 O 463.935 1.18473 -2.44288 0
M  V30 4566 C 462.391 -1.22545 -3.38394 0
M  V30 4567 C 461.999 -2.72706 -3.55437 0
M  V30 4568 C 463.743 -0.990257 -4.12788 0
M  V30 4569 C 461.65 -3.17367 -4.99031 0
M  V30 4570 H 460.58 -0.263105 -0.706606 0
M  V30 4571 H 463.231 -1.23792 -1.35454 0
M  V30 4572 H 461.613 -0.628732 -3.90977 0
M  V30 4573 H 462.787 -3.37993 -3.13205 0
M  V30 4574 H 461.102 -2.94453 -2.94425 0
M  V30 4575 H 463.699 -1.29926 -5.18675 0
M  V30 4576 H 464.042 0.0730761 -4.16236 0
M  V30 4577 H 464.575 -1.55074 -3.66329 0
M  V30 4578 H 461.314 -4.23009 -5.00743 0
M  V30 4579 H 460.834 -2.56805 -5.42044 0
M  V30 4580 H 462.513 -3.10441 -5.67658 0
M  V30 4581 N 462.645 1.35699 -0.801477 0
M  V30 4582 C 463.873 2.03157 -0.391768 0
M  V30 4583 C 464.288 1.60412 0.995668 0
M  V30 4584 O 463.645 0.799228 1.64069 0
M  V30 4585 C 463.696 3.58566 -0.459671 0
M  V30 4586 O 463.417 3.99756 -1.7924 0
M  V30 4587 C 464.918 4.4328 -0.0421205 0
M  V30 4588 H 462.138 0.651688 -0.159825 0
M  V30 4589 H 464.682 1.73426 -1.08368 0
M  V30 4590 H 462.837 3.86963 0.183939 0
M  V30 4591 H 463.251 4.94387 -1.75162 0
M  V30 4592 H 464.725 5.51821 -0.140754 0
M  V30 4593 H 465.202 4.27383 1.01196 0
M  V30 4594 H 465.808 4.20168 -0.658687 0
M  V30 4595 N 464.123 0.554532 1.47522 0
M  V30 4596 C 465.086 -0.184174 2.28459 0
M  V30 4597 C 466.086 -0.845195 1.36796 0
M  V30 4598 O 467.276 -0.701467 1.59452 0
M  V30 4599 C 464.408 -1.26903 3.16399 0
M  V30 4600 H 465.601 0.526751 2.95238 0
M  V30 4601 H 463.154 0.311375 1.53167 0
M  V30 4602 H 463.889 -2.01244 2.54306 0
M  V30 4603 H 463.674 -0.799883 3.83854 0
M  V30 4604 H 465.164 -1.78794 3.77389 0
M  V30 4605 N 465.601 -1.54893 0.290851 0
M  V30 4606 C 466.548 -2.23138 -0.58974 0
M  V30 4607 C 467.518 -1.21036 -1.13752 0
M  V30 4608 O 468.703 -1.49626 -1.18392 0
M  V30 4609 C 465.843 -2.96811 -1.76061 0
M  V30 4610 C 464.956 -4.13665 -1.24519 0
M  V30 4611 C 464.091 -4.74944 -2.3791 0
M  V30 4612 C 463.13 -5.83963 -1.83451 0
M  V30 4613 N 462.267 -6.39239 -2.90376 0
M  V30 4614 H 467.107 -2.98 -0.00114915 0
M  V30 4615 H 464.644 -1.47096 0.0112006 0
M  V30 4616 H 466.602 -3.37751 -2.44909 0
M  V30 4617 H 465.232 -2.24344 -2.32098 0
M  V30 4618 H 464.284 -3.77737 -0.449288 0
M  V30 4619 H 465.596 -4.92238 -0.806424 0
M  V30 4620 H 464.75 -5.18684 -3.14724 0
M  V30 4621 H 463.489 -3.95682 -2.85109 0
M  V30 4622 H 462.494 -5.39657 -1.05122 0
M  V30 4623 H 463.719 -6.65103 -1.37169 0
M  V30 4624 H 461.665 -5.62864 -3.36927 0
M  V30 4625 H 461.582 -7.13129 -2.50965 0
M  V30 4626 H 462.85 -6.87637 -3.67118 0
M  V30 4627 N 467.08 -0.0183926 -1.57589 0
M  V30 4628 C 468.028 0.985111 -2.10709 0
M  V30 4629 C 469.022 1.34397 -1.0312 0
M  V30 4630 O 470.228 1.32746 -1.21567 0
M  V30 4631 H 466.603 0.335418 -0.673052 0
M  V30 4632 H 468.574 0.511689 -2.9398 0
M  V30 4633 C 467.323 2.26202 -2.64061 0
M  V30 4634 H 466.646 1.9946 -3.4649 0
M  V30 4635 H 468.086 2.94652 -3.04887 0
M  V30 4636 C 466.545 2.98444 -1.5631 0
M  V30 4637 O 467.075 3.90142 -0.956674 0
M  V30 4638 N 465.281 2.6059 -1.28612 0
M  V30 4639 H 464.828 1.86101 -1.78112 0
M  V30 4640 H 464.786 3.09238 -0.567406 0
M  V30 4641 N 468.558 1.5553 0.254621 0
M  V30 4642 C 469.804 1.77262 0.985193 0
M  V30 4643 C 470.137 0.582286 1.85265 0
M  V30 4644 O 469.412 -0.419666 1.89919 0
M  V30 4645 C 469.695 3.0881 1.85225 0
M  V30 4646 C 469.548 4.38233 1.0135 0
M  V30 4647 C 470.867 3.3653 2.83612 0
M  V30 4648 H 467.986 0.644906 0.356742 0
M  V30 4649 H 470.628 1.88264 0.256236 0
M  V30 4650 H 468.778 2.99562 2.47376 0
M  V30 4651 H 470.45 4.59463 0.411269 0
M  V30 4652 H 468.693 4.32636 0.317574 0
M  V30 4653 H 469.364 5.26644 1.65379 0
M  V30 4654 H 471.84 3.45691 2.31596 0
M  V30 4655 H 470.716 4.29805 3.41407 0
M  V30 4656 H 470.977 2.57064 3.59681 0
M  V30 4657 N 470.036 -0.519951 1.48776 0
M  V30 4658 C 471.264 -1.29971 1.60982 0
M  V30 4659 C 471.679 -1.86803 0.273885 0
M  V30 4660 O 471.036 -1.66904 -0.738193 0
M  V30 4661 C 471.087 -2.44346 2.66415 0
M  V30 4662 O 470.808 -1.89855 3.94825 0
M  V30 4663 C 472.309 -3.36014 2.89153 0
M  V30 4664 H 469.529 -0.394891 0.542496 0
M  V30 4665 H 472.073 -0.626214 1.94676 0
M  V30 4666 H 470.228 -3.07562 2.35552 0
M  V30 4667 H 470.642 -2.64798 4.5275 0
M  V30 4668 H 472.116 -4.12593 3.66703 0
M  V30 4669 H 472.593 -3.91859 1.98351 0
M  V30 4670 H 473.199 -2.78582 3.21359 0
M  V30 4671 N 471.514 -1.37532 -0.769588 0
M  V30 4672 C 472.477 -1.33292 -1.86456 0
M  V30 4673 C 473.477 -0.236537 -1.59051 0
M  V30 4674 O 474.667 -0.492511 -1.67093 0
M  V30 4675 C 471.799 -1.07118 -3.23633 0
M  V30 4676 H 472.992 -2.30692 -1.91628 0
M  V30 4677 H 470.545 -1.22593 -0.969572 0
M  V30 4678 H 471.28 -0.102578 -3.24138 0
M  V30 4679 H 471.065 -1.86479 -3.44917 0
M  V30 4680 H 472.555 -1.06806 -4.03711 0
M  V30 4681 N 472.992 0.995999 -1.22138 0
M  V30 4682 C 473.94 2.10673 -0.985876 0
M  V30 4683 C 474.934 1.69255 0.0699553 0
M  V30 4684 O 476.14 1.79812 -0.0822176 0
M  V30 4685 H 472.515 0.688865 -0.30161 0
M  V30 4686 H 474.486 2.27711 -1.92848 0
M  V30 4687 C 473.235 3.42881 -0.576909 0
M  V30 4688 H 472.558 3.75191 -1.38101 0
M  V30 4689 H 473.998 4.21589 -0.451518 0
M  V30 4690 C 472.457 3.29265 0.713196 0
M  V30 4691 O 472.987 3.60777 1.76643 0
M  V30 4692 N 471.193 2.82456 0.683162 0
M  V30 4693 H 470.74 2.5701 -0.174242 0
M  V30 4694 H 470.698 2.73727 1.54663 0
M  V30 4695 N 474.47 1.03057 1.19235 0
M  V30 4696 C 475.7 0.746613 1.92638 0
M  V30 4697 C 476.108 -0.698708 1.75826 0
M  V30 4698 O 475.451 -1.487 1.07861 0
M  V30 4699 C 475.513 1.02024 3.44719 0
M  V30 4700 C 475.177 2.45745 3.85303 0
M  V30 4701 C 476.174 3.43887 3.8992 0
M  V30 4702 C 473.859 2.8019 4.16892 0
M  V30 4703 C 475.853 4.74529 4.2556 0
M  V30 4704 C 473.54 4.1104 4.52205 0
M  V30 4705 C 474.538 5.0802 4.56513 0
M  V30 4706 O 474.226 6.36527 4.91008 0
M  V30 4707 H 473.958 0.272401 0.618687 0
M  V30 4708 H 476.512 1.37853 1.52269 0
M  V30 4709 H 474.742 0.331184 3.85279 0
M  V30 4710 H 476.431 0.725677 3.9936 0
M  V30 4711 H 477.197 3.18614 3.65664 0
M  V30 4712 H 473.076 2.05382 4.12722 0
M  V30 4713 H 476.62 5.50222 4.28838 0
M  V30 4714 H 472.517 4.36086 4.7592 0
M  V30 4715 H 473.285 6.41025 5.08949 0
M  V30 4716 N 475.948 -1.35272 0.808662 0
M  V30 4717 C 476.911 -2.28082 0.226093 0
M  V30 4718 C 477.911 -1.49673 -0.587762 0
M  V30 4719 O 479.101 -1.69404 -0.405943 0
M  V30 4720 C 476.233 -3.33955 -0.684596 0
M  V30 4721 H 477.426 -2.81116 1.04469 0
M  V30 4722 H 474.979 -1.45162 0.579466 0
M  V30 4723 H 475.714 -2.86111 -1.5268 0
M  V30 4724 H 475.499 -3.91965 -0.102699 0
M  V30 4725 H 476.989 -4.03219 -1.08646 0
M  V30 4726 N 477.426 -0.562348 -1.47226 0
M  V30 4727 C 478.336 0.185466 -2.33866 0
M  V30 4728 C 479.352 0.906713 -1.48508 0
M  V30 4729 O 480.528 0.874458 -1.81425 0
M  V30 4730 C 477.593 1.19904 -3.25306 0
M  V30 4731 C 476.654 0.484669 -4.26555 0
M  V30 4732 C 475.887 1.44996 -5.13626 0
M  V30 4733 O 476.11 2.68515 -5.03245 0
M  V30 4734 O 475.044 0.971642 -5.94006 0
M  V30 4735 H 478.87 -0.525361 -2.99121 0
M  V30 4736 H 476.455 -0.322916 -1.45868 0
M  V30 4737 H 478.337 1.78399 -3.81774 0
M  V30 4738 H 477.012 1.8917 -2.62672 0
M  V30 4739 H 475.919 -0.141605 -3.73832 0
M  V30 4740 H 477.252 -0.166634 -4.91918 0
M  V30 4741 N 478.904 1.54736 -0.299062 0
M  V30 4742 C 480.152 1.99706 0.31017 0
M  V30 4743 C 480.473 1.18896 1.54559 0
M  V30 4744 O 479.743 0.284445 1.93824 0
M  V30 4745 H 478.323 0.737686 0.117596 0
M  V30 4746 H 480.985 1.9054 -0.409943 0
M  V30 4747 H 480.081 3.06596 0.58355 0
M  V30 4748 N 480.382 0.0267497 1.57577 0
M  V30 4749 C 481.345 -0.940916 2.08996 0
M  V30 4750 C 482.345 -1.25561 1.00455 0
M  V30 4751 O 483.535 -1.19634 1.26623 0
M  V30 4752 C 480.667 -2.25814 2.55384 0
M  V30 4753 H 481.86 -0.495628 2.95776 0
M  V30 4754 H 479.413 -0.221241 1.54726 0
M  V30 4755 H 480.148 -2.74976 1.71926 0
M  V30 4756 H 479.933 -2.04285 3.34679 0
M  V30 4757 H 481.423 -2.95178 2.95398 0
M  V30 4758 N 481.861 -1.55662 -0.24637 0
M  V30 4759 C 483.107 -1.77782 -0.975779 0
M  V30 4760 C 483.44 -0.592103 -1.84953 0
M  V30 4761 O 482.715 0.409588 -1.90138 0
M  V30 4762 C 482.998 -3.09788 -1.83584 0
M  V30 4763 C 482.851 -4.38764 -0.990241 0
M  V30 4764 C 484.17 -3.38029 -2.81823 0
M  V30 4765 H 481.289 -0.646789 -0.353317 0
M  V30 4766 H 483.931 -1.88398 -0.246248 0
M  V30 4767 H 482.081 -3.00869 -2.45784 0
M  V30 4768 H 483.753 -4.59675 -0.386897 0
M  V30 4769 H 481.996 -4.32798 -0.294626 0
M  V30 4770 H 482.667 -5.27514 -1.62584 0
M  V30 4771 H 485.143 -3.46915 -2.2976 0
M  V30 4772 H 484.019 -4.3161 -3.39122 0
M  V30 4773 H 484.28 -2.58968 -3.58313 0
M  V30 4774 N 483.339 0.512053 -1.4905 0
M  V30 4775 C 484.755 0.84224 -1.35567 0
M  V30 4776 C 484.955 1.97878 -0.380319 0
M  V30 4777 O 484.011 2.51769 0.19201 0
M  V30 4778 C 485.324 1.19286 -2.76028 0
M  V30 4779 C 486.872 1.30171 -2.84648 0
M  V30 4780 C 487.347 1.68568 -4.25851 0
M  V30 4781 N 488.838 1.75638 -4.28609 0
M  V30 4782 C 489.573 2.06769 -5.34821 0
M  V30 4783 N 489.069 2.36201 -6.51292 0
M  V30 4784 N 490.862 2.07927 -5.22229 0
M  V30 4785 H 483.013 -0.237574 -2.11067 0
M  V30 4786 H 485.276 -0.0436747 -0.946993 0
M  V30 4787 H 484.982 0.431199 -3.49047 0
M  V30 4788 H 484.856 2.13889 -3.10695 0
M  V30 4789 H 487.243 2.05411 -2.11873 0
M  V30 4790 H 487.324 0.336457 -2.53578 0
M  V30 4791 H 486.968 0.938824 -4.99148 0
M  V30 4792 H 486.898 2.66174 -4.54377 0
M  V30 4793 H 489.389 1.55097 -3.44606 0
M  V30 4794 H 489.702 2.59112 -7.28066 0
M  V30 4795 H 488.047 2.33681 -6.54536 0
M  V30 4796 H 491.238 1.84403 -4.30248 0
M  V30 4797 H 491.411 2.31856 -6.05101 0
M  V30 4798 N 484.817 1.37938 0.762283 0
M  V30 4799 C 486.065 1.33404 1.51815 0
M  V30 4800 C 486.386 -0.0780975 1.94844 0
M  V30 4801 O 485.656 -1.02405 1.67003 0
M  V30 4802 H 484.236 0.490839 0.563104 0
M  V30 4803 H 486.898 1.72527 0.906669 0
M  V30 4804 H 485.994 1.97926 2.41313 0
M  V30 4805 N 486.295 -0.989507 1.22664 0
M  V30 4806 C 487.225 -2.09847 1.02404 0
M  V30 4807 C 488.206 -1.70007 -0.0561303 0
M  V30 4808 O 489.391 -1.93906 0.106748 0
M  V30 4809 C 486.521 -3.41996 0.604663 0
M  V30 4810 C 485.475 -3.95699 1.63115 0
M  V30 4811 C 484.801 -5.23936 1.0675 0
M  V30 4812 C 486.101 -4.25999 3.02196 0
M  V30 4813 H 487.795 -2.27054 1.95158 0
M  V30 4814 H 485.341 -1.09111 0.939727 0
M  V30 4815 H 487.294 -4.1899 0.45002 0
M  V30 4816 H 486.018 -3.24626 -0.35855 0
M  V30 4817 H 484.677 -3.2084 1.77362 0
M  V30 4818 H 484.325 -5.02909 0.0955422 0
M  V30 4819 H 484.025 -5.60833 1.75328 0
M  V30 4820 H 485.549 -6.0356 0.924516 0
M  V30 4821 H 486.963 -4.93777 2.91303 0
M  V30 4822 H 485.36 -4.74076 3.67929 0
M  V30 4823 H 486.43 -3.33636 3.51873 0
M  V30 4824 N 487.773 -1.03688 -1.18687 0
M  V30 4825 C 489.001 -0.757918 -1.92518 0
M  V30 4826 C 489.416 0.684398 -1.75959 0
M  V30 4827 O 488.773 1.46617 -1.08673 0
M  V30 4828 C 488.824 -1.10985 -3.44042 0
M  V30 4829 O 488.545 -2.49554 -3.60076 0
M  V30 4830 C 490.046 -0.854844 -4.3498 0
M  V30 4831 H 487.266 -0.276699 -0.611293 0
M  V30 4832 H 489.81 -1.38352 -1.50595 0
M  V30 4833 H 487.965 -0.529279 -3.83767 0
M  V30 4834 H 488.379 -2.6291 -4.53849 0
M  V30 4835 H 489.853 -1.15098 -5.39867 0
M  V30 4836 H 490.33 0.210507 -4.38695 0
M  V30 4837 H 490.936 -1.41853 -4.00946 0
M  V30 4838 N 489.251 1.34841 -0.815825 0
M  V30 4839 C 490.183 2.28409 -0.190265 0
M  V30 4840 C 491.196 1.50705 0.615771 0
M  V30 4841 O 492.385 1.72822 0.446616 0
M  V30 4842 C 489.485 3.30441 0.752446 0
M  V30 4843 C 488.658 4.37399 -0.00922152 0
M  V30 4844 C 487.717 5.19234 0.853351 0
M  V30 4845 O 486.743 5.68404 0.300919 0
M  V30 4846 N 487.945 5.38248 2.17416 0
M  V30 4847 H 490.71 2.82732 -0.994114 0
M  V30 4848 H 488.271 1.47289 -0.672129 0
M  V30 4849 H 490.263 3.82084 1.33394 0
M  V30 4850 H 488.833 2.76565 1.45707 0
M  V30 4851 H 488.053 3.86567 -0.771979 0
M  V30 4852 H 489.341 5.05992 -0.533807 0
M  V30 4853 H 488.739 4.99961 2.6468 0
M  V30 4854 H 487.296 5.93035 2.70467 0
M  V30 4855 N 490.729 0.570148 1.46925 0
M  V30 4856 C 491.977 0.0508523 2.02036 0
M  V30 4857 C 492.298 -1.30885 1.44548 0
M  V30 4858 O 491.568 -1.85647 0.625453 0
M  V30 4859 H 490.148 0.0158088 0.746833 0
M  V30 4860 H 492.81 0.743086 1.80178 0
M  V30 4861 H 491.906 -0.027575 3.12088 0
M  V30 4862 N 492.207 -1.54576 0.307264 0
M  V30 4863 C 493.155 -2.25208 -0.581723 0
M  V30 4864 C 494.149 -1.26031 -1.13192 0
M  V30 4865 O 495.355 -1.43862 -1.08184 0
M  V30 4866 H 491.73 -0.723173 -0.206214 0
M  V30 4867 H 493.701 -2.98378 0.0364663 0
M  V30 4868 C 492.45 -3.01086 -1.73904 0
M  V30 4869 H 491.773 -3.77208 -1.32491 0
M  V30 4870 H 493.213 -3.5378 -2.33701 0
M  V30 4871 C 491.672 -2.08422 -2.64692 0
M  V30 4872 O 492.202 -1.65636 -3.65961 0
M  V30 4873 N 490.408 -1.74247 -2.32564 0
M  V30 4874 H 489.955 -2.09238 -1.50257 0
M  V30 4875 H 489.913 -1.12524 -2.93574 0
M  V30 4876 N 493.685 -0.035106 -1.57561 0
M  V30 4877 C 494.648 0.929819 -2.09492 0
M  V30 4878 C 495.648 1.25026 -1.01119 0
M  V30 4879 O 496.838 1.18961 -1.27255 0
M  V30 4880 C 493.97 2.24457 -2.56577 0
M  V30 4881 H 495.163 0.479935 -2.96035 0
M  V30 4882 H 492.716 0.213033 -1.54841 0
M  V30 4883 H 493.451 2.74061 -1.73382 0
M  V30 4884 H 493.236 2.02508 -3.35757 0
M  V30 4885 H 494.726 2.93607 -2.96959 0
M  V30 4886 N 495.163 1.55791 0.238111 0
M  V30 4887 C 496.403 1.79801 0.972163 0
M  V30 4888 C 496.767 0.606027 1.82185 0
M  V30 4889 O 497.968 0.725079 2.58836 0
M  V30 4890 C 496.239 3.08608 1.80266 0
M  V30 4891 S 497.798 3.53872 2.59461 0
M  V30 4892 H 494.616 0.631418 0.326852 0
M  V30 4893 H 497.218 1.94031 0.239212 0
M  V30 4894 H 495.922 3.93419 1.1683 0
M  V30 4895 H 495.453 2.9714 2.57821 0
M  V30 4896 H 497.468 3.15899 3.82651 0
M  V30 4897 N 496.642 -0.504142 1.49319 0
M  V30 4898 C 497.575 -1.62361 1.60356 0
M  V30 4899 C 498.553 -1.56169 0.45277 0
M  V30 4900 O 499.737 -1.76271 0.667892 0
M  V30 4901 C 496.864 -3.00864 1.55559 0
M  V30 4902 C 495.91 -3.25328 2.75797 0
M  V30 4903 S 496.743 -3.08791 4.37503 0
M  V30 4904 C 497.899 -4.49695 4.35345 0
M  V30 4905 H 498.132 -1.52753 2.55056 0
M  V30 4906 H 495.665 -0.689065 1.38171 0
M  V30 4907 H 497.623 -3.8073 1.53477 0
M  V30 4908 H 496.284 -3.0789 0.621515 0
M  V30 4909 H 495.477 -4.2643 2.68651 0
M  V30 4910 H 495.079 -2.53179 2.75275 0
M  V30 4911 H 497.371 -5.41721 4.06871 0
M  V30 4912 H 498.314 -4.61891 5.36714 0
M  V30 4913 H 498.722 -4.30227 3.65465 0
M  V30 4914 N 498.12 -1.38341 -0.754957 0
M  V30 4915 C 499.368 -1.34208 -1.51105 0
M  V30 4916 C 499.689 0.0677634 -1.94882 0
M  V30 4917 O 498.959 1.01517 -1.67544 0
M  V30 4918 H 497.539 -0.493819 -0.560493 0
M  V30 4919 H 500.201 -1.73005 -0.897507 0
M  V30 4920 H 499.297 -1.99203 -2.4026 0
M  V30 4921 N 499.598 0.982988 -1.23187 0
M  V30 4922 C 501.014 1.2487 -0.993967 0
M  V30 4923 C 501.214 1.99155 0.306498 0
M  V30 4924 O 500.27 2.30688 1.0266 0
M  V30 4925 C 501.583 2.05078 -2.19917 0
M  V30 4926 C 503.131 2.18227 -2.2438 0
M  V30 4927 C 503.606 3.01825 -3.44479 0
M  V30 4928 N 505.097 3.09411 -3.44702 0
M  V30 4929 C 505.832 3.74412 -4.34285 0
M  V30 4930 N 505.328 4.41259 -5.341 0
M  V30 4931 N 507.121 3.71273 -4.22035 0
M  V30 4932 H 499.272 0.485253 -2.06783 0
M  V30 4933 H 501.535 0.276979 -0.906635 0
M  V30 4934 H 501.241 1.57867 -3.14279 0
M  V30 4935 H 501.115 3.05829 -2.2079 0
M  V30 4936 H 503.502 2.64648 -1.30559 0
M  V30 4937 H 503.583 1.16873 -2.2754 0
M  V30 4938 H 503.227 2.56102 -4.38605 0
M  V30 4939 H 503.157 4.03342 -3.38559 0
M  V30 4940 H 505.648 2.61845 -2.7248 0
M  V30 4941 H 505.961 4.88629 -5.98717 0
M  V30 4942 H 504.306 4.39975 -5.38002 0
M  V30 4943 H 507.497 3.18217 -3.43301 0
M  V30 4944 H 507.67 4.21649 -4.92053 0
M  V30 4945 N 501.076 1.04316 1.18135 0
M  V30 4946 C 502.324 0.746542 1.87806 0
M  V30 4947 C 502.645 -0.728082 1.80898 0
M  V30 4948 O 501.915 -1.52554 1.22899 0
M  V30 4949 H 500.495 0.273157 0.695265 0
M  V30 4950 H 503.157 1.32044 1.43354 0
M  V30 4951 H 502.253 1.05362 2.93778 0
M  V30 4952 N 502.554 -1.34406 0.822964 0
M  V30 4953 C 503.831 -1.92733 0.333641 0
M  V30 4954 C 504.211 -1.75107 -1.17901 0
M  V30 4955 O 503.559 -1.12983 -1.98613 0
M  V30 4956 C 503.769 -3.40557 0.763023 0
M  V30 4957 C 505.117 -4.17709 0.761879 0
M  V30 4958 O 506.141 -3.49141 0.705606 0
M  V30 4959 O 505 -5.40082 0.835109 0
M  V30 4960 H 502.094 -0.821964 0.0911249 0
M  V30 4961 H 504.64 -1.4338 0.907757 0
M  V30 4962 H 503.412 -3.47187 1.8049 0
M  V30 4963 H 503.035 -3.97259 0.164605 0
M  V30 4964 N 504.032 -0.577932 -1.46621 0
M  V30 4965 C 505.257 -0.0652536 -2.07297 0
M  V30 4966 C 505.682 1.22828 -1.4246 0
M  V30 4967 O 505.04 1.74075 -0.506718 0
M  V30 4968 C 505.088 0.0920589 -3.60482 0
M  V30 4969 O 504.192 1.14972 -3.96049 0
M  V30 4970 H 503.533 -0.06065 -0.661224 0
M  V30 4971 H 506.063 -0.799515 -1.88332 0
M  V30 4972 H 506.073 0.299741 -4.06897 0
M  V30 4973 H 504.748 -0.852612 -4.07067 0
M  V30 4974 H 503.325 0.920879 -3.61351 0
M  V30 4975 N 505.51 1.54411 -0.315457 0
M  V30 4976 C 506.758 2.00023 0.288971 0
M  V30 4977 C 507.079 1.20529 1.5329 0
M  V30 4978 O 506.349 0.304986 1.93511 0
M  V30 4979 H 504.929 0.738891 0.109766 0
M  V30 4980 H 507.591 1.90094 -0.430129 0
M  V30 4981 H 506.687 3.07198 0.550999 0
M  V30 4982 N 506.988 0.0434614 1.5754 0
M  V30 4983 C 508.236 -0.630786 1.92004 0
M  V30 4984 C 508.557 -1.71836 0.921807 0
M  V30 4985 O 507.827 -1.9587 -0.034522 0
M  V30 4986 H 506.407 -0.235988 0.708745 0
M  V30 4987 H 509.069 0.0946462 1.9467 0
M  V30 4988 H 508.165 -1.07434 2.93026 0
M  V30 4989 N 508.466 -1.55915 -0.229846 0
M  V30 4990 C 509.691 -1.8296 -0.976743 0
M  V30 4991 C 510.116 -0.622735 -1.77493 0
M  V30 4992 O 509.474 0.428431 -1.76165 0
M  V30 4993 C 509.522 -3.07916 -1.8767 0
M  V30 4994 O 508.626 -2.86028 -2.97088 0
M  V30 4995 H 507.967 -0.603453 -0.277021 0
M  V30 4996 H 510.497 -2.0312 -0.245669 0
M  V30 4997 H 510.507 -3.37802 -2.2881 0
M  V30 4998 H 509.182 -3.95389 -1.28996 0
M  V30 4999 H 507.759 -2.67355 -2.59954 0
M  V30 5000 N 509.944 0.496216 -1.49584 0
M  V30 5001 C 511.19 1.24918 -1.60521 0
M  V30 5002 C 511.545 1.90197 -0.290352 0
M  V30 5003 O 510.838 1.77967 0.709813 0
M  V30 5004 C 511.032 2.3359 -2.705 0
M  V30 5005 C 510.861 1.78969 -4.12553 0
M  V30 5006 C 509.631 1.60057 -4.79281 0
M  V30 5007 C 511.829 1.29883 -4.97629 0
M  V30 5008 N 509.811 1.00415 -6.05632 0
M  V30 5009 C 511.182 0.824057 -6.14499 0
M  V30 5010 C 513.237 1.18501 -4.83593 0
M  V30 5011 C 511.94 0.246721 -7.18877 0
M  V30 5012 C 513.966 0.621634 -5.88124 0
M  V30 5013 C 513.328 0.157116 -7.04225 0
M  V30 5014 H 509.427 0.446896 -0.641722 0
M  V30 5015 H 512.011 0.555456 -1.86609 0
M  V30 5016 H 510.182 3.00418 -2.46178 0
M  V30 5017 H 511.914 3.00628 -2.70933 0
M  V30 5018 H 508.669 1.84562 -4.36158 0
M  V30 5019 H 509.093 0.725074 -6.73106 0
M  V30 5020 H 513.735 1.53012 -3.94141 0
M  V30 5021 H 511.453 -0.110651 -8.08024 0
M  V30 5022 H 515.039 0.536279 -5.79323 0
M  V30 5023 H 513.919 -0.272009 -7.83728 0
M  V30 5024 N 511.423 1.38739 0.74761 0
M  V30 5025 C 512.672 1.3459 1.50228 0
M  V30 5026 C 512.985 -0.0595592 1.95509 0
M  V30 5027 O 514.191 -0.22361 2.70578 0
M  V30 5028 C 512.647 2.36377 2.71393 0
M  V30 5029 C 512.255 3.82573 2.33113 0
M  V30 5030 C 513.999 2.41281 3.49262 0
M  V30 5031 C 511.906 4.76032 3.50924 0
M  V30 5032 H 510.836 0.500312 0.564096 0
M  V30 5033 H 513.487 1.64324 0.8167 0
M  V30 5034 H 511.869 1.99694 3.41962 0
M  V30 5035 H 513.043 4.28227 1.70171 0
M  V30 5036 H 511.358 3.80844 1.68365 0
M  V30 5037 H 513.955 3.08301 4.36869 0
M  V30 5038 H 514.298 1.43353 3.9084 0
M  V30 5039 H 514.831 2.76793 2.85711 0
M  V30 5040 H 511.57 5.75177 3.14408 0
M  V30 5041 H 511.09 4.35066 4.12889 0
M  V30 5042 H 512.769 4.94331 4.17427 0
M  V30 5043 N 512.901 -0.976442 1.23707 0
M  V30 5044 C 514.129 -1.75341 1.09833 0
M  V30 5045 C 514.544 -1.8553 -0.349885 0
M  V30 5046 O 513.901 -1.33732 -1.24185 0
M  V30 5047 C 513.952 -3.17833 1.72233 0
M  V30 5048 O 513.673 -3.08167 3.11391 0
M  V30 5049 C 515.174 -4.11906 1.63853 0
M  V30 5050 H 512.394 -0.550137 0.384175 0
M  V30 5051 H 514.938 -1.2265 1.63638 0
M  V30 5052 H 513.093 -3.67538 1.22452 0
M  V30 5053 H 513.507 -3.97897 3.41729 0
M  V30 5054 H 514.981 -5.09579 2.12211 0
M  V30 5055 H 515.458 -4.35109 0.598092 0
M  V30 5056 H 516.064 -3.68107 2.13019 0
M  V30 5057 N 514.379 -1.04941 -1.1758 0
M  V30 5058 C 515.604 -0.778253 -1.92245 0
M  V30 5059 C 516.029 0.659707 -1.76152 0
M  V30 5060 O 515.387 1.45803 -1.07755 0
M  V30 5061 C 515.435 -1.16051 -3.41416 0
M  V30 5062 O 514.539 -0.291153 -4.11371 0
M  V30 5063 H 513.88 -0.285619 -0.599431 0
M  V30 5064 H 516.41 -1.40159 -1.49052 0
M  V30 5065 H 516.42 -1.12619 -3.92149 0
M  V30 5066 H 515.095 -2.208 -3.52449 0
M  V30 5067 H 513.672 -0.385851 -3.70898 0
M  V30 5068 N 515.857 1.33968 -0.830081 0
M  V30 5069 C 516.82 2.27694 -0.26235 0
M  V30 5070 C 517.82 1.50589 0.563876 0
M  V30 5071 O 519.01 1.70028 0.378941 0
M  V30 5072 C 516.142 3.35002 0.63138 0
M  V30 5073 H 517.335 2.79419 -1.08928 0
M  V30 5074 H 514.888 1.44221 -0.602486 0
M  V30 5075 H 515.623 2.88504 1.48109 0
M  V30 5076 H 515.408 3.92079 0.0403276 0
M  V30 5077 H 516.898 4.04897 1.02217 0
M  V30 5078 N 517.335 0.585699 1.46312 0
M  V30 5079 C 518.583 0.072278 2.01971 0
M  V30 5080 C 518.904 -1.29345 1.45928 0
M  V30 5081 O 518.174 -1.84973 0.645109 0
M  V30 5082 H 516.754 0.023729 0.746623 0
M  V30 5083 H 519.416 0.762155 1.7938 0
M  V30 5084 H 518.512 0.00552767 3.121 0
M  V30 5085 N 518.813 -1.54241 0.323641 0
M  V30 5086 C 519.745 -2.21836 -0.576311 0
M  V30 5087 C 520.758 -1.21837 -1.07979 0
M  V30 5088 O 521.947 -1.48306 -0.99336 0
M  V30 5089 C 519.047 -2.86923 -1.80356 0
M  V30 5090 C 518.22 -4.1306 -1.43875 0
M  V30 5091 C 517.279 -4.6174 -2.52353 0
M  V30 5092 O 516.305 -5.26421 -2.16494 0
M  V30 5093 N 517.507 -4.35974 -3.83284 0
M  V30 5094 H 520.272 -2.997 0.00247987 0
M  V30 5095 H 517.833 -1.61233 0.146848 0
M  V30 5096 H 519.825 -3.16414 -2.52318 0
M  V30 5097 H 518.395 -2.12765 -2.29019 0
M  V30 5098 H 517.615 -3.90334 -0.550752 0
M  V30 5099 H 518.903 -4.95148 -1.17071 0
M  V30 5100 H 518.301 -3.84203 -4.15216 0
M  V30 5101 H 516.858 -4.70119 -4.51477 0
M  V30 5102 N 520.291 -0.0518155 -1.57515 0
M  V30 5103 C 521.254 0.907547 -2.10467 0
M  V30 5104 C 522.254 1.23947 -1.02439 0
M  V30 5105 O 523.444 1.17604 -1.2851 0
M  V30 5106 C 520.576 2.21723 -2.58944 0
M  V30 5107 H 521.769 0.44851 -2.96527 0
M  V30 5108 H 519.322 0.196598 -1.55059 0
M  V30 5109 H 520.057 2.72206 -1.76279 0
M  V30 5110 H 519.842 1.98935 -3.37886 0
M  V30 5111 H 521.332 2.90441 -3.00056 0
M  V30 5112 N 521.769 1.56035 0.221574 0
M  V30 5113 C 522.701 1.889 1.29805 0
M  V30 5114 C 523.714 0.777269 1.43047 0
M  V30 5115 O 524.903 1.05557 1.43945 0
M  V30 5116 C 522.003 2.0825 2.67367 0
M  V30 5117 C 521.176 3.39267 2.76073 0
M  V30 5118 C 520.235 3.48049 3.94649 0
M  V30 5119 O 519.261 4.2108 3.82988 0
M  V30 5120 N 520.463 2.79191 5.08953 0
M  V30 5121 H 523.228 2.81831 1.01938 0
M  V30 5122 H 520.789 1.5658 0.411612 0
M  V30 5123 H 522.781 2.11441 3.45072 0
M  V30 5124 H 521.351 1.21944 2.87834 0
M  V30 5125 H 520.571 3.48175 1.84846 0
M  V30 5126 H 521.859 4.25575 2.7886 0
M  V30 5127 H 521.257 2.19635 5.21322 0
M  V30 5128 H 519.814 2.88043 5.84701 0
M  V30 5129 N 523.247 -0.488276 1.49845 0
M  V30 5130 C 524.495 -1.23911 1.59657 0
M  V30 5131 C 524.816 -1.92816 0.291005 0
M  V30 5132 O 524.086 -1.83328 -0.690485 0
M  V30 5133 H 522.666 -0.460357 0.588286 0
M  V30 5134 H 525.328 -0.564794 1.86537 0
M  V30 5135 H 524.424 -1.99625 2.39909 0
M  V30 5136 N 524.725 -1.39134 -0.740242 0
M  V30 5137 C 525.971 -1.36273 -1.50192 0
M  V30 5138 C 526.304 0.0430136 -1.94152 0
M  V30 5139 O 525.579 1.00691 -1.66408 0
M  V30 5140 C 525.862 -2.33041 -2.74525 0
M  V30 5141 C 525.715 -3.82535 -2.36617 0
M  V30 5142 C 527.034 -2.27723 -3.76604 0
M  V30 5143 H 524.153 -0.496323 -0.544823 0
M  V30 5144 H 526.795 -1.70085 -0.846815 0
M  V30 5145 H 524.945 -2.04337 -3.30422 0
M  V30 5146 H 526.617 -4.21967 -1.86391 0
M  V30 5147 H 524.86 -3.99565 -1.68909 0
M  V30 5148 H 525.531 -4.45723 -3.2563 0
M  V30 5149 H 528.007 -2.53091 -3.30279 0
M  V30 5150 H 526.883 -2.97519 -4.61274 0
M  V30 5151 H 527.144 -1.28049 -4.2315 0
M  V30 5152 N 526.204 0.969867 -1.24223 0
M  V30 5153 C 527.137 2.06279 -0.975926 0
M  V30 5154 C 528.115 1.62353 0.0895385 0
M  V30 5155 O 529.299 1.88442 -0.0469418 0
M  V30 5156 C 526.426 3.35391 -0.472315 0
M  V30 5157 C 525.472 3.98266 -1.526 0
M  V30 5158 S 526.305 4.36172 -3.10667 0
M  V30 5159 C 527.461 5.68423 -2.62003 0
M  V30 5160 H 527.694 2.28551 -1.90137 0
M  V30 5161 H 525.227 1.10748 -1.07584 0
M  V30 5162 H 527.185 4.10068 -0.188376 0
M  V30 5163 H 525.846 3.1111 0.432378 0
M  V30 5164 H 525.039 4.91307 -1.12399 0
M  V30 5165 H 524.641 3.30009 -1.75983 0
M  V30 5166 H 526.933 6.45842 -2.0468 0
M  V30 5167 H 527.876 6.13478 -3.53625 0
M  V30 5168 H 528.284 5.26928 -2.02502 0
M  V30 5169 N 527.682 1.05563 1.17022 0
M  V30 5170 C 528.907 0.788437 1.91829 0
M  V30 5171 C 529.332 -0.650356 1.76499 0
M  V30 5172 O 528.69 -1.45229 1.08527 0
M  V30 5173 C 528.738 1.1786 3.40795 0
M  V30 5174 O 527.842 0.312965 4.11211 0
M  V30 5175 H 527.183 0.288794 0.597908 0
M  V30 5176 H 529.713 1.40948 1.48307 0
M  V30 5177 H 529.723 1.14697 3.91546 0
M  V30 5178 H 528.398 2.22666 3.51273 0
M  V30 5179 H 526.975 0.405515 3.70689 0
M  V30 5180 N 529.16 -1.33526 0.837174 0
M  V30 5181 C 530.408 -1.97446 0.431211 0
M  V30 5182 C 530.729 -1.6665 -1.01255 0
M  V30 5183 O 529.999 -0.964559 -1.70508 0
M  V30 5184 H 528.579 -0.73043 0.156463 0
M  V30 5185 H 531.241 -1.62918 1.06976 0
M  V30 5186 H 530.337 -3.07001 0.561877 0
M  V30 5187 N 530.638 -0.59345 -1.46 0
M  V30 5188 C 531.886 -0.082988 -2.0193 0
M  V30 5189 C 532.207 1.28569 -1.46612 0
M  V30 5190 O 531.477 1.84629 -0.654909 0
M  V30 5191 H 530.057 -0.0276882 -0.746487 0
M  V30 5192 H 532.719 -0.771657 -1.78973 0
M  V30 5193 H 531.815 -0.022079 -3.12092 0
M  V30 5194 N 532.116 1.54067 -0.331816 0
M  V30 5195 C 533.064 2.26105 0.54582 0
M  V30 5196 C 534.058 1.27816 1.11173 0
M  V30 5197 O 535.264 1.45565 1.05882 0
M  V30 5198 H 531.639 0.726363 0.194683 0
M  V30 5199 H 533.61 2.98282 -0.083931 0
M  V30 5200 C 532.359 3.03814 1.69092 0
M  V30 5201 H 531.682 3.79269 1.26473 0
M  V30 5202 H 533.122 3.57453 2.28043 0
M  V30 5203 C 531.581 2.12606 2.61343 0
M  V30 5204 O 532.111 1.71437 3.6328 0
M  V30 5205 N 530.317 1.77925 2.29763 0
M  V30 5206 H 529.864 2.11602 1.46909 0
M  V30 5207 H 529.822 1.1718 2.91747 0
M  V30 5208 N 533.594 0.0601682 1.57485 0
M  V30 5209 C 534.84 -0.612501 1.93329 0
M  V30 5210 C 535.173 -1.6996 0.939526 0
M  V30 5211 O 534.448 -1.94472 -0.0330957 0
M  V30 5212 C 534.731 -1.20025 3.39508 0
M  V30 5213 C 534.584 -0.12059 4.49638 0
M  V30 5214 C 535.903 -2.10923 3.86264 0
M  V30 5215 H 533.022 -0.221185 0.703027 0
M  V30 5216 H 535.664 0.123768 1.89596 0
M  V30 5217 H 533.814 -1.82774 3.42821 0
M  V30 5218 H 535.486 0.51185 4.58452 0
M  V30 5219 H 533.729 0.550251 4.30296 0
M  V30 5220 H 534.4 -0.572019 5.49028 0
M  V30 5221 H 536.876 -1.58124 3.84884 0
M  V30 5222 H 535.752 -2.48987 4.8918 0
M  V30 5223 H 536.013 -3.01292 3.23536 0
M  V30 5224 N 535.072 -1.5615 -0.213296 0
M  V30 5225 C 536.004 -1.89586 -1.28802 0
M  V30 5226 C 537.017 -0.784844 -1.42633 0
M  V30 5227 O 538.206 -1.06319 -1.43383 0
M  V30 5228 C 535.306 -2.09665 -2.66259 0
M  V30 5229 C 534.479 -3.40726 -2.7427 0
M  V30 5230 C 533.538 -3.50137 -3.92798 0
M  V30 5231 O 532.564 -4.23105 -3.8075 0
M  V30 5232 N 533.766 -2.81886 -5.07465 0
M  V30 5233 H 536.531 -2.82368 -1.00442 0
M  V30 5234 H 534.092 -1.56796 -0.403302 0
M  V30 5235 H 536.084 -2.13268 -3.43946 0
M  V30 5236 H 534.654 -1.23469 -2.87183 0
M  V30 5237 H 533.874 -3.4915 -1.82997 0
M  V30 5238 H 535.162 -4.27048 -2.76599 0
M  V30 5239 H 534.56 -2.22397 -5.2015 0
M  V30 5240 H 533.117 -2.91139 -5.83165 0
M  V30 5241 N 536.55 0.480323 -1.50102 0
M  V30 5242 C 537.775 1.26126 -1.64642 0
M  V30 5243 C 538.2 1.85257 -0.325823 0
M  V30 5244 O 537.558 1.66854 0.709194 0
M  V30 5245 C 537.606 2.35243 -2.73301 0
M  V30 5246 O 536.71 3.39646 -2.33911 0
M  V30 5247 H 536.051 0.371463 -0.550374 0
M  V30 5248 H 538.581 0.572696 -1.96421 0
M  V30 5249 H 538.591 2.80695 -2.96098 0
M  V30 5250 H 537.266 1.91574 -3.6915 0
M  V30 5251 H 535.843 2.99969 -2.21525 0
M  V30 5252 N 538.028 1.39524 0.732853 0
M  V30 5253 C 538.976 1.38563 1.86824 0
M  V30 5254 C 539.97 0.268467 1.67259 0
M  V30 5255 O 541.176 0.438613 1.74574 0
M  V30 5256 H 537.551 0.432737 0.615014 0
M  V30 5257 H 539.522 2.34328 1.84751 0
M  V30 5258 C 538.271 1.2481 3.24527 0
M  V30 5259 H 537.594 2.10044 3.40179 0
M  V30 5260 H 539.034 1.28194 4.04156 0
M  V30 5261 C 537.493 -0.0432825 3.36872 0
M  V30 5262 O 538.023 -1.01268 3.88726 0
M  V30 5263 N 536.229 -0.107055 2.90403 0
M  V30 5264 H 535.776 0.682512 2.48394 0
M  V30 5265 H 535.734 -0.970618 2.99042 0
M  V30 5266 N 539.506 -0.963266 1.24736 0
M  V30 5267 C 540.754 -1.70343 1.08755 0
M  V30 5268 C 541.075 -1.91387 -0.373619 0
M  V30 5269 O 540.345 -1.4948 -1.2662 0
M  V30 5270 H 538.925 -0.631224 0.399456 0
M  V30 5271 H 541.587 -1.15859 1.56725 0
M  V30 5272 H 540.683 -2.68616 1.58909 0
M  V30 5273 N 540.985 -1.06182 -1.16461 0
M  V30 5274 C 541.933 -0.665716 -2.2287 0
M  V30 5275 C 542.927 0.317822 -1.66392 0
M  V30 5276 O 544.133 0.182807 -1.79069 0
M  V30 5277 H 540.508 -0.197148 -0.725697 0
M  V30 5278 H 542.479 -1.57307 -2.53569 0
M  V30 5279 C 541.228 -0.0669803 -3.47635 0
M  V30 5280 H 540.551 -0.814899 -3.91407 0
M  V30 5281 H 541.991 0.172669 -4.23648 0
M  V30 5282 C 540.45 1.18913 -3.15216 0
M  V30 5283 O 540.98 2.27723 -3.30916 0
M  V30 5284 N 539.186 1.09066 -2.69357 0
M  V30 5285 H 538.733 0.20518 -2.56782 0
M  V30 5286 H 538.691 1.93195 -2.48039 0
M  V30 5287 N 542.463 1.3308 -0.844243 0
M  V30 5288 C 543.411 2.31028 -0.269954 0
M  V30 5289 C 544.405 1.58381 0.600997 0
M  V30 5290 O 545.611 1.73203 0.48996 0
M  V30 5291 H 541.986 0.748866 -0.0685782 0
M  V30 5292 H 543.957 2.76967 -1.11049 0
M  V30 5293 C 542.706 3.43549 0.535676 0
M  V30 5294 H 542.029 3.99604 -0.125202 0
M  V30 5295 H 543.469 4.14267 0.903262 0
M  V30 5296 C 541.928 2.8988 1.71672 0
M  V30 5297 O 542.458 2.86511 2.81557 0
M  V30 5298 N 540.664 2.46416 1.54037 0
M  V30 5299 H 540.211 2.49356 0.64649 0
M  V30 5300 H 540.169 2.1086 2.33207 0
M  V30 5301 N 543.941 0.601185 1.45683 0
M  V30 5302 C 545.181 0.0968037 2.04171 0
M  V30 5303 C 545.545 -1.2466 1.46027 0
M  V30 5304 O 546.746 -1.84132 1.95829 0
M  V30 5305 C 545.017 0.051384 3.57363 0
M  V30 5306 S 546.576 -0.392737 4.37039 0
M  V30 5307 H 543.394 0.0464504 0.709481 0
M  V30 5308 H 545.996 0.797846 1.78479 0
M  V30 5309 H 544.7 1.03274 3.97193 0
M  V30 5310 H 544.231 -0.671853 3.87621 0
M  V30 5311 H 546.246 -1.64364 4.68187 0
M  V30 5312 N 545.419 -1.53889 0.339982 0
M  V30 5313 C 546.667 -2.00458 -0.257112 0
M  V30 5314 C 546.988 -1.22953 -1.51353 0
M  V30 5315 O 546.258 -0.335734 -1.93002 0
M  V30 5316 H 544.838 -0.740544 -0.0979965 0
M  V30 5317 H 547.5 -1.89386 0.460317 0
M  V30 5318 H 546.596 -3.08035 -0.502057 0
M  V30 5319 N 546.897 -0.0685191 -1.57451 0
M  V30 5320 C 548.146 0.600898 -1.92541 0
M  V30 5321 C 548.459 1.70967 -0.950239 0
M  V30 5322 O 549.665 2.43844 -1.19384 0
M  V30 5323 C 548.121 1.12019 -3.42023 0
M  V30 5324 C 547.729 0.0426028 -4.4798 0
M  V30 5325 C 549.473 1.76386 -3.86119 0
M  V30 5326 C 547.38 0.575759 -5.88591 0
M  V30 5327 H 546.31 0.228225 -0.71863 0
M  V30 5328 H 548.961 -0.140223 -1.82963 0
M  V30 5329 H 547.343 1.91418 -3.46663 0
M  V30 5330 H 548.517 -0.73182 -4.54952 0
M  V30 5331 H 546.832 -0.504642 -4.13331 0
M  V30 5332 H 549.429 2.17302 -4.88553 0
M  V30 5333 H 549.772 2.62255 -3.23308 0
M  V30 5334 H 550.305 1.03615 -3.84069 0
M  V30 5335 H 547.044 -0.245691 -6.55039 0
M  V30 5336 H 546.564 1.31778 -5.85145 0
M  V30 5337 H 548.243 1.0532 -6.3837 0
M  V30 5338 N 548.375 1.56261 0.205012 0
M  V30 5339 C 549.786 1.70056 0.770574 0
M  V30 5340 C 550.137 0.673398 1.84282 0
M  V30 5341 O 549.262 -0.172196 2.15714 0
M  V30 5342 C 549.857 3.08316 1.40451 0
M  V30 5343 C 548.416 3.2391 1.91727 0
M  V30 5344 C 547.563 2.66001 0.783516 0
M  V30 5345 H 550.514 1.58688 -0.019911 0
M  V30 5346 H 550.535 3.05094 2.27371 0
M  V30 5347 H 550.047 3.83053 0.623882 0
M  V30 5348 H 548.148 2.54072 2.7254 0
M  V30 5349 H 548.261 4.3131 2.08588 0
M  V30 5350 H 546.625 2.24915 1.19521 0
M  V30 5351 H 547.408 3.43297 0.0152883 0
M  V30 5352 N 549.853 -0.472356 1.50355 0
M  V30 5353 C 550.816 -1.5529 1.68576 0
M  V30 5354 C 551.816 -1.50863 0.556511 0
M  V30 5355 O 553.006 -1.53505 0.823516 0
M  V30 5356 C 550.138 -2.94921 1.70981 0
M  V30 5357 H 551.331 -1.40451 2.64978 0
M  V30 5358 H 548.884 -0.698645 1.39816 0
M  V30 5359 H 549.619 -3.15204 0.762675 0
M  V30 5360 H 549.404 -2.99541 2.53017 0
M  V30 5361 H 550.894 -3.73372 1.87037 0
M  V30 5362 N 551.331 -1.39911 -0.725443 0
M  V30 5363 C 552.556 -1.41137 -1.5197 0
M  V30 5364 C 552.981 -0.010262 -1.88097 0
M  V30 5365 O 552.339 0.979184 -1.52583 0
M  V30 5366 C 552.387 -2.2994 -2.77777 0
M  V30 5367 O 551.491 -1.73586 -3.74088 0
M  V30 5368 H 550.832 -0.480219 -0.458569 0
M  V30 5369 H 553.362 -1.84023 -0.894249 0
M  V30 5370 H 553.372 -2.44785 -3.26411 0
M  V30 5371 H 552.047 -3.31759 -2.50816 0
M  V30 5372 H 550.624 -1.68035 -3.32894 0
M  V30 5373 N 552.809 0.956637 -1.25245 0
M  V30 5374 C 553.741 2.05628 -1.01242 0
M  V30 5375 C 554.754 1.62785 0.0219579 0
M  V30 5376 O 555.943 1.77184 -0.216365 0
M  V30 5377 C 553.043 3.35069 -0.508161 0
M  V30 5378 C 552.216 4.06761 -1.60823 0
M  V30 5379 C 551.275 5.14473 -1.1047 0
M  V30 5380 O 550.301 5.40033 -1.79868 0
M  V30 5381 N 551.503 5.80474 0.0550773 0
M  V30 5382 H 554.268 2.2679 -1.95925 0
M  V30 5383 H 551.829 1.12505 -1.16423 0
M  V30 5384 H 553.821 4.044 -0.155819 0
M  V30 5385 H 552.391 3.10694 0.344683 0
M  V30 5386 H 551.611 3.31555 -2.13224 0
M  V30 5387 H 552.899 4.51418 -2.34733 0
M  V30 5388 H 552.297 5.62125 0.635004 0
M  V30 5389 H 550.854 6.50868 0.348469 0
M  V30 5390 N 554.287 1.06798 1.15896 0
M  V30 5391 C 555.703 0.792423 1.38538 0
M  V30 5392 C 555.903 -0.60592 1.92174 0
M  V30 5393 O 554.959 -1.36561 2.12385 0
M  V30 5394 C 556.272 1.86157 2.36149 0
M  V30 5395 C 557.82 1.88567 2.49823 0
M  V30 5396 C 558.295 2.9455 3.5072 0
M  V30 5397 N 559.786 2.93616 3.58251 0
M  V30 5398 C 560.521 3.72267 4.36125 0
M  V30 5399 N 560.017 4.60751 5.17379 0
M  V30 5400 N 561.81 3.60637 4.31158 0
M  V30 5401 H 553.961 1.96993 0.794198 0
M  V30 5402 H 556.224 0.853942 0.411688 0
M  V30 5403 H 555.93 2.86603 2.03843 0
M  V30 5404 H 555.804 1.71692 3.3586 0
M  V30 5405 H 558.191 0.887765 2.8143 0
M  V30 5406 H 558.272 2.0711 1.5013 0
M  V30 5407 H 557.916 3.94537 3.19849 0
M  V30 5408 H 557.846 2.73255 4.50155 0
M  V30 5409 H 560.337 2.29472 3.00252 0
M  V30 5410 H 560.65 5.17408 5.74028 0
M  V30 5411 H 558.995 4.64803 5.16704 0
M  V30 5412 H 562.186 2.90892 3.66742 0
M  V30 5413 H 562.359 4.22176 4.91601 0
M  V30 5414 N 555.766 -1.3263 0.851289 0
M  V30 5415 C 556.991 -2.02097 0.466006 0
M  V30 5416 C 557.416 -1.63574 -0.928709 0
M  V30 5417 O 556.774 -0.834665 -1.60944 0
M  V30 5418 C 556.822 -3.55425 0.608737 0
M  V30 5419 O 555.926 -4.10827 -0.359878 0
M  V30 5420 H 555.267 -0.636911 0.187724 0
M  V30 5421 H 557.797 -1.69253 1.14955 0
M  V30 5422 H 557.807 -4.04986 0.495006 0
M  V30 5423 H 556.482 -3.82806 1.62581 0
M  V30 5424 H 555.059 -3.72349 -0.202666 0
M  V30 5425 N 557.244 -0.608902 -1.45362 0
M  V30 5426 C 558.469 -0.10921 -2.07112 0
M  V30 5427 C 558.894 1.19779 -1.45033 0
M  V30 5428 O 558.252 1.72961 -0.543527 0
M  V30 5429 C 558.3 0.0155745 -3.60597 0
M  V30 5430 O 557.404 1.06546 -3.98399 0
M  V30 5431 H 556.745 -0.0746619 -0.659789 0
M  V30 5432 H 559.275 -0.839283 -1.86594 0
M  V30 5433 H 559.285 0.213364 -4.07442 0
M  V30 5434 H 557.96 -0.938765 -4.05167 0
M  V30 5435 H 556.537 0.844024 -3.63223 0
M  V30 5436 N 558.722 1.53707 -0.348139 0
M  V30 5437 C 559.652 2.28111 0.498766 0
M  V30 5438 C 560.633 1.29851 1.09876 0
M  V30 5439 O 561.818 1.587 1.11928 0
M  V30 5440 C 558.948 3.05735 1.64753 0
M  V30 5441 C 557.902 4.11537 1.17565 0
M  V30 5442 C 557.228 4.77142 2.4133 0
M  V30 5443 C 558.528 5.21587 0.272844 0
M  V30 5444 H 560.222 2.99152 -0.121934 0
M  V30 5445 H 557.768 1.43875 -0.0600842 0
M  V30 5446 H 559.721 3.56526 2.24649 0
M  V30 5447 H 558.445 2.32354 2.2952 0
M  V30 5448 H 557.104 3.61665 0.599483 0
M  V30 5449 H 556.752 4.0035 3.04514 0
M  V30 5450 H 556.452 5.48626 2.10436 0
M  V30 5451 H 557.976 5.30719 3.01943 0
M  V30 5452 H 559.39 5.67986 0.778779 0
M  V30 5453 H 557.787 6.00074 0.0555849 0
M  V30 5454 H 558.857 4.79969 -0.689785 0
M  V30 5455 N 560.2 0.0768682 1.57412 0
M  V30 5456 C 561.447 -0.591085 1.93681 0
M  V30 5457 C 561.775 -1.69311 0.957286 0
M  V30 5458 O 561.03 -1.95682 -0.0262428 0
M  V30 5459 C 561.329 -1.20268 3.36557 0
M  V30 5460 C 560.995 -0.226286 4.50332 0
M  V30 5461 C 559.657 0.0423142 4.81181 0
M  V30 5462 C 562.009 0.441415 5.19327 0
M  V30 5463 C 559.337 0.985616 5.78362 0
M  V30 5464 C 561.689 1.37307 6.17519 0
M  V30 5465 C 560.353 1.65009 6.46783 0
M  V30 5466 H 559.623 -0.216293 0.70873 0
M  V30 5467 H 562.27 0.148824 1.90921 0
M  V30 5468 H 560.575 -2.01844 3.35807 0
M  V30 5469 H 562.272 -1.72688 3.61911 0
M  V30 5470 H 558.862 -0.445821 4.26275 0
M  V30 5471 H 563.046 0.247023 4.95685 0
M  V30 5472 H 558.302 1.20743 5.99359 0
M  V30 5473 H 562.476 1.89637 6.70083 0
M  V30 5474 H 560.103 2.38263 7.21897 0
M  V30 5475 N 561.678 -1.56367 -0.196722 0
M  V30 5476 C 562.588 -1.97617 -1.2643 0
M  V30 5477 C 563.604 -0.883598 -1.49895 0
M  V30 5478 O 564.78 -1.18921 -1.62541 0
M  V30 5479 C 561.845 -2.30595 -2.58895 0
M  V30 5480 C 560.906 -3.53551 -2.43516 0
M  V30 5481 C 560.139 -3.84946 -3.69665 0
M  V30 5482 O 560.362 -3.17655 -4.73763 0
M  V30 5483 O 559.296 -4.78379 -3.65291 0
M  V30 5484 H 563.122 -2.88648 -0.944233 0
M  V30 5485 H 560.707 -1.43901 -0.401592 0
M  V30 5486 H 562.589 -2.52889 -3.37083 0
M  V30 5487 H 561.264 -1.42732 -2.90533 0
M  V30 5488 H 560.171 -3.36507 -1.63445 0
M  V30 5489 H 561.504 -4.41875 -2.16812 0
M  V30 5490 N 563.156 0.464375 -1.50603 0
M  V30 5491 C 564.572 0.798684 -1.38178 0
M  V30 5492 C 564.772 1.96568 -0.44308 0
M  V30 5493 O 563.828 2.52252 0.111814 0
M  V30 5494 C 565.141 1.10444 -2.79683 0
M  V30 5495 C 566.689 1.2105 -2.88645 0
M  V30 5496 C 567.164 1.54934 -4.30998 0
M  V30 5497 N 568.655 1.61913 -4.3398 0
M  V30 5498 C 569.39 1.8965 -5.41129 0
M  V30 5499 N 568.886 2.15361 -6.58477 0
M  V30 5500 N 570.679 1.91207 -5.28579 0
M  V30 5501 H 562.83 -0.304603 -2.10204 0
M  V30 5502 H 565.093 -0.0737804 -0.945125 0
M  V30 5503 H 564.799 0.319934 -3.50242 0
M  V30 5504 H 564.673 2.03896 -3.17342 0
M  V30 5505 H 567.06 1.98567 -2.18301 0
M  V30 5506 H 567.141 0.255613 -2.5452 0
M  V30 5507 H 566.785 0.779549 -5.01882 0
M  V30 5508 H 566.715 2.51584 -4.62615 0
M  V30 5509 H 569.206 1.44055 -3.49366 0
M  V30 5510 H 569.519 2.35818 -7.35941 0
M  V30 5511 H 567.864 2.1274 -6.6164 0
M  V30 5512 H 571.055 1.70622 -4.35897 0
M  V30 5513 H 571.228 2.12488 -6.12171 0
M  V30 5514 N 564.634 1.40294 0.718013 0
M  V30 5515 C 565.564 1.43118 1.84498 0
M  V30 5516 C 566.545 0.292403 1.67568 0
M  V30 5517 O 567.73 0.500675 1.87635 0
M  V30 5518 C 564.86 1.29065 3.22427 0
M  V30 5519 C 563.814 2.40521 3.54025 0
M  V30 5520 C 563.14 2.11546 4.91073 0
M  V30 5521 C 564.44 3.82859 3.55269 0
M  V30 5522 H 566.134 2.37432 1.82391 0
M  V30 5523 H 563.68 1.14283 0.87609 0
M  V30 5524 H 565.633 1.29658 4.00957 0
M  V30 5525 H 564.357 0.312271 3.25104 0
M  V30 5526 H 563.016 2.39173 2.77834 0
M  V30 5527 H 562.664 1.12104 4.90348 0
M  V30 5528 H 562.364 2.86216 5.1318 0
M  V30 5529 H 563.888 2.13817 5.71939 0
M  V30 5530 H 565.302 3.86044 4.23843 0
M  V30 5531 H 563.699 4.57029 3.88902 0
M  V30 5532 H 564.769 4.12617 2.54706 0
M  V30 5533 N 566.112 -0.949982 1.2575 0
M  V30 5534 C 567.044 -2.05088 1.02331 0
M  V30 5535 C 568.057 -1.62795 -0.0133247 0
M  V30 5536 O 569.246 -1.77067 0.225759 0
M  V30 5537 C 566.346 -3.34794 0.525924 0
M  V30 5538 C 565.519 -4.05903 1.62978 0
M  V30 5539 C 564.578 -5.1388 1.13196 0
M  V30 5540 O 563.604 -5.39072 1.82729 0
M  V30 5541 N 564.806 -5.80495 -0.0242926 0
M  V30 5542 H 567.571 -2.25747 1.97125 0
M  V30 5543 H 565.132 -1.11886 1.17018 0
M  V30 5544 H 567.124 -4.04312 0.177263 0
M  V30 5545 H 565.694 -3.10872 -0.328202 0
M  V30 5546 H 564.914 -3.3042 2.1498 0
M  V30 5547 H 566.202 -4.50166 2.37124 0
M  V30 5548 H 565.6 -5.62454 -0.605184 0
M  V30 5549 H 564.157 -6.51043 -0.313947 0
M  V30 5550 N 567.59 -1.07411 -1.15328 0
M  V30 5551 C 569.001 -0.820261 -1.67716 0
M  V30 5552 C 569.352 0.654539 -1.8496 0
M  V30 5553 O 568.477 1.50664 -1.55337 0
M  V30 5554 C 569.072 -1.48242 -3.04647 0
M  V30 5555 C 567.631 -1.27606 -3.5411 0
M  V30 5556 C 566.778 -1.5517 -2.29821 0
M  V30 5557 H 569.729 -1.23608 -0.995332 0
M  V30 5558 H 569.75 -0.903984 -3.69606 0
M  V30 5559 H 569.262 -2.55578 -2.92064 0
M  V30 5560 H 567.363 -0.222948 -3.71932 0
M  V30 5561 H 567.476 -1.99667 -4.35511 0
M  V30 5562 H 565.84 -0.972747 -2.35393 0
M  V30 5563 H 566.623 -2.63689 -2.19824 0
M  V30 5564 N 569.068 1.32177 -0.85831 0
M  V30 5565 C 570.317 1.96392 -0.459689 0
M  V30 5566 C 570.63 1.68659 0.990632 0
M  V30 5567 O 571.836 2.26641 1.49485 0
M  V30 5568 C 570.292 3.51542 -0.7711 0
M  V30 5569 C 569.9 3.8813 -2.2374 0
M  V30 5570 C 571.644 4.2221 -0.44038 0
M  V30 5571 C 569.551 5.36341 -2.49183 0
M  V30 5572 H 568.481 0.735007 -0.168169 0
M  V30 5573 H 571.132 1.50518 -1.0496 0
M  V30 5574 H 569.514 3.95846 -0.11058 0
M  V30 5575 H 570.688 3.54824 -2.94001 0
M  V30 5576 H 569.003 3.30497 -2.533 0
M  V30 5577 H 571.6 5.31234 -0.607855 0
M  V30 5578 H 571.943 4.11683 0.618291 0
M  V30 5579 H 572.476 3.83502 -1.05695 0
M  V30 5580 H 569.215 5.51892 -3.53689 0
M  V30 5581 H 568.735 5.7104 -1.83504 0
M  V30 5582 H 570.414 6.03466 -2.33318 0
M  V30 5583 N 570.547 0.616602 1.45037 0
M  V30 5584 C 571.477 -0.0840787 2.33349 0
M  V30 5585 C 572.458 -0.849641 1.4736 0
M  V30 5586 O 573.643 -0.818407 1.76113 0
M  V30 5587 C 570.773 -1.07604 3.3021 0
M  V30 5588 C 569.727 -0.423096 4.25904 0
M  V30 5589 C 569.053 -1.52394 5.12523 0
M  V30 5590 C 570.353 0.661457 5.18095 0
M  V30 5591 H 572.047 0.653333 2.92185 0
M  V30 5592 H 569.593 0.315634 1.40498 0
M  V30 5593 H 571.546 -1.57485 3.90866 0
M  V30 5594 H 570.27 -1.84416 2.69552 0
M  V30 5595 H 568.929 0.05493 3.66559 0
M  V30 5596 H 568.577 -2.28257 4.48227 0
M  V30 5597 H 568.277 -1.09251 5.77354 0
M  V30 5598 H 569.801 -2.02485 5.76049 0
M  V30 5599 H 571.215 0.246353 5.7277 0
M  V30 5600 H 569.612 1.01517 5.91451 0
M  V30 5601 H 570.682 1.53446 4.59981 0
M  V30 5602 N 572.025 -1.5352 0.356285 0
M  V30 5603 C 573.25 -2.06007 -0.239961 0
M  V30 5604 C 573.675 -1.22872 -1.42422 0
M  V30 5605 O 573.033 -0.245516 -1.7963 0
M  V30 5606 C 573.081 -3.5522 -0.620587 0
M  V30 5607 O 572.185 -3.74864 -1.71902 0
M  V30 5608 H 571.526 -0.662961 -0.0371377 0
M  V30 5609 H 574.056 -1.98033 0.514194 0
M  V30 5610 H 574.066 -3.98081 -0.894197 0
M  V30 5611 H 572.741 -4.15175 0.245407 0
M  V30 5612 H 571.318 -3.43904 -1.44169 0
M  V30 5613 N 573.503 -0.0852151 -1.57369 0
M  V30 5614 C 574.435 0.907099 -2.10486 0
M  V30 5615 C 575.448 1.25259 -1.03991 0
M  V30 5616 O 576.637 1.20743 -1.31467 0
M  V30 5617 C 573.737 2.21908 -2.56145 0
M  V30 5618 C 572.91 2.05042 -3.86363 0
M  V30 5619 C 571.969 3.19664 -4.17973 0
M  V30 5620 O 570.995 2.94062 -4.87356 0
M  V30 5621 N 572.197 4.45151 -3.72587 0
M  V30 5622 H 574.962 0.453505 -2.96249 0
M  V30 5623 H 572.523 0.100157 -1.6159 0
M  V30 5624 H 574.515 2.97519 -2.74343 0
M  V30 5625 H 573.085 2.58723 -1.75446 0
M  V30 5626 H 572.305 1.13819 -3.77411 0
M  V30 5627 H 573.593 1.91039 -4.71574 0
M  V30 5628 H 572.991 4.68834 -3.16561 0
M  V30 5629 H 571.548 5.17744 -3.9596 0
M  V30 5630 N 574.981 1.5647 0.188427 0
M  V30 5631 C 576.211 1.84863 0.922463 0
M  V30 5632 C 576.619 0.666413 1.77075 0
M  V30 5633 O 575.962 -0.374044 1.79852 0
M  V30 5634 C 576.024 3.07447 1.86324 0
M  V30 5635 C 575.688 4.41066 1.19625 0
M  V30 5636 C 576.685 5.16767 0.569946 0
M  V30 5637 C 574.37 4.87802 1.19811 0
M  V30 5638 C 576.364 6.37384 -0.045594 0
M  V30 5639 C 574.051 6.08353 0.57874 0
M  V30 5640 C 575.049 6.82987 -0.0420259 0
M  V30 5641 O 574.737 8.01254 -0.651675 0
M  V30 5642 H 574.469 0.61784 0.274316 0
M  V30 5643 H 577.023 2.04437 0.198613 0
M  V30 5644 H 575.253 2.83774 2.62696 0
M  V30 5645 H 576.942 3.2243 2.46564 0
M  V30 5646 H 577.708 4.81749 0.560601 0
M  V30 5647 H 573.587 4.29662 1.67069 0
M  V30 5648 H 577.131 6.95578 -0.530731 0
M  V30 5649 H 573.028 6.42838 0.58561 0
M  V30 5650 H 573.796 8.16655 -0.549236 0
M  V30 5651 N 576.459 -0.456382 1.50847 0
M  V30 5652 C 577.707 -1.20497 1.62249 0
M  V30 5653 C 578.028 -1.92156 0.331839 0
M  V30 5654 O 577.298 -1.84751 -0.651443 0
M  V30 5655 H 575.878 -0.447775 0.597918 0
M  V30 5656 H 578.54 -0.525099 1.87693 0
M  V30 5657 H 577.636 -1.94492 2.44089 0
M  V30 5658 N 577.937 -1.40673 -0.710563 0
M  V30 5659 C 578.867 -1.44095 -1.83736 0
M  V30 5660 C 579.848 -0.301286 -1.67411 0
M  V30 5661 O 581.033 -0.510618 -1.87367 0
M  V30 5662 C 578.163 -1.30773 -3.21738 0
M  V30 5663 C 577.117 -2.42395 -3.52745 0
M  V30 5664 C 576.443 -2.14147 -4.89944 0
M  V30 5665 C 577.743 -3.84738 -3.53234 0
M  V30 5666 H 579.437 -2.38396 -1.81129 0
M  V30 5667 H 576.983 -1.14746 -0.870017 0
M  V30 5668 H 578.936 -1.31783 -4.00264 0
M  V30 5669 H 577.66 -0.329507 -3.24934 0
M  V30 5670 H 576.319 -2.40643 -2.76562 0
M  V30 5671 H 575.967 -1.14703 -4.89747 0
M  V30 5672 H 575.667 -2.88934 -5.11655 0
M  V30 5673 H 577.191 -2.16848 -5.70797 0
M  V30 5674 H 578.605 -3.88286 -4.2179 0
M  V30 5675 H 577.002 -4.59085 -3.86473 0
M  V30 5676 H 578.072 -4.13962 -2.52514 0
M  V30 5677 N 579.415 0.9433 -1.26252 0
M  V30 5678 C 580.64 1.72898 -1.14547 0
M  V30 5679 C 581.065 1.85761 0.295743 0
M  V30 5680 O 580.423 1.3463 1.21427 0
M  V30 5681 C 580.471 3.11471 -1.8171 0
M  V30 5682 O 579.575 3.97336 -1.10445 0
M  V30 5683 H 578.916 0.530555 -0.399259 0
M  V30 5684 H 581.446 1.18159 -1.67032 0
M  V30 5685 H 581.456 3.61872 -1.88449 0
M  V30 5686 H 580.131 3.01425 -2.86558 0
M  V30 5687 H 578.708 3.55788 -1.11666 0
M  V30 5688 N 580.893 1.08022 1.14757 0
M  V30 5689 C 581.823 0.728248 2.21853 0
M  V30 5690 C 582.804 -0.287486 1.67653 0
M  V30 5691 O 583.989 -0.158727 1.9355 0
M  V30 5692 C 581.119 0.132549 3.47047 0
M  V30 5693 C 580.073 1.07619 4.14249 0
M  V30 5694 C 579.399 0.342907 5.33599 0
M  V30 5695 C 580.699 2.41268 4.63235 0
M  V30 5696 H 582.393 1.62365 2.51551 0
M  V30 5697 H 579.939 0.782125 1.20908 0
M  V30 5698 H 581.892 -0.125665 4.21213 0
M  V30 5699 H 580.616 -0.797971 3.16702 0
M  V30 5700 H 579.275 1.31944 3.42033 0
M  V30 5701 H 578.923 -0.59129 4.99513 0
M  V30 5702 H 578.623 0.971955 5.79506 0
M  V30 5703 H 580.147 0.0926538 6.1053 0
M  V30 5704 H 581.561 2.21232 5.28894 0
M  V30 5705 H 579.958 2.9983 5.19829 0
M  V30 5706 H 581.028 3.03079 3.78512 0
M  V30 5707 N 582.371 -1.3172 0.865308 0
M  V30 5708 C 583.617 -1.97168 0.474633 0
M  V30 5709 C 583.95 -1.68263 -0.969604 0
M  V30 5710 O 583.225 -0.976588 -1.68205 0
M  V30 5711 C 583.508 -3.52689 0.726808 0
M  V30 5712 C 583.361 -3.91185 2.22024 0
M  V30 5713 C 584.68 -4.39689 0.190201 0
M  V30 5714 H 581.799 -0.716185 0.17392 0
M  V30 5715 H 584.441 -1.55925 1.08569 0
M  V30 5716 H 582.591 -3.8795 0.206705 0
M  V30 5717 H 584.263 -3.66049 2.80724 0
M  V30 5718 H 582.506 -3.3996 2.69462 0
M  V30 5719 H 583.177 -4.99604 2.34735 0
M  V30 5720 H 585.653 -4.11225 0.635103 0
M  V30 5721 H 584.529 -5.47469 0.396132 0
M  V30 5722 H 584.79 -4.32683 -0.907625 0
M  V30 5723 N 583.85 -0.624285 -1.44708 0
M  V30 5724 C 585.077 -0.132919 -2.06473 0
M  V30 5725 C 585.493 1.18967 -1.46602 0
M  V30 5726 O 584.85 1.72824 -0.586341 0
M  V30 5727 C 584.901 -0.00465418 -3.615 0
M  V30 5728 O 584.622 -1.27494 -4.19138 0
M  V30 5729 C 586.123 0.516213 -4.40284 0
M  V30 5730 H 583.343 -0.0765201 -0.666623 0
M  V30 5731 H 585.887 -0.856751 -1.85688 0
M  V30 5732 H 584.042 0.669583 -3.8157 0
M  V30 5733 H 584.456 -1.11536 -5.12504 0
M  V30 5734 H 585.93 0.554994 -5.49203 0
M  V30 5735 H 586.407 1.5419 -4.11245 0
M  V30 5736 H 587.013 -0.124542 -4.25118 0
M  V30 5737 N 585.328 1.53329 -0.364422 0
M  V30 5738 C 586.576 2.00842 0.225189 0
M  V30 5739 C 586.897 1.25345 1.49378 0
M  V30 5740 O 586.167 0.366396 1.92443 0
M  V30 5741 H 584.747 0.742009 0.0862027 0
M  V30 5742 H 587.409 1.8863 -0.490389 0
M  V30 5743 H 586.505 3.08795 0.452987 0
M  V30 5744 O 586.845 0.233579 1.59802 0
M  V30 5745 H 587.536 -0.344607 1.9061 0
M  V30 END ATOM
M  V30 BEGIN BOND
M  V30 END BOND
M  V30 END CTAB
M  END
$$$$
