drugbank_target|P00805 L-asparaginase 2 (DB01817)
 OpenBabel12092119523D

  0  0  0     0  0            999 V3000
M  V30 BEGIN CTAB
M  V30 COUNTS 5182 5222 0 0 0
M  V30 BEGIN ATOM
M  V30 1 H -0.908 1.98254 -0.117106 0
M  V30 2 N 0 1.576 0 0
M  V30 3 C 0.933 2.03868 1.02534 0
M  V30 4 C 1.911 0.928543 1.3348 0
M  V30 5 O 3.095 1.19667 1.45644 0
M  V30 6 C 0.222 2.43627 2.35294 0
M  V30 7 C -0.732 3.65373 2.2001 0
M  V30 8 S 0.101 5.13292 1.52614 0
M  V30 9 C 1.257 5.56322 2.86805 0
M  V30 10 H 1.49 2.90518 0.631377 0
M  V30 11 H -0.977 1.52953 0.210867 0
M  V30 12 H 0.981 2.67203 3.11629 0
M  V30 13 H -0.358 1.57376 2.7183 0
M  V30 14 H -1.165 3.90944 3.18086 0
M  V30 15 H -1.563 3.418 1.51819 0
M  V30 16 H 0.729 5.58782 3.83104 0
M  V30 17 H 1.672 6.56266 2.65933 0
M  V30 18 H 2.08 4.83886 2.90714 0
M  V30 19 N 1.4781 -0.272755 1.55222 0
M  V30 20 C 2.3881 -1.35918 1.91216 0
M  V30 21 C 3.4041 -1.54026 0.809436 0
M  V30 22 O 4.5801 -1.68148 1.10852 0
M  V30 23 C 1.6451 -2.69834 2.17693 0
M  V30 24 C 0.7061 -2.6047 3.41253 0
M  V30 25 C -0.0609 -3.88 3.66458 0
M  V30 26 O 0.1621 -4.88693 2.94169 0
M  V30 27 O -0.9039 -3.88189 4.59992 0
M  V30 28 H 2.9221 -1.0839 2.83699 0
M  V30 29 H 0.5071 -0.471301 1.41771 0
M  V30 30 H 2.3891 -3.49017 2.36147 0
M  V30 31 H 1.0641 -2.97148 1.28392 0
M  V30 32 H -0.0289 -1.79663 3.28134 0
M  V30 33 H 1.3041 -2.38106 4.30774 0
M  V30 34 N 2.9562 -1.48159 -0.537278 0
M  V30 35 C 4.2032 -1.55804 -1.29349 0
M  V30 36 C 4.5312 -0.228802 -1.9315 0
M  V30 37 O 3.7862 0.780242 -1.79473 0
M  V30 38 C 4.0852 -2.63956 -2.40961 0
M  V30 39 C 3.7512 -4.0662 -1.94861 0
M  V30 40 C 2.4132 -4.45452 -1.82006 0
M  V30 41 C 4.7652 -4.96055 -1.59933 0
M  V30 42 C 2.0932 -5.71531 -1.32547 0
M  V30 43 C 4.4452 -6.22617 -1.11939 0
M  V30 44 C 3.1092 -6.60312 -0.976951 0
M  V30 45 H 2.3792 -0.570129 -0.473322 0
M  V30 46 H 5.0262 -1.81845 -0.600372 0
M  V30 47 H 3.3312 -2.31747 -3.15912 0
M  V30 48 H 5.0282 -2.67089 -2.99107 0
M  V30 49 H 1.6182 -3.75949 -2.05815 0
M  V30 50 H 5.8022 -4.66738 -1.68728 0
M  V30 51 H 1.0582 -5.99468 -1.202 0
M  V30 52 H 5.2322 -6.91318 -0.839811 0
M  V30 53 H 2.8592 -7.57895 -0.591501 0
M  V30 54 N 4.4343 0.785586 -1.36625 0
M  V30 55 C 5.6813 1.54362 -1.31067 0
M  V30 56 C 6.0093 1.94195 0.10893 0
M  V30 57 O 5.2643 1.63262 1.07908 0
M  V30 58 C 5.5633 2.83007 -2.1827 0
M  V30 59 C 5.2293 2.62294 -3.6676 0
M  V30 60 C 3.8913 2.56353 -4.0723 0
M  V30 61 C 6.2433 2.43371 -4.6089 0
M  V30 62 C 3.5713 2.29461 -5.39967 0
M  V30 63 C 5.9233 2.18005 -5.93849 0
M  V30 64 C 4.5873 2.105 -6.3344 0
M  V30 65 H 3.8573 0.564851 -0.479609 0
M  V30 66 H 6.5043 0.906028 -1.68711 0
M  V30 67 H 4.8093 3.51253 -1.73576 0
M  V30 68 H 6.5063 3.40817 -2.11292 0
M  V30 69 H 3.0963 2.67774 -3.34656 0
M  V30 70 H 7.2803 2.46959 -4.30494 0
M  V30 71 H 2.5363 2.22135 -5.69619 0
M  V30 72 H 6.7103 2.02359 -6.66351 0
M  V30 73 H 4.3373 1.89425 -7.36222 0
M  V30 74 N 5.9124 1.20967 1.01018 0
M  V30 75 C 6.8594 0.964281 2.09691 0
M  V30 76 C 7.8294 -0.107853 1.65749 0
M  V30 77 O 9.0144 0.0381987 1.90762 0
M  V30 78 C 6.1544 0.52943 3.41015 0
M  V30 79 C 5.2674 1.67043 3.98398 0
M  V30 80 C 4.4024 1.18525 5.17808 0
M  V30 81 C 3.4414 2.29892 5.67288 0
M  V30 82 N 2.5784 1.82546 6.77954 0
M  V30 83 H 7.4184 1.89463 2.30017 0
M  V30 84 H 4.9554 0.944289 1.1279 0
M  V30 85 H 6.9134 0.258588 4.16398 0
M  V30 86 H 5.5434 -0.363919 3.20742 0
M  V30 87 H 4.5954 2.05603 3.20049 0
M  V30 88 H 5.9074 2.50877 4.31117 0
M  V30 89 H 5.0614 0.870762 6.00419 0
M  V30 90 H 3.8004 0.316887 4.86669 0
M  V30 91 H 2.8054 2.6215 4.83278 0
M  V30 92 H 4.0304 3.17216 6.00459 0
M  V30 93 H 1.9764 0.980454 6.48632 0
M  V30 94 H 1.8934 2.59956 7.09901 0
M  V30 95 H 3.1614 1.54115 7.64113 0
M  V30 96 N 7.3905 -1.2043 1.01659 0
M  V30 97 C 8.3375 -2.23215 0.586822 0
M  V30 98 C 9.3075 -1.61382 -0.393085 0
M  V30 99 O 10.4925 -1.88544 -0.292525 0
M  V30 100 C 7.6325 -3.45032 -0.0687464 0
M  V30 101 C 6.7455 -4.21296 0.955724 0
M  V30 102 C 5.8805 -5.30507 0.271208 0
M  V30 103 C 4.9195 -5.98515 1.28244 0
M  V30 104 N 4.0565 -6.99316 0.62459 0
M  V30 105 H 8.8965 -2.59336 1.46796 0
M  V30 106 H 6.4335 -1.27431 0.734836 0
M  V30 107 H 8.3915 -4.1459 -0.465965 0
M  V30 108 H 7.0215 -3.09604 -0.913529 0
M  V30 109 H 6.0735 -3.50803 1.4711 0
M  V30 110 H 7.3855 -4.6803 1.72479 0
M  V30 111 H 6.5395 -6.06428 -0.18151 0
M  V30 112 H 5.2785 -4.8481 -0.530163 0
M  V30 113 H 4.2835 -5.21355 1.74554 0
M  V30 114 H 5.5085 -6.46298 2.08509 0
M  V30 115 H 3.4545 -6.55812 -0.156914 0
M  V30 116 H 3.3715 -7.44178 1.33172 0
M  V30 117 H 4.6395 -7.79255 0.195462 0
M  V30 118 N 8.8686 -0.792821 -1.36206 0
M  V30 119 C 10.0966 -0.378825 -2.03402 0
M  V30 120 C 10.5116 1.00586 -1.59774 0
M  V30 121 O 9.8686 1.64574 -0.788764 0
M  V30 122 C 9.9196 -0.43683 -3.58851 0
M  V30 123 O 9.6406 -1.76691 -4.00889 0
M  V30 124 C 11.1416 -0.0138943 -4.43298 0
M  V30 125 H 8.3616 -0.155673 -0.652692 0
M  V30 126 H 10.9056 -1.07261 -1.74113 0
M  V30 127 H 9.0606 0.208575 -3.86838 0
M  V30 128 H 9.4746 -1.72011 -4.95492 0
M  V30 129 H 10.9486 -0.105615 -5.51899 0
M  V30 130 H 11.4256 1.03915 -4.2673 0
M  V30 131 H 12.0316 -0.63192 -4.20579 0
M  V30 132 N 10.3467 1.47872 -0.545128 0
M  V30 133 C 11.3097 2.28337 0.198717 0
M  V30 134 C 12.3097 1.36255 0.853888 0
M  V30 135 O 13.4997 1.59003 0.711606 0
M  V30 136 C 10.6317 3.15585 1.28915 0
M  V30 137 H 11.8247 2.95567 -0.507941 0
M  V30 138 H 9.3777 1.53362 -0.301616 0
M  V30 139 H 10.1127 2.53019 2.02859 0
M  V30 140 H 9.8977 3.83337 0.824309 0
M  V30 141 H 11.3877 3.76243 1.81194 0
M  V30 142 N 11.8248 0.280983 1.55075 0
M  V30 143 C 12.7548 -0.597469 2.25727 0
M  V30 144 C 13.7358 -1.15417 1.24952 0
M  V30 145 O 14.9208 -1.18722 1.53684 0
M  V30 146 C 12.0508 -1.7789 2.98283 0
M  V30 147 C 11.0048 -1.35347 4.06036 0
M  V30 148 C 10.3308 -2.61846 4.66198 0
M  V30 149 C 11.6308 -0.499354 5.19907 0
M  V30 150 H 13.3248 -0.00824265 2.99399 0
M  V30 151 H 10.8708 -0.0025244 1.44 0
M  V30 152 H 12.8238 -2.39937 3.46422 0
M  V30 153 H 11.5478 -2.39405 2.22155 0
M  V30 154 H 10.2068 -0.756156 3.58717 0
M  V30 155 H 9.8548 -3.21632 3.86732 0
M  V30 156 H 9.5548 -2.3409 5.38958 0
M  V30 157 H 11.0788 -3.24732 5.1709 0
M  V30 158 H 12.4928 -1.02498 5.64063 0
M  V30 159 H 10.8898 -0.316424 5.99265 0
M  V30 160 H 11.9598 0.480459 4.82514 0
M  V30 161 N 13.3029 -1.57598 0.00835791 0
M  V30 162 C 14.2659 -2.07884 -0.965242 0
M  V30 163 C 15.2659 -0.989825 -1.26725 0
M  V30 164 O 16.4559 -1.25218 -1.21104 0
M  V30 165 C 13.5879 -2.52731 -2.28779 0
M  V30 166 H 14.7809 -2.95178 -0.530112 0
M  V30 167 H 12.3339 -1.54458 -0.239283 0
M  V30 168 H 13.0689 -1.68705 -2.76964 0
M  V30 169 H 12.8539 -3.32272 -2.08177 0
M  V30 170 H 14.3439 -2.91933 -2.98605 0
M  V30 171 N 14.781 0.264519 -1.55364 0
M  V30 172 C 15.744 1.31046 -1.88042 0
M  V30 173 C 16.744 1.41943 -0.755569 0
M  V30 174 O 17.934 1.40947 -1.02369 0
M  V30 175 C 15.066 2.69067 -2.09323 0
M  V30 176 H 16.259 1.03297 -2.81549 0
M  V30 177 H 13.812 0.502989 -1.47986 0
M  V30 178 H 14.547 3.01982 -1.18226 0
M  V30 179 H 14.332 2.62542 -2.91229 0
M  V30 180 H 15.822 3.44623 -2.35848 0
M  V30 181 N 16.2591 1.48442 0.529413 0
M  V30 182 C 17.1891 1.65902 1.64313 0
M  V30 183 C 18.1701 0.507897 1.6234 0
M  V30 184 O 19.3551 0.740503 1.79528 0
M  V30 185 C 16.4851 1.69911 3.02898 0
M  V30 186 C 15.4391 2.8453 3.19729 0
M  V30 187 C 14.7651 2.73629 4.59381 0
M  V30 188 C 16.0651 4.25821 3.02447 0
M  V30 189 H 17.7591 2.5914 1.49955 0
M  V30 190 H 15.3051 1.24709 0.719982 0
M  V30 191 H 17.2581 1.80715 3.80684 0
M  V30 192 H 15.9821 0.732524 3.18279 0
M  V30 193 H 14.6411 2.73283 2.44361 0
M  V30 194 H 14.2891 1.74938 4.71599 0
M  V30 195 H 13.9891 3.50541 4.71588 0
M  V30 196 H 15.5131 2.86401 5.39265 0
M  V30 197 H 16.9271 4.37898 3.70024 0
M  V30 198 H 15.3241 5.03735 3.26146 0
M  V30 199 H 16.3941 4.42244 1.98867 0
M  V30 200 N 17.7372 -0.778329 1.37039 0
M  V30 201 C 18.9832 -1.53892 1.32079 0
M  V30 202 C 19.3162 -1.9396 -0.0965386 0
M  V30 203 O 18.5912 -1.63568 -1.05242 0
M  V30 204 C 18.8742 -2.80847 2.25382 0
M  V30 205 C 18.7272 -2.47076 3.75864 0
M  V30 206 C 20.0462 -3.82741 2.1725 0
M  V30 207 H 17.1652 -0.558303 0.48111 0
M  V30 208 H 19.8072 -0.893397 1.67685 0
M  V30 209 H 17.9572 -3.35931 1.95148 0
M  V30 210 H 19.6292 -1.97957 4.16666 0
M  V30 211 H 17.8722 -1.79863 3.94755 0
M  V30 212 H 18.5432 -3.37798 4.36574 0
M  V30 213 H 21.0192 -3.37133 2.43887 0
M  V30 214 H 19.8952 -4.69303 2.84686 0
M  V30 215 H 20.1562 -4.2652 1.16331 0
M  V30 216 N 19.2153 -1.21501 -1.00376 0
M  V30 217 C 20.1483 -0.918669 -2.08892 0
M  V30 218 C 21.1263 0.134277 -1.62045 0
M  V30 219 O 22.3103 0.00504255 -1.88499 0
M  V30 220 C 19.4373 -0.379645 -3.36566 0
M  V30 221 C 18.4833 -1.41559 -4.02323 0
M  V30 222 S 19.3163 -2.98521 -4.44574 0
M  V30 223 C 20.4723 -2.46228 -5.75433 0
M  V30 224 H 20.7053 -1.83761 -2.33707 0
M  V30 225 H 18.2383 -1.04489 -1.13673 0
M  V30 226 H 20.1963 -0.0752195 -4.10431 0
M  V30 227 H 18.8573 0.518008 -3.09799 0
M  V30 228 H 18.0503 -0.988076 -4.9422 0
M  V30 229 H 17.6523 -1.66815 -3.34737 0
M  V30 230 H 19.9443 -1.86791 -6.51241 0
M  V30 231 H 20.8873 -3.36572 -6.22997 0
M  V30 232 H 21.2953 -1.87894 -5.32312 0
M  V30 233 N 20.6934 1.19889 -1.02296 0
M  V30 234 C 21.9414 1.89046 -0.714558 0
M  V30 235 C 22.2624 1.79636 0.758681 0
M  V30 236 O 21.5324 1.20292 1.54618 0
M  V30 237 H 20.1124 0.699802 -0.261317 0
M  V30 238 H 22.7744 1.45574 -1.29592 0
M  V30 239 H 21.8704 2.95524 -1.0036 0
M  V30 240 N 22.1715 0.800033 1.35784 0
M  V30 241 C 23.4185 0.377342 1.98953 0
M  V30 242 C 23.7465 -1.05378 1.6348 0
M  V30 243 O 23.0015 -1.74459 0.886707 0
M  V30 244 C 23.3005 0.500276 3.53881 0
M  V30 245 C 22.9665 1.89375 4.09204 0
M  V30 246 C 21.6285 2.27499 4.24025 0
M  V30 247 C 23.9805 2.8057 4.39238 0
M  V30 248 C 21.3085 3.562 4.66195 0
M  V30 249 C 23.6605 4.0871 4.82844 0
M  V30 250 C 22.3245 4.46843 4.95871 0
M  V30 251 H 21.5945 0.138079 0.728021 0
M  V30 252 H 24.2415 1.01955 1.62103 0
M  V30 253 H 22.5465 -0.225405 3.91151 0
M  V30 254 H 24.2435 0.154097 4.00704 0
M  V30 255 H 20.8335 1.58753 3.98115 0
M  V30 256 H 25.0175 2.52367 4.27346 0
M  V30 257 H 20.2735 3.85602 4.74469 0
M  V30 258 H 24.4475 4.79481 5.05046 0
M  V30 259 H 22.0745 5.46623 5.28306 0
M  V30 260 N 23.6496 -1.47581 0.552962 0
M  V30 261 C 24.8746 -2.07378 0.0300593 0
M  V30 262 C 25.2996 -1.40355 -1.25229 0
M  V30 263 O 24.6576 -0.477099 -1.7491 0
M  V30 264 C 24.7056 -3.60274 -0.153231 0
M  V30 265 O 23.8096 -3.94041 -1.21678 0
M  V30 266 H 23.1506 -0.662158 0.0494182 0
M  V30 267 H 25.6806 -1.89662 0.767434 0
M  V30 268 H 25.6906 -4.0633 -0.368761 0
M  V30 269 H 24.3656 -4.08455 0.783397 0
M  V30 270 H 22.9426 -3.59735 -0.982079 0
M  V30 271 N 25.1277 -0.289203 -1.54924 0
M  V30 272 C 26.3757 0.322879 -1.99504 0
M  V30 273 C 26.6967 1.55313 -1.1791 0
M  V30 274 O 25.9667 1.94001 -0.272097 0
M  V30 275 H 24.5467 0.122291 -0.736922 0
M  V30 276 H 27.2087 -0.397802 -1.90797 0
M  V30 277 H 26.3047 0.603061 -3.06218 0
M  V30 278 N 26.6058 1.57591 -0.0167156 0
M  V30 279 C 27.5688 2.08393 0.954204 0
M  V30 280 C 28.5688 0.996531 1.26198 0
M  V30 281 O 29.7588 1.25858 1.20438 0
M  V30 282 C 26.8908 2.5394 2.27436 0
M  V30 283 H 28.0838 2.95455 0.514451 0
M  V30 284 H 25.6368 1.54582 0.231089 0
M  V30 285 H 26.3718 1.70171 2.76066 0
M  V30 286 H 26.1568 3.33371 2.06412 0
M  V30 287 H 27.6468 2.93512 2.97053 0
M  V30 288 N 28.0839 -0.256276 1.55502 0
M  V30 289 C 29.0469 -1.30047 1.88734 0
M  V30 290 C 30.0469 -1.4154 0.763086 0
M  V30 291 O 31.2369 -1.40403 1.03115 0
M  V30 292 C 28.3689 -2.67953 2.10747 0
M  V30 293 H 29.5619 -1.01802 2.82093 0
M  V30 294 H 27.1149 -0.495134 1.4825 0
M  V30 295 H 27.8499 -3.01351 1.19825 0
M  V30 296 H 27.6349 -2.60993 2.92617 0
M  V30 297 H 29.1249 -3.43368 2.37673 0
M  V30 298 N 29.562 -1.4872 -0.521534 0
M  V30 299 C 30.492 -1.66771 -1.63431 0
M  V30 300 C 31.473 -0.516499 -1.62069 0
M  V30 301 O 32.658 -0.750013 -1.79132 0
M  V30 302 C 29.788 -1.71515 -3.01993 0
M  V30 303 C 28.742 -2.86222 -3.18216 0
M  V30 304 C 28.068 -2.76061 -4.57924 0
M  V30 305 C 29.368 -4.27419 -3.00184 0
M  V30 306 H 31.062 -2.59932 -1.48579 0
M  V30 307 H 28.608 -1.25089 -0.713358 0
M  V30 308 H 30.561 -1.82731 -3.7972 0
M  V30 309 H 29.285 -0.749393 -3.17886 0
M  V30 310 H 27.944 -2.74575 -2.42908 0
M  V30 311 H 27.592 -1.77437 -4.70665 0
M  V30 312 H 27.292 -3.53037 -4.69722 0
M  V30 313 H 28.816 -2.89256 -5.37739 0
M  V30 314 H 30.23 -4.39855 -3.67697 0
M  V30 315 H 28.627 -5.05458 -3.2347 0
M  V30 316 H 29.697 -4.43293 -1.96518 0
M  V30 317 N 31.0401 0.771051 -1.3745 0
M  V30 318 C 32.0031 1.86598 -1.33093 0
M  V30 319 C 33.0031 1.59076 -0.234845 0
M  V30 320 O 34.1931 1.67145 -0.490732 0
M  V30 321 C 31.3251 3.23747 -1.06773 0
M  V30 322 H 32.5181 1.91873 -2.30488 0
M  V30 323 H 30.0711 0.970876 -1.2249 0
M  V30 324 H 30.8061 3.24148 -0.099129 0
M  V30 325 H 30.5911 3.45115 -1.86112 0
M  V30 326 H 32.0811 4.03824 -1.06377 0
M  V30 327 N 32.5182 1.22032 0.997298 0
M  V30 328 C 33.4482 1.01065 2.10495 0
M  V30 329 C 34.4292 -0.0669542 1.69968 0
M  V30 330 O 35.6142 0.0943987 1.9397 0
M  V30 331 C 32.7442 0.582874 3.42374 0
M  V30 332 C 31.6982 1.60592 3.96729 0
M  V30 333 C 31.0242 1.03412 5.24605 0
M  V30 334 C 32.3242 2.99478 4.27914 0
M  V30 335 H 34.0182 1.93708 2.28292 0
M  V30 336 H 31.5642 0.932761 1.09707 0
M  V30 337 H 33.5172 0.423332 4.19268 0
M  V30 338 H 32.2412 -0.379213 3.24391 0
M  V30 339 H 30.9002 1.75316 3.21963 0
M  V30 340 H 30.5482 0.063518 5.0296 0
M  V30 341 H 30.2482 1.71754 5.61938 0
M  V30 342 H 31.7722 0.886066 6.04137 0
M  V30 343 H 33.1862 2.88153 4.95622 0
M  V30 344 H 31.5832 3.64903 4.76409 0
M  V30 345 H 32.6532 3.49742 3.3587 0
M  V30 346 N 33.9963 -1.19345 1.0293 0
M  V30 347 C 35.4073 -1.70725 0.755633 0
M  V30 348 C 35.7583 -1.82326 -0.724676 0
M  V30 349 O 34.8833 -1.49471 -1.56484 0
M  V30 350 C 35.4783 -3.10084 1.36503 0
M  V30 351 C 34.0373 -3.58723 1.13994 0
M  V30 352 C 33.1843 -2.35577 1.46283 0
M  V30 353 H 36.1353 -1.0418 1.19718 0
M  V30 354 H 36.1563 -3.72787 0.762217 0
M  V30 355 H 35.6683 -3.01609 2.44241 0
M  V30 356 H 33.7693 -3.72512 0.0807901 0
M  V30 357 H 33.8823 -4.42816 1.82894 0
M  V30 358 H 32.2463 -2.38935 0.88217 0
M  V30 359 H 33.0293 -2.29731 2.55105 0
M  V30 360 N 35.4744 -0.807222 -1.35358 0
M  V30 361 C 36.4224 -0.20614 -2.31685 0
M  V30 362 C 37.4164 0.644445 -1.56663 0
M  V30 363 O 38.6224 0.537538 -1.71786 0
M  V30 364 H 34.9974 -0.0479006 -0.750473 0
M  V30 365 H 36.9684 -1.03369 -2.79924 0
M  V30 366 C 35.7174 0.630212 -3.41941 0
M  V30 367 H 35.0404 -0.0149558 -3.99797 0
M  V30 368 H 36.4804 1.01716 -4.11619 0
M  V30 369 C 34.9394 1.79601 -2.85035 0
M  V30 370 O 35.4694 2.89351 -2.78637 0
M  V30 371 N 33.6754 1.60774 -2.42074 0
M  V30 372 H 33.2224 0.715009 -2.47478 0
M  V30 373 H 33.1804 2.38933 -2.04349 0
M  V30 374 N 36.9525 1.47285 -0.560781 0
M  V30 375 C 38.2015 2.01668 -0.035895 0
M  V30 376 C 38.5145 1.44021 1.32353 0
M  V30 377 O 39.7205 1.90088 1.93853 0
M  V30 378 C 38.1765 3.59897 -0.0136659 0
M  V30 379 C 37.7845 4.26536 -1.37006 0
M  V30 380 C 39.5285 4.22017 0.458425 0
M  V30 381 C 37.4355 5.76782 -1.30675 0
M  V30 382 H 36.3655 0.753938 -0.00964879 0
M  V30 383 H 39.0165 1.69243 -0.709166 0
M  V30 384 H 37.3985 3.89301 0.725325 0
M  V30 385 H 38.5725 4.0877 -2.12705 0
M  V30 386 H 36.8875 3.76419 -1.78038 0
M  V30 387 H 39.4845 5.32124 0.524247 0
M  V30 388 H 39.8275 3.89437 1.4712 0
M  V30 389 H 40.3605 3.97159 -0.225818 0
M  V30 390 H 37.0995 6.13988 -2.29564 0
M  V30 391 H 36.6195 5.96875 -0.591622 0
M  V30 392 H 38.2985 6.39063 -1.01033 0
M  V30 393 N 38.4306 0.297415 1.54768 0
M  V30 394 C 39.6586 -0.315623 2.04478 0
M  V30 395 C 40.0736 -1.47792 1.17486 0
M  V30 396 O 39.4306 -1.81404 0.19971 0
M  V30 397 C 39.4816 -0.7753 3.53088 0
M  V30 398 O 39.2026 0.340732 4.36773 0
M  V30 399 C 40.7036 -1.45386 4.18781 0
M  V30 400 H 37.9236 -0.0690887 0.667434 0
M  V30 401 H 40.4676 0.436003 1.99798 0
M  V30 402 H 38.6226 -1.47696 3.58141 0
M  V30 403 H 39.0366 -0.0165035 5.24497 0
M  V30 404 H 40.5106 -1.72669 5.24299 0
M  V30 405 H 40.9876 -2.39275 3.68299 0
M  V30 406 H 41.5936 -0.795475 4.17795 0
M  V30 407 N 39.9087 -1.5758 0.0250728 0
M  V30 408 C 41.1577 -1.90811 -0.653767 0
M  V30 409 C 41.4707 -0.90273 -1.73523 0
M  V30 410 O 42.6767 -1.12614 -2.47043 0
M  V30 411 C 41.1327 -3.38804 -1.21409 0
M  V30 412 C 40.7407 -4.47692 -0.166126 0
M  V30 413 C 42.4847 -3.81108 -1.86967 0
M  V30 414 C 40.3917 -5.86779 -0.737856 0
M  V30 415 H 39.3217 -0.712063 -0.247956 0
M  V30 416 H 41.9727 -1.83281 0.0897137 0
M  V30 417 H 40.3547 -3.41252 -2.00905 0
M  V30 418 H 41.5287 -4.56797 0.606079 0
M  V30 419 H 39.8437 -4.14565 0.390466 0
M  V30 420 H 42.4407 -4.82375 -2.30692 0
M  V30 421 H 42.7837 -3.15953 -2.71071 0
M  V30 422 H 43.3167 -3.81065 -1.14167 0
M  V30 423 H 40.0557 -6.55468 0.0649577 0
M  V30 424 H 39.5757 -5.81288 -1.47864 0
M  V30 425 H 41.2547 -6.35223 -1.22884 0
M  V30 426 N 41.3868 0.248026 -1.55636 0
M  V30 427 C 42.3168 1.31079 -1.93237 0
M  V30 428 C 43.2978 1.50264 -0.797174 0
M  V30 429 O 44.4828 1.62891 -1.05737 0
M  V30 430 C 41.6128 2.66575 -2.22609 0
M  V30 431 C 40.5668 2.62087 -3.3837 0
M  V30 432 C 39.8928 4.01369 -3.53281 0
M  V30 433 C 41.1928 2.19171 -4.7409 0
M  V30 434 H 42.8868 0.998556 -2.82257 0
M  V30 435 H 40.4328 0.47891 -1.35803 0
M  V30 436 H 42.3858 3.41057 -2.47503 0
M  V30 437 H 41.1098 2.99432 -1.30414 0
M  V30 438 H 39.7688 1.90063 -3.13483 0
M  V30 439 H 39.4168 4.31489 -2.58508 0
M  V30 440 H 39.1168 3.99254 -4.31127 0
M  V30 441 H 40.6408 4.77552 -3.80495 0
M  V30 442 H 42.0548 2.83384 -4.98363 0
M  V30 443 H 40.4518 2.2817 -5.5503 0
M  V30 444 H 41.5218 1.14336 -4.71227 0
M  V30 445 N 42.8649 1.48995 0.513639 0
M  V30 446 C 43.8279 1.64229 1.59879 0
M  V30 447 C 44.8279 0.514696 1.5234 0
M  V30 448 O 46.0179 0.78087 1.55718 0
M  V30 449 C 43.1499 1.62783 2.99524 0
M  V30 450 H 44.3429 2.61004 1.47705 0
M  V30 451 H 41.8959 1.37837 0.736936 0
M  V30 452 H 42.6309 0.675461 3.17188 0
M  V30 453 H 42.4159 2.4466 3.06404 0
M  V30 454 H 43.9059 1.76669 3.78388 0
M  V30 455 N 44.343 -0.763751 1.37857 0
M  V30 456 C 45.571 -1.55293 1.36718 0
M  V30 457 C 45.986 -1.88745 -0.0455434 0
M  V30 458 O 45.343 -1.52039 -1.00947 0
M  V30 459 C 45.394 -2.85831 2.2132 0
M  V30 460 O 45.115 -2.5381 3.57089 0
M  V30 461 C 46.616 -3.80023 2.28249 0
M  V30 462 H 43.836 -0.480841 0.468009 0
M  V30 463 H 46.38 -0.946009 1.81303 0
M  V30 464 H 44.535 -3.42926 1.80223 0
M  V30 465 H 44.949 -3.37459 4.01524 0
M  V30 466 H 46.423 -4.68599 2.91752 0
M  V30 467 H 46.9 -4.1973 1.2932 0
M  V30 468 H 47.506 -3.28855 2.69693 0
M  V30 469 N 45.8211 -1.22559 -0.990812 0
M  V30 470 C 47.0691 -1.04933 -1.72724 0
M  V30 471 C 47.3901 0.416158 -1.90508 0
M  V30 472 O 46.6601 1.29918 -1.46622 0
M  V30 473 H 45.2401 -0.385296 -0.639965 0
M  V30 474 H 47.9021 -1.54105 -1.19322 0
M  V30 475 H 46.9981 -1.52886 -2.72089 0
M  V30 476 N 47.2992 1.18797 -1.03562 0
M  V30 477 C 48.5472 1.88278 -0.734569 0
M  V30 478 C 48.8682 1.8043 0.739586 0
M  V30 479 O 48.1382 1.21925 1.53333 0
M  V30 480 H 46.7182 0.696991 -0.268725 0
M  V30 481 H 49.3802 1.44192 -1.31129 0
M  V30 482 H 48.4762 2.94443 -1.03489 0
M  V30 483 N 48.7773 0.814389 1.34928 0
M  V30 484 C 50.0053 0.411136 2.02774 0
M  V30 485 C 50.4203 -0.980316 1.61354 0
M  V30 486 O 49.7773 -1.63299 0.814847 0
M  V30 487 C 49.8283 0.493865 3.58111 0
M  V30 488 O 49.5493 1.83047 3.98027 0
M  V30 489 C 51.0503 0.0844174 4.4322 0
M  V30 490 H 48.2703 0.166037 0.650133 0
M  V30 491 H 50.8143 1.10018 1.72384 0
M  V30 492 H 48.9693 -0.147006 3.87121 0
M  V30 493 H 49.3833 1.79872 4.92693 0
M  V30 494 H 50.8573 0.193404 5.51661 0
M  V30 495 H 51.3343 -0.97113 4.28329 0
M  V30 496 H 51.9403 0.69875 4.19521 0
M  V30 497 N 50.2554 -1.46986 0.568584 0
M  V30 498 C 51.5044 -2.01646 0.0465894 0
M  V30 499 C 51.8174 -1.44721 -1.31587 0
M  V30 500 O 53.0234 -1.91113 -1.92842 0
M  V30 501 C 51.4794 -3.59885 0.032752 0
M  V30 502 C 51.0874 -4.25804 1.39266 0
M  V30 503 C 52.8314 -4.22255 -0.436038 0
M  V30 504 C 50.7384 -5.76081 1.33732 0
M  V30 505 H 49.6684 -0.753876 0.013647 0
M  V30 506 H 52.3194 -1.68864 0.718131 0
M  V30 507 H 50.7014 -3.8968 -0.704669 0
M  V30 508 H 51.8754 -4.07637 2.1487 0
M  V30 509 H 50.1904 -3.7547 1.80032 0
M  V30 510 H 52.7874 -5.32394 -0.49602 0
M  V30 511 H 53.1304 -3.90212 -1.45053 0
M  V30 512 H 53.6634 -3.97033 0.246877 0
M  V30 513 H 50.4024 -6.12761 2.32817 0
M  V30 514 H 49.9224 -5.96553 0.623267 0
M  V30 515 H 51.6014 -6.38518 1.0442 0
M  V30 516 N 51.7335 -0.305618 -1.54608 0
M  V30 517 C 52.6965 0.555591 -2.22364 0
M  V30 518 C 53.6965 1.05768 -1.21119 0
M  V30 519 O 54.8865 0.952972 -1.45822 0
M  V30 520 C 52.0185 1.76974 -2.91364 0
M  V30 521 H 53.2115 -0.0364572 -2.99878 0
M  V30 522 H 50.7645 -0.0565007 -1.56198 0
M  V30 523 H 51.4995 2.40151 -2.17941 0
M  V30 524 H 51.2845 1.41732 -3.65588 0
M  V30 525 H 52.7745 2.38148 -3.43038 0
M  V30 526 N 53.2116 1.57565 -0.0334293 0
M  V30 527 C 54.4596 1.91598 0.642999 0
M  V30 528 C 54.7806 0.910847 1.7242 0
M  V30 529 O 54.0506 -0.0469931 1.95844 0
M  V30 530 H 52.6306 0.707228 0.240496 0
M  V30 531 H 55.2926 1.94726 -0.0822488 0
M  V30 532 H 54.3886 2.92336 1.09298 0
M  V30 533 N 54.6897 -0.239769 1.55765 0
M  V30 534 C 55.9377 -0.964892 1.77579 0
M  V30 535 C 56.2587 -1.85582 0.598699 0
M  V30 536 O 55.5287 -1.92075 -0.385226 0
M  V30 537 H 54.1087 -0.359265 0.654933 0
M  V30 538 H 56.7707 -0.256001 1.93211 0
M  V30 539 H 55.8667 -1.58243 2.69009 0
M  V30 540 N 56.1678 -1.49265 -0.50573 0
M  V30 541 C 57.4158 -1.582 -1.25766 0
M  V30 542 C 57.7368 -0.268482 -1.93143 0
M  V30 543 O 57.0068 0.711833 -1.8251 0
M  V30 544 H 55.5868 -0.582873 -0.467191 0
M  V30 545 H 58.2488 -1.85865 -0.586525 0
M  V30 546 H 57.3448 -2.37563 -2.02412 0
M  V30 547 N 57.6459 0.756429 -1.3826 0
M  V30 548 C 58.9229 1.50584 -1.24835 0
M  V30 549 C 59.3029 2.10556 0.151485 0
M  V30 550 O 58.6509 1.96825 1.1607 0
M  V30 551 C 58.8609 2.57448 -2.3563 0
M  V30 552 C 60.2089 3.24429 -2.73917 0
M  V30 553 O 61.2329 2.67751 -2.34921 0
M  V30 554 O 60.0919 4.26937 -3.41156 0
M  V30 555 H 57.1859 0.667664 -0.48801 0
M  V30 556 H 59.7319 0.792083 -1.5008 0
M  V30 557 H 58.5039 2.11362 -3.29305 0
M  V30 558 H 58.1269 3.36408 -2.11933 0
M  V30 559 N 59.124 1.23083 0.984299 0
M  V30 560 C 60.349 1.088 1.76571 0
M  V30 561 C 60.774 -0.356657 1.84688 0
M  V30 562 O 60.132 -1.25788 1.30565 0
M  V30 563 C 60.18 1.71371 3.17277 0
M  V30 564 O 59.284 0.973213 4.00752 0
M  V30 565 H 58.625 0.381599 0.543395 0
M  V30 566 H 61.155 1.63057 1.23587 0
M  V30 567 H 61.165 1.76449 3.67872 0
M  V30 568 H 59.84 2.76493 3.10684 0
M  V30 569 H 58.417 0.999078 3.59267 0
M  V30 570 N 60.6021 -1.18246 1.0419 0
M  V30 571 C 61.5651 -2.20128 0.638452 0
M  V30 572 C 62.5651 -1.57885 -0.304805 0
M  V30 573 O 63.7551 -1.73967 -0.0900369 0
M  V30 574 C 60.8871 -3.4084 -0.0637751 0
M  V30 575 H 62.0801 -2.57336 1.54007 0
M  V30 576 H 59.6331 -1.32152 0.834598 0
M  V30 577 H 60.3681 -3.09166 -0.979136 0
M  V30 578 H 60.1531 -3.8726 0.614198 0
M  V30 579 H 61.6431 -4.16274 -0.332512 0
M  V30 580 N 62.0802 -0.821533 -1.34494 0
M  V30 581 C 63.3082 -0.421884 -2.02553 0
M  V30 582 C 63.7232 0.971745 -1.61872 0
M  V30 583 O 63.0802 1.62864 -0.823496 0
M  V30 584 C 63.1312 -0.51285 -3.57844 0
M  V30 585 O 62.8522 -1.85155 -3.97051 0
M  V30 586 C 64.3532 -0.107921 -4.43169 0
M  V30 587 H 61.5732 -0.169482 -0.649243 0
M  V30 588 H 64.1172 -1.1093 -1.71798 0
M  V30 589 H 62.2722 0.126474 -3.87193 0
M  V30 590 H 62.6862 -1.82482 -4.91732 0
M  V30 591 H 64.1602 -0.222657 -5.51551 0
M  V30 592 H 64.6372 0.948401 -4.28838 0
M  V30 593 H 65.2432 -0.720989 -4.19144 0
M  V30 594 N 63.5583 1.46682 -0.576371 0
M  V30 595 C 64.5053 2.30241 0.160499 0
M  V30 596 C 65.4753 1.40233 0.890162 0
M  V30 597 O 66.6603 1.69186 0.882084 0
M  V30 598 C 63.8003 3.24578 1.1723 0
M  V30 599 C 62.9133 4.29684 0.446736 0
M  V30 600 C 62.0483 5.11154 1.44551 0
M  V30 601 C 61.0873 6.08015 0.70599 0
M  V30 602 N 60.2243 6.82376 1.65251 0
M  V30 603 H 65.0643 2.92727 -0.558127 0
M  V30 604 H 62.6013 1.44272 -0.287056 0
M  V30 605 H 64.5593 3.77711 1.77172 0
M  V30 606 H 63.1893 2.63916 1.85872 0
M  V30 607 H 62.2413 3.79458 -0.267594 0
M  V30 608 H 63.5533 4.98626 -0.131686 0
M  V30 609 H 62.7073 5.68533 2.11791 0
M  V30 610 H 61.4463 4.42158 2.05786 0
M  V30 611 H 60.4513 5.49796 0.0197725 0
M  V30 612 H 61.6763 6.79028 0.09912 0
M  V30 613 H 59.6223 6.16094 2.25308 0
M  V30 614 H 59.5393 7.47556 1.12673 0
M  V30 615 H 60.8073 7.44316 2.31546 0
M  V30 616 N 65.0364 0.313813 1.54444 0
M  V30 617 C 66.2614 -0.296681 2.05267 0
M  V30 618 C 66.6864 -1.45757 1.18897 0
M  V30 619 O 66.0444 -1.80239 0.195886 0
M  V30 620 C 66.0924 -0.71831 3.53373 0
M  V30 621 O 65.1964 -1.82175 3.69981 0
M  V30 622 H 64.5374 -0.0554061 0.661684 0
M  V30 623 H 67.0674 0.459387 1.99376 0
M  V30 624 H 67.0774 -1.00364 3.95463 0
M  V30 625 H 65.7524 0.130821 4.15694 0
M  V30 626 H 64.3294 -1.53598 3.39797 0
M  V30 627 N 66.5145 -1.57545 0.0417849 0
M  V30 628 C 67.4625 -2.12148 -0.953723 0
M  V30 629 C 68.4565 -1.05104 -1.32852 0
M  V30 630 O 69.6625 -1.23524 -1.30927 0
M  V30 631 H 66.0375 -0.677957 -0.325389 0
M  V30 632 H 68.0085 -2.94707 -0.467991 0
M  V30 633 C 66.7575 -2.6739 -2.22257 0
M  V30 634 H 66.0805 -3.49413 -1.94295 0
M  V30 635 H 67.5205 -3.09227 -2.90094 0
M  V30 636 C 65.9795 -1.60723 -2.96091 0
M  V30 637 O 66.5095 -1.01449 -3.88679 0
M  V30 638 N 64.7155 -1.32466 -2.58652 0
M  V30 639 H 64.2625 -1.80856 -1.83437 0
M  V30 640 H 64.2205 -0.61325 -3.08361 0
M  V30 641 N 67.9926 0.231505 -1.5589 0
M  V30 642 C 69.2226 0.973092 -1.82248 0
M  V30 643 C 69.6306 1.78845 -0.617328 0
M  V30 644 O 68.9736 1.78752 0.423499 0
M  V30 645 C 69.0356 1.94732 -3.02192 0
M  V30 646 C 68.6996 1.31743 -4.37599 0
M  V30 647 C 69.6966 0.712238 -5.14998 0
M  V30 648 C 67.3816 1.33218 -4.84312 0
M  V30 649 C 69.3756 0.130195 -6.37267 0
M  V30 650 C 67.0626 0.746286 -6.06526 0
M  V30 651 C 68.0606 0.146337 -6.82843 0
M  V30 652 O 67.7486 -0.430465 -8.02747 0
M  V30 653 H 67.4806 0.29125 -0.61004 0
M  V30 654 H 70.0346 0.254915 -2.03812 0
M  V30 655 H 68.2646 2.70422 -2.76422 0
M  V30 656 H 69.9536 2.55362 -3.15508 0
M  V30 657 H 70.7196 0.69324 -4.8002 0
M  V30 658 H 66.5986 1.78854 -4.24891 0
M  V30 659 H 70.1426 -0.33871 -6.96777 0
M  V30 660 H 66.0396 0.762663 -6.40979 0
M  V30 661 H 66.8076 -0.323818 -8.17859 0
M  V30 662 N 69.4707 1.49531 0.497807 0
M  V30 663 C 70.6987 1.62893 1.27567 0
M  V30 664 C 71.1137 0.301585 1.86376 0
M  V30 665 O 70.4707 -0.713335 1.67982 0
M  V30 666 C 70.5217 2.70013 2.40364 0
M  V30 667 O 70.2427 3.976 1.83972 0
M  V30 668 C 71.7437 2.94109 3.31685 0
M  V30 669 H 68.9637 0.548298 0.386794 0
M  V30 670 H 71.5077 1.95584 0.597245 0
M  V30 671 H 69.6627 2.40092 3.04031 0
M  V30 672 H 70.0767 4.56631 2.58047 0
M  V30 673 H 71.5507 3.72788 4.07104 0
M  V30 674 H 72.0277 2.04147 3.88871 0
M  V30 675 H 72.6337 3.2546 2.73781 0
M  V30 676 N 70.9488 -0.749086 1.3866 0
M  V30 677 C 72.1948 -1.51056 1.35314 0
M  V30 678 C 72.5278 -1.94121 -0.0553751 0
M  V30 679 O 71.8028 -1.65763 -1.01749 0
M  V30 680 C 72.0858 -2.76003 2.31288 0
M  V30 681 C 71.9388 -2.39047 3.8102 0
M  V30 682 C 73.2578 -3.78046 2.2532 0
M  V30 683 H 70.3768 -0.547972 0.492844 0
M  V30 684 H 73.0188 -0.857628 1.69543 0
M  V30 685 H 71.1688 -3.31716 2.02229 0
M  V30 686 H 72.8408 -1.89074 4.20771 0
M  V30 687 H 71.0838 -1.71449 3.98482 0
M  V30 688 H 71.7548 -3.28462 4.4364 0
M  V30 689 H 74.2308 -3.31884 2.50983 0
M  V30 690 H 73.1068 -4.63159 2.94576 0
M  V30 691 H 73.3678 -4.23957 1.25352 0
M  V30 692 N 72.4269 -1.23603 -0.977757 0
M  V30 693 C 73.6749 -1.06759 -1.71601 0
M  V30 694 C 73.9959 0.395929 -1.90938 0
M  V30 695 O 73.2659 1.28356 -1.47992 0
M  V30 696 H 71.8459 -0.392062 -0.635843 0
M  V30 697 H 74.5079 -1.55362 -1.1768 0
M  V30 698 H 73.6039 -1.55763 -2.70452 0
M  V30 699 N 73.905 1.17692 -1.04816 0
M  V30 700 C 74.852 2.21581 -0.645797 0
M  V30 701 C 75.822 1.62367 0.350159 0
M  V30 702 O 77.007 1.89254 0.242433 0
M  V30 703 C 74.147 3.45092 -0.0227568 0
M  V30 704 C 73.26 4.18613 -1.06709 0
M  V30 705 C 72.395 5.29602 -0.411767 0
M  V30 706 C 71.434 5.94904 -1.44067 0
M  V30 707 N 70.571 6.97414 -0.809781 0
M  V30 708 H 75.411 2.55353 -1.5362 0
M  V30 709 H 72.948 1.25438 -0.768364 0
M  V30 710 H 74.906 4.15679 0.35588 0
M  V30 711 H 73.536 3.11917 0.831122 0
M  V30 712 H 72.588 3.46779 -1.5636 0
M  V30 713 H 73.9 4.63293 -1.84827 0
M  V30 714 H 73.054 6.06696 0.0206623 0
M  V30 715 H 71.793 4.86045 0.401438 0
M  V30 716 H 70.798 5.16544 -1.88316 0
M  V30 717 H 72.023 6.40542 -2.25571 0
M  V30 718 H 69.969 6.55998 -0.0170186 0
M  V30 719 H 69.886 7.40386 -1.52856 0
M  V30 720 H 71.154 7.78463 -0.401999 0
M  V30 721 N 75.3831 0.828654 1.34056 0
M  V30 722 C 76.6291 0.42008 1.98402 0
M  V30 723 C 76.9621 -1.01564 1.65525 0
M  V30 724 O 76.2371 -1.70834 0.929831 0
M  V30 725 C 76.5201 0.62927 3.54559 0
M  V30 726 C 76.3731 2.11152 3.97159 0
M  V30 727 C 77.6921 0.0688756 4.40046 0
M  V30 728 H 74.8111 0.154104 0.720709 0
M  V30 729 H 77.4531 1.04228 1.5886 0
M  V30 730 H 75.6031 0.0996418 3.88372 0
M  V30 731 H 77.2751 2.70522 3.73651 0
M  V30 732 H 75.5181 2.59985 3.47261 0
M  V30 733 H 76.1891 2.20868 5.05887 0
M  V30 734 H 78.6651 0.521458 4.1282 0
M  V30 735 H 77.5411 0.245006 5.48353 0
M  V30 736 H 77.8021 -1.0266 4.30015 0
M  V30 737 N 76.8612 -1.46375 0.584142 0
M  V30 738 C 78.1092 -2.01978 0.0701287 0
M  V30 739 C 78.4302 -1.4579 -1.295 0
M  V30 740 O 77.7002 -0.64314 -1.85042 0
M  V30 741 H 76.2802 -0.746648 0.0229345 0
M  V30 742 H 78.9422 -1.79461 0.760245 0
M  V30 743 H 78.0382 -3.121 0.0022064 0
M  V30 744 N 78.3393 -0.321999 -1.54275 0
M  V30 745 C 79.5853 0.281461 -2.00837 0
M  V30 746 C 79.9183 1.51909 -1.20985 0
M  V30 747 O 79.1933 1.923 -0.291733 0
M  V30 748 C 79.4763 0.617162 -3.54772 0
M  V30 749 C 79.3293 -0.631064 -4.45351 0
M  V30 750 C 80.6483 1.43542 -4.16033 0
M  V30 751 H 77.7673 0.100826 -0.730071 0
M  V30 752 H 80.4093 -0.438268 -1.84876 0
M  V30 753 H 78.5593 1.23034 -3.68504 0
M  V30 754 H 80.2313 -1.26934 -4.43492 0
M  V30 755 H 78.4743 -1.26025 -4.15091 0
M  V30 756 H 79.1453 -0.351735 -5.50878 0
M  V30 757 H 81.6213 0.917134 -4.05867 0
M  V30 758 H 80.4973 1.63907 -5.23856 0
M  V30 759 H 80.7583 2.43108 -3.69257 0
M  V30 760 N 79.8174 1.5752 -0.0501392 0
M  V30 761 C 80.7274 2.14952 0.939827 0
M  V30 762 C 81.7434 1.10706 1.34239 0
M  V30 763 O 82.9194 1.42869 1.41952 0
M  V30 764 C 79.9844 2.68232 2.19665 0
M  V30 765 C 79.0454 3.87272 1.85253 0
M  V30 766 C 78.2784 4.38002 3.04943 0
M  V30 767 O 78.5014 3.87811 4.18281 0
M  V30 768 O 77.4354 5.29602 2.86017 0
M  V30 769 H 81.2614 2.9986 0.481392 0
M  V30 770 H 78.8464 1.4841 0.171699 0
M  V30 771 H 80.7284 3.02475 2.93406 0
M  V30 772 H 79.4034 1.86395 2.64648 0
M  V30 773 H 78.3104 3.5792 1.0883 0
M  V30 774 H 79.6434 4.70336 1.4507 0
M  V30 775 N 81.2955 -0.223234 1.56011 0
M  V30 776 C 82.2435 -1.29627 1.93131 0
M  V30 777 C 83.2375 -1.48608 0.813146 0
M  V30 778 O 84.4435 -1.49802 0.997966 0
M  V30 779 H 80.8185 -0.434563 0.613726 0
M  V30 780 H 82.7895 -0.955995 2.82672 0
M  V30 781 C 81.5385 -2.63983 2.26292 0
M  V30 782 H 80.8615 -2.50185 3.11846 0
M  V30 783 H 82.3015 -3.3788 2.56151 0
M  V30 784 C 80.7605 -3.18866 1.08747 0
M  V30 785 O 81.2905 -4.00192 0.347727 0
M  V30 786 N 79.4965 -2.77217 0.871743 0
M  V30 787 H 79.0435 -2.1119 1.47501 0
M  V30 788 H 79.0015 -3.1428 0.0869905 0
M  V30 789 N 82.7736 -1.49793 -0.48987 0
M  V30 790 C 83.7036 -1.70201 -1.59856 0
M  V30 791 C 84.6846 -0.55076 -1.60937 0
M  V30 792 O 85.8696 -0.787841 -1.77501 0
M  V30 793 C 82.9996 -1.77882 -2.98287 0
M  V30 794 C 81.9536 -2.92907 -3.12073 0
M  V30 795 C 81.2796 -2.85712 -4.51965 0
M  V30 796 C 82.5796 -4.3369 -2.91051 0
M  V30 797 H 84.2736 -2.63025 -1.43032 0
M  V30 798 H 81.8196 -1.26574 -0.686664 0
M  V30 799 H 83.7726 -1.90744 -3.75759 0
M  V30 800 H 82.4966 -0.816653 -3.16225 0
M  V30 801 H 81.1556 -2.79665 -2.37029 0
M  V30 802 H 80.8036 -1.8738 -4.66795 0
M  V30 803 H 80.5036 -3.62921 -4.62128 0
M  V30 804 H 82.0276 -3.00598 -5.31482 0
M  V30 805 H 83.4416 -4.47555 -3.58284 0
M  V30 806 H 81.8386 -5.12205 -3.12675 0
M  V30 807 H 82.9086 -4.47362 -1.87071 0
M  V30 808 N 84.2517 0.741722 -1.39055 0
M  V30 809 C 85.4977 1.50336 -1.36113 0
M  V30 810 C 85.8307 1.94148 0.0450796 0
M  V30 811 O 85.1057 1.66301 1.00868 0
M  V30 812 C 85.3887 2.74773 -2.32749 0
M  V30 813 C 85.2417 2.37023 -3.82283 0
M  V30 814 C 86.5607 3.76846 -2.27322 0
M  V30 815 H 83.6797 0.545351 -0.495743 0
M  V30 816 H 86.3217 0.848624 -1.69995 0
M  V30 817 H 84.4717 3.30639 -2.03986 0
M  V30 818 H 86.1437 1.8684 -4.21768 0
M  V30 819 H 84.3867 1.69334 -3.99385 0
M  V30 820 H 85.0577 3.26104 -4.45376 0
M  V30 821 H 87.5337 3.30548 -2.5274 0
M  V30 822 H 86.4097 4.6159 -2.97028 0
M  V30 823 H 86.6707 4.23286 -1.27599 0
M  V30 824 N 85.7298 1.2412 0.971189 0
M  V30 825 C 86.6778 1.02812 2.08644 0
M  V30 826 C 87.6718 -0.0358403 1.69362 0
M  V30 827 O 88.8778 0.118429 1.7961 0
M  V30 828 H 85.2528 0.315428 0.682649 0
M  V30 829 H 87.2238 1.97397 2.23779 0
M  V30 830 C 85.9728 0.645874 3.41649 0
M  V30 831 H 85.2958 1.45632 3.72332 0
M  V30 832 H 86.7358 0.536366 4.20594 0
M  V30 833 C 85.1948 -0.646713 3.30635 0
M  V30 834 O 85.7248 -1.69338 3.64263 0
M  V30 835 N 83.9308 -0.626115 2.83775 0
M  V30 836 H 83.4778 0.225988 2.56607 0
M  V30 837 H 83.4358 -1.49117 2.76788 0
M  V30 838 N 87.2079 -1.17134 1.05439 0
M  V30 839 C 88.1709 -2.19439 0.661764 0
M  V30 840 C 89.1709 -1.58199 -0.288042 0
M  V30 841 O 90.3609 -1.74053 -0.0715803 0
M  V30 842 C 87.4929 -3.40889 -0.0276209 0
M  V30 843 H 88.6859 -2.55688 1.56728 0
M  V30 844 H 86.2389 -1.31259 0.848567 0
M  V30 845 H 86.9739 -3.10187 -0.94629 0
M  V30 846 H 86.7589 -3.86586 0.655238 0
M  V30 847 H 88.2489 -4.16603 -0.288342 0
M  V30 848 N 88.686 -0.835752 -1.33615 0
M  V30 849 C 89.932 -0.430596 -1.98176 0
M  V30 850 C 90.265 1.00684 -1.66061 0
M  V30 851 O 89.54 1.70339 -0.938877 0
M  V30 852 C 89.823 -0.648065 -3.5422 0
M  V30 853 C 89.676 -2.13255 -3.96033 0
M  V30 854 C 90.995 -0.0922113 -4.40003 0
M  V30 855 H 88.114 -0.157924 -0.719881 0
M  V30 856 H 90.756 -1.05069 -1.58305 0
M  V30 857 H 88.906 -0.120237 -3.88314 0
M  V30 858 H 90.578 -2.725 -3.72211 0
M  V30 859 H 88.821 -2.61823 -3.45878 0
M  V30 860 H 89.492 -2.23547 -5.04708 0
M  V30 861 H 91.968 -0.543343 -4.12537 0
M  V30 862 H 90.844 -0.274083 -5.48215 0
M  V30 863 H 91.105 1.00378 -4.30554 0
M  V30 864 N 90.1641 1.46063 -0.591896 0
M  V30 865 C 91.5751 1.85944 -0.167822 0
M  V30 866 C 91.9261 1.49429 1.27143 0
M  V30 867 O 91.0511 0.913515 1.96173 0
M  V30 868 C 91.6461 3.37489 -0.297794 0
M  V30 869 C 90.2051 3.76332 0.0714732 0
M  V30 870 C 89.3521 2.7006 -0.629509 0
M  V30 871 H 92.3031 1.37087 -0.799555 0
M  V30 872 H 92.3241 3.77532 0.474349 0
M  V30 873 H 91.8361 3.64034 -1.3454 0
M  V30 874 H 89.9371 3.55405 1.11886 0
M  V30 875 H 90.0501 4.78088 -0.311245 0
M  V30 876 H 88.4141 2.54607 -0.0687867 0
M  V30 877 H 89.1971 2.99444 -1.67894 0
M  V30 878 N 91.6422 0.330177 1.54103 0
M  V30 879 C 92.5742 -0.566902 2.22079 0
M  V30 880 C 93.5872 -1.07462 1.22294 0
M  V30 881 O 94.7762 -0.987065 1.48726 0
M  V30 882 C 91.8762 -1.79138 2.87685 0
M  V30 883 C 91.0492 -1.42123 4.13666 0
M  V30 884 C 90.1082 -2.50394 4.62806 0
M  V30 885 O 89.1342 -2.14261 5.27334 0
M  V30 886 N 90.3362 -3.81433 4.37595 0
M  V30 887 H 93.1012 0.0151844 2.99696 0
M  V30 888 H 90.6622 0.153681 1.61169 0
M  V30 889 H 92.6542 -2.50975 3.1748 0
M  V30 890 H 91.2242 -2.28115 2.13734 0
M  V30 891 H 90.4442 -0.534201 3.90564 0
M  V30 892 H 91.7322 -1.14971 4.9564 0
M  V30 893 H 91.1302 -4.13584 3.8596 0
M  V30 894 H 89.6872 -4.4948 4.72029 0
M  V30 895 N 93.1203 -1.57491 0.0584922 0
M  V30 896 C 94.0503 -2.14988 -0.911178 0
M  V30 897 C 95.0313 -1.07343 -1.31952 0
M  V30 898 O 96.2163 -1.35318 -1.39294 0
M  V30 899 C 93.3463 -2.70078 -2.18347 0
M  V30 900 C 92.3003 -3.82771 -1.91495 0
M  V30 901 C 91.6263 -4.24408 -3.25241 0
M  V30 902 C 92.9263 -5.07592 -1.23075 0
M  V30 903 H 94.6203 -2.96263 -0.432246 0
M  V30 904 H 92.1663 -1.42512 -0.206469 0
M  V30 905 H 94.1193 -3.08943 -2.86587 0
M  V30 906 H 92.8433 -1.86005 -2.68458 0
M  V30 907 H 91.5023 -3.44389 -1.25664 0
M  V30 908 H 91.1503 -3.37275 -3.73168 0
M  V30 909 H 90.8503 -5.00366 -3.08071 0
M  V30 910 H 92.3743 -4.65879 -3.94701 0
M  V30 911 H 93.7883 -5.43857 -1.81362 0
M  V30 912 H 92.1853 -5.88741 -1.16207 0
M  V30 913 H 93.2553 -4.84454 -0.207847 0
M  V30 914 N 94.5984 0.214957 -1.56127 0
M  V30 915 C 95.5454 1.26642 -1.92952 0
M  V30 916 C 96.5154 1.46244 -0.78753 0
M  V30 917 O 97.7004 1.59704 -1.04399 0
M  V30 918 C 94.8404 2.6104 -2.25726 0
M  V30 919 C 93.9534 2.49183 -3.52891 0
M  V30 920 C 93.0884 3.76149 -3.7508 0
M  V30 921 C 92.1274 3.59041 -4.95738 0
M  V30 922 N 91.2644 4.77972 -5.14283 0
M  V30 923 H 96.1044 0.945384 -2.82607 0
M  V30 924 H 93.6414 0.455489 -1.3987 0
M  V30 925 H 95.5994 3.39313 -2.42739 0
M  V30 926 H 94.2294 2.91227 -1.39236 0
M  V30 927 H 93.2814 1.6231 -3.44034 0
M  V30 928 H 94.5934 2.32466 -4.41318 0
M  V30 929 H 93.7474 4.62865 -3.92226 0
M  V30 930 H 92.4864 3.95799 -2.84947 0
M  V30 931 H 91.4914 2.7071 -4.78535 0
M  V30 932 H 92.7164 3.40856 -5.87362 0
M  V30 933 H 90.6624 4.97923 -4.27093 0
M  V30 934 H 90.5794 4.64006 -5.96853 0
M  V30 935 H 91.8474 5.66096 -5.35869 0
M  V30 936 N 96.0765 1.50051 0.48192 0
M  V30 937 C 97.3535 1.51009 1.2432 0
M  V30 938 C 97.7335 0.248587 2.09631 0
M  V30 939 O 97.0815 -0.768409 2.15192 0
M  V30 940 C 97.2915 2.79981 2.08355 0
M  V30 941 C 98.6395 3.3022 2.66908 0
M  V30 942 O 99.6635 2.81228 2.18607 0
M  V30 943 O 98.5225 4.15595 3.54884 0
M  V30 944 H 95.6165 0.605239 0.563573 0
M  V30 945 H 98.1625 1.62332 0.494627 0
M  V30 946 H 96.9345 3.63275 1.45419 0
M  V30 947 H 96.5575 2.7161 2.90368 0
M  V30 948 N 97.5546 -0.734337 1.39446 0
M  V30 949 C 98.8036 -1.48937 1.36017 0
M  V30 950 C 99.1166 -1.95557 -0.0409005 0
M  V30 951 O 100.323 -2.70779 -0.19778 0
M  V30 952 C 98.7786 -2.69125 2.38955 0
M  V30 953 C 98.3866 -2.29452 3.8478 0
M  V30 954 C 100.131 -3.46944 2.44603 0
M  V30 955 C 98.0376 -3.46366 4.79358 0
M  V30 956 H 96.9676 -0.559296 0.505672 0
M  V30 957 H 99.6186 -0.800983 1.65095 0
M  V30 958 H 98.0006 -3.40041 2.02948 0
M  V30 959 H 99.1746 -1.66077 4.29831 0
M  V30 960 H 97.4896 -1.64723 3.82433 0
M  V30 961 H 100.087 -4.33907 3.12456 0
M  V30 962 H 100.43 -3.89454 1.47076 0
M  V30 963 H 100.963 -2.83056 2.79507 0
M  V30 964 H 97.7016 -3.08905 5.78151 0
M  V30 965 H 97.2216 -4.08719 4.38986 0
M  V30 966 H 98.9006 -4.12691 4.98292 0
M  V30 967 N 99.0327 -1.24633 -0.964593 0
M  V30 968 C 99.9957 -1.0424 -2.04124 0
M  V30 969 C 100.996 0.00137563 -1.608 0
M  V30 970 O 102.186 -0.239883 -1.7254 0
M  V30 971 C 99.3177 -0.580588 -3.3592 0
M  V30 972 H 100.511 -1.99803 -2.23649 0
M  V30 973 H 98.0637 -1.06899 -1.14027 0
M  V30 974 H 98.7987 0.3781 -3.22088 0
M  V30 975 H 98.5837 -1.33398 -3.6871 0
M  V30 976 H 100.074 -0.459034 -4.15069 0
M  V30 977 N 100.511 1.16574 -1.06058 0
M  V30 978 C 101.459 2.22941 -0.663343 0
M  V30 979 C 102.453 1.66358 0.319593 0
M  V30 980 O 103.659 1.7905 0.184713 0
M  V30 981 H 100.034 0.725907 -0.196376 0
M  V30 982 H 102.005 2.53736 -1.57037 0
M  V30 983 C 100.754 3.47642 -0.0632808 0
M  V30 984 H 100.077 3.91493 -0.810733 0
M  V30 985 H 101.517 4.2363 0.177177 0
M  V30 986 C 99.9758 3.1509 1.19248 0
M  V30 987 O 100.506 3.30673 2.28075 0
M  V30 988 N 98.7118 2.6924 1.09353 0
M  V30 989 H 98.2588 2.5676 0.207912 0
M  V30 990 H 98.2168 2.47833 1.93458 0
M  V30 991 N 101.989 0.842826 1.3317 0
M  V30 992 C 103.235 0.441099 1.97945 0
M  V30 993 C 103.568 -0.998024 1.66593 0
M  V30 994 O 102.843 -1.69839 0.947898 0
M  V30 995 C 103.126 0.666841 3.53872 0
M  V30 996 C 102.979 2.15352 3.94897 0
M  V30 997 C 104.298 0.115544 4.39948 0
M  V30 998 H 101.417 0.161739 0.719034 0
M  V30 999 H 104.059 1.05907 1.57746 0
M  V30 1000 H 102.209 0.140828 3.88245 0
M  V30 1001 H 103.881 2.7447 3.70761 0
M  V30 1002 H 102.124 2.63653 3.44484 0
M  V30 1003 H 102.795 2.26221 5.03516 0
M  V30 1004 H 105.271 0.565213 4.12243 0
M  V30 1005 H 104.147 0.303152 5.48062 0
M  V30 1006 H 104.408 -0.980935 4.3108 0
M  V30 1007 N 103.467 -1.45747 0.599634 0
M  V30 1008 C 104.414 -2.30467 -0.123849 0
M  V30 1009 C 105.384 -1.41632 -0.86774 0
M  V30 1010 O 106.569 -1.70568 -0.855056 0
M  V30 1011 C 103.709 -3.26402 -1.12051 0
M  V30 1012 C 102.822 -4.3034 -0.37832 0
M  V30 1013 C 101.957 -5.13389 -1.364 0
M  V30 1014 C 100.996 -6.09061 -0.609171 0
M  V30 1015 N 100.133 -6.84918 -1.54374 0
M  V30 1016 H 104.973 -2.91802 0.604627 0
M  V30 1017 H 102.51 -1.43797 0.309972 0
M  V30 1018 H 104.468 -3.80482 -1.7114 0
M  V30 1019 H 103.098 -2.66839 -1.8165 0
M  V30 1020 H 102.15 -3.78984 0.327929 0
M  V30 1021 H 103.462 -4.98354 0.210997 0
M  V30 1022 H 102.616 -5.7183 -2.02719 0
M  V30 1023 H 101.355 -4.45376 -1.98725 0
M  V30 1024 H 100.36 -5.49758 0.0676979 0
M  V30 1025 H 101.585 -6.79099 0.00891991 0
M  V30 1026 H 99.531 -6.19601 -2.15478 0
M  V30 1027 H 99.448 -7.49254 -1.00766 0
M  V30 1028 H 100.716 -7.47906 -2.19676 0
M  V30 1029 N 104.945 -0.338344 -1.53925 0
M  V30 1030 C 106.193 0.259245 -2.0043 0
M  V30 1031 C 106.514 1.51484 -1.22791 0
M  V30 1032 O 105.784 1.93037 -0.33368 0
M  V30 1033 H 104.364 0.0987845 -0.740439 0
M  V30 1034 H 107.026 -0.458302 -1.89435 0
M  V30 1035 H 106.122 0.505334 -3.07982 0
M  V30 1036 N 106.423 1.57458 -0.0668435 0
M  V30 1037 C 107.333 2.15937 0.916975 0
M  V30 1038 C 108.349 1.12123 1.33058 0
M  V30 1039 O 109.525 1.44366 1.40429 0
M  V30 1040 C 106.59 2.70547 2.16807 0
M  V30 1041 C 105.651 3.89215 1.81135 0
M  V30 1042 C 104.884 4.41211 3.0028 0
M  V30 1043 O 105.107 3.92225 4.14144 0
M  V30 1044 O 104.041 5.32605 2.80384 0
M  V30 1045 H 107.867 3.00354 0.449561 0
M  V30 1046 H 105.452 1.48584 0.155949 0
M  V30 1047 H 107.334 3.0557 2.90181 0
M  V30 1048 H 106.009 1.89192 2.62656 0
M  V30 1049 H 104.916 3.59054 1.05028 0
M  V30 1050 H 106.249 4.71848 1.40073 0
M  V30 1051 N 107.901 -0.206675 1.56239 0
M  V30 1052 C 108.833 -1.27997 1.9013 0
M  V30 1053 C 109.846 -1.42299 0.790883 0
M  V30 1054 O 111.035 -1.42931 1.06925 0
M  V30 1055 C 108.135 -2.65368 2.10792 0
M  V30 1056 C 107.308 -2.72824 3.41886 0
M  V30 1057 C 106.367 -3.9131 3.51799 0
M  V30 1058 O 105.393 -3.78953 4.24716 0
M  V30 1059 N 106.595 -5.06265 2.84035 0
M  V30 1060 H 109.36 -0.992444 2.82791 0
M  V30 1061 H 106.921 -0.396652 1.56966 0
M  V30 1062 H 108.913 -3.43039 2.14724 0
M  V30 1063 H 107.483 -2.86657 1.24685 0
M  V30 1064 H 106.703 -1.81515 3.49923 0
M  V30 1065 H 107.991 -2.74786 4.28217 0
M  V30 1066 H 107.389 -5.19203 2.246 0
M  V30 1067 H 105.946 -5.81925 2.93609 0
M  V30 1068 N 109.379 -1.50304 -0.473955 0
M  V30 1069 C 110.625 -1.61389 -1.22806 0
M  V30 1070 C 110.958 -0.311955 -1.91678 0
M  V30 1071 O 110.233 0.686384 -1.81986 0
M  V30 1072 C 110.516 -2.79219 -2.27396 0
M  V30 1073 C 110.369 -4.19286 -1.62848 0
M  V30 1074 C 111.688 -2.92614 -3.28732 0
M  V30 1075 H 108.807 -0.587399 -0.445119 0
M  V30 1076 H 111.449 -1.82681 -0.522265 0
M  V30 1077 H 109.599 -2.61195 -2.87592 0
M  V30 1078 H 111.271 -4.48892 -1.06271 0
M  V30 1079 H 109.514 -4.23677 -0.931693 0
M  V30 1080 H 110.185 -4.97655 -2.38838 0
M  V30 1081 H 112.661 -3.09105 -2.78556 0
M  V30 1082 H 111.537 -3.76688 -3.99246 0
M  V30 1083 H 111.798 -2.03107 -3.92683 0
M  V30 1084 N 110.857 0.726932 -1.39834 0
M  V30 1085 C 112.103 1.48884 -1.377 0
M  V30 1086 C 112.436 1.94185 0.0244852 0
M  V30 1087 O 111.711 1.67361 0.990986 0
M  V30 1088 C 111.994 2.72288 -2.3565 0
M  V30 1089 C 111.847 2.32956 -3.84775 0
M  V30 1090 C 113.166 3.74414 -2.31306 0
M  V30 1091 H 110.285 0.540062 -0.5015 0
M  V30 1092 H 112.927 0.830547 -1.70886 0
M  V30 1093 H 111.077 3.28457 -2.07481 0
M  V30 1094 H 112.749 1.82356 -4.23726 0
M  V30 1095 H 110.992 1.65088 -4.01159 0
M  V30 1096 H 111.663 3.21362 -4.4881 0
M  V30 1097 H 114.139 3.27849 -2.56231 0
M  V30 1098 H 113.015 4.58414 -3.01907 0
M  V30 1099 H 113.276 4.21909 -1.32081 0
M  V30 1100 N 112.336 1.25143 0.95797 0
M  V30 1101 C 113.284 1.05019 2.07542 0
M  V30 1102 C 114.278 -0.0178751 1.69391 0
M  V30 1103 O 115.484 0.137472 1.79474 0
M  V30 1104 H 111.859 0.32265 0.679265 0
M  V30 1105 H 113.83 1.99759 2.21673 0
M  V30 1106 C 112.579 0.682074 3.40944 0
M  V30 1107 H 111.902 1.49573 3.70767 0
M  V30 1108 H 113.342 0.580945 4.20001 0
M  V30 1109 C 111.801 -0.611608 3.31302 0
M  V30 1110 O 112.331 -1.65465 3.66038 0
M  V30 1111 N 110.537 -0.595982 2.84423 0
M  V30 1112 H 110.084 0.253192 2.56353 0
M  V30 1113 H 110.042 -1.46173 2.78354 0
M  V30 1114 N 113.814 -1.1601 1.06675 0
M  V30 1115 C 115.063 -1.85973 0.780818 0
M  V30 1116 C 115.376 -1.82819 -0.695444 0
M  V30 1117 O 116.582 -2.484 -1.09589 0
M  V30 1118 C 115.038 -3.33757 1.34665 0
M  V30 1119 C 114.646 -3.45374 2.85343 0
M  V30 1120 C 116.39 -4.0895 1.13843 0
M  V30 1121 C 114.297 -4.87266 3.35151 0
M  V30 1122 H 113.227 -0.696661 0.288407 0
M  V30 1123 H 115.878 -1.30903 1.28595 0
M  V30 1124 H 114.26 -3.88456 0.769274 0
M  V30 1125 H 115.434 -3.00816 3.49065 0
M  V30 1126 H 113.749 -2.83619 3.04876 0
M  V30 1127 H 116.346 -5.13654 1.4854 0
M  V30 1128 H 116.689 -4.16229 0.0770282 0
M  V30 1129 H 117.222 -3.605 1.68179 0
M  V30 1130 H 113.961 -4.85168 4.40786 0
M  V30 1131 H 113.481 -5.32433 2.76179 0
M  V30 1132 H 115.16 -5.56097 3.30704 0
M  V30 1133 N 115.292 -0.849877 -1.32721 0
M  V30 1134 C 116.54 -0.450032 -1.97026 0
M  V30 1135 C 116.861 0.996604 -1.67609 0
M  V30 1136 O 116.131 1.6958 -0.980786 0
M  V30 1137 H 114.711 -0.163426 -0.728904 0
M  V30 1138 H 117.373 -1.08526 -1.6189 0
M  V30 1139 H 116.469 -0.591146 -3.0645 0
M  V30 1140 N 116.77 1.45427 -0.607355 0
M  V30 1141 C 117.995 2.07124 -0.107006 0
M  V30 1142 C 118.42 1.44906 1.19933 0
M  V30 1143 O 117.778 0.541687 1.73019 0
M  V30 1144 C 117.826 3.60595 0.0194119 0
M  V30 1145 O 116.93 3.98285 1.0697 0
M  V30 1146 H 116.271 0.659868 -0.0739597 0
M  V30 1147 H 118.801 1.86683 -0.837297 0
M  V30 1148 H 118.811 4.07419 0.2177 0
M  V30 1149 H 117.486 4.05266 -0.934453 0
M  V30 1150 H 116.063 3.63133 0.847889 0
M  V30 1151 N 118.248 0.346503 1.53744 0
M  V30 1152 C 119.18 -0.543316 2.22667 0
M  V30 1153 C 120.193 -1.06159 1.23427 0
M  V30 1154 O 121.382 -0.971235 1.49764 0
M  V30 1155 C 118.482 -1.76076 2.89569 0
M  V30 1156 C 117.655 -1.37727 4.15151 0
M  V30 1157 C 116.714 -2.45471 4.65436 0
M  V30 1158 O 115.74 -2.08655 5.29577 0
M  V30 1159 N 116.942 -3.7677 4.41616 0
M  V30 1160 H 119.707 0.0469703 2.99663 0
M  V30 1161 H 117.268 0.170766 1.60997 0
M  V30 1162 H 119.26 -2.47593 3.20125 0
M  V30 1163 H 117.83 -2.25835 2.16142 0
M  V30 1164 H 117.05 -0.492746 3.91108 0
M  V30 1165 H 118.338 -1.09708 4.96832 0
M  V30 1166 H 117.736 -4.09467 3.90325 0
M  V30 1167 H 116.293 -4.44448 4.7677 0
M  V30 1168 N 119.726 -1.57421 0.075193 0
M  V30 1169 C 121.003 -1.85029 -0.634329 0
M  V30 1170 C 121.383 -0.968305 -1.87582 0
M  V30 1171 O 120.731 -0.0354749 -2.28472 0
M  V30 1172 C 120.941 -3.35286 -0.968742 0
M  V30 1173 C 122.289 -4.02875 -1.34077 0
M  V30 1174 O 123.313 -3.40051 -1.06037 0
M  V30 1175 O 122.172 -5.13691 -1.86506 0
M  V30 1176 H 119.266 -0.7645 -0.315387 0
M  V30 1177 H 121.812 -1.69366 0.106382 0
M  V30 1178 H 120.584 -3.91203 -0.0871376 0
M  V30 1179 H 120.207 -3.56223 -1.7661 0
M  V30 1180 N 121.204 0.198386 -1.56346 0
M  V30 1181 C 122.137 1.27381 -1.89339 0
M  V30 1182 C 123.115 1.44106 -0.753134 0
M  V30 1183 O 124.299 1.59549 -1.00381 0
M  V30 1184 C 121.426 2.6409 -2.12071 0
M  V30 1185 C 120.472 2.64253 -3.34772 0
M  V30 1186 S 121.305 2.16013 -4.89999 0
M  V30 1187 C 122.461 3.54553 -5.15794 0
M  V30 1188 H 122.694 0.992058 -2.8026 0
M  V30 1189 H 120.227 0.401726 -1.49082 0
M  V30 1190 H 122.185 3.42786 -2.2585 0
M  V30 1191 H 120.846 2.89478 -1.21906 0
M  V30 1192 H 120.039 3.64768 -3.47794 0
M  V30 1193 H 119.641 1.93637 -3.1997 0
M  V30 1194 H 121.933 4.50396 -5.06112 0
M  V30 1195 H 122.876 3.46428 -6.1757 0
M  V30 1196 H 123.284 3.49313 -4.43442 0
M  V30 1197 N 122.682 1.50554 0.465978 0
M  V30 1198 C 123.63 1.70324 1.58406 0
M  V30 1199 C 124.624 0.569139 1.59553 0
M  V30 1200 O 125.83 0.749776 1.63641 0
M  V30 1201 H 122.205 0.537688 0.525734 0
M  V30 1202 H 124.176 2.64104 1.38894 0
M  V30 1203 C 122.925 1.81928 2.96307 0
M  V30 1204 H 122.248 2.68586 2.96144 0
M  V30 1205 H 123.688 1.99784 3.73982 0
M  V30 1206 C 122.147 0.572095 3.32007 0
M  V30 1207 O 122.677 -0.286416 4.00678 0
M  V30 1208 N 120.883 0.424606 2.87481 0
M  V30 1209 H 120.43 1.12427 2.31771 0
M  V30 1210 H 120.388 -0.408697 3.11732 0
M  V30 1211 N 124.16 -0.719506 1.40217 0
M  V30 1212 C 125.437 -1.47221 1.28784 0
M  V30 1213 C 125.817 -2.10883 -0.0956067 0
M  V30 1214 O 125.165 -1.99833 -1.10811 0
M  V30 1215 C 125.375 -2.5111 2.42373 0
M  V30 1216 C 126.723 -3.17053 2.82423 0
M  V30 1217 O 127.747 -2.61429 2.41937 0
M  V30 1218 O 126.606 -4.17742 3.52355 0
M  V30 1219 H 123.7 -0.654491 0.50554 0
M  V30 1220 H 126.246 -0.752014 1.52128 0
M  V30 1221 H 125.018 -2.02556 3.34793 0
M  V30 1222 H 124.641 -3.3067 2.20778 0
M  V30 1223 N 125.638 -1.25649 -0.95132 0
M  V30 1224 C 126.586 -1.06118 -2.06982 0
M  V30 1225 C 127.58 0.00889169 -1.69398 0
M  V30 1226 O 128.786 -0.146988 -1.79399 0
M  V30 1227 H 125.161 -0.326248 -0.677544 0
M  V30 1228 H 127.132 -2.00932 -2.2061 0
M  V30 1229 C 125.881 -0.700145 -3.40578 0
M  V30 1230 H 125.204 -1.51537 -3.69968 0
M  V30 1231 H 126.644 -0.603211 -4.19687 0
M  V30 1232 C 125.103 0.59403 -3.31622 0
M  V30 1233 O 125.633 1.63522 -3.66911 0
M  V30 1234 N 123.839 0.58089 -2.84735 0
M  V30 1235 H 123.386 -0.266783 -2.56215 0
M  V30 1236 H 123.344 1.44695 -2.79125 0
M  V30 1237 N 127.117 1.15442 -1.07289 0
M  V30 1238 C 128.363 1.86489 -0.796846 0
M  V30 1239 C 128.696 1.82078 0.675371 0
M  V30 1240 O 127.971 1.24346 1.4956 0
M  V30 1241 C 128.254 3.35626 -1.30489 0
M  V30 1242 C 128.107 3.48673 -2.84161 0
M  V30 1243 C 129.426 4.30357 -0.920907 0
M  V30 1244 H 126.545 0.677144 -0.290939 0
M  V30 1245 H 129.187 1.35633 -1.33056 0
M  V30 1246 H 127.337 3.79068 -0.850883 0
M  V30 1247 H 129.009 3.14099 -3.37846 0
M  V30 1248 H 127.252 2.90253 -3.22391 0
M  V30 1249 H 127.923 4.53453 -3.14777 0
M  V30 1250 H 130.399 3.94871 -1.3121 0
M  V30 1251 H 129.275 5.33193 -1.30372 0
M  V30 1252 H 129.536 4.4176 0.173226 0
M  V30 1253 N 128.595 0.856903 1.32268 0
M  V30 1254 C 129.841 0.471355 1.97863 0
M  V30 1255 C 130.196 -0.962896 1.66572 0
M  V30 1256 O 129.489 -1.66686 0.944797 0
M  V30 1257 C 129.683 0.649919 3.51441 0
M  V30 1258 C 129.512 2.09997 3.97657 0
M  V30 1259 C 128.282 2.73893 4.2463 0
M  V30 1260 C 130.48 3.07081 4.1256 0
M  V30 1261 N 128.462 4.09786 4.57109 0
M  V30 1262 C 129.833 4.27968 4.48602 0
M  V30 1263 C 131.888 3.03247 3.949 0
M  V30 1264 C 130.591 5.45521 4.68827 0
M  V30 1265 C 132.617 4.20046 4.16311 0
M  V30 1266 C 131.979 5.39692 4.52672 0
M  V30 1267 H 128.078 0.221263 0.750044 0
M  V30 1268 H 130.662 1.10876 1.60045 0
M  V30 1269 H 128.833 0.0421938 3.88377 0
M  V30 1270 H 130.565 0.234044 4.04023 0
M  V30 1271 H 127.32 2.24918 4.16784 0
M  V30 1272 H 127.744 4.7989 4.7753 0
M  V30 1273 H 132.386 2.11863 3.65888 0
M  V30 1274 H 130.104 6.37434 4.96693 0
M  V30 1275 H 133.69 4.18517 4.04147 0
M  V30 1276 H 132.57 6.28566 4.68907 0
M  V30 1277 N 130.073 -1.45103 0.615059 0
M  V30 1278 C 131.003 -2.33339 -0.0865619 0
M  V30 1279 C 131.984 -1.4727 -0.851209 0
M  V30 1280 O 133.169 -1.76026 -0.820281 0
M  V30 1281 C 130.299 -3.30095 -1.07956 0
M  V30 1282 C 129.253 -4.25858 -0.427628 0
M  V30 1283 C 128.579 -5.12361 -1.5294 0
M  V30 1284 C 129.879 -5.18165 0.655944 0
M  V30 1285 H 131.573 -2.92254 0.650224 0
M  V30 1286 H 129.119 -1.40532 0.314138 0
M  V30 1287 H 131.072 -3.90698 -1.57901 0
M  V30 1288 H 129.796 -2.69355 -1.84703 0
M  V30 1289 H 128.455 -3.66564 0.0510292 0
M  V30 1290 H 128.103 -4.47984 -2.28734 0
M  V30 1291 H 127.803 -5.77238 -1.09865 0
M  V30 1292 H 129.327 -5.75833 -2.03098 0
M  V30 1293 H 130.741 -5.72796 0.240257 0
M  V30 1294 H 129.138 -5.91559 1.00888 0
M  V30 1295 H 130.208 -4.60144 1.52957 0
M  V30 1296 N 131.551 -0.354651 -1.53558 0
M  V30 1297 C 132.779 0.239515 -2.05509 0
M  V30 1298 C 133.194 1.4333 -1.2289 0
M  V30 1299 O 132.551 1.80538 -0.266899 0
M  V30 1300 C 132.602 0.643719 -3.55723 0
M  V30 1301 O 132.323 -0.502602 -4.35207 0
M  V30 1302 C 133.824 1.29743 -4.23889 0
M  V30 1303 H 131.044 0.0442697 -0.669538 0
M  V30 1304 H 133.588 -0.509856 -1.98042 0
M  V30 1305 H 131.743 1.34302 -3.63376 0
M  V30 1306 H 132.157 -0.178172 -5.24197 0
M  V30 1307 H 133.631 1.53091 -5.30346 0
M  V30 1308 H 134.108 2.25441 -3.76926 0
M  V30 1309 H 134.714 0.639865 -4.20459 0
M  V30 1310 N 133.029 1.57378 -0.0835403 0
M  V30 1311 C 133.959 2.1641 0.87686 0
M  V30 1312 C 134.94 1.09429 1.30228 0
M  V30 1313 O 136.125 1.37516 1.37124 0
M  V30 1314 C 133.255 2.73517 2.14022 0
M  V30 1315 C 132.209 3.85769 1.85381 0
M  V30 1316 C 131.535 4.29529 3.18448 0
M  V30 1317 C 132.835 5.09486 1.14984 0
M  V30 1318 H 134.529 2.96914 0.385059 0
M  V30 1319 H 132.075 1.42823 0.18377 0
M  V30 1320 H 134.028 3.13463 2.81636 0
M  V30 1321 H 132.752 1.90252 2.65465 0
M  V30 1322 H 131.411 3.46345 1.20169 0
M  V30 1323 H 131.059 3.43169 3.67755 0
M  V30 1324 H 130.759 5.05204 3.00071 0
M  V30 1325 H 132.283 4.72099 3.8724 0
M  V30 1326 H 133.697 5.46674 1.72687 0
M  V30 1327 H 132.094 5.90515 1.06826 0
M  V30 1328 H 133.164 4.84724 0.130749 0
M  V30 1329 N 134.507 -0.190092 1.56449 0
M  V30 1330 C 135.47 -1.21925 1.9408 0
M  V30 1331 C 136.47 -1.38176 0.822431 0
M  V30 1332 O 137.66 -1.35903 1.08977 0
M  V30 1333 C 134.792 -2.58773 2.21922 0
M  V30 1334 H 135.985 -0.897464 2.86157 0
M  V30 1335 H 133.538 -0.43181 1.50217 0
M  V30 1336 H 134.273 -2.95998 1.32499 0
M  V30 1337 H 134.058 -2.48348 3.03424 0
M  V30 1338 H 135.548 -3.32978 2.52022 0
M  V30 1339 N 135.985 -1.50799 -0.457987 0
M  V30 1340 C 136.932 -1.70617 -1.5543 0
M  V30 1341 C 137.902 -0.547562 -1.56815 0
M  V30 1342 O 139.087 -0.779647 -1.74144 0
M  V30 1343 C 136.227 -1.81831 -2.93311 0
M  V30 1344 C 135.34 -3.09278 -3.01615 0
M  V30 1345 C 134.475 -3.11209 -4.30491 0
M  V30 1346 C 133.514 -4.33055 -4.32585 0
M  V30 1347 N 132.651 -4.32652 -5.52952 0
M  V30 1348 H 137.491 -2.64207 -1.37836 0
M  V30 1349 H 135.028 -1.30959 -0.669937 0
M  V30 1350 H 136.986 -1.86314 -3.73287 0
M  V30 1351 H 135.616 -0.916685 -3.0951 0
M  V30 1352 H 134.668 -3.14203 -2.1443 0
M  V30 1353 H 135.98 -3.99233 -2.99022 0
M  V30 1354 H 135.134 -3.14494 -5.18824 0
M  V30 1355 H 133.873 -2.19106 -4.35711 0
M  V30 1356 H 132.878 -4.29969 -3.42647 0
M  V30 1357 H 134.103 -5.264 -4.29046 0
M  V30 1358 H 132.049 -3.43409 -5.58933 0
M  V30 1359 H 131.966 -5.16392 -5.52155 0
M  V30 1360 H 133.234 -4.40101 -6.43375 0
M  V30 1361 N 137.463 0.71206 -1.40597 0
M  V30 1362 C 138.41 1.82613 -1.41142 0
M  V30 1363 C 139.38 1.63925 -0.267903 0
M  V30 1364 O 140.565 1.85009 -0.466495 0
M  V30 1365 C 137.705 3.20354 -1.28324 0
M  V30 1366 C 136.818 3.50589 -2.52411 0
M  V30 1367 C 135.953 4.77855 -2.32009 0
M  V30 1368 C 134.992 5.01005 -3.51654 0
M  V30 1369 N 134.129 6.19487 -3.30425 0
M  V30 1370 H 138.969 1.81482 -2.36365 0
M  V30 1371 H 136.506 0.886475 -1.17388 0
M  V30 1372 H 138.464 3.99899 -1.18899 0
M  V30 1373 H 137.094 3.20705 -0.367189 0
M  V30 1374 H 136.146 2.65573 -2.72351 0
M  V30 1375 H 137.458 3.63604 -3.41458 0
M  V30 1376 H 136.612 5.65424 -2.19956 0
M  V30 1377 H 135.351 4.67056 -1.40392 0
M  V30 1378 H 134.356 4.1189 -3.64179 0
M  V30 1379 H 135.581 5.13674 -4.44202 0
M  V30 1380 H 133.527 6.09932 -2.41494 0
M  V30 1381 H 133.444 6.33194 -4.13039 0
M  V30 1382 H 134.712 7.09834 -3.22113 0
M  V30 1383 N 138.941 1.26152 0.944643 0
M  V30 1384 C 140.19 1.10883 1.68487 0
M  V30 1385 C 140.503 -0.348153 1.92477 0
M  V30 1386 O 141.709 -0.621459 2.64292 0
M  V30 1387 C 140.165 1.93624 3.03377 0
M  V30 1388 C 139.773 3.43875 2.87148 0
M  V30 1389 C 141.517 1.86954 3.81115 0
M  V30 1390 C 139.424 4.18875 4.1749 0
M  V30 1391 H 138.354 0.41135 0.631907 0
M  V30 1392 H 141.005 1.50433 1.05082 0
M  V30 1393 H 139.387 1.46904 3.67743 0
M  V30 1394 H 140.561 3.98338 2.31653 0
M  V30 1395 H 138.876 3.51744 2.22856 0
M  V30 1396 H 141.473 2.40275 4.77673 0
M  V30 1397 H 141.816 0.839518 4.07747 0
M  V30 1398 H 142.349 2.31477 3.23517 0
M  V30 1399 H 139.088 5.22332 3.96043 0
M  V30 1400 H 138.608 3.69193 4.72712 0
M  V30 1401 H 140.287 4.27134 4.85968 0
M  V30 1402 N 140.419 -1.14872 1.07899 0
M  V30 1403 C 141.367 -2.21857 0.698727 0
M  V30 1404 C 142.361 -1.66845 -0.293086 0
M  V30 1405 O 143.567 -1.79321 -0.156204 0
M  V30 1406 H 139.942 -0.722691 0.207899 0
M  V30 1407 H 141.913 -2.51205 1.61054 0
M  V30 1408 C 140.662 -3.47498 0.11858 0
M  V30 1409 H 139.985 -3.90154 0.872914 0
M  V30 1410 H 141.425 -4.23858 -0.109759 0
M  V30 1411 C 139.884 -3.16947 -1.1422 0
M  V30 1412 O 140.414 -3.3426 -2.22785 0
M  V30 1413 N 138.62 -2.70946 -1.05055 0
M  V30 1414 H 138.167 -2.57058 -0.167038 0
M  V30 1415 H 138.125 -2.50879 -1.89491 0
M  V30 1416 N 141.898 -0.863906 -1.31812 0
M  V30 1417 C 143.126 -0.486111 -2.01108 0
M  V30 1418 C 143.541 0.919755 -1.64882 0
M  V30 1419 O 142.898 1.60162 -0.874893 0
M  V30 1420 C 142.949 -0.626435 -3.56031 0
M  V30 1421 O 142.67 -1.97693 -3.90959 0
M  V30 1422 C 144.171 -0.248857 -4.42601 0
M  V30 1423 H 141.391 -0.190052 -0.643523 0
M  V30 1424 H 143.935 -1.1634 -1.68182 0
M  V30 1425 H 142.09 0.00322717 -3.874 0
M  V30 1426 H 142.504 -1.98034 -4.85678 0
M  V30 1427 H 143.978 -0.398016 -5.50563 0
M  V30 1428 H 144.455 0.811489 -4.31638 0
M  V30 1429 H 145.061 -0.853971 -4.16638 0
M  V30 1430 N 143.376 1.44774 -0.622745 0
M  V30 1431 C 144.653 1.95522 -0.0551974 0
M  V30 1432 C 145.033 1.5649 1.41683 0
M  V30 1433 O 144.381 0.834848 2.12703 0
M  V30 1434 C 144.591 3.4796 -0.269242 0
M  V30 1435 C 145.939 4.24306 -0.158014 0
M  V30 1436 O 146.963 3.55637 -0.200162 0
M  V30 1437 O 145.822 5.46471 -0.0558693 0
M  V30 1438 H 142.916 0.826556 0.0271015 0
M  V30 1439 H 145.462 1.54866 -0.693864 0
M  V30 1440 H 144.234 3.6939 -1.29099 0
M  V30 1441 H 143.857 3.95543 0.403966 0
M  V30 1442 N 144.854 0.36279 1.53368 0
M  V30 1443 C 146.094 -0.227882 2.03126 0
M  V30 1444 C 146.458 -1.4622 1.24434 0
M  V30 1445 O 147.659 -2.12831 1.64184 0
M  V30 1446 C 145.93 -0.515427 3.53664 0
M  V30 1447 S 147.489 -1.08017 4.25297 0
M  V30 1448 H 144.307 -0.0665377 0.70788 0
M  V30 1449 H 146.909 0.50501 1.88865 0
M  V30 1450 H 145.613 0.390436 4.08539 0
M  V30 1451 H 145.144 -1.27747 3.72081 0
M  V30 1452 H 147.159 -2.36462 4.36234 0
M  V30 1453 N 146.332 -1.57332 0.0918853 0
M  V30 1454 C 147.609 -1.85691 -0.614668 0
M  V30 1455 C 147.989 -0.988146 -1.86545 0
M  V30 1456 O 147.337 -0.0597055 -2.28422 0
M  V30 1457 C 147.547 -3.36294 -0.933126 0
M  V30 1458 C 148.895 -4.04275 -1.29796 0
M  V30 1459 O 149.919 -3.41157 -1.02424 0
M  V30 1460 O 148.778 -5.1564 -1.81047 0
M  V30 1461 H 145.872 -0.767802 -0.307261 0
M  V30 1462 H 148.418 -1.69244 0.12434 0
M  V30 1463 H 147.19 -3.91273 -0.0456404 0
M  V30 1464 H 146.813 -3.58076 -1.72822 0
M  V30 1465 N 147.81 0.181792 -1.56548 0
M  V30 1466 C 148.757 1.22521 -1.95595 0
M  V30 1467 C 149.727 1.4454 -0.818373 0
M  V30 1468 O 150.912 1.57454 -1.07763 0
M  V30 1469 C 148.052 2.56193 -2.31212 0
M  V30 1470 C 147.165 2.41641 -3.58097 0
M  V30 1471 C 146.3 3.68108 -3.82975 0
M  V30 1472 C 145.339 3.48445 -5.03242 0
M  V30 1473 N 144.476 4.66956 -5.24306 0
M  V30 1474 H 149.316 0.885226 -2.84548 0
M  V30 1475 H 146.853 0.425718 -1.40805 0
M  V30 1476 H 148.811 3.34088 -2.49882 0
M  V30 1477 H 147.441 2.88208 -1.45382 0
M  V30 1478 H 146.493 1.54976 -3.474 0
M  V30 1479 H 147.805 2.23052 -4.46149 0
M  V30 1480 H 146.959 4.54441 -4.01956 0
M  V30 1481 H 145.698 3.89666 -2.93278 0
M  V30 1482 H 144.703 2.60499 -4.8417 0
M  V30 1483 H 145.928 3.2832 -5.9446 0
M  V30 1484 H 143.874 4.88752 -4.37559 0
M  V30 1485 H 143.791 4.51242 -6.06561 0
M  V30 1486 H 145.059 5.54602 -5.47756 0
M  V30 1487 N 149.288 1.51039 0.449983 0
M  V30 1488 C 150.516 1.66869 1.2232 0
M  V30 1489 C 150.931 0.360727 1.85322 0
M  V30 1490 O 150.288 -0.659531 1.70166 0
M  V30 1491 C 150.339 2.77524 2.31652 0
M  V30 1492 O 150.06 4.03252 1.7123 0
M  V30 1493 C 151.561 3.04512 3.2216 0
M  V30 1494 H 148.781 0.560326 0.369155 0
M  V30 1495 H 151.325 1.97385 0.534719 0
M  V30 1496 H 149.48 2.49642 2.96239 0
M  V30 1497 H 149.894 4.64609 2.43389 0
M  V30 1498 H 151.368 3.85551 3.95038 0
M  V30 1499 H 151.845 2.16415 3.8218 0
M  V30 1500 H 152.451 3.34005 2.63288 0
M  V30 1501 N 150.766 -0.704594 1.40972 0
M  V30 1502 C 152.043 -1.45847 1.30338 0
M  V30 1503 C 152.423 -2.10973 -0.0732344 0
M  V30 1504 O 151.771 -2.00997 -1.08685 0
M  V30 1505 C 151.981 -2.48525 2.45023 0
M  V30 1506 C 153.329 -3.1404 2.8577 0
M  V30 1507 O 154.353 -2.58848 2.44696 0
M  V30 1508 O 153.212 -4.13981 3.56766 0
M  V30 1509 H 150.306 -0.649092 0.512454 0
M  V30 1510 H 152.852 -0.735836 1.52917 0
M  V30 1511 H 151.624 -1.98994 3.36923 0
M  V30 1512 H 151.247 -3.2831 2.24272 0
M  V30 1513 N 152.244 -1.26651 -0.937939 0
M  V30 1514 C 153.492 -1.12165 -1.68118 0
M  V30 1515 C 153.813 0.334983 -1.92101 0
M  V30 1516 O 153.083 1.23583 -1.52 0
M  V30 1517 H 151.663 -0.412093 -0.623048 0
M  V30 1518 H 154.325 -1.59027 -1.12678 0
M  V30 1519 H 153.421 -1.64289 -2.6536 0
M  V30 1520 N 153.722 1.14298 -1.08507 0
M  V30 1521 C 154.969 1.85359 -0.815373 0
M  V30 1522 C 155.297 1.83001 0.658865 0
M  V30 1523 O 154.552 1.25655 1.50031 0
M  V30 1524 C 154.851 3.33547 -1.28379 0
M  V30 1525 C 154.517 3.56093 -2.76602 0
M  V30 1526 C 153.179 3.61955 -3.17084 0
M  V30 1527 C 155.531 3.64834 -3.72217 0
M  V30 1528 C 152.859 3.74082 -4.51973 0
M  V30 1529 C 155.211 3.78487 -5.06883 0
M  V30 1530 C 153.875 3.82598 -5.46969 0
M  V30 1531 H 153.145 0.678276 -0.298366 0
M  V30 1532 H 155.792 1.35002 -1.35819 0
M  V30 1533 H 154.097 3.86191 -0.660593 0
M  V30 1534 H 155.794 3.86959 -1.05186 0
M  V30 1535 H 152.384 3.52179 -2.4427 0
M  V30 1536 H 156.568 3.59595 -3.42061 0
M  V30 1537 H 151.824 3.75527 -4.82483 0
M  V30 1538 H 155.998 3.84193 -5.80834 0
M  V30 1539 H 153.625 3.91747 -6.51489 0
M  V30 1540 N 155.201 0.870884 1.31352 0
M  V30 1541 C 156.447 0.482987 1.96965 0
M  V30 1542 C 156.78 -0.962462 1.68672 0
M  V30 1543 O 156.055 -1.6779 0.98371 0
M  V30 1544 C 156.338 0.741752 3.52378 0
M  V30 1545 C 156.191 2.2368 3.9024 0
M  V30 1546 C 157.51 0.208838 4.39604 0
M  V30 1547 H 154.629 0.176955 0.715441 0
M  V30 1548 H 157.271 1.09229 1.55464 0
M  V30 1549 H 155.421 0.223149 3.87859 0
M  V30 1550 H 157.093 2.82273 3.64856 0
M  V30 1551 H 155.336 2.70901 3.38814 0
M  V30 1552 H 156.007 2.3685 4.98604 0
M  V30 1553 H 158.483 0.652529 4.10952 0
M  V30 1554 H 157.359 0.419336 5.47296 0
M  V30 1555 H 157.62 -0.889275 4.33064 0
M  V30 1556 N 156.679 -1.44442 0.630414 0
M  V30 1557 C 157.928 -2.01267 0.132073 0
M  V30 1558 C 158.241 -1.50172 -1.25331 0
M  V30 1559 O 159.447 -1.9912 -1.84562 0
M  V30 1560 C 157.903 -3.59422 0.185362 0
M  V30 1561 C 157.511 -4.19514 1.57201 0
M  V30 1562 C 159.255 -4.23724 -0.256553 0
M  V30 1563 C 157.162 -5.69891 1.58045 0
M  V30 1564 H 156.092 -0.752619 0.0456092 0
M  V30 1565 H 158.743 -1.65666 0.789106 0
M  V30 1566 H 157.125 -3.92318 -0.538759 0
M  V30 1567 H 158.299 -3.98156 2.31966 0
M  V30 1568 H 156.614 -3.67496 1.95795 0
M  V30 1569 H 159.211 -5.34019 -0.269767 0
M  V30 1570 H 159.554 -3.96013 -1.28372 0
M  V30 1571 H 160.087 -3.95629 0.41505 0
M  V30 1572 H 156.826 -6.02336 2.58597 0
M  V30 1573 H 156.346 -5.93373 0.875725 0
M  V30 1574 H 158.025 -6.33515 1.31408 0
M  V30 1575 N 158.157 -0.370918 -1.53173 0
M  V30 1576 C 159.385 0.217704 -2.05751 0
M  V30 1577 C 159.8 1.42018 -1.24404 0
M  V30 1578 O 159.157 1.80245 -0.286033 0
M  V30 1579 C 159.208 0.605954 -3.56385 0
M  V30 1580 O 158.929 -0.548734 -4.3465 0
M  V30 1581 C 160.43 1.2524 -4.25241 0
M  V30 1582 H 157.65 0.0371659 -0.66997 0
M  V30 1583 H 160.194 -0.530832 -1.9749 0
M  V30 1584 H 158.349 1.3044 -3.6478 0
M  V30 1585 H 158.763 -0.23376 -5.23979 0
M  V30 1586 H 160.237 1.47458 -5.3194 0
M  V30 1587 H 160.714 2.2143 -3.79296 0
M  V30 1588 H 161.32 0.595233 -4.21114 0
M  V30 1589 N 159.635 1.57281 -0.100228 0
M  V30 1590 C 160.585 2.10848 0.86759 0
M  V30 1591 C 161.569 1.02473 1.24049 0
M  V30 1592 O 162.761 1.28739 1.21471 0
M  V30 1593 C 159.89 2.69648 2.12474 0
M  V30 1594 C 158.976 3.85074 1.77704 0
M  V30 1595 N 159.367 4.92897 1.13518 0
M  V30 1596 C 157.665 3.94905 2.07282 0
M  V30 1597 C 158.366 5.73475 0.974735 0
M  V30 1598 N 157.342 5.22675 1.4937 0
M  V30 1599 H 161.144 2.91594 0.367471 0
M  V30 1600 H 158.658 1.62074 0.102829 0
M  V30 1601 H 160.655 3.06356 2.82757 0
M  V30 1602 H 159.315 1.90359 2.63047 0
M  V30 1603 H 160.326 5.11662 0.801381 0
M  V30 1604 H 157.003 3.26633 2.60033 0
M  V30 1605 H 158.393 6.70238 0.472364 0
M  V30 1606 N 161.113 -0.173488 1.56642 0
M  V30 1607 C 162.361 -0.888706 1.81512 0
M  V30 1608 C 162.682 -1.82875 0.676872 0
M  V30 1609 O 161.952 -1.93536 -0.303414 0
M  V30 1610 H 160.532 -0.331164 0.669582 0
M  V30 1611 H 163.194 -0.173823 1.94123 0
M  V30 1612 H 162.29 -1.46691 2.75478 0
M  V30 1613 N 162.591 -1.51276 -0.441967 0
M  V30 1614 C 163.819 -1.67516 -1.21434 0
M  V30 1615 C 164.234 -0.37055 -1.85128 0
M  V30 1616 O 163.591 0.650498 -1.70513 0
M  V30 1617 C 163.642 -2.78748 -2.30177 0
M  V30 1618 O 163.363 -4.04154 -1.69089 0
M  V30 1619 C 164.864 -3.06217 -3.20541 0
M  V30 1620 H 162.084 -0.562276 -0.366178 0
M  V30 1621 H 164.628 -1.97666 -0.524244 0
M  V30 1622 H 162.783 -2.5121 -2.94911 0
M  V30 1623 H 163.197 -4.65894 -2.40922 0
M  V30 1624 H 164.671 -3.8764 -3.92987 0
M  V30 1625 H 165.148 -2.18439 -3.81026 0
M  V30 1626 H 165.754 -3.35397 -2.61513 0
M  V30 1627 N 164.069 0.697108 -1.41344 0
M  V30 1628 C 165.346 1.45154 -1.31109 0
M  V30 1629 C 165.726 2.11009 0.0620449 0
M  V30 1630 O 165.074 2.01571 1.07618 0
M  V30 1631 C 165.284 2.47223 -2.46337 0
M  V30 1632 C 166.632 3.1252 -2.87431 0
M  V30 1633 O 167.656 2.57547 -2.46065 0
M  V30 1634 O 166.515 4.12083 -3.58957 0
M  V30 1635 H 163.609 0.646365 -0.515889 0
M  V30 1636 H 166.155 0.727716 -1.53305 0
M  V30 1637 H 164.927 1.97204 -3.37974 0
M  V30 1638 H 164.55 3.27116 -2.2601 0
M  V30 1639 N 165.547 1.27147 0.931209 0
M  V30 1640 C 166.775 1.16082 1.71267 0
M  V30 1641 C 167.19 -0.282772 1.8667 0
M  V30 1642 O 166.547 -1.19283 1.38122 0
M  V30 1643 C 166.598 1.8358 3.11417 0
M  V30 1644 O 166.319 3.22299 2.96741 0
M  V30 1645 C 167.82 1.78597 4.05732 0
M  V30 1646 H 165.04 0.403758 0.535929 0
M  V30 1647 H 167.584 1.67953 1.16671 0
M  V30 1648 H 165.739 1.35623 3.62885 0
M  V30 1649 H 166.153 3.55851 3.85319 0
M  V30 1650 H 167.627 2.30444 5.01597 0
M  V30 1651 H 168.104 0.754564 4.3267 0
M  V30 1652 H 168.71 2.26152 3.60188 0
M  V30 1653 N 167.025 -1.13721 1.09112 0
M  V30 1654 C 167.958 -2.18094 0.67158 0
M  V30 1655 C 168.936 -1.59414 -0.320299 0
M  V30 1656 O 170.12 -1.87183 -0.222444 0
M  V30 1657 C 167.247 -3.38698 -0.0111189 0
M  V30 1658 C 166.293 -4.15966 0.942055 0
M  V30 1659 S 167.126 -4.7604 2.45246 0
M  V30 1660 C 168.282 -5.99994 1.78208 0
M  V30 1661 H 168.515 -2.53344 1.55577 0
M  V30 1662 H 166.048 -1.24967 0.906789 0
M  V30 1663 H 168.006 -4.08559 -0.398716 0
M  V30 1664 H 166.667 -3.01756 -0.871905 0
M  V30 1665 H 165.86 -5.02318 0.411396 0
M  V30 1666 H 165.462 -3.51745 1.2709 0
M  V30 1667 H 167.754 -6.68441 1.10424 0
M  V30 1668 H 168.697 -6.57662 2.62463 0
M  V30 1669 H 169.105 -5.50432 1.25238 0
M  V30 1670 N 168.503 -0.877838 -1.30888 0
M  V30 1671 C 169.413 -0.343096 -2.32078 0
M  V30 1672 C 170.429 0.551022 -1.65045 0
M  V30 1673 O 171.605 0.445854 -1.96403 0
M  V30 1674 C 168.67 0.439905 -3.43898 0
M  V30 1675 C 167.731 -0.483111 -4.26573 0
M  V30 1676 C 166.964 0.262616 -5.33053 0
M  V30 1677 O 167.187 1.48967 -5.50604 0
M  V30 1678 O 166.121 -0.383593 -6.00676 0
M  V30 1679 H 169.947 -1.18203 -2.79753 0
M  V30 1680 H 167.532 -0.64145 -1.34929 0
M  V30 1681 H 169.414 0.883504 -4.12034 0
M  V30 1682 H 168.089 1.25526 -2.98371 0
M  V30 1683 H 166.996 -0.975374 -3.61161 0
M  V30 1684 H 168.329 -1.26427 -4.75686 0
M  V30 1685 N 169.982 1.44106 -0.638065 0
M  V30 1686 C 170.892 2.34513 0.0637334 0
M  V30 1687 C 171.908 1.53018 0.828346 0
M  V30 1688 O 173.084 1.85723 0.779036 0
M  V30 1689 C 170.149 3.31095 1.02844 0
M  V30 1690 C 169.21 4.28497 0.26244 0
M  V30 1691 C 168.443 5.20465 1.1812 0
M  V30 1692 O 168.666 5.16514 2.42011 0
M  V30 1693 O 167.6 5.98251 0.661774 0
M  V30 1694 H 171.426 2.95989 -0.68003 0
M  V30 1695 H 169.011 1.43994 -0.398252 0
M  V30 1696 H 170.893 3.90526 1.58327 0
M  V30 1697 H 169.568 2.72144 1.7527 0
M  V30 1698 H 168.475 3.72592 -0.335602 0
M  V30 1699 H 169.808 4.90388 -0.421936 0
M  V30 1700 N 171.46 0.379036 1.52974 0
M  V30 1701 C 172.688 -0.20679 2.05864 0
M  V30 1702 C 173.103 -1.41356 1.25155 0
M  V30 1703 O 172.46 -1.8009 0.295588 0
M  V30 1704 C 172.511 -0.587045 3.56702 0
M  V30 1705 O 172.232 0.571776 4.34353 0
M  V30 1706 C 173.733 -1.22983 4.25899 0
M  V30 1707 H 170.953 -0.0336123 0.670158 0
M  V30 1708 H 173.497 0.541298 1.97206 0
M  V30 1709 H 171.652 -1.28504 3.65466 0
M  V30 1710 H 172.066 0.261544 5.23847 0
M  V30 1711 H 173.54 -1.44635 5.32715 0
M  V30 1712 H 174.017 -2.19416 3.80465 0
M  V30 1713 H 174.623 -0.572892 4.21424 0
M  V30 1714 N 172.938 -1.57226 0.108567 0
M  V30 1715 C 173.901 -2.13602 -0.831082 0
M  V30 1716 C 174.901 -1.06841 -1.20173 0
M  V30 1717 O 176.091 -1.32666 -1.12895 0
M  V30 1718 C 173.223 -2.66769 -2.12243 0
M  V30 1719 H 174.416 -2.97951 -0.341317 0
M  V30 1720 H 171.969 -1.55667 -0.14057 0
M  V30 1721 H 172.704 -1.85977 -2.65675 0
M  V30 1722 H 172.489 -3.44839 -1.86625 0
M  V30 1723 H 173.979 -3.10332 -2.79435 0
M  V30 1724 N 174.416 0.165178 -1.56732 0
M  V30 1725 C 175.646 0.894919 -1.86212 0
M  V30 1726 C 176.054 1.76066 -0.692627 0
M  V30 1727 O 175.397 1.80387 0.347303 0
M  V30 1728 C 175.459 1.8174 -3.10179 0
M  V30 1729 C 175.123 1.13064 -4.42793 0
M  V30 1730 C 176.12 0.493169 -5.17556 0
M  V30 1731 C 173.805 1.12556 -4.89527 0
M  V30 1732 C 175.799 -0.140209 -6.37246 0
M  V30 1733 C 173.486 0.488366 -6.09145 0
M  V30 1734 C 174.484 -0.143411 -6.82849 0
M  V30 1735 O 174.172 -0.77055 -8.00199 0
M  V30 1736 H 173.904 0.265114 -0.621844 0
M  V30 1737 H 176.458 0.168242 -2.0471 0
M  V30 1738 H 174.688 2.58455 -2.87642 0
M  V30 1739 H 176.377 2.4175 -3.26055 0
M  V30 1740 H 177.143 0.489023 -4.82528 0
M  V30 1741 H 173.022 1.60672 -4.32094 0
M  V30 1742 H 176.566 -0.633932 -6.94714 0
M  V30 1743 H 172.463 0.490116 -6.43637 0
M  V30 1744 H 173.231 -0.670408 -8.1575 0
M  V30 1745 N 175.894 1.51508 0.433938 0
M  V30 1746 C 177.141 1.64345 1.18309 0
M  V30 1747 C 177.469 0.361315 1.91115 0
M  V30 1748 O 176.724 -0.654753 1.84422 0
M  V30 1749 C 177.023 2.79928 2.22205 0
M  V30 1750 C 176.689 4.19078 1.66387 0
M  V30 1751 C 175.351 4.56932 1.50887 0
M  V30 1752 C 177.703 5.05894 1.25381 0
M  V30 1753 C 175.031 5.79305 0.928608 0
M  V30 1754 C 177.383 6.2885 0.687823 0
M  V30 1755 C 176.047 6.65473 0.519755 0
M  V30 1756 H 175.317 0.601381 0.432923 0
M  V30 1757 H 177.964 1.85549 0.473676 0
M  V30 1758 H 176.269 2.52959 2.99197 0
M  V30 1759 H 177.966 2.87059 2.79997 0
M  V30 1760 H 174.556 3.89234 1.79428 0
M  V30 1761 H 178.74 4.77253 1.36175 0
M  V30 1762 H 173.996 6.06324 0.786186 0
M  V30 1763 H 178.17 6.95461 0.361581 0
M  V30 1764 H 175.797 7.6017 0.0679979 0
M  V30 1765 N 177.372 -0.689602 1.41712 0
M  V30 1766 C 178.302 -1.81577 1.46806 0
M  V30 1767 C 179.283 -1.66945 0.326105 0
M  V30 1768 O 180.468 -1.86588 0.538377 0
M  V30 1769 C 177.598 -3.19762 1.35535 0
M  V30 1770 C 176.552 -3.49107 2.47605 0
M  V30 1771 C 175.878 -4.86711 2.21397 0
M  V30 1772 C 177.178 -3.47483 3.89939 0
M  V30 1773 H 178.872 -1.7757 2.41058 0
M  V30 1774 H 176.418 -0.852887 1.16025 0
M  V30 1775 H 178.371 -3.98263 1.3771 0
M  V30 1776 H 177.095 -3.24409 0.377708 0
M  V30 1777 H 175.754 -2.72959 2.44722 0
M  V30 1778 H 175.402 -4.8799 1.21961 0
M  V30 1779 H 175.102 -5.0731 2.96497 0
M  V30 1780 H 176.626 -5.67515 2.25297 0
M  V30 1781 H 178.04 -4.1598 3.94505 0
M  V30 1782 H 176.437 -3.79615 4.64771 0
M  V30 1783 H 177.507 -2.46341 4.17665 0
M  V30 1784 N 178.85 -1.27639 -0.924453 0
M  V30 1785 C 180.127 -1.04887 -1.651 0
M  V30 1786 C 180.507 0.415327 -2.06974 0
M  V30 1787 O 179.855 1.39923 -1.80648 0
M  V30 1788 C 180.065 -2.01348 -2.85061 0
M  V30 1789 C 181.413 -2.30899 -3.56329 0
M  V30 1790 O 182.437 -1.99348 -2.95193 0
M  V30 1791 O 181.296 -2.84699 -4.66485 0
M  V30 1792 H 178.39 -0.400083 -0.723784 0
M  V30 1793 H 180.936 -1.38916 -0.974703 0
M  V30 1794 H 179.708 -3.0008 -2.51133 0
M  V30 1795 H 179.331 -1.679 -3.6041 0
M  V30 1796 N 180.328 1.1314 -1.09713 0
M  V30 1797 C 181.258 2.20748 -0.761102 0
M  V30 1798 C 182.239 1.68061 0.262566 0
M  V30 1799 O 183.424 1.93765 0.129977 0
M  V30 1800 C 180.554 3.46812 -0.184054 0
M  V30 1801 C 179.508 4.12606 -1.13757 0
M  V30 1802 C 178.834 5.33031 -0.422083 0
M  V30 1803 C 180.134 4.59603 -2.48118 0
M  V30 1804 H 181.828 2.49113 -1.66082 0
M  V30 1805 H 179.374 1.19734 -0.799987 0
M  V30 1806 H 181.327 4.21353 0.0631215 0
M  V30 1807 H 180.051 3.17851 0.750868 0
M  V30 1808 H 178.71 3.40036 -1.37007 0
M  V30 1809 H 178.358 5.00335 0.517072 0
M  V30 1810 H 178.058 5.77999 -1.05788 0
M  V30 1811 H 179.582 6.10325 -0.183277 0
M  V30 1812 H 180.996 5.25552 -2.29059 0
M  V30 1813 H 179.393 5.15321 -3.07514 0
M  V30 1814 H 180.463 3.73971 -3.08665 0
M  V30 1815 N 181.806 0.884767 1.30421 0
M  V30 1816 C 183.034 0.518044 2.0031 0
M  V30 1817 C 183.449 -0.893408 1.66324 0
M  V30 1818 O 182.806 -1.5875 0.900262 0
M  V30 1819 C 182.857 0.682997 3.54989 0
M  V30 1820 O 182.578 2.03888 3.87764 0
M  V30 1821 C 184.079 0.31924 4.42149 0
M  V30 1822 H 181.299 0.200265 0.640418 0
M  V30 1823 H 183.843 1.19001 1.6631 0
M  V30 1824 H 181.998 0.0584052 3.87356 0
M  V30 1825 H 182.412 2.05735 4.82466 0
M  V30 1826 H 183.886 0.485555 5.4986 0
M  V30 1827 H 184.363 -0.742717 4.32875 0
M  V30 1828 H 184.969 0.920147 4.15227 0
M  V30 1829 N 183.284 -1.43765 0.645699 0
M  V30 1830 C 184.53 -2.02197 0.156271 0
M  V30 1831 C 184.863 -1.50776 -1.22393 0
M  V30 1832 O 184.138 -0.697771 -1.81553 0
M  V30 1833 C 184.421 -3.59749 0.158872 0
M  V30 1834 C 184.274 -4.21419 1.57245 0
M  V30 1835 C 185.593 -4.37149 -0.50879 0
M  V30 1836 H 182.712 -0.734694 0.0582602 0
M  V30 1837 H 185.354 -1.71157 0.824951 0
M  V30 1838 H 183.504 -3.86325 -0.410525 0
M  V30 1839 H 185.176 -4.059 2.19186 0
M  V30 1840 H 183.419 -3.78356 2.122 0
M  V30 1841 H 184.09 -5.30482 1.52619 0
M  V30 1842 H 186.566 -4.16093 -0.024412 0
M  V30 1843 H 185.442 -5.4683 -0.476213 0
M  V30 1844 H 185.703 -4.12839 -1.58165 0
M  V30 1845 N 184.763 -0.387143 -1.52771 0
M  V30 1846 C 185.71 0.449048 -2.26389 0
M  V30 1847 C 186.68 1.05961 -1.27912 0
M  V30 1848 O 187.865 1.08804 -1.56737 0
M  V30 1849 C 185.005 1.57155 -3.0724 0
M  V30 1850 C 184.118 0.984066 -4.20643 0
M  V30 1851 C 183.253 2.07745 -4.88892 0
M  V30 1852 C 182.292 1.46574 -5.94292 0
M  V30 1853 N 181.429 2.49834 -6.56146 0
M  V30 1854 H 186.269 -0.185205 -2.97424 0
M  V30 1855 H 183.806 -0.103164 -1.46738 0
M  V30 1856 H 185.764 2.23309 -3.52405 0
M  V30 1857 H 184.394 2.17615 -2.38419 0
M  V30 1858 H 183.446 0.212193 -3.79808 0
M  V30 1859 H 184.758 0.497029 -4.96318 0
M  V30 1860 H 183.912 2.81673 -5.3735 0
M  V30 1861 H 182.651 2.59807 -4.12737 0
M  V30 1862 H 181.656 0.711696 -5.45174 0
M  V30 1863 H 182.881 0.953088 -6.72379 0
M  V30 1864 H 180.827 3.0107 -5.82832 0
M  V30 1865 H 180.744 2.05879 -7.27427 0
M  V30 1866 H 182.012 3.23399 -7.09249 0
M  V30 1867 N 186.241 1.57166 -0.116904 0
M  V30 1868 C 187.481 1.97008 0.544715 0
M  V30 1869 C 187.845 0.998713 1.63981 0
M  V30 1870 O 189.046 1.28644 2.36018 0
M  V30 1871 C 187.317 3.41145 1.06559 0
M  V30 1872 S 188.876 4.02998 1.73603 0
M  V30 1873 H 185.694 0.688587 0.177112 0
M  V30 1874 H 188.296 1.94459 -0.201487 0
M  V30 1875 H 187 4.09592 0.257374 0
M  V30 1876 H 186.531 3.4734 1.84712 0
M  V30 1877 H 188.546 3.93585 3.02168 0
M  V30 1878 N 187.719 -0.156864 1.56817 0
M  V30 1879 C 188.996 -0.899244 1.73704 0
M  V30 1880 C 189.376 -1.99771 0.682254 0
M  V30 1881 O 188.724 -2.26515 -0.300522 0
M  V30 1882 C 188.934 -1.45075 3.17418 0
M  V30 1883 C 190.282 -1.91802 3.7881 0
M  V30 1884 O 191.306 -1.54838 3.20786 0
M  V30 1885 O 190.165 -2.5994 4.80722 0
M  V30 1886 H 187.259 -0.424267 0.709878 0
M  V30 1887 H 189.805 -0.143561 1.69092 0
M  V30 1888 H 188.577 -0.660846 3.85679 0
M  V30 1889 H 188.2 -2.27021 3.26416 0
M  V30 1890 N 189.197 -1.51736 -0.425897 0
M  V30 1891 C 190.144 -1.73875 -1.51776 0
M  V30 1892 C 191.114 -0.580702 -1.55618 0
M  V30 1893 O 192.299 -0.81641 -1.72451 0
M  V30 1894 C 189.439 -1.88012 -2.89388 0
M  V30 1895 C 188.552 -3.15606 -2.94986 0
M  V30 1896 C 187.687 -3.20271 -4.23793 0
M  V30 1897 C 186.726 -4.42134 -4.23302 0
M  V30 1898 N 185.863 -4.44284 -5.43651 0
M  V30 1899 H 190.703 -2.67071 -1.32201 0
M  V30 1900 H 188.24 -1.32351 -0.642008 0
M  V30 1901 H 190.198 -1.9419 -3.69251 0
M  V30 1902 H 188.828 -0.98213 -3.07496 0
M  V30 1903 H 187.88 -3.18681 -2.07717 0
M  V30 1904 H 189.192 -4.05486 -2.90486 0
M  V30 1905 H 188.346 -3.25428 -5.12036 0
M  V30 1906 H 187.085 -2.28299 -4.30965 0
M  V30 1907 H 186.09 -4.3714 -3.3345 0
M  V30 1908 H 187.315 -5.35382 -4.17783 0
M  V30 1909 H 185.261 -3.55188 -5.51523 0
M  V30 1910 H 185.178 -5.27988 -5.41078 0
M  V30 1911 H 186.446 -4.53649 -6.33895 0
M  V30 1912 N 190.675 0.682077 -1.42076 0
M  V30 1913 C 192.086 1.26246 -1.37546 0
M  V30 1914 C 192.437 1.96092 -0.0651481 0
M  V30 1915 O 191.562 1.99587 0.836297 0
M  V30 1916 C 192.157 2.29594 -2.49143 0
M  V30 1917 C 190.716 2.83175 -2.47969 0
M  V30 1918 C 189.863 1.57395 -2.28303 0
M  V30 1919 H 192.814 0.475937 -1.51395 0
M  V30 1920 H 192.835 3.11175 -2.18976 0
M  V30 1921 H 192.347 1.78729 -3.44496 0
M  V30 1922 H 190.448 3.3818 -1.56413 0
M  V30 1923 H 190.561 3.32687 -3.44755 0
M  V30 1924 H 188.925 1.83699 -1.76428 0
M  V30 1925 H 189.708 1.08507 -3.25701 0
M  V30 1926 N 192.153 1.28127 0.917671 0
M  V30 1927 C 193.399 1.15223 1.66888 0
M  V30 1928 C 193.732 -0.299293 1.9188 0
M  V30 1929 O 193.007 -1.21805 1.51637 0
M  V30 1930 C 193.29 1.94706 3.02922 0
M  V30 1931 C 193.143 3.47898 2.85109 0
M  V30 1932 C 194.462 1.75939 4.03402 0
M  V30 1933 H 191.581 0.419946 0.605652 0
M  V30 1934 H 194.223 1.57398 1.06423 0
M  V30 1935 H 192.373 1.58864 3.54534 0
M  V30 1936 H 194.045 3.93624 2.40537 0
M  V30 1937 H 192.288 3.7373 2.20246 0
M  V30 1938 H 192.959 3.98765 3.81694 0
M  V30 1939 H 195.435 2.07209 3.60837 0
M  V30 1940 H 194.311 2.33931 4.96556 0
M  V30 1941 H 194.572 0.709877 4.36364 0
M  V30 1942 N 193.631 -1.12557 1.10312 0
M  V30 1943 C 194.877 -1.84311 0.846011 0
M  V30 1944 C 195.21 -1.83805 -0.626859 0
M  V30 1945 O 194.485 -1.28268 -1.46211 0
M  V30 1946 C 194.768 -3.32048 1.39341 0
M  V30 1947 C 194.621 -3.41016 2.93305 0
M  V30 1948 C 195.94 -4.27764 1.03468 0
M  V30 1949 H 193.059 -0.669192 0.30879 0
M  V30 1950 H 195.701 -1.32057 1.36605 0
M  V30 1951 H 193.851 -3.76678 0.951087 0
M  V30 1952 H 195.523 -3.05031 3.46055 0
M  V30 1953 H 193.766 -2.81603 3.29973 0
M  V30 1954 H 194.437 -4.44948 3.26689 0
M  V30 1955 H 196.913 -3.91253 1.41633 0
M  V30 1956 H 195.789 -5.29549 1.44463 0
M  V30 1957 H 196.05 -4.42064 -0.0560404 0
M  V30 1958 N 195.109 -0.891671 -1.2995 0
M  V30 1959 C 196.042 -0.307994 -2.26112 0
M  V30 1960 C 197.02 0.575262 -1.52084 0
M  V30 1961 O 198.204 0.523864 -1.81074 0
M  V30 1962 C 195.331 0.561734 -3.34009 0
M  V30 1963 C 194.377 -0.253107 -4.25748 0
M  V30 1964 S 195.21 -1.64572 -5.09584 0
M  V30 1965 C 196.366 -0.782699 -6.20987 0
M  V30 1966 H 196.599 -1.12309 -2.75271 0
M  V30 1967 H 194.132 -0.691509 -1.38049 0
M  V30 1968 H 196.09 1.05777 -3.96638 0
M  V30 1969 H 194.751 1.35099 -2.83561 0
M  V30 1970 H 193.944 0.410908 -5.02322 0
M  V30 1971 H 193.546 -0.682004 -3.67729 0
M  V30 1972 H 195.838 -0.00257476 -6.775 0
M  V30 1973 H 196.781 -1.52026 -6.91588 0
M  V30 1974 H 197.189 -0.340638 -5.63471 0
M  V30 1975 N 196.587 1.43421 -0.653314 0
M  V30 1976 C 197.833 2.02111 -0.166992 0
M  V30 1977 C 198.166 1.51423 1.21592 0
M  V30 1978 O 197.441 0.707389 1.8118 0
M  V30 1979 C 197.724 3.5966 -0.177948 0
M  V30 1980 C 197.577 4.20579 -1.59478 0
M  V30 1981 C 198.896 4.37413 0.4856 0
M  V30 1982 H 196.015 0.734374 -0.0621557 0
M  V30 1983 H 198.657 1.70717 -0.834016 0
M  V30 1984 H 196.807 3.86537 0.390032 0
M  V30 1985 H 198.479 4.04732 -2.21336 0
M  V30 1986 H 196.722 3.77226 -2.14204 0
M  V30 1987 H 197.393 5.29665 -1.5543 0
M  V30 1988 H 199.869 4.161 0.00234528 0
M  V30 1989 H 198.745 5.47075 0.447207 0
M  V30 1990 H 199.006 4.13672 1.55974 0
M  V30 1991 N 198.065 0.39524 1.52563 0
M  V30 1992 C 199.313 -0.184678 2.01254 0
M  V30 1993 C 199.634 -1.46822 1.28329 0
M  V30 1994 O 198.904 -1.91666 0.405094 0
M  V30 1995 H 197.484 -0.0712355 0.743596 0
M  V30 1996 H 200.146 0.528293 1.87603 0
M  V30 1997 H 199.242 -0.390681 3.09645 0
M  V30 1998 N 199.544 -1.57102 0.125237 0
M  V30 1999 C 200.507 -2.14471 -0.80838 0
M  V30 2000 C 201.507 -1.0811 -1.19033 0
M  V30 2001 O 202.697 -1.33856 -1.11482 0
M  V30 2002 C 199.829 -2.69005 -2.09402 0
M  V30 2003 H 201.022 -2.98297 -0.309696 0
M  V30 2004 H 198.575 -1.55807 -0.124051 0
M  V30 2005 H 199.31 -1.88785 -2.63687 0
M  V30 2006 H 199.095 -3.46799 -1.82957 0
M  V30 2007 H 200.585 -3.13278 -2.76128 0
M  V30 2008 N 201.022 0.148545 -1.56898 0
M  V30 2009 C 201.955 1.21293 -1.93296 0
M  V30 2010 C 202.933 1.41637 -0.798599 0
M  V30 2011 O 204.117 1.56275 -1.05406 0
M  V30 2012 C 201.244 2.5721 -2.20365 0
M  V30 2013 C 200.29 2.53469 -3.4301 0
M  V30 2014 S 201.123 2.00315 -4.96623 0
M  V30 2015 C 202.279 3.37964 -5.26812 0
M  V30 2016 H 202.512 0.902393 -2.83274 0
M  V30 2017 H 200.045 0.354094 -1.50285 0
M  V30 2018 H 202.003 3.35427 -2.36641 0
M  V30 2019 H 200.664 2.85454 -1.31054 0
M  V30 2020 H 199.857 3.53518 -3.59223 0
M  V30 2021 H 199.459 1.83359 -3.25968 0
M  V30 2022 H 201.751 4.34066 -5.20185 0
M  V30 2023 H 202.694 3.26606 -6.28279 0
M  V30 2024 H 203.102 3.35028 -4.54331 0
M  V30 2025 N 202.5 1.5196 0.417844 0
M  V30 2026 C 203.916 1.40569 0.755816 0
M  V30 2027 C 204.116 0.503316 1.95113 0
M  V30 2028 O 203.172 -0.0341925 2.52477 0
M  V30 2029 C 204.485 2.82947 1.01791 0
M  V30 2030 C 206.033 2.92231 1.12116 0
M  V30 2031 C 206.508 4.35559 1.41608 0
M  V30 2032 N 207.999 4.38753 1.48491 0
M  V30 2033 C 208.734 5.46705 1.7292 0
M  V30 2034 N 208.23 6.64788 1.95011 0
M  V30 2035 N 210.023 5.34209 1.74863 0
M  V30 2036 H 202.174 2.09168 -0.369098 0
M  V30 2037 H 204.437 0.942409 -0.102809 0
M  V30 2038 H 204.143 3.5106 0.212081 0
M  V30 2039 H 204.017 3.23462 1.94042 0
M  V30 2040 H 206.404 2.24304 1.9176 0
M  V30 2041 H 206.485 2.55185 0.177225 0
M  V30 2042 H 206.129 5.04042 0.624848 0
M  V30 2043 H 206.059 4.70133 2.37239 0
M  V30 2044 H 208.55 3.5363 1.33244 0
M  V30 2045 H 208.863 7.42845 2.13076 0
M  V30 2046 H 207.208 6.67869 1.92293 0
M  V30 2047 H 210.399 4.40937 1.57137 0
M  V30 2048 H 210.572 6.18415 1.93563 0
M  V30 2049 N 203.978 -0.674533 1.42435 0
M  V30 2050 C 205.389 -1.25514 1.38214 0
M  V30 2051 C 205.74 -1.96055 0.0755464 0
M  V30 2052 O 204.865 -2.00028 -0.8257 0
M  V30 2053 C 205.46 -2.28269 2.50357 0
M  V30 2054 C 204.019 -2.81856 2.49467 0
M  V30 2055 C 203.166 -1.56182 2.29134 0
M  V30 2056 H 206.117 -0.467902 1.51646 0
M  V30 2057 H 206.138 -3.10009 2.20624 0
M  V30 2058 H 205.65 -1.769 3.45439 0
M  V30 2059 H 203.751 -3.37346 1.58204 0
M  V30 2060 H 203.864 -3.30854 3.46515 0
M  V30 2061 H 202.228 -1.82761 1.774 0
M  V30 2062 H 203.011 -1.06778 3.26272 0
M  V30 2063 N 205.456 -1.28612 -0.910864 0
M  V30 2064 C 206.681 -1.1891 -1.69927 0
M  V30 2065 C 207.106 0.248372 -1.86453 0
M  V30 2066 O 206.464 1.17961 -1.37676 0
M  V30 2067 C 206.512 -1.89578 -3.06745 0
M  V30 2068 O 205.616 -1.20521 -3.94396 0
M  V30 2069 H 204.957 -0.412632 -0.520222 0
M  V30 2070 H 207.487 -1.69985 -1.1387 0
M  V30 2071 H 207.497 -1.97597 -3.56958 0
M  V30 2072 H 206.172 -2.94136 -2.94035 0
M  V30 2073 H 204.749 -1.20684 -3.52831 0
M  V30 2074 N 206.934 1.1197 -1.10907 0
M  V30 2075 C 208.162 1.87402 -0.876824 0
M  V30 2076 C 208.577 1.79894 0.573025 0
M  V30 2077 O 207.934 1.17629 1.39534 0
M  V30 2078 C 207.985 3.36428 -1.32282 0
M  V30 2079 O 207.706 3.43765 -2.71582 0
M  V30 2080 C 209.207 4.28783 -1.12518 0
M  V30 2081 H 206.427 0.592793 -0.314384 0
M  V30 2082 H 208.971 1.41649 -1.47499 0
M  V30 2083 H 207.126 3.79706 -0.768229 0
M  V30 2084 H 207.54 4.3652 -2.90776 0
M  V30 2085 H 209.014 5.31613 -1.48633 0
M  V30 2086 H 209.491 4.39153 -0.0642394 0
M  V30 2087 H 210.097 3.91291 -1.66648 0
M  V30 2088 N 208.412 0.89855 1.29475 0
M  V30 2089 C 209.637 0.538561 2.00285 0
M  V30 2090 C 210.062 -0.869135 1.66816 0
M  V30 2091 O 209.42 -1.57831 0.892145 0
M  V30 2092 C 209.468 0.736475 3.52999 0
M  V30 2093 O 208.572 -0.211537 4.11857 0
M  V30 2094 H 207.913 0.210563 0.62973 0
M  V30 2095 H 210.443 1.20982 1.64998 0
M  V30 2096 H 210.453 0.640685 4.02938 0
M  V30 2097 H 209.128 1.76276 3.76696 0
M  V30 2098 H 207.705 -0.0682991 3.72837 0
M  V30 2099 N 209.89 -1.43072 0.660911 0
M  V30 2100 C 210.823 -2.28074 -0.0758862 0
M  V30 2101 C 211.801 -1.40271 -0.822362 0
M  V30 2102 O 212.985 -1.69713 -0.820352 0
M  V30 2103 C 210.112 -3.19843 -1.11437 0
M  V30 2104 C 209.158 -4.23957 -0.465069 0
M  V30 2105 S 209.991 -5.29978 0.767078 0
M  V30 2106 C 211.147 -6.25314 -0.270682 0
M  V30 2107 H 211.38 -2.90216 0.645139 0
M  V30 2108 H 208.913 -1.47697 0.449995 0
M  V30 2109 H 210.871 -3.73257 -1.70849 0
M  V30 2110 H 209.532 -2.56863 -1.80776 0
M  V30 2111 H 208.725 -4.88299 -1.24819 0
M  V30 2112 H 208.327 -3.73959 0.0551242 0
M  V30 2113 H 210.619 -6.67932 -1.13459 0
M  V30 2114 H 211.562 -7.07293 0.337916 0
M  V30 2115 H 211.97 -5.61195 -0.609937 0
M  V30 2116 N 211.368 -0.403325 -1.52352 0
M  V30 2117 C 212.593 0.176499 -2.06648 0
M  V30 2118 C 213.018 1.38577 -1.27193 0
M  V30 2119 O 212.376 1.7879 -0.300637 0
M  V30 2120 C 212.424 0.511061 -3.5696 0
M  V30 2121 O 211.528 1.60294 -3.79973 0
M  V30 2122 H 210.869 0.0167337 -0.663789 0
M  V30 2123 H 213.399 -0.574848 -1.96359 0
M  V30 2124 H 213.409 0.771362 -4.00642 0
M  V30 2125 H 212.084 -0.37296 -4.14224 0
M  V30 2126 H 210.661 1.33526 -3.48174 0
M  V30 2127 N 212.846 1.57033 -0.133567 0
M  V30 2128 C 213.809 2.14897 0.796995 0
M  V30 2129 C 214.809 1.0874 1.18458 0
M  V30 2130 O 215.999 1.34446 1.1077 0
M  V30 2131 C 213.131 2.70112 2.07973 0
M  V30 2132 H 214.324 2.98457 0.293873 0
M  V30 2133 H 211.877 1.55871 0.115787 0
M  V30 2134 H 212.612 1.9018 2.62682 0
M  V30 2135 H 212.397 3.47764 1.81115 0
M  V30 2136 H 213.887 3.14738 2.74462 0
M  V30 2137 N 214.325 -0.140222 1.56975 0
M  V30 2138 C 215.602 -0.880769 1.74648 0
M  V30 2139 C 215.982 -1.99036 0.703404 0
M  V30 2140 O 215.33 -2.26821 -0.27648 0
M  V30 2141 C 215.54 -1.417 3.18939 0
M  V30 2142 C 216.888 -1.87774 3.80823 0
M  V30 2143 O 217.912 -1.51427 3.2241 0
M  V30 2144 O 216.771 -2.54827 4.83452 0
M  V30 2145 H 213.865 -0.416713 0.714338 0
M  V30 2146 H 216.411 -0.125618 1.69234 0
M  V30 2147 H 215.183 -0.619902 3.86359 0
M  V30 2148 H 214.806 -2.23546 3.28805 0
M  V30 2149 N 215.803 -1.52179 -0.40978 0
M  V30 2150 C 217.051 -1.65878 -1.15451 0
M  V30 2151 C 217.372 -0.390771 -1.91044 0
M  V30 2152 O 216.642 0.594323 -1.86667 0
M  V30 2153 H 215.222 -0.611405 -0.429177 0
M  V30 2154 H 217.884 -1.89219 -0.467134 0
M  V30 2155 H 216.98 -2.49954 -1.86894 0
M  V30 2156 N 217.281 0.66697 -1.42791 0
M  V30 2157 C 218.692 1.2478 -1.38877 0
M  V30 2158 C 219.043 1.96012 -0.0859426 0
M  V30 2159 O 218.168 2.00463 0.815081 0
M  V30 2160 C 218.763 2.26938 -2.51564 0
M  V30 2161 C 217.322 2.80529 -2.50959 0
M  V30 2162 C 216.469 1.54965 -2.29959 0
M  V30 2163 H 219.42 0.459853 -1.51892 0
M  V30 2164 H 219.441 3.08834 -2.22265 0
M  V30 2165 H 218.953 1.75065 -3.46372 0
M  V30 2166 H 217.054 3.36502 -1.59991 0
M  V30 2167 H 217.167 3.29012 -3.48265 0
M  V30 2168 H 215.531 1.81817 -1.78366 0
M  V30 2169 H 216.314 1.05047 -3.26833 0
M  V30 2170 N 218.759 1.29093 0.90403 0
M  V30 2171 C 220.006 1.16813 1.65411 0
M  V30 2172 C 220.334 -0.28128 1.92455 0
M  V30 2173 O 219.589 -1.22006 1.53013 0
M  V30 2174 C 219.888 1.92224 3.01305 0
M  V30 2175 C 219.554 3.41968 2.93885 0
M  V30 2176 C 218.216 3.82807 2.91569 0
M  V30 2177 C 220.568 4.37409 2.83413 0
M  V30 2178 C 217.896 5.1741 2.76594 0
M  V30 2179 C 220.248 5.72097 2.69977 0
M  V30 2180 C 218.912 6.12199 2.66024 0
M  V30 2181 H 218.182 0.42745 0.605283 0
M  V30 2182 H 220.829 1.59981 1.05254 0
M  V30 2183 H 219.134 1.41635 3.65304 0
M  V30 2184 H 220.831 1.80131 3.58265 0
M  V30 2185 H 217.421 3.09504 2.96488 0
M  V30 2186 H 221.605 4.06813 2.84283 0
M  V30 2187 H 216.861 5.47596 2.71935 0
M  V30 2188 H 221.035 6.45704 2.60844 0
M  V30 2189 H 218.662 7.16448 2.54178 0
M  V30 2190 N 220.237 -1.11381 1.11499 0
M  V30 2191 C 221.185 -2.19522 0.768956 0
M  V30 2192 C 222.179 -1.67693 -0.239857 0
M  V30 2193 O 223.385 -1.79727 -0.0990755 0
M  V30 2194 H 219.76 -0.715711 0.230786 0
M  V30 2195 H 221.731 -2.45954 1.68964 0
M  V30 2196 C 220.48 -3.46945 0.229073 0
M  V30 2197 H 219.803 -3.8718 0.996596 0
M  V30 2198 H 221.243 -4.23993 0.0251441 0
M  V30 2199 C 219.702 -3.2042 -1.04079 0
M  V30 2200 O 220.232 -3.41178 -2.12038 0
M  V30 2201 N 218.438 -2.74151 -0.963823 0
M  V30 2202 H 217.985 -2.57459 -0.0851722 0
M  V30 2203 H 217.943 -2.56781 -1.81414 0
M  V30 2204 N 221.715 -0.905404 -1.28997 0
M  V30 2205 C 222.645 -0.404212 -2.29975 0
M  V30 2206 C 223.626 0.523784 -1.61835 0
M  V30 2207 O 224.811 0.433298 -1.89304 0
M  V30 2208 C 221.941 0.364042 -3.45387 0
M  V30 2209 C 220.895 -0.474048 -4.25367 0
M  V30 2210 C 220.221 0.422045 -5.33032 0
M  V30 2211 C 221.521 -1.72696 -4.92923 0
M  V30 2212 H 223.215 -1.24807 -2.72146 0
M  V30 2213 H 220.761 -0.601585 -1.30832 0
M  V30 2214 H 222.714 0.725447 -4.15109 0
M  V30 2215 H 221.438 1.24174 -3.02074 0
M  V30 2216 H 220.097 -0.81786 -3.57361 0
M  V30 2217 H 219.745 1.29804 -4.85963 0
M  V30 2218 H 219.445 -0.135057 -5.87445 0
M  V30 2219 H 220.969 0.779517 -6.05604 0
M  V30 2220 H 222.383 -1.43495 -5.55051 0
M  V30 2221 H 220.78 -2.22582 -5.57295 0
M  V30 2222 H 221.85 -2.45964 -4.17887 0
M  V30 2223 N 223.193 1.4272 -0.668489 0
M  V30 2224 C 224.423 2.05668 -0.196063 0
M  V30 2225 C 224.831 1.5028 1.14946 0
M  V30 2226 O 224.174 0.6348 1.72383 0
M  V30 2227 C 224.236 3.59469 -0.0468879 0
M  V30 2228 C 223.9 4.37518 -1.32012 0
M  V30 2229 C 224.897 4.68584 -2.25222 0
M  V30 2230 C 222.582 4.77266 -1.56596 0
M  V30 2231 C 224.576 5.38326 -3.41297 0
M  V30 2232 C 222.263 5.4675 -2.72962 0
M  V30 2233 C 223.261 5.77204 -3.65137 0
M  V30 2234 O 222.949 6.45264 -4.79468 0
M  V30 2235 H 222.681 0.669382 -0.0943599 0
M  V30 2236 H 225.235 1.83954 -0.913788 0
M  V30 2237 H 223.465 3.79817 0.726357 0
M  V30 2238 H 225.154 4.04071 0.384852 0
M  V30 2239 H 225.92 4.38382 -2.07477 0
M  V30 2240 H 221.799 4.52959 -0.857249 0
M  V30 2241 H 225.343 5.62014 -4.13263 0
M  V30 2242 H 221.24 5.76369 -2.90635 0
M  V30 2243 H 222.008 6.63753 -4.78931 0
M  V30 2244 N 224.671 0.411399 1.52136 0
M  V30 2245 C 225.619 -0.427633 2.28635 0
M  V30 2246 C 226.613 -1.04383 1.33419 0
M  V30 2247 O 227.819 -0.981772 1.50868 0
M  V30 2248 H 224.194 -0.156689 0.735495 0
M  V30 2249 H 226.165 0.238761 2.97443 0
M  V30 2250 C 224.914 -1.53082 3.12188 0
M  V30 2251 H 224.237 -1.06601 3.85326 0
M  V30 2252 H 225.677 -2.09167 3.68816 0
M  V30 2253 C 224.136 -2.49946 2.25895 0
M  V30 2254 O 224.666 -3.53884 1.90076 0
M  V30 2255 N 222.872 -2.2021 1.8962 0
M  V30 2256 H 222.419 -1.35719 2.18948 0
M  V30 2257 H 222.377 -2.85266 1.32176 0
M  V30 2258 N 226.149 -1.5696 0.141893 0
M  V30 2259 C 227.112 -2.15316 -0.785587 0
M  V30 2260 C 228.112 -1.09366 -1.1788 0
M  V30 2261 O 229.302 -1.35031 -1.10056 0
M  V30 2262 C 226.434 -2.71211 -2.06537 0
M  V30 2263 H 227.627 -2.98608 -0.278041 0
M  V30 2264 H 225.18 -1.5593 -0.107519 0
M  V30 2265 H 225.915 -1.91571 -2.6167 0
M  V30 2266 H 225.7 -3.4872 -1.79268 0
M  V30 2267 H 227.19 -3.16189 -2.72789 0
M  V30 2268 N 227.627 0.131896 -1.57047 0
M  V30 2269 C 228.873 0.843179 -1.84441 0
M  V30 2270 C 229.206 1.80129 -0.725749 0
M  V30 2271 O 228.481 1.92624 0.269469 0
M  V30 2272 C 228.764 1.60442 -3.22382 0
M  V30 2273 C 228.617 0.666782 -4.4483 0
M  V30 2274 C 229.936 2.56354 -3.5773 0
M  V30 2275 H 227.055 0.305081 -0.670891 0
M  V30 2276 H 229.697 0.107839 -1.89694 0
M  V30 2277 H 227.847 2.23128 -3.18035 0
M  V30 2278 H 229.519 0.0497646 -4.61273 0
M  V30 2279 H 227.762 -0.022609 -4.33794 0
M  V30 2280 H 228.433 1.23579 -5.37989 0
M  V30 2281 H 230.909 2.0378 -3.62785 0
M  V30 2282 H 229.785 3.06657 -4.5525 0
M  V30 2283 H 230.046 3.38419 -2.84473 0
M  V30 2284 N 229.106 1.52395 0.401703 0
M  V30 2285 C 230.352 1.67065 1.14966 0
M  V30 2286 C 230.685 0.403052 1.89971 0
M  V30 2287 O 229.96 -0.598774 1.85054 0
M  V30 2288 C 230.243 2.8975 2.13815 0
M  V30 2289 C 230.096 4.26578 1.42658 0
M  V30 2290 C 231.415 3.07965 3.14397 0
M  V30 2291 H 228.534 0.607968 0.416587 0
M  V30 2292 H 231.176 1.84965 0.434511 0
M  V30 2293 H 229.326 2.74619 2.74803 0
M  V30 2294 H 230.998 4.53451 0.847329 0
M  V30 2295 H 229.241 4.27639 0.72849 0
M  V30 2296 H 229.912 5.08483 2.14823 0
M  V30 2297 H 232.388 3.22043 2.63491 0
M  V30 2298 H 231.264 3.95308 3.80819 0
M  V30 2299 H 231.525 2.21611 3.82545 0
M  V30 2300 N 230.584 -0.659388 1.43143 0
M  V30 2301 C 231.812 -1.44723 1.47861 0
M  V30 2302 C 232.227 -1.88563 0.0945886 0
M  V30 2303 O 231.584 -1.59108 -0.893915 0
M  V30 2304 C 231.635 -2.68627 2.41913 0
M  V30 2305 O 231.356 -2.26623 3.74932 0
M  V30 2306 C 232.857 -3.62045 2.55809 0
M  V30 2307 H 230.077 -0.444801 0.502387 0
M  V30 2308 H 232.621 -0.808916 1.87821 0
M  V30 2309 H 230.776 -3.28613 2.05164 0
M  V30 2310 H 231.19 -3.06745 4.2545 0
M  V30 2311 H 232.664 -4.45666 3.25708 0
M  V30 2312 H 233.141 -4.08981 1.60099 0
M  V30 2313 H 233.747 -3.07944 2.93344 0
M  V30 2314 N 232.062 -1.29571 -0.897171 0
M  V30 2315 C 233.025 -1.14913 -1.98312 0
M  V30 2316 C 234.025 -0.0838629 -1.60581 0
M  V30 2317 O 235.215 -0.331006 -1.71026 0
M  V30 2318 C 232.347 -0.757835 -3.3237 0
M  V30 2319 H 233.54 -2.11377 -2.12743 0
M  V30 2320 H 231.093 -1.12793 -1.08201 0
M  V30 2321 H 231.828 0.206837 -3.2364 0
M  V30 2322 H 231.613 -1.52755 -3.61121 0
M  V30 2323 H 233.103 -0.678408 -4.12053 0
M  V30 2324 N 233.54 1.10788 -1.12088 0
M  V30 2325 C 234.503 2.15207 -0.788577 0
M  V30 2326 C 235.503 1.59609 0.195317 0
M  V30 2327 O 236.693 1.74174 -0.0300193 0
M  V30 2328 C 233.825 3.4047 -0.171174 0
M  V30 2329 H 235.018 2.46116 -1.71368 0
M  V30 2330 H 232.571 1.26089 -0.923652 0
M  V30 2331 H 233.306 3.15176 0.763832 0
M  V30 2332 H 233.091 3.82109 -0.879514 0
M  V30 2333 H 234.581 4.17576 0.04496 0
M  V30 2334 N 235.018 0.912232 1.28515 0
M  V30 2335 C 236.295 0.463597 1.90027 0
M  V30 2336 C 236.675 -1.05753 1.82701 0
M  V30 2337 O 236.023 -1.90492 1.26194 0
M  V30 2338 C 236.233 0.992253 3.34597 0
M  V30 2339 C 237.581 1.04344 4.11579 0
M  V30 2340 O 238.605 0.94079 3.43551 0
M  V30 2341 O 237.464 1.1995 5.33174 0
M  V30 2342 H 234.558 0.146666 0.813891 0
M  V30 2343 H 237.104 1.00292 1.36893 0
M  V30 2344 H 235.876 2.03623 3.34146 0
M  V30 2345 H 235.499 0.433672 3.95228 0
M  V30 2346 N 236.496 -1.42363 0.676048 0
M  V30 2347 C 237.443 -2.308 -0.00150904 0
M  V30 2348 C 238.413 -1.46032 -0.791444 0
M  V30 2349 O 239.598 -1.74861 -0.76344 0
M  V30 2350 C 236.738 -3.31883 -0.945919 0
M  V30 2351 C 235.851 -4.31741 -0.149675 0
M  V30 2352 C 234.986 -5.19898 -1.08995 0
M  V30 2353 C 234.025 -6.11434 -0.285465 0
M  V30 2354 N 233.162 -6.92138 -1.17851 0
M  V30 2355 H 238.002 -2.88187 0.758455 0
M  V30 2356 H 235.539 -1.41952 0.38576 0
M  V30 2357 H 237.497 -3.89019 -1.50731 0
M  V30 2358 H 236.127 -2.76093 -1.6725 0
M  V30 2359 H 235.179 -3.76713 0.528359 0
M  V30 2360 H 236.491 -4.96534 0.474866 0
M  V30 2361 H 235.645 -5.81772 -1.72123 0
M  V30 2362 H 234.384 -4.55284 -1.74837 0
M  V30 2363 H 233.389 -5.48627 0.359018 0
M  V30 2364 H 234.614 -6.78097 0.368883 0
M  V30 2365 H 232.56 -6.30152 -1.82332 0
M  V30 2366 H 232.477 -7.53542 -0.609082 0
M  V30 2367 H 233.745 -7.58499 -1.79722 0
M  V30 2368 N 237.974 -0.419461 -1.51915 0
M  V30 2369 C 238.937 0.389116 -2.25873 0
M  V30 2370 C 239.937 0.964924 -1.28631 0
M  V30 2371 O 241.127 0.842179 -1.52489 0
M  V30 2372 C 238.259 1.54874 -3.03689 0
M  V30 2373 H 239.452 -0.258799 -2.98781 0
M  V30 2374 H 237.005 -0.172209 -1.55348 0
M  V30 2375 H 237.74 2.23323 -2.35154 0
M  V30 2376 H 237.525 1.14223 -3.75094 0
M  V30 2377 H 239.015 2.12046 -3.59759 0
M  V30 2378 N 239.452 1.56882 -0.150215 0
M  V30 2379 C 240.677 2.01027 0.510184 0
M  V30 2380 C 241.102 1.02966 1.57415 0
M  V30 2381 O 240.46 0.00590158 1.81299 0
M  V30 2382 C 240.508 3.43899 1.08472 0
M  V30 2383 O 239.612 3.4885 2.19948 0
M  V30 2384 H 238.953 0.652233 0.124451 0
M  V30 2385 H 241.483 2.03093 -0.247894 0
M  V30 2386 H 241.493 3.82766 1.41259 0
M  V30 2387 H 240.168 4.14776 0.305582 0
M  V30 2388 H 238.745 3.21827 1.88366 0
M  V30 2389 N 240.93 -0.123565 1.57115 0
M  V30 2390 C 241.893 -1.13583 1.99076 0
M  V30 2391 C 242.893 -1.34564 0.880296 0
M  V30 2392 O 244.083 -1.31158 1.14644 0
M  V30 2393 C 241.215 -2.49128 2.32698 0
M  V30 2394 H 242.408 -0.775287 2.89706 0
M  V30 2395 H 239.961 -0.36771 1.51913 0
M  V30 2396 H 240.696 -2.90111 1.44934 0
M  V30 2397 H 240.481 -2.35255 3.13684 0
M  V30 2398 H 241.971 -3.2199 2.65918 0
M  V30 2399 N 242.408 -1.52605 -0.393616 0
M  V30 2400 C 243.356 -1.77688 -1.50099 0
M  V30 2401 C 244.35 -0.644615 -1.56656 0
M  V30 2402 O 245.556 -0.826997 -1.59877 0
M  V30 2403 H 241.931 -0.562159 -0.499481 0
M  V30 2404 H 243.902 -2.7043 -1.26135 0
M  V30 2405 C 242.651 -1.95858 -2.87289 0
M  V30 2406 H 241.974 -2.8241 -2.82992 0
M  V30 2407 H 243.414 -2.174 -3.64024 0
M  V30 2408 C 241.873 -0.729848 -3.28899 0
M  V30 2409 O 242.403 0.0949217 -4.01588 0
M  V30 2410 N 240.609 -0.561283 -2.85128 0
M  V30 2411 H 240.156 -1.23357 -2.26143 0
M  V30 2412 H 240.114 0.2595 -3.13327 0
M  V30 2413 N 243.887 0.651787 -1.4349 0
M  V30 2414 C 245.303 0.96762 -1.26922 0
M  V30 2415 C 245.503 2.00602 -0.189982 0
M  V30 2416 O 244.559 2.48793 0.431107 0
M  V30 2417 C 245.872 1.45052 -2.63401 0
M  V30 2418 C 247.42 1.5671 -2.70945 0
M  V30 2419 C 247.895 2.0839 -4.07845 0
M  V30 2420 N 249.386 2.1569 -4.09917 0
M  V30 2421 C 250.121 2.56804 -5.12679 0
M  V30 2422 N 249.617 2.97203 -6.25813 0
M  V30 2423 N 251.41 2.56756 -5.00033 0
M  V30 2424 H 243.561 -0.0353158 -2.12371 0
M  V30 2425 H 245.824 0.0467858 -0.946845 0
M  V30 2426 H 245.53 0.761926 -3.43348 0
M  V30 2427 H 245.404 2.42529 -2.88894 0
M  V30 2428 H 247.791 2.2467 -1.9133 0
M  V30 2429 H 247.872 0.57662 -2.49216 0
M  V30 2430 H 247.516 1.41031 -4.87927 0
M  V30 2431 H 247.446 3.08271 -4.26938 0
M  V30 2432 H 249.937 1.87237 -3.28254 0
M  V30 2433 H 250.25 3.27328 -7.00055 0
M  V30 2434 H 248.595 2.95004 -6.29283 0
M  V30 2435 H 251.786 2.24572 -4.10713 0
M  V30 2436 H 251.959 2.88475 -5.80247 0
M  V30 2437 N 245.365 1.30045 0.890287 0
M  V30 2438 C 246.613 1.18327 1.63839 0
M  V30 2439 C 246.934 -0.263455 1.93212 0
M  V30 2440 O 246.204 -1.17856 1.56482 0
M  V30 2441 H 244.784 0.434933 0.607324 0
M  V30 2442 H 247.446 1.631 1.06698 0
M  V30 2443 H 246.542 1.74024 2.59079 0
M  V30 2444 N 246.843 -1.10192 1.12674 0
M  V30 2445 C 248.089 -1.82475 0.884915 0
M  V30 2446 C 248.422 -1.85093 -0.58773 0
M  V30 2447 O 247.697 -1.3134 -1.43457 0
M  V30 2448 C 247.98 -3.29018 1.46353 0
M  V30 2449 C 247.833 -3.34718 3.00473 0
M  V30 2450 C 249.152 -4.25473 1.12519 0
M  V30 2451 H 246.271 -0.662492 0.322915 0
M  V30 2452 H 248.913 -1.2913 1.39375 0
M  V30 2453 H 247.063 -3.74576 1.03077 0
M  V30 2454 H 248.735 -2.97622 3.52447 0
M  V30 2455 H 246.978 -2.74541 3.35872 0
M  V30 2456 H 247.649 -4.37918 3.36053 0
M  V30 2457 H 250.125 -3.88161 1.499 0
M  V30 2458 H 249.001 -5.26365 1.55663 0
M  V30 2459 H 249.262 -4.42084 0.0377407 0
M  V30 2460 N 248.321 -0.919034 -1.28029 0
M  V30 2461 C 249.251 -0.428581 -2.29533 0
M  V30 2462 C 250.232 0.50659 -1.62381 0
M  V30 2463 O 251.417 0.413195 -1.89753 0
M  V30 2464 C 248.547 0.327388 -3.45753 0
M  V30 2465 C 247.501 -0.519137 -4.2484 0
M  V30 2466 C 246.827 0.365486 -5.33449 0
M  V30 2467 C 248.127 -1.77914 -4.91064 0
M  V30 2468 H 249.821 -1.27687 -2.70807 0
M  V30 2469 H 247.367 -0.615428 -1.30186 0
M  V30 2470 H 249.32 0.681378 -4.15855 0
M  V30 2471 H 248.044 1.20963 -3.03374 0
M  V30 2472 H 246.703 -0.855717 -3.56473 0
M  V30 2473 H 246.351 1.24642 -4.87312 0
M  V30 2474 H 246.051 -0.197356 -5.87268 0
M  V30 2475 H 247.575 0.715241 -6.06396 0
M  V30 2476 H 248.989 -1.49374 -5.53498 0
M  V30 2477 H 247.386 -2.2848 -5.54903 0
M  V30 2478 H 248.456 -2.50382 -4.15255 0
M  V30 2479 N 249.799 1.42003 -0.683588 0
M  V30 2480 C 251.045 2.01712 -0.209825 0
M  V30 2481 C 251.378 1.53968 1.18353 0
M  V30 2482 O 250.653 0.745661 1.79639 0
M  V30 2483 C 250.936 3.59202 -0.254197 0
M  V30 2484 C 250.789 4.17102 -1.68363 0
M  V30 2485 C 252.108 4.38344 0.392709 0
M  V30 2486 H 249.227 0.732891 -0.0777189 0
M  V30 2487 H 251.869 1.68909 -0.87004 0
M  V30 2488 H 250.019 3.87278 0.307954 0
M  V30 2489 H 251.691 3.99946 -2.29871 0
M  V30 2490 H 249.934 3.72597 -2.22157 0
M  V30 2491 H 250.605 5.26249 -1.6663 0
M  V30 2492 H 253.081 4.16011 -0.0859162 0
M  V30 2493 H 251.957 5.47901 0.331063 0
M  V30 2494 H 252.218 4.16887 1.47164 0
M  V30 2495 N 251.277 0.427512 1.51691 0
M  V30 2496 C 252.523 -0.142439 2.02299 0
M  V30 2497 C 252.856 -1.43214 1.31162 0
M  V30 2498 O 252.131 -1.89833 0.423511 0
M  V30 2499 C 252.414 -0.371301 3.58181 0
M  V30 2500 C 252.267 0.936358 4.39946 0
M  V30 2501 C 253.586 -1.14542 4.24933 0
M  V30 2502 H 250.705 -0.0502937 0.735282 0
M  V30 2503 H 253.347 0.564584 1.81418 0
M  V30 2504 H 251.497 -0.973559 3.76104 0
M  V30 2505 H 253.169 1.57184 4.33694 0
M  V30 2506 H 251.412 1.5432 4.05423 0
M  V30 2507 H 252.083 0.730388 5.47147 0
M  V30 2508 H 254.559 -0.635362 4.11221 0
M  V30 2509 H 253.435 -1.27431 5.33903 0
M  V30 2510 H 253.696 -2.17093 3.85127 0
M  V30 2511 N 252.755 -1.56801 0.158532 0
M  V30 2512 C 253.688 -2.13148 -0.815065 0
M  V30 2513 C 254.666 -1.0581 -1.23462 0
M  V30 2514 O 255.85 -1.3371 -1.32868 0
M  V30 2515 C 252.977 -2.6606 -2.09594 0
M  V30 2516 C 252.023 -3.85651 -1.82141 0
M  V30 2517 S 252.856 -5.26041 -1.00207 0
M  V30 2518 C 254.012 -5.8235 -2.29389 0
M  V30 2519 H 254.245 -2.95396 -0.335937 0
M  V30 2520 H 251.778 -1.54299 -0.0559391 0
M  V30 2521 H 253.736 -2.97195 -2.8317 0
M  V30 2522 H 252.397 -1.83921 -2.54621 0
M  V30 2523 H 251.59 -4.20958 -2.77147 0
M  V30 2524 H 251.192 -3.55338 -1.16667 0
M  V30 2525 H 253.484 -5.94485 -3.24952 0
M  V30 2526 H 254.427 -6.79688 -1.9857 0
M  V30 2527 H 254.835 -5.10675 -2.40564 0
M  V30 2528 N 254.233 0.115231 -1.57178 0
M  V30 2529 C 255.181 1.16014 -2.01602 0
M  V30 2530 C 256.175 1.42653 -0.913587 0
M  V30 2531 O 257.381 1.42571 -1.09879 0
M  V30 2532 H 253.756 0.391252 -0.642204 0
M  V30 2533 H 255.727 0.758998 -2.88586 0
M  V30 2534 C 254.476 2.47767 -2.4394 0
M  V30 2535 H 253.799 2.28108 -3.28339 0
M  V30 2536 H 255.239 3.19432 -2.78818 0
M  V30 2537 C 253.698 3.10617 -1.30455 0
M  V30 2538 O 254.228 3.96846 -0.622585 0
M  V30 2539 N 252.434 2.70553 -1.06064 0
M  V30 2540 H 251.981 2.00527 -1.61699 0
M  V30 2541 H 251.939 3.12934 -0.303284 0
M  V30 2542 N 255.711 1.52812 0.385517 0
M  V30 2543 C 256.988 1.5861 1.14465 0
M  V30 2544 C 257.368 0.381402 2.07626 0
M  V30 2545 O 256.716 -0.629999 2.19643 0
M  V30 2546 C 256.926 2.92664 1.90128 0
M  V30 2547 C 258.274 3.46526 2.45367 0
M  V30 2548 O 259.298 2.94562 2.0028 0
M  V30 2549 O 258.157 4.37323 3.27736 0
M  V30 2550 H 255.251 0.639855 0.523941 0
M  V30 2551 H 257.797 1.65149 0.390389 0
M  V30 2552 H 256.569 3.71788 1.22022 0
M  V30 2553 H 256.192 2.89527 2.72507 0
M  V30 2554 N 257.189 -0.644168 1.43834 0
M  V30 2555 C 258.417 -1.43147 1.49387 0
M  V30 2556 C 258.832 -1.88452 0.114583 0
M  V30 2557 O 258.189 -1.60047 -0.876989 0
M  V30 2558 C 258.24 -2.66046 2.44748 0
M  V30 2559 O 257.961 -2.22633 3.77314 0
M  V30 2560 C 259.462 -3.59311 2.59635 0
M  V30 2561 H 256.682 -0.439447 0.507077 0
M  V30 2562 H 259.226 -0.78895 1.88669 0
M  V30 2563 H 257.381 -3.26418 2.08638 0
M  V30 2564 H 257.795 -3.02216 4.28679 0
M  V30 2565 H 259.269 -4.42187 3.30416 0
M  V30 2566 H 259.746 -4.07259 1.64427 0
M  V30 2567 H 260.352 -3.04816 2.96593 0
M  V30 2568 N 258.668 -1.30515 -0.883378 0
M  V30 2569 C 259.914 -1.19607 -1.63774 0
M  V30 2570 C 260.247 0.248314 -1.92606 0
M  V30 2571 O 259.522 1.17742 -1.54813 0
M  V30 2572 C 259.805 -2.02669 -2.97653 0
M  V30 2573 C 259.658 -3.55335 -2.75784 0
M  V30 2574 C 260.977 -1.86573 -3.98596 0
M  V30 2575 H 258.096 -0.435856 -0.594305 0
M  V30 2576 H 260.738 -1.60165 -1.02212 0
M  V30 2577 H 258.888 -1.68208 -3.50197 0
M  V30 2578 H 260.56 -3.99863 -2.30016 0
M  V30 2579 H 258.803 -3.79438 -2.1026 0
M  V30 2580 H 259.474 -4.08745 -3.70988 0
M  V30 2581 H 261.95 -2.16703 -3.55217 0
M  V30 2582 H 260.826 -2.47014 -4.90179 0
M  V30 2583 H 261.087 -0.825321 -4.34328 0
M  V30 2584 N 260.146 1.09593 -1.13257 0
M  V30 2585 C 261.076 2.18214 -0.830946 0
M  V30 2586 C 262.057 1.68812 0.208966 0
M  V30 2587 O 263.242 1.9408 0.0682666 0
M  V30 2588 C 260.372 3.46051 -0.294296 0
M  V30 2589 C 259.326 4.08778 -1.26826 0
M  V30 2590 C 258.652 5.31419 -0.591449 0
M  V30 2591 C 259.952 4.51476 -2.62615 0
M  V30 2592 H 261.646 2.43703 -1.73923 0
M  V30 2593 H 259.192 1.17128 -0.837675 0
M  V30 2594 H 261.145 4.2134 -0.0709606 0
M  V30 2595 H 259.869 3.20079 0.649366 0
M  V30 2596 H 258.528 3.35505 -1.47756 0
M  V30 2597 H 258.176 5.01727 0.357633 0
M  V30 2598 H 257.876 5.74341 -1.24123 0
M  V30 2599 H 259.4 6.09433 -0.377355 0
M  V30 2600 H 260.814 5.17999 -2.45663 0
M  V30 2601 H 259.211 5.05277 -3.23752 0
M  V30 2602 H 260.281 3.63962 -3.20406 0
M  V30 2603 N 261.624 0.925811 1.2754 0
M  V30 2604 C 262.901 0.483726 1.89524 0
M  V30 2605 C 263.281 -1.03809 1.83812 0
M  V30 2606 O 262.629 -1.89143 1.28207 0
M  V30 2607 C 262.839 1.02769 3.33526 0
M  V30 2608 C 264.187 1.08703 4.10449 0
M  V30 2609 O 265.211 0.977175 3.42534 0
M  V30 2610 O 264.07 1.25599 5.31871 0
M  V30 2611 H 261.164 0.15529 0.812289 0
M  V30 2612 H 263.71 1.01738 1.35822 0
M  V30 2613 H 262.482 2.07155 3.31967 0
M  V30 2614 H 262.105 0.475567 3.94746 0
M  V30 2615 N 263.102 -1.41638 0.69111 0
M  V30 2616 C 264.35 -2.00902 0.219758 0
M  V30 2617 C 264.671 -1.54994 -1.18329 0
M  V30 2618 O 263.941 -0.778628 -1.79762 0
M  V30 2619 H 262.521 -0.74289 0.0782558 0
M  V30 2620 H 265.183 -1.73327 0.891271 0
M  V30 2621 H 264.279 -3.11224 0.233708 0
M  V30 2622 N 264.58 -0.43555 -1.51462 0
M  V30 2623 C 265.996 -0.0877501 -1.59359 0
M  V30 2624 C 266.196 1.4027 -1.4466 0
M  V30 2625 O 265.252 2.17243 -1.28693 0
M  V30 2626 C 266.565 -0.606264 -2.94525 0
M  V30 2627 C 268.113 -0.566548 -3.0783 0
M  V30 2628 C 268.588 -1.06201 -4.45517 0
M  V30 2629 N 270.079 -1.01992 -4.51832 0
M  V30 2630 C 270.814 -1.37417 -5.5669 0
M  V30 2631 N 270.31 -1.80119 -6.68976 0
M  V30 2632 N 272.103 -1.29245 -5.47039 0
M  V30 2633 H 264.254 -1.40533 -1.59261 0
M  V30 2634 H 266.517 -0.578992 -0.750648 0
M  V30 2635 H 266.223 -1.64901 -3.10645 0
M  V30 2636 H 266.097 -0.0302097 -3.77188 0
M  V30 2637 H 268.484 0.467208 -2.91378 0
M  V30 2638 H 268.565 -1.17898 -2.2701 0
M  V30 2639 H 268.209 -2.09422 -4.62715 0
M  V30 2640 H 268.139 -0.426127 -5.24873 0
M  V30 2641 H 270.63 -0.706308 -3.71241 0
M  V30 2642 H 270.943 -2.05392 -7.45006 0
M  V30 2643 H 269.288 -1.84044 -6.70189 0
M  V30 2644 H 272.479 -0.957522 -4.58202 0
M  V30 2645 H 272.652 -1.57182 -6.28648 0
M  V30 2646 N 266.058 1.56714 -0.166846 0
M  V30 2647 C 267.335 1.88412 0.525373 0
M  V30 2648 C 267.715 1.07602 1.81618 0
M  V30 2649 O 267.063 0.168621 2.27877 0
M  V30 2650 C 267.273 3.40363 0.771613 0
M  V30 2651 C 268.621 4.10007 1.1036 0
M  V30 2652 O 269.645 3.45655 0.860304 0
M  V30 2653 O 268.504 5.2369 1.56239 0
M  V30 2654 H 265.598 0.781587 0.270278 0
M  V30 2655 H 268.144 1.68458 -0.204946 0
M  V30 2656 H 266.916 3.91046 -0.141093 0
M  V30 2657 H 266.539 3.65914 1.55541 0
M  V30 2658 N 267.536 -0.106894 1.57237 0
M  V30 2659 C 268.782 -0.81373 1.85759 0
M  V30 2660 C 269.115 -1.78952 0.754315 0
M  V30 2661 O 268.39 -1.93029 -0.23879 0
M  V30 2662 C 268.673 -1.55293 3.24894 0
M  V30 2663 C 268.526 -0.595929 4.45835 0
M  V30 2664 C 269.845 -2.5063 3.61763 0
M  V30 2665 H 266.964 -0.294369 0.67566 0
M  V30 2666 H 269.606 -0.0776472 1.89841 0
M  V30 2667 H 267.756 -2.1804 3.21544 0
M  V30 2668 H 269.428 0.0236262 4.61294 0
M  V30 2669 H 267.671 0.0916191 4.33703 0
M  V30 2670 H 268.342 -1.15004 5.39887 0
M  V30 2671 H 270.818 -1.97982 3.65981 0
M  V30 2672 H 269.694 -2.99376 4.60071 0
M  V30 2673 H 269.955 -3.3385 2.89821 0
M  V30 2674 N 269.014 -1.53014 -0.377408 0
M  V30 2675 C 270.242 -1.72515 -1.14219 0
M  V30 2676 C 270.657 -0.448735 -1.8339 0
M  V30 2677 O 270.014 0.577592 -1.73119 0
M  V30 2678 C 270.065 -2.8826 -2.18148 0
M  V30 2679 O 269.786 -4.10962 -1.51795 0
M  V30 2680 C 271.287 -3.19536 -3.07264 0
M  V30 2681 H 268.507 -0.577301 -0.342001 0
M  V30 2682 H 271.051 -1.99712 -0.439935 0
M  V30 2683 H 269.206 -2.63492 -2.83991 0
M  V30 2684 H 269.62 -4.75693 -2.20945 0
M  V30 2685 H 271.094 -4.03959 -3.76193 0
M  V30 2686 H 271.571 -2.34403 -3.71419 0
M  V30 2687 H 272.177 -3.46186 -2.47053 0
M  V30 2688 N 270.492 0.636531 -1.44174 0
M  V30 2689 C 271.439 1.74875 -1.50624 0
M  V30 2690 C 272.409 1.62275 -0.35442 0
M  V30 2691 O 273.594 1.82276 -0.563908 0
M  V30 2692 C 270.734 3.13102 -1.45125 0
M  V30 2693 C 269.847 3.36717 -2.7064 0
M  V30 2694 C 268.982 4.64885 -2.57013 0
M  V30 2695 C 268.021 4.8166 -3.77717 0
M  V30 2696 N 267.158 6.01101 -3.62798 0
M  V30 2697 H 271.998 1.68697 -2.45653 0
M  V30 2698 H 269.535 0.823004 -1.21922 0
M  V30 2699 H 271.493 3.93034 -1.39929 0
M  V30 2700 H 270.123 3.18308 -0.536671 0
M  V30 2701 H 269.175 2.50763 -2.86046 0
M  V30 2702 H 270.487 3.44993 -3.60252 0
M  V30 2703 H 269.641 5.52969 -2.49619 0
M  V30 2704 H 268.38 4.58957 -1.64953 0
M  V30 2705 H 267.385 3.92007 -3.85501 0
M  V30 2706 H 268.61 4.89406 -4.70807 0
M  V30 2707 H 266.556 5.96273 -2.73486 0
M  V30 2708 H 266.473 6.10409 -4.46023 0
M  V30 2709 H 267.741 6.91761 -3.59286 0
M  V30 2710 N 271.97 1.30982 0.876444 0
M  V30 2711 C 273.198 1.23242 1.6619 0
M  V30 2712 C 273.613 -0.203345 1.87702 0
M  V30 2713 O 272.97 -1.13317 1.43057 0
M  V30 2714 C 273.021 1.96623 3.03351 0
M  V30 2715 O 272.742 3.34594 2.82804 0
M  V30 2716 C 274.243 1.95644 3.97792 0
M  V30 2717 H 271.463 0.426126 0.518322 0
M  V30 2718 H 274.007 1.7275 1.09442 0
M  V30 2719 H 272.162 1.50892 3.56806 0
M  V30 2720 H 272.576 3.71873 3.69879 0
M  V30 2721 H 274.05 2.51511 4.91372 0
M  V30 2722 H 274.527 0.937395 4.2908 0
M  V30 2723 H 275.133 2.41225 3.50272 0
M  V30 2724 N 273.449 -1.08991 1.13837 0
M  V30 2725 C 274.397 -2.17841 0.815347 0
M  V30 2726 C 275.391 -1.68164 -0.204233 0
M  V30 2727 O 276.597 -1.79897 -0.0609304 0
M  V30 2728 H 272.972 -0.710654 0.245915 0
M  V30 2729 H 274.943 -2.42315 1.74143 0
M  V30 2730 C 273.692 -3.46381 0.302614 0
M  V30 2731 H 273.015 -3.84979 1.0785 0
M  V30 2732 H 274.455 -4.23844 0.115074 0
M  V30 2733 C 272.914 -3.22556 -0.972591 0
M  V30 2734 O 273.444 -3.45599 -2.04754 0
M  V30 2735 N 271.65 -2.76134 -0.905455 0
M  V30 2736 H 271.197 -2.57582 -0.0305421 0
M  V30 2737 H 271.155 -2.60571 -1.75926 0
M  V30 2738 N 274.927 -0.932562 -1.27047 0
M  V30 2739 C 276.155 -0.592031 -1.98249 0
M  V30 2740 C 276.57 0.831062 -1.69525 0
M  V30 2741 O 275.927 1.55299 -0.958561 0
M  V30 2742 C 275.978 -0.814279 -3.5221 0
M  V30 2743 O 275.699 -2.18139 -3.7993 0
M  V30 2744 C 277.2 -0.483121 -4.4066 0
M  V30 2745 H 274.42 -0.223896 -0.632544 0
M  V30 2746 H 276.964 -1.25091 -1.61779 0
M  V30 2747 H 275.119 -0.20213 -3.86872 0
M  V30 2748 H 275.533 -2.235 -4.74498 0
M  V30 2749 H 277.007 -0.689298 -5.47679 0
M  V30 2750 H 277.484 0.581546 -4.35333 0
M  V30 2751 H 278.09 -1.07362 -4.11526 0
M  V30 2752 N 276.405 1.4127 -0.698611 0
M  V30 2753 C 277.633 2.05503 -0.239992 0
M  V30 2754 C 278.048 1.52584 1.11191 0
M  V30 2755 O 277.405 0.675323 1.69545 0
M  V30 2756 C 277.456 3.60987 -0.192429 0
M  V30 2757 O 277.177 4.1195 -1.49094 0
M  V30 2758 C 278.678 4.42371 0.28681 0
M  V30 2759 H 275.898 0.661748 -0.111045 0
M  V30 2760 H 278.442 1.80987 -0.95205 0
M  V30 2761 H 276.597 3.84533 0.470472 0
M  V30 2762 H 277.011 5.06018 -1.38007 0
M  V30 2763 H 278.485 5.51344 0.26896 0
M  V30 2764 H 278.962 4.18699 1.32619 0
M  V30 2765 H 279.568 4.23897 -0.345201 0
M  V30 2766 N 277.883 0.443576 1.51229 0
M  V30 2767 C 279.16 -0.181038 1.9476 0
M  V30 2768 C 279.54 -1.59523 1.38259 0
M  V30 2769 O 278.888 -2.2122 0.572198 0
M  V30 2770 C 279.098 -0.152422 3.48667 0
M  V30 2771 C 280.446 -0.354923 4.23114 0
M  V30 2772 O 281.47 -0.230257 3.55455 0
M  V30 2773 O 280.329 -0.603674 5.43156 0
M  V30 2774 H 277.423 -0.1266 0.817252 0
M  V30 2775 H 279.969 0.502004 1.62105 0
M  V30 2776 H 278.741 0.836022 3.82265 0
M  V30 2777 H 278.364 -0.878107 3.87782 0
M  V30 2778 N 279.361 -1.56624 0.175154 0
M  V30 2779 C 280.607 -1.9729 -0.469506 0
M  V30 2780 C 280.94 -1.06128 -1.62636 0
M  V30 2781 O 280.215 -0.109183 -1.94193 0
M  V30 2782 C 280.498 -3.47375 -0.948804 0
M  V30 2783 C 280.351 -4.49317 0.208491 0
M  V30 2784 C 281.67 -4.00652 -1.82116 0
M  V30 2785 H 278.789 -0.717317 -0.16919 0
M  V30 2786 H 281.431 -1.88184 0.262062 0
M  V30 2787 H 279.581 -3.55267 -1.57219 0
M  V30 2788 H 281.253 -4.53482 0.845682 0
M  V30 2789 H 279.496 -4.25121 0.863395 0
M  V30 2790 H 280.167 -5.51741 -0.169059 0
M  V30 2791 H 282.643 -3.95416 -1.2956 0
M  V30 2792 H 281.519 -5.06075 -2.12554 0
M  V30 2793 H 281.78 -3.44699 -2.7683 0
M  V30 2794 N 280.839 0.0985539 -1.57292 0
M  V30 2795 C 281.802 1.10402 -2.00858 0
M  V30 2796 C 282.802 1.33146 -0.901593 0
M  V30 2797 O 283.992 1.29318 -1.16716 0
M  V30 2798 C 281.124 2.45394 -2.36632 0
M  V30 2799 H 282.317 0.729099 -2.90902 0
M  V30 2800 H 279.87 0.343495 -1.52479 0
M  V30 2801 H 280.605 2.87769 -1.49531 0
M  V30 2802 H 280.39 2.30235 -3.17387 0
M  V30 2803 H 281.88 3.17718 -2.71007 0
M  V30 2804 N 282.317 1.53212 0.369288 0
M  V30 2805 C 283.545 1.73119 1.13303 0
M  V30 2806 C 283.96 0.458455 1.83149 0
M  V30 2807 O 283.317 -0.568403 1.73423 0
M  V30 2808 C 283.368 2.89413 2.16616 0
M  V30 2809 O 283.089 4.11761 1.49614 0
M  V30 2810 C 284.59 3.21161 3.05566 0
M  V30 2811 H 281.81 0.579107 0.338934 0
M  V30 2812 H 284.354 1.99942 0.429338 0
M  V30 2813 H 282.509 2.64994 2.82589 0
M  V30 2814 H 282.923 4.76858 2.18419 0
M  V30 2815 H 284.397 4.05949 3.74045 0
M  V30 2816 H 284.874 2.36369 3.70171 0
M  V30 2817 H 285.48 3.47492 2.45213 0
M  V30 2818 N 283.795 -0.628877 1.44509 0
M  V30 2819 C 285.042 -1.38839 1.47411 0
M  V30 2820 C 285.37 -1.94202 0.10757 0
M  V30 2821 O 284.625 -1.74243 -0.890947 0
M  V30 2822 C 284.924 -2.56995 2.48371 0
M  V30 2823 C 284.59 -2.19908 3.93639 0
M  V30 2824 C 283.252 -2.09506 4.33198 0
M  V30 2825 C 285.604 -1.9064 4.85083 0
M  V30 2826 C 282.932 -1.68028 5.62124 0
M  V30 2827 C 285.284 -1.50655 6.14399 0
M  V30 2828 C 283.948 -1.38796 6.5291 0
M  V30 2829 H 283.218 -0.508048 0.539414 0
M  V30 2830 H 285.865 -0.712913 1.77735 0
M  V30 2831 H 284.17 -3.29786 2.11538 0
M  V30 2832 H 285.867 -3.15223 2.47861 0
M  V30 2833 H 282.457 -2.28922 3.62343 0
M  V30 2834 H 286.641 -1.97585 4.55273 0
M  V30 2835 H 281.897 -1.57452 5.90778 0
M  V30 2836 H 286.071 -1.27048 6.84713 0
M  V30 2837 H 283.698 -1.06429 7.52713 0
M  V30 2838 N 285.273 -1.31445 -0.869486 0
M  V30 2839 C 286.22 -1.19135 -1.97675 0
M  V30 2840 C 287.19 -0.0770266 -1.65921 0
M  V30 2841 O 288.375 -0.249972 -1.89155 0
M  V30 2842 C 285.515 -0.905149 -3.33018 0
M  V30 2843 C 284.628 -2.10285 -3.77365 0
M  V30 2844 C 283.763 -1.75339 -5.01427 0
M  V30 2845 C 282.802 -2.91515 -5.38224 0
M  V30 2846 N 281.939 -2.56762 -6.53466 0
M  V30 2847 H 286.779 -2.13853 -2.07535 0
M  V30 2848 H 284.316 -1.06379 -1.01597 0
M  V30 2849 H 286.274 -0.719765 -4.10944 0
M  V30 2850 H 284.904 0.00519624 -3.228 0
M  V30 2851 H 283.956 -2.39899 -2.95216 0
M  V30 2852 H 285.268 -2.97237 -4.00564 0
M  V30 2853 H 284.422 -1.53266 -5.87022 0
M  V30 2854 H 283.161 -0.855801 -4.80133 0
M  V30 2855 H 282.166 -3.14237 -4.51149 0
M  V30 2856 H 283.391 -3.81985 -5.61484 0
M  V30 2857 H 281.337 -1.69526 -6.33717 0
M  V30 2858 H 281.254 -3.37243 -6.76612 0
M  V30 2859 H 282.522 -2.38083 -7.42251 0
M  V30 2860 N 286.751 1.08385 -1.14413 0
M  V30 2861 C 287.976 1.85057 -0.936413 0
M  V30 2862 C 288.401 1.81055 0.509971 0
M  V30 2863 O 287.759 1.1958 1.36273 0
M  V30 2864 C 287.807 3.30505 -1.44217 0
M  V30 2865 O 286.911 4.07491 -0.634409 0
M  V30 2866 H 286.252 0.573425 -0.334784 0
M  V30 2867 H 288.782 1.36799 -1.52142 0
M  V30 2868 H 288.792 3.81348 -1.45043 0
M  V30 2869 H 287.467 3.32734 -2.49522 0
M  V30 2870 H 286.044 3.66368 -0.694902 0
M  V30 2871 N 288.23 0.939286 1.26551 0
M  V30 2872 C 289.476 0.586715 1.94128 0
M  V30 2873 C 289.809 -0.8717 1.73537 0
M  V30 2874 O 289.084 -1.62339 1.07127 0
M  V30 2875 C 289.367 0.927497 3.4795 0
M  V30 2876 C 289.22 2.44052 3.77834 0
M  V30 2877 C 290.539 0.441569 4.37879 0
M  V30 2878 H 287.658 0.21463 0.705055 0
M  V30 2879 H 290.3 1.17316 1.49455 0
M  V30 2880 H 288.45 0.428431 3.8613 0
M  V30 2881 H 290.122 3.01216 3.4938 0
M  V30 2882 H 288.365 2.8848 3.23978 0
M  V30 2883 H 289.036 2.62947 4.85348 0
M  V30 2884 H 291.512 0.869448 4.06915 0
M  V30 2885 H 290.388 0.708856 5.44304 0
M  V30 2886 H 290.649 -0.658467 4.37169 0
M  V30 2887 N 289.708 -1.40897 0.706093 0
M  V30 2888 C 290.656 -2.32572 0.0361893 0
M  V30 2889 C 291.65 -1.51532 -0.757266 0
M  V30 2890 O 292.856 -1.67396 -0.661703 0
M  V30 2891 H 289.231 -0.751966 -0.00709935 0
M  V30 2892 H 291.202 -2.86733 0.826249 0
M  V30 2893 C 289.951 -3.36418 -0.87854 0
M  V30 2894 H 289.274 -3.98836 -0.277401 0
M  V30 2895 H 290.714 -4.0308 -1.3154 0
M  V30 2896 C 289.173 -2.71141 -1.99961 0
M  V30 2897 O 289.703 -2.56735 -3.0895 0
M  V30 2898 N 287.909 -2.29671 -1.78043 0
M  V30 2899 H 287.456 -2.41588 -0.894042 0
M  V30 2900 H 287.414 -1.86332 -2.53235 0
M  V30 2901 N 291.186 -0.45159 -1.50991 0
M  V30 2902 C 292.416 0.108177 -2.06317 0
M  V30 2903 C 292.824 1.35774 -1.31765 0
M  V30 2904 O 292.167 1.79838 -0.374694 0
M  V30 2905 C 292.229 0.481659 -3.56259 0
M  V30 2906 C 291.893 -0.663114 -4.52163 0
M  V30 2907 C 292.89 -1.53947 -4.96585 0
M  V30 2908 C 290.575 -0.8479 -4.95092 0
M  V30 2909 C 292.569 -2.58518 -5.82621 0
M  V30 2910 C 290.256 -1.89686 -5.80915 0
M  V30 2911 C 291.254 -2.76388 -6.24579 0
M  V30 2912 O 290.942 -3.79482 -7.08695 0
M  V30 2913 H 290.674 0.00499183 -0.675982 0
M  V30 2914 H 293.228 -0.633659 -1.95381 0
M  V30 2915 H 291.458 1.27641 -3.65027 0
M  V30 2916 H 293.147 0.974233 -3.94035 0
M  V30 2917 H 293.913 -1.4083 -4.64103 0
M  V30 2918 H 289.792 -0.18258 -4.60638 0
M  V30 2919 H 293.336 -3.26224 -6.16623 0
M  V30 2920 H 289.233 -2.02817 -6.12809 0
M  V30 2921 H 290.001 -3.76234 -7.26905 0
M  V30 2922 N 292.664 1.56529 -0.183458 0
M  V30 2923 C 293.912 1.96855 0.457452 0
M  V30 2924 C 294.233 1.07104 1.62953 0
M  V30 2925 O 293.503 0.139887 1.954 0
M  V30 2926 H 292.083 0.72693 0.171992 0
M  V30 2927 H 294.745 1.93056 -0.267476 0
M  V30 2928 H 293.841 3.01423 0.809368 0
M  V30 2929 N 294.142 -0.090211 1.57342 0
M  V30 2930 C 295.553 -0.644173 1.75235 0
M  V30 2931 C 295.904 -1.78865 0.806335 0
M  V30 2932 O 295.029 -2.16395 -0.0140128 0
M  V30 2933 C 295.624 -1.17532 3.1776 0
M  V30 2934 C 294.183 -1.67531 3.37061 0
M  V30 2935 C 293.33 -0.58693 2.71017 0
M  V30 2936 H 296.281 0.135884 1.58117 0
M  V30 2937 H 296.302 -2.04455 3.20902 0
M  V30 2938 H 295.814 -0.342138 3.86589 0
M  V30 2939 H 293.915 -2.53234 2.73319 0
M  V30 2940 H 294.028 -1.76493 4.45406 0
M  V30 2941 H 292.392 -1.02756 2.33052 0
M  V30 2942 H 293.175 0.235758 3.4249 0
M  V30 2943 N 295.62 -1.53406 -0.361157 0
M  V30 2944 C 296.55 -1.83136 -1.44857 0
M  V30 2945 C 297.531 -0.685174 -1.5569 0
M  V30 2946 O 298.716 -0.93544 -1.70186 0
M  V30 2947 C 295.846 -2.02522 -2.82138 0
M  V30 2948 C 294.8 -3.18302 -2.86126 0
M  V30 2949 C 294.126 -3.22989 -4.26125 0
M  V30 2950 C 295.426 -4.56796 -2.53248 0
M  V30 2951 H 297.12 -2.74201 -1.20226 0
M  V30 2952 H 294.666 -1.31938 -0.576922 0
M  V30 2953 H 296.619 -2.21904 -3.58241 0
M  V30 2954 H 295.343 -1.08172 -3.08166 0
M  V30 2955 H 294.002 -2.98747 -2.12475 0
M  V30 2956 H 293.65 -2.26267 -4.49235 0
M  V30 2957 H 293.35 -4.00781 -4.29708 0
M  V30 2958 H 294.874 -3.44559 -5.04094 0
M  V30 2959 H 296.288 -4.7631 -3.19064 0
M  V30 2960 H 294.685 -5.36862 -2.68141 0
M  V30 2961 H 295.755 -4.61606 -1.48484 0
M  V30 2962 N 297.098 0.621204 -1.44841 0
M  V30 2963 C 298.346 1.37783 -1.47852 0
M  V30 2964 C 298.667 1.94653 -0.116224 0
M  V30 2965 O 297.937 1.76367 0.852737 0
M  V30 2966 H 296.517 0.511453 -0.544449 0
M  V30 2967 H 299.179 0.730446 -1.80694 0
M  V30 2968 H 298.275 2.20414 -2.20961 0
M  V30 2969 N 298.576 1.31904 0.862503 0
M  V30 2970 C 299.806 1.24817 1.64634 0
M  V30 2971 C 300.214 -0.187579 1.88268 0
M  V30 2972 O 299.557 -1.13253 1.44635 0
M  V30 2973 C 299.619 1.92996 3.03303 0
M  V30 2974 C 299.283 3.42336 3.02746 0
M  V30 2975 C 300.28 4.37956 2.80162 0
M  V30 2976 C 297.965 3.84147 3.2363 0
M  V30 2977 C 299.959 5.73361 2.78453 0
M  V30 2978 C 297.646 5.19663 3.21549 0
M  V30 2979 C 298.644 6.14081 2.98988 0
M  V30 2980 O 298.332 7.47118 2.96766 0
M  V30 2981 H 298.064 0.432222 0.519769 0
M  V30 2982 H 300.618 1.7445 1.08427 0
M  V30 2983 H 298.848 1.37922 3.61268 0
M  V30 2984 H 300.537 1.79723 3.63943 0
M  V30 2985 H 301.303 4.06981 2.63802 0
M  V30 2986 H 297.182 3.11083 3.40218 0
M  V30 2987 H 300.726 6.4703 2.60763 0
M  V30 2988 H 296.623 5.5027 3.37451 0
M  V30 2989 H 297.391 7.56382 3.12775 0
M  V30 2990 N 300.054 -1.07777 1.14986 0
M  V30 2991 C 301.303 -1.79669 0.916617 0
M  V30 2992 C 301.616 -1.87474 -0.557917 0
M  V30 2993 O 302.822 -2.55845 -0.908617 0
M  V30 2994 C 301.278 -3.22848 1.59051 0
M  V30 2995 C 300.886 -3.23257 3.10176 0
M  V30 2996 C 302.63 -3.99379 1.43864 0
M  V30 2997 C 300.537 -4.61063 3.70372 0
M  V30 2998 H 299.467 -0.673349 0.33929 0
M  V30 2999 H 302.118 -1.21003 1.37951 0
M  V30 3000 H 300.5 -3.8168 1.0553 0
M  V30 3001 H 301.674 -2.74095 3.70417 0
M  V30 3002 H 299.989 -2.60222 3.25074 0
M  V30 3003 H 302.586 -5.0122 1.86232 0
M  V30 3004 H 302.929 -4.14511 0.385564 0
M  V30 3005 H 303.462 -3.47032 1.94457 0
M  V30 3006 H 300.201 -4.51135 4.7556 0
M  V30 3007 H 299.721 -5.1048 3.14913 0
M  V30 3008 H 301.4 -5.30034 3.71043 0
M  V30 3009 N 301.532 -0.945985 -1.26051 0
M  V30 3010 C 302.482 -0.430164 -2.23905 0
M  V30 3011 C 303.466 0.47579 -1.53704 0
M  V30 3012 O 304.658 0.310252 -1.7426 0
M  V30 3013 C 301.787 0.298957 -3.41996 0
M  V30 3014 C 300.873 -0.624566 -4.19476 0
M  V30 3015 N 301.264 -1.75245 -4.74471 0
M  V30 3016 C 299.562 -0.431082 -4.43912 0
M  V30 3017 C 300.263 -2.32834 -5.3307 0
M  V30 3018 N 299.239 -1.61583 -5.1903 0
M  V30 3019 H 303.041 -1.29107 -2.64024 0
M  V30 3020 H 300.555 -0.802428 -1.41191 0
M  V30 3021 H 302.552 0.685565 -4.11225 0
M  V30 3022 H 301.212 1.15657 -3.03403 0
M  V30 3023 H 302.223 -2.13449 -4.71868 0
M  V30 3024 H 298.9 0.384364 -4.15727 0
M  V30 3025 H 300.29 -3.27893 -5.86461 0
M  V30 3026 N 303.011 1.40521 -0.713556 0
M  V30 3027 C 303.959 2.32549 -0.0485227 0
M  V30 3028 C 304.953 1.51931 0.74922 0
M  V30 3029 O 306.159 1.67745 0.652816 0
M  V30 3030 H 302.534 0.751994 0.00311138 0
M  V30 3031 H 304.505 2.86291 -0.841443 0
M  V30 3032 C 303.254 3.36879 0.860687 0
M  V30 3033 H 302.577 3.98978 0.256246 0
M  V30 3034 H 304.017 4.03772 1.294 0
M  V30 3035 C 302.476 2.72197 1.9852 0
M  V30 3036 O 303.006 2.5837 3.07584 0
M  V30 3037 N 301.212 2.30612 1.76823 0
M  V30 3038 H 300.759 2.42059 0.881217 0
M  V30 3039 H 300.717 1.87672 2.52243 0
M  V30 3040 N 304.489 0.459591 1.5075 0
M  V30 3041 C 305.737 -0.0991532 2.01857 0
M  V30 3042 C 306.058 -1.41247 1.34441 0
M  V30 3043 O 305.328 -1.89775 0.486022 0
M  V30 3044 H 303.908 -0.039633 0.745948 0
M  V30 3045 H 306.57 0.607387 1.85194 0
M  V30 3046 H 305.666 -0.258998 3.11023 0
M  V30 3047 N 305.967 -1.56429 0.191757 0
M  V30 3048 C 306.914 -2.18936 -0.730454 0
M  V30 3049 C 307.884 -1.13557 -1.21219 0
M  V30 3050 O 309.069 -1.41794 -1.27668 0
M  V30 3051 C 306.209 -2.85013 -1.9458 0
M  V30 3052 C 305.322 -4.04909 -1.50574 0
M  V30 3053 C 304.457 -4.58853 -2.67634 0
M  V30 3054 C 303.496 -5.71114 -2.20217 0
M  V30 3055 N 302.633 -6.19478 -3.30442 0
M  V30 3056 H 307.473 -2.97389 -0.190664 0
M  V30 3057 H 305.01 -1.46869 -0.0823694 0
M  V30 3058 H 306.968 -3.21492 -2.65893 0
M  V30 3059 H 305.598 -2.09129 -2.45896 0
M  V30 3060 H 304.65 -3.74115 -0.688605 0
M  V30 3061 H 305.962 -4.86113 -1.11784 0
M  V30 3062 H 305.116 -4.97619 -3.47074 0
M  V30 3063 H 303.855 -3.76749 -3.09696 0
M  V30 3064 H 302.86 -5.31879 -1.3923 0
M  V30 3065 H 304.085 -6.55033 -1.79189 0
M  V30 3066 H 302.031 -5.40297 -3.72041 0
M  V30 3067 H 301.948 -6.95725 -2.9581 0
M  V30 3068 H 303.216 -6.62898 -4.10106 0
M  V30 3069 N 307.445 0.0818655 -1.57387 0
M  V30 3070 C 308.694 0.781681 -1.85937 0
M  V30 3071 C 309.007 1.79246 -0.782957 0
M  V30 3072 O 310.213 2.54112 -0.955987 0
M  V30 3073 C 308.669 1.44109 -3.29789 0
M  V30 3074 C 308.277 0.469396 -4.45534 0
M  V30 3075 C 310.021 2.12386 -3.67549 0
M  V30 3076 C 307.928 1.13415 -5.80423 0
M  V30 3077 H 306.858 0.295682 -0.693605 0
M  V30 3078 H 309.509 0.0348051 -1.83467 0
M  V30 3079 H 307.891 2.23588 -3.2684 0
M  V30 3080 H 309.065 -0.294856 -4.59856 0
M  V30 3081 H 307.38 -0.108383 -4.16259 0
M  V30 3082 H 309.977 2.62878 -4.65617 0
M  V30 3083 H 310.32 2.91877 -2.96839 0
M  V30 3084 H 310.853 1.39751 -3.72444 0
M  V30 3085 H 307.592 0.379771 -6.54399 0
M  V30 3086 H 307.112 1.8695 -5.69921 0
M  V30 3087 H 308.791 1.65686 -6.25426 0
M  V30 3088 N 308.923 1.53595 0.353017 0
M  V30 3089 C 310.2 1.61002 1.11075 0
M  V30 3090 C 310.58 0.425356 2.0677 0
M  V30 3091 O 309.928 -0.583267 2.2093 0
M  V30 3092 C 310.138 2.96631 1.83877 0
M  V30 3093 C 311.486 3.51653 2.37961 0
M  V30 3094 O 312.51 2.98743 1.93987 0
M  V30 3095 O 311.369 4.44177 3.18386 0
M  V30 3096 H 308.463 0.650825 0.510251 0
M  V30 3097 H 311.009 1.6594 0.35527 0
M  V30 3098 H 309.781 3.74293 1.14108 0
M  V30 3099 H 309.404 2.95242 2.66304 0
M  V30 3100 N 310.401 -0.613514 1.45168 0
M  V30 3101 C 311.631 -1.39743 1.52169 0
M  V30 3102 C 312.039 -1.88596 0.151086 0
M  V30 3103 O 311.382 -1.6251 -0.856521 0
M  V30 3104 C 311.444 -2.64035 2.43979 0
M  V30 3105 C 311.108 -2.36861 3.90827 0
M  V30 3106 C 312.105 -1.97591 4.80889 0
M  V30 3107 C 309.79 -2.49956 4.35692 0
M  V30 3108 C 311.784 -1.71768 6.1382 0
M  V30 3109 C 309.471 -2.23747 5.68665 0
M  V30 3110 C 310.469 -1.84714 6.57548 0
M  V30 3111 O 310.157 -1.58809 7.88058 0
M  V30 3112 H 309.889 -0.434382 0.517966 0
M  V30 3113 H 312.443 -0.75587 1.90986 0
M  V30 3114 H 310.673 -3.3089 2.00122 0
M  V30 3115 H 312.362 -3.26069 2.41731 0
M  V30 3116 H 313.128 -1.87015 4.47493 0
M  V30 3117 H 309.007 -2.79305 3.66756 0
M  V30 3118 H 312.551 -1.41227 6.83155 0
M  V30 3119 H 308.448 -2.33938 6.01617 0
M  V30 3120 H 309.216 -1.7291 8.00028 0
M  V30 3121 N 311.879 -1.3236 -0.855495 0
M  V30 3122 C 312.811 -1.17052 -1.97057 0
M  V30 3123 C 313.824 -0.10574 -1.62456 0
M  V30 3124 O 315.013 -0.354619 -1.74942 0
M  V30 3125 C 312.113 -0.769305 -3.30053 0
M  V30 3126 C 311.286 -1.9222 -3.929 0
M  V30 3127 C 310.345 -1.50466 -5.04228 0
M  V30 3128 O 309.371 -2.21655 -5.24269 0
M  V30 3129 N 310.573 -0.400209 -5.79119 0
M  V30 3130 H 313.338 -2.13103 -2.1073 0
M  V30 3131 H 310.899 -1.24885 -1.0303 0
M  V30 3132 H 312.891 -0.472407 -4.01933 0
M  V30 3133 H 311.461 0.100025 -3.1244 0
M  V30 3134 H 310.681 -2.38563 -3.13817 0
M  V30 3135 H 311.969 -2.69403 -4.31624 0
M  V30 3136 H 311.367 0.192319 -5.65373 0
M  V30 3137 H 309.924 -0.162912 -6.51596 0
M  V30 3138 N 313.357 1.07166 -1.15556 0
M  V30 3139 C 314.773 1.31899 -0.898603 0
M  V30 3140 C 314.973 1.96333 0.453383 0
M  V30 3141 O 314.029 2.22438 1.19489 0
M  V30 3142 C 315.342 2.20826 -2.04099 0
M  V30 3143 C 316.89 2.34269 -2.07574 0
M  V30 3144 C 317.365 3.26546 -3.21141 0
M  V30 3145 N 318.856 3.34127 -3.20801 0
M  V30 3146 C 319.591 4.05595 -4.05315 0
M  V30 3147 N 319.087 4.79661 -4.99897 0
M  V30 3148 N 320.88 4.01555 -3.93332 0
M  V30 3149 H 313.031 0.637302 -2.02613 0
M  V30 3150 H 315.294 0.343468 -0.883591 0
M  V30 3151 H 315 1.80744 -3.01703 0
M  V30 3152 H 314.874 3.21364 -1.97496 0
M  V30 3153 H 317.261 2.73603 -1.10568 0
M  V30 3154 H 317.342 1.33429 -2.18244 0
M  V30 3155 H 316.986 2.87931 -4.184 0
M  V30 3156 H 316.916 4.27345 -3.07708 0
M  V30 3157 H 319.407 2.81336 -2.52306 0
M  V30 3158 H 319.72 5.31694 -5.60822 0
M  V30 3159 H 318.065 4.78671 -5.03884 0
M  V30 3160 H 321.256 3.42806 -3.18751 0
M  V30 3161 H 321.429 4.56987 -4.5942 0
M  V30 3162 N 314.835 0.952656 1.25548 0
M  V30 3163 C 316.063 0.623496 1.97282 0
M  V30 3164 C 316.478 -0.803987 1.70826 0
M  V30 3165 O 315.835 -1.53755 0.983147 0
M  V30 3166 C 315.886 0.870209 3.5087 0
M  V30 3167 O 315.607 2.24156 3.76412 0
M  V30 3168 C 317.108 0.553164 4.39835 0
M  V30 3169 H 314.328 0.233931 0.628902 0
M  V30 3170 H 316.872 1.27649 1.59768 0
M  V30 3171 H 315.027 0.263652 3.86502 0
M  V30 3172 H 315.441 2.31021 4.70882 0
M  V30 3173 H 316.915 0.776342 5.46513 0
M  V30 3174 H 317.392 -0.512215 4.36203 0
M  V30 3175 H 317.998 1.13896 4.09766 0
M  V30 3176 N 316.313 -1.40141 0.720998 0
M  V30 3177 C 317.724 -1.83678 0.334553 0
M  V30 3178 C 318.075 -1.6027 -1.13173 0
M  V30 3179 O 317.2 -1.08643 -1.87152 0
M  V30 3180 C 317.795 -3.33437 0.600437 0
M  V30 3181 C 316.354 -3.75447 0.267642 0
M  V30 3182 C 315.501 -2.63296 0.870097 0
M  V30 3183 H 318.452 -1.29331 0.919732 0
M  V30 3184 H 318.473 -3.80269 -0.132517 0
M  V30 3185 H 317.985 -3.50442 1.66768 0
M  V30 3186 H 316.086 -3.64035 -0.794329 0
M  V30 3187 H 316.199 -4.73344 0.74042 0
M  V30 3188 H 314.563 -2.52954 0.297739 0
M  V30 3189 H 315.346 -2.83112 1.94172 0
M  V30 3190 N 317.792 -0.46758 -1.50504 0
M  V30 3191 C 318.755 0.317059 -2.26996 0
M  V30 3192 C 319.755 0.923513 -1.31635 0
M  V30 3193 O 320.945 0.793239 -1.55091 0
M  V30 3194 C 318.077 1.45134 -3.08462 0
M  V30 3195 H 319.27 -0.353723 -2.97807 0
M  V30 3196 H 316.823 -0.221545 -1.54722 0
M  V30 3197 H 317.558 2.15728 -2.4214 0
M  V30 3198 H 317.343 1.02232 -3.78538 0
M  V30 3199 H 318.833 2.00493 -3.66323 0
M  V30 3200 N 319.27 1.56325 -0.20005 0
M  V30 3201 C 320.686 1.58839 0.155716 0
M  V30 3202 C 320.886 1.21636 1.60645 0
M  V30 3203 O 319.942 0.941437 2.34293 0
M  V30 3204 C 321.255 3.0032 -0.151124 0
M  V30 3205 C 322.803 3.12866 -0.0916284 0
M  V30 3206 C 323.278 4.56488 -0.371845 0
M  V30 3207 N 324.769 4.62089 -0.320641 0
M  V30 3208 C 325.504 5.71116 -0.511243 0
M  V30 3209 N 325 6.88592 -0.762461 0
M  V30 3210 N 326.793 5.60335 -0.445157 0
M  V30 3211 H 318.944 1.78788 -1.14668 0
M  V30 3212 H 321.207 0.829996 -0.458051 0
M  V30 3213 H 320.913 3.32117 -1.15721 0
M  V30 3214 H 320.787 3.73257 0.543986 0
M  V30 3215 H 323.174 2.80878 0.905065 0
M  V30 3216 H 323.255 2.42304 -0.81989 0
M  V30 3217 H 322.899 4.89189 -1.36588 0
M  V30 3218 H 322.829 5.25246 0.377362 0
M  V30 3219 H 325.32 3.77665 -0.13329 0
M  V30 3220 H 325.633 7.67581 -0.896576 0
M  V30 3221 H 323.978 6.90387 -0.799412 0
M  V30 3222 H 327.169 4.67436 -0.249278 0
M  V30 3223 H 327.342 6.45243 -0.597116 0
M  V30 3224 N 320.748 -0.0735177 1.57428 0
M  V30 3225 C 321.695 -1.08756 2.0357 0
M  V30 3226 C 322.665 -1.38559 0.916 0
M  V30 3227 O 323.85 -1.49656 1.18354 0
M  V30 3228 C 320.99 -2.39657 2.48311 0
M  V30 3229 C 320.103 -2.16399 3.73892 0
M  V30 3230 C 319.238 -3.40852 4.07423 0
M  V30 3231 C 318.277 -3.1295 5.2605 0
M  V30 3232 N 317.414 -4.29729 5.55228 0
M  V30 3233 H 322.254 -0.687104 2.8997 0
M  V30 3234 H 319.791 -0.327709 1.43403 0
M  V30 3235 H 321.749 -3.16081 2.72303 0
M  V30 3236 H 320.379 -2.77508 1.64891 0
M  V30 3237 H 319.431 -1.30676 3.57251 0
M  V30 3238 H 320.743 -1.91788 4.60455 0
M  V30 3239 H 319.897 -4.25671 4.32306 0
M  V30 3240 H 318.636 -3.68537 3.19425 0
M  V30 3241 H 317.641 -2.26526 5.00965 0
M  V30 3242 H 318.866 -2.86589 6.15665 0
M  V30 3243 H 316.812 -4.57448 4.70188 0
M  V30 3244 H 316.729 -4.08385 6.36206 0
M  V30 3245 H 317.997 -5.1555 5.84661 0
M  V30 3246 N 322.226 -1.5378 -0.344866 0
M  V30 3247 C 323.176 -1.78057 -1.42407 0
M  V30 3248 C 324.16 -0.635732 -1.47808 0
M  V30 3249 O 325.352 -0.89508 -1.527 0
M  V30 3250 C 322.481 -1.99242 -2.79566 0
M  V30 3251 C 321.567 -3.19787 -2.78562 0
M  V30 3252 N 321.958 -4.41284 -2.47189 0
M  V30 3253 C 320.256 -3.2093 -3.0971 0
M  V30 3254 C 320.957 -5.23128 -2.54385 0
M  V30 3255 N 319.933 -4.59813 -2.89953 0
M  V30 3256 H 323.735 -2.69588 -1.17046 0
M  V30 3257 H 321.249 -1.52687 -0.553217 0
M  V30 3258 H 323.246 -2.14768 -3.57324 0
M  V30 3259 H 321.906 -1.08953 -3.05875 0
M  V30 3260 H 322.917 -4.68657 -2.20411 0
M  V30 3261 H 319.594 -2.40603 -3.41199 0
M  V30 3262 H 320.984 -6.30096 -2.333 0
M  V30 3263 N 323.704 0.605807 -1.45491 0
M  V30 3264 C 324.932 1.39136 -1.5313 0
M  V30 3265 C 325.347 1.88082 -0.164507 0
M  V30 3266 O 324.704 1.62316 0.834247 0
M  V30 3267 C 324.755 2.59463 -2.51716 0
M  V30 3268 O 324.476 2.12551 -3.83084 0
M  V30 3269 C 325.977 3.52301 -2.6907 0
M  V30 3270 H 323.197 0.425849 -0.51855 0
M  V30 3271 H 325.741 0.73865 -1.90694 0
M  V30 3272 H 323.896 3.20772 -2.17219 0
M  V30 3273 H 324.31 2.90744 -4.36541 0
M  V30 3274 H 325.784 4.33271 -3.42024 0
M  V30 3275 H 326.261 4.02757 -1.75167 0
M  V30 3276 H 326.867 2.96845 -3.04571 0
M  V30 3277 N 325.182 1.32811 0.848464 0
M  V30 3278 C 326.407 1.26882 1.6406 0
M  V30 3279 C 326.832 -0.15913 1.87426 0
M  V30 3280 O 326.19 -1.11258 1.43148 0
M  V30 3281 C 326.238 2.03997 2.97351 0
M  V30 3282 O 325.342 1.39201 3.88197 0
M  V30 3283 H 324.683 0.436982 0.499943 0
M  V30 3284 H 327.213 1.75224 1.0563 0
M  V30 3285 H 327.223 2.14403 3.47124 0
M  V30 3286 H 325.898 3.0783 2.79666 0
M  V30 3287 H 324.475 1.37381 3.46671 0
M  V30 3288 N 326.66 -1.06551 1.16123 0
M  V30 3289 C 327.937 -1.76097 0.85142 0
M  V30 3290 C 328.317 -2.00802 -0.6513 0
M  V30 3291 O 327.665 -1.63302 -1.59827 0
M  V30 3292 C 327.875 -3.06384 1.67122 0
M  V30 3293 C 329.223 -3.80585 1.88255 0
M  V30 3294 O 330.247 -3.16218 1.63966 0
M  V30 3295 O 329.106 -4.96212 2.2899 0
M  V30 3296 H 326.2 -0.765102 0.313923 0
M  V30 3297 H 328.746 -1.12844 1.26745 0
M  V30 3298 H 327.518 -2.84071 2.69108 0
M  V30 3299 H 327.141 -3.77371 1.25206 0
M  V30 3300 N 328.138 -0.959301 -1.25041 0
M  V30 3301 C 329.366 -0.633949 -1.96948 0
M  V30 3302 C 329.781 0.794916 -1.7125 0
M  V30 3303 O 329.138 1.53231 -0.991287 0
M  V30 3304 C 329.189 -0.888805 -3.50403 0
M  V30 3305 O 328.91 -2.26149 -3.75218 0
M  V30 3306 C 330.411 -0.576482 -4.39536 0
M  V30 3307 H 327.631 -0.237263 -0.627652 0
M  V30 3308 H 330.175 -1.28495 -1.59089 0
M  V30 3309 H 328.33 -0.284145 -3.86357 0
M  V30 3310 H 328.744 -2.33514 -4.6965 0
M  V30 3311 H 330.218 -0.805314 -5.46094 0
M  V30 3312 H 330.695 0.489075 -4.36468 0
M  V30 3313 H 331.301 -1.16067 -4.09156 0
M  V30 3314 N 329.616 1.39756 -0.72842 0
M  V30 3315 C 331.027 1.83498 -0.344289 0
M  V30 3316 C 331.378 1.60868 1.12321 0
M  V30 3317 O 330.503 1.09634 1.86573 0
M  V30 3318 C 331.098 3.33114 -0.618112 0
M  V30 3319 C 329.657 3.753 -0.287549 0
M  V30 3320 C 328.804 2.62831 -0.884048 0
M  V30 3321 H 331.755 1.28842 -0.926578 0
M  V30 3322 H 331.776 3.80334 0.112349 0
M  V30 3323 H 331.288 3.49553 -1.68625 0
M  V30 3324 H 329.389 3.64451 0.775012 0
M  V30 3325 H 329.502 4.72945 -0.765512 0
M  V30 3326 H 327.866 2.52792 -0.311149 0
M  V30 3327 H 328.649 2.82078 -1.95671 0
M  V30 3328 N 331.094 0.475555 1.50254 0
M  V30 3329 C 332.341 -0.0778919 2.0235 0
M  V30 3330 C 332.669 -1.39319 1.35722 0
M  V30 3331 O 331.924 -1.89888 0.473395 0
M  V30 3332 C 332.223 -0.305114 3.56095 0
M  V30 3333 C 331.889 0.92903 4.41225 0
M  V30 3334 C 330.551 1.26739 4.6421 0
M  V30 3335 C 332.903 1.75054 4.90923 0
M  V30 3336 C 330.231 2.42724 5.34137 0
M  V30 3337 C 332.583 2.9017 5.62125 0
M  V30 3338 C 331.247 3.24416 5.83362 0
M  V30 3339 H 330.517 -0.0285027 0.740452 0
M  V30 3340 H 333.164 0.630543 1.80821 0
M  V30 3341 H 331.469 -1.09584 3.76163 0
M  V30 3342 H 333.166 -0.747377 3.93974 0
M  V30 3343 H 329.756 0.655428 4.23559 0
M  V30 3344 H 333.94 1.50231 4.73016 0
M  V30 3345 H 329.196 2.69525 5.48786 0
M  V30 3346 H 333.37 3.54169 5.99614 0
M  V30 3347 H 330.997 4.14396 6.37323 0
M  V30 3348 N 332.573 -1.56217 0.208337 0
M  V30 3349 C 333.85 -1.89739 -0.475234 0
M  V30 3350 C 334.23 -1.1238 -1.78701 0
M  V30 3351 O 333.578 -0.228979 -2.2735 0
M  V30 3352 C 333.788 -3.42289 -0.681101 0
M  V30 3353 C 335.136 -4.12789 -0.994507 0
M  V30 3354 O 336.16 -3.47814 -0.768357 0
M  V30 3355 O 335.019 -5.27649 -1.42299 0
M  V30 3356 H 332.113 -0.788478 -0.249461 0
M  V30 3357 H 334.659 -1.67855 0.249538 0
M  V30 3358 H 333.431 -3.90534 0.244722 0
M  V30 3359 H 333.054 -3.69909 -1.45785 0
M  V30 3360 N 334.051 0.0651679 -1.57465 0
M  V30 3361 C 335.297 0.764193 -1.87851 0
M  V30 3362 C 335.63 1.76889 -0.801495 0
M  V30 3363 O 334.905 1.93594 0.187528 0
M  V30 3364 C 335.188 1.46625 -3.28897 0
M  V30 3365 C 335.041 0.477515 -4.47258 0
M  V30 3366 C 336.36 2.4095 -3.68281 0
M  V30 3367 H 333.479 0.276351 -0.683227 0
M  V30 3368 H 336.121 0.0272868 -1.8998 0
M  V30 3369 H 334.271 2.09438 -3.27212 0
M  V30 3370 H 335.943 -0.145922 -4.61069 0
M  V30 3371 H 334.186 -0.206576 -4.33308 0
M  V30 3372 H 334.857 1.0065 -5.42746 0
M  V30 3373 H 337.333 1.88209 -3.71102 0
M  V30 3374 H 336.209 2.87072 -4.67847 0
M  V30 3375 H 336.47 3.26049 -2.98571 0
M  V30 3376 N 335.529 1.53961 0.336706 0
M  V30 3377 C 336.754 1.75797 1.10046 0
M  V30 3378 C 337.179 0.498985 1.81361 0
M  V30 3379 O 336.537 -0.548769 1.72795 0
M  V30 3380 C 336.585 2.94257 2.08436 0
M  V30 3381 O 335.689 2.64883 3.16087 0
M  V30 3382 H 335.03 0.582936 0.317934 0
M  V30 3383 H 337.56 2.00945 0.38501 0
M  V30 3384 H 337.57 3.21237 2.51537 0
M  V30 3385 H 336.245 3.85564 1.55927 0
M  V30 3386 H 334.822 2.48812 2.77753 0
M  V30 3387 N 337.007 -0.598083 1.45811 0
M  V30 3388 C 337.954 -1.7082 1.55207 0
M  V30 3389 C 338.924 -1.61278 0.39732 0
M  V30 3390 O 340.109 -1.80717 0.612038 0
M  V30 3391 C 337.249 -3.09144 1.53376 0
M  V30 3392 C 336.362 -3.29423 2.79472 0
M  V30 3393 C 335.497 -4.57907 2.69248 0
M  V30 3394 C 334.536 -4.71476 3.90354 0
M  V30 3395 N 333.673 -5.9127 3.78608 0
M  V30 3396 H 338.513 -1.62125 2.50039 0
M  V30 3397 H 336.05 -0.790389 1.24062 0
M  V30 3398 H 338.008 -3.89186 1.50301 0
M  V30 3399 H 336.638 -3.16773 0.620876 0
M  V30 3400 H 335.69 -2.43091 2.92594 0
M  V30 3401 H 337.002 -3.3532 3.69272 0
M  V30 3402 H 336.156 -5.46157 2.64192 0
M  V30 3403 H 334.895 -4.54423 1.77063 0
M  V30 3404 H 333.9 -3.81648 3.95759 0
M  V30 3405 H 335.125 -4.76751 4.83617 0
M  V30 3406 H 333.071 -5.88813 2.89199 0
M  V30 3407 H 332.988 -5.98369 4.6205 0
M  V30 3408 H 334.256 -6.81992 3.77501 0
M  V30 3409 N 338.485 -1.33259 -0.841409 0
M  V30 3410 C 339.415 -1.25926 -1.96634 0
M  V30 3411 C 340.396 -0.140349 -1.6952 0
M  V30 3412 O 341.581 -0.329707 -1.91381 0
M  V30 3413 C 338.711 -0.99512 -3.32738 0
M  V30 3414 C 337.665 -2.0767 -3.74242 0
M  V30 3415 C 336.991 -1.66474 -5.08125 0
M  V30 3416 C 338.291 -3.49318 -3.88297 0
M  V30 3417 H 339.985 -2.20046 -2.03027 0
M  V30 3418 H 337.531 -1.05931 -0.975425 0
M  V30 3419 H 339.484 -0.930323 -4.11002 0
M  V30 3420 H 338.208 -0.0183004 -3.26595 0
M  V30 3421 H 336.867 -2.13187 -2.98239 0
M  V30 3422 H 336.515 -0.675012 -4.9845 0
M  V30 3423 H 336.215 -2.3885 -5.36865 0
M  V30 3424 H 337.739 -1.61455 -5.88867 0
M  V30 3425 H 339.153 -3.46316 -4.56879 0
M  V30 3426 H 337.55 -4.20158 -4.28471 0
M  V30 3427 H 338.62 -3.8801 -2.9082 0
M  V30 3428 N 339.963 1.05934 -1.16686 0
M  V30 3429 C 340.911 2.15603 -0.872817 0
M  V30 3430 C 341.905 1.68647 0.159576 0
M  V30 3431 O 343.111 1.79995 0.0132125 0
M  V30 3432 H 339.486 0.703885 -0.264671 0
M  V30 3433 H 341.457 2.37613 -1.80507 0
M  V30 3434 C 340.206 3.45457 -0.394344 0
M  V30 3435 H 339.529 3.81984 -1.18019 0
M  V30 3436 H 340.969 4.2339 -0.227408 0
M  V30 3437 C 339.428 3.25021 0.88673 0
M  V30 3438 O 339.958 3.50906 1.95519 0
M  V30 3439 N 338.164 2.78437 0.831925 0
M  V30 3440 H 337.711 2.57572 -0.0377619 0
M  V30 3441 H 337.669 2.65144 1.68956 0
M  V30 3442 N 341.441 0.965919 1.2453 0
M  V30 3443 C 342.351 0.502154 2.29163 0
M  V30 3444 C 343.367 -0.436017 1.68448 0
M  V30 3445 O 344.543 -0.309497 1.99008 0
M  V30 3446 C 341.608 -0.201956 3.46111 0
M  V30 3447 C 340.669 0.775821 4.22232 0
M  V30 3448 C 339.902 0.105217 5.33596 0
M  V30 3449 O 340.125 -1.10683 5.59558 0
M  V30 3450 O 339.059 0.796475 5.96607 0
M  V30 3451 H 342.885 1.37194 2.70946 0
M  V30 3452 H 340.47 0.732875 1.30189 0
M  V30 3453 H 342.352 -0.597564 4.17142 0
M  V30 3454 H 341.027 -1.04673 3.06309 0
M  V30 3455 H 339.934 1.22185 3.53584 0
M  V30 3456 H 341.267 1.58896 4.65846 0
M  V30 3457 N 342.919 -1.39368 0.735821 0
M  V30 3458 C 343.849 -2.33234 0.111506 0
M  V30 3459 C 344.83 -1.53954 -0.723334 0
M  V30 3460 O 346.015 -1.82344 -0.668147 0
M  V30 3461 C 343.145 -3.38057 -0.795917 0
M  V30 3462 C 342.099 -4.2795 -0.065172 0
M  V30 3463 C 341.425 -5.23479 -1.08967 0
M  V30 3464 C 342.725 -5.10741 1.09273 0
M  V30 3465 H 344.419 -2.85692 0.895571 0
M  V30 3466 H 341.965 -1.37364 0.432109 0
M  V30 3467 H 343.918 -4.02675 -1.24221 0
M  V30 3468 H 342.642 -2.8404 -1.61211 0
M  V30 3469 H 341.301 -3.64813 0.361511 0
M  V30 3470 H 340.949 -4.65758 -1.89944 0
M  V30 3471 H 340.649 -5.84472 -0.605489 0
M  V30 3472 H 342.173 -5.90974 -1.53565 0
M  V30 3473 H 343.587 -5.68699 0.724841 0
M  V30 3474 H 341.984 -5.8088 1.50659 0
M  V30 3475 H 343.054 -4.45525 1.91404 0
M  V30 3476 N 344.397 -0.483516 -1.5 0
M  V30 3477 C 345.808 -0.0314176 -1.86674 0
M  V30 3478 C 346.159 1.37728 -1.39733 0
M  V30 3479 O 345.284 2.02327 -0.767635 0
M  V30 3480 C 345.879 -0.0502376 -3.38763 0
M  V30 3481 C 344.438 0.346442 -3.74802 0
M  V30 3482 C 343.585 -0.430366 -2.7394 0
M  V30 3483 H 346.536 -0.697182 -1.42566 0
M  V30 3484 H 346.557 0.749116 -3.73053 0
M  V30 3485 H 346.069 -1.07563 -3.72897 0
M  V30 3486 H 344.17 1.37572 -3.46273 0
M  V30 3487 H 344.283 0.0391486 -4.79084 0
M  V30 3488 H 342.647 0.117557 -2.54429 0
M  V30 3489 H 343.43 -1.4555 -3.10918 0
M  V30 3490 N 345.875 1.56104 -0.216619 0
M  V30 3491 C 346.822 2.2007 0.695531 0
M  V30 3492 C 347.792 1.15471 1.19397 0
M  V30 3493 O 348.977 1.43807 1.25396 0
M  V30 3494 C 346.117 2.88073 1.90021 0
M  V30 3495 C 345.23 4.07253 1.44113 0
M  V30 3496 C 344.365 4.63052 2.603 0
M  V30 3497 C 343.404 5.74545 2.11103 0
M  V30 3498 N 342.541 6.24656 3.20545 0
M  V30 3499 H 347.381 2.97655 0.143327 0
M  V30 3500 H 344.918 1.46982 0.0589934 0
M  V30 3501 H 346.876 3.25681 2.60745 0
M  V30 3502 H 345.506 2.13015 2.42538 0
M  V30 3503 H 344.558 3.75164 0.628999 0
M  V30 3504 H 345.87 4.8783 1.04036 0
M  V30 3505 H 345.024 5.03078 3.39113 0
M  V30 3506 H 343.763 3.81628 3.03663 0
M  V30 3507 H 342.768 5.34027 1.3075 0
M  V30 3508 H 343.993 6.57801 1.68746 0
M  V30 3509 H 341.939 5.46148 3.63399 0
M  V30 3510 H 341.856 7.00343 2.84704 0
M  V30 3511 H 343.124 6.69338 3.99508 0
M  V30 3512 N 347.353 -0.0568162 1.57498 0
M  V30 3513 C 348.599 -0.75422 1.88253 0
M  V30 3514 C 348.932 -1.76461 0.810865 0
M  V30 3515 O 348.207 -1.93691 -0.177259 0
M  V30 3516 C 348.49 -1.44878 3.2967 0
M  V30 3517 C 348.343 -0.453789 4.47505 0
M  V30 3518 C 349.662 -2.38994 3.69554 0
M  V30 3519 H 346.781 -0.272724 0.684683 0
M  V30 3520 H 349.423 -0.0172113 1.89992 0
M  V30 3521 H 347.573 -2.077 3.28318 0
M  V30 3522 H 349.245 0.170371 4.60985 0
M  V30 3523 H 347.488 0.229552 4.33192 0
M  V30 3524 H 348.159 -0.977699 5.43273 0
M  V30 3525 H 350.635 -1.86239 3.72095 0
M  V30 3526 H 349.511 -2.84587 4.69363 0
M  V30 3527 H 349.772 -3.24461 3.00296 0
M  V30 3528 N 348.832 -1.54138 -0.328536 0
M  V30 3529 C 350.08 -1.71765 -1.06496 0
M  V30 3530 C 350.401 -0.49149 -1.88704 0
M  V30 3531 O 349.671 0.494539 -1.89555 0
M  V30 3532 H 348.251 -0.633295 -0.396164 0
M  V30 3533 H 350.913 -1.91429 -0.366176 0
M  V30 3534 H 350.009 -2.5951 -1.73381 0
M  V30 3535 N 350.31 0.590341 -1.46126 0
M  V30 3536 C 351.559 1.34499 -1.50309 0
M  V30 3537 C 351.872 1.94977 -0.156021 0
M  V30 3538 O 353.078 2.71395 -0.0756037 0
M  V30 3539 C 351.534 2.43723 -2.64815 0
M  V30 3540 C 351.142 1.89582 -4.0591 0
M  V30 3541 C 352.886 3.20579 -2.78262 0
M  V30 3542 C 350.793 2.9639 -5.11769 0
M  V30 3543 H 349.723 0.505593 -0.559368 0
M  V30 3544 H 352.374 0.630848 -1.72315 0
M  V30 3545 H 350.756 3.17902 -2.36124 0
M  V30 3546 H 351.93 1.21997 -4.44357 0
M  V30 3547 H 350.245 1.25418 -3.97063 0
M  V30 3548 H 352.842 4.00276 -3.54519 0
M  V30 3549 H 353.185 3.72684 -1.85505 0
M  V30 3550 H 353.718 2.53505 -3.06562 0
M  V30 3551 H 350.457 2.49181 -6.06291 0
M  V30 3552 H 349.977 3.62487 -4.77873 0
M  V30 3553 H 351.656 3.60474 -5.37278 0
M  V30 3554 N 351.788 1.33704 0.83433 0
M  V30 3555 C 353.034 1.25603 1.59222 0
M  V30 3556 C 353.367 -0.176659 1.93395 0
M  V30 3557 O 352.642 -1.11915 1.59076 0
M  V30 3558 C 352.925 2.13576 2.89926 0
M  V30 3559 C 352.778 3.65326 2.62406 0
M  V30 3560 C 354.097 2.01238 3.91397 0
M  V30 3561 H 351.216 0.457613 0.577719 0
M  V30 3562 H 353.858 1.63848 0.961972 0
M  V30 3563 H 352.008 1.8109 3.43713 0
M  V30 3564 H 353.68 4.08124 2.15017 0
M  V30 3565 H 351.923 3.8698 1.96033 0
M  V30 3566 H 352.594 4.22232 3.55562 0
M  V30 3567 H 355.07 2.29738 3.46929 0
M  V30 3568 H 353.946 2.65036 4.80673 0
M  V30 3569 H 354.207 0.985951 4.30966 0
M  V30 3570 N 353.266 -1.05314 1.17247 0
M  V30 3571 C 354.496 -1.81707 0.983166 0
M  V30 3572 C 354.904 -1.83222 -0.471822 0
M  V30 3573 O 354.247 -1.25721 -1.3394 0
M  V30 3574 C 354.309 -3.29134 1.44606 0
M  V30 3575 C 353.973 -3.51304 2.92292 0
M  V30 3576 C 354.97 -3.4353 3.90235 0
M  V30 3577 C 352.655 -3.78306 3.30439 0
M  V30 3578 C 354.649 -3.62442 5.24323 0
M  V30 3579 C 352.336 -3.96866 4.64694 0
M  V30 3580 C 353.334 -3.88933 5.61445 0
M  V30 3581 O 353.022 -4.06976 6.93272 0
M  V30 3582 H 352.754 -0.579476 0.348114 0
M  V30 3583 H 355.308 -1.33705 1.55924 0
M  V30 3584 H 353.538 -3.78046 0.813537 0
M  V30 3585 H 355.227 -3.87049 1.22262 0
M  V30 3586 H 355.993 -3.22648 3.62109 0
M  V30 3587 H 351.872 -3.83585 2.55702 0
M  V30 3588 H 355.416 -3.56165 5.99827 0
M  V30 3589 H 351.313 -4.1724 4.92525 0
M  V30 3590 H 352.081 -4.24209 6.99992 0
M  V30 3591 N 354.744 -0.972509 -1.24016 0
M  V30 3592 C 355.692 -0.498562 -2.27194 0
M  V30 3593 C 356.686 0.440372 -1.63576 0
M  V30 3594 O 357.892 0.315133 -1.7722 0
M  V30 3595 H 354.267 -0.142775 -0.738322 0
M  V30 3596 H 356.238 -1.38065 -2.64539 0
M  V30 3597 C 354.987 0.191072 -3.47175 0
M  V30 3598 H 354.31 -0.522318 -3.96373 0
M  V30 3599 H 355.75 0.486445 -4.212 0
M  V30 3600 C 354.209 1.41967 -3.05527 0
M  V30 3601 O 354.739 2.51642 -3.13112 0
M  V30 3602 N 352.945 1.28746 -2.60524 0
M  V30 3603 H 352.492 0.395089 -2.54552 0
M  V30 3604 H 352.45 2.11061 -2.33025 0
M  V30 3605 N 356.222 1.38976 -0.743202 0
M  V30 3606 C 357.452 2.04339 -0.304807 0
M  V30 3607 C 357.86 1.56162 1.06819 0
M  V30 3608 O 357.203 0.725284 1.68776 0
M  V30 3609 C 357.265 3.58716 -0.237369 0
M  V30 3610 C 356.929 4.29905 -1.55018 0
M  V30 3611 C 357.926 4.55987 -2.49744 0
M  V30 3612 C 355.611 4.68294 -1.81675 0
M  V30 3613 C 357.605 5.19478 -3.69353 0
M  V30 3614 C 355.292 5.31512 -3.0156 0
M  V30 3615 C 356.29 5.57037 -3.9522 0
M  V30 3616 O 355.978 6.18941 -5.12998 0
M  V30 3617 H 355.71 0.663439 -0.12971 0
M  V30 3618 H 358.264 1.78852 -1.01001 0
M  V30 3619 H 356.494 3.83133 0.524003 0
M  V30 3620 H 358.183 4.05543 0.170121 0
M  V30 3621 H 358.949 4.26767 -2.30423 0
M  V30 3622 H 354.828 4.47779 -1.09615 0
M  V30 3623 H 358.372 5.39318 -4.42473 0
M  V30 3624 H 354.269 5.60153 -3.20778 0
M  V30 3625 H 355.037 6.37433 -5.13441 0
M  V30 3626 N 357.7 0.491464 1.49741 0
M  V30 3627 C 358.663 -0.280906 2.27472 0
M  V30 3628 C 359.663 -0.902454 1.33088 0
M  V30 3629 O 360.853 -0.768465 1.56334 0
M  V30 3630 C 357.985 -1.40209 3.10732 0
M  V30 3631 H 359.178 0.401056 2.97206 0
M  V30 3632 H 356.731 0.246131 1.5435 0
M  V30 3633 H 357.466 -2.11849 2.45541 0
M  V30 3634 H 357.251 -0.961969 3.80117 0
M  V30 3635 H 358.741 -1.9464 3.69466 0
M  V30 3636 N 359.178 -1.55987 0.224894 0
M  V30 3637 C 360.126 -2.21808 -0.700283 0
M  V30 3638 C 361.12 -1.19854 -1.19714 0
M  V30 3639 O 362.326 -1.37925 -1.15658 0
M  V30 3640 H 358.701 -0.711226 -0.244258 0
M  V30 3641 H 360.672 -2.98152 -0.121749 0
M  V30 3642 C 359.421 -2.91444 -1.8962 0
M  V30 3643 H 358.744 -3.69655 -1.52299 0
M  V30 3644 H 360.184 -3.40894 -2.52125 0
M  V30 3645 C 358.643 -1.94098 -2.75368 0
M  V30 3646 O 359.173 -1.46004 -3.74227 0
M  V30 3647 N 357.379 -1.61675 -2.41474 0
M  V30 3648 H 356.926 -2.00979 -1.61137 0
M  V30 3649 H 356.884 -0.968036 -2.99126 0
M  V30 3650 N 360.656 0.0484629 -1.57525 0
M  V30 3651 C 361.619 1.03956 -2.04269 0
M  V30 3652 C 362.619 1.30211 -0.943496 0
M  V30 3653 O 363.809 1.25539 -1.20771 0
M  V30 3654 C 360.941 2.37742 -2.44319 0
M  V30 3655 H 362.134 0.636182 -2.93075 0
M  V30 3656 H 359.687 0.294811 -1.53494 0
M  V30 3657 H 360.422 2.82866 -1.5861 0
M  V30 3658 H 360.207 2.20021 -3.24551 0
M  V30 3659 H 361.697 3.08936 -2.80978 0
M  V30 3660 N 362.134 1.5431 0.320358 0
M  V30 3661 C 363.359 1.76954 1.08175 0
M  V30 3662 C 363.784 0.518193 1.80821 0
M  V30 3663 O 363.142 -0.530411 1.73368 0
M  V30 3664 C 363.19 2.96451 2.05303 0
M  V30 3665 O 362.294 2.68221 3.13259 0
M  V30 3666 H 361.635 0.586275 0.311733 0
M  V30 3667 H 364.165 2.01342 0.363676 0
M  V30 3668 H 364.175 3.23887 2.48116 0
M  V30 3669 H 362.85 3.87196 1.51829 0
M  V30 3670 H 361.427 2.51744 2.75099 0
M  V30 3671 N 363.613 -0.582584 1.46437 0
M  V30 3672 C 364.89 -1.34276 1.4223 0
M  V30 3673 C 365.27 -2.10835 0.10583 0
M  V30 3674 O 364.618 -2.09485 -0.912596 0
M  V30 3675 C 364.828 -2.26865 2.65204 0
M  V30 3676 C 366.176 -2.88691 3.11356 0
M  V30 3677 O 367.2 -2.37178 2.65753 0
M  V30 3678 O 366.059 -3.82255 3.90568 0
M  V30 3679 H 363.153 -0.603326 0.565621 0
M  V30 3680 H 365.699 -0.603591 1.58603 0
M  V30 3681 H 364.471 -1.69724 3.52576 0
M  V30 3682 H 364.094 -3.08122 2.5129 0
M  V30 3683 N 365.091 -1.34144 -0.827227 0
M  V30 3684 C 366.021 -1.28005 -1.95287 0
M  V30 3685 C 367.002 -0.158321 -1.69362 0
M  V30 3686 O 368.187 -0.349987 -1.9102 0
M  V30 3687 C 365.317 -1.03036 -3.31664 0
M  V30 3688 C 364.271 -2.11628 -3.72019 0
M  V30 3689 C 363.597 -1.71854 -5.0633 0
M  V30 3690 C 364.897 -3.53417 -3.8457 0
M  V30 3691 H 366.591 -2.22187 -2.00682 0
M  V30 3692 H 364.137 -1.0696 -0.964135 0
M  V30 3693 H 366.09 -0.973863 -4.09993 0
M  V30 3694 H 364.814 -0.0529391 -3.26557 0
M  V30 3695 H 363.473 -2.16339 -2.95961 0
M  V30 3696 H 363.121 -0.727841 -4.97706 0
M  V30 3697 H 362.821 -2.44531 -5.34302 0
M  V30 3698 H 364.345 -1.67692 -5.87122 0
M  V30 3699 H 365.759 -3.51142 -4.5318 0
M  V30 3700 H 364.156 -4.24679 -4.2399 0
M  V30 3701 H 365.226 -3.91072 -2.86689 0
M  V30 3702 N 366.569 1.04691 -1.17803 0
M  V30 3703 C 367.98 1.59238 -0.974689 0
M  V30 3704 C 368.331 1.90306 0.477292 0
M  V30 3705 O 367.456 1.68846 1.35352 0
M  V30 3706 C 368.051 2.89318 -1.76296 0
M  V30 3707 C 366.61 3.40506 -1.60414 0
M  V30 3708 C 365.757 2.14172 -1.76141 0
M  V30 3709 H 368.708 0.874395 -1.32439 0
M  V30 3710 H 368.729 3.5944 -1.24833 0
M  V30 3711 H 368.241 2.66675 -2.81968 0
M  V30 3712 H 366.342 3.68175 -0.572519 0
M  V30 3713 H 366.455 4.14753 -2.39827 0
M  V30 3714 H 364.819 2.25176 -1.19028 0
M  V30 3715 H 365.602 1.93992 -2.83235 0
M  V30 3716 N 368.047 0.979072 1.23499 0
M  V30 3717 C 369.01 0.523244 2.23147 0
M  V30 3718 C 370.01 -0.386406 1.56088 0
M  V30 3719 O 371.2 -0.180283 1.73265 0
M  V30 3720 C 368.332 -0.240739 3.40049 0
M  V30 3721 H 369.525 1.40432 2.64989 0
M  V30 3722 H 367.078 0.764824 1.36309 0
M  V30 3723 H 367.813 -1.13841 3.03662 0
M  V30 3724 H 367.598 0.412207 3.89927 0
M  V30 3725 H 369.088 -0.548297 4.13985 0
M  V30 3726 N 369.525 -1.3858 0.750561 0
M  V30 3727 C 370.472 -2.30483 0.120835 0
M  V30 3728 C 371.442 -1.50022 -0.712923 0
M  V30 3729 O 372.627 -1.78662 -0.669676 0
M  V30 3730 C 369.767 -3.36431 -0.768666 0
M  V30 3731 C 368.88 -4.31927 0.0793922 0
M  V30 3732 C 368.015 -5.24944 -0.81283 0
M  V30 3733 C 367.054 -6.12088 0.0390447 0
M  V30 3734 N 366.191 -6.97412 -0.809969 0
M  V30 3735 H 371.031 -2.83761 0.91015 0
M  V30 3736 H 368.568 -1.39707 0.460463 0
M  V30 3737 H 370.526 -3.96462 -1.29898 0
M  V30 3738 H 369.156 -2.8457 -1.5238 0
M  V30 3739 H 368.208 -3.73382 0.727303 0
M  V30 3740 H 369.52 -4.93319 0.737401 0
M  V30 3741 H 368.674 -5.90078 -1.41042 0
M  V30 3742 H 367.413 -4.63911 -1.50458 0
M  V30 3743 H 366.418 -5.45952 0.649328 0
M  V30 3744 H 367.643 -6.75189 0.727809 0
M  V30 3745 H 365.589 -6.38931 -1.48672 0
M  V30 3746 H 365.506 -7.55712 -0.208789 0
M  V30 3747 H 366.774 -7.66959 -1.39263 0
M  V30 3748 N 371.003 -0.499398 -1.49478 0
M  V30 3749 C 371.966 0.268838 -2.27618 0
M  V30 3750 C 372.966 0.895383 -1.33565 0
M  V30 3751 O 374.156 0.760164 -1.56739 0
M  V30 3752 C 371.288 1.38559 -3.11471 0
M  V30 3753 H 372.481 -0.416812 -2.96989 0
M  V30 3754 H 370.034 -0.254313 -1.54217 0
M  V30 3755 H 370.769 2.10544 -2.46661 0
M  V30 3756 H 370.554 0.941797 -3.80621 0
M  V30 3757 H 372.044 1.92678 -3.70493 0
M  V30 3758 N 372.481 1.55866 -0.233164 0
M  V30 3759 C 373.411 2.23783 0.666599 0
M  V30 3760 C 374.392 1.21343 1.19205 0
M  V30 3761 O 375.577 1.4996 1.23392 0
M  V30 3762 C 372.707 2.92671 1.86978 0
M  V30 3763 C 371.661 4.01682 1.47768 0
M  V30 3764 C 370.987 4.57926 2.76058 0
M  V30 3765 C 372.287 5.18126 0.658993 0
M  V30 3766 H 373.981 2.99232 0.100306 0
M  V30 3767 H 371.527 1.43924 0.046804 0
M  V30 3768 H 373.48 3.3888 2.50476 0
M  V30 3769 H 372.204 2.14688 2.46123 0
M  V30 3770 H 370.863 3.56222 0.866106 0
M  V30 3771 H 370.511 3.76659 3.33372 0
M  V30 3772 H 370.211 5.31505 2.50552 0
M  V30 3773 H 371.735 5.06859 3.40479 0
M  V30 3774 H 373.149 5.60644 1.19795 0
M  V30 3775 H 371.546 5.98009 0.500552 0
M  V30 3776 H 372.616 4.83763 -0.331856 0
M  V30 3777 N 373.959 -0.0401083 1.57549 0
M  V30 3778 C 375.205 -0.734211 1.89043 0
M  V30 3779 C 375.538 -1.75591 0.829535 0
M  V30 3780 O 374.813 -1.93868 -0.156706 0
M  V30 3781 C 375.096 -1.41374 3.31188 0
M  V30 3782 C 374.949 -0.406299 4.47961 0
M  V30 3783 C 376.268 -2.35061 3.72068 0
M  V30 3784 H 373.387 -0.265447 0.687537 0
M  V30 3785 H 376.029 0.00294087 1.9 0
M  V30 3786 H 374.179 -2.04206 3.30503 0
M  V30 3787 H 375.851 0.219255 4.60779 0
M  V30 3788 H 374.094 0.275485 4.32924 0
M  V30 3789 H 374.765 -0.920022 5.44279 0
M  V30 3790 H 377.241 -1.82282 3.74049 0
M  V30 3791 H 376.117 -2.79593 4.72355 0
M  V30 3792 H 376.378 -3.21258 3.0372 0
M  V30 3793 N 375.437 -1.54477 -0.31217 0
M  V30 3794 C 376.714 -1.63891 -1.06767 0
M  V30 3795 C 377.094 -0.480028 -2.0557 0
M  V30 3796 O 376.442 0.524487 -2.22399 0
M  V30 3797 C 376.652 -3.01402 -1.75948 0
M  V30 3798 C 378 -3.57838 -2.28554 0
M  V30 3799 O 379.024 -3.03782 -1.85998 0
M  V30 3800 O 377.883 -4.52462 -3.06497 0
M  V30 3801 H 374.977 -0.664125 -0.492816 0
M  V30 3802 H 377.523 -1.66823 -0.311149 0
M  V30 3803 H 376.295 -3.77187 -1.04144 0
M  V30 3804 H 375.918 -3.02199 -2.58383 0
M  V30 3805 N 376.915 0.57481 -1.46744 0
M  V30 3806 C 377.878 1.66533 -1.57478 0
M  V30 3807 C 378.878 1.54338 -0.451263 0
M  V30 3808 O 380.068 1.58814 -0.715813 0
M  V30 3809 C 377.2 3.05999 -1.50259 0
M  V30 3810 H 378.393 1.58372 -2.54673 0
M  V30 3811 H 375.946 0.793301 -1.34672 0
M  V30 3812 H 376.681 3.19709 -0.543725 0
M  V30 3813 H 376.466 3.16259 -2.31781 0
M  V30 3814 H 377.956 3.8537 -1.60872 0
M  V30 3815 N 378.394 1.34581 0.820102 0
M  V30 3816 C 379.642 1.26845 1.57336 0
M  V30 3817 C 379.963 -0.160667 1.94337 0
M  V30 3818 O 379.233 -1.09396 1.6251 0
M  V30 3819 H 377.813 0.466514 0.583415 0
M  V30 3820 H 380.475 1.68526 0.979027 0
M  V30 3821 H 379.571 1.87513 2.4949 0
M  V30 3822 N 379.872 -1.04064 1.18357 0
M  V30 3823 C 381.102 -1.80654 1.00238 0
M  V30 3824 C 381.51 -1.83713 -0.452362 0
M  V30 3825 O 380.853 -1.27135 -1.32599 0
M  V30 3826 C 380.915 -3.27582 1.48088 0
M  V30 3827 C 380.579 -3.48184 2.96002 0
M  V30 3828 C 381.576 -3.39372 3.93856 0
M  V30 3829 C 379.261 -3.7478 3.34433 0
M  V30 3830 C 381.255 -3.5686 5.28138 0
M  V30 3831 C 378.942 -3.91915 4.68877 0
M  V30 3832 C 379.94 -3.82956 5.65539 0
M  V30 3833 O 379.628 -3.996 6.97549 0
M  V30 3834 H 379.36 -0.575751 0.354241 0
M  V30 3835 H 381.914 -1.32044 1.57333 0
M  V30 3836 H 380.144 -3.77161 0.853588 0
M  V30 3837 H 381.833 -3.8573 1.2636 0
M  V30 3838 H 382.599 -3.18789 3.65511 0
M  V30 3839 H 378.478 -3.80852 2.59756 0
M  V30 3840 H 382.022 -3.49783 6.03571 0
M  V30 3841 H 377.919 -4.11992 4.96923 0
M  V30 3842 H 378.687 -4.1676 7.04452 0
M  V30 3843 N 381.35 -0.985608 -1.22978 0
M  V30 3844 C 382.627 -0.573599 -1.87001 0
M  V30 3845 C 383.007 0.949213 -1.88555 0
M  V30 3846 O 382.355 1.82811 -1.37086 0
M  V30 3847 C 382.565 -1.18564 -3.28243 0
M  V30 3848 C 383.913 -1.28163 -4.04796 0
M  V30 3849 O 384.937 -1.13949 -3.37482 0
M  V30 3850 O 383.796 -1.50832 -5.25273 0
M  V30 3851 H 380.89 -0.193868 -0.803955 0
M  V30 3852 H 383.436 -1.08102 -1.30813 0
M  V30 3853 H 382.208 -2.22758 -3.21706 0
M  V30 3854 H 381.831 -0.663363 -3.92027 0
M  V30 3855 N 382.828 1.3818 -0.7579 0
M  V30 3856 C 384.076 1.99624 -0.315361 0
M  V30 3857 C 384.397 1.60464 1.10799 0
M  V30 3858 O 383.667 0.863507 1.75842 0
M  V30 3859 H 382.247 0.73831 -0.113611 0
M  V30 3860 H 384.909 1.68878 -0.972952 0
M  V30 3861 H 384.005 3.09754 -0.381931 0
M  V30 3862 N 384.306 0.507319 1.49211 0
M  V30 3863 C 385.555 -0.0368315 2.01666 0
M  V30 3864 C 385.868 -1.37459 1.39156 0
M  V30 3865 O 387.074 -2.00579 1.82976 0
M  V30 3866 C 385.53 -0.116089 3.59713 0
M  V30 3867 C 385.138 1.2154 4.31198 0
M  V30 3868 C 386.882 -0.610268 4.2009 0
M  V30 3869 C 384.789 1.09796 5.81119 0
M  V30 3870 H 383.719 -0.0175376 0.753796 0
M  V30 3871 H 386.37 0.647691 1.71689 0
M  V30 3872 H 384.752 -0.8652 3.86433 0
M  V30 3873 H 385.926 1.9783 4.16173 0
M  V30 3874 H 384.241 1.64352 3.82593 0
M  V30 3875 H 386.838 -0.715742 5.29888 0
M  V30 3876 H 387.181 -1.61064 3.8388 0
M  V30 3877 H 387.714 0.0824916 3.97714 0
M  V30 3878 H 384.453 2.0728 6.21864 0
M  V30 3879 H 383.973 0.376058 5.9862 0
M  V30 3880 H 385.652 0.779281 6.4229 0
M  V30 3881 N 385.784 -1.5574 0.241426 0
M  V30 3882 C 387.03 -1.99104 -0.385406 0
M  V30 3883 C 387.363 -1.1293 -1.57988 0
M  V30 3884 O 386.638 -0.191449 -1.93555 0
M  V30 3885 C 386.921 -3.51087 -0.800616 0
M  V30 3886 C 386.774 -4.48028 0.398874 0
M  V30 3887 C 388.093 -4.08015 -1.64959 0
M  V30 3888 H 385.212 -0.723848 -0.138614 0
M  V30 3889 H 387.854 -1.86903 0.341642 0
M  V30 3890 H 386.004 -3.61615 -1.4201 0
M  V30 3891 H 387.676 -4.49487 1.03726 0
M  V30 3892 H 385.919 -4.21077 1.04293 0
M  V30 3893 H 386.59 -5.51962 0.0651056 0
M  V30 3894 H 389.066 -4.00555 -1.12672 0
M  V30 3895 H 387.942 -5.14635 -1.90898 0
M  V30 3896 H 388.203 -3.56131 -2.61961 0
M  V30 3897 N 387.262 0.0317525 -1.57568 0
M  V30 3898 C 388.487 0.738664 -1.938 0
M  V30 3899 C 388.912 1.68242 -0.841208 0
M  V30 3900 O 388.27 1.80157 0.203267 0
M  V30 3901 C 388.318 1.47417 -3.29091 0
M  V30 3902 O 387.422 2.5872 -3.2115 0
M  V30 3903 H 386.763 0.198856 -0.633524 0
M  V30 3904 H 389.293 -0.0119713 -2.04596 0
M  V30 3905 H 389.303 1.84468 -3.63917 0
M  V30 3906 H 387.978 0.781988 -4.08482 0
M  V30 3907 H 386.555 2.24231 -2.97951 0
M  V30 3908 N 388.74 1.54641 0.303973 0
M  V30 3909 C 389.703 1.84646 1.35789 0
M  V30 3910 C 390.703 0.7192 1.4382 0
M  V30 3911 O 391.893 0.987491 1.43507 0
M  V30 3912 C 389.025 2.02407 2.74307 0
M  V30 3913 H 390.218 2.78829 1.10429 0
M  V30 3914 H 387.771 1.46658 0.540487 0
M  V30 3915 H 388.506 1.10502 3.04893 0
M  V30 3916 H 388.291 2.84453 2.69868 0
M  V30 3917 H 389.781 2.27002 3.50514 0
M  V30 3918 N 390.218 -0.567019 1.47046 0
M  V30 3919 C 391.466 -1.322 1.52864 0
M  V30 3920 C 391.787 -1.94088 0.188388 0
M  V30 3921 O 391.057 -1.7941 -0.786693 0
M  V30 3922 H 389.637 -0.490894 0.563056 0
M  V30 3923 H 392.299 -0.662879 1.83281 0
M  V30 3924 H 391.395 -2.12062 2.2899 0
M  V30 3925 N 391.696 -1.35014 -0.812953 0
M  V30 3926 C 392.942 -1.2812 -1.57204 0
M  V30 3927 C 393.275 0.145869 -1.93651 0
M  V30 3928 O 392.55 1.0937 -1.60836 0
M  V30 3929 C 392.833 -2.18162 -2.86492 0
M  V30 3930 C 392.686 -3.69454 -2.56561 0
M  V30 3931 C 394.005 -2.07439 -3.88145 0
M  V30 3932 H 391.124 -0.466746 -0.570366 0
M  V30 3933 H 393.766 -1.65357 -0.935783 0
M  V30 3934 H 391.916 -1.86535 -3.40789 0
M  V30 3935 H 393.588 -4.11493 -2.08497 0
M  V30 3936 H 391.831 -3.9005 -1.89851 0
M  V30 3937 H 392.502 -4.27835 -3.48799 0
M  V30 3938 H 394.978 -2.35228 -3.4323 0
M  V30 3939 H 393.854 -2.7265 -4.76396 0
M  V30 3940 H 394.115 -1.05439 -4.29343 0
M  V30 3941 N 393.175 1.03435 -1.18907 0
M  V30 3942 C 394.423 1.76394 -0.986382 0
M  V30 3943 C 394.744 1.88883 0.484567 0
M  V30 3944 O 394.014 1.41843 1.3512 0
M  V30 3945 H 392.594 0.65344 -0.361975 0
M  V30 3946 H 395.256 1.248 -1.49703 0
M  V30 3947 H 394.352 2.77424 -1.42978 0
M  V30 3948 N 394.653 0.992116 1.22453 0
M  V30 3949 C 395.601 0.534644 2.26372 0
M  V30 3950 C 396.595 -0.414293 1.64256 0
M  V30 3951 O 397.801 -0.286899 1.77699 0
M  V30 3952 H 394.176 0.154502 0.735957 0
M  V30 3953 H 396.147 1.42256 2.62309 0
M  V30 3954 C 394.896 -0.135815 3.47435 0
M  V30 3955 H 394.219 0.585311 3.95492 0
M  V30 3956 H 395.659 -0.419374 4.21921 0
M  V30 3957 C 394.118 -1.37089 3.07747 0
M  V30 3958 O 394.648 -2.46629 3.17076 0
M  V30 3959 N 392.854 -1.24585 2.62539 0
M  V30 3960 H 392.401 -0.354542 2.55149 0
M  V30 3961 H 392.359 -2.07327 2.36353 0
M  V30 3962 N 396.131 -1.37776 0.765217 0
M  V30 3963 C 397.379 -1.99454 0.325943 0
M  V30 3964 C 397.7 -1.61049 -1.09947 0
M  V30 3965 O 396.97 -0.872821 -1.75381 0
M  V30 3966 H 395.55 -0.737697 0.117525 0
M  V30 3967 H 398.212 -1.68359 0.981895 0
M  V30 3968 H 397.308 -3.09547 0.398353 0
M  V30 3969 N 397.609 -0.515225 -1.4894 0
M  V30 3970 C 398.557 0.269115 -2.31038 0
M  V30 3971 C 399.551 0.949443 -1.40292 0
M  V30 3972 O 400.757 0.87551 -1.57273 0
M  V30 3973 H 397.132 0.10565 -0.744542 0
M  V30 3974 H 399.103 -0.443096 -2.95092 0
M  V30 3975 C 397.852 1.31213 -3.21991 0
M  V30 3976 H 397.175 0.798034 -3.91754 0
M  V30 3977 H 398.615 1.83263 -3.82349 0
M  V30 3978 C 397.074 2.33791 -2.42576 0
M  V30 3979 O 397.604 3.3995 -2.14003 0
M  V30 3980 N 395.81 2.06625 -2.0434 0
M  V30 3981 H 395.357 1.20314 -2.27777 0
M  V30 3982 H 395.315 2.75483 -1.51514 0
M  V30 3983 N 399.087 1.5561 -0.249682 0
M  V30 3984 C 400.017 2.24477 0.642826 0
M  V30 3985 C 400.998 1.22601 1.17911 0
M  V30 3986 O 402.183 1.5126 1.21795 0
M  V30 3987 C 399.313 2.94638 1.83863 0
M  V30 3988 C 398.267 4.03227 1.435 0
M  V30 3989 C 397.593 4.60828 2.71186 0
M  V30 3990 C 398.893 5.18796 0.604002 0
M  V30 3991 H 400.587 2.99321 0.0685625 0
M  V30 3992 H 398.133 1.43965 0.0315363 0
M  V30 3993 H 400.086 3.41517 2.46868 0
M  V30 3994 H 398.81 2.17287 2.43832 0
M  V30 3995 H 397.469 3.57121 0.828275 0
M  V30 3996 H 397.117 3.80174 3.29358 0
M  V30 3997 H 396.817 5.34132 2.44901 0
M  V30 3998 H 398.341 5.10442 3.35084 0
M  V30 3999 H 399.755 5.61883 1.13842 0
M  V30 4000 H 398.152 5.98506 0.437097 0
M  V30 4001 H 399.222 4.83384 -0.383147 0
M  V30 4002 N 400.565 -0.0233959 1.57583 0
M  V30 4003 C 401.795 -0.723631 1.93513 0
M  V30 4004 C 402.203 -1.69115 0.848333 0
M  V30 4005 O 401.546 -1.82781 -0.183484 0
M  V30 4006 C 401.608 -1.53075 3.25282 0
M  V30 4007 C 401.272 -0.727388 4.51174 0
M  V30 4008 C 402.269 -0.0251924 5.19894 0
M  V30 4009 C 399.954 -0.680256 4.97672 0
M  V30 4010 C 401.948 0.713374 6.33395 0
M  V30 4011 C 399.635 0.0620523 6.11068 0
M  V30 4012 C 400.633 0.757622 6.78785 0
M  V30 4013 O 400.321 1.48787 7.90011 0
M  V30 4014 H 400.053 -0.208051 0.643188 0
M  V30 4015 H 402.607 0.0167489 2.05393 0
M  V30 4016 H 400.837 -2.31508 3.09744 0
M  V30 4017 H 402.526 -2.11413 3.46496 0
M  V30 4018 H 403.292 -0.0526003 4.84971 0
M  V30 4019 H 399.171 -1.21116 4.44805 0
M  V30 4020 H 402.715 1.25683 6.86185 0
M  V30 4021 H 398.612 0.0913634 6.45435 0
M  V30 4022 H 399.38 1.40213 8.06401 0
M  V30 4023 N 402.043 -1.548 -0.295768 0
M  V30 4024 C 402.99 -1.86113 -1.36494 0
M  V30 4025 C 403.96 -0.7105 -1.50137 0
M  V30 4026 O 405.145 -0.959626 -1.64912 0
M  V30 4027 C 402.285 -2.11861 -2.72413 0
M  V30 4028 C 401.398 -3.39471 -2.67177 0
M  V30 4029 C 400.533 -3.55035 -3.95125 0
M  V30 4030 C 399.572 -4.76418 -3.84308 0
M  V30 4031 N 398.709 -4.8876 -5.04042 0
M  V30 4032 H 403.549 -2.77314 -1.09091 0
M  V30 4033 H 401.086 -1.37315 -0.52753 0
M  V30 4034 H 403.044 -2.24786 -3.51464 0
M  V30 4035 H 401.674 -1.2392 -2.98066 0
M  V30 4036 H 400.726 -3.35139 -1.79962 0
M  V30 4037 H 402.038 -4.28646 -2.55076 0
M  V30 4038 H 401.192 -3.67653 -4.82614 0
M  V30 4039 H 399.931 -2.64002 -4.10066 0
M  V30 4040 H 398.936 -4.63827 -2.95202 0
M  V30 4041 H 400.161 -5.68863 -3.70906 0
M  V30 4042 H 398.107 -4.00652 -5.19436 0
M  V30 4043 H 398.024 -5.71945 -4.94384 0
M  V30 4044 H 399.292 -5.0574 -5.93167 0
M  V30 4045 N 403.521 0.559213 -1.47345 0
M  V30 4046 C 404.746 1.34676 -1.57725 0
M  V30 4047 C 405.171 1.86723 -0.227164 0
M  V30 4048 O 404.529 1.6286 0.796642 0
M  V30 4049 C 404.577 2.49399 -2.60447 0
M  V30 4050 O 403.681 3.51567 -2.15578 0
M  V30 4051 H 403.022 0.400115 -0.52991 0
M  V30 4052 H 405.552 0.676009 -1.93109 0
M  V30 4053 H 405.562 2.95996 -2.80803 0
M  V30 4054 H 404.237 2.10873 -3.58477 0
M  V30 4055 H 402.814 3.11289 -2.05313 0
M  V30 4056 N 404.999 1.35443 0.805782 0
M  V30 4057 C 406.245 1.28952 1.56522 0
M  V30 4058 C 406.578 -0.135597 1.93726 0
M  V30 4059 O 405.853 -1.08516 1.61414 0
M  V30 4060 C 406.136 2.19678 2.85331 0
M  V30 4061 C 405.989 3.7081 2.54598 0
M  V30 4062 C 407.308 2.09495 3.8704 0
M  V30 4063 H 404.427 0.469764 0.567883 0
M  V30 4064 H 407.069 1.65851 0.927001 0
M  V30 4065 H 405.219 1.8834 3.39795 0
M  V30 4066 H 406.891 4.12593 2.06312 0
M  V30 4067 H 405.134 3.91051 1.8778 0
M  V30 4068 H 405.805 4.29679 3.46525 0
M  V30 4069 H 408.281 2.37045 3.41978 0
M  V30 4070 H 407.157 2.75173 4.74943 0
M  V30 4071 H 407.418 1.07714 4.28777 0
M  V30 4072 N 406.477 -1.02803 1.19454 0
M  V30 4073 C 407.724 -1.76217 0.997693 0
M  V30 4074 C 408.052 -1.887 -0.47144 0
M  V30 4075 O 407.307 -1.4011 -1.3663 0
M  V30 4076 C 407.606 -3.18941 1.6128 0
M  V30 4077 C 407.272 -3.26463 3.11019 0
M  V30 4078 C 405.934 -3.28223 3.51885 0
M  V30 4079 C 408.286 -3.25542 4.07028 0
M  V30 4080 C 405.614 -3.26719 4.8731 0
M  V30 4081 C 407.966 -3.25579 5.42385 0
M  V30 4082 C 406.63 -3.25637 5.82681 0
M  V30 4083 H 405.9 -0.644823 0.365082 0
M  V30 4084 H 408.547 -1.20655 1.4871 0
M  V30 4085 H 406.852 -3.77587 1.04572 0
M  V30 4086 H 408.549 -3.74415 1.43577 0
M  V30 4087 H 405.139 -3.25822 2.78457 0
M  V30 4088 H 409.323 -3.23362 3.76498 0
M  V30 4089 H 404.579 -3.25089 5.1781 0
M  V30 4090 H 408.753 -3.23817 6.16535 0
M  V30 4091 H 406.38 -3.24226 6.87591 0
M  V30 4092 N 407.956 -0.998596 -1.21925 0
M  V30 4093 C 409.233 -0.593401 -1.86382 0
M  V30 4094 C 409.613 0.92916 -1.89552 0
M  V30 4095 O 408.961 1.81347 -1.39017 0
M  V30 4096 C 409.171 -1.22039 -3.26967 0
M  V30 4097 C 410.519 -1.32449 -4.03413 0
M  V30 4098 O 411.543 -1.17522 -3.36254 0
M  V30 4099 O 410.402 -1.56395 -5.23644 0
M  V30 4100 H 407.496 -0.202385 -0.801854 0
M  V30 4101 H 410.042 -1.09484 -1.29659 0
M  V30 4102 H 408.814 -2.26158 -3.19325 0
M  V30 4103 H 408.437 -0.704906 -3.91301 0
M  V30 4104 N 409.434 1.37368 -0.772513 0
M  V30 4105 C 410.662 2.03942 -0.348588 0
M  V30 4106 C 411.077 1.58264 1.02947 0
M  V30 4107 O 410.434 0.764246 1.65727 0
M  V30 4108 C 410.485 3.5946 -0.38351 0
M  V30 4109 O 410.206 4.03468 -1.70721 0
M  V30 4110 C 411.707 4.4327 0.0519152 0
M  V30 4111 H 408.927 0.654931 -0.145966 0
M  V30 4112 H 411.471 1.75686 -1.04665 0
M  V30 4113 H 409.626 3.86486 0.265978 0
M  V30 4114 H 410.04 4.97991 -1.64636 0
M  V30 4115 H 411.514 5.51995 -0.0236733 0
M  V30 4116 H 411.991 4.2514 1.10238 0
M  V30 4117 H 412.597 4.21471 -0.569415 0
M  V30 4118 N 410.912 0.523116 1.48665 0
M  V30 4119 C 411.842 -0.23231 2.32342 0
M  V30 4120 C 412.823 -0.941637 1.41659 0
M  V30 4121 O 414.008 -0.928751 1.70552 0
M  V30 4122 C 411.138 -1.28387 3.22698 0
M  V30 4123 C 410.092 -0.693098 4.22351 0
M  V30 4124 C 409.418 -1.8468 5.01794 0
M  V30 4125 C 410.718 0.33063 5.21252 0
M  V30 4126 H 412.412 0.466192 2.95748 0
M  V30 4127 H 409.958 0.225643 1.42221 0
M  V30 4128 H 411.911 -1.82024 3.80059 0
M  V30 4129 H 410.635 -2.01186 2.57278 0
M  V30 4130 H 409.294 -0.178299 3.66166 0
M  V30 4131 H 408.942 -2.56301 4.32804 0
M  V30 4132 H 408.642 -1.45747 5.69238 0
M  V30 4133 H 410.166 -2.38709 5.62006 0
M  V30 4134 H 411.58 -0.118407 5.73178 0
M  V30 4135 H 409.977 0.636974 5.9671 0
M  V30 4136 H 411.047 1.23883 4.68808 0
M  V30 4137 N 412.39 -1.55475 0.257931 0
M  V30 4138 C 413.353 -2.20551 -0.623706 0
M  V30 4139 C 414.353 -1.17809 -1.09443 0
M  V30 4140 O 415.543 -1.42823 -0.997362 0
M  V30 4141 C 412.675 -2.85784 -1.8585 0
M  V30 4142 H 413.868 -2.99848 -0.0557743 0
M  V30 4143 H 411.421 -1.56298 0.0084422 0
M  V30 4144 H 412.156 -2.10453 -2.46739 0
M  V30 4145 H 411.941 -3.61057 -1.52907 0
M  V30 4146 H 413.431 -3.35553 -2.48584 0
M  V30 4147 N 413.868 0.0150385 -1.57593 0
M  V30 4148 C 415.096 0.714395 -1.94175 0
M  V30 4149 C 415.511 1.68135 -0.858841 0
M  V30 4150 O 414.868 1.81766 0.163567 0
M  V30 4151 C 414.919 1.45933 -3.30735 0
M  V30 4152 O 414.64 0.531167 -4.34868 0
M  V30 4153 C 416.141 2.25456 -3.81686 0
M  V30 4154 H 413.361 0.199923 -0.640525 0
M  V30 4155 H 415.905 -0.0316096 -2.04476 0
M  V30 4156 H 414.06 2.15709 -3.21789 0
M  V30 4157 H 414.474 1.05509 -5.13778 0
M  V30 4158 H 415.948 2.731 -4.79709 0
M  V30 4159 H 416.425 3.07485 -3.13607 0
M  V30 4160 H 417.031 1.60727 -3.9376 0
M  V30 4161 N 415.346 1.54954 0.287554 0
M  V30 4162 C 416.309 1.86076 1.33823 0
M  V30 4163 C 417.309 0.734414 1.43049 0
M  V30 4164 O 418.499 1.00266 1.42452 0
M  V30 4165 C 415.631 2.05305 2.72144 0
M  V30 4166 H 416.824 2.79984 1.07465 0
M  V30 4167 H 414.377 1.47223 0.524902 0
M  V30 4168 H 415.112 1.1373 3.03704 0
M  V30 4169 H 414.897 2.873 2.66836 0
M  V30 4170 H 416.387 2.30706 3.48087 0
M  V30 4171 N 416.824 -0.551391 1.4764 0
M  V30 4172 C 417.787 -1.64007 1.60107 0
M  V30 4173 C 418.787 -1.53601 0.47576 0
M  V30 4174 O 419.977 -1.57655 0.740988 0
M  V30 4175 C 417.109 -3.03569 1.55108 0
M  V30 4176 H 418.302 -1.543 2.57161 0
M  V30 4177 H 415.855 -0.771776 1.35917 0
M  V30 4178 H 416.59 -3.18804 0.594519 0
M  V30 4179 H 416.375 -3.12532 2.36783 0
M  V30 4180 H 417.865 -3.82762 1.66982 0
M  V30 4181 N 418.302 -1.35869 -0.798587 0
M  V30 4182 C 419.249 -1.29446 -1.91082 0
M  V30 4183 C 420.219 -0.16487 -1.6528 0
M  V30 4184 O 421.404 -0.349888 -1.87564 0
M  V30 4185 C 418.544 -1.0804 -3.27752 0
M  V30 4186 C 417.657 -2.29993 -3.65687 0
M  V30 4187 C 416.792 -2.01673 -4.91428 0
M  V30 4188 C 415.831 -3.19636 -5.22015 0
M  V30 4189 N 414.968 -2.91039 -6.38937 0
M  V30 4190 H 419.808 -2.24553 -1.95907 0
M  V30 4191 H 417.345 -1.11615 -0.958148 0
M  V30 4192 H 419.303 -0.936586 -4.06551 0
M  V30 4193 H 417.933 -0.16592 -3.22373 0
M  V30 4194 H 416.985 -2.55211 -2.82085 0
M  V30 4195 H 418.297 -3.18052 -3.84245 0
M  V30 4196 H 417.451 -1.84168 -5.78072 0
M  V30 4197 H 416.19 -1.10911 -4.74921 0
M  V30 4198 H 415.195 -3.37709 -4.33858 0
M  V30 4199 H 416.42 -4.11211 -5.40447 0
M  V30 4200 H 414.366 -2.0288 -6.2384 0
M  V30 4201 H 414.283 -3.72635 -6.57784 0
M  V30 4202 H 415.551 -2.77093 -7.28587 0
M  V30 4203 N 419.78 1.02168 -1.19998 0
M  V30 4204 C 421.008 1.79296 -1.03249 0
M  V30 4205 C 421.423 1.84103 0.418502 0
M  V30 4206 O 420.78 1.29031 1.29063 0
M  V30 4207 C 420.831 3.24007 -1.60319 0
M  V30 4208 O 420.552 3.19512 -2.99739 0
M  V30 4209 C 422.053 4.17704 -1.48453 0
M  V30 4210 H 419.273 0.564016 -0.363493 0
M  V30 4211 H 421.817 1.28639 -1.58973 0
M  V30 4212 H 419.972 3.7183 -1.08727 0
M  V30 4213 H 420.386 4.10306 -3.26725 0
M  V30 4214 H 421.86 5.17104 -1.93153 0
M  V30 4215 H 422.337 4.37029 -0.436193 0
M  V30 4216 H 422.943 3.7576 -1.99211 0
M  V30 4217 N 421.258 1.00505 1.21394 0
M  V30 4218 C 422.506 0.686415 1.90086 0
M  V30 4219 C 422.827 -0.785264 1.7849 0
M  V30 4220 O 422.097 -1.56387 1.17983 0
M  V30 4221 H 420.677 0.2509 0.703604 0
M  V30 4222 H 423.339 1.27417 1.47482 0
M  V30 4223 H 422.435 0.959621 2.96981 0
M  V30 4224 N 422.737 -1.36956 0.779787 0
M  V30 4225 C 423.965 -2.03755 0.359398 0
M  V30 4226 C 424.38 -1.58807 -1.02106 0
M  V30 4227 O 423.737 -0.773024 -1.6532 0
M  V30 4228 C 423.788 -3.59251 0.402568 0
M  V30 4229 O 423.509 -4.02557 1.72858 0
M  V30 4230 C 425.01 -4.43291 -0.0284068 0
M  V30 4231 H 422.23 -0.654148 0.149437 0
M  V30 4232 H 424.774 -1.75128 1.05595 0
M  V30 4233 H 422.929 -3.86621 -0.245478 0
M  V30 4234 H 423.343 -4.97111 1.67275 0
M  V30 4235 H 424.817 -5.51975 0.0529466 0
M  V30 4236 H 425.294 -4.25719 -1.07982 0
M  V30 4237 H 425.9 -4.21163 0.591758 0
M  V30 4238 N 424.215 -0.530993 -1.48385 0
M  V30 4239 C 425.178 0.220497 -2.28137 0
M  V30 4240 C 426.178 0.866851 -1.35434 0
M  V30 4241 O 427.368 0.726746 -1.58316 0
M  V30 4242 C 424.5 1.31921 -3.1434 0
M  V30 4243 H 425.693 -0.479714 -2.96038 0
M  V30 4244 H 423.246 -0.286968 -1.53643 0
M  V30 4245 H 423.981 2.05264 -2.51072 0
M  V30 4246 H 423.766 0.86085 -3.82533 0
M  V30 4247 H 425.256 1.84776 -3.74497 0
M  V30 4248 N 425.693 1.55336 -0.266172 0
M  V30 4249 C 426.939 1.99692 0.353681 0
M  V30 4250 C 427.272 1.1543 1.56172 0
M  V30 4251 O 426.547 0.222218 1.93226 0
M  V30 4252 C 426.83 3.52316 0.74466 0
M  V30 4253 C 426.683 4.47337 -0.470101 0
M  V30 4254 C 428.002 4.10588 1.58447 0
M  V30 4255 H 425.121 0.725961 0.12708 0
M  V30 4256 H 427.763 1.86336 -0.371333 0
M  V30 4257 H 425.913 3.63829 1.36239 0
M  V30 4258 H 427.585 4.4778 -1.10864 0
M  V30 4259 H 425.828 4.19364 -1.10978 0
M  V30 4260 H 426.499 5.51788 -0.15291 0
M  V30 4261 H 428.975 4.02297 1.06286 0
M  V30 4262 H 427.851 5.17607 1.82686 0
M  V30 4263 H 428.112 3.60253 2.56262 0
M  V30 4264 N 427.171 -0.0066808 1.57599 0
M  V30 4265 C 428.417 -0.693947 1.90558 0
M  V30 4266 C 428.75 -1.73792 0.866594 0
M  V30 4267 O 428.025 -1.94156 -0.115548 0
M  V30 4268 C 428.308 -1.34317 3.34112 0
M  V30 4269 C 428.161 -0.311189 4.48722 0
M  V30 4270 C 429.48 -2.27116 3.7697 0
M  V30 4271 H 426.599 -0.250803 0.693013 0
M  V30 4272 H 429.241 0.043242 1.89951 0
M  V30 4273 H 427.391 -1.9715 3.3476 0
M  V30 4274 H 429.063 0.316944 4.6021 0
M  V30 4275 H 427.306 0.367253 4.32243 0
M  V30 4276 H 427.977 -0.804366 5.46108 0
M  V30 4277 H 430.453 -1.74306 3.77831 0
M  V30 4278 H 429.329 -2.69511 4.78179 0
M  V30 4279 H 429.59 -3.14743 3.10466 0
M  V30 4280 N 428.649 -1.55105 -0.279332 0
M  V30 4281 C 430.065 -1.46803 -0.626187 0
M  V30 4282 C 430.265 -0.676939 -1.89789 0
M  V30 4283 O 429.321 -0.19326 -2.51759 0
M  V30 4284 C 430.634 -2.90962 -0.759034 0
M  V30 4285 C 432.182 -3.01138 -0.853504 0
M  V30 4286 C 432.657 -4.46539 -1.01818 0
M  V30 4287 N 434.148 -4.50341 -1.08386 0
M  V30 4288 C 434.883 -5.60053 -1.22996 0
M  V30 4289 N 434.379 -6.79645 -1.34366 0
M  V30 4290 N 436.172 -5.47783 -1.26056 0
M  V30 4291 H 428.323 -2.04996 0.555921 0
M  V30 4292 H 430.586 -0.929325 0.187239 0
M  V30 4293 H 430.292 -3.51544 0.104852 0
M  V30 4294 H 430.166 -3.39619 -1.64131 0
M  V30 4295 H 432.553 -2.40658 -1.70786 0
M  V30 4296 H 432.634 -2.55745 0.0532466 0
M  V30 4297 H 432.278 -5.0762 -0.168504 0
M  V30 4298 H 432.208 -4.89583 -1.93948 0
M  V30 4299 H 434.699 -3.64191 -1.00864 0
M  V30 4300 H 435.012 -7.59012 -1.4533 0
M  V30 4301 H 433.357 -6.82469 -1.31382 0
M  V30 4302 H 436.548 -4.53294 -1.168 0
M  V30 4303 H 436.721 -6.33331 -1.37098 0
M  V30 4304 N 430.127 0.543554 -1.4793 0
M  V30 4305 C 431.352 1.32995 -1.59145 0
M  V30 4306 C 431.777 1.86472 -0.246956 0
M  V30 4307 O 431.135 1.63696 0.779324 0
M  V30 4308 C 431.183 2.46623 -2.63077 0
M  V30 4309 O 430.287 3.49261 -2.19295 0
M  V30 4310 H 429.628 0.394472 -0.534124 0
M  V30 4311 H 432.158 0.655489 -1.93816 0
M  V30 4312 H 432.168 2.93001 -2.83926 0
M  V30 4313 H 430.843 2.07059 -3.60693 0
M  V30 4314 H 429.42 3.09094 -2.08603 0
M  V30 4315 N 431.605 1.3629 0.791371 0
M  V30 4316 C 432.83 1.33726 1.58531 0
M  V30 4317 C 433.255 -0.0794933 1.87932 0
M  V30 4318 O 432.613 -1.05087 1.47738 0
M  V30 4319 C 432.661 2.16425 2.88431 0
M  V30 4320 O 431.765 1.5554 3.81944 0
M  V30 4321 H 431.106 0.457793 0.480959 0
M  V30 4322 H 433.636 1.79547 0.981031 0
M  V30 4323 H 433.646 2.28933 3.37718 0
M  V30 4324 H 432.321 3.19415 2.66359 0
M  V30 4325 H 430.898 1.51961 3.40532 0
M  V30 4326 N 433.083 -1.0153 1.20538 0
M  V30 4327 C 434.499 -1.27461 0.96051 0
M  V30 4328 C 434.699 -1.98273 -0.359193 0
M  V30 4329 O 433.755 -2.27886 -1.0874 0
M  V30 4330 C 435.068 -2.10837 2.14402 0
M  V30 4331 C 436.616 -2.24099 2.18515 0
M  V30 4332 C 437.091 -3.10852 3.36355 0
M  V30 4333 N 438.582 -3.18441 3.36377 0
M  V30 4334 C 439.317 -3.85795 4.24205 0
M  V30 4335 N 438.813 -4.55264 5.22213 0
M  V30 4336 N 440.606 -3.82331 4.12043 0
M  V30 4337 H 432.757 -0.539907 2.05423 0
M  V30 4338 H 435.02 -0.30092 0.898972 0
M  V30 4339 H 434.726 -1.66144 3.09983 0
M  V30 4340 H 434.6 -3.11576 2.12604 0
M  V30 4341 H 436.987 -2.68016 1.23497 0
M  V30 4342 H 437.068 -1.22865 2.24361 0
M  V30 4343 H 436.712 -2.6764 4.31661 0
M  V30 4344 H 436.642 -4.12177 3.27746 0
M  V30 4345 H 439.133 -2.68978 2.65442 0
M  V30 4346 H 439.446 -5.04331 5.85551 0
M  V30 4347 H 437.791 -4.54085 5.26148 0
M  V30 4348 H 440.982 -3.27207 3.34743 0
M  V30 4349 H 441.155 -4.34547 4.807 0
M  V30 4350 N 434.561 -1.01147 -1.20859 0
M  V30 4351 C 435.807 -0.698899 -1.90377 0
M  V30 4352 C 436.14 0.76904 -1.78324 0
M  V30 4353 O 435.415 1.55817 -1.16409 0
M  V30 4354 C 435.698 -1.12878 -3.41951 0
M  V30 4355 C 435.551 -2.65665 -3.62963 0
M  V30 4356 C 436.87 -0.696114 -4.3456 0
M  V30 4357 H 433.989 -0.255372 -0.691342 0
M  V30 4358 H 436.631 -1.25831 -1.42361 0
M  V30 4359 H 434.781 -0.652827 -3.82976 0
M  V30 4360 H 436.453 -3.21074 -3.31224 0
M  V30 4361 H 434.696 -3.06878 -3.06608 0
M  V30 4362 H 435.367 -2.90797 -4.69192 0
M  V30 4363 H 437.843 -1.10521 -4.01154 0
M  V30 4364 H 436.719 -1.025 -5.39245 0
M  V30 4365 H 436.98 0.402465 -4.40264 0
M  V30 4366 N 436.039 1.36541 -0.78704 0
M  V30 4367 C 437.45 1.81873 -0.421807 0
M  V30 4368 C 437.801 1.65487 1.05397 0
M  V30 4369 O 436.926 1.17448 1.81755 0
M  V30 4370 C 437.521 3.30192 -0.758841 0
M  V30 4371 C 436.08 3.73743 -0.446468 0
M  V30 4372 C 435.227 2.58844 -0.994728 0
M  V30 4373 H 438.178 1.24796 -0.98039 0
M  V30 4374 H 438.199 3.80468 -0.0490648 0
M  V30 4375 H 437.711 3.42087 -1.83299 0
M  V30 4376 H 435.812 3.6741 0.619739 0
M  V30 4377 H 435.925 4.69272 -0.965415 0
M  V30 4378 H 434.289 2.51245 -0.418087 0
M  V30 4379 H 435.072 2.73525 -2.07458 0
M  V30 4380 N 437.518 0.538854 1.48102 0
M  V30 4381 C 438.746 0.0123136 2.06896 0
M  V30 4382 C 439.161 -1.27312 1.39417 0
M  V30 4383 O 438.518 -1.75949 0.484582 0
M  V30 4384 C 438.569 -0.206118 3.60912 0
M  V30 4385 O 438.29 1.0284 4.25859 0
M  V30 4386 C 439.791 -0.772033 4.36526 0
M  V30 4387 H 437.011 0.0375239 0.66995 0
M  V30 4388 H 439.555 0.747032 1.90367 0
M  V30 4389 H 437.71 -0.89091 3.77017 0
M  V30 4390 H 438.124 0.814654 5.18135 0
M  V30 4391 H 439.598 -0.874251 5.45033 0
M  V30 4392 H 440.075 -1.77904 4.01555 0
M  V30 4393 H 440.681 -0.123526 4.25121 0
M  V30 4394 N 438.996 -1.55193 0.274407 0
M  V30 4395 C 440.244 -1.99187 -0.341902 0
M  V30 4396 C 440.565 -1.16422 -1.56431 0
M  V30 4397 O 439.835 -0.253573 -1.94252 0
M  V30 4398 H 438.415 -0.735721 -0.129317 0
M  V30 4399 H 441.077 -1.91168 0.379578 0
M  V30 4400 H 440.173 -3.05629 -0.632253 0
M  V30 4401 N 440.474 -0.00167713 -1.576 0
M  V30 4402 C 441.437 0.974046 -2.07473 0
M  V30 4403 C 442.437 1.27143 -0.984444 0
M  V30 4404 O 443.627 1.21633 -1.24703 0
M  V30 4405 C 440.759 2.29849 -2.51759 0
M  V30 4406 H 441.952 0.54262 -2.9495 0
M  V30 4407 H 439.505 0.245829 -1.54355 0
M  V30 4408 H 440.24 2.77677 -1.67529 0
M  V30 4409 H 440.025 2.09584 -3.31386 0
M  V30 4410 H 441.515 2.9984 -2.90664 0
M  V30 4411 N 441.952 1.55251 0.271103 0
M  V30 4412 C 443.18 1.79974 1.02064 0
M  V30 4413 C 443.595 0.574003 1.79863 0
M  V30 4414 O 442.952 -0.456962 1.76686 0
M  V30 4415 C 443.003 3.02603 1.97772 0
M  V30 4416 O 442.724 4.20443 1.23124 0
M  V30 4417 C 444.225 3.39944 2.84522 0
M  V30 4418 H 441.445 0.599489 0.301419 0
M  V30 4419 H 443.989 2.02268 0.301313 0
M  V30 4420 H 442.144 2.8243 2.65165 0
M  V30 4421 H 442.558 4.89783 1.87651 0
M  V30 4422 H 444.032 4.28915 3.47471 0
M  V30 4423 H 444.509 2.59432 3.54389 0
M  V30 4424 H 445.115 3.62383 2.22618 0
M  V30 4425 N 443.43 -0.535701 1.48216 0
M  V30 4426 C 444.658 -1.31671 1.59594 0
M  V30 4427 C 445.073 -1.87083 0.254056 0
M  V30 4428 O 444.43 -1.66112 -0.755854 0
M  V30 4429 C 444.481 -2.47158 2.63809 0
M  V30 4430 O 444.202 -1.94032 3.92789 0
M  V30 4431 C 445.703 -3.39062 2.85573 0
M  V30 4432 H 442.923 -0.400623 0.538277 0
M  V30 4433 H 445.467 -0.646827 1.94001 0
M  V30 4434 H 443.622 -3.10043 2.32276 0
M  V30 4435 H 444.036 -2.69585 4.49916 0
M  V30 4436 H 445.51 -4.16459 3.62306 0
M  V30 4437 H 445.987 -3.93941 1.94184 0
M  V30 4438 H 446.593 -2.81975 3.18387 0
M  V30 4439 N 444.908 -1.36708 -0.784132 0
M  V30 4440 C 445.84 -1.27333 -1.90575 0
M  V30 4441 C 446.853 -0.191706 -1.61667 0
M  V30 4442 O 448.042 -0.446854 -1.72816 0
M  V30 4443 C 445.142 -0.943177 -3.25511 0
M  V30 4444 C 444.315 -2.12776 -3.82158 0
M  V30 4445 C 443.374 -1.76983 -4.95544 0
M  V30 4446 O 442.4 -2.49134 -5.11782 0
M  V30 4447 N 443.602 -0.706624 -5.76183 0
M  V30 4448 H 446.367 -2.23974 -1.99138 0
M  V30 4449 H 443.928 -1.30171 -0.962656 0
M  V30 4450 H 445.92 -0.684799 -3.98864 0
M  V30 4451 H 444.49 -0.0657333 -3.12531 0
M  V30 4452 H 443.71 -2.54863 -3.0073 0
M  V30 4453 H 444.998 -2.91904 -4.16737 0
M  V30 4454 H 444.396 -0.107643 -5.65598 0
M  V30 4455 H 442.953 -0.50808 -6.49817 0
M  V30 4456 N 446.386 1.0089 -1.21074 0
M  V30 4457 C 447.663 1.71834 -0.934469 0
M  V30 4458 C 448.043 2.0368 0.554753 0
M  V30 4459 O 447.391 1.70742 1.51854 0
M  V30 4460 C 447.601 2.98061 -1.8155 0
M  V30 4461 C 448.949 3.7117 -2.06199 0
M  V30 4462 O 449.973 3.08034 -1.78867 0
M  V30 4463 O 448.832 4.84721 -2.52404 0
M  V30 4464 H 445.926 0.749253 -0.35007 0
M  V30 4465 H 448.472 1.06668 -1.31985 0
M  V30 4466 H 447.244 2.70908 -2.82355 0
M  V30 4467 H 446.867 3.70968 -1.43068 0
M  V30 4468 N 447.864 1.01787 1.20321 0
M  V30 4469 C 448.827 0.593972 2.2137 0
M  V30 4470 C 449.827 -0.336553 1.57239 0
M  V30 4471 O 451.017 -0.125069 1.7375 0
M  V30 4472 C 448.149 -0.132433 3.40643 0
M  V30 4473 H 449.342 1.48791 2.60387 0
M  V30 4474 H 446.895 0.807803 1.33807 0
M  V30 4475 H 447.63 -1.04123 3.0713 0
M  V30 4476 H 447.415 0.53605 3.88418 0
M  V30 4477 H 448.905 -0.416314 4.1552 0
M  V30 4478 N 449.342 -1.36122 0.79427 0
M  V30 4479 C 450.252 -2.33769 0.197296 0
M  V30 4480 C 451.268 -1.61276 -0.653153 0
M  V30 4481 O 452.444 -1.9323 -0.5678 0
M  V30 4482 C 449.509 -3.40474 -0.654098 0
M  V30 4483 C 448.57 -4.28759 0.215411 0
M  V30 4484 C 447.803 -5.30368 -0.595443 0
M  V30 4485 O 448.026 -5.40211 -1.83107 0
M  V30 4486 O 446.96 -6.019 0.00721351 0
M  V30 4487 H 450.786 -2.86597 1.00478 0
M  V30 4488 H 448.371 -1.38676 0.555818 0
M  V30 4489 H 450.253 -4.05703 -1.13944 0
M  V30 4490 H 448.928 -2.89937 -1.43938 0
M  V30 4491 H 447.835 -3.66554 0.747615 0
M  V30 4492 H 449.168 -4.82661 0.964332 0
M  V30 4493 N 450.82 -0.546701 -1.47814 0
M  V30 4494 C 452.066 -0.0187684 -2.02791 0
M  V30 4495 C 452.399 1.32338 -1.42128 0
M  V30 4496 O 451.674 1.85867 -0.573023 0
M  V30 4497 C 451.957 0.0854985 -3.59998 0
M  V30 4498 C 451.81 -1.283 -4.31114 0
M  V30 4499 C 453.129 0.80412 -4.32691 0
M  V30 4500 H 450.248 -0.0082946 -0.736953 0
M  V30 4501 H 452.89 -0.706962 -1.76358 0
M  V30 4502 H 451.04 0.671609 -3.82651 0
M  V30 4503 H 452.712 -1.91151 -4.19832 0
M  V30 4504 H 450.955 -1.86049 -3.91878 0
M  V30 4505 H 451.626 -1.16287 -5.39612 0
M  V30 4506 H 454.102 0.306576 -4.14969 0
M  V30 4507 H 452.978 0.846011 -5.42341 0
M  V30 4508 H 453.239 1.85802 -4.01161 0
M  V30 4509 N 452.299 1.55045 -0.282633 0
M  V30 4510 C 453.576 1.9179 0.384166 0
M  V30 4511 C 453.956 1.20778 1.73136 0
M  V30 4512 O 453.304 0.33719 2.25998 0
M  V30 4513 C 453.514 3.45149 0.517014 0
M  V30 4514 C 454.862 4.17064 0.796427 0
M  V30 4515 O 455.886 3.51084 0.601535 0
M  V30 4516 O 454.745 5.33837 1.16962 0
M  V30 4517 H 451.839 0.799483 0.211558 0
M  V30 4518 H 454.385 1.66474 -0.32934 0
M  V30 4519 H 453.157 3.88922 -0.430772 0
M  V30 4520 H 452.78 3.76443 1.2797 0
M  V30 4521 N 453.777 0.010035 1.57597 0
M  V30 4522 C 455.054 -0.710296 1.82248 0
M  V30 4523 C 455.434 -1.91426 0.889911 0
M  V30 4524 O 454.782 -2.28424 -0.0590292 0
M  V30 4525 C 454.992 -1.10655 3.30993 0
M  V30 4526 C 456.34 -1.50621 3.96987 0
M  V30 4527 O 457.364 -1.20007 3.35375 0
M  V30 4528 O 456.223 -2.07587 5.05539 0
M  V30 4529 H 453.317 -0.34673 0.750804 0
M  V30 4530 H 455.863 0.0362578 1.69661 0
M  V30 4531 H 454.635 -0.248826 3.90508 0
M  V30 4532 H 454.258 -1.91189 3.48615 0
M  V30 4533 N 455.255 -1.55392 -0.262866 0
M  V30 4534 C 456.218 -1.88181 -1.30846 0
M  V30 4535 C 457.218 -0.757079 -1.41862 0
M  V30 4536 O 458.408 -1.02519 -1.40838 0
M  V30 4537 C 455.54 -2.09609 -2.68844 0
M  V30 4538 H 456.733 -2.81659 -1.02997 0
M  V30 4539 H 454.286 -1.48039 -0.501414 0
M  V30 4540 H 455.021 -1.18547 -3.01856 0
M  V30 4541 H 454.806 -2.91508 -2.62231 0
M  V30 4542 H 456.296 -2.36215 -3.44372 0
M  V30 4543 N 456.733 0.527833 -1.48498 0
M  V30 4544 C 457.68 1.6322 -1.6318 0
M  V30 4545 C 458.65 1.59199 -0.473815 0
M  V30 4546 O 459.835 1.77591 -0.697563 0
M  V30 4547 C 456.975 3.01474 -1.67951 0
M  V30 4548 C 456.088 3.15713 -2.94871 0
M  V30 4549 C 455.223 4.44539 -2.90789 0
M  V30 4550 C 454.262 4.52315 -4.12404 0
M  V30 4551 N 453.399 5.72533 -4.06387 0
M  V30 4552 H 458.239 1.50011 -2.57489 0
M  V30 4553 H 455.776 0.730298 -1.27691 0
M  V30 4554 H 457.734 3.81572 -1.68698 0
M  V30 4555 H 456.364 3.1345 -0.771306 0
M  V30 4556 H 455.416 2.28854 -3.03859 0
M  V30 4557 H 456.728 3.1732 -3.8485 0
M  V30 4558 H 455.882 5.3293 -2.89949 0
M  V30 4559 H 454.621 4.45457 -1.98542 0
M  V30 4560 H 453.626 3.62331 -4.13517 0
M  V30 4561 H 454.851 4.53134 -5.05812 0
M  V30 4562 H 452.797 5.74344 -3.16962 0
M  V30 4563 H 452.714 5.75643 -4.90073 0
M  V30 4564 H 453.982 6.63204 -4.0961 0
M  V30 4565 N 458.211 1.37122 0.776871 0
M  V30 4566 C 459.441 1.35034 1.56363 0
M  V30 4567 C 459.849 -0.0674681 1.8908 0
M  V30 4568 O 459.192 -1.03826 1.51545 0
M  V30 4569 C 459.254 2.11894 2.90415 0
M  V30 4570 C 458.918 3.60897 2.80362 0
M  V30 4571 C 459.915 4.54887 2.51742 0
M  V30 4572 C 457.6 4.03951 2.98545 0
M  V30 4573 C 459.594 5.89909 2.41426 0
M  V30 4574 C 457.281 5.3906 2.87849 0
M  V30 4575 C 458.279 6.31852 2.5933 0
M  V30 4576 O 457.967 7.64479 2.48651 0
M  V30 4577 H 457.699 0.464402 0.49123 0
M  V30 4578 H 460.253 1.80992 0.971127 0
M  V30 4579 H 458.483 1.60618 3.51765 0
M  V30 4580 H 460.172 2.02505 3.51776 0
M  V30 4581 H 460.938 4.22934 2.37385 0
M  V30 4582 H 456.817 3.3209 3.19746 0
M  V30 4583 H 460.361 6.62304 2.19086 0
M  V30 4584 H 456.258 5.70617 3.01773 0
M  V30 4585 H 457.026 7.74742 2.64039 0
M  V30 4586 N 459.689 -1.00246 1.21608 0
M  V30 4587 C 460.937 -1.73717 1.0328 0
M  V30 4588 C 461.258 -1.90102 -0.434318 0
M  V30 4589 O 460.528 -1.45376 -1.31311 0
M  V30 4590 H 459.108 -0.643613 0.379172 0
M  V30 4591 H 461.77 -1.20787 1.52959 0
M  V30 4592 H 460.866 -2.73535 1.50283 0
M  V30 4593 N 461.167 -1.02423 -1.1978 0
M  V30 4594 C 462.414 -0.717988 -1.89344 0
M  V30 4595 C 462.742 0.753036 -1.79331 0
M  V30 4596 O 461.997 1.56355 -1.17692 0
M  V30 4597 C 462.296 -1.1088 -3.39765 0
M  V30 4598 C 461.962 -2.57731 -3.6998 0
M  V30 4599 C 460.624 -2.97854 -3.77937 0
M  V30 4600 C 462.976 -3.52763 -3.83677 0
M  V30 4601 C 460.304 -4.31931 -3.97054 0
M  V30 4602 C 462.656 -4.86538 -4.04306 0
M  V30 4603 C 461.32 -5.26356 -4.10494 0
M  V30 4604 H 460.59 -0.26273 -0.692859 0
M  V30 4605 H 463.237 -1.28623 -1.41875 0
M  V30 4606 H 461.542 -0.459094 -3.89101 0
M  V30 4607 H 463.239 -0.849432 -3.919 0
M  V30 4608 H 459.829 -2.25646 -3.64393 0
M  V30 4609 H 464.013 -3.2292 -3.76877 0
M  V30 4610 H 459.269 -4.62324 -4.00083 0
M  V30 4611 H 463.443 -5.60093 -4.13846 0
M  V30 4612 H 461.07 -6.3026 -4.2506 0
M  V30 4613 N 462.645 1.35699 -0.801477 0
M  V30 4614 C 463.891 1.99208 -0.380022 0
M  V30 4615 C 464.224 1.63445 1.04878 0
M  V30 4616 O 463.499 0.895223 1.72673 0
M  V30 4617 C 463.782 3.55755 -0.557708 0
M  V30 4618 C 463.635 4.01332 -2.03107 0
M  V30 4619 C 464.954 4.40096 0.0197968 0
M  V30 4620 H 462.073 0.723667 -0.139552 0
M  V30 4621 H 464.715 1.60928 -1.01006 0
M  V30 4622 H 462.865 3.88494 -0.0213741 0
M  V30 4623 H 464.537 3.79026 -2.62939 0
M  V30 4624 H 462.78 3.52429 -2.52936 0
M  V30 4625 H 463.451 5.10234 -2.1063 0
M  V30 4626 H 465.927 4.13786 -0.438179 0
M  V30 4627 H 464.803 5.48735 -0.134477 0
M  V30 4628 H 465.064 4.2786 1.11303 0
M  V30 4629 N 464.123 0.554532 1.47522 0
M  V30 4630 C 465.086 -0.184174 2.28459 0
M  V30 4631 C 466.086 -0.845195 1.36796 0
M  V30 4632 O 467.276 -0.701467 1.59452 0
M  V30 4633 C 464.408 -1.26903 3.16399 0
M  V30 4634 H 465.601 0.526751 2.95238 0
M  V30 4635 H 463.154 0.311375 1.53167 0
M  V30 4636 H 463.889 -2.01244 2.54306 0
M  V30 4637 H 463.674 -0.799883 3.83854 0
M  V30 4638 H 465.164 -1.78794 3.77389 0
M  V30 4639 N 465.601 -1.54893 0.290851 0
M  V30 4640 C 466.826 -2.04804 -0.32712 0
M  V30 4641 C 467.251 -1.16721 -1.47506 0
M  V30 4642 O 466.609 -0.169107 -1.8051 0
M  V30 4643 C 466.657 -3.52268 -0.770689 0
M  V30 4644 O 465.761 -3.67236 -1.87647 0
M  V30 4645 H 465.102 -0.660789 -0.0652227 0
M  V30 4646 H 467.632 -2.00036 0.429739 0
M  V30 4647 H 467.642 -3.9393 -1.06223 0
M  V30 4648 H 466.317 -4.15843 0.069096 0
M  V30 4649 H 464.894 -3.37479 -1.58626 0
M  V30 4650 N 467.08 -0.0183926 -1.57589 0
M  V30 4651 C 468.328 0.661253 -1.90976 0
M  V30 4652 C 468.649 1.73281 -0.894353 0
M  V30 4653 O 467.919 1.9579 0.0656788 0
M  V30 4654 H 466.499 0.247233 -0.704901 0
M  V30 4655 H 469.161 -0.0636639 -1.94796 0
M  V30 4656 H 468.257 1.12083 -2.9128 0
M  V30 4657 N 468.558 1.5553 0.254621 0
M  V30 4658 C 469.786 1.81046 1.00149 0
M  V30 4659 C 470.201 0.593047 1.79244 0
M  V30 4660 O 469.558 -0.438196 1.77161 0
M  V30 4661 C 469.609 3.04684 1.94551 0
M  V30 4662 O 469.33 4.21725 1.18658 0
M  V30 4663 C 470.831 3.42943 2.80901 0
M  V30 4664 H 468.051 0.602653 0.295044 0
M  V30 4665 H 470.595 2.02576 0.279842 0
M  V30 4666 H 468.75 2.85226 2.62154 0
M  V30 4667 H 469.164 4.91746 1.82445 0
M  V30 4668 H 470.638 4.32576 3.42902 0
M  V30 4669 H 471.115 2.63176 3.51617 0
M  V30 4670 H 471.721 3.64724 2.18762 0
M  V30 4671 N 470.036 -0.519951 1.48776 0
M  V30 4672 C 470.966 -1.63253 1.66945 0
M  V30 4673 C 471.947 -1.62014 0.518224 0
M  V30 4674 O 473.132 -1.79053 0.751919 0
M  V30 4675 C 470.262 -3.0181 1.71836 0
M  V30 4676 C 469.216 -3.17911 2.8656 0
M  V30 4677 C 468.542 -4.5763 2.76548 0
M  V30 4678 C 469.842 -2.99729 4.27738 0
M  V30 4679 H 471.536 -1.48302 2.6009 0
M  V30 4680 H 469.082 -0.712026 1.25165 0
M  V30 4681 H 471.035 -3.79525 1.83135 0
M  V30 4682 H 469.759 -3.17806 0.752775 0
M  V30 4683 H 468.418 -2.42616 2.74833 0
M  V30 4684 H 468.066 -4.70476 1.77937 0
M  V30 4685 H 467.766 -4.69346 3.53536 0
M  V30 4686 H 469.29 -5.37431 2.89828 0
M  V30 4687 H 470.704 -3.67228 4.40246 0
M  V30 4688 H 469.101 -3.22932 5.05801 0
M  V30 4689 H 470.171 -1.96047 4.43502 0
M  V30 4690 N 471.514 -1.37532 -0.769588 0
M  V30 4691 C 472.462 -1.33561 -1.90432 0
M  V30 4692 C 473.456 -0.224027 -1.67912 0
M  V30 4693 O 474.662 -0.392174 -1.75676 0
M  V30 4694 H 471.037 -0.416279 -0.626271 0
M  V30 4695 H 473.008 -2.29348 -1.90899 0
M  V30 4696 C 471.757 -1.16162 -3.27722 0
M  V30 4697 H 471.08 -2.00951 -3.45628 0
M  V30 4698 H 472.52 -1.17434 -4.07413 0
M  V30 4699 C 470.979 0.132583 -3.36639 0
M  V30 4700 O 471.509 1.11539 -3.85904 0
M  V30 4701 N 469.715 0.184013 -2.90017 0
M  V30 4702 H 469.262 -0.616415 -2.50116 0
M  V30 4703 H 469.22 1.04956 -2.96364 0
M  V30 4704 N 472.992 0.995999 -1.22138 0
M  V30 4705 C 474.403 1.54961 -1.04135 0
M  V30 4706 C 474.754 1.92159 0.396147 0
M  V30 4707 O 473.879 1.74435 1.28069 0
M  V30 4708 C 474.474 2.81581 -1.88408 0
M  V30 4709 C 473.033 3.33396 -1.74712 0
M  V30 4710 C 472.18 2.06509 -1.85066 0
M  V30 4711 H 475.131 0.817436 -1.36028 0
M  V30 4712 H 475.152 3.53822 -1.39966 0
M  V30 4713 H 474.664 2.54476 -2.93025 0
M  V30 4714 H 472.765 3.65416 -0.728159 0
M  V30 4715 H 472.878 4.04208 -2.57202 0
M  V30 4716 H 471.242 2.19925 -1.28472 0
M  V30 4717 H 472.025 1.81804 -2.91208 0
M  V30 4718 N 474.47 1.03057 1.19235 0
M  V30 4719 C 475.402 0.570932 2.21975 0
M  V30 4720 C 476.415 -0.354088 1.58903 0
M  V30 4721 O 477.604 -0.150211 1.77867 0
M  V30 4722 C 474.704 -0.187152 3.38383 0
M  V30 4723 C 473.877 0.743231 4.31039 0
M  V30 4724 C 472.936 0.0302493 5.26191 0
M  V30 4725 O 471.962 0.657371 5.65391 0
M  V30 4726 N 473.164 -1.23991 5.67104 0
M  V30 4727 H 475.929 1.45456 2.62036 0
M  V30 4728 H 473.49 0.909807 1.33918 0
M  V30 4729 H 475.482 -0.673715 3.99053 0
M  V30 4730 H 474.052 -0.972205 2.97098 0
M  V30 4731 H 473.272 1.40985 3.68126 0
M  V30 4732 H 474.56 1.3755 4.89854 0
M  V30 4733 H 473.958 -1.77011 5.37293 0
M  V30 4734 H 472.515 -1.67093 6.30018 0
M  V30 4735 N 475.948 -1.35272 0.808662 0
M  V30 4736 C 476.895 -2.29764 0.218482 0
M  V30 4737 C 477.865 -1.52911 -0.648652 0
M  V30 4738 O 479.05 -1.81341 -0.593297 0
M  V30 4739 C 476.19 -3.39388 -0.625282 0
M  V30 4740 C 475.303 -4.31202 0.262516 0
M  V30 4741 C 474.438 -5.27919 -0.589451 0
M  V30 4742 C 473.477 -6.11371 0.298617 0
M  V30 4743 N 472.614 -7.0022 -0.513443 0
M  V30 4744 H 477.454 -2.79645 1.02968 0
M  V30 4745 H 474.991 -1.37629 0.519303 0
M  V30 4746 H 476.949 -4.01615 -1.12966 0
M  V30 4747 H 475.579 -2.90777 -1.40173 0
M  V30 4748 H 474.631 -3.69962 0.885013 0
M  V30 4749 H 475.943 -4.89748 0.945971 0
M  V30 4750 H 475.097 -5.95529 -1.15888 0
M  V30 4751 H 473.836 -4.69875 -1.30647 0
M  V30 4752 H 472.841 -5.42707 0.880301 0
M  V30 4753 H 474.066 -6.71494 1.01352 0
M  V30 4754 H 472.012 -6.44662 -1.21439 0
M  V30 4755 H 471.929 -7.55917 0.111922 0
M  V30 4756 H 473.197 -7.72175 -1.06608 0
M  V30 4757 N 477.426 -0.562348 -1.47226 0
M  V30 4758 C 478.389 0.172056 -2.28553 0
M  V30 4759 C 479.389 0.837928 -1.37242 0
M  V30 4760 O 480.579 0.693001 -1.59822 0
M  V30 4761 C 477.711 1.25223 -3.17068 0
M  V30 4762 H 478.904 -0.542401 -2.94954 0
M  V30 4763 H 476.457 -0.319493 -1.53 0
M  V30 4764 H 477.192 1.99892 -2.55369 0
M  V30 4765 H 476.977 0.779515 -3.84273 0
M  V30 4766 H 478.467 1.76791 -3.78332 0
M  V30 4767 N 478.904 1.54736 -0.299062 0
M  V30 4768 C 480.32 1.59507 0.0543849 0
M  V30 4769 C 480.52 1.31606 1.52585 0
M  V30 4770 O 479.576 1.08853 2.27832 0
M  V30 4771 C 480.889 2.98751 -0.34181 0
M  V30 4772 C 482.437 3.1165 -0.290414 0
M  V30 4773 C 482.912 4.53199 -0.661402 0
M  V30 4774 N 484.403 4.59114 -0.613863 0
M  V30 4775 C 485.138 5.66709 -0.873417 0
M  V30 4776 N 484.634 6.82349 -1.19884 0
M  V30 4777 N 486.427 5.56369 -0.800608 0
M  V30 4778 H 478.578 1.71133 -1.25806 0
M  V30 4779 H 480.841 0.799186 -0.509908 0
M  V30 4780 H 480.547 3.24085 -1.36608 0
M  V30 4781 H 480.421 3.75961 0.305508 0
M  V30 4782 H 482.808 2.86066 0.724605 0
M  V30 4783 H 482.889 2.366 -0.972327 0
M  V30 4784 H 482.533 4.79513 -1.67422 0
M  V30 4785 H 482.463 5.26583 0.0425612 0
M  V30 4786 H 484.954 3.76053 -0.3732 0
M  V30 4787 H 485.267 7.60326 -1.38291 0
M  V30 4788 H 483.612 6.83906 -1.23685 0
M  V30 4789 H 486.803 4.64904 -0.546045 0
M  V30 4790 H 486.976 6.40139 -1.00626 0
M  V30 4791 N 480.382 0.0267497 1.57577 0
M  V30 4792 C 481.628 -0.653371 1.91987 0
M  V30 4793 C 481.961 -1.71915 0.903263 0
M  V30 4794 O 481.236 -1.94358 -0.0743387 0
M  V30 4795 C 481.519 -1.272 3.36886 0
M  V30 4796 C 481.372 -0.215938 4.49281 0
M  V30 4797 C 482.691 -2.19069 3.81703 0
M  V30 4798 H 479.81 -0.236047 0.698177 0
M  V30 4799 H 482.452 0.0835236 1.89816 0
M  V30 4800 H 480.602 -1.90005 3.38866 0
M  V30 4801 H 482.274 0.41449 4.59434 0
M  V30 4802 H 480.517 0.458855 4.31366 0
M  V30 4803 H 481.188 -0.688347 5.47691 0
M  V30 4804 H 483.664 -1.66253 3.81444 0
M  V30 4805 H 482.54 -2.59307 4.83788 0
M  V30 4806 H 482.801 -3.08087 3.17072 0
M  V30 4807 N 481.861 -1.55662 -0.24637 0
M  V30 4808 C 482.791 -1.93377 -1.30873 0
M  V30 4809 C 483.772 -0.798773 -1.50179 0
M  V30 4810 O 484.957 -1.0591 -1.62778 0
M  V30 4811 C 482.087 -2.22893 -2.66338 0
M  V30 4812 C 481.041 -3.38649 -2.61727 0
M  V30 4813 C 480.367 -3.53708 -4.00992 0
M  V30 4814 C 481.667 -4.74323 -2.18666 0
M  V30 4815 H 483.361 -2.82363 -0.995552 0
M  V30 4816 H 480.907 -1.35854 -0.477464 0
M  V30 4817 H 482.86 -2.47866 -3.40794 0
M  V30 4818 H 481.584 -1.30733 -2.99293 0
M  V30 4819 H 480.243 -3.13685 -1.89729 0
M  V30 4820 H 479.891 -2.58967 -4.31214 0
M  V30 4821 H 479.591 -4.31551 -3.98795 0
M  V30 4822 H 481.115 -3.81003 -4.77147 0
M  V30 4823 H 482.529 -4.98665 -2.82854 0
M  V30 4824 H 480.926 -5.55273 -2.27579 0
M  V30 4825 H 481.996 -4.71349 -1.13834 0
M  V30 4826 N 483.339 0.512053 -1.4905 0
M  V30 4827 C 484.269 1.62365 -1.67809 0
M  V30 4828 C 485.25 1.61737 -0.526809 0
M  V30 4829 O 486.435 1.78651 -0.761404 0
M  V30 4830 C 483.565 3.00895 -1.73435 0
M  V30 4831 C 482.519 3.16387 -2.88242 0
M  V30 4832 C 481.845 4.56157 -2.78971 0
M  V30 4833 C 483.145 2.97457 -4.29321 0
M  V30 4834 H 484.839 1.46921 -2.60873 0
M  V30 4835 H 482.385 0.705379 -1.2554 0
M  V30 4836 H 484.338 3.78549 -1.85145 0
M  V30 4837 H 483.062 3.17403 -0.769619 0
M  V30 4838 H 481.721 2.41155 -2.76116 0
M  V30 4839 H 481.369 4.69525 -1.8043 0
M  V30 4840 H 481.069 4.67465 -3.5602 0
M  V30 4841 H 482.593 5.35886 -2.92675 0
M  V30 4842 H 484.007 3.64888 -4.42187 0
M  V30 4843 H 482.404 3.20245 -5.07507 0
M  V30 4844 H 483.474 1.93692 -4.44535 0
M  V30 4845 N 484.817 1.37938 0.762283 0
M  V30 4846 C 485.749 1.30349 1.88525 0
M  V30 4847 C 486.762 0.217402 1.61342 0
M  V30 4848 O 487.951 0.474291 1.72084 0
M  V30 4849 C 485.051 0.994844 3.23969 0
M  V30 4850 C 484.224 2.18829 3.78725 0
M  V30 4851 C 483.283 1.84844 4.92665 0
M  V30 4852 O 482.309 2.57244 5.07754 0
M  V30 4853 N 483.511 0.798201 5.74986 0
M  V30 4854 H 486.276 2.27114 1.95549 0
M  V30 4855 H 483.837 1.31686 0.941825 0
M  V30 4856 H 485.829 0.748168 3.97724 0
M  V30 4857 H 484.399 0.115446 3.12387 0
M  V30 4858 H 483.619 2.59615 2.96637 0
M  V30 4859 H 484.907 2.98497 4.1204 0
M  V30 4860 H 484.305 0.197611 5.65355 0
M  V30 4861 H 482.862 0.611396 6.48926 0
M  V30 4862 N 486.295 -0.989507 1.22664 0
M  V30 4863 C 487.225 -2.09847 1.02404 0
M  V30 4864 C 488.206 -1.70007 -0.0561303 0
M  V30 4865 O 489.391 -1.93906 0.106748 0
M  V30 4866 C 486.521 -3.41996 0.604663 0
M  V30 4867 C 485.475 -3.95699 1.63115 0
M  V30 4868 C 484.801 -5.23936 1.0675 0
M  V30 4869 C 486.101 -4.25999 3.02196 0
M  V30 4870 H 487.795 -2.27054 1.95158 0
M  V30 4871 H 485.341 -1.09111 0.939727 0
M  V30 4872 H 487.294 -4.1899 0.45002 0
M  V30 4873 H 486.018 -3.24626 -0.35855 0
M  V30 4874 H 484.677 -3.2084 1.77362 0
M  V30 4875 H 484.325 -5.02909 0.0955422 0
M  V30 4876 H 484.025 -5.60833 1.75328 0
M  V30 4877 H 485.549 -6.0356 0.924516 0
M  V30 4878 H 486.963 -4.93777 2.91303 0
M  V30 4879 H 485.36 -4.74076 3.67929 0
M  V30 4880 H 486.43 -3.33636 3.51873 0
M  V30 4881 N 487.773 -1.03688 -1.18687 0
M  V30 4882 C 488.736 -0.629115 -2.20397 0
M  V30 4883 C 489.736 0.311495 -1.57754 0
M  V30 4884 O 490.926 0.0974107 -1.73927 0
M  V30 4885 C 488.058 0.0782231 -3.4081 0
M  V30 4886 H 489.251 -1.52915 -2.57987 0
M  V30 4887 H 486.804 -0.828988 -1.32505 0
M  V30 4888 H 487.539 0.992233 -3.08748 0
M  V30 4889 H 487.324 -0.597776 -3.87517 0
M  V30 4890 H 488.814 0.350156 -4.16129 0
M  V30 4891 N 489.251 1.34841 -0.815825 0
M  V30 4892 C 490.181 2.32187 -0.247298 0
M  V30 4893 C 491.162 1.5791 0.632344 0
M  V30 4894 O 492.347 1.8593 0.560698 0
M  V30 4895 C 489.477 3.42122 0.597466 0
M  V30 4896 C 488.431 4.27602 -0.184446 0
M  V30 4897 C 487.757 5.28942 0.782609 0
M  V30 4898 C 489.057 5.03502 -1.38865 0
M  V30 4899 H 490.751 2.79985 -1.06061 0
M  V30 4900 H 488.297 1.34611 -0.511461 0
M  V30 4901 H 490.25 4.09232 1.00533 0
M  V30 4902 H 488.974 2.92956 1.44376 0
M  V30 4903 H 487.633 3.62085 -0.573592 0
M  V30 4904 H 487.281 4.7604 1.62466 0
M  V30 4905 H 486.981 5.87008 0.263695 0
M  V30 4906 H 488.505 5.98922 1.18848 0
M  V30 4907 H 489.919 5.63506 -1.05518 0
M  V30 4908 H 488.316 5.71108 -1.8427 0
M  V30 4909 H 489.386 4.33608 -2.17054 0
M  V30 4910 N 490.729 0.570148 1.46925 0
M  V30 4911 C 491.957 0.0561966 2.06824 0
M  V30 4912 C 492.372 -1.24326 1.42086 0
M  V30 4913 O 491.729 -1.74882 0.521794 0
M  V30 4914 C 491.78 -0.129517 3.61268 0
M  V30 4915 O 491.501 1.1185 4.23581 0
M  V30 4916 C 493.002 -0.679266 4.38065 0
M  V30 4917 H 490.222 0.0517261 0.669003 0
M  V30 4918 H 492.766 0.787243 1.8874 0
M  V30 4919 H 490.921 -0.810739 3.78822 0
M  V30 4920 H 491.335 0.924375 5.1629 0
M  V30 4921 H 492.809 -0.758445 5.46765 0
M  V30 4922 H 493.286 -1.69346 4.05239 0
M  V30 4923 H 493.892 -0.0333237 4.25287 0
M  V30 4924 N 492.207 -1.54576 0.307264 0
M  V30 4925 C 493.139 -2.21212 -0.599807 0
M  V30 4926 C 494.152 -1.20685 -1.09266 0
M  V30 4927 O 495.341 -1.47244 -1.00903 0
M  V30 4928 C 492.441 -2.84994 -1.83389 0
M  V30 4929 C 491.614 -4.11511 -1.48248 0
M  V30 4930 C 490.673 -4.59038 -2.57237 0
M  V30 4931 O 489.699 -5.24095 -2.22065 0
M  V30 4932 N 490.901 -4.31884 -3.87887 0
M  V30 4933 H 493.666 -2.99686 -0.0293075 0
M  V30 4934 H 491.227 -1.61379 0.129738 0
M  V30 4935 H 493.219 -3.1372 -2.5566 0
M  V30 4936 H 491.789 -2.10324 -2.31263 0
M  V30 4937 H 491.009 -3.89728 -0.592122 0
M  V30 4938 H 492.297 -4.93879 -1.22316 0
M  V30 4939 H 491.695 -3.79778 -4.19268 0
M  V30 4940 H 490.252 -4.65304 -4.56438 0
M  V30 4941 N 493.685 -0.035106 -1.57561 0
M  V30 4942 C 494.913 0.652258 -1.9635 0
M  V30 4943 C 495.328 1.65317 -0.911897 0
M  V30 4944 O 494.685 1.82194 0.105657 0
M  V30 4945 C 494.736 1.35337 -3.35211 0
M  V30 4946 O 494.457 0.392548 -4.36338 0
M  V30 4947 C 495.958 2.13199 -3.88666 0
M  V30 4948 H 493.178 0.179444 -0.646561 0
M  V30 4949 H 495.722 -0.0966459 -2.04271 0
M  V30 4950 H 493.877 2.05362 -3.28489 0
M  V30 4951 H 494.291 0.891097 -5.16875 0
M  V30 4952 H 495.765 2.577 -4.88154 0
M  V30 4953 H 496.242 2.97353 -3.23231 0
M  V30 4954 H 496.848 1.48118 -3.98674 0
M  V30 4955 N 495.163 1.55791 0.238111 0
M  V30 4956 C 496.11 1.9105 1.29493 0
M  V30 4957 C 497.08 0.765733 1.47397 0
M  V30 4958 O 498.265 1.02017 1.61236 0
M  V30 4959 C 495.405 2.21826 2.64362 0
M  V30 4960 C 494.518 3.49153 2.54394 0
M  V30 4961 C 493.653 3.69455 3.81676 0
M  V30 4962 C 492.692 4.90353 3.66361 0
M  V30 4963 N 491.829 5.07131 4.85554 0
M  V30 4964 H 496.669 2.81172 0.987233 0
M  V30 4965 H 494.206 1.39179 0.476203 0
M  V30 4966 H 496.164 2.37675 3.4288 0
M  V30 4967 H 494.794 1.34897 2.93262 0
M  V30 4968 H 493.846 3.41587 1.67399 0
M  V30 4969 H 495.158 4.37818 2.38991 0
M  V30 4970 H 494.312 3.85311 4.68636 0
M  V30 4971 H 493.051 2.7904 3.99985 0
M  V30 4972 H 492.056 4.74464 2.77784 0
M  V30 4973 H 493.281 5.82237 3.49538 0
M  V30 4974 H 491.227 4.19654 5.04209 0
M  V30 4975 H 491.144 5.89899 4.72816 0
M  V30 4976 H 492.412 5.27407 5.73988 0
M  V30 4977 N 496.642 -0.504142 1.49319 0
M  V30 4978 C 497.919 -1.26548 1.49147 0
M  V30 4979 C 498.299 -2.09977 0.21744 0
M  V30 4980 O 497.647 -2.14028 -0.800269 0
M  V30 4981 C 497.857 -2.12489 2.76857 0
M  V30 4982 C 499.205 -2.7178 3.26222 0
M  V30 4983 O 500.229 -2.22758 2.77952 0
M  V30 4984 O 499.088 -3.61015 4.10281 0
M  V30 4985 H 496.182 -0.572495 0.596806 0
M  V30 4986 H 498.728 -0.51867 1.61579 0
M  V30 4987 H 497.5 -1.50796 3.61077 0
M  V30 4988 H 497.123 -2.94368 2.6727 0
M  V30 4989 N 498.12 -1.38341 -0.754957 0
M  V30 4990 C 499.531 -1.30803 -1.3322 0
M  V30 4991 C 499.882 0.0368 -1.96165 0
M  V30 4992 O 499.007 0.938844 -1.94974 0
M  V30 4993 C 499.602 -2.3688 -2.42225 0
M  V30 4994 C 498.161 -2.32925 -2.95674 0
M  V30 4995 C 497.308 -2.19819 -1.69042 0
M  V30 4996 H 500.259 -1.48719 -0.553937 0
M  V30 4997 H 500.28 -2.02517 -3.22129 0
M  V30 4998 H 499.792 -3.34747 -1.96383 0
M  V30 4999 H 497.893 -1.38635 -3.45848 0
M  V30 5000 H 498.006 -3.27008 -3.50146 0
M  V30 5001 H 496.37 -1.66648 -1.92615 0
M  V30 5002 H 497.153 -3.19625 -1.25279 0
M  V30 5003 N 499.598 0.982988 -1.23187 0
M  V30 5004 C 500.53 2.07729 -0.968572 0
M  V30 5005 C 501.543 1.62702 0.0564821 0
M  V30 5006 O 502.732 1.77603 -0.178733 0
M  V30 5007 C 499.832 3.36071 -0.436974 0
M  V30 5008 C 499.005 4.10081 -1.52159 0
M  V30 5009 C 498.064 5.16701 -0.99532 0
M  V30 5010 O 497.09 5.43727 -1.68373 0
M  V30 5011 N 498.292 5.80226 0.178192 0
M  V30 5012 H 501.057 2.30894 -1.9107 0
M  V30 5013 H 498.618 1.14949 -1.1401 0
M  V30 5014 H 500.61 4.04639 -0.0700051 0
M  V30 5015 H 499.18 3.09893 0.410509 0
M  V30 5016 H 498.4 3.36004 -2.06144 0
M  V30 5017 H 499.688 4.56295 -2.25105 0
M  V30 5018 H 499.086 5.60651 0.754096 0
M  V30 5019 H 497.643 6.49982 0.486449 0
M  V30 5020 N 501.076 1.04316 1.18135 0
M  V30 5021 C 502.008 0.594444 2.21357 0
M  V30 5022 C 503.021 -0.337215 1.59269 0
M  V30 5023 O 504.21 -0.131337 1.78016 0
M  V30 5024 C 501.31 -0.151251 3.38562 0
M  V30 5025 C 500.483 0.788907 4.30227 0
M  V30 5026 C 499.542 0.0860572 5.2613 0
M  V30 5027 O 498.568 0.717302 5.64662 0
M  V30 5028 N 499.77 -1.17969 5.68387 0
M  V30 5029 H 502.535 1.48227 2.60478 0
M  V30 5030 H 500.096 0.92396 1.32946 0
M  V30 5031 H 502.088 -0.631352 3.99745 0
M  V30 5032 H 500.658 -0.940639 2.98112 0
M  V30 5033 H 499.878 1.44882 3.6661 0
M  V30 5034 H 501.166 1.42738 4.88368 0
M  V30 5035 H 500.564 -1.71302 5.3914 0
M  V30 5036 H 499.121 -1.60402 6.31755 0
M  V30 5037 N 502.554 -1.34406 0.822964 0
M  V30 5038 C 503.803 -1.97542 0.407458 0
M  V30 5039 C 504.116 -1.65973 -1.035 0
M  V30 5040 O 505.322 -2.22598 -1.55442 0
M  V30 5041 C 503.778 -3.53463 0.677623 0
M  V30 5042 C 503.386 -3.93925 2.1337 0
M  V30 5043 C 505.13 -4.23229 0.328284 0
M  V30 5044 C 503.037 -5.42759 2.34876 0
M  V30 5045 H 501.967 -0.739207 0.148623 0
M  V30 5046 H 504.618 -1.53248 1.00932 0
M  V30 5047 H 503 -3.96 0.00558965 0
M  V30 5048 H 504.174 -3.62494 2.8449 0
M  V30 5049 H 502.489 -3.37097 2.44448 0
M  V30 5050 H 505.086 -5.32659 0.466794 0
M  V30 5051 H 505.429 -4.09899 -0.727224 0
M  V30 5052 H 505.962 -3.86169 0.954896 0
M  V30 5053 H 502.701 -5.61075 3.38932 0
M  V30 5054 H 502.221 -5.75704 1.68299 0
M  V30 5055 H 503.9 -6.0944 2.17236 0
M  V30 5056 N 504.032 -0.577932 -1.46621 0
M  V30 5057 C 504.964 0.195801 -2.28362 0
M  V30 5058 C 505.977 0.859983 -1.38232 0
M  V30 5059 O 507.166 0.730349 -1.62875 0
M  V30 5060 C 504.266 1.29639 -3.13124 0
M  V30 5061 C 503.439 0.725049 -4.31349 0
M  V30 5062 C 502.498 1.71274 -4.97546 0
M  V30 5063 O 501.524 1.25067 -5.5529 0
M  V30 5064 N 502.726 3.04672 -4.94121 0
M  V30 5065 H 505.491 -0.505468 -2.95407 0
M  V30 5066 H 503.052 -0.415381 -1.56481 0
M  V30 5067 H 505.044 1.95631 -3.54275 0
M  V30 5068 H 503.614 1.90059 -2.48186 0
M  V30 5069 H 502.834 -0.112205 -3.9404 0
M  V30 5070 H 504.122 0.323034 -5.07774 0
M  V30 5071 H 503.52 3.4484 -4.48444 0
M  V30 5072 H 502.077 3.66166 -5.39227 0
M  V30 5073 N 505.51 1.54411 -0.315457 0
M  V30 5074 C 506.442 2.21527 0.588067 0
M  V30 5075 C 507.455 1.21263 1.08624 0
M  V30 5076 O 508.644 1.47777 1.00121 0
M  V30 5077 C 505.744 2.85963 1.81875 0
M  V30 5078 C 504.917 4.12291 1.46063 0
M  V30 5079 C 503.976 4.60396 2.54799 0
M  V30 5080 O 503.002 5.25265 2.19283 0
M  V30 5081 N 504.204 4.33935 3.85591 0
M  V30 5082 H 506.969 2.99697 0.013414 0
M  V30 5083 H 504.53 1.61308 -0.138295 0
M  V30 5084 H 506.522 3.15071 2.53993 0
M  V30 5085 H 505.092 2.11548 2.30144 0
M  V30 5086 H 504.312 3.90036 0.571445 0
M  V30 5087 H 505.6 4.9452 1.19695 0
M  V30 5088 H 504.998 3.81996 4.17248 0
M  V30 5089 H 503.555 4.67718 4.53964 0
M  V30 5090 N 506.988 0.0434614 1.5754 0
M  V30 5091 C 508.237 -0.631454 1.91561 0
M  V30 5092 C 508.55 -1.72457 0.92292 0
M  V30 5093 O 509.756 -2.45712 1.15489 0
M  V30 5094 C 508.212 -1.17447 3.40197 0
M  V30 5095 C 507.82 -0.113867 4.47855 0
M  V30 5096 C 509.564 -1.82507 3.83264 0
M  V30 5097 C 507.471 -0.669326 5.876 0
M  V30 5098 H 506.401 -0.239629 0.714908 0
M  V30 5099 H 509.052 0.111097 1.83163 0
M  V30 5100 H 507.434 -1.96909 3.43574 0
M  V30 5101 H 508.608 0.659348 4.56058 0
M  V30 5102 H 506.923 0.438821 4.14081 0
M  V30 5103 H 509.52 -2.25047 4.85034 0
M  V30 5104 H 509.863 -2.67365 3.19095 0
M  V30 5105 H 510.396 -1.09712 3.82372 0
M  V30 5106 H 507.135 0.141449 6.55347 0
M  V30 5107 H 506.655 -1.4107 5.82974 0
M  V30 5108 H 508.334 -1.15463 6.36614 0
M  V30 5109 N 508.466 -1.55915 -0.229846 0
M  V30 5110 C 509.713 -1.78542 -0.955452 0
M  V30 5111 C 510.041 -0.610785 -1.84661 0
M  V30 5112 O 509.296 0.405213 -1.91459 0
M  V30 5113 C 509.595 -3.06845 -1.8325 0
M  V30 5114 C 509.261 -4.37395 -1.09528 0
M  V30 5115 C 507.923 -4.72868 -0.891598 0
M  V30 5116 C 510.275 -5.18029 -0.574046 0
M  V30 5117 C 507.603 -5.86496 -0.154655 0
M  V30 5118 C 509.955 -6.32423 0.149513 0
M  V30 5119 C 508.619 -6.66504 0.364519 0
M  V30 5120 H 507.889 -0.653333 -0.349625 0
M  V30 5121 H 510.536 -1.90183 -0.224235 0
M  V30 5122 H 508.841 -2.90291 -2.63132 0
M  V30 5123 H 510.538 -3.21553 -2.39592 0
M  V30 5124 H 507.128 -4.09538 -1.26399 0
M  V30 5125 H 511.312 -4.91066 -0.718899 0
M  V30 5126 H 506.568 -6.11396 0.0222356 0
M  V30 5127 H 510.742 -6.94137 0.560947 0
M  V30 5128 H 508.369 -7.54397 0.937495 0
M  V30 5129 N 509.944 0.496216 -1.49584 0
M  V30 5130 C 510.892 1.61805 -1.67098 0
M  V30 5131 C 511.886 1.60667 -0.536877 0
M  V30 5132 O 513.092 1.65118 -0.716654 0
M  V30 5133 H 509.467 0.53646 -0.526986 0
M  V30 5134 H 511.438 1.44187 -2.61252 0
M  V30 5135 C 510.187 2.99912 -1.75921 0
M  V30 5136 H 509.51 3.01496 -2.62565 0
M  V30 5137 H 510.95 3.77931 -1.92209 0
M  V30 5138 C 509.409 3.33092 -0.505088 0
M  V30 5139 O 509.939 4.00019 0.367085 0
M  V30 5140 N 508.145 2.88278 -0.366599 0
M  V30 5141 H 507.692 2.33989 -1.07735 0
M  V30 5142 H 507.65 3.10846 0.47142 0
M  V30 5143 N 511.423 1.38739 0.74761 0
M  V30 5144 C 512.355 1.32341 1.87132 0
M  V30 5145 C 513.368 0.234502 1.61102 0
M  V30 5146 O 514.557 0.492516 1.71571 0
M  V30 5147 C 511.657 1.02915 3.22896 0
M  V30 5148 C 510.83 2.22834 3.76383 0
M  V30 5149 C 509.889 1.90059 4.90677 0
M  V30 5150 O 508.915 2.62615 5.04997 0
M  V30 5151 N 510.117 0.859141 5.74107 0
M  V30 5152 H 512.882 2.29175 1.93129 0
M  V30 5153 H 510.443 1.32678 0.927805 0
M  V30 5154 H 512.435 0.79031 3.96908 0
M  V30 5155 H 511.005 0.148572 3.12247 0
M  V30 5156 H 510.225 2.62747 2.93867 0
M  V30 5157 H 511.513 3.02851 4.08851 0
M  V30 5158 H 510.911 0.257564 5.65113 0
M  V30 5159 H 509.468 0.680189 6.48241 0
M  V30 5160 N 512.901 -0.976442 1.23707 0
M  V30 5161 C 514.131 -1.75087 1.09673 0
M  V30 5162 C 514.539 -1.85852 -0.354344 0
M  V30 5163 O 513.882 -1.33985 -1.25673 0
M  V30 5164 C 513.944 -3.19272 1.65245 0
M  V30 5165 C 513.608 -3.32004 3.14042 0
M  V30 5166 C 514.605 -3.18017 4.11292 0
M  V30 5167 C 512.29 -3.56525 3.53829 0
M  V30 5168 C 514.284 -3.28363 5.46312 0
M  V30 5169 C 511.971 -3.6651 4.88993 0
M  V30 5170 C 512.969 -3.52439 5.85043 0
M  V30 5171 O 512.657 -3.62063 7.1775 0
M  V30 5172 H 512.389 -0.556164 0.384262 0
M  V30 5173 H 514.943 -1.23518 1.64111 0
M  V30 5174 H 513.173 -3.72107 1.05231 0
M  V30 5175 H 514.862 -3.7849 1.46629 0
M  V30 5176 H 515.628 -2.98966 3.81896 0
M  V30 5177 H 511.507 -3.66547 2.79579 0
M  V30 5178 H 515.051 -3.17297 6.21263 0
M  V30 5179 H 510.948 -3.85072 5.18063 0
M  V30 5180 H 511.716 -3.78833 7.25553 0
M  V30 5181 O 514.418 -1.17461 -1.10838 0
M  V30 5182 H 515.109 -0.912283 -1.70872 0
M  V30 END ATOM
M  V30 BEGIN BOND
M  V30 END BOND
M  V30 END CTAB
M  END
$$$$
