drugbank_target|P00808 Beta-lactamase (DB04261; DB04272)
 OpenBabel12092119553D

  0  0  0     0  0            999 V3000
M  V30 BEGIN CTAB
M  V30 COUNTS 4814 4849 0 0 0
M  V30 BEGIN ATOM
M  V30 1 H -0.908 1.98254 -0.117106 0
M  V30 2 N 0 1.576 0 0
M  V30 3 C 0.933 2.03868 1.02534 0
M  V30 4 C 1.911 0.928543 1.3348 0
M  V30 5 O 3.095 1.19667 1.45644 0
M  V30 6 C 0.222 2.43627 2.35294 0
M  V30 7 C -0.732 3.65373 2.2001 0
M  V30 8 S 0.101 5.13292 1.52614 0
M  V30 9 C 1.257 5.56322 2.86805 0
M  V30 10 H 1.49 2.90518 0.631377 0
M  V30 11 H -0.977 1.52953 0.210867 0
M  V30 12 H 0.981 2.67203 3.11629 0
M  V30 13 H -0.358 1.57376 2.7183 0
M  V30 14 H -1.165 3.90944 3.18086 0
M  V30 15 H -1.563 3.418 1.51819 0
M  V30 16 H 0.729 5.58782 3.83104 0
M  V30 17 H 1.672 6.56266 2.65933 0
M  V30 18 H 2.08 4.83886 2.90714 0
M  V30 19 N 1.4781 -0.272755 1.55222 0
M  V30 20 C 2.4251 -1.33716 1.88119 0
M  V30 21 C 3.3951 -1.49066 0.73271 0
M  V30 22 O 4.5801 -1.63469 0.984002 0
M  V30 23 C 1.7201 -2.69238 2.15882 0
M  V30 24 C 0.8331 -2.62108 3.43399 0
M  V30 25 C -0.0319 -3.89811 3.60861 0
M  V30 26 C -0.9929 -3.77193 4.8207 0
M  V30 27 N -1.8559 -4.9673 4.96189 0
M  V30 28 H 2.9841 -1.04962 2.78903 0
M  V30 29 H 0.5211 -0.507088 1.38083 0
M  V30 30 H 2.4791 -3.48089 2.29978 0
M  V30 31 H 1.1091 -2.96194 1.28331 0
M  V30 32 H 0.1611 -1.74967 3.37773 0
M  V30 33 H 1.4731 -2.48685 4.32386 0
M  V30 34 H 0.6271 -4.77103 3.74777 0
M  V30 35 H -0.6339 -4.06102 2.7006 0
M  V30 36 H -1.6289 -2.88284 4.68159 0
M  V30 37 H -0.4039 -3.62421 5.74307 0
M  V30 38 H -2.4579 -5.13431 4.08319 0
M  V30 39 H -2.5409 -4.85839 5.79221 0
M  V30 40 H -1.2729 -5.85594 5.1449 0
M  V30 41 N 2.9562 -1.48159 -0.537278 0
M  V30 42 C 3.8862 -1.65029 -1.6519 0
M  V30 43 C 4.8672 -0.499281 -1.62607 0
M  V30 44 O 6.0522 -0.730972 -1.79918 0
M  V30 45 C 3.1822 -1.68303 -3.03795 0
M  V30 46 C 2.1362 -2.8283 -3.21234 0
M  V30 47 C 1.4622 -2.71189 -4.60826 0
M  V30 48 C 2.7622 -4.24211 -3.04701 0
M  V30 49 H 4.4562 -2.58341 -1.51328 0
M  V30 50 H 2.0022 -1.24325 -0.726585 0
M  V30 51 H 3.9552 -1.78693 -3.81637 0
M  V30 52 H 2.6792 -0.715635 -3.18663 0
M  V30 53 H 1.3382 -2.71983 -2.45807 0
M  V30 54 H 0.9862 -1.72435 -4.7252 0
M  V30 55 H 0.6862 -3.48035 -4.7344 0
M  V30 56 H 2.2102 -2.83537 -5.40777 0
M  V30 57 H 3.6242 -4.3593 -3.72341 0
M  V30 58 H 2.0212 -5.01998 -3.28813 0
M  V30 59 H 3.0912 -4.41184 -2.01209 0
M  V30 60 N 4.4343 0.785586 -1.36625 0
M  V30 61 C 5.6803 1.5452 -1.32269 0
M  V30 62 C 6.0353 1.92159 0.0962266 0
M  V30 63 O 5.3283 1.60158 1.05167 0
M  V30 64 C 5.5223 2.83007 -2.1827 0
M  V30 65 C 5.3513 2.57925 -3.68382 0
M  V30 66 C 4.1213 2.52752 -4.37544 0
M  V30 67 C 6.3193 2.26861 -4.61561 0
M  V30 68 N 4.3013 2.19608 -5.73276 0
M  V30 69 C 5.6723 2.03738 -5.85569 0
M  V30 70 C 7.7273 2.129 -4.50087 0
M  V30 71 C 6.4303 1.68065 -6.9939 0
M  V30 72 C 8.4563 1.78626 -5.63779 0
M  V30 73 C 7.8183 1.56353 -6.86828 0
M  V30 74 H 3.9173 0.566301 -0.539283 0
M  V30 75 H 6.5013 0.917736 -1.71714 0
M  V30 76 H 4.6723 3.43614 -1.81063 0
M  V30 77 H 6.4043 3.48775 -2.05275 0
M  V30 78 H 3.1593 2.6813 -3.90389 0
M  V30 79 H 3.5833 2.05771 -6.44971 0
M  V30 80 H 8.2253 2.28808 -3.55537 0
M  V30 81 H 5.9433 1.50895 -7.93887 0
M  V30 82 H 9.5293 1.68502 -5.56865 0
M  V30 83 H 8.4093 1.30223 -7.73312 0
M  V30 84 N 5.9124 1.20967 1.01018 0
M  V30 85 C 7.1594 1.02374 1.74716 0
M  V30 86 C 7.4874 -0.443375 1.89379 0
M  V30 87 O 6.7424 -1.34535 1.42123 0
M  V30 88 C 7.0414 1.65997 3.16512 0
M  V30 89 C 6.7074 3.15831 3.2181 0
M  V30 90 C 5.3694 3.56719 3.22963 0
M  V30 91 C 7.7214 4.11816 3.19464 0
M  V30 92 C 5.0494 4.92107 3.19449 0
M  V30 93 C 7.4014 5.47158 3.17491 0
M  V30 94 C 6.0654 5.87451 3.16951 0
M  V30 95 H 5.3354 0.374614 0.639332 0
M  V30 96 H 7.9824 1.50485 1.18434 0
M  V30 97 H 6.2874 1.10166 3.75993 0
M  V30 98 H 7.9844 1.49119 3.72242 0
M  V30 99 H 4.5744 2.83263 3.21652 0
M  V30 100 H 8.7584 3.81257 3.17737 0
M  V30 101 H 4.0144 5.22579 3.17366 0
M  V30 102 H 8.1884 6.21274 3.14629 0
M  V30 103 H 5.8154 6.92329 3.13983 0
M  V30 104 N 7.3905 -1.2043 1.01659 0
M  V30 105 C 8.6155 -1.94318 0.724942 0
M  V30 106 C 9.0405 -1.74266 -0.708034 0
M  V30 107 O 8.3985 -1.03694 -1.48719 0
M  V30 108 C 8.4465 -3.44486 1.06591 0
M  V30 109 O 7.5505 -4.12017 0.177599 0
M  V30 110 H 6.8915 -0.60708 0.26898 0
M  V30 111 H 9.4215 -1.52861 1.35995 0
M  V30 112 H 9.4315 -3.95106 1.01762 0
M  V30 113 H 8.1065 -3.58404 2.10997 0
M  V30 114 H 6.6835 -3.71821 0.283421 0
M  V30 115 N 8.8686 -0.792821 -1.36206 0
M  V30 116 C 10.0966 -0.378825 -2.03402 0
M  V30 117 C 10.5116 1.00586 -1.59774 0
M  V30 118 O 9.8686 1.64574 -0.788764 0
M  V30 119 C 9.9196 -0.43683 -3.58851 0
M  V30 120 O 9.6406 -1.76691 -4.00889 0
M  V30 121 C 11.1416 -0.0138943 -4.43298 0
M  V30 122 H 8.3616 -0.155673 -0.652692 0
M  V30 123 H 10.9056 -1.07261 -1.74113 0
M  V30 124 H 9.0606 0.208575 -3.86838 0
M  V30 125 H 9.4746 -1.72011 -4.95492 0
M  V30 126 H 10.9486 -0.105615 -5.51899 0
M  V30 127 H 11.4256 1.03915 -4.2673 0
M  V30 128 H 12.0316 -0.63192 -4.20579 0
M  V30 129 N 10.3467 1.47872 -0.545128 0
M  V30 130 C 11.2767 2.32661 0.197793 0
M  V30 131 C 12.2577 1.43041 0.920504 0
M  V30 132 O 13.4427 1.71912 0.90333 0
M  V30 133 C 10.5727 3.24569 1.23582 0
M  V30 134 C 9.5267 4.23333 0.630323 0
M  V30 135 C 8.8527 5.0448 1.77211 0
M  V30 136 C 10.1527 5.20704 -0.407974 0
M  V30 137 H 11.8467 2.95024 -0.510045 0
M  V30 138 H 9.3927 1.4187 -0.246731 0
M  V30 139 H 11.3457 3.8272 1.76362 0
M  V30 140 H 10.0697 2.60236 1.97344 0
M  V30 141 H 8.7287 3.6639 0.123922 0
M  V30 142 H 8.3767 4.36561 2.49847 0
M  V30 143 H 8.0767 5.71339 1.37281 0
M  V30 144 H 9.6007 5.65487 2.3034 0
M  V30 145 H 11.0147 5.7329 0.033305 0
M  V30 146 H 9.4117 5.95699 -0.725486 0
M  V30 147 H 10.4817 4.66917 -1.30828 0
M  V30 148 N 11.8248 0.280983 1.55075 0
M  V30 149 C 12.7718 -0.603937 2.22758 0
M  V30 150 C 13.7418 -1.1452 1.20309 0
M  V30 151 O 14.9268 -1.19343 1.48869 0
M  V30 152 C 12.0668 -1.77947 2.95684 0
M  V30 153 C 11.1798 -1.2715 4.12864 0
M  V30 154 C 10.3148 -2.4093 4.7342 0
M  V30 155 C 9.3538 -1.87165 5.82783 0
M  V30 156 N 8.4908 -2.94441 6.37377 0
M  V30 157 H 13.3308 -0.020124 2.97993 0
M  V30 158 H 10.8678 0.00183425 1.471 0
M  V30 159 H 12.8258 -2.47055 3.36184 0
M  V30 160 H 11.4558 -2.33522 2.22861 0
M  V30 161 H 10.5078 -0.473331 3.77444 0
M  V30 162 H 11.8198 -0.837751 4.91715 0
M  V30 163 H 10.9738 -3.18021 5.1667 0
M  V30 164 H 9.7128 -2.87623 3.93859 0
M  V30 165 H 8.7178 -1.08556 5.38976 0
M  V30 166 H 9.9428 -1.41401 6.64216 0
M  V30 167 H 7.8888 -3.40505 5.60707 0
M  V30 168 H 7.8058 -2.55501 7.11516 0
M  V30 169 H 9.0738 -3.71489 6.85285 0
M  V30 170 N 13.3029 -1.57598 0.00835791 0
M  V30 171 C 14.2329 -2.1198 -0.979113 0
M  V30 172 C 15.2139 -1.03091 -1.35301 0
M  V30 173 O 16.3989 -1.30818 -1.43528 0
M  V30 174 C 13.5289 -2.62995 -2.26828 0
M  V30 175 C 12.4829 -3.76485 -2.03576 0
M  V30 176 C 11.8089 -4.13846 -3.38579 0
M  V30 177 C 13.1089 -5.0342 -1.39161 0
M  V30 178 H 14.8029 -2.94738 -0.526281 0
M  V30 179 H 12.3489 -1.41783 -0.251704 0
M  V30 180 H 14.3019 -2.99669 -2.96271 0
M  V30 181 H 13.0259 -1.7737 -2.7424 0
M  V30 182 H 11.6849 -3.40217 -1.36557 0
M  V30 183 H 11.3329 -3.25232 -3.83709 0
M  V30 184 H 11.0329 -4.90312 -3.23834 0
M  V30 185 H 12.5569 -4.53086 -4.09323 0
M  V30 186 H 13.9709 -5.37812 -1.98573 0
M  V30 187 H 12.3679 -5.84746 -1.34878 0
M  V30 188 H 13.4379 -4.83548 -0.361868 0
M  V30 189 N 14.781 0.264519 -1.55364 0
M  V30 190 C 15.728 1.32717 -1.88825 0
M  V30 191 C 16.698 1.48675 -0.740605 0
M  V30 192 O 17.883 1.62945 -0.992657 0
M  V30 193 C 15.023 2.68089 -2.17307 0
M  V30 194 C 14.136 2.60284 -3.44785 0
M  V30 195 C 13.271 3.87892 -3.62924 0
M  V30 196 C 12.31 3.74631 -4.84064 0
M  V30 197 N 11.447 4.94092 -4.98816 0
M  V30 198 H 16.287 1.03481 -2.79456 0
M  V30 199 H 13.824 0.499757 -1.3835 0
M  V30 200 H 15.782 3.46864 -2.31821 0
M  V30 201 H 14.412 2.95509 -1.299 0
M  V30 202 H 13.464 1.73173 -3.38697 0
M  V30 203 H 14.776 2.46388 -4.33698 0
M  V30 204 H 13.93 4.75109 -3.77302 0
M  V30 205 H 12.669 4.04664 -2.7221 0
M  V30 206 H 11.674 2.85797 -4.69681 0
M  V30 207 H 12.899 3.5937 -5.76221 0
M  V30 208 H 10.845 5.11259 -4.11036 0
M  V30 209 H 10.762 4.8276 -5.81789 0
M  V30 210 H 12.03 5.82857 -5.17588 0
M  V30 211 N 16.2591 1.48442 0.529413 0
M  V30 212 C 17.2061 1.63007 1.63394 0
M  V30 213 C 18.1761 0.47212 1.59249 0
M  V30 214 O 19.3611 0.695673 1.77666 0
M  V30 215 C 16.5011 1.6763 3.01653 0
M  V30 216 C 15.6141 2.94535 3.16027 0
M  V30 217 C 14.7491 2.90316 4.44849 0
M  V30 218 C 13.7881 4.11923 4.52754 0
M  V30 219 N 12.9251 4.05777 5.72965 0
M  V30 220 H 17.7651 2.5733 1.50285 0
M  V30 221 H 15.3021 1.27613 0.731656 0
M  V30 222 H 17.2601 1.68292 3.81751 0
M  V30 223 H 15.8901 0.76797 3.13532 0
M  V30 224 H 14.9421 3.03615 2.29177 0
M  V30 225 H 16.2541 3.84512 3.17729 0
M  V30 226 H 15.4081 2.89382 5.33238 0
M  V30 227 H 14.1471 1.98068 4.45668 0
M  V30 228 H 13.1521 4.13131 3.62771 0
M  V30 229 H 14.3771 5.0533 4.53672 0
M  V30 230 H 12.3231 3.16351 5.74681 0
M  V30 231 H 12.2401 4.8946 5.76164 0
M  V30 232 H 13.5081 4.08904 6.6364 0
M  V30 233 N 17.7372 -0.778329 1.37039 0
M  V30 234 C 18.7002 -1.87301 1.32102 0
M  V30 235 C 19.7002 -1.59198 0.226405 0
M  V30 236 O 20.8902 -1.67403 0.481861 0
M  V30 237 C 18.0222 -3.24309 1.05055 0
M  V30 238 H 19.2152 -1.93093 2.29467 0
M  V30 239 H 16.7682 -0.977358 1.21973 0
M  V30 240 H 17.5032 -3.24196 0.0819373 0
M  V30 241 H 17.2882 -3.46098 1.84279 0
M  V30 242 H 18.7782 -4.04382 1.04234 0
M  V30 243 N 19.2153 -1.21501 -1.00376 0
M  V30 244 C 20.1783 -0.976927 -2.07337 0
M  V30 245 C 21.1783 0.0525322 -1.60714 0
M  V30 246 O 22.3683 -0.184869 -1.73216 0
M  V30 247 C 19.5003 -0.473423 -3.37597 0
M  V30 248 H 20.6933 -1.92587 -2.29892 0
M  V30 249 H 18.2463 -1.03217 -1.17371 0
M  V30 250 H 18.9813 0.480379 -3.20722 0
M  V30 251 H 18.7663 -1.216 -3.72768 0
M  V30 252 H 20.2563 -0.32675 -4.1632 0
M  V30 253 N 20.6934 1.19889 -1.02296 0
M  V30 254 C 21.6564 2.21116 -0.603351 0
M  V30 255 C 22.6564 1.5738 0.329884 0
M  V30 256 O 23.8464 1.73802 0.117702 0
M  V30 257 C 20.9784 3.40696 0.117992 0
M  V30 258 H 22.1714 2.59754 -1.49893 0
M  V30 259 H 19.7244 1.33463 -0.813468 0
M  V30 260 H 20.4594 3.07569 1.0282 0
M  V30 261 H 20.2444 3.88188 -0.552511 0
M  V30 262 H 21.7344 4.15692 0.398696 0
M  V30 263 N 22.1715 0.800033 1.35784 0
M  V30 264 C 23.4175 0.377901 1.99248 0
M  V30 265 C 23.7505 -1.05052 1.63333 0
M  V30 266 O 23.0255 -1.72768 0.893385 0
M  V30 267 C 23.3085 0.553922 3.55814 0
M  V30 268 C 23.1615 2.0268 4.01548 0
M  V30 269 C 24.4805 -0.0244802 4.40093 0
M  V30 270 H 21.5995 0.138782 0.723815 0
M  V30 271 H 24.2415 1.00835 1.61035 0
M  V30 272 H 22.3915 0.0172398 3.88496 0
M  V30 273 H 24.0635 2.62536 3.79305 0
M  V30 274 H 22.3065 2.5256 3.52698 0
M  V30 275 H 22.9775 2.10087 5.10458 0
M  V30 276 H 25.4535 0.433775 4.13833 0
M  V30 277 H 24.3295 0.128637 5.48749 0
M  V30 278 H 24.5905 -1.11758 4.27741 0
M  V30 279 N 23.6496 -1.47581 0.552962 0
M  V30 280 C 24.5796 -2.32762 -0.185451 0
M  V30 281 C 25.5606 -1.43527 -0.912905 0
M  V30 282 O 26.7456 -1.72388 -0.894201 0
M  V30 283 C 23.8756 -3.25219 -1.21859 0
M  V30 284 C 22.8296 -4.23661 -0.607864 0
M  V30 285 C 22.1556 -5.05413 -1.74533 0
M  V30 286 C 23.4556 -5.20481 0.435582 0
M  V30 287 H 25.1496 -2.94749 0.525684 0
M  V30 288 H 22.6956 -1.41738 0.254251 0
M  V30 289 H 24.6486 -3.8365 -1.7433 0
M  V30 290 H 23.3726 -2.61279 -1.95961 0
M  V30 291 H 22.0316 -3.66451 -0.104489 0
M  V30 292 H 21.6796 -4.3788 -2.47529 0
M  V30 293 H 21.3796 -5.72059 -1.34249 0
M  V30 294 H 22.9036 -5.66701 -2.27338 0
M  V30 295 H 24.3176 -5.733 -0.00290157 0
M  V30 296 H 22.7146 -5.95305 0.757067 0
M  V30 297 H 23.7846 -4.66217 1.33303 0
M  V30 298 N 25.1277 -0.289203 -1.54924 0
M  V30 299 C 26.0577 0.58549 -2.2604 0
M  V30 300 C 27.0387 1.14753 -1.25562 0
M  V30 301 O 28.2237 1.17906 -1.54311 0
M  V30 302 C 25.3537 1.76305 -2.99222 0
M  V30 303 C 24.3077 1.33191 -4.06748 0
M  V30 304 C 23.6337 2.5937 -4.6758 0
M  V30 305 C 24.9337 0.471775 -5.20165 0
M  V30 306 H 26.6277 -0.00763532 -2.99399 0
M  V30 307 H 24.1737 -0.00511229 -1.43999 0
M  V30 308 H 26.1267 2.38097 -3.47689 0
M  V30 309 H 24.8507 2.38223 -2.23422 0
M  V30 310 H 23.5097 0.737121 -3.59113 0
M  V30 311 H 23.1577 3.19576 -3.88433 0
M  V30 312 H 22.8577 2.31228 -5.40192 0
M  V30 313 H 24.3817 3.21985 -5.18804 0
M  V30 314 H 25.7957 0.995056 -5.64599 0
M  V30 315 H 24.1927 0.284639 -5.99425 0
M  V30 316 H 25.2627 -0.506041 -4.82252 0
M  V30 317 N 26.6058 1.57591 -0.0167156 0
M  V30 318 C 27.8528 1.91283 0.664597 0
M  V30 319 C 28.1808 0.891949 1.72842 0
M  V30 320 O 27.4358 -0.100931 1.9544 0
M  V30 321 C 27.7348 3.3172 1.33029 0
M  V30 322 C 27.4008 4.4914 0.398047 0
M  V30 323 C 26.0628 4.80992 0.141421 0
M  V30 324 C 28.4148 5.20634 -0.242825 0
M  V30 325 C 25.7428 5.81703 -0.764092 0
M  V30 326 C 28.0948 6.22311 -1.13632 0
M  V30 327 C 26.7588 6.52611 -1.40196 0
M  V30 328 H 26.0288 0.699956 0.243193 0
M  V30 329 H 28.6758 1.9135 -0.0758267 0
M  V30 330 H 26.9808 3.27856 2.14517 0
M  V30 331 H 28.6778 3.55055 1.86379 0
M  V30 332 H 25.2678 4.24262 0.608238 0
M  V30 333 H 29.4518 4.96267 -0.0576019 0
M  V30 334 H 24.7078 6.03532 -0.977732 0
M  V30 335 H 28.8818 6.76834 -1.63917 0
M  V30 336 H 26.5088 7.30467 -2.10529 0
M  V30 337 N 28.0839 -0.256276 1.55502 0
M  V30 338 C 29.3089 -1.00766 1.81276 0
M  V30 339 C 29.7339 -1.78524 0.59252 0
M  V30 340 O 29.0919 -1.75413 -0.45827 0
M  V30 341 C 29.1399 -1.92869 3.04687 0
M  V30 342 O 28.2439 -3.019 2.80945 0
M  V30 343 H 27.5849 -0.287224 0.598664 0
M  V30 344 H 30.1149 -0.280109 2.02674 0
M  V30 345 H 30.1249 -2.34511 3.33869 0
M  V30 346 H 28.7999 -1.35689 3.93143 0
M  V30 347 H 27.3769 -2.64454 2.62904 0
M  V30 348 N 29.562 -1.4872 -0.521534 0
M  V30 349 C 30.802 -1.58771 -1.28729 0
M  V30 350 C 31.166 -0.259394 -1.9024 0
M  V30 351 O 32.367 -0.234942 -2.67771 0
M  V30 352 C 30.638 -2.70039 -2.34124 0
M  V30 353 S 32.197 -2.9991 -3.20312 0
M  V30 354 H 29.015 -0.560251 -0.437767 0
M  V30 355 H 31.617 -1.86283 -0.593188 0
M  V30 356 H 30.321 -3.65101 -1.87429 0
M  V30 357 H 29.852 -2.44455 -3.08229 0
M  V30 358 H 31.867 -2.39855 -4.34378 0
M  V30 359 N 31.0401 0.771051 -1.3745 0
M  V30 360 C 32.2861 1.5319 -1.32894 0
M  V30 361 C 32.6191 1.94008 0.0862511 0
M  V30 362 O 31.8941 1.64124 1.04373 0
M  V30 363 C 32.1771 2.79648 -2.26868 0
M  V30 364 C 32.0301 2.45079 -3.77169 0
M  V30 365 C 33.3491 3.81583 -2.19277 0
M  V30 366 H 30.4681 0.555744 -0.484064 0
M  V30 367 H 33.1101 0.884492 -1.68157 0
M  V30 368 H 31.2601 3.34891 -1.96926 0
M  V30 369 H 32.9321 1.95745 -4.1771 0
M  V30 370 H 31.1751 1.77767 -3.95704 0
M  V30 371 H 31.8461 3.35478 -4.38359 0
M  V30 372 H 34.3221 3.35835 -2.45671 0
M  V30 373 H 33.1981 4.67787 -2.87171 0
M  V30 374 H 33.4591 4.25897 -1.18592 0
M  V30 375 N 32.5182 1.22032 0.997298 0
M  V30 376 C 33.4812 0.987909 2.06816 0
M  V30 377 C 34.4812 -0.0440084 1.6074 0
M  V30 378 O 35.6712 0.194053 1.73116 0
M  V30 379 C 32.8032 0.49132 3.37341 0
M  V30 380 H 33.9962 1.93803 2.28868 0
M  V30 381 H 31.5492 1.03838 1.16822 0
M  V30 382 H 32.2842 -0.463364 3.20973 0
M  V30 383 H 32.0692 1.23575 3.72118 0
M  V30 384 H 33.5592 0.348824 4.16141 0
M  V30 385 N 33.9963 -1.19345 1.0293 0
M  V30 386 C 34.9263 -2.2481 0.631105 0
M  V30 387 C 35.9073 -1.66245 -0.360104 0
M  V30 388 O 37.0923 -1.92677 -0.242726 0
M  V30 389 C 34.2223 -3.47295 -0.0184607 0
M  V30 390 C 33.1763 -4.18536 0.895073 0
M  V30 391 C 32.5023 -5.34586 0.110592 0
M  V30 392 C 33.8023 -4.73287 2.209 0
M  V30 393 H 35.4963 -2.58372 1.51275 0
M  V30 394 H 33.0423 -1.24194 0.728818 0
M  V30 395 H 34.9953 -4.20268 -0.308675 0
M  V30 396 H 33.7193 -3.12933 -0.934907 0
M  V30 397 H 32.3783 -3.47446 1.16949 0
M  V30 398 H 32.0263 -4.96469 -0.807902 0
M  V30 399 H 31.7263 -5.83183 0.719087 0
M  V30 400 H 33.2503 -6.10355 -0.172871 0
M  V30 401 H 34.6643 -5.38013 1.98028 0
M  V30 402 H 33.0613 -5.32373 2.76946 0
M  V30 403 H 34.1313 -3.91331 2.86336 0
M  V30 404 N 35.4744 -0.807222 -1.35358 0
M  V30 405 C 36.4374 -0.223665 -2.28106 0
M  V30 406 C 37.4374 0.589354 -1.4961 0
M  V30 407 O 38.6274 0.407745 -1.69361 0
M  V30 408 C 35.7594 0.688149 -3.33882 0
M  V30 409 H 36.9524 -1.04169 -2.81227 0
M  V30 410 H 34.5054 -0.577921 -1.45223 0
M  V30 411 H 35.2404 1.52984 -2.85948 0
M  V30 412 H 35.0254 0.10687 -3.91954 0
M  V30 413 H 36.5154 1.09075 -4.03104 0
M  V30 414 N 36.9525 1.47285 -0.560781 0
M  V30 415 C 38.2005 2.02064 -0.0379868 0
M  V30 416 C 38.5215 1.43711 1.31803 0
M  V30 417 O 37.7915 0.61362 1.86042 0
M  V30 418 H 36.3715 0.746918 -0.0110531 0
M  V30 419 H 39.0335 1.80648 -0.731598 0
M  V30 420 H 38.1295 3.12064 0.0474463 0
M  V30 421 N 38.4306 0.297415 1.54768 0
M  V30 422 C 39.6706 -0.313829 2.01976 0
M  V30 423 C 40.0346 -1.51366 1.1812 0
M  V30 424 O 41.2356 -2.19603 1.5501 0
M  V30 425 C 39.5066 -0.664964 3.51159 0
M  V30 426 S 41.0656 -1.25958 4.20333 0
M  V30 427 H 37.8836 -0.0965014 0.704421 0
M  V30 428 H 40.4856 0.424451 1.90837 0
M  V30 429 H 39.1896 0.21681 4.09827 0
M  V30 430 H 38.7206 -1.43413 3.66328 0
M  V30 431 H 40.7356 -2.54751 4.25813 0
M  V30 432 N 39.9087 -1.5758 0.0250728 0
M  V30 433 C 40.8717 -2.08896 -0.943139 0
M  V30 434 C 41.8717 -1.00321 -1.25668 0
M  V30 435 O 43.0617 -1.26495 -1.19769 0
M  V30 436 C 40.1937 -2.55143 -2.26086 0
M  V30 437 H 41.3867 -2.95723 -0.498775 0
M  V30 438 H 38.9397 -1.54703 -0.222888 0
M  V30 439 H 39.6747 -1.71633 -2.75159 0
M  V30 440 H 39.4597 -3.34461 -2.04641 0
M  V30 441 H 40.9497 -2.95083 -2.95492 0
M  V30 442 N 41.3868 0.248026 -1.55636 0
M  V30 443 C 42.3348 1.32683 -1.91045 0
M  V30 444 C 43.3288 1.49883 -0.789401 0
M  V30 445 O 44.5348 1.51371 -0.974007 0
M  V30 446 H 40.9098 0.444272 -0.606734 0
M  V30 447 H 42.8808 1.00085 -2.81115 0
M  V30 448 C 41.6298 2.6755 -2.22064 0
M  V30 449 H 40.9528 2.55114 -3.07826 0
M  V30 450 H 42.3928 3.41912 -2.50743 0
M  V30 451 C 40.8518 3.20556 -1.0366 0
M  V30 452 O 41.3818 4.00695 -0.284016 0
M  V30 453 N 39.5878 2.78568 -0.82753 0
M  V30 454 H 39.1348 2.1351 -1.44123 0
M  V30 455 H 39.0928 3.14378 -0.0369803 0
M  V30 456 N 42.8649 1.48995 0.513639 0
M  V30 457 C 43.8129 1.65199 1.63744 0
M  V30 458 C 44.8069 0.51809 1.61283 0
M  V30 459 O 46.0129 0.697335 1.65943 0
M  V30 460 H 42.3879 0.52069 0.542574 0
M  V30 461 H 44.3589 2.59552 1.47226 0
M  V30 462 C 43.1079 1.72409 3.01945 0
M  V30 463 H 42.4309 2.59029 3.04539 0
M  V30 464 H 43.8709 1.87785 3.80148 0
M  V30 465 C 42.3299 0.46618 3.33659 0
M  V30 466 O 42.8599 -0.413744 3.99564 0
M  V30 467 N 41.0659 0.332931 2.88687 0
M  V30 468 H 40.6129 1.04996 2.35231 0
M  V30 469 H 40.5709 -0.507665 3.10274 0
M  V30 470 N 44.343 -0.763751 1.37857 0
M  V30 471 C 45.275 -1.88664 1.30148 0
M  V30 472 C 46.288 -1.61365 0.215685 0
M  V30 473 O 47.477 -1.72134 0.472459 0
M  V30 474 C 44.577 -3.24075 0.991396 0
M  V30 475 C 43.75 -3.78958 2.18426 0
M  V30 476 C 42.809 -4.92862 1.8432 0
M  V30 477 O 41.835 -5.08027 2.56704 0
M  V30 478 N 43.037 -5.75071 0.792081 0
M  V30 479 H 45.802 -1.95791 2.26905 0
M  V30 480 H 43.363 -0.943226 1.31586 0
M  V30 481 H 45.355 -3.97804 0.743935 0
M  V30 482 H 43.925 -3.12399 0.112122 0
M  V30 483 H 43.145 -2.96913 2.59299 0
M  V30 484 H 44.433 -4.12357 2.98058 0
M  V30 485 H 43.831 -5.65375 0.191595 0
M  V30 486 H 42.388 -6.48991 0.60449 0
M  V30 487 N 45.8211 -1.22559 -0.990812 0
M  V30 488 C 47.0491 -1.07779 -1.76611 0
M  V30 489 C 47.4641 0.371513 -1.85109 0
M  V30 490 O 46.8211 1.25737 -1.32274 0
M  V30 491 C 46.8721 -1.68512 -3.19822 0
M  V30 492 O 46.5931 -3.07774 -3.1178 0
M  V30 493 C 48.0941 -1.59035 -4.13791 0
M  V30 494 H 45.3141 -0.377729 -0.554583 0
M  V30 495 H 47.8581 -1.62195 -1.24551 0
M  V30 496 H 46.0131 -1.18154 -3.68942 0
M  V30 497 H 46.4271 -3.37062 -4.01858 0
M  V30 498 H 47.9011 -2.0625 -5.1202 0
M  V30 499 H 48.3781 -0.547273 -4.35777 0
M  V30 500 H 48.9841 -2.08709 -3.70568 0
M  V30 501 N 47.2992 1.18797 -1.03562 0
M  V30 502 C 48.2472 2.24297 -0.615905 0
M  V30 503 C 49.2412 1.65643 0.354808 0
M  V30 504 O 50.4472 1.78618 0.22265 0
M  V30 505 H 46.8222 0.729909 -0.180934 0
M  V30 506 H 48.7932 2.5701 -1.5162 0
M  V30 507 C 47.5422 3.47698 0.0104735 0
M  V30 508 H 46.8652 3.93125 -0.727509 0
M  V30 509 H 48.3052 4.23159 0.266995 0
M  V30 510 C 46.7642 3.12489 1.25905 0
M  V30 511 O 47.2942 3.25761 2.35038 0
M  V30 512 N 45.5002 2.6686 1.15039 0
M  V30 513 H 45.0472 2.56261 0.262328 0
M  V30 514 H 45.0052 2.43674 1.98672 0
M  V30 515 N 48.7773 0.814389 1.34928 0
M  V30 516 C 49.7403 0.235759 2.27984 0
M  V30 517 C 50.7403 -0.581412 1.49921 0
M  V30 518 O 51.9303 -0.398758 1.69575 0
M  V30 519 C 49.0623 -0.670433 3.34242 0
M  V30 520 H 50.2553 1.05659 2.80671 0
M  V30 521 H 47.8083 0.585614 1.44915 0
M  V30 522 H 48.5433 -1.51466 2.86755 0
M  V30 523 H 48.3283 -0.0860822 3.92005 0
M  V30 524 H 49.8183 -1.06935 4.03676 0
M  V30 525 N 50.2554 -1.46986 0.568584 0
M  V30 526 C 51.4804 -2.07335 0.0520528 0
M  V30 527 C 51.9054 -1.41675 -1.23733 0
M  V30 528 O 51.2634 -0.495623 -1.74394 0
M  V30 529 C 51.3114 -3.60417 -0.11501 0
M  V30 530 O 50.4154 -3.95309 -1.17492 0
M  V30 531 H 49.7564 -0.661597 0.0564385 0
M  V30 532 H 52.2864 -1.88837 0.787507 0
M  V30 533 H 52.2964 -4.06698 -0.325644 0
M  V30 534 H 50.9714 -4.07601 0.826675 0
M  V30 535 H 49.5484 -3.60757 -0.943869 0
M  V30 536 N 51.7335 -0.305618 -1.54608 0
M  V30 537 C 52.6655 0.602161 -2.21149 0
M  V30 538 C 53.6785 1.09394 -1.20569 0
M  V30 539 O 54.8675 1.0106 -1.47136 0
M  V30 540 C 51.9675 1.83692 -2.84799 0
M  V30 541 C 51.1405 1.48686 -4.11353 0
M  V30 542 C 50.1995 2.57725 -4.58764 0
M  V30 543 O 49.2255 2.22623 -5.23858 0
M  V30 544 N 50.4275 3.88346 -4.31471 0
M  V30 545 H 53.1925 0.0324966 -2.99682 0
M  V30 546 H 50.7535 -0.128021 -1.61393 0
M  V30 547 H 52.7455 2.55994 -3.13448 0
M  V30 548 H 51.3155 2.31486 -2.10078 0
M  V30 549 H 50.5355 0.596269 -3.89664 0
M  V30 550 H 51.8235 1.22842 -4.93748 0
M  V30 551 H 51.2215 4.19671 -3.79331 0
M  V30 552 H 49.7785 4.56932 -4.64818 0
M  V30 553 N 53.2116 1.57565 -0.0334293 0
M  V30 554 C 54.6226 1.79746 0.504798 0
M  V30 555 C 54.9736 0.944091 1.71992 0
M  V30 556 O 54.0986 0.155694 2.15839 0
M  V30 557 C 54.6936 3.25997 0.922567 0
M  V30 558 C 53.2526 3.49159 1.40588 0
M  V30 559 C 52.3996 2.74785 0.372633 0
M  V30 560 H 55.3506 1.56565 -0.259436 0
M  V30 561 H 55.3716 3.35945 1.78666 0
M  V30 562 H 54.8836 3.88081 0.0379825 0
M  V30 563 H 52.9846 2.92332 2.31025 0
M  V30 564 H 53.0976 4.57873 1.41028 0
M  V30 565 H 51.4616 2.40391 0.841672 0
M  V30 566 H 52.2446 3.39587 -0.503559 0
M  V30 567 N 54.6897 -0.239769 1.55765 0
M  V30 568 C 55.6527 -1.28038 1.90103 0
M  V30 569 C 56.6527 -1.40723 0.778055 0
M  V30 570 O 57.8427 -1.39301 1.04599 0
M  V30 571 C 54.9747 -2.65702 2.13577 0
M  V30 572 H 56.1677 -0.988048 2.83157 0
M  V30 573 H 53.7207 -0.479382 1.48767 0
M  V30 574 H 54.4557 -3.00063 1.23015 0
M  V30 575 H 54.2407 -2.57875 2.95369 0
M  V30 576 H 55.7307 -3.40828 2.41301 0
M  V30 577 N 56.1678 -1.49265 -0.50573 0
M  V30 578 C 57.0778 -1.68312 -1.63427 0
M  V30 579 C 58.0938 -0.565682 -1.64548 0
M  V30 580 O 59.2698 -0.839801 -1.83055 0
M  V30 581 C 56.3348 -1.74107 -2.99813 0
M  V30 582 C 55.3958 -2.97653 -3.09356 0
M  V30 583 C 54.6288 -3.03163 -4.39236 0
M  V30 584 O 54.8518 -2.16396 -5.27758 0
M  V30 585 O 53.7858 -3.9558 -4.53652 0
M  V30 586 H 57.6118 -2.63907 -1.50289 0
M  V30 587 H 55.1968 -1.32951 -0.681502 0
M  V30 588 H 57.0788 -1.803 -3.80881 0
M  V30 589 H 55.7538 -0.816901 -3.13223 0
M  V30 590 H 54.6608 -2.96981 -2.27493 0
M  V30 591 H 55.9938 -3.89535 -3.00871 0
M  V30 592 N 57.6459 0.756429 -1.3826 0
M  V30 593 C 58.5929 1.87011 -1.35261 0
M  V30 594 C 59.5629 1.64695 -0.215616 0
M  V30 595 O 60.7479 1.864 -0.407399 0
M  V30 596 C 57.8879 3.24275 -1.18068 0
M  V30 597 C 57.0009 3.58442 -2.41129 0
M  V30 598 C 56.1359 4.84994 -2.16689 0
M  V30 599 C 55.1749 5.11939 -3.35537 0
M  V30 600 N 54.3119 6.29685 -3.10549 0
M  V30 601 H 59.1519 1.8891 -2.30472 0
M  V30 602 H 56.6889 0.923373 -1.14509 0
M  V30 603 H 58.6469 4.03479 -1.06116 0
M  V30 604 H 57.2769 3.21711 -0.264973 0
M  V30 605 H 56.3289 2.74103 -2.63764 0
M  V30 606 H 57.6409 3.74283 -3.29717 0
M  V30 607 H 56.7949 5.72135 -2.01857 0
M  V30 608 H 55.5339 4.71286 -1.25462 0
M  V30 609 H 54.5389 4.23268 -3.50891 0
M  V30 610 H 55.7639 5.27546 -4.27635 0
M  V30 611 H 53.7099 6.17306 -2.21967 0
M  V30 612 H 53.6269 6.46014 -3.92686 0
M  V30 613 H 54.8949 7.19722 -2.99367 0
M  V30 614 N 59.124 1.23083 0.984299 0
M  V30 615 C 60.072 1.00593 2.09723 0
M  V30 616 C 61.066 -0.0538014 1.69315 0
M  V30 617 O 62.272 0.0993719 1.79725 0
M  V30 618 H 58.647 0.30817 0.685956 0
M  V30 619 H 60.618 1.95012 2.2586 0
M  V30 620 C 59.367 0.609601 3.42314 0
M  V30 621 H 58.69 1.41675 3.73856 0
M  V30 622 H 60.13 0.491726 4.21139 0
M  V30 623 C 58.589 -0.681745 3.2993 0
M  V30 624 O 59.119 -1.73192 3.62446 0
M  V30 625 N 57.325 -0.656178 2.83095 0
M  V30 626 H 56.872 0.198759 2.56832 0
M  V30 627 H 56.83 -1.52044 2.75191 0
M  V30 628 N 60.6021 -1.18246 1.0419 0
M  V30 629 C 61.5121 -2.25574 0.644476 0
M  V30 630 C 62.5281 -1.70845 -0.329826 0
M  V30 631 O 63.7041 -2.00554 -0.184443 0
M  V30 632 C 60.7691 -3.46697 0.014877 0
M  V30 633 C 59.8301 -4.16554 1.03834 0
M  V30 634 C 59.0631 -5.31894 0.438692 0
M  V30 635 O 59.2861 -5.65385 -0.754752 0
M  V30 636 O 58.2201 -5.90459 1.168 0
M  V30 637 H 62.0461 -2.61836 1.53869 0
M  V30 638 H 59.6311 -1.25352 0.812854 0
M  V30 639 H 61.5131 -4.20062 -0.335538 0
M  V30 640 H 60.1881 -3.12255 -0.853138 0
M  V30 641 H 59.0951 -3.45251 1.44057 0
M  V30 642 H 60.4281 -4.54998 1.87716 0
M  V30 643 N 62.0802 -0.821533 -1.34494 0
M  V30 644 C 63.0272 -0.240397 -2.29545 0
M  V30 645 C 63.9972 0.634031 -1.53523 0
M  V30 646 O 65.1822 0.575966 -1.81899 0
M  V30 647 C 62.3222 0.592869 -3.39969 0
M  V30 648 C 61.4352 -0.30365 -4.30932 0
M  V30 649 C 60.5702 0.539049 -5.28458 0
M  V30 650 C 59.6092 -0.356942 -6.11058 0
M  V30 651 N 58.7462 0.446603 -7.00678 0
M  V30 652 H 63.5862 -1.05632 -2.7865 0
M  V30 653 H 61.1232 -0.532413 -1.37127 0
M  V30 654 H 63.0812 1.09129 -4.02675 0
M  V30 655 H 61.7112 1.37392 -2.92102 0
M  V30 656 H 60.7632 -0.920276 -3.691 0
M  V30 657 H 62.0752 -0.992661 -4.88823 0
M  V30 658 H 61.2292 1.102 -5.96608 0
M  V30 659 H 59.9682 1.26157 -4.71101 0
M  V30 660 H 58.9732 -0.932047 -5.41842 0
M  V30 661 H 60.1982 -1.07755 -6.70497 0
M  V30 662 H 58.1442 1.15282 -6.45791 0
M  V30 663 H 58.0612 -0.184048 -7.55776 0
M  V30 664 H 59.3292 0.992352 -7.73158 0
M  V30 665 N 63.5583 1.46682 -0.576371 0
M  V30 666 C 64.7863 2.06798 -0.0649635 0
M  V30 667 C 65.2013 1.42612 1.23723 0
M  V30 668 O 64.5583 0.529203 1.74659 0
M  V30 669 C 64.6093 3.6132 0.114202 0
M  V30 670 O 64.3303 4.23104 -1.13644 0
M  V30 671 C 65.8313 4.38349 0.66069 0
M  V30 672 H 63.0513 0.668778 -0.0545616 0
M  V30 673 H 65.5953 1.88404 -0.795237 0
M  V30 674 H 63.7503 3.79162 0.794673 0
M  V30 675 H 64.1643 5.15894 -0.946253 0
M  V30 676 H 65.6383 5.47081 0.73526 0
M  V30 677 H 66.1153 4.05953 1.67627 0
M  V30 678 H 66.7213 4.25297 0.0152951 0
M  V30 679 N 65.0364 0.313813 1.54444 0
M  V30 680 C 65.9464 -0.565714 2.27677 0
M  V30 681 C 66.9624 -1.13754 1.31666 0
M  V30 682 O 68.1384 -1.15959 1.64668 0
M  V30 683 C 65.2034 -1.71528 3.01296 0
M  V30 684 C 64.2644 -1.17624 4.12872 0
M  V30 685 C 63.4974 -2.27102 4.8297 0
M  V30 686 O 63.7204 -3.47256 4.52514 0
M  V30 687 O 62.6544 -1.9307 5.70094 0
M  V30 688 H 66.4804 0.0287296 3.03686 0
M  V30 689 H 64.0654 0.0798312 1.49187 0
M  V30 690 H 65.9474 -2.38476 3.4743 0
M  V30 691 H 64.6224 -2.29608 2.2817 0
M  V30 692 H 63.5294 -0.472124 3.71109 0
M  V30 693 H 64.8624 -0.640695 4.88012 0
M  V30 694 N 66.5145 -1.57545 0.0417849 0
M  V30 695 C 67.4475 -2.06514 -0.970928 0
M  V30 696 C 68.4255 -0.963607 -1.30971 0
M  V30 697 O 69.6095 -1.23486 -1.4242 0
M  V30 698 C 66.7365 -2.4978 -2.28752 0
M  V30 699 C 65.7825 -3.71078 -2.10246 0
M  V30 700 S 66.6155 -5.17158 -1.38952 0
M  V30 701 C 67.7715 -5.6373 -2.71954 0
M  V30 702 H 68.0045 -2.9209 -0.554129 0
M  V30 703 H 65.5375 -1.53459 -0.17024 0
M  V30 704 H 67.4955 -2.75371 -3.04435 0
M  V30 705 H 66.1565 -1.64527 -2.67562 0
M  V30 706 H 65.3495 -3.9924 -3.07609 0
M  V30 707 H 64.9515 -3.45705 -1.42704 0
M  V30 708 H 67.2435 -5.68743 -3.68154 0
M  V30 709 H 68.1865 -6.63086 -2.4844 0
M  V30 710 H 68.5945 -4.91424 -2.77782 0
M  V30 711 N 67.9926 0.231505 -1.5589 0
M  V30 712 C 68.9396 1.28682 -1.91598 0
M  V30 713 C 69.9096 1.47071 -0.771974 0
M  V30 714 O 71.0946 1.60802 -1.027 0
M  V30 715 C 68.2346 2.6342 -2.22944 0
M  V30 716 C 67.3476 2.52912 -3.50228 0
M  V30 717 C 66.4826 3.80106 -3.7107 0
M  V30 718 C 65.5216 3.64279 -4.91902 0
M  V30 719 N 64.6586 4.834 -5.09184 0
M  V30 720 H 69.4986 0.975305 -2.81588 0
M  V30 721 H 67.0356 0.470299 -1.39379 0
M  V30 722 H 68.9936 3.41869 -2.39126 0
M  V30 723 H 67.6236 2.92687 -1.36139 0
M  V30 724 H 66.6756 1.6595 -3.42294 0
M  V30 725 H 67.9876 2.37133 -4.38827 0
M  V30 726 H 67.1416 4.66999 -3.87295 0
M  V30 727 H 65.8806 3.98799 -2.80733 0
M  V30 728 H 64.8856 2.7577 -4.75637 0
M  V30 729 H 66.1106 3.47067 -5.83714 0
M  V30 730 H 64.0566 5.02425 -4.21788 0
M  V30 731 H 63.9736 4.70311 -5.91898 0
M  V30 732 H 65.2416 5.71747 -5.29835 0
M  V30 733 N 69.4707 1.49531 0.497807 0
M  V30 734 C 70.7477 1.49682 1.25915 0
M  V30 735 C 71.1277 0.226339 2.09883 0
M  V30 736 O 70.4757 -0.791189 2.14365 0
M  V30 737 C 70.6857 2.77755 2.11313 0
M  V30 738 C 72.0337 3.27371 2.70395 0
M  V30 739 O 73.0577 2.78894 2.21578 0
M  V30 740 O 71.9167 4.11808 3.59272 0
M  V30 741 H 69.0107 0.599228 0.56996 0
M  V30 742 H 71.5567 1.61798 0.511816 0
M  V30 743 H 70.3287 3.61713 1.49264 0
M  V30 744 H 69.9517 2.68515 2.93233 0
M  V30 745 N 70.9488 -0.749086 1.3866 0
M  V30 746 C 72.2258 -1.4992 1.25632 0
M  V30 747 C 72.6058 -2.10633 -0.140317 0
M  V30 748 O 71.9538 -1.97437 -1.15025 0
M  V30 749 C 72.1638 -2.56195 2.36992 0
M  V30 750 C 73.5118 -3.22972 2.75634 0
M  V30 751 O 74.5358 -2.66502 2.36337 0
M  V30 752 O 73.3948 -4.25122 3.43415 0
M  V30 753 H 70.4888 -0.665067 0.491544 0
M  V30 754 H 73.0348 -0.784113 1.50498 0
M  V30 755 H 71.8068 -2.09612 3.30422 0
M  V30 756 H 71.4298 -3.35279 2.13714 0
M  V30 757 N 72.4269 -1.23603 -0.977757 0
M  V30 758 C 73.6739 -1.06971 -1.71941 0
M  V30 759 C 74.0019 0.393009 -1.90488 0
M  V30 760 O 73.2569 1.30719 -1.4564 0
M  V30 761 C 73.5559 -1.7433 -3.11999 0
M  V30 762 C 73.2219 -3.24252 -3.13323 0
M  V30 763 C 71.8839 -3.65156 -3.13392 0
M  V30 764 C 74.2359 -4.20141 -3.08433 0
M  V30 765 C 71.5639 -5.00403 -3.0629 0
M  V30 766 C 73.9159 -5.55384 -3.02873 0
M  V30 767 C 72.5799 -5.95647 -3.01265 0
M  V30 768 H 71.8499 -0.391433 -0.629175 0
M  V30 769 H 74.4969 -1.53572 -1.14403 0
M  V30 770 H 72.8019 -1.20096 -3.7294 0
M  V30 771 H 74.4989 -1.58936 -3.68158 0
M  V30 772 H 71.0889 -2.91692 -3.14029 0
M  V30 773 H 75.2729 -3.89547 -3.07517 0
M  V30 774 H 70.5289 -5.3081 -3.03399 0
M  V30 775 H 74.7029 -6.29398 -2.98046 0
M  V30 776 H 72.3299 -7.0041 -2.95516 0
M  V30 777 N 73.905 1.17692 -1.04816 0
M  V30 778 C 74.868 2.19787 -0.650117 0
M  V30 779 C 75.868 1.58044 0.296427 0
M  V30 780 O 77.058 1.74012 0.0808097 0
M  V30 781 C 74.19 3.40869 0.0456987 0
M  V30 782 H 75.383 2.56516 -1.5537 0
M  V30 783 H 72.936 1.31708 -0.841594 0
M  V30 784 H 73.671 3.09681 0.962726 0
M  V30 785 H 73.456 3.86928 -0.634727 0
M  V30 786 H 74.946 4.16445 0.310432 0
M  V30 787 N 75.3831 0.828654 1.34056 0
M  V30 788 C 76.3301 0.252567 2.29414 0
M  V30 789 C 77.3001 -0.62588 1.53857 0
M  V30 790 O 78.4851 -0.566312 1.82202 0
M  V30 791 C 75.6251 -0.574831 3.40279 0
M  V30 792 C 74.7381 0.326499 4.30764 0
M  V30 793 C 73.8731 -0.511016 5.28736 0
M  V30 794 C 72.9121 0.389342 6.1086 0
M  V30 795 N 72.0491 -0.409439 7.00905 0
M  V30 796 H 76.8891 1.07108 2.78086 0
M  V30 797 H 74.4261 0.539677 1.36843 0
M  V30 798 H 76.3841 -1.06992 4.03248 0
M  V30 799 H 75.0141 -1.35841 2.92826 0
M  V30 800 H 74.0661 0.939837 3.68607 0
M  V30 801 H 75.3781 1.01857 4.88289 0
M  V30 802 H 74.5321 -1.07035 5.97184 0
M  V30 803 H 73.2711 -1.23657 4.71763 0
M  V30 804 H 72.2761 0.960769 5.4134 0
M  V30 805 H 73.5011 1.1131 6.69916 0
M  V30 806 H 71.4471 -1.11856 6.46393 0
M  V30 807 H 71.3641 0.224126 7.55668 0
M  V30 808 H 72.6321 -0.951336 7.73673 0
M  V30 809 N 76.8612 -1.46375 0.584142 0
M  V30 810 C 77.7912 -2.33103 -0.136037 0
M  V30 811 C 78.7722 -1.45431 -0.882255 0
M  V30 812 O 79.9572 -1.74246 -0.857434 0
M  V30 813 C 77.0872 -3.27731 -1.14933 0
M  V30 814 C 76.0412 -4.24855 -0.517862 0
M  V30 815 C 75.3672 -5.09001 -1.63773 0
M  V30 816 C 76.6672 -5.19439 0.545886 0
M  V30 817 H 78.3612 -2.93568 0.588086 0
M  V30 818 H 75.9072 -1.41166 0.284259 0
M  V30 819 H 77.8602 -3.87261 -1.66153 0
M  V30 820 H 76.5842 -2.65377 -1.90375 0
M  V30 821 H 75.2432 -3.6659 -0.0267361 0
M  V30 822 H 74.8912 -4.43031 -2.38185 0
M  V30 823 H 74.5912 -5.74777 -1.22085 0
M  V30 824 H 76.1152 -5.71396 -2.15266 0
M  V30 825 H 77.5292 -5.73177 0.118704 0
M  V30 826 H 75.9262 -5.93566 0.88317 0
M  V30 827 H 76.9962 -4.63285 1.43162 0
M  V30 828 N 78.3393 -0.321999 -1.54275 0
M  V30 829 C 79.2493 0.553631 -2.27974 0
M  V30 830 C 80.2653 1.13054 -1.32268 0
M  V30 831 O 81.4413 1.15084 -1.6528 0
M  V30 832 C 78.5063 1.69927 -3.02201 0
M  V30 833 C 77.5673 1.15433 -4.1349 0
M  V30 834 C 76.8003 2.24537 -4.84168 0
M  V30 835 O 77.0233 3.44852 -4.5435 0
M  V30 836 O 75.9573 1.90044 -5.7111 0
M  V30 837 H 79.7833 -0.0448345 -3.03667 0
M  V30 838 H 77.3683 -0.0877418 -1.49142 0
M  V30 839 H 79.2503 2.3663 -3.48689 0
M  V30 840 H 77.9253 2.28395 -2.29385 0
M  V30 841 H 76.8323 0.452436 -3.71354 0
M  V30 842 H 78.1653 0.614805 -4.88345 0
M  V30 843 N 79.8174 1.5752 -0.0501392 0
M  V30 844 C 80.7274 2.14952 0.939827 0
M  V30 845 C 81.7434 1.10706 1.34239 0
M  V30 846 O 82.9194 1.42869 1.41952 0
M  V30 847 C 79.9844 2.68232 2.19665 0
M  V30 848 C 79.0454 3.87272 1.85253 0
M  V30 849 C 78.2784 4.38002 3.04943 0
M  V30 850 O 78.5014 3.87811 4.18281 0
M  V30 851 O 77.4354 5.29602 2.86017 0
M  V30 852 H 81.2614 2.9986 0.481392 0
M  V30 853 H 78.8464 1.4841 0.171699 0
M  V30 854 H 80.7284 3.02475 2.93406 0
M  V30 855 H 79.4034 1.86395 2.64648 0
M  V30 856 H 78.3104 3.5792 1.0883 0
M  V30 857 H 79.6434 4.70336 1.4507 0
M  V30 858 N 81.2955 -0.223234 1.56011 0
M  V30 859 C 82.2275 -1.30006 1.88762 0
M  V30 860 C 83.2405 -1.43129 0.775746 0
M  V30 861 O 84.4295 -1.44057 1.05403 0
M  V30 862 C 81.5295 -2.67589 2.07965 0
M  V30 863 C 80.7025 -2.76434 3.38973 0
M  V30 864 C 79.7615 -3.95019 3.47629 0
M  V30 865 O 78.7875 -3.83436 4.20672 0
M  V30 866 N 79.9895 -5.09249 2.78649 0
M  V30 867 H 82.7545 -1.02238 2.81722 0
M  V30 868 H 80.3155 -0.413278 1.56536 0
M  V30 869 H 82.3075 -3.45297 2.11073 0
M  V30 870 H 80.8775 -2.87964 1.21638 0
M  V30 871 H 80.0975 -1.85216 3.47978 0
M  V30 872 H 81.3855 -2.79313 4.25278 0
M  V30 873 H 80.7835 -5.21556 2.19081 0
M  V30 874 H 79.3405 -5.85007 2.8742 0
M  V30 875 N 82.7736 -1.49793 -0.48987 0
M  V30 876 C 84.0206 -1.59841 -1.24327 0
M  V30 877 C 84.3486 -0.290135 -1.92324 0
M  V30 878 O 83.6036 0.722749 -1.81865 0
M  V30 879 C 83.9026 -2.71488 -2.32441 0
M  V30 880 C 83.5686 -4.12614 -1.81826 0
M  V30 881 C 82.2306 -4.51017 -1.67742 0
M  V30 882 C 84.5826 -5.00892 -1.4407 0
M  V30 883 C 81.9106 -5.75459 -1.14297 0
M  V30 884 C 84.2626 -6.25863 -0.920742 0
M  V30 885 C 82.9266 -6.63086 -0.766383 0
M  V30 886 H 82.1966 -0.584899 -0.454944 0
M  V30 887 H 84.8436 -1.83663 -0.542215 0
M  V30 888 H 83.1486 -2.4168 -3.0838 0
M  V30 889 H 84.8456 -2.76469 -2.90458 0
M  V30 890 H 81.4356 -3.82307 -1.93751 0
M  V30 891 H 85.6196 -4.7187 -1.53794 0
M  V30 892 H 80.8756 -6.02989 -1.01068 0
M  V30 893 H 85.0496 -6.9364 -0.619448 0
M  V30 894 H 82.6766 -7.59393 -0.350083 0
M  V30 895 N 84.2517 0.741722 -1.39055 0
M  V30 896 C 85.5287 1.49252 -1.26425 0
M  V30 897 C 85.9087 2.10705 0.129144 0
M  V30 898 O 85.2567 1.98045 1.13976 0
M  V30 899 C 85.4667 2.54934 -2.38347 0
M  V30 900 C 86.8147 3.21506 -2.77343 0
M  V30 901 O 87.8387 2.65245 -2.37747 0
M  V30 902 O 86.6977 4.23294 -3.45665 0
M  V30 903 H 83.7917 0.662451 -0.495064 0
M  V30 904 H 86.3377 0.776121 -1.50912 0
M  V30 905 H 85.1097 2.07857 -3.31529 0
M  V30 906 H 84.7327 3.34141 -2.15489 0
M  V30 907 N 85.7298 1.2412 0.971189 0
M  V30 908 C 86.6928 1.03156 2.04674 0
M  V30 909 C 87.6928 -0.00990322 1.60797 0
M  V30 910 O 88.8828 0.230729 1.72665 0
M  V30 911 C 86.0148 0.562765 3.36223 0
M  V30 912 H 87.2078 1.98614 2.24705 0
M  V30 913 H 84.7608 1.06293 1.14593 0
M  V30 914 H 85.4958 -0.395176 3.21883 0
M  V30 915 H 85.2808 1.31441 3.69413 0
M  V30 916 H 86.7708 0.437015 4.15307 0
M  V30 917 N 87.2079 -1.17134 1.05439 0
M  V30 918 C 88.1549 -2.21235 0.657539 0
M  V30 919 C 89.1249 -1.62551 -0.341543 0
M  V30 920 O 90.3099 -1.89379 -0.232393 0
M  V30 921 C 87.4499 -3.45076 0.0410575 0
M  V30 922 C 86.5629 -4.18042 1.08927 0
M  V30 923 C 85.6979 -5.29376 0.439848 0
M  V30 924 C 84.7369 -5.94132 1.4722 0
M  V30 925 N 83.8739 -6.96975 0.846756 0
M  V30 926 H 88.7139 -2.54534 1.54972 0
M  V30 927 H 86.2509 -1.25028 0.775006 0
M  V30 928 H 88.2089 -4.15862 -0.33383 0
M  V30 929 H 86.8389 -3.12353 -0.814568 0
M  V30 930 H 85.8909 -3.45945 1.58196 0
M  V30 931 H 87.2029 -4.62306 1.87282 0
M  V30 932 H 86.3569 -6.06699 0.0115125 0
M  V30 933 H 85.0959 -4.86251 -0.375656 0
M  V30 934 H 84.1009 -5.15538 1.91052 0
M  V30 935 H 85.3259 -6.39337 2.28965 0
M  V30 936 H 83.2719 -6.5598 0.0518075 0
M  V30 937 H 83.1889 -7.39565 1.5678 0
M  V30 938 H 84.4569 -7.78239 0.443277 0
M  V30 939 N 88.686 -0.835752 -1.33615 0
M  V30 940 C 89.616 -0.281739 -2.31794 0
M  V30 941 C 90.597 0.608833 -1.58831 0
M  V30 942 O 91.782 0.533035 -1.86741 0
M  V30 943 C 88.912 0.546612 -3.42971 0
M  V30 944 C 87.866 -0.247904 -4.27281 0
M  V30 945 C 87.192 0.704001 -5.30045 0
M  V30 946 C 88.492 -1.46324 -5.01385 0
M  V30 947 H 90.186 -1.10206 -2.78379 0
M  V30 948 H 87.732 -0.531388 -1.33837 0
M  V30 949 H 89.685 0.944467 -4.1068 0
M  V30 950 H 88.409 1.40011 -2.95067 0
M  V30 951 H 87.068 -0.627281 -3.61194 0
M  V30 952 H 86.716 1.55381 -4.78399 0
M  V30 953 H 86.416 0.176524 -5.87335 0
M  V30 954 H 87.94 1.09944 -6.0062 0
M  V30 955 H 89.354 -1.13871 -5.61877 0
M  V30 956 H 87.751 -1.92728 -5.6831 0
M  V30 957 H 88.821 -2.23467 -4.30338 0
M  V30 958 N 90.1641 1.46063 -0.591896 0
M  V30 959 C 91.4121 2.01938 -0.0808391 0
M  V30 960 C 91.7331 1.46475 1.28725 0
M  V30 961 O 91.0031 0.652944 1.84698 0
M  V30 962 H 89.5831 0.746516 -0.0268938 0
M  V30 963 H 92.2451 1.79055 -0.769752 0
M  V30 964 H 91.3411 3.12094 -0.0187578 0
M  V30 965 N 91.6422 0.330177 1.54103 0
M  V30 966 C 92.8912 -0.271336 1.99867 0
M  V30 967 C 93.2042 -1.52723 1.22209 0
M  V30 968 O 94.4102 -2.20515 1.58383 0
M  V30 969 C 92.8662 -0.534032 3.55916 0
M  V30 970 C 92.4742 0.705193 4.42415 0
M  V30 971 C 94.2182 -1.09514 4.1013 0
M  V30 972 C 92.1252 0.414035 5.89949 0
M  V30 973 H 91.0552 -0.105166 0.74663 0
M  V30 974 H 93.7062 0.443429 1.78062 0
M  V30 975 H 92.0882 -1.30915 3.73734 0
M  V30 976 H 93.2622 1.4804 4.36372 0
M  V30 977 H 91.5772 1.18698 3.99124 0
M  V30 978 H 94.1742 -1.3277 5.17954 0
M  V30 979 H 94.5172 -2.04656 3.62521 0
M  V30 980 H 95.0502 -0.381038 3.95971 0
M  V30 981 H 91.7892 1.33481 6.41766 0
M  V30 982 H 91.3092 -0.323336 5.98928 0
M  V30 983 H 92.9882 0.0263105 6.46995 0
M  V30 984 N 93.1203 -1.57491 0.0584922 0
M  V30 985 C 94.3673 -1.92978 -0.613648 0
M  V30 986 C 94.6953 -0.937461 -1.70417 0
M  V30 987 O 93.9503 0.049078 -1.95638 0
M  V30 988 C 94.2493 -3.3513 -1.24188 0
M  V30 989 C 93.9153 -4.50037 -0.278826 0
M  V30 990 C 92.5773 -4.81198 -0.0138447 0
M  V30 991 C 94.9293 -5.19807 0.380777 0
M  V30 992 C 92.2573 -5.79473 0.918052 0
M  V30 993 C 94.6093 -6.19079 1.30091 0
M  V30 994 C 93.2733 -6.48665 1.57449 0
M  V30 995 H 92.5433 -0.706157 -0.22455 0
M  V30 996 H 95.1903 -1.91082 0.126533 0
M  V30 997 H 93.4953 -3.33429 -2.05749 0
M  V30 998 H 95.1923 -3.59871 -1.769 0
M  V30 999 H 91.7823 -4.25726 -0.495539 0
M  V30 1000 H 95.9663 -4.95939 0.189158 0
M  V30 1001 H 91.2223 -6.00727 1.1374 0
M  V30 1002 H 95.3963 -6.7225 1.81804 0
M  V30 1003 H 93.0233 -7.24628 2.29822 0
M  V30 1004 N 94.5984 0.214957 -1.56127 0
M  V30 1005 C 95.5614 1.24997 -1.92116 0
M  V30 1006 C 96.5614 1.39467 -0.800344 0
M  V30 1007 O 97.7514 1.37619 -1.06802 0
M  V30 1008 C 94.8834 2.62271 -2.17777 0
M  V30 1009 H 96.0764 0.942875 -2.84693 0
M  V30 1010 H 93.6294 0.455654 -1.49511 0
M  V30 1011 H 94.3644 2.98068 -1.27773 0
M  V30 1012 H 94.1494 2.53143 -2.99434 0
M  V30 1013 H 95.6394 3.36946 -2.46693 0
M  V30 1014 N 96.0765 1.50051 0.48192 0
M  V30 1015 C 97.0065 1.71046 1.58951 0
M  V30 1016 C 97.9875 0.559288 1.60642 0
M  V30 1017 O 99.1725 0.797243 1.77081 0
M  V30 1018 C 96.3025 1.79462 2.97339 0
M  V30 1019 C 95.2565 2.94558 3.10515 0
M  V30 1020 C 94.5825 2.88105 4.50444 0
M  V30 1021 C 95.8825 4.35227 2.88747 0
M  V30 1022 H 97.5765 2.6378 1.41635 0
M  V30 1023 H 95.1225 1.26936 0.679942 0
M  V30 1024 H 97.0755 1.92734 3.74742 0
M  V30 1025 H 95.7995 0.833412 3.15788 0
M  V30 1026 H 94.4585 2.80918 2.35543 0
M  V30 1027 H 94.1065 1.89853 4.65795 0
M  V30 1028 H 93.8065 3.65366 4.60197 0
M  V30 1029 H 95.3305 3.03412 5.29881 0
M  V30 1030 H 96.7445 4.49449 3.55905 0
M  V30 1031 H 95.1415 5.13856 3.09955 0
M  V30 1032 H 96.2115 4.48347 1.84696 0
M  V30 1033 N 97.5546 -0.734337 1.39446 0
M  V30 1034 C 98.8316 -1.48579 1.27215 0
M  V30 1035 C 99.2116 -2.1077 -0.117968 0
M  V30 1036 O 98.5596 -1.98646 -1.12924 0
M  V30 1037 C 98.7696 -2.53667 2.39696 0
M  V30 1038 C 100.118 -3.20031 2.79044 0
M  V30 1039 O 101.142 -2.6398 2.39151 0
M  V30 1040 O 100.001 -4.21455 3.47905 0
M  V30 1041 H 97.0946 -0.659816 0.49857 0
M  V30 1042 H 99.6406 -0.768106 1.51322 0
M  V30 1043 H 98.4126 -2.06096 3.32626 0
M  V30 1044 H 98.0356 -3.32994 2.17258 0
M  V30 1045 N 99.0327 -1.24633 -0.964593 0
M  V30 1046 C 100.261 -1.11501 -1.74285 0
M  V30 1047 C 100.676 0.332165 -1.85855 0
M  V30 1048 O 100.033 1.22903 -1.34911 0
M  V30 1049 C 100.084 -1.75258 -3.16175 0
M  V30 1050 O 99.8047 -3.14318 -3.05182 0
M  V30 1051 C 101.306 -1.67776 -4.10324 0
M  V30 1052 H 98.5257 -0.389407 -0.546446 0
M  V30 1053 H 101.07 -1.64801 -1.21083 0
M  V30 1054 H 99.2247 -1.25954 -3.66353 0
M  V30 1055 H 99.6387 -3.4551 -3.94618 0
M  V30 1056 H 101.113 -2.17064 -5.0753 0
M  V30 1057 H 101.59 -0.639584 -4.34518 0
M  V30 1058 H 102.196 -2.16522 -3.66058 0
M  V30 1059 N 100.511 1.16574 -1.06058 0
M  V30 1060 C 101.759 1.86677 -0.77434 0
M  V30 1061 C 102.08 1.81959 0.701147 0
M  V30 1062 O 101.35 1.2515 1.50713 0
M  V30 1063 H 99.9298 0.691134 -0.283449 0
M  V30 1064 H 102.592 1.41378 -1.34158 0
M  V30 1065 H 101.688 2.92181 -1.09711 0
M  V30 1066 N 101.989 0.842826 1.3317 0
M  V30 1067 C 103.217 0.454055 2.01856 0
M  V30 1068 C 103.632 -0.94587 1.63397 0
M  V30 1069 O 102.989 -1.61534 0.849302 0
M  V30 1070 C 103.04 0.569715 3.56982 0
M  V30 1071 O 102.761 1.91448 3.94055 0
M  V30 1072 C 104.262 0.178412 4.42941 0
M  V30 1073 H 101.482 0.17979 0.646465 0
M  V30 1074 H 104.026 1.1365 1.70012 0
M  V30 1075 H 102.181 -0.0648587 3.87346 0
M  V30 1076 H 102.595 1.90282 4.88767 0
M  V30 1077 H 104.069 0.310376 5.51127 0
M  V30 1078 H 104.546 -0.880056 4.30293 0
M  V30 1079 H 105.152 0.787579 4.17944 0
M  V30 1080 N 103.467 -1.45747 0.599634 0
M  V30 1081 C 104.415 -2.322 -0.136426 0
M  V30 1082 C 105.409 -1.45497 -0.867583 0
M  V30 1083 O 106.615 -1.62027 -0.78405 0
M  V30 1084 H 102.99 -0.749368 -0.0628588 0
M  V30 1085 H 104.961 -2.92072 0.611281 0
M  V30 1086 C 103.71 -3.28974 -1.12567 0
M  V30 1087 H 103.033 -3.9568 -0.572484 0
M  V30 1088 H 104.473 -3.92212 -1.61077 0
M  V30 1089 C 102.932 -2.55561 -2.19523 0
M  V30 1090 O 103.462 -2.33111 -3.27143 0
M  V30 1091 N 101.668 -2.15832 -1.94589 0
M  V30 1092 H 101.215 -2.3429 -1.07078 0
M  V30 1093 H 101.173 -1.67034 -2.66359 0
M  V30 1094 N 104.945 -0.338344 -1.53925 0
M  V30 1095 C 106.361 0.0137736 -1.59594 0
M  V30 1096 C 106.561 1.49186 -1.35447 0
M  V30 1097 O 105.617 2.24987 -1.14616 0
M  V30 1098 C 106.93 -0.41773 -2.97784 0
M  V30 1099 C 108.478 -0.369633 -3.1081 0
M  V30 1100 C 108.953 -0.776524 -4.51369 0
M  V30 1101 N 110.444 -0.730506 -4.57403 0
M  V30 1102 C 111.179 -1.01736 -5.64303 0
M  V30 1103 N 110.675 -1.3721 -6.79077 0
M  V30 1104 N 112.468 -0.941942 -5.54151 0
M  V30 1105 H 104.619 -1.3012 -1.67876 0
M  V30 1106 H 106.882 -0.530082 -0.78595 0
M  V30 1107 H 106.588 -1.44811 -3.20504 0
M  V30 1108 H 106.462 0.209729 -3.76616 0
M  V30 1109 H 108.849 0.651568 -2.87817 0
M  V30 1110 H 108.93 -1.03223 -2.34049 0
M  V30 1111 H 108.574 -1.79571 -4.75096 0
M  V30 1112 H 108.504 -0.0914649 -5.26521 0
M  V30 1113 H 110.995 -0.468783 -3.74981 0
M  V30 1114 H 111.308 -1.57597 -7.5656 0
M  V30 1115 H 109.653 -1.4105 -6.80536 0
M  V30 1116 H 112.844 -0.664184 -4.63364 0
M  V30 1117 H 113.017 -1.16884 -6.37371 0
M  V30 1118 N 106.423 1.57458 -0.0668435 0
M  V30 1119 C 107.651 1.97624 0.612565 0
M  V30 1120 C 108.066 0.94502 1.63447 0
M  V30 1121 O 107.423 -0.0689276 1.8237 0
M  V30 1122 C 107.474 3.37869 1.28555 0
M  V30 1123 O 107.195 4.3704 0.304557 0
M  V30 1124 C 108.696 3.92882 2.05325 0
M  V30 1125 H 105.916 0.650045 0.166381 0
M  V30 1126 H 108.46 2.04035 -0.137782 0
M  V30 1127 H 106.615 3.3256 1.98702 0
M  V30 1128 H 107.029 5.18565 0.786779 0
M  V30 1129 H 108.503 4.93247 2.47812 0
M  V30 1130 H 108.98 3.29156 2.9078 0
M  V30 1131 H 109.586 4.01577 1.40056 0
M  V30 1132 N 107.901 -0.206675 1.56239 0
M  V30 1133 C 109.147 -0.930218 1.80208 0
M  V30 1134 C 109.48 -1.83387 0.638981 0
M  V30 1135 O 108.755 -1.91119 -0.361066 0
M  V30 1136 C 109.038 -1.75641 3.1436 0
M  V30 1137 C 108.891 -0.878257 4.41142 0
M  V30 1138 C 110.21 -2.73129 3.45092 0
M  V30 1139 H 107.329 -0.336742 0.655571 0
M  V30 1140 H 109.971 -0.198222 1.88963 0
M  V30 1141 H 108.121 -2.38048 3.07027 0
M  V30 1142 H 109.793 -0.269787 4.6051 0
M  V30 1143 H 108.036 -0.184385 4.33408 0
M  V30 1144 H 108.707 -1.49106 5.3148 0
M  V30 1145 H 111.183 -2.20856 3.52649 0
M  V30 1146 H 110.059 -3.28028 4.40101 0
M  V30 1147 H 110.32 -3.51606 2.68003 0
M  V30 1148 N 109.379 -1.50304 -0.473955 0
M  V30 1149 C 110.342 -1.6841 -1.55469 0
M  V30 1150 C 111.342 -0.554905 -1.50922 0
M  V30 1151 O 112.532 -0.821882 -1.53593 0
M  V30 1152 C 109.664 -1.70667 -2.95102 0
M  V30 1153 H 110.857 -2.64828 -1.40733 0
M  V30 1154 H 108.41 -1.39742 -0.700132 0
M  V30 1155 H 109.145 -0.75932 -3.15285 0
M  V30 1156 H 108.93 -2.52698 -2.9981 0
M  V30 1157 H 110.42 -1.8664 -3.73571 0
M  V30 1158 N 110.857 0.726932 -1.39834 0
M  V30 1159 C 112.087 1.51393 -1.40583 0
M  V30 1160 C 112.495 1.892 -0.000740625 0
M  V30 1161 O 111.838 1.55189 0.982951 0
M  V30 1162 C 111.9 2.82588 -2.22226 0
M  V30 1163 C 111.564 2.67169 -3.70769 0
M  V30 1164 C 112.561 2.3518 -4.63666 0
M  V30 1165 C 110.246 2.83788 -4.14451 0
M  V30 1166 C 112.24 2.20002 -5.98229 0
M  V30 1167 C 109.927 2.68229 -5.49087 0
M  V30 1168 C 110.925 2.36382 -6.4079 0
M  V30 1169 O 110.613 2.2093 -7.72946 0
M  V30 1170 H 110.345 0.474168 -0.48181 0
M  V30 1171 H 112.899 0.905247 -1.84376 0
M  V30 1172 H 111.129 3.45746 -1.73195 0
M  V30 1173 H 112.818 3.44247 -2.15055 0
M  V30 1174 H 113.584 2.21984 -4.31217 0
M  V30 1175 H 109.463 3.07566 -3.43401 0
M  V30 1176 H 113.007 1.95067 -6.69772 0
M  V30 1177 H 108.904 2.81006 -5.81125 0
M  V30 1178 H 109.672 2.35937 -7.83757 0
M  V30 1179 N 112.336 1.25143 0.95797 0
M  V30 1180 C 113.752 1.01892 1.22842 0
M  V30 1181 C 113.952 -0.266311 1.99732 0
M  V30 1182 O 113.008 -0.979913 2.3271 0
M  V30 1183 C 114.321 2.24004 2.00606 0
M  V30 1184 C 115.869 2.28731 2.13662 0
M  V30 1185 C 116.344 3.5049 2.94823 0
M  V30 1186 N 117.835 3.50866 3.02403 0
M  V30 1187 C 118.57 4.4174 3.65586 0
M  V30 1188 N 118.066 5.42882 4.30408 0
M  V30 1189 N 119.859 4.29429 3.62694 0
M  V30 1190 H 112.01 2.07718 0.443493 0
M  V30 1191 H 114.273 0.912031 0.258657 0
M  V30 1192 H 113.979 3.17395 1.51503 0
M  V30 1193 H 113.853 2.26907 3.01319 0
M  V30 1194 H 116.24 1.35865 2.61963 0
M  V30 1195 H 116.321 2.29848 1.12265 0
M  V30 1196 H 115.965 4.43676 2.47213 0
M  V30 1197 H 115.895 3.46617 3.96439 0
M  V30 1198 H 118.386 2.777 2.56302 0
M  V30 1199 H 118.699 6.0844 4.76467 0
M  V30 1200 H 117.044 5.46758 4.29047 0
M  V30 1201 H 120.235 3.49643 3.11236 0
M  V30 1202 H 120.408 5.00448 4.1165 0
M  V30 1203 N 113.814 -1.1601 1.06675 0
M  V30 1204 C 115.225 -1.68235 0.809565 0
M  V30 1205 C 115.576 -1.8454 -0.666303 0
M  V30 1206 O 114.701 -1.54374 -1.5165 0
M  V30 1207 C 115.296 -3.05585 1.46299 0
M  V30 1208 C 113.855 -3.54915 1.25349 0
M  V30 1209 C 113.002 -2.30804 1.53703 0
M  V30 1210 H 115.953 -1.00318 1.22971 0
M  V30 1211 H 115.974 -3.70174 0.880431 0
M  V30 1212 H 115.486 -2.93686 2.53713 0
M  V30 1213 H 113.587 -3.72067 0.199261 0
M  V30 1214 H 113.7 -4.36774 1.9689 0
M  V30 1215 H 112.064 -2.36007 0.957739 0
M  V30 1216 H 112.847 -2.21499 2.62284 0
M  V30 1217 N 115.292 -0.849877 -1.32721 0
M  V30 1218 C 116.569 -0.372405 -1.92022 0
M  V30 1219 C 116.949 1.1435 -1.77447 0
M  V30 1220 O 116.297 1.96296 -1.16962 0
M  V30 1221 C 116.507 -0.831482 -3.3895 0
M  V30 1222 C 117.855 -0.845882 -4.16089 0
M  V30 1223 O 118.879 -0.775806 -3.47649 0
M  V30 1224 O 117.738 -0.943753 -5.38289 0
M  V30 1225 H 114.832 -0.107667 -0.819961 0
M  V30 1226 H 117.378 -0.93646 -1.41522 0
M  V30 1227 H 116.15 -1.87448 -3.4348 0
M  V30 1228 H 115.773 -0.24461 -3.96847 0
M  V30 1229 N 116.77 1.45427 -0.607355 0
M  V30 1230 C 117.68 2.34325 0.113463 0
M  V30 1231 C 118.696 1.51226 0.860617 0
M  V30 1232 O 119.872 1.84029 0.818255 0
M  V30 1233 C 116.937 3.28839 1.09844 0
M  V30 1234 C 115.998 4.27844 0.353271 0
M  V30 1235 C 115.231 5.17842 1.29133 0
M  V30 1236 O 115.454 5.11264 2.52913 0
M  V30 1237 O 114.388 5.96713 0.788523 0
M  V30 1238 H 118.214 2.97364 -0.617094 0
M  V30 1239 H 115.799 1.44807 -0.367619 0
M  V30 1240 H 117.681 3.8708 1.66575 0
M  V30 1241 H 116.356 2.68365 1.81003 0
M  V30 1242 H 115.263 3.7322 -0.256494 0
M  V30 1243 H 116.596 4.91173 -0.317822 0
M  V30 1244 N 118.248 0.346503 1.53744 0
M  V30 1245 C 119.664 -0.00530975 1.59599 0
M  V30 1246 C 119.864 -1.48465 1.36236 0
M  V30 1247 O 118.92 -2.24376 1.15808 0
M  V30 1248 C 120.233 0.433516 2.97559 0
M  V30 1249 C 121.781 0.386111 3.10609 0
M  V30 1250 C 122.256 0.800451 4.50951 0
M  V30 1251 N 123.747 0.754753 4.5701 0
M  V30 1252 C 124.482 1.04727 5.63755 0
M  V30 1253 N 123.978 1.4081 6.7834 0
M  V30 1254 N 125.771 0.971316 5.53644 0
M  V30 1255 H 117.922 1.31009 1.67184 0
M  V30 1256 H 120.185 0.534242 0.783128 0
M  V30 1257 H 119.891 1.46509 3.19731 0
M  V30 1258 H 119.765 -0.189753 3.76722 0
M  V30 1259 H 122.152 -0.636295 2.88158 0
M  V30 1260 H 122.233 1.04462 2.33498 0
M  V30 1261 H 121.877 1.82088 4.74137 0
M  V30 1262 H 121.807 0.119386 5.26465 0
M  V30 1263 H 124.298 0.488662 3.74727 0
M  V30 1264 H 124.611 1.61607 7.55714 0
M  V30 1265 H 122.956 1.44657 6.79779 0
M  V30 1266 H 126.147 0.688748 4.63005 0
M  V30 1267 H 126.32 1.20263 6.36742 0
M  V30 1268 N 119.726 -1.57421 0.075193 0
M  V30 1269 C 120.973 -1.93618 -0.593146 0
M  V30 1270 C 121.301 -0.955484 -1.69413 0
M  V30 1271 O 120.556 0.0283251 -1.9568 0
M  V30 1272 C 120.855 -3.36428 -1.20626 0
M  V30 1273 C 120.521 -4.50307 -0.231078 0
M  V30 1274 C 119.183 -4.81186 0.0371936 0
M  V30 1275 C 121.535 -5.19374 0.435888 0
M  V30 1276 C 118.863 -5.78466 0.979461 0
M  V30 1277 C 121.215 -6.17665 1.3665 0
M  V30 1278 C 119.879 -6.46958 1.6432 0
M  V30 1279 H 119.149 -0.708499 -0.217047 0
M  V30 1280 H 121.796 -1.90937 0.146793 0
M  V30 1281 H 120.101 -3.35592 -2.02201 0
M  V30 1282 H 121.798 -3.61727 -1.73073 0
M  V30 1283 H 118.388 -4.26227 -0.450357 0
M  V30 1284 H 122.572 -4.95711 0.241748 0
M  V30 1285 H 117.828 -5.99487 1.20106 0
M  V30 1286 H 122.002 -6.70284 1.88924 0
M  V30 1287 H 119.629 -7.2215 2.37494 0
M  V30 1288 N 121.204 0.198386 -1.56346 0
M  V30 1289 C 122.167 1.22952 -1.93431 0
M  V30 1290 C 123.167 1.38611 -0.815092 0
M  V30 1291 O 124.357 1.36479 -1.08255 0
M  V30 1292 C 121.489 2.59946 -2.20546 0
M  V30 1293 H 122.682 0.912626 -2.85677 0
M  V30 1294 H 120.235 0.43977 -1.49986 0
M  V30 1295 H 120.97 2.96696 -1.30927 0
M  V30 1296 H 120.755 2.49953 -3.02102 0
M  V30 1297 H 122.245 3.3431 -2.50253 0
M  V30 1298 N 122.682 1.50554 0.465978 0
M  V30 1299 C 123.929 1.61798 1.21768 0
M  V30 1300 C 124.257 0.320696 1.91838 0
M  V30 1301 O 123.512 -0.693724 1.82992 0
M  V30 1302 C 123.811 2.75152 2.28093 0
M  V30 1303 C 123.477 4.15454 1.75239 0
M  V30 1304 C 122.139 4.53628 1.60546 0
M  V30 1305 C 124.491 5.03121 1.36083 0
M  V30 1306 C 121.819 5.77204 1.05128 0
M  V30 1307 C 124.171 6.27249 0.821056 0
M  V30 1308 C 122.835 6.64221 0.660795 0
M  V30 1309 H 122.105 0.592063 0.445582 0
M  V30 1310 H 124.752 1.84503 0.512927 0
M  V30 1311 H 123.057 2.46556 3.04496 0
M  V30 1312 H 124.754 2.81055 2.86023 0
M  V30 1313 H 121.344 3.85341 1.87644 0
M  V30 1314 H 125.528 4.74257 1.46267 0
M  V30 1315 H 120.784 6.0452 0.91462 0
M  V30 1316 H 124.958 6.94537 0.509018 0
M  V30 1317 H 122.585 7.59854 0.229226 0
M  V30 1318 N 124.16 -0.719506 1.40217 0
M  V30 1319 C 125.123 -1.8153 1.39927 0
M  V30 1320 C 126.123 -1.58095 0.293723 0
M  V30 1321 O 127.313 -1.65209 0.552429 0
M  V30 1322 C 124.445 -3.19561 1.18716 0
M  V30 1323 H 125.638 -1.83186 2.37451 0
M  V30 1324 H 123.191 -0.924746 1.26008 0
M  V30 1325 H 123.926 -3.23557 0.219366 0
M  V30 1326 H 123.711 -3.3797 1.98793 0
M  V30 1327 H 125.201 -3.99598 1.21291 0
M  V30 1328 N 125.638 -1.25649 -0.95132 0
M  V30 1329 C 126.863 -1.13443 -1.73624 0
M  V30 1330 C 127.288 0.307565 -1.85568 0
M  V30 1331 O 126.646 1.22282 -1.33854 0
M  V30 1332 C 126.694 -1.79723 -3.12621 0
M  V30 1333 O 125.798 -1.07912 -3.98031 0
M  V30 1334 H 125.139 -0.395872 -0.533086 0
M  V30 1335 H 127.669 -1.66276 -1.1922 0
M  V30 1336 H 127.679 -1.86141 -3.63064 0
M  V30 1337 H 126.354 -2.84633 -3.03244 0
M  V30 1338 H 124.931 -1.09398 -3.56492 0
M  V30 1339 N 127.117 1.15442 -1.07289 0
M  V30 1340 C 128.345 1.90096 -0.81676 0
M  V30 1341 C 128.76 1.7798 0.629966 0
M  V30 1342 O 128.117 1.1313 1.43206 0
M  V30 1343 C 128.168 3.40466 -1.21512 0
M  V30 1344 O 127.889 3.52232 -2.60508 0
M  V30 1345 C 129.39 4.32145 -0.988198 0
M  V30 1346 H 126.61 0.602495 -0.295366 0
M  V30 1347 H 129.154 1.4627 -1.42918 0
M  V30 1348 H 127.309 3.81958 -0.647039 0
M  V30 1349 H 127.723 4.45549 -2.76742 0
M  V30 1350 H 129.197 5.36072 -1.31645 0
M  V30 1351 H 129.674 4.39135 0.0755063 0
M  V30 1352 H 130.28 3.96395 -1.54115 0
M  V30 1353 N 128.595 0.856903 1.32268 0
M  V30 1354 C 129.844 0.457599 1.96441 0
M  V30 1355 C 130.157 -0.992426 1.68553 0
M  V30 1356 O 131.363 -1.49727 2.26482 0
M  V30 1357 C 129.819 0.767358 3.51624 0
M  V30 1358 C 129.427 2.23326 3.88367 0
M  V30 1359 C 131.171 0.435887 4.22256 0
M  V30 1360 C 129.078 2.48613 5.36606 0
M  V30 1361 H 128.008 0.167387 0.735185 0
M  V30 1362 H 130.659 1.048 1.5063 0
M  V30 1363 H 129.041 0.106367 3.95857 0
M  V30 1364 H 130.215 2.93623 3.55137 0
M  V30 1365 H 128.53 2.52948 3.30766 0
M  V30 1366 H 131.127 0.602202 5.31298 0
M  V30 1367 H 131.47 -0.622672 4.11617 0
M  V30 1368 H 132.003 1.05286 3.83614 0
M  V30 1369 H 128.742 3.53101 5.52268 0
M  V30 1370 H 128.262 1.82896 5.71235 0
M  V30 1371 H 129.941 2.32676 6.03714 0
M  V30 1372 N 130.073 -1.45103 0.615059 0
M  V30 1373 C 131.02 -2.30586 -0.0993978 0
M  V30 1374 C 131.99 -1.42544 -0.852669 0
M  V30 1375 O 133.175 -1.71465 -0.836917 0
M  V30 1376 C 130.315 -3.27572 -1.08583 0
M  V30 1377 C 129.428 -4.30717 -0.332656 0
M  V30 1378 C 128.563 -5.14807 -1.30947 0
M  V30 1379 C 127.602 -6.09673 -0.544538 0
M  V30 1380 N 126.739 -6.86517 -1.47101 0
M  V30 1381 H 131.579 -2.91144 0.635542 0
M  V30 1382 H 129.116 -1.4346 0.325206 0
M  V30 1383 H 131.074 -3.82276 -1.67095 0
M  V30 1384 H 129.704 -2.68751 -1.78809 0
M  V30 1385 H 128.756 -3.78615 0.368107 0
M  V30 1386 H 130.068 -4.98102 0.263842 0
M  V30 1387 H 129.222 -5.73948 -1.96643 0
M  V30 1388 H 127.961 -4.47458 -1.9399 0
M  V30 1389 H 126.966 -5.49656 0.126003 0
M  V30 1390 H 128.191 -6.79052 0.080947 0
M  V30 1391 H 126.137 -6.21851 -2.08895 0
M  V30 1392 H 126.054 -7.50281 -0.928137 0
M  V30 1393 H 127.322 -7.50194 -2.11731 0
M  V30 1394 N 131.551 -0.354651 -1.53558 0
M  V30 1395 C 132.514 0.484566 -2.24019 0
M  V30 1396 C 133.514 1.01861 -1.24422 0
M  V30 1397 O 134.704 0.906097 -1.4878 0
M  V30 1398 C 131.836 1.67615 -2.96847 0
M  V30 1399 H 133.029 -0.131843 -2.9961 0
M  V30 1400 H 130.582 -0.106165 -1.55939 0
M  V30 1401 H 131.317 2.33095 -2.25471 0
M  V30 1402 H 131.102 1.30029 -3.69912 0
M  V30 1403 H 132.592 2.27114 -3.50441 0
M  V30 1404 N 133.029 1.57378 -0.0835403 0
M  V30 1405 C 133.959 2.1641 0.87686 0
M  V30 1406 C 134.94 1.09429 1.30228 0
M  V30 1407 O 136.125 1.37516 1.37124 0
M  V30 1408 C 133.255 2.73517 2.14022 0
M  V30 1409 C 132.209 3.85769 1.85381 0
M  V30 1410 C 131.535 4.29529 3.18448 0
M  V30 1411 C 132.835 5.09486 1.14984 0
M  V30 1412 H 134.529 2.96914 0.385059 0
M  V30 1413 H 132.075 1.42823 0.18377 0
M  V30 1414 H 134.028 3.13463 2.81636 0
M  V30 1415 H 132.752 1.90252 2.65465 0
M  V30 1416 H 131.411 3.46345 1.20169 0
M  V30 1417 H 131.059 3.43169 3.67755 0
M  V30 1418 H 130.759 5.05204 3.00071 0
M  V30 1419 H 132.283 4.72099 3.8724 0
M  V30 1420 H 133.697 5.46674 1.72687 0
M  V30 1421 H 132.094 5.90515 1.06826 0
M  V30 1422 H 133.164 4.84724 0.130749 0
M  V30 1423 N 134.507 -0.190092 1.56449 0
M  V30 1424 C 135.735 -0.925772 1.85033 0
M  V30 1425 C 136.15 -1.76638 0.666658 0
M  V30 1426 O 135.507 -1.78822 -0.364565 0
M  V30 1427 C 135.558 -1.81786 3.12468 0
M  V30 1428 O 135.279 -1.01118 4.26271 0
M  V30 1429 C 136.78 -2.6648 3.54265 0
M  V30 1430 H 134 -0.269872 0.614337 0
M  V30 1431 H 136.544 -0.195837 2.0356 0
M  V30 1432 H 134.699 -2.50136 2.95822 0
M  V30 1433 H 135.113 -1.61956 4.98869 0
M  V30 1434 H 136.587 -3.24722 4.46385 0
M  V30 1435 H 137.064 -3.40434 2.77491 0
M  V30 1436 H 137.67 -2.03493 3.73458 0
M  V30 1437 N 135.985 -1.50799 -0.457987 0
M  V30 1438 C 137.231 -1.62683 -1.21088 0
M  V30 1439 C 137.564 -0.332268 -1.91336 0
M  V30 1440 O 136.839 0.667043 -1.82704 0
M  V30 1441 C 137.122 -2.81615 -2.24422 0
M  V30 1442 C 136.975 -4.20989 -1.58392 0
M  V30 1443 C 138.294 -2.96085 -3.2561 0
M  V30 1444 H 135.413 -0.592087 -0.438864 0
M  V30 1445 H 138.055 -1.83225 -0.50286 0
M  V30 1446 H 136.205 -2.64231 -2.84806 0
M  V30 1447 H 137.877 -4.49994 -1.01504 0
M  V30 1448 H 136.12 -4.24641 -0.886704 0
M  V30 1449 H 136.791 -5.0016 -2.33547 0
M  V30 1450 H 139.267 -3.12042 -2.75262 0
M  V30 1451 H 138.143 -3.80902 -3.95228 0
M  V30 1452 H 138.404 -2.0726 -3.90507 0
M  V30 1453 N 137.463 0.71206 -1.40597 0
M  V30 1454 C 138.711 1.46907 -1.38791 0
M  V30 1455 C 139.032 1.94998 0.00780391 0
M  V30 1456 O 138.302 1.70587 0.963174 0
M  V30 1457 H 136.882 0.545043 -0.51082 0
M  V30 1458 H 139.544 0.843882 -1.75683 0
M  V30 1459 H 138.64 2.34021 -2.06496 0
M  V30 1460 N 138.941 1.26152 0.944643 0
M  V30 1461 C 140.187 1.11657 1.69294 0
M  V30 1462 C 140.52 -0.339926 1.91202 0
M  V30 1463 O 139.795 -1.24994 1.49019 0
M  V30 1464 C 140.078 1.88236 3.06984 0
M  V30 1465 C 139.931 3.41772 2.92424 0
M  V30 1466 C 141.25 1.67343 4.07043 0
M  V30 1467 H 138.369 0.407004 0.614424 0
M  V30 1468 H 141.011 1.55106 1.09737 0
M  V30 1469 H 139.161 1.51308 3.57824 0
M  V30 1470 H 140.833 3.88433 2.48832 0
M  V30 1471 H 139.076 3.68974 2.28124 0
M  V30 1472 H 139.747 3.90579 3.90067 0
M  V30 1473 H 142.223 1.99509 3.65151 0
M  V30 1474 H 141.099 2.23346 5.01406 0
M  V30 1475 H 141.36 0.617158 4.37771 0
M  V30 1476 N 140.419 -1.14872 1.07899 0
M  V30 1477 C 141.349 -2.2193 0.725887 0
M  V30 1478 C 142.33 -1.67622 -0.28927 0
M  V30 1479 O 143.515 -1.93533 -0.160787 0
M  V30 1480 C 140.645 -3.47061 0.128856 0
M  V30 1481 C 139.599 -4.14363 1.07178 0
M  V30 1482 C 138.925 -5.33636 0.337229 0
M  V30 1483 C 140.225 -4.63492 2.40775 0
M  V30 1484 H 141.919 -2.51724 1.62097 0
M  V30 1485 H 139.465 -1.20991 0.780838 0
M  V30 1486 H 141.418 -4.21199 -0.130147 0
M  V30 1487 H 140.142 -3.16617 -0.80134 0
M  V30 1488 H 138.801 -3.42173 1.3158 0
M  V30 1489 H 138.449 -4.99449 -0.596606 0
M  V30 1490 H 138.149 -5.79609 0.965788 0
M  V30 1491 H 139.673 -6.10539 0.0861567 0
M  V30 1492 H 141.087 -5.2913 2.20669 0
M  V30 1493 H 139.484 -5.20148 2.99276 0
M  V30 1494 H 140.554 -3.78834 3.02676 0
M  V30 1495 N 141.898 -0.863906 -1.31812 0
M  V30 1496 C 142.828 -0.330843 -2.31144 0
M  V30 1497 C 143.809 0.575005 -1.60087 0
M  V30 1498 O 144.994 0.493304 -1.8783 0
M  V30 1499 C 142.124 0.47374 -3.44054 0
M  V30 1500 C 141.078 -0.338481 -4.26659 0
M  V30 1501 C 140.404 0.591412 -5.31419 0
M  V30 1502 C 141.704 -1.56926 -4.98168 0
M  V30 1503 H 143.398 -1.16086 -2.75979 0
M  V30 1504 H 140.944 -0.559657 -1.32679 0
M  V30 1505 H 142.897 0.857143 -4.12591 0
M  V30 1506 H 141.621 1.33721 -2.9797 0
M  V30 1507 H 140.28 -0.703754 -3.59782 0
M  V30 1508 H 139.928 1.45199 -4.81587 0
M  V30 1509 H 139.628 0.0519022 -5.87577 0
M  V30 1510 H 141.152 0.97179 -6.02817 0
M  V30 1511 H 142.566 -1.25764 -5.59336 0
M  V30 1512 H 140.963 -2.04739 -5.64094 0
M  V30 1513 H 142.033 -2.32544 -4.25501 0
M  V30 1514 N 143.376 1.44774 -0.622745 0
M  V30 1515 C 144.308 2.28856 0.125485 0
M  V30 1516 C 145.321 1.40811 0.817069 0
M  V30 1517 O 146.51 1.65044 0.679918 0
M  V30 1518 C 143.61 3.16963 1.19949 0
M  V30 1519 C 142.783 4.33374 0.592064 0
M  V30 1520 C 141.842 5.02577 1.55893 0
M  V30 1521 O 140.868 5.58873 1.07933 0
M  V30 1522 N 142.07 5.03256 2.89334 0
M  V30 1523 H 144.835 2.93713 -0.596068 0
M  V30 1524 H 142.396 1.55129 -0.463303 0
M  V30 1525 H 144.388 3.60123 1.84644 0
M  V30 1526 H 142.958 2.53913 1.82337 0
M  V30 1527 H 142.178 3.93509 -0.233322 0
M  V30 1528 H 143.466 5.08527 0.166738 0
M  V30 1529 H 142.864 4.58836 3.30887 0
M  V30 1530 H 141.421 5.50232 3.49412 0
M  V30 1531 N 144.854 0.36279 1.53368 0
M  V30 1532 C 145.786 -0.519668 2.23231 0
M  V30 1533 C 146.799 -1.04844 1.24546 0
M  V30 1534 O 147.988 -0.955296 1.50786 0
M  V30 1535 C 145.088 -1.72995 2.9142 0
M  V30 1536 C 144.261 -1.33316 4.16588 0
M  V30 1537 C 143.32 -2.40521 4.68013 0
M  V30 1538 O 142.346 -2.03027 5.3176 0
M  V30 1539 N 143.548 -3.72065 4.45587 0
M  V30 1540 H 146.313 0.078751 2.99597 0
M  V30 1541 H 143.874 0.187833 1.60807 0
M  V30 1542 H 145.866 -2.44184 3.22733 0
M  V30 1543 H 144.436 -2.2353 2.18525 0
M  V30 1544 H 143.656 -0.451236 3.91609 0
M  V30 1545 H 144.944 -1.04432 4.97967 0
M  V30 1546 H 144.342 -4.05304 3.94646 0
M  V30 1547 H 142.899 -4.39366 4.81457 0
M  V30 1548 N 146.332 -1.57332 0.0918853 0
M  V30 1549 C 147.279 -2.13847 -0.868211 0
M  V30 1550 C 148.249 -1.05618 -1.28196 0
M  V30 1551 O 149.434 -1.33387 -1.36427 0
M  V30 1552 C 146.574 -2.72062 -2.12312 0
M  V30 1553 C 145.687 -3.94514 -1.7602 0
M  V30 1554 C 144.822 -4.40903 -2.96273 0
M  V30 1555 C 143.861 -5.55953 -2.56092 0
M  V30 1556 N 142.998 -5.97209 -3.69169 0
M  V30 1557 H 147.838 -2.95575 -0.379406 0
M  V30 1558 H 145.375 -1.46048 -0.175606 0
M  V30 1559 H 147.333 -3.03931 -2.858 0
M  V30 1560 H 145.963 -1.93068 -2.58698 0
M  V30 1561 H 145.015 -3.68979 -0.925135 0
M  V30 1562 H 146.327 -4.7802 -1.42472 0
M  V30 1563 H 145.481 -4.74539 -3.78018 0
M  V30 1564 H 144.22 -3.56291 -3.33029 0
M  V30 1565 H 143.225 -5.21948 -1.72773 0
M  V30 1566 H 144.45 -6.42311 -2.20484 0
M  V30 1567 H 142.396 -5.15543 -4.05649 0
M  V30 1568 H 142.313 -6.75504 -3.39456 0
M  V30 1569 H 143.581 -6.35475 -4.51434 0
M  V30 1570 N 147.81 0.181792 -1.56548 0
M  V30 1571 C 149.035 0.920019 -1.85877 0
M  V30 1572 C 149.46 1.75494 -0.677021 0
M  V30 1573 O 148.818 1.77399 0.374056 0
M  V30 1574 C 148.866 1.78112 -3.13542 0
M  V30 1575 O 147.97 2.88152 -2.95029 0
M  V30 1576 H 147.311 0.258334 -0.611686 0
M  V30 1577 H 149.841 0.183092 -2.03779 0
M  V30 1578 H 149.851 2.18314 -3.44678 0
M  V30 1579 H 148.526 1.16777 -3.99169 0
M  V30 1580 H 147.103 2.51609 -2.75222 0
M  V30 1581 N 149.288 1.51039 0.449983 0
M  V30 1582 C 150.537 1.62317 1.19733 0
M  V30 1583 C 150.85 0.339101 1.92638 0
M  V30 1584 O 152.056 0.331069 2.69474 0
M  V30 1585 C 150.512 2.86608 2.17678 0
M  V30 1586 C 150.12 4.21972 1.50479 0
M  V30 1587 C 151.864 3.07239 2.92924 0
M  V30 1588 C 149.771 5.37426 2.46834 0
M  V30 1589 H 148.701 0.604532 0.450619 0
M  V30 1590 H 151.352 1.77494 0.465625 0
M  V30 1591 H 149.734 2.65037 2.94231 0
M  V30 1592 H 150.908 4.53878 0.795716 0
M  V30 1593 H 149.223 4.07117 0.874344 0
M  V30 1594 H 151.82 3.90668 3.65079 0
M  V30 1595 H 152.163 2.19807 3.5354 0
M  V30 1596 H 152.696 3.29091 2.23481 0
M  V30 1597 H 149.435 6.27079 1.90926 0
M  V30 1598 H 148.955 5.09912 3.15832 0
M  V30 1599 H 150.634 5.68862 3.08228 0
M  V30 1600 N 150.766 -0.704594 1.40972 0
M  V30 1601 C 151.676 -1.84856 1.44448 0
M  V30 1602 C 152.692 -1.70726 0.335961 0
M  V30 1603 O 153.868 -1.92799 0.582276 0
M  V30 1604 C 150.933 -3.20758 1.31587 0
M  V30 1605 C 149.994 -3.47063 2.52677 0
M  V30 1606 C 149.227 -4.76481 2.4042 0
M  V30 1607 O 149.45 -5.52341 1.42391 0
M  V30 1608 O 148.384 -5.03367 3.30007 0
M  V30 1609 H 152.21 -1.8488 2.40942 0
M  V30 1610 H 149.795 -0.85647 1.22413 0
M  V30 1611 H 151.677 -4.01913 1.26665 0
M  V30 1612 H 150.352 -3.21438 0.382049 0
M  V30 1613 H 149.259 -2.65873 2.63177 0
M  V30 1614 H 150.592 -3.5119 3.44858 0
M  V30 1615 N 152.244 -1.26651 -0.937939 0
M  V30 1616 C 153.521 -1.0313 -1.66204 0
M  V30 1617 C 153.901 0.437256 -2.06522 0
M  V30 1618 O 153.249 1.41831 -1.79154 0
M  V30 1619 C 153.459 -1.98314 -2.87181 0
M  V30 1620 C 154.807 -2.27107 -3.58758 0
M  V30 1621 O 155.831 -1.96205 -2.97291 0
M  V30 1622 O 154.69 -2.79736 -4.69479 0
M  V30 1623 H 151.784 -0.392384 -0.727986 0
M  V30 1624 H 154.33 -1.37874 -0.989382 0
M  V30 1625 H 153.102 -2.97399 -2.54302 0
M  V30 1626 H 152.725 -1.64068 -3.6217 0
M  V30 1627 N 153.722 1.14298 -1.08507 0
M  V30 1628 C 154.652 2.21542 -0.737646 0
M  V30 1629 C 155.633 1.67773 0.280377 0
M  V30 1630 O 156.818 1.93616 0.150521 0
M  V30 1631 C 153.948 3.46988 -0.147259 0
M  V30 1632 C 152.902 4.13789 -1.09374 0
M  V30 1633 C 152.228 5.33449 -0.365524 0
M  V30 1634 C 153.528 4.62208 -2.4323 0
M  V30 1635 H 155.222 2.5086 -1.6343 0
M  V30 1636 H 152.768 1.20576 -0.787243 0
M  V30 1637 H 154.721 4.21262 0.107808 0
M  V30 1638 H 153.445 3.17037 0.784538 0
M  V30 1639 H 152.104 3.4147 -1.33393 0
M  V30 1640 H 151.752 4.99759 0.57011 0
M  V30 1641 H 151.452 5.79088 -0.996512 0
M  V30 1642 H 152.976 6.10485 -0.118534 0
M  V30 1643 H 154.39 5.27952 -2.23472 0
M  V30 1644 H 152.787 5.18553 -3.02031 0
M  V30 1645 H 153.857 3.77224 -3.04681 0
M  V30 1646 N 155.201 0.870884 1.31352 0
M  V30 1647 C 156.149 0.316445 2.30437 0
M  V30 1648 C 157.143 -0.568965 1.59559 0
M  V30 1649 O 158.349 -0.454964 1.74155 0
M  V30 1650 H 154.724 0.0836521 0.747333 0
M  V30 1651 H 156.695 1.16606 2.74673 0
M  V30 1652 C 155.444 -0.46635 3.44558 0
M  V30 1653 H 154.767 0.205687 3.99271 0
M  V30 1654 H 156.207 -0.819614 4.16003 0
M  V30 1655 C 154.666 -1.65797 2.9328 0
M  V30 1656 O 155.196 -2.75728 2.92125 0
M  V30 1657 N 153.402 -1.49041 2.4947 0
M  V30 1658 H 152.949 -0.59612 2.50608 0
M  V30 1659 H 152.907 -2.28911 2.15516 0
M  V30 1660 N 156.679 -1.44442 0.630414 0
M  V30 1661 C 157.611 -2.2892 -0.113347 0
M  V30 1662 C 158.624 -1.41243 -0.80959 0
M  V30 1663 O 159.813 -1.65402 -0.671156 0
M  V30 1664 C 156.913 -3.17594 -1.18266 0
M  V30 1665 C 156.086 -4.33682 -0.569073 0
M  V30 1666 C 155.145 -5.03397 -1.53226 0
M  V30 1667 O 154.171 -5.59438 -1.04967 0
M  V30 1668 N 155.373 -5.04783 -2.86661 0
M  V30 1669 H 158.138 -2.93392 0.611636 0
M  V30 1670 H 155.699 -1.54881 0.471523 0
M  V30 1671 H 157.691 -3.61097 -1.82732 0
M  V30 1672 H 156.261 -2.54876 -1.80988 0
M  V30 1673 H 155.481 -3.9338 0.254187 0
M  V30 1674 H 156.769 -5.08608 -0.139767 0
M  V30 1675 H 156.167 -4.60584 -3.28449 0
M  V30 1676 H 154.724 -5.52077 -3.46489 0
M  V30 1677 N 158.157 -0.370918 -1.53173 0
M  V30 1678 C 159.573 -0.0200818 -1.59587 0
M  V30 1679 C 159.773 1.46279 -1.38581 0
M  V30 1680 O 158.829 2.22506 -1.19363 0
M  V30 1681 C 160.142 -0.4808 -2.96831 0
M  V30 1682 C 161.69 -0.435477 -3.09956 0
M  V30 1683 C 162.165 -0.872092 -4.4962 0
M  V30 1684 N 163.656 -0.827364 -4.55751 0
M  V30 1685 C 164.391 -1.13683 -5.62018 0
M  V30 1686 N 163.887 -1.51584 -6.76014 0
M  V30 1687 N 165.68 -1.05927 -5.52029 0
M  V30 1688 H 157.831 -1.33652 -1.65079 0
M  V30 1689 H 160.094 -0.546634 -0.774529 0
M  V30 1690 H 159.8 -1.51577 -3.1736 0
M  V30 1691 H 159.674 0.129796 -3.76977 0
M  V30 1692 H 162.061 0.590371 -2.89134 0
M  V30 1693 H 162.142 -1.08164 -2.31806 0
M  V30 1694 H 161.786 -1.89608 -4.71181 0
M  V30 1695 H 161.716 -0.203127 -5.26208 0
M  V30 1696 H 164.207 -0.548216 -3.73902 0
M  V30 1697 H 164.52 -1.73609 -7.53047 0
M  V30 1698 H 162.865 -1.55454 -6.77391 0
M  V30 1699 H 166.056 -0.762321 -4.61851 0
M  V30 1700 H 166.229 -1.30378 -6.34749 0
M  V30 1701 N 159.635 1.57281 -0.100228 0
M  V30 1702 C 160.884 1.93713 0.561984 0
M  V30 1703 C 161.197 0.984492 1.69018 0
M  V30 1704 O 162.403 1.24273 2.41389 0
M  V30 1705 C 160.859 3.4421 1.05106 0
M  V30 1706 C 160.467 4.47975 -0.0476628 0
M  V30 1707 C 162.211 3.89595 1.68571 0
M  V30 1708 C 160.118 5.89631 0.457055 0
M  V30 1709 H 159.048 0.723082 0.2137 0
M  V30 1710 H 161.699 1.82644 -0.177057 0
M  V30 1711 H 160.081 3.50449 1.84395 0
M  V30 1712 H 161.255 4.53385 -0.823333 0
M  V30 1713 H 159.57 4.1223 -0.587816 0
M  V30 1714 H 162.167 4.92832 2.07414 0
M  V30 1715 H 162.51 3.28526 2.55688 0
M  V30 1716 H 163.043 3.86078 0.958562 0
M  V30 1717 H 159.782 6.54411 -0.377616 0
M  V30 1718 H 159.302 5.87681 1.19962 0
M  V30 1719 H 160.981 6.40363 0.92437 0
M  V30 1720 N 161.113 -0.173488 1.56642 0
M  V30 1721 C 162.341 -0.906095 1.86004 0
M  V30 1722 C 162.756 -1.75921 0.685355 0
M  V30 1723 O 162.113 -1.79198 -0.345578 0
M  V30 1724 C 162.164 -1.78462 3.14378 0
M  V30 1725 O 161.885 -0.965914 4.27319 0
M  V30 1726 C 163.386 -2.62707 3.57071 0
M  V30 1727 H 160.606 -0.263341 0.617165 0
M  V30 1728 H 163.15 -0.174236 2.03756 0
M  V30 1729 H 161.305 -2.46984 2.98459 0
M  V30 1730 H 161.719 -1.56655 5.00559 0
M  V30 1731 H 163.193 -3.19969 4.49804 0
M  V30 1732 H 163.67 -3.37472 2.81086 0
M  V30 1733 H 164.276 -1.99521 3.75595 0
M  V30 1734 N 162.591 -1.51276 -0.441967 0
M  V30 1735 C 163.821 -1.67273 -1.21257 0
M  V30 1736 C 164.229 -0.367624 -1.85594 0
M  V30 1737 O 163.572 0.663349 -1.71305 0
M  V30 1738 C 163.634 -2.72807 -2.34129 0
M  V30 1739 C 163.298 -4.1554 -1.90198 0
M  V30 1740 C 164.295 -5.00471 -1.40801 0
M  V30 1741 C 161.98 -4.61616 -1.9803 0
M  V30 1742 C 163.974 -6.29536 -0.998174 0
M  V30 1743 C 161.661 -5.90679 -1.56658 0
M  V30 1744 C 162.659 -6.74466 -1.07633 0
M  V30 1745 O 162.347 -8.01116 -0.668459 0
M  V30 1746 H 162.079 -0.564614 -0.371734 0
M  V30 1747 H 164.633 -1.9843 -0.530521 0
M  V30 1748 H 162.863 -2.36954 -3.05597 0
M  V30 1749 H 164.552 -2.77729 -2.96009 0
M  V30 1750 H 165.318 -4.66079 -1.34148 0
M  V30 1751 H 161.197 -3.96526 -2.35135 0
M  V30 1752 H 164.741 -6.94885 -0.61482 0
M  V30 1753 H 160.638 -6.24586 -1.62979 0
M  V30 1754 H 161.406 -8.14633 -0.794722 0
M  V30 1755 N 164.069 0.697108 -1.41344 0
M  V30 1756 C 165.297 1.48593 -1.43972 0
M  V30 1757 C 165.712 1.88747 -0.0445612 0
M  V30 1758 O 165.069 1.56682 0.935785 0
M  V30 1759 C 165.12 2.74946 -2.34706 0
M  V30 1760 O 164.841 2.36484 -3.68791 0
M  V30 1761 C 166.342 3.687 -2.46121 0
M  V30 1762 H 163.562 0.457964 -0.490418 0
M  V30 1763 H 166.106 0.858429 -1.8561 0
M  V30 1764 H 164.261 3.33937 -1.9638 0
M  V30 1765 H 164.675 3.17918 -4.17167 0
M  V30 1766 H 166.149 4.54145 -3.13777 0
M  V30 1767 H 166.626 4.13081 -1.49199 0
M  V30 1768 H 167.232 3.15613 -2.85076 0
M  V30 1769 N 165.547 1.27147 0.931209 0
M  V30 1770 C 166.963 1.04475 1.20653 0
M  V30 1771 C 167.163 -0.223885 2.00252 0
M  V30 1772 O 166.219 -0.930332 2.34736 0
M  V30 1773 C 167.532 2.28209 1.95809 0
M  V30 1774 C 169.08 2.33211 2.08762 0
M  V30 1775 C 169.555 3.56665 2.87323 0
M  V30 1776 N 171.046 3.57201 2.94892 0
M  V30 1777 C 171.781 4.49395 3.56134 0
M  V30 1778 N 171.277 5.51889 4.18796 0
M  V30 1779 N 173.07 4.37026 3.53504 0
M  V30 1780 H 165.221 2.08612 0.399333 0
M  V30 1781 H 167.484 0.917312 0.239253 0
M  V30 1782 H 167.19 3.20538 1.44736 0
M  V30 1783 H 167.064 2.33247 2.96438 0
M  V30 1784 H 169.451 1.41391 2.59023 0
M  V30 1785 H 169.532 2.32178 1.07364 0
M  V30 1786 H 169.176 4.4882 2.37746 0
M  V30 1787 H 169.106 3.54948 3.88998 0
M  V30 1788 H 171.597 2.83074 2.50354 0
M  V30 1789 H 171.91 6.18409 4.63454 0
M  V30 1790 H 170.255 5.55735 4.17353 0
M  V30 1791 H 173.446 3.56166 3.03749 0
M  V30 1792 H 173.619 5.09067 4.00942 0
M  V30 1793 N 167.025 -1.13721 1.09112 0
M  V30 1794 C 168.302 -1.81155 0.737706 0
M  V30 1795 C 168.682 -1.96253 -0.777683 0
M  V30 1796 O 168.03 -1.52807 -1.69889 0
M  V30 1797 C 168.24 -3.16392 1.47299 0
M  V30 1798 C 169.588 -3.91787 1.63671 0
M  V30 1799 O 170.612 -3.26005 1.43524 0
M  V30 1800 O 169.471 -5.0977 1.96969 0
M  V30 1801 H 166.565 -0.783518 0.26463 0
M  V30 1802 H 169.111 -1.20676 1.19312 0
M  V30 1803 H 167.883 -3.0061 2.50498 0
M  V30 1804 H 167.506 -3.8457 1.00953 0
M  V30 1805 N 168.503 -0.877838 -1.30888 0
M  V30 1806 C 169.78 -0.413052 -1.91189 0
M  V30 1807 C 170.16 1.1056 -1.79832 0
M  V30 1808 O 169.508 1.93771 -1.21099 0
M  V30 1809 C 169.718 -0.903191 -3.3711 0
M  V30 1810 C 171.066 -0.93395 -4.14201 0
M  V30 1811 O 172.09 -0.849373 -3.45925 0
M  V30 1812 O 170.949 -1.05772 -5.36167 0
M  V30 1813 H 168.043 -0.125035 -0.817493 0
M  V30 1814 H 170.589 -0.966269 -1.39504 0
M  V30 1815 H 169.361 -1.94692 -3.39427 0
M  V30 1816 H 168.984 -0.328732 -3.96239 0
M  V30 1817 N 169.982 1.44106 -0.638065 0
M  V30 1818 C 170.912 2.33448 0.0494287 0
M  V30 1819 C 171.893 1.48606 0.827672 0
M  V30 1820 O 173.078 1.77308 0.792173 0
M  V30 1821 C 170.208 3.31771 1.02691 0
M  V30 1822 C 169.162 4.26485 0.359823 0
M  V30 1823 C 168.488 5.14729 1.44769 0
M  V30 1824 C 169.788 5.17056 -0.738296 0
M  V30 1825 H 171.482 2.91183 -0.696636 0
M  V30 1826 H 169.028 1.40014 -0.336456 0
M  V30 1827 H 170.981 3.93161 1.51666 0
M  V30 1828 H 169.705 2.7226 1.80395 0
M  V30 1829 H 168.364 3.66437 -0.10934 0
M  V30 1830 H 168.012 4.51566 2.21578 0
M  V30 1831 H 167.712 5.78913 1.00668 0
M  V30 1832 H 169.236 5.78991 1.93911 0
M  V30 1833 H 170.65 5.72342 -0.331354 0
M  V30 1834 H 169.047 5.89879 -1.10286 0
M  V30 1835 H 170.117 4.57652 -1.60258 0
M  V30 1836 N 171.46 0.379036 1.52974 0
M  V30 1837 C 172.706 -0.206727 2.01744 0
M  V30 1838 C 173.039 -1.47314 1.26539 0
M  V30 1839 O 172.314 -1.91084 0.362903 0
M  V30 1840 C 172.597 -0.485066 3.56818 0
M  V30 1841 C 172.45 0.795919 4.42702 0
M  V30 1842 C 173.769 -1.28003 4.21074 0
M  V30 1843 H 170.888 -0.0736607 0.73331 0
M  V30 1844 H 173.53 0.506581 1.83122 0
M  V30 1845 H 171.68 -1.09272 3.72816 0
M  V30 1846 H 173.352 1.43307 4.38476 0
M  V30 1847 H 171.595 1.41344 4.10127 0
M  V30 1848 H 172.266 0.555947 5.49193 0
M  V30 1849 H 174.742 -0.765867 4.08991 0
M  V30 1850 H 173.618 -1.44352 5.29579 0
M  V30 1851 H 173.879 -2.29236 3.78026 0
M  V30 1852 N 172.938 -1.57226 0.108567 0
M  V30 1853 C 173.886 -2.16002 -0.862885 0
M  V30 1854 C 174.88 -1.10644 -1.28274 0
M  V30 1855 O 176.086 -1.28966 -1.2557 0
M  V30 1856 H 172.461 -0.691148 -0.296342 0
M  V30 1857 H 174.432 -2.96427 -0.342575 0
M  V30 1858 C 173.181 -2.76576 -2.10716 0
M  V30 1859 H 172.504 -3.5734 -1.793 0
M  V30 1860 H 173.944 -3.21253 -2.76717 0
M  V30 1861 C 172.403 -1.73137 -2.89007 0
M  V30 1862 O 172.933 -1.17842 -3.84026 0
M  V30 1863 N 171.139 -1.43317 -2.52801 0
M  V30 1864 H 170.686 -1.88473 -1.75601 0
M  V30 1865 H 170.644 -0.743485 -3.05483 0
M  V30 1866 N 174.416 0.165178 -1.56732 0
M  V30 1867 C 175.646 0.894919 -1.86212 0
M  V30 1868 C 176.054 1.76066 -0.692627 0
M  V30 1869 O 175.397 1.80387 0.347303 0
M  V30 1870 C 175.459 1.8174 -3.10179 0
M  V30 1871 C 175.123 1.13064 -4.42793 0
M  V30 1872 C 176.12 0.493169 -5.17556 0
M  V30 1873 C 173.805 1.12556 -4.89527 0
M  V30 1874 C 175.799 -0.140209 -6.37246 0
M  V30 1875 C 173.486 0.488366 -6.09145 0
M  V30 1876 C 174.484 -0.143411 -6.82849 0
M  V30 1877 O 174.172 -0.77055 -8.00199 0
M  V30 1878 H 173.904 0.265114 -0.621844 0
M  V30 1879 H 176.458 0.168242 -2.0471 0
M  V30 1880 H 174.688 2.58455 -2.87642 0
M  V30 1881 H 176.377 2.4175 -3.26055 0
M  V30 1882 H 177.143 0.489023 -4.82528 0
M  V30 1883 H 173.022 1.60672 -4.32094 0
M  V30 1884 H 176.566 -0.633932 -6.94714 0
M  V30 1885 H 172.463 0.490116 -6.43637 0
M  V30 1886 H 173.231 -0.670408 -8.1575 0
M  V30 1887 N 175.894 1.51508 0.433938 0
M  V30 1888 C 176.842 1.73646 1.54757 0
M  V30 1889 C 177.836 0.602854 1.5831 0
M  V30 1890 O 179.042 0.784318 1.62014 0
M  V30 1891 H 175.417 0.548718 0.51421 0
M  V30 1892 H 177.388 2.66991 1.33261 0
M  V30 1893 C 176.137 1.88172 2.92381 0
M  V30 1894 H 175.46 2.74808 2.90381 0
M  V30 1895 H 176.9 2.07672 3.6966 0
M  V30 1896 C 175.359 0.64239 3.30719 0
M  V30 1897 O 175.889 -0.201362 4.01195 0
M  V30 1898 N 174.095 0.485489 2.86516 0
M  V30 1899 H 173.642 1.17318 2.29334 0
M  V30 1900 H 173.6 -0.342482 3.12529 0
M  V30 1901 N 177.372 -0.689602 1.41712 0
M  V30 1902 C 178.783 -1.26973 1.36875 0
M  V30 1903 C 179.134 -1.96124 0.054748 0
M  V30 1904 O 178.259 -1.99141 -0.84687 0
M  V30 1905 C 178.854 -2.30912 2.47922 0
M  V30 1906 C 177.413 -2.84486 2.46464 0
M  V30 1907 C 176.56 -1.58603 2.27465 0
M  V30 1908 H 179.511 -0.48396 1.51141 0
M  V30 1909 H 179.532 -3.12331 2.17323 0
M  V30 1910 H 179.044 -1.80554 3.43543 0
M  V30 1911 H 177.145 -3.39005 1.54617 0
M  V30 1912 H 177.258 -3.34511 3.42986 0
M  V30 1913 H 175.622 -1.84632 1.75451 0
M  V30 1914 H 176.405 -1.10233 3.25121 0
M  V30 1915 N 178.85 -1.27639 -0.924453 0
M  V30 1916 C 180.099 -1.13549 -1.66702 0
M  V30 1917 C 180.412 0.317487 -1.93006 0
M  V30 1918 O 181.618 0.579333 -2.65247 0
M  V30 1919 C 180.074 -1.98426 -3.00259 0
M  V30 1920 C 179.682 -3.484 -2.81641 0
M  V30 1921 C 181.426 -1.92993 -3.78092 0
M  V30 1922 C 179.333 -4.25464 -4.10773 0
M  V30 1923 H 178.263 -0.421351 -0.625283 0
M  V30 1924 H 180.914 -1.52085 -1.02676 0
M  V30 1925 H 179.296 -1.52736 -3.6536 0
M  V30 1926 H 180.47 -4.01973 -2.25287 0
M  V30 1927 H 178.785 -3.55245 -2.17232 0
M  V30 1928 H 181.382 -2.47844 -4.7379 0
M  V30 1929 H 181.725 -0.904281 -4.0636 0
M  V30 1930 H 182.258 -2.36595 -3.19793 0
M  V30 1931 H 178.997 -5.28566 -3.87683 0
M  V30 1932 H 178.517 -3.76667 -4.66779 0
M  V30 1933 H 180.196 -4.34812 -4.79111 0
M  V30 1934 N 180.328 1.1314 -1.09713 0
M  V30 1935 C 181.556 1.88321 -0.856898 0
M  V30 1936 C 181.971 1.79276 0.592073 0
M  V30 1937 O 181.328 1.16142 1.40774 0
M  V30 1938 C 181.379 3.37812 -1.28706 0
M  V30 1939 O 181.1 3.46627 -2.67921 0
M  V30 1940 C 182.601 4.29952 -1.07964 0
M  V30 1941 H 179.821 0.596094 -0.308079 0
M  V30 1942 H 182.365 1.43205 -1.45988 0
M  V30 1943 H 180.52 3.805 -0.727912 0
M  V30 1944 H 180.934 4.39579 -2.8613 0
M  V30 1945 H 182.408 5.33159 -1.42986 0
M  V30 1946 H 182.885 4.39196 -0.0176577 0
M  V30 1947 H 183.491 3.93036 -1.62489 0
M  V30 1948 N 181.806 0.884767 1.30421 0
M  V30 1949 C 182.716 0.355398 2.31892 0
M  V30 1950 C 183.732 -0.542261 1.65335 0
M  V30 1951 O 184.908 -0.435432 1.96637 0
M  V30 1952 C 181.973 -0.421661 3.44126 0
M  V30 1953 C 181.034 0.505727 4.26311 0
M  V30 1954 C 180.267 -0.234343 5.33185 0
M  V30 1955 O 180.49 -1.46045 5.51386 0
M  V30 1956 O 179.424 0.415443 6.00465 0
M  V30 1957 H 183.25 1.19685 2.79122 0
M  V30 1958 H 180.835 0.648596 1.34587 0
M  V30 1959 H 182.717 -0.861641 4.12497 0
M  V30 1960 H 181.392 -1.23942 2.99032 0
M  V30 1961 H 180.299 0.994513 3.60639 0
M  V30 1962 H 181.632 1.28948 4.75009 0
M  V30 1963 N 183.284 -1.43765 0.645699 0
M  V30 1964 C 184.231 -2.30745 -0.0504648 0
M  V30 1965 C 185.201 -1.4432 -0.822241 0
M  V30 1966 O 186.386 -1.73202 -0.800358 0
M  V30 1967 C 183.526 -3.29802 -1.0161 0
M  V30 1968 C 182.639 -4.31326 -0.241219 0
M  V30 1969 C 181.774 -5.17469 -1.19998 0
M  V30 1970 C 180.813 -6.10691 -0.415094 0
M  V30 1971 N 179.95 -6.89483 -1.32506 0
M  V30 1972 H 184.79 -2.8973 0.697155 0
M  V30 1973 H 182.327 -1.42738 0.355563 0
M  V30 1974 H 184.285 -3.85734 -1.58949 0
M  V30 1975 H 182.915 -2.72483 -1.73069 0
M  V30 1976 H 181.967 -3.77749 0.448334 0
M  V30 1977 H 183.279 -4.9743 0.369437 0
M  V30 1978 H 182.433 -5.7799 -1.84424 0
M  V30 1979 H 181.172 -4.51473 -1.84455 0
M  V30 1980 H 180.177 -5.49265 0.242565 0
M  V30 1981 H 181.402 -6.78727 0.224966 0
M  V30 1982 H 179.348 -6.26142 -1.95657 0
M  V30 1983 H 179.265 -7.52081 -0.768783 0
M  V30 1984 H 180.533 -7.54516 -1.9577 0
M  V30 1985 N 184.763 -0.387143 -1.52771 0
M  V30 1986 C 185.713 0.465942 -2.23188 0
M  V30 1987 C 186.697 1.03138 -1.23496 0
M  V30 1988 O 187.889 0.957845 -1.48843 0
M  V30 1989 C 185.018 1.59384 -3.04059 0
M  V30 1990 C 184.104 1.04024 -4.11144 0
M  V30 1991 N 184.495 0.211416 -5.05358 0
M  V30 1992 C 182.793 1.31295 -4.26237 0
M  V30 1993 C 183.494 -0.0941698 -5.81624 0
M  V30 1994 N 182.47 0.509207 -5.4121 0
M  V30 1995 H 186.272 -0.173856 -2.93385 0
M  V30 1996 H 183.786 -0.19633 -1.61209 0
M  V30 1997 H 185.783 2.21738 -3.53041 0
M  V30 1998 H 184.443 2.23648 -2.35397 0
M  V30 1999 H 185.454 -0.151151 -5.17679 0
M  V30 2000 H 182.131 1.95679 -3.68803 0
M  V30 2001 H 183.521 -0.765572 -6.67524 0
M  V30 2002 N 186.241 1.57166 -0.116904 0
M  V30 2003 C 187.487 1.95412 0.542405 0
M  V30 2004 C 187.82 1.00019 1.66463 0
M  V30 2005 O 187.095 0.0370346 1.94465 0
M  V30 2006 C 187.378 3.43615 1.07708 0
M  V30 2007 C 187.231 4.49781 -0.0415868 0
M  V30 2008 C 188.55 3.93616 1.96861 0
M  V30 2009 H 185.669 0.710543 0.195696 0
M  V30 2010 H 188.311 1.89027 -0.192038 0
M  V30 2011 H 186.461 3.49187 1.70296 0
M  V30 2012 H 188.133 4.56308 -0.676793 0
M  V30 2013 H 186.376 4.28033 -0.705019 0
M  V30 2014 H 187.047 5.50733 0.373717 0
M  V30 2015 H 189.523 3.90335 1.44146 0
M  V30 2016 H 188.399 4.97838 2.3119 0
M  V30 2017 H 188.66 3.34188 2.89432 0
M  V30 2018 N 187.719 -0.156864 1.56817 0
M  V30 2019 C 188.996 -0.899244 1.73704 0
M  V30 2020 C 189.376 -1.99771 0.682254 0
M  V30 2021 O 188.724 -2.26515 -0.300522 0
M  V30 2022 C 188.934 -1.45075 3.17418 0
M  V30 2023 C 190.282 -1.91802 3.7881 0
M  V30 2024 O 191.306 -1.54838 3.20786 0
M  V30 2025 O 190.165 -2.5994 4.80722 0
M  V30 2026 H 187.259 -0.424267 0.709878 0
M  V30 2027 H 189.805 -0.143561 1.69092 0
M  V30 2028 H 188.577 -0.660846 3.85679 0
M  V30 2029 H 188.2 -2.27021 3.26416 0
M  V30 2030 N 189.197 -1.51736 -0.425897 0
M  V30 2031 C 190.425 -1.68794 -1.1965 0
M  V30 2032 C 190.84 -0.390164 -1.84725 0
M  V30 2033 O 190.197 0.632376 -1.71194 0
M  V30 2034 C 190.248 -2.81174 -2.27208 0
M  V30 2035 O 189.969 -4.05925 -1.64793 0
M  V30 2036 C 191.47 -3.09599 -3.17275 0
M  V30 2037 H 188.69 -0.566128 -0.360194 0
M  V30 2038 H 191.234 -1.98211 -0.503249 0
M  V30 2039 H 189.389 -2.54324 -2.9223 0
M  V30 2040 H 189.803 -4.68423 -2.35967 0
M  V30 2041 H 191.277 -3.91786 -3.88854 0
M  V30 2042 H 191.754 -2.22468 -3.78688 0
M  V30 2043 H 192.36 -3.38151 -2.57941 0
M  V30 2044 N 190.675 0.682077 -1.42076 0
M  V30 2045 C 191.923 1.4393 -1.41876 0
M  V30 2046 C 192.244 1.94971 -0.0335599 0
M  V30 2047 O 191.514 1.72591 0.926773 0
M  V30 2048 H 190.094 0.534085 -0.522267 0
M  V30 2049 H 192.756 0.806427 -1.77434 0
M  V30 2050 H 191.852 2.29588 -2.11414 0
M  V30 2051 N 192.153 1.28127 0.917671 0
M  V30 2052 C 193.086 1.06039 2.02067 0
M  V30 2053 C 194.064 -0.0223285 1.62585 0
M  V30 2054 O 195.248 0.124823 1.88086 0
M  V30 2055 C 192.375 0.610596 3.33151 0
M  V30 2056 C 191.421 1.68937 3.91615 0
M  V30 2057 S 192.254 3.28437 4.22953 0
M  V30 2058 C 193.41 2.85283 5.57103 0
M  V30 2059 H 193.643 1.99425 2.20493 0
M  V30 2060 H 191.176 1.12071 1.06205 0
M  V30 2061 H 193.134 0.357778 4.08938 0
M  V30 2062 H 191.795 -0.303364 3.12632 0
M  V30 2063 H 190.988 1.32619 4.86239 0
M  V30 2064 H 190.59 1.89478 3.2245 0
M  V30 2065 H 192.882 2.3121 6.36827 0
M  V30 2066 H 193.825 3.7869 5.98331 0
M  V30 2067 H 194.233 2.24118 5.18104 0
M  V30 2068 N 193.631 -1.12557 1.10312 0
M  V30 2069 C 194.859 -1.87864 0.866873 0
M  V30 2070 C 195.274 -1.79588 -0.582557 0
M  V30 2071 O 194.631 -1.16887 -1.40156 0
M  V30 2072 C 194.682 -3.37125 1.30496 0
M  V30 2073 O 194.403 -3.45201 2.69755 0
M  V30 2074 C 195.904 -4.29373 1.10243 0
M  V30 2075 H 193.124 -0.594452 0.311236 0
M  V30 2076 H 195.668 -1.42429 1.46745 0
M  V30 2077 H 193.823 -3.80109 0.748081 0
M  V30 2078 H 194.237 -4.38056 2.88457 0
M  V30 2079 H 195.711 -5.32394 1.45811 0
M  V30 2080 H 196.188 -4.39181 0.0409492 0
M  V30 2081 H 196.794 -3.92169 1.64571 0
M  V30 2082 N 195.109 -0.891671 -1.2995 0
M  V30 2083 C 196.039 -0.379797 -2.30391 0
M  V30 2084 C 197.02 0.540919 -1.6127 0
M  V30 2085 O 198.205 0.453352 -1.88834 0
M  V30 2086 C 195.335 0.400654 -3.44981 0
M  V30 2087 C 194.289 -0.428905 -4.25846 0
M  V30 2088 C 193.615 0.478557 -5.32554 0
M  V30 2089 C 194.915 -1.67458 -4.94727 0
M  V30 2090 H 196.609 -1.21914 -2.73454 0
M  V30 2091 H 194.155 -0.587675 -1.31462 0
M  V30 2092 H 196.108 0.769434 -4.14316 0
M  V30 2093 H 194.832 1.27371 -3.0074 0
M  V30 2094 H 193.491 -0.779911 -3.58208 0
M  V30 2095 H 193.139 1.34951 -4.84559 0
M  V30 2096 H 192.839 -0.0727433 -5.87555 0
M  V30 2097 H 194.363 0.843705 -6.04743 0
M  V30 2098 H 195.777 -1.376 -5.56542 0
M  V30 2099 H 194.174 -2.16659 -5.59624 0
M  V30 2100 H 195.244 -2.41518 -4.20473 0
M  V30 2101 N 196.587 1.43421 -0.653314 0
M  V30 2102 C 197.534 2.30768 0.0382271 0
M  V30 2103 C 198.504 1.44755 0.814576 0
M  V30 2104 O 199.689 1.73624 0.791162 0
M  V30 2105 C 196.829 3.30336 0.998599 0
M  V30 2106 C 195.942 4.31448 0.218342 0
M  V30 2107 C 195.077 5.18098 1.17252 0
M  V30 2108 C 194.116 6.10902 0.382702 0
M  V30 2109 N 193.253 6.90176 1.28848 0
M  V30 2110 H 198.093 2.89357 -0.712511 0
M  V30 2111 H 195.63 1.42548 -0.363128 0
M  V30 2112 H 197.588 3.86572 1.56901 0
M  V30 2113 H 196.218 2.73397 1.71621 0
M  V30 2114 H 195.27 3.77506 -0.46836 0
M  V30 2115 H 196.582 4.97227 -0.395812 0
M  V30 2116 H 195.736 5.7896 1.81356 0
M  V30 2117 H 194.475 4.52444 1.82058 0
M  V30 2118 H 193.48 5.49128 -0.27169 0
M  V30 2119 H 194.705 6.78598 -0.260957 0
M  V30 2120 H 192.651 6.27171 1.92334 0
M  V30 2121 H 192.568 7.52478 0.728887 0
M  V30 2122 H 193.836 7.55543 1.91766 0
M  V30 2123 N 198.065 0.39524 1.52563 0
M  V30 2124 C 198.975 -0.444232 2.30356 0
M  V30 2125 C 199.991 -1.06615 1.37511 0
M  V30 2126 O 201.167 -1.07067 1.70583 0
M  V30 2127 C 198.232 -1.55315 3.09964 0
M  V30 2128 C 197.293 -0.955734 4.18526 0
M  V30 2129 C 196.526 -2.01181 4.9433 0
M  V30 2130 O 196.749 -3.22781 4.70285 0
M  V30 2131 O 195.683 -1.62579 5.79527 0
M  V30 2132 H 199.509 0.189667 3.03107 0
M  V30 2133 H 197.094 0.1588 1.48554 0
M  V30 2134 H 198.976 -2.19724 3.59582 0
M  V30 2135 H 197.651 -2.17191 2.4002 0
M  V30 2136 H 196.558 -0.274743 3.7309 0
M  V30 2137 H 197.891 -0.381109 4.90722 0
M  V30 2138 N 199.544 -1.57102 0.125237 0
M  V30 2139 C 200.474 -2.18659 -0.819174 0
M  V30 2140 C 201.455 -1.12843 -1.27281 0
M  V30 2141 O 202.64 -1.41104 -1.33429 0
M  V30 2142 C 199.77 -2.79096 -2.06695 0
M  V30 2143 C 198.724 -3.90548 -1.75088 0
M  V30 2144 C 198.05 -4.37821 -3.06948 0
M  V30 2145 C 199.35 -5.12356 -1.01435 0
M  V30 2146 H 201.044 -2.9783 -0.306202 0
M  V30 2147 H 198.59 -1.4326 -0.145839 0
M  V30 2148 H 200.543 -3.2082 -2.73226 0
M  V30 2149 H 199.267 -1.97223 -2.60328 0
M  V30 2150 H 197.926 -3.49409 -1.10944 0
M  V30 2151 H 197.574 -3.52799 -3.58527 0
M  V30 2152 H 197.274 -5.12982 -2.86571 0
M  V30 2153 H 198.798 -4.822 -3.74587 0
M  V30 2154 H 200.212 -5.5106 -1.58132 0
M  V30 2155 H 198.609 -5.9314 -0.911319 0
M  V30 2156 H 199.679 -4.849 -0.00218681 0
M  V30 2157 N 201.022 0.148545 -1.56898 0
M  V30 2158 C 201.985 1.16736 -1.97244 0
M  V30 2159 C 202.985 1.35947 -0.858777 0
M  V30 2160 O 204.175 1.32966 -1.12542 0
M  V30 2161 C 201.307 2.52798 -2.28705 0
M  V30 2162 H 202.5 0.821279 -2.88435 0
M  V30 2163 H 200.053 0.391831 -1.51309 0
M  V30 2164 H 200.788 2.92381 -1.403 0
M  V30 2165 H 200.573 2.40216 -3.09901 0
M  V30 2166 H 202.063 3.26179 -2.60762 0
M  V30 2167 N 202.5 1.5196 0.417844 0
M  V30 2168 C 203.777 1.56146 1.17803 0
M  V30 2169 C 204.157 0.337275 2.08388 0
M  V30 2170 O 203.505 -0.676447 2.18258 0
M  V30 2171 C 203.715 2.88566 1.96293 0
M  V30 2172 C 205.063 3.41244 2.52662 0
M  V30 2173 O 206.087 2.90247 2.06483 0
M  V30 2174 O 204.946 4.30273 3.36938 0
M  V30 2175 H 202.04 0.628598 0.537395 0
M  V30 2176 H 204.586 1.64283 0.425331 0
M  V30 2177 H 203.358 3.69116 1.2988 0
M  V30 2178 H 202.981 2.83681 2.78587 0
M  V30 2179 N 203.978 -0.674533 1.42435 0
M  V30 2180 C 204.941 -1.76986 1.45632 0
M  V30 2181 C 205.941 -1.5708 0.343871 0
M  V30 2182 O 207.131 -1.63367 0.604709 0
M  V30 2183 C 204.263 -3.15623 1.28822 0
M  V30 2184 H 205.456 -1.75539 2.43158 0
M  V30 2185 H 203.009 -0.884189 1.28887 0
M  V30 2186 H 203.744 -3.22696 0.322193 0
M  V30 2187 H 203.529 -3.31475 2.09444 0
M  V30 2188 H 205.019 -3.95537 1.33942 0
M  V30 2189 N 205.456 -1.28612 -0.910864 0
M  V30 2190 C 206.681 -1.1891 -1.69927 0
M  V30 2191 C 207.106 0.248372 -1.86453 0
M  V30 2192 O 206.464 1.17961 -1.37676 0
M  V30 2193 C 206.512 -1.89578 -3.06745 0
M  V30 2194 O 205.616 -1.20521 -3.94396 0
M  V30 2195 H 204.957 -0.412632 -0.520222 0
M  V30 2196 H 207.487 -1.69985 -1.1387 0
M  V30 2197 H 207.497 -1.97597 -3.56958 0
M  V30 2198 H 206.172 -2.94136 -2.94035 0
M  V30 2199 H 204.749 -1.20684 -3.52831 0
M  V30 2200 N 206.934 1.1197 -1.10907 0
M  V30 2201 C 207.864 2.19928 -0.784473 0
M  V30 2202 C 208.845 1.6833 0.244726 0
M  V30 2203 O 210.03 1.93892 0.109418 0
M  V30 2204 C 207.16 3.46597 -0.220827 0
M  V30 2205 C 206.114 4.11376 -1.18127 0
M  V30 2206 C 205.44 5.32554 -0.478594 0
M  V30 2207 C 206.74 4.56945 -2.52979 0
M  V30 2208 H 208.434 2.47337 -1.68715 0
M  V30 2209 H 205.98 1.18879 -0.812642 0
M  V30 2210 H 207.933 4.21396 0.0184278 0
M  V30 2211 H 206.657 3.1863 0.717113 0
M  V30 2212 H 205.316 3.38564 -1.40606 0
M  V30 2213 H 204.964 5.00856 0.463976 0
M  V30 2214 H 204.664 5.76844 -1.11912 0
M  V30 2215 H 206.188 6.10096 -0.248 0
M  V30 2216 H 207.602 5.23093 -2.3462 0
M  V30 2217 H 205.999 5.1203 -3.12962 0
M  V30 2218 H 207.069 3.70676 -3.12614 0
M  V30 2219 N 208.412 0.89855 1.29475 0
M  V30 2220 C 209.828 0.594483 1.48115 0
M  V30 2221 C 210.028 -0.86431 1.82022 0
M  V30 2222 O 209.084 -1.64457 1.91599 0
M  V30 2223 C 210.397 1.51932 2.59494 0
M  V30 2224 C 211.945 1.5244 2.7337 0
M  V30 2225 C 212.42 2.43548 3.87877 0
M  V30 2226 N 213.911 2.41589 3.95208 0
M  V30 2227 C 214.646 3.08789 4.83153 0
M  V30 2228 N 214.142 3.85265 5.75798 0
M  V30 2229 N 215.935 2.97952 4.76635 0
M  V30 2230 H 208.086 1.84207 1.05742 0
M  V30 2231 H 210.349 0.789251 0.525154 0
M  V30 2232 H 210.055 2.55865 2.41301 0
M  V30 2233 H 209.929 1.23899 3.56271 0
M  V30 2234 H 212.316 0.492518 2.90961 0
M  V30 2235 H 212.397 1.8451 1.77172 0
M  V30 2236 H 212.041 3.46829 3.71041 0
M  V30 2237 H 211.971 2.08788 4.83441 0
M  V30 2238 H 214.462 1.86025 3.28943 0
M  V30 2239 H 214.775 4.33598 6.39697 0
M  V30 2240 H 213.12 3.89371 5.75687 0
M  V30 2241 H 216.311 2.37723 4.03244 0
M  V30 2242 H 216.484 3.50599 5.44962 0
M  V30 2243 N 209.89 -1.43072 0.660911 0
M  V30 2244 C 211.12 -2.05769 0.185153 0
M  V30 2245 C 211.528 -1.49668 -1.15742 0
M  V30 2246 O 210.871 -0.625649 -1.72717 0
M  V30 2247 C 210.933 -3.59489 0.0278237 0
M  V30 2248 C 210.597 -4.38212 1.2969 0
M  V30 2249 C 211.594 -4.69772 2.22734 0
M  V30 2250 C 209.279 -4.7809 1.54063 0
M  V30 2251 C 211.273 -5.40129 3.38437 0
M  V30 2252 C 208.96 -5.4819 2.70058 0
M  V30 2253 C 209.958 -5.79132 3.62071 0
M  V30 2254 O 209.646 -6.47798 4.76039 0
M  V30 2255 H 209.378 -0.669873 0.0908086 0
M  V30 2256 H 211.932 -1.84436 0.90402 0
M  V30 2257 H 210.162 -3.79426 -0.746489 0
M  V30 2258 H 211.851 -4.03862 -0.406275 0
M  V30 2259 H 212.617 -4.39476 2.05149 0
M  V30 2260 H 208.496 -4.53408 0.833215 0
M  V30 2261 H 212.04 -5.64198 4.10277 0
M  V30 2262 H 207.937 -5.77902 2.87574 0
M  V30 2263 H 208.705 -6.66283 4.75404 0
M  V30 2264 N 211.368 -0.403325 -1.52352 0
M  V30 2265 C 212.593 0.176499 -2.06648 0
M  V30 2266 C 213.018 1.38577 -1.27193 0
M  V30 2267 O 212.376 1.7879 -0.300637 0
M  V30 2268 C 212.424 0.511061 -3.5696 0
M  V30 2269 O 211.528 1.60294 -3.79973 0
M  V30 2270 H 210.869 0.0167337 -0.663789 0
M  V30 2271 H 213.399 -0.574848 -1.96359 0
M  V30 2272 H 213.409 0.771362 -4.00642 0
M  V30 2273 H 212.084 -0.37296 -4.14224 0
M  V30 2274 H 210.661 1.33526 -3.48174 0
M  V30 2275 N 212.846 1.57033 -0.133567 0
M  V30 2276 C 214.123 1.87256 0.56522 0
M  V30 2277 C 214.503 1.03726 1.83859 0
M  V30 2278 O 213.851 0.120247 2.28183 0
M  V30 2279 C 214.061 3.3865 0.843636 0
M  V30 2280 C 215.409 4.07574 1.19032 0
M  V30 2281 O 216.433 3.43752 0.933429 0
M  V30 2282 O 215.292 5.20259 1.67312 0
M  V30 2283 H 212.386 0.775678 0.286796 0
M  V30 2284 H 214.932 1.68855 -0.169168 0
M  V30 2285 H 213.704 3.91257 -0.0581149 0
M  V30 2286 H 213.327 3.62532 1.63268 0
M  V30 2287 N 214.325 -0.140222 1.56975 0
M  V30 2288 C 215.273 -1.19207 1.99731 0
M  V30 2289 C 216.267 -1.44089 0.890777 0
M  V30 2290 O 217.473 -1.44301 1.07597 0
M  V30 2291 H 213.848 -0.40142 0.635898 0
M  V30 2292 H 215.819 -0.804813 2.87342 0
M  V30 2293 C 214.568 -2.51617 2.39967 0
M  V30 2294 H 213.891 -2.33303 3.24669 0
M  V30 2295 H 215.331 -3.23827 2.73701 0
M  V30 2296 C 213.79 -3.12654 1.25496 0
M  V30 2297 O 214.32 -3.97786 0.559371 0
M  V30 2298 N 212.526 -2.72206 1.01746 0
M  V30 2299 H 212.073 -2.03074 1.58489 0
M  V30 2300 H 212.031 -3.13377 0.253461 0
M  V30 2301 N 215.803 -1.52179 -0.40978 0
M  V30 2302 C 216.766 -1.74853 -1.48186 0
M  V30 2303 C 217.766 -0.618417 -1.48433 0
M  V30 2304 O 218.956 -0.886286 -1.49969 0
M  V30 2305 C 216.088 -1.8303 -2.87598 0
M  V30 2306 H 217.281 -2.70559 -1.29374 0
M  V30 2307 H 214.834 -1.42586 -0.640233 0
M  V30 2308 H 215.569 -0.89236 -3.11781 0
M  V30 2309 H 215.354 -2.65187 -2.88822 0
M  V30 2310 H 216.844 -2.02316 -3.65319 0
M  V30 2311 N 217.281 0.66697 -1.42791 0
M  V30 2312 C 218.244 1.76211 -1.46568 0
M  V30 2313 C 219.244 1.56896 -0.352196 0
M  V30 2314 O 220.434 1.63044 -0.613364 0
M  V30 2315 C 217.566 3.14935 -1.30494 0
M  V30 2316 H 218.759 1.74247 -2.44086 0
M  V30 2317 H 216.312 0.877342 -1.29354 0
M  V30 2318 H 217.047 3.2252 -0.339301 0
M  V30 2319 H 216.832 3.30359 -2.11199 0
M  V30 2320 H 218.322 3.94821 -1.36038 0
M  V30 2321 N 218.759 1.29093 0.90403 0
M  V30 2322 C 219.691 1.09658 2.01266 0
M  V30 2323 C 220.704 0.0453729 1.62737 0
M  V30 2324 O 221.893 0.289446 1.76138 0
M  V30 2325 C 218.993 0.646278 3.32681 0
M  V30 2326 C 218.166 1.77505 3.99763 0
M  V30 2327 C 217.225 1.31649 5.09465 0
M  V30 2328 O 216.251 2.02045 5.32134 0
M  V30 2329 N 217.453 0.184997 5.80205 0
M  V30 2330 H 220.218 2.05135 2.18494 0
M  V30 2331 H 217.779 1.20975 1.07594 0
M  V30 2332 H 219.771 0.322906 4.0341 0
M  V30 2333 H 218.341 -0.215916 3.11853 0
M  V30 2334 H 217.561 2.26752 3.22455 0
M  V30 2335 H 218.849 2.53198 4.41325 0
M  V30 2336 H 218.247 -0.402021 5.6427 0
M  V30 2337 H 216.804 -0.0790358 6.51752 0
M  V30 2338 N 220.237 -1.11381 1.11499 0
M  V30 2339 C 221.185 -2.19522 0.768956 0
M  V30 2340 C 222.179 -1.67693 -0.239857 0
M  V30 2341 O 223.385 -1.79727 -0.0990755 0
M  V30 2342 H 219.76 -0.715711 0.230786 0
M  V30 2343 H 221.731 -2.45954 1.68964 0
M  V30 2344 C 220.48 -3.46945 0.229073 0
M  V30 2345 H 219.803 -3.8718 0.996596 0
M  V30 2346 H 221.243 -4.23993 0.0251441 0
M  V30 2347 C 219.702 -3.2042 -1.04079 0
M  V30 2348 O 220.232 -3.41178 -2.12038 0
M  V30 2349 N 218.438 -2.74151 -0.963823 0
M  V30 2350 H 217.985 -2.57459 -0.0851722 0
M  V30 2351 H 217.943 -2.56781 -1.81414 0
M  V30 2352 N 221.715 -0.905404 -1.28997 0
M  V30 2353 C 222.645 -0.404212 -2.29975 0
M  V30 2354 C 223.626 0.523784 -1.61835 0
M  V30 2355 O 224.811 0.433298 -1.89304 0
M  V30 2356 C 221.941 0.364042 -3.45387 0
M  V30 2357 C 220.895 -0.474048 -4.25367 0
M  V30 2358 C 220.221 0.422045 -5.33032 0
M  V30 2359 C 221.521 -1.72696 -4.92923 0
M  V30 2360 H 223.215 -1.24807 -2.72146 0
M  V30 2361 H 220.761 -0.601585 -1.30832 0
M  V30 2362 H 222.714 0.725447 -4.15109 0
M  V30 2363 H 221.438 1.24174 -3.02074 0
M  V30 2364 H 220.097 -0.81786 -3.57361 0
M  V30 2365 H 219.745 1.29804 -4.85963 0
M  V30 2366 H 219.445 -0.135057 -5.87445 0
M  V30 2367 H 220.969 0.779517 -6.05604 0
M  V30 2368 H 222.383 -1.43495 -5.55051 0
M  V30 2369 H 220.78 -2.22582 -5.57295 0
M  V30 2370 H 221.85 -2.45964 -4.17887 0
M  V30 2371 N 223.193 1.4272 -0.668489 0
M  V30 2372 C 224.442 2.00846 -0.185389 0
M  V30 2373 C 224.755 1.53442 1.21305 0
M  V30 2374 O 225.961 2.03944 1.79218 0
M  V30 2375 C 224.417 3.58805 -0.280591 0
M  V30 2376 C 224.025 4.15198 -1.68268 0
M  V30 2377 C 225.769 4.24255 0.14412 0
M  V30 2378 C 223.676 5.655 -1.73099 0
M  V30 2379 H 222.606 0.751145 -0.0655475 0
M  V30 2380 H 225.257 1.63516 -0.832752 0
M  V30 2381 H 223.639 3.93608 0.434553 0
M  V30 2382 H 224.813 3.91866 -2.42441 0
M  V30 2383 H 223.128 3.62176 -2.05469 0
M  V30 2384 H 225.725 5.34547 0.128086 0
M  V30 2385 H 226.068 3.99277 1.17827 0
M  V30 2386 H 226.601 3.94389 -0.519798 0
M  V30 2387 H 223.34 5.95268 -2.74475 0
M  V30 2388 H 222.86 5.90842 -1.03274 0
M  V30 2389 H 224.539 6.29808 -1.48158 0
M  V30 2390 N 224.671 0.411399 1.52136 0
M  V30 2391 C 225.601 -0.404015 2.29978 0
M  V30 2392 C 226.582 -1.04412 1.34284 0
M  V30 2393 O 227.767 -1.0527 1.63192 0
M  V30 2394 C 224.897 -1.5197 3.12286 0
M  V30 2395 C 223.851 -1.00448 4.16046 0
M  V30 2396 C 223.177 -2.21393 4.86712 0
M  V30 2397 C 224.477 -0.0569336 5.22269 0
M  V30 2398 H 226.171 0.245529 2.98392 0
M  V30 2399 H 223.717 0.119525 1.43503 0
M  V30 2400 H 225.67 -2.09715 3.6551 0
M  V30 2401 H 224.394 -2.19716 2.41646 0
M  V30 2402 H 223.053 -0.449421 3.63835 0
M  V30 2403 H 222.701 -2.87699 4.12599 0
M  V30 2404 H 222.401 -1.87571 5.56858 0
M  V30 2405 H 223.925 -2.7974 5.4275 0
M  V30 2406 H 225.339 -0.54325 5.7072 0
M  V30 2407 H 223.736 0.192594 5.99791 0
M  V30 2408 H 224.806 0.887663 4.76706 0
M  V30 2409 N 226.149 -1.5696 0.141893 0
M  V30 2410 C 227.096 -2.16501 -0.799737 0
M  V30 2411 C 228.066 -1.09643 -1.24771 0
M  V30 2412 O 229.251 -1.3766 -1.32115 0
M  V30 2413 C 226.391 -2.78679 -2.03549 0
M  V30 2414 C 225.504 -3.99914 -1.6338 0
M  V30 2415 C 224.639 -4.50106 -2.82096 0
M  V30 2416 C 223.678 -5.63819 -2.38275 0
M  V30 2417 N 222.815 -6.08651 -3.49983 0
M  V30 2418 H 227.655 -2.96632 -0.285179 0
M  V30 2419 H 225.192 -1.46533 -0.129053 0
M  V30 2420 H 227.15 -3.1287 -2.75986 0
M  V30 2421 H 225.78 -2.012 -2.52425 0
M  V30 2422 H 224.832 -3.71735 -0.807279 0
M  V30 2423 H 226.144 -4.82311 -1.27192 0
M  V30 2424 H 225.298 -4.86325 -3.62729 0
M  V30 2425 H 224.037 -3.66706 -3.21525 0
M  V30 2426 H 223.042 -5.2718 -1.56081 0
M  V30 2427 H 224.267 -6.49 -1.99938 0
M  V30 2428 H 222.213 -5.28188 -3.89042 0
M  V30 2429 H 222.13 -6.85961 -3.17794 0
M  V30 2430 H 223.398 -6.49515 -4.30988 0
M  V30 2431 N 227.627 0.131896 -1.57047 0
M  V30 2432 C 228.559 1.1878 -1.9602 0
M  V30 2433 C 229.572 1.38363 -0.857875 0
M  V30 2434 O 230.761 1.37666 -1.13623 0
M  V30 2435 C 227.861 2.55008 -2.23213 0
M  V30 2436 C 227.034 2.56201 -3.54513 0
M  V30 2437 C 226.093 3.7408 -3.70069 0
M  V30 2438 O 225.119 3.58258 -4.42312 0
M  V30 2439 N 226.321 4.92137 -3.07866 0
M  V30 2440 H 229.086 0.85639 -2.87204 0
M  V30 2441 H 226.647 0.321309 -1.5868 0
M  V30 2442 H 228.639 3.32404 -2.30846 0
M  V30 2443 H 227.209 2.80382 -1.3822 0
M  V30 2444 H 226.429 1.64613 -3.58185 0
M  V30 2445 H 227.717 2.54043 -4.4084 0
M  V30 2446 H 227.115 5.07895 -2.49116 0
M  V30 2447 H 225.672 5.67254 -3.21039 0
M  V30 2448 N 229.106 1.52395 0.401703 0
M  V30 2449 C 230.355 1.66044 1.14509 0
M  V30 2450 C 230.668 0.400216 1.91462 0
M  V30 2451 O 231.874 0.416632 2.68284 0
M  V30 2452 C 230.33 2.93388 2.0845 0
M  V30 2453 C 229.938 4.26545 1.36978 0
M  V30 2454 C 231.682 3.16402 2.83001 0
M  V30 2455 C 229.589 5.45007 2.29611 0
M  V30 2456 H 228.519 0.618562 0.431158 0
M  V30 2457 H 231.17 1.78886 0.40892 0
M  V30 2458 H 229.552 2.74263 2.8565 0
M  V30 2459 H 230.726 4.56179 0.650916 0
M  V30 2460 H 229.041 4.09692 0.74438 0
M  V30 2461 H 231.638 4.02085 3.52465 0
M  V30 2462 H 231.981 2.30943 3.46368 0
M  V30 2463 H 232.514 3.36034 2.12898 0
M  V30 2464 H 229.253 6.32835 1.70879 0
M  V30 2465 H 228.773 5.19702 2.9945 0
M  V30 2466 H 230.452 5.7838 2.89974 0
M  V30 2467 N 230.584 -0.659388 1.43143 0
M  V30 2468 C 231.832 -1.41654 1.44147 0
M  V30 2469 C 232.153 -1.94893 0.0645739 0
M  V30 2470 O 231.423 -1.74044 -0.899198 0
M  V30 2471 H 230.003 -0.525708 0.530697 0
M  V30 2472 H 232.665 -0.778097 1.78694 0
M  V30 2473 H 231.761 -2.26195 2.1504 0
M  V30 2474 N 232.062 -1.29571 -0.897171 0
M  V30 2475 C 233.31 -1.17456 -1.64464 0
M  V30 2476 C 233.631 0.273698 -1.9307 0
M  V30 2477 O 232.901 1.18684 -1.55855 0
M  V30 2478 H 231.481 -0.431706 -0.609622 0
M  V30 2479 H 234.143 -1.62531 -1.07562 0
M  V30 2480 H 233.239 -1.72648 -2.59998 0
M  V30 2481 N 233.54 1.10788 -1.12088 0
M  V30 2482 C 234.951 1.64181 -0.88891 0
M  V30 2483 C 235.302 1.87508 0.577498 0
M  V30 2484 O 234.427 1.61434 1.44112 0
M  V30 2485 C 235.022 2.98257 -1.60712 0
M  V30 2486 C 233.581 3.4853 -1.42139 0
M  V30 2487 C 232.728 2.23208 -1.6454 0
M  V30 2488 H 235.679 0.943368 -1.27618 0
M  V30 2489 H 235.7 3.65552 -1.05604 0
M  V30 2490 H 235.212 2.81246 -2.67436 0
M  V30 2491 H 233.313 3.70692 -0.376552 0
M  V30 2492 H 233.426 4.26882 -2.17505 0
M  V30 2493 H 231.79 2.31169 -1.06925 0
M  V30 2494 H 232.573 2.08733 -2.72554 0
M  V30 2495 N 235.018 0.912232 1.28515 0
M  V30 2496 C 235.928 0.404506 2.31086 0
M  V30 2497 C 236.944 -0.50707 1.66448 0
M  V30 2498 O 238.12 -0.393624 1.97516 0
M  V30 2499 C 235.185 -0.348572 3.44943 0
M  V30 2500 C 234.246 0.59604 4.25142 0
M  V30 2501 C 233.479 -0.121194 5.33562 0
M  V30 2502 O 233.702 -1.34317 5.5436 0
M  V30 2503 O 232.636 0.542716 5.99448 0
M  V30 2504 H 236.462 1.25579 2.76521 0
M  V30 2505 H 234.047 0.676998 1.33181 0
M  V30 2506 H 235.929 -0.77395 4.14232 0
M  V30 2507 H 234.604 -1.17571 3.01594 0
M  V30 2508 H 233.511 1.07079 3.58448 0
M  V30 2509 H 234.844 1.38995 4.72167 0
M  V30 2510 N 236.496 -1.42363 0.676048 0
M  V30 2511 C 237.721 -2.06377 0.205705 0
M  V30 2512 C 238.146 -1.50463 -1.12883 0
M  V30 2513 O 237.504 -0.623619 -1.70237 0
M  V30 2514 C 237.552 -3.60277 0.152655 0
M  V30 2515 O 236.656 -4.02935 -0.87845 0
M  V30 2516 H 235.997 -0.655588 0.105359 0
M  V30 2517 H 238.527 -1.82475 0.925412 0
M  V30 2518 H 238.537 -4.07993 -0.0230675 0
M  V30 2519 H 237.212 -4.00346 1.12675 0
M  V30 2520 H 235.789 -3.66764 -0.673668 0
M  V30 2521 N 237.974 -0.419461 -1.51915 0
M  V30 2522 C 238.904 0.391813 -2.30189 0
M  V30 2523 C 239.885 1.03699 -1.34836 0
M  V30 2524 O 241.07 1.04403 -1.63748 0
M  V30 2525 C 238.2 1.50312 -3.13087 0
M  V30 2526 C 237.154 0.9824 -4.16573 0
M  V30 2527 C 236.48 2.18809 -4.8788 0
M  V30 2528 C 237.78 0.0292356 -5.22292 0
M  V30 2529 H 239.474 -0.26135 -2.98257 0
M  V30 2530 H 237.02 -0.127134 -1.43438 0
M  V30 2531 H 238.973 2.07773 -3.66617 0
M  V30 2532 H 237.697 2.18431 -2.42807 0
M  V30 2533 H 236.356 0.430119 -3.64068 0
M  V30 2534 H 236.004 2.85507 -4.14119 0
M  V30 2535 H 235.704 1.84615 -5.57845 0
M  V30 2536 H 237.228 2.76858 -5.44226 0
M  V30 2537 H 238.642 0.512976 -5.71 0
M  V30 2538 H 237.039 -0.2244 -5.9968 0
M  V30 2539 H 238.109 -0.912931 -4.76228 0
M  V30 2540 N 239.452 1.56882 -0.150215 0
M  V30 2541 C 240.399 2.16922 0.788244 0
M  V30 2542 C 241.369 1.10303 1.24187 0
M  V30 2543 O 242.554 1.38359 1.31383 0
M  V30 2544 C 239.694 2.79754 2.02068 0
M  V30 2545 C 238.807 4.00775 1.61257 0
M  V30 2546 C 237.942 4.51595 2.79705 0
M  V30 2547 C 236.981 5.65074 2.35282 0
M  V30 2548 N 236.118 6.10499 3.4675 0
M  V30 2549 H 240.958 2.96779 0.269444 0
M  V30 2550 H 238.495 1.46599 0.12128 0
M  V30 2551 H 240.453 3.14329 2.74323 0
M  V30 2552 H 239.083 2.02536 2.51354 0
M  V30 2553 H 238.135 3.72158 0.787553 0
M  V30 2554 H 239.447 4.82978 1.24633 0
M  V30 2555 H 238.601 4.88242 3.60145 0
M  V30 2556 H 237.34 3.68406 3.19576 0
M  V30 2557 H 236.345 5.28 1.53283 0
M  V30 2558 H 237.57 6.50052 1.96493 0
M  V30 2559 H 235.516 5.30243 3.86236 0
M  V30 2560 H 235.433 6.87637 3.14152 0
M  V30 2561 H 236.701 6.51791 4.27537 0
M  V30 2562 N 240.93 -0.123565 1.57115 0
M  V30 2563 C 241.877 -1.15177 2.00007 0
M  V30 2564 C 242.847 -1.41403 0.871454 0
M  V30 2565 O 244.032 -1.53346 1.13533 0
M  V30 2566 C 241.172 -2.47436 2.40561 0
M  V30 2567 C 240.285 -2.28184 3.66819 0
M  V30 2568 C 239.42 -3.53641 3.96373 0
M  V30 2569 C 238.459 -3.29528 5.15827 0
M  V30 2570 N 237.596 -4.47175 5.41275 0
M  V30 2571 H 242.436 -0.779008 2.87638 0
M  V30 2572 H 239.973 -0.373166 1.42288 0
M  V30 2573 H 241.931 -3.24584 2.62109 0
M  V30 2574 H 240.561 -2.82614 1.55978 0
M  V30 2575 H 239.613 -1.41976 3.52912 0
M  V30 2576 H 240.925 -2.0634 4.5412 0
M  V30 2577 H 240.079 -4.39209 4.18545 0
M  V30 2578 H 238.818 -3.78512 3.07538 0
M  V30 2579 H 237.823 -2.42349 4.93505 0
M  V30 2580 H 239.048 -3.06031 6.06236 0
M  V30 2581 H 236.994 -4.72175 4.55397 0
M  V30 2582 H 236.911 -4.28419 6.22891 0
M  V30 2583 H 238.179 -5.3389 5.67963 0
M  V30 2584 N 242.408 -1.52605 -0.393616 0
M  V30 2585 C 243.318 -1.79971 -1.50492 0
M  V30 2586 C 244.334 -0.686181 -1.59899 0
M  V30 2587 O 245.51 -0.973274 -1.76322 0
M  V30 2588 C 242.575 -1.95867 -2.86072 0
M  V30 2589 C 241.636 -3.19781 -2.86424 0
M  V30 2590 C 240.869 -3.34909 -4.15538 0
M  V30 2591 O 241.092 -2.54948 -5.10253 0
M  V30 2592 O 240.026 -4.28141 -4.23059 0
M  V30 2593 H 243.852 -2.74328 -1.30299 0
M  V30 2594 H 241.437 -1.3764 -0.581005 0
M  V30 2595 H 243.319 -2.08056 -3.66457 0
M  V30 2596 H 241.994 -1.04699 -3.063 0
M  V30 2597 H 240.901 -3.13038 -2.04837 0
M  V30 2598 H 242.234 -4.1078 -2.71147 0
M  V30 2599 N 243.887 0.651787 -1.4349 0
M  V30 2600 C 244.817 1.77621 -1.51569 0
M  V30 2601 C 245.798 1.66022 -0.370253 0
M  V30 2602 O 246.983 1.85095 -0.587658 0
M  V30 2603 C 244.113 3.16056 -1.43966 0
M  V30 2604 C 243.067 3.4242 -2.56774 0
M  V30 2605 C 242.393 4.8067 -2.34223 0
M  V30 2606 C 243.693 3.37023 -3.99015 0
M  V30 2607 H 245.387 1.71117 -2.45681 0
M  V30 2608 H 242.933 0.821825 -1.18246 0
M  V30 2609 H 244.886 3.94472 -1.48221 0
M  V30 2610 H 243.61 3.23293 -0.463586 0
M  V30 2611 H 242.269 2.66375 -2.51873 0
M  V30 2612 H 241.917 4.84585 -1.34856 0
M  V30 2613 H 241.617 4.9927 -3.09844 0
M  V30 2614 H 243.141 5.61342 -2.40265 0
M  V30 2615 H 244.555 4.05374 -4.05395 0
M  V30 2616 H 242.952 3.67159 -4.74673 0
M  V30 2617 H 244.022 2.3518 -4.2405 0
M  V30 2618 N 245.365 1.30045 0.890287 0
M  V30 2619 C 246.781 1.08261 1.17268 0
M  V30 2620 C 246.981 -0.160063 2.00863 0
M  V30 2621 O 246.037 -0.855181 2.37577 0
M  V30 2622 C 247.35 2.34323 1.8845 0
M  V30 2623 C 248.898 2.39735 2.01237 0
M  V30 2624 C 249.373 3.65625 2.7583 0
M  V30 2625 N 250.864 3.66402 2.83379 0
M  V30 2626 C 251.599 4.60498 3.41657 0
M  V30 2627 N 251.095 5.64933 4.01026 0
M  V30 2628 N 252.888 4.48051 3.39421 0
M  V30 2629 H 245.039 2.09777 0.332762 0
M  V30 2630 H 247.302 0.92446 0.209948 0
M  V30 2631 H 247.008 3.2498 1.34465 0
M  V30 2632 H 246.882 2.4256 2.88867 0
M  V30 2633 H 249.269 1.4956 2.54393 0
M  V30 2634 H 249.35 2.35476 0.999232 0
M  V30 2635 H 248.994 4.56156 2.23347 0
M  V30 2636 H 248.924 3.67144 3.77509 0
M  V30 2637 H 251.415 2.90896 2.41222 0
M  V30 2638 H 251.728 6.32841 4.43545 0
M  V30 2639 H 250.073 5.68732 3.99461 0
M  V30 2640 H 253.264 3.65649 2.92264 0
M  V30 2641 H 253.437 5.21565 3.84544 0
M  V30 2642 N 246.843 -1.10192 1.12674 0
M  V30 2643 C 247.79 -2.16606 0.796906 0
M  V30 2644 C 248.76 -1.64394 -0.237476 0
M  V30 2645 O 249.945 -1.90474 -0.111484 0
M  V30 2646 C 247.085 -3.44116 0.26043 0
M  V30 2647 C 246.198 -4.10268 1.35293 0
M  V30 2648 C 245.333 -5.25507 0.775621 0
M  V30 2649 C 244.372 -5.83567 1.84706 0
M  V30 2650 N 243.509 -6.90179 1.28829 0
M  V30 2651 H 248.349 -2.44163 1.70846 0
M  V30 2652 H 245.886 -1.19846 0.85295 0
M  V30 2653 H 247.844 -4.17143 -0.0686814 0
M  V30 2654 H 246.474 -3.16901 -0.614274 0
M  V30 2655 H 245.526 -3.35184 1.79877 0
M  V30 2656 H 246.838 -4.4946 2.16303 0
M  V30 2657 H 245.992 -6.05398 0.397327 0
M  V30 2658 H 244.731 -4.87656 -0.0656581 0
M  V30 2659 H 243.736 -5.02344 2.23452 0
M  V30 2660 H 244.961 -6.23482 2.69161 0
M  V30 2661 H 242.907 -6.54322 0.468881 0
M  V30 2662 H 242.824 -7.28097 2.03497 0
M  V30 2663 H 244.092 -7.73844 0.937311 0
M  V30 2664 N 248.321 -0.919034 -1.28029 0
M  V30 2665 C 249.57 -0.550802 -1.94034 0
M  V30 2666 C 249.883 0.910877 -1.73096 0
M  V30 2667 O 251.089 1.3875 -2.33368 0
M  V30 2668 C 249.545 -0.934249 -3.47563 0
M  V30 2669 C 249.153 -2.41602 -3.7727 0
M  V30 2670 C 250.897 -0.636854 -4.19696 0
M  V30 2671 C 248.804 -2.73932 -5.24133 0
M  V30 2672 H 247.734 -0.202273 -0.726362 0
M  V30 2673 H 250.385 -1.11867 -1.45458 0
M  V30 2674 H 248.767 -0.295115 -3.94899 0
M  V30 2675 H 249.941 -3.10233 -3.40723 0
M  V30 2676 H 248.256 -2.68441 -3.18321 0
M  V30 2677 H 250.853 -0.855005 -5.2782 0
M  V30 2678 H 251.196 0.425575 -4.14119 0
M  V30 2679 H 251.729 -1.23469 -3.78154 0
M  V30 2680 H 248.468 -3.79049 -5.34792 0
M  V30 2681 H 247.988 -2.09942 -5.61858 0
M  V30 2682 H 249.667 -2.61215 -5.91925 0
M  V30 2683 N 249.799 1.42003 -0.683588 0
M  V30 2684 C 251.047 2.01015 -0.209101 0
M  V30 2685 C 251.368 1.54365 1.19149 0
M  V30 2686 O 250.638 0.769083 1.80172 0
M  V30 2687 H 249.218 0.743294 -0.074315 0
M  V30 2688 H 251.88 1.73798 -0.882066 0
M  V30 2689 H 250.976 3.11343 -0.2172 0
M  V30 2690 N 251.277 0.427512 1.51691 0
M  V30 2691 C 252.554 -0.201684 1.94557 0
M  V30 2692 C 252.934 -1.60981 1.36559 0
M  V30 2693 O 252.282 -2.21814 0.548702 0
M  V30 2694 C 252.492 -0.189394 3.48486 0
M  V30 2695 C 253.84 -0.39978 4.22714 0
M  V30 2696 O 254.864 -0.267945 3.55191 0
M  V30 2697 O 253.723 -0.661249 5.42485 0
M  V30 2698 H 250.817 -0.135261 0.815864 0
M  V30 2699 H 253.363 0.484782 1.62628 0
M  V30 2700 H 252.135 0.795431 3.8313 0
M  V30 2701 H 251.758 -0.919187 3.86829 0
M  V30 2702 N 252.755 -1.56801 0.158532 0
M  V30 2703 C 253.665 -2.20916 -0.789518 0
M  V30 2704 C 254.681 -1.1969 -1.26294 0
M  V30 2705 O 255.857 -1.52308 -1.31773 0
M  V30 2706 C 252.922 -2.82727 -2.00665 0
M  V30 2707 C 251.983 -3.99114 -1.58134 0
M  V30 2708 C 251.216 -4.57968 -2.74045 0
M  V30 2709 O 251.439 -4.15704 -3.90572 0
M  V30 2710 O 250.373 -5.48047 -2.48855 0
M  V30 2711 H 254.199 -3.02464 -0.273681 0
M  V30 2712 H 251.784 -1.4924 -0.0690548 0
M  V30 2713 H 253.666 -3.21968 -2.71872 0
M  V30 2714 H 252.341 -2.04184 -2.51179 0
M  V30 2715 H 251.248 -3.64567 -0.839155 0
M  V30 2716 H 252.581 -4.79212 -1.12325 0
M  V30 2717 N 254.233 0.115231 -1.57178 0
M  V30 2718 C 255.479 0.82357 -1.85325 0
M  V30 2719 C 255.812 1.79349 -0.744814 0
M  V30 2720 O 255.087 1.92899 0.249024 0
M  V30 2721 C 255.37 1.57014 -3.24066 0
M  V30 2722 C 255.223 0.619565 -4.45513 0
M  V30 2723 C 256.542 2.52545 -3.60429 0
M  V30 2724 H 253.661 0.297948 -0.674089 0
M  V30 2725 H 256.303 0.0877138 -1.89797 0
M  V30 2726 H 254.453 2.19742 -3.20383 0
M  V30 2727 H 256.125 0.000837639 -4.613 0
M  V30 2728 H 254.368 -0.0686174 -4.33746 0
M  V30 2729 H 255.039 1.17866 -5.3927 0
M  V30 2730 H 257.515 1.9992 -3.64926 0
M  V30 2731 H 256.391 3.01811 -4.58477 0
M  V30 2732 H 256.652 3.35383 -2.88047 0
M  V30 2733 N 255.711 1.52812 0.385517 0
M  V30 2734 C 256.939 1.71907 1.15133 0
M  V30 2735 C 257.354 0.439004 1.83625 0
M  V30 2736 O 256.711 -0.586765 1.7281 0
M  V30 2737 C 256.762 2.87099 2.19673 0
M  V30 2738 O 256.483 4.10151 1.53973 0
M  V30 2739 C 257.984 3.17902 3.08955 0
M  V30 2740 H 255.204 0.575479 0.345057 0
M  V30 2741 H 257.748 1.99476 0.45052 0
M  V30 2742 H 255.903 2.61982 2.85384 0
M  V30 2743 H 256.317 4.74514 2.23465 0
M  V30 2744 H 257.791 4.01959 3.7833 0
M  V30 2745 H 258.268 2.3243 3.72657 0
M  V30 2746 H 258.874 3.44871 2.48885 0
M  V30 2747 N 257.189 -0.644168 1.43834 0
M  V30 2748 C 258.137 -1.77793 1.49974 0
M  V30 2749 C 259.131 -1.65253 0.372536 0
M  V30 2750 O 260.337 -1.7149 0.546924 0
M  V30 2751 H 256.712 -0.58675 0.47035 0
M  V30 2752 H 258.683 -1.69736 2.45423 0
M  V30 2753 C 257.432 -3.16087 1.4486 0
M  V30 2754 H 256.755 -3.26378 2.30905 0
M  V30 2755 H 258.195 -3.95349 1.53217 0
M  V30 2756 C 256.654 -3.36484 0.167463 0
M  V30 2757 O 257.184 -3.94298 -0.767609 0
M  V30 2758 N 255.39 -2.90504 0.0747556 0
M  V30 2759 H 254.937 -2.4364 0.836507 0
M  V30 2760 H 254.895 -3.04527 -0.781714 0
M  V30 2761 N 258.668 -1.30515 -0.883378 0
M  V30 2762 C 260.079 -1.17509 -1.45081 0
M  V30 2763 C 260.43 0.223605 -1.94922 0
M  V30 2764 O 259.555 1.12041 -1.85137 0
M  V30 2765 C 260.15 -2.12715 -2.63701 0
M  V30 2766 C 258.709 -2.03682 -3.16529 0
M  V30 2767 C 257.856 -2.02706 -1.89224 0
M  V30 2768 H 260.807 -1.42762 -0.693165 0
M  V30 2769 H 260.828 -1.70891 -3.39965 0
M  V30 2770 H 260.34 -3.14505 -2.27395 0
M  V30 2771 H 258.441 -1.05039 -3.57488 0
M  V30 2772 H 258.554 -2.92146 -3.7972 0
M  V30 2773 H 256.918 -1.4753 -2.07622 0
M  V30 2774 H 257.701 -3.06229 -1.55174 0
M  V30 2775 N 260.146 1.09593 -1.13257 0
M  V30 2776 C 261.056 2.19739 -0.821691 0
M  V30 2777 C 262.072 1.72926 0.19302 0
M  V30 2778 O 263.248 2.01385 0.0244895 0
M  V30 2779 C 260.313 3.45482 -0.290333 0
M  V30 2780 C 259.374 4.06985 -1.36607 0
M  V30 2781 C 258.607 5.26726 -0.859975 0
M  V30 2782 O 258.83 5.69594 0.303082 0
M  V30 2783 O 257.764 5.7931 -1.63351 0
M  V30 2784 H 261.59 2.48781 -1.74189 0
M  V30 2785 H 259.175 1.18496 -0.909894 0
M  V30 2786 H 261.057 4.214 0.000674022 0
M  V30 2787 H 259.732 3.18047 0.602306 0
M  V30 2788 H 258.639 3.32712 -1.71037 0
M  V30 2789 H 259.972 4.38643 -2.23279 0
M  V30 2790 N 261.624 0.925811 1.2754 0
M  V30 2791 C 263.04 0.625767 1.46821 0
M  V30 2792 C 263.24 -0.825506 1.83814 0
M  V30 2793 O 262.296 -1.60356 1.95044 0
M  V30 2794 C 263.609 1.57402 2.56213 0
M  V30 2795 C 265.157 1.58204 2.70075 0
M  V30 2796 C 265.632 2.51721 3.82623 0
M  V30 2797 N 267.123 2.49917 3.89994 0
M  V30 2798 C 267.858 3.18968 4.76494 0
M  V30 2799 N 267.354 3.97391 5.67496 0
M  V30 2800 N 269.147 3.07996 4.70208 0
M  V30 2801 H 261.298 1.86409 1.01811 0
M  V30 2802 H 263.561 0.800213 0.508295 0
M  V30 2803 H 263.267 2.60925 2.35819 0
M  V30 2804 H 263.141 1.31428 3.53563 0
M  V30 2805 H 265.528 0.554124 2.89851 0
M  V30 2806 H 265.609 1.88226 1.73218 0
M  V30 2807 H 265.253 3.54622 3.63601 0
M  V30 2808 H 265.183 2.18996 4.78903 0
M  V30 2809 H 267.674 1.9296 3.24923 0
M  V30 2810 H 267.987 4.4707 6.30356 0
M  V30 2811 H 266.332 4.01495 5.67298 0
M  V30 2812 H 269.523 2.46223 3.9811 0
M  V30 2813 H 269.696 3.6208 5.37403 0
M  V30 2814 N 263.102 -1.41638 0.69111 0
M  V30 2815 C 264.349 -2.01299 0.220193 0
M  V30 2816 C 264.677 -1.54715 -1.17871 0
M  V30 2817 O 263.932 -0.747193 -1.80874 0
M  V30 2818 C 264.231 -3.56714 0.221277 0
M  V30 2819 C 263.897 -4.22792 1.56709 0
M  V30 2820 C 262.559 -4.40557 1.93554 0
M  V30 2821 C 264.911 -4.59883 2.45268 0
M  V30 2822 C 262.239 -4.92688 3.18552 0
M  V30 2823 C 264.591 -5.13403 3.69595 0
M  V30 2824 C 263.255 -5.29379 4.06589 0
M  V30 2825 H 262.525 -0.736606 0.0805743 0
M  V30 2826 H 265.172 -1.69598 0.889319 0
M  V30 2827 H 263.477 -3.8818 -0.531391 0
M  V30 2828 H 265.174 -4.00678 -0.160547 0
M  V30 2829 H 261.764 -4.09336 1.2705 0
M  V30 2830 H 265.948 -4.45817 2.18084 0
M  V30 2831 H 261.204 -5.03242 3.47214 0
M  V30 2832 H 265.378 -5.41084 4.38407 0
M  V30 2833 H 263.005 -5.69537 5.03519 0
M  V30 2834 N 264.58 -0.43555 -1.51462 0
M  V30 2835 C 265.49 0.383001 -2.31453 0
M  V30 2836 C 266.506 1.02931 -1.4029 0
M  V30 2837 O 267.682 1.02507 -1.73362 0
M  V30 2838 C 264.747 1.47043 -3.13973 0
M  V30 2839 C 263.808 0.844433 -4.20913 0
M  V30 2840 C 263.041 1.88004 -4.9949 0
M  V30 2841 O 263.264 3.10199 -4.78678 0
M  V30 2842 O 262.198 1.47157 -5.83634 0
M  V30 2843 H 266.024 -0.269964 -3.02498 0
M  V30 2844 H 263.609 -0.19813 -1.4808 0
M  V30 2845 H 265.491 2.10113 -3.65281 0
M  V30 2846 H 264.166 2.10751 -2.45695 0
M  V30 2847 H 263.073 0.175729 -3.73687 0
M  V30 2848 H 264.406 0.250869 -4.9156 0
M  V30 2849 N 266.058 1.56714 -0.166846 0
M  V30 2850 C 267.469 1.83378 0.350646 0
M  V30 2851 C 267.82 1.08646 1.63372 0
M  V30 2852 O 266.945 0.338058 2.13743 0
M  V30 2853 C 267.54 3.32643 0.642963 0
M  V30 2854 C 266.099 3.59818 1.10491 0
M  V30 2855 C 265.246 2.76954 0.138411 0
M  V30 2856 H 268.197 1.53803 -0.391193 0
M  V30 2857 H 268.218 3.49878 1.49551 0
M  V30 2858 H 267.73 3.87007 -0.291055 0
M  V30 2859 H 265.831 3.1086 2.05418 0
M  V30 2860 H 265.944 4.68178 1.01716 0
M  V30 2861 H 264.308 2.4666 0.634911 0
M  V30 2862 H 265.091 3.34097 -0.789549 0
M  V30 2863 N 267.536 -0.106894 1.57237 0
M  V30 2864 C 268.446 -1.14911 2.0453 0
M  V30 2865 C 269.462 -1.44592 0.96795 0
M  V30 2866 O 270.638 -1.55468 1.2803 0
M  V30 2867 C 267.703 -2.45272 2.45036 0
M  V30 2868 C 266.764 -2.22879 3.66911 0
M  V30 2869 C 265.997 -3.47024 4.05475 0
M  V30 2870 O 266.22 -4.54804 3.44252 0
M  V30 2871 O 265.154 -3.3731 4.98504 0
M  V30 2872 H 268.98 -0.777461 2.9358 0
M  V30 2873 H 266.565 -0.318563 1.45964 0
M  V30 2874 H 268.447 -3.22055 2.71769 0
M  V30 2875 H 267.122 -2.81886 1.59129 0
M  V30 2876 H 266.029 -1.43915 3.45311 0
M  V30 2877 H 267.362 -1.91163 4.53561 0
M  V30 2878 N 269.014 -1.53014 -0.377408 0
M  V30 2879 C 269.944 -1.81589 -1.46791 0
M  V30 2880 C 270.925 -0.668622 -1.56408 0
M  V30 2881 O 272.11 -0.917337 -1.71168 0
M  V30 2882 C 269.24 -1.99519 -2.8427 0
M  V30 2883 C 268.194 -3.15249 -2.89486 0
M  V30 2884 C 267.52 -3.18451 -4.29527 0
M  V30 2885 C 268.82 -4.54084 -2.58079 0
M  V30 2886 H 270.514 -2.7291 -1.23127 0
M  V30 2887 H 268.06 -1.31319 -0.590883 0
M  V30 2888 H 270.013 -2.18092 -3.60575 0
M  V30 2889 H 268.737 -1.04897 -3.09296 0
M  V30 2890 H 267.396 -2.96477 -2.15631 0
M  V30 2891 H 267.044 -2.2149 -4.5161 0
M  V30 2892 H 266.744 -3.962 -4.33934 0
M  V30 2893 H 268.268 -3.39193 -5.07721 0
M  V30 2894 H 269.682 -4.72899 -3.24098 0
M  V30 2895 H 268.079 -5.33987 -2.7382 0
M  V30 2896 H 269.149 -4.60006 -1.53372 0
M  V30 2897 N 270.492 0.636531 -1.44174 0
M  V30 2898 C 271.44 1.76995 -1.50915 0
M  V30 2899 C 272.434 1.65053 -0.381295 0
M  V30 2900 O 273.64 1.71197 -0.55601 0
M  V30 2901 H 270.015 0.584247 -0.473455 0
M  V30 2902 H 271.986 1.68432 -2.4632 0
M  V30 2903 C 270.735 3.15314 -1.46534 0
M  V30 2904 H 270.058 3.25149 -2.32633 0
M  V30 2905 H 271.498 3.9453 -1.55312 0
M  V30 2906 C 269.957 3.3639 -0.185305 0
M  V30 2907 O 270.487 3.94699 0.746688 0
M  V30 2908 N 268.693 2.9046 -0.0901606 0
M  V30 2909 H 268.24 2.43193 -0.849416 0
M  V30 2910 H 268.198 3.04937 0.765553 0
M  V30 2911 N 271.97 1.30982 0.876444 0
M  V30 2912 C 272.88 1.2003 2.01569 0
M  V30 2913 C 273.896 0.11838 1.73597 0
M  V30 2914 O 275.072 0.33495 1.98595 0
M  V30 2915 C 272.137 0.901637 3.34771 0
M  V30 2916 C 271.198 2.06979 3.76109 0
M  V30 2917 C 270.431 1.78529 5.02954 0
M  V30 2918 O 270.654 0.717296 5.65872 0
M  V30 2919 O 269.588 2.64019 5.40905 0
M  V30 2920 H 273.414 2.15753 2.13739 0
M  V30 2921 H 270.999 1.10658 1.00375 0
M  V30 2922 H 272.881 0.750645 4.1466 0
M  V30 2923 H 271.556 -0.0256141 3.2369 0
M  V30 2924 H 270.463 2.27616 2.96887 0
M  V30 2925 H 271.796 2.97907 3.91807 0
M  V30 2926 N 273.449 -1.08991 1.13837 0
M  V30 2927 C 274.695 -1.81526 0.90422 0
M  V30 2928 C 275.028 -1.85706 -0.568066 0
M  V30 2929 O 274.303 -1.32855 -1.42056 0
M  V30 2930 C 274.586 -3.27447 1.49835 0
M  V30 2931 C 274.439 -3.31512 3.04006 0
M  V30 2932 C 275.758 -4.24256 1.17025 0
M  V30 2933 H 272.877 -0.659029 0.329923 0
M  V30 2934 H 275.519 -1.27644 1.40737 0
M  V30 2935 H 273.669 -3.73462 1.07044 0
M  V30 2936 H 275.341 -2.93867 3.55584 0
M  V30 2937 H 273.584 -2.70963 3.38765 0
M  V30 2938 H 274.255 -4.34329 3.40679 0
M  V30 2939 H 276.731 -3.86549 1.54009 0
M  V30 2940 H 275.607 -5.24684 1.61237 0
M  V30 2941 H 275.868 -4.42019 0.0846274 0
M  V30 2942 N 274.927 -0.932562 -1.27047 0
M  V30 2943 C 275.875 -0.42603 -2.28665 0
M  V30 2944 C 276.869 0.49219 -1.62092 0
M  V30 2945 O 278.075 0.371355 -1.76128 0
M  V30 2946 H 274.45 -0.119213 -0.742491 0
M  V30 2947 H 276.421 -1.29579 -2.68797 0
M  V30 2948 C 275.17 0.301426 -3.46391 0
M  V30 2949 H 274.493 -0.39595 -3.97834 0
M  V30 2950 H 275.933 0.6202 -4.1944 0
M  V30 2951 C 274.392 1.51616 -3.00856 0
M  V30 2952 O 274.922 2.61476 -3.04948 0
M  V30 2953 N 273.128 1.36969 -2.56296 0
M  V30 2954 H 272.675 0.475873 -2.53166 0
M  V30 2955 H 272.633 2.18368 -2.26192 0
M  V30 2956 N 276.405 1.4127 -0.698611 0
M  V30 2957 C 277.816 1.84187 -0.305289 0
M  V30 2958 C 278.167 1.58449 1.15708 0
M  V30 2959 O 277.292 1.05651 1.88856 0
M  V30 2960 C 277.887 3.3435 -0.547314 0
M  V30 2961 C 276.446 3.75826 -0.207878 0
M  V30 2962 C 275.593 2.64647 -0.828099 0
M  V30 2963 H 278.544 1.30778 -0.89904 0
M  V30 2964 H 278.565 3.8001 0.192998 0
M  V30 2965 H 278.077 3.53051 -1.61172 0
M  V30 2966 H 276.178 3.62725 0.852143 0
M  V30 2967 H 276.291 4.74462 -0.665021 0
M  V30 2968 H 274.655 2.53395 -0.257458 0
M  V30 2969 H 275.438 2.86165 -1.89643 0
M  V30 2970 N 277.883 0.443576 1.51229 0
M  V30 2971 C 279.131 -0.120557 2.0174 0
M  V30 2972 C 279.452 -1.42665 1.32935 0
M  V30 2973 O 278.722 -1.9028 0.465866 0
M  V30 2974 H 277.302 -0.0475426 0.745486 0
M  V30 2975 H 279.964 0.587711 1.85828 0
M  V30 2976 H 279.06 -0.291972 3.10731 0
M  V30 2977 N 279.361 -1.56624 0.175154 0
M  V30 2978 C 280.271 -2.21741 -0.766042 0
M  V30 2979 C 281.287 -1.21023 -1.25018 0
M  V30 2980 O 282.463 -1.53697 -1.3015 0
M  V30 2981 C 279.528 -2.84839 -1.97655 0
M  V30 2982 C 278.589 -4.00769 -1.53892 0
M  V30 2983 C 277.822 -4.60849 -2.69173 0
M  V30 2984 O 278.045 -4.19823 -3.86141 0
M  V30 2985 O 276.979 -5.50655 -2.43028 0
M  V30 2986 H 280.805 -3.02738 -0.241585 0
M  V30 2987 H 278.39 -1.49305 -0.053222 0
M  V30 2988 H 280.272 -3.24834 -2.68442 0
M  V30 2989 H 278.947 -2.06836 -2.48999 0
M  V30 2990 H 277.854 -3.65436 -0.80044 0
M  V30 2991 H 279.187 -4.80376 -1.07236 0
M  V30 2992 N 280.839 0.0985539 -1.57292 0
M  V30 2993 C 282.067 0.816318 -1.90115 0
M  V30 2994 C 282.482 1.72451 -0.768509 0
M  V30 2995 O 281.839 1.80643 0.259687 0
M  V30 2996 C 281.89 1.63259 -3.22535 0
M  V30 2997 O 281.611 0.760934 -4.31441 0
M  V30 2998 C 283.112 2.45372 -3.69199 0
M  V30 2999 H 280.332 0.233595 -0.629027 0
M  V30 3000 H 282.876 0.0768229 -2.04356 0
M  V30 3001 H 281.031 2.32463 -3.09903 0
M  V30 3002 H 281.445 1.32595 -5.07463 0
M  V30 3003 H 282.919 2.98144 -4.64558 0
M  V30 3004 H 283.396 3.23677 -2.96867 0
M  V30 3005 H 284.002 1.81373 -3.84687 0
M  V30 3006 N 282.317 1.53212 0.369288 0
M  V30 3007 C 283.249 1.75668 1.47219 0
M  V30 3008 C 284.262 0.637387 1.49804 0
M  V30 3009 O 285.451 0.913561 1.5335 0
M  V30 3010 C 282.551 1.81818 2.85999 0
M  V30 3011 C 281.724 3.11409 3.07153 0
M  V30 3012 C 280.783 3.08849 4.26026 0
M  V30 3013 O 279.809 3.82659 4.2138 0
M  V30 3014 N 281.011 2.29409 5.33246 0
M  V30 3015 H 283.776 2.70832 1.28337 0
M  V30 3016 H 281.337 1.51944 0.55898 0
M  V30 3017 H 283.329 1.77588 3.63655 0
M  V30 3018 H 281.899 0.939544 2.98146 0
M  V30 3019 H 281.119 3.28971 2.1719 0
M  V30 3020 H 282.407 3.97059 3.18154 0
M  V30 3021 H 281.805 1.68946 5.39883 0
M  V30 3022 H 280.362 2.31001 6.09493 0
M  V30 3023 N 283.795 -0.628877 1.44509 0
M  V30 3024 C 285.072 -1.38733 1.37886 0
M  V30 3025 C 285.452 -2.11065 0.0387008 0
M  V30 3026 O 284.8 -2.06476 -0.97878 0
M  V30 3027 C 285.01 -2.35188 2.57852 0
M  V30 3028 C 286.358 -2.9845 3.02014 0
M  V30 3029 O 287.382 -2.45513 2.58073 0
M  V30 3030 O 286.241 -3.94487 3.78209 0
M  V30 3031 H 283.335 -0.621015 0.54614 0
M  V30 3032 H 285.881 -0.653744 1.56602 0
M  V30 3033 H 284.653 -1.80855 3.46998 0
M  V30 3034 H 284.276 -3.1596 2.4136 0
M  V30 3035 N 285.273 -1.31445 -0.869486 0
M  V30 3036 C 286.501 -1.24122 -1.65534 0
M  V30 3037 C 286.916 0.193387 -1.87807 0
M  V30 3038 O 286.273 1.12557 -1.43656 0
M  V30 3039 C 286.324 -1.98229 -3.02304 0
M  V30 3040 O 286.045 -3.3609 -2.81026 0
M  V30 3041 C 287.546 -1.97751 -3.96749 0
M  V30 3042 H 284.766 -0.428868 -0.516055 0
M  V30 3043 H 287.31 -1.73328 -1.08525 0
M  V30 3044 H 285.465 -1.52782 -3.56001 0
M  V30 3045 H 285.879 -3.7383 -3.67902 0
M  V30 3046 H 287.353 -2.54114 -4.90031 0
M  V30 3047 H 287.83 -0.960137 -4.28577 0
M  V30 3048 H 288.436 -2.43079 -3.48988 0
M  V30 3049 N 286.751 1.08385 -1.14413 0
M  V30 3050 C 287.976 1.85057 -0.936413 0
M  V30 3051 C 288.401 1.81055 0.509971 0
M  V30 3052 O 287.759 1.1958 1.36273 0
M  V30 3053 C 287.807 3.30505 -1.44217 0
M  V30 3054 O 286.911 4.07491 -0.634409 0
M  V30 3055 H 286.252 0.573425 -0.334784 0
M  V30 3056 H 288.782 1.36799 -1.52142 0
M  V30 3057 H 288.792 3.81348 -1.45043 0
M  V30 3058 H 287.467 3.32734 -2.49522 0
M  V30 3059 H 286.044 3.66368 -0.694902 0
M  V30 3060 N 288.23 0.939286 1.26551 0
M  V30 3061 C 289.458 0.602536 1.97932 0
M  V30 3062 C 289.873 -0.82206 1.69964 0
M  V30 3063 O 289.23 -1.54789 0.966784 0
M  V30 3064 C 289.281 0.832946 3.51773 0
M  V30 3065 O 289.002 2.20151 3.78768 0
M  V30 3066 C 290.503 0.506483 4.40397 0
M  V30 3067 H 287.723 0.227248 0.631347 0
M  V30 3068 H 290.267 1.25948 1.61113 0
M  V30 3069 H 288.422 0.222644 3.8676 0
M  V30 3070 H 288.836 2.26013 4.73306 0
M  V30 3071 H 290.31 0.718333 5.47306 0
M  V30 3072 H 290.787 -0.558451 4.35635 0
M  V30 3073 H 291.393 1.09543 4.10951 0
M  V30 3074 N 289.708 -1.40897 0.706093 0
M  V30 3075 C 290.671 -2.29131 0.0562841 0
M  V30 3076 C 291.671 -1.44901 -0.697166 0
M  V30 3077 O 292.861 -1.65926 -0.530484 0
M  V30 3078 C 289.993 -3.27957 -0.93043 0
M  V30 3079 H 291.186 -2.88091 0.833284 0
M  V30 3080 H 288.739 -1.4906 0.470192 0
M  V30 3081 H 289.474 -2.73997 -1.73482 0
M  V30 3082 H 289.259 -3.90124 -0.393166 0
M  V30 3083 H 290.749 -3.94049 -1.38256 0
M  V30 3084 N 291.186 -0.45159 -1.50991 0
M  V30 3085 C 292.602 -0.104647 -1.59257 0
M  V30 3086 C 292.802 1.38728 -1.4614 0
M  V30 3087 O 291.858 2.15866 -1.30989 0
M  V30 3088 C 293.171 -0.637468 -2.93865 0
M  V30 3089 C 294.719 -0.599166 -3.07212 0
M  V30 3090 C 295.194 -1.1092 -4.44366 0
M  V30 3091 N 296.685 -1.06778 -4.50725 0
M  V30 3092 C 297.42 -1.43314 -5.55201 0
M  V30 3093 N 296.916 -1.87204 -6.67028 0
M  V30 3094 N 298.709 -1.3504 -5.45638 0
M  V30 3095 H 290.86 -1.42214 -1.57762 0
M  V30 3096 H 293.123 -0.586921 -0.744465 0
M  V30 3097 H 292.829 -1.68187 -3.08879 0
M  V30 3098 H 292.703 -0.0702139 -3.77135 0
M  V30 3099 H 295.09 0.436277 -2.91857 0
M  V30 3100 H 295.171 -1.20299 -2.25747 0
M  V30 3101 H 294.815 -2.14318 -4.60467 0
M  V30 3102 H 294.745 -0.481773 -5.24392 0
M  V30 3103 H 297.236 -0.745643 -3.70471 0
M  V30 3104 H 297.549 -2.13282 -7.42786 0
M  V30 3105 H 295.894 -1.91142 -6.68199 0
M  V30 3106 H 299.085 -1.00607 -4.57161 0
M  V30 3107 H 299.258 -1.63841 -6.26945 0
M  V30 3108 N 292.664 1.56529 -0.183458 0
M  V30 3109 C 293.627 2.17324 0.728223 0
M  V30 3110 C 294.627 1.12453 1.14939 0
M  V30 3111 O 295.817 1.37902 1.06437 0
M  V30 3112 C 292.949 2.76591 1.99274 0
M  V30 3113 H 294.142 2.99241 0.198772 0
M  V30 3114 H 291.695 1.5616 0.0661391 0
M  V30 3115 H 292.43 1.98441 2.56499 0
M  V30 3116 H 292.215 3.5335 1.69959 0
M  V30 3117 H 293.705 3.23311 2.6431 0
M  V30 3118 N 294.142 -0.090211 1.57342 0
M  V30 3119 C 295.072 -1.10976 2.05443 0
M  V30 3120 C 296.053 -1.41482 0.944284 0
M  V30 3121 O 297.238 -1.51428 1.21586 0
M  V30 3122 C 294.368 -2.42831 2.48295 0
M  V30 3123 C 293.322 -2.26721 3.63018 0
M  V30 3124 C 292.648 -3.63796 3.91863 0
M  V30 3125 C 293.948 -1.7037 4.93732 0
M  V30 3126 H 295.642 -0.709564 2.9087 0
M  V30 3127 H 293.188 -0.339874 1.39932 0
M  V30 3128 H 295.141 -3.14431 2.80555 0
M  V30 3129 H 293.865 -2.84795 1.59873 0
M  V30 3130 H 292.524 -1.57565 3.31012 0
M  V30 3131 H 292.172 -4.03297 3.00601 0
M  V30 3132 H 291.872 -3.53861 4.69101 0
M  V30 3133 H 293.396 -4.36855 4.26603 0
M  V30 3134 H 294.81 -2.31816 5.24342 0
M  V30 3135 H 293.207 -1.71181 5.75167 0
M  V30 3136 H 294.277 -0.663542 4.80339 0
M  V30 3137 N 295.62 -1.53406 -0.361157 0
M  V30 3138 C 296.866 -1.70054 -1.10496 0
M  V30 3139 C 297.199 -0.453278 -1.88836 0
M  V30 3140 O 296.474 0.5495 -1.86576 0
M  V30 3141 C 296.757 -2.95317 -2.06058 0
M  V30 3142 C 296.61 -4.3021 -1.31298 0
M  V30 3143 C 297.929 -3.16193 -3.06121 0
M  V30 3144 H 295.048 -0.618799 -0.400321 0
M  V30 3145 H 297.69 -1.86052 -0.385318 0
M  V30 3146 H 295.84 -2.81809 -2.67425 0
M  V30 3147 H 297.512 -4.55538 -0.726807 0
M  V30 3148 H 295.755 -4.29421 -0.614853 0
M  V30 3149 H 296.426 -5.14 -2.01265 0
M  V30 3150 H 298.902 -3.28916 -2.5486 0
M  V30 3151 H 297.778 -4.05266 -3.70204 0
M  V30 3152 H 298.039 -2.31676 -3.76535 0
M  V30 3153 N 297.098 0.621204 -1.44841 0
M  V30 3154 C 298.326 1.40752 -1.51646 0
M  V30 3155 C 298.741 1.88246 -0.144549 0
M  V30 3156 O 298.098 1.61422 0.851416 0
M  V30 3157 C 298.149 2.62119 -2.4895 0
M  V30 3158 O 297.87 2.16602 -3.80808 0
M  V30 3159 C 299.371 3.55135 -2.65319 0
M  V30 3160 H 296.591 0.431325 -0.514004 0
M  V30 3161 H 299.135 0.758835 -1.899 0
M  V30 3162 H 297.29 3.23058 -2.13805 0
M  V30 3163 H 297.704 2.95358 -4.33433 0
M  V30 3164 H 299.178 4.36874 -3.37409 0
M  V30 3165 H 299.655 4.04592 -1.70886 0
M  V30 3166 H 300.261 3.00058 -3.01405 0
M  V30 3167 N 298.576 1.31904 0.862503 0
M  V30 3168 C 299.801 1.25135 1.65397 0
M  V30 3169 C 300.226 -0.179 1.87246 0
M  V30 3170 O 299.584 -1.1277 1.4196 0
M  V30 3171 C 299.632 2.00832 2.99498 0
M  V30 3172 O 298.736 1.35075 3.89652 0
M  V30 3173 H 298.077 0.431655 0.504549 0
M  V30 3174 H 300.607 1.74094 1.07483 0
M  V30 3175 H 300.617 2.10709 3.49379 0
M  V30 3176 H 299.292 3.04847 2.82916 0
M  V30 3177 H 297.869 1.33696 3.48109 0
M  V30 3178 N 300.054 -1.07777 1.14986 0
M  V30 3179 C 300.984 -2.16865 0.865557 0
M  V30 3180 C 301.965 -1.69123 -0.182083 0
M  V30 3181 O 303.15 -1.94164 -0.0373815 0
M  V30 3182 C 300.28 -3.45539 0.349313 0
M  V30 3183 C 299.234 -4.06708 1.33313 0
M  V30 3184 C 298.56 -5.30411 0.675918 0
M  V30 3185 C 299.86 -4.47241 2.69764 0
M  V30 3186 H 301.554 -2.40905 1.77778 0
M  V30 3187 H 299.1 -1.15781 0.856203 0
M  V30 3188 H 301.053 -4.21174 0.137983 0
M  V30 3189 H 299.777 -3.21072 -0.598362 0
M  V30 3190 H 298.436 -3.33112 1.53075 0
M  V30 3191 H 298.084 -5.02232 -0.277767 0
M  V30 3192 H 297.784 -5.72293 1.33244 0
M  V30 3193 H 299.308 -6.08755 0.474262 0
M  V30 3194 H 300.722 -5.14025 2.53873 0
M  V30 3195 H 299.119 -5.00062 3.3175 0
M  V30 3196 H 300.189 -3.58818 3.26156 0
M  V30 3197 N 301.532 -0.945985 -1.26051 0
M  V30 3198 C 302.948 -0.649045 -1.45807 0
M  V30 3199 C 303.148 0.796158 -1.85104 0
M  V30 3200 O 302.204 1.57233 -1.97571 0
M  V30 3201 C 303.517 -1.61458 -2.53677 0
M  V30 3202 C 305.065 -1.62481 -2.67524 0
M  V30 3203 C 305.54 -2.57776 -3.7857 0
M  V30 3204 N 307.031 -2.5609 -3.85969 0
M  V30 3205 C 307.766 -3.26508 -4.7136 0
M  V30 3206 N 307.262 -4.0637 -5.61102 0
M  V30 3207 N 309.055 -3.15437 -4.65248 0
M  V30 3208 H 301.206 -1.88005 -0.988328 0
M  V30 3209 H 303.469 -0.808198 -0.4955 0
M  V30 3210 H 303.175 -2.64644 -2.31638 0
M  V30 3211 H 303.049 -1.37036 -3.51427 0
M  V30 3212 H 305.436 -0.600167 -2.88933 0
M  V30 3213 H 305.517 -1.90958 -1.70202 0
M  V30 3214 H 305.161 -3.60361 -3.57913 0
M  V30 3215 H 305.091 -2.26587 -4.75359 0
M  V30 3216 H 307.582 -1.98105 -3.21812 0
M  V30 3217 H 307.895 -4.57042 -6.23164 0
M  V30 3218 H 306.24 -4.10469 -5.60839 0
M  V30 3219 H 309.431 -2.52525 -3.94143 0
M  V30 3220 H 309.604 -3.70584 -5.31575 0
M  V30 3221 N 303.011 1.40521 -0.713556 0
M  V30 3222 C 303.974 2.29098 -0.0684347 0
M  V30 3223 C 304.974 1.45268 0.689472 0
M  V30 3224 O 306.164 1.66205 0.521677 0
M  V30 3225 C 303.296 3.28446 0.913024 0
M  V30 3226 H 304.489 2.87645 -0.84855 0
M  V30 3227 H 302.042 1.48809 -0.47809 0
M  V30 3228 H 302.777 2.74913 1.72027 0
M  V30 3229 H 302.562 3.90327 0.372472 0
M  V30 3230 H 304.052 3.94777 1.36165 0
M  V30 3231 N 304.489 0.459591 1.5075 0
M  V30 3232 C 305.736 -0.0993495 2.02256 0
M  V30 3233 C 306.064 -1.40751 1.34237 0
M  V30 3234 O 305.319 -1.90379 0.453228 0
M  V30 3235 C 305.618 -0.342866 3.55752 0
M  V30 3236 C 305.284 0.88218 4.42186 0
M  V30 3237 C 303.946 1.21808 4.65528 0
M  V30 3238 C 306.298 1.69837 4.92752 0
M  V30 3239 C 303.626 2.37045 5.36681 0
M  V30 3240 C 305.978 2.84192 5.65171 0
M  V30 3241 C 304.642 3.1821 5.8677 0
M  V30 3242 H 303.912 -0.0363545 0.740108 0
M  V30 3243 H 306.559 0.611329 1.8148 0
M  V30 3244 H 304.864 -1.13567 3.7498 0
M  V30 3245 H 306.561 -0.789121 3.93159 0
M  V30 3246 H 303.151 0.610467 4.2423 0
M  V30 3247 H 307.335 1.45205 4.74583 0
M  V30 3248 H 302.591 2.63689 5.51614 0
M  V30 3249 H 306.765 3.4779 6.03337 0
M  V30 3250 H 304.392 4.07613 6.41682 0
M  V30 3251 N 305.967 -1.56429 0.191757 0
M  V30 3252 C 306.93 -2.17707 -0.716688 0
M  V30 3253 C 307.93 -1.13061 -1.14341 0
M  V30 3254 O 309.12 -1.38464 -1.05704 0
M  V30 3255 C 306.252 -2.77644 -1.97804 0
M  V30 3256 H 307.445 -2.99342 -0.1829 0
M  V30 3257 H 304.998 -1.56193 -0.0578566 0
M  V30 3258 H 305.733 -1.99799 -2.55443 0
M  V30 3259 H 305.518 -3.54246 -1.68083 0
M  V30 3260 H 307.008 -3.24708 -2.62592 0
M  V30 3261 N 307.445 0.0818655 -1.57387 0
M  V30 3262 C 308.375 1.09885 -2.06028 0
M  V30 3263 C 309.356 1.4098 -0.951774 0
M  V30 3264 O 310.541 1.50781 -1.22387 0
M  V30 3265 C 307.671 2.4151 -2.4958 0
M  V30 3266 C 306.625 2.24792 -3.64215 0
M  V30 3267 C 305.951 3.61712 -3.93787 0
M  V30 3268 C 307.251 1.67749 -4.94629 0
M  V30 3269 H 308.945 0.694128 -2.91243 0
M  V30 3270 H 306.491 0.332448 -1.4011 0
M  V30 3271 H 308.444 3.12939 -2.82219 0
M  V30 3272 H 307.168 2.83943 -1.61381 0
M  V30 3273 H 305.827 1.55807 -3.31843 0
M  V30 3274 H 305.475 4.01697 -3.02735 0
M  V30 3275 H 305.175 3.51368 -4.70971 0
M  V30 3276 H 306.699 4.34587 -4.28913 0
M  V30 3277 H 308.113 2.29032 -5.25564 0
M  V30 3278 H 306.51 1.68128 -5.76067 0
M  V30 3279 H 307.58 0.638059 -4.80684 0
M  V30 3280 N 308.923 1.53595 0.353017 0
M  V30 3281 C 309.833 1.83897 1.45667 0
M  V30 3282 C 310.849 0.728334 1.58023 0
M  V30 3283 O 312.025 1.01968 1.73679 0
M  V30 3284 C 309.09 2.03383 2.80778 0
M  V30 3285 C 308.151 3.27262 2.77845 0
M  V30 3286 C 307.384 3.45809 4.06512 0
M  V30 3287 O 307.607 2.68387 5.03314 0
M  V30 3288 O 306.541 4.39207 4.11559 0
M  V30 3289 H 310.367 2.77686 1.2298 0
M  V30 3290 H 307.952 1.39132 0.544308 0
M  V30 3291 H 309.834 2.17698 3.60812 0
M  V30 3292 H 308.509 1.12783 3.03417 0
M  V30 3293 H 307.416 3.18359 1.96465 0
M  V30 3294 H 308.749 4.17824 2.60161 0
M  V30 3295 N 310.401 -0.613514 1.45168 0
M  V30 3296 C 311.678 -1.37263 1.39349 0
M  V30 3297 C 312.058 -2.11012 0.0610848 0
M  V30 3298 O 311.406 -2.07502 -0.956825 0
M  V30 3299 C 311.616 -2.3244 2.60332 0
M  V30 3300 C 312.964 -2.9523 3.05163 0
M  V30 3301 O 313.988 -2.42762 2.60663 0
M  V30 3302 O 312.847 -3.90454 3.82372 0
M  V30 3303 H 309.941 -0.615188 0.552696 0
M  V30 3304 H 312.487 -0.637097 1.57287 0
M  V30 3305 H 311.259 -1.77164 3.48896 0
M  V30 3306 H 310.882 -3.13383 2.44698 0
M  V30 3307 N 311.879 -1.3236 -0.855495 0
M  V30 3308 C 312.826 -1.21225 -1.964 0
M  V30 3309 C 313.796 -0.0946204 -1.6583 0
M  V30 3310 O 314.981 -0.27002 -1.8888 0
M  V30 3311 C 312.121 -0.940419 -3.32039 0
M  V30 3312 C 311.234 -2.14276 -3.75113 0
M  V30 3313 C 310.369 -1.80648 -4.9954 0
M  V30 3314 C 309.408 -2.97208 -5.35102 0
M  V30 3315 N 308.545 -2.63678 -6.50706 0
M  V30 3316 H 313.385 -2.16042 -2.05255 0
M  V30 3317 H 310.922 -1.07451 -1.00463 0
M  V30 3318 H 312.88 -0.763311 -4.10158 0
M  V30 3319 H 311.51 -0.0290413 -3.22787 0
M  V30 3320 H 310.562 -2.43017 -2.92655 0
M  V30 3321 H 311.874 -3.01468 -3.97389 0
M  V30 3322 H 311.028 -1.59484 -5.85363 0
M  V30 3323 H 309.767 -0.906678 -4.79198 0
M  V30 3324 H 308.772 -3.19004 -4.47791 0
M  V30 3325 H 309.997 -3.87918 -5.57401 0
M  V30 3326 H 307.943 -1.76238 -6.31883 0
M  V30 3327 H 307.86 -3.444 -6.72997 0
M  V30 3328 H 309.128 -2.45942 -7.39684 0
M  V30 3329 N 313.357 1.07166 -1.15556 0
M  V30 3330 C 314.287 2.16403 -0.877046 0
M  V30 3331 C 315.268 1.69217 0.173111 0
M  V30 3332 O 316.453 1.94181 0.027084 0
M  V30 3333 C 313.583 3.45349 -0.367632 0
M  V30 3334 C 312.537 4.05995 -1.35468 0
M  V30 3335 C 311.863 5.30045 -0.704038 0
M  V30 3336 C 313.163 4.45804 -2.72132 0
M  V30 3337 H 314.857 2.39959 -1.79053 0
M  V30 3338 H 312.403 1.15325 -0.862331 0
M  V30 3339 H 314.356 4.21095 -0.160317 0
M  V30 3340 H 313.08 3.21385 0.581326 0
M  V30 3341 H 311.739 3.32296 -1.54839 0
M  V30 3342 H 311.387 5.02373 0.251128 0
M  V30 3343 H 311.087 5.71579 -1.36277 0
M  V30 3344 H 312.611 6.08495 -0.50654 0
M  V30 3345 H 314.025 5.12671 -2.56595 0
M  V30 3346 H 312.422 4.98296 -3.34397 0
M  V30 3347 H 313.492 3.57083 -3.28054 0
M  V30 3348 N 314.835 0.952656 1.25548 0
M  V30 3349 C 316.246 0.647392 1.75116 0
M  V30 3350 C 316.597 -0.837274 1.77438 0
M  V30 3351 O 315.722 -1.65525 1.39393 0
M  V30 3352 C 316.317 1.16845 3.18014 0
M  V30 3353 C 314.876 0.913382 3.6515 0
M  V30 3354 C 314.023 1.31265 2.44264 0
M  V30 3355 H 316.974 1.12968 1.11462 0
M  V30 3356 H 316.995 0.527606 3.76824 0
M  V30 3357 H 316.507 2.24902 3.16292 0
M  V30 3358 H 314.608 -0.152316 3.72289 0
M  V30 3359 H 314.721 1.54845 4.53387 0
M  V30 3360 H 313.085 0.731028 2.43984 0
M  V30 3361 H 313.868 2.40239 2.45234 0
M  V30 3362 N 316.313 -1.40141 0.720998 0
M  V30 3363 C 317.538 -2.05618 0.271258 0
M  V30 3364 C 317.963 -1.53978 -1.08039 0
M  V30 3365 O 317.321 -0.677463 -1.68167 0
M  V30 3366 C 317.369 -3.59609 0.267197 0
M  V30 3367 O 316.473 -4.05526 -0.749814 0
M  V30 3368 H 315.814 -0.651904 0.126162 0
M  V30 3369 H 318.344 -1.79439 0.982997 0
M  V30 3370 H 318.354 -4.0786 0.106744 0
M  V30 3371 H 317.029 -3.96559 1.25354 0
M  V30 3372 H 315.606 -3.68722 -0.556644 0
M  V30 3373 N 317.792 -0.46758 -1.50504 0
M  V30 3374 C 318.702 0.33382 -2.32213 0
M  V30 3375 C 319.718 0.999323 -1.42441 0
M  V30 3376 O 320.894 0.988068 -1.75497 0
M  V30 3377 C 317.959 1.4035 -3.17022 0
M  V30 3378 C 317.02 0.754961 -4.2261 0
M  V30 3379 C 316.253 1.77367 -5.03365 0
M  V30 3380 O 316.476 2.99976 -4.8515 0
M  V30 3381 O 315.41 1.34744 -5.86624 0
M  V30 3382 H 319.236 -0.334067 -3.01857 0
M  V30 3383 H 316.821 -0.229496 -1.47627 0
M  V30 3384 H 318.703 2.02318 -3.69656 0
M  V30 3385 H 317.378 2.05492 -2.5011 0
M  V30 3386 H 316.285 0.0964244 -3.73976 0
M  V30 3387 H 317.618 0.146545 -4.91982 0
M  V30 3388 N 319.27 1.56325 -0.20005 0
M  V30 3389 C 320.217 2.1932 0.718833 0
M  V30 3390 C 321.187 1.14198 1.20615 0
M  V30 3391 O 322.372 1.42469 1.26914 0
M  V30 3392 C 319.512 2.86041 1.93066 0
M  V30 3393 C 318.625 4.05702 1.48425 0
M  V30 3394 C 317.76 4.60266 2.65196 0
M  V30 3395 C 316.799 5.72273 2.17185 0
M  V30 3396 N 315.936 6.21221 3.27152 0
M  V30 3397 H 320.776 2.97486 0.17489 0
M  V30 3398 H 318.313 1.46911 0.0745794 0
M  V30 3399 H 320.271 3.22897 2.64184 0
M  V30 3400 H 318.901 2.1043 2.44783 0
M  V30 3401 H 317.953 3.74475 0.668755 0
M  V30 3402 H 319.265 4.86699 1.09204 0
M  V30 3403 H 318.419 4.99453 3.4443 0
M  V30 3404 H 317.158 3.78386 3.07693 0
M  V30 3405 H 316.163 5.3261 1.36407 0
M  V30 3406 H 317.388 6.55974 1.75713 0
M  V30 3407 H 315.334 5.42263 3.69171 0
M  V30 3408 H 315.251 6.97284 2.92116 0
M  V30 3409 H 316.519 6.65063 4.06585 0
M  V30 3410 N 320.748 -0.0735177 1.57428 0
M  V30 3411 C 322.164 -0.428264 1.53747 0
M  V30 3412 C 322.364 -1.79272 0.91998 0
M  V30 3413 O 321.42 -2.47051 0.521745 0
M  V30 3414 C 322.733 -0.370914 2.98404 0
M  V30 3415 C 324.281 -0.451224 3.0973 0
M  V30 3416 C 324.756 -0.4238 4.56035 0
M  V30 3417 N 326.247 -0.483925 4.60665 0
M  V30 3418 C 326.982 -0.484891 5.71346 0
M  V30 3419 N 326.478 -0.440775 6.91396 0
M  V30 3420 N 328.271 -0.531319 5.59583 0
M  V30 3421 H 320.422 0.819949 1.95935 0
M  V30 3422 H 322.685 0.307493 0.896745 0
M  V30 3423 H 322.391 0.564956 3.47133 0
M  V30 3424 H 322.265 -1.18176 3.5821 0
M  V30 3425 H 324.652 -1.37752 2.60976 0
M  V30 3426 H 324.733 0.388167 2.52838 0
M  V30 3427 H 324.377 0.498638 5.05446 0
M  V30 3428 H 324.307 -1.2807 5.10789 0
M  V30 3429 H 326.798 -0.522338 3.74273 0
M  V30 3430 H 327.111 -0.44539 7.71515 0
M  V30 3431 H 325.456 -0.40749 6.93804 0
M  V30 3432 H 328.647 -0.563464 4.64696 0
M  V30 3433 H 328.82 -0.528603 6.4584 0
M  V30 3434 N 322.226 -1.5378 -0.344866 0
M  V30 3435 C 323.136 -1.84667 -1.4469 0
M  V30 3436 C 324.152 -0.736704 -1.57635 0
M  V30 3437 O 325.328 -1.02888 -1.73136 0
M  V30 3438 C 322.393 -2.04869 -2.79696 0
M  V30 3439 C 321.454 -3.28731 -2.76106 0
M  V30 3440 C 320.687 -3.4796 -4.04673 0
M  V30 3441 O 320.91 -2.71052 -5.01883 0
M  V30 3442 O 319.844 -4.41383 -4.09224 0
M  V30 3443 H 323.67 -2.78334 -1.21506 0
M  V30 3444 H 321.255 -1.39418 -0.536921 0
M  V30 3445 H 323.137 -2.19609 -3.59652 0
M  V30 3446 H 321.812 -1.14391 -3.02814 0
M  V30 3447 H 320.719 -3.19396 -1.94774 0
M  V30 3448 H 322.052 -4.19198 -2.57941 0
M  V30 3449 N 323.704 0.605807 -1.45491 0
M  V30 3450 C 324.634 1.72709 -1.57143 0
M  V30 3451 C 325.615 1.6476 -0.422884 0
M  V30 3452 O 326.8 1.83132 -0.646247 0
M  V30 3453 C 323.93 3.11316 -1.53948 0
M  V30 3454 C 322.884 3.34077 -2.67537 0
M  V30 3455 C 322.21 4.72975 -2.49397 0
M  V30 3456 C 323.51 3.24158 -4.09535 0
M  V30 3457 H 325.204 1.63214 -2.51001 0
M  V30 3458 H 322.75 0.78379 -1.208 0
M  V30 3459 H 324.703 3.89557 -1.60696 0
M  V30 3460 H 323.427 3.21655 -0.566205 0
M  V30 3461 H 322.086 2.58227 -2.6022 0
M  V30 3462 H 321.734 4.8005 -1.50205 0
M  V30 3463 H 321.434 4.8916 -3.25571 0
M  V30 3464 H 322.958 5.53414 -2.58002 0
M  V30 3465 H 324.372 3.92271 -4.18086 0
M  V30 3466 H 322.769 3.51872 -4.86113 0
M  V30 3467 H 323.839 2.2157 -4.31317 0
M  V30 3468 N 325.182 1.32811 0.848464 0
M  V30 3469 C 326.112 1.24882 1.97299 0
M  V30 3470 C 327.093 0.131357 1.69592 0
M  V30 3471 O 328.278 0.319553 1.91553 0
M  V30 3472 C 325.408 0.97746 3.33261 0
M  V30 3473 C 324.362 2.05682 3.75338 0
M  V30 3474 C 323.688 1.63777 5.09 0
M  V30 3475 C 324.988 3.47254 3.90144 0
M  V30 3476 H 326.682 2.18966 2.04191 0
M  V30 3477 H 324.228 1.05413 0.981029 0
M  V30 3478 H 326.181 0.908513 4.1149 0
M  V30 3479 H 324.905 0.000980011 3.266 0
M  V30 3480 H 323.564 2.11603 2.99366 0
M  V30 3481 H 323.212 0.648569 4.98801 0
M  V30 3482 H 322.912 2.36 5.38124 0
M  V30 3483 H 324.436 1.5833 5.89715 0
M  V30 3484 H 325.85 3.43888 4.58709 0
M  V30 3485 H 324.247 4.1788 4.30693 0
M  V30 3486 H 325.317 3.86462 2.92874 0
M  V30 3487 N 326.66 -1.06551 1.16123 0
M  V30 3488 C 327.909 -1.78687 0.935622 0
M  V30 3489 C 328.222 -1.88056 -0.538001 0
M  V30 3490 O 329.428 -2.56794 -0.88143 0
M  V30 3491 C 327.884 -3.21143 1.62466 0
M  V30 3492 C 327.492 -3.19949 3.13587 0
M  V30 3493 C 329.236 -3.9783 1.48092 0
M  V30 3494 C 327.143 -4.57108 3.75241 0
M  V30 3495 H 326.073 -0.669712 0.346412 0
M  V30 3496 H 328.724 -1.19534 1.39226 0
M  V30 3497 H 327.106 -3.80539 1.09572 0
M  V30 3498 H 328.28 -2.70151 3.73303 0
M  V30 3499 H 326.595 -2.5676 3.27816 0
M  V30 3500 H 329.192 -4.99217 1.91538 0
M  V30 3501 H 329.535 -4.14078 0.429507 0
M  V30 3502 H 330.068 -3.4495 1.98127 0
M  V30 3503 H 326.807 -4.46065 4.80319 0
M  V30 3504 H 326.327 -5.07111 3.20309 0
M  V30 3505 H 328.006 -5.26069 3.76644 0
M  V30 3506 N 328.138 -0.959301 -1.25041 0
M  V30 3507 C 329.415 -0.533805 -1.88175 0
M  V30 3508 C 329.795 0.988994 -1.865 0
M  V30 3509 O 329.143 1.85677 -1.33177 0
M  V30 3510 C 329.353 -1.11575 -3.30684 0
M  V30 3511 C 330.701 -1.19548 -4.07423 0
M  V30 3512 O 331.725 -1.06765 -3.39823 0
M  V30 3513 O 330.584 -1.39656 -5.28354 0
M  V30 3514 H 327.678 -0.176772 -0.807887 0
M  V30 3515 H 330.224 -1.05303 -1.33076 0
M  V30 3516 H 328.996 -2.15884 -3.26358 0
M  V30 3517 H 328.619 -0.580059 -3.93346 0
M  V30 3518 N 329.616 1.39756 -0.72842 0
M  V30 3519 C 330.862 2.01425 -0.282761 0
M  V30 3520 C 331.217 1.56754 1.11561 0
M  V30 3521 O 330.51 0.783482 1.74849 0
M  V30 3522 C 330.704 3.56002 -0.315776 0
M  V30 3523 C 330.533 4.1568 -1.71582 0
M  V30 3524 C 329.303 4.48555 -2.32651 0
M  V30 3525 C 331.501 4.39667 -2.66829 0
M  V30 3526 N 329.483 4.93698 -3.64877 0
M  V30 3527 C 330.854 4.86942 -3.8378 0
M  V30 3528 C 332.909 4.21724 -2.64675 0
M  V30 3529 C 331.612 5.18158 -4.98904 0
M  V30 3530 C 333.638 4.54049 -3.78937 0
M  V30 3531 C 333 5.01525 -4.94623 0
M  V30 3532 H 329.099 0.76756 -0.149583 0
M  V30 3533 H 331.683 1.69784 -0.952976 0
M  V30 3534 H 329.854 3.87046 0.324057 0
M  V30 3535 H 331.586 4.0443 0.147808 0
M  V30 3536 H 328.341 4.36128 -1.84633 0
M  V30 3537 H 328.765 5.20635 -4.32744 0
M  V30 3538 H 333.407 3.84228 -1.76433 0
M  V30 3539 H 331.125 5.54562 -5.87781 0
M  V30 3540 H 334.711 4.41795 -3.78561 0
M  V30 3541 H 333.591 5.26065 -5.81572 0
M  V30 3542 N 331.094 0.475555 1.50254 0
M  V30 3543 C 332.027 -0.362381 2.25304 0
M  V30 3544 C 333.005 -0.992393 1.28803 0
M  V30 3545 O 334.189 -1.02746 1.58036 0
M  V30 3546 C 331.316 -1.50813 3.03271 0
M  V30 3547 C 330.362 -0.995044 4.1473 0
M  V30 3548 S 331.195 0.0938436 5.35418 0
M  V30 3549 C 332.351 -1.05567 6.16933 0
M  V30 3550 H 332.584 0.274686 2.96028 0
M  V30 3551 H 330.117 0.260495 1.52187 0
M  V30 3552 H 332.075 -2.16476 3.48781 0
M  V30 3553 H 330.736 -2.11672 2.32064 0
M  V30 3554 H 329.929 -1.85293 4.68703 0
M  V30 3555 H 329.531 -0.416052 3.71679 0
M  V30 3556 H 331.823 -1.96636 6.48337 0
M  V30 3557 H 332.766 -0.555109 7.05921 0
M  V30 3558 H 333.174 -1.31151 5.49053 0
M  V30 3559 N 332.573 -1.56217 0.208337 0
M  V30 3560 C 333.52 -2.19699 -0.707192 0
M  V30 3561 C 334.49 -1.14836 -1.20008 0
M  V30 3562 O 335.675 -1.4314 -1.26157 0
M  V30 3563 C 332.815 -2.87061 -1.91546 0
M  V30 3564 C 331.928 -4.06483 -1.46271 0
M  V30 3565 C 331.063 -4.61665 -2.62752 0
M  V30 3566 C 330.102 -5.73417 -2.14147 0
M  V30 3567 N 329.239 -6.22948 -3.23853 0
M  V30 3568 H 334.079 -2.97575 -0.159111 0
M  V30 3569 H 331.616 -1.46948 -0.0667874 0
M  V30 3570 H 333.574 -3.24294 -2.62468 0
M  V30 3571 H 332.204 -2.11725 -2.43664 0
M  V30 3572 H 331.256 -3.74825 -0.648886 0
M  V30 3573 H 332.568 -4.87271 -1.06622 0
M  V30 3574 H 331.722 -5.01272 -3.41776 0
M  V30 3575 H 330.461 -3.80013 -3.05682 0
M  V30 3576 H 329.466 -5.33326 -1.33581 0
M  V30 3577 H 330.691 -6.56897 -1.72232 0
M  V30 3578 H 328.637 -5.44213 -3.6629 0
M  V30 3579 H 328.554 -6.98823 -2.88414 0
M  V30 3580 H 329.822 -6.6721 -4.03052 0
M  V30 3581 N 334.051 0.0651679 -1.57465 0
M  V30 3582 C 335.467 0.420105 -1.53972 0
M  V30 3583 C 335.667 1.78782 -0.929474 0
M  V30 3584 O 334.723 2.46771 -0.534839 0
M  V30 3585 C 336.036 0.355084 -2.98596 0
M  V30 3586 C 337.584 0.434792 -3.09965 0
M  V30 3587 C 338.059 0.399609 -4.56253 0
M  V30 3588 N 339.55 0.459488 -4.60915 0
M  V30 3589 C 340.285 0.454584 -5.71595 0
M  V30 3590 N 339.781 0.404102 -6.9162 0
M  V30 3591 N 341.574 0.501635 -5.59857 0
M  V30 3592 H 333.725 -0.830328 -1.95498 0
M  V30 3593 H 335.988 -0.312244 -0.895102 0
M  V30 3594 H 335.694 -0.583357 -3.46828 0
M  V30 3595 H 335.568 1.16275 -3.58831 0
M  V30 3596 H 337.955 1.36366 -2.61703 0
M  V30 3597 H 338.036 -0.40157 -2.52628 0
M  V30 3598 H 337.68 -0.525436 -5.05175 0
M  V30 3599 H 337.61 1.25359 -5.11461 0
M  V30 3600 H 340.101 0.502482 -3.74544 0
M  V30 3601 H 340.414 0.404468 -7.71741 0
M  V30 3602 H 338.759 0.37069 -6.94011 0
M  V30 3603 H 341.95 0.538812 -4.64989 0
M  V30 3604 H 342.123 0.494345 -6.46112 0
M  V30 3605 N 335.529 1.53961 0.336706 0
M  V30 3606 C 336.477 1.83136 1.43401 0
M  V30 3607 C 337.471 0.702313 1.54156 0
M  V30 3608 O 338.677 0.885765 1.56698 0
M  V30 3609 H 335.052 0.580309 0.478273 0
M  V30 3610 H 337.023 2.74925 1.16012 0
M  V30 3611 C 335.772 2.06385 2.79822 0
M  V30 3612 H 335.095 2.92718 2.72316 0
M  V30 3613 H 336.535 2.30761 3.55704 0
M  V30 3614 C 334.994 0.851414 3.25964 0
M  V30 3615 O 335.524 0.0541904 4.01663 0
M  V30 3616 N 333.73 0.66672 2.82848 0
M  V30 3617 H 333.277 1.31665 2.21409 0
M  V30 3618 H 333.235 -0.143032 3.14074 0
M  V30 3619 N 337.007 -0.598083 1.45811 0
M  V30 3620 C 338.235 -1.38322 1.53866 0
M  V30 3621 C 338.65 -1.87992 0.174479 0
M  V30 3622 O 338.007 -1.62756 -0.825627 0
M  V30 3623 C 338.058 -2.58125 2.53089 0
M  V30 3624 O 337.779 -2.10516 3.84206 0
M  V30 3625 C 339.28 -3.50869 2.70935 0
M  V30 3626 H 336.5 -0.423093 0.520801 0
M  V30 3627 H 339.044 -0.728527 1.91083 0
M  V30 3628 H 337.199 -3.19615 2.18917 0
M  V30 3629 H 337.613 -2.88425 4.38077 0
M  V30 3630 H 339.087 -4.31451 3.44317 0
M  V30 3631 H 339.564 -4.01822 1.77301 0
M  V30 3632 H 340.17 -2.95225 3.06141 0
M  V30 3633 N 338.485 -1.33259 -0.841409 0
M  V30 3634 C 339.713 -1.27605 -1.62864 0
M  V30 3635 C 340.128 0.153507 -1.88175 0
M  V30 3636 O 339.485 1.09485 -1.46011 0
M  V30 3637 C 339.536 -2.04596 -2.98031 0
M  V30 3638 O 339.257 -3.41975 -2.73834 0
M  V30 3639 C 340.758 -2.06122 -3.92465 0
M  V30 3640 H 337.978 -0.439718 -0.506842 0
M  V30 3641 H 340.522 -1.75591 -1.04824 0
M  V30 3642 H 338.677 -1.60299 -3.5268 0
M  V30 3643 H 339.091 -3.81549 -3.59889 0
M  V30 3644 H 340.565 -2.64451 -4.84531 0
M  V30 3645 H 341.042 -1.05083 -4.26444 0
M  V30 3646 H 341.648 -2.50427 -3.43753 0
M  V30 3647 N 339.963 1.05934 -1.16686 0
M  V30 3648 C 341.211 1.78447 -0.948744 0
M  V30 3649 C 341.532 1.87813 0.524523 0
M  V30 3650 O 340.802 1.38945 1.38098 0
M  V30 3651 H 339.382 0.660971 -0.348033 0
M  V30 3652 H 342.044 1.27947 -1.47022 0
M  V30 3653 H 341.14 2.80394 -1.37061 0
M  V30 3654 N 341.441 0.965919 1.2453 0
M  V30 3655 C 342.718 0.543777 1.87889 0
M  V30 3656 C 343.098 -0.97909 1.87021 0
M  V30 3657 O 342.446 -1.84969 1.3416 0
M  V30 3658 C 342.656 1.13327 3.30088 0
M  V30 3659 C 344.004 1.21707 4.06783 0
M  V30 3660 O 345.028 1.08566 3.39252 0
M  V30 3661 O 343.887 1.42456 5.27606 0
M  V30 3662 H 340.981 0.181054 0.806938 0
M  V30 3663 H 343.527 1.06007 1.32516 0
M  V30 3664 H 342.299 2.17612 3.25209 0
M  V30 3665 H 341.922 0.600911 3.93033 0
M  V30 3666 N 342.919 -1.39368 0.735821 0
M  V30 3667 C 343.882 -2.2896 0.104874 0
M  V30 3668 C 344.882 -1.46347 -0.666274 0
M  V30 3669 O 346.072 -1.67014 -0.49517 0
M  V30 3670 C 343.204 -3.29857 -0.860656 0
M  V30 3671 H 344.397 -2.86259 0.894205 0
M  V30 3672 H 341.95 -1.48029 0.501704 0
M  V30 3673 H 342.685 -2.77615 -1.67631 0
M  V30 3674 H 342.47 -3.9087 -0.310327 0
M  V30 3675 H 343.96 -3.96893 -1.29867 0
M  V30 3676 N 344.397 -0.483516 -1.5 0
M  V30 3677 C 345.327 0.293829 -2.31644 0
M  V30 3678 C 346.308 0.978864 -1.39112 0
M  V30 3679 O 347.493 0.973644 -1.68029 0
M  V30 3680 C 344.623 1.36897 -3.19181 0
M  V30 3681 C 343.577 0.804833 -4.20365 0
M  V30 3682 C 342.903 1.9792 -4.96721 0
M  V30 3683 C 344.203 -0.192313 -5.21946 0
M  V30 3684 H 345.897 -0.387616 -2.9688 0
M  V30 3685 H 343.443 -0.187856 -1.42769 0
M  V30 3686 H 345.396 1.92037 -3.751 0
M  V30 3687 H 344.12 2.07936 -2.51853 0
M  V30 3688 H 342.779 0.275319 -3.65565 0
M  V30 3689 H 342.427 2.67686 -4.25856 0
M  V30 3690 H 342.127 1.60789 -5.65173 0
M  V30 3691 H 343.651 2.53526 -5.55479 0
M  V30 3692 H 345.065 0.270333 -5.72662 0
M  V30 3693 H 343.462 -0.478543 -5.98189 0
M  V30 3694 H 344.532 -1.11409 -4.71928 0
M  V30 3695 N 345.875 1.56104 -0.216619 0
M  V30 3696 C 347.124 1.97348 0.416744 0
M  V30 3697 C 347.437 1.10715 1.6125 0
M  V30 3698 O 348.643 1.41836 2.31506 0
M  V30 3699 C 347.099 3.51059 0.792835 0
M  V30 3700 C 346.707 4.46387 -0.379828 0
M  V30 3701 C 348.451 4.01026 1.39208 0
M  V30 3702 C 346.358 5.91397 0.0184223 0
M  V30 3703 H 345.288 0.736942 0.159475 0
M  V30 3704 H 347.939 1.80827 -0.31205 0
M  V30 3705 H 346.321 3.63162 1.57891 0
M  V30 3706 H 347.495 4.46029 -1.15737 0
M  V30 3707 H 345.81 4.06734 -0.891979 0
M  V30 3708 H 348.407 5.0686 1.70286 0
M  V30 3709 H 348.75 3.46587 2.30614 0
M  V30 3710 H 349.283 3.92125 0.669537 0
M  V30 3711 H 346.022 6.49807 -0.862002 0
M  V30 3712 H 345.542 5.94961 0.760384 0
M  V30 3713 H 347.221 6.45455 0.446818 0
M  V30 3714 N 347.353 -0.0568162 1.57498 0
M  V30 3715 C 348.769 -0.411933 1.54192 0
M  V30 3716 C 348.969 -1.78287 0.938942 0
M  V30 3717 O 348.025 -2.46483 0.547919 0
M  V30 3718 C 349.338 -0.339244 2.9878 0
M  V30 3719 C 350.886 -0.418348 3.10192 0
M  V30 3720 C 351.361 -0.375407 4.56459 0
M  V30 3721 N 352.852 -0.435038 4.61153 0
M  V30 3722 C 353.587 -0.424265 5.71828 0
M  V30 3723 N 353.083 -0.367418 6.91825 0
M  V30 3724 N 354.876 -0.471938 5.60115 0
M  V30 3725 H 347.027 0.840684 1.95055 0
M  V30 3726 H 349.29 0.316987 0.893433 0
M  V30 3727 H 348.996 0.601742 3.46514 0
M  V30 3728 H 348.87 -1.14371 3.59443 0
M  V30 3729 H 351.257 -1.34976 2.62422 0
M  V30 3730 H 351.338 0.414962 2.52412 0
M  V30 3731 H 350.982 0.552219 5.04889 0
M  V30 3732 H 350.912 -1.22645 5.12119 0
M  V30 3733 H 353.403 -0.482612 3.74806 0
M  V30 3734 H 353.716 -0.363535 7.71944 0
M  V30 3735 H 352.061 -0.333879 6.94198 0
M  V30 3736 H 355.252 -0.514145 4.65268 0
M  V30 3737 H 355.425 -0.460073 6.46365 0
M  V30 3738 N 348.832 -1.54138 -0.328536 0
M  V30 3739 C 349.795 -1.82462 -1.38709 0
M  V30 3740 C 350.795 -0.696229 -1.44946 0
M  V30 3741 O 351.985 -0.964535 -1.4506 0
M  V30 3742 C 349.117 -1.98018 -2.77492 0
M  V30 3743 H 350.31 -2.77037 -1.14851 0
M  V30 3744 H 347.863 -1.45779 -0.563751 0
M  V30 3745 H 348.598 -1.05637 -3.06613 0
M  V30 3746 H 348.383 -2.80124 -2.74359 0
M  V30 3747 H 349.873 -2.21396 -3.54081 0
M  V30 3748 N 350.31 0.590341 -1.46126 0
M  V30 3749 C 351.558 1.34616 -1.50742 0
M  V30 3750 C 351.879 1.94363 -0.157486 0
M  V30 3751 O 351.149 1.78136 0.815136 0
M  V30 3752 H 349.729 0.499789 -0.555175 0
M  V30 3753 H 352.391 0.691953 -1.82203 0
M  V30 3754 H 351.487 2.15678 -2.25587 0
M  V30 3755 N 351.788 1.33704 0.83433 0
M  V30 3756 C 353.034 1.25603 1.59222 0
M  V30 3757 C 353.367 -0.176659 1.93395 0
M  V30 3758 O 352.642 -1.11915 1.59076 0
M  V30 3759 C 352.925 2.13576 2.89926 0
M  V30 3760 C 352.778 3.65326 2.62406 0
M  V30 3761 C 354.097 2.01238 3.91397 0
M  V30 3762 H 351.216 0.457613 0.577719 0
M  V30 3763 H 353.858 1.63848 0.961972 0
M  V30 3764 H 352.008 1.8109 3.43713 0
M  V30 3765 H 353.68 4.08124 2.15017 0
M  V30 3766 H 351.923 3.8698 1.96033 0
M  V30 3767 H 352.594 4.22232 3.55562 0
M  V30 3768 H 355.07 2.29738 3.46929 0
M  V30 3769 H 353.946 2.65036 4.80673 0
M  V30 3770 H 354.207 0.985951 4.30966 0
M  V30 3771 N 353.266 -1.05314 1.17247 0
M  V30 3772 C 354.677 -1.59753 0.96623 0
M  V30 3773 C 355.028 -1.9005 -0.487378 0
M  V30 3774 O 354.153 -1.68126 -1.36245 0
M  V30 3775 C 354.748 -2.90249 1.74759 0
M  V30 3776 C 353.307 -3.41352 1.58606 0
M  V30 3777 C 352.454 -2.15103 1.75002 0
M  V30 3778 H 355.405 -0.881406 1.31973 0
M  V30 3779 H 355.426 -3.60097 1.22925 0
M  V30 3780 H 354.938 -2.68166 2.8055 0
M  V30 3781 H 353.039 -3.68474 0.552985 0
M  V30 3782 H 353.152 -4.16019 2.37624 0
M  V30 3783 H 351.516 -2.25804 1.17833 0
M  V30 3784 H 352.299 -1.95491 2.82202 0
M  V30 3785 N 354.744 -0.972509 -1.24016 0
M  V30 3786 C 356.021 -0.553733 -1.87598 0
M  V30 3787 C 356.401 0.969158 -1.87538 0
M  V30 3788 O 355.749 1.84255 -1.35139 0
M  V30 3789 C 355.959 -1.15076 -3.29482 0
M  V30 3790 C 357.307 -1.23862 -4.06132 0
M  V30 3791 O 358.331 -1.10363 -3.38672 0
M  V30 3792 O 357.19 -1.45252 -5.26844 0
M  V30 3793 H 354.284 -0.185331 -0.805966 0
M  V30 3794 H 356.83 -1.06709 -1.31952 0
M  V30 3795 H 355.602 -2.19333 -3.2405 0
M  V30 3796 H 355.225 -0.621746 -3.92709 0
M  V30 3797 N 356.222 1.38976 -0.743202 0
M  V30 3798 C 357.47 1.99948 -0.29417 0
M  V30 3799 C 357.791 1.59279 1.12495 0
M  V30 3800 O 357.061 0.844808 1.76748 0
M  V30 3801 H 355.641 0.739473 -0.105774 0
M  V30 3802 H 358.303 1.699 -0.954986 0
M  V30 3803 H 357.399 3.10142 -0.349056 0
M  V30 3804 N 357.7 0.491464 1.49741 0
M  V30 3805 C 358.946 -0.0485431 2.03342 0
M  V30 3806 C 359.301 -1.35566 1.36527 0
M  V30 3807 O 358.594 -1.85262 0.488729 0
M  V30 3808 C 358.788 -0.267329 3.56399 0
M  V30 3809 C 358.617 1.01703 4.38049 0
M  V30 3810 C 357.387 1.56614 4.80417 0
M  V30 3811 C 359.585 1.91782 4.77204 0
M  V30 3812 N 357.567 2.7974 5.4646 0
M  V30 3813 C 358.938 2.99489 5.42868 0
M  V30 3814 C 360.993 1.92575 4.5915 0
M  V30 3815 C 359.696 4.08005 5.92389 0
M  V30 3816 C 361.722 3.0006 5.09626 0
M  V30 3817 C 361.084 4.06485 5.75282 0
M  V30 3818 H 357.183 0.0227779 0.781668 0
M  V30 3819 H 359.767 0.664204 1.8302 0
M  V30 3820 H 357.938 -0.949126 3.76625 0
M  V30 3821 H 359.67 -0.803492 3.96644 0
M  V30 3822 H 356.425 1.11256 4.60347 0
M  V30 3823 H 356.849 3.42323 5.84075 0
M  V30 3824 H 361.491 1.11605 4.07804 0
M  V30 3825 H 359.209 4.89779 6.42761 0
M  V30 3826 H 362.795 3.01681 4.97473 0
M  V30 3827 H 361.675 4.88287 6.13633 0
M  V30 3828 N 359.178 -1.55987 0.224894 0
M  V30 3829 C 360.088 -2.24066 -0.69511 0
M  V30 3830 C 361.104 -1.24939 -1.21104 0
M  V30 3831 O 362.28 -1.5776 -1.25195 0
M  V30 3832 C 359.345 -2.90983 -1.88493 0
M  V30 3833 C 358.406 -4.05462 -1.41064 0
M  V30 3834 C 357.639 -4.69179 -2.54375 0
M  V30 3835 O 357.862 -4.31895 -3.72589 0
M  V30 3836 O 356.796 -5.58108 -2.25386 0
M  V30 3837 H 360.622 -3.03353 -0.145149 0
M  V30 3838 H 358.207 -1.49399 -0.00569476 0
M  V30 3839 H 360.089 -3.33209 -2.57972 0
M  V30 3840 H 358.764 -2.14653 -2.42293 0
M  V30 3841 H 357.671 -3.67798 -0.683774 0
M  V30 3842 H 359.004 -4.83545 -0.918985 0
M  V30 3843 N 360.656 0.0484629 -1.57525 0
M  V30 3844 C 361.902 0.744226 -1.88651 0
M  V30 3845 C 362.235 1.76029 -0.820212 0
M  V30 3846 O 361.51 1.93782 0.166985 0
M  V30 3847 C 361.793 1.43128 -3.30434 0
M  V30 3848 C 361.646 0.43005 -4.47739 0
M  V30 3849 C 362.965 2.37031 -3.70816 0
M  V30 3850 H 360.084 0.269089 -0.68612 0
M  V30 3851 H 362.726 0.00713532 -1.89999 0
M  V30 3852 H 360.876 2.05956 -3.29415 0
M  V30 3853 H 362.548 -0.194816 -4.60888 0
M  V30 3854 H 360.791 -0.252522 -4.33064 0
M  V30 3855 H 361.462 0.948874 -5.43783 0
M  V30 3856 H 363.938 1.84263 -3.73077 0
M  V30 3857 H 362.814 2.82094 -4.70865 0
M  V30 3858 H 363.075 3.22864 -3.02012 0
M  V30 3859 N 362.134 1.5431 0.320358 0
M  V30 3860 C 363.097 1.83195 1.3774 0
M  V30 3861 C 364.097 0.703906 1.44575 0
M  V30 3862 O 365.287 0.972214 1.44546 0
M  V30 3863 C 362.419 1.99487 2.76438 0
M  V30 3864 H 363.612 2.77642 1.1338 0
M  V30 3865 H 361.165 1.46076 0.556012 0
M  V30 3866 H 361.9 1.07262 3.06048 0
M  V30 3867 H 361.685 2.81575 2.7287 0
M  V30 3868 H 363.175 2.23271 3.52902 0
M  V30 3869 N 363.613 -0.582584 1.46437 0
M  V30 3870 C 364.89 -1.34276 1.4223 0
M  V30 3871 C 365.27 -2.10835 0.10583 0
M  V30 3872 O 364.618 -2.09485 -0.912596 0
M  V30 3873 C 364.828 -2.26865 2.65204 0
M  V30 3874 C 366.176 -2.88691 3.11356 0
M  V30 3875 O 367.2 -2.37178 2.65753 0
M  V30 3876 O 366.059 -3.82255 3.90568 0
M  V30 3877 H 363.153 -0.603326 0.565621 0
M  V30 3878 H 365.699 -0.603591 1.58603 0
M  V30 3879 H 364.471 -1.69724 3.52576 0
M  V30 3880 H 364.094 -3.08122 2.5129 0
M  V30 3881 N 365.091 -1.34144 -0.827227 0
M  V30 3882 C 366.038 -1.25364 -1.93785 0
M  V30 3883 C 367.008 -0.129774 -1.65592 0
M  V30 3884 O 368.193 -0.310024 -1.88264 0
M  V30 3885 C 365.333 -1.01064 -3.2997 0
M  V30 3886 C 364.446 -2.22185 -3.70484 0
M  V30 3887 C 363.581 -1.91203 -4.95595 0
M  V30 3888 C 362.62 -3.08491 -5.28677 0
M  V30 3889 N 361.757 -2.77421 -6.44967 0
M  V30 3890 H 366.597 -2.20347 -2.00627 0
M  V30 3891 H 364.134 -1.09558 -0.981608 0
M  V30 3892 H 366.092 -0.850139 -4.08446 0
M  V30 3893 H 364.722 -0.0975026 -3.22653 0
M  V30 3894 H 363.774 -2.4917 -2.87434 0
M  V30 3895 H 365.086 -3.0983 -3.90905 0
M  V30 3896 H 364.24 -1.71864 -5.81848 0
M  V30 3897 H 362.979 -1.00812 -4.77167 0
M  V30 3898 H 361.984 -3.28431 -4.40923 0
M  V30 3899 H 363.209 -3.99655 -5.49047 0
M  V30 3900 H 361.155 -1.89601 -6.28003 0
M  V30 3901 H 361.072 -3.58598 -6.6554 0
M  V30 3902 H 362.34 -2.61577 -7.34301 0
M  V30 3903 N 366.569 1.04691 -1.17803 0
M  V30 3904 C 367.797 1.81446 -0.99423 0
M  V30 3905 C 368.212 1.83174 0.457459 0
M  V30 3906 O 367.569 1.26265 1.31771 0
M  V30 3907 C 367.62 3.27334 -1.5341 0
M  V30 3908 O 367.341 3.25798 -2.92895 0
M  V30 3909 C 368.842 4.20759 -1.39559 0
M  V30 3910 H 366.062 0.571599 -0.351447 0
M  V30 3911 H 368.606 1.31982 -1.56208 0
M  V30 3912 H 366.761 3.74052 -1.00815 0
M  V30 3913 H 367.175 4.17144 -3.17949 0
M  V30 3914 H 368.649 5.21084 -1.82141 0
M  V30 3915 H 369.126 4.37856 -0.343394 0
M  V30 3916 H 369.732 3.79901 -1.91195 0
M  V30 3917 N 368.047 0.979072 1.23499 0
M  V30 3918 C 369.295 0.645941 1.91499 0
M  V30 3919 C 369.616 -0.822948 1.76784 0
M  V30 3920 O 368.886 -1.58854 1.14639 0
M  V30 3921 H 367.466 0.235919 0.708767 0
M  V30 3922 H 370.128 1.2426 1.50152 0
M  V30 3923 H 369.224 0.896411 2.9895 0
M  V30 3924 N 369.525 -1.3858 0.750561 0
M  V30 3925 C 370.488 -2.28836 0.129152 0
M  V30 3926 C 371.488 -1.47045 -0.650714 0
M  V30 3927 O 372.678 -1.6753 -0.477428 0
M  V30 3928 C 369.81 -3.30751 -0.825622 0
M  V30 3929 H 371.003 -2.85294 0.924516 0
M  V30 3930 H 368.556 -1.47489 0.517376 0
M  V30 3931 H 369.291 -2.79378 -1.64677 0
M  V30 3932 H 369.076 -3.91177 -0.268852 0
M  V30 3933 H 370.566 -3.98249 -1.2565 0
M  V30 3934 N 371.003 -0.499398 -1.49478 0
M  V30 3935 C 371.966 0.268838 -2.27618 0
M  V30 3936 C 372.966 0.895383 -1.33565 0
M  V30 3937 O 374.156 0.760164 -1.56739 0
M  V30 3938 C 371.288 1.38559 -3.11471 0
M  V30 3939 H 372.481 -0.416812 -2.96989 0
M  V30 3940 H 370.034 -0.254313 -1.54217 0
M  V30 3941 H 370.769 2.10544 -2.46661 0
M  V30 3942 H 370.554 0.941797 -3.80621 0
M  V30 3943 H 372.044 1.92678 -3.70493 0
M  V30 3944 N 372.481 1.55866 -0.233164 0
M  V30 3945 C 373.706 2.03449 0.402906 0
M  V30 3946 C 374.131 1.11166 1.51736 0
M  V30 3947 O 373.489 0.101996 1.81013 0
M  V30 3948 C 373.537 3.49165 0.9009 0
M  V30 3949 O 372.641 3.60019 2.01147 0
M  V30 3950 H 371.982 0.657913 0.0897025 0
M  V30 3951 H 374.512 2.01493 -0.355201 0
M  V30 3952 H 374.522 3.89716 1.2077 0
M  V30 3953 H 373.197 4.15813 0.0852889 0
M  V30 3954 H 371.774 3.3136 1.71042 0
M  V30 3955 N 373.959 -0.0401083 1.57549 0
M  V30 3956 C 375.189 -0.744115 1.92734 0
M  V30 3957 C 375.597 -1.70005 0.830348 0
M  V30 3958 O 374.94 -1.82576 -0.20286 0
M  V30 3959 C 375.002 -1.56516 3.2364 0
M  V30 3960 C 374.666 -0.7752 4.50377 0
M  V30 3961 C 375.663 -0.0803326 5.19838 0
M  V30 3962 C 373.348 -0.733002 4.96923 0
M  V30 3963 C 375.342 0.646154 6.34116 0
M  V30 3964 C 373.029 -0.00276321 6.111 0
M  V30 3965 C 374.027 0.685585 6.7955 0
M  V30 3966 O 373.715 1.40399 7.91545 0
M  V30 3967 H 373.447 -0.214861 0.640945 0
M  V30 3968 H 376.001 -0.00503675 2.05399 0
M  V30 3969 H 374.231 -2.3478 3.07271 0
M  V30 3970 H 375.92 -2.15076 3.44234 0
M  V30 3971 H 376.686 -0.104035 4.84888 0
M  V30 3972 H 372.565 -1.25827 4.43496 0
M  V30 3973 H 376.109 1.18398 6.87479 0
M  V30 3974 H 372.006 0.0229012 6.45496 0
M  V30 3975 H 372.774 1.31653 8.07843 0
M  V30 3976 N 375.437 -1.54477 -0.31217 0
M  V30 3977 C 376.685 -1.72884 -1.04668 0
M  V30 3978 C 377.006 -0.511477 -1.88173 0
M  V30 3979 O 376.276 0.474407 -1.90069 0
M  V30 3980 H 374.856 -0.637461 -0.389425 0
M  V30 3981 H 377.518 -1.91807 -0.345852 0
M  V30 3982 H 376.614 -2.61334 -1.70619 0
M  V30 3983 N 376.915 0.57481 -1.46744 0
M  V30 3984 C 378.143 1.35856 -1.56047 0
M  V30 3985 C 378.558 1.87691 -0.204365 0
M  V30 3986 O 377.915 1.64049 0.79963 0
M  V30 3987 C 377.966 2.54066 -2.57163 0
M  V30 3988 O 377.687 2.04377 -3.87507 0
M  V30 3989 C 379.188 3.46514 -2.76483 0
M  V30 3990 H 376.408 0.414754 -0.527466 0
M  V30 3991 H 378.952 0.698035 -1.92218 0
M  V30 3992 H 377.107 3.16092 -2.23974 0
M  V30 3993 H 377.521 2.81419 -4.4261 0
M  V30 3994 H 378.995 4.25919 -3.51137 0
M  V30 3995 H 379.472 3.98951 -1.83671 0
M  V30 3996 H 380.078 2.90318 -3.10799 0
M  V30 3997 N 378.394 1.34581 0.820102 0
M  V30 3998 C 379.81 1.14325 1.11364 0
M  V30 3999 C 380.01 -0.0533648 2.01429 0
M  V30 4000 O 379.066 -0.728044 2.41776 0
M  V30 4001 C 380.379 2.43983 1.75764 0
M  V30 4002 C 381.927 2.50065 1.88246 0
M  V30 4003 C 382.402 3.79732 2.56061 0
M  V30 4004 N 383.893 3.80908 2.63558 0
M  V30 4005 C 384.628 4.77961 3.16766 0
M  V30 4006 N 384.124 5.85397 3.70517 0
M  V30 4007 N 385.917 4.65413 3.15194 0
M  V30 4008 H 378.068 2.11246 0.221096 0
M  V30 4009 H 380.331 0.934289 0.160649 0
M  V30 4010 H 380.037 3.31651 1.1705 0
M  V30 4011 H 379.911 2.57531 2.75604 0
M  V30 4012 H 382.298 1.62834 2.46108 0
M  V30 4013 H 382.379 2.40442 0.873006 0
M  V30 4014 H 382.023 4.67354 1.98853 0
M  V30 4015 H 381.953 3.86639 3.57516 0
M  V30 4016 H 384.444 3.03274 2.25463 0
M  V30 4017 H 384.757 6.55463 4.09376 0
M  V30 4018 H 383.102 5.89107 3.68752 0
M  V30 4019 H 386.293 3.80627 2.72471 0
M  V30 4020 H 386.466 5.41216 3.56356 0
M  V30 4021 N 379.872 -1.04064 1.18357 0
M  V30 4022 C 380.82 -2.14187 0.907007 0
M  V30 4023 C 381.814 -1.68879 -0.132725 0
M  V30 4024 O 383.02 -1.79993 0.0154248 0
M  V30 4025 H 379.395 -0.699585 0.275835 0
M  V30 4026 H 381.366 -2.34711 1.84264 0
M  V30 4027 C 380.115 -3.44785 0.449254 0
M  V30 4028 H 379.438 -3.80058 1.24081 0
M  V30 4029 H 380.878 -4.22974 0.294737 0
M  V30 4030 C 379.337 -3.26391 -0.834909 0
M  V30 4031 O 379.867 -3.53973 -1.89911 0
M  V30 4032 N 378.073 -2.79726 -0.787523 0
M  V30 4033 H 377.62 -2.5748 0.0787347 0
M  V30 4034 H 377.578 -2.67798 -1.64716 0
M  V30 4035 N 381.35 -0.985608 -1.22978 0
M  V30 4036 C 382.627 -0.573599 -1.87001 0
M  V30 4037 C 383.007 0.949213 -1.88555 0
M  V30 4038 O 382.355 1.82811 -1.37086 0
M  V30 4039 C 382.565 -1.18564 -3.28243 0
M  V30 4040 C 383.913 -1.28163 -4.04796 0
M  V30 4041 O 384.937 -1.13949 -3.37482 0
M  V30 4042 O 383.796 -1.50832 -5.25273 0
M  V30 4043 H 380.89 -0.193868 -0.803955 0
M  V30 4044 H 383.436 -1.08102 -1.30813 0
M  V30 4045 H 382.208 -2.22758 -3.21706 0
M  V30 4046 H 381.831 -0.663363 -3.92027 0
M  V30 4047 N 382.828 1.3818 -0.7579 0
M  V30 4048 C 384.077 1.99261 -0.312744 0
M  V30 4049 C 384.39 1.60846 1.11301 0
M  V30 4050 O 385.596 2.14929 1.65885 0
M  V30 4051 C 384.052 3.56294 -0.50821 0
M  V30 4052 C 383.66 4.03657 -1.94333 0
M  V30 4053 C 385.404 4.24313 -0.125982 0
M  V30 4054 C 383.311 5.53347 -2.08712 0
M  V30 4055 H 382.241 0.745456 -0.113185 0
M  V30 4056 H 384.892 1.57889 -0.935056 0
M  V30 4057 H 383.274 3.95575 0.183353 0
M  V30 4058 H 384.448 3.75655 -2.66871 0
M  V30 4059 H 382.763 3.48376 -2.28086 0
M  V30 4060 H 385.36 5.34279 -0.212125 0
M  V30 4061 H 385.703 4.05962 0.921964 0
M  V30 4062 H 386.236 3.90285 -0.769563 0
M  V30 4063 H 382.975 5.76607 -3.11777 0
M  V30 4064 H 382.495 5.83078 -1.4064 0
M  V30 4065 H 384.174 6.19111 -1.87912 0
M  V30 4066 N 384.306 0.507319 1.49211 0
M  V30 4067 C 385.269 -0.256763 2.27757 0
M  V30 4068 C 386.269 -0.888287 1.34038 0
M  V30 4069 O 387.459 -0.751841 1.5714 0
M  V30 4070 C 384.591 -1.36905 3.12202 0
M  V30 4071 H 385.784 0.432557 2.96764 0
M  V30 4072 H 383.337 0.262488 1.5408 0
M  V30 4073 H 384.072 -2.09233 2.47775 0
M  V30 4074 H 383.857 -0.921599 3.81115 0
M  V30 4075 H 385.347 -1.9071 3.7151 0
M  V30 4076 N 385.784 -1.5574 0.241426 0
M  V30 4077 C 387.033 -1.97986 -0.385295 0
M  V30 4078 C 387.346 -1.13267 -1.59468 0
M  V30 4079 O 388.552 -1.45501 -2.2922 0
M  V30 4080 C 387.008 -3.52275 -0.736884 0
M  V30 4081 C 386.616 -4.45726 0.450796 0
M  V30 4082 C 388.36 -4.03189 -1.3281 0
M  V30 4083 C 386.267 -5.91352 0.0756662 0
M  V30 4084 H 385.197 -0.739386 -0.147731 0
M  V30 4085 H 387.848 -1.80308 0.340779 0
M  V30 4086 H 386.23 -3.65628 -1.52094 0
M  V30 4087 H 387.404 -4.44131 1.22819 0
M  V30 4088 H 385.719 -4.05264 0.956573 0
M  V30 4089 H 388.316 -5.09505 -1.62201 0
M  V30 4090 H 388.659 -3.50212 -2.25071 0
M  V30 4091 H 389.192 -3.93141 -0.607069 0
M  V30 4092 H 385.931 -6.48354 0.965272 0
M  V30 4093 H 385.451 -5.96095 -0.665635 0
M  V30 4094 H 387.13 -6.46084 -0.344075 0
M  V30 4095 N 387.262 0.0317525 -1.57568 0
M  V30 4096 C 388.511 0.722131 -1.8833 0
M  V30 4097 C 388.824 1.76664 -0.839587 0
M  V30 4098 O 390.03 2.50942 -1.03635 0
M  V30 4099 C 388.486 1.33544 -3.34207 0
M  V30 4100 C 388.094 0.327415 -4.46802 0
M  V30 4101 C 389.838 2.00585 -3.7412 0
M  V30 4102 C 387.745 0.948915 -5.83738 0
M  V30 4103 H 386.675 0.273466 -0.702661 0
M  V30 4104 H 389.326 -0.0235811 -1.83485 0
M  V30 4105 H 387.708 2.13077 -3.33788 0
M  V30 4106 H 388.882 -0.441006 -4.58685 0
M  V30 4107 H 387.197 -0.240758 -4.15703 0
M  V30 4108 H 389.794 2.47932 -4.73744 0
M  V30 4109 H 390.137 2.82285 -3.05975 0
M  V30 4110 H 390.67 1.27831 -3.76702 0
M  V30 4111 H 387.409 0.171387 -6.55276 0
M  V30 4112 H 386.929 1.68724 -5.7558 0
M  V30 4113 H 388.608 1.45705 -6.3038 0
M  V30 4114 N 388.74 1.54641 0.303973 0
M  V30 4115 C 389.986 1.74969 1.03718 0
M  V30 4116 C 390.341 0.527461 1.85029 0
M  V30 4117 O 389.634 -0.480143 1.85486 0
M  V30 4118 C 389.828 2.97753 1.97681 0
M  V30 4119 C 389.657 4.318 1.25613 0
M  V30 4120 C 388.427 4.95616 0.984518 0
M  V30 4121 C 390.625 5.10021 0.662081 0
M  V30 4122 N 388.607 6.13455 0.233794 0
M  V30 4123 C 389.978 6.19984 0.0439736 0
M  V30 4124 C 392.033 4.94663 0.566835 0
M  V30 4125 C 390.736 7.16264 -0.66016 0
M  V30 4126 C 392.762 5.91271 -0.123637 0
M  V30 4127 C 392.124 7.00601 -0.730608 0
M  V30 4128 H 388.223 0.692873 0.362562 0
M  V30 4129 H 390.807 1.92116 0.316135 0
M  V30 4130 H 388.978 2.82036 2.6704 0
M  V30 4131 H 390.71 3.06621 2.64132 0
M  V30 4132 H 387.465 4.55921 1.28191 0
M  V30 4133 H 387.889 6.76879 -0.127996 0
M  V30 4134 H 392.531 4.10267 1.02181 0
M  V30 4135 H 390.249 8.00204 -1.12691 0
M  V30 4136 H 393.835 5.81466 -0.197236 0
M  V30 4137 H 392.715 7.7407 -1.2564 0
M  V30 4138 N 390.218 -0.567019 1.47046 0
M  V30 4139 C 391.629 -1.14916 1.47143 0
M  V30 4140 C 391.98 -1.94954 0.220767 0
M  V30 4141 O 391.105 -2.05602 -0.67505 0
M  V30 4142 C 391.7 -2.09069 2.666 0
M  V30 4143 C 390.259 -2.62575 2.69687 0
M  V30 4144 C 389.406 -1.38755 2.40088 0
M  V30 4145 H 392.357 -0.354126 1.54699 0
M  V30 4146 H 392.378 -2.92789 2.43011 0
M  V30 4147 H 391.89 -1.50789 3.57609 0
M  V30 4148 H 389.991 -3.24681 1.82792 0
M  V30 4149 H 390.104 -3.04239 3.70102 0
M  V30 4150 H 388.468 -1.69098 1.90468 0
M  V30 4151 H 389.251 -0.822822 3.33293 0
M  V30 4152 N 391.696 -1.35014 -0.812953 0
M  V30 4153 C 393.107 -1.25035 -1.38648 0
M  V30 4154 C 393.458 0.119967 -1.95833 0
M  V30 4155 O 392.583 1.02069 -1.90816 0
M  V30 4156 C 393.178 -2.26394 -2.52054 0
M  V30 4157 C 391.737 -2.20175 -3.05287 0
M  V30 4158 C 390.884 -2.12451 -1.78213 0
M  V30 4159 H 393.835 -1.46235 -0.616516 0
M  V30 4160 H 393.856 -1.88672 -3.30429 0
M  V30 4161 H 393.368 -3.26116 -2.10404 0
M  V30 4162 H 391.469 -1.23841 -3.51417 0
M  V30 4163 H 391.582 -3.11863 -3.63701 0
M  V30 4164 H 389.946 -1.58328 -1.9951 0
M  V30 4165 H 390.729 -3.14024 -1.38723 0
M  V30 4166 N 393.175 1.03435 -1.18907 0
M  V30 4167 C 394.122 2.11591 -0.921837 0
M  V30 4168 C 395.092 1.65499 0.141226 0
M  V30 4169 O 396.277 1.908 0.000242829 0
M  V30 4170 C 393.417 3.42012 -0.460616 0
M  V30 4171 C 392.53 4.01682 -1.58982 0
M  V30 4172 C 391.665 5.20091 -1.08069 0
M  V30 4173 C 390.704 5.71805 -2.18416 0
M  V30 4174 N 389.841 6.81494 -1.68849 0
M  V30 4175 H 394.681 2.33787 -1.8479 0
M  V30 4176 H 392.218 1.1467 -0.921373 0
M  V30 4177 H 394.176 4.16834 -0.174642 0
M  V30 4178 H 392.806 3.19944 0.428467 0
M  V30 4179 H 391.858 3.24127 -1.99113 0
M  V30 4180 H 393.17 4.36084 -2.4214 0
M  V30 4181 H 392.324 6.02051 -0.749615 0
M  V30 4182 H 391.063 4.87209 -0.218771 0
M  V30 4183 H 390.068 4.88461 -2.5236 0
M  V30 4184 H 391.293 6.06728 -3.05054 0
M  V30 4185 H 389.239 6.50475 -0.849572 0
M  V30 4186 H 389.156 7.14994 -2.45601 0
M  V30 4187 H 390.424 7.67063 -1.38689 0
M  V30 4188 N 394.653 0.992116 1.22453 0
M  V30 4189 C 395.901 0.666215 1.90804 0
M  V30 4190 C 396.222 -0.804152 1.77647 0
M  V30 4191 O 395.492 -1.57629 1.16318 0
M  V30 4192 H 394.072 0.243423 0.706225 0
M  V30 4193 H 396.734 1.25845 1.48825 0
M  V30 4194 H 395.83 0.928069 2.97982 0
M  V30 4195 N 396.131 -1.37776 0.765217 0
M  V30 4196 C 397.408 -1.93975 0.251596 0
M  V30 4197 C 397.788 -1.69949 -1.25222 0
M  V30 4198 O 397.136 -1.04457 -2.03226 0
M  V30 4199 C 397.346 -3.43487 0.617895 0
M  V30 4200 C 398.694 -4.20564 0.584029 0
M  V30 4201 O 399.718 -3.5182 0.556888 0
M  V30 4202 O 398.577 -5.43138 0.605291 0
M  V30 4203 H 395.671 -0.82509 0.0561806 0
M  V30 4204 H 398.217 -1.47101 0.846128 0
M  V30 4205 H 396.989 -3.5453 1.65602 0
M  V30 4206 H 396.612 -3.976 -0.00403411 0
M  V30 4207 N 397.609 -0.515225 -1.4894 0
M  V30 4208 C 399.02 -0.0710067 -1.86565 0
M  V30 4209 C 399.371 1.34733 -1.42623 0
M  V30 4210 O 398.496 2.00653 -0.810379 0
M  V30 4211 C 399.091 -0.122083 -3.3858 0
M  V30 4212 C 397.65 0.266863 -3.75453 0
M  V30 4213 C 396.797 -0.488376 -2.72966 0
M  V30 4214 H 399.748 -0.727266 -1.41055 0
M  V30 4215 H 399.769 0.669818 -3.74558 0
M  V30 4216 H 399.281 -1.15448 -3.70531 0
M  V30 4217 H 397.382 1.30196 -3.49113 0
M  V30 4218 H 397.495 -0.0624811 -4.79059 0
M  V30 4219 H 395.859 0.0635622 -2.54621 0
M  V30 4220 H 396.642 -1.52113 -3.07761 0
M  V30 4221 N 399.087 1.5561 -0.249682 0
M  V30 4222 C 400.333 1.99306 0.374841 0
M  V30 4223 C 400.666 1.13767 1.57387 0
M  V30 4224 O 399.941 0.201711 1.93451 0
M  V30 4225 C 400.224 3.51507 0.781986 0
M  V30 4226 C 400.077 4.4781 -0.422629 0
M  V30 4227 C 401.396 4.08884 1.62793 0
M  V30 4228 H 398.515 0.724572 0.134773 0
M  V30 4229 H 401.157 1.86719 -0.351549 0
M  V30 4230 H 399.307 3.62363 1.4009 0
M  V30 4231 H 400.979 4.48931 -1.06108 0
M  V30 4232 H 399.222 4.20518 -1.06524 0
M  V30 4233 H 399.893 5.51919 -0.0943766 0
M  V30 4234 H 402.369 4.01147 1.10547 0
M  V30 4235 H 401.245 5.1564 1.88166 0
M  V30 4236 H 401.506 3.57515 2.60068 0
M  V30 4237 N 400.565 -0.0233959 1.57583 0
M  V30 4238 C 401.811 -0.714119 1.89811 0
M  V30 4239 C 402.144 -1.74702 0.848113 0
M  V30 4240 O 401.419 -1.94023 -0.136135 0
M  V30 4241 C 401.702 -1.37853 3.32669 0
M  V30 4242 C 401.555 -0.358764 4.48367 0
M  V30 4243 C 402.874 -2.31101 3.7454 0
M  V30 4244 H 399.993 -0.25814 0.690314 0
M  V30 4245 H 402.635 0.0230927 1.89986 0
M  V30 4246 H 400.785 -2.00689 3.3265 0
M  V30 4247 H 402.457 0.268115 4.6052 0
M  V30 4248 H 400.7 0.321387 4.32608 0
M  V30 4249 H 401.371 -0.862242 5.45224 0
M  V30 4250 H 403.847 -1.78304 3.75961 0
M  V30 4251 H 402.723 -2.74567 4.75294 0
M  V30 4252 H 402.984 -3.18018 3.0711 0
M  V30 4253 N 402.043 -1.548 -0.295768 0
M  V30 4254 C 402.973 -1.89115 -1.36959 0
M  V30 4255 C 403.954 -0.75059 -1.52644 0
M  V30 4256 O 405.139 -1.00678 -1.66065 0
M  V30 4257 C 402.269 -2.14307 -2.73295 0
M  V30 4258 C 401.223 -3.30151 -2.72368 0
M  V30 4259 C 400.549 -3.40772 -4.12042 0
M  V30 4260 C 401.849 -4.67126 -2.33646 0
M  V30 4261 H 403.543 -2.79053 -1.08488 0
M  V30 4262 H 401.089 -1.34266 -0.520443 0
M  V30 4263 H 403.042 -2.36898 -3.48507 0
M  V30 4264 H 401.766 -1.21145 -3.03301 0
M  V30 4265 H 400.425 -3.0749 -1.99613 0
M  V30 4266 H 400.073 -2.45117 -4.39234 0
M  V30 4267 H 399.773 -4.18645 -4.12322 0
M  V30 4268 H 401.297 -3.6563 -4.89027 0
M  V30 4269 H 402.711 -4.89414 -2.98575 0
M  V30 4270 H 401.108 -5.47751 -2.45129 0
M  V30 4271 H 402.178 -4.67489 -1.28772 0
M  V30 4272 N 403.521 0.559213 -1.47345 0
M  V30 4273 C 404.484 1.64854 -1.59235 0
M  V30 4274 C 405.484 1.53851 -0.467607 0
M  V30 4275 O 406.674 1.58045 -0.732617 0
M  V30 4276 C 403.806 3.04388 -1.53496 0
M  V30 4277 H 404.999 1.55662 -2.56339 0
M  V30 4278 H 402.552 0.778973 -1.35505 0
M  V30 4279 H 403.287 3.19115 -0.577604 0
M  V30 4280 H 403.072 3.13783 -2.35123 0
M  V30 4281 H 404.562 3.83642 -1.6495 0
M  V30 4282 N 404.999 1.35443 0.805782 0
M  V30 4283 C 406.245 1.28952 1.56522 0
M  V30 4284 C 406.578 -0.135597 1.93726 0
M  V30 4285 O 405.853 -1.08516 1.61414 0
M  V30 4286 C 406.136 2.19678 2.85331 0
M  V30 4287 C 405.989 3.7081 2.54598 0
M  V30 4288 C 407.308 2.09495 3.8704 0
M  V30 4289 H 404.427 0.469764 0.567883 0
M  V30 4290 H 407.069 1.65851 0.927001 0
M  V30 4291 H 405.219 1.8834 3.39795 0
M  V30 4292 H 406.891 4.12593 2.06312 0
M  V30 4293 H 405.134 3.91051 1.8778 0
M  V30 4294 H 405.805 4.29679 3.46525 0
M  V30 4295 H 408.281 2.37045 3.41978 0
M  V30 4296 H 407.157 2.75173 4.74943 0
M  V30 4297 H 407.418 1.07714 4.28777 0
M  V30 4298 N 406.477 -1.02803 1.19454 0
M  V30 4299 C 407.407 -2.12999 0.956758 0
M  V30 4300 C 408.388 -1.69743 -0.110188 0
M  V30 4301 O 409.573 -1.94148 0.0450038 0
M  V30 4302 C 406.703 -3.43746 0.495553 0
M  V30 4303 C 405.657 -4.00688 1.50443 0
M  V30 4304 C 404.983 -5.27067 0.900275 0
M  V30 4305 C 406.283 -4.35397 2.8849 0
M  V30 4306 H 407.977 -2.33148 1.87836 0
M  V30 4307 H 405.523 -1.12045 0.904539 0
M  V30 4308 H 407.476 -4.2021 0.316493 0
M  V30 4309 H 406.2 -3.23321 -0.461646 0
M  V30 4310 H 404.859 -3.2632 1.67065 0
M  V30 4311 H 404.507 -5.02959 -0.064503 0
M  V30 4312 H 404.207 -5.66127 1.57397 0
M  V30 4313 H 405.731 -6.06196 0.73203 0
M  V30 4314 H 407.145 -5.02795 2.75446 0
M  V30 4315 H 405.542 -4.85541 3.52661 0
M  V30 4316 H 406.612 -3.44662 3.41081 0
M  V30 4317 N 407.956 -0.998596 -1.21925 0
M  V30 4318 C 409.181 -0.696015 -1.95372 0
M  V30 4319 C 409.606 0.733826 -1.73195 0
M  V30 4320 O 408.964 1.50242 -1.01474 0
M  V30 4321 C 409.012 -1.01466 -3.4603 0
M  V30 4322 O 408.116 -0.116415 -4.12236 0
M  V30 4323 H 407.457 -0.259938 -0.611006 0
M  V30 4324 H 409.987 -1.33711 -1.54863 0
M  V30 4325 H 409.997 -0.958855 -3.96573 0
M  V30 4326 H 408.672 -2.05653 -3.61497 0
M  V30 4327 H 407.249 -0.228193 -3.72201 0
M  V30 4328 N 409.434 1.37368 -0.772513 0
M  V30 4329 C 410.659 2.0447 -0.347386 0
M  V30 4330 C 411.084 1.57882 1.0225 0
M  V30 4331 O 410.442 0.73941 1.65537 0
M  V30 4332 C 410.49 3.58369 -0.400479 0
M  V30 4333 O 409.594 4.0803 0.598789 0
M  V30 4334 H 408.935 0.646773 -0.15027 0
M  V30 4335 H 411.465 1.75667 -1.04892 0
M  V30 4336 H 411.475 4.07183 -0.258045 0
M  V30 4337 H 410.15 3.91633 -1.39986 0
M  V30 4338 H 408.727 3.70534 0.419411 0
M  V30 4339 N 410.912 0.523116 1.48665 0
M  V30 4340 C 412.328 0.180511 1.58576 0
M  V30 4341 C 412.528 -1.31597 1.52592 0
M  V30 4342 O 411.584 -2.0937 1.4114 0
M  V30 4343 C 412.897 0.776949 2.90489 0
M  V30 4344 C 414.445 0.745058 3.04003 0
M  V30 4345 C 414.92 1.31995 4.38567 0
M  V30 4346 N 416.411 1.28162 4.45117 0
M  V30 4347 C 417.146 1.6964 5.47731 0
M  V30 4348 N 416.642 2.18816 6.57337 0
M  V30 4349 N 418.435 1.6092 5.38573 0
M  V30 4350 H 410.586 1.4958 1.50797 0
M  V30 4351 H 412.849 0.621772 0.715614 0
M  V30 4352 H 412.555 1.82732 3.00503 0
M  V30 4353 H 412.429 0.25007 3.7637 0
M  V30 4354 H 414.816 -0.296532 2.93606 0
M  V30 4355 H 414.897 1.30933 2.1975 0
M  V30 4356 H 414.541 2.36043 4.49718 0
M  V30 4357 H 414.471 0.731418 5.21496 0
M  V30 4358 H 416.962 0.92155 3.66491 0
M  V30 4359 H 417.275 2.48478 7.31764 0
M  V30 4360 H 415.62 2.22805 6.58318 0
M  V30 4361 H 418.811 1.22304 4.5184 0
M  V30 4362 H 418.984 1.93567 6.18414 0
M  V30 4363 N 412.39 -1.55475 0.257931 0
M  V30 4364 C 413.667 -1.91155 -0.414629 0
M  V30 4365 C 414.047 -1.18008 -1.75035 0
M  V30 4366 O 413.395 -0.301193 -2.26506 0
M  V30 4367 C 413.605 -3.44283 -0.571859 0
M  V30 4368 C 414.953 -4.15744 -0.862678 0
M  V30 4369 O 415.977 -3.50083 -0.657314 0
M  V30 4370 O 414.836 -5.31909 -1.2544 0
M  V30 4371 H 411.93 -0.796016 -0.22425 0
M  V30 4372 H 414.476 -1.66976 0.302814 0
M  V30 4373 H 413.248 -3.89558 0.368844 0
M  V30 4374 H 412.871 -3.7436 -1.33943 0
M  V30 4375 N 413.868 0.0150385 -1.57593 0
M  V30 4376 C 414.815 1.01126 -2.07466 0
M  V30 4377 C 415.785 1.35064 -0.966794 0
M  V30 4378 O 416.97 1.4516 -1.23827 0
M  V30 4379 C 414.11 2.30276 -2.57035 0
M  V30 4380 C 413.223 2.02373 -3.81666 0
M  V30 4381 C 412.358 3.25496 -4.19793 0
M  V30 4382 C 411.397 2.93211 -5.37303 0
M  V30 4383 N 410.534 4.08826 -5.70794 0
M  V30 4384 H 415.374 0.57901 -2.92321 0
M  V30 4385 H 412.911 0.27426 -1.44521 0
M  V30 4386 H 414.869 3.05757 -2.83846 0
M  V30 4387 H 413.499 2.71197 -1.75077 0
M  V30 4388 H 412.551 1.17327 -3.61854 0
M  V30 4389 H 413.863 1.74567 -4.67256 0
M  V30 4390 H 413.017 4.09333 -4.47807 0
M  V30 4391 H 411.756 3.56428 -3.32882 0
M  V30 4392 H 410.761 2.07777 -5.09027 0
M  V30 4393 H 411.986 2.63542 -6.25877 0
M  V30 4394 H 409.932 4.39682 -4.86842 0
M  V30 4395 H 409.849 3.84491 -6.50924 0
M  V30 4396 H 411.117 4.93496 -6.03392 0
M  V30 4397 N 415.346 1.54954 0.287554 0
M  V30 4398 C 416.293 1.86834 1.35505 0
M  V30 4399 C 417.263 0.718452 1.49758 0
M  V30 4400 O 418.448 0.968358 1.644 0
M  V30 4401 C 415.588 2.13303 2.71286 0
M  V30 4402 C 414.701 3.40883 2.65373 0
M  V30 4403 C 413.836 3.57125 3.93236 0
M  V30 4404 C 412.875 4.78449 3.81776 0
M  V30 4405 N 412.012 4.91426 5.01443 0
M  V30 4406 H 416.852 2.77889 1.07619 0
M  V30 4407 H 414.389 1.37593 0.520241 0
M  V30 4408 H 416.347 2.26646 3.50267 0
M  V30 4409 H 414.977 1.25499 2.97405 0
M  V30 4410 H 414.029 3.36088 1.78182 0
M  V30 4411 H 415.341 4.29993 2.52799 0
M  V30 4412 H 414.495 3.70207 4.80658 0
M  V30 4413 H 413.234 2.66173 4.0866 0
M  V30 4414 H 412.239 4.65386 2.92738 0
M  V30 4415 H 413.464 5.70822 3.67884 0
M  V30 4416 H 411.41 4.03401 5.17304 0
M  V30 4417 H 411.327 5.74559 4.91343 0
M  V30 4418 H 412.595 5.08879 5.90477 0
M  V30 4419 N 416.824 -0.551391 1.4764 0
M  V30 4420 C 418.101 -1.31229 1.45046 0
M  V30 4421 C 418.481 -2.10563 0.150527 0
M  V30 4422 O 417.829 -2.11374 -0.867956 0
M  V30 4423 C 418.039 -2.21189 2.69956 0
M  V30 4424 C 419.387 -2.82021 3.1741 0
M  V30 4425 O 420.411 -2.31488 2.70724 0
M  V30 4426 O 419.27 -3.73885 3.98588 0
M  V30 4427 H 416.364 -0.591193 0.578291 0
M  V30 4428 H 418.91 -0.569813 1.59847 0
M  V30 4429 H 417.682 -1.62207 3.56096 0
M  V30 4430 H 417.305 -3.02722 2.57769 0
M  V30 4431 N 418.302 -1.35869 -0.798587 0
M  V30 4432 C 419.265 -1.29307 -1.89242 0
M  V30 4433 C 420.265 -0.202747 -1.59517 0
M  V30 4434 O 421.455 -0.456957 -1.681 0
M  V30 4435 C 418.587 -1.00229 -3.25833 0
M  V30 4436 H 419.78 -2.26576 -1.96478 0
M  V30 4437 H 417.333 -1.20509 -0.995358 0
M  V30 4438 H 418.068 -0.033801 -3.24282 0
M  V30 4439 H 417.853 -1.79121 -3.48795 0
M  V30 4440 H 419.343 -0.98219 -4.05885 0
M  V30 4441 N 419.78 1.02168 -1.19998 0
M  V30 4442 C 420.727 2.10601 -0.944228 0
M  V30 4443 C 421.697 1.65639 0.123664 0
M  V30 4444 O 422.882 1.9079 -0.0199941 0
M  V30 4445 C 420.022 3.41504 -0.496865 0
M  V30 4446 C 419.135 3.99973 -1.63234 0
M  V30 4447 C 418.27 5.18915 -1.13579 0
M  V30 4448 C 417.309 5.69456 -2.24468 0
M  V30 4449 N 416.446 6.79665 -1.76068 0
M  V30 4450 H 421.286 2.31814 -1.8726 0
M  V30 4451 H 418.823 1.13686 -0.933483 0
M  V30 4452 H 420.781 4.16626 -0.218843 0
M  V30 4453 H 419.411 3.2038 0.394508 0
M  V30 4454 H 418.463 3.21997 -2.0254 0
M  V30 4455 H 419.775 4.33492 -2.46752 0
M  V30 4456 H 418.929 6.01222 -0.813429 0
M  V30 4457 H 417.668 4.8695 -0.270434 0
M  V30 4458 H 416.673 4.85757 -2.57526 0
M  V30 4459 H 417.898 6.03459 -3.11472 0
M  V30 4460 H 415.844 6.49538 -0.918516 0
M  V30 4461 H 415.761 7.12349 -2.5317 0
M  V30 4462 H 417.029 7.65549 -1.46817 0
M  V30 4463 N 421.258 1.00505 1.21394 0
M  V30 4464 C 422.488 0.705584 1.94178 0
M  V30 4465 C 422.896 -0.735846 1.74304 0
M  V30 4466 O 422.239 -1.50954 1.04683 0
M  V30 4467 C 422.301 0.94689 3.46806 0
M  V30 4468 C 421.965 2.37517 3.90429 0
M  V30 4469 C 422.962 3.35539 3.97127 0
M  V30 4470 C 420.647 2.71284 4.22742 0
M  V30 4471 C 422.641 4.65395 4.3553 0
M  V30 4472 C 420.328 4.01356 4.60822 0
M  V30 4473 C 421.326 4.98223 4.67186 0
M  V30 4474 O 421.014 6.25969 5.04399 0
M  V30 4475 H 420.746 0.259216 0.624326 0
M  V30 4476 H 423.3 1.34592 1.55159 0
M  V30 4477 H 421.53 0.249386 3.85895 0
M  V30 4478 H 423.219 0.640804 4.0081 0
M  V30 4479 H 423.985 3.10786 3.7234 0
M  V30 4480 H 419.864 1.96581 4.16985 0
M  V30 4481 H 423.408 5.41002 4.40412 0
M  V30 4482 H 419.305 4.25893 4.85063 0
M  V30 4483 H 420.073 6.30085 5.22431 0
M  V30 4484 N 422.737 -1.36956 0.779787 0
M  V30 4485 C 424.014 -1.93697 0.272156 0
M  V30 4486 C 424.394 -1.71267 -1.23413 0
M  V30 4487 O 423.742 -1.06607 -2.02107 0
M  V30 4488 C 423.952 -3.42812 0.654291 0
M  V30 4489 C 425.3 -4.19921 0.628602 0
M  V30 4490 O 426.324 -3.51209 0.594172 0
M  V30 4491 O 425.183 -5.42465 0.662864 0
M  V30 4492 H 422.277 -0.824447 0.0649286 0
M  V30 4493 H 424.823 -1.46196 0.861682 0
M  V30 4494 H 423.595 -3.52754 1.69353 0
M  V30 4495 H 423.218 -3.97582 0.0381369 0
M  V30 4496 N 424.215 -0.530993 -1.48385 0
M  V30 4497 C 425.492 0.0671788 -1.95485 0
M  V30 4498 C 425.872 1.51191 -1.47324 0
M  V30 4499 O 425.22 2.17507 -0.700202 0
M  V30 4500 C 425.43 -0.0511206 -3.48963 0
M  V30 4501 C 426.778 0.107632 -4.24464 0
M  V30 4502 O 427.802 0.0226248 -3.56193 0
M  V30 4503 O 426.661 0.285972 -5.45751 0
M  V30 4504 H 423.755 0.0787365 -0.823243 0
M  V30 4505 H 426.301 -0.595662 -1.58902 0
M  V30 4506 H 425.073 -1.05747 -3.7674 0
M  V30 4507 H 424.696 0.650525 -3.92242 0
M  V30 4508 N 425.693 1.55336 -0.266172 0
M  V30 4509 C 426.64 2.22172 0.625165 0
M  V30 4510 C 427.61 1.19211 1.15663 0
M  V30 4511 O 428.795 1.47723 1.20758 0
M  V30 4512 C 425.935 2.93972 1.8076 0
M  V30 4513 C 425.048 4.11632 1.31084 0
M  V30 4514 C 424.183 4.71099 2.45436 0
M  V30 4515 C 423.222 5.8097 1.92718 0
M  V30 4516 N 422.359 6.34538 3.00509 0
M  V30 4517 H 427.199 2.9796 0.0485582 0
M  V30 4518 H 424.736 1.47095 0.0122024 0
M  V30 4519 H 426.694 3.33811 2.50251 0
M  V30 4520 H 425.324 2.20623 2.35638 0
M  V30 4521 H 424.376 3.76975 0.509326 0
M  V30 4522 H 425.688 4.90893 0.884633 0
M  V30 4523 H 424.842 5.13612 3.22936 0
M  V30 4524 H 423.581 3.91096 2.91368 0
M  V30 4525 H 422.586 5.37916 1.13695 0
M  V30 4526 H 423.811 6.62836 1.47733 0
M  V30 4527 H 421.757 5.57433 3.45839 0
M  V30 4528 H 421.674 7.09046 2.62279 0
M  V30 4529 H 422.942 6.81709 3.78011 0
M  V30 4530 N 427.171 -0.0066808 1.57599 0
M  V30 4531 C 428.101 -0.999296 2.11036 0
M  V30 4532 C 429.082 -1.36278 1.01795 0
M  V30 4533 O 430.267 -1.4477 1.29442 0
M  V30 4534 C 427.397 -2.29328 2.60818 0
M  V30 4535 C 426.351 -2.07159 3.74525 0
M  V30 4536 C 425.677 -3.42512 4.10596 0
M  V30 4537 C 426.977 -1.43959 5.02069 0
M  V30 4538 H 428.671 -0.554382 2.94223 0
M  V30 4539 H 426.217 -0.265221 1.41536 0
M  V30 4540 H 428.17 -2.99117 2.96828 0
M  V30 4541 H 426.894 -2.7592 1.74745 0
M  V30 4542 H 425.553 -1.39797 3.38899 0
M  V30 4543 H 425.201 -3.86795 3.21556 0
M  V30 4544 H 424.901 -3.28498 4.87199 0
M  V30 4545 H 426.425 -4.13628 4.4916 0
M  V30 4546 H 427.839 -2.03696 5.35893 0
M  V30 4547 H 426.236 -1.40452 5.83432 0
M  V30 4548 H 427.306 -0.407992 4.83181 0
M  V30 4549 N 428.649 -1.55105 -0.279332 0
M  V30 4550 C 429.898 -1.74618 -1.00952 0
M  V30 4551 C 430.211 -0.551096 -1.87676 0
M  V30 4552 O 431.417 -0.628507 -2.64125 0
M  V30 4553 C 429.873 -3.09025 -1.84476 0
M  V30 4554 C 429.481 -4.36081 -1.0265 0
M  V30 4555 C 431.225 -3.37891 -2.56963 0
M  V30 4556 C 429.132 -5.6153 -1.85576 0
M  V30 4557 H 428.062 -0.650868 -0.38064 0
M  V30 4558 H 430.713 -1.81569 -0.265475 0
M  V30 4559 H 429.095 -2.96095 -2.62952 0
M  V30 4560 H 430.269 -4.59909 -0.286354 0
M  V30 4561 H 428.584 -4.14312 -0.416464 0
M  V30 4562 H 431.181 -4.28822 -3.19399 0
M  V30 4563 H 431.524 -2.57737 -3.26921 0
M  V30 4564 H 432.057 -3.5189 -1.85522 0
M  V30 4565 H 428.796 -6.44413 -1.2005 0
M  V30 4566 H 428.316 -5.41854 -2.57204 0
M  V30 4567 H 429.995 -5.99594 -2.43096 0
M  V30 4568 N 430.127 0.543554 -1.4793 0
M  V30 4569 C 431.09 1.63156 -1.60975 0
M  V30 4570 C 432.09 1.53346 -0.483899 0
M  V30 4571 O 433.28 1.5726 -0.749339 0
M  V30 4572 C 430.412 3.02743 -1.56716 0
M  V30 4573 H 431.605 1.52934 -2.57975 0
M  V30 4574 H 429.158 0.764557 -1.36324 0
M  V30 4575 H 429.893 3.18484 -0.611418 0
M  V30 4576 H 429.678 3.11272 -2.38438 0
M  V30 4577 H 431.168 3.81871 -1.6901 0
M  V30 4578 N 431.605 1.3629 0.791371 0
M  V30 4579 C 432.515 1.32606 1.93527 0
M  V30 4580 C 433.531 0.228541 1.72493 0
M  V30 4581 O 434.707 0.460571 1.96063 0
M  V30 4582 C 431.772 1.11271 3.28359 0
M  V30 4583 C 430.833 2.3048 3.62185 0
M  V30 4584 C 430.066 2.10154 4.90583 0
M  V30 4585 O 430.289 1.07572 5.60165 0
M  V30 4586 O 429.223 2.97884 5.23019 0
M  V30 4587 H 433.049 2.28909 1.99585 0
M  V30 4588 H 430.634 1.16818 0.931344 0
M  V30 4589 H 432.516 1.01283 4.09047 0
M  V30 4590 H 431.191 0.180292 3.23198 0
M  V30 4591 H 430.098 2.46036 2.81811 0
M  V30 4592 H 431.431 3.22221 3.72068 0
M  V30 4593 N 433.083 -1.0153 1.20538 0
M  V30 4594 C 434.046 -2.0826 0.957098 0
M  V30 4595 C 435.046 -1.60657 -0.0678655 0
M  V30 4596 O 436.236 -1.73385 0.168332 0
M  V30 4597 C 433.368 -3.38033 0.441188 0
M  V30 4598 H 434.561 -2.31719 1.90384 0
M  V30 4599 H 432.114 -1.1835 1.02093 0
M  V30 4600 H 432.849 -3.20249 -0.510961 0
M  V30 4601 H 432.634 -3.73911 1.18038 0
M  V30 4602 H 434.124 -4.16613 0.287009 0
M  V30 4603 N 434.561 -1.01147 -1.20859 0
M  V30 4604 C 435.789 -0.716911 -1.94082 0
M  V30 4605 C 436.204 0.721568 -1.74467 0
M  V30 4606 O 435.561 1.48889 -1.05539 0
M  V30 4607 C 435.612 -1.03662 -3.46318 0
M  V30 4608 O 435.333 -2.4186 -3.65288 0
M  V30 4609 C 436.834 -0.762386 -4.36695 0
M  V30 4610 H 434.054 -0.26367 -0.617024 0
M  V30 4611 H 436.598 -1.35127 -1.53496 0
M  V30 4612 H 434.753 -0.447757 -3.84804 0
M  V30 4613 H 435.167 -2.53224 -4.59323 0
M  V30 4614 H 436.641 -1.03621 -5.42187 0
M  V30 4615 H 437.118 0.303514 -4.3815 0
M  V30 4616 H 437.724 -1.33316 -4.03865 0
M  V30 4617 N 436.039 1.36541 -0.78704 0
M  V30 4618 C 436.986 2.30082 -0.181901 0
M  V30 4619 C 437.956 1.5186 0.672896 0
M  V30 4620 O 439.141 1.80374 0.622072 0
M  V30 4621 C 436.281 3.3835 0.679197 0
M  V30 4622 C 435.394 4.31565 -0.193882 0
M  V30 4623 C 434.529 5.26915 0.673364 0
M  V30 4624 C 433.568 6.11769 -0.201315 0
M  V30 4625 N 432.705 6.99315 0.624777 0
M  V30 4626 H 437.545 2.81248 -0.985064 0
M  V30 4627 H 435.082 1.38437 -0.497342 0
M  V30 4628 H 437.04 3.99767 1.19341 0
M  V30 4629 H 435.67 2.8851 1.44781 0
M  V30 4630 H 434.722 3.71323 -0.826044 0
M  V30 4631 H 436.034 4.91191 -0.867937 0
M  V30 4632 H 435.188 5.9361 1.25348 0
M  V30 4633 H 433.927 4.67737 1.38105 0
M  V30 4634 H 432.932 5.44039 -0.793849 0
M  V30 4635 H 434.157 6.73022 -0.906568 0
M  V30 4636 H 432.103 6.42648 1.3168 0
M  V30 4637 H 432.02 7.56 0.00835237 0
M  V30 4638 H 433.288 7.70382 1.18879 0
M  V30 4639 N 437.518 0.538854 1.48102 0
M  V30 4640 C 438.764 0.00801365 2.02798 0
M  V30 4641 C 439.097 -1.3309 1.41424 0
M  V30 4642 O 438.372 -1.86169 0.563158 0
M  V30 4643 C 438.655 -0.104589 3.59948 0
M  V30 4644 C 438.508 1.26012 4.31788 0
M  V30 4645 C 439.827 -0.827055 4.32259 0
M  V30 4646 H 436.946 0.00438624 0.736987 0
M  V30 4647 H 439.588 0.6976 1.7673 0
M  V30 4648 H 437.738 -0.691893 3.82289 0
M  V30 4649 H 439.41 1.88922 4.2084 0
M  V30 4650 H 437.653 1.83968 3.92859 0
M  V30 4651 H 438.324 1.13424 5.40221 0
M  V30 4652 H 440.8 -0.328578 4.14801 0
M  V30 4653 H 439.676 -0.87476 5.41885 0
M  V30 4654 H 439.937 -1.87927 4.0017 0
M  V30 4655 N 438.996 -1.55193 0.274407 0
M  V30 4656 C 440.242 -1.99877 -0.343086 0
M  V30 4657 C 440.575 -1.16256 -1.55558 0
M  V30 4658 O 439.85 -0.232462 -1.93106 0
M  V30 4659 C 440.133 -3.52706 -0.725965 0
M  V30 4660 C 439.986 -4.47081 0.493818 0
M  V30 4661 C 441.305 -4.11422 -1.56268 0
M  V30 4662 H 438.424 -0.726625 -0.123229 0
M  V30 4663 H 441.066 -1.86136 0.38121 0
M  V30 4664 H 439.216 -3.64546 -1.34307 0
M  V30 4665 H 440.888 -4.47186 1.13237 0
M  V30 4666 H 439.131 -4.1877 1.13201 0
M  V30 4667 H 439.802 -5.51699 0.18217 0
M  V30 4668 H 442.278 -4.02855 -1.04151 0
M  V30 4669 H 441.154 -5.18568 -1.79939 0
M  V30 4670 H 441.415 -3.61607 -2.54348 0
M  V30 4671 N 440.474 -0.00167713 -1.576 0
M  V30 4672 C 441.407 1.02317 -2.03977 0
M  V30 4673 C 442.385 1.33381 -0.929963 0
M  V30 4674 O 443.569 1.45517 -1.19822 0
M  V30 4675 C 440.696 2.35035 -2.43878 0
M  V30 4676 C 439.742 2.19621 -3.65607 0
M  V30 4677 S 440.575 1.52068 -5.13455 0
M  V30 4678 C 441.731 2.86212 -5.56627 0
M  V30 4679 H 441.964 0.628285 -2.90585 0
M  V30 4680 H 439.497 0.209239 -1.52976 0
M  V30 4681 H 441.455 3.11345 -2.67534 0
M  V30 4682 H 440.116 2.71663 -1.57665 0
M  V30 4683 H 439.309 3.1767 -3.91282 0
M  V30 4684 H 438.911 1.51455 -3.41961 0
M  V30 4685 H 441.203 3.82509 -5.59189 0
M  V30 4686 H 442.146 2.65235 -6.56549 0
M  V30 4687 H 442.554 2.90199 -4.84195 0
M  V30 4688 N 441.952 1.55251 0.271103 0
M  V30 4689 C 442.899 1.88261 1.33516 0
M  V30 4690 C 443.869 0.734296 1.48988 0
M  V30 4691 O 445.054 0.985741 1.63364 0
M  V30 4692 C 442.194 2.16168 2.69008 0
M  V30 4693 C 441.307 3.43678 2.61743 0
M  V30 4694 C 440.442 3.61276 3.89427 0
M  V30 4695 C 439.481 4.82472 3.7668 0
M  V30 4696 N 438.618 4.96717 4.96202 0
M  V30 4697 H 443.458 2.79015 1.04665 0
M  V30 4698 H 440.995 1.38137 0.505618 0
M  V30 4699 H 442.953 2.30349 3.47844 0
M  V30 4700 H 441.583 1.28646 2.96057 0
M  V30 4701 H 440.635 3.37959 1.74607 0
M  V30 4702 H 441.947 4.3265 2.48224 0
M  V30 4703 H 441.101 3.75284 4.76704 0
M  V30 4704 H 439.84 2.70492 4.05814 0
M  V30 4705 H 438.845 4.68465 2.87786 0
M  V30 4706 H 440.07 5.74692 3.61809 0
M  V30 4707 H 438.016 4.08865 5.12997 0
M  V30 4708 H 437.933 5.79738 4.85222 0
M  V30 4709 H 439.201 5.15113 5.85046 0
M  V30 4710 N 443.43 -0.535701 1.48216 0
M  V30 4711 C 444.393 -1.623 1.61838 0
M  V30 4712 C 445.393 -1.53087 0.492024 0
M  V30 4713 O 446.583 -1.5686 0.757668 0
M  V30 4714 C 443.715 -3.01907 1.58319 0
M  V30 4715 H 444.908 -1.51564 2.58783 0
M  V30 4716 H 442.461 -0.757317 1.36727 0
M  V30 4717 H 443.196 -3.18155 0.628299 0
M  V30 4718 H 442.981 -3.10003 2.40085 0
M  V30 4719 H 444.471 -3.80969 1.71033 0
M  V30 4720 N 444.908 -1.36708 -0.784132 0
M  V30 4721 C 445.838 -1.34153 -1.91116 0
M  V30 4722 C 446.819 -0.212121 -1.68772 0
M  V30 4723 O 448.004 -0.410581 -1.8981 0
M  V30 4724 C 445.134 -1.13535 -3.28218 0
M  V30 4725 C 444.088 -2.23356 -3.65097 0
M  V30 4726 C 443.414 -1.87875 -5.00607 0
M  V30 4727 C 444.714 -3.65473 -3.73131 0
M  V30 4728 H 446.408 -2.28459 -1.93512 0
M  V30 4729 H 443.954 -1.09973 -0.929618 0
M  V30 4730 H 445.907 -1.10381 -4.06687 0
M  V30 4731 H 444.631 -0.156804 -3.26223 0
M  V30 4732 H 443.29 -2.25645 -2.88929 0
M  V30 4733 H 442.938 -0.885814 -4.95139 0
M  V30 4734 H 442.638 -2.61406 -5.26252 0
M  V30 4735 H 444.162 -1.86286 -5.81489 0
M  V30 4736 H 445.576 -3.65382 -4.41779 0
M  V30 4737 H 443.973 -4.37953 -4.10265 0
M  V30 4738 H 445.043 -3.99995 -2.74102 0
M  V30 4739 N 446.386 1.0089 -1.21074 0
M  V30 4740 C 447.334 2.11707 -0.963476 0
M  V30 4741 C 448.328 1.69172 0.0879032 0
M  V30 4742 O 449.534 1.79889 -0.0631415 0
M  V30 4743 H 445.909 0.692026 -0.294287 0
M  V30 4744 H 447.88 2.29743 -1.90422 0
M  V30 4745 C 446.629 3.43473 -0.540509 0
M  V30 4746 H 445.952 3.76634 -1.34114 0
M  V30 4747 H 447.392 4.22044 -0.406777 0
M  V30 4748 C 445.851 3.2849 0.748079 0
M  V30 4749 O 446.381 3.58883 1.8046 0
M  V30 4750 N 444.587 2.81715 0.713081 0
M  V30 4751 H 444.134 2.5718 -0.146973 0
M  V30 4752 H 444.092 2.72071 1.57558 0
M  V30 4753 N 447.864 1.01787 1.20321 0
M  V30 4754 C 448.797 0.533882 2.21867 0
M  V30 4755 C 449.775 -0.419361 1.57099 0
M  V30 4756 O 450.959 -0.339062 1.85426 0
M  V30 4757 C 448.086 -0.222899 3.37966 0
M  V30 4758 C 447.132 0.680091 4.21043 0
M  V30 4759 S 447.965 2.14997 4.90445 0
M  V30 4760 C 449.121 1.40339 6.09964 0
M  V30 4761 H 449.354 1.39429 2.62577 0
M  V30 4762 H 446.887 0.826867 1.30393 0
M  V30 4763 H 448.845 -0.653425 4.05266 0
M  V30 4764 H 447.506 -1.0589 2.95713 0
M  V30 4765 H 446.699 0.0964704 5.03908 0
M  V30 4766 H 446.301 1.04845 3.59004 0
M  V30 4767 H 448.593 0.68407 6.74038 0
M  V30 4768 H 449.536 2.20823 6.72787 0
M  V30 4769 H 449.944 0.905716 5.57187 0
M  V30 4770 N 449.342 -1.36122 0.79427 0
M  V30 4771 C 450.29 -2.31871 0.184023 0
M  V30 4772 C 451.284 -1.56041 -0.659365 0
M  V30 4773 O 452.49 -1.71266 -0.553906 0
M  V30 4774 H 448.865 -0.750896 0.0407373 0
M  V30 4775 H 450.836 -2.80898 1.00693 0
M  V30 4776 C 449.585 -3.41324 -0.662813 0
M  V30 4777 H 448.908 -3.99793 -0.0231944 0
M  V30 4778 H 450.348 -4.10629 -1.05639 0
M  V30 4779 C 448.807 -2.83308 -1.82313 0
M  V30 4780 O 449.337 -2.75863 -2.91997 0
M  V30 4781 N 447.543 -2.40529 -1.63077 0
M  V30 4782 H 447.09 -2.46785 -0.738591 0
M  V30 4783 H 447.048 -2.02059 -2.40872 0
M  V30 4784 N 450.82 -0.546701 -1.47814 0
M  V30 4785 C 452.068 -0.0187037 -2.02091 0
M  V30 4786 C 452.389 1.33168 -1.42447 0
M  V30 4787 O 451.659 1.86619 -0.595839 0
M  V30 4788 H 450.239 -0.00392531 -0.74699 0
M  V30 4789 H 452.901 -0.714327 -1.81338 0
M  V30 4790 H 451.997 0.0772219 -3.12004 0
M  V30 4791 N 452.299 1.55045 -0.282633 0
M  V30 4792 C 453.246 2.22822 0.601566 0
M  V30 4793 C 454.216 1.20431 1.14392 0
M  V30 4794 O 455.401 1.48996 1.19184 0
M  V30 4795 C 452.541 2.95873 1.77632 0
M  V30 4796 C 451.654 4.12999 1.26711 0
M  V30 4797 C 450.789 4.73676 2.40426 0
M  V30 4798 C 449.828 5.82981 1.86545 0
M  V30 4799 N 448.965 6.3769 2.93762 0
M  V30 4800 H 453.805 2.97995 0.0169528 0
M  V30 4801 H 451.342 1.471 -0.00339964 0
M  V30 4802 H 453.3 3.36447 2.46697 0
M  V30 4803 H 451.93 2.2311 2.33285 0
M  V30 4804 H 450.982 3.77494 0.469314 0
M  V30 4805 H 452.294 4.91803 0.832518 0
M  V30 4806 H 451.448 5.17008 3.17471 0
M  V30 4807 H 450.187 3.94164 2.87203 0
M  V30 4808 H 449.192 5.39092 1.07983 0
M  V30 4809 H 450.417 6.64366 1.40694 0
M  V30 4810 H 448.363 5.61069 3.39908 0
M  V30 4811 H 448.28 7.11788 2.54744 0
M  V30 4812 H 449.548 6.8568 3.7076 0
M  V30 4813 O 453.816 0.148543 1.60815 0
M  V30 4814 H 454.507 -0.445161 1.88515 0
M  V30 END ATOM
M  V30 BEGIN BOND
M  V30 END BOND
M  V30 END CTAB
M  END
$$$$
