drugbank_target|P00864 Phosphoenolpyruvate carboxylase (DB04317)
 OpenBabel12092120003D

  0  0  0     0  0            999 V3000
M  V30 BEGIN CTAB
M  V30 COUNTS 13984 14120 0 0 0
M  V30 BEGIN ATOM
M  V30 1 H -0.908 1.98254 -0.117106 0
M  V30 2 N 0 1.576 0 0
M  V30 3 C 0.933 2.03868 1.02534 0
M  V30 4 C 1.911 0.928543 1.3348 0
M  V30 5 O 3.095 1.19667 1.45644 0
M  V30 6 C 0.222 2.43627 2.35294 0
M  V30 7 C -0.732 3.65373 2.2001 0
M  V30 8 S 0.101 5.13292 1.52614 0
M  V30 9 C 1.257 5.56322 2.86805 0
M  V30 10 H 1.49 2.90518 0.631377 0
M  V30 11 H -0.977 1.52953 0.210867 0
M  V30 12 H 0.981 2.67203 3.11629 0
M  V30 13 H -0.358 1.57376 2.7183 0
M  V30 14 H -1.165 3.90944 3.18086 0
M  V30 15 H -1.563 3.418 1.51819 0
M  V30 16 H 0.729 5.58782 3.83104 0
M  V30 17 H 1.672 6.56266 2.65933 0
M  V30 18 H 2.08 4.83886 2.90714 0
M  V30 19 N 1.4781 -0.272755 1.55222 0
M  V30 20 C 2.4261 -1.35705 1.88909 0
M  V30 21 C 3.4201 -1.5112 0.765456 0
M  V30 22 O 4.6261 -1.52901 0.949802 0
M  V30 23 H 1.0011 -0.453868 0.59959 0
M  V30 24 H 2.9721 -1.04544 2.79487 0
M  V30 25 C 1.7211 -2.71049 2.17779 0
M  V30 26 H 1.0441 -2.59979 3.03728 0
M  V30 27 H 2.4841 -3.45858 2.45272 0
M  V30 28 C 0.9431 -3.22165 0.985473 0
M  V30 29 O 1.4731 -4.01096 0.220233 0
M  V30 30 N -0.3209 -2.7985 0.783108 0
M  V30 31 H -0.7739 -2.15775 1.40708 0
M  V30 32 H -0.8159 -3.14397 -0.0130392 0
M  V30 33 N 2.9562 -1.48159 -0.537278 0
M  V30 34 C 3.8662 -1.64807 -1.6696 0
M  V30 35 C 4.8822 -0.530651 -1.65711 0
M  V30 36 O 6.0582 -0.800784 -1.84796 0
M  V30 37 C 3.1232 -1.67708 -3.03438 0
M  V30 38 C 2.1842 -2.91025 -3.156 0
M  V30 39 C 1.4172 -2.93778 -4.45567 0
M  V30 40 O 1.6402 -2.05153 -5.3223 0
M  V30 41 O 0.5742 -3.85868 -4.61941 0
M  V30 42 H 4.4002 -2.6066 -1.55853 0
M  V30 43 H 1.9852 -1.31475 -0.709549 0
M  V30 44 H 3.8672 -1.7218 -3.84619 0
M  V30 45 H 2.5422 -0.750278 -3.14885 0
M  V30 46 H 1.4492 -2.92089 -2.33741 0
M  V30 47 H 2.7822 -3.83065 -3.09066 0
M  V30 48 N 4.4343 0.785586 -1.36625 0
M  V30 49 C 5.3663 1.90711 -1.2713 0
M  V30 50 C 6.3793 1.61688 -0.189986 0
M  V30 51 O 7.5683 1.72864 -0.445014 0
M  V30 52 C 4.6683 3.25611 -0.939713 0
M  V30 53 C 3.8413 3.82385 -2.12369 0
M  V30 54 C 2.9003 4.95732 -1.76456 0
M  V30 55 O 1.9263 5.12047 -2.48589 0
M  V30 56 N 3.1283 5.76258 -0.700492 0
M  V30 57 H 5.8933 1.99376 -2.23762 0
M  V30 58 H 3.4543 0.964041 -1.30069 0
M  V30 59 H 5.4463 3.98937 -0.680554 0
M  V30 60 H 4.0163 3.12538 -0.0624074 0
M  V30 61 H 3.2363 3.01001 -2.54543 0
M  V30 62 H 4.5243 4.17047 -2.9146 0
M  V30 63 H 3.9223 5.65609 -0.101624 0
M  V30 64 H 2.4793 6.4987 -0.501165 0
M  V30 65 N 5.9124 1.20967 1.01018 0
M  V30 66 C 7.1424 1.04803 1.78044 0
M  V30 67 C 7.5504 -0.405462 1.84804 0
M  V30 68 O 6.8934 -1.2932 1.30468 0
M  V30 69 C 6.9554 1.56377 3.23707 0
M  V30 70 C 6.6194 3.04767 3.40538 0
M  V30 71 C 7.6164 4.02366 3.29239 0
M  V30 72 C 5.3014 3.43862 3.66147 0
M  V30 73 C 7.2954 5.37049 3.43304 0
M  V30 74 C 4.9824 4.78699 3.79855 0
M  V30 75 C 5.9804 5.75101 3.68439 0
M  V30 76 O 5.6684 7.07493 3.81719 0
M  V30 77 H 5.4004 0.368778 0.56655 0
M  V30 78 H 7.9544 1.60642 1.27997 0
M  V30 79 H 6.1844 0.949297 3.74867 0
M  V30 80 H 7.8734 1.36136 3.8239 0
M  V30 81 H 8.6394 3.73506 3.09384 0
M  V30 82 H 4.5184 2.69364 3.74118 0
M  V30 83 H 8.0624 6.12277 3.34309 0
M  V30 84 H 3.9594 5.07247 3.99213 0
M  V30 85 H 4.7274 7.1483 3.98697 0
M  V30 86 N 7.3905 -1.2043 1.01659 0
M  V30 87 C 8.6155 -1.94318 0.724942 0
M  V30 88 C 9.0405 -1.74266 -0.708034 0
M  V30 89 O 8.3985 -1.03694 -1.48719 0
M  V30 90 C 8.4465 -3.44486 1.06591 0
M  V30 91 O 7.5505 -4.12017 0.177599 0
M  V30 92 H 6.8915 -0.60708 0.26898 0
M  V30 93 H 9.4215 -1.52861 1.35995 0
M  V30 94 H 9.4315 -3.95106 1.01762 0
M  V30 95 H 8.1065 -3.58404 2.10997 0
M  V30 96 H 6.6835 -3.71821 0.283421 0
M  V30 97 N 8.8686 -0.792821 -1.36206 0
M  V30 98 C 9.8316 -0.199459 -2.2833 0
M  V30 99 C 10.8316 0.605189 -1.48977 0
M  V30 100 O 12.0216 0.425685 -1.68919 0
M  V30 101 C 9.1536 0.723523 -3.33134 0
M  V30 102 H 10.3466 -1.01181 -2.82316 0
M  V30 103 H 7.8996 -0.562485 -1.45828 0
M  V30 104 H 8.6346 1.56008 -2.84309 0
M  V30 105 H 8.4196 0.148436 -3.91819 0
M  V30 106 H 9.9096 1.13344 -4.01924 0
M  V30 107 N 10.3467 1.47872 -0.545128 0
M  V30 108 C 11.2767 2.32661 0.197793 0
M  V30 109 C 12.2577 1.43041 0.920504 0
M  V30 110 O 13.4427 1.71912 0.90333 0
M  V30 111 C 10.5727 3.24569 1.23582 0
M  V30 112 C 9.5267 4.23333 0.630323 0
M  V30 113 C 8.8527 5.0448 1.77211 0
M  V30 114 C 10.1527 5.20704 -0.407974 0
M  V30 115 H 11.8467 2.95024 -0.510045 0
M  V30 116 H 9.3927 1.4187 -0.246731 0
M  V30 117 H 11.3457 3.8272 1.76362 0
M  V30 118 H 10.0697 2.60236 1.97344 0
M  V30 119 H 8.7287 3.6639 0.123922 0
M  V30 120 H 8.3767 4.36561 2.49847 0
M  V30 121 H 8.0767 5.71339 1.37281 0
M  V30 122 H 9.6007 5.65487 2.3034 0
M  V30 123 H 11.0147 5.7329 0.033305 0
M  V30 124 H 9.4117 5.95699 -0.725486 0
M  V30 125 H 10.4817 4.66917 -1.30828 0
M  V30 126 N 11.8248 0.280983 1.55075 0
M  V30 127 C 13.2408 -0.0729964 1.59433 0
M  V30 128 C 13.4408 -1.5411 1.29817 0
M  V30 129 O 12.4968 -2.29086 1.06187 0
M  V30 130 C 13.8098 0.306921 2.9913 0
M  V30 131 C 15.3578 0.254023 3.11968 0
M  V30 132 C 15.8328 0.608467 4.5394 0
M  V30 133 N 17.3238 0.560241 4.59799 0
M  V30 134 C 18.0588 0.80722 5.6769 0
M  V30 135 N 17.5548 1.11912 6.83701 0
M  V30 136 N 19.3478 0.735623 5.57266 0
M  V30 137 H 11.4988 1.238 1.7259 0
M  V30 138 H 13.7618 0.500547 0.805082 0
M  V30 139 H 13.4678 1.32816 3.25657 0
M  V30 140 H 13.3418 -0.349363 3.75579 0
M  V30 141 H 15.7288 -0.75794 2.852 0
M  V30 142 H 15.8098 0.944649 2.37718 0
M  V30 143 H 15.4538 1.61814 4.81434 0
M  V30 144 H 15.3838 -0.104013 5.26497 0
M  V30 145 H 17.8748 0.329288 3.76463 0
M  V30 146 H 18.1878 1.29409 7.61888 0
M  V30 147 H 16.5328 1.15695 6.85303 0
M  V30 148 H 19.7238 0.491752 4.6551 0
M  V30 149 H 19.8968 0.931482 6.4127 0
M  V30 150 N 13.3029 -1.57598 0.00835791 0
M  V30 151 C 14.5279 -1.95617 -0.689103 0
M  V30 152 C 14.9529 -0.883753 -1.66046 0
M  V30 153 O 14.3109 0.157352 -1.80616 0
M  V30 154 C 14.3589 -3.32736 -1.38994 0
M  V30 155 O 13.4629 -3.27631 -2.50463 0
M  V30 156 H 12.8039 -0.638379 -0.182668 0
M  V30 157 H 15.3339 -2.045 0.064036 0
M  V30 158 H 15.3439 -3.68494 -1.75147 0
M  V30 159 H 14.0189 -4.1034 -0.677778 0
M  V30 160 H 12.5959 -3.03561 -2.16576 0
M  V30 161 N 14.781 0.264519 -1.55364 0
M  V30 162 C 15.729 1.34702 -1.89626 0
M  V30 163 C 16.723 1.50712 -0.773459 0
M  V30 164 O 17.929 1.52395 -0.957897 0
M  V30 165 H 14.304 0.450682 -0.601988 0
M  V30 166 H 16.275 1.0306 -2.80038 0
M  V30 167 C 15.024 2.6989 -2.19214 0
M  V30 168 H 14.347 2.58365 -3.05103 0
M  V30 169 H 15.787 3.44553 -2.47102 0
M  V30 170 C 14.246 3.21637 -1.00254 0
M  V30 171 O 14.776 4.00973 -0.241501 0
M  V30 172 N 12.982 2.7943 -0.797938 0
M  V30 173 H 12.529 2.15026 -1.4185 0
M  V30 174 H 12.487 3.144 -0.00363422 0
M  V30 175 N 16.2591 1.48442 0.529413 0
M  V30 176 C 17.5051 1.5672 1.28711 0
M  V30 177 C 17.8381 0.2406 1.92704 0
M  V30 178 O 17.1131 -0.753454 1.79313 0
M  V30 179 C 17.3961 2.70587 2.37603 0
M  V30 180 C 17.2491 4.12953 1.78297 0
M  V30 181 C 18.5681 2.80212 3.39366 0
M  V30 182 H 15.6871 0.570474 0.466613 0
M  V30 183 H 18.3291 1.80617 0.589706 0
M  V30 184 H 16.4791 2.50342 2.97088 0
M  V30 185 H 18.1511 4.44639 1.22858 0
M  V30 186 H 16.3941 4.19927 1.0883 0
M  V30 187 H 17.0651 4.88448 2.57144 0
M  V30 188 H 19.5411 2.98553 2.89836 0
M  V30 189 H 18.4171 3.61611 4.12951 0
M  V30 190 H 18.6781 1.88393 3.99951 0
M  V30 191 N 17.7372 -0.778329 1.37039 0
M  V30 192 C 18.9622 -1.57248 1.35233 0
M  V30 193 C 19.3872 -1.87999 -0.0615568 0
M  V30 194 O 18.7452 -1.48734 -1.03672 0
M  V30 195 C 18.7932 -2.86353 2.19167 0
M  V30 196 O 17.8972 -3.80442 1.59178 0
M  V30 197 H 17.2382 -0.476569 0.462362 0
M  V30 198 H 19.7682 -0.963853 1.80474 0
M  V30 199 H 19.7782 -3.35519 2.32145 0
M  V30 200 H 18.4532 -2.63299 3.21942 0
M  V30 201 H 17.0302 -3.39067 1.55203 0
M  V30 202 N 19.2153 -1.21501 -1.00376 0
M  V30 203 C 20.1483 -0.918669 -2.08892 0
M  V30 204 C 21.1263 0.134277 -1.62045 0
M  V30 205 O 22.3103 0.00504255 -1.88499 0
M  V30 206 C 19.4373 -0.379645 -3.36566 0
M  V30 207 C 18.4833 -1.41559 -4.02323 0
M  V30 208 S 19.3163 -2.98521 -4.44574 0
M  V30 209 C 20.4723 -2.46228 -5.75433 0
M  V30 210 H 20.7053 -1.83761 -2.33707 0
M  V30 211 H 18.2383 -1.04489 -1.13673 0
M  V30 212 H 20.1963 -0.0752195 -4.10431 0
M  V30 213 H 18.8573 0.518008 -3.09799 0
M  V30 214 H 18.0503 -0.988076 -4.9422 0
M  V30 215 H 17.6523 -1.66815 -3.34737 0
M  V30 216 H 19.9443 -1.86791 -6.51241 0
M  V30 217 H 20.8873 -3.36572 -6.22997 0
M  V30 218 H 21.2953 -1.87894 -5.32312 0
M  V30 219 N 20.6934 1.19889 -1.02296 0
M  V30 220 C 21.6234 2.25141 -0.619174 0
M  V30 221 C 22.6044 1.66051 0.368915 0
M  V30 222 O 23.7894 1.92546 0.252941 0
M  V30 223 C 20.9194 3.4728 0.0368783 0
M  V30 224 C 19.8734 4.19005 -0.872865 0
M  V30 225 C 19.1994 5.34637 -0.0822402 0
M  V30 226 C 20.4994 4.74452 -2.18387 0
M  V30 227 H 22.1934 2.59171 -1.49903 0
M  V30 228 H 19.7394 1.24579 -0.722222 0
M  V30 229 H 21.6924 4.20098 0.330958 0
M  V30 230 H 20.4164 3.12433 0.95149 0
M  V30 231 H 19.0754 3.48061 -1.15105 0
M  V30 232 H 18.7234 4.96034 0.83422 0
M  V30 233 H 18.4234 5.83557 -0.688149 0
M  V30 234 H 19.9474 6.10255 0.205238 0
M  V30 235 H 21.3614 5.39055 -1.95172 0
M  V30 236 H 19.7584 5.33834 -2.74119 0
M  V30 237 H 20.8284 3.92844 -2.84257 0
M  V30 238 N 22.1715 0.800033 1.35784 0
M  V30 239 C 23.4195 0.376597 1.9856 0
M  V30 240 C 23.7405 -1.05812 1.63795 0
M  V30 241 O 23.0105 -1.73103 0.917171 0
M  V30 242 H 21.5905 0.136261 0.734467 0
M  V30 243 H 24.2525 1.02442 1.65806 0
M  V30 244 H 23.3485 0.477002 3.08433 0
M  V30 245 N 23.6496 -1.47581 0.552962 0
M  V30 246 C 24.5966 -2.29957 -0.197108 0
M  V30 247 C 25.5666 -1.38799 -0.912359 0
M  V30 248 O 26.7516 -1.67761 -0.908888 0
M  V30 249 C 23.8916 -3.22672 -1.22379 0
M  V30 250 C 23.0046 -4.28919 -0.515038 0
M  V30 251 C 22.1396 -5.0879 -1.52664 0
M  V30 252 C 21.1786 -6.06815 -0.802631 0
M  V30 253 N 20.3156 -6.7966 -1.76086 0
M  V30 254 H 25.1556 -2.93578 0.511486 0
M  V30 255 H 22.6926 -1.4471 0.264067 0
M  V30 256 H 24.6506 -3.74845 -1.83159 0
M  V30 257 H 23.2806 -2.60925 -1.90047 0
M  V30 258 H 22.3326 -3.79835 0.207192 0
M  V30 259 H 23.6446 -4.98773 0.0523425 0
M  V30 260 H 22.7986 -5.65091 -2.20809 0
M  V30 261 H 21.5376 -4.38828 -2.12794 0
M  V30 262 H 20.5426 -5.49695 -0.107238 0
M  V30 263 H 21.7676 -6.78784 -0.207135 0
M  V30 264 H 19.7136 -6.12432 -2.35081 0
M  V30 265 H 19.6306 -7.45669 -1.24552 0
M  V30 266 H 20.8986 -7.40538 -2.43359 0
M  V30 267 N 25.1277 -0.289203 -1.54924 0
M  V30 268 C 26.3737 0.323998 -2.00195 0
M  V30 269 C 26.7067 1.54441 -1.17735 0
M  V30 270 O 25.9817 1.92875 -0.250878 0
M  V30 271 C 26.2647 0.692276 -3.53383 0
M  V30 272 C 26.1177 -0.536457 -4.46589 0
M  V30 273 C 27.4367 1.52335 -4.12895 0
M  V30 274 H 24.5557 0.116289 -0.727768 0
M  V30 275 H 27.1977 -0.398954 -1.85764 0
M  V30 276 H 25.3477 1.30822 -3.65811 0
M  V30 277 H 27.0197 -1.17499 -4.46085 0
M  V30 278 H 25.2627 -1.17192 -4.1767 0
M  V30 279 H 25.9337 -0.234806 -5.515 0
M  V30 280 H 28.4097 1.00302 -4.0383 0
M  V30 281 H 27.2857 1.74982 -5.20262 0
M  V30 282 H 27.5467 2.50886 -3.64018 0
M  V30 283 N 26.6058 1.57591 -0.0167156 0
M  V30 284 C 27.5358 2.12496 0.967858 0
M  V30 285 C 28.5168 1.03807 1.34752 0
M  V30 286 O 29.7018 1.31577 1.42833 0
M  V30 287 C 26.8318 2.64194 2.25431 0
M  V30 288 C 25.7858 3.77559 2.01576 0
M  V30 289 C 25.1118 4.15636 3.36379 0
M  V30 290 C 26.4118 5.04151 1.36489 0
M  V30 291 H 28.1058 2.95013 0.510643 0
M  V30 292 H 25.6518 1.41915 0.244181 0
M  V30 293 H 27.6048 3.01236 2.94678 0
M  V30 294 H 26.3288 1.78821 2.73296 0
M  V30 295 H 24.9878 3.40937 1.34751 0
M  V30 296 H 24.6358 3.27263 3.81979 0
M  V30 297 H 24.3358 4.92022 3.21229 0
M  V30 298 H 25.8598 4.5525 4.06915 0
M  V30 299 H 27.2738 5.38857 1.95718 0
M  V30 300 H 25.6708 5.85453 1.31776 0
M  V30 301 H 26.7408 4.83733 0.336219 0
M  V30 302 N 28.0839 -0.256276 1.55502 0
M  V30 303 C 29.3319 -0.983672 1.76545 0
M  V30 304 C 29.6529 -1.86206 0.578982 0
M  V30 305 O 28.9229 -1.91656 -0.405577 0
M  V30 306 H 27.5029 -0.366191 0.651086 0
M  V30 307 H 30.1649 -0.276479 1.92929 0
M  V30 308 H 29.2609 -1.61087 2.67315 0
M  V30 309 N 29.562 -1.4872 -0.521534 0
M  V30 310 C 30.472 -1.66569 -1.65203 0
M  V30 311 C 31.488 -0.548197 -1.65139 0
M  V30 312 O 32.664 -0.820339 -1.83936 0
M  V30 313 C 29.729 -1.70917 -3.01642 0
M  V30 314 C 28.79 -2.94356 -3.12495 0
M  V30 315 C 28.023 -2.98487 -4.42426 0
M  V30 316 O 28.246 -2.10786 -5.30024 0
M  V30 317 O 27.18 -3.90746 -4.57822 0
M  V30 318 H 31.006 -2.62298 -1.5308 0
M  V30 319 H 28.591 -1.3222 -0.695565 0
M  V30 320 H 30.473 -1.7625 -3.82771 0
M  V30 321 H 29.148 -0.783633 -3.14071 0
M  V30 322 H 28.055 -2.94552 -2.3063 0
M  V30 323 H 29.388 -3.86322 -3.04986 0
M  V30 324 N 31.0401 0.771051 -1.3745 0
M  V30 325 C 32.2681 1.56015 -1.35893 0
M  V30 326 C 32.6831 1.88718 0.0555523 0
M  V30 327 O 32.0401 1.51502 1.01752 0
M  V30 328 C 32.0911 2.87001 -2.19801 0
M  V30 329 O 31.8121 2.557 -3.55738 0
M  V30 330 C 33.3131 3.81228 -2.26231 0
M  V30 331 H 30.5331 0.483317 -0.465453 0
M  V30 332 H 33.0771 0.955611 -1.80799 0
M  V30 333 H 31.2321 3.43877 -1.78402 0
M  V30 334 H 31.6461 3.39584 -3.99729 0
M  V30 335 H 33.1201 4.70139 -2.89263 0
M  V30 336 H 33.5971 4.20409 -1.27093 0
M  V30 337 H 34.2031 3.30281 -2.67945 0
M  V30 338 N 32.5182 1.22032 0.997298 0
M  V30 339 C 33.7672 1.03637 1.73038 0
M  V30 340 C 34.0802 -0.429475 1.90827 0
M  V30 341 O 35.2862 -0.732995 2.61418 0
M  V30 342 C 33.7422 1.80582 3.11317 0
M  V30 343 C 33.3502 3.31387 3.01474 0
M  V30 344 C 35.0942 1.70621 3.88701 0
M  V30 345 C 33.0012 4.00791 4.3488 0
M  V30 346 H 31.9312 0.384179 0.648785 0
M  V30 347 H 34.5822 1.4584 1.11368 0
M  V30 348 H 32.9642 1.31175 3.73643 0
M  V30 349 H 34.1382 3.88155 2.4834 0
M  V30 350 H 32.4532 3.41976 2.37575 0
M  V30 351 H 35.0502 2.19799 4.87434 0
M  V30 352 H 35.3932 0.665823 4.10941 0
M  V30 353 H 35.9262 2.17547 3.33044 0
M  V30 354 H 32.6652 5.05064 4.1784 0
M  V30 355 H 32.1852 3.48811 4.87945 0
M  V30 356 H 33.8642 4.06139 5.03647 0
M  V30 357 N 33.9963 -1.19345 1.0293 0
M  V30 358 C 34.9433 -2.2258 0.610464 0
M  V30 359 C 35.9133 -1.6179 -0.375946 0
M  V30 360 O 37.0983 -1.88844 -0.272511 0
M  V30 361 C 34.2383 -3.45085 -0.0321473 0
M  V30 362 C 33.3513 -4.20258 1.00035 0
M  V30 363 C 32.4863 -5.3019 0.32746 0
M  V30 364 C 31.5253 -5.97121 1.34584 0
M  V30 365 N 30.6623 -6.98615 0.698726 0
M  V30 366 H 35.5023 -2.57764 1.49538 0
M  V30 367 H 33.0393 -1.26644 0.748311 0
M  V30 368 H 34.9973 -4.15061 -0.421966 0
M  V30 369 H 33.6273 -3.10555 -0.88064 0
M  V30 370 H 32.6793 -3.49223 1.50823 0
M  V30 371 H 33.9913 -4.66175 1.77433 0
M  V30 372 H 33.1453 -6.06587 -0.11718 0
M  V30 373 H 31.8843 -4.85345 -0.478713 0
M  V30 374 H 30.8893 -5.19474 1.80074 0
M  V30 375 H 32.1143 -6.4405 2.15352 0
M  V30 376 H 30.0603 -6.55942 -0.0873471 0
M  V30 377 H 29.9773 -7.42724 1.41058 0
M  V30 378 H 31.2453 -7.79004 0.278102 0
M  V30 379 N 35.4744 -0.807222 -1.35358 0
M  V30 380 C 36.7514 -0.311126 -1.9311 0
M  V30 381 C 37.1314 1.19937 -1.73719 0
M  V30 382 O 36.4794 1.99918 -1.10657 0
M  V30 383 C 36.6894 -0.723226 -3.41424 0
M  V30 384 C 38.0374 -0.713078 -4.18569 0
M  V30 385 O 39.0614 -0.664811 -3.49941 0
M  V30 386 O 37.9204 -0.772022 -5.41019 0
M  V30 387 H 35.0144 -0.081526 -0.822972 0
M  V30 388 H 37.5604 -0.890962 -1.4443 0
M  V30 389 H 36.3324 -1.76426 -3.4927 0
M  V30 390 H 35.9554 -0.118232 -3.97424 0
M  V30 391 N 36.9525 1.47285 -0.560781 0
M  V30 392 C 37.9155 2.28535 0.174488 0
M  V30 393 C 38.9155 1.37153 0.839388 0
M  V30 394 O 40.1055 1.59748 0.694702 0
M  V30 395 C 37.2375 3.16934 1.25561 0
M  V30 396 H 38.4305 2.95012 -0.539262 0
M  V30 397 H 35.9835 1.53034 -0.317865 0
M  V30 398 H 36.7185 2.55157 2.00164 0
M  V30 399 H 36.5035 3.8419 0.783604 0
M  V30 400 H 37.9935 3.78143 1.77193 0
M  V30 401 N 38.4306 0.297415 1.54768 0
M  V30 402 C 39.3606 -0.573494 2.26348 0
M  V30 403 C 40.3416 -1.14085 1.26169 0
M  V30 404 O 41.5266 -1.17086 1.54934 0
M  V30 405 C 38.6566 -1.74716 3.00153 0
M  V30 406 C 37.6106 -1.31032 4.07449 0
M  V30 407 C 36.9366 -2.56887 4.68949 0
M  V30 408 C 38.2366 -0.444183 5.20408 0
M  V30 409 H 39.9306 0.0235131 2.99391 0
M  V30 410 H 37.4766 0.0127488 1.43994 0
M  V30 411 H 39.4296 -2.3625 3.48947 0
M  V30 412 H 38.1536 -2.37035 2.24682 0
M  V30 413 H 36.8126 -0.718066 3.59499 0
M  V30 414 H 36.4606 -3.17512 3.90122 0
M  V30 415 H 36.1606 -2.2836 5.41411 0
M  V30 416 H 37.6846 -3.19229 5.20505 0
M  V30 417 H 39.0986 -0.9651 5.65118 0
M  V30 418 H 37.4956 -0.252846 5.99567 0
M  V30 419 H 38.5656 0.531609 4.81977 0
M  V30 420 N 39.9087 -1.5758 0.0250728 0
M  V30 421 C 41.1567 -1.91255 -0.653151 0
M  V30 422 C 41.4777 -0.901691 -1.729 0
M  V30 423 O 40.7477 0.0573785 -1.95816 0
M  V30 424 H 39.3277 -0.705942 -0.244243 0
M  V30 425 H 41.9897 -1.94767 0.0719209 0
M  V30 426 H 41.0857 -2.91752 -1.10847 0
M  V30 427 N 41.3868 0.248026 -1.55636 0
M  V30 428 C 42.2968 1.32859 -1.93354 0
M  V30 429 C 43.3128 1.52719 -0.833838 0
M  V30 430 O 44.4888 1.66363 -1.13513 0
M  V30 431 C 41.5538 2.66337 -2.21958 0
M  V30 432 C 40.6148 2.55008 -3.45354 0
M  V30 433 C 39.8478 3.82121 -3.72584 0
M  V30 434 O 40.0708 4.83951 -3.01907 0
M  V30 435 O 39.0048 3.80822 -4.6611 0
M  V30 436 H 42.8308 1.03862 -2.85388 0
M  V30 437 H 40.4158 0.448686 -1.42503 0
M  V30 438 H 42.2978 3.45216 -2.4167 0
M  V30 439 H 40.9728 2.95068 -1.33103 0
M  V30 440 H 39.8798 1.7442 -3.30951 0
M  V30 441 H 41.2128 2.31222 -4.34508 0
M  V30 442 N 42.8649 1.48995 0.513639 0
M  V30 443 C 43.8149 1.61127 1.61314 0
M  V30 444 C 44.7989 0.467521 1.53958 0
M  V30 445 O 45.9909 0.719826 1.61702 0
M  V30 446 C 43.1199 1.66937 2.99978 0
M  V30 447 C 42.2059 2.86847 3.12377 0
M  V30 448 N 42.5969 4.11078 2.94701 0
M  V30 449 C 40.8949 2.84521 3.43459 0
M  V30 450 C 41.5959 4.91615 3.10949 0
M  V30 451 N 40.5719 4.24739 3.3926 0
M  V30 452 H 44.3739 2.54909 1.46282 0
M  V30 453 H 41.8879 1.45593 0.719483 0
M  V30 454 H 43.8849 1.73725 3.78979 0
M  V30 455 H 42.5449 0.742831 3.16089 0
M  V30 456 H 43.5559 4.41258 2.71131 0
M  V30 457 H 40.2329 2.01192 3.65825 0
M  V30 458 H 41.6229 6.00264 3.01882 0
M  V30 459 N 44.343 -0.763751 1.37857 0
M  V30 460 C 45.592 -1.51789 1.32827 0
M  V30 461 C 45.905 -1.95426 -0.0823719 0
M  V30 462 O 47.111 -2.70298 -0.255172 0
M  V30 463 C 45.567 -2.74133 2.33193 0
M  V30 464 C 45.175 -2.37562 3.79827 0
M  V30 465 C 46.919 -3.52054 2.37188 0
M  V30 466 C 44.826 -3.56456 4.71904 0
M  V30 467 H 43.756 -0.569896 0.493695 0
M  V30 468 H 46.407 -0.835822 1.63359 0
M  V30 469 H 44.789 -3.4427 1.9569 0
M  V30 470 H 45.963 -1.75157 4.26212 0
M  V30 471 H 44.278 -1.72798 3.78853 0
M  V30 472 H 46.875 -4.40437 3.03182 0
M  V30 473 H 47.218 -3.92486 1.38782 0
M  V30 474 H 47.751 -2.88921 2.7344 0
M  V30 475 H 44.49 -3.21099 5.71468 0
M  V30 476 H 44.01 -4.17938 4.30218 0
M  V30 477 H 45.689 -4.23168 4.89426 0
M  V30 478 N 45.8211 -1.22559 -0.990812 0
M  V30 479 C 46.7511 -1.0218 -2.09956 0
M  V30 480 C 47.7321 0.0579394 -1.70001 0
M  V30 481 O 48.9171 -0.104684 -1.93918 0
M  V30 482 C 46.0471 -0.601023 -3.4206 0
M  V30 483 C 45.0011 -1.62694 -3.95872 0
M  V30 484 C 44.3271 -1.06193 -5.24049 0
M  V30 485 C 45.6271 -3.01743 -4.2632 0
M  V30 486 H 47.3211 -1.94916 -2.27262 0
M  V30 487 H 44.8671 -0.938566 -1.09211 0
M  V30 488 H 46.8201 -0.445561 -4.19038 0
M  V30 489 H 45.5441 0.362005 -3.24588 0
M  V30 490 H 44.2031 -1.77021 -3.21028 0
M  V30 491 H 43.8511 -0.0901903 -5.02919 0
M  V30 492 H 43.5511 -1.74732 -5.61019 0
M  V30 493 H 45.0751 -0.918092 -6.03658 0
M  V30 494 H 46.4891 -2.90777 -4.94087 0
M  V30 495 H 44.8861 -3.67425 -4.74467 0
M  V30 496 H 45.9561 -3.51518 -3.34011 0
M  V30 497 N 47.2992 1.18797 -1.03562 0
M  V30 498 C 48.2092 2.25913 -0.632505 0
M  V30 499 C 49.2252 1.70668 0.338882 0
M  V30 500 O 50.4012 2.00453 0.195076 0
M  V30 501 C 47.4662 3.467 0.00350942 0
M  V30 502 C 46.5272 4.17098 -1.01624 0
M  V30 503 C 45.7602 5.32119 -0.410478 0
M  V30 504 O 45.9832 5.64976 0.784725 0
M  V30 505 O 44.9172 5.9107 -1.13667 0
M  V30 506 H 48.7432 2.62648 -1.52478 0
M  V30 507 H 46.3282 1.25781 -0.806195 0
M  V30 508 H 48.2102 4.19878 0.35781 0
M  V30 509 H 46.8852 3.11798 0.869686 0
M  V30 510 H 45.7922 3.4601 -1.42224 0
M  V30 511 H 47.1252 4.55987 -1.85301 0
M  V30 512 N 48.7773 0.814389 1.34928 0
M  V30 513 C 50.1933 0.499084 1.51596 0
M  V30 514 C 50.3933 -0.978319 1.76157 0
M  V30 515 O 49.4493 -1.76309 1.80752 0
M  V30 516 C 50.7623 1.35121 2.68631 0
M  V30 517 C 52.3103 1.34746 2.82511 0
M  V30 518 C 52.7853 2.18388 4.0258 0
M  V30 519 N 54.2763 2.15966 4.09772 0
M  V30 520 C 55.0113 2.77437 5.01813 0
M  V30 521 N 54.5073 3.47866 5.99134 0
M  V30 522 N 56.3003 2.67037 4.94619 0
M  V30 523 H 48.4513 1.7711 1.17243 0
M  V30 524 H 50.7143 0.754256 0.574284 0
M  V30 525 H 50.4203 2.40001 2.57085 0
M  V30 526 H 50.2943 1.00991 3.63429 0
M  V30 527 H 52.6813 0.30648 2.93504 0
M  V30 528 H 52.7623 1.72869 1.88547 0
M  V30 529 H 52.4063 3.2253 3.92347 0
M  V30 530 H 52.3363 1.77621 4.9574 0
M  V30 531 H 54.8273 1.64729 3.40107 0
M  V30 532 H 55.1403 3.92038 6.65977 0
M  V30 533 H 53.4853 3.51972 5.99284 0
M  V30 534 H 56.6763 2.11597 4.17546 0
M  V30 535 H 56.8493 3.15232 5.66156 0
M  V30 536 N 50.2554 -1.46986 0.568584 0
M  V30 537 C 51.5014 -2.02741 0.0488709 0
M  V30 538 C 51.8344 -1.44077 -1.30214 0
M  V30 539 O 51.1094 -0.600552 -1.84996 0
M  V30 540 C 51.3924 -3.60086 -0.032047 0
M  V30 541 C 51.2454 -4.29162 1.34686 0
M  V30 542 C 52.5644 -4.33838 -0.739798 0
M  V30 543 H 49.6834 -0.736749 0.0192338 0
M  V30 544 H 52.3254 -1.75289 0.733065 0
M  V30 545 H 50.4754 -3.83606 -0.61473 0
M  V30 546 H 52.1474 -4.16948 1.97362 0
M  V30 547 H 50.3904 -3.89073 1.91846 0
M  V30 548 H 51.0614 -5.37826 1.24285 0
M  V30 549 H 53.5374 -4.15378 -0.244939 0
M  V30 550 H 52.4134 -5.43537 -0.765406 0
M  V30 551 H 52.6744 -4.03875 -1.79827 0
M  V30 552 N 51.7335 -0.305618 -1.54608 0
M  V30 553 C 52.6435 0.57778 -2.27374 0
M  V30 554 C 53.6595 1.14451 -1.31061 0
M  V30 555 O 54.8355 1.16831 -1.6405 0
M  V30 556 C 51.9005 1.73123 -3.00382 0
M  V30 557 C 50.9615 1.19812 -4.12242 0
M  V30 558 C 50.1945 2.2966 -4.81759 0
M  V30 559 O 50.4175 3.49651 -4.50666 0
M  V30 560 O 49.3515 1.96091 -5.69062 0
M  V30 561 H 53.1775 -0.012624 -3.03697 0
M  V30 562 H 50.7625 -0.0719184 -1.49227 0
M  V30 563 H 52.6445 2.40315 -3.4616 0
M  V30 564 H 51.3195 2.30815 -2.26949 0
M  V30 565 H 50.2265 0.491798 -3.70853 0
M  V30 566 H 51.5595 0.666566 -4.87666 0
M  V30 567 N 53.2116 1.57565 -0.0334293 0
M  V30 568 C 54.4396 1.9628 0.654347 0
M  V30 569 C 54.8546 0.910138 1.65414 0
M  V30 570 O 54.2116 -0.107595 1.82183 0
M  V30 571 C 54.2626 3.35067 1.35693 0
M  V30 572 O 53.9836 4.36296 0.397191 0
M  V30 573 C 55.4846 3.88439 2.13613 0
M  V30 574 H 52.7046 0.646369 0.180132 0
M  V30 575 H 55.2486 2.04282 -0.0944721 0
M  V30 576 H 53.4036 3.2827 2.05712 0
M  V30 577 H 53.8176 5.1678 0.896597 0
M  V30 578 H 55.2916 4.8788 2.58219 0
M  V30 579 H 55.7686 3.22914 2.97696 0
M  V30 580 H 56.3746 3.98516 1.48543 0
M  V30 581 N 54.6897 -0.239769 1.55765 0
M  V30 582 C 55.9387 -0.964754 1.77131 0
M  V30 583 C 56.2517 -1.86213 0.59868 0
M  V30 584 O 57.4577 -2.6244 0.695522 0
M  V30 585 C 55.9137 -1.76552 3.1362 0
M  V30 586 C 55.5217 -0.915185 4.38553 0
M  V30 587 C 57.2657 -2.48281 3.44321 0
M  V30 588 C 55.1727 -1.71225 5.66071 0
M  V30 589 H 54.1027 -0.363953 0.660344 0
M  V30 590 H 56.7537 -0.219181 1.82186 0
M  V30 591 H 55.1357 -2.55331 3.02691 0
M  V30 592 H 56.3097 -0.169217 4.60489 0
M  V30 593 H 54.6247 -0.310889 4.15238 0
M  V30 594 H 57.2217 -3.08382 4.36812 0
M  V30 595 H 57.5647 -3.20256 2.65973 0
M  V30 596 H 58.0977 -1.76507 3.56497 0
M  V30 597 H 54.8367 -1.03612 6.4726 0
M  V30 598 H 54.3567 -2.43331 5.48224 0
M  V30 599 H 56.0357 -2.27758 6.05587 0
M  V30 600 N 56.1678 -1.49265 -0.50573 0
M  V30 601 C 57.5838 -1.35923 -0.836486 0
M  V30 602 C 57.7838 -0.388704 -1.97715 0
M  V30 603 O 56.8398 0.181336 -2.51848 0
M  V30 604 C 58.1528 -2.76531 -1.18115 0
M  V30 605 C 59.7008 -2.85197 -1.28964 0
M  V30 606 C 60.1758 -4.26561 -1.66761 0
M  V30 607 N 61.6668 -4.2935 -1.73819 0
M  V30 608 C 62.4018 -5.35693 -2.045 0
M  V30 609 N 61.8978 -6.52287 -2.33438 0
M  V30 610 N 63.6908 -5.23105 -2.05711 0
M  V30 611 H 55.8418 -2.10965 0.246519 0
M  V30 612 H 58.1048 -0.9468 0.0476887 0
M  V30 613 H 57.8108 -3.49226 -0.416398 0
M  V30 614 H 57.6848 -3.11599 -2.1257 0
M  V30 615 H 60.0718 -2.12742 -2.04511 0
M  V30 616 H 60.1528 -2.53718 -0.325704 0
M  V30 617 H 59.7968 -4.99541 -0.917656 0
M  V30 618 H 59.7268 -4.55502 -2.64246 0
M  V30 619 H 62.2178 -3.4526 -1.53635 0
M  V30 620 H 62.5308 -7.29158 -2.56024 0
M  V30 621 H 60.8758 -6.55521 -2.30905 0
M  V30 622 H 64.0668 -4.31026 -1.82577 0
M  V30 623 H 64.2398 -6.06078 -2.29289 0
M  V30 624 N 57.6459 0.756429 -1.3826 0
M  V30 625 C 58.5929 1.87011 -1.35261 0
M  V30 626 C 59.5629 1.64695 -0.215616 0
M  V30 627 O 60.7479 1.864 -0.407399 0
M  V30 628 C 57.8879 3.24275 -1.18068 0
M  V30 629 C 57.0009 3.58442 -2.41129 0
M  V30 630 C 56.1359 4.84994 -2.16689 0
M  V30 631 C 55.1749 5.11939 -3.35537 0
M  V30 632 N 54.3119 6.29685 -3.10549 0
M  V30 633 H 59.1519 1.8891 -2.30472 0
M  V30 634 H 56.6889 0.923373 -1.14509 0
M  V30 635 H 58.6469 4.03479 -1.06116 0
M  V30 636 H 57.2769 3.21711 -0.264973 0
M  V30 637 H 56.3289 2.74103 -2.63764 0
M  V30 638 H 57.6409 3.74283 -3.29717 0
M  V30 639 H 56.7949 5.72135 -2.01857 0
M  V30 640 H 55.5339 4.71286 -1.25462 0
M  V30 641 H 54.5389 4.23268 -3.50891 0
M  V30 642 H 55.7639 5.27546 -4.27635 0
M  V30 643 H 53.7099 6.17306 -2.21967 0
M  V30 644 H 53.6269 6.46014 -3.92686 0
M  V30 645 H 54.8949 7.19722 -2.99367 0
M  V30 646 N 59.124 1.23083 0.984299 0
M  V30 647 C 60.054 1.03292 2.09411 0
M  V30 648 C 61.035 -0.048923 1.7003 0
M  V30 649 O 62.22 0.114967 1.93859 0
M  V30 650 C 59.35 0.619155 3.41736 0
M  V30 651 C 58.304 1.64791 3.95004 0
M  V30 652 C 57.63 1.0897 5.23478 0
M  V30 653 C 58.93 3.03999 4.24714 0
M  V30 654 H 60.624 1.96119 2.26225 0
M  V30 655 H 58.17 0.944344 1.08711 0
M  V30 656 H 60.123 0.467777 4.18796 0
M  V30 657 H 58.847 -0.344786 3.24775 0
M  V30 658 H 57.506 1.78721 3.20085 0
M  V30 659 H 57.154 0.11686 5.02864 0
M  V30 660 H 56.854 1.77704 5.60085 0
M  V30 661 H 58.378 0.950093 6.03163 0
M  V30 662 H 59.792 2.93393 4.92538 0
M  V30 663 H 58.189 3.69936 4.72512 0
M  V30 664 H 59.259 3.53285 3.32142 0
M  V30 665 N 60.6021 -1.18246 1.0419 0
M  V30 666 C 61.8271 -1.92736 0.765996 0
M  V30 667 C 62.2521 -1.75728 -0.67091 0
M  V30 668 O 61.6101 -1.06825 -1.46486 0
M  V30 669 C 61.6581 -3.42148 1.13875 0
M  V30 670 O 60.7621 -4.11548 0.264954 0
M  V30 671 H 60.1031 -0.601238 0.281797 0
M  V30 672 H 62.6331 -1.49942 1.39207 0
M  V30 673 H 62.6431 -3.92858 1.1012 0
M  V30 674 H 61.3181 -3.53848 2.18551 0
M  V30 675 H 59.8951 -3.71137 0.362226 0
M  V30 676 N 62.0802 -0.821533 -1.34494 0
M  V30 677 C 63.0272 -0.240397 -2.29545 0
M  V30 678 C 63.9972 0.634031 -1.53523 0
M  V30 679 O 65.1822 0.575966 -1.81899 0
M  V30 680 C 62.3222 0.592869 -3.39969 0
M  V30 681 C 61.4352 -0.30365 -4.30932 0
M  V30 682 C 60.5702 0.539049 -5.28458 0
M  V30 683 C 59.6092 -0.356942 -6.11058 0
M  V30 684 N 58.7462 0.446603 -7.00678 0
M  V30 685 H 63.5862 -1.05632 -2.7865 0
M  V30 686 H 61.1232 -0.532413 -1.37127 0
M  V30 687 H 63.0812 1.09129 -4.02675 0
M  V30 688 H 61.7112 1.37392 -2.92102 0
M  V30 689 H 60.7632 -0.920276 -3.691 0
M  V30 690 H 62.0752 -0.992661 -4.88823 0
M  V30 691 H 61.2292 1.102 -5.96608 0
M  V30 692 H 59.9682 1.26157 -4.71101 0
M  V30 693 H 58.9732 -0.932047 -5.41842 0
M  V30 694 H 60.1982 -1.07755 -6.70497 0
M  V30 695 H 58.1442 1.15282 -6.45791 0
M  V30 696 H 58.0612 -0.184048 -7.55776 0
M  V30 697 H 59.3292 0.992352 -7.73158 0
M  V30 698 N 63.5583 1.46682 -0.576371 0
M  V30 699 C 64.7833 2.07304 -0.0630475 0
M  V30 700 C 65.2083 1.42329 1.2298 0
M  V30 701 O 64.5663 0.504865 1.74129 0
M  V30 702 C 64.6143 3.60472 0.095895 0
M  V30 703 O 63.7183 3.95927 1.15394 0
M  V30 704 H 63.0593 0.661288 -0.0599463 0
M  V30 705 H 65.5893 1.88417 -0.797511 0
M  V30 706 H 65.5993 4.06865 0.304071 0
M  V30 707 H 64.2743 4.07157 -0.84828 0
M  V30 708 H 62.8513 3.61252 0.924724 0
M  V30 709 N 65.0364 0.313813 1.54444 0
M  V30 710 C 66.2614 -0.296681 2.05267 0
M  V30 711 C 66.6864 -1.45757 1.18897 0
M  V30 712 O 66.0444 -1.80239 0.195886 0
M  V30 713 C 66.0924 -0.71831 3.53373 0
M  V30 714 O 65.1964 -1.82175 3.69981 0
M  V30 715 H 64.5374 -0.0554061 0.661684 0
M  V30 716 H 67.0674 0.459387 1.99376 0
M  V30 717 H 67.0774 -1.00364 3.95463 0
M  V30 718 H 65.7524 0.130821 4.15694 0
M  V30 719 H 64.3294 -1.53598 3.39797 0
M  V30 720 N 66.5145 -1.57545 0.0417849 0
M  V30 721 C 67.9305 -1.56467 -0.314704 0
M  V30 722 C 68.1305 -1.04859 -1.72066 0
M  V30 723 O 67.1865 -0.700983 -2.42575 0
M  V30 724 C 68.4995 -3.00317 -0.15174 0
M  V30 725 C 70.0475 -3.12201 -0.223553 0
M  V30 726 C 70.5225 -4.57913 -0.0892295 0
M  V30 727 N 72.0135 -4.6297 -0.145808 0
M  V30 728 C 72.7485 -5.73362 -0.0658459 0
M  V30 729 N 72.2445 -6.92769 0.0659282 0
M  V30 730 N 74.0375 -5.6197 -0.12075 0
M  V30 731 H 66.1885 -1.89416 0.961014 0
M  V30 732 H 68.4515 -0.871862 0.372237 0
M  V30 733 H 68.1575 -3.42073 0.817254 0
M  V30 734 H 68.0315 -3.65892 -0.916692 0
M  V30 735 H 70.4185 -2.70349 -1.18301 0
M  V30 736 H 70.4995 -2.49323 0.571994 0
M  V30 737 H 70.1435 -5.00448 0.866867 0
M  V30 738 H 70.0735 -5.18786 -0.903802 0
M  V30 739 H 72.5645 -3.7709 -0.247286 0
M  V30 740 H 72.8775 -7.72707 0.119905 0
M  V30 741 H 71.2225 -6.94927 0.100885 0
M  V30 742 H 74.4135 -4.67572 -0.222187 0
M  V30 743 H 74.5865 -6.47977 -0.0549735 0
M  V30 744 N 67.9926 0.231505 -1.5589 0
M  V30 745 C 68.9556 1.27028 -1.90779 0
M  V30 746 C 69.9556 1.40308 -0.785507 0
M  V30 747 O 71.1456 1.38744 -1.05336 0
M  V30 748 C 68.2776 2.64566 -2.14983 0
M  V30 749 H 69.4706 0.973017 -2.83677 0
M  V30 750 H 67.0236 0.471486 -1.49019 0
M  V30 751 H 67.7586 2.99406 -1.24604 0
M  V30 752 H 67.5436 2.56305 -2.96732 0
M  V30 753 H 69.0336 3.39543 -2.43105 0
M  V30 754 N 69.4707 1.49531 0.497807 0
M  V30 755 C 70.7187 1.58865 1.24926 0
M  V30 756 C 71.0397 0.278721 1.92998 0
M  V30 757 O 70.3097 -0.702144 1.82885 0
M  V30 758 H 68.8897 0.585343 0.464094 0
M  V30 759 H 71.5517 1.86174 0.57666 0
M  V30 760 H 70.6477 2.38633 2.01149 0
M  V30 761 N 70.9488 -0.749086 1.3866 0
M  V30 762 C 71.8968 -1.88428 1.36373 0
M  V30 763 C 72.8908 -1.67561 0.248929 0
M  V30 764 O 74.0968 -1.75074 0.41821 0
M  V30 765 H 70.4718 -0.620023 0.42553 0
M  V30 766 H 72.4428 -1.87473 2.32156 0
M  V30 767 C 71.1918 -3.25961 1.21014 0
M  V30 768 H 70.5148 -3.42607 2.06059 0
M  V30 769 H 71.9548 -4.05625 1.23469 0
M  V30 770 C 70.4138 -3.36799 -0.0825941 0
M  V30 771 O 70.9438 -3.87517 -1.05797 0
M  V30 772 N 69.1498 -2.90258 -0.140939 0
M  V30 773 H 68.6968 -2.49174 0.653477 0
M  V30 774 H 68.6548 -2.97889 -1.00545 0
M  V30 775 N 72.4269 -1.23603 -0.977757 0
M  V30 776 C 73.7039 -0.977897 -1.69401 0
M  V30 777 C 74.0839 0.502738 -2.05026 0
M  V30 778 O 73.4319 1.47459 -1.74551 0
M  V30 779 C 73.6419 -1.89077 -2.93345 0
M  V30 780 C 74.9899 -2.15579 -3.65802 0
M  V30 781 O 76.0139 -1.86648 -3.03383 0
M  V30 782 O 74.8729 -2.64658 -4.78141 0
M  V30 783 H 71.9669 -0.369025 -0.740101 0
M  V30 784 H 74.5129 -1.34657 -1.03274 0
M  V30 785 H 73.2849 -2.89158 -2.63634 0
M  V30 786 H 72.9079 -1.52463 -3.67207 0
M  V30 787 N 73.905 1.17692 -1.04816 0
M  V30 788 C 74.868 2.19787 -0.650117 0
M  V30 789 C 75.868 1.58044 0.296427 0
M  V30 790 O 77.058 1.74012 0.0808097 0
M  V30 791 C 74.19 3.40869 0.0456987 0
M  V30 792 H 75.383 2.56516 -1.5537 0
M  V30 793 H 72.936 1.31708 -0.841594 0
M  V30 794 H 73.671 3.09681 0.962726 0
M  V30 795 H 73.456 3.86928 -0.634727 0
M  V30 796 H 74.946 4.16445 0.310432 0
M  V30 797 N 75.3831 0.828654 1.34056 0
M  V30 798 C 76.3311 0.242973 2.31327 0
M  V30 799 C 77.3251 -0.61944 1.57668 0
M  V30 800 O 78.5311 -0.51014 1.7262 0
M  V30 801 H 74.9061 0.059834 0.749616 0
M  V30 802 H 76.8771 1.07809 2.78244 0
M  V30 803 C 75.6261 -0.575733 3.429 0
M  V30 804 H 74.9491 0.0785582 3.99723 0
M  V30 805 H 76.3891 -0.951547 4.13185 0
M  V30 806 C 74.8481 -1.75044 2.87856 0
M  V30 807 O 75.3781 -2.84882 2.83205 0
M  V30 808 N 73.5841 -1.56903 2.44602 0
M  V30 809 H 73.1311 -0.675547 2.48584 0
M  V30 810 H 73.0891 -2.35652 2.08124 0
M  V30 811 N 76.8612 -1.46375 0.584142 0
M  V30 812 C 78.2772 -1.57694 0.245929 0
M  V30 813 C 78.4772 -1.57903 -1.25175 0
M  V30 814 O 77.5332 -1.49676 -2.03355 0
M  V30 815 C 78.8462 -2.87028 0.896402 0
M  V30 816 C 80.3942 -3.00662 0.870127 0
M  V30 817 C 80.8692 -4.32734 1.50017 0
M  V30 818 N 82.3602 -4.39436 1.46458 0
M  V30 819 C 83.0952 -5.40248 1.92144 0
M  V30 820 N 82.5912 -6.47726 2.4581 0
M  V30 821 N 84.3842 -5.31459 1.83052 0
M  V30 822 H 76.5352 -1.44483 1.55687 0
M  V30 823 H 78.7982 -0.689291 0.650831 0
M  V30 824 H 78.5042 -2.9269 1.95002 0
M  V30 825 H 78.3782 -3.75014 0.405486 0
M  V30 826 H 80.7652 -2.94581 -0.174871 0
M  V30 827 H 80.8462 -2.14148 1.39908 0
M  V30 828 H 80.4902 -4.39573 2.54437 0
M  V30 829 H 80.4202 -5.18025 0.946432 0
M  V30 830 H 82.9112 -3.62367 1.07231 0
M  V30 831 H 83.2242 -7.20863 2.78525 0
M  V30 832 H 81.5692 -6.48542 2.49836 0
M  V30 833 H 84.7602 -4.46396 1.40883 0
M  V30 834 H 84.9332 -6.09881 2.18973 0
M  V30 835 N 78.3393 -0.321999 -1.54275 0
M  V30 836 C 79.2713 0.578671 -2.21775 0
M  V30 837 C 80.2843 1.08109 -1.21722 0
M  V30 838 O 81.4733 0.994938 -1.482 0
M  V30 839 C 78.5733 1.80661 -2.86731 0
M  V30 840 C 77.7463 1.44314 -4.12907 0
M  V30 841 C 76.8053 2.52845 -4.61472 0
M  V30 842 O 75.8313 2.17054 -5.2619 0
M  V30 843 N 77.0333 3.83748 -4.35566 0
M  V30 844 H 79.7983 0.000709447 -2.997 0
M  V30 845 H 77.3593 -0.145132 -1.61248 0
M  V30 846 H 79.3513 2.52655 -3.16145 0
M  V30 847 H 77.9213 2.29245 -2.12521 0
M  V30 848 H 77.1413 0.554906 -3.90275 0
M  V30 849 H 78.4293 1.17598 -4.95023 0
M  V30 850 H 77.8273 4.15625 -3.83761 0
M  V30 851 H 76.3843 4.51977 -4.69638 0
M  V30 852 N 79.8174 1.5752 -0.0501392 0
M  V30 853 C 80.7274 2.14952 0.939827 0
M  V30 854 C 81.7434 1.10706 1.34239 0
M  V30 855 O 82.9194 1.42869 1.41952 0
M  V30 856 C 79.9844 2.68232 2.19665 0
M  V30 857 C 79.0454 3.87272 1.85253 0
M  V30 858 C 78.2784 4.38002 3.04943 0
M  V30 859 O 78.5014 3.87811 4.18281 0
M  V30 860 O 77.4354 5.29602 2.86017 0
M  V30 861 H 81.2614 2.9986 0.481392 0
M  V30 862 H 78.8464 1.4841 0.171699 0
M  V30 863 H 80.7284 3.02475 2.93406 0
M  V30 864 H 79.4034 1.86395 2.64648 0
M  V30 865 H 78.3104 3.5792 1.0883 0
M  V30 866 H 79.6434 4.70336 1.4507 0
M  V30 867 N 81.2955 -0.223234 1.56011 0
M  V30 868 C 82.2255 -1.27988 1.95298 0
M  V30 869 C 83.2065 -1.48976 0.820979 0
M  V30 870 O 84.3915 -1.61188 1.08315 0
M  V30 871 C 81.5215 -2.63 2.26822 0
M  V30 872 C 80.4755 -2.56671 3.42497 0
M  V30 873 C 79.8015 -3.95697 3.59622 0
M  V30 874 C 81.1015 -2.11601 4.77517 0
M  V30 875 H 82.7955 -0.953525 2.8381 0
M  V30 876 H 80.3415 -0.457244 1.36548 0
M  V30 877 H 82.2945 -3.37077 2.52898 0
M  V30 878 H 81.0185 -2.9732 1.35161 0
M  V30 879 H 79.6775 -1.85051 3.16467 0
M  V30 880 H 79.3255 -4.27322 2.6534 0
M  V30 881 H 79.0255 -3.92345 4.37424 0
M  V30 882 H 80.5495 -4.71438 3.88044 0
M  V30 883 H 81.9635 -2.7542 5.02809 0
M  V30 884 H 80.3605 -2.19311 5.5859 0
M  V30 885 H 81.4305 -1.06824 4.72987 0
M  V30 886 N 82.7736 -1.49793 -0.48987 0
M  V30 887 C 83.7036 -1.70201 -1.59856 0
M  V30 888 C 84.6846 -0.55076 -1.60937 0
M  V30 889 O 85.8696 -0.787841 -1.77501 0
M  V30 890 C 82.9996 -1.77882 -2.98287 0
M  V30 891 C 81.9536 -2.92907 -3.12073 0
M  V30 892 C 81.2796 -2.85712 -4.51965 0
M  V30 893 C 82.5796 -4.3369 -2.91051 0
M  V30 894 H 84.2736 -2.63025 -1.43032 0
M  V30 895 H 81.8196 -1.26574 -0.686664 0
M  V30 896 H 83.7726 -1.90744 -3.75759 0
M  V30 897 H 82.4966 -0.816653 -3.16225 0
M  V30 898 H 81.1556 -2.79665 -2.37029 0
M  V30 899 H 80.8036 -1.8738 -4.66795 0
M  V30 900 H 80.5036 -3.62921 -4.62128 0
M  V30 901 H 82.0276 -3.00598 -5.31482 0
M  V30 902 H 83.4416 -4.47555 -3.58284 0
M  V30 903 H 81.8386 -5.12205 -3.12675 0
M  V30 904 H 82.9086 -4.47362 -1.87071 0
M  V30 905 N 84.2517 0.741722 -1.39055 0
M  V30 906 C 85.4797 1.53098 -1.39171 0
M  V30 907 C 85.8947 1.88794 0.0155099 0
M  V30 908 O 85.2517 1.53626 0.985159 0
M  V30 909 C 85.3027 2.82274 -2.2584 0
M  V30 910 O 85.0237 2.48097 -3.61081 0
M  V30 911 C 86.5247 3.76343 -2.34266 0
M  V30 912 H 83.7447 0.473335 -0.4756 0
M  V30 913 H 86.2887 0.917045 -1.82785 0
M  V30 914 H 84.4437 3.40015 -1.85656 0
M  V30 915 H 84.8577 3.31029 -4.06842 0
M  V30 916 H 86.3317 4.63898 -2.9917 0
M  V30 917 H 86.8087 4.17619 -1.35982 0
M  V30 918 H 87.4147 3.24523 -2.74891 0
M  V30 919 N 85.7298 1.2412 0.971189 0
M  V30 920 C 86.9578 1.10575 1.74874 0
M  V30 921 C 87.3728 -0.342017 1.85676 0
M  V30 922 O 86.7298 -1.23617 1.34258 0
M  V30 923 C 86.7808 1.73579 3.171 0
M  V30 924 O 86.5018 3.12695 3.06844 0
M  V30 925 C 88.0028 1.65598 4.11208 0
M  V30 926 H 85.2228 0.386504 0.548503 0
M  V30 927 H 87.7668 1.64156 1.21955 0
M  V30 928 H 85.9218 1.24009 3.67016 0
M  V30 929 H 86.3358 3.43412 3.96445 0
M  V30 930 H 87.8098 2.1437 5.08674 0
M  V30 931 H 88.2868 0.616532 4.34851 0
M  V30 932 H 88.8928 2.14578 3.67201 0
M  V30 933 N 87.2079 -1.17134 1.05439 0
M  V30 934 C 88.1379 -2.2342 0.678649 0
M  V30 935 C 89.1189 -1.66971 -0.32476 0
M  V30 936 O 90.3039 -1.93149 -0.201802 0
M  V30 937 C 87.4339 -3.47256 0.0552099 0
M  V30 938 C 86.3879 -4.16543 0.98365 0
M  V30 939 C 85.7139 -5.34231 0.223961 0
M  V30 940 C 87.0139 -4.68495 2.3089 0
M  V30 941 H 88.7079 -2.55105 1.56722 0
M  V30 942 H 86.2539 -1.2262 0.754998 0
M  V30 943 H 88.2069 -4.20828 -0.21946 0
M  V30 944 H 86.9309 -3.14846 -0.868319 0
M  V30 945 H 85.5899 -3.44887 1.24293 0
M  V30 946 H 85.2379 -4.98071 -0.702412 0
M  V30 947 H 84.9379 -5.81527 0.842627 0
M  V30 948 H 86.4619 -6.10585 -0.0433671 0
M  V30 949 H 87.8759 -5.33691 2.09396 0
M  V30 950 H 86.2729 -5.26379 2.88176 0
M  V30 951 H 87.3429 -3.85169 2.94572 0
M  V30 952 N 88.686 -0.835752 -1.33615 0
M  V30 953 C 89.618 -0.224151 -2.28101 0
M  V30 954 C 90.631 0.593331 -1.51603 0
M  V30 955 O 91.82 0.420911 -1.73466 0
M  V30 956 C 88.92 0.703309 -3.31522 0
M  V30 957 C 88.093 -0.0741528 -4.37337 0
M  V30 958 C 87.152 0.776176 -5.20444 0
M  V30 959 O 86.178 0.216506 -5.68788 0
M  V30 960 N 87.38 2.09401 -5.41416 0
M  V30 961 H 90.145 -1.03598 -2.81225 0
M  V30 962 H 87.706 -0.69392 -1.46275 0
M  V30 963 H 89.698 1.27707 -3.84022 0
M  V30 964 H 88.268 1.41585 -2.78698 0
M  V30 965 H 87.488 -0.82928 -3.85378 0
M  V30 966 H 88.776 -0.608863 -5.05144 0
M  V30 967 H 88.174 2.57229 -5.03835 0
M  V30 968 H 86.731 2.61633 -5.96985 0
M  V30 969 N 90.1641 1.46063 -0.591896 0
M  V30 970 C 91.1121 2.32124 0.148739 0
M  V30 971 C 92.1061 1.45035 0.875286 0
M  V30 972 O 93.3121 1.61609 0.792632 0
M  V30 973 H 89.6871 0.749024 0.066832 0
M  V30 974 H 91.6581 2.92392 -0.595783 0
M  V30 975 C 90.4071 3.28373 1.1431 0
M  V30 976 H 89.7301 3.95371 0.59346 0
M  V30 977 H 91.1701 3.91352 1.63155 0
M  V30 978 C 89.6291 2.54393 2.20875 0
M  V30 979 O 90.1591 2.31373 3.28374 0
M  V30 980 N 88.3651 2.14797 1.95731 0
M  V30 981 H 87.9121 2.33719 1.08319 0
M  V30 982 H 87.8701 1.65619 2.67241 0
M  V30 983 N 91.6422 0.330177 1.54103 0
M  V30 984 C 92.5722 -0.525353 2.27513 0
M  V30 985 C 93.5532 -1.11383 1.2856 0
M  V30 986 O 94.7382 -1.13773 1.57383 0
M  V30 987 C 91.8682 -1.6831 3.03791 0
M  V30 988 C 90.8222 -1.2236 4.10137 0
M  V30 989 C 90.1482 -2.46882 4.74293 0
M  V30 990 C 91.4482 -0.333697 5.21233 0
M  V30 991 H 93.1422 0.087013 2.99274 0
M  V30 992 H 90.6882 0.0432893 1.43935 0
M  V30 993 H 92.6412 -2.28795 3.5388 0
M  V30 994 H 91.3652 -2.32216 2.29659 0
M  V30 995 H 90.0242 -0.64165 3.60941 0
M  V30 996 H 89.6722 -3.09165 3.96769 0
M  V30 997 H 89.3722 -2.16825 5.46133 0
M  V30 998 H 90.8962 -3.08117 5.27159 0
M  V30 999 H 92.3102 -0.845013 5.67038 0
M  V30 1000 H 90.7072 -0.125612 5.99969 0
M  V30 1001 H 91.7772 0.633724 4.80741 0
M  V30 1002 N 93.1203 -1.57491 0.0584922 0
M  V30 1003 C 94.3453 -1.97711 -0.62652 0
M  V30 1004 C 94.7703 -0.936132 -1.63151 0
M  V30 1005 O 94.1283 0.099811 -1.81025 0
M  V30 1006 C 94.1763 -3.36989 -1.28338 0
M  V30 1007 O 93.2803 -3.35433 -2.39913 0
M  V30 1008 H 92.6213 -0.643868 -0.162266 0
M  V30 1009 H 95.1513 -2.04193 0.129064 0
M  V30 1010 H 95.1613 -3.73879 -1.63335 0
M  V30 1011 H 93.8363 -4.12289 -0.546889 0
M  V30 1012 H 92.4133 -3.10298 -2.06809 0
M  V30 1013 N 94.5984 0.214957 -1.56127 0
M  V30 1014 C 95.5464 1.28601 -1.93816 0
M  V30 1015 C 96.5404 1.48175 -0.821016 0
M  V30 1016 O 97.7464 1.49271 -1.0059 0
M  V30 1017 H 94.1214 0.431302 -0.616022 0
M  V30 1018 H 96.0924 0.940991 -2.83175 0
M  V30 1019 C 94.8414 2.62779 -2.27689 0
M  V30 1020 H 94.1644 2.48527 -3.13168 0
M  V30 1021 H 95.6044 3.36517 -2.57939 0
M  V30 1022 C 94.0634 3.18285 -1.10436 0
M  V30 1023 O 94.5934 4.00002 -0.368945 0
M  V30 1024 N 92.7994 2.7675 -0.886433 0
M  V30 1025 H 92.3464 2.10404 -1.48619 0
M  V30 1026 H 92.3044 3.14229 -0.103656 0
M  V30 1027 N 96.0765 1.50051 0.48192 0
M  V30 1028 C 97.3535 1.51009 1.2432 0
M  V30 1029 C 97.7335 0.248587 2.09631 0
M  V30 1030 O 97.0815 -0.768409 2.15192 0
M  V30 1031 C 97.2915 2.79981 2.08355 0
M  V30 1032 C 98.6395 3.3022 2.66908 0
M  V30 1033 O 99.6635 2.81228 2.18607 0
M  V30 1034 O 98.5225 4.15595 3.54884 0
M  V30 1035 H 95.6165 0.605239 0.563573 0
M  V30 1036 H 98.1625 1.62332 0.494627 0
M  V30 1037 H 96.9345 3.63275 1.45419 0
M  V30 1038 H 96.5575 2.7161 2.90368 0
M  V30 1039 N 97.5546 -0.734337 1.39446 0
M  V30 1040 C 98.4646 -1.87879 1.40495 0
M  V30 1041 C 99.4806 -1.714 0.299672 0
M  V30 1042 O 100.657 -1.93991 0.541249 0
M  V30 1043 C 97.7216 -3.23477 1.24754 0
M  V30 1044 C 96.7826 -3.52344 2.45259 0
M  V30 1045 C 96.0156 -4.81473 2.30259 0
M  V30 1046 O 96.2386 -5.55237 1.30643 0
M  V30 1047 O 95.1726 -5.10254 3.19256 0
M  V30 1048 H 98.9986 -1.89949 2.36966 0
M  V30 1049 H 96.5836 -0.882243 1.20569 0
M  V30 1050 H 98.4656 -4.04509 1.18111 0
M  V30 1051 H 97.1406 -3.22176 0.313781 0
M  V30 1052 H 96.0476 -2.71396 2.57478 0
M  V30 1053 H 97.3806 -3.58426 3.37331 0
M  V30 1054 N 99.0327 -1.24633 -0.964593 0
M  V30 1055 C 99.9627 -1.06611 -2.07741 0
M  V30 1056 C 100.944 0.0218666 -1.70086 0
M  V30 1057 O 102.129 -0.145793 -1.93652 0
M  V30 1058 C 99.2587 -0.673444 -3.40708 0
M  V30 1059 C 98.2127 -1.71054 -3.92332 0
M  V30 1060 C 97.5387 -1.17285 -5.21678 0
M  V30 1061 C 98.8387 -3.10718 -4.19824 0
M  V30 1062 H 100.533 -1.99693 -2.23076 0
M  V30 1063 H 98.0787 -0.96152 -1.07195 0
M  V30 1064 H 100.032 -0.534345 -4.17998 0
M  V30 1065 H 98.7557 0.293073 -3.25282 0
M  V30 1066 H 97.4147 -1.83791 -3.17201 0
M  V30 1067 H 97.0627 -0.196847 -5.02615 0
M  V30 1068 H 96.7627 -1.86592 -5.57187 0
M  V30 1069 H 98.2867 -1.04593 -6.01575 0
M  V30 1070 H 99.7007 -3.01192 -4.87808 0
M  V30 1071 H 98.0977 -3.77406 -4.66567 0
M  V30 1072 H 99.1677 -3.58524 -3.26479 0
M  V30 1073 N 100.511 1.16574 -1.06058 0
M  V30 1074 C 101.441 2.23057 -0.690488 0
M  V30 1075 C 102.422 1.67141 0.315901 0
M  V30 1076 O 103.607 1.93253 0.191556 0
M  V30 1077 C 100.737 3.47222 -0.073625 0
M  V30 1078 C 99.6908 4.16016 -1.00573 0
M  V30 1079 C 99.0168 5.34104 -0.252289 0
M  V30 1080 C 100.317 4.67264 -2.33371 0
M  V30 1081 H 102.011 2.54271 -1.58072 0
M  V30 1082 H 99.5568 1.22218 -0.76149 0
M  V30 1083 H 101.51 4.20939 0.19714 0
M  V30 1084 H 100.234 3.15302 0.85161 0
M  V30 1085 H 98.8928 3.44223 -1.2612 0
M  V30 1086 H 98.5408 4.98437 0.675988 0
M  V30 1087 H 98.2408 5.81072 -0.873455 0
M  V30 1088 H 99.7648 6.10599 0.0109857 0
M  V30 1089 H 101.179 5.32573 -2.12223 0
M  V30 1090 H 99.5758 5.24843 -2.90963 0
M  V30 1091 H 100.646 3.83602 -2.96611 0
M  V30 1092 N 101.989 0.842826 1.3317 0
M  V30 1093 C 103.4 0.496651 1.79973 0
M  V30 1094 C 103.751 -0.984641 1.69703 0
M  V30 1095 O 102.876 -1.76743 1.24863 0
M  V30 1096 C 103.471 0.894727 3.26772 0
M  V30 1097 C 102.03 0.600629 3.71577 0
M  V30 1098 C 101.177 1.10091 2.5451 0
M  V30 1099 H 104.128 1.03116 1.20635 0
M  V30 1100 H 104.149 0.206347 3.7994 0
M  V30 1101 H 103.661 1.97287 3.34215 0
M  V30 1102 H 101.762 -0.467284 3.69658 0
M  V30 1103 H 101.875 1.15863 4.64879 0
M  V30 1104 H 100.239 0.52162 2.49301 0
M  V30 1105 H 101.022 2.18591 2.64713 0
M  V30 1106 N 103.467 -1.45747 0.599634 0
M  V30 1107 C 104.713 -2.02592 0.0918643 0
M  V30 1108 C 105.046 -1.46806 -1.27128 0
M  V30 1109 O 104.321 -0.639658 -1.83681 0
M  V30 1110 C 104.604 -3.60073 0.0443398 0
M  V30 1111 C 104.457 -4.26208 1.43759 0
M  V30 1112 C 105.776 -4.35309 -0.647608 0
M  V30 1113 H 102.895 -0.736175 0.034857 0
M  V30 1114 H 105.537 -1.73694 0.770081 0
M  V30 1115 H 103.687 -3.84823 -0.533224 0
M  V30 1116 H 105.359 -4.12668 2.06162 0
M  V30 1117 H 103.602 -3.84916 2.00056 0
M  V30 1118 H 104.273 -5.35069 1.35665 0
M  V30 1119 H 106.749 -4.15805 -0.156776 0
M  V30 1120 H 105.625 -5.45038 -0.649942 0
M  V30 1121 H 105.886 -4.07598 -1.71219 0
M  V30 1122 N 104.945 -0.338344 -1.53925 0
M  V30 1123 C 105.908 0.508299 -2.23493 0
M  V30 1124 C 106.908 1.03175 -1.23335 0
M  V30 1125 O 108.098 0.921826 -1.47811 0
M  V30 1126 C 105.23 1.70754 -2.95052 0
M  V30 1127 H 106.423 -0.100058 -2.99733 0
M  V30 1128 H 103.976 -0.0896198 -1.56043 0
M  V30 1129 H 104.711 2.35474 -2.22986 0
M  V30 1130 H 104.496 1.33946 -3.68512 0
M  V30 1131 H 105.986 2.30818 -3.48013 0
M  V30 1132 N 106.423 1.57458 -0.0668435 0
M  V30 1133 C 107.839 1.56947 0.289772 0
M  V30 1134 C 108.039 1.07584 1.70376 0
M  V30 1135 O 107.095 0.739486 2.41429 0
M  V30 1136 C 108.408 3.0052 0.103943 0
M  V30 1137 C 109.956 3.12517 0.173857 0
M  V30 1138 C 110.431 4.57997 0.0163682 0
M  V30 1139 N 111.922 4.63144 0.0721352 0
M  V30 1140 C 112.657 5.73394 -0.0253794 0
M  V30 1141 N 112.153 6.92576 -0.176133 0
M  V30 1142 N 113.946 5.62091 0.0313305 0
M  V30 1143 H 106.097 1.87863 -0.991027 0
M  V30 1144 H 108.36 0.86583 -0.38606 0
M  V30 1145 H 108.066 3.40729 -0.871572 0
M  V30 1146 H 107.94 3.67304 0.858366 0
M  V30 1147 H 110.327 2.72197 1.13985 0
M  V30 1148 H 110.408 2.48381 -0.611586 0
M  V30 1149 H 110.052 4.99005 -0.946374 0
M  V30 1150 H 109.982 5.20158 0.821153 0
M  V30 1151 H 112.473 3.77436 0.187263 0
M  V30 1152 H 112.786 7.72418 -0.242821 0
M  V30 1153 H 111.131 6.94678 -0.211429 0
M  V30 1154 H 114.322 4.67867 0.147773 0
M  V30 1155 H 114.495 6.47982 -0.048121 0
M  V30 1156 N 107.901 -0.206675 1.56239 0
M  V30 1157 C 108.864 -1.23976 1.92776 0
M  V30 1158 C 109.864 -1.39041 0.807729 0
M  V30 1159 O 111.054 -1.37051 1.0753 0
M  V30 1160 C 108.186 -2.61112 2.19165 0
M  V30 1161 H 109.379 -0.927764 2.85189 0
M  V30 1162 H 106.932 -0.447718 1.4975 0
M  V30 1163 H 107.667 -2.97386 1.29352 0
M  V30 1164 H 107.452 -2.51552 3.00772 0
M  V30 1165 H 108.942 -3.35633 2.48476 0
M  V30 1166 N 109.379 -1.50304 -0.473955 0
M  V30 1167 C 110.626 -1.6115 -1.22625 0
M  V30 1168 C 110.954 -0.310517 -1.92005 0
M  V30 1169 O 110.209 0.703419 -1.82621 0
M  V30 1170 C 110.508 -2.73938 -2.29549 0
M  V30 1171 C 110.174 -4.14519 -1.7744 0
M  V30 1172 C 108.836 -4.5277 -1.62949 0
M  V30 1173 C 111.188 -5.02392 -1.3875 0
M  V30 1174 C 108.516 -5.76639 -1.08187 0
M  V30 1175 C 110.868 -6.26805 -0.854309 0
M  V30 1176 C 109.532 -6.63861 -0.696011 0
M  V30 1177 H 108.802 -0.589691 -0.448715 0
M  V30 1178 H 111.449 -1.84228 -0.522705 0
M  V30 1179 H 109.754 -2.44937 -3.05799 0
M  V30 1180 H 111.451 -2.79534 -2.87509 0
M  V30 1181 H 108.041 -3.8434 -1.89685 0
M  V30 1182 H 112.225 -4.73474 -1.4878 0
M  V30 1183 H 107.481 -6.04027 -0.946666 0
M  V30 1184 H 111.655 -6.94258 -0.545843 0
M  V30 1185 H 109.282 -7.59722 -0.26952 0
M  V30 1186 N 110.857 0.726932 -1.39834 0
M  V30 1187 C 112.082 1.52121 -1.40976 0
M  V30 1188 C 112.507 1.88098 -0.00826029 0
M  V30 1189 O 111.865 1.52479 0.980807 0
M  V30 1190 C 111.913 2.78021 -2.29644 0
M  V30 1191 O 111.017 3.74272 -1.73188 0
M  V30 1192 H 110.358 0.45908 -0.479731 0
M  V30 1193 H 112.888 0.896207 -1.83927 0
M  V30 1194 H 112.898 3.26671 -2.44438 0
M  V30 1195 H 111.573 2.51169 -3.31492 0
M  V30 1196 H 110.15 3.33073 -1.6768 0
M  V30 1197 N 112.336 1.25143 0.95797 0
M  V30 1198 C 113.268 1.01023 2.05735 0
M  V30 1199 C 114.281 -0.0236902 1.62783 0
M  V30 1200 O 115.47 0.21448 1.77207 0
M  V30 1201 C 112.57 0.504595 3.35122 0
M  V30 1202 C 111.743 1.6039 4.06932 0
M  V30 1203 C 110.802 1.09922 5.14591 0
M  V30 1204 O 109.828 1.79293 5.40225 0
M  V30 1205 N 111.03 -0.0612545 5.80468 0
M  V30 1206 H 113.795 1.95683 2.26998 0
M  V30 1207 H 111.356 1.16303 1.12629 0
M  V30 1208 H 113.348 0.151516 4.04416 0
M  V30 1209 H 111.918 -0.347989 3.10657 0
M  V30 1210 H 111.138 2.12872 3.31782 0
M  V30 1211 H 112.426 2.34252 4.51667 0
M  V30 1212 H 111.824 -0.640985 5.62057 0
M  V30 1213 H 110.381 -0.355395 6.5083 0
M  V30 1214 N 113.814 -1.1601 1.06675 0
M  V30 1215 C 115.061 -1.86633 0.785781 0
M  V30 1216 C 115.389 -1.81929 -0.687896 0
M  V30 1217 O 114.644 -1.23253 -1.52011 0
M  V30 1218 C 114.943 -3.35547 1.23057 0
M  V30 1219 C 114.609 -3.60448 2.70902 0
M  V30 1220 C 113.271 -3.66954 3.11285 0
M  V30 1221 C 115.623 -3.7071 3.66365 0
M  V30 1222 C 112.951 -3.81225 4.45965 0
M  V30 1223 C 115.303 -3.86503 5.00797 0
M  V30 1224 C 113.967 -3.91252 5.40813 0
M  V30 1225 H 113.237 -0.682937 0.287538 0
M  V30 1226 H 115.884 -1.37146 1.33654 0
M  V30 1227 H 114.189 -3.87193 0.59907 0
M  V30 1228 H 115.886 -3.88583 0.990163 0
M  V30 1229 H 112.476 -3.56021 2.38636 0
M  V30 1230 H 116.66 -3.64991 3.36296 0
M  V30 1231 H 111.916 -3.83155 4.76447 0
M  V30 1232 H 116.09 -3.93385 5.74649 0
M  V30 1233 H 113.717 -4.02062 6.45174 0
M  V30 1234 N 115.292 -0.849877 -1.32721 0
M  V30 1235 C 116.222 -0.306308 -2.31482 0
M  V30 1236 C 117.203 0.591952 -1.59468 0
M  V30 1237 O 118.388 0.513199 -1.87296 0
M  V30 1238 C 115.518 0.510204 -3.43532 0
M  V30 1239 C 114.472 -0.293209 -4.26994 0
M  V30 1240 C 113.798 0.647743 -5.30762 0
M  V30 1241 C 115.098 -1.51634 -4.99804 0
M  V30 1242 H 116.792 -1.13153 -2.77195 0
M  V30 1243 H 114.338 -0.545553 -1.33266 0
M  V30 1244 H 116.291 0.900856 -4.11658 0
M  V30 1245 H 115.015 1.36874 -2.96535 0
M  V30 1246 H 113.674 -0.665555 -3.60508 0
M  V30 1247 H 113.322 1.50299 -4.8002 0
M  V30 1248 H 113.022 0.11422 -5.87489 0
M  V30 1249 H 114.546 1.03567 -6.01753 0
M  V30 1250 H 115.96 -1.19824 -5.60638 0
M  V30 1251 H 114.357 -1.98745 -5.66234 0
M  V30 1252 H 115.427 -2.28018 -4.27943 0
M  V30 1253 N 116.77 1.45427 -0.607355 0
M  V30 1254 C 117.718 2.32269 0.12411 0
M  V30 1255 C 118.712 1.45955 0.859854 0
M  V30 1256 O 119.918 1.6244 0.775447 0
M  V30 1257 H 116.293 0.749691 0.0588839 0
M  V30 1258 H 118.264 2.91743 -0.626762 0
M  V30 1259 C 117.013 3.29567 1.1082 0
M  V30 1260 H 116.336 3.95978 0.551492 0
M  V30 1261 H 117.776 3.93061 1.58995 0
M  V30 1262 C 116.235 2.56722 2.18164 0
M  V30 1263 O 116.765 2.34842 3.25902 0
M  V30 1264 N 114.971 2.16861 1.93442 0
M  V30 1265 H 114.518 2.34855 1.05834 0
M  V30 1266 H 114.476 1.68444 2.65469 0
M  V30 1267 N 118.248 0.346503 1.53744 0
M  V30 1268 C 119.178 -0.501193 2.28058 0
M  V30 1269 C 120.159 -1.10014 1.29734 0
M  V30 1270 O 121.344 -1.12097 1.58581 0
M  V30 1271 C 118.474 -1.65078 3.05559 0
M  V30 1272 C 117.428 -1.18003 4.11411 0
M  V30 1273 C 116.754 -2.41837 4.76884 0
M  V30 1274 C 118.054 -0.278394 5.21558 0
M  V30 1275 H 119.748 0.11875 2.99164 0
M  V30 1276 H 117.294 0.0585531 1.43881 0
M  V30 1277 H 119.247 -2.25028 3.56287 0
M  V30 1278 H 117.971 -2.29767 2.32109 0
M  V30 1279 H 116.63 -0.603331 3.61601 0
M  V30 1280 H 116.278 -3.0494 4.00026 0
M  V30 1281 H 115.978 -2.1102 5.48402 0
M  V30 1282 H 117.502 -3.02508 5.30397 0
M  V30 1283 H 118.916 -0.784823 5.67903 0
M  V30 1284 H 117.313 -0.0619707 6.00068 0
M  V30 1285 H 118.383 0.684677 4.80042 0
M  V30 1286 N 119.726 -1.57421 0.075193 0
M  V30 1287 C 120.689 -2.11791 -0.876203 0
M  V30 1288 C 121.689 -1.04268 -1.22412 0
M  V30 1289 O 122.879 -1.30242 -1.15684 0
M  V30 1290 C 120.011 -2.62207 -2.17854 0
M  V30 1291 H 121.204 -2.9716 -0.40444 0
M  V30 1292 H 118.757 -1.55333 -0.173557 0
M  V30 1293 H 119.492 -1.803 -2.6956 0
M  V30 1294 H 119.277 -3.40802 -1.93897 0
M  V30 1295 H 120.767 -3.04335 -2.85955 0
M  V30 1296 N 121.204 0.198386 -1.56346 0
M  V30 1297 C 122.152 1.26538 -1.95169 0
M  V30 1298 C 123.146 1.47295 -0.836685 0
M  V30 1299 O 124.352 1.48195 -1.02167 0
M  V30 1300 H 120.727 0.424744 -0.620561 0
M  V30 1301 H 122.698 0.910904 -2.84157 0
M  V30 1302 C 121.447 2.6035 -2.30463 0
M  V30 1303 H 120.77 2.45192 -3.15786 0
M  V30 1304 H 122.21 3.33762 -2.61494 0
M  V30 1305 C 120.669 3.17096 -1.13806 0
M  V30 1306 O 121.199 3.99588 -0.41135 0
M  V30 1307 N 119.405 2.75795 -0.915736 0
M  V30 1308 H 118.952 2.08816 -1.50843 0
M  V30 1309 H 118.91 3.14101 -0.136979 0
M  V30 1310 N 122.682 1.50554 0.465978 0
M  V30 1311 C 123.91 1.65563 1.24083 0
M  V30 1312 C 124.325 0.341051 1.85694 0
M  V30 1313 O 123.682 -0.677543 1.69457 0
M  V30 1314 C 123.733 2.75051 2.34583 0
M  V30 1315 O 123.454 4.01413 1.75497 0
M  V30 1316 C 124.955 3.01078 3.25372 0
M  V30 1317 H 122.175 0.55638 0.375077 0
M  V30 1318 H 124.719 1.96807 0.555624 0
M  V30 1319 H 122.874 2.46486 2.9887 0
M  V30 1320 H 123.288 4.62002 2.48303 0
M  V30 1321 H 124.762 3.81339 3.99105 0
M  V30 1322 H 125.239 2.12349 3.84453 0
M  V30 1323 H 125.845 3.31194 2.66816 0
M  V30 1324 N 124.16 -0.719506 1.40217 0
M  V30 1325 C 125.123 -1.8153 1.39927 0
M  V30 1326 C 126.123 -1.58095 0.293723 0
M  V30 1327 O 127.313 -1.65209 0.552429 0
M  V30 1328 C 124.445 -3.19561 1.18716 0
M  V30 1329 H 125.638 -1.83186 2.37451 0
M  V30 1330 H 123.191 -0.924746 1.26008 0
M  V30 1331 H 123.926 -3.23557 0.219366 0
M  V30 1332 H 123.711 -3.3797 1.98793 0
M  V30 1333 H 125.201 -3.99598 1.21291 0
M  V30 1334 N 125.638 -1.25649 -0.95132 0
M  V30 1335 C 126.548 -1.08073 -2.08224 0
M  V30 1336 C 127.564 -0.0169666 -1.73992 0
M  V30 1337 O 128.74 -0.218593 -2.0021 0
M  V30 1338 C 125.805 -0.704922 -3.39458 0
M  V30 1339 C 124.866 -1.84699 -3.87537 0
M  V30 1340 C 124.099 -1.48902 -5.12508 0
M  V30 1341 O 124.322 -0.386156 -5.69091 0
M  V30 1342 O 123.256 -2.32033 -5.55378 0
M  V30 1343 H 127.082 -2.02924 -2.25954 0
M  V30 1344 H 124.667 -1.04618 -1.06656 0
M  V30 1345 H 126.549 -0.507609 -4.18332 0
M  V30 1346 H 125.224 0.214291 -3.2299 0
M  V30 1347 H 124.131 -2.09919 -3.09653 0
M  V30 1348 H 125.464 -2.74557 -4.08509 0
M  V30 1349 N 127.117 1.15442 -1.07289 0
M  V30 1350 C 128.049 2.19773 -0.650585 0
M  V30 1351 C 129.062 1.60076 0.296572 0
M  V30 1352 O 130.251 1.78293 0.0859905 0
M  V30 1353 C 127.351 3.38838 0.0650398 0
M  V30 1354 C 126.524 4.2808 -0.898141 0
M  V30 1355 C 125.583 5.2574 -0.219926 0
M  V30 1356 O 124.609 5.62654 -0.860773 0
M  V30 1357 N 125.811 5.71205 1.03466 0
M  V30 1358 H 128.576 2.56622 -1.54808 0
M  V30 1359 H 126.137 1.30551 -0.957494 0
M  V30 1360 H 128.129 4.01222 0.529415 0
M  V30 1361 H 126.699 3.00409 0.864466 0
M  V30 1362 H 125.919 3.62804 -1.54165 0
M  V30 1363 H 127.207 4.84577 -1.5512 0
M  V30 1364 H 126.605 5.43325 1.57526 0
M  V30 1365 H 125.162 6.35633 1.44272 0
M  V30 1366 N 128.595 0.856903 1.32268 0
M  V30 1367 C 129.825 0.47475 2.01071 0
M  V30 1368 C 130.233 -0.933746 1.64553 0
M  V30 1369 O 129.576 -1.62114 0.863989 0
M  V30 1370 C 129.638 0.536746 3.55471 0
M  V30 1371 C 129.302 1.90453 4.15423 0
M  V30 1372 C 130.299 2.87029 4.33486 0
M  V30 1373 C 127.984 2.20229 4.51447 0
M  V30 1374 C 129.978 4.11532 4.86744 0
M  V30 1375 C 127.665 3.44984 5.0441 0
M  V30 1376 C 128.663 4.40452 5.22007 0
M  V30 1377 O 128.351 5.62998 5.73837 0
M  V30 1378 H 128.083 0.184778 0.650256 0
M  V30 1379 H 130.637 1.15615 1.69771 0
M  V30 1380 H 128.867 -0.20152 3.86175 0
M  V30 1381 H 130.556 0.169875 4.05544 0
M  V30 1382 H 131.322 2.6533 4.05986 0
M  V30 1383 H 127.201 1.46705 4.37034 0
M  V30 1384 H 130.745 4.86056 5.00395 0
M  V30 1385 H 126.642 3.66532 5.31342 0
M  V30 1386 H 127.41 5.64987 5.92226 0
M  V30 1387 N 130.073 -1.45103 0.615059 0
M  V30 1388 C 131.023 -2.27679 -0.120966 0
M  V30 1389 C 132.007 -1.3775 -0.831491 0
M  V30 1390 O 133.199 -1.61683 -0.720249 0
M  V30 1391 C 130.328 -3.24767 -1.1127 0
M  V30 1392 C 129.414 -4.22184 -0.402627 0
M  V30 1393 N 129.805 -5.02692 0.559884 0
M  V30 1394 C 128.103 -4.4125 -0.649202 0
M  V30 1395 C 128.804 -5.73421 0.977942 0
M  V30 1396 N 127.78 -5.42657 0.320104 0
M  V30 1397 H 131.582 -2.87325 0.618181 0
M  V30 1398 H 129.096 -1.56345 0.439304 0
M  V30 1399 H 131.093 -3.82666 -1.65446 0
M  V30 1400 H 129.753 -2.66682 -1.85232 0
M  V30 1401 H 130.764 -5.09354 0.936976 0
M  V30 1402 H 127.441 -3.9428 -1.37293 0
M  V30 1403 H 128.831 -6.48107 1.77222 0
M  V30 1404 N 131.551 -0.354651 -1.53558 0
M  V30 1405 C 132.776 0.242153 -2.05981 0
M  V30 1406 C 133.201 1.42553 -1.2272 0
M  V30 1407 O 132.559 1.79656 -0.243604 0
M  V30 1408 C 132.607 0.624367 -3.55154 0
M  V30 1409 O 131.711 1.72301 -3.74681 0
M  V30 1410 H 131.052 0.0378432 -0.662921 0
M  V30 1411 H 133.582 -0.512087 -1.98088 0
M  V30 1412 H 133.592 0.898433 -3.97985 0
M  V30 1413 H 132.267 -0.240989 -4.15201 0
M  V30 1414 H 130.844 1.44535 -3.4375 0
M  V30 1415 N 133.029 1.57378 -0.0835403 0
M  V30 1416 C 134.278 1.93106 0.582498 0
M  V30 1417 C 134.591 0.96651 1.70053 0
M  V30 1418 O 135.797 1.21705 2.42693 0
M  V30 1419 C 134.253 3.43076 1.08751 0
M  V30 1420 C 133.861 4.48 -0.000146404 0
M  V30 1421 C 135.605 3.87785 1.72694 0
M  V30 1422 C 133.512 5.89113 0.519568 0
M  V30 1423 H 132.442 0.720775 0.221358 0
M  V30 1424 H 135.093 1.82821 -0.157675 0
M  V30 1425 H 133.475 3.48474 1.88101 0
M  V30 1426 H 134.649 4.54233 -0.775199 0
M  V30 1427 H 132.964 4.1283 -0.54406 0
M  V30 1428 H 135.561 4.90604 2.1263 0
M  V30 1429 H 135.904 3.25796 2.59158 0
M  V30 1430 H 136.437 3.8504 0.999457 0
M  V30 1431 H 133.176 6.54775 -0.308186 0
M  V30 1432 H 132.696 5.86376 1.26188 0
M  V30 1433 H 134.375 6.39346 0.992237 0
M  V30 1434 N 134.507 -0.190092 1.56449 0
M  V30 1435 C 135.732 -0.929864 1.85387 0
M  V30 1436 C 136.157 -1.7585 0.667704 0
M  V30 1437 O 135.515 -1.77198 -0.383459 0
M  V30 1438 C 135.563 -1.79773 3.12593 0
M  V30 1439 O 134.667 -2.89713 2.93496 0
M  V30 1440 H 134.008 -0.261574 0.610307 0
M  V30 1441 H 136.538 -0.193896 2.03679 0
M  V30 1442 H 136.548 -2.20139 3.43515 0
M  V30 1443 H 135.223 -1.18892 3.98544 0
M  V30 1444 H 133.8 -2.53065 2.73884 0
M  V30 1445 N 135.985 -1.50799 -0.457987 0
M  V30 1446 C 137.396 -1.55152 -1.0385 0
M  V30 1447 C 137.747 -0.362719 -1.92818 0
M  V30 1448 O 136.872 0.522915 -2.09987 0
M  V30 1449 C 137.467 -2.81173 -1.89017 0
M  V30 1450 C 136.026 -2.88164 -2.42154 0
M  V30 1451 C 135.173 -2.49591 -1.20829 0
M  V30 1452 H 138.124 -1.56874 -0.240068 0
M  V30 1453 H 138.145 -2.63769 -2.74238 0
M  V30 1454 H 137.657 -3.67677 -1.24238 0
M  V30 1455 H 135.758 -2.06042 -3.10447 0
M  V30 1456 H 135.871 -3.91356 -2.76364 0
M  V30 1457 H 134.235 -2.02322 -1.54719 0
M  V30 1458 H 135.018 -3.38418 -0.576927 0
M  V30 1459 N 137.463 0.71206 -1.40597 0
M  V30 1460 C 138.41 1.82613 -1.41142 0
M  V30 1461 C 139.38 1.63925 -0.267903 0
M  V30 1462 O 140.565 1.85009 -0.466495 0
M  V30 1463 C 137.705 3.20354 -1.28324 0
M  V30 1464 C 136.818 3.50589 -2.52411 0
M  V30 1465 C 135.953 4.77855 -2.32009 0
M  V30 1466 C 134.992 5.01005 -3.51654 0
M  V30 1467 N 134.129 6.19487 -3.30425 0
M  V30 1468 H 138.969 1.81482 -2.36365 0
M  V30 1469 H 136.506 0.886475 -1.17388 0
M  V30 1470 H 138.464 3.99899 -1.18899 0
M  V30 1471 H 137.094 3.20705 -0.367189 0
M  V30 1472 H 136.146 2.65573 -2.72351 0
M  V30 1473 H 137.458 3.63604 -3.41458 0
M  V30 1474 H 136.612 5.65424 -2.19956 0
M  V30 1475 H 135.351 4.67056 -1.40392 0
M  V30 1476 H 134.356 4.1189 -3.64179 0
M  V30 1477 H 135.581 5.13674 -4.44202 0
M  V30 1478 H 133.527 6.09932 -2.41494 0
M  V30 1479 H 133.444 6.33194 -4.13039 0
M  V30 1480 H 134.712 7.09834 -3.22113 0
M  V30 1481 N 138.941 1.26152 0.944643 0
M  V30 1482 C 140.189 1.11271 1.6871 0
M  V30 1483 C 140.51 -0.345166 1.91921 0
M  V30 1484 O 139.78 -1.24387 1.51343 0
M  V30 1485 H 138.36 0.408783 0.625224 0
M  V30 1486 H 141.022 1.58427 1.1352 0
M  V30 1487 H 140.118 1.62879 2.66227 0
M  V30 1488 N 140.419 -1.14872 1.07899 0
M  V30 1489 C 141.329 -2.2341 0.715915 0
M  V30 1490 C 142.345 -1.71808 -0.275306 0
M  V30 1491 O 143.521 -2.01039 -0.120545 0
M  V30 1492 C 140.586 -3.46474 0.125168 0
M  V30 1493 C 139.647 -4.13039 1.17034 0
M  V30 1494 C 138.88 -5.30229 0.607688 0
M  V30 1495 O 139.103 -5.675 -0.574497 0
M  V30 1496 O 138.037 -5.86444 1.35526 0
M  V30 1497 H 141.863 -2.56808 1.62121 0
M  V30 1498 H 139.448 -1.22702 0.852322 0
M  V30 1499 H 141.33 -4.20917 -0.201729 0
M  V30 1500 H 140.005 -3.14811 -0.753364 0
M  V30 1501 H 138.912 -3.40493 1.54968 0
M  V30 1502 H 140.245 -4.48796 2.02097 0
M  V30 1503 N 141.898 -0.863906 -1.31812 0
M  V30 1504 C 142.861 -0.320212 -2.26952 0
M  V30 1505 C 143.861 0.525369 -1.51975 0
M  V30 1506 O 145.051 0.335547 -1.70938 0
M  V30 1507 C 142.183 0.545919 -3.365 0
M  V30 1508 H 143.376 -1.16004 -2.76556 0
M  V30 1509 H 140.929 -0.638995 -1.42641 0
M  V30 1510 H 141.664 1.40718 -2.92179 0
M  V30 1511 H 141.449 -0.0594674 -3.92055 0
M  V30 1512 H 142.939 0.918796 -4.07367 0
M  V30 1513 N 143.376 1.44774 -0.622745 0
M  V30 1514 C 144.339 2.29069 0.0774015 0
M  V30 1515 C 145.339 1.4059 0.780461 0
M  V30 1516 O 146.529 1.62551 0.626322 0
M  V30 1517 C 143.661 3.21974 1.12006 0
M  V30 1518 H 144.854 2.92459 -0.663901 0
M  V30 1519 H 142.407 1.51548 -0.382486 0
M  V30 1520 H 143.142 2.63417 1.89162 0
M  V30 1521 H 142.927 3.87168 0.619951 0
M  V30 1522 H 144.417 3.85318 1.60995 0
M  V30 1523 N 144.854 0.36279 1.53368 0
M  V30 1524 C 146.079 -0.231226 2.06107 0
M  V30 1525 C 146.504 -1.419 1.23474 0
M  V30 1526 O 145.862 -1.79524 0.253128 0
M  V30 1527 C 145.91 -0.605523 3.5548 0
M  V30 1528 O 145.014 -1.70312 3.7559 0
M  V30 1529 H 144.355 -0.034327 0.663112 0
M  V30 1530 H 146.885 0.522584 1.97814 0
M  V30 1531 H 146.895 -0.877314 3.98456 0
M  V30 1532 H 145.57 0.263004 4.15068 0
M  V30 1533 H 144.147 -1.4271 3.44512 0
M  V30 1534 N 146.332 -1.57332 0.0918853 0
M  V30 1535 C 147.28 -2.15075 -0.885747 0
M  V30 1536 C 148.274 -1.09277 -1.29441 0
M  V30 1537 O 149.48 -1.27627 -1.26931 0
M  V30 1538 H 145.855 -0.687966 -0.303656 0
M  V30 1539 H 147.826 -2.96047 -0.373995 0
M  V30 1540 C 146.575 -2.74325 -2.13638 0
M  V30 1541 H 145.898 -3.55418 -1.8308 0
M  V30 1542 H 147.338 -3.183 -2.80109 0
M  V30 1543 C 145.797 -1.70062 -2.90827 0
M  V30 1544 O 146.327 -1.13763 -3.85254 0
M  V30 1545 N 144.533 -1.40628 -2.54307 0
M  V30 1546 H 144.08 -1.866 -1.7759 0
M  V30 1547 H 144.038 -0.711043 -3.06254 0
M  V30 1548 N 147.81 0.181792 -1.56548 0
M  V30 1549 C 149.221 0.745244 -1.71181 0
M  V30 1550 C 149.572 1.83262 -0.70068 0
M  V30 1551 O 148.697 2.15946 0.140154 0
M  V30 1552 C 149.292 1.35859 -3.10367 0
M  V30 1553 C 147.851 1.86898 -3.2672 0
M  V30 1554 C 146.998 0.743942 -2.67134 0
M  V30 1555 H 149.949 -0.0434661 -1.5864 0
M  V30 1556 H 149.97 2.22817 -3.08436 0
M  V30 1557 H 149.482 0.566948 -3.83937 0
M  V30 1558 H 147.583 2.68738 -2.5809 0
M  V30 1559 H 147.696 2.02162 -4.34359 0
M  V30 1560 H 146.06 1.16169 -2.26665 0
M  V30 1561 H 146.843 -0.035676 -3.43281 0
M  V30 1562 N 149.288 1.51039 0.449983 0
M  V30 1563 C 150.198 1.74261 1.57067 0
M  V30 1564 C 151.214 0.626363 1.62335 0
M  V30 1565 O 152.39 0.907162 1.79812 0
M  V30 1566 C 149.455 1.85114 2.93144 0
M  V30 1567 C 148.516 3.0893 2.98095 0
M  V30 1568 C 147.749 3.19256 4.27681 0
M  V30 1569 O 147.972 2.35835 5.19363 0
M  V30 1570 O 146.906 4.12144 4.38658 0
M  V30 1571 H 150.732 2.69303 1.40391 0
M  V30 1572 H 148.317 1.35389 0.631688 0
M  V30 1573 H 150.199 1.94311 3.73926 0
M  V30 1574 H 148.874 0.932588 3.09975 0
M  V30 1575 H 147.781 3.0522 2.16314 0
M  V30 1576 H 149.114 4.00433 2.86206 0
M  V30 1577 N 150.766 -0.704594 1.40972 0
M  V30 1578 C 152.012 -1.46675 1.40051 0
M  V30 1579 C 152.345 -1.94199 0.00641102 0
M  V30 1580 O 151.62 -1.68916 -0.964235 0
M  V30 1581 C 151.903 -2.68505 2.39952 0
M  V30 1582 C 151.756 -2.26805 3.88432 0
M  V30 1583 C 153.075 -3.70686 2.37233 0
M  V30 1584 H 150.194 -0.532015 0.510028 0
M  V30 1585 H 152.836 -0.803255 1.72185 0
M  V30 1586 H 150.986 -3.25114 2.1268 0
M  V30 1587 H 152.658 -1.75592 4.26574 0
M  V30 1588 H 150.901 -1.58685 4.03734 0
M  V30 1589 H 151.572 -3.14181 4.53866 0
M  V30 1590 H 154.048 -3.23731 2.61415 0
M  V30 1591 H 152.924 -4.53553 3.09162 0
M  V30 1592 H 153.185 -4.19754 1.38777 0
M  V30 1593 N 152.244 -1.26651 -0.937939 0
M  V30 1594 C 153.493 -1.11775 -1.67897 0
M  V30 1595 C 153.806 0.33794 -1.92659 0
M  V30 1596 O 155.012 0.607434 -2.64618 0
M  V30 1597 C 153.468 -1.9523 -3.02346 0
M  V30 1598 C 153.076 -3.45393 -2.8532 0
M  V30 1599 C 154.82 -1.88972 -3.80118 0
M  V30 1600 C 152.727 -4.21083 -4.15263 0
M  V30 1601 H 151.657 -0.414696 -0.629717 0
M  V30 1602 H 154.308 -1.50988 -1.04283 0
M  V30 1603 H 152.69 -1.48853 -3.66959 0
M  V30 1604 H 153.864 -3.99561 -2.29537 0
M  V30 1605 H 152.179 -3.52921 -2.20988 0
M  V30 1606 H 154.776 -2.42805 -4.76392 0
M  V30 1607 H 155.119 -0.86113 -4.07296 0
M  V30 1608 H 155.652 -2.33189 -3.22285 0
M  V30 1609 H 152.391 -5.24425 -3.93267 0
M  V30 1610 H 151.911 -3.71695 -4.70747 0
M  V30 1611 H 153.59 -4.29706 -4.83696 0
M  V30 1612 N 153.722 1.14298 -1.08507 0
M  V30 1613 C 154.685 2.17607 -0.719711 0
M  V30 1614 C 155.685 1.58907 0.245997 0
M  V30 1615 O 156.875 1.74181 0.0254081 0
M  V30 1616 C 154.007 3.40842 -0.0627695 0
M  V30 1617 H 155.2 2.51443 -1.63452 0
M  V30 1618 H 152.753 1.28963 -0.88307 0
M  V30 1619 H 153.488 3.12587 0.863716 0
M  V30 1620 H 153.273 3.84713 -0.757504 0
M  V30 1621 H 154.763 4.17221 0.177786 0
M  V30 1622 N 155.201 0.870884 1.31352 0
M  V30 1623 C 156.617 0.562932 1.49343 0
M  V30 1624 C 156.817 -0.902725 1.80148 0
M  V30 1625 O 155.873 -1.68484 1.88067 0
M  V30 1626 C 157.186 1.46393 2.62659 0
M  V30 1627 C 158.734 1.46607 2.76542 0
M  V30 1628 C 159.209 2.35266 3.92955 0
M  V30 1629 N 160.7 2.33151 4.00243 0
M  V30 1630 C 161.435 2.98471 4.89594 0
M  V30 1631 N 160.931 3.72964 5.8384 0
M  V30 1632 N 162.724 2.87775 4.82848 0
M  V30 1633 H 154.875 1.81923 1.09626 0
M  V30 1634 H 157.138 0.777934 0.541777 0
M  V30 1635 H 156.844 2.50689 2.46674 0
M  V30 1636 H 156.718 1.16314 3.58819 0
M  V30 1637 H 159.105 0.43069 2.9194 0
M  V30 1638 H 159.186 1.8071 1.81046 0
M  V30 1639 H 158.83 3.38881 3.78315 0
M  V30 1640 H 158.76 1.98487 4.87761 0
M  V30 1641 H 161.251 1.79006 3.32814 0
M  V30 1642 H 161.564 4.19932 6.4875 0
M  V30 1643 H 159.909 3.77073 5.83816 0
M  V30 1644 H 163.1 2.29116 4.08195 0
M  V30 1645 H 163.273 3.38961 5.52277 0
M  V30 1646 N 156.679 -1.44442 0.630414 0
M  V30 1647 C 157.907 -2.06414 0.141671 0
M  V30 1648 C 158.322 -1.47105 -1.18345 0
M  V30 1649 O 157.679 -0.593662 -1.72574 0
M  V30 1650 C 157.73 -3.61494 0.0199784 0
M  V30 1651 O 157.451 -4.18594 1.29269 0
M  V30 1652 C 158.952 -4.40499 -0.497544 0
M  V30 1653 H 156.172 -0.666292 0.0793452 0
M  V30 1654 H 158.716 -1.85323 0.864614 0
M  V30 1655 H 156.871 -3.8185 -0.653402 0
M  V30 1656 H 157.285 -5.12026 1.13707 0
M  V30 1657 H 158.759 -5.49433 -0.531708 0
M  V30 1658 H 159.236 -4.11895 -1.52445 0
M  V30 1659 H 159.842 -4.25061 0.142562 0
M  V30 1660 N 158.157 -0.370918 -1.53173 0
M  V30 1661 C 159.087 0.464847 -2.28826 0
M  V30 1662 C 160.068 1.07936 -1.31468 0
M  V30 1663 O 161.253 1.0956 -1.60344 0
M  V30 1664 C 158.383 1.60196 -3.08147 0
M  V30 1665 C 157.337 1.11443 -4.13237 0
M  V30 1666 C 156.663 2.3422 -4.80672 0
M  V30 1667 C 157.963 0.195384 -5.21934 0
M  V30 1668 H 159.657 -0.166329 -2.98938 0
M  V30 1669 H 157.203 -0.0814359 -1.4377 0
M  V30 1670 H 159.156 2.19332 -3.59822 0
M  V30 1671 H 157.88 2.26045 -2.35735 0
M  V30 1672 H 156.539 0.545727 -3.62515 0
M  V30 1673 H 156.187 2.98537 -4.04827 0
M  V30 1674 H 155.887 2.02269 -5.51689 0
M  V30 1675 H 157.411 2.94032 -5.35143 0
M  V30 1676 H 158.825 0.694375 -5.69079 0
M  V30 1677 H 157.222 -0.0335027 -6.00091 0
M  V30 1678 H 158.292 -0.760961 -4.78892 0
M  V30 1679 N 159.635 1.57281 -0.100228 0
M  V30 1680 C 161.051 1.57527 0.256416 0
M  V30 1681 C 161.251 1.11173 1.68056 0
M  V30 1682 O 160.307 0.79053 2.39806 0
M  V30 1683 C 161.62 3.00673 0.0401747 0
M  V30 1684 C 163.168 3.12815 0.107528 0
M  V30 1685 C 163.643 4.57929 -0.0807834 0
M  V30 1686 N 165.134 4.63193 -0.0261207 0
M  V30 1687 C 165.869 5.73212 -0.146999 0
M  V30 1688 N 165.365 6.92047 -0.322999 0
M  V30 1689 N 167.158 5.62031 -0.0879044 0
M  V30 1690 H 159.309 1.85718 -1.03065 0
M  V30 1691 H 161.572 0.857446 -0.404339 0
M  V30 1692 H 161.278 3.38804 -0.943649 0
M  V30 1693 H 161.152 3.69042 0.780262 0
M  V30 1694 H 163.539 2.74554 1.08186 0
M  V30 1695 H 163.62 2.47028 -0.664134 0
M  V30 1696 H 163.264 4.96886 -1.05201 0
M  V30 1697 H 163.194 5.21783 0.710635 0
M  V30 1698 H 165.685 3.77748 0.107161 0
M  V30 1699 H 165.998 7.7173 -0.406608 0
M  V30 1700 H 164.343 6.94074 -0.358733 0
M  V30 1701 H 167.534 4.68075 0.048498 0
M  V30 1702 H 167.707 6.47734 -0.185557 0
M  V30 1703 N 161.113 -0.173488 1.56642 0
M  V30 1704 C 162.06 -1.21482 1.96242 0
M  V30 1705 C 163.03 -1.44104 0.826027 0
M  V30 1706 O 164.215 -1.5688 1.08597 0
M  V30 1707 C 161.355 -2.54964 2.32567 0
M  V30 1708 C 160.468 -2.39739 3.59373 0
M  V30 1709 C 159.603 -3.66072 3.84921 0
M  V30 1710 C 158.642 -3.45771 5.05083 0
M  V30 1711 N 157.779 -4.64169 5.26775 0
M  V30 1712 H 162.619 -0.870123 2.85014 0
M  V30 1713 H 160.156 -0.418245 1.41029 0
M  V30 1714 H 162.114 -3.32758 2.5165 0
M  V30 1715 H 160.744 -2.87433 1.46908 0
M  V30 1716 H 159.796 -1.53131 3.48217 0
M  V30 1717 H 161.108 -2.20683 4.47326 0
M  V30 1718 H 160.262 -4.52303 4.0436 0
M  V30 1719 H 159.001 -3.88105 2.9534 0
M  V30 1720 H 158.006 -2.57927 4.85545 0
M  V30 1721 H 159.231 -3.25163 5.96193 0
M  V30 1722 H 157.177 -4.86425 4.40144 0
M  V30 1723 H 157.094 -4.48019 6.08946 0
M  V30 1724 H 158.362 -5.51689 5.5069 0
M  V30 1725 N 162.591 -1.51276 -0.441967 0
M  V30 1726 C 163.521 -1.752 -1.54361 0
M  V30 1727 C 164.502 -0.601682 -1.59103 0
M  V30 1728 O 165.687 -0.843913 -1.74905 0
M  V30 1729 C 162.817 -1.87282 -2.92477 0
M  V30 1730 C 161.771 -3.02687 -3.02596 0
M  V30 1731 C 161.097 -2.99947 -4.42647 0
M  V30 1732 C 162.397 -4.4273 -2.77106 0
M  V30 1733 H 164.091 -2.67442 -1.34592 0
M  V30 1734 H 161.637 -1.28694 -0.646048 0
M  V30 1735 H 163.59 -2.02602 -3.695 0
M  V30 1736 H 162.314 -0.916844 -3.13467 0
M  V30 1737 H 160.973 -2.87065 -2.28012 0
M  V30 1738 H 160.621 -2.02136 -4.60597 0
M  V30 1739 H 160.321 -3.77439 -4.50348 0
M  V30 1740 H 161.845 -3.17354 -5.2165 0
M  V30 1741 H 163.259 -4.58727 -3.43864 0
M  V30 1742 H 161.656 -5.21893 -2.96222 0
M  V30 1743 H 162.726 -4.53087 -1.72744 0
M  V30 1744 N 164.069 0.697108 -1.41344 0
M  V30 1745 C 165.016 1.81106 -1.43071 0
M  V30 1746 C 165.986 1.63632 -0.285275 0
M  V30 1747 O 167.171 1.84504 -0.486091 0
M  V30 1748 C 164.311 3.18975 -1.31715 0
M  V30 1749 C 163.424 3.47892 -2.56115 0
M  V30 1750 C 162.559 4.75367 -2.37064 0
M  V30 1751 C 161.598 4.97247 -3.56948 0
M  V30 1752 N 160.735 6.15947 -3.36977 0
M  V30 1753 H 165.575 1.78965 -2.38276 0
M  V30 1754 H 163.112 0.873975 -1.18322 0
M  V30 1755 H 165.07 3.98615 -1.23133 0
M  V30 1756 H 163.7 3.20297 -0.401183 0
M  V30 1757 H 162.752 2.62669 -2.75153 0
M  V30 1758 H 164.064 3.59962 -3.45295 0
M  V30 1759 H 163.218 5.63059 -2.25941 0
M  V30 1760 H 161.957 4.65541 -1.45338 0
M  V30 1761 H 160.962 4.08004 -3.68527 0
M  V30 1762 H 162.187 5.08934 -4.49626 0
M  V30 1763 H 160.133 6.07336 -2.47949 0
M  V30 1764 H 160.05 6.28777 -4.19732 0
M  V30 1765 H 161.318 7.06377 -3.29623 0
M  V30 1766 N 165.547 1.27147 0.931209 0
M  V30 1767 C 166.495 1.09398 2.05268 0
M  V30 1768 C 167.489 0.0180591 1.6939 0
M  V30 1769 O 168.695 0.17551 1.79142 0
M  V30 1770 H 165.07 0.336986 0.672268 0
M  V30 1771 H 167.041 2.04416 2.17386 0
M  V30 1772 C 165.79 0.75424 3.39421 0
M  V30 1773 H 165.113 1.57404 3.67511 0
M  V30 1774 H 166.553 0.669903 4.18674 0
M  V30 1775 C 165.012 -0.541197 3.32525 0
M  V30 1776 O 165.542 -1.57664 3.69466 0
M  V30 1777 N 163.748 -0.535517 2.85623 0
M  V30 1778 H 163.295 0.307511 2.55758 0
M  V30 1779 H 163.253 -1.40236 2.81392 0
M  V30 1780 N 167.025 -1.13721 1.09112 0
M  V30 1781 C 167.957 -2.1871 0.685467 0
M  V30 1782 C 168.97 -1.60527 -0.271068 0
M  V30 1783 O 170.159 -1.78407 -0.0576148 0
M  V30 1784 C 167.259 -3.38898 -0.0111255 0
M  V30 1785 C 166.432 -4.26597 0.966131 0
M  V30 1786 C 165.491 -5.25324 0.303539 0
M  V30 1787 O 164.517 -5.61213 0.950177 0
M  V30 1788 N 165.719 -5.72779 -0.943651 0
M  V30 1789 H 168.484 -2.54126 1.58871 0
M  V30 1790 H 166.045 -1.29012 0.978143 0
M  V30 1791 H 168.037 -4.02014 -0.465517 0
M  V30 1792 H 166.607 -3.01747 -0.816565 0
M  V30 1793 H 165.827 -3.60306 1.59917 0
M  V30 1794 H 167.115 -4.82048 1.6281 0
M  V30 1795 H 166.513 -5.45762 -1.48862 0
M  V30 1796 H 165.07 -6.37847 -1.34142 0
M  V30 1797 N 168.503 -0.877838 -1.30888 0
M  V30 1798 C 169.914 -0.544193 -1.78593 0
M  V30 1799 C 170.265 0.939301 -1.72254 0
M  V30 1800 O 169.39 1.7337 -1.29505 0
M  V30 1801 C 169.985 -0.98105 -3.24285 0
M  V30 1802 C 168.544 -0.698935 -3.69854 0
M  V30 1803 C 167.691 -1.168 -2.51502 0
M  V30 1804 H 170.642 -1.06278 -1.17859 0
M  V30 1805 H 170.663 -0.307009 -3.79259 0
M  V30 1806 H 170.175 -2.06079 -3.28866 0
M  V30 1807 H 168.276 0.369112 -3.70767 0
M  V30 1808 H 168.389 -1.28148 -4.61644 0
M  V30 1809 H 166.753 -0.587535 -2.47831 0
M  V30 1810 H 167.536 -2.25533 -2.58824 0
M  V30 1811 N 169.982 1.44106 -0.638065 0
M  V30 1812 C 170.892 2.34513 0.0637334 0
M  V30 1813 C 171.908 1.53018 0.828346 0
M  V30 1814 O 173.084 1.85723 0.779036 0
M  V30 1815 C 170.149 3.31095 1.02844 0
M  V30 1816 C 169.21 4.28497 0.26244 0
M  V30 1817 C 168.443 5.20465 1.1812 0
M  V30 1818 O 168.666 5.16514 2.42011 0
M  V30 1819 O 167.6 5.98251 0.661774 0
M  V30 1820 H 171.426 2.95989 -0.68003 0
M  V30 1821 H 169.011 1.43994 -0.398252 0
M  V30 1822 H 170.893 3.90526 1.58327 0
M  V30 1823 H 169.568 2.72144 1.7527 0
M  V30 1824 H 168.475 3.72592 -0.335602 0
M  V30 1825 H 169.808 4.90388 -0.421936 0
M  V30 1826 N 171.46 0.379036 1.52974 0
M  V30 1827 C 172.39 -0.452706 2.29069 0
M  V30 1828 C 173.371 -1.07237 1.32039 0
M  V30 1829 O 174.556 -1.08708 1.60923 0
M  V30 1830 C 171.686 -1.5856 3.08992 0
M  V30 1831 C 170.64 -1.0925 4.13822 0
M  V30 1832 C 169.966 -2.31668 4.81907 0
M  V30 1833 C 171.266 -0.167702 5.22031 0
M  V30 1834 H 172.96 0.182181 2.98845 0
M  V30 1835 H 170.506 0.0890592 1.43724 0
M  V30 1836 H 172.459 -2.1742 3.6098 0
M  V30 1837 H 171.183 -2.24792 2.36931 0
M  V30 1838 H 169.842 -0.526494 3.628 0
M  V30 1839 H 169.49 -2.96386 4.06404 0
M  V30 1840 H 169.19 -1.9934 5.52754 0
M  V30 1841 H 170.714 -2.91189 5.36695 0
M  V30 1842 H 172.128 -0.664186 5.6944 0
M  V30 1843 H 170.525 0.0653265 6.00064 0
M  V30 1844 H 171.595 0.786347 4.78482 0
M  V30 1845 N 172.938 -1.57226 0.108567 0
M  V30 1846 C 174.163 -1.99604 -0.563303 0
M  V30 1847 C 174.588 -0.987563 -1.6009 0
M  V30 1848 O 173.946 0.0421687 -1.81251 0
M  V30 1849 C 173.994 -3.40902 -1.17552 0
M  V30 1850 O 173.098 -3.42896 -2.2912 0
M  V30 1851 H 172.439 -0.648704 -0.1417 0
M  V30 1852 H 174.969 -2.03679 0.193961 0
M  V30 1853 H 174.979 -3.78886 -1.51357 0
M  V30 1854 H 173.654 -4.1382 -0.415445 0
M  V30 1855 H 172.231 -3.1672 -1.96832 0
M  V30 1856 N 174.416 0.165178 -1.56732 0
M  V30 1857 C 175.326 1.22423 -2.00125 0
M  V30 1858 C 176.342 1.48084 -0.913619 0
M  V30 1859 O 177.518 1.60112 -1.22172 0
M  V30 1860 C 174.583 2.54197 -2.35764 0
M  V30 1861 C 173.644 2.36343 -3.58386 0
M  V30 1862 C 172.877 3.61834 -3.92316 0
M  V30 1863 O 173.1 4.67267 -3.27135 0
M  V30 1864 O 172.034 3.55579 -4.85641 0
M  V30 1865 H 175.86 0.885886 -2.90492 0
M  V30 1866 H 173.445 0.372518 -1.44681 0
M  V30 1867 H 175.327 3.3192 -2.59629 0
M  V30 1868 H 174.002 2.87598 -1.48557 0
M  V30 1869 H 172.909 1.56632 -3.39731 0
M  V30 1870 H 174.242 2.07865 -4.46154 0
M  V30 1871 N 175.894 1.51508 0.433938 0
M  V30 1872 C 177.171 1.54888 1.19453 0
M  V30 1873 C 177.551 0.315154 2.08734 0
M  V30 1874 O 176.899 -0.699558 2.17528 0
M  V30 1875 C 177.109 2.86467 1.99342 0
M  V30 1876 C 178.457 3.38545 2.56267 0
M  V30 1877 O 179.481 2.88041 2.0955 0
M  V30 1878 O 178.34 4.26675 3.41483 0
M  V30 1879 H 175.434 0.622863 0.544032 0
M  V30 1880 H 177.98 1.63823 0.442732 0
M  V30 1881 H 176.752 3.67718 1.33788 0
M  V30 1882 H 176.375 2.8071 2.8158 0
M  V30 1883 N 177.372 -0.689602 1.41712 0
M  V30 1884 C 178.6 -1.47827 1.44758 0
M  V30 1885 C 179.015 -1.88721 0.0545703 0
M  V30 1886 O 178.372 -1.57176 -0.927463 0
M  V30 1887 C 178.423 -2.73698 2.3616 0
M  V30 1888 O 178.144 -2.34524 3.7004 0
M  V30 1889 C 179.645 -3.67389 2.48072 0
M  V30 1890 H 176.865 -0.455357 0.49284 0
M  V30 1891 H 179.409 -0.848574 1.86063 0
M  V30 1892 H 177.564 -3.32891 1.98148 0
M  V30 1893 H 177.978 -3.15701 4.18847 0
M  V30 1894 H 179.452 -4.52475 3.16181 0
M  V30 1895 H 179.929 -4.12284 1.51388 0
M  V30 1896 H 180.535 -3.14097 2.86746 0
M  V30 1897 N 178.85 -1.27639 -0.924453 0
M  V30 1898 C 180.099 -1.13549 -1.66702 0
M  V30 1899 C 180.412 0.317487 -1.93006 0
M  V30 1900 O 181.618 0.579333 -2.65247 0
M  V30 1901 C 180.074 -1.98426 -3.00259 0
M  V30 1902 C 179.682 -3.484 -2.81641 0
M  V30 1903 C 181.426 -1.92993 -3.78092 0
M  V30 1904 C 179.333 -4.25464 -4.10773 0
M  V30 1905 H 178.263 -0.421351 -0.625283 0
M  V30 1906 H 180.914 -1.52085 -1.02676 0
M  V30 1907 H 179.296 -1.52736 -3.6536 0
M  V30 1908 H 180.47 -4.01973 -2.25287 0
M  V30 1909 H 178.785 -3.55245 -2.17232 0
M  V30 1910 H 181.382 -2.47844 -4.7379 0
M  V30 1911 H 181.725 -0.904281 -4.0636 0
M  V30 1912 H 182.258 -2.36595 -3.19793 0
M  V30 1913 H 178.997 -5.28566 -3.87683 0
M  V30 1914 H 178.517 -3.76667 -4.66779 0
M  V30 1915 H 180.196 -4.34812 -4.79111 0
M  V30 1916 N 180.328 1.1314 -1.09713 0
M  V30 1917 C 181.275 2.18642 -0.739196 0
M  V30 1918 C 182.245 1.63706 0.280978 0
M  V30 1919 O 183.43 1.90111 0.161946 0
M  V30 1920 C 180.57 3.44685 -0.169102 0
M  V30 1921 C 179.683 4.13711 -1.24367 0
M  V30 1922 C 178.818 5.27379 -0.636019 0
M  V30 1923 C 177.857 5.88259 -1.69169 0
M  V30 1924 N 176.994 6.93352 -1.10485 0
M  V30 1925 H 181.834 2.48607 -1.64312 0
M  V30 1926 H 179.371 1.22066 -0.820875 0
M  V30 1927 H 181.329 4.16815 0.179256 0
M  V30 1928 H 179.959 3.15161 0.698079 0
M  V30 1929 H 179.011 3.39835 -1.70927 0
M  V30 1930 H 180.323 4.55037 -2.04311 0
M  V30 1931 H 179.477 6.06238 -0.236677 0
M  V30 1932 H 178.216 4.8731 0.194928 0
M  V30 1933 H 177.221 5.08092 -2.10055 0
M  V30 1934 H 178.446 6.30399 -2.52536 0
M  V30 1935 H 176.392 6.55335 -0.295234 0
M  V30 1936 H 176.309 7.33236 -1.84121 0
M  V30 1937 H 177.577 7.76057 -0.73181 0
M  V30 1938 N 181.806 0.884767 1.30421 0
M  V30 1939 C 182.753 0.349642 2.28136 0
M  V30 1940 C 183.723 -0.560061 1.56373 0
M  V30 1941 O 184.908 -0.488524 1.8444 0
M  V30 1942 C 182.048 -0.42999 3.42411 0
M  V30 1943 C 181.161 0.508907 4.28992 0
M  V30 1944 C 180.296 -0.286301 5.30428 0
M  V30 1945 C 179.335 0.648079 6.08659 0
M  V30 1946 N 178.472 -0.111792 7.02011 0
M  V30 1947 H 183.312 1.18807 2.73293 0
M  V30 1948 H 180.849 0.597231 1.3443 0
M  V30 1949 H 182.807 -0.897923 4.07423 0
M  V30 1950 H 181.437 -1.23299 2.98324 0
M  V30 1951 H 180.489 1.09533 3.64289 0
M  V30 1952 H 181.801 1.22475 4.8353 0
M  V30 1953 H 180.955 -0.816098 6.01186 0
M  V30 1954 H 179.694 -1.03536 4.76583 0
M  V30 1955 H 178.699 1.18951 5.36778 0
M  V30 1956 H 179.924 1.39623 6.64592 0
M  V30 1957 H 177.87 -0.843395 6.50556 0
M  V30 1958 H 177.787 0.544429 7.54037 0
M  V30 1959 H 179.055 -0.622339 7.77012 0
M  V30 1960 N 183.284 -1.43765 0.645699 0
M  V30 1961 C 184.247 -2.29163 -0.0409488 0
M  V30 1962 C 185.247 -1.41813 -0.757996 0
M  V30 1963 O 186.437 -1.63527 -0.600382 0
M  V30 1964 C 183.569 -3.23716 -1.06869 0
M  V30 1965 H 184.762 -2.91366 0.710345 0
M  V30 1966 H 182.315 -1.5092 0.406547 0
M  V30 1967 H 183.05 -2.66393 -1.84947 0
M  V30 1968 H 182.835 -3.88105 -0.558277 0
M  V30 1969 H 184.325 -3.87831 -1.54845 0
M  V30 1970 N 184.763 -0.387143 -1.52771 0
M  V30 1971 C 186.009 0.196025 -2.0185 0
M  V30 1972 C 186.342 1.46641 -1.27319 0
M  V30 1973 O 185.617 1.90889 -0.373032 0
M  V30 1974 C 185.9 0.466136 -3.5707 0
M  V30 1975 C 185.753 -0.819385 -4.42274 0
M  V30 1976 C 187.072 1.25768 -4.21747 0
M  V30 1977 H 184.191 0.0697708 -0.73369 0
M  V30 1978 H 186.833 -0.516286 -1.82851 0
M  V30 1979 H 184.983 1.07293 -3.7339 0
M  V30 1980 H 186.655 -1.4563 -4.37709 0
M  V30 1981 H 184.898 -1.43517 -4.09372 0
M  V30 1982 H 185.569 -0.585065 -5.48891 0
M  V30 1983 H 188.045 0.744167 -4.09391 0
M  V30 1984 H 186.921 1.41541 -5.30337 0
M  V30 1985 H 187.182 2.27228 -3.79236 0
M  V30 1986 N 186.241 1.57166 -0.116904 0
M  V30 1987 C 187.151 2.18745 0.847812 0
M  V30 1988 C 188.167 1.163 1.29423 0
M  V30 1989 O 189.343 1.48761 1.35765 0
M  V30 1990 C 186.408 2.77307 2.0809 0
M  V30 1991 C 185.469 3.94781 1.68661 0
M  V30 1992 C 184.702 4.50541 2.86091 0
M  V30 1993 O 184.925 4.05202 4.01456 0
M  V30 1994 O 183.859 5.41256 2.63298 0
M  V30 1995 H 187.685 3.01632 0.353778 0
M  V30 1996 H 185.27 1.49005 0.108599 0
M  V30 1997 H 187.152 3.14647 2.80313 0
M  V30 1998 H 185.827 1.97452 2.56504 0
M  V30 1999 H 184.734 3.62214 0.935518 0
M  V30 2000 H 186.067 4.76065 1.24991 0
M  V30 2001 N 187.719 -0.156864 1.56817 0
M  V30 2002 C 188.944 -0.890331 1.87318 0
M  V30 2003 C 189.369 -1.74394 0.704855 0
M  V30 2004 O 188.727 -1.77972 -0.345786 0
M  V30 2005 C 188.775 -1.73102 3.16336 0
M  V30 2006 O 187.879 -2.83422 2.99576 0
M  V30 2007 H 187.22 -0.24857 0.615718 0
M  V30 2008 H 189.75 -0.150649 2.04045 0
M  V30 2009 H 189.76 -2.12803 3.48107 0
M  V30 2010 H 188.435 -1.10412 4.00976 0
M  V30 2011 H 187.012 -2.47199 2.7919 0
M  V30 2012 N 189.197 -1.51736 -0.425897 0
M  V30 2013 C 190.127 -1.76827 -1.52494 0
M  V30 2014 C 191.108 -0.618524 -1.58456 0
M  V30 2015 O 192.293 -0.862416 -1.74 0
M  V30 2016 C 189.423 -1.90374 -2.90474 0
M  V30 2017 C 188.377 -3.0588 -2.99369 0
M  V30 2018 C 187.703 -3.04625 -4.3944 0
M  V30 2019 C 189.003 -4.45644 -2.72394 0
M  V30 2020 H 190.697 -2.68855 -1.31748 0
M  V30 2021 H 188.243 -1.29372 -0.632362 0
M  V30 2022 H 190.196 -2.0651 -3.6733 0
M  V30 2023 H 188.92 -0.95004 -3.12477 0
M  V30 2024 H 187.579 -2.89467 -2.24954 0
M  V30 2025 H 187.227 -2.0701 -4.58428 0
M  V30 2026 H 186.927 -3.82195 -4.46319 0
M  V30 2027 H 188.451 -3.22869 -5.18255 0
M  V30 2028 H 189.865 -4.62348 -3.38979 0
M  V30 2029 H 188.262 -5.25006 -2.9067 0
M  V30 2030 H 189.332 -4.54893 -1.67929 0
M  V30 2031 N 190.675 0.682077 -1.42076 0
M  V30 2032 C 191.9 1.47558 -1.45744 0
M  V30 2033 C 192.325 1.87977 -0.0680981 0
M  V30 2034 O 191.683 1.55522 0.9318 0
M  V30 2035 C 191.731 2.70575 -2.38373 0
M  V30 2036 O 190.835 3.68573 -1.85007 0
M  V30 2037 H 190.176 0.443585 -0.494093 0
M  V30 2038 H 192.706 0.837238 -1.86686 0
M  V30 2039 H 192.716 3.18729 -2.54707 0
M  V30 2040 H 191.391 2.40495 -3.39315 0
M  V30 2041 H 189.968 3.2757 -1.78192 0
M  V30 2042 N 192.153 1.28127 0.917671 0
M  V30 2043 C 193.083 1.14248 2.03641 0
M  V30 2044 C 194.064 0.0412748 1.7005 0
M  V30 2045 O 195.249 0.217566 1.92977 0
M  V30 2046 C 192.379 0.799431 3.37974 0
M  V30 2047 C 191.333 1.85497 3.85713 0
M  V30 2048 C 190.659 1.36565 5.16966 0
M  V30 2049 C 191.959 3.26085 4.08002 0
M  V30 2050 H 193.653 2.07835 2.15511 0
M  V30 2051 H 191.199 1.00064 1.03553 0
M  V30 2052 H 193.152 0.689114 4.15727 0
M  V30 2053 H 191.876 -0.172145 3.26146 0
M  V30 2054 H 190.535 1.95437 3.10161 0
M  V30 2055 H 190.183 0.383253 5.01538 0
M  V30 2056 H 189.883 2.07143 5.49878 0
M  V30 2057 H 191.407 1.26848 5.97279 0
M  V30 2058 H 192.821 3.19089 4.76293 0
M  V30 2059 H 191.218 3.94462 4.52238 0
M  V30 2060 H 192.288 3.70394 3.12948 0
M  V30 2061 N 193.631 -1.12557 1.10312 0
M  V30 2062 C 194.541 -2.21841 0.763142 0
M  V30 2063 C 195.557 -1.72354 -0.238801 0
M  V30 2064 O 196.733 -2.01249 -0.0778746 0
M  V30 2065 C 193.798 -3.46131 0.198632 0
M  V30 2066 C 192.859 -4.10464 1.25769 0
M  V30 2067 C 192.092 -5.28821 0.72002 0
M  V30 2068 O 192.315 -5.6859 -0.453993 0
M  V30 2069 O 191.249 -5.83437 1.47935 0
M  V30 2070 H 195.075 -2.53312 1.67532 0
M  V30 2071 H 192.66 -1.20867 0.878157 0
M  V30 2072 H 194.542 -4.2125 -0.112401 0
M  V30 2073 H 193.217 -3.16338 -0.686419 0
M  V30 2074 H 192.124 -3.3713 1.62156 0
M  V30 2075 H 193.457 -4.44408 2.11571 0
M  V30 2076 N 195.109 -0.891671 -1.2995 0
M  V30 2077 C 196.039 -0.379797 -2.30391 0
M  V30 2078 C 197.02 0.540919 -1.6127 0
M  V30 2079 O 198.205 0.453352 -1.88834 0
M  V30 2080 C 195.335 0.400654 -3.44981 0
M  V30 2081 C 194.289 -0.428905 -4.25846 0
M  V30 2082 C 193.615 0.478557 -5.32554 0
M  V30 2083 C 194.915 -1.67458 -4.94727 0
M  V30 2084 H 196.609 -1.21914 -2.73454 0
M  V30 2085 H 194.155 -0.587675 -1.31462 0
M  V30 2086 H 196.108 0.769434 -4.14316 0
M  V30 2087 H 194.832 1.27371 -3.0074 0
M  V30 2088 H 193.491 -0.779911 -3.58208 0
M  V30 2089 H 193.139 1.34951 -4.84559 0
M  V30 2090 H 192.839 -0.0727433 -5.87555 0
M  V30 2091 H 194.363 0.843705 -6.04743 0
M  V30 2092 H 195.777 -1.376 -5.56542 0
M  V30 2093 H 194.174 -2.16659 -5.59624 0
M  V30 2094 H 195.244 -2.41518 -4.20473 0
M  V30 2095 N 196.587 1.43421 -0.653314 0
M  V30 2096 C 197.833 2.02111 -0.166992 0
M  V30 2097 C 198.166 1.51423 1.21592 0
M  V30 2098 O 197.441 0.707389 1.8118 0
M  V30 2099 C 197.724 3.5966 -0.177948 0
M  V30 2100 C 197.577 4.20579 -1.59478 0
M  V30 2101 C 198.896 4.37413 0.4856 0
M  V30 2102 H 196.015 0.734374 -0.0621557 0
M  V30 2103 H 198.657 1.70717 -0.834016 0
M  V30 2104 H 196.807 3.86537 0.390032 0
M  V30 2105 H 198.479 4.04732 -2.21336 0
M  V30 2106 H 196.722 3.77226 -2.14204 0
M  V30 2107 H 197.393 5.29665 -1.5543 0
M  V30 2108 H 199.869 4.161 0.00234528 0
M  V30 2109 H 198.745 5.47075 0.447207 0
M  V30 2110 H 199.006 4.13672 1.55974 0
M  V30 2111 N 198.065 0.39524 1.52563 0
M  V30 2112 C 198.995 -0.428384 2.29537 0
M  V30 2113 C 199.976 -1.05831 1.33169 0
M  V30 2114 O 201.161 -1.06995 1.62067 0
M  V30 2115 C 198.291 -1.55274 3.10656 0
M  V30 2116 C 197.245 -1.04855 4.14957 0
M  V30 2117 C 196.571 -2.26543 4.84337 0
M  V30 2118 C 197.871 -0.112324 5.22179 0
M  V30 2119 H 199.565 0.213867 2.98635 0
M  V30 2120 H 197.111 0.104298 1.43622 0
M  V30 2121 H 199.064 -2.1358 3.63265 0
M  V30 2122 H 197.788 -2.22266 2.39302 0
M  V30 2123 H 196.447 -0.487985 3.63338 0
M  V30 2124 H 196.095 -2.92059 4.09525 0
M  V30 2125 H 195.795 -1.93466 5.54837 0
M  V30 2126 H 197.319 -2.85481 5.39753 0
M  V30 2127 H 198.733 -0.603752 5.70112 0
M  V30 2128 H 197.13 0.128968 5.99961 0
M  V30 2129 H 198.2 0.837052 4.77621 0
M  V30 2130 N 199.544 -1.57102 0.125237 0
M  V30 2131 C 200.772 -1.99761 -0.538797 0
M  V30 2132 C 201.187 -1.00503 -1.59827 0
M  V30 2133 O 200.544 0.00119474 -1.825 0
M  V30 2134 C 200.595 -3.42408 -1.15927 0
M  V30 2135 O 200.316 -4.37869 -0.142143 0
M  V30 2136 C 201.817 -4.00232 -1.90602 0
M  V30 2137 H 199.037 -0.655772 -0.14214 0
M  V30 2138 H 201.581 -2.03383 0.213413 0
M  V30 2139 H 199.736 -3.39706 -1.86223 0
M  V30 2140 H 200.15 -5.21128 -0.593775 0
M  V30 2141 H 201.624 -5.02105 -2.29335 0
M  V30 2142 H 202.101 -3.39721 -2.78363 0
M  V30 2143 H 202.707 -4.06499 -1.25055 0
M  V30 2144 N 201.022 0.148545 -1.56898 0
M  V30 2145 C 201.985 1.16736 -1.97244 0
M  V30 2146 C 202.985 1.35947 -0.858777 0
M  V30 2147 O 204.175 1.32966 -1.12542 0
M  V30 2148 C 201.307 2.52798 -2.28705 0
M  V30 2149 H 202.5 0.821279 -2.88435 0
M  V30 2150 H 200.053 0.391831 -1.51309 0
M  V30 2151 H 200.788 2.92381 -1.403 0
M  V30 2152 H 200.573 2.40216 -3.09901 0
M  V30 2153 H 202.063 3.26179 -2.60762 0
M  V30 2154 N 202.5 1.5196 0.417844 0
M  V30 2155 C 203.45 1.7106 1.5074 0
M  V30 2156 C 204.434 0.564487 1.50673 0
M  V30 2157 O 205.626 0.821206 1.56797 0
M  V30 2158 C 202.755 1.85677 2.88754 0
M  V30 2159 C 201.841 3.06133 2.93502 0
M  V30 2160 N 202.232 4.28987 2.67962 0
M  V30 2161 C 200.53 3.05787 3.24669 0
M  V30 2162 C 201.231 5.10395 2.79055 0
M  V30 2163 N 200.207 4.45455 3.11561 0
M  V30 2164 H 204.009 2.63696 1.29775 0
M  V30 2165 H 201.523 1.49873 0.625436 0
M  V30 2166 H 203.52 1.97475 3.67164 0
M  V30 2167 H 202.18 0.942348 3.10725 0
M  V30 2168 H 203.191 4.57607 2.4252 0
M  V30 2169 H 199.868 2.2405 3.52289 0
M  V30 2170 H 201.258 6.18247 2.63097 0
M  V30 2171 N 203.978 -0.674533 1.42435 0
M  V30 2172 C 205.389 -1.25514 1.38214 0
M  V30 2173 C 205.74 -1.96055 0.0755464 0
M  V30 2174 O 204.865 -2.00028 -0.8257 0
M  V30 2175 C 205.46 -2.28269 2.50357 0
M  V30 2176 C 204.019 -2.81856 2.49467 0
M  V30 2177 C 203.166 -1.56182 2.29134 0
M  V30 2178 H 206.117 -0.467902 1.51646 0
M  V30 2179 H 206.138 -3.10009 2.20624 0
M  V30 2180 H 205.65 -1.769 3.45439 0
M  V30 2181 H 203.751 -3.37346 1.58204 0
M  V30 2182 H 203.864 -3.30854 3.46515 0
M  V30 2183 H 202.228 -1.82761 1.774 0
M  V30 2184 H 203.011 -1.06778 3.26272 0
M  V30 2185 N 205.456 -1.28612 -0.910864 0
M  V30 2186 C 206.684 -1.18792 -1.69399 0
M  V30 2187 C 207.099 0.253039 -1.87097 0
M  V30 2188 O 206.456 1.17071 -1.40003 0
M  V30 2189 C 206.507 -1.88511 -3.08457 0
M  V30 2190 O 206.228 -3.26979 -2.91576 0
M  V30 2191 C 207.729 -1.85029 -4.02839 0
M  V30 2192 H 204.949 -0.412233 -0.529438 0
M  V30 2193 H 207.493 -1.69788 -1.13984 0
M  V30 2194 H 205.648 -1.41379 -3.60681 0
M  V30 2195 H 206.062 -3.61936 -3.79608 0
M  V30 2196 H 207.536 -2.38395 -4.97867 0
M  V30 2197 H 208.013 -0.823303 -4.31414 0
M  V30 2198 H 208.619 -2.31853 -3.56545 0
M  V30 2199 N 206.934 1.1197 -1.10907 0
M  V30 2200 C 207.844 2.21433 -0.774896 0
M  V30 2201 C 208.86 1.72478 0.229657 0
M  V30 2202 O 210.036 2.01288 0.0672008 0
M  V30 2203 C 207.101 3.4602 -0.216986 0
M  V30 2204 C 206.162 4.09791 -1.27944 0
M  V30 2205 C 205.395 5.28431 -0.748055 0
M  V30 2206 O 205.618 5.68823 0.423833 0
M  V30 2207 O 204.552 5.82644 -1.51027 0
M  V30 2208 H 208.378 2.5242 -1.68873 0
M  V30 2209 H 205.963 1.20399 -0.884555 0
M  V30 2210 H 207.845 4.21304 0.090059 0
M  V30 2211 H 206.52 3.16698 0.669633 0
M  V30 2212 H 205.427 3.36265 -1.63941 0
M  V30 2213 H 206.76 4.4328 -2.13925 0
M  V30 2214 N 208.412 0.89855 1.29475 0
M  V30 2215 C 209.661 0.519863 1.94885 0
M  V30 2216 C 209.974 -0.9383 1.71625 0
M  V30 2217 O 211.18 -1.42445 2.31131 0
M  V30 2218 C 209.636 0.878836 3.49005 0
M  V30 2219 C 209.244 2.35569 3.81066 0
M  V30 2220 C 210.988 0.570004 4.20656 0
M  V30 2221 C 208.895 2.65558 5.28425 0
M  V30 2222 H 207.825 0.190692 0.729488 0
M  V30 2223 H 210.476 1.09539 1.47219 0
M  V30 2224 H 208.858 0.232253 3.95318 0
M  V30 2225 H 210.032 3.04773 3.45616 0
M  V30 2226 H 208.347 2.63343 3.22552 0
M  V30 2227 H 210.944 0.770925 5.29113 0
M  V30 2228 H 211.287 -0.491404 4.1339 0
M  V30 2229 H 211.82 1.17438 3.8007 0
M  V30 2230 H 208.559 3.70493 5.40754 0
M  V30 2231 H 208.079 2.00977 5.65127 0
M  V30 2232 H 209.758 2.51765 5.96006 0
M  V30 2233 N 209.89 -1.43072 0.660911 0
M  V30 2234 C 211.118 -2.06067 0.185422 0
M  V30 2235 C 211.533 -1.49582 -1.15198 0
M  V30 2236 O 210.89 -0.630134 -1.71276 0
M  V30 2237 C 210.941 -3.61371 0.0966523 0
M  V30 2238 O 210.662 -4.15758 1.38119 0
M  V30 2239 C 212.163 -4.41455 -0.403996 0
M  V30 2240 H 209.383 -0.664459 0.0934604 0
M  V30 2241 H 211.927 -1.83447 0.90373 0
M  V30 2242 H 210.082 -3.8315 -0.572259 0
M  V30 2243 H 210.496 -5.09499 1.24542 0
M  V30 2244 H 211.97 -5.50437 -0.415045 0
M  V30 2245 H 212.447 -4.15036 -1.43674 0
M  V30 2246 H 213.053 -4.24663 0.232691 0
M  V30 2247 N 211.368 -0.403325 -1.52352 0
M  V30 2248 C 212.784 -0.0539281 -1.59509 0
M  V30 2249 C 212.984 1.43307 -1.41652 0
M  V30 2250 O 212.04 2.19924 -1.24056 0
M  V30 2251 C 213.353 -0.543654 -2.95745 0
M  V30 2252 C 214.901 -0.501125 -3.08962 0
M  V30 2253 C 215.376 -0.967267 -4.47669 0
M  V30 2254 N 216.867 -0.923849 -4.53893 0
M  V30 2255 C 217.602 -1.25578 -5.5948 0
M  V30 2256 N 217.098 -1.65889 -6.72646 0
M  V30 2257 N 218.891 -1.17613 -5.49658 0
M  V30 2258 H 211.042 -1.37123 -1.62206 0
M  V30 2259 H 213.305 -0.56294 -0.76276 0
M  V30 2260 H 213.011 -1.58275 -3.14073 0
M  V30 2261 H 212.885 0.0498042 -3.77167 0
M  V30 2262 H 215.272 0.528909 -2.90321 0
M  V30 2263 H 215.353 -1.13056 -2.2946 0
M  V30 2264 H 214.997 -1.9956 -4.67053 0
M  V30 2265 H 214.927 -0.314698 -5.25659 0
M  V30 2266 H 217.418 -0.627403 -3.72655 0
M  V30 2267 H 217.731 -1.89543 -7.49195 0
M  V30 2268 H 216.076 -1.69787 -6.73942 0
M  V30 2269 H 219.267 -0.860115 -4.6013 0
M  V30 2270 H 219.44 -1.43812 -6.3184 0
M  V30 2271 N 212.846 1.57033 -0.133567 0
M  V30 2272 C 214.262 1.58035 0.222944 0
M  V30 2273 C 214.462 1.14713 1.6566 0
M  V30 2274 O 213.518 0.841218 2.38075 0
M  V30 2275 C 214.831 3.00691 -0.0236116 0
M  V30 2276 C 216.379 3.12973 0.0411512 0
M  V30 2277 C 216.854 4.57654 -0.177899 0
M  V30 2278 N 218.345 4.63033 -0.124365 0
M  V30 2279 C 219.08 5.72771 -0.268553 0
M  V30 2280 N 218.576 6.91206 -0.46972 0
M  V30 2281 N 220.369 5.61718 -0.2071 0
M  V30 2282 H 212.52 1.8349 -1.06981 0
M  V30 2283 H 214.783 0.848677 -0.422436 0
M  V30 2284 H 214.489 3.36726 -1.0153 0
M  V30 2285 H 214.363 3.70614 0.701808 0
M  V30 2286 H 216.75 2.76787 1.02338 0
M  V30 2287 H 216.831 2.45564 -0.716383 0
M  V30 2288 H 216.475 4.94542 -1.15717 0
M  V30 2289 H 216.405 5.23173 0.599797 0
M  V30 2290 H 218.896 3.7789 0.027011 0
M  V30 2291 H 219.209 7.70693 -0.570212 0
M  V30 2292 H 217.554 6.93156 -0.505876 0
M  V30 2293 H 220.745 4.68072 -0.0507986 0
M  V30 2294 H 220.918 6.47195 -0.322909 0
M  V30 2295 N 214.325 -0.140222 1.56975 0
M  V30 2296 C 215.553 -0.866437 1.87884 0
M  V30 2297 C 215.968 -1.74428 0.722517 0
M  V30 2298 O 215.325 -1.79891 -0.30749 0
M  V30 2299 C 215.376 -1.71753 3.18093 0
M  V30 2300 O 215.097 -0.875056 4.29272 0
M  V30 2301 C 216.598 -2.55074 3.62563 0
M  V30 2302 H 213.818 -0.25019 0.622612 0
M  V30 2303 H 216.362 -0.130977 2.0408 0
M  V30 2304 H 214.517 -2.40598 3.03631 0
M  V30 2305 H 214.931 -1.46002 5.03769 0
M  V30 2306 H 216.405 -3.10356 4.5649 0
M  V30 2307 H 216.882 -3.31434 2.88181 0
M  V30 2308 H 217.488 -1.91509 3.79743 0
M  V30 2309 N 215.803 -1.52179 -0.40978 0
M  V30 2310 C 216.733 -1.78435 -1.5061 0
M  V30 2311 C 217.714 -0.635295 -1.57791 0
M  V30 2312 O 218.899 -0.880823 -1.73076 0
M  V30 2313 C 216.029 -1.93444 -2.88439 0
M  V30 2314 C 214.983 -3.09038 -2.96108 0
M  V30 2315 C 214.309 -3.09268 -4.36185 0
M  V30 2316 C 215.609 -4.48508 -2.67652 0
M  V30 2317 H 217.303 -2.70237 -1.28889 0
M  V30 2318 H 214.849 -1.30036 -0.618605 0
M  V30 2319 H 216.802 -2.10394 -3.65119 0
M  V30 2320 H 215.526 -0.983129 -3.11452 0
M  V30 2321 H 214.185 -2.91837 -2.21872 0
M  V30 2322 H 213.833 -2.11861 -4.56206 0
M  V30 2323 H 213.533 -3.86907 -4.42241 0
M  V30 2324 H 215.057 -3.28348 -5.14801 0
M  V30 2325 H 216.471 -4.65918 -3.34056 0
M  V30 2326 H 214.868 -5.28059 -2.85085 0
M  V30 2327 H 215.938 -4.56649 -1.63095 0
M  V30 2328 N 217.281 0.66697 -1.42791 0
M  V30 2329 C 218.53 1.42278 -1.42968 0
M  V30 2330 C 218.843 1.9553 -0.0524489 0
M  V30 2331 O 220.049 2.71414 0.068363 0
M  V30 2332 C 218.505 2.57418 -2.51524 0
M  V30 2333 C 218.113 2.10832 -3.9529 0
M  V30 2334 C 219.857 3.34878 -2.60877 0
M  V30 2335 C 217.764 3.23101 -4.95338 0
M  V30 2336 H 216.694 0.534533 -0.531781 0
M  V30 2337 H 219.345 0.721302 -1.68729 0
M  V30 2338 H 217.727 3.29971 -2.18941 0
M  V30 2339 H 218.901 1.4538 -4.37266 0
M  V30 2340 H 217.216 1.46289 -3.89857 0
M  V30 2341 H 219.813 4.18505 -3.32802 0
M  V30 2342 H 220.156 3.81993 -1.6549 0
M  V30 2343 H 220.689 2.69398 -2.92693 0
M  V30 2344 H 217.428 2.80969 -5.9223 0
M  V30 2345 H 216.948 3.87309 -4.57987 0
M  V30 2346 H 218.627 3.88447 -5.17415 0
M  V30 2347 N 218.759 1.29093 0.90403 0
M  V30 2348 C 219.709 1.10482 1.99443 0
M  V30 2349 C 220.693 0.0255401 1.6088 0
M  V30 2350 O 221.885 0.24677 1.75271 0
M  V30 2351 C 219.014 0.778882 3.34348 0
M  V30 2352 C 218.1 1.89749 3.79284 0
M  V30 2353 N 218.491 3.14045 3.96497 0
M  V30 2354 C 216.789 1.78955 4.08523 0
M  V30 2355 C 217.49 3.86996 4.34292 0
M  V30 2356 N 216.466 3.14909 4.43095 0
M  V30 2357 H 220.268 2.04778 2.10815 0
M  V30 2358 H 217.782 1.20155 1.09255 0
M  V30 2359 H 219.779 0.62661 4.12164 0
M  V30 2360 H 218.439 -0.156205 3.24324 0
M  V30 2361 H 219.45 3.49548 3.82148 0
M  V30 2362 H 216.127 0.926886 4.07081 0
M  V30 2363 H 217.517 4.93941 4.55491 0
M  V30 2364 N 220.237 -1.11381 1.11499 0
M  V30 2365 C 221.184 -2.17439 0.773887 0
M  V30 2366 C 222.154 -1.64132 -0.254899 0
M  V30 2367 O 223.339 -1.90345 -0.13168 0
M  V30 2368 C 220.479 -3.44373 0.223917 0
M  V30 2369 C 219.592 -4.1168 1.30934 0
M  V30 2370 C 218.727 -5.263 0.71984 0
M  V30 2371 C 217.766 -5.85493 1.78507 0
M  V30 2372 N 216.903 -6.91507 1.21502 0
M  V30 2373 H 221.743 -2.45962 1.68246 0
M  V30 2374 H 219.28 -1.20744 0.840191 0
M  V30 2375 H 221.238 -4.17047 -0.112921 0
M  V30 2376 H 219.868 -3.16232 -0.647851 0
M  V30 2377 H 218.92 -3.37073 1.76312 0
M  V30 2378 H 220.232 -4.51729 2.11524 0
M  V30 2379 H 219.386 -6.05785 0.333094 0
M  V30 2380 H 218.125 -4.87559 -0.117377 0
M  V30 2381 H 217.13 -5.04686 2.18111 0
M  V30 2382 H 218.355 -6.26301 2.62533 0
M  V30 2383 H 216.301 -6.54783 0.399455 0
M  V30 2384 H 216.218 -7.30214 1.95763 0
M  V30 2385 H 217.486 -7.74795 0.855181 0
M  V30 2386 N 221.715 -0.905404 -1.28997 0
M  V30 2387 C 222.648 -0.331959 -2.25773 0
M  V30 2388 C 223.626 0.559099 -1.52685 0
M  V30 2389 O 224.81 0.50463 -1.8162 0
M  V30 2390 C 221.937 0.526276 -3.34586 0
M  V30 2391 C 220.983 -0.298249 -4.25456 0
M  V30 2392 S 221.816 -1.69968 -5.0781 0
M  V30 2393 C 222.972 -0.848519 -6.20122 0
M  V30 2394 H 223.205 -1.15222 -2.74064 0
M  V30 2395 H 220.738 -0.706112 -1.37308 0
M  V30 2396 H 222.696 1.01565 -3.97737 0
M  V30 2397 H 221.357 1.32084 -2.84978 0
M  V30 2398 H 220.55 0.357607 -5.0273 0
M  V30 2399 H 220.152 -0.720968 -3.66985 0
M  V30 2400 H 222.444 -0.0744325 -6.77459 0
M  V30 2401 H 223.387 -1.59353 -6.89937 0
M  V30 2402 H 223.795 -0.400383 -5.63078 0
M  V30 2403 N 223.193 1.4272 -0.668489 0
M  V30 2404 C 224.439 2.01923 -0.188419 0
M  V30 2405 C 224.772 1.52704 1.19979 0
M  V30 2406 O 224.047 0.726566 1.8042 0
M  V30 2407 C 224.33 3.59451 -0.216085 0
M  V30 2408 C 224.183 4.18864 -1.6393 0
M  V30 2409 C 225.502 4.37903 0.439179 0
M  V30 2410 H 222.621 0.733674 -0.0699412 0
M  V30 2411 H 225.263 1.69822 -0.852076 0
M  V30 2412 H 223.413 3.86929 0.349012 0
M  V30 2413 H 225.085 4.02362 -2.25616 0
M  V30 2414 H 223.328 3.74933 -2.18193 0
M  V30 2415 H 223.999 5.27987 -1.61039 0
M  V30 2416 H 226.475 4.16079 -0.0417878 0
M  V30 2417 H 225.351 5.47519 0.389157 0
M  V30 2418 H 225.612 4.15303 1.51577 0
M  V30 2419 N 224.671 0.411399 1.52136 0
M  V30 2420 C 225.581 -0.419774 2.30814 0
M  V30 2421 C 226.597 -1.0515 1.38634 0
M  V30 2422 O 227.773 -1.05252 1.71709 0
M  V30 2423 C 224.838 -1.52019 3.11594 0
M  V30 2424 C 223.899 -0.91129 4.19516 0
M  V30 2425 C 223.132 -1.95927 4.96436 0
M  V30 2426 O 223.355 -3.17775 4.73683 0
M  V30 2427 O 222.289 -1.56423 5.81219 0
M  V30 2428 H 226.115 0.221805 3.02889 0
M  V30 2429 H 223.7 0.174547 1.48377 0
M  V30 2430 H 225.582 -2.15898 3.61892 0
M  V30 2431 H 224.257 -2.14633 2.42311 0
M  V30 2432 H 223.164 -0.235157 3.7336 0
M  V30 2433 H 224.497 -0.32904 4.91099 0
M  V30 2434 N 226.149 -1.5696 0.141893 0
M  V30 2435 C 227.395 -1.9625 -0.511248 0
M  V30 2436 C 227.728 -1.02654 -1.64851 0
M  V30 2437 O 227.003 -0.0679676 -1.94381 0
M  V30 2438 C 227.286 -3.45285 -1.02227 0
M  V30 2439 C 227.139 -4.49658 0.113138 0
M  V30 2440 C 228.458 -3.96698 -1.90574 0
M  V30 2441 H 225.577 -0.713567 -0.184367 0
M  V30 2442 H 228.219 -1.88698 0.222087 0
M  V30 2443 H 226.369 -3.51852 -1.64719 0
M  V30 2444 H 228.041 -4.55174 0.749302 0
M  V30 2445 H 226.284 -4.26857 0.773026 0
M  V30 2446 H 226.955 -5.51258 -0.286053 0
M  V30 2447 H 229.431 -3.92578 -1.37918 0
M  V30 2448 H 228.307 -5.01453 -2.2324 0
M  V30 2449 H 228.568 -3.3875 -2.84079 0
M  V30 2450 N 227.627 0.131896 -1.57047 0
M  V30 2451 C 228.575 1.18146 -2.0036 0
M  V30 2452 C 229.569 1.43614 -0.898406 0
M  V30 2453 O 230.775 1.43729 -1.08361 0
M  V30 2454 H 227.15 0.398042 -0.638018 0
M  V30 2455 H 229.121 0.789564 -2.87765 0
M  V30 2456 C 227.87 2.50341 -2.41298 0
M  V30 2457 H 227.193 2.31578 -3.25902 0
M  V30 2458 H 228.633 3.22371 -2.75414 0
M  V30 2459 C 227.092 3.11984 -1.27153 0
M  V30 2460 O 227.622 3.97484 -0.580459 0
M  V30 2461 N 225.828 2.71662 -1.03189 0
M  V30 2462 H 225.375 2.02231 -1.59564 0
M  V30 2463 H 225.333 3.13238 -0.270077 0
M  V30 2464 N 229.106 1.52395 0.401703 0
M  V30 2465 C 230.069 1.75636 1.47257 0
M  V30 2466 C 231.069 0.62628 1.48103 0
M  V30 2467 O 232.259 0.894227 1.49497 0
M  V30 2468 C 229.391 1.84553 2.86624 0
M  V30 2469 H 230.584 2.71241 1.27938 0
M  V30 2470 H 228.137 1.42923 0.632662 0
M  V30 2471 H 228.872 0.908882 3.11303 0
M  V30 2472 H 228.657 2.66715 2.87412 0
M  V30 2473 H 230.147 2.04251 3.64241 0
M  V30 2474 N 230.584 -0.659388 1.43143 0
M  V30 2475 C 231.824 -1.43121 1.45931 0
M  V30 2476 C 232.188 -1.91838 0.0789298 0
M  V30 2477 O 233.389 -2.68794 -0.018491 0
M  V30 2478 C 231.66 -2.58534 2.46769 0
M  V30 2479 S 233.219 -3.47154 2.68384 0
M  V30 2480 H 230.037 -0.488624 0.516496 0
M  V30 2481 H 232.639 -0.766128 1.79863 0
M  V30 2482 H 231.343 -2.21007 3.45809 0
M  V30 2483 H 230.874 -3.29898 2.14315 0
M  V30 2484 H 232.889 -4.55051 1.97845 0
M  V30 2485 N 232.062 -1.29571 -0.897171 0
M  V30 2486 C 232.992 -1.17473 -2.01798 0
M  V30 2487 C 233.973 -0.068323 -1.69963 0
M  V30 2488 O 235.158 -0.248239 -1.92607 0
M  V30 2489 C 232.288 -0.853099 -3.36659 0
M  V30 2490 C 231.242 -1.9161 -3.82713 0
M  V30 2491 C 230.568 -1.44773 -5.14728 0
M  V30 2492 C 231.868 -3.32535 -4.02763 0
M  V30 2493 H 233.562 -2.11237 -2.12177 0
M  V30 2494 H 231.108 -1.01699 -1.01948 0
M  V30 2495 H 233.061 -0.755165 -4.14578 0
M  V30 2496 H 231.785 0.120236 -3.26379 0
M  V30 2497 H 230.444 -2.00346 -3.07013 0
M  V30 2498 H 230.092 -0.462995 -5.00865 0
M  V30 2499 H 229.792 -2.15865 -5.46513 0
M  V30 2500 H 231.316 -1.36334 -5.95185 0
M  V30 2501 H 232.73 -3.26626 -4.71156 0
M  V30 2502 H 231.127 -4.01607 -4.45905 0
M  V30 2503 H 232.197 -3.75326 -3.07016 0
M  V30 2504 N 233.54 1.10788 -1.12088 0
M  V30 2505 C 234.487 2.17025 -0.785407 0
M  V30 2506 C 235.457 1.64265 0.246191 0
M  V30 2507 O 236.642 1.90412 0.121584 0
M  V30 2508 C 233.782 3.44249 -0.242177 0
M  V30 2509 C 232.895 4.1098 -1.33115 0
M  V30 2510 C 232.03 5.25911 -0.747741 0
M  V30 2511 C 231.069 5.84538 -1.81609 0
M  V30 2512 N 230.206 6.90853 -1.25167 0
M  V30 2513 H 235.046 2.45066 -1.69548 0
M  V30 2514 H 232.583 1.20297 -0.846582 0
M  V30 2515 H 234.541 4.17101 0.0908026 0
M  V30 2516 H 233.171 3.16571 0.631072 0
M  V30 2517 H 232.223 3.36133 -1.78097 0
M  V30 2518 H 233.535 4.50601 -2.13917 0
M  V30 2519 H 232.689 6.056 -0.365216 0
M  V30 2520 H 231.428 4.87614 0.0915188 0
M  V30 2521 H 230.433 5.03522 -2.20785 0
M  V30 2522 H 231.658 6.249 -2.6585 0
M  V30 2523 H 229.604 6.54562 -0.434174 0
M  V30 2524 H 229.521 7.29166 -1.99633 0
M  V30 2525 H 230.789 7.7433 -0.896259 0
M  V30 2526 N 235.018 0.912232 1.28515 0
M  V30 2527 C 235.95 0.35676 2.26406 0
M  V30 2528 C 236.963 -0.503933 1.54804 0
M  V30 2529 O 238.152 -0.319059 1.75625 0
M  V30 2530 C 235.252 -0.508825 3.35058 0
M  V30 2531 C 234.425 0.329007 4.36161 0
M  V30 2532 C 233.484 -0.471422 5.24084 0
M  V30 2533 O 232.51 0.115482 5.69083 0
M  V30 2534 N 233.712 -1.77479 5.52704 0
M  V30 2535 H 236.477 1.19818 2.74707 0
M  V30 2536 H 234.038 0.778022 1.4198 0
M  V30 2537 H 236.03 -1.051 3.90815 0
M  V30 2538 H 234.6 -1.25095 2.86478 0
M  V30 2539 H 233.82 1.05256 3.79888 0
M  V30 2540 H 235.108 0.90234 5.00735 0
M  V30 2541 H 234.506 -2.27417 5.17975 0
M  V30 2542 H 233.063 -2.26382 6.11224 0
M  V30 2543 N 236.496 -1.42363 0.676048 0
M  V30 2544 C 237.426 -2.33497 0.0124832 0
M  V30 2545 C 238.407 -1.50748 -0.787981 0
M  V30 2546 O 239.592 -1.79346 -0.744884 0
M  V30 2547 C 236.722 -3.34377 -0.938582 0
M  V30 2548 C 235.676 -4.27289 -0.246622 0
M  V30 2549 C 235.002 -5.18386 -1.31071 0
M  V30 2550 C 236.302 -5.14916 0.875125 0
M  V30 2551 H 237.996 -2.89233 0.773593 0
M  V30 2552 H 235.542 -1.39073 0.37346 0
M  V30 2553 H 237.495 -3.97044 -1.41188 0
M  V30 2554 H 236.219 -2.76947 -1.73113 0
M  V30 2555 H 234.878 -3.66018 0.206456 0
M  V30 2556 H 234.526 -4.57282 -2.09528 0
M  V30 2557 H 234.226 -5.81378 -0.852839 0
M  V30 2558 H 235.75 -5.83929 -1.78492 0
M  V30 2559 H 237.164 -5.71262 0.482983 0
M  V30 2560 H 235.561 -5.86747 1.25887 0
M  V30 2561 H 236.631 -4.53242 1.72335 0
M  V30 2562 N 237.974 -0.419461 -1.51915 0
M  V30 2563 C 239.251 0.211999 -1.94448 0
M  V30 2564 C 239.631 1.61703 -1.35703 0
M  V30 2565 O 238.979 2.22102 -0.536931 0
M  V30 2566 C 239.189 0.207872 -3.4838 0
M  V30 2567 C 240.537 0.422192 -4.22496 0
M  V30 2568 O 241.561 0.286778 -3.55044 0
M  V30 2569 O 240.42 0.690009 -5.42126 0
M  V30 2570 H 237.514 0.139586 -0.815135 0
M  V30 2571 H 240.06 -0.476151 -1.62883 0
M  V30 2572 H 238.832 -0.775102 -3.83546 0
M  V30 2573 H 238.455 0.939688 -3.86336 0
M  V30 2574 N 239.452 1.56882 -0.150215 0
M  V30 2575 C 240.4 2.18214 0.805313 0
M  V30 2576 C 241.394 1.14006 1.25296 0
M  V30 2577 O 242.6 1.3225 1.22107 0
M  V30 2578 H 238.975 0.698762 0.277913 0
M  V30 2579 H 240.946 2.97231 0.263862 0
M  V30 2580 C 239.695 2.82065 2.03309 0
M  V30 2581 H 239.018 3.61968 1.69763 0
M  V30 2582 H 240.458 3.28477 2.68103 0
M  V30 2583 C 238.917 1.80739 2.84315 0
M  V30 2584 O 239.447 1.27983 3.80767 0
M  V30 2585 N 237.653 1.4997 2.48913 0
M  V30 2586 H 237.2 1.93062 1.70542 0
M  V30 2587 H 237.158 0.824217 3.03404 0
M  V30 2588 N 240.93 -0.123565 1.57115 0
M  V30 2589 C 241.877 -1.15177 2.00007 0
M  V30 2590 C 242.847 -1.41403 0.871454 0
M  V30 2591 O 244.032 -1.53346 1.13533 0
M  V30 2592 C 241.172 -2.47436 2.40561 0
M  V30 2593 C 240.285 -2.28184 3.66819 0
M  V30 2594 C 239.42 -3.53641 3.96373 0
M  V30 2595 C 238.459 -3.29528 5.15827 0
M  V30 2596 N 237.596 -4.47175 5.41275 0
M  V30 2597 H 242.436 -0.779008 2.87638 0
M  V30 2598 H 239.973 -0.373166 1.42288 0
M  V30 2599 H 241.931 -3.24584 2.62109 0
M  V30 2600 H 240.561 -2.82614 1.55978 0
M  V30 2601 H 239.613 -1.41976 3.52912 0
M  V30 2602 H 240.925 -2.0634 4.5412 0
M  V30 2603 H 240.079 -4.39209 4.18545 0
M  V30 2604 H 238.818 -3.78512 3.07538 0
M  V30 2605 H 237.823 -2.42349 4.93505 0
M  V30 2606 H 239.048 -3.06031 6.06236 0
M  V30 2607 H 236.994 -4.72175 4.55397 0
M  V30 2608 H 236.911 -4.28419 6.22891 0
M  V30 2609 H 238.179 -5.3389 5.67963 0
M  V30 2610 N 242.408 -1.52605 -0.393616 0
M  V30 2611 C 243.685 -1.58001 -1.15304 0
M  V30 2612 C 244.065 -0.370385 -2.07825 0
M  V30 2613 O 243.413 0.641638 -2.19306 0
M  V30 2614 C 243.623 -2.91652 -1.91677 0
M  V30 2615 C 244.971 -3.4522 -2.47201 0
M  V30 2616 O 245.995 -2.93495 -2.01839 0
M  V30 2617 O 244.854 -4.35579 -3.3005 0
M  V30 2618 H 241.948 -0.637068 -0.527327 0
M  V30 2619 H 244.494 -1.64939 -0.399141 0
M  V30 2620 H 243.266 -3.71136 -1.23992 0
M  V30 2621 H 242.889 -2.88077 -2.74039 0
M  V30 2622 N 243.887 0.651787 -1.4349 0
M  V30 2623 C 245.136 1.40754 -1.44469 0
M  V30 2624 C 245.449 1.95463 -0.0731845 0
M  V30 2625 O 246.655 2.71471 0.0395721 0
M  V30 2626 C 245.111 2.54735 -2.5424 0
M  V30 2627 C 244.719 2.06628 -3.97504 0
M  V30 2628 C 246.463 3.32092 -2.64414 0
M  V30 2629 C 244.37 3.17829 -4.98737 0
M  V30 2630 H 243.3 0.528862 -0.53742 0
M  V30 2631 H 245.951 0.703365 -1.69485 0
M  V30 2632 H 244.333 3.2763 -2.22428 0
M  V30 2633 H 245.507 1.40734 -4.38783 0
M  V30 2634 H 243.822 1.42146 -3.91387 0
M  V30 2635 H 246.419 4.14952 -3.37223 0
M  V30 2636 H 246.762 3.80217 -1.69532 0
M  V30 2637 H 247.295 2.66279 -2.95534 0
M  V30 2638 H 244.034 2.74671 -5.95177 0
M  V30 2639 H 243.554 3.82429 -4.62069 0
M  V30 2640 H 245.233 3.82937 -5.21505 0
M  V30 2641 N 245.365 1.30045 0.890287 0
M  V30 2642 C 246.328 1.15963 1.977 0
M  V30 2643 C 247.328 0.0923777 1.60534 0
M  V30 2644 O 248.518 0.340071 1.70848 0
M  V30 2645 C 245.65 0.775451 3.31963 0
M  V30 2646 H 246.843 2.12502 2.11619 0
M  V30 2647 H 244.396 1.13366 1.07601 0
M  V30 2648 H 245.131 -0.189671 3.23745 0
M  V30 2649 H 244.916 1.54668 3.60306 0
M  V30 2650 H 246.406 0.700251 4.11687 0
M  V30 2651 N 246.843 -1.10192 1.12674 0
M  V30 2652 C 248.12 -1.78717 0.794965 0
M  V30 2653 C 248.5 -1.98628 -0.714853 0
M  V30 2654 O 247.848 -1.58135 -1.64941 0
M  V30 2655 C 248.058 -3.11546 1.5729 0
M  V30 2656 C 249.406 -3.86382 1.76052 0
M  V30 2657 O 250.43 -3.21274 1.53823 0
M  V30 2658 O 249.289 -5.03246 2.13087 0
M  V30 2659 H 246.383 -0.774702 0.289423 0
M  V30 2660 H 248.929 -1.16819 1.23091 0
M  V30 2661 H 247.701 -2.92489 2.59935 0
M  V30 2662 H 247.324 -3.81164 1.13137 0
M  V30 2663 N 248.321 -0.919034 -1.28029 0
M  V30 2664 C 249.551 -0.570143 -1.98577 0
M  V30 2665 C 249.959 0.854172 -1.68821 0
M  V30 2666 O 249.302 1.57807 -0.940351 0
M  V30 2667 C 249.364 -0.705734 -3.52505 0
M  V30 2668 C 249.028 -2.10057 -4.05863 0
M  V30 2669 C 250.025 -3.07385 -4.19298 0
M  V30 2670 C 247.71 -2.41517 -4.40426 0
M  V30 2671 C 249.704 -4.34287 -4.66555 0
M  V30 2672 C 247.391 -3.68657 -4.87376 0
M  V30 2673 C 248.389 -4.64856 -5.00398 0
M  V30 2674 O 248.077 -5.89735 -5.46322 0
M  V30 2675 H 247.809 -0.215592 -0.6407 0
M  V30 2676 H 250.363 -1.23583 -1.64062 0
M  V30 2677 H 248.593 0.0170414 -3.86696 0
M  V30 2678 H 250.282 -0.363172 -4.04272 0
M  V30 2679 H 251.048 -2.84398 -3.92865 0
M  V30 2680 H 246.927 -1.67389 -4.29537 0
M  V30 2681 H 250.471 -5.09377 -4.76635 0
M  V30 2682 H 246.368 -3.91466 -5.13249 0
M  V30 2683 H 247.136 -5.92599 -5.64596 0
M  V30 2684 N 249.799 1.42003 -0.683588 0
M  V30 2685 C 250.709 2.34597 -0.0109075 0
M  V30 2686 C 251.725 1.55576 0.779245 0
M  V30 2687 O 252.901 1.88107 0.719555 0
M  V30 2688 C 249.966 3.34199 0.922588 0
M  V30 2689 C 249.027 4.29115 0.125984 0
M  V30 2690 C 248.26 5.23959 1.01502 0
M  V30 2691 O 248.483 5.23952 2.25456 0
M  V30 2692 O 247.417 6.00053 0.47111 0
M  V30 2693 H 251.243 2.93675 -0.773853 0
M  V30 2694 H 248.828 1.42654 -0.443861 0
M  V30 2695 H 250.71 3.95365 1.45823 0
M  V30 2696 H 249.385 2.77582 1.66523 0
M  V30 2697 H 248.292 3.71335 -0.453969 0
M  V30 2698 H 249.625 4.88798 -0.577736 0
M  V30 2699 N 251.277 0.427512 1.51691 0
M  V30 2700 C 252.227 -0.406604 2.24345 0
M  V30 2701 C 253.211 -0.998276 1.26187 0
M  V30 2702 O 254.403 -0.918045 1.51331 0
M  V30 2703 C 251.532 -1.51266 3.08177 0
M  V30 2704 C 250.618 -0.930868 4.13758 0
M  V30 2705 N 251.009 -0.0773552 5.05741 0
M  V30 2706 C 249.307 -1.19948 4.29568 0
M  V30 2707 C 250.008 0.248344 5.8117 0
M  V30 2708 N 248.984 -0.365535 5.4237 0
M  V30 2709 H 252.786 0.251581 2.92821 0
M  V30 2710 H 250.3 0.239003 1.60632 0
M  V30 2711 H 252.297 -2.123 3.58796 0
M  V30 2712 H 250.957 -2.17328 2.41244 0
M  V30 2713 H 251.968 0.288351 5.17097 0
M  V30 2714 H 248.645 -1.85832 3.73862 0
M  V30 2715 H 250.035 0.942286 6.6526 0
M  V30 2716 N 252.755 -1.56801 0.158532 0
M  V30 2717 C 253.703 -2.18638 -0.793729 0
M  V30 2718 C 254.697 -1.14669 -1.24689 0
M  V30 2719 O 255.903 -1.32895 -1.21403 0
M  V30 2720 H 252.278 -0.700226 -0.274204 0
M  V30 2721 H 254.249 -2.97367 -0.248095 0
M  V30 2722 C 252.998 -2.83139 -2.0181 0
M  V30 2723 H 252.321 -3.62863 -1.67841 0
M  V30 2724 H 253.761 -3.29894 -2.66357 0
M  V30 2725 C 252.22 -1.82244 -2.83353 0
M  V30 2726 O 252.75 -1.3 -3.80083 0
M  V30 2727 N 250.956 -1.51288 -2.48114 0
M  V30 2728 H 250.503 -1.93964 -1.69516 0
M  V30 2729 H 250.461 -0.840296 -3.02963 0
M  V30 2730 N 254.233 0.115231 -1.57178 0
M  V30 2731 C 255.165 1.16694 -1.97269 0
M  V30 2732 C 256.178 1.37445 -0.872502 0
M  V30 2733 O 257.367 1.36454 -1.15077 0
M  V30 2734 C 254.467 2.52627 -2.25905 0
M  V30 2735 C 253.64 2.52427 -3.57211 0
M  V30 2736 C 252.699 3.70134 -3.74016 0
M  V30 2737 O 251.725 3.53546 -4.46087 0
M  V30 2738 N 252.927 4.88844 -3.13068 0
M  V30 2739 H 255.692 0.82588 -2.88096 0
M  V30 2740 H 253.253 0.304461 -1.59011 0
M  V30 2741 H 255.245 3.29937 -2.34359 0
M  V30 2742 H 253.815 2.789 -1.41186 0
M  V30 2743 H 253.035 1.60805 -3.5991 0
M  V30 2744 H 254.323 2.49353 -4.43509 0
M  V30 2745 H 253.721 5.05225 -2.54489 0
M  V30 2746 H 252.278 5.63817 -3.27037 0
M  V30 2747 N 255.711 1.52812 0.385517 0
M  V30 2748 C 256.641 1.80808 1.47752 0
M  V30 2749 C 257.622 0.660318 1.5676 0
M  V30 2750 O 258.807 0.908246 1.71652 0
M  V30 2751 C 255.937 1.98008 2.85324 0
M  V30 2752 C 254.891 3.13709 2.91154 0
M  V30 2753 C 254.217 3.16169 4.31209 0
M  V30 2754 C 255.517 4.52709 2.60483 0
M  V30 2755 H 257.211 2.72253 1.24573 0
M  V30 2756 H 254.757 1.31003 0.597839 0
M  V30 2757 H 256.71 2.16176 3.61726 0
M  V30 2758 H 255.434 1.03255 3.09848 0
M  V30 2759 H 254.093 2.95329 2.17201 0
M  V30 2760 H 253.741 2.19092 4.52778 0
M  V30 2761 H 253.441 3.93894 4.36029 0
M  V30 2762 H 254.965 3.36496 5.09512 0
M  V30 2763 H 256.379 4.71173 3.26602 0
M  V30 2764 H 254.776 5.32528 2.76648 0
M  V30 2765 H 255.846 4.59186 1.55809 0
M  V30 2766 N 257.189 -0.644168 1.43834 0
M  V30 2767 C 258.122 -1.76906 1.44151 0
M  V30 2768 C 259.1 -1.59774 0.301857 0
M  V30 2769 O 260.284 -1.81834 0.496841 0
M  V30 2770 C 257.411 -3.14321 1.26174 0
M  V30 2771 C 256.457 -3.50134 2.43533 0
M  V30 2772 S 257.29 -3.49085 4.06079 0
M  V30 2773 C 258.446 -4.89142 3.90501 0
M  V30 2774 H 258.679 -1.76368 2.39336 0
M  V30 2775 H 256.212 -0.817624 1.30974 0
M  V30 2776 H 258.17 -3.93625 1.16489 0
M  V30 2777 H 256.831 -3.12412 0.325224 0
M  V30 2778 H 256.024 -4.50095 2.26783 0
M  V30 2779 H 255.626 -2.78264 2.4989 0
M  V30 2780 H 257.918 -5.78036 3.53385 0
M  V30 2781 H 258.861 -5.10945 4.90246 0
M  V30 2782 H 259.269 -4.63102 3.22795 0
M  V30 2783 N 258.668 -1.30515 -0.883378 0
M  V30 2784 C 260.084 -1.08881 -1.16692 0
M  V30 2785 C 260.284 0.149409 -2.00945 0
M  V30 2786 O 259.34 0.84257 -2.38027 0
M  V30 2787 C 260.653 -2.35319 -1.87204 0
M  V30 2788 C 262.201 -2.40799 -1.99962 0
M  V30 2789 C 262.676 -3.67083 -2.73887 0
M  V30 2790 N 264.167 -3.679 -2.81432 0
M  V30 2791 C 264.902 -4.62303 -3.3921 0
M  V30 2792 N 264.398 -5.67052 -3.98025 0
M  V30 2793 N 266.191 -4.49845 -3.3704 0
M  V30 2794 H 258.342 -2.09951 -0.321633 0
M  V30 2795 H 260.605 -0.92556 -0.205043 0
M  V30 2796 H 260.311 -3.25689 -1.3274 0
M  V30 2797 H 260.185 -2.44089 -2.87577 0
M  V30 2798 H 262.572 -1.50907 -2.53597 0
M  V30 2799 H 262.653 -2.36003 -0.98673 0
M  V30 2800 H 262.297 -4.57334 -2.20925 0
M  V30 2801 H 262.227 -3.69141 -3.75556 0
M  V30 2802 H 264.718 -2.92171 -2.39676 0
M  V30 2803 H 265.031 -6.35184 -4.40183 0
M  V30 2804 H 263.376 -5.70842 -3.96439 0
M  V30 2805 H 266.567 -3.67194 -2.90321 0
M  V30 2806 H 266.74 -5.23597 -3.81772 0
M  V30 2807 N 260.146 1.09593 -1.13257 0
M  V30 2808 C 261.562 1.33775 -0.870423 0
M  V30 2809 C 261.762 1.95327 0.494926 0
M  V30 2810 O 260.818 2.19853 1.2418 0
M  V30 2811 C 262.131 2.25106 -1.99369 0
M  V30 2812 C 263.679 2.3862 -2.02558 0
M  V30 2813 C 264.154 3.33285 -3.14142 0
M  V30 2814 N 265.645 3.40857 -3.13641 0
M  V30 2815 C 266.38 4.14101 -3.96621 0
M  V30 2816 N 265.876 4.90157 -4.8961 0
M  V30 2817 N 267.669 4.09808 -3.84726 0
M  V30 2818 H 259.82 0.680136 -2.01216 0
M  V30 2819 H 262.083 0.362133 -0.876107 0
M  V30 2820 H 261.789 1.87103 -2.97801 0
M  V30 2821 H 261.663 3.25481 -1.90635 0
M  V30 2822 H 264.05 2.75887 -1.0474 0
M  V30 2823 H 264.131 1.38028 -2.15364 0
M  V30 2824 H 263.775 2.96741 -4.12198 0
M  V30 2825 H 263.705 4.33776 -2.98574 0
M  V30 2826 H 266.196 2.86624 -2.46282 0
M  V30 2827 H 266.509 5.4347 -5.49418 0
M  V30 2828 H 264.854 4.89251 -4.93617 0
M  V30 2829 H 268.045 3.4949 -3.11408 0
M  V30 2830 H 268.218 4.66629 -4.49623 0
M  V30 2831 N 261.624 0.925811 1.2754 0
M  V30 2832 C 262.554 0.440748 2.29303 0
M  V30 2833 C 263.535 -0.497971 1.62648 0
M  V30 2834 O 264.72 -0.403126 1.8997 0
M  V30 2835 C 261.85 -0.309048 3.45922 0
M  V30 2836 C 260.804 0.54166 4.24559 0
M  V30 2837 C 260.13 -0.337191 5.33636 0
M  V30 2838 C 261.43 1.80516 4.90114 0
M  V30 2839 H 263.124 1.29121 2.70126 0
M  V30 2840 H 260.67 0.622323 1.29858 0
M  V30 2841 H 262.623 -0.659315 4.1621 0
M  V30 2842 H 261.347 -1.19352 3.04011 0
M  V30 2843 H 260.006 0.874609 3.56014 0
M  V30 2844 H 259.654 -1.22056 4.87966 0
M  V30 2845 H 259.354 0.228497 5.87156 0
M  V30 2846 H 260.878 -0.683072 6.06767 0
M  V30 2847 H 262.292 1.52307 5.52698 0
M  V30 2848 H 260.689 2.3142 5.53683 0
M  V30 2849 H 261.759 2.52581 4.13921 0
M  V30 2850 N 263.102 -1.41638 0.69111 0
M  V30 2851 C 264.518 -1.55435 0.362224 0
M  V30 2852 C 264.718 -1.66754 -1.13117 0
M  V30 2853 O 263.774 -1.64348 -1.91692 0
M  V30 2854 C 265.087 -2.79588 1.10684 0
M  V30 2855 C 266.635 -2.9338 1.09075 0
M  V30 2856 C 267.11 -4.20414 1.81703 0
M  V30 2857 N 268.601 -4.27362 1.7865 0
M  V30 2858 C 269.336 -5.24507 2.31689 0
M  V30 2859 N 268.832 -6.27708 2.93179 0
M  V30 2860 N 270.625 -5.16416 2.2197 0
M  V30 2861 H 262.776 -1.32536 1.65976 0
M  V30 2862 H 265.039 -0.639115 0.700168 0
M  V30 2863 H 264.745 -2.77419 2.16175 0
M  V30 2864 H 264.619 -3.70973 0.682545 0
M  V30 2865 H 267.006 -2.95067 0.0441238 0
M  V30 2866 H 267.087 -2.0318 1.55407 0
M  V30 2867 H 266.731 -4.19488 2.86343 0
M  V30 2868 H 266.661 -5.09578 1.32808 0
M  V30 2869 H 269.152 -3.53415 1.33815 0
M  V30 2870 H 269.465 -6.98217 3.31229 0
M  V30 2871 H 267.81 -6.28223 2.97255 0
M  V30 2872 H 271.001 -4.34716 1.73607 0
M  V30 2873 H 271.174 -5.91958 2.63609 0
M  V30 2874 N 264.58 -0.43555 -1.51462 0
M  V30 2875 C 265.512 0.41257 -2.25456 0
M  V30 2876 C 266.525 0.987822 -1.29406 0
M  V30 2877 O 267.714 0.882266 -1.55172 0
M  V30 2878 C 264.814 1.58894 -2.99342 0
M  V30 2879 C 263.987 1.13288 -4.22474 0
M  V30 2880 C 263.046 2.17917 -4.78956 0
M  V30 2881 O 262.072 1.77425 -5.40841 0
M  V30 2882 N 263.274 3.50382 -4.62832 0
M  V30 2883 H 266.039 -0.221603 -2.9888 0
M  V30 2884 H 263.6 -0.264342 -1.59727 0
M  V30 2885 H 265.592 2.28508 -3.34015 0
M  V30 2886 H 264.162 2.12849 -2.28941 0
M  V30 2887 H 263.382 0.263881 -3.93316 0
M  V30 2888 H 264.67 0.805542 -5.02383 0
M  V30 2889 H 264.068 3.86013 -4.13534 0
M  V30 2890 H 262.625 4.15895 -5.01871 0
M  V30 2891 N 266.058 1.56714 -0.166846 0
M  V30 2892 C 266.988 2.20754 0.760913 0
M  V30 2893 C 267.969 1.16178 1.24244 0
M  V30 2894 O 269.154 1.44592 1.29641 0
M  V30 2895 C 266.284 2.84478 1.99223 0
M  V30 2896 C 265.238 3.95053 1.64672 0
M  V30 2897 C 264.564 4.45805 2.95232 0
M  V30 2898 C 265.864 5.14865 0.878155 0
M  V30 2899 H 267.558 2.98537 0.22713 0
M  V30 2900 H 265.104 1.43596 0.107805 0
M  V30 2901 H 267.057 3.27951 2.64624 0
M  V30 2902 H 265.781 2.04056 2.55007 0
M  V30 2903 H 264.44 3.52228 1.01641 0
M  V30 2904 H 264.088 3.62181 3.49047 0
M  V30 2905 H 263.788 5.204 2.7287 0
M  V30 2906 H 265.312 4.91962 3.6167 0
M  V30 2907 H 266.726 5.55059 1.43466 0
M  V30 2908 H 265.123 5.95348 0.753738 0
M  V30 2909 H 266.193 4.84735 -0.126377 0
M  V30 2910 N 267.536 -0.106894 1.57237 0
M  V30 2911 C 268.785 -0.811163 1.8467 0
M  V30 2912 C 269.098 -1.80469 0.754342 0
M  V30 2913 O 270.304 -2.55601 0.915439 0
M  V30 2914 C 268.76 -1.49337 3.27454 0
M  V30 2915 C 268.368 -0.540217 4.44731 0
M  V30 2916 C 270.112 -2.18206 3.64124 0
M  V30 2917 C 268.019 -1.22634 5.78545 0
M  V30 2918 H 266.949 -0.306679 0.688813 0
M  V30 2919 H 269.6 -0.0639887 1.83388 0
M  V30 2920 H 267.982 -2.2876 3.23241 0
M  V30 2921 H 269.156 0.221659 4.60267 0
M  V30 2922 H 267.471 0.042146 4.16379 0
M  V30 2923 H 270.068 -2.70253 4.61376 0
M  V30 2924 H 270.411 -2.96562 2.92158 0
M  V30 2925 H 270.944 -1.45658 3.70174 0
M  V30 2926 H 267.683 -0.483832 6.53712 0
M  V30 2927 H 267.203 -1.95993 5.66874 0
M  V30 2928 H 268.882 -1.75615 6.2271 0
M  V30 2929 N 269.014 -1.53014 -0.377408 0
M  V30 2930 C 269.977 -1.77957 -1.44444 0
M  V30 2931 C 270.977 -0.649763 -1.47087 0
M  V30 2932 O 272.167 -0.917897 -1.48055 0
M  V30 2933 C 269.299 -1.89089 -2.83651 0
M  V30 2934 H 270.492 -2.73243 -1.23606 0
M  V30 2935 H 268.045 -1.43912 -0.609844 0
M  V30 2936 H 268.78 -0.958293 -3.09818 0
M  V30 2937 H 268.565 -2.71254 -2.83132 0
M  V30 2938 H 270.055 -2.1002 -3.60945 0
M  V30 2939 N 270.492 0.636531 -1.44174 0
M  V30 2940 C 271.424 1.7618 -1.46606 0
M  V30 2941 C 272.437 1.58768 -0.360091 0
M  V30 2942 O 273.626 1.67181 -0.625518 0
M  V30 2943 C 270.726 3.13833 -1.27915 0
M  V30 2944 C 269.899 3.57753 -2.51658 0
M  V30 2945 C 268.958 4.74265 -2.27945 0
M  V30 2946 O 267.984 4.82852 -3.01401 0
M  V30 2947 N 269.186 5.65604 -1.30662 0
M  V30 2948 H 271.951 1.74567 -2.43612 0
M  V30 2949 H 269.512 0.820924 -1.39544 0
M  V30 2950 H 271.504 3.8949 -1.09907 0
M  V30 2951 H 270.074 3.10121 -0.39293 0
M  V30 2952 H 269.294 2.72362 -2.84978 0
M  V30 2953 H 270.582 3.83847 -3.33974 0
M  V30 2954 H 269.98 5.61354 -0.699844 0
M  V30 2955 H 268.537 6.40913 -1.18634 0
M  V30 2956 N 271.97 1.30982 0.876444 0
M  V30 2957 C 273.195 1.23373 1.66715 0
M  V30 2958 C 273.62 -0.19885 1.87046 0
M  V30 2959 O 272.978 -1.1427 1.40756 0
M  V30 2960 C 273.026 1.97644 3.01611 0
M  V30 2961 O 272.13 1.30935 3.91062 0
M  V30 2962 H 271.471 0.426279 0.509099 0
M  V30 2963 H 274.001 1.72944 1.09323 0
M  V30 2964 H 274.011 2.06992 3.51594 0
M  V30 2965 H 272.686 3.01829 2.86133 0
M  V30 2966 H 271.263 1.29996 3.49507 0
M  V30 2967 N 273.449 -1.08991 1.13837 0
M  V30 2968 C 274.695 -1.81699 0.91417 0
M  V30 2969 C 275.05 -1.84264 -0.553594 0
M  V30 2970 O 274.343 -1.30313 -1.4046 0
M  V30 2971 C 274.537 -3.27042 1.44147 0
M  V30 2972 C 274.366 -3.38637 2.95897 0
M  V30 2973 C 273.136 -3.50177 3.64286 0
M  V30 2974 C 275.334 -3.30791 3.93804 0
M  V30 2975 N 273.316 -3.50501 5.04006 0
M  V30 2976 C 274.687 -3.38037 5.19741 0
M  V30 2977 C 276.742 -3.14488 3.86007 0
M  V30 2978 C 275.445 -3.30659 6.38793 0
M  V30 2979 C 277.471 -3.08438 5.04599 0
M  V30 2980 C 276.833 -3.1628 6.29402 0
M  V30 2981 H 272.932 -0.678967 0.387979 0
M  V30 2982 H 275.516 -1.30224 1.4474 0
M  V30 2983 H 273.687 -3.76976 0.935091 0
M  V30 2984 H 275.419 -3.87785 1.1578 0
M  V30 2985 H 272.174 -3.53815 3.1482 0
M  V30 2986 H 272.598 -3.54236 5.76928 0
M  V30 2987 H 277.24 -3.07291 2.90399 0
M  V30 2988 H 274.958 -3.36618 7.34652 0
M  V30 2989 H 278.544 -2.96952 5.0031 0
M  V30 2990 H 277.424 -3.1162 7.19627 0
M  V30 2991 N 274.927 -0.932562 -1.27047 0
M  V30 2992 C 275.877 -0.406392 -2.24349 0
M  V30 2993 C 276.861 0.492066 -1.53191 0
M  V30 2994 O 278.053 0.328717 -1.73921 0
M  V30 2995 C 275.182 0.335214 -3.41659 0
M  V30 2996 C 274.268 -0.58004 -4.20115 0
M  V30 2997 N 274.659 -1.70203 -4.76303 0
M  V30 2998 C 272.957 -0.383974 -4.44344 0
M  V30 2999 C 273.658 -2.27167 -5.35509 0
M  V30 3000 N 272.634 -1.56068 -5.20715 0
M  V30 3001 H 276.436 -1.26299 -2.65378 0
M  V30 3002 H 273.95 -0.787408 -1.42034 0
M  V30 3003 H 275.947 0.729142 -4.10474 0
M  V30 3004 H 274.607 1.18868 -3.0216 0
M  V30 3005 H 275.618 -2.08433 -4.74106 0
M  V30 3006 H 272.295 0.428436 -4.15296 0
M  V30 3007 H 273.685 -3.21654 -5.89905 0
M  V30 3008 N 276.405 1.4127 -0.698611 0
M  V30 3009 C 277.633 2.05503 -0.239992 0
M  V30 3010 C 278.048 1.52584 1.11191 0
M  V30 3011 O 277.405 0.675323 1.69545 0
M  V30 3012 C 277.456 3.60987 -0.192429 0
M  V30 3013 O 277.177 4.1195 -1.49094 0
M  V30 3014 C 278.678 4.42371 0.28681 0
M  V30 3015 H 275.898 0.661748 -0.111045 0
M  V30 3016 H 278.442 1.80987 -0.95205 0
M  V30 3017 H 276.597 3.84533 0.470472 0
M  V30 3018 H 277.011 5.06018 -1.38007 0
M  V30 3019 H 278.485 5.51344 0.26896 0
M  V30 3020 H 278.962 4.18699 1.32619 0
M  V30 3021 H 279.568 4.23897 -0.345201 0
M  V30 3022 N 277.883 0.443576 1.51229 0
M  V30 3023 C 279.16 -0.181038 1.9476 0
M  V30 3024 C 279.54 -1.59523 1.38259 0
M  V30 3025 O 278.888 -2.2122 0.572198 0
M  V30 3026 C 279.098 -0.152422 3.48667 0
M  V30 3027 C 280.446 -0.354923 4.23114 0
M  V30 3028 O 281.47 -0.230257 3.55455 0
M  V30 3029 O 280.329 -0.603674 5.43156 0
M  V30 3030 H 277.423 -0.1266 0.817252 0
M  V30 3031 H 279.969 0.502004 1.62105 0
M  V30 3032 H 278.741 0.836022 3.82265 0
M  V30 3033 H 278.364 -0.878107 3.87782 0
M  V30 3034 N 279.361 -1.56624 0.175154 0
M  V30 3035 C 280.271 -2.21741 -0.766042 0
M  V30 3036 C 281.287 -1.21023 -1.25018 0
M  V30 3037 O 282.463 -1.53697 -1.3015 0
M  V30 3038 C 279.528 -2.84839 -1.97655 0
M  V30 3039 C 278.589 -4.00769 -1.53892 0
M  V30 3040 C 277.822 -4.60849 -2.69173 0
M  V30 3041 O 278.045 -4.19823 -3.86141 0
M  V30 3042 O 276.979 -5.50655 -2.43028 0
M  V30 3043 H 280.805 -3.02738 -0.241585 0
M  V30 3044 H 278.39 -1.49305 -0.053222 0
M  V30 3045 H 280.272 -3.24834 -2.68442 0
M  V30 3046 H 278.947 -2.06836 -2.48999 0
M  V30 3047 H 277.854 -3.65436 -0.80044 0
M  V30 3048 H 279.187 -4.80376 -1.07236 0
M  V30 3049 N 280.839 0.0985539 -1.57292 0
M  V30 3050 C 282.088 0.801358 -1.85098 0
M  V30 3051 C 282.401 1.80066 -0.763902 0
M  V30 3052 O 283.607 2.55112 -0.928981 0
M  V30 3053 C 282.063 1.47599 -3.28242 0
M  V30 3054 C 281.671 0.516624 -4.45011 0
M  V30 3055 C 283.415 2.16272 -3.65276 0
M  V30 3056 C 281.322 1.19564 -5.79188 0
M  V30 3057 H 280.252 0.303022 -0.69043 0
M  V30 3058 H 282.903 0.0542623 -1.8342 0
M  V30 3059 H 281.285 2.27042 -3.2445 0
M  V30 3060 H 282.459 -0.246065 -4.60143 0
M  V30 3061 H 280.774 -0.064227 -4.1635 0
M  V30 3062 H 283.371 2.67802 -4.62803 0
M  V30 3063 H 283.714 2.95009 -2.93727 0
M  V30 3064 H 284.247 1.43693 -3.70941 0
M  V30 3065 H 280.986 0.449157 -6.53959 0
M  V30 3066 H 280.506 1.92984 -5.67906 0
M  V30 3067 H 282.185 1.7231 -6.23633 0
M  V30 3068 N 282.317 1.53212 0.369288 0
M  V30 3069 C 283.733 1.42902 0.710712 0
M  V30 3070 C 283.933 0.565135 1.93413 0
M  V30 3071 O 282.989 0.0461484 2.52458 0
M  V30 3072 C 284.302 2.86042 0.927382 0
M  V30 3073 C 285.85 2.9565 1.02762 0
M  V30 3074 C 286.325 4.39843 1.27679 0
M  V30 3075 N 287.816 4.43256 1.34457 0
M  V30 3076 C 288.551 5.51929 1.55439 0
M  V30 3077 N 288.047 6.70655 1.73762 0
M  V30 3078 N 289.84 5.39502 1.57779 0
M  V30 3079 H 281.991 2.07888 -0.435457 0
M  V30 3080 H 284.254 0.938661 -0.132739 0
M  V30 3081 H 283.96 3.51557 0.100287 0
M  V30 3082 H 283.834 3.29472 1.83653 0
M  V30 3083 H 286.221 2.30291 1.84527 0
M  V30 3084 H 286.302 2.5562 0.0959504 0
M  V30 3085 H 285.946 5.05774 0.464175 0
M  V30 3086 H 285.876 4.77443 2.22162 0
M  V30 3087 H 288.367 3.5769 1.21926 0
M  V30 3088 H 288.68 7.49248 1.89335 0
M  V30 3089 H 287.025 6.73648 1.70948 0
M  V30 3090 H 290.216 4.45713 1.43029 0
M  V30 3091 H 290.389 6.2426 1.7379 0
M  V30 3092 N 283.795 -0.628877 1.44509 0
M  V30 3093 C 284.742 -1.74074 1.51549 0
M  V30 3094 C 285.712 -1.62084 0.363021 0
M  V30 3095 O 286.897 -1.81975 0.573567 0
M  V30 3096 C 284.037 -3.12328 1.46784 0
M  V30 3097 C 283.15 -3.35277 2.72422 0
M  V30 3098 C 282.285 -4.63515 2.59475 0
M  V30 3099 C 281.324 -4.7965 3.80266 0
M  V30 3100 N 280.461 -5.99168 3.65981 0
M  V30 3101 H 285.301 -1.67392 2.46544 0
M  V30 3102 H 282.838 -0.816527 1.22357 0
M  V30 3103 H 284.796 -3.92286 1.42012 0
M  V30 3104 H 283.426 -3.18018 0.553544 0
M  V30 3105 H 282.478 -2.49242 2.87372 0
M  V30 3106 H 283.79 -3.43078 3.62076 0
M  V30 3107 H 282.944 -5.51638 2.52548 0
M  V30 3108 H 281.683 -4.58076 1.67384 0
M  V30 3109 H 280.688 -3.89957 3.87574 0
M  V30 3110 H 281.913 -4.86902 4.73395 0
M  V30 3111 H 279.859 -5.94814 2.76644 0
M  V30 3112 H 279.776 -6.08035 4.49254 0
M  V30 3113 H 281.044 -6.89846 3.6295 0
M  V30 3114 N 285.273 -1.31445 -0.869486 0
M  V30 3115 C 286.203 -1.21727 -1.99261 0
M  V30 3116 C 287.184 -0.104359 -1.6978 0
M  V30 3117 O 288.369 -0.289038 -1.92037 0
M  V30 3118 C 285.499 -0.924317 -3.34774 0
M  V30 3119 C 284.453 -1.99685 -3.78563 0
M  V30 3120 C 283.779 -1.55658 -5.11541 0
M  V30 3121 C 285.079 -3.41003 -3.95619 0
M  V30 3122 H 286.773 -2.1569 -2.07649 0
M  V30 3123 H 284.319 -1.03839 -0.997675 0
M  V30 3124 H 286.272 -0.842934 -4.12883 0
M  V30 3125 H 284.996 0.0509793 -3.2656 0
M  V30 3126 H 283.655 -2.06813 -3.02694 0
M  V30 3127 H 283.303 -0.569132 -4.9977 0
M  V30 3128 H 283.003 -2.27409 -5.41811 0
M  V30 3129 H 284.527 -1.48928 -5.92159 0
M  V30 3130 H 285.941 -3.36547 -4.64122 0
M  V30 3131 H 284.338 -4.10975 -4.37286 0
M  V30 3132 H 285.408 -3.81754 -2.98985 0
M  V30 3133 N 286.751 1.08385 -1.14413 0
M  V30 3134 C 288.167 1.32844 -0.884563 0
M  V30 3135 C 288.367 1.95841 0.474181 0
M  V30 3136 O 287.423 2.21158 1.21842 0
M  V30 3137 C 288.736 2.22978 -2.01745 0
M  V30 3138 C 290.284 2.36458 -2.05077 0
M  V30 3139 C 290.759 3.29934 -3.1766 0
M  V30 3140 N 292.25 3.37511 -3.17239 0
M  V30 3141 C 292.985 4.09871 -4.0099 0
M  V30 3142 N 292.481 4.84936 -4.94781 0
M  V30 3143 N 294.274 4.05704 -3.89051 0
M  V30 3144 H 286.425 0.658756 -2.01926 0
M  V30 3145 H 288.688 0.352821 -0.879899 0
M  V30 3146 H 288.394 1.83934 -2.99769 0
M  V30 3147 H 288.268 3.23441 -1.94077 0
M  V30 3148 H 290.655 2.7476 -1.0766 0
M  V30 3149 H 290.736 1.35736 -2.16816 0
M  V30 3150 H 290.38 2.92352 -4.15322 0
M  V30 3151 H 290.31 4.30584 -3.03158 0
M  V30 3152 H 292.801 2.83996 -2.49308 0
M  V30 3153 H 293.114 5.37612 -5.55151 0
M  V30 3154 H 291.459 4.83988 -4.98779 0
M  V30 3155 H 294.65 3.46167 -3.15097 0
M  V30 3156 H 294.823 4.61834 -4.54547 0
M  V30 3157 N 288.23 0.939286 1.26551 0
M  V30 3158 C 289.641 0.628782 1.75793 0
M  V30 3159 C 289.992 -0.856046 1.7654 0
M  V30 3160 O 289.117 -1.66994 1.3763 0
M  V30 3161 C 289.712 1.13465 3.19235 0
M  V30 3162 C 288.271 0.874601 3.66098 0
M  V30 3163 C 287.418 1.28667 2.45642 0
M  V30 3164 H 290.369 1.1178 1.12654 0
M  V30 3165 H 290.39 0.487609 3.77363 0
M  V30 3166 H 289.902 2.21535 3.1866 0
M  V30 3167 H 288.003 -0.191793 3.72106 0
M  V30 3168 H 288.116 1.50028 4.55004 0
M  V30 3169 H 286.48 0.705109 2.44745 0
M  V30 3170 H 287.263 2.37625 2.47769 0
M  V30 3171 N 289.708 -1.40897 0.706093 0
M  V30 3172 C 290.933 -2.05895 0.249435 0
M  V30 3173 C 291.358 -1.52823 -1.09666 0
M  V30 3174 O 290.716 -0.659589 -1.68876 0
M  V30 3175 C 290.764 -3.59872 0.22904 0
M  V30 3176 O 289.868 -4.04708 -0.792784 0
M  V30 3177 H 289.209 -0.653206 0.119241 0
M  V30 3178 H 291.739 -1.80471 0.96391 0
M  V30 3179 H 291.749 -4.07951 0.0634791 0
M  V30 3180 H 290.424 -3.97866 1.21141 0
M  V30 3181 H 289.001 -3.68111 -0.59572 0
M  V30 3182 N 291.186 -0.45159 -1.50991 0
M  V30 3183 C 292.597 0.00818571 -1.86698 0
M  V30 3184 C 292.948 1.40661 -1.3678 0
M  V30 3185 O 292.073 2.0391 -0.724546 0
M  V30 3186 C 292.668 0.0216303 -3.38793 0
M  V30 3187 C 291.227 0.425865 -3.73983 0
M  V30 3188 C 290.374 -0.372163 -2.74791 0
M  V30 3189 H 293.325 -0.666785 -1.44013 0
M  V30 3190 H 293.346 0.828078 -3.7138 0
M  V30 3191 H 292.858 -0.996288 -3.75094 0
M  V30 3192 H 290.959 1.44886 -3.43277 0
M  V30 3193 H 291.072 0.140761 -4.78893 0
M  V30 3194 H 289.436 0.171498 -2.54122 0
M  V30 3195 H 290.219 -1.38922 -3.13935 0
M  V30 3196 N 292.664 1.56529 -0.183458 0
M  V30 3197 C 293.91 1.97537 0.459036 0
M  V30 3198 C 294.243 1.06989 1.62071 0
M  V30 3199 O 293.518 0.11948 1.94133 0
M  V30 3200 C 293.801 3.47874 0.930368 0
M  V30 3201 C 293.654 4.492 -0.232317 0
M  V30 3202 C 294.973 4.01612 1.79989 0
M  V30 3203 H 292.092 0.718204 0.165383 0
M  V30 3204 H 294.734 1.88042 -0.272038 0
M  V30 3205 H 292.884 3.56095 1.55333 0
M  V30 3206 H 294.556 4.53027 -0.86972 0
M  V30 3207 H 292.799 4.24657 -0.885928 0
M  V30 3208 H 293.47 5.51823 0.139796 0
M  V30 3209 H 295.946 3.96097 1.27461 0
M  V30 3210 H 294.822 5.07195 2.09867 0
M  V30 3211 H 295.083 3.46163 2.74998 0
M  V30 3212 N 294.142 -0.090211 1.57342 0
M  V30 3213 C 295.419 -0.824761 1.77361 0
M  V30 3214 C 295.799 -1.96698 0.76637 0
M  V30 3215 O 295.147 -2.27586 -0.204179 0
M  V30 3216 C 295.357 -1.31481 3.23286 0
M  V30 3217 C 296.705 -1.75563 3.86604 0
M  V30 3218 O 297.729 -1.41093 3.27065 0
M  V30 3219 O 296.588 -2.39317 4.91314 0
M  V30 3220 H 293.682 -0.393776 0.727234 0
M  V30 3221 H 296.228 -0.0717138 1.69548 0
M  V30 3222 H 295 -0.496671 3.88135 0
M  V30 3223 H 294.623 -2.12973 3.35751 0
M  V30 3224 N 295.62 -1.53406 -0.361157 0
M  V30 3225 C 296.53 -1.83122 -1.4664 0
M  V30 3226 C 297.546 -0.719943 -1.58407 0
M  V30 3227 O 298.722 -1.01046 -1.74218 0
M  V30 3228 C 295.787 -2.01891 -2.81853 0
M  V30 3229 C 294.848 -3.25784 -2.79577 0
M  V30 3230 C 294.081 -3.43648 -4.0834 0
M  V30 3231 O 294.304 -2.65714 -5.0473 0
M  V30 3232 O 293.238 -4.37018 -4.13883 0
M  V30 3233 H 297.064 -2.7703 -1.24451 0
M  V30 3234 H 294.649 -1.38841 -0.551678 0
M  V30 3235 H 296.531 -2.15782 -3.61962 0
M  V30 3236 H 295.206 -1.11173 -3.0401 0
M  V30 3237 H 294.113 -3.17312 -1.98151 0
M  V30 3238 H 295.446 -4.16439 -2.62373 0
M  V30 3239 N 297.098 0.621204 -1.44841 0
M  V30 3240 C 298.061 1.71459 -1.521 0
M  V30 3241 C 299.061 1.55696 -0.401933 0
M  V30 3242 O 300.251 1.61011 -0.664925 0
M  V30 3243 C 297.383 3.10624 -1.40447 0
M  V30 3244 H 298.576 1.66394 -2.49506 0
M  V30 3245 H 296.129 0.835745 -1.3208 0
M  V30 3246 H 296.864 3.21277 -0.441737 0
M  V30 3247 H 296.649 3.23473 -2.21602 0
M  V30 3248 H 298.139 3.90293 -1.4853 0
M  V30 3249 N 298.576 1.31904 0.862503 0
M  V30 3250 C 299.523 1.20182 1.9704 0
M  V30 3251 C 300.493 0.0858247 1.65878 0
M  V30 3252 O 301.678 0.26 1.8902 0
M  V30 3253 C 298.818 0.922797 3.32533 0
M  V30 3254 C 297.931 2.12284 3.76244 0
M  V30 3255 C 297.066 1.77996 5.00491 0
M  V30 3256 C 296.105 2.94366 5.36671 0
M  V30 3257 N 295.242 2.60223 6.52095 0
M  V30 3258 H 300.082 2.14951 2.06398 0
M  V30 3259 H 297.619 1.06917 1.01031 0
M  V30 3260 H 299.577 0.741548 4.10557 0
M  V30 3261 H 298.207 0.0119227 3.22798 0
M  V30 3262 H 297.259 2.41461 2.9394 0
M  V30 3263 H 298.571 2.99357 3.98982 0
M  V30 3264 H 297.725 1.56377 5.862 0
M  V30 3265 H 296.464 0.881252 4.79672 0
M  V30 3266 H 295.469 3.16625 4.49476 0
M  V30 3267 H 296.694 3.84957 5.59451 0
M  V30 3268 H 294.64 1.72884 6.32809 0
M  V30 3269 H 294.557 3.40827 6.74814 0
M  V30 3270 H 295.825 2.42016 7.40978 0
M  V30 3271 N 300.054 -1.07777 1.14986 0
M  V30 3272 C 301.3 -1.80719 0.93339 0
M  V30 3273 C 301.655 -1.8484 -0.534019 0
M  V30 3274 O 300.948 -1.31795 -1.3907 0
M  V30 3275 C 301.142 -3.25495 1.47608 0
M  V30 3276 C 300.971 -3.3548 2.99472 0
M  V30 3277 C 299.741 -3.46293 3.6798 0
M  V30 3278 C 301.939 -3.26596 3.97291 0
M  V30 3279 N 299.921 -3.45136 5.07695 0
M  V30 3280 C 301.292 -3.32506 5.23297 0
M  V30 3281 C 303.347 -3.10376 3.89321 0
M  V30 3282 C 302.05 -3.23866 6.42264 0
M  V30 3283 C 304.076 -3.03069 5.07842 0
M  V30 3284 C 303.438 -3.09587 6.32721 0
M  V30 3285 H 299.537 -0.674814 0.395158 0
M  V30 3286 H 302.121 -1.28681 1.46114 0
M  V30 3287 H 300.292 -3.75963 0.975022 0
M  V30 3288 H 302.024 -3.86535 1.19887 0
M  V30 3289 H 298.779 -3.50456 3.18555 0
M  V30 3290 H 299.203 -3.48097 5.80653 0
M  V30 3291 H 303.845 -3.04194 2.93642 0
M  V30 3292 H 301.563 -3.28807 7.38181 0
M  V30 3293 H 305.149 -2.91629 5.03432 0
M  V30 3294 H 304.029 -3.0397 7.22891 0
M  V30 3295 N 301.532 -0.945985 -1.26051 0
M  V30 3296 C 302.78 -0.594941 -1.93145 0
M  V30 3297 C 303.101 0.86953 -1.7454 0
M  V30 3298 O 302.371 1.61838 -1.10387 0
M  V30 3299 H 300.951 -0.217044 -0.714773 0
M  V30 3300 H 303.613 -1.20235 -1.53393 0
M  V30 3301 H 302.709 -0.816835 -3.01221 0
M  V30 3302 N 303.011 1.40521 -0.713556 0
M  V30 3303 C 304.258 2.00923 -0.25219 0
M  V30 3304 C 304.586 1.56571 1.15395 0
M  V30 3305 O 303.841 0.775874 1.79663 0
M  V30 3306 C 304.14 3.56317 -0.278 0
M  V30 3307 C 303.806 4.20246 -1.63415 0
M  V30 3308 C 302.468 4.37422 -2.00538 0
M  V30 3309 C 304.82 4.55923 -2.52554 0
M  V30 3310 C 302.148 4.87558 -3.2635 0
M  V30 3311 C 304.5 5.07458 -3.77716 0
M  V30 3312 C 303.164 5.22843 -4.14959 0
M  V30 3313 H 302.434 0.735231 -0.0922829 0
M  V30 3314 H 305.081 1.68161 -0.916188 0
M  V30 3315 H 303.386 3.88976 0.469567 0
M  V30 3316 H 305.083 4.00883 0.0967819 0
M  V30 3317 H 301.673 4.07263 -1.33546 0
M  V30 3318 H 305.857 4.42291 -2.25149 0
M  V30 3319 H 301.113 4.97654 -3.55176 0
M  V30 3320 H 305.287 5.34041 -4.4696 0
M  V30 3321 H 302.914 5.61454 -5.12516 0
M  V30 3322 N 304.489 0.459591 1.5075 0
M  V30 3323 C 305.452 -0.329093 2.26825 0
M  V30 3324 C 306.452 -0.930481 1.31144 0
M  V30 3325 O 307.642 -0.801453 1.54669 0
M  V30 3326 C 304.774 -1.46768 3.07688 0
M  V30 3327 H 305.967 0.337924 2.9799 0
M  V30 3328 H 303.52 0.213336 1.54837 0
M  V30 3329 H 304.255 -2.17009 2.40993 0
M  V30 3330 H 304.04 -1.04238 3.77991 0
M  V30 3331 H 305.53 -2.02433 3.65254 0
M  V30 3332 N 305.967 -1.56429 0.191757 0
M  V30 3333 C 307.213 -1.97777 -0.448554 0
M  V30 3334 C 307.546 -1.07847 -1.61501 0
M  V30 3335 O 306.821 -0.129774 -1.94067 0
M  V30 3336 C 307.104 -3.48362 -0.911906 0
M  V30 3337 C 306.957 -4.4907 0.256136 0
M  V30 3338 C 308.276 -4.02561 -1.77857 0
M  V30 3339 H 305.395 -0.719071 -0.161572 0
M  V30 3340 H 308.037 -1.87896 0.282007 0
M  V30 3341 H 306.187 -3.56914 -1.53442 0
M  V30 3342 H 307.859 -4.5256 0.893733 0
M  V30 3343 H 306.102 -4.24181 0.908436 0
M  V30 3344 H 306.773 -5.51889 -0.11053 0
M  V30 3345 H 309.249 -3.96767 -1.25359 0
M  V30 3346 H 308.125 -5.08301 -2.07174 0
M  V30 3347 H 308.386 -3.47616 -2.73158 0
M  V30 3348 N 307.445 0.0818655 -1.57387 0
M  V30 3349 C 308.691 0.784074 -1.8703 0
M  V30 3350 C 309.024 1.77729 -0.782689 0
M  V30 3351 O 308.299 1.93384 0.208051 0
M  V30 3352 C 308.582 1.50105 -3.27323 0
M  V30 3353 C 308.435 0.524925 -4.46727 0
M  V30 3354 C 309.754 2.44843 -3.65705 0
M  V30 3355 H 306.873 0.283582 -0.680257 0
M  V30 3356 H 309.515 0.0474352 -1.89941 0
M  V30 3357 H 307.665 2.12897 -3.24972 0
M  V30 3358 H 309.337 -0.0970111 -4.61198 0
M  V30 3359 H 307.58 -0.160606 -4.33503 0
M  V30 3360 H 308.251 1.064 -5.41648 0
M  V30 3361 H 310.727 1.92135 -3.69085 0
M  V30 3362 H 309.603 2.92018 -4.64776 0
M  V30 3363 H 309.864 3.29197 -2.95096 0
M  V30 3364 N 308.923 1.53595 0.353017 0
M  V30 3365 C 309.833 1.83897 1.45667 0
M  V30 3366 C 310.849 0.728334 1.58023 0
M  V30 3367 O 312.025 1.01968 1.73679 0
M  V30 3368 C 309.09 2.03383 2.80778 0
M  V30 3369 C 308.151 3.27262 2.77845 0
M  V30 3370 C 307.384 3.45809 4.06512 0
M  V30 3371 O 307.607 2.68387 5.03314 0
M  V30 3372 O 306.541 4.39207 4.11559 0
M  V30 3373 H 310.367 2.77686 1.2298 0
M  V30 3374 H 307.952 1.39132 0.544308 0
M  V30 3375 H 309.834 2.17698 3.60812 0
M  V30 3376 H 308.509 1.12783 3.03417 0
M  V30 3377 H 307.416 3.18359 1.96465 0
M  V30 3378 H 308.749 4.17824 2.60161 0
M  V30 3379 N 310.401 -0.613514 1.45168 0
M  V30 3380 C 311.349 -1.74572 1.53712 0
M  V30 3381 C 312.343 -1.64426 0.407505 0
M  V30 3382 O 313.549 -1.70291 0.583176 0
M  V30 3383 H 309.924 -0.576641 0.48269 0
M  V30 3384 H 311.895 -1.64492 2.48968 0
M  V30 3385 C 310.644 -3.12943 1.51532 0
M  V30 3386 H 309.967 -3.21407 2.37776 0
M  V30 3387 H 311.407 -3.9201 1.61569 0
M  V30 3388 C 309.866 -3.36053 0.238798 0
M  V30 3389 O 310.396 -3.95837 -0.6838 0
M  V30 3390 N 308.602 -2.9028 0.136359 0
M  V30 3391 H 308.149 -2.41811 0.887999 0
M  V30 3392 H 308.107 -3.06116 -0.716944 0
M  V30 3393 N 311.879 -1.3236 -0.855495 0
M  V30 3394 C 313.104 -1.2601 -1.64731 0
M  V30 3395 C 313.529 0.169068 -1.87339 0
M  V30 3396 O 312.887 1.12016 -1.42556 0
M  V30 3397 C 312.935 -2.02417 -2.98429 0
M  V30 3398 O 312.039 -1.3714 -3.8893 0
M  V30 3399 H 311.38 -0.434325 -0.502253 0
M  V30 3400 H 313.91 -1.74661 -1.06558 0
M  V30 3401 H 313.92 -2.12559 -3.48257 0
M  V30 3402 H 312.595 -3.06343 -2.81295 0
M  V30 3403 H 311.172 -1.3554 -3.47395 0
M  V30 3404 N 313.357 1.07166 -1.15556 0
M  V30 3405 C 314.287 2.16403 -0.877046 0
M  V30 3406 C 315.268 1.69217 0.173111 0
M  V30 3407 O 316.453 1.94181 0.027084 0
M  V30 3408 C 313.583 3.45349 -0.367632 0
M  V30 3409 C 312.537 4.05995 -1.35468 0
M  V30 3410 C 311.863 5.30045 -0.704038 0
M  V30 3411 C 313.163 4.45804 -2.72132 0
M  V30 3412 H 314.857 2.39959 -1.79053 0
M  V30 3413 H 312.403 1.15325 -0.862331 0
M  V30 3414 H 314.356 4.21095 -0.160317 0
M  V30 3415 H 313.08 3.21385 0.581326 0
M  V30 3416 H 311.739 3.32296 -1.54839 0
M  V30 3417 H 311.387 5.02373 0.251128 0
M  V30 3418 H 311.087 5.71579 -1.36277 0
M  V30 3419 H 312.611 6.08495 -0.50654 0
M  V30 3420 H 314.025 5.12671 -2.56595 0
M  V30 3421 H 312.422 4.98296 -3.34397 0
M  V30 3422 H 313.492 3.57083 -3.28054 0
M  V30 3423 N 314.835 0.952656 1.25548 0
M  V30 3424 C 316.081 0.616826 1.93822 0
M  V30 3425 C 316.436 -0.836684 1.73255 0
M  V30 3426 O 315.729 -1.59218 1.06584 0
M  V30 3427 C 315.923 0.908818 3.45652 0
M  V30 3428 C 315.752 2.38916 3.80984 0
M  V30 3429 C 314.522 3.04637 4.03143 0
M  V30 3430 C 316.72 3.36838 3.88645 0
M  V30 3431 N 314.702 4.42565 4.25453 0
M  V30 3432 C 316.073 4.60065 4.1562 0
M  V30 3433 C 318.128 3.31704 3.71318 0
M  V30 3434 C 316.831 5.78795 4.2707 0
M  V30 3435 C 318.857 4.4977 3.84006 0
M  V30 3436 C 318.219 5.71783 4.11392 0
M  V30 3437 H 314.318 0.27629 0.731565 0
M  V30 3438 H 316.902 1.22443 1.5138 0
M  V30 3439 H 315.073 0.330166 3.86994 0
M  V30 3440 H 316.805 0.533093 4.01174 0
M  V30 3441 H 313.56 2.55215 3.98952 0
M  V30 3442 H 313.984 5.1399 4.40617 0
M  V30 3443 H 318.626 2.3842 3.49164 0
M  V30 3444 H 316.344 6.72521 4.48041 0
M  V30 3445 H 319.93 4.47342 3.71989 0
M  V30 3446 H 318.81 6.61617 4.2099 0
M  V30 3447 N 316.313 -1.40141 0.720998 0
M  V30 3448 C 317.245 -2.29177 0.0324669 0
M  V30 3449 C 318.258 -1.46105 -0.718126 0
M  V30 3450 O 319.447 -1.69335 -0.564608 0
M  V30 3451 C 316.547 -3.24473 -0.978292 0
M  V30 3452 C 315.72 -4.36423 -0.292115 0
M  V30 3453 C 314.779 -5.12122 -1.20901 0
M  V30 3454 O 313.805 -5.64981 -0.691766 0
M  V30 3455 N 315.007 -5.21992 -2.53978 0
M  V30 3456 H 317.772 -2.88909 0.796984 0
M  V30 3457 H 315.333 -1.51569 0.569068 0
M  V30 3458 H 317.325 -3.71987 -1.59398 0
M  V30 3459 H 315.895 -2.65871 -1.64413 0
M  V30 3460 H 315.115 -3.90967 0.503847 0
M  V30 3461 H 316.403 -5.08467 0.183971 0
M  V30 3462 H 315.801 -4.8054 -2.98493 0
M  V30 3463 H 314.358 -5.72995 -3.10677 0
M  V30 3464 N 317.792 -0.46758 -1.50504 0
M  V30 3465 C 319.04 0.0884469 -2.01906 0
M  V30 3466 C 319.361 1.40532 -1.35188 0
M  V30 3467 O 318.631 1.89515 -0.496079 0
M  V30 3468 H 317.211 0.0356765 -0.746148 0
M  V30 3469 H 319.873 -0.6172 -1.84869 0
M  V30 3470 H 318.969 0.2425 -3.11156 0
M  V30 3471 N 319.27 1.56325 -0.20005 0
M  V30 3472 C 320.516 1.98012 0.438059 0
M  V30 3473 C 320.849 1.08702 1.60927 0
M  V30 3474 O 320.124 0.140064 1.93995 0
M  V30 3475 C 320.407 3.48841 0.893419 0
M  V30 3476 C 320.26 4.48928 -0.279947 0
M  V30 3477 C 321.579 4.03498 1.75719 0
M  V30 3478 H 318.698 0.719918 0.157757 0
M  V30 3479 H 321.34 1.87743 -0.291968 0
M  V30 3480 H 319.49 3.57723 1.51547 0
M  V30 3481 H 321.162 4.52079 -0.91772 0
M  V30 3482 H 319.405 4.23694 -0.930919 0
M  V30 3483 H 320.076 5.5194 0.0812601 0
M  V30 3484 H 322.552 3.97427 1.23253 0
M  V30 3485 H 321.428 5.09393 2.04476 0
M  V30 3486 H 321.689 3.4906 2.71311 0
M  V30 3487 N 320.748 -0.0735177 1.57428 0
M  V30 3488 C 322.159 -0.625551 1.75908 0
M  V30 3489 C 322.51 -1.78 0.825261 0
M  V30 3490 O 321.635 -2.16398 0.00893964 0
M  V30 3491 C 322.23 -1.14155 3.18989 0
M  V30 3492 C 320.789 -1.63946 3.38819 0
M  V30 3493 C 319.936 -0.558151 2.71625 0
M  V30 3494 H 322.887 0.152647 1.57964 0
M  V30 3495 H 322.908 -2.0104 3.23053 0
M  V30 3496 H 322.42 -0.301116 3.8693 0
M  V30 3497 H 320.521 -2.50321 2.7599 0
M  V30 3498 H 320.634 -1.71759 4.47253 0
M  V30 3499 H 318.998 -1.00278 2.34129 0
M  V30 3500 H 319.781 0.272071 3.4222 0
M  V30 3501 N 322.226 -1.5378 -0.344866 0
M  V30 3502 C 323.174 -1.82373 -1.4437 0
M  V30 3503 C 324.168 -0.694128 -1.54526 0
M  V30 3504 O 325.374 -0.877442 -1.57165 0
M  V30 3505 H 321.749 -0.577765 -0.481344 0
M  V30 3506 H 323.72 -2.74306 -1.17468 0
M  V30 3507 C 322.469 -2.04898 -2.80913 0
M  V30 3508 H 321.792 -2.9127 -2.73865 0
M  V30 3509 H 323.232 -2.28871 -3.56923 0
M  V30 3510 C 321.691 -0.834116 -3.26411 0
M  V30 3511 O 322.221 -0.0328885 -4.01687 0
M  V30 3512 N 320.427 -0.65171 -2.83198 0
M  V30 3513 H 319.974 -1.30489 -2.22104 0
M  V30 3514 H 319.932 0.159686 -3.13994 0
M  V30 3515 N 323.704 0.605807 -1.45491 0
M  V30 3516 C 324.934 1.38934 -1.52908 0
M  V30 3517 C 325.342 1.88513 -0.161086 0
M  V30 3518 O 324.685 1.62962 0.847891 0
M  V30 3519 C 324.747 2.62737 -2.45376 0
M  V30 3520 C 324.411 2.34785 -3.92078 0
M  V30 3521 C 325.408 1.95038 -4.8193 0
M  V30 3522 C 323.093 2.47642 -4.37011 0
M  V30 3523 C 325.087 1.68511 -6.14722 0
M  V30 3524 C 322.774 2.20728 -5.69844 0
M  V30 3525 C 323.772 1.81225 -6.58519 0
M  V30 3526 O 323.46 1.54627 -7.88889 0
M  V30 3527 H 323.192 0.431629 -0.520262 0
M  V30 3528 H 325.746 0.74573 -1.91384 0
M  V30 3529 H 323.976 3.29824 -2.01874 0
M  V30 3530 H 325.665 3.24783 -2.43456 0
M  V30 3531 H 326.431 1.84639 -4.48479 0
M  V30 3532 H 322.31 2.77356 -3.68232 0
M  V30 3533 H 325.854 1.37602 -6.83894 0
M  V30 3534 H 321.751 2.30744 -6.02849 0
M  V30 3535 H 322.519 1.68665 -8.00933 0
M  V30 3536 N 325.182 1.32811 0.848464 0
M  V30 3537 C 326.112 1.24882 1.97299 0
M  V30 3538 C 327.093 0.131357 1.69592 0
M  V30 3539 O 328.278 0.319553 1.91553 0
M  V30 3540 C 325.408 0.97746 3.33261 0
M  V30 3541 C 324.362 2.05682 3.75338 0
M  V30 3542 C 323.688 1.63777 5.09 0
M  V30 3543 C 324.988 3.47254 3.90144 0
M  V30 3544 H 326.682 2.18966 2.04191 0
M  V30 3545 H 324.228 1.05413 0.981029 0
M  V30 3546 H 326.181 0.908513 4.1149 0
M  V30 3547 H 324.905 0.000980011 3.266 0
M  V30 3548 H 323.564 2.11603 2.99366 0
M  V30 3549 H 323.212 0.648569 4.98801 0
M  V30 3550 H 322.912 2.36 5.38124 0
M  V30 3551 H 324.436 1.5833 5.89715 0
M  V30 3552 H 325.85 3.43888 4.58709 0
M  V30 3553 H 324.247 4.1788 4.30693 0
M  V30 3554 H 325.317 3.86462 2.92874 0
M  V30 3555 N 326.66 -1.06551 1.16123 0
M  V30 3556 C 328.076 -1.3142 0.905585 0
M  V30 3557 C 328.276 -1.96571 -0.442964 0
M  V30 3558 O 327.332 -2.23068 -1.18308 0
M  V30 3559 C 328.645 -2.19741 2.05267 0
M  V30 3560 C 330.193 -2.33165 2.08813 0
M  V30 3561 C 330.668 -3.24838 3.22868 0
M  V30 3562 N 332.159 -3.32421 3.22568 0
M  V30 3563 C 332.894 -4.0344 4.0746 0
M  V30 3564 N 332.39 -4.77003 5.02434 0
M  V30 3565 N 334.183 -3.99464 3.95456 0
M  V30 3566 H 326.334 -0.626548 2.02949 0
M  V30 3567 H 328.597 -0.338777 0.8854 0
M  V30 3568 H 328.303 -1.79142 3.02657 0
M  V30 3569 H 328.177 -3.20313 1.99198 0
M  V30 3570 H 330.564 -2.73013 1.12018 0
M  V30 3571 H 330.645 -1.3227 2.18948 0
M  V30 3572 H 330.289 -2.85708 4.19921 0
M  V30 3573 H 330.219 -4.25707 3.0997 0
M  V30 3574 H 332.71 -2.79994 2.53795 0
M  V30 3575 H 333.023 -5.28712 5.63634 0
M  V30 3576 H 331.368 -4.75992 5.06415 0
M  V30 3577 H 334.559 -3.4111 3.20564 0
M  V30 3578 H 334.732 -4.54544 4.61837 0
M  V30 3579 N 328.138 -0.959301 -1.25041 0
M  V30 3580 C 329.048 -0.489994 -2.29426 0
M  V30 3581 C 330.064 0.444944 -1.68215 0
M  V30 3582 O 331.24 0.320046 -1.98841 0
M  V30 3583 C 328.305 0.220309 -3.45999 0
M  V30 3584 C 327.366 -0.753418 -4.22637 0
M  V30 3585 C 326.599 -0.076918 -5.33645 0
M  V30 3586 O 326.822 1.13649 -5.58963 0
M  V30 3587 O 325.756 -0.764824 -5.97021 0
M  V30 3588 H 329.582 -1.35755 -2.71669 0
M  V30 3589 H 327.167 -0.725961 -1.30576 0
M  V30 3590 H 329.049 0.619677 -4.16819 0
M  V30 3591 H 327.724 1.06296 -3.0575 0
M  V30 3592 H 326.631 -1.20308 -3.54227 0
M  V30 3593 H 327.964 -1.56423 -4.66683 0
M  V30 3594 N 329.616 1.39756 -0.72842 0
M  V30 3595 C 330.546 2.33289 -0.0991354 0
M  V30 3596 C 331.527 1.53568 0.731489 0
M  V30 3597 O 332.712 1.81987 0.677807 0
M  V30 3598 C 329.842 3.3763 0.813834 0
M  V30 3599 C 328.796 4.2791 0.0878663 0
M  V30 3600 C 328.122 5.22894 1.11741 0
M  V30 3601 C 329.422 5.11314 -1.06563 0
M  V30 3602 H 331.116 2.86163 -0.880408 0
M  V30 3603 H 328.662 1.37591 -0.424819 0
M  V30 3604 H 330.615 4.0201 1.26355 0
M  V30 3605 H 329.339 2.83181 1.62715 0
M  V30 3606 H 327.998 3.65 -0.342159 0
M  V30 3607 H 327.646 4.64744 1.92412 0
M  V30 3608 H 327.346 5.84143 0.636477 0
M  V30 3609 H 328.87 5.90151 1.56697 0
M  V30 3610 H 330.284 5.69076 -0.694671 0
M  V30 3611 H 328.681 5.81671 -1.47577 0
M  V30 3612 H 329.751 4.46534 -1.89038 0
M  V30 3613 N 331.094 0.475555 1.50254 0
M  V30 3614 C 332.042 -0.330276 2.30243 0
M  V30 3615 C 333.036 -0.986306 1.37726 0
M  V30 3616 O 334.242 -0.9169 1.54897 0
M  V30 3617 H 330.617 -0.125353 0.741479 0
M  V30 3618 H 332.588 0.364702 2.96163 0
M  V30 3619 C 331.337 -1.39704 3.18399 0
M  V30 3620 H 330.66 -0.901621 3.89501 0
M  V30 3621 H 332.1 -1.93336 3.77355 0
M  V30 3622 C 330.559 -2.4014 2.36293 0
M  V30 3623 O 331.089 -3.45504 2.04914 0
M  V30 3624 N 329.295 -2.1197 1.98789 0
M  V30 3625 H 328.842 -1.2631 2.24507 0
M  V30 3626 H 328.8 -2.79403 1.44157 0
M  V30 3627 N 332.573 -1.56217 0.208337 0
M  V30 3628 C 333.483 -2.23316 -0.718836 0
M  V30 3629 C 334.499 -1.23648 -1.22422 0
M  V30 3630 O 335.675 -1.56423 -1.26861 0
M  V30 3631 C 332.74 -2.88968 -1.91568 0
M  V30 3632 C 331.801 -4.03943 -1.45357 0
M  V30 3633 C 331.034 -4.66455 -2.59337 0
M  V30 3634 O 331.257 -4.27919 -3.77149 0
M  V30 3635 O 330.191 -5.55686 -2.31293 0
M  V30 3636 H 334.017 -3.03182 -0.177315 0
M  V30 3637 H 331.602 -1.49384 -0.0215402 0
M  V30 3638 H 333.484 -3.30455 -2.61491 0
M  V30 3639 H 332.159 -2.12071 -2.44556 0
M  V30 3640 H 331.066 -3.67052 -0.722746 0
M  V30 3641 H 332.399 -4.82543 -0.970219 0
M  V30 3642 N 334.051 0.0651679 -1.57465 0
M  V30 3643 C 334.983 1.10359 -2.00882 0
M  V30 3644 C 335.996 1.346 -0.915788 0
M  V30 3645 O 337.185 1.32723 -1.1936 0
M  V30 3646 C 334.285 2.45312 -2.33828 0
M  V30 3647 C 333.458 2.40934 -3.65061 0
M  V30 3648 C 332.517 3.58047 -3.85602 0
M  V30 3649 O 331.543 3.39175 -4.57109 0
M  V30 3650 N 332.745 4.78637 -3.28462 0
M  V30 3651 H 335.51 0.733807 -2.90578 0
M  V30 3652 H 333.071 0.253719 -1.599 0
M  V30 3653 H 335.063 3.22314 -2.44737 0
M  V30 3654 H 333.633 2.74267 -1.49988 0
M  V30 3655 H 332.853 1.49273 -3.64844 0
M  V30 3656 H 334.141 2.35117 -4.51218 0
M  V30 3657 H 333.539 4.96872 -2.70433 0
M  V30 3658 H 332.096 5.53127 -3.44809 0
M  V30 3659 N 335.529 1.53961 0.336706 0
M  V30 3660 C 336.459 1.85417 1.41925 0
M  V30 3661 C 337.44 0.709856 1.5458 0
M  V30 3662 O 338.625 0.962396 1.68676 0
M  V30 3663 C 335.755 2.06985 2.78881 0
M  V30 3664 C 334.709 3.22813 2.81026 0
M  V30 3665 C 334.035 3.29727 4.20932 0
M  V30 3666 C 335.335 4.60767 2.45949 0
M  V30 3667 H 337.029 2.76079 1.15848 0
M  V30 3668 H 334.575 1.32839 0.555859 0
M  V30 3669 H 336.528 2.27575 3.54665 0
M  V30 3670 H 335.252 1.13061 3.06406 0
M  V30 3671 H 333.911 3.0209 2.07695 0
M  V30 3672 H 333.559 2.33385 4.45579 0
M  V30 3673 H 333.259 4.07566 4.23277 0
M  V30 3674 H 334.783 3.52536 4.98549 0
M  V30 3675 H 336.197 4.81325 3.11446 0
M  V30 3676 H 334.594 5.4106 2.59566 0
M  V30 3677 H 335.664 4.6391 1.41122 0
M  V30 3678 N 337.007 -0.598083 1.45811 0
M  V30 3679 C 337.917 -1.73632 1.57763 0
M  V30 3680 C 338.933 -1.67763 0.461676 0
M  V30 3681 O 340.109 -1.87949 0.723685 0
M  V30 3682 C 337.174 -3.10114 1.55018 0
M  V30 3683 C 336.235 -3.27364 2.77726 0
M  V30 3684 C 335.468 -4.57334 2.75102 0
M  V30 3685 O 335.691 -5.40258 1.8297 0
M  V30 3686 O 334.625 -4.77502 3.66437 0
M  V30 3687 H 338.451 -1.66498 2.53992 0
M  V30 3688 H 336.036 -0.763308 1.28429 0
M  V30 3689 H 337.918 -3.9141 1.56129 0
M  V30 3690 H 336.593 -3.17718 0.619431 0
M  V30 3691 H 335.5 -2.45619 2.82174 0
M  V30 3692 H 336.833 -3.24641 3.69958 0
M  V30 3693 N 338.485 -1.33259 -0.841409 0
M  V30 3694 C 339.395 -1.25332 -1.98316 0
M  V30 3695 C 340.411 -0.164364 -1.73222 0
M  V30 3696 O 341.587 -0.387486 -1.97637 0
M  V30 3697 C 338.652 -0.990078 -3.32262 0
M  V30 3698 C 337.713 -2.16879 -3.70489 0
M  V30 3699 C 336.946 -1.91801 -4.98044 0
M  V30 3700 O 337.169 -0.867075 -5.63771 0
M  V30 3701 O 336.103 -2.78267 -5.33714 0
M  V30 3702 H 339.929 -2.21344 -2.07944 0
M  V30 3703 H 337.514 -1.1328 -0.974058 0
M  V30 3704 H 339.396 -0.860321 -4.12524 0
M  V30 3705 H 338.071 -0.0602155 -3.23644 0
M  V30 3706 H 336.978 -2.35407 -2.90748 0
M  V30 3707 H 338.311 -3.0819 -3.8377 0
M  V30 3708 N 339.963 1.05934 -1.16686 0
M  V30 3709 C 340.911 2.15603 -0.872817 0
M  V30 3710 C 341.905 1.68647 0.159576 0
M  V30 3711 O 343.111 1.79995 0.0132125 0
M  V30 3712 H 339.486 0.703885 -0.264671 0
M  V30 3713 H 341.457 2.37613 -1.80507 0
M  V30 3714 C 340.206 3.45457 -0.394344 0
M  V30 3715 H 339.529 3.81984 -1.18019 0
M  V30 3716 H 340.969 4.2339 -0.227408 0
M  V30 3717 C 339.428 3.25021 0.88673 0
M  V30 3718 O 339.958 3.50906 1.95519 0
M  V30 3719 N 338.164 2.78437 0.831925 0
M  V30 3720 H 337.711 2.57572 -0.0377619 0
M  V30 3721 H 337.669 2.65144 1.68956 0
M  V30 3722 N 341.441 0.965919 1.2453 0
M  V30 3723 C 342.371 0.513476 2.27784 0
M  V30 3724 C 343.352 -0.445974 1.6415 0
M  V30 3725 O 344.537 -0.342485 1.91156 0
M  V30 3726 C 341.667 -0.198839 3.4673 0
M  V30 3727 C 340.621 0.676456 4.2262 0
M  V30 3728 C 339.947 -0.167248 5.34438 0
M  V30 3729 C 341.247 1.96017 4.84123 0
M  V30 3730 H 342.941 1.3765 2.65881 0
M  V30 3731 H 340.487 0.663321 1.27813 0
M  V30 3732 H 342.44 -0.526567 4.18097 0
M  V30 3733 H 341.164 -1.0962 3.07654 0
M  V30 3734 H 339.823 0.98743 3.53052 0
M  V30 3735 H 339.471 -1.0647 4.91603 0
M  V30 3736 H 339.171 0.415181 5.86131 0
M  V30 3737 H 340.695 -0.489688 6.08633 0
M  V30 3738 H 342.109 1.69814 5.47573 0
M  V30 3739 H 340.506 2.48918 5.4604 0
M  V30 3740 H 341.576 2.65622 4.05676 0
M  V30 3741 N 342.919 -1.39368 0.735821 0
M  V30 3742 C 344.167 -2.00101 0.283562 0
M  V30 3743 C 344.488 -1.5868 -1.13338 0
M  V30 3744 O 343.758 -0.835423 -1.77193 0
M  V30 3745 H 342.338 -0.740024 0.101851 0
M  V30 3746 H 345 -1.70404 0.945962 0
M  V30 3747 H 344.096 -3.10323 0.332604 0
M  V30 3748 N 344.397 -0.483516 -1.5 0
M  V30 3749 C 345.627 0.0643896 -2.065 0
M  V30 3750 C 346.035 1.32949 -1.34615 0
M  V30 3751 O 345.378 1.79003 -0.412756 0
M  V30 3752 C 345.44 0.405983 -3.572 0
M  V30 3753 C 345.104 -0.758875 -4.50655 0
M  V30 3754 C 346.101 -1.64445 -4.93208 0
M  V30 3755 C 343.786 -0.952725 -4.93182 0
M  V30 3756 C 345.78 -2.70818 -5.77006 0
M  V30 3757 C 343.467 -2.01966 -5.76761 0
M  V30 3758 C 344.465 -2.89574 -6.18576 0
M  V30 3759 O 344.153 -3.94429 -7.00486 0
M  V30 3760 H 343.885 -0.00934786 -0.675935 0
M  V30 3761 H 346.439 -0.674959 -1.93993 0
M  V30 3762 H 344.669 1.19869 -3.67652 0
M  V30 3763 H 346.358 0.890433 -3.96013 0
M  V30 3764 H 347.124 -1.50643 -4.61012 0
M  V30 3765 H 343.003 -0.280247 -4.60147 0
M  V30 3766 H 346.547 -3.3923 -6.09565 0
M  V30 3767 H 342.444 -2.1577 -6.0837 0
M  V30 3768 H 343.212 -3.91568 -7.1876 0
M  V30 3769 N 345.875 1.56104 -0.216619 0
M  V30 3770 C 346.822 2.2007 0.695531 0
M  V30 3771 C 347.792 1.15471 1.19397 0
M  V30 3772 O 348.977 1.43807 1.25396 0
M  V30 3773 C 346.117 2.88073 1.90021 0
M  V30 3774 C 345.23 4.07253 1.44113 0
M  V30 3775 C 344.365 4.63052 2.603 0
M  V30 3776 C 343.404 5.74545 2.11103 0
M  V30 3777 N 342.541 6.24656 3.20545 0
M  V30 3778 H 347.381 2.97655 0.143327 0
M  V30 3779 H 344.918 1.46982 0.0589934 0
M  V30 3780 H 346.876 3.25681 2.60745 0
M  V30 3781 H 345.506 2.13015 2.42538 0
M  V30 3782 H 344.558 3.75164 0.628999 0
M  V30 3783 H 345.87 4.8783 1.04036 0
M  V30 3784 H 345.024 5.03078 3.39113 0
M  V30 3785 H 343.763 3.81628 3.03663 0
M  V30 3786 H 342.768 5.34027 1.3075 0
M  V30 3787 H 343.993 6.57801 1.68746 0
M  V30 3788 H 341.939 5.46148 3.63399 0
M  V30 3789 H 341.856 7.00343 2.84704 0
M  V30 3790 H 343.124 6.69338 3.99508 0
M  V30 3791 N 347.353 -0.0568162 1.57498 0
M  V30 3792 C 348.283 -1.06593 2.0775 0
M  V30 3793 C 349.264 -1.39448 0.974082 0
M  V30 3794 O 350.449 -1.48815 1.24771 0
M  V30 3795 C 347.579 -2.37509 2.5339 0
M  V30 3796 C 346.533 -2.1897 3.67745 0
M  V30 3797 C 345.859 -3.55402 3.99492 0
M  V30 3798 C 347.159 -1.59859 4.97235 0
M  V30 3799 H 348.853 -0.647706 2.9231 0
M  V30 3800 H 346.399 -0.310116 1.40621 0
M  V30 3801 H 348.352 -3.08409 2.87162 0
M  V30 3802 H 347.076 -2.8134 1.65878 0
M  V30 3803 H 345.735 -1.50508 3.3428 0
M  V30 3804 H 345.383 -3.9683 3.09088 0
M  V30 3805 H 345.083 -3.43831 4.76502 0
M  V30 3806 H 346.607 -4.27708 4.35773 0
M  V30 3807 H 348.021 -2.20642 5.29141 0
M  V30 3808 H 346.418 -1.58942 5.78669 0
M  V30 3809 H 347.488 -0.561506 4.81638 0
M  V30 3810 N 348.832 -1.54138 -0.328536 0
M  V30 3811 C 350.243 -1.63395 -0.903272 0
M  V30 3812 C 350.594 -0.524828 -1.8905 0
M  V30 3813 O 349.719 0.343068 -2.13663 0
M  V30 3814 C 350.314 -2.9618 -1.64507 0
M  V30 3815 C 348.873 -3.0765 -2.1686 0
M  V30 3816 C 348.02 -2.58933 -0.992416 0
M  V30 3817 H 350.971 -1.58344 -0.106253 0
M  V30 3818 H 350.992 -2.86061 -2.50897 0
M  V30 3819 H 350.504 -3.76884 -0.926302 0
M  V30 3820 H 348.605 -2.31611 -2.91868 0
M  V30 3821 H 348.718 -4.1337 -2.42202 0
M  V30 3822 H 347.082 -2.14706 -1.37016 0
M  V30 3823 H 347.865 -3.42089 -0.288041 0
M  V30 3824 N 350.31 0.590341 -1.46126 0
M  V30 3825 C 351.556 1.35082 -1.51264 0
M  V30 3826 C 351.889 1.93534 -0.160711 0
M  V30 3827 O 351.164 1.76045 0.826956 0
M  V30 3828 C 351.447 2.48588 -2.6053 0
M  V30 3829 C 351.3 1.95221 -4.05227 0
M  V30 3830 C 352.619 3.50662 -2.6594 0
M  V30 3831 H 349.738 0.489803 -0.550692 0
M  V30 3832 H 352.38 0.663887 -1.78024 0
M  V30 3833 H 350.53 3.07186 -2.37843 0
M  V30 3834 H 352.202 1.41139 -4.39178 0
M  V30 3835 H 350.445 1.26101 -4.15068 0
M  V30 3836 H 351.116 2.77121 -4.77397 0
M  V30 3837 H 353.592 3.01934 -2.86313 0
M  V30 3838 H 352.468 4.27551 -3.44226 0
M  V30 3839 H 352.729 4.07399 -1.71694 0
M  V30 3840 N 351.788 1.33704 0.83433 0
M  V30 3841 C 352.698 1.26382 1.97648 0
M  V30 3842 C 353.714 0.173548 1.73132 0
M  V30 3843 O 354.89 0.397962 1.97429 0
M  V30 3844 C 351.955 1.00769 3.31733 0
M  V30 3845 C 351.016 2.1884 3.69334 0
M  V30 3846 C 350.249 1.9444 4.9702 0
M  V30 3847 O 350.472 0.896961 5.63303 0
M  V30 3848 O 349.406 2.81093 5.32231 0
M  V30 3849 H 353.232 2.22444 2.06767 0
M  V30 3850 H 350.817 1.13795 0.968037 0
M  V30 3851 H 352.699 0.882186 4.12062 0
M  V30 3852 H 351.374 0.0773783 3.23608 0
M  V30 3853 H 350.281 2.36946 2.89495 0
M  V30 3854 H 351.614 3.10221 3.82131 0
M  V30 3855 N 353.266 -1.05314 1.17247 0
M  V30 3856 C 354.513 -1.78293 0.960091 0
M  V30 3857 C 354.841 -1.87658 -0.51136 0
M  V30 3858 O 354.096 -1.3718 -1.39571 0
M  V30 3859 C 354.395 -3.2229 1.54479 0
M  V30 3860 C 354.061 -3.32987 3.04024 0
M  V30 3861 C 352.723 -3.35613 3.44844 0
M  V30 3862 C 355.075 -3.34102 4.00031 0
M  V30 3863 C 352.403 -3.36982 4.8027 0
M  V30 3864 C 354.755 -3.3701 5.35357 0
M  V30 3865 C 353.419 -3.37923 5.75642 0
M  V30 3866 H 352.689 -0.652422 0.351322 0
M  V30 3867 H 355.336 -1.23782 1.46117 0
M  V30 3868 H 353.641 -3.7972 0.965391 0
M  V30 3869 H 355.338 -3.77376 1.35603 0
M  V30 3870 H 351.928 -3.31655 2.71483 0
M  V30 3871 H 356.112 -3.31276 3.69554 0
M  V30 3872 H 351.368 -3.35999 5.10798 0
M  V30 3873 H 355.542 -3.36822 6.09528 0
M  V30 3874 H 353.169 -3.38738 6.80559 0
M  V30 3875 N 354.744 -0.972509 -1.24016 0
M  V30 3876 C 355.99 -0.637978 -1.92504 0
M  V30 3877 C 356.323 0.825383 -1.75787 0
M  V30 3878 O 355.598 1.59442 -1.11393 0
M  V30 3879 C 355.881 -1.01942 -3.45369 0
M  V30 3880 C 355.734 -2.53983 -3.71231 0
M  V30 3881 C 357.053 -0.55751 -4.36555 0
M  V30 3882 H 354.172 -0.233248 -0.699117 0
M  V30 3883 H 356.814 -1.21238 -1.46292 0
M  V30 3884 H 354.964 -0.530656 -3.84859 0
M  V30 3885 H 356.636 -3.10374 -3.41271 0
M  V30 3886 H 354.879 -2.96968 -3.16216 0
M  V30 3887 H 355.55 -2.75723 -4.78206 0
M  V30 3888 H 358.026 -0.977029 -4.04467 0
M  V30 3889 H 356.902 -0.85292 -5.42233 0
M  V30 3890 H 357.163 0.542328 -4.38761 0
M  V30 3891 N 356.222 1.38976 -0.743202 0
M  V30 3892 C 357.633 1.83123 -0.363732 0
M  V30 3893 C 357.984 1.6205 1.10609 0
M  V30 3894 O 357.109 1.11606 1.854 0
M  V30 3895 C 357.704 3.32439 -0.653408 0
M  V30 3896 C 356.263 3.74974 -0.327338 0
M  V30 3897 C 355.41 2.61878 -0.911875 0
M  V30 3898 H 358.361 1.27852 -0.940191 0
M  V30 3899 H 358.382 3.80432 0.0720031 0
M  V30 3900 H 357.894 3.47745 -1.72323 0
M  V30 3901 H 355.995 3.65252 0.736314 0
M  V30 3902 H 356.108 4.72106 -0.815631 0
M  V30 3903 H 354.472 2.52448 -0.337944 0
M  V30 3904 H 355.255 2.79987 -1.98651 0
M  V30 3905 N 357.7 0.491464 1.49741 0
M  V30 3906 C 358.946 -0.0565092 2.02721 0
M  V30 3907 C 359.279 -1.37522 1.37118 0
M  V30 3908 O 358.554 -1.87866 0.503645 0
M  V30 3909 C 358.837 -0.219051 3.59433 0
M  V30 3910 C 358.69 1.12211 4.35579 0
M  V30 3911 C 360.009 -0.964157 4.29409 0
M  V30 3912 H 357.128 -0.0190627 0.736753 0
M  V30 3913 H 359.77 0.641021 1.7886 0
M  V30 3914 H 357.92 -0.813165 3.79895 0
M  V30 3915 H 359.592 1.75437 4.26637 0
M  V30 3916 H 357.835 1.71377 3.98513 0
M  V30 3917 H 358.506 0.961794 5.43556 0
M  V30 3918 H 360.982 -0.460378 4.13545 0
M  V30 3919 H 359.858 -1.04671 5.38828 0
M  V30 3920 H 360.119 -2.00563 3.93988 0
M  V30 3921 N 359.178 -1.55987 0.224894 0
M  V30 3922 C 360.594 -1.59066 -0.130426 0
M  V30 3923 C 360.794 -1.24176 -1.5869 0
M  V30 3924 O 359.85 -0.978592 -2.32766 0
M  V30 3925 C 361.163 -3.00042 0.198883 0
M  V30 3926 C 362.711 -3.1268 0.141391 0
M  V30 3927 C 363.186 -4.55839 0.444422 0
M  V30 3928 N 364.677 -4.6152 0.394115 0
M  V30 3929 C 365.412 -5.70231 0.602038 0
M  V30 3930 N 364.908 -6.87291 0.871914 0
M  V30 3931 N 366.701 -5.59555 0.534245 0
M  V30 3932 H 358.852 -1.76941 1.17497 0
M  V30 3933 H 361.115 -0.822604 0.471197 0
M  V30 3934 H 360.821 -3.30234 1.2099 0
M  V30 3935 H 360.695 -3.74075 -0.484535 0
M  V30 3936 H 363.082 -2.82283 -0.860265 0
M  V30 3937 H 363.163 -2.40969 0.858335 0
M  V30 3938 H 362.807 -4.86954 1.44353 0
M  V30 3939 H 362.737 -5.2578 -0.293752 0
M  V30 3940 H 365.228 -3.77405 0.193356 0
M  V30 3941 H 365.541 -7.66058 1.01858 0
M  V30 3942 H 363.886 -6.89028 0.909145 0
M  V30 3943 H 367.077 -4.6698 0.323612 0
M  V30 3944 H 367.25 -6.44211 0.699693 0
M  V30 3945 N 360.656 0.0484629 -1.57525 0
M  V30 3946 C 361.903 0.743125 -1.88372 0
M  V30 3947 C 362.231 1.76383 -0.819715 0
M  V30 3948 O 361.486 1.94855 0.181659 0
M  V30 3949 C 361.785 1.46632 -3.25935 0
M  V30 3950 C 361.451 0.583427 -4.4711 0
M  V30 3951 C 360.113 0.340191 -4.79996 0
M  V30 3952 C 362.465 -0.0273345 -5.21193 0
M  V30 3953 C 359.793 -0.522903 -5.84365 0
M  V30 3954 C 362.145 -0.878017 -6.26477 0
M  V30 3955 C 360.809 -1.1309 -6.5785 0
M  V30 3956 H 360.079 0.271929 -0.689301 0
M  V30 3957 H 362.726 0.00336166 -1.915 0
M  V30 3958 H 361.031 2.2789 -3.18706 0
M  V30 3959 H 362.728 2.00902 -3.47044 0
M  V30 3960 H 359.318 0.783151 -4.21384 0
M  V30 3961 H 363.502 0.147654 -4.9608 0
M  V30 3962 H 358.758 -0.727335 -6.07058 0
M  V30 3963 H 362.932 -1.35789 -6.83033 0
M  V30 3964 H 360.559 -1.80144 -7.38547 0
M  V30 3965 N 362.134 1.5431 0.320358 0
M  V30 3966 C 363.362 1.76636 1.07738 0
M  V30 3967 C 363.777 0.51649 1.81598 0
M  V30 3968 O 363.134 -0.512942 1.75143 0
M  V30 3969 C 363.185 2.96158 2.07299 0
M  V30 3970 O 362.906 4.16313 1.36438 0
M  V30 3971 C 364.407 3.3072 2.95193 0
M  V30 3972 H 361.627 0.589597 0.320339 0
M  V30 3973 H 364.171 2.01207 0.36551 0
M  V30 3974 H 362.326 2.73851 2.74016 0
M  V30 3975 H 362.74 4.83565 2.03138 0
M  V30 3976 H 364.214 4.17643 3.60941 0
M  V30 3977 H 364.691 2.48026 3.62463 0
M  V30 3978 H 365.297 3.55117 2.34034 0
M  V30 3979 N 363.613 -0.582584 1.46437 0
M  V30 3980 C 364.838 -1.37168 1.55563 0
M  V30 3981 C 365.263 -1.87061 0.19743 0
M  V30 3982 O 364.621 -1.61572 -0.822451 0
M  V30 3983 C 364.669 -2.53511 2.56446 0
M  V30 3984 O 363.773 -3.54953 2.09958 0
M  V30 3985 H 363.114 -0.408494 0.523477 0
M  V30 3986 H 365.644 -0.706646 1.9201 0
M  V30 3987 H 365.654 -3.00426 2.76058 0
M  V30 3988 H 364.329 -2.16549 3.55076 0
M  V30 3989 H 362.906 -3.14516 2.00334 0
M  V30 3990 N 365.091 -1.34144 -0.827227 0
M  V30 3991 C 366.337 -1.27455 -1.58515 0
M  V30 3992 C 366.692 0.155271 -1.91772 0
M  V30 3993 O 365.985 1.10042 -1.56848 0
M  V30 3994 C 366.179 -2.09464 -2.89585 0
M  V30 3995 C 366.008 -3.60276 -2.69131 0
M  V30 3996 C 364.778 -4.29565 -2.66087 0
M  V30 3997 C 366.976 -4.54367 -2.40947 0
M  V30 3998 N 364.958 -5.66252 -2.37132 0
M  V30 3999 C 366.329 -5.79027 -2.21648 0
M  V30 4000 C 368.384 -4.43327 -2.26639 0
M  V30 4001 C 367.087 -6.93891 -1.89492 0
M  V30 4002 C 369.113 -5.58019 -1.95878 0
M  V30 4003 C 368.475 -6.81695 -1.774 0
M  V30 4004 H 364.574 -0.521614 -0.582617 0
M  V30 4005 H 367.158 -1.68811 -0.970105 0
M  V30 4006 H 365.329 -1.70411 -3.49019 0
M  V30 4007 H 367.061 -1.94453 -3.54923 0
M  V30 4008 H 363.816 -3.81959 -2.80008 0
M  V30 4009 H 364.24 -6.38338 -2.25507 0
M  V30 4010 H 368.882 -3.48333 -2.39633 0
M  V30 4011 H 366.6 -7.88871 -1.75236 0
M  V30 4012 H 370.186 -5.5142 -1.85546 0
M  V30 4013 H 369.066 -7.68942 -1.53941 0
M  V30 4014 N 366.569 1.04691 -1.17803 0
M  V30 4015 C 367.502 2.12068 -0.842765 0
M  V30 4016 C 368.48 1.61455 0.192608 0
M  V30 4017 O 369.664 1.88359 0.072995 0
M  V30 4018 C 366.791 3.37715 -0.258063 0
M  V30 4019 C 365.837 4.07164 -1.26962 0
M  V30 4020 S 366.67 4.55047 -2.82299 0
M  V30 4021 C 367.826 5.83935 -2.25323 0
M  V30 4022 H 368.059 2.4018 -1.75217 0
M  V30 4023 H 365.592 1.17366 -1.00323 0
M  V30 4024 H 367.55 4.10435 0.0727935 0
M  V30 4025 H 366.211 3.0773 0.629357 0
M  V30 4026 H 365.404 4.9746 -0.809263 0
M  V30 4027 H 365.006 3.40533 -1.54639 0
M  V30 4028 H 367.298 6.57552 -1.63192 0
M  V30 4029 H 368.241 6.34725 -3.13894 0
M  V30 4030 H 368.649 5.3874 -1.68582 0
M  V30 4031 N 368.047 0.979072 1.23499 0
M  V30 4032 C 369.295 0.645941 1.91499 0
M  V30 4033 C 369.616 -0.822948 1.76784 0
M  V30 4034 O 368.886 -1.58854 1.14639 0
M  V30 4035 H 367.466 0.235919 0.708767 0
M  V30 4036 H 370.128 1.2426 1.50152 0
M  V30 4037 H 369.224 0.896411 2.9895 0
M  V30 4038 N 369.525 -1.3858 0.750561 0
M  V30 4039 C 370.773 -1.99789 0.30477 0
M  V30 4040 C 371.094 -1.59874 -1.11649 0
M  V30 4041 O 370.364 -0.85417 -1.76297 0
M  V30 4042 H 368.944 -0.738902 0.109694 0
M  V30 4043 H 371.606 -1.69391 0.963983 0
M  V30 4044 H 370.702 -3.09952 0.365499 0
M  V30 4045 N 371.003 -0.499398 -1.49478 0
M  V30 4046 C 372.28 0.108629 -1.95298 0
M  V30 4047 C 372.66 1.54282 -1.44084 0
M  V30 4048 O 372.008 2.18944 -0.653908 0
M  V30 4049 C 372.218 0.0229111 -3.48992 0
M  V30 4050 C 373.566 0.197643 -4.2414 0
M  V30 4051 O 374.59 0.0981735 -3.56065 0
M  V30 4052 O 373.449 0.401669 -5.45022 0
M  V30 4053 H 370.543 0.096181 -0.821388 0
M  V30 4054 H 373.089 -0.561822 -1.6013 0
M  V30 4055 H 371.861 -0.977321 -3.78899 0
M  V30 4056 H 371.484 0.733579 -3.90774 0
M  V30 4057 N 372.481 1.55866 -0.233164 0
M  V30 4058 C 373.897 1.59133 0.121988 0
M  V30 4059 C 374.097 1.25016 1.58029 0
M  V30 4060 O 373.153 0.990922 2.32243 0
M  V30 4061 C 374.466 2.99932 -0.214792 0
M  V30 4062 C 376.014 3.12601 -0.157971 0
M  V30 4063 C 376.489 4.55597 -0.46859 0
M  V30 4064 N 377.98 4.61305 -0.418585 0
M  V30 4065 C 378.715 5.69903 -0.63227 0
M  V30 4066 N 378.211 6.86819 -0.90835 0
M  V30 4067 N 380.004 5.59264 -0.563913 0
M  V30 4068 H 372.155 1.76315 -1.18434 0
M  V30 4069 H 374.418 0.820093 -0.475553 0
M  V30 4070 H 374.124 3.29588 -1.22739 0
M  V30 4071 H 373.998 3.74327 0.464691 0
M  V30 4072 H 376.385 2.82735 0.845283 0
M  V30 4073 H 376.466 2.40511 -0.871102 0
M  V30 4074 H 376.11 4.86182 -1.46934 0
M  V30 4075 H 376.04 5.25928 0.265865 0
M  V30 4076 H 378.531 3.77297 -0.213368 0
M  V30 4077 H 378.844 7.65507 -1.05919 0
M  V30 4078 H 377.189 6.88536 -0.945673 0
M  V30 4079 H 380.38 4.66802 -0.348372 0
M  V30 4080 H 380.553 6.43831 -0.733847 0
M  V30 4081 N 373.959 -0.0401083 1.57549 0
M  V30 4082 C 375.236 -0.767917 1.79896 0
M  V30 4083 C 375.616 -1.9416 0.82856 0
M  V30 4084 O 374.964 -2.2812 -0.131671 0
M  V30 4085 C 375.174 -1.2113 3.27305 0
M  V30 4086 C 376.522 -1.63175 3.91994 0
M  V30 4087 O 377.546 -1.30616 3.31388 0
M  V30 4088 O 376.405 -2.23565 4.98679 0
M  V30 4089 H 373.499 -0.370441 0.739393 0
M  V30 4090 H 376.045 -0.017737 1.69691 0
M  V30 4091 H 374.817 -0.372937 3.89519 0
M  V30 4092 H 374.44 -2.02183 3.42356 0
M  V30 4093 N 375.437 -1.54477 -0.31217 0
M  V30 4094 C 376.685 -1.72884 -1.04668 0
M  V30 4095 C 377.006 -0.511477 -1.88173 0
M  V30 4096 O 376.276 0.474407 -1.90069 0
M  V30 4097 H 374.856 -0.637461 -0.389425 0
M  V30 4098 H 377.518 -1.91807 -0.345852 0
M  V30 4099 H 376.614 -2.61334 -1.70619 0
M  V30 4100 N 376.915 0.57481 -1.46744 0
M  V30 4101 C 377.863 1.70435 -1.58286 0
M  V30 4102 C 378.857 1.63287 -0.450956 0
M  V30 4103 O 380.063 1.68685 -0.628121 0
M  V30 4104 H 376.438 0.56364 -0.497809 0
M  V30 4105 H 378.409 1.57833 -2.53242 0
M  V30 4106 C 377.158 3.08815 -1.59776 0
M  V30 4107 H 376.481 3.1499 -2.46214 0
M  V30 4108 H 377.921 3.87588 -1.71905 0
M  V30 4109 C 376.38 3.35301 -0.327812 0
M  V30 4110 O 376.91 3.97511 0.57861 0
M  V30 4111 N 375.116 2.89816 -0.213274 0
M  V30 4112 H 374.663 2.39371 -0.951798 0
M  V30 4113 H 374.621 3.0791 0.63553 0
M  V30 4114 N 378.394 1.34581 0.820102 0
M  V30 4115 C 379.805 1.24298 1.39309 0
M  V30 4116 C 380.156 -0.130351 1.95767 0
M  V30 4117 O 379.281 -1.0308 1.90272 0
M  V30 4118 C 379.876 2.25054 2.53251 0
M  V30 4119 C 378.435 2.18552 3.0645 0
M  V30 4120 C 377.582 2.11503 1.79337 0
M  V30 4121 H 380.533 1.45906 0.624262 0
M  V30 4122 H 380.554 1.86917 3.31425 0
M  V30 4123 H 380.066 3.24996 2.1213 0
M  V30 4124 H 378.167 1.21976 3.52069 0
M  V30 4125 H 378.28 3.0993 3.65349 0
M  V30 4126 H 376.644 1.57268 2.00347 0
M  V30 4127 H 377.427 3.13284 1.40386 0
M  V30 4128 N 379.872 -1.04064 1.18357 0
M  V30 4129 C 380.82 -2.14187 0.907007 0
M  V30 4130 C 381.814 -1.68879 -0.132725 0
M  V30 4131 O 383.02 -1.79993 0.0154248 0
M  V30 4132 H 379.395 -0.699585 0.275835 0
M  V30 4133 H 381.366 -2.34711 1.84264 0
M  V30 4134 C 380.115 -3.44785 0.449254 0
M  V30 4135 H 379.438 -3.80058 1.24081 0
M  V30 4136 H 380.878 -4.22974 0.294737 0
M  V30 4137 C 379.337 -3.26391 -0.834909 0
M  V30 4138 O 379.867 -3.53973 -1.89911 0
M  V30 4139 N 378.073 -2.79726 -0.787523 0
M  V30 4140 H 377.62 -2.5748 0.0787347 0
M  V30 4141 H 377.578 -2.67798 -1.64716 0
M  V30 4142 N 381.35 -0.985608 -1.22978 0
M  V30 4143 C 382.596 -0.65836 -1.91816 0
M  V30 4144 C 382.929 0.806692 -1.76653 0
M  V30 4145 O 382.204 1.58252 -1.13078 0
M  V30 4146 C 382.487 -1.056 -3.44268 0
M  V30 4147 C 382.34 -2.57906 -3.68516 0
M  V30 4148 C 383.659 -0.603781 -4.35939 0
M  V30 4149 H 380.778 -0.24065 -0.696604 0
M  V30 4150 H 383.42 -1.22783 -1.44998 0
M  V30 4151 H 381.57 -0.571445 -3.84274 0
M  V30 4152 H 383.242 -3.13976 -3.3796 0
M  V30 4153 H 381.485 -3.00305 -3.13048 0
M  V30 4154 H 382.156 -2.80779 -4.75255 0
M  V30 4155 H 384.632 -1.01987 -4.03408 0
M  V30 4156 H 383.508 -0.910383 -5.41298 0
M  V30 4157 H 383.769 0.495761 -4.39312 0
M  V30 4158 N 382.828 1.3818 -0.7579 0
M  V30 4159 C 384.056 2.04301 -0.326937 0
M  V30 4160 C 384.471 1.57163 1.0462 0
M  V30 4161 O 383.828 0.746626 1.66529 0
M  V30 4162 C 383.879 3.59846 -0.345363 0
M  V30 4163 O 383.6 4.05256 -1.66432 0
M  V30 4164 C 385.101 4.4319 0.098927 0
M  V30 4165 H 382.321 0.656443 -0.139012 0
M  V30 4166 H 384.865 1.76786 -1.02796 0
M  V30 4167 H 383.02 3.86182 0.306955 0
M  V30 4168 H 383.434 4.99709 -1.59345 0
M  V30 4169 H 384.908 5.51989 0.0348745 0
M  V30 4170 H 385.385 4.23947 1.14741 0
M  V30 4171 H 385.991 4.22051 -0.52468 0
M  V30 4172 N 384.306 0.507319 1.49211 0
M  V30 4173 C 385.269 -0.256763 2.27757 0
M  V30 4174 C 386.269 -0.888287 1.34038 0
M  V30 4175 O 387.459 -0.751841 1.5714 0
M  V30 4176 C 384.591 -1.36905 3.12202 0
M  V30 4177 H 385.784 0.432557 2.96764 0
M  V30 4178 H 383.337 0.262488 1.5408 0
M  V30 4179 H 384.072 -2.09233 2.47775 0
M  V30 4180 H 383.857 -0.921599 3.81115 0
M  V30 4181 H 385.347 -1.9071 3.7151 0
M  V30 4182 N 385.784 -1.5574 0.241426 0
M  V30 4183 C 387.061 -1.90704 -0.434881 0
M  V30 4184 C 387.441 -1.16145 -1.76277 0
M  V30 4185 O 386.789 -0.277152 -2.26813 0
M  V30 4186 C 386.999 -3.43657 -0.608343 0
M  V30 4187 C 388.347 -4.14806 -0.906725 0
M  V30 4188 O 389.371 -3.49366 -0.694408 0
M  V30 4189 O 388.23 -5.30548 -1.31075 0
M  V30 4190 H 385.324 -0.793592 -0.23268 0
M  V30 4191 H 387.87 -1.67288 0.285086 0
M  V30 4192 H 386.642 -3.89927 0.327505 0
M  V30 4193 H 386.265 -3.72918 -1.37906 0
M  V30 4194 N 387.262 0.0317525 -1.57568 0
M  V30 4195 C 388.511 0.722131 -1.8833 0
M  V30 4196 C 388.824 1.76664 -0.839587 0
M  V30 4197 O 390.03 2.50942 -1.03635 0
M  V30 4198 C 388.486 1.33544 -3.34207 0
M  V30 4199 C 388.094 0.327415 -4.46802 0
M  V30 4200 C 389.838 2.00585 -3.7412 0
M  V30 4201 C 387.745 0.948915 -5.83738 0
M  V30 4202 H 386.675 0.273466 -0.702661 0
M  V30 4203 H 389.326 -0.0235811 -1.83485 0
M  V30 4204 H 387.708 2.13077 -3.33788 0
M  V30 4205 H 388.882 -0.441006 -4.58685 0
M  V30 4206 H 387.197 -0.240758 -4.15703 0
M  V30 4207 H 389.794 2.47932 -4.73744 0
M  V30 4208 H 390.137 2.82285 -3.05975 0
M  V30 4209 H 390.67 1.27831 -3.76702 0
M  V30 4210 H 387.409 0.171387 -6.55276 0
M  V30 4211 H 386.929 1.68724 -5.7558 0
M  V30 4212 H 388.608 1.45705 -6.3038 0
M  V30 4213 N 388.74 1.54641 0.303973 0
M  V30 4214 C 389.968 1.77768 1.05858 0
M  V30 4215 C 390.383 0.535722 1.8104 0
M  V30 4216 O 389.74 -0.494337 1.75677 0
M  V30 4217 C 389.791 2.9834 2.04146 0
M  V30 4218 O 389.512 4.17736 1.32015 0
M  V30 4219 C 391.013 3.33832 2.91669 0
M  V30 4220 H 388.233 0.592961 0.314067 0
M  V30 4221 H 390.777 2.01583 0.344149 0
M  V30 4222 H 388.932 2.76742 2.71096 0
M  V30 4223 H 389.346 4.85693 1.97998 0
M  V30 4224 H 390.82 4.21448 3.56491 0
M  V30 4225 H 391.297 2.51857 3.59812 0
M  V30 4226 H 391.903 3.57579 2.30254 0
M  V30 4227 N 390.218 -0.567019 1.47046 0
M  V30 4228 C 391.634 -0.891975 1.32348 0
M  V30 4229 C 391.834 -1.99154 0.306616 0
M  V30 4230 O 390.89 -2.50883 -0.28532 0
M  V30 4231 C 392.203 -1.29449 2.7141 0
M  V30 4232 C 393.751 -1.40646 2.79621 0
M  V30 4233 C 394.226 -1.84257 4.19301 0
M  V30 4234 N 395.717 -1.91424 4.21795 0
M  V30 4235 C 396.452 -2.26476 5.26779 0
M  V30 4236 N 395.948 -2.60211 6.42077 0
M  V30 4237 N 397.741 -2.27166 5.14152 0
M  V30 4238 H 389.892 0.159074 2.11803 0
M  V30 4239 H 392.155 0.00849752 0.947962 0
M  V30 4240 H 391.861 -0.560448 3.47206 0
M  V30 4241 H 391.735 -2.25273 3.02542 0
M  V30 4242 H 394.122 -2.13133 2.04104 0
M  V30 4243 H 394.203 -0.430339 2.52154 0
M  V30 4244 H 393.847 -1.12343 4.95319 0
M  V30 4245 H 393.777 -2.82855 4.44185 0
M  V30 4246 H 396.268 -1.6778 3.38612 0
M  V30 4247 H 396.581 -2.85956 7.17948 0
M  V30 4248 H 394.926 -2.57813 6.45413 0
M  V30 4249 H 398.117 -2.00244 4.23107 0
M  V30 4250 H 398.29 -2.54154 5.96079 0
M  V30 4251 N 391.696 -1.35014 -0.812953 0
M  V30 4252 C 392.646 -1.23959 -1.91359 0
M  V30 4253 C 393.63 -0.136306 -1.60322 0
M  V30 4254 O 394.822 -0.366925 -1.73155 0
M  V30 4255 C 391.951 -1.00736 -3.28188 0
M  V30 4256 C 391.037 -2.15426 -3.65311 0
M  V30 4257 N 391.428 -3.40612 -3.73921 0
M  V30 4258 C 389.726 -2.06672 -3.95225 0
M  V30 4259 C 390.427 -4.15994 -4.06601 0
M  V30 4260 N 389.403 -3.44685 -4.20349 0
M  V30 4261 H 393.205 -2.18815 -1.96208 0
M  V30 4262 H 390.719 -1.27395 -1.00718 0
M  V30 4263 H 392.716 -0.909052 -4.06868 0
M  V30 4264 H 391.376 -0.067586 -3.2463 0
M  V30 4265 H 392.387 -3.75043 -3.5716 0
M  V30 4266 H 389.064 -1.20511 -3.99729 0
M  V30 4267 H 390.454 -5.24145 -4.20382 0
M  V30 4268 N 393.175 1.03435 -1.18907 0
M  V30 4269 C 394.421 1.77005 -0.989798 0
M  V30 4270 C 394.754 1.88205 0.478816 0
M  V30 4271 O 394.029 1.39481 1.35556 0
M  V30 4272 C 394.312 3.19925 -1.65287 0
M  V30 4273 C 394.165 3.1663 -3.19477 0
M  V30 4274 C 395.484 4.18189 -1.37134 0
M  V30 4275 H 392.603 0.642538 -0.360991 0
M  V30 4276 H 395.245 1.20784 -1.46667 0
M  V30 4277 H 393.395 3.67929 -1.24741 0
M  V30 4278 H 395.067 2.76567 -3.692 0
M  V30 4279 H 393.31 2.54491 -3.51307 0
M  V30 4280 H 393.981 4.1758 -3.61013 0
M  V30 4281 H 396.457 3.78761 -1.72276 0
M  V30 4282 H 395.333 5.16394 -1.86087 0
M  V30 4283 H 395.594 4.41112 -0.295424 0
M  V30 4284 N 394.653 0.992116 1.22453 0
M  V30 4285 C 395.583 0.561677 2.26644 0
M  V30 4286 C 396.564 -0.411055 1.65059 0
M  V30 4287 O 397.749 -0.301861 1.9184 0
M  V30 4288 C 394.879 -0.125247 3.47074 0
M  V30 4289 C 393.833 0.765948 4.21091 0
M  V30 4290 C 393.159 -0.0538484 5.34673 0
M  V30 4291 C 394.459 2.06242 4.79856 0
M  V30 4292 H 396.153 1.43259 2.62902 0
M  V30 4293 H 393.699 0.690283 1.26377 0
M  V30 4294 H 395.652 -0.437764 4.1912 0
M  V30 4295 H 394.376 -1.03069 3.0991 0
M  V30 4296 H 393.035 1.0621 3.50878 0
M  V30 4297 H 392.683 -0.960188 4.9375 0
M  V30 4298 H 392.383 0.539415 5.85119 0
M  V30 4299 H 393.907 -0.360477 6.09535 0
M  V30 4300 H 395.321 1.8139 5.43848 0
M  V30 4301 H 393.718 2.60444 5.40638 0
M  V30 4302 H 394.788 2.74167 3.99951 0
M  V30 4303 N 396.131 -1.37776 0.765217 0
M  V30 4304 C 397.061 -2.32945 0.160953 0
M  V30 4305 C 398.042 -1.55454 -0.690516 0
M  V30 4306 O 399.227 -1.83721 -0.629318 0
M  V30 4307 C 396.357 -3.39669 -0.724031 0
M  V30 4308 C 395.311 -4.27992 0.0256173 0
M  V30 4309 C 394.637 -5.25673 -0.978383 0
M  V30 4310 C 395.937 -5.08309 1.20082 0
M  V30 4311 H 397.631 -2.83728 0.955969 0
M  V30 4312 H 395.177 -1.36416 0.461149 0
M  V30 4313 H 397.13 -4.05219 -1.15652 0
M  V30 4314 H 395.854 -2.87396 -1.5515 0
M  V30 4315 H 394.513 -3.63964 0.438812 0
M  V30 4316 H 394.161 -4.69682 -1.80022 0
M  V30 4317 H 393.861 -5.85625 -0.481378 0
M  V30 4318 H 395.385 -5.94098 -1.40995 0
M  V30 4319 H 396.799 -5.67034 0.845307 0
M  V30 4320 H 395.196 -5.77554 1.62947 0
M  V30 4321 H 396.266 -4.41365 2.00811 0
M  V30 4322 N 397.609 -0.515225 -1.4894 0
M  V30 4323 C 398.539 0.244628 -2.32215 0
M  V30 4324 C 399.52 0.949136 -1.41157 0
M  V30 4325 O 400.705 0.937783 -1.70057 0
M  V30 4326 C 397.835 1.30096 -3.22013 0
M  V30 4327 C 396.789 0.715486 -4.21977 0
M  V30 4328 C 396.115 1.87339 -5.00808 0
M  V30 4329 C 397.415 -0.302982 -5.2142 0
M  V30 4330 H 399.109 -0.450501 -2.95991 0
M  V30 4331 H 396.655 -0.218098 -1.42339 0
M  V30 4332 H 398.608 1.84037 -3.79089 0
M  V30 4333 H 397.332 2.02547 -2.56207 0
M  V30 4334 H 395.991 0.197715 -3.66066 0
M  V30 4335 H 395.639 2.58592 -4.31438 0
M  V30 4336 H 395.339 1.48764 -5.68457 0
M  V30 4337 H 396.863 2.41686 -5.60732 0
M  V30 4338 H 398.277 0.148802 -5.73107 0
M  V30 4339 H 396.674 -0.60532 -5.97039 0
M  V30 4340 H 397.744 -1.21395 -4.69459 0
M  V30 4341 N 399.087 1.5561 -0.249682 0
M  V30 4342 C 400.312 2.03865 0.381305 0
M  V30 4343 C 400.737 1.12769 1.50548 0
M  V30 4344 O 400.095 0.121189 1.80895 0
M  V30 4345 C 400.143 3.50101 0.863816 0
M  V30 4346 O 399.247 3.62132 1.97318 0
M  V30 4347 H 398.588 0.658827 0.0827194 0
M  V30 4348 H 401.118 2.01105 -0.376552 0
M  V30 4349 H 401.128 3.90975 1.1663 0
M  V30 4350 H 399.803 4.1588 0.0411816 0
M  V30 4351 H 398.38 3.33155 1.67517 0
M  V30 4352 N 400.565 -0.0233959 1.57583 0
M  V30 4353 C 401.981 -0.379134 1.55031 0
M  V30 4354 C 402.181 -1.76255 0.976548 0
M  V30 4355 O 401.237 -2.45266 0.600078 0
M  V30 4356 C 402.55 -0.275792 2.99433 0
M  V30 4357 C 404.098 -0.352458 3.11009 0
M  V30 4358 C 404.573 -0.278501 4.57152 0
M  V30 4359 N 406.064 -0.337123 4.61972 0
M  V30 4360 C 406.799 -0.302876 5.726 0
M  V30 4361 N 406.295 -0.220589 6.92449 0
M  V30 4362 N 408.088 -0.353023 5.6099 0
M  V30 4363 H 400.239 0.881869 1.93227 0
M  V30 4364 H 402.502 0.335867 0.886509 0
M  V30 4365 H 402.208 0.675108 3.4516 0
M  V30 4366 H 402.082 -1.06721 3.61788 0
M  V30 4367 H 404.469 -1.29379 2.65226 0
M  V30 4368 H 404.55 0.468409 2.51475 0
M  V30 4369 H 404.194 0.659189 5.03604 0
M  V30 4370 H 404.124 -1.11755 5.14605 0
M  V30 4371 H 406.615 -0.403002 3.75745 0
M  V30 4372 H 406.928 -0.199713 7.72542 0
M  V30 4373 H 405.273 -0.186555 6.9475 0
M  V30 4374 H 408.464 -0.415339 4.66254 0
M  V30 4375 H 408.637 -0.322866 6.47195 0
M  V30 4376 N 402.043 -1.548 -0.295768 0
M  V30 4377 C 403.289 -1.75517 -1.02789 0
M  V30 4378 C 403.644 -0.537266 -1.84746 0
M  V30 4379 O 402.937 0.470299 -1.85738 0
M  V30 4380 C 403.131 -2.98797 -1.961 0
M  V30 4381 C 402.96 -4.3246 -1.23321 0
M  V30 4382 C 401.73 -4.96131 -0.95822 0
M  V30 4383 C 403.928 -5.10365 -0.635024 0
M  V30 4384 N 401.91 -6.1357 -0.201257 0
M  V30 4385 C 403.281 -6.19999 -0.0110937 0
M  V30 4386 C 405.336 -4.94957 -0.540594 0
M  V30 4387 C 404.039 -7.15904 0.698136 0
M  V30 4388 C 406.065 -5.91197 0.154992 0
M  V30 4389 C 405.427 -7.00203 0.767752 0
M  V30 4390 H 401.526 -0.694786 -0.358882 0
M  V30 4391 H 404.11 -1.92281 -0.305943 0
M  V30 4392 H 402.281 -2.83448 -2.6554 0
M  V30 4393 H 404.013 -3.08017 -2.62502 0
M  V30 4394 H 400.768 -4.56595 -1.25771 0
M  V30 4395 H 401.192 -6.76802 0.16389 0
M  V30 4396 H 405.834 -4.10803 -1.00003 0
M  V30 4397 H 403.552 -7.99595 1.16933 0
M  V30 4398 H 407.138 -5.81353 0.228069 0
M  V30 4399 H 406.018 -7.73393 1.29743 0
M  V30 4400 N 403.521 0.559213 -1.47345 0
M  V30 4401 C 404.468 1.66645 -1.59682 0
M  V30 4402 C 405.438 1.60168 -0.43994 0
M  V30 4403 O 406.623 1.79031 -0.659736 0
M  V30 4404 C 403.763 3.04969 -1.61518 0
M  V30 4405 C 402.876 3.21897 -2.88108 0
M  V30 4406 C 402.011 4.50608 -2.81294 0
M  V30 4407 C 401.05 4.60961 -4.02717 0
M  V30 4408 N 400.187 5.81024 -3.94151 0
M  V30 4409 H 405.027 1.55439 -2.54249 0
M  V30 4410 H 402.564 0.757219 -1.26113 0
M  V30 4411 H 404.522 3.85064 -1.60566 0
M  V30 4412 H 403.152 3.15015 -0.704645 0
M  V30 4413 H 402.204 2.35248 -2.98936 0
M  V30 4414 H 403.516 3.25412 -3.78032 0
M  V30 4415 H 402.67 5.3896 -2.7858 0
M  V30 4416 H 401.409 4.49568 -1.89049 0
M  V30 4417 H 400.414 3.71021 -4.05738 0
M  V30 4418 H 401.639 4.63761 -4.96087 0
M  V30 4419 H 399.585 5.80938 -3.04708 0
M  V30 4420 H 399.502 5.85909 -4.77752 0
M  V30 4421 H 400.77 6.71744 -3.9545 0
M  V30 4422 N 404.999 1.35443 0.805782 0
M  V30 4423 C 405.962 1.28301 1.89925 0
M  V30 4424 C 406.962 0.194285 1.59622 0
M  V30 4425 O 408.152 0.448036 1.6834 0
M  V30 4426 C 405.284 0.984997 3.2636 0
M  V30 4427 H 406.477 2.2553 1.97677 0
M  V30 4428 H 404.03 1.19979 1.00173 0
M  V30 4429 H 404.765 0.016603 3.24296 0
M  V30 4430 H 404.55 1.77269 3.4974 0
M  V30 4431 H 406.04 0.960651 4.064 0
M  V30 4432 N 406.477 -1.02803 1.19454 0
M  V30 4433 C 407.705 -1.79841 1.02297 0
M  V30 4434 C 408.12 -1.83879 -0.428259 0
M  V30 4435 O 407.477 -1.28345 -1.29745 0
M  V30 4436 C 407.528 -3.24852 1.58598 0
M  V30 4437 O 407.249 -3.21097 2.98041 0
M  V30 4438 C 408.75 -4.18485 1.46236 0
M  V30 4439 H 405.97 -0.565936 0.360496 0
M  V30 4440 H 408.514 -1.2948 1.58288 0
M  V30 4441 H 406.669 -3.72401 1.06753 0
M  V30 4442 H 407.083 -4.12033 3.24545 0
M  V30 4443 H 408.557 -5.18121 1.90407 0
M  V30 4444 H 409.034 -4.37254 0.41301 0
M  V30 4445 H 409.64 -3.76811 1.97215 0
M  V30 4446 N 407.956 -0.998596 -1.21925 0
M  V30 4447 C 409.233 -0.593401 -1.86382 0
M  V30 4448 C 409.613 0.92916 -1.89552 0
M  V30 4449 O 408.961 1.81347 -1.39017 0
M  V30 4450 C 409.171 -1.22039 -3.26967 0
M  V30 4451 C 410.519 -1.32449 -4.03413 0
M  V30 4452 O 411.543 -1.17522 -3.36254 0
M  V30 4453 O 410.402 -1.56395 -5.23644 0
M  V30 4454 H 407.496 -0.202385 -0.801854 0
M  V30 4455 H 410.042 -1.09484 -1.29659 0
M  V30 4456 H 408.814 -2.26158 -3.19325 0
M  V30 4457 H 408.437 -0.704906 -3.91301 0
M  V30 4458 N 409.434 1.37368 -0.772513 0
M  V30 4459 C 410.364 2.32856 -0.173304 0
M  V30 4460 C 411.345 1.55818 0.682262 0
M  V30 4461 O 412.53 1.84052 0.619566 0
M  V30 4462 C 409.66 3.40048 0.706007 0
M  V30 4463 C 408.614 4.27973 -0.0483144 0
M  V30 4464 C 407.94 5.26184 0.950491 0
M  V30 4465 C 409.24 5.07665 -1.22776 0
M  V30 4466 H 410.934 2.83217 -0.971002 0
M  V30 4467 H 408.48 1.3617 -0.468377 0
M  V30 4468 H 410.433 4.05827 1.13501 0
M  V30 4469 H 409.157 2.88214 1.53623 0
M  V30 4470 H 407.816 3.63726 -0.458107 0
M  V30 4471 H 407.464 4.7063 1.77529 0
M  V30 4472 H 407.164 5.85872 0.450314 0
M  V30 4473 H 408.688 5.94838 1.37842 0
M  V30 4474 H 410.102 5.66578 -0.875366 0
M  V30 4475 H 408.499 5.76681 -1.66007 0
M  V30 4476 H 409.569 4.40294 -2.03149 0
M  V30 4477 N 410.912 0.523116 1.48665 0
M  V30 4478 C 412.159 -0.0134763 2.02496 0
M  V30 4479 C 412.487 -1.3493 1.40086 0
M  V30 4480 O 411.742 -1.88286 0.533567 0
M  V30 4481 C 412.041 -0.191671 3.56886 0
M  V30 4482 C 411.707 1.06893 4.38046 0
M  V30 4483 C 410.369 1.41443 4.59943 0
M  V30 4484 C 412.721 1.90584 4.85106 0
M  V30 4485 C 410.049 2.59594 5.26144 0
M  V30 4486 C 412.401 3.07907 5.52609 0
M  V30 4487 C 411.065 3.42811 5.72745 0
M  V30 4488 H 410.335 -0.00493133 0.740984 0
M  V30 4489 H 412.982 0.687751 1.78724 0
M  V30 4490 H 411.287 -0.97561 3.79459 0
M  V30 4491 H 412.984 -0.621659 3.96152 0
M  V30 4492 H 409.574 0.789848 4.21259 0
M  V30 4493 H 413.758 1.65203 4.67997 0
M  V30 4494 H 409.014 2.86847 5.39934 0
M  V30 4495 H 413.188 3.73066 5.88043 0
M  V30 4496 H 410.815 4.34462 6.23816 0
M  V30 4497 N 412.39 -1.55475 0.257931 0
M  V30 4498 C 413.32 -2.24815 -0.630912 0
M  V30 4499 C 414.301 -1.23224 -1.17259 0
M  V30 4500 O 415.486 -1.51904 -1.20991 0
M  V30 4501 C 412.616 -2.95609 -1.82298 0
M  V30 4502 C 411.57 -4.03982 -1.41359 0
M  V30 4503 C 410.896 -4.6226 -2.68738 0
M  V30 4504 C 412.196 -5.19109 -0.57648 0
M  V30 4505 H 413.89 -2.99354 -0.0526878 0
M  V30 4506 H 411.436 -1.4398 -0.023901 0
M  V30 4507 H 413.389 -3.42822 -2.45054 0
M  V30 4508 H 412.113 -2.18577 -2.42676 0
M  V30 4509 H 410.772 -3.57555 -0.809324 0
M  V30 4510 H 410.42 -3.81915 -3.27338 0
M  V30 4511 H 410.12 -5.35424 -2.42065 0
M  V30 4512 H 411.644 -5.12212 -3.32372 0
M  V30 4513 H 413.058 -5.62479 -1.10861 0
M  V30 4514 H 411.455 -5.98729 -0.405351 0
M  V30 4515 H 412.525 -4.83174 0.408776 0
M  V30 4516 N 413.868 0.0150385 -1.57593 0
M  V30 4517 C 414.815 1.01126 -2.07466 0
M  V30 4518 C 415.785 1.35064 -0.966794 0
M  V30 4519 O 416.97 1.4516 -1.23827 0
M  V30 4520 C 414.11 2.30276 -2.57035 0
M  V30 4521 C 413.223 2.02373 -3.81666 0
M  V30 4522 C 412.358 3.25496 -4.19793 0
M  V30 4523 C 411.397 2.93211 -5.37303 0
M  V30 4524 N 410.534 4.08826 -5.70794 0
M  V30 4525 H 415.374 0.57901 -2.92321 0
M  V30 4526 H 412.911 0.27426 -1.44521 0
M  V30 4527 H 414.869 3.05757 -2.83846 0
M  V30 4528 H 413.499 2.71197 -1.75077 0
M  V30 4529 H 412.551 1.17327 -3.61854 0
M  V30 4530 H 413.863 1.74567 -4.67256 0
M  V30 4531 H 413.017 4.09333 -4.47807 0
M  V30 4532 H 411.756 3.56428 -3.32882 0
M  V30 4533 H 410.761 2.07777 -5.09027 0
M  V30 4534 H 411.986 2.63542 -6.25877 0
M  V30 4535 H 409.932 4.39682 -4.86842 0
M  V30 4536 H 409.849 3.84491 -6.50924 0
M  V30 4537 H 411.117 4.93496 -6.03392 0
M  V30 4538 N 415.346 1.54954 0.287554 0
M  V30 4539 C 416.623 1.65569 1.04146 0
M  V30 4540 C 417.003 0.512672 2.0478 0
M  V30 4541 O 416.351 -0.489038 2.23205 0
M  V30 4542 C 416.561 3.04163 1.71131 0
M  V30 4543 C 417.909 3.61429 2.22832 0
M  V30 4544 O 418.933 3.06702 1.81141 0
M  V30 4545 O 417.792 4.57281 2.9926 0
M  V30 4546 H 414.886 0.671881 0.482188 0
M  V30 4547 H 417.432 1.67297 0.28457 0
M  V30 4548 H 416.204 3.78796 0.981303 0
M  V30 4549 H 415.827 3.06271 2.53543 0
M  V30 4550 N 416.824 -0.551391 1.4764 0
M  V30 4551 C 418.073 -1.30467 1.53822 0
M  V30 4552 C 418.386 -1.94495 0.207661 0
M  V30 4553 O 419.592 -2.71099 0.147533 0
M  V30 4554 C 418.048 -2.36616 2.71184 0
M  V30 4555 C 417.656 -1.78754 4.10793 0
M  V30 4556 C 419.4 -3.13088 2.86663 0
M  V30 4557 C 417.307 -2.82717 5.19447 0
M  V30 4558 H 416.237 -0.490584 0.572576 0
M  V30 4559 H 418.888 -0.58494 1.73927 0
M  V30 4560 H 417.27 -3.11529 2.4447 0
M  V30 4561 H 418.444 -1.10173 4.47435 0
M  V30 4562 H 416.759 -1.14846 4.00249 0
M  V30 4563 H 419.356 -3.90736 3.65007 0
M  V30 4564 H 419.699 -3.67635 1.95321 0
M  V30 4565 H 420.232 -2.45288 3.13175 0
M  V30 4566 H 416.971 -2.33018 6.12685 0
M  V30 4567 H 416.491 -3.4969 4.87316 0
M  V30 4568 H 418.17 -3.46102 5.46646 0
M  V30 4569 N 418.302 -1.35869 -0.798587 0
M  V30 4570 C 419.234 -1.25305 -1.91915 0
M  V30 4571 C 420.247 -0.174548 -1.61862 0
M  V30 4572 O 421.436 -0.428499 -1.73281 0
M  V30 4573 C 418.536 -0.9086 -3.26493 0
M  V30 4574 C 417.709 -2.08711 -3.84394 0
M  V30 4575 C 416.768 -1.71717 -4.97393 0
M  V30 4576 O 415.794 -2.43692 -5.14396 0
M  V30 4577 N 416.996 -0.645473 -5.769 0
M  V30 4578 H 419.761 -2.21849 -2.01502 0
M  V30 4579 H 417.322 -1.29143 -0.976408 0
M  V30 4580 H 419.314 -0.642455 -3.99568 0
M  V30 4581 H 417.884 -0.0325815 -3.12583 0
M  V30 4582 H 417.104 -2.51659 -3.03416 0
M  V30 4583 H 418.392 -2.87468 -4.19809 0
M  V30 4584 H 417.79 -0.047648 -5.6568 0
M  V30 4585 H 416.347 -0.43913 -6.50319 0
M  V30 4586 N 419.78 1.02168 -1.19998 0
M  V30 4587 C 421.026 1.75945 -1.00852 0
M  V30 4588 C 421.359 1.88702 0.458828 0
M  V30 4589 O 420.634 1.40911 1.34069 0
M  V30 4590 C 420.917 3.18154 -1.68671 0
M  V30 4591 C 420.77 3.13224 -3.22817 0
M  V30 4592 C 422.089 4.16711 -1.41561 0
M  V30 4593 H 419.208 0.638673 -0.367785 0
M  V30 4594 H 421.85 1.19222 -1.4794 0
M  V30 4595 H 420 3.66586 -1.28636 0
M  V30 4596 H 421.672 2.72635 -3.72112 0
M  V30 4597 H 419.915 2.50751 -3.53986 0
M  V30 4598 H 420.586 4.13728 -3.65422 0
M  V30 4599 H 423.062 3.76913 -1.76284 0
M  V30 4600 H 421.938 5.14391 -1.91553 0
M  V30 4601 H 422.199 4.40774 -0.342193 0
M  V30 4602 N 421.258 1.00505 1.21394 0
M  V30 4603 C 422.188 0.585684 2.26035 0
M  V30 4604 C 423.169 -0.393525 1.65485 0
M  V30 4605 O 424.354 -0.281497 1.92149 0
M  V30 4606 C 421.484 -0.0884283 3.47187 0
M  V30 4607 C 420.438 0.810567 4.20254 0
M  V30 4608 C 419.764 0.00286382 5.347 0
M  V30 4609 C 421.064 2.1132 4.77641 0
M  V30 4610 H 422.758 1.46039 2.61368 0
M  V30 4611 H 420.304 0.703648 1.25638 0
M  V30 4612 H 422.257 -0.393286 4.19561 0
M  V30 4613 H 420.981 -0.997766 3.10986 0
M  V30 4614 H 419.64 1.09925 3.49731 0
M  V30 4615 H 419.288 -0.907765 4.94741 0
M  V30 4616 H 418.988 0.601444 5.84514 0
M  V30 4617 H 420.512 -0.295808 6.09883 0
M  V30 4618 H 421.926 1.87148 5.41893 0
M  V30 4619 H 420.323 2.66164 5.37845 0
M  V30 4620 H 421.393 2.78393 3.9702 0
M  V30 4621 N 422.737 -1.36956 0.779787 0
M  V30 4622 C 423.983 -1.99787 0.348281 0
M  V30 4623 C 424.316 -1.61756 -1.07465 0
M  V30 4624 O 423.591 -0.867639 -1.74075 0
M  V30 4625 C 423.874 -3.56597 0.50104 0
M  V30 4626 C 423.727 -4.04513 1.96697 0
M  V30 4627 C 425.046 -4.40008 -0.0898097 0
M  V30 4628 H 422.165 -0.725796 0.128022 0
M  V30 4629 H 424.807 -1.62514 0.984331 0
M  V30 4630 H 422.957 -3.88479 -0.0404347 0
M  V30 4631 H 424.629 -3.83161 2.56876 0
M  V30 4632 H 422.872 -3.56408 2.47297 0
M  V30 4633 H 423.543 -5.1352 2.02486 0
M  V30 4634 H 426.019 -4.14431 0.372293 0
M  V30 4635 H 424.895 -5.4888 0.0471605 0
M  V30 4636 H 425.156 -4.26035 -1.18096 0
M  V30 4637 N 424.215 -0.530993 -1.48385 0
M  V30 4638 C 425.44 0.000729535 -2.074 0
M  V30 4639 C 425.865 1.27298 -1.3848 0
M  V30 4640 O 425.223 1.75599 -0.451081 0
M  V30 4641 C 425.271 0.206697 -3.60007 0
M  V30 4642 O 424.375 1.27514 -3.92191 0
M  V30 4643 H 423.716 -0.039583 -0.662819 0
M  V30 4644 H 426.246 -0.739194 -1.9078 0
M  V30 4645 H 426.256 0.42904 -4.05738 0
M  V30 4646 H 424.931 -0.722675 -4.09573 0
M  V30 4647 H 423.508 1.03537 -3.58238 0
M  V30 4648 N 425.693 1.55336 -0.266172 0
M  V30 4649 C 426.603 2.2583 0.635458 0
M  V30 4650 C 427.619 1.28106 1.17749 0
M  V30 4651 O 428.795 1.61024 1.20968 0
M  V30 4652 C 425.86 2.95879 1.80712 0
M  V30 4653 C 424.921 4.09059 1.30265 0
M  V30 4654 C 424.154 4.75759 2.41846 0
M  V30 4655 O 424.377 4.41622 3.61007 0
M  V30 4656 O 423.311 5.63888 2.1051 0
M  V30 4657 H 427.137 3.03631 0.0646693 0
M  V30 4658 H 424.722 1.49361 -0.0339177 0
M  V30 4659 H 426.604 3.39932 2.49047 0
M  V30 4660 H 425.279 2.21002 2.36516 0
M  V30 4661 H 424.186 3.69482 0.586019 0
M  V30 4662 H 425.519 4.85811 0.790458 0
M  V30 4663 N 427.171 -0.0066808 1.57599 0
M  V30 4664 C 428.101 -0.999296 2.11036 0
M  V30 4665 C 429.082 -1.36278 1.01795 0
M  V30 4666 O 430.267 -1.4477 1.29442 0
M  V30 4667 C 427.397 -2.29328 2.60818 0
M  V30 4668 C 426.351 -2.07159 3.74525 0
M  V30 4669 C 425.677 -3.42512 4.10596 0
M  V30 4670 C 426.977 -1.43959 5.02069 0
M  V30 4671 H 428.671 -0.554382 2.94223 0
M  V30 4672 H 426.217 -0.265221 1.41536 0
M  V30 4673 H 428.17 -2.99117 2.96828 0
M  V30 4674 H 426.894 -2.7592 1.74745 0
M  V30 4675 H 425.553 -1.39797 3.38899 0
M  V30 4676 H 425.201 -3.86795 3.21556 0
M  V30 4677 H 424.901 -3.28498 4.87199 0
M  V30 4678 H 426.425 -4.13628 4.4916 0
M  V30 4679 H 427.839 -2.03696 5.35893 0
M  V30 4680 H 426.236 -1.40452 5.83432 0
M  V30 4681 H 427.306 -0.407992 4.83181 0
M  V30 4682 N 428.649 -1.55105 -0.279332 0
M  V30 4683 C 429.874 -1.7976 -1.03446 0
M  V30 4684 C 430.299 -0.565952 -1.79384 0
M  V30 4685 O 429.657 0.484259 -1.74713 0
M  V30 4686 C 429.705 -3.0179 -1.97371 0
M  V30 4687 O 428.809 -2.76432 -3.06038 0
M  V30 4688 H 428.15 -0.594334 -0.29608 0
M  V30 4689 H 430.68 -2.02235 -0.310165 0
M  V30 4690 H 430.69 -3.30351 -2.39441 0
M  V30 4691 H 429.365 -3.91085 -1.4151 0
M  V30 4692 H 427.942 -2.58949 -2.68328 0
M  V30 4693 N 430.127 0.543554 -1.4793 0
M  V30 4694 C 431.06 1.66556 -1.55995 0
M  V30 4695 C 432.038 1.57315 -0.411205 0
M  V30 4696 O 433.222 1.7798 -0.620922 0
M  V30 4697 C 430.349 3.04883 -1.47527 0
M  V30 4698 C 429.395 3.32526 -2.67074 0
M  V30 4699 S 430.228 3.20282 -4.29162 0
M  V30 4700 C 431.384 4.61079 -4.23269 0
M  V30 4701 H 431.617 1.59462 -2.50917 0
M  V30 4702 H 429.15 0.725456 -1.36296 0
M  V30 4703 H 431.108 3.84665 -1.43328 0
M  V30 4704 H 429.769 3.09429 -0.539665 0
M  V30 4705 H 428.962 4.33403 -2.5725 0
M  V30 4706 H 428.564 2.60389 -2.68466 0
M  V30 4707 H 430.856 5.52318 -3.92365 0
M  V30 4708 H 431.799 4.75959 -5.24279 0
M  V30 4709 H 432.207 4.39766 -3.5393 0
M  V30 4710 N 431.605 1.3629 0.791371 0
M  V30 4711 C 432.851 1.30605 1.55146 0
M  V30 4712 C 433.184 -0.115042 1.93859 0
M  V30 4713 O 432.459 -1.06798 1.62556 0
M  V30 4714 C 432.742 2.22692 2.82985 0
M  V30 4715 C 432.595 3.73489 2.50651 0
M  V30 4716 C 433.914 2.13588 3.84796 0
M  V30 4717 H 431.033 0.475761 0.562868 0
M  V30 4718 H 433.675 1.66825 0.909358 0
M  V30 4719 H 431.825 1.91933 3.37778 0
M  V30 4720 H 433.497 4.14758 2.01924 0
M  V30 4721 H 431.74 3.93021 1.83622 0
M  V30 4722 H 432.411 4.3333 3.41949 0
M  V30 4723 H 434.887 2.40659 3.39445 0
M  V30 4724 H 433.763 2.80195 4.71998 0
M  V30 4725 H 434.024 1.12256 4.27611 0
M  V30 4726 N 433.083 -1.0153 1.20538 0
M  V30 4727 C 433.993 -2.13557 0.971113 0
M  V30 4728 C 435.009 -1.73845 -0.0734366 0
M  V30 4729 O 436.185 -2.01075 0.114299 0
M  V30 4730 C 433.25 -3.42661 0.527639 0
M  V30 4731 C 432.311 -3.96608 1.64319 0
M  V30 4732 C 431.544 -5.1955 1.22078 0
M  V30 4733 O 431.767 -5.70329 0.0900198 0
M  V30 4734 O 430.701 -5.66681 2.02871 0
M  V30 4735 H 434.527 -2.3619 1.90913 0
M  V30 4736 H 432.112 -1.11946 0.989362 0
M  V30 4737 H 433.994 -4.20404 0.289621 0
M  V30 4738 H 432.669 -3.21441 -0.381779 0
M  V30 4739 H 431.576 -3.20139 1.93551 0
M  V30 4740 H 432.909 -4.22219 2.52966 0
M  V30 4741 N 434.561 -1.01147 -1.20859 0
M  V30 4742 C 435.524 -0.582224 -2.21682 0
M  V30 4743 C 436.524 0.344887 -1.57058 0
M  V30 4744 O 437.714 0.134281 -1.73682 0
M  V30 4745 C 434.846 0.150496 -3.40568 0
M  V30 4746 H 436.039 -1.47408 -2.61172 0
M  V30 4747 H 433.592 -0.800695 -1.34233 0
M  V30 4748 H 434.327 1.0575 -3.06574 0
M  V30 4749 H 434.112 -0.515444 -3.88697 0
M  V30 4750 H 435.602 0.438344 -4.15293 0
M  V30 4751 N 436.039 1.36541 -0.78704 0
M  V30 4752 C 437.267 2.03561 -0.370199 0
M  V30 4753 C 437.682 1.59347 1.01263 0
M  V30 4754 O 437.039 0.781781 1.64907 0
M  V30 4755 C 437.09 3.59033 -0.421614 0
M  V30 4756 O 436.811 4.01634 -1.7499 0
M  V30 4757 C 438.312 4.433 0.00489763 0
M  V30 4758 H 435.532 0.653346 -0.152904 0
M  V30 4759 H 438.076 1.74566 -1.06522 0
M  V30 4760 H 436.231 3.86746 0.224971 0
M  V30 4761 H 436.645 4.96217 -1.69909 0
M  V30 4762 H 438.119 5.51939 -0.0822184 0
M  V30 4763 H 438.596 4.26285 1.05723 0
M  V30 4764 H 439.202 4.20843 -0.614085 0
M  V30 4765 N 437.518 0.538854 1.48102 0
M  V30 4766 C 438.929 0.100679 1.86428 0
M  V30 4767 C 439.28 -1.32447 1.44749 0
M  V30 4768 O 438.405 -1.99339 0.842199 0
M  V30 4769 C 439 0.175933 3.38343 0
M  V30 4770 C 437.559 -0.207098 3.7583 0
M  V30 4771 C 436.706 0.531741 2.72154 0
M  V30 4772 H 439.657 0.749614 1.3988 0
M  V30 4773 H 439.678 -0.610144 3.75576 0
M  V30 4774 H 439.19 1.21328 3.68648 0
M  V30 4775 H 437.291 -1.24626 3.5114 0
M  V30 4776 H 437.404 0.138687 4.78899 0
M  V30 4777 H 435.768 -0.0230462 2.5469 0
M  V30 4778 H 436.551 1.56989 3.05302 0
M  V30 4779 N 438.996 -1.55193 0.274407 0
M  V30 4780 C 439.906 -2.26164 -0.623473 0
M  V30 4781 C 440.922 -1.28729 -1.17068 0
M  V30 4782 O 442.098 -1.61663 -1.20112 0
M  V30 4783 C 439.163 -2.96833 -1.7914 0
M  V30 4784 C 438.224 -4.09745 -1.28093 0
M  V30 4785 C 437.457 -4.77034 -2.3932 0
M  V30 4786 O 437.68 -4.4353 -3.5866 0
M  V30 4787 O 436.614 -5.64996 -2.07516 0
M  V30 4788 H 440.44 -3.03661 -0.0485661 0
M  V30 4789 H 438.025 -1.49341 0.0418382 0
M  V30 4790 H 439.907 -3.41248 -2.4724 0
M  V30 4791 H 438.582 -2.22253 -2.35341 0
M  V30 4792 H 437.489 -3.69787 -0.566416 0
M  V30 4793 H 438.822 -4.86224 -0.764683 0
M  V30 4794 N 440.474 -0.00167713 -1.576 0
M  V30 4795 C 441.404 0.988091 -2.11563 0
M  V30 4796 C 442.385 1.35736 -1.02517 0
M  V30 4797 O 443.57 1.44082 -1.30208 0
M  V30 4798 C 440.7 2.27941 -2.62031 0
M  V30 4799 C 439.654 2.0517 -3.75619 0
M  V30 4800 C 438.98 3.4033 -4.12407 0
M  V30 4801 C 440.28 1.41294 -5.02825 0
M  V30 4802 H 441.974 0.538771 -2.94513 0
M  V30 4803 H 439.52 0.257712 -1.41675 0
M  V30 4804 H 441.473 2.97539 -2.9841 0
M  V30 4805 H 440.197 2.74989 -1.76205 0
M  V30 4806 H 438.856 1.37998 -3.39635 0
M  V30 4807 H 438.504 3.85085 -3.23603 0
M  V30 4808 H 438.204 3.25909 -4.88935 0
M  V30 4809 H 439.728 4.1124 -4.51347 0
M  V30 4810 H 441.142 2.00851 -5.36965 0
M  V30 4811 H 439.539 1.37356 -5.84169 0
M  V30 4812 H 440.609 0.382362 -4.8339 0
M  V30 4813 N 441.952 1.55251 0.271103 0
M  V30 4814 C 442.882 1.9127 1.33933 0
M  V30 4815 C 443.863 0.77478 1.5143 0
M  V30 4816 O 445.048 1.03307 1.64442 0
M  V30 4817 C 442.178 2.18627 2.69851 0
M  V30 4818 C 441.132 3.34442 2.67081 0
M  V30 4819 C 440.458 3.47284 4.06569 0
M  V30 4820 C 441.758 4.70784 2.26185 0
M  V30 4821 H 443.452 2.80744 1.04035 0
M  V30 4822 H 440.998 1.35077 0.499017 0
M  V30 4823 H 442.951 2.42413 3.44694 0
M  V30 4824 H 441.675 1.25955 3.01335 0
M  V30 4825 H 440.334 3.10627 1.94695 0
M  V30 4826 H 439.982 2.52074 4.35279 0
M  V30 4827 H 439.682 4.25152 4.0561 0
M  V30 4828 H 441.206 3.73363 4.83148 0
M  V30 4829 H 442.62 4.94102 2.90751 0
M  V30 4830 H 441.017 5.51582 2.36384 0
M  V30 4831 H 442.087 4.69478 1.21319 0
M  V30 4832 N 443.43 -0.535701 1.48216 0
M  V30 4833 C 444.393 -1.623 1.61838 0
M  V30 4834 C 445.393 -1.53087 0.492024 0
M  V30 4835 O 446.583 -1.5686 0.757668 0
M  V30 4836 C 443.715 -3.01907 1.58319 0
M  V30 4837 H 444.908 -1.51564 2.58783 0
M  V30 4838 H 442.461 -0.757317 1.36727 0
M  V30 4839 H 443.196 -3.18155 0.628299 0
M  V30 4840 H 442.981 -3.10003 2.40085 0
M  V30 4841 H 444.471 -3.80969 1.71033 0
M  V30 4842 N 444.908 -1.36708 -0.784132 0
M  V30 4843 C 445.838 -1.34153 -1.91116 0
M  V30 4844 C 446.819 -0.212121 -1.68772 0
M  V30 4845 O 448.004 -0.410581 -1.8981 0
M  V30 4846 C 445.134 -1.13535 -3.28218 0
M  V30 4847 C 444.088 -2.23356 -3.65097 0
M  V30 4848 C 443.414 -1.87875 -5.00607 0
M  V30 4849 C 444.714 -3.65473 -3.73131 0
M  V30 4850 H 446.408 -2.28459 -1.93512 0
M  V30 4851 H 443.954 -1.09973 -0.929618 0
M  V30 4852 H 445.907 -1.10381 -4.06687 0
M  V30 4853 H 444.631 -0.156804 -3.26223 0
M  V30 4854 H 443.29 -2.25645 -2.88929 0
M  V30 4855 H 442.938 -0.885814 -4.95139 0
M  V30 4856 H 442.638 -2.61406 -5.26252 0
M  V30 4857 H 444.162 -1.86286 -5.81489 0
M  V30 4858 H 445.576 -3.65382 -4.41779 0
M  V30 4859 H 443.973 -4.37953 -4.10265 0
M  V30 4860 H 445.043 -3.99995 -2.74102 0
M  V30 4861 N 446.386 1.0089 -1.21074 0
M  V30 4862 C 447.632 1.74866 -1.02712 0
M  V30 4863 C 447.965 1.89178 0.438787 0
M  V30 4864 O 447.24 1.42325 1.32567 0
M  V30 4865 C 447.523 3.16347 -1.72036 0
M  V30 4866 C 447.376 3.09782 -3.26121 0
M  V30 4867 C 448.695 4.15187 -1.45973 0
M  V30 4868 H 445.814 0.634736 -0.374539 0
M  V30 4869 H 448.456 1.17646 -1.49196 0
M  V30 4870 H 446.606 3.65201 -1.32517 0
M  V30 4871 H 448.278 2.68673 -3.74983 0
M  V30 4872 H 446.521 2.46982 -3.56626 0
M  V30 4873 H 447.192 4.09829 -3.6979 0
M  V30 4874 H 449.668 3.75022 -1.80272 0
M  V30 4875 H 448.544 5.12331 -1.96999 0
M  V30 4876 H 448.805 4.40386 -0.388924 0
M  V30 4877 N 447.864 1.01787 1.20321 0
M  V30 4878 C 449.112 0.706538 1.89347 0
M  V30 4879 C 449.433 -0.766289 1.79313 0
M  V30 4880 O 448.703 -1.55126 1.19635 0
M  V30 4881 H 447.283 0.258348 0.700903 0
M  V30 4882 H 449.945 1.28974 1.46122 0
M  V30 4883 H 449.041 0.991066 2.95946 0
M  V30 4884 N 449.342 -1.36122 0.79427 0
M  V30 4885 C 450.252 -2.33769 0.197296 0
M  V30 4886 C 451.268 -1.61276 -0.653153 0
M  V30 4887 O 452.444 -1.9323 -0.5678 0
M  V30 4888 C 449.509 -3.40474 -0.654098 0
M  V30 4889 C 448.57 -4.28759 0.215411 0
M  V30 4890 C 447.803 -5.30368 -0.595443 0
M  V30 4891 O 448.026 -5.40211 -1.83107 0
M  V30 4892 O 446.96 -6.019 0.00721351 0
M  V30 4893 H 450.786 -2.86597 1.00478 0
M  V30 4894 H 448.371 -1.38676 0.555818 0
M  V30 4895 H 450.253 -4.05703 -1.13944 0
M  V30 4896 H 448.928 -2.89937 -1.43938 0
M  V30 4897 H 447.835 -3.66554 0.747615 0
M  V30 4898 H 449.168 -4.82661 0.964332 0
M  V30 4899 N 450.82 -0.546701 -1.47814 0
M  V30 4900 C 451.73 0.21026 -2.33656 0
M  V30 4901 C 452.746 0.922413 -1.47538 0
M  V30 4902 O 453.922 0.893652 -1.80488 0
M  V30 4903 C 450.987 1.23348 -3.24016 0
M  V30 4904 C 450.048 0.529883 -4.26017 0
M  V30 4905 C 449.281 1.50435 -5.12059 0
M  V30 4906 O 449.504 2.73837 -5.00369 0
M  V30 4907 O 448.438 1.03459 -5.92942 0
M  V30 4908 H 452.264 -0.493605 -2.99662 0
M  V30 4909 H 449.849 -0.307427 -1.46203 0
M  V30 4910 H 451.731 1.82438 -3.79861 0
M  V30 4911 H 450.406 1.91945 -2.60651 0
M  V30 4912 H 449.313 -0.101948 -3.73961 0
M  V30 4913 H 450.646 -0.11445 -4.92067 0
M  V30 4914 N 452.299 1.55045 -0.282633 0
M  V30 4915 C 453.547 1.99365 0.331334 0
M  V30 4916 C 453.868 1.1725 1.55812 0
M  V30 4917 O 453.138 0.263871 1.94115 0
M  V30 4918 H 451.718 0.736397 0.125414 0
M  V30 4919 H 454.38 1.90964 -0.389711 0
M  V30 4920 H 453.476 3.0596 0.616036 0
M  V30 4921 N 453.777 0.010035 1.57597 0
M  V30 4922 C 454.74 -0.963029 2.07986 0
M  V30 4923 C 455.74 -1.26619 0.991173 0
M  V30 4924 O 456.93 -1.2097 1.25347 0
M  V30 4925 C 454.062 -2.2851 2.52974 0
M  V30 4926 H 455.255 -0.526971 2.95234 0
M  V30 4927 H 452.808 -0.237639 1.54483 0
M  V30 4928 H 453.543 -2.76784 1.69 0
M  V30 4929 H 453.328 -2.07824 3.32493 0
M  V30 4930 H 454.818 -2.98294 2.9225 0
M  V30 4931 N 455.255 -1.55392 -0.262866 0
M  V30 4932 C 456.218 -1.88181 -1.30846 0
M  V30 4933 C 457.218 -0.757079 -1.41862 0
M  V30 4934 O 458.408 -1.02519 -1.40838 0
M  V30 4935 C 455.54 -2.09609 -2.68844 0
M  V30 4936 H 456.733 -2.81659 -1.02997 0
M  V30 4937 H 454.286 -1.48039 -0.501414 0
M  V30 4938 H 455.021 -1.18547 -3.01856 0
M  V30 4939 H 454.806 -2.91508 -2.62231 0
M  V30 4940 H 456.296 -2.36215 -3.44372 0
M  V30 4941 N 456.733 0.527833 -1.48498 0
M  V30 4942 C 457.643 1.65907 -1.65867 0
M  V30 4943 C 458.659 1.6537 -0.541192 0
M  V30 4944 O 459.835 1.84282 -0.812534 0
M  V30 4945 C 456.9 3.02364 -1.69637 0
M  V30 4946 C 455.961 3.1374 -2.93028 0
M  V30 4947 C 455.194 4.43688 -2.96609 0
M  V30 4948 O 455.417 5.30913 -2.08538 0
M  V30 4949 O 454.351 4.59475 -3.88802 0
M  V30 4950 H 458.177 1.5419 -2.61647 0
M  V30 4951 H 455.762 0.701163 -1.31924 0
M  V30 4952 H 457.644 3.83515 -1.74625 0
M  V30 4953 H 456.319 3.14401 -0.770312 0
M  V30 4954 H 455.226 2.31877 -2.93571 0
M  V30 4955 H 456.559 3.06621 -3.85026 0
M  V30 4956 N 458.211 1.37122 0.776871 0
M  V30 4957 C 459.622 1.28667 1.35284 0
M  V30 4958 C 459.973 -0.0680035 1.96082 0
M  V30 4959 O 459.098 -0.969743 1.93455 0
M  V30 4960 C 459.693 2.32997 2.45963 0
M  V30 4961 C 458.252 2.28191 2.99342 0
M  V30 4962 C 457.399 2.17101 1.72517 0
M  V30 4963 H 460.35 1.47819 0.577527 0
M  V30 4964 H 460.371 1.97366 3.2531 0
M  V30 4965 H 459.883 3.3158 2.01684 0
M  V30 4966 H 457.984 1.33115 3.4801 0
M  V30 4967 H 458.097 3.21397 3.55304 0
M  V30 4968 H 456.461 1.63562 1.95242 0
M  V30 4969 H 457.244 3.17591 1.30348 0
M  V30 4970 N 459.689 -1.00246 1.21608 0
M  V30 4971 C 460.919 -1.77373 1.05935 0
M  V30 4972 C 461.327 -1.85059 -0.393686 0
M  V30 4973 O 460.67 -1.31289 -1.28487 0
M  V30 4974 C 460.732 -3.22705 1.58435 0
M  V30 4975 C 460.396 -3.38591 3.06929 0
M  V30 4976 C 461.393 -3.2667 4.04454 0
M  V30 4977 C 459.078 -3.6395 3.46187 0
M  V30 4978 C 461.072 -3.39877 5.39224 0
M  V30 4979 C 458.759 -3.768 4.81108 0
M  V30 4980 C 459.757 -3.6477 5.77436 0
M  V30 4981 O 459.445 -3.77206 7.09909 0
M  V30 4982 H 459.177 -0.56419 0.372378 0
M  V30 4983 H 461.731 -1.26971 1.61454 0
M  V30 4984 H 459.961 -3.74255 0.973147 0
M  V30 4985 H 461.65 -3.81515 1.38568 0
M  V30 4986 H 462.416 -3.06999 3.75468 0
M  V30 4987 H 458.295 -3.72395 2.71741 0
M  V30 4988 H 461.839 -3.30404 6.14393 0
M  V30 4989 H 457.736 -3.95975 5.09779 0
M  V30 4990 H 458.504 -3.94138 7.17355 0
M  V30 4991 N 461.167 -1.02423 -1.1978 0
M  V30 4992 C 462.583 -0.740459 -1.41384 0
M  V30 4993 C 462.783 0.676827 -1.89793 0
M  V30 4994 O 461.839 1.4435 -2.0717 0
M  V30 4995 C 463.152 -1.77264 -2.42895 0
M  V30 4996 C 464.7 -1.79165 -2.56649 0
M  V30 4997 C 465.175 -2.8133 -3.6141 0
M  V30 4998 N 466.666 -2.80118 -3.68901 0
M  V30 4999 C 467.401 -3.55824 -4.49641 0
M  V30 5000 N 466.897 -4.41231 -5.34123 0
M  V30 5001 N 468.69 -3.44387 -4.44246 0
M  V30 5002 H 460.841 -1.9391 -0.866764 0
M  V30 5003 H 463.104 -0.838074 -0.443098 0
M  V30 5004 H 462.81 -2.7884 -2.14339 0
M  V30 5005 H 462.684 -1.59108 -3.42001 0
M  V30 5006 H 465.071 -0.782702 -2.84531 0
M  V30 5007 H 465.152 -2.01396 -1.57713 0
M  V30 5008 H 464.796 -3.82394 -3.34271 0
M  V30 5009 H 464.726 -2.56359 -4.59986 0
M  V30 5010 H 467.217 -2.1817 -3.08562 0
M  V30 5011 H 467.53 -4.95747 -5.92836 0
M  V30 5012 H 465.875 -4.45306 -5.33599 0
M  V30 5013 H 469.066 -2.7708 -3.77285 0
M  V30 5014 H 469.239 -4.0364 -5.06931 0
M  V30 5015 N 462.645 1.35699 -0.801477 0
M  V30 5016 C 463.875 2.02862 -0.3912 0
M  V30 5017 C 464.283 1.60552 1.00099 0
M  V30 5018 O 463.626 0.796215 1.65548 0
M  V30 5019 C 463.688 3.57386 -0.389299 0
M  V30 5020 C 463.352 4.22943 -1.73113 0
M  V30 5021 C 464.349 4.44984 -2.68859 0
M  V30 5022 C 462.034 4.60167 -2.01373 0
M  V30 5023 C 464.028 5.03345 -3.91053 0
M  V30 5024 C 461.715 5.18243 -3.23832 0
M  V30 5025 C 462.713 5.39773 -4.1849 0
M  V30 5026 O 462.401 5.96626 -5.38788 0
M  V30 5027 H 462.133 0.657341 -0.157732 0
M  V30 5028 H 464.687 1.74407 -1.08496 0
M  V30 5029 H 462.917 3.85011 0.361031 0
M  V30 5030 H 464.606 4.059 -0.0020365 0
M  V30 5031 H 465.372 4.1661 -2.48316 0
M  V30 5032 H 461.251 4.42726 -1.28508 0
M  V30 5033 H 464.795 5.20065 -4.64949 0
M  V30 5034 H 460.692 5.46044 -3.44248 0
M  V30 5035 H 461.46 6.15082 -5.40015 0
M  V30 5036 N 464.123 0.554532 1.47522 0
M  V30 5037 C 465.053 -0.182974 2.32782 0
M  V30 5038 C 466.034 -0.911377 1.43624 0
M  V30 5039 O 467.219 -0.892366 1.72483 0
M  V30 5040 C 464.349 -1.21513 3.25349 0
M  V30 5041 C 463.303 -0.603355 4.23726 0
M  V30 5042 C 462.629 -1.73995 5.05598 0
M  V30 5043 C 463.929 0.441121 5.20434 0
M  V30 5044 H 465.623 0.52882 2.94693 0
M  V30 5045 H 463.169 0.255759 1.41711 0
M  V30 5046 H 465.122 -1.73922 3.83835 0
M  V30 5047 H 463.846 -1.95683 2.61487 0
M  V30 5048 H 462.505 -0.10059 3.66462 0
M  V30 5049 H 462.153 -2.47063 4.38143 0
M  V30 5050 H 461.853 -1.3364 5.72201 0
M  V30 5051 H 463.377 -2.26735 5.66942 0
M  V30 5052 H 464.791 0.00319931 5.733 0
M  V30 5053 H 463.188 0.763402 5.95224 0
M  V30 5054 H 464.258 1.33799 4.66075 0
M  V30 5055 N 465.601 -1.54893 0.290851 0
M  V30 5056 C 466.534 -2.19289 -0.631489 0
M  V30 5057 C 467.512 -1.15893 -1.14051 0
M  V30 5058 O 468.696 -1.4449 -1.21058 0
M  V30 5059 C 465.823 -2.82866 -1.86291 0
M  V30 5060 C 464.869 -3.997 -1.48801 0
M  V30 5061 S 465.702 -5.32641 -0.552644 0
M  V30 5062 C 466.858 -5.99696 -1.79209 0
M  V30 5063 H 467.091 -2.9718 -0.0843791 0
M  V30 5064 H 464.624 -1.54218 0.075031 0
M  V30 5065 H 466.582 -3.20124 -2.56964 0
M  V30 5066 H 465.243 -2.04839 -2.38117 0
M  V30 5067 H 464.436 -4.42932 -2.40473 0
M  V30 5068 H 464.038 -3.63947 -0.861321 0
M  V30 5069 H 466.33 -6.19886 -2.734 0
M  V30 5070 H 467.273 -6.94071 -1.40251 0
M  V30 5071 H 467.681 -5.29226 -1.96419 0
M  V30 5072 N 467.08 -0.0183926 -1.57589 0
M  V30 5073 C 468.027 0.967022 -2.09565 0
M  V30 5074 C 468.997 1.32983 -0.995225 0
M  V30 5075 O 470.182 1.42501 -1.26878 0
M  V30 5076 C 467.322 2.24772 -2.61861 0
M  V30 5077 C 466.435 1.94232 -3.85873 0
M  V30 5078 C 465.57 3.16518 -4.26603 0
M  V30 5079 C 464.609 2.81748 -5.43401 0
M  V30 5080 N 463.746 3.96626 -5.79338 0
M  V30 5081 H 468.586 0.516874 -2.93483 0
M  V30 5082 H 466.123 0.243544 -1.4507 0
M  V30 5083 H 468.081 2.99667 -2.90268 0
M  V30 5084 H 466.711 2.67423 -1.8079 0
M  V30 5085 H 465.763 1.09625 -3.64262 0
M  V30 5086 H 467.075 1.64616 -4.70853 0
M  V30 5087 H 466.229 3.99743 -4.56389 0
M  V30 5088 H 464.968 3.49286 -3.40368 0
M  V30 5089 H 463.973 1.96933 -5.1332 0
M  V30 5090 H 465.198 2.50207 -6.31327 0
M  V30 5091 H 463.144 4.29257 -4.96059 0
M  V30 5092 H 463.061 3.70598 -6.58933 0
M  V30 5093 H 464.329 4.80586 -6.13724 0
M  V30 5094 N 468.558 1.5553 0.254621 0
M  V30 5095 C 469.506 1.9048 1.33492 0
M  V30 5096 C 470.5 0.78304 1.50216 0
M  V30 5097 O 471.706 0.967582 1.51782 0
M  V30 5098 H 468.081 0.604846 0.44684 0
M  V30 5099 H 470.052 2.80688 1.01275 0
M  V30 5100 C 468.801 2.20928 2.68489 0
M  V30 5101 H 468.124 3.06742 2.56417 0
M  V30 5102 H 469.564 2.49291 3.42972 0
M  V30 5103 C 468.023 1.023 3.20993 0
M  V30 5104 O 468.553 0.267027 4.00811 0
M  V30 5105 N 466.759 0.815714 2.78917 0
M  V30 5106 H 466.306 1.43217 2.14119 0
M  V30 5107 H 466.264 0.0236532 3.14391 0
M  V30 5108 N 470.036 -0.519951 1.48776 0
M  V30 5109 C 470.966 -1.63253 1.66945 0
M  V30 5110 C 471.947 -1.62014 0.518224 0
M  V30 5111 O 473.132 -1.79053 0.751919 0
M  V30 5112 C 470.262 -3.0181 1.71836 0
M  V30 5113 C 469.216 -3.17911 2.8656 0
M  V30 5114 C 468.542 -4.5763 2.76548 0
M  V30 5115 C 469.842 -2.99729 4.27738 0
M  V30 5116 H 471.536 -1.48302 2.6009 0
M  V30 5117 H 469.082 -0.712026 1.25165 0
M  V30 5118 H 471.035 -3.79525 1.83135 0
M  V30 5119 H 469.759 -3.17806 0.752775 0
M  V30 5120 H 468.418 -2.42616 2.74833 0
M  V30 5121 H 468.066 -4.70476 1.77937 0
M  V30 5122 H 467.766 -4.69346 3.53536 0
M  V30 5123 H 469.29 -5.37431 2.89828 0
M  V30 5124 H 470.704 -3.67228 4.40246 0
M  V30 5125 H 469.101 -3.22932 5.05801 0
M  V30 5126 H 470.171 -1.96047 4.43502 0
M  V30 5127 N 471.514 -1.37532 -0.769588 0
M  V30 5128 C 472.93 -1.18379 -1.07045 0
M  V30 5129 C 473.13 -0.0214312 -2.01489 0
M  V30 5130 O 472.186 0.637809 -2.44312 0
M  V30 5131 C 473.499 -2.50338 -1.66588 0
M  V30 5132 C 475.047 -2.56879 -1.78835 0
M  V30 5133 C 475.522 -3.88974 -2.41792 0
M  V30 5134 N 477.013 -3.90428 -2.4924 0
M  V30 5135 C 477.748 -4.89388 -2.98809 0
M  V30 5136 N 477.244 -5.98745 -3.48535 0
M  V30 5137 N 479.037 -4.76791 -2.97703 0
M  V30 5138 H 471.188 -2.11921 -0.142541 0
M  V30 5139 H 473.451 -0.939608 -0.125863 0
M  V30 5140 H 473.157 -3.35767 -1.0466 0
M  V30 5141 H 473.031 -2.67583 -2.65856 0
M  V30 5142 H 475.418 -1.71856 -2.39895 0
M  V30 5143 H 475.499 -2.43516 -0.783166 0
M  V30 5144 H 475.143 -4.74412 -1.81371 0
M  V30 5145 H 475.073 -3.99641 -3.4292 0
M  V30 5146 H 477.564 -3.11433 -2.14052 0
M  V30 5147 H 477.877 -6.70205 -3.84767 0
M  V30 5148 H 476.222 -6.02387 -3.46634 0
M  V30 5149 H 479.413 -3.90478 -2.58157 0
M  V30 5150 H 479.586 -5.54069 -3.36024 0
M  V30 5151 N 472.992 0.995999 -1.22138 0
M  V30 5152 C 474.217 1.77601 -1.0711 0
M  V30 5153 C 474.642 1.84339 0.374264 0
M  V30 5154 O 474 1.29359 1.27028 0
M  V30 5155 C 474.048 3.18897 -1.68336 0
M  V30 5156 O 473.152 4.01663 -0.934928 0
M  V30 5157 H 472.493 0.547011 -0.376397 0
M  V30 5158 H 475.023 1.25137 -1.6187 0
M  V30 5159 H 475.033 3.69539 -1.72931 0
M  V30 5160 H 473.708 3.13308 -2.73516 0
M  V30 5161 H 472.285 3.60204 -0.964751 0
M  V30 5162 N 474.47 1.03057 1.19235 0
M  V30 5163 C 475.886 0.747947 1.40989 0
M  V30 5164 C 476.086 -0.666752 1.90149 0
M  V30 5165 O 475.142 -1.43249 2.07933 0
M  V30 5166 C 476.455 1.7855 2.41951 0
M  V30 5167 C 478.003 1.80524 2.55695 0
M  V30 5168 C 478.478 2.83243 3.59913 0
M  V30 5169 N 479.969 2.8207 3.67411 0
M  V30 5170 C 480.704 3.58204 4.47747 0
M  V30 5171 N 480.2 4.44057 5.31775 0
M  V30 5172 N 481.993 3.46738 4.42413 0
M  V30 5173 H 474.144 1.94367 0.856468 0
M  V30 5174 H 476.407 0.840412 0.438647 0
M  V30 5175 H 476.113 2.79973 2.12857 0
M  V30 5176 H 475.987 1.6092 3.41152 0
M  V30 5177 H 478.374 0.79778 2.84112 0
M  V30 5178 H 478.455 2.02229 1.56643 0
M  V30 5179 H 478.099 3.84161 3.32239 0
M  V30 5180 H 478.029 2.58795 4.5862 0
M  V30 5181 H 480.52 2.19803 3.074 0
M  V30 5182 H 480.833 4.98884 5.90199 0
M  V30 5183 H 479.178 4.48129 5.3123 0
M  V30 5184 H 482.369 2.79077 3.75811 0
M  V30 5185 H 482.542 4.06322 5.04783 0
M  V30 5186 N 475.948 -1.35272 0.808662 0
M  V30 5187 C 476.878 -2.32315 0.234981 0
M  V30 5188 C 477.859 -1.57572 -0.64071 0
M  V30 5189 O 479.044 -1.8563 -0.570551 0
M  V30 5190 C 476.174 -3.41801 -0.615601 0
M  V30 5191 C 475.128 -4.27694 0.161767 0
M  V30 5192 C 474.454 -5.28519 -0.810649 0
M  V30 5193 C 475.754 -5.04231 1.36193 0
M  V30 5194 H 477.448 -2.80543 1.04575 0
M  V30 5195 H 474.994 -1.3488 0.504315 0
M  V30 5196 H 476.947 -4.08693 -1.02702 0
M  V30 5197 H 475.671 -2.92186 -1.45928 0
M  V30 5198 H 474.33 -3.62384 0.554382 0
M  V30 5199 H 473.978 -4.75171 -1.64988 0
M  V30 5200 H 473.678 -5.8686 -0.294822 0
M  V30 5201 H 475.202 -5.98283 -1.22023 0
M  V30 5202 H 476.616 -5.64058 1.02528 0
M  V30 5203 H 475.013 -5.72077 1.81239 0
M  V30 5204 H 476.083 -4.34753 2.14751 0
M  V30 5205 N 477.426 -0.562348 -1.47226 0
M  V30 5206 C 478.359 0.230405 -2.27034 0
M  V30 5207 C 479.337 0.915609 -1.3437 0
M  V30 5208 O 480.521 0.933573 -1.63758 0
M  V30 5209 C 477.648 1.32874 -3.11548 0
M  V30 5210 C 476.694 0.751552 -4.19826 0
M  V30 5211 S 477.527 -0.405848 -5.3396 0
M  V30 5212 C 478.683 0.694186 -6.22038 0
M  V30 5213 H 478.916 -0.446811 -2.93923 0
M  V30 5214 H 476.449 -0.348781 -1.50409 0
M  V30 5215 H 478.407 1.95773 -3.60809 0
M  V30 5216 H 477.068 1.97782 -2.44011 0
M  V30 5217 H 476.261 1.57651 -4.78709 0
M  V30 5218 H 475.863 0.198645 -3.73472 0
M  V30 5219 H 478.155 1.58501 -6.58698 0
M  V30 5220 H 479.098 0.142592 -7.07956 0
M  V30 5221 H 479.506 0.989169 -5.55766 0
M  V30 5222 N 478.904 1.54736 -0.299062 0
M  V30 5223 C 479.867 2.22127 0.565012 0
M  V30 5224 C 480.867 1.20669 1.06281 0
M  V30 5225 O 482.057 1.45417 0.959145 0
M  V30 5226 C 479.189 2.90611 1.78208 0
M  V30 5227 H 480.382 2.99891 -0.0237448 0
M  V30 5228 H 477.935 1.5622 -0.0498788 0
M  V30 5229 H 478.67 2.16921 2.41072 0
M  V30 5230 H 478.455 3.64984 1.43281 0
M  V30 5231 H 479.945 3.42026 2.396 0
M  V30 5232 N 480.382 0.0267497 1.57577 0
M  V30 5233 C 481.61 -0.662661 1.96001 0
M  V30 5234 C 482.025 -1.65799 0.903117 0
M  V30 5235 O 481.382 -1.82135 -0.115317 0
M  V30 5236 C 481.433 -1.37112 3.34488 0
M  V30 5237 O 481.154 -0.415683 4.36123 0
M  V30 5238 C 482.655 -2.15257 3.8753 0
M  V30 5239 H 479.875 -0.18287 0.6456 0
M  V30 5240 H 482.419 0.0858116 2.0432 0
M  V30 5241 H 480.574 -2.07101 3.27395 0
M  V30 5242 H 480.988 -0.918496 5.16395 0
M  V30 5243 H 482.462 -2.60285 4.86781 0
M  V30 5244 H 482.939 -2.99063 3.21649 0
M  V30 5245 H 483.545 -1.50231 3.97883 0
M  V30 5246 N 481.861 -1.55662 -0.24637 0
M  V30 5247 C 482.793 -1.86811 -1.32794 0
M  V30 5248 C 483.806 -0.754413 -1.44265 0
M  V30 5249 O 484.995 -1.03253 -1.45606 0
M  V30 5250 C 482.095 -2.0397 -2.70646 0
M  V30 5251 C 481.268 -3.34832 -2.81436 0
M  V30 5252 C 480.327 -3.41727 -4.00136 0
M  V30 5253 O 479.353 -4.14934 -3.89639 0
M  V30 5254 N 480.555 -2.71058 -5.1333 0
M  V30 5255 H 483.32 -2.80174 -1.06409 0
M  V30 5256 H 480.881 -1.55906 -0.43647 0
M  V30 5257 H 482.873 -2.05924 -3.48393 0
M  V30 5258 H 481.443 -1.1735 -2.89738 0
M  V30 5259 H 480.663 -3.4519 -1.90361 0
M  V30 5260 H 481.951 -4.21085 -2.85595 0
M  V30 5261 H 481.349 -2.11314 -5.2475 0
M  V30 5262 H 479.906 -2.78704 -5.89209 0
M  V30 5263 N 483.339 0.512053 -1.4905 0
M  V30 5264 C 484.302 1.59704 -1.64399 0
M  V30 5265 C 485.302 1.52285 -0.516317 0
M  V30 5266 O 486.492 1.55635 -0.782527 0
M  V30 5267 C 483.624 2.9935 -1.63102 0
M  V30 5268 H 484.817 1.47428 -2.61161 0
M  V30 5269 H 482.37 0.735469 -1.37915 0
M  V30 5270 H 483.105 3.17116 -0.678836 0
M  V30 5271 H 482.89 3.06144 -2.44986 0
M  V30 5272 H 484.38 3.782 -1.77072 0
M  V30 5273 N 484.817 1.37938 0.762283 0
M  V30 5274 C 486.063 1.34873 1.52253 0
M  V30 5275 C 486.418 -0.0635972 1.92295 0
M  V30 5276 O 485.711 -1.02434 1.61919 0
M  V30 5277 C 485.905 2.23042 2.79261 0
M  V30 5278 C 485.734 3.72706 2.51635 0
M  V30 5279 C 484.504 4.41771 2.45289 0
M  V30 5280 C 486.702 4.65345 2.18994 0
M  V30 5281 N 484.684 5.76921 2.09846 0
M  V30 5282 C 486.055 5.88943 1.9377 0
M  V30 5283 C 488.11 4.53636 2.0523 0
M  V30 5284 C 486.813 7.02142 1.5617 0
M  V30 5285 C 488.839 5.6673 1.69031 0
M  V30 5286 C 488.201 6.89383 1.44673 0
M  V30 5287 H 484.3 0.548818 0.557067 0
M  V30 5288 H 486.884 1.73247 0.888458 0
M  V30 5289 H 485.055 1.8687 3.40491 0
M  V30 5290 H 486.787 2.11165 3.45241 0
M  V30 5291 H 483.542 3.94883 2.61465 0
M  V30 5292 H 483.966 6.4837 1.94794 0
M  V30 5293 H 488.608 3.5937 2.2274 0
M  V30 5294 H 486.326 7.96334 1.37399 0
M  V30 5295 H 489.912 5.59645 1.59026 0
M  V30 5296 H 488.792 7.75411 1.17079 0
M  V30 5297 N 486.295 -0.989507 1.22664 0
M  V30 5298 C 487.225 -2.09847 1.02404 0
M  V30 5299 C 488.206 -1.70007 -0.0561303 0
M  V30 5300 O 489.391 -1.93906 0.106748 0
M  V30 5301 C 486.521 -3.41996 0.604663 0
M  V30 5302 C 485.475 -3.95699 1.63115 0
M  V30 5303 C 484.801 -5.23936 1.0675 0
M  V30 5304 C 486.101 -4.25999 3.02196 0
M  V30 5305 H 487.795 -2.27054 1.95158 0
M  V30 5306 H 485.341 -1.09111 0.939727 0
M  V30 5307 H 487.294 -4.1899 0.45002 0
M  V30 5308 H 486.018 -3.24626 -0.35855 0
M  V30 5309 H 484.677 -3.2084 1.77362 0
M  V30 5310 H 484.325 -5.02909 0.0955422 0
M  V30 5311 H 484.025 -5.60833 1.75328 0
M  V30 5312 H 485.549 -6.0356 0.924516 0
M  V30 5313 H 486.963 -4.93777 2.91303 0
M  V30 5314 H 485.36 -4.74076 3.67929 0
M  V30 5315 H 486.43 -3.33636 3.51873 0
M  V30 5316 N 487.773 -1.03688 -1.18687 0
M  V30 5317 C 488.683 -0.634908 -2.25845 0
M  V30 5318 C 489.699 0.337065 -1.70704 0
M  V30 5319 O 490.875 0.192943 -2.00474 0
M  V30 5320 C 487.94 -0.000180054 -3.467 0
M  V30 5321 C 487.001 -1.02067 -4.1699 0
M  V30 5322 C 486.234 -0.41614 -5.32075 0
M  V30 5323 O 486.457 0.778712 -5.65059 0
M  V30 5324 O 485.391 -1.14296 -5.90948 0
M  V30 5325 H 489.217 -1.52757 -2.62486 0
M  V30 5326 H 486.802 -0.807533 -1.25695 0
M  V30 5327 H 488.684 0.353342 -4.19916 0
M  V30 5328 H 487.359 0.866367 -3.11891 0
M  V30 5329 H 486.266 -1.42592 -3.45859 0
M  V30 5330 H 487.599 -1.85786 -4.5579 0
M  V30 5331 N 489.251 1.34841 -0.815825 0
M  V30 5332 C 490.214 2.27959 -0.238185 0
M  V30 5333 C 491.214 1.49983 0.579816 0
M  V30 5334 O 492.404 1.69617 0.396953 0
M  V30 5335 C 489.536 3.34314 0.666876 0
M  V30 5336 H 490.729 2.80558 -1.05958 0
M  V30 5337 H 488.282 1.44852 -0.587156 0
M  V30 5338 H 489.017 2.86916 1.5116 0
M  V30 5339 H 488.802 3.92014 0.0819106 0
M  V30 5340 H 490.292 4.0379 1.06506 0
M  V30 5341 N 490.729 0.570148 1.46925 0
M  V30 5342 C 492.145 0.23087 1.57921 0
M  V30 5343 C 492.345 -1.26676 1.56702 0
M  V30 5344 O 491.401 -2.04774 1.47729 0
M  V30 5345 C 492.714 0.868973 2.8787 0
M  V30 5346 C 494.262 0.841397 3.01479 0
M  V30 5347 C 494.737 1.45881 4.34146 0
M  V30 5348 N 496.228 1.42258 4.40814 0
M  V30 5349 C 496.963 1.8698 5.42057 0
M  V30 5350 N 496.459 2.39618 6.50042 0
M  V30 5351 N 498.252 1.77972 5.33181 0
M  V30 5352 H 490.403 1.54301 1.45962 0
M  V30 5353 H 492.666 0.644224 0.69547 0
M  V30 5354 H 492.372 1.922 2.94537 0
M  V30 5355 H 492.246 0.369682 3.75384 0
M  V30 5356 H 494.633 -0.202973 2.94401 0
M  V30 5357 H 494.714 1.37858 2.15474 0
M  V30 5358 H 494.358 2.50231 4.4198 0
M  V30 5359 H 494.288 0.896958 5.18905 0
M  V30 5360 H 496.779 1.03768 3.63374 0
M  V30 5361 H 497.092 2.71633 7.23488 0
M  V30 5362 H 495.437 2.43636 6.50897 0
M  V30 5363 H 498.628 1.36617 4.4772 0
M  V30 5364 H 498.801 2.13143 6.11943 0
M  V30 5365 N 492.207 -1.54576 0.307264 0
M  V30 5366 C 493.137 -2.26708 -0.55907 0
M  V30 5367 C 494.118 -1.26893 -1.1328 0
M  V30 5368 O 495.303 -1.55677 -1.16097 0
M  V30 5369 C 492.433 -3.01259 -1.72801 0
M  V30 5370 C 491.387 -4.08275 -1.28435 0
M  V30 5371 C 490.713 -4.70575 -2.53895 0
M  V30 5372 C 492.013 -5.2068 -0.411038 0
M  V30 5373 H 493.707 -2.9937 0.042576 0
M  V30 5374 H 491.253 -1.43983 0.0219173 0
M  V30 5375 H 493.206 -3.50444 -2.34023 0
M  V30 5376 H 491.93 -2.26187 -2.356 0
M  V30 5377 H 490.589 -3.59949 -0.695161 0
M  V30 5378 H 490.237 -3.92136 -3.15021 0
M  V30 5379 H 489.937 -5.42854 -2.24908 0
M  V30 5380 H 491.461 -5.22527 -3.15908 0
M  V30 5381 H 492.875 -5.65721 -0.929097 0
M  V30 5382 H 491.272 -5.99716 -0.214664 0
M  V30 5383 H 492.342 -4.81629 0.562287 0
M  V30 5384 N 493.685 -0.035106 -1.57561 0
M  V30 5385 C 494.632 0.94474 -2.10578 0
M  V30 5386 C 495.602 1.3192 -1.00927 0
M  V30 5387 O 496.787 1.41147 -1.28382 0
M  V30 5388 C 493.927 2.21982 -2.64231 0
M  V30 5389 C 493.04 1.90128 -3.87911 0
M  V30 5390 C 492.175 3.11975 -4.29936 0
M  V30 5391 C 491.214 2.75968 -5.46359 0
M  V30 5392 N 490.351 3.90459 -5.83512 0
M  V30 5393 H 495.191 0.485717 -2.94015 0
M  V30 5394 H 492.728 0.228143 -1.4532 0
M  V30 5395 H 494.686 2.96572 -2.9343 0
M  V30 5396 H 493.316 2.6549 -1.83616 0
M  V30 5397 H 492.368 1.05755 -3.65404 0
M  V30 5398 H 493.68 1.59613 -4.72573 0
M  V30 5399 H 492.834 3.9488 -4.60603 0
M  V30 5400 H 491.573 3.45657 -3.44053 0
M  V30 5401 H 490.578 1.91478 -5.1538 0
M  V30 5402 H 491.803 2.43497 -6.33945 0
M  V30 5403 H 489.749 4.23971 -5.00584 0
M  V30 5404 H 489.666 3.63588 -6.62827 0
M  V30 5405 H 490.934 4.7405 -6.18787 0
M  V30 5406 N 495.163 1.55791 0.238111 0
M  V30 5407 C 496.411 1.77681 0.963001 0
M  V30 5408 C 496.732 0.600674 1.85518 0
M  V30 5409 O 496.002 -0.383182 1.92116 0
M  V30 5410 H 494.582 0.655315 0.358568 0
M  V30 5411 H 497.244 1.93239 0.253945 0
M  V30 5412 H 496.34 2.69177 1.57956 0
M  V30 5413 N 496.642 -0.504142 1.49319 0
M  V30 5414 C 497.552 -1.63248 1.68486 0
M  V30 5415 C 498.568 -1.64488 0.567432 0
M  V30 5416 O 499.744 -1.82966 0.841749 0
M  V30 5417 C 496.809 -2.99627 1.74426 0
M  V30 5418 C 495.87 -3.09039 2.97982 0
M  V30 5419 C 495.103 -4.38913 3.0363 0
M  V30 5420 O 495.326 -5.27528 2.16958 0
M  V30 5421 O 494.26 -4.53231 3.96062 0
M  V30 5422 H 498.086 -1.50008 2.64067 0
M  V30 5423 H 495.671 -0.680086 1.33023 0
M  V30 5424 H 497.553 -3.80689 1.80705 0
M  V30 5425 H 496.228 -3.13136 0.820233 0
M  V30 5426 H 495.135 -2.27177 2.97223 0
M  V30 5427 H 496.468 -3.00456 3.89855 0
M  V30 5428 N 498.12 -1.38341 -0.754957 0
M  V30 5429 C 499.03 -1.3769 -1.89944 0
M  V30 5430 C 500.046 -0.274194 -1.71826 0
M  V30 5431 O 501.222 -0.512391 -1.94773 0
M  V30 5432 C 498.287 -1.19938 -3.25293 0
M  V30 5433 C 497.348 -2.40001 -3.55946 0
M  V30 5434 C 496.581 -2.23087 -4.84838 0
M  V30 5435 O 496.804 -1.22386 -5.57116 0
M  V30 5436 O 495.738 -3.11646 -5.14937 0
M  V30 5437 H 499.564 -2.3412 -1.93446 0
M  V30 5438 H 497.149 -1.19246 -0.900044 0
M  V30 5439 H 499.031 -1.12093 -4.06218 0
M  V30 5440 H 497.706 -0.265919 -3.22606 0
M  V30 5441 H 496.613 -2.53421 -2.75188 0
M  V30 5442 H 497.946 -3.31973 -3.63394 0
M  V30 5443 N 499.598 0.982988 -1.23187 0
M  V30 5444 C 500.528 2.09301 -1.03515 0
M  V30 5445 C 501.509 1.70035 0.0471136 0
M  V30 5446 O 502.694 1.93847 -0.117029 0
M  V30 5447 C 499.824 3.4167 -0.622791 0
M  V30 5448 C 498.778 3.94828 -1.65211 0
M  V30 5449 C 498.104 5.23362 -1.09527 0
M  V30 5450 C 499.404 4.2439 -3.04451 0
M  V30 5451 H 501.098 2.26016 -1.96359 0
M  V30 5452 H 498.644 1.08611 -0.945501 0
M  V30 5453 H 500.597 4.18746 -0.472233 0
M  V30 5454 H 499.321 3.24811 0.341329 0
M  V30 5455 H 497.98 3.19895 -1.79061 0
M  V30 5456 H 497.628 5.02852 -0.122211 0
M  V30 5457 H 497.328 5.59895 -1.783 0
M  V30 5458 H 498.852 6.03062 -0.956511 0
M  V30 5459 H 500.266 4.92225 -2.93917 0
M  V30 5460 H 498.663 4.72118 -3.70438 0
M  V30 5461 H 499.733 3.31765 -3.53638 0
M  V30 5462 N 501.076 1.04316 1.18135 0
M  V30 5463 C 502.487 0.775505 1.69832 0
M  V30 5464 C 502.838 -0.703348 1.8316 0
M  V30 5465 O 501.963 -1.54729 1.51287 0
M  V30 5466 C 502.558 1.40112 3.0847 0
M  V30 5467 C 501.117 1.18172 3.57368 0
M  V30 5468 C 500.264 1.49022 2.33854 0
M  V30 5469 H 503.215 1.20925 1.02775 0
M  V30 5470 H 503.236 0.805672 3.71873 0
M  V30 5471 H 502.748 2.47744 2.98738 0
M  V30 5472 H 500.849 0.124258 3.72393 0
M  V30 5473 H 500.962 1.8805 4.40652 0
M  V30 5474 H 499.326 0.909995 2.37889 0
M  V30 5475 H 500.109 2.57768 2.26738 0
M  V30 5476 N 502.554 -1.34406 0.822964 0
M  V30 5477 C 503.501 -2.29519 0.24284 0
M  V30 5478 C 504.471 -1.5359 -0.632397 0
M  V30 5479 O 505.656 -1.8196 -0.57403 0
M  V30 5480 C 502.796 -3.40032 -0.58925 0
M  V30 5481 C 501.909 -4.30899 0.308236 0
M  V30 5482 C 501.044 -5.28515 -0.533425 0
M  V30 5483 C 500.083 -6.1102 0.363444 0
M  V30 5484 N 499.22 -7.00725 -0.439147 0
M  V30 5485 H 504.06 -2.78537 1.05929 0
M  V30 5486 H 501.597 -1.3707 0.533872 0
M  V30 5487 H 503.555 -4.0279 -1.087 0
M  V30 5488 H 502.185 -2.92248 -1.37081 0
M  V30 5489 H 501.237 -3.69002 0.924203 0
M  V30 5490 H 502.549 -4.88717 0.997862 0
M  V30 5491 H 501.703 -5.96725 -1.09565 0
M  V30 5492 H 500.442 -4.71235 -1.25656 0
M  V30 5493 H 499.447 -5.41743 0.937812 0
M  V30 5494 H 500.672 -6.70381 1.08469 0
M  V30 5495 H 498.618 -6.45913 -1.14595 0
M  V30 5496 H 498.535 -7.55756 0.19209 0
M  V30 5497 H 499.803 -7.73263 -0.984124 0
M  V30 5498 N 504.032 -0.577932 -1.46621 0
M  V30 5499 C 505.443 -0.150071 -1.86096 0
M  V30 5500 C 505.794 1.28563 -1.48209 0
M  V30 5501 O 504.919 1.97036 -0.894754 0
M  V30 5502 C 505.514 -0.265576 -3.37758 0
M  V30 5503 C 504.073 0.10738 -3.76247 0
M  V30 5504 C 503.22 -0.603711 -2.70649 0
M  V30 5505 H 506.171 -0.786438 -1.37844 0
M  V30 5506 H 506.192 0.510352 -3.77062 0
M  V30 5507 H 505.704 -1.3106 -3.65301 0
M  V30 5508 H 503.805 1.15272 -3.54321 0
M  V30 5509 H 503.918 -0.26561 -4.78363 0
M  V30 5510 H 502.282 -0.0444884 -2.54661 0
M  V30 5511 H 503.065 -1.65029 -3.01032 0
M  V30 5512 N 505.51 1.54411 -0.315457 0
M  V30 5513 C 506.42 2.27737 0.56329 0
M  V30 5514 C 507.436 1.31787 1.13614 0
M  V30 5515 O 508.612 1.64791 1.15784 0
M  V30 5516 C 505.677 3.01478 1.71207 0
M  V30 5517 C 504.738 4.12997 1.17185 0
M  V30 5518 C 503.971 4.83212 2.26588 0
M  V30 5519 O 504.194 4.52884 3.46775 0
M  V30 5520 O 503.128 5.70299 1.92463 0
M  V30 5521 H 506.954 3.03683 -0.0319614 0
M  V30 5522 H 504.539 1.49178 -0.0814188 0
M  V30 5523 H 506.421 3.47683 2.38106 0
M  V30 5524 H 505.096 2.28414 2.29366 0
M  V30 5525 H 504.003 3.71159 0.468174 0
M  V30 5526 H 505.336 4.8808 0.635501 0
M  V30 5527 N 506.988 0.0434614 1.5754 0
M  V30 5528 C 508.236 -0.630786 1.92004 0
M  V30 5529 C 508.557 -1.71836 0.921807 0
M  V30 5530 O 507.827 -1.9587 -0.034522 0
M  V30 5531 H 506.407 -0.235988 0.708745 0
M  V30 5532 H 509.069 0.0946462 1.9467 0
M  V30 5533 H 508.165 -1.07434 2.93026 0
M  V30 5534 N 508.466 -1.55915 -0.229846 0
M  V30 5535 C 509.396 -1.94754 -1.28815 0
M  V30 5536 C 510.377 -0.814657 -1.49323 0
M  V30 5537 O 511.562 -1.07631 -1.61645 0
M  V30 5538 C 508.692 -2.25705 -2.63959 0
M  V30 5539 C 507.646 -3.41406 -2.5812 0
M  V30 5540 C 506.972 -3.57941 -3.97218 0
M  V30 5541 C 508.272 -4.76616 -2.13623 0
M  V30 5542 H 509.966 -2.83404 -0.965547 0
M  V30 5543 H 507.512 -1.36353 -0.463028 0
M  V30 5544 H 509.465 -2.51467 -3.38146 0
M  V30 5545 H 508.189 -1.339 -2.9789 0
M  V30 5546 H 506.848 -3.1568 -1.86391 0
M  V30 5547 H 506.496 -2.63526 -4.28443 0
M  V30 5548 H 506.196 -4.35757 -3.94195 0
M  V30 5549 H 507.72 -3.86042 -4.73079 0
M  V30 5550 H 509.134 -5.01637 -2.77549 0
M  V30 5551 H 507.531 -5.57655 -2.21677 0
M  V30 5552 H 508.601 -4.7253 -1.08829 0
M  V30 5553 N 509.944 0.496216 -1.49584 0
M  V30 5554 C 510.874 1.60576 -1.69521 0
M  V30 5555 C 511.855 1.61169 -0.543933 0
M  V30 5556 O 513.04 1.77834 -0.78031 0
M  V30 5557 C 510.17 2.99038 -1.76616 0
M  V30 5558 C 509.124 3.13312 -2.91581 0
M  V30 5559 C 508.45 4.53172 -2.83794 0
M  V30 5560 C 509.75 2.92886 -4.32452 0
M  V30 5561 H 511.444 1.44146 -2.62416 0
M  V30 5562 H 508.99 0.692024 -1.26282 0
M  V30 5563 H 510.943 3.76564 -1.8915 0
M  V30 5564 H 509.667 3.16568 -0.80324 0
M  V30 5565 H 508.326 2.38213 -2.78658 0
M  V30 5566 H 507.974 4.67585 -1.854 0
M  V30 5567 H 507.674 4.63662 -3.60958 0
M  V30 5568 H 509.198 5.32752 -2.98342 0
M  V30 5569 H 510.612 3.60178 -4.46032 0
M  V30 5570 H 509.009 3.14844 -5.10875 0
M  V30 5571 H 510.079 1.88966 -4.46565 0
M  V30 5572 N 511.423 1.38739 0.74761 0
M  V30 5573 C 512.651 1.38521 1.53686 0
M  V30 5574 C 513.066 -0.0235129 1.88785 0
M  V30 5575 O 512.423 -0.991662 1.53207 0
M  V30 5576 C 512.474 2.24641 2.83229 0
M  V30 5577 O 512.195 3.60026 2.49625 0
M  V30 5578 C 513.696 2.32669 3.77333 0
M  V30 5579 H 510.916 0.473589 0.475347 0
M  V30 5580 H 513.46 1.82395 0.924786 0
M  V30 5581 H 511.615 1.84213 3.40799 0
M  V30 5582 H 512.029 4.05435 3.3275 0
M  V30 5583 H 513.503 2.97201 4.65162 0
M  V30 5584 H 513.98 1.3421 4.18192 0
M  V30 5585 H 514.586 2.73512 3.25685 0
M  V30 5586 N 512.901 -0.976442 1.23707 0
M  V30 5587 C 513.833 -2.07212 0.979574 0
M  V30 5588 C 514.846 -1.6273 -0.0478528 0
M  V30 5589 O 516.035 -1.77506 0.18815 0
M  V30 5590 C 513.135 -3.35835 0.45479 0
M  V30 5591 C 512.308 -4.09268 1.54331 0
M  V30 5592 C 511.367 -5.16166 1.02271 0
M  V30 5593 O 510.393 -5.42827 1.71254 0
M  V30 5594 N 511.595 -5.80313 -0.147419 0
M  V30 5595 H 514.36 -2.29878 1.92292 0
M  V30 5596 H 511.921 -1.14343 1.14618 0
M  V30 5597 H 513.913 -4.04597 0.0914631 0
M  V30 5598 H 512.483 -3.10106 -0.394068 0
M  V30 5599 H 511.703 -3.34906 2.07923 0
M  V30 5600 H 512.991 -4.55095 2.27522 0
M  V30 5601 H 512.389 -5.61043 -0.724353 0
M  V30 5602 H 510.946 -6.50231 -0.451972 0
M  V30 5603 N 514.379 -1.04941 -1.1758 0
M  V30 5604 C 515.327 -0.64204 -2.23563 0
M  V30 5605 C 516.321 0.335453 -1.66045 0
M  V30 5606 O 517.527 0.20179 -1.78865 0
M  V30 5607 H 513.902 -0.18944 -0.727748 0
M  V30 5608 H 515.873 -1.54609 -2.55223 0
M  V30 5609 C 514.622 -0.0301051 -3.47687 0
M  V30 5610 H 513.945 -0.773339 -3.92249 0
M  V30 5611 H 515.385 0.217592 -4.23441 0
M  V30 5612 C 513.844 1.2225 -3.13937 0
M  V30 5613 O 514.374 2.3122 -3.28482 0
M  V30 5614 N 512.58 1.11917 -2.68185 0
M  V30 5615 H 512.127 0.232403 -2.5655 0
M  V30 5616 H 512.085 1.95814 -2.45976 0
M  V30 5617 N 515.857 1.33968 -0.830081 0
M  V30 5618 C 516.767 2.33164 -0.259207 0
M  V30 5619 C 517.783 1.62951 0.610164 0
M  V30 5620 O 518.959 1.94668 0.516369 0
M  V30 5621 C 516.024 3.42088 0.563598 0
M  V30 5622 C 515.085 4.28037 -0.329014 0
M  V30 5623 C 514.318 5.3176 0.454616 0
M  V30 5624 O 514.541 5.44876 1.6872 0
M  V30 5625 O 513.475 6.01669 -0.166794 0
M  V30 5626 H 517.301 2.83832 -1.08041 0
M  V30 5627 H 514.886 1.37154 -0.59239 0
M  V30 5628 H 516.768 4.08581 1.03147 0
M  V30 5629 H 515.443 2.93651 1.36201 0
M  V30 5630 H 514.35 3.64443 -0.844538 0
M  V30 5631 H 515.683 4.79934 -1.09196 0
M  V30 5632 N 517.335 0.585699 1.46312 0
M  V30 5633 C 518.245 -0.148236 2.34131 0
M  V30 5634 C 519.261 -0.882972 1.49932 0
M  V30 5635 O 520.437 -0.845484 1.82794 0
M  V30 5636 C 517.502 -1.14714 3.27172 0
M  V30 5637 C 516.563 -0.416746 4.27272 0
M  V30 5638 C 515.796 -1.36806 5.15868 0
M  V30 5639 O 516.019 -2.60475 5.07454 0
M  V30 5640 O 514.953 -0.877018 5.95476 0
M  V30 5641 H 518.779 0.572882 2.98248 0
M  V30 5642 H 516.364 0.346082 1.45336 0
M  V30 5643 H 518.246 -1.72303 3.84564 0
M  V30 5644 H 516.921 -1.84967 2.65648 0
M  V30 5645 H 515.828 0.201061 3.73559 0
M  V30 5646 H 517.161 0.244872 4.9159 0
M  V30 5647 N 518.813 -1.54241 0.323641 0
M  V30 5648 C 519.743 -2.27289 -0.534993 0
M  V30 5649 C 520.724 -1.28087 -1.11927 0
M  V30 5650 O 521.909 -1.56899 -1.14439 0
M  V30 5651 C 519.039 -3.03075 -1.69596 0
M  V30 5652 C 517.993 -4.09614 -1.24098 0
M  V30 5653 C 517.319 -4.73242 -2.4889 0
M  V30 5654 C 518.619 -5.21087 -0.355789 0
M  V30 5655 H 520.313 -2.99308 0.0743257 0
M  V30 5656 H 517.859 -1.43952 0.0371874 0
M  V30 5657 H 519.812 -3.52907 -2.30293 0
M  V30 5658 H 518.536 -2.28673 -2.33187 0
M  V30 5659 H 517.195 -3.60666 -0.656945 0
M  V30 5660 H 516.843 -3.95455 -3.10845 0
M  V30 5661 H 516.543 -5.45209 -2.19138 0
M  V30 5662 H 518.067 -5.25848 -3.10348 0
M  V30 5663 H 519.481 -5.66675 -0.869042 0
M  V30 5664 H 517.878 -5.9991 -0.151045 0
M  V30 5665 H 518.948 -4.81005 0.613339 0
M  V30 5666 N 520.291 -0.0518155 -1.57515 0
M  V30 5667 C 521.537 0.616839 -1.93821 0
M  V30 5668 C 521.892 1.68413 -0.930307 0
M  V30 5669 O 521.185 1.91534 0.0504231 0
M  V30 5670 C 521.379 1.25607 -3.34601 0
M  V30 5671 C 521.208 0.252222 -4.48992 0
M  V30 5672 C 519.978 -0.156031 -5.05059 0
M  V30 5673 C 522.176 -0.502613 -5.11838 0
M  V30 5674 N 520.158 -1.15267 -6.02981 0
M  V30 5675 C 521.529 -1.35232 -6.05072 0
M  V30 5676 C 523.584 -0.560855 -4.94731 0
M  V30 5677 C 522.287 -2.25505 -6.83037 0
M  V30 5678 C 524.313 -1.45102 -5.73323 0
M  V30 5679 C 523.675 -2.28845 -6.6619 0
M  V30 5680 H 519.774 0.197344 -0.75669 0
M  V30 5681 H 522.358 -0.124297 -1.94303 0
M  V30 5682 H 520.529 1.96723 -3.34895 0
M  V30 5683 H 522.261 1.88358 -3.58195 0
M  V30 5684 H 519.016 0.22306 -4.73074 0
M  V30 5685 H 519.44 -1.64791 -6.56638 0
M  V30 5686 H 524.082 0.0723639 -4.22738 0
M  V30 5687 H 521.8 -2.89872 -7.54321 0
M  V30 5688 H 525.386 -1.50066 -5.62113 0
M  V30 5689 H 524.266 -2.96608 -7.25943 0
M  V30 5690 N 521.769 1.56035 0.221574 0
M  V30 5691 C 522.679 1.95581 1.29558 0
M  V30 5692 C 523.695 0.859639 1.51282 0
M  V30 5693 O 524.871 1.16321 1.64413 0
M  V30 5694 C 521.936 2.26447 2.62531 0
M  V30 5695 C 520.997 3.49632 2.4911 0
M  V30 5696 C 520.23 3.79017 3.75742 0
M  V30 5697 O 520.453 3.10077 4.78757 0
M  V30 5698 O 519.387 4.72507 3.72855 0
M  V30 5699 H 523.213 2.8711 0.990035 0
M  V30 5700 H 520.798 1.43244 0.424434 0
M  V30 5701 H 522.68 2.47494 3.41064 0
M  V30 5702 H 521.355 1.38092 2.92766 0
M  V30 5703 H 520.262 3.33864 1.68777 0
M  V30 5704 H 521.595 4.3837 2.23814 0
M  V30 5705 N 523.247 -0.488276 1.49845 0
M  V30 5706 C 524.658 -1.06955 1.53028 0
M  V30 5707 C 525.009 -1.9351 0.323797 0
M  V30 5708 O 524.134 -2.08891 -0.565116 0
M  V30 5709 C 524.729 -1.94643 2.77307 0
M  V30 5710 C 523.288 -2.4791 2.83227 0
M  V30 5711 C 522.435 -1.25833 2.47106 0
M  V30 5712 H 525.386 -0.271626 1.56358 0
M  V30 5713 H 525.407 -2.79496 2.5819 0
M  V30 5714 H 524.919 -1.31621 3.65099 0
M  V30 5715 H 523.02 -3.14535 1.99745 0
M  V30 5716 H 523.133 -2.84193 3.85709 0
M  V30 5717 H 521.497 -1.58764 1.99163 0
M  V30 5718 H 522.28 -0.644993 3.37186 0
M  V30 5719 N 524.725 -1.39134 -0.740242 0
M  V30 5720 C 525.655 -1.40165 -1.86751 0
M  V30 5721 C 526.636 -0.265708 -1.68012 0
M  V30 5722 O 527.821 -0.47076 -1.88408 0
M  V30 5723 C 524.951 -1.2392 -3.2444 0
M  V30 5724 C 523.905 -2.34858 -3.57807 0
M  V30 5725 C 523.231 -2.03707 -4.94376 0
M  V30 5726 C 524.531 -3.77159 -3.61315 0
M  V30 5727 H 526.225 -2.345 -1.86145 0
M  V30 5728 H 523.771 -1.12875 -0.89416 0
M  V30 5729 H 525.724 -1.23263 -4.02969 0
M  V30 5730 H 524.448 -0.26051 -3.25559 0
M  V30 5731 H 523.107 -2.34723 -2.81604 0
M  V30 5732 H 522.755 -1.04289 -4.9207 0
M  V30 5733 H 522.455 -2.78016 -5.17669 0
M  V30 5734 H 523.979 -2.04691 -5.75268 0
M  V30 5735 H 525.393 -3.79252 -4.29931 0
M  V30 5736 H 523.79 -4.50784 -3.96124 0
M  V30 5737 H 524.86 -4.08513 -2.61238 0
M  V30 5738 N 526.204 0.969867 -1.24223 0
M  V30 5739 C 527.434 1.74502 -1.106 0
M  V30 5740 C 527.842 1.86038 0.344483 0
M  V30 5741 O 527.185 1.3465 1.24961 0
M  V30 5742 C 527.247 3.18391 -1.66935 0
M  V30 5743 C 526.911 3.30334 -3.15798 0
M  V30 5744 C 527.908 3.15832 -4.12973 0
M  V30 5745 C 525.593 3.54644 -3.55715 0
M  V30 5746 C 527.587 3.25461 -5.48045 0
M  V30 5747 C 525.274 3.63912 -4.90929 0
M  V30 5748 C 526.272 3.49332 -5.86904 0
M  V30 5749 O 525.96 3.58251 -7.1966 0
M  V30 5750 H 525.692 0.554119 -0.387206 0
M  V30 5751 H 528.246 1.22646 -1.64764 0
M  V30 5752 H 526.476 3.71543 -1.07203 0
M  V30 5753 H 528.165 3.77707 -1.48634 0
M  V30 5754 H 528.931 2.96937 -3.83476 0
M  V30 5755 H 524.81 3.65059 -2.81519 0
M  V30 5756 H 528.354 3.13998 -6.22937 0
M  V30 5757 H 524.251 3.82319 -5.20098 0
M  V30 5758 H 525.019 3.7498 -7.27552 0
M  V30 5759 N 527.682 1.05563 1.17022 0
M  V30 5760 C 528.645 0.664098 2.19368 0
M  V30 5761 C 529.645 -0.286358 1.5823 0
M  V30 5762 O 530.835 -0.069728 1.7406 0
M  V30 5763 C 527.967 -0.0239932 3.40892 0
M  V30 5764 H 529.16 1.57 2.55521 0
M  V30 5765 H 526.713 0.849964 1.31169 0
M  V30 5766 H 527.448 -0.942988 3.10287 0
M  V30 5767 H 527.233 0.659351 3.86516 0
M  V30 5768 H 528.723 -0.283909 4.16634 0
M  V30 5769 N 529.16 -1.33526 0.837174 0
M  V30 5770 C 530.4 -1.99649 0.438115 0
M  V30 5771 C 530.764 -1.64879 -0.983816 0
M  V30 5772 O 531.965 -2.23956 -1.48651 0
M  V30 5773 C 530.236 -3.51431 0.650461 0
M  V30 5774 S 531.795 -4.37431 0.346371 0
M  V30 5775 H 528.613 -0.69162 0.164872 0
M  V30 5776 H 531.215 -1.62556 1.08609 0
M  V30 5777 H 529.919 -3.74225 1.68475 0
M  V30 5778 H 529.45 -3.93398 -0.0117309 0
M  V30 5779 H 531.465 -4.89132 -0.834504 0
M  V30 5780 N 530.638 -0.59345 -1.46 0
M  V30 5781 C 531.868 -0.0889642 -2.06408 0
M  V30 5782 C 532.276 1.22597 -1.44106 0
M  V30 5783 O 531.619 1.75448 -0.544398 0
M  V30 5784 C 531.681 0.139902 -3.59228 0
M  V30 5785 C 531.345 -1.09107 -4.43784 0
M  V30 5786 C 532.342 -2.00577 -4.79651 0
M  V30 5787 C 530.027 -1.31593 -4.84756 0
M  V30 5788 C 532.021 -3.12873 -5.55328 0
M  V30 5789 C 529.708 -2.44192 -5.60191 0
M  V30 5790 C 530.706 -3.34661 -5.95392 0
M  V30 5791 O 530.394 -4.45302 -6.69299 0
M  V30 5792 H 530.126 -0.0594613 -0.67338 0
M  V30 5793 H 532.68 -0.817 -1.88452 0
M  V30 5794 H 530.91 0.922672 -3.75531 0
M  V30 5795 H 532.599 0.594228 -4.01527 0
M  V30 5796 H 533.365 -1.84425 -4.48567 0
M  V30 5797 H 529.244 -0.620801 -4.56801 0
M  V30 5798 H 532.788 -3.83511 -5.82722 0
M  V30 5799 H 528.685 -2.60303 -5.90688 0
M  V30 5800 H 529.453 -4.43805 -6.87735 0
M  V30 5801 N 532.116 1.54067 -0.331816 0
M  V30 5802 C 533.048 2.22139 0.564538 0
M  V30 5803 C 534.061 1.22408 1.07332 0
M  V30 5804 O 535.25 1.4883 0.985481 0
M  V30 5805 C 532.35 2.87876 1.78831 0
M  V30 5806 C 531.523 4.13817 1.41682 0
M  V30 5807 C 530.582 4.63072 2.49901 0
M  V30 5808 O 529.608 5.27562 2.13699 0
M  V30 5809 N 530.81 4.38001 3.80967 0
M  V30 5810 H 533.575 2.99694 -0.0183736 0
M  V30 5811 H 531.136 1.61153 -0.155396 0
M  V30 5812 H 533.128 3.17747 2.50637 0
M  V30 5813 H 531.698 2.13977 2.27887 0
M  V30 5814 H 530.918 3.9062 0.530044 0
M  V30 5815 H 532.206 4.95762 1.14443 0
M  V30 5816 H 531.604 3.864 4.13173 0
M  V30 5817 H 530.161 4.72507 4.48977 0
M  V30 5818 N 533.594 0.0601682 1.57485 0
M  V30 5819 C 534.819 -0.624416 1.97777 0
M  V30 5820 C 535.244 -1.63051 0.937867 0
M  V30 5821 O 534.602 -1.81036 -0.0978845 0
M  V30 5822 C 534.65 -1.27979 3.37126 0
M  V30 5823 O 533.754 -2.39556 3.35688 0
M  V30 5824 H 533.095 -0.161581 0.64404 0
M  V30 5825 H 535.625 0.131237 2.04179 0
M  V30 5826 H 535.635 -1.62937 3.74053 0
M  V30 5827 H 534.31 -0.542501 4.12347 0
M  V30 5828 H 532.887 -2.06478 3.10517 0
M  V30 5829 N 535.072 -1.5615 -0.213296 0
M  V30 5830 C 536.002 -1.96109 -1.26742 0
M  V30 5831 C 536.983 -0.830448 -1.48451 0
M  V30 5832 O 538.168 -1.09339 -1.60495 0
M  V30 5833 C 535.298 -2.28492 -2.61551 0
M  V30 5834 C 534.252 -3.44124 -2.54485 0
M  V30 5835 C 533.578 -3.62134 -3.93399 0
M  V30 5836 C 534.878 -4.78855 -2.08556 0
M  V30 5837 H 536.572 -2.84412 -0.935434 0
M  V30 5838 H 534.118 -1.36836 -0.44854 0
M  V30 5839 H 536.071 -2.55039 -3.3546 0
M  V30 5840 H 534.795 -1.37052 -2.96453 0
M  V30 5841 H 533.454 -3.17639 -1.83033 0
M  V30 5842 H 533.102 -2.68055 -4.25623 0
M  V30 5843 H 532.802 -4.39913 -3.89551 0
M  V30 5844 H 534.326 -3.91038 -4.68958 0
M  V30 5845 H 535.74 -5.04552 -2.72213 0
M  V30 5846 H 534.137 -5.59975 -2.1575 0
M  V30 5847 H 535.207 -4.73657 -1.03811 0
M  V30 5848 N 536.55 0.480323 -1.50102 0
M  V30 5849 C 537.482 1.59669 -1.64433 0
M  V30 5850 C 538.495 1.54063 -0.52615 0
M  V30 5851 O 539.684 1.59619 -0.798992 0
M  V30 5852 C 536.784 2.98527 -1.6042 0
M  V30 5853 C 535.957 3.291 -2.88117 0
M  V30 5854 C 535.016 4.47468 -2.76873 0
M  V30 5855 O 534.042 4.4823 -3.50825 0
M  V30 5856 N 535.244 5.48593 -1.89806 0
M  V30 5857 H 538.009 1.47795 -2.60723 0
M  V30 5858 H 535.57 0.66858 -1.4745 0
M  V30 5859 H 537.562 3.75666 -1.50523 0
M  V30 5860 H 536.132 3.04218 -0.719036 0
M  V30 5861 H 535.352 2.40662 -3.12211 0
M  V30 5862 H 536.64 3.46334 -3.72734 0
M  V30 5863 H 536.038 5.50791 -1.2902 0
M  V30 5864 H 534.595 6.24752 -1.85819 0
M  V30 5865 N 538.028 1.39524 0.732853 0
M  V30 5866 C 538.991 1.38189 1.82857 0
M  V30 5867 C 539.991 0.278624 1.58368 0
M  V30 5868 O 541.181 0.536639 1.65728 0
M  V30 5869 C 538.313 1.15661 3.2068 0
M  V30 5870 H 539.506 2.35692 1.85444 0
M  V30 5871 H 537.059 1.2512 0.936728 0
M  V30 5872 H 537.794 0.188482 3.23752 0
M  V30 5873 H 537.579 1.95559 3.39852 0
M  V30 5874 H 539.069 1.17472 4.00737 0
M  V30 5875 N 539.506 -0.963266 1.24736 0
M  V30 5876 C 540.746 -1.72172 1.10165 0
M  V30 5877 C 541.11 -1.88731 -0.352784 0
M  V30 5878 O 542.311 -2.61549 -0.620107 0
M  V30 5879 C 540.582 -3.0724 1.82589 0
M  V30 5880 S 542.141 -3.98449 1.83803 0
M  V30 5881 H 538.959 -0.591901 0.393922 0
M  V30 5882 H 541.561 -1.14955 1.58132 0
M  V30 5883 H 540.265 -2.92851 2.87518 0
M  V30 5884 H 539.796 -3.69521 1.34973 0
M  V30 5885 H 541.811 -4.87805 0.908883 0
M  V30 5886 N 540.985 -1.06182 -1.16461 0
M  V30 5887 C 542.233 -0.776326 -1.86595 0
M  V30 5888 C 542.554 0.69921 -1.82033 0
M  V30 5889 O 541.824 1.50579 -1.2531 0
M  V30 5890 H 540.404 -0.284184 -0.690832 0
M  V30 5891 H 543.066 -1.34308 -1.41235 0
M  V30 5892 H 542.162 -1.10022 -2.92064 0
M  V30 5893 N 542.463 1.3308 -0.844243 0
M  V30 5894 C 543.396 2.27075 -0.226279 0
M  V30 5895 C 544.374 1.49911 0.629716 0
M  V30 5896 O 545.558 1.79068 0.588803 0
M  V30 5897 C 542.685 3.31767 0.681782 0
M  V30 5898 C 541.731 4.26384 -0.0994565 0
M  V30 5899 S 542.564 5.15186 -1.46094 0
M  V30 5900 C 543.72 6.23405 -0.558319 0
M  V30 5901 H 543.953 2.79141 -1.02312 0
M  V30 5902 H 541.486 1.40452 -0.641292 0
M  V30 5903 H 543.444 3.92566 1.20008 0
M  V30 5904 H 542.105 2.78507 1.45234 0
M  V30 5905 H 541.298 5.00514 0.591733 0
M  V30 5906 H 540.9 3.69949 -0.548991 0
M  V30 5907 H 543.192 6.77069 0.241672 0
M  V30 5908 H 544.135 6.96619 -1.26995 0
M  V30 5909 H 544.543 5.64333 -0.13728 0
M  V30 5910 N 543.941 0.601185 1.45683 0
M  V30 5911 C 545.189 0.0936957 2.01883 0
M  V30 5912 C 545.51 -1.2779 1.47291 0
M  V30 5913 O 544.78 -1.84279 0.664691 0
M  V30 5914 H 543.36 0.0316466 0.746329 0
M  V30 5915 H 546.022 0.781137 1.78562 0
M  V30 5916 H 545.118 0.0386297 3.12076 0
M  V30 5917 N 545.419 -1.53889 0.339982 0
M  V30 5918 C 546.668 -2.00035 -0.258604 0
M  V30 5919 C 546.981 -1.23179 -1.51942 0
M  V30 5920 O 548.187 -1.59784 -2.19503 0
M  V30 5921 C 546.643 -3.56249 -0.511359 0
M  V30 5922 C 546.251 -4.41957 0.733349 0
M  V30 5923 C 547.995 -4.1082 -1.069 0
M  V30 5924 C 545.902 -5.89673 0.451591 0
M  V30 5925 H 544.832 -0.747284 -0.10041 0
M  V30 5926 H 547.483 -1.77776 0.454758 0
M  V30 5927 H 545.865 -3.7456 -1.28533 0
M  V30 5928 H 547.039 -4.35421 1.50815 0
M  V30 5929 H 545.354 -3.9836 1.21237 0
M  V30 5930 H 547.951 -5.18789 -1.2947 0
M  V30 5931 H 548.294 -3.63817 -2.02343 0
M  V30 5932 H 548.827 -3.96205 -0.355817 0
M  V30 5933 H 545.566 -6.40903 1.37565 0
M  V30 5934 H 545.086 -5.99122 -0.285193 0
M  V30 5935 H 546.765 -6.46965 0.0675067 0
M  V30 5936 N 546.897 -0.0685191 -1.57451 0
M  V30 5937 C 548.146 0.600898 -1.92541 0
M  V30 5938 C 548.459 1.70967 -0.950239 0
M  V30 5939 O 549.665 2.43844 -1.19384 0
M  V30 5940 C 548.121 1.12019 -3.42023 0
M  V30 5941 C 547.729 0.0426028 -4.4798 0
M  V30 5942 C 549.473 1.76386 -3.86119 0
M  V30 5943 C 547.38 0.575759 -5.88591 0
M  V30 5944 H 546.31 0.228225 -0.71863 0
M  V30 5945 H 548.961 -0.140223 -1.82963 0
M  V30 5946 H 547.343 1.91418 -3.46663 0
M  V30 5947 H 548.517 -0.73182 -4.54952 0
M  V30 5948 H 546.832 -0.504642 -4.13331 0
M  V30 5949 H 549.429 2.17302 -4.88553 0
M  V30 5950 H 549.772 2.62255 -3.23308 0
M  V30 5951 H 550.305 1.03615 -3.84069 0
M  V30 5952 H 547.044 -0.245691 -6.55039 0
M  V30 5953 H 546.564 1.31778 -5.85145 0
M  V30 5954 H 548.243 1.0532 -6.3837 0
M  V30 5955 N 548.375 1.56261 0.205012 0
M  V30 5956 C 549.338 1.92908 1.23771 0
M  V30 5957 C 550.338 0.809208 1.38955 0
M  V30 5958 O 551.528 1.07676 1.36936 0
M  V30 5959 C 548.66 2.19442 2.60879 0
M  V30 5960 H 549.853 2.85287 0.924728 0
M  V30 5961 H 547.406 1.49798 0.446125 0
M  V30 5962 H 548.141 1.29668 2.97248 0
M  V30 5963 H 547.926 3.0104 2.51232 0
M  V30 5964 H 549.416 2.48833 3.35368 0
M  V30 5965 N 549.853 -0.472356 1.50355 0
M  V30 5966 C 550.801 -1.59126 1.69651 0
M  V30 5967 C 551.795 -1.59793 0.56237 0
M  V30 5968 O 553.001 -1.63957 0.742832 0
M  V30 5969 H 549.376 -0.528008 0.535454 0
M  V30 5970 H 551.347 -1.40013 2.63513 0
M  V30 5971 C 550.096 -2.97075 1.8067 0
M  V30 5972 H 549.419 -2.9728 2.67329 0
M  V30 5973 H 550.859 -3.74825 1.98197 0
M  V30 5974 C 549.318 -3.32247 0.558016 0
M  V30 5975 O 549.848 -4.00553 -0.303399 0
M  V30 5976 N 548.054 -2.87659 0.412415 0
M  V30 5977 H 547.601 -2.32246 1.11443 0
M  V30 5978 H 547.559 -3.11556 -0.421908 0
M  V30 5979 N 551.331 -1.39911 -0.725443 0
M  V30 5980 C 552.579 -1.37382 -1.48224 0
M  V30 5981 C 552.9 0.0264107 -1.94982 0
M  V30 5982 O 552.17 0.979408 -1.6966 0
M  V30 5983 H 550.75 -0.505596 -0.549892 0
M  V30 5984 H 553.412 -1.7487 -0.860608 0
M  V30 5985 H 552.508 -2.04254 -2.3598 0
M  V30 5986 N 552.809 0.956637 -1.25245 0
M  V30 5987 C 554.086 1.67716 -1.00651 0
M  V30 5988 C 554.466 2.0585 0.467866 0
M  V30 5989 O 553.814 1.77029 1.44475 0
M  V30 5990 C 554.024 2.90093 -1.94028 0
M  V30 5991 C 555.372 3.6209 -2.21756 0
M  V30 5992 O 556.396 3.00171 -1.9177 0
M  V30 5993 O 555.255 4.7358 -2.72735 0
M  V30 5994 H 552.349 0.733731 -0.381533 0
M  V30 5995 H 554.895 1.00974 -1.3639 0
M  V30 5996 H 553.667 2.58689 -2.93591 0
M  V30 5997 H 553.29 3.64566 -1.58674 0
M  V30 5998 N 554.287 1.06798 1.15896 0
M  V30 5999 C 555.217 0.704677 2.22613 0
M  V30 6000 C 556.198 -0.305252 1.67339 0
M  V30 6001 O 557.383 -0.179247 1.93371 0
M  V30 6002 C 554.513 0.0957325 3.47168 0
M  V30 6003 C 553.467 1.0322 4.15367 0
M  V30 6004 C 552.793 0.286293 5.33933 0
M  V30 6005 C 554.093 2.36341 4.65768 0
M  V30 6006 H 555.787 1.59688 2.53259 0
M  V30 6007 H 553.333 0.769257 1.21731 0
M  V30 6008 H 555.286 -0.170333 4.21056 0
M  V30 6009 H 554.01 -0.831516 3.15838 0
M  V30 6010 H 552.669 1.28309 3.43413 0
M  V30 6011 H 552.317 -0.644237 4.98857 0
M  V30 6012 H 552.017 0.910436 5.80504 0
M  V30 6013 H 553.541 0.0278938 6.10594 0
M  V30 6014 H 554.955 2.1561 5.31211 0
M  V30 6015 H 553.352 2.94299 5.2298 0
M  V30 6016 H 554.422 2.99047 3.81705 0
M  V30 6017 N 555.766 -1.3263 0.851289 0
M  V30 6018 C 556.696 -2.31449 0.308771 0
M  V30 6019 C 557.677 -1.59531 -0.590255 0
M  V30 6020 O 558.862 -1.87351 -0.511205 0
M  V30 6021 C 555.992 -3.43586 -0.506548 0
M  V30 6022 C 554.946 -4.26963 0.297753 0
M  V30 6023 C 554.272 -5.30831 -0.642094 0
M  V30 6024 C 555.572 -4.99643 1.52166 0
M  V30 6025 H 557.266 -2.77074 1.13447 0
M  V30 6026 H 554.812 -1.33207 0.546971 0
M  V30 6027 H 556.765 -4.11754 -0.896474 0
M  V30 6028 H 555.489 -2.96681 -1.36558 0
M  V30 6029 H 554.148 -3.60437 0.669391 0
M  V30 6030 H 553.796 -4.8018 -1.49788 0
M  V30 6031 H 553.496 -5.87501 -0.107968 0
M  V30 6032 H 555.02 -6.01862 -1.02927 0
M  V30 6033 H 556.434 -5.6051 1.20421 0
M  V30 6034 H 554.831 -5.66022 1.99347 0
M  V30 6035 H 555.901 -4.27701 2.28474 0
M  V30 6036 N 557.244 -0.608902 -1.45362 0
M  V30 6037 C 558.521 -0.0365378 -1.95566 0
M  V30 6038 C 558.901 1.43169 -1.55131 0
M  V30 6039 O 558.249 2.1349 -0.814513 0
M  V30 6040 C 558.459 -0.236026 -3.48201 0
M  V30 6041 C 559.807 -0.117518 -4.24437 0
M  V30 6042 O 560.831 -0.166217 -3.55812 0
M  V30 6043 O 559.69 -0.00372127 -5.465 0
M  V30 6044 H 556.784 0.0349874 -0.82626 0
M  V30 6045 H 559.33 -0.679055 -1.55521 0
M  V30 6046 H 558.102 -1.25569 -3.70605 0
M  V30 6047 H 557.725 0.441691 -3.95139 0
M  V30 6048 N 558.722 1.53707 -0.348139 0
M  V30 6049 C 559.95 2.05406 0.248224 0
M  V30 6050 C 560.365 1.22282 1.43849 0
M  V30 6051 O 559.722 0.259244 1.80649 0
M  V30 6052 C 559.773 3.55446 0.658793 0
M  V30 6053 O 559.494 4.35417 -0.484149 0
M  V30 6054 C 560.995 4.23335 1.31539 0
M  V30 6055 H 558.215 0.669344 0.0471075 0
M  V30 6056 H 560.759 1.98257 -0.501456 0
M  V30 6057 H 558.914 3.62803 1.35841 0
M  V30 6058 H 559.328 5.24268 -0.155949 0
M  V30 6059 H 560.802 5.29692 1.55338 0
M  V30 6060 H 561.279 3.75967 2.27036 0
M  V30 6061 H 561.885 4.20184 0.657683 0
M  V30 6062 N 560.2 0.0768682 1.57412 0
M  V30 6063 C 561.13 -0.886026 2.16037 0
M  V30 6064 C 562.111 -1.30691 1.08876 0
M  V30 6065 O 563.296 -1.37705 1.36934 0
M  V30 6066 C 560.426 -2.1518 2.72608 0
M  V30 6067 C 559.38 -1.87015 3.8498 0
M  V30 6068 C 558.706 -3.20266 4.28175 0
M  V30 6069 C 560.006 -1.17143 5.08994 0
M  V30 6070 H 561.7 -0.397642 2.96748 0
M  V30 6071 H 559.246 -0.189823 1.42743 0
M  V30 6072 H 561.199 -2.82962 3.12266 0
M  V30 6073 H 559.923 -2.66269 1.89125 0
M  V30 6074 H 558.582 -1.21636 3.45833 0
M  V30 6075 H 558.23 -3.69207 3.41607 0
M  V30 6076 H 557.93 -3.0221 5.03927 0
M  V30 6077 H 559.454 -3.89237 4.70454 0
M  V30 6078 H 560.868 -1.75003 5.45937 0
M  V30 6079 H 559.265 -1.09328 5.90057 0
M  V30 6080 H 560.335 -0.151295 4.84664 0
M  V30 6081 N 561.678 -1.56367 -0.196722 0
M  V30 6082 C 563.094 -1.49916 -0.54749 0
M  V30 6083 C 563.294 -0.77659 -1.85934 0
M  V30 6084 O 562.35 -0.32644 -2.50381 0
M  V30 6085 C 563.663 -2.94577 -0.603734 0
M  V30 6086 C 565.211 -3.05239 -0.692677 0
M  V30 6087 C 565.686 -4.51308 -0.780046 0
M  V30 6088 N 567.177 -4.55453 -0.843616 0
M  V30 6089 C 567.912 -5.65786 -0.931358 0
M  V30 6090 N 567.408 -6.85812 -0.981503 0
M  V30 6091 N 569.201 -5.53695 -0.968421 0
M  V30 6092 H 561.352 -2.01761 0.663803 0
M  V30 6093 H 563.615 -0.918094 0.236238 0
M  V30 6094 H 563.321 -3.50494 0.29105 0
M  V30 6095 H 563.195 -3.47841 -1.45898 0
M  V30 6096 H 565.582 -2.49372 -1.57789 0
M  V30 6097 H 565.663 -2.55103 0.188736 0
M  V30 6098 H 565.307 -5.078 0.100811 0
M  V30 6099 H 565.237 -4.99176 -1.67724 0
M  V30 6100 H 567.728 -3.69025 -0.814176 0
M  V30 6101 H 568.041 -7.65648 -1.04892 0
M  V30 6102 H 566.386 -6.88474 -0.950208 0
M  V30 6103 H 569.577 -4.58848 -0.926072 0
M  V30 6104 H 569.75 -6.39708 -1.03334 0
M  V30 6105 N 563.156 0.464375 -1.50603 0
M  V30 6106 C 564.572 0.798684 -1.38178 0
M  V30 6107 C 564.772 1.96568 -0.44308 0
M  V30 6108 O 563.828 2.52252 0.111814 0
M  V30 6109 C 565.141 1.10444 -2.79683 0
M  V30 6110 C 566.689 1.2105 -2.88645 0
M  V30 6111 C 567.164 1.54934 -4.30998 0
M  V30 6112 N 568.655 1.61913 -4.3398 0
M  V30 6113 C 569.39 1.8965 -5.41129 0
M  V30 6114 N 568.886 2.15361 -6.58477 0
M  V30 6115 N 570.679 1.91207 -5.28579 0
M  V30 6116 H 562.83 -0.304603 -2.10204 0
M  V30 6117 H 565.093 -0.0737804 -0.945125 0
M  V30 6118 H 564.799 0.319934 -3.50242 0
M  V30 6119 H 564.673 2.03896 -3.17342 0
M  V30 6120 H 567.06 1.98567 -2.18301 0
M  V30 6121 H 567.141 0.255613 -2.5452 0
M  V30 6122 H 566.785 0.779549 -5.01882 0
M  V30 6123 H 566.715 2.51584 -4.62615 0
M  V30 6124 H 569.206 1.44055 -3.49366 0
M  V30 6125 H 569.519 2.35818 -7.35941 0
M  V30 6126 H 567.864 2.1274 -6.6164 0
M  V30 6127 H 571.055 1.70622 -4.35897 0
M  V30 6128 H 571.228 2.12488 -6.12171 0
M  V30 6129 N 564.634 1.40294 0.718013 0
M  V30 6130 C 565.88 1.38645 1.48005 0
M  V30 6131 C 566.213 -0.0121202 1.94196 0
M  V30 6132 O 565.488 -0.980309 1.67989 0
M  V30 6133 C 565.771 2.37379 2.70782 0
M  V30 6134 C 565.624 3.8625 2.30501 0
M  V30 6135 C 566.943 2.33685 3.72933 0
M  V30 6136 H 564.062 0.504928 0.536858 0
M  V30 6137 H 566.704 1.71411 0.819649 0
M  V30 6138 H 564.854 2.09568 3.27129 0
M  V30 6139 H 566.526 4.24879 1.79655 0
M  V30 6140 H 564.769 4.02202 1.6253 0
M  V30 6141 H 565.44 4.50847 3.18498 0
M  V30 6142 H 567.916 2.58314 3.2621 0
M  V30 6143 H 566.792 3.0482 4.56482 0
M  V30 6144 H 567.053 1.34765 4.21059 0
M  V30 6145 N 566.112 -0.949982 1.2575 0
M  V30 6146 C 567.059 -2.04738 1.06541 0
M  V30 6147 C 568.029 -1.66078 -0.0268818 0
M  V30 6148 O 569.214 -1.90348 0.131196 0
M  V30 6149 C 566.354 -3.38027 0.695127 0
M  V30 6150 C 565.467 -3.89776 1.86276 0
M  V30 6151 C 564.602 -5.11411 1.4364 0
M  V30 6152 C 563.641 -5.554 2.57287 0
M  V30 6153 N 562.778 -6.68244 2.15395 0
M  V30 6154 H 567.618 -2.20502 2.00457 0
M  V30 6155 H 565.155 -1.0805 0.998178 0
M  V30 6156 H 567.113 -4.14641 0.461375 0
M  V30 6157 H 565.743 -3.22135 -0.207046 0
M  V30 6158 H 564.795 -3.0964 2.20969 0
M  V30 6159 H 566.107 -4.18368 2.71606 0
M  V30 6160 H 565.261 -5.95457 1.16257 0
M  V30 6161 H 564 -4.84545 0.553879 0
M  V30 6162 H 563.005 -4.69916 2.85409 0
M  V30 6163 H 564.23 -5.84272 3.46125 0
M  V30 6164 H 562.176 -6.43078 1.29565 0
M  V30 6165 H 562.093 -6.96377 2.94272 0
M  V30 6166 H 563.361 -7.55687 1.91201 0
M  V30 6167 N 567.59 -1.07411 -1.15328 0
M  V30 6168 C 568.83 -0.807011 -1.87794 0
M  V30 6169 C 569.194 0.654987 -1.80482 0
M  V30 6170 O 570.395 1.03716 -2.47985 0
M  V30 6171 C 568.666 -1.30198 -3.32841 0
M  V30 6172 S 570.225 -1.16564 -4.23034 0
M  V30 6173 H 567.043 -0.292429 -0.648079 0
M  V30 6174 H 569.645 -1.37334 -1.39139 0
M  V30 6175 H 568.349 -2.3607 -3.35707 0
M  V30 6176 H 567.88 -0.730881 -3.86551 0
M  V30 6177 H 569.895 -0.103557 -4.96092 0
M  V30 6178 N 569.068 1.32177 -0.85831 0
M  V30 6179 C 570.315 1.97125 -0.463484 0
M  V30 6180 C 570.643 1.67907 0.981705 0
M  V30 6181 O 569.898 0.961717 1.70439 0
M  V30 6182 C 570.197 3.51372 -0.653658 0
M  V30 6183 C 569.863 4.00584 -2.06987 0
M  V30 6184 C 568.525 4.13733 -2.4572 0
M  V30 6185 C 570.877 4.26624 -2.99402 0
M  V30 6186 C 568.205 4.50268 -3.76132 0
M  V30 6187 C 570.557 4.64618 -4.29316 0
M  V30 6188 C 569.221 4.75975 -4.67979 0
M  V30 6189 H 568.491 0.72133 -0.169601 0
M  V30 6190 H 571.138 1.57517 -1.08907 0
M  V30 6191 H 569.443 3.91761 0.0551328 0
M  V30 6192 H 571.14 3.99655 -0.328163 0
M  V30 6193 H 567.73 3.90837 -1.75911 0
M  V30 6194 H 571.914 4.1597 -2.70708 0
M  V30 6195 H 567.17 4.57256 -4.05865 0
M  V30 6196 H 571.344 4.83722 -5.00985 0
M  V30 6197 H 568.971 5.04041 -5.69076 0
M  V30 6198 N 570.547 0.616602 1.45037 0
M  V30 6199 C 571.795 0.115103 2.01772 0
M  V30 6200 C 572.116 -1.2622 1.48639 0
M  V30 6201 O 571.386 -1.83563 0.684199 0
M  V30 6202 H 569.966 0.0395607 0.745952 0
M  V30 6203 H 572.628 0.800032 1.77723 0
M  V30 6204 H 571.724 0.0717274 3.12018 0
M  V30 6205 N 572.025 -1.5352 0.356285 0
M  V30 6206 C 573.271 -2.01414 -0.236653 0
M  V30 6207 C 573.604 -1.24339 -1.49176 0
M  V30 6208 O 572.879 -0.334496 -1.91602 0
M  V30 6209 C 573.162 -3.56059 -0.537982 0
M  V30 6210 C 573.015 -4.43835 0.730112 0
M  V30 6211 C 574.334 -4.19127 -1.34239 0
M  V30 6212 H 571.453 -0.732135 -0.0845386 0
M  V30 6213 H 574.095 -1.83854 0.479341 0
M  V30 6214 H 572.245 -3.71153 -1.14795 0
M  V30 6215 H 573.917 -4.40555 1.36782 0
M  V30 6216 H 572.16 -4.1218 1.3524 0
M  V30 6217 H 572.831 -5.49958 0.474358 0
M  V30 6218 H 575.307 -4.07809 -0.826498 0
M  V30 6219 H 574.183 -5.27378 -1.52198 0
M  V30 6220 H 574.444 -3.74581 -2.34822 0
M  V30 6221 N 573.503 -0.0852151 -1.57369 0
M  V30 6222 C 574.914 0.445428 -1.81309 0
M  V30 6223 C 575.265 1.68795 -1.00013 0
M  V30 6224 O 574.39 2.15211 -0.226573 0
M  V30 6225 C 574.985 0.814887 -3.28854 0
M  V30 6226 C 573.544 1.29032 -3.53592 0
M  V30 6227 C 572.691 0.282089 -2.75861 0
M  V30 6228 H 575.642 -0.310771 -1.55627 0
M  V30 6229 H 575.663 1.67524 -3.41637 0
M  V30 6230 H 575.175 -0.0896309 -3.87996 0
M  V30 6231 H 573.276 2.21289 -2.9977 0
M  V30 6232 H 573.389 1.25898 -4.62262 0
M  V30 6233 H 571.753 0.762182 -2.43029 0
M  V30 6234 H 572.536 -0.614936 -3.37748 0
M  V30 6235 N 574.981 1.5647 0.188427 0
M  V30 6236 C 575.911 1.98101 1.23606 0
M  V30 6237 C 576.892 0.853961 1.47111 0
M  V30 6238 O 578.077 1.11879 1.58735 0
M  V30 6239 C 575.207 2.32624 2.57882 0
M  V30 6240 C 574.161 3.48129 2.48978 0
M  V30 6241 C 573.487 3.68347 3.87588 0
M  V30 6242 C 574.787 4.82112 2.00911 0
M  V30 6243 H 576.481 2.85864 0.890068 0
M  V30 6244 H 574.027 1.37532 0.426714 0
M  V30 6245 H 575.98 2.60343 3.3136 0
M  V30 6246 H 574.704 1.41751 2.94235 0
M  V30 6247 H 573.363 3.20511 1.77956 0
M  V30 6248 H 573.011 2.74793 4.21305 0
M  V30 6249 H 572.711 4.46055 3.82503 0
M  V30 6250 H 574.235 3.98449 4.62678 0
M  V30 6251 H 575.649 5.08819 2.64151 0
M  V30 6252 H 574.046 5.63337 2.06814 0
M  V30 6253 H 575.116 4.75249 0.96262 0
M  V30 6254 N 576.459 -0.456382 1.50847 0
M  V30 6255 C 577.705 -1.20914 1.62811 0
M  V30 6256 C 578.038 -1.91301 0.334304 0
M  V30 6257 O 577.313 -1.82775 -0.665098 0
M  V30 6258 C 577.596 -2.24122 2.81853 0
M  V30 6259 C 577.449 -1.57944 4.21158 0
M  V30 6260 C 578.768 -3.25295 2.96431 0
M  V30 6261 H 575.887 -0.438233 0.592554 0
M  V30 6262 H 578.529 -0.50091 1.83278 0
M  V30 6263 H 576.679 -2.84524 2.64534 0
M  V30 6264 H 578.351 -1.01025 4.50102 0
M  V30 6265 H 576.594 -0.882185 4.24735 0
M  V30 6266 H 577.265 -2.33014 5.00408 0
M  V30 6267 H 579.741 -2.7493 3.12335 0
M  V30 6268 H 578.617 -3.94822 3.81322 0
M  V30 6269 H 578.878 -3.90286 2.07676 0
M  V30 6270 N 577.937 -1.40673 -0.710563 0
M  V30 6271 C 579.353 -1.22813 -1.01928 0
M  V30 6272 C 579.553 -0.10687 -2.01216 0
M  V30 6273 O 578.609 0.533614 -2.46797 0
M  V30 6274 C 579.922 -2.57178 -1.5582 0
M  V30 6275 C 581.47 -2.64233 -1.67779 0
M  V30 6276 C 581.945 -3.98879 -2.25076 0
M  V30 6277 N 583.436 -4.00647 -2.32456 0
M  V30 6278 C 584.171 -5.01621 -2.77784 0
M  V30 6279 N 583.667 -6.12989 -3.22826 0
M  V30 6280 N 585.46 -4.88988 -2.77213 0
M  V30 6281 H 577.611 -2.12335 -0.05253 0
M  V30 6282 H 579.874 -0.9441 -0.085898 0
M  V30 6283 H 579.58 -3.39903 -0.903249 0
M  V30 6284 H 579.454 -2.78618 -2.54267 0
M  V30 6285 H 581.841 -1.81876 -2.3239 0
M  V30 6286 H 581.922 -2.46619 -0.679178 0
M  V30 6287 H 581.566 -4.81678 -1.61086 0
M  V30 6288 H 581.496 -4.13826 -3.25661 0
M  V30 6289 H 583.987 -3.20231 -2.0065 0
M  V30 6290 H 584.3 -6.85921 -3.55995 0
M  V30 6291 H 582.645 -6.16547 -3.20773 0
M  V30 6292 H 585.836 -4.01075 -2.41363 0
M  V30 6293 H 586.009 -5.67822 -3.12221 0
M  V30 6294 N 579.415 0.9433 -1.26252 0
M  V30 6295 C 580.664 1.68369 -1.11062 0
M  V30 6296 C 580.977 1.92514 0.346104 0
M  V30 6297 O 582.183 2.64358 0.618646 0
M  V30 6298 C 580.639 3.03171 -1.93946 0
M  V30 6299 C 580.247 2.86782 -3.4418 0
M  V30 6300 C 581.991 3.80916 -1.87359 0
M  V30 6301 C 579.898 4.17044 -4.19319 0
M  V30 6302 H 578.828 0.631469 -0.412023 0
M  V30 6303 H 581.479 1.04922 -1.50544 0
M  V30 6304 H 579.861 3.67587 -1.47296 0
M  V30 6305 H 581.035 2.31229 -3.98585 0
M  V30 6306 H 579.35 2.22482 -3.51981 0
M  V30 6307 H 581.947 4.77417 -2.40784 0
M  V30 6308 H 582.29 4.07658 -0.843857 0
M  V30 6309 H 582.823 3.2327 -2.31821 0
M  V30 6310 H 579.562 3.95487 -5.22753 0
M  V30 6311 H 579.082 4.72319 -3.69696 0
M  V30 6312 H 580.761 4.85513 -4.27651 0
M  V30 6313 N 580.893 1.08022 1.14757 0
M  V30 6314 C 582.17 0.720386 1.81851 0
M  V30 6315 C 582.55 -0.796375 1.95502 0
M  V30 6316 O 581.898 -1.71339 1.51179 0
M  V30 6317 C 582.108 1.44273 3.17783 0
M  V30 6318 C 583.456 1.59925 3.93331 0
M  V30 6319 O 584.48 1.40407 3.2736 0
M  V30 6320 O 583.339 1.92096 5.11626 0
M  V30 6321 H 580.433 0.257142 0.786007 0
M  V30 6322 H 582.979 1.18155 1.21809 0
M  V30 6323 H 581.751 2.47618 3.02987 0
M  V30 6324 H 581.374 0.97279 3.85516 0
M  V30 6325 N 582.371 -1.3172 0.865308 0
M  V30 6326 C 583.62 -1.96145 0.470098 0
M  V30 6327 C 583.933 -1.69182 -0.981674 0
M  V30 6328 O 585.139 -2.27431 -1.48281 0
M  V30 6329 C 583.595 -3.51129 0.789732 0
M  V30 6330 C 583.203 -3.86938 2.25795 0
M  V30 6331 C 584.947 -4.2197 0.462765 0
M  V30 6332 C 582.854 -5.35012 2.52024 0
M  V30 6333 H 581.784 -0.734105 0.172065 0
M  V30 6334 H 584.435 -1.49959 1.05757 0
M  V30 6335 H 582.817 -3.95781 0.131571 0
M  V30 6336 H 583.991 -3.5326 2.95879 0
M  V30 6337 H 582.306 -3.29149 2.55049 0
M  V30 6338 H 584.903 -5.30904 0.636019 0
M  V30 6339 H 585.246 -4.12005 -0.59645 0
M  V30 6340 H 585.779 -3.82936 1.07727 0
M  V30 6341 H 582.518 -5.50008 3.56611 0
M  V30 6342 H 582.038 -5.70058 1.8653 0
M  V30 6343 H 583.717 -6.0222 2.36515 0
M  V30 6344 N 583.85 -0.624285 -1.44708 0
M  V30 6345 C 585.266 -0.289322 -1.56956 0
M  V30 6346 C 585.466 1.20773 -1.61295 0
M  V30 6347 O 584.522 1.9915 -1.55227 0
M  V30 6348 C 585.835 -0.975215 -2.84447 0
M  V30 6349 C 587.383 -0.952709 -2.98148 0
M  V30 6350 C 587.858 -1.61893 -4.28433 0
M  V30 6351 N 589.349 -1.5852 -4.35231 0
M  V30 6352 C 590.084 -2.06969 -5.34744 0
M  V30 6353 N 589.58 -2.63579 -6.40701 0
M  V30 6354 N 591.373 -1.97638 -5.26209 0
M  V30 6355 H 583.524 -1.59612 -1.40135 0
M  V30 6356 H 585.787 -0.669592 -0.671081 0
M  V30 6357 H 585.493 -2.02999 -2.87201 0
M  V30 6358 H 585.367 -0.508749 -3.73753 0
M  V30 6359 H 587.754 0.093568 -2.94952 0
M  V30 6360 H 587.835 -1.4576 -2.10209 0
M  V30 6361 H 587.479 -2.66463 -4.32389 0
M  V30 6362 H 587.409 -1.08893 -5.15218 0
M  V30 6363 H 589.899 -1.17183 -3.59272 0
M  V30 6364 H 590.213 -2.98298 -7.12908 0
M  V30 6365 H 588.558 -2.67626 -6.41406 0
M  V30 6366 H 591.749 -1.5314 -4.42341 0
M  V30 6367 H 591.922 -2.35708 -6.03611 0
M  V30 6368 N 585.328 1.53329 -0.364422 0
M  V30 6369 C 586.26 2.23286 0.517293 0
M  V30 6370 C 587.273 1.24657 1.04711 0
M  V30 6371 O 588.462 1.50887 0.95369 0
M  V30 6372 C 585.562 2.91604 1.72685 0
M  V30 6373 C 584.735 4.1673 1.32873 0
M  V30 6374 C 583.794 4.68269 2.40022 0
M  V30 6375 O 582.82 5.31976 2.02461 0
M  V30 6376 N 584.022 4.45983 3.7159 0
M  V30 6377 H 586.787 2.99588 -0.0819391 0
M  V30 6378 H 584.348 1.60787 -0.189544 0
M  V30 6379 H 586.34 3.22992 2.4384 0
M  V30 6380 H 584.91 2.18763 2.23297 0
M  V30 6381 H 584.13 3.91657 0.447069 0
M  V30 6382 H 585.418 4.98078 1.03902 0
M  V30 6383 H 584.816 3.95077 4.04883 0
M  V30 6384 H 583.373 4.81924 4.38854 0
M  V30 6385 N 586.806 0.0935595 1.57322 0
M  V30 6386 C 587.716 -0.880192 2.17462 0
M  V30 6387 C 588.732 -1.31135 1.14366 0
M  V30 6388 O 589.908 -1.37958 1.46729 0
M  V30 6389 C 586.973 -2.12184 2.74188 0
M  V30 6390 C 586.034 -1.74503 3.92234 0
M  V30 6391 C 585.267 -2.92748 4.46245 0
M  V30 6392 O 585.49 -4.07427 3.99198 0
M  V30 6393 O 584.424 -2.71303 5.37288 0
M  V30 6394 H 588.25 -0.398516 3.01074 0
M  V30 6395 H 585.835 -0.130707 1.48827 0
M  V30 6396 H 587.717 -2.84953 3.10451 0
M  V30 6397 H 586.392 -2.59407 1.93623 0
M  V30 6398 H 585.299 -0.989186 3.60785 0
M  V30 6399 H 586.632 -1.32044 4.74157 0
M  V30 6400 N 588.284 -1.56567 -0.180126 0
M  V30 6401 C 589.509 -1.85975 -0.918041 0
M  V30 6402 C 589.934 -0.678888 -1.75422 0
M  V30 6403 O 589.292 0.372168 -1.77439 0
M  V30 6404 C 589.34 -3.13731 -1.77779 0
M  V30 6405 O 588.444 -2.95335 -2.87838 0
M  V30 6406 H 587.785 -0.61196 -0.257683 0
M  V30 6407 H 590.315 -2.03798 -0.180923 0
M  V30 6408 H 590.325 -3.4491 -2.17948 0
M  V30 6409 H 589 -3.99293 -1.16352 0
M  V30 6410 H 587.577 -2.7549 -2.51316 0
M  V30 6411 N 589.762 0.448376 -1.51087 0
M  V30 6412 C 590.99 1.22143 -1.66999 0
M  V30 6413 C 591.405 1.85283 -0.362699 0
M  V30 6414 O 590.762 1.70236 0.65772 0
M  V30 6415 C 590.813 2.31357 -2.7777 0
M  V30 6416 O 590.534 1.70801 -4.03434 0
M  V30 6417 C 592.035 3.21836 -3.04855 0
M  V30 6418 H 589.255 0.368558 -0.560719 0
M  V30 6419 H 591.799 0.532618 -1.97442 0
M  V30 6420 H 589.954 2.95973 -2.49958 0
M  V30 6421 H 590.368 2.42895 -4.64868 0
M  V30 6422 H 591.842 3.94627 -3.85971 0
M  V30 6423 H 592.319 3.81949 -2.16821 0
M  V30 6424 H 592.925 2.62933 -3.34285 0
M  V30 6425 N 591.24 1.41047 0.703093 0
M  V30 6426 C 592.656 1.23351 1.01275 0
M  V30 6427 C 592.856 0.11754 2.01157 0
M  V30 6428 O 591.912 -0.520518 2.47077 0
M  V30 6429 C 593.225 2.58001 1.54454 0
M  V30 6430 C 594.773 2.65119 1.66376 0
M  V30 6431 C 595.248 4.00067 2.22958 0
M  V30 6432 N 596.739 4.01875 2.30328 0
M  V30 6433 C 597.474 5.03087 2.75119 0
M  V30 6434 N 596.97 6.14692 3.19571 0
M  V30 6435 N 598.763 4.90451 2.74616 0
M  V30 6436 H 590.914 2.1236 0.0412686 0
M  V30 6437 H 593.177 0.944543 0.08089 0
M  V30 6438 H 592.883 3.40378 0.88521 0
M  V30 6439 H 592.757 2.79962 2.52786 0
M  V30 6440 H 595.144 1.83106 2.31422 0
M  V30 6441 H 595.225 2.46975 0.666089 0
M  V30 6442 H 594.869 4.82526 1.58529 0
M  V30 6443 H 594.799 4.15547 3.23462 0
M  V30 6444 H 597.29 3.21291 1.98949 0
M  V30 6445 H 597.603 6.87799 3.52352 0
M  V30 6446 H 595.948 6.18239 3.17498 0
M  V30 6447 H 599.139 4.0235 2.39233 0
M  V30 6448 H 599.312 5.6947 3.09206 0
M  V30 6449 N 592.718 -0.936591 1.26751 0
M  V30 6450 C 593.668 -2.0219 1.05371 0
M  V30 6451 C 594.652 -1.60893 -0.0154112 0
M  V30 6452 O 595.844 -1.75843 0.202085 0
M  V30 6453 C 592.973 -3.36222 0.693541 0
M  V30 6454 C 592.059 -3.8399 1.80035 0
M  V30 6455 N 592.45 -4.0436 3.03852 0
M  V30 6456 C 590.748 -4.12945 1.685 0
M  V30 6457 C 591.449 -4.44 3.75818 0
M  V30 6458 N 590.425 -4.50966 3.03531 0
M  V30 6459 H 594.227 -2.15958 1.99347 0
M  V30 6460 H 591.741 -1.12277 1.17335 0
M  V30 6461 H 593.738 -4.13625 0.521513 0
M  V30 6462 H 592.398 -3.23821 -0.238693 0
M  V30 6463 H 593.409 -3.9092 3.39709 0
M  V30 6464 H 590.086 -4.09308 0.822986 0
M  V30 6465 H 591.476 -4.67914 4.82189 0
M  V30 6466 N 594.196 -1.08629 -1.14182 0
M  V30 6467 C 595.424 -0.838889 -1.8913 0
M  V30 6468 C 595.839 0.609153 -1.78703 0
M  V30 6469 O 595.196 1.41876 -1.14794 0
M  V30 6470 C 595.247 -1.25477 -3.39025 0
M  V30 6471 O 594.968 -2.64601 -3.49167 0
M  V30 6472 C 596.469 -1.03856 -4.30963 0
M  V30 6473 H 593.689 -0.302377 -0.599007 0
M  V30 6474 H 596.233 -1.44615 -1.44592 0
M  V30 6475 H 594.388 -0.691571 -3.81177 0
M  V30 6476 H 594.802 -2.81922 -4.42289 0
M  V30 6477 H 596.276 -1.37892 -5.345 0
M  V30 6478 H 596.753 0.0242522 -4.39193 0
M  V30 6479 H 597.359 -1.58731 -3.94569 0
M  V30 6480 N 595.674 1.31259 -0.872281 0
M  V30 6481 C 596.584 2.32221 -0.333255 0
M  V30 6482 C 597.6 1.6481 0.558013 0
M  V30 6483 O 598.776 1.96212 0.454175 0
M  V30 6484 C 595.841 3.43708 0.454479 0
M  V30 6485 C 594.902 4.26774 -0.465024 0
M  V30 6486 C 594.135 5.32937 0.28521 0
M  V30 6487 O 594.358 5.49968 1.513 0
M  V30 6488 O 593.292 6.00834 -0.358126 0
M  V30 6489 H 597.118 2.80252 -1.17016 0
M  V30 6490 H 594.703 1.352 -0.635724 0
M  V30 6491 H 596.585 4.11656 0.900963 0
M  V30 6492 H 595.26 2.97836 1.26789 0
M  V30 6493 H 594.167 3.61571 -0.960055 0
M  V30 6494 H 595.5 4.76217 -1.2441 0
M  V30 6495 N 597.152 0.631951 1.44375 0
M  V30 6496 C 598.115 -0.0628142 2.29114 0
M  V30 6497 C 599.115 -0.771494 1.41084 0
M  V30 6498 O 600.305 -0.615959 1.62947 0
M  V30 6499 C 597.437 -1.09953 3.22681 0
M  V30 6500 H 598.63 0.682509 2.92031 0
M  V30 6501 H 596.183 0.392128 1.51301 0
M  V30 6502 H 596.918 -1.87481 2.64616 0
M  V30 6503 H 596.703 -0.595286 3.87555 0
M  V30 6504 H 598.193 -1.58538 3.86336 0
M  V30 6505 N 598.631 -1.53133 0.372548 0
M  V30 6506 C 599.561 -2.28876 -0.462412 0
M  V30 6507 C 600.542 -1.31583 -1.07796 0
M  V30 6508 O 601.727 -1.60461 -1.09389 0
M  V30 6509 C 598.857 -3.08317 -1.59868 0
M  V30 6510 C 597.811 -4.13355 -1.11003 0
M  V30 6511 C 597.137 -4.8092 -2.33708 0
M  V30 6512 C 598.437 -5.21955 -0.18983 0
M  V30 6513 H 600.131 -2.9892 0.169511 0
M  V30 6514 H 597.677 -1.43761 0.0829658 0
M  V30 6515 H 599.63 -3.60055 -2.18949 0
M  V30 6516 H 598.354 -2.35976 -2.25794 0
M  V30 6517 H 597.013 -3.62573 -0.541869 0
M  V30 6518 H 596.661 -4.05144 -2.98106 0
M  V30 6519 H 596.361 -5.51904 -2.01682 0
M  V30 6520 H 597.885 -5.35455 -2.93462 0
M  V30 6521 H 599.299 -5.69153 -0.688319 0
M  V30 6522 H 597.696 -6.00087 0.0398887 0
M  V30 6523 H 598.766 -4.78811 0.766057 0
M  V30 6524 N 600.109 -0.101901 -1.5727 0
M  V30 6525 C 601.357 0.559091 -1.94213 0
M  V30 6526 C 601.678 1.68297 -0.984948 0
M  V30 6527 O 600.948 1.95863 -0.0381975 0
M  V30 6528 H 599.528 0.20952 -0.717015 0
M  V30 6529 H 602.19 -0.166831 -1.94185 0
M  V30 6530 H 601.286 0.96485 -2.96811 0
M  V30 6531 N 601.587 1.56661 0.17182 0
M  V30 6532 C 602.497 1.99604 1.2327 0
M  V30 6533 C 603.513 0.907333 1.4847 0
M  V30 6534 O 604.689 1.21492 1.60629 0
M  V30 6535 C 601.754 2.34685 2.55194 0
M  V30 6536 C 600.815 3.57381 2.3786 0
M  V30 6537 C 600.048 3.90779 3.63494 0
M  V30 6538 O 600.271 3.25152 4.6865 0
M  V30 6539 O 599.205 4.84129 3.57634 0
M  V30 6540 H 603.031 2.90114 0.898192 0
M  V30 6541 H 600.616 1.44522 0.378647 0
M  V30 6542 H 602.498 2.5822 3.33017 0
M  V30 6543 H 601.173 1.47336 2.88225 0
M  V30 6544 H 600.08 3.39064 1.5807 0
M  V30 6545 H 601.413 4.45268 2.09754 0
M  V30 6546 N 603.065 -0.440357 1.51323 0
M  V30 6547 C 603.995 -1.54174 1.75364 0
M  V30 6548 C 604.976 -1.59039 0.603375 0
M  V30 6549 O 606.161 -1.74815 0.845774 0
M  V30 6550 C 603.291 -2.92277 1.87593 0
M  V30 6551 C 602.245 -3.02274 3.03009 0
M  V30 6552 C 601.571 -4.42327 3.00418 0
M  V30 6553 C 602.871 -2.76634 4.43024 0
M  V30 6554 H 604.565 -1.34307 2.67585 0
M  V30 6555 H 602.111 -0.644678 1.28763 0
M  V30 6556 H 604.064 -3.69284 2.02995 0
M  V30 6557 H 602.788 -3.13369 0.920179 0
M  V30 6558 H 601.447 -2.27706 2.87307 0
M  V30 6559 H 601.095 -4.60382 2.02626 0
M  V30 6560 H 600.795 -4.49946 3.77918 0
M  V30 6561 H 602.319 -5.21312 3.17909 0
M  V30 6562 H 603.733 -3.43376 4.59093 0
M  V30 6563 H 602.13 -2.95666 5.22208 0
M  V30 6564 H 603.2 -1.72262 4.5327 0
M  V30 6565 N 604.543 -1.41418 -0.695603 0
M  V30 6566 C 605.771 -1.4413 -1.48439 0
M  V30 6567 C 606.186 -0.0465698 -1.88743 0
M  V30 6568 O 605.543 0.934117 -1.56782 0
M  V30 6569 C 605.594 -2.34998 -2.74696 0
M  V30 6570 O 605.315 -3.69043 -2.36091 0
M  V30 6571 C 606.816 -2.46513 -3.68438 0
M  V30 6572 H 604.036 -0.490905 -0.457442 0
M  V30 6573 H 606.58 -1.85702 -0.856454 0
M  V30 6574 H 604.735 -1.96735 -3.33728 0
M  V30 6575 H 605.149 -4.17505 -3.17474 0
M  V30 6576 H 606.623 -3.1426 -4.53811 0
M  V30 6577 H 607.1 -1.49638 -4.12922 0
M  V30 6578 H 607.706 -2.85412 -3.1531 0
M  V30 6579 N 606.021 0.929856 -1.27246 0
M  V30 6580 C 607.437 1.20542 -1.04603 0
M  V30 6581 C 607.637 2.00276 0.221754 0
M  V30 6582 O 606.693 2.34835 0.927833 0
M  V30 6583 C 608.006 1.95566 -2.28417 0
M  V30 6584 C 609.554 2.08513 -2.33433 0
M  V30 6585 C 610.029 2.86943 -3.5697 0
M  V30 6586 N 611.52 2.94512 -3.57515 0
M  V30 6587 C 612.255 3.55656 -4.49774 0
M  V30 6588 N 611.751 4.18209 -5.52334 0
M  V30 6589 N 613.544 3.53038 -4.37402 0
M  V30 6590 H 605.695 0.397113 -2.08655 0
M  V30 6591 H 607.958 0.238277 -0.917566 0
M  V30 6592 H 607.664 1.44395 -3.20691 0
M  V30 6593 H 607.538 2.9619 -2.33563 0
M  V30 6594 H 609.925 2.58872 -1.41666 0
M  V30 6595 H 610.006 1.07117 -2.32292 0
M  V30 6596 H 609.65 2.37268 -4.49072 0
M  V30 6597 H 609.58 3.8862 -3.55362 0
M  V30 6598 H 612.071 2.50053 -2.83341 0
M  V30 6599 H 612.384 4.62796 -6.18902 0
M  V30 6600 H 610.729 4.16761 -5.56179 0
M  V30 6601 H 613.92 3.0337 -3.56489 0
M  V30 6602 H 614.093 4.004 -5.09493 0
M  V30 6603 N 607.499 1.09233 1.13605 0
M  V30 6604 C 608.729 0.847677 1.88409 0
M  V30 6605 C 609.137 -0.604524 1.79282 0
M  V30 6606 O 608.48 -1.42773 1.15592 0
M  V30 6607 C 608.542 1.20153 3.38827 0
M  V30 6608 C 608.206 2.65824 3.71735 0
M  V30 6609 C 609.203 3.64072 3.71143 0
M  V30 6610 C 606.888 3.01894 4.01454 0
M  V30 6611 C 608.882 4.96419 3.99808 0
M  V30 6612 C 606.569 4.34433 4.29781 0
M  V30 6613 C 607.567 5.31505 4.28942 0
M  V30 6614 O 607.255 6.61659 4.56576 0
M  V30 6615 H 606.987 0.304813 0.603378 0
M  V30 6616 H 609.541 1.4573 1.44748 0
M  V30 6617 H 607.771 0.534946 3.82982 0
M  V30 6618 H 609.46 0.936349 3.94952 0
M  V30 6619 H 610.226 3.37549 3.4826 0
M  V30 6620 H 606.105 2.26971 4.01255 0
M  V30 6621 H 609.649 5.7218 3.99069 0
M  V30 6622 H 605.546 4.607 4.52135 0
M  V30 6623 H 606.314 6.67102 4.74254 0
M  V30 6624 N 608.977 -1.30795 0.87923 0
M  V30 6625 C 609.907 -2.30742 0.357796 0
M  V30 6626 C 610.888 -1.60747 -0.556283 0
M  V30 6627 O 612.073 -1.88393 -0.47135 0
M  V30 6628 C 609.203 -3.44583 -0.433555 0
M  V30 6629 C 608.157 -4.26235 0.388251 0
M  V30 6630 C 607.483 -5.32073 -0.529352 0
M  V30 6631 C 608.783 -4.96303 1.62729 0
M  V30 6632 H 610.477 -2.74605 1.19299 0
M  V30 6633 H 608.023 -1.32017 0.575104 0
M  V30 6634 H 609.976 -4.13563 -0.808934 0
M  V30 6635 H 608.7 -2.99511 -1.30234 0
M  V30 6636 H 607.359 -3.58936 0.745695 0
M  V30 6637 H 607.007 -4.83249 -1.39569 0
M  V30 6638 H 606.707 -5.87598 0.0166741 0
M  V30 6639 H 608.231 -6.0391 -0.901373 0
M  V30 6640 H 609.645 -5.5783 1.32283 0
M  V30 6641 H 608.042 -5.61666 2.11309 0
M  V30 6642 H 609.112 -4.22758 2.37494 0
M  V30 6643 N 610.455 -0.639598 -1.44038 0
M  V30 6644 C 611.703 -0.147188 -2.01563 0
M  V30 6645 C 612.024 1.2384 -1.50628 0
M  V30 6646 O 611.294 1.82452 -0.713316 0
M  V30 6647 H 609.874 -0.0514231 -0.745228 0
M  V30 6648 H 612.536 -0.828205 -1.76428 0
M  V30 6649 H 611.632 -0.121358 -3.11864 0
M  V30 6650 N 611.933 1.52934 -0.380664 0
M  V30 6651 C 613.182 2.00651 0.205477 0
M  V30 6652 C 613.495 1.27164 1.48623 0
M  V30 6653 O 614.701 1.65547 2.15189 0
M  V30 6654 C 613.157 3.57479 0.416726 0
M  V30 6655 C 612.765 4.39857 -0.850268 0
M  V30 6656 C 614.509 4.13509 0.959702 0
M  V30 6657 C 612.416 5.88269 -0.607773 0
M  V30 6658 H 611.346 0.749684 0.0805614 0
M  V30 6659 H 613.997 1.76508 -0.501732 0
M  V30 6660 H 612.379 3.77836 1.18557 0
M  V30 6661 H 613.553 4.31269 -1.62307 0
M  V30 6662 H 611.868 3.95005 -1.31756 0
M  V30 6663 H 614.465 5.22039 1.15669 0
M  V30 6664 H 614.808 3.69054 1.92626 0
M  V30 6665 H 615.341 3.9701 0.250645 0
M  V30 6666 H 612.08 6.3703 -1.54509 0
M  V30 6667 H 611.6 5.99667 0.126247 0
M  V30 6668 H 613.279 6.46558 -0.239014 0
M  V30 6669 N 613.412 0.11024 1.57214 0
M  V30 6670 C 614.66 -0.548783 1.94506 0
M  V30 6671 C 614.981 -1.67772 0.99386 0
M  V30 6672 O 614.251 -1.9584 0.0485841 0
M  V30 6673 H 612.831 -0.205715 0.718116 0
M  V30 6674 H 615.493 0.177127 1.94093 0
M  V30 6675 H 614.589 -0.949096 2.97319 0
M  V30 6676 N 614.89 -1.56749 -0.16351 0
M  V30 6677 C 616.167 -1.73321 -0.906599 0
M  V30 6678 C 616.547 -0.673779 -2.00059 0
M  V30 6679 O 615.895 0.310121 -2.26386 0
M  V30 6680 C 616.105 -3.168 -1.46419 0
M  V30 6681 C 617.453 -3.77993 -1.93407 0
M  V30 6682 O 618.477 -3.20127 -1.56196 0
M  V30 6683 O 617.336 -4.79615 -2.61976 0
M  V30 6684 H 614.43 -0.708073 -0.427272 0
M  V30 6685 H 616.976 -1.69029 -0.150727 0
M  V30 6686 H 615.748 -3.85396 -0.677189 0
M  V30 6687 H 615.371 -3.2545 -2.28403 0
M  V30 6688 N 616.368 0.432326 -1.51554 0
M  V30 6689 C 617.598 1.2019 -1.68042 0
M  V30 6690 C 618.006 1.85356 -0.379434 0
M  V30 6691 O 617.349 1.71724 0.652427 0
M  V30 6692 C 617.411 2.32387 -2.74292 0
M  V30 6693 C 617.075 1.87548 -4.16743 0
M  V30 6694 C 618.072 1.37611 -5.01357 0
M  V30 6695 C 615.757 1.95087 -4.62868 0
M  V30 6696 C 617.751 0.958069 -6.30159 0
M  V30 6697 C 615.438 1.52894 -5.91664 0
M  V30 6698 C 616.436 1.03336 -6.75137 0
M  V30 6699 O 616.124 0.617435 -8.01525 0
M  V30 6700 H 615.856 0.368132 -0.56697 0
M  V30 6701 H 618.41 0.517875 -1.98764 0
M  V30 6702 H 616.64 3.04082 -2.38895 0
M  V30 6703 H 618.329 2.94235 -2.79608 0
M  V30 6704 H 619.095 1.31178 -4.66923 0
M  V30 6705 H 614.974 2.32606 -3.98015 0
M  V30 6706 H 618.518 0.570562 -6.95263 0
M  V30 6707 H 614.415 1.58999 -6.25611 0
M  V30 6708 H 615.183 0.742835 -8.15122 0
M  V30 6709 N 617.846 1.41785 0.688094 0
M  V30 6710 C 618.756 1.46596 1.83158 0
M  V30 6711 C 619.772 0.355862 1.70322 0
M  V30 6712 O 620.948 0.604737 1.92106 0
M  V30 6713 C 618.013 1.35322 3.192 0
M  V30 6714 C 617.074 2.56711 3.4409 0
M  V30 6715 C 616.307 2.45965 4.73642 0
M  V30 6716 O 616.53 1.48827 5.50642 0
M  V30 6717 O 615.464 3.35859 4.99482 0
M  V30 6718 H 619.29 2.43083 1.82056 0
M  V30 6719 H 616.875 1.23404 0.842126 0
M  V30 6720 H 618.757 1.31347 4.00407 0
M  V30 6721 H 617.432 0.419536 3.2097 0
M  V30 6722 H 616.339 2.66262 2.62784 0
M  V30 6723 H 617.672 3.48933 3.47141 0
M  V30 6724 N 619.324 -0.923095 1.27737 0
M  V30 6725 C 620.549 -1.71054 1.17283 0
M  V30 6726 C 620.974 -1.86208 -0.266153 0
M  V30 6727 O 620.332 -1.36545 -1.1927 0
M  V30 6728 C 620.38 -3.0854 1.86642 0
M  V30 6729 O 619.484 -3.95528 1.16752 0
M  V30 6730 H 618.825 -0.524136 0.407649 0
M  V30 6731 H 621.355 -1.15487 1.6889 0
M  V30 6732 H 621.365 -3.58828 1.94182 0
M  V30 6733 H 620.04 -2.96828 2.91317 0
M  V30 6734 H 618.617 -3.53967 1.17312 0
M  V30 6735 N 620.802 -1.09834 -1.13024 0
M  V30 6736 C 622.048 -0.848072 -1.84876 0
M  V30 6737 C 622.403 0.619663 -1.82148 0
M  V30 6738 O 621.696 1.45067 -1.25164 0
M  V30 6739 C 621.89 -1.32263 -3.32026 0
M  V30 6740 C 621.719 -2.83497 -3.49084 0
M  V30 6741 C 620.489 -3.51425 -3.63082 0
M  V30 6742 C 622.687 -3.81623 -3.44773 0
M  V30 6743 N 620.669 -4.91042 -3.68443 0
M  V30 6744 C 622.04 -5.07217 -3.56555 0
M  V30 6745 C 624.095 -3.74419 -3.282 0
M  V30 6746 C 622.798 -6.26457 -3.53474 0
M  V30 6747 C 624.824 -4.93151 -3.26429 0
M  V30 6748 C 624.186 -6.1759 -3.38765 0
M  V30 6749 H 620.285 -0.363249 -0.692513 0
M  V30 6750 H 622.869 -1.39952 -1.35357 0
M  V30 6751 H 621.04 -0.79858 -3.80102 0
M  V30 6752 H 622.772 -1.01725 -3.91707 0
M  V30 6753 H 619.527 -3.0186 -3.64935 0
M  V30 6754 H 619.951 -5.63782 -3.74805 0
M  V30 6755 H 624.593 -2.79132 -3.17561 0
M  V30 6756 H 622.311 -7.22039 -3.62884 0
M  V30 6757 H 625.897 -4.8928 -3.14796 0
M  V30 6758 H 624.777 -7.07925 -3.37361 0
M  V30 6759 N 622.28 1.30327 -0.886154 0
M  V30 6760 C 623.505 2.0079 -0.519425 0
M  V30 6761 C 623.93 1.65979 0.885013 0
M  V30 6762 O 623.288 0.877043 1.58675 0
M  V30 6763 C 623.336 3.53686 -0.702758 0
M  V30 6764 O 622.44 4.11637 0.250828 0
M  V30 6765 H 621.781 0.63171 -0.204544 0
M  V30 6766 H 624.311 1.66145 -1.19402 0
M  V30 6767 H 624.321 4.03531 -0.602207 0
M  V30 6768 H 622.996 3.78361 -1.72673 0
M  V30 6769 H 621.573 3.72755 0.103873 0
M  V30 6770 N 623.758 0.647228 1.43697 0
M  V30 6771 C 624.668 -0.0487997 2.34549 0
M  V30 6772 C 625.684 -0.818586 1.53542 0
M  V30 6773 O 626.86 -0.767195 1.86215 0
M  V30 6774 C 623.925 -1.00734 3.31743 0
M  V30 6775 C 622.986 -0.23515 4.28655 0
M  V30 6776 C 622.219 -1.14803 5.21206 0
M  V30 6777 O 622.442 -2.38717 5.18045 0
M  V30 6778 O 621.376 -0.623667 5.9866 0
M  V30 6779 H 625.202 0.698863 2.9555 0
M  V30 6780 H 622.787 0.407412 1.43738 0
M  V30 6781 H 624.669 -1.55837 3.91526 0
M  V30 6782 H 623.344 -1.73534 2.73254 0
M  V30 6783 H 622.251 0.359319 3.7237 0
M  V30 6784 H 623.584 0.453152 4.9011 0
M  V30 6785 N 625.236 -1.5273 0.388769 0
M  V30 6786 C 626.199 -2.25043 -0.434544 0
M  V30 6787 C 627.199 -1.26661 -0.990644 0
M  V30 6788 O 628.389 -1.50762 -0.872731 0
M  V30 6789 C 625.521 -3.00507 -1.60961 0
M  V30 6790 H 626.714 -2.99242 0.198549 0
M  V30 6791 H 624.267 -1.55664 0.140875 0
M  V30 6792 H 625.002 -2.30607 -2.28015 0
M  V30 6793 H 624.787 -3.72716 -1.21757 0
M  V30 6794 H 626.277 -3.55413 -2.19251 0
M  V30 6795 N 626.714 -0.118576 -1.57153 0
M  V30 6796 C 627.991 0.583062 -1.86708 0
M  V30 6797 C 628.371 1.84841 -1.01967 0
M  V30 6798 O 627.719 2.28288 -0.0984673 0
M  V30 6799 C 627.929 0.875912 -3.3783 0
M  V30 6800 C 629.277 1.22916 -4.0642 0
M  V30 6801 O 630.301 0.966188 -3.42846 0
M  V30 6802 O 629.16 1.72269 -5.18638 0
M  V30 6803 H 626.254 0.294185 -0.772906 0
M  V30 6804 H 628.8 -0.153048 -1.69008 0
M  V30 6805 H 627.572 -0.0207776 -3.91294 0
M  V30 6806 H 627.195 1.66719 -3.60958 0
M  V30 6807 N 628.193 1.56834 0.155195 0
M  V30 6808 C 629.14 1.97646 1.19184 0
M  V30 6809 C 630.11 0.842788 1.4313 0
M  V30 6810 O 631.295 1.1042 1.55602 0
M  V30 6811 C 628.435 2.35527 2.52232 0
M  V30 6812 C 627.548 3.62147 2.35529 0
M  V30 6813 C 626.683 3.89167 3.61555 0
M  V30 6814 C 625.722 5.09084 3.39853 0
M  V30 6815 N 624.859 5.32156 4.5799 0
M  V30 6816 H 629.699 2.8601 0.836802 0
M  V30 6817 H 627.236 1.41507 0.401758 0
M  V30 6818 H 629.194 2.55516 3.29799 0
M  V30 6819 H 627.824 1.50253 2.85699 0
M  V30 6820 H 626.876 3.4998 1.49057 0
M  V30 6821 H 628.188 4.49871 2.15448 0
M  V30 6822 H 627.342 4.09611 4.47553 0
M  V30 6823 H 626.081 2.9985 3.84632 0
M  V30 6824 H 625.086 4.88522 2.52243 0
M  V30 6825 H 626.311 5.99947 3.18183 0
M  V30 6826 H 624.257 4.45791 4.81255 0
M  V30 6827 H 624.174 6.14133 4.40882 0
M  V30 6828 H 625.442 5.57091 5.45225 0
M  V30 6829 N 629.671 -0.424282 1.51781 0
M  V30 6830 C 630.603 -1.53457 1.70246 0
M  V30 6831 C 631.616 -1.52004 0.582967 0
M  V30 6832 O 632.805 -1.56544 0.857683 0
M  V30 6833 C 629.905 -2.92368 1.71389 0
M  V30 6834 C 629.078 -3.1818 3.00133 0
M  V30 6835 C 628.137 -4.36884 2.9329 0
M  V30 6836 O 627.163 -4.34901 3.67219 0
M  V30 6837 N 628.365 -5.4117 2.10036 0
M  V30 6838 H 631.13 -1.38017 2.66029 0
M  V30 6839 H 628.691 -0.613394 1.4983 0
M  V30 6840 H 630.683 -3.6982 1.64362 0
M  V30 6841 H 629.253 -3.0134 0.831449 0
M  V30 6842 H 628.473 -2.28908 3.20928 0
M  V30 6843 H 629.761 -3.32261 3.85331 0
M  V30 6844 H 629.159 -5.45623 1.49373 0
M  V30 6845 H 627.716 -6.17425 2.08878 0
M  V30 6846 N 631.149 -1.42148 -0.680565 0
M  V30 6847 C 632.112 -1.4488 -1.77602 0
M  V30 6848 C 633.112 -0.337209 -1.57224 0
M  V30 6849 O 634.302 -0.597778 -1.63622 0
M  V30 6850 C 631.434 -1.27483 -3.16166 0
M  V30 6851 H 632.627 -2.42412 -1.76568 0
M  V30 6852 H 630.18 -1.28511 -0.889645 0
M  V30 6853 H 630.915 -0.30851 -3.22829 0
M  V30 6854 H 630.7 -2.08037 -3.3236 0
M  V30 6855 H 632.19 -1.32265 -3.96101 0
M  V30 6856 N 632.627 0.916307 -1.28225 0
M  V30 6857 C 633.874 1.66518 -1.1523 0
M  V30 6858 C 634.202 1.92178 0.299632 0
M  V30 6859 O 633.457 1.51842 1.2346 0
M  V30 6860 C 633.756 3.03125 -1.8934 0
M  V30 6861 C 633.422 2.97135 -3.39148 0
M  V30 6862 C 632.084 2.95208 -3.80007 0
M  V30 6863 C 634.436 2.87574 -4.34685 0
M  V30 6864 C 631.764 2.81518 -5.14747 0
M  V30 6865 C 634.116 2.75424 -5.69495 0
M  V30 6866 C 632.78 2.71854 -6.09632 0
M  V30 6867 H 632.05 0.609334 -0.421655 0
M  V30 6868 H 634.697 1.06776 -1.58969 0
M  V30 6869 H 633.002 3.66639 -1.38143 0
M  V30 6870 H 634.699 3.59968 -1.76704 0
M  V30 6871 H 631.289 2.99428 -3.06661 0
M  V30 6872 H 635.473 2.88152 -4.04082 0
M  V30 6873 H 630.729 2.77148 -5.44976 0
M  V30 6874 H 634.903 2.66993 -6.43185 0
M  V30 6875 H 632.53 2.61003 -7.1399 0
M  V30 6876 N 634.105 1.10431 1.1244 0
M  V30 6877 C 635.035 0.775143 2.20258 0
M  V30 6878 C 636.016 -0.25186 1.68225 0
M  V30 6879 O 637.201 -0.117637 1.93843 0
M  V30 6880 C 634.331 0.206133 3.46688 0
M  V30 6881 C 633.285 1.16382 4.11873 0
M  V30 6882 C 632.611 0.456014 5.32752 0
M  V30 6883 C 633.911 2.5104 4.58013 0
M  V30 6884 H 635.605 1.67665 2.4805 0
M  V30 6885 H 633.151 0.807595 1.19222 0
M  V30 6886 H 635.104 -0.036291 4.21384 0
M  V30 6887 H 633.828 -0.730614 3.18323 0
M  V30 6888 H 632.487 1.39169 3.39157 0
M  V30 6889 H 632.135 -0.485203 5.00654 0
M  V30 6890 H 631.835 1.09466 5.77314 0
M  V30 6891 H 633.359 0.222135 6.10196 0
M  V30 6892 H 634.773 2.32401 5.24083 0
M  V30 6893 H 633.17 3.10789 5.13352 0
M  V30 6894 H 634.24 3.11039 3.71998 0
M  V30 6895 N 635.583 -1.29855 0.893053 0
M  V30 6896 C 636.832 -1.95104 0.511597 0
M  V30 6897 C 637.145 -1.71226 -0.945567 0
M  V30 6898 O 638.351 -2.30525 -1.43424 0
M  V30 6899 C 636.807 -3.49374 0.864034 0
M  V30 6900 C 636.415 -3.82061 2.33952 0
M  V30 6901 C 638.159 -4.20894 0.552167 0
M  V30 6902 C 636.066 -5.29546 2.63316 0
M  V30 6903 H 634.996 -0.73029 0.187597 0
M  V30 6904 H 637.647 -1.47682 1.08914 0
M  V30 6905 H 636.029 -3.95413 0.215493 0
M  V30 6906 H 637.203 -3.46904 3.03305 0
M  V30 6907 H 635.518 -3.23665 2.61973 0
M  V30 6908 H 638.115 -5.29435 0.748489 0
M  V30 6909 H 638.458 -4.13178 -0.508924 0
M  V30 6910 H 638.991 -3.80564 1.15825 0
M  V30 6911 H 635.73 -5.4232 3.68197 0
M  V30 6912 H 635.25 -5.65974 1.9858 0
M  V30 6913 H 636.929 -5.97068 2.49236 0
M  V30 6914 N 637.061 -0.65484 -1.43351 0
M  V30 6915 C 638.477 -0.32255 -1.56307 0
M  V30 6916 C 638.677 1.17324 -1.63821 0
M  V30 6917 O 637.733 1.95813 -1.59417 0
M  V30 6918 C 639.046 -1.03533 -2.82314 0
M  V30 6919 C 640.594 -1.01574 -2.9606 0
M  V30 6920 C 641.069 -1.70945 -4.24902 0
M  V30 6921 N 642.56 -1.67716 -4.3177 0
M  V30 6922 C 643.295 -2.18265 -5.30234 0
M  V30 6923 N 642.791 -2.7711 -6.34966 0
M  V30 6924 N 644.584 -2.08756 -5.21898 0
M  V30 6925 H 636.735 -1.62549 -1.36717 0
M  V30 6926 H 638.998 -0.683676 -0.656727 0
M  V30 6927 H 638.704 -2.09045 -2.8283 0
M  V30 6928 H 638.578 -0.587913 -3.7259 0
M  V30 6929 H 640.965 0.0309834 -2.95084 0
M  V30 6930 H 641.046 -1.50186 -2.07069 0
M  V30 6931 H 640.69 -2.75574 -4.26639 0
M  V30 6932 H 640.62 -1.19797 -5.12793 0
M  V30 6933 H 643.111 -1.24777 -3.56706 0
M  V30 6934 H 643.424 -3.13353 -7.06421 0
M  V30 6935 H 641.769 -2.81171 -6.35585 0
M  V30 6936 H 644.96 -1.62488 -4.38994 0
M  V30 6937 H 645.133 -2.48459 -5.98475 0
M  V30 6938 N 638.539 1.52521 -0.396863 0
M  V30 6939 C 639.449 2.30403 0.44178 0
M  V30 6940 C 640.465 1.37625 1.06468 0
M  V30 6941 O 641.641 1.70697 1.06886 0
M  V30 6942 C 638.706 3.1013 1.54986 0
M  V30 6943 C 637.767 4.18628 0.951279 0
M  V30 6944 C 637 4.94543 2.00655 0
M  V30 6945 O 637.223 4.70629 3.22281 0
M  V30 6946 O 636.157 5.797 1.61962 0
M  V30 6947 H 639.983 3.03087 -0.192892 0
M  V30 6948 H 637.568 1.48537 -0.16038 0
M  V30 6949 H 639.45 3.59816 2.19341 0
M  V30 6950 H 638.125 2.40251 2.16935 0
M  V30 6951 H 637.032 3.73119 0.270773 0
M  V30 6952 H 638.365 4.90763 0.375887 0
M  V30 6953 N 640.017 0.126909 1.57088 0
M  V30 6954 C 640.947 -0.816847 2.18746 0
M  V30 6955 C 641.928 -1.27161 1.12979 0
M  V30 6956 O 643.113 -1.33279 1.41246 0
M  V30 6957 C 640.243 -2.06398 2.79315 0
M  V30 6958 C 639.197 -1.74673 3.90735 0
M  V30 6959 C 638.523 -3.06482 4.38147 0
M  V30 6960 C 639.823 -1.0089 5.12463 0
M  V30 6961 H 641.517 -0.303032 2.97863 0
M  V30 6962 H 639.063 -0.144314 1.43275 0
M  V30 6963 H 641.016 -2.72885 3.2111 0
M  V30 6964 H 639.74 -2.60118 1.975 0
M  V30 6965 H 638.399 -1.10572 3.49527 0
M  V30 6966 H 638.047 -3.58152 3.5318 0
M  V30 6967 H 637.747 -2.86025 5.13287 0
M  V30 6968 H 639.271 -3.74073 4.82599 0
M  V30 6969 H 640.685 -1.57546 5.51228 0
M  V30 6970 H 639.082 -0.905006 5.93237 0
M  V30 6971 H 640.152 0.00297335 4.849 0
M  V30 6972 N 641.495 -1.56914 -0.146875 0
M  V30 6973 C 642.443 -1.99224 -1.20053 0
M  V30 6974 C 643.437 -0.884661 -1.44465 0
M  V30 6975 O 644.643 -1.06984 -1.44756 0
M  V30 6976 H 641.018 -0.634191 -0.404112 0
M  V30 6977 H 642.989 -2.86998 -0.816987 0
M  V30 6978 C 641.738 -2.38899 -2.52632 0
M  V30 6979 H 641.061 -3.23677 -2.34677 0
M  V30 6980 H 642.501 -2.72326 -3.24984 0
M  V30 6981 C 640.96 -1.2417 -3.13183 0
M  V30 6982 O 641.49 -0.542503 -3.9802 0
M  V30 6983 N 639.696 -1.00592 -2.72635 0
M  V30 6984 H 639.243 -1.57627 -2.03744 0
M  V30 6985 H 639.201 -0.240174 -3.13481 0
M  V30 6986 N 642.974 0.416227 -1.52004 0
M  V30 6987 C 644.199 1.19029 -1.69843 0
M  V30 6988 C 644.624 1.83708 -0.404103 0
M  V30 6989 O 643.982 1.69711 0.637787 0
M  V30 6990 C 644.03 2.23439 -2.83032 0
M  V30 6991 O 643.134 3.29419 -2.48106 0
M  V30 6992 H 642.475 0.347785 -0.565634 0
M  V30 6993 H 645.005 0.488871 -1.98674 0
M  V30 6994 H 645.015 2.67884 -3.07737 0
M  V30 6995 H 643.69 1.75745 -3.76944 0
M  V30 6996 H 642.267 2.90303 -2.34048 0
M  V30 6997 N 644.452 1.42507 0.673017 0
M  V30 6998 C 645.399 1.46124 1.78651 0
M  V30 6999 C 646.369 0.313007 1.63124 0
M  V30 7000 O 647.554 0.517337 1.83653 0
M  V30 7001 C 644.694 1.3711 3.16694 0
M  V30 7002 C 643.807 2.61983 3.43495 0
M  V30 7003 C 642.942 2.45098 4.71275 0
M  V30 7004 C 641.981 3.65336 4.91117 0
M  V30 7005 N 641.118 3.47383 6.10139 0
M  V30 7006 H 645.958 2.4128 1.74895 0
M  V30 7007 H 643.495 1.19788 0.853766 0
M  V30 7008 H 645.453 1.29881 3.96468 0
M  V30 7009 H 644.083 0.45549 3.1957 0
M  V30 7010 H 643.135 2.79571 2.57961 0
M  V30 7011 H 644.447 3.51355 3.5405 0
M  V30 7012 H 643.601 2.35466 5.59143 0
M  V30 7013 H 642.34 1.53219 4.63007 0
M  V30 7014 H 641.345 3.754 4.0169 0
M  V30 7015 H 642.57 4.58199 5.01229 0
M  V30 7016 H 640.516 2.58222 6.0304 0
M  V30 7017 H 640.433 4.30344 6.21563 0
M  V30 7018 H 641.701 3.41565 7.00681 0
M  V30 7019 N 645.93 -0.909495 1.28709 0
M  V30 7020 C 647.346 -1.18862 1.06508 0
M  V30 7021 C 647.546 -2.00604 -0.189864 0
M  V30 7022 O 646.602 -2.36281 -0.890355 0
M  V30 7023 C 647.915 -1.91908 2.31499 0
M  V30 7024 C 649.463 -2.04773 2.36721 0
M  V30 7025 C 649.938 -2.81228 3.6149 0
M  V30 7026 N 651.429 -2.88787 3.62155 0
M  V30 7027 C 652.164 -3.48455 4.55375 0
M  V30 7028 N 651.66 -4.09369 5.58918 0
M  V30 7029 N 653.453 -3.46035 4.42963 0
M  V30 7030 H 645.604 -0.363867 2.0926 0
M  V30 7031 H 647.867 -0.223649 0.921241 0
M  V30 7032 H 647.573 -1.39275 3.22948 0
M  V30 7033 H 647.447 -2.92436 2.38245 0
M  V30 7034 H 649.834 -2.56585 1.45767 0
M  V30 7035 H 649.915 -1.03408 2.33967 0
M  V30 7036 H 649.559 -2.30094 4.5279 0
M  V30 7037 H 649.489 -3.82917 3.61499 0
M  V30 7038 H 651.98 -2.45514 2.87283 0
M  V30 7039 H 652.293 -4.52891 6.26187 0
M  V30 7040 H 650.638 -4.0786 5.62739 0
M  V30 7041 H 653.829 -2.9766 3.6127 0
M  V30 7042 H 654.002 -3.92244 5.15799 0
M  V30 7043 N 647.408 -1.11026 -1.11852 0
M  V30 7044 C 648.819 -0.873203 -1.65021 0
M  V30 7045 C 649.17 0.595364 -1.86949 0
M  V30 7046 O 648.295 1.45645 -1.60051 0
M  V30 7047 C 648.89 -1.57859 -2.99777 0
M  V30 7048 C 647.449 -1.38807 -3.49871 0
M  V30 7049 C 646.596 -1.62403 -2.24768 0
M  V30 7050 H 649.547 -1.26712 -0.955503 0
M  V30 7051 H 649.568 -1.02111 -3.66543 0
M  V30 7052 H 649.08 -2.6474 -2.83786 0
M  V30 7053 H 647.181 -0.341163 -3.71035 0
M  V30 7054 H 647.294 -2.13421 -4.28938 0
M  V30 7055 H 645.658 -1.04714 -2.32179 0
M  V30 7056 H 646.441 -2.70549 -2.11324 0
M  V30 7057 N 648.886 1.2938 -0.899927 0
M  V30 7058 C 649.816 2.30144 -0.39446 0
M  V30 7059 C 650.797 1.61611 0.530639 0
M  V30 7060 O 651.982 1.89119 0.441319 0
M  V30 7061 C 649.112 3.45229 0.37868 0
M  V30 7062 C 648.066 4.25564 -0.456012 0
M  V30 7063 C 647.392 5.32848 0.444637 0
M  V30 7064 C 648.692 4.93651 -1.70605 0
M  V30 7065 H 650.386 2.72673 -1.23653 0
M  V30 7066 H 647.932 1.31086 -0.596034 0
M  V30 7067 H 649.885 4.14797 0.743037 0
M  V30 7068 H 648.609 3.01545 1.25453 0
M  V30 7069 H 647.268 3.57704 -0.802704 0
M  V30 7070 H 646.916 4.85408 1.31863 0
M  V30 7071 H 646.616 5.87497 -0.110154 0
M  V30 7072 H 648.14 6.05268 0.805182 0
M  V30 7073 H 649.554 5.55655 -1.41141 0
M  V30 7074 H 647.951 5.58233 -2.20217 0
M  V30 7075 H 649.021 4.18926 -2.4419 0
M  V30 7076 N 650.364 0.662433 1.43002 0
M  V30 7077 C 651.294 -0.00979809 2.33498 0
M  V30 7078 C 652.275 -0.802329 1.49989 0
M  V30 7079 O 653.46 -0.761964 1.78627 0
M  V30 7080 C 650.59 -0.970446 3.33466 0
M  V30 7081 C 649.544 -0.287383 4.27034 0
M  V30 7082 C 648.87 -1.36012 5.17112 0
M  V30 7083 C 650.17 0.82595 5.15728 0
M  V30 7084 H 651.864 0.745959 2.89958 0
M  V30 7085 H 649.41 0.360172 1.39423 0
M  V30 7086 H 651.363 -1.44971 3.95679 0
M  V30 7087 H 650.087 -1.75748 2.75282 0
M  V30 7088 H 648.746 0.17152 3.66199 0
M  V30 7089 H 648.394 -2.13882 4.55262 0
M  V30 7090 H 648.094 -0.908276 5.80538 0
M  V30 7091 H 649.618 -1.84056 5.82199 0
M  V30 7092 H 651.032 0.42845 5.71697 0
M  V30 7093 H 649.429 1.20282 5.87922 0
M  V30 7094 H 650.499 1.68003 4.54866 0
M  V30 7095 N 651.842 -1.52309 0.404946 0
M  V30 7096 C 653.253 -1.86585 -0.0655926 0
M  V30 7097 C 653.604 -1.3239 -1.44801 0
M  V30 7098 O 652.729 -0.6615 -2.06042 0
M  V30 7099 C 653.324 -3.38566 -0.125801 0
M  V30 7100 C 651.883 -3.72497 -0.540666 0
M  V30 7101 C 651.03 -2.75806 0.287487 0
M  V30 7102 H 653.981 -1.45995 0.622185 0
M  V30 7103 H 654.002 -3.68658 -0.941888 0
M  V30 7104 H 653.514 -3.77981 0.880473 0
M  V30 7105 H 651.615 -3.38659 -1.55373 0
M  V30 7106 H 651.728 -4.78234 -0.287956 0
M  V30 7107 H 650.092 -2.53474 -0.249561 0
M  V30 7108 H 650.875 -3.18059 1.29203 0
M  V30 7109 N 653.32 -0.135238 -1.57019 0
M  V30 7110 C 654.736 0.221262 -1.58059 0
M  V30 7111 C 654.936 1.65538 -1.14889 0
M  V30 7112 O 653.992 2.37985 -0.843751 0
M  V30 7113 C 655.305 -0.0268114 -3.00688 0
M  V30 7114 C 656.853 0.0378206 -3.12977 0
M  V30 7115 C 657.328 -0.182769 -4.57635 0
M  V30 7116 N 658.819 -0.129292 -4.6302 0
M  V30 7117 C 659.554 -0.274648 -5.72742 0
M  V30 7118 N 659.05 -0.477075 -6.91155 0
M  V30 7119 N 660.843 -0.213077 -5.61696 0
M  V30 7120 H 652.994 -1.07177 -1.83376 0
M  V30 7121 H 655.257 -0.423338 -0.848227 0
M  V30 7122 H 654.963 -1.01889 -3.36618 0
M  V30 7123 H 654.837 0.697863 -3.70688 0
M  V30 7124 H 657.224 1.02043 -2.76896 0
M  V30 7125 H 657.305 -0.718996 -2.45487 0
M  V30 7126 H 656.949 -1.16243 -4.94419 0
M  V30 7127 H 656.879 0.59423 -5.23237 0
M  V30 7128 H 659.37 0.0229896 -3.77893 0
M  V30 7129 H 659.683 -0.578413 -7.70632 0
M  V30 7130 H 658.028 -0.513252 -6.93102 0
M  V30 7131 H 661.219 -0.0557796 -4.68067 0
M  V30 7132 H 661.392 -0.329796 -6.4716 0
M  V30 7133 N 654.798 1.5699 0.138552 0
M  V30 7134 C 655.746 1.99858 1.18994 0
M  V30 7135 C 656.74 0.89231 1.43994 0
M  V30 7136 O 657.946 1.0775 1.44187 0
M  V30 7137 H 654.321 0.636325 0.400743 0
M  V30 7138 H 656.292 2.87427 0.801755 0
M  V30 7139 C 655.041 2.40235 2.51361 0
M  V30 7140 H 654.364 3.24917 2.32957 0
M  V30 7141 H 655.804 2.74045 3.23535 0
M  V30 7142 C 654.263 1.25829 3.1252 0
M  V30 7143 O 654.793 0.563604 3.97727 0
M  V30 7144 N 652.999 1.02036 2.72097 0
M  V30 7145 H 652.546 1.58705 2.02905 0
M  V30 7146 H 652.504 0.256796 3.1335 0
M  V30 7147 N 656.276 -0.40816 1.52223 0
M  V30 7148 C 657.522 -1.15347 1.67531 0
M  V30 7149 C 657.877 -1.8818 0.400748 0
M  V30 7150 O 657.17 -1.81803 -0.604845 0
M  V30 7151 C 657.364 -2.17422 2.83659 0
M  V30 7152 C 657.193 -1.54611 4.22286 0
M  V30 7153 C 655.963 -1.31841 4.87797 0
M  V30 7154 C 658.161 -1.00648 5.04355 0
M  V30 7155 N 656.143 -0.649338 6.10456 0
M  V30 7156 C 657.514 -0.464384 6.18258 0
M  V30 7157 C 659.569 -0.901041 4.89679 0
M  V30 7158 C 658.272 0.172825 7.19092 0
M  V30 7159 C 660.298 -0.277684 5.90748 0
M  V30 7160 C 659.66 0.253734 7.03943 0
M  V30 7161 H 655.759 -0.408722 0.666686 0
M  V30 7162 H 658.343 -0.445713 1.8953 0
M  V30 7163 H 656.514 -2.85554 2.63274 0
M  V30 7164 H 658.246 -2.84321 2.87999 0
M  V30 7165 H 655.001 -1.58819 4.46176 0
M  V30 7166 H 655.425 -0.3314 6.76188 0
M  V30 7167 H 660.067 -1.29772 4.02392 0
M  V30 7168 H 657.785 0.581564 8.06005 0
M  V30 7169 H 661.371 -0.197605 5.81464 0
M  V30 7170 H 660.251 0.728482 7.80809 0
M  V30 7171 N 657.755 -1.42862 -0.66545 0
M  V30 7172 C 658.687 -1.43026 -1.79098 0
M  V30 7173 C 659.7 -0.32803 -1.59461 0
M  V30 7174 O 660.889 -0.591709 -1.68407 0
M  V30 7175 C 657.989 -1.21566 -3.16346 0
M  V30 7176 C 657.162 -2.44399 -3.62751 0
M  V30 7177 C 656.221 -2.18344 -4.78761 0
M  V30 7178 O 655.247 -2.91611 -4.88827 0
M  V30 7179 N 656.449 -1.1924 -5.68122 0
M  V30 7180 H 659.214 -2.40045 -1.79439 0
M  V30 7181 H 656.775 -1.37861 -0.848872 0
M  V30 7182 H 658.767 -1.02037 -3.91625 0
M  V30 7183 H 657.337 -0.330368 -3.10849 0
M  V30 7184 H 656.557 -2.79433 -2.78048 0
M  V30 7185 H 657.845 -3.26173 -3.90498 0
M  V30 7186 H 657.243 -0.586603 -5.6265 0
M  V30 7187 H 655.8 -1.05698 -6.43173 0
M  V30 7188 N 659.233 0.902656 -1.29189 0
M  V30 7189 C 660.644 1.46809 -1.15343 0
M  V30 7190 C 660.995 1.94568 0.252517 0
M  V30 7191 O 660.12 1.83454 1.14777 0
M  V30 7192 C 660.715 2.66829 -2.08776 0
M  V30 7193 C 659.274 3.19518 -1.98961 0
M  V30 7194 C 658.421 1.92212 -1.99874 0
M  V30 7195 H 661.372 0.714282 -1.41717 0
M  V30 7196 H 661.393 3.42465 -1.65826 0
M  V30 7197 H 660.905 2.32039 -3.11094 0
M  V30 7198 H 659.006 3.59008 -0.99721 0
M  V30 7199 H 659.119 3.84016 -2.86477 0
M  V30 7200 H 657.483 2.0979 -1.44431 0
M  V30 7201 H 658.266 1.59702 -3.03891 0
M  V30 7202 N 660.711 1.11618 1.11262 0
M  V30 7203 C 661.936 0.889013 1.8738 0
M  V30 7204 C 662.361 -0.555884 1.79698 0
M  V30 7205 O 661.719 -1.39272 1.16073 0
M  V30 7206 C 661.767 1.35759 3.34069 0
M  V30 7207 O 660.871 0.530499 4.08974 0
M  V30 7208 H 660.212 0.320082 0.581759 0
M  V30 7209 H 662.742 1.48611 1.40627 0
M  V30 7210 H 662.752 1.35291 3.84916 0
M  V30 7211 H 661.427 2.40973 3.38976 0
M  V30 7212 H 660.004 0.601439 3.68018 0
M  V30 7213 N 662.189 -1.289 0.906776 0
M  V30 7214 C 663.152 -2.25777 0.394656 0
M  V30 7215 C 664.152 -1.53621 -0.475119 0
M  V30 7216 O 665.342 -1.71949 -0.279165 0
M  V30 7217 C 662.474 -3.38113 -0.43499 0
M  V30 7218 H 663.667 -2.72592 1.25033 0
M  V30 7219 H 661.22 -1.40463 0.685547 0
M  V30 7220 H 661.955 -2.96648 -1.31036 0
M  V30 7221 H 661.74 -3.91647 0.188334 0
M  V30 7222 H 663.23 -4.10168 -0.784365 0
M  V30 7223 N 663.667 -0.670007 -1.42649 0
M  V30 7224 C 664.577 0.0114788 -2.34597 0
M  V30 7225 C 665.593 0.794055 -1.54825 0
M  V30 7226 O 666.769 0.737472 -1.87412 0
M  V30 7227 C 663.834 0.954436 -3.33304 0
M  V30 7228 C 662.895 0.166925 -4.28975 0
M  V30 7229 C 662.128 1.06497 -5.22967 0
M  V30 7230 O 662.351 2.30446 -5.21777 0
M  V30 7231 O 661.285 0.528347 -5.99577 0
M  V30 7232 H 665.111 -0.745794 -2.944 0
M  V30 7233 H 662.696 -0.430228 -1.43071 0
M  V30 7234 H 664.578 1.49589 -3.93956 0
M  V30 7235 H 663.253 1.69164 -2.7598 0
M  V30 7236 H 662.16 -0.418515 -3.71752 0
M  V30 7237 H 663.493 -0.531067 -4.89327 0
M  V30 7238 N 665.145 1.52092 -0.413018 0
M  V30 7239 C 666.373 2.06274 0.160881 0
M  V30 7240 C 666.788 1.28273 1.38533 0
M  V30 7241 O 666.145 0.33563 1.79387 0
M  V30 7242 C 666.196 3.57921 0.507443 0
M  V30 7243 O 665.917 4.32971 -0.668388 0
M  V30 7244 C 667.418 4.28533 1.13465 0
M  V30 7245 H 664.638 0.67074 0.0186759 0
M  V30 7246 H 667.182 1.95951 -0.585092 0
M  V30 7247 H 665.337 3.68238 1.20331 0
M  V30 7248 H 665.751 5.23135 -0.378169 0
M  V30 7249 H 667.225 5.35804 1.32732 0
M  V30 7250 H 667.702 3.85258 2.10886 0
M  V30 7251 H 668.308 4.22595 0.478876 0
M  V30 7252 N 666.623 0.143563 1.56945 0
M  V30 7253 C 668.039 -0.212877 1.58174 0
M  V30 7254 C 668.239 -1.64926 1.15766 0
M  V30 7255 O 667.295 -2.37535 0.856361 0
M  V30 7256 C 668.608 0.0427573 3.0067 0
M  V30 7257 C 670.156 -0.0212221 3.12993 0
M  V30 7258 C 670.631 0.207036 4.57532 0
M  V30 7259 N 672.122 0.153845 4.62944 0
M  V30 7260 C 672.857 0.305018 5.72588 0
M  V30 7261 N 672.353 0.513722 6.90893 0
M  V30 7262 N 674.146 0.242862 5.61575 0
M  V30 7263 H 666.297 1.08148 1.82805 0
M  V30 7264 H 668.56 0.427831 0.84597 0
M  V30 7265 H 668.266 1.03672 3.36073 0
M  V30 7266 H 668.14 -0.678195 3.71053 0
M  V30 7267 H 670.527 -1.00574 2.77433 0
M  V30 7268 H 670.608 0.732004 2.45103 0
M  V30 7269 H 670.252 1.18863 4.93795 0
M  V30 7270 H 670.182 -0.566473 5.23544 0
M  V30 7271 H 672.673 -0.00294866 3.779 0
M  V30 7272 H 672.986 0.619273 7.70315 0
M  V30 7273 H 671.331 0.550001 6.9282 0
M  V30 7274 H 674.522 0.0806015 4.68031 0
M  V30 7275 H 674.695 0.364112 6.46976 0
M  V30 7276 N 668.101 -1.57061 -0.130224 0
M  V30 7277 C 669.011 -2.02802 -1.17934 0
M  V30 7278 C 670.027 -0.946378 -1.46013 0
M  V30 7279 O 671.203 -1.25708 -1.57351 0
M  V30 7280 C 668.268 -2.41368 -2.48882 0
M  V30 7281 C 667.329 -3.63561 -2.28301 0
M  V30 7282 C 666.562 -4.00279 -3.53005 0
M  V30 7283 O 666.785 -3.37463 -4.59864 0
M  V30 7284 O 665.719 -4.93441 -3.44673 0
M  V30 7285 H 669.545 -2.92394 -0.820958 0
M  V30 7286 H 667.13 -1.45475 -0.340197 0
M  V30 7287 H 669.012 -2.66958 -3.26054 0
M  V30 7288 H 667.687 -1.54926 -2.84217 0
M  V30 7289 H 666.594 -3.43136 -1.49025 0
M  V30 7290 H 667.927 -4.50673 -1.97875 0
M  V30 7291 N 669.579 0.400081 -1.52437 0
M  V30 7292 C 670.825 1.14788 -1.67187 0
M  V30 7293 C 671.158 1.89928 -0.405074 0
M  V30 7294 O 670.433 1.85118 0.596804 0
M  V30 7295 C 670.716 2.13507 -2.89977 0
M  V30 7296 C 670.569 1.42204 -4.2673 0
M  V30 7297 C 671.888 3.14069 -3.083 0
M  V30 7298 H 669.007 0.415939 -0.608411 0
M  V30 7299 H 671.649 0.432542 -1.85011 0
M  V30 7300 H 669.799 2.7451 -2.74912 0
M  V30 7301 H 671.471 0.842503 -4.53541 0
M  V30 7302 H 669.714 0.723939 -4.27717 0
M  V30 7303 H 670.385 2.14281 -5.08712 0
M  V30 7304 H 672.861 2.63148 -3.22323 0
M  V30 7305 H 671.737 3.80398 -3.95713 0
M  V30 7306 H 671.998 3.82309 -2.22018 0
M  V30 7307 N 671.057 1.43213 0.657864 0
M  V30 7308 C 671.987 1.50815 1.78262 0
M  V30 7309 C 672.968 0.363211 1.66177 0
M  V30 7310 O 674.153 0.579806 1.85343 0
M  V30 7311 C 671.283 1.42625 3.16663 0
M  V30 7312 C 670.237 2.5532 3.43505 0
M  V30 7313 C 669.563 2.32184 4.81658 0
M  V30 7314 C 670.863 3.97583 3.38711 0
M  V30 7315 H 672.557 2.44954 1.72157 0
M  V30 7316 H 670.103 1.17896 0.82683 0
M  V30 7317 H 672.056 1.46548 3.95097 0
M  V30 7318 H 670.78 0.449877 3.23487 0
M  V30 7319 H 669.439 2.50742 2.6744 0
M  V30 7320 H 669.087 1.32801 4.85153 0
M  V30 7321 H 668.787 3.07724 5.00579 0
M  V30 7322 H 670.311 2.37883 5.62356 0
M  V30 7323 H 671.725 4.03673 4.07089 0
M  V30 7324 H 670.122 4.73112 3.69168 0
M  V30 7325 H 671.192 4.23049 2.36976 0
M  V30 7326 N 672.536 -0.895792 1.29666 0
M  V30 7327 C 673.813 -1.62723 1.08538 0
M  V30 7328 C 674.193 -2.07848 -0.369119 0
M  V30 7329 O 673.541 -1.8372 -1.35864 0
M  V30 7330 C 673.751 -2.80505 2.07648 0
M  V30 7331 C 675.099 -3.51098 2.3878 0
M  V30 7332 O 676.123 -2.90679 2.05874 0
M  V30 7333 O 674.982 -4.60028 2.9502 0
M  V30 7334 H 672.076 -0.714692 0.416106 0
M  V30 7335 H 674.622 -0.943517 1.41053 0
M  V30 7336 H 673.394 -2.44386 3.05599 0
M  V30 7337 H 673.017 -3.5658 1.75887 0
M  V30 7338 N 674.014 -1.12206 -1.10668 0
M  V30 7339 C 675.242 -0.898635 -1.86366 0
M  V30 7340 C 675.657 0.551991 -1.80551 0
M  V30 7341 O 675.014 1.38152 -1.19249 0
M  V30 7342 C 675.065 -1.36199 -3.34861 0
M  V30 7343 O 674.786 -2.75576 -3.40573 0
M  V30 7344 C 676.287 -1.17515 -4.2744 0
M  V30 7345 H 673.507 -0.321281 -0.589084 0
M  V30 7346 H 676.051 -1.49142 -1.39918 0
M  V30 7347 H 674.206 -0.81249 -3.78784 0
M  V30 7348 H 674.62 -2.95851 -4.33096 0
M  V30 7349 H 676.094 -1.54827 -5.29842 0
M  V30 7350 H 676.571 -0.115486 -4.39048 0
M  V30 7351 H 677.177 -1.71203 -3.89319 0
M  V30 7352 N 675.492 1.28418 -0.913599 0
M  V30 7353 C 676.732 1.96756 -0.553771 0
M  V30 7354 C 677.096 1.70334 0.886013 0
M  V30 7355 O 678.297 2.32242 1.35341 0
M  V30 7356 C 676.568 3.47041 -0.854249 0
M  V30 7357 S 678.127 4.34667 -0.600816 0
M  V30 7358 H 674.945 0.680831 -0.204915 0
M  V30 7359 H 677.547 1.55947 -1.17902 0
M  V30 7360 H 676.251 3.63766 -1.90007 0
M  V30 7361 H 675.782 3.92797 -0.217651 0
M  V30 7362 H 677.797 4.93166 0.547906 0
M  V30 7363 N 676.97 0.677563 1.42291 0
M  V30 7364 C 677.902 -0.0380218 2.29168 0
M  V30 7365 C 678.915 -0.762714 1.43828 0
M  V30 7366 O 680.104 -0.616413 1.67519 0
M  V30 7367 C 677.204 -1.07761 3.21311 0
M  V30 7368 C 676.377 -0.42618 4.35319 0
M  V30 7369 C 675.436 -1.36592 5.08162 0
M  V30 7370 O 674.462 -0.865174 5.62586 0
M  V30 7371 N 675.664 -2.69909 5.13935 0
M  V30 7372 H 678.429 0.707766 2.91223 0
M  V30 7373 H 675.99 0.52219 1.53247 0
M  V30 7374 H 677.982 -1.70761 3.6691 0
M  V30 7375 H 676.552 -1.72511 2.60689 0
M  V30 7376 H 675.772 0.383385 3.92331 0
M  V30 7377 H 677.06 0.0275277 5.08793 0
M  V30 7378 H 676.458 -3.13129 4.71134 0
M  V30 7379 H 675.015 -3.2815 5.6317 0
M  V30 7380 N 678.448 -1.51871 0.421078 0
M  V30 7381 C 679.694 -2.02237 -0.151014 0
M  V30 7382 C 680.027 -1.30554 -1.43768 0
M  V30 7383 O 679.302 -0.41546 -1.90011 0
M  V30 7384 C 679.585 -3.5802 -0.386482 0
M  V30 7385 C 679.438 -4.40339 0.9177 0
M  V30 7386 C 680.757 -4.24444 -1.16342 0
M  V30 7387 H 677.876 -0.735062 -0.0534102 0
M  V30 7388 H 680.518 -1.81656 0.556888 0
M  V30 7389 H 678.668 -3.75688 -0.989494 0
M  V30 7390 H 680.34 -4.34357 1.55344 0
M  V30 7391 H 678.583 -4.06073 1.526 0
M  V30 7392 H 679.254 -5.47451 0.707187 0
M  V30 7393 H 681.73 -4.10948 -0.652788 0
M  V30 7394 H 680.606 -5.33358 -1.29693 0
M  V30 7395 H 680.867 -3.84204 -2.18724 0
M  V30 7396 N 679.926 -0.151884 -1.56866 0
M  V30 7397 C 681.175 0.497992 -1.95456 0
M  V30 7398 C 681.488 1.6569 -1.03953 0
M  V30 7399 O 682.694 2.37173 -1.32142 0
M  V30 7400 C 681.15 0.93732 -3.4748 0
M  V30 7401 C 680.758 -0.194921 -4.47576 0
M  V30 7402 C 682.502 1.55671 -3.94926 0
M  V30 7403 C 680.409 0.26295 -5.90815 0
M  V30 7404 H 679.339 0.189811 -0.729717 0
M  V30 7405 H 681.99 -0.237011 -1.81963 0
M  V30 7406 H 680.372 1.72773 -3.56322 0
M  V30 7407 H 681.546 -0.971951 -4.50433 0
M  V30 7408 H 679.861 -0.72303 -4.10075 0
M  V30 7409 H 682.458 1.91099 -4.99385 0
M  V30 7410 H 682.801 2.44748 -3.36755 0
M  V30 7411 H 683.334 0.831109 -3.89021 0
M  V30 7412 H 680.073 -0.592568 -6.52816 0
M  V30 7413 H 679.593 1.00575 -5.91308 0
M  V30 7414 H 681.272 0.713333 -6.43056 0
M  V30 7415 N 681.404 1.57128 0.121893 0
M  V30 7416 C 682.367 1.99197 1.13372 0
M  V30 7417 C 683.367 0.881728 1.3447 0
M  V30 7418 O 684.557 1.14783 1.31036 0
M  V30 7419 C 681.689 2.32963 2.4888 0
M  V30 7420 H 682.882 2.89788 0.772204 0
M  V30 7421 H 680.435 1.51952 0.366093 0
M  V30 7422 H 681.17 1.45243 2.89957 0
M  V30 7423 H 680.955 3.13934 2.34921 0
M  V30 7424 H 682.445 2.66261 3.21706 0
M  V30 7425 N 682.882 -0.391992 1.52647 0
M  V30 7426 C 683.792 -1.503 1.80131 0
M  V30 7427 C 684.808 -1.59825 0.687882 0
M  V30 7428 O 685.984 -1.76218 0.975149 0
M  V30 7429 C 683.049 -2.85863 1.96171 0
M  V30 7430 C 682.11 -2.86084 3.20085 0
M  V30 7431 C 681.343 -4.15181 3.35351 0
M  V30 7432 O 681.566 -5.09981 2.55491 0
M  V30 7433 O 680.5 -4.22603 4.28591 0
M  V30 7434 H 684.326 -1.30007 2.74466 0
M  V30 7435 H 681.911 -0.579539 1.37701 0
M  V30 7436 H 683.793 -3.66236 2.08445 0
M  V30 7437 H 682.468 -3.06189 1.05025 0
M  V30 7438 H 681.375 -2.04504 3.13256 0
M  V30 7439 H 682.708 -2.7071 4.11068 0
M  V30 7440 N 684.36 -1.4356 -0.65026 0
M  V30 7441 C 685.323 -1.48615 -1.74489 0
M  V30 7442 C 686.323 -0.370483 -1.56474 0
M  V30 7443 O 687.513 -0.632351 -1.62317 0
M  V30 7444 C 684.645 -1.34161 -3.13391 0
M  V30 7445 H 685.838 -2.46103 -1.71387 0
M  V30 7446 H 683.391 -1.30369 -0.862186 0
M  V30 7447 H 684.126 -0.376918 -3.22102 0
M  V30 7448 H 683.911 -2.1504 -3.27872 0
M  V30 7449 H 685.401 -1.40637 -3.93206 0
M  V30 7450 N 685.838 0.888903 -1.30139 0
M  V30 7451 C 687.249 1.45578 -1.16893 0
M  V30 7452 C 687.6 1.94825 0.231866 0
M  V30 7453 O 686.725 1.84661 1.12824 0
M  V30 7454 C 687.32 2.646 -2.11595 0
M  V30 7455 C 685.879 3.17389 -2.02339 0
M  V30 7456 C 685.026 1.90081 -2.01902 0
M  V30 7457 H 687.977 0.69921 -1.42467 0
M  V30 7458 H 687.998 3.40687 -1.69449 0
M  V30 7459 H 687.51 2.28726 -3.13538 0
M  V30 7460 H 685.611 3.5793 -1.03523 0
M  V30 7461 H 685.724 3.80955 -2.90534 0
M  V30 7462 H 684.088 2.08246 -1.46648 0
M  V30 7463 H 684.871 1.5647 -3.05568 0
M  V30 7464 N 687.317 1.12792 1.10072 0
M  V30 7465 C 688.249 0.757003 2.16338 0
M  V30 7466 C 689.262 -0.218144 1.61332 0
M  V30 7467 O 690.451 0.0010727 1.785 0
M  V30 7468 C 687.551 0.100303 3.38752 0
M  V30 7469 C 686.724 1.10586 4.2319 0
M  V30 7470 C 685.783 0.47609 5.24042 0
M  V30 7471 O 684.809 1.13418 5.57786 0
M  V30 7472 N 686.011 -0.754823 5.75572 0
M  V30 7473 H 688.776 1.6714 2.48766 0
M  V30 7474 H 686.337 1.02003 1.25726 0
M  V30 7475 H 688.329 -0.333092 4.03327 0
M  V30 7476 H 686.899 -0.716915 3.04268 0
M  V30 7477 H 686.119 1.71677 3.54853 0
M  V30 7478 H 687.407 1.78571 4.76435 0
M  V30 7479 H 686.805 -1.30838 5.50362 0
M  V30 7480 H 685.362 -1.13098 6.41913 0
M  V30 7481 N 688.795 -1.27931 0.920396 0
M  V30 7482 C 690.043 -1.94304 0.555906 0
M  V30 7483 C 690.364 -1.72753 -0.904519 0
M  V30 7484 O 689.634 -1.07104 -1.64029 0
M  V30 7485 H 688.214 -0.719001 0.202599 0
M  V30 7486 H 690.876 -1.55785 1.1712 0
M  V30 7487 H 689.972 -3.02806 0.755981 0
M  V30 7488 N 690.273 -0.685099 -1.4193 0
M  V30 7489 C 691.498 -0.218842 -2.06242 0
M  V30 7490 C 691.923 1.11923 -1.51178 0
M  V30 7491 O 691.281 1.69837 -0.634446 0
M  V30 7492 C 691.329 -0.175592 -3.60172 0
M  V30 7493 O 690.433 0.852776 -4.03487 0
M  V30 7494 H 689.774 -0.109531 -0.654904 0
M  V30 7495 H 692.304 -0.937013 -1.81882 0
M  V30 7496 H 692.314 -0.00291151 -4.08 0
M  V30 7497 H 690.989 -1.15222 -3.99621 0
M  V30 7498 H 689.566 0.650301 -3.67186 0
M  V30 7499 N 691.751 1.51645 -0.429126 0
M  V30 7500 C 693 2.01203 0.141538 0
M  V30 7501 C 693.313 1.31828 1.44502 0
M  V30 7502 O 694.519 1.7231 2.09813 0
M  V30 7503 C 692.975 3.58624 0.302786 0
M  V30 7504 C 692.583 4.3693 -0.989775 0
M  V30 7505 C 694.327 4.16353 0.827661 0
M  V30 7506 C 692.234 5.86037 -0.794619 0
M  V30 7507 H 691.164 0.751867 0.05667 0
M  V30 7508 H 693.815 1.74822 -0.557633 0
M  V30 7509 H 692.197 3.81417 1.06476 0
M  V30 7510 H 693.371 4.25887 -1.75945 0
M  V30 7511 H 691.686 3.90614 -1.44256 0
M  V30 7512 H 694.283 5.25455 0.990026 0
M  V30 7513 H 694.626 3.74995 1.80787 0
M  V30 7514 H 695.159 3.97606 0.124213 0
M  V30 7515 H 691.898 6.31792 -1.74697 0
M  V30 7516 H 691.418 5.99765 -0.0645968 0
M  V30 7517 H 693.097 6.45471 -0.444591 0
M  V30 7518 N 693.229 0.160201 1.56784 0
M  V30 7519 C 694.192 -0.760405 2.16219 0
M  V30 7520 C 695.192 -1.16595 1.10735 0
M  V30 7521 O 696.382 -1.08472 1.36306 0
M  V30 7522 C 693.514 -2.03358 2.73603 0
M  V30 7523 H 694.707 -0.243173 2.98912 0
M  V30 7524 H 692.26 -0.0893139 1.56045 0
M  V30 7525 H 692.995 -2.59416 1.94612 0
M  V30 7526 H 692.78 -1.75186 3.50788 0
M  V30 7527 H 694.27 -2.69081 3.19351 0
M  V30 7528 N 694.707 -1.5719 -0.113559 0
M  V30 7529 C 695.67 -1.99796 -1.12314 0
M  V30 7530 C 696.67 -0.888847 -1.34001 0
M  V30 7531 O 697.86 -1.15476 -1.30426 0
M  V30 7532 C 694.992 -2.34279 -2.47641 0
M  V30 7533 H 696.185 -2.90193 -0.756825 0
M  V30 7534 H 693.738 -1.52144 -0.358029 0
M  V30 7535 H 694.473 -1.46778 -2.89183 0
M  V30 7536 H 694.258 -3.15175 -2.33253 0
M  V30 7537 H 695.748 -2.67963 -3.2029 0
M  V30 7538 N 696.185 0.383891 -1.52853 0
M  V30 7539 C 697.415 1.14783 -1.7178 0
M  V30 7540 C 697.823 1.84055 -0.438211 0
M  V30 7541 O 697.166 1.73713 0.597465 0
M  V30 7542 C 697.228 2.23543 -2.81547 0
M  V30 7543 C 696.892 1.74195 -4.22499 0
M  V30 7544 C 697.889 1.21591 -5.05481 0
M  V30 7545 C 695.574 1.80262 -4.6884 0
M  V30 7546 C 697.568 0.757104 -6.32888 0
M  V30 7547 C 695.255 1.33993 -5.96229 0
M  V30 7548 C 696.253 0.818049 -6.78083 0
M  V30 7549 O 695.941 0.362123 -8.03084 0
M  V30 7550 H 695.673 0.349908 -0.578395 0
M  V30 7551 H 698.227 0.454377 -2.00311 0
M  V30 7552 H 696.457 2.96328 -2.48449 0
M  V30 7553 H 698.146 2.8519 -2.88828 0
M  V30 7554 H 698.912 1.16257 -4.7086 0
M  V30 7555 H 694.791 2.19825 -4.05213 0
M  V30 7556 H 698.335 0.34908 -6.96726 0
M  V30 7557 H 694.232 1.39015 -6.30353 0
M  V30 7558 H 695 0.483134 -8.17073 0
M  V30 7559 N 697.663 1.43903 0.642637 0
M  V30 7560 C 698.909 1.46296 1.40447 0
M  V30 7561 C 699.242 0.0908361 1.93987 0
M  V30 7562 O 698.517 -0.889884 1.72949 0
M  V30 7563 C 698.8 2.51399 2.57819 0
M  V30 7564 C 698.653 3.97926 2.09702 0
M  V30 7565 C 699.972 2.53125 3.60022 0
M  V30 7566 H 697.091 0.532676 0.509338 0
M  V30 7567 H 699.733 1.75515 0.727635 0
M  V30 7568 H 697.883 2.26614 3.1556 0
M  V30 7569 H 699.555 4.33804 1.5688 0
M  V30 7570 H 697.798 4.10252 1.40982 0
M  V30 7571 H 698.469 4.67096 2.94152 0
M  V30 7572 H 700.945 2.75242 3.12059 0
M  V30 7573 H 699.821 3.28589 4.39682 0
M  V30 7574 H 700.082 1.56895 4.13324 0
M  V30 7575 N 699.141 -0.881989 1.30609 0
M  V30 7576 C 700.39 -1.62878 1.18969 0
M  V30 7577 C 700.703 -1.93946 -0.253859 0
M  V30 7578 O 701.909 -2.67008 -0.491813 0
M  V30 7579 C 700.365 -2.93573 2.0819 0
M  V30 7580 C 699.973 -2.70034 3.57471 0
M  V30 7581 C 701.717 -3.71543 2.0532 0
M  V30 7582 C 699.624 -3.96563 4.38739 0
M  V30 7583 H 698.554 -0.611092 0.441682 0
M  V30 7584 H 701.205 -0.976201 1.55379 0
M  V30 7585 H 699.587 -3.6014 1.64666 0
M  V30 7586 H 700.761 -2.11949 4.09163 0
M  V30 7587 H 699.076 -2.05435 3.62195 0
M  V30 7588 H 701.673 -4.65386 2.63288 0
M  V30 7589 H 702.016 -4.03167 1.03739 0
M  V30 7590 H 702.549 -3.11842 2.46981 0
M  V30 7591 H 699.288 -3.70095 5.41027 0
M  V30 7592 H 698.808 -4.54142 3.9181 0
M  V30 7593 H 700.487 -4.64557 4.50329 0
M  V30 7594 N 700.619 -1.13374 -1.09472 0
M  V30 7595 C 701.844 -0.918711 -1.85942 0
M  V30 7596 C 702.269 0.527225 -1.8056 0
M  V30 7597 O 701.627 1.37408 -1.18274 0
M  V30 7598 C 701.675 -1.41056 -3.31867 0
M  V30 7599 O 700.779 -0.595496 -4.08078 0
M  V30 7600 H 700.12 -0.329297 -0.576593 0
M  V30 7601 H 702.65 -1.50829 -1.38245 0
M  V30 7602 H 702.66 -1.41398 -3.82715 0
M  V30 7603 H 701.335 -2.46335 -3.35099 0
M  V30 7604 H 699.912 -0.659911 -3.67014 0
M  V30 7605 N 702.098 1.27442 -0.927168 0
M  V30 7606 C 703.031 2.25177 -0.370232 0
M  V30 7607 C 704.009 1.53612 0.533103 0
M  V30 7608 O 705.193 1.8245 0.47373 0
M  V30 7609 C 702.32 3.35431 0.469411 0
M  V30 7610 C 701.366 4.24888 -0.370419 0
M  V30 7611 S 702.199 5.04852 -1.78562 0
M  V30 7612 C 703.355 6.18592 -0.953651 0
M  V30 7613 H 703.588 2.72069 -1.19858 0
M  V30 7614 H 701.121 1.36089 -0.729316 0
M  V30 7615 H 703.079 3.99404 0.947992 0
M  V30 7616 H 701.74 2.87179 1.27228 0
M  V30 7617 H 700.933 5.03264 0.272226 0
M  V30 7618 H 700.535 3.65709 -0.783153 0
M  V30 7619 H 702.827 6.77235 -0.189408 0
M  V30 7620 H 703.77 6.87132 -1.7104 0
M  V30 7621 H 704.178 5.62318 -0.495897 0
M  V30 7622 N 703.576 0.692616 1.41565 0
M  V30 7623 C 704.539 0.0344174 2.29174 0
M  V30 7624 C 705.539 -0.710961 1.44229 0
M  V30 7625 O 706.729 -0.546293 1.65412 0
M  V30 7626 C 703.861 -0.961682 3.27054 0
M  V30 7627 H 705.054 0.805755 2.88873 0
M  V30 7628 H 702.607 0.455947 1.49502 0
M  V30 7629 H 703.342 -1.76089 2.72329 0
M  V30 7630 H 703.127 -0.430375 3.89731 0
M  V30 7631 H 704.617 -1.4201 3.92712 0
M  V30 7632 N 705.054 -1.51416 0.437162 0
M  V30 7633 C 706.001 -2.27743 -0.374374 0
M  V30 7634 C 706.971 -1.31327 -1.01698 0
M  V30 7635 O 708.156 -1.60229 -1.03592 0
M  V30 7636 C 705.296 -3.12241 -1.46969 0
M  V30 7637 C 704.409 -4.23651 -0.845236 0
M  V30 7638 C 703.544 -4.95458 -1.91559 0
M  V30 7639 C 702.583 -5.98789 -1.26956 0
M  V30 7640 N 701.72 -6.64005 -2.28126 0
M  V30 7641 H 706.56 -2.96654 0.282892 0
M  V30 7642 H 704.097 -1.46319 0.151352 0
M  V30 7643 H 706.055 -3.59556 -2.11602 0
M  V30 7644 H 704.685 -2.45445 -2.09659 0
M  V30 7645 H 703.737 -3.803 -0.0872059 0
M  V30 7646 H 705.049 -4.97683 -0.333582 0
M  V30 7647 H 704.203 -5.46321 -2.63854 0
M  V30 7648 H 702.942 -4.21055 -2.46097 0
M  V30 7649 H 701.947 -5.47219 -0.53207 0
M  V30 7650 H 703.172 -6.75149 -0.731509 0
M  V30 7651 H 701.118 -5.92415 -2.81745 0
M  V30 7652 H 701.035 -7.33802 -1.81852 0
M  V30 7653 H 702.303 -7.19498 -2.99905 0
M  V30 7654 N 706.532 -0.168513 -1.56696 0
M  V30 7655 C 707.76 0.483503 -2.01171 0
M  V30 7656 C 708.175 1.56994 -1.04872 0
M  V30 7657 O 707.532 1.82434 -0.0491337 0
M  V30 7658 C 707.583 1.0644 -3.45475 0
M  V30 7659 O 707.304 0.0213375 -4.38095 0
M  V30 7660 C 708.805 1.79493 -4.05336 0
M  V30 7661 H 706.025 0.124002 -0.659443 0
M  V30 7662 H 708.569 -0.269419 -2.02717 0
M  V30 7663 H 706.724 1.76784 -3.44712 0
M  V30 7664 H 707.138 0.449837 -5.22567 0
M  V30 7665 H 708.612 2.15401 -5.08238 0
M  V30 7666 H 709.089 2.68889 -3.47269 0
M  V30 7667 H 709.695 1.13798 -4.09793 0
M  V30 7668 N 708.01 1.57248 0.105221 0
M  V30 7669 C 709.421 1.74612 0.660865 0
M  V30 7670 C 709.772 0.789231 1.79626 0
M  V30 7671 O 708.897 -0.0346611 2.16372 0
M  V30 7672 C 709.492 3.16624 1.20559 0
M  V30 7673 C 708.051 3.35447 1.7074 0
M  V30 7674 C 707.198 2.70445 0.612764 0
M  V30 7675 H 710.149 1.5824 -0.12079 0
M  V30 7676 H 710.17 3.18937 2.07508 0
M  V30 7677 H 709.682 3.86245 0.379012 0
M  V30 7678 H 707.783 2.7089 2.5583 0
M  V30 7679 H 707.896 4.43702 1.80736 0
M  V30 7680 H 706.26 2.32061 1.04975 0
M  V30 7681 H 707.043 3.42699 -0.203066 0
M  V30 7682 N 709.488 -0.375779 1.53054 0
M  V30 7683 C 710.713 -1.14484 1.7294 0
M  V30 7684 C 711.138 -1.82572 0.452668 0
M  V30 7685 O 710.496 -1.71343 -0.592567 0
M  V30 7686 C 710.544 -2.15857 2.88857 0
M  V30 7687 O 709.648 -3.22725 2.56753 0
M  V30 7688 H 708.989 -0.332666 0.574656 0
M  V30 7689 H 711.519 -0.436025 1.999 0
M  V30 7690 H 711.529 -2.59631 3.14731 0
M  V30 7691 H 710.204 -1.65689 3.81471 0
M  V30 7692 H 708.781 -2.83996 2.41663 0
M  V30 7693 N 710.966 -1.44241 -0.634997 0
M  V30 7694 C 712.243 -1.37296 -1.39317 0
M  V30 7695 C 712.623 -0.0297532 -2.11079 0
M  V30 7696 O 711.971 0.987524 -2.06059 0
M  V30 7697 C 712.181 -2.56853 -2.36279 0
M  V30 7698 C 713.529 -3.00747 -2.99728 0
M  V30 7699 O 714.553 -2.5703 -2.46605 0
M  V30 7700 O 713.412 -3.76533 -3.96087 0
M  V30 7701 H 710.506 -0.543503 -0.623325 0
M  V30 7702 H 713.052 -1.56324 -0.660376 0
M  V30 7703 H 711.824 -3.46228 -1.82324 0
M  V30 7704 H 711.447 -2.40019 -3.16981 0
M  V30 7705 N 712.444 0.87505 -1.31075 0
M  V30 7706 C 713.69 1.63009 -1.20647 0
M  V30 7707 C 714.023 1.9276 0.236045 0
M  V30 7708 O 713.298 1.55559 1.16754 0
M  V30 7709 C 713.581 2.96357 -2.0456 0
M  V30 7710 C 713.434 2.73516 -3.57084 0
M  V30 7711 C 714.753 3.974 -1.89107 0
M  V30 7712 H 711.872 0.591518 -0.439631 0
M  V30 7713 H 714.514 1.0119 -1.60812 0
M  V30 7714 H 712.664 3.49119 -1.70435 0
M  V30 7715 H 714.336 2.27465 -4.01319 0
M  V30 7716 H 712.579 2.0784 -3.80769 0
M  V30 7717 H 713.25 3.68377 -4.11099 0
M  V30 7718 H 715.726 3.5383 -2.18961 0
M  V30 7719 H 714.602 4.88596 -2.5013 0
M  V30 7720 H 714.863 4.33794 -0.85296 0
M  V30 7721 N 713.922 1.13953 1.08869 0
M  V30 7722 C 714.852 0.844824 2.17681 0
M  V30 7723 C 715.833 -0.198213 1.68941 0
M  V30 7724 O 717.018 -0.0559073 1.9412 0
M  V30 7725 C 714.148 0.316325 3.45856 0
M  V30 7726 C 713.102 1.29426 4.07962 0
M  V30 7727 C 712.428 0.625275 5.31031 0
M  V30 7728 C 713.728 2.65484 4.49795 0
M  V30 7729 H 715.422 1.75471 2.42591 0
M  V30 7730 H 712.968 0.845116 1.16592 0
M  V30 7731 H 714.921 0.0977876 4.21287 0
M  V30 7732 H 713.645 -0.628972 3.20486 0
M  V30 7733 H 712.304 1.49889 3.34558 0
M  V30 7734 H 711.952 -0.325678 5.01945 0
M  V30 7735 H 711.652 1.27777 5.73539 0
M  V30 7736 H 713.176 0.416152 6.0918 0
M  V30 7737 H 714.59 2.48957 5.16424 0
M  V30 7738 H 712.987 3.26963 5.03205 0
M  V30 7739 H 714.057 3.22717 3.61914 0
M  V30 7740 N 715.4 -1.26948 0.933913 0
M  V30 7741 C 716.363 -2.24889 0.442457 0
M  V30 7742 C 717.363 -1.54594 -0.442426 0
M  V30 7743 O 718.553 -1.72502 -0.242629 0
M  V30 7744 C 715.685 -3.3896 -0.363173 0
M  V30 7745 H 716.878 -2.69879 1.30787 0
M  V30 7746 H 714.431 -1.38978 0.715187 0
M  V30 7747 H 715.166 -2.99361 -1.24714 0
M  V30 7748 H 714.951 -3.9116 0.271366 0
M  V30 7749 H 716.441 -4.11739 -0.697186 0
M  V30 7750 N 716.879 -0.700114 -1.41195 0
M  V30 7751 C 718.125 -0.233351 -2.01453 0
M  V30 7752 C 718.458 1.16548 -1.55339 0
M  V30 7753 O 717.733 1.78756 -0.766575 0
M  V30 7754 C 718.016 -0.2961 -3.58881 0
M  V30 7755 C 717.869 -1.7322 -4.15108 0
M  V30 7756 C 719.188 0.341525 -4.38773 0
M  V30 7757 H 716.307 -0.0862667 -0.731934 0
M  V30 7758 H 718.949 -0.889693 -1.67882 0
M  V30 7759 H 717.099 0.262736 -3.87611 0
M  V30 7760 H 718.771 -2.34523 -3.97236 0
M  V30 7761 H 717.014 -2.2649 -3.69979 0
M  V30 7762 H 717.685 -1.7276 -5.24269 0
M  V30 7763 H 720.161 -0.134461 -4.15883 0
M  V30 7764 H 719.037 0.267098 -5.4825 0
M  V30 7765 H 719.298 1.42289 -4.18577 0
M  V30 7766 N 718.357 1.51182 -0.445186 0
M  V30 7767 C 719.307 2.24804 0.380394 0
M  V30 7768 C 720.291 1.27344 0.983482 0
M  V30 7769 O 721.483 1.52392 0.900322 0
M  V30 7770 C 718.612 3.09922 1.4766 0
M  V30 7771 C 717.698 4.14816 0.882517 0
M  V30 7772 N 718.089 5.05797 0.0183278 0
M  V30 7773 C 716.387 4.30938 1.14927 0
M  V30 7774 C 717.088 5.8084 -0.316152 0
M  V30 7775 N 716.064 5.42759 0.302214 0
M  V30 7776 H 719.866 2.92508 -0.285737 0
M  V30 7777 H 717.38 1.60342 -0.257733 0
M  V30 7778 H 719.377 3.61249 2.08098 0
M  V30 7779 H 718.037 2.43763 2.14498 0
M  V30 7780 H 719.048 5.16725 -0.348679 0
M  V30 7781 H 715.725 3.76005 1.81457 0
M  V30 7782 H 717.115 6.64115 -1.01986 0
M  V30 7783 N 719.835 0.176821 1.56605 0
M  V30 7784 C 720.765 -0.746841 2.21234 0
M  V30 7785 C 721.746 -1.23502 1.16967 0
M  V30 7786 O 722.931 -1.28718 1.45414 0
M  V30 7787 C 720.061 -1.97407 2.8574 0
M  V30 7788 C 719.015 -1.62153 3.96094 0
M  V30 7789 C 718.341 -2.92387 4.47676 0
M  V30 7790 C 719.641 -0.845353 5.15413 0
M  V30 7791 H 721.335 -0.208116 2.98676 0
M  V30 7792 H 718.881 -0.0986594 1.43662 0
M  V30 7793 H 720.834 -2.62531 3.2963 0
M  V30 7794 H 719.558 -2.53703 2.05676 0
M  V30 7795 H 718.217 -0.993964 3.52868 0
M  V30 7796 H 717.865 -3.46734 3.64396 0
M  V30 7797 H 717.565 -2.69551 5.22127 0
M  V30 7798 H 719.089 -3.5853 4.94255 0
M  V30 7799 H 720.503 -1.39929 5.55961 0
M  V30 7800 H 718.9 -0.715814 5.95815 0
M  V30 7801 H 719.97 0.157239 4.84645 0
M  V30 7802 N 721.313 -1.57302 -0.09688 0
M  V30 7803 C 722.243 -2.0497 -1.11846 0
M  V30 7804 C 723.224 -0.938278 -1.41882 0
M  V30 7805 O 724.409 -1.20943 -1.51942 0
M  V30 7806 C 721.539 -2.47264 -2.43881 0
M  V30 7807 C 720.493 -3.62053 -2.28257 0
M  V30 7808 C 719.819 -3.90318 -3.65453 0
M  V30 7809 C 721.119 -4.93005 -1.72461 0
M  V30 7810 H 722.813 -2.90567 -0.721888 0
M  V30 7811 H 720.359 -1.39786 -0.345803 0
M  V30 7812 H 722.312 -2.7922 -3.15617 0
M  V30 7813 H 721.036 -1.58664 -2.8547 0
M  V30 7814 H 719.695 -3.30341 -1.58967 0
M  V30 7815 H 719.343 -2.98889 -4.04567 0
M  V30 7816 H 719.043 -4.67597 -3.55846 0
M  V30 7817 H 720.567 -4.24747 -4.3866 0
M  V30 7818 H 721.981 -5.23354 -2.34036 0
M  V30 7819 H 720.378 -5.74436 -1.73618 0
M  V30 7820 H 721.448 -4.80053 -0.683898 0
M  V30 7821 N 722.791 0.367657 -1.53252 0
M  V30 7822 C 723.721 1.45632 -1.8252 0
M  V30 7823 C 724.702 1.55979 -0.678568 0
M  V30 7824 O 725.887 1.70581 -0.928217 0
M  V30 7825 C 723.017 2.82994 -2.01325 0
M  V30 7826 C 721.971 2.87473 -3.17086 0
M  V30 7827 C 721.297 4.2749 -3.21179 0
M  V30 7828 C 722.597 2.55182 -4.55719 0
M  V30 7829 H 724.291 1.21387 -2.73689 0
M  V30 7830 H 721.837 0.58251 -1.31692 0
M  V30 7831 H 723.79 3.59179 -2.20383 0
M  V30 7832 H 722.514 3.08622 -1.06864 0
M  V30 7833 H 721.173 2.13739 -2.97844 0
M  V30 7834 H 720.821 4.5019 -2.24361 0
M  V30 7835 H 720.521 4.31403 -3.98955 0
M  V30 7836 H 722.045 5.0555 -3.42419 0
M  V30 7837 H 723.459 3.21081 -4.74953 0
M  V30 7838 H 721.856 2.70414 -5.3572 0
M  V30 7839 H 722.926 1.5044 -4.60973 0
M  V30 7840 N 724.269 1.44576 0.627338 0
M  V30 7841 C 725.216 1.51734 1.73912 0
M  V30 7842 C 726.186 0.364745 1.62046 0
M  V30 7843 O 727.371 0.575503 1.81914 0
M  V30 7844 C 724.511 1.47116 3.12171 0
M  V30 7845 C 723.624 2.72778 3.34986 0
M  V30 7846 C 722.759 2.59968 4.63239 0
M  V30 7847 C 721.798 3.80776 4.79245 0
M  V30 7848 N 720.935 3.66618 5.98778 0
M  V30 7849 H 725.775 2.46722 1.6713 0
M  V30 7850 H 723.312 1.22444 0.815224 0
M  V30 7851 H 725.27 1.42429 3.92135 0
M  V30 7852 H 723.9 0.556928 3.17959 0
M  V30 7853 H 722.952 2.87637 2.48936 0
M  V30 7854 H 724.264 3.62441 3.42692 0
M  V30 7855 H 723.418 2.53135 5.51369 0
M  V30 7856 H 722.157 1.67872 4.57898 0
M  V30 7857 H 721.162 3.87989 3.89544 0
M  V30 7858 H 722.387 4.73913 4.86398 0
M  V30 7859 H 720.333 2.77277 5.9452 0
M  V30 7860 H 720.25 4.499 6.07557 0
M  V30 7861 H 721.518 3.63684 6.89459 0
M  V30 7862 N 725.747 -0.868086 1.31537 0
M  V30 7863 C 726.657 -2.00801 1.21311 0
M  V30 7864 C 727.673 -1.73518 0.129431 0
M  V30 7865 O 728.849 -1.98378 0.347588 0
M  V30 7866 C 725.914 -3.3419 0.922935 0
M  V30 7867 C 724.975 -3.74783 2.0937 0
M  V30 7868 C 724.208 -5.01807 1.81728 0
M  V30 7869 O 724.431 -5.65404 0.753313 0
M  V30 7870 O 723.365 -5.39213 2.67457 0
M  V30 7871 H 727.191 -2.12361 2.17109 0
M  V30 7872 H 724.776 -0.996684 1.11295 0
M  V30 7873 H 726.658 -4.14174 0.777033 0
M  V30 7874 H 725.333 -3.237 -0.00500301 0
M  V30 7875 H 724.24 -2.95432 2.29501 0
M  V30 7876 H 725.573 -3.89902 3.00396 0
M  V30 7877 N 727.225 -1.14528 -1.08264 0
M  V30 7878 C 728.188 -0.83632 -2.13397 0
M  V30 7879 C 729.188 0.159715 -1.60005 0
M  V30 7880 O 730.378 -0.0688098 -1.74064 0
M  V30 7881 C 727.51 -0.246973 -3.40004 0
M  V30 7882 H 728.703 -1.76808 -2.42237 0
M  V30 7883 H 726.256 -0.951509 -1.24 0
M  V30 7884 H 726.991 0.693436 -3.168 0
M  V30 7885 H 726.776 -0.964412 -3.80055 0
M  V30 7886 H 728.266 -0.0480679 -4.17572 0
M  V30 7887 N 728.703 1.26451 -0.940633 0
M  V30 7888 C 729.951 1.93395 -0.586748 0
M  V30 7889 C 730.272 1.7417 0.876921 0
M  V30 7890 O 729.542 1.097 1.62304 0
M  V30 7891 H 728.122 0.715687 -0.214012 0
M  V30 7892 H 730.784 1.53902 -1.19584 0
M  V30 7893 H 729.88 3.01565 -0.804059 0
M  V30 7894 N 730.181 0.707592 1.40822 0
M  V30 7895 C 731.43 0.240705 2.00259 0
M  V30 7896 C 731.743 -1.17027 1.56729 0
M  V30 7897 O 732.949 -1.73526 2.08809 0
M  V30 7898 C 731.405 0.379432 3.57894 0
M  V30 7899 C 731.013 1.79654 4.104 0
M  V30 7900 C 732.757 -0.0270684 4.24491 0
M  V30 7901 C 730.664 1.88628 5.60512 0
M  V30 7902 H 729.594 0.0862369 0.749052 0
M  V30 7903 H 732.245 0.877528 1.61157 0
M  V30 7904 H 730.627 -0.325842 3.94657 0
M  V30 7905 H 731.801 2.53155 3.85032 0
M  V30 7906 H 730.116 2.15379 3.56372 0
M  V30 7907 H 732.713 0.0193743 5.34696 0
M  V30 7908 H 733.056 -1.06772 4.02375 0
M  V30 7909 H 733.589 0.628361 3.92806 0
M  V30 7910 H 730.328 2.90787 5.87472 0
M  V30 7911 H 729.848 1.19528 5.8777 0
M  V30 7912 H 731.527 1.6547 6.25483 0
M  V30 7913 N 731.66 -1.50943 0.453197 0
M  V30 7914 C 732.908 -2.01813 -0.107709 0
M  V30 7915 C 733.229 -1.33841 -1.41816 0
M  V30 7916 O 732.499 -0.477973 -1.8998 0
M  V30 7917 H 731.079 -0.745773 -0.0427948 0
M  V30 7918 H 733.741 -1.8545 0.599531 0
M  V30 7919 H 732.837 -3.10911 -0.27218 0
M  V30 7920 N 733.138 -0.185124 -1.56509 0
M  V30 7921 C 734.385 0.456258 -1.97293 0
M  V30 7922 C 734.713 1.62314 -1.07165 0
M  V30 7923 O 733.968 1.95398 -0.108621 0
M  V30 7924 C 734.267 0.967977 -3.44042 0
M  V30 7925 C 733.933 -0.084476 -4.50821 0
M  V30 7926 C 732.595 -0.373689 -4.79747 0
M  V30 7927 C 734.947 -0.79812 -5.15053 0
M  V30 7928 C 732.275 -1.3817 -5.70198 0
M  V30 7929 C 734.627 -1.79521 -6.06593 0
M  V30 7930 C 733.291 -2.09172 -6.3388 0
M  V30 7931 H 732.561 0.166957 -0.721946 0
M  V30 7932 H 735.208 -0.279992 -1.89442 0
M  V30 7933 H 733.513 1.78231 -3.48914 0
M  V30 7934 H 735.21 1.47347 -3.72948 0
M  V30 7935 H 731.8 0.15111 -4.28334 0
M  V30 7936 H 735.984 -0.587903 -4.92806 0
M  V30 7937 H 731.24 -1.61745 -5.89617 0
M  V30 7938 H 735.414 -2.35347 -6.55427 0
M  V30 7939 H 733.041 -2.87427 -7.03768 0
M  V30 7940 N 734.616 1.57351 0.0885366 0
M  V30 7941 C 735.579 2.01557 1.09121 0
M  V30 7942 C 736.579 0.910052 1.3257 0
M  V30 7943 O 737.769 1.17537 1.28572 0
M  V30 7944 C 734.901 2.38189 2.43883 0
M  V30 7945 H 736.094 2.91361 0.710562 0
M  V30 7946 H 733.647 1.52694 0.333779 0
M  V30 7947 H 734.382 1.5136 2.86811 0
M  V30 7948 H 734.167 3.18846 2.28209 0
M  V30 7949 H 735.657 2.73025 3.15986 0
M  V30 7950 N 736.094 -0.359525 1.53444 0
M  V30 7951 C 737.027 -1.46338 1.75101 0
M  V30 7952 C 738.005 -1.51142 0.599559 0
M  V30 7953 O 739.189 -1.69102 0.832862 0
M  V30 7954 C 736.316 -2.84667 1.83527 0
M  V30 7955 C 735.362 -2.9756 3.05549 0
M  V30 7956 S 736.195 -2.65685 4.64943 0
M  V30 7957 C 737.351 -4.06153 4.76225 0
M  V30 7958 H 737.584 -1.27747 2.68455 0
M  V30 7959 H 735.117 -0.554231 1.4411 0
M  V30 7960 H 737.075 -3.64368 1.89067 0
M  V30 7961 H 735.736 -3.00564 0.912147 0
M  V30 7962 H 734.929 -3.98883 3.08072 0
M  V30 7963 H 734.531 -2.25789 2.98153 0
M  V30 7964 H 736.823 -5.00475 4.56652 0
M  V30 7965 H 737.766 -4.08632 5.78295 0
M  V30 7966 H 738.174 -3.93435 4.04808 0
M  V30 7967 N 737.572 -1.44907 -0.619662 0
M  V30 7968 C 738.983 -1.42905 -1.20146 0
M  V30 7969 C 739.334 -0.150341 -1.95623 0
M  V30 7970 O 738.459 0.748732 -2.03034 0
M  V30 7971 C 739.054 -2.58889 -2.18545 0
M  V30 7972 C 737.613 -2.60046 -2.72127 0
M  V30 7973 C 736.76 -2.3493 -1.4732 0
M  V30 7974 H 739.711 -1.53321 -0.409666 0
M  V30 7975 H 739.732 -2.32298 -3.0136 0
M  V30 7976 H 739.244 -3.51941 -1.63583 0
M  V30 7977 H 737.345 -1.70968 -3.3106 0
M  V30 7978 H 737.458 -3.58893 -3.17384 0
M  V30 7979 H 735.822 -1.84248 -1.75855 0
M  V30 7980 H 736.605 -3.3011 -0.942442 0
M  V30 7981 N 739.05 0.861098 -1.31996 0
M  V30 7982 C 740.296 1.61721 -1.22369 0
M  V30 7983 C 740.629 1.93 0.215587 0
M  V30 7984 O 739.904 1.56789 1.15098 0
M  V30 7985 C 740.187 2.9417 -2.07691 0
M  V30 7986 C 740.04 2.69714 -3.59965 0
M  V30 7987 C 741.359 3.95372 -1.93312 0
M  V30 7988 H 738.478 0.586822 -0.44588 0
M  V30 7989 H 741.12 0.994788 -1.61876 0
M  V30 7990 H 739.27 3.47292 -1.74128 0
M  V30 7991 H 740.942 2.23196 -4.03709 0
M  V30 7992 H 739.185 2.03789 -3.82952 0
M  V30 7993 H 739.856 3.63996 -4.14983 0
M  V30 7994 H 742.332 3.51487 -2.22701 0
M  V30 7995 H 741.208 4.85916 -2.55298 0
M  V30 7996 H 741.469 4.32865 -0.898922 0
M  V30 7997 N 740.528 1.15101 1.07655 0
M  V30 7998 C 741.491 0.847625 2.12951 0
M  V30 7999 C 742.491 -0.151227 1.60087 0
M  V30 8000 O 743.681 0.0780399 1.74025 0
M  V30 8001 C 740.813 0.265 3.39868 0
M  V30 8002 H 742.006 1.7809 2.41296 0
M  V30 8003 H 739.559 0.958072 1.23494 0
M  V30 8004 H 740.294 -0.676625 3.17163 0
M  V30 8005 H 740.079 0.984554 3.79538 0
M  V30 8006 H 741.569 0.0702121 4.17541 0
M  V30 8007 N 742.006 -1.2595 0.947325 0
M  V30 8008 C 743.417 -1.75389 0.639963 0
M  V30 8009 C 743.768 -1.77081 -0.844788 0
M  V30 8010 O 742.893 -1.3869 -1.66114 0
M  V30 8011 C 743.488 -3.18506 1.15496 0
M  V30 8012 C 742.047 -3.65534 0.897894 0
M  V30 8013 C 741.194 -2.44818 1.30228 0
M  V30 8014 H 744.145 -1.1194 1.12495 0
M  V30 8015 H 744.166 -3.77045 0.511627 0
M  V30 8016 H 743.678 -3.17243 2.23559 0
M  V30 8017 H 741.779 -3.72221 -0.168096 0
M  V30 8018 H 741.892 -4.54039 1.52922 0
M  V30 8019 H 740.256 -2.44291 0.720678 0
M  V30 8020 H 741.039 -2.46251 2.39198 0
M  V30 8021 N 743.484 -0.715051 -1.40445 0
M  V30 8022 C 744.414 -0.0768699 -2.33373 0
M  V30 8023 C 745.395 0.746109 -1.52863 0
M  V30 8024 O 746.58 0.695142 -1.81332 0
M  V30 8025 C 743.71 0.846014 -3.36838 0
M  V30 8026 C 742.664 0.128694 -4.27806 0
M  V30 8027 C 741.99 1.16726 -5.21804 0
M  V30 8028 C 743.29 -1.01679 -5.12307 0
M  V30 8029 H 744.984 -0.853061 -2.8699 0
M  V30 8030 H 742.53 -0.41167 -1.3799 0
M  V30 8031 H 744.483 1.30185 -4.00786 0
M  V30 8032 H 743.207 1.6541 -2.81615 0
M  V30 8033 H 741.866 -0.307314 -3.6531 0
M  V30 8034 H 741.514 1.96838 -4.62887 0
M  V30 8035 H 741.214 0.692188 -5.83509 0
M  V30 8036 H 742.738 1.62321 -5.88629 0
M  V30 8037 H 744.152 -0.640337 -5.69713 0
M  V30 8038 H 742.549 -1.4202 -5.83053 0
M  V30 8039 H 743.619 -1.84769 -4.48317 0
M  V30 8040 N 744.962 1.50701 -0.461195 0
M  V30 8041 C 746.209 2.02267 0.0971971 0
M  V30 8042 C 746.537 1.34387 1.40608 0
M  V30 8043 O 745.792 0.455254 1.90331 0
M  V30 8044 C 746.091 3.55788 0.33908 0
M  V30 8045 C 745.757 4.42092 -0.886885 0
M  V30 8046 C 744.419 4.65398 -1.22304 0
M  V30 8047 C 746.771 4.92571 -1.70361 0
M  V30 8048 C 744.099 5.36429 -2.37616 0
M  V30 8049 C 746.451 5.64868 -2.84793 0
M  V30 8050 C 745.115 5.86431 -3.18834 0
M  V30 8051 H 744.385 0.740146 0.0355669 0
M  V30 8052 H 747.032 1.81415 -0.61326 0
M  V30 8053 H 745.337 3.751 1.13168 0
M  V30 8054 H 747.034 3.93243 0.784937 0
M  V30 8055 H 743.624 4.24165 -0.614981 0
M  V30 8056 H 747.808 4.74428 -1.4571 0
M  V30 8057 H 743.064 5.51333 -2.64276 0
M  V30 8058 H 747.238 6.02966 -3.48432 0
M  V30 8059 H 744.865 6.41248 -4.08296 0
M  V30 8060 N 746.441 0.193421 1.56409 0
M  V30 8061 C 747.351 -0.740112 2.2262 0
M  V30 8062 C 748.367 -1.23597 1.22474 0
M  V30 8063 O 749.543 -1.28348 1.55206 0
M  V30 8064 C 746.608 -1.94317 2.87127 0
M  V30 8065 C 745.669 -1.49205 4.02538 0
M  V30 8066 C 744.902 -2.63776 4.63959 0
M  V30 8067 O 745.125 -3.81215 4.24301 0
M  V30 8068 O 744.059 -2.36585 5.53454 0
M  V30 8069 H 747.885 -0.206238 3.02999 0
M  V30 8070 H 745.47 -0.0357938 1.49357 0
M  V30 8071 H 747.352 -2.64633 3.27944 0
M  V30 8072 H 746.027 -2.46568 2.09728 0
M  V30 8073 H 744.934 -0.757738 3.66346 0
M  V30 8074 H 746.267 -1.01622 4.81595 0
M  V30 8075 N 747.919 -1.57396 -0.0801906 0
M  V30 8076 C 749.147 -1.91055 -0.794075 0
M  V30 8077 C 749.562 -0.788583 -1.71542 0
M  V30 8078 O 748.919 0.238587 -1.80934 0
M  V30 8079 C 748.97 -3.24418 -1.59484 0
M  V30 8080 O 748.691 -4.323 -0.710532 0
M  V30 8081 C 750.192 -3.72037 -2.41046 0
M  V30 8082 H 747.412 -0.63171 -0.226238 0
M  V30 8083 H 749.956 -2.04431 -0.0529685 0
M  V30 8084 H 748.111 -3.12595 -2.2883 0
M  V30 8085 H 748.525 -5.08976 -1.26663 0
M  V30 8086 H 749.999 -4.68006 -2.92702 0
M  V30 8087 H 750.476 -3.00624 -3.2019 0
M  V30 8088 H 751.082 -3.86777 -1.76871 0
M  V30 8089 N 749.397 0.351382 -1.53633 0
M  V30 8090 C 750.327 1.43688 -1.84055 0
M  V30 8091 C 751.308 1.55251 -0.695073 0
M  V30 8092 O 752.493 1.69587 -0.946257 0
M  V30 8093 C 749.623 2.80843 -2.04315 0
M  V30 8094 C 748.577 2.84094 -3.20117 0
M  V30 8095 C 747.903 4.2406 -3.25696 0
M  V30 8096 C 749.203 2.50334 -4.58399 0
M  V30 8097 H 750.897 1.18478 -2.74961 0
M  V30 8098 H 748.443 0.568509 -1.32303 0
M  V30 8099 H 750.396 3.56821 -2.2418 0
M  V30 8100 H 749.12 3.07471 -1.10132 0
M  V30 8101 H 747.779 2.10568 -3.00094 0
M  V30 8102 H 747.427 4.47785 -2.29123 0
M  V30 8103 H 747.127 4.27147 -4.03509 0
M  V30 8104 H 748.651 5.0189 -3.47762 0
M  V30 8105 H 750.065 3.16025 -4.78332 0
M  V30 8106 H 748.462 2.64717 -5.38558 0
M  V30 8107 H 749.532 1.45542 -4.62543 0
M  V30 8108 N 750.875 1.45233 0.611969 0
M  V30 8109 C 752.152 1.39495 1.37115 0
M  V30 8110 C 752.532 0.0633303 2.11005 0
M  V30 8111 O 751.88 -0.954617 2.07604 0
M  V30 8112 C 752.09 2.60579 2.32163 0
M  V30 8113 C 753.438 3.05477 2.94905 0
M  V30 8114 O 754.462 2.60921 2.42485 0
M  V30 8115 O 753.321 3.82787 3.90047 0
M  V30 8116 H 750.415 0.55335 0.614599 0
M  V30 8117 H 752.961 1.57355 0.635423 0
M  V30 8118 H 751.733 3.49085 1.76793 0
M  V30 8119 H 751.356 2.45031 3.13122 0
M  V30 8120 N 752.353 -0.854086 1.3245 0
M  V30 8121 C 753.63 -1.59188 1.1366 0
M  V30 8122 C 754.01 -2.08917 -0.302807 0
M  V30 8123 O 753.358 -1.8795 -1.29951 0
M  V30 8124 C 753.568 -2.73757 2.16467 0
M  V30 8125 C 754.916 -3.43323 2.49829 0
M  V30 8126 O 755.94 -2.83983 2.15017 0
M  V30 8127 O 754.799 -4.50409 3.09506 0
M  V30 8128 H 751.893 -0.701092 0.438633 0
M  V30 8129 H 754.439 -0.898165 1.43983 0
M  V30 8130 H 753.211 -2.3454 3.1322 0
M  V30 8131 H 752.834 -3.50804 1.87142 0
M  V30 8132 N 753.831 -1.1567 -1.07043 0
M  V30 8133 C 754.761 -0.879348 -2.16309 0
M  V30 8134 C 755.742 0.171311 -1.69235 0
M  V30 8135 O 756.927 0.0250175 -1.94184 0
M  V30 8136 C 754.057 -0.371307 -3.45309 0
M  V30 8137 C 753.011 -1.359 -4.05851 0
M  V30 8138 C 752.337 -0.709678 -5.29969 0
M  V30 8139 C 753.637 -2.72606 -4.45514 0
M  V30 8140 H 755.331 -1.79308 -2.39768 0
M  V30 8141 H 752.877 -0.863558 -1.15233 0
M  V30 8142 H 754.83 -0.164798 -4.21078 0
M  V30 8143 H 753.554 0.577906 -3.21446 0
M  V30 8144 H 752.213 -1.55193 -3.32131 0
M  V30 8145 H 751.861 0.245782 -5.02399 0
M  V30 8146 H 751.561 -1.36886 -5.71433 0
M  V30 8147 H 753.085 -0.513015 -6.08441 0
M  V30 8148 H 754.499 -2.57141 -5.12398 0
M  V30 8149 H 752.896 -3.34927 -4.97939 0
M  V30 8150 H 753.966 -3.28434 -3.56734 0
M  V30 8151 N 755.309 1.25446 -0.953992 0
M  V30 8152 C 756.257 2.27909 -0.46478 0
M  V30 8153 C 757.251 1.62904 0.464607 0
M  V30 8154 O 758.457 1.76733 0.341407 0
M  V30 8155 H 754.832 0.74036 -0.131798 0
M  V30 8156 H 756.803 2.66559 -1.34122 0
M  V30 8157 C 755.552 3.46853 0.242589 0
M  V30 8158 H 754.875 3.97105 -0.463418 0
M  V30 8159 H 756.315 4.20432 0.548919 0
M  V30 8160 C 754.774 3.03386 1.46487 0
M  V30 8161 O 755.304 3.09342 2.56262 0
M  V30 8162 N 753.51 2.58584 1.32599 0
M  V30 8163 H 753.057 2.53938 0.432834 0
M  V30 8164 H 753.015 2.29866 2.14497 0
M  V30 8165 N 756.787 0.722489 1.40064 0
M  V30 8166 C 757.735 0.063329 2.32514 0
M  V30 8167 C 758.729 -0.73953 1.52405 0
M  V30 8168 O 759.935 -0.642122 1.68157 0
M  V30 8169 H 756.31 0.00167692 0.751998 0
M  V30 8170 H 758.281 0.859656 2.85749 0
M  V30 8171 C 757.03 -0.839219 3.3742 0
M  V30 8172 H 756.353 -0.230836 3.99133 0
M  V30 8173 H 757.793 -1.26827 4.04587 0
M  V30 8174 C 756.252 -1.96783 2.73456 0
M  V30 8175 O 756.782 -3.05933 2.60323 0
M  V30 8176 N 754.988 -1.75351 2.31734 0
M  V30 8177 H 754.535 -0.865787 2.42615 0
M  V30 8178 H 754.493 -2.51043 1.89275 0
M  V30 8179 N 758.265 -1.50454 0.469181 0
M  V30 8180 C 759.228 -2.2703 -0.314643 0
M  V30 8181 C 760.228 -1.31734 -0.922111 0
M  V30 8182 O 761.418 -1.55176 -0.791588 0
M  V30 8183 C 758.55 -3.08616 -1.44806 0
M  V30 8184 H 759.743 -2.97769 0.356892 0
M  V30 8185 H 757.296 -1.54698 0.223191 0
M  V30 8186 H 758.031 -2.42369 -2.1547 0
M  V30 8187 H 757.816 -3.78647 -1.01829 0
M  V30 8188 H 759.306 -3.66536 -2.00103 0
M  V30 8189 N 759.743 -0.201713 -1.56304 0
M  V30 8190 C 760.691 0.733133 -2.20744 0
M  V30 8191 C 761.685 1.2148 -1.18064 0
M  V30 8192 O 762.891 1.17692 -1.36193 0
M  V30 8193 H 759.266 0.254789 -0.707521 0
M  V30 8194 H 761.237 0.165996 -2.97938 0
M  V30 8195 C 759.986 1.93925 -2.88597 0
M  V30 8196 H 759.309 1.5777 -3.67353 0
M  V30 8197 H 760.749 2.57158 -3.37114 0
M  V30 8198 C 759.208 2.78219 -1.89989 0
M  V30 8199 O 759.738 3.76353 -1.40432 0
M  V30 8200 N 757.944 2.43847 -1.58072 0
M  V30 8201 H 757.491 1.64103 -1.98565 0
M  V30 8202 H 757.449 3.0053 -0.923524 0
M  V30 8203 N 761.222 1.57436 0.0718424 0
M  V30 8204 C 762.499 1.78312 0.804006 0
M  V30 8205 C 762.879 0.789273 1.9579 0
M  V30 8206 O 762.227 -0.177605 2.27809 0
M  V30 8207 C 762.437 3.24798 1.277 0
M  V30 8208 C 763.785 3.88627 1.71039 0
M  V30 8209 O 764.809 3.28689 1.37266 0
M  V30 8210 O 763.668 4.94073 2.33567 0
M  V30 8211 H 760.762 0.73178 0.385262 0
M  V30 8212 H 763.308 1.69621 0.0519219 0
M  V30 8213 H 762.08 3.88688 0.45134 0
M  V30 8214 H 761.703 3.38213 2.0904 0
M  V30 8215 N 762.7 -0.34323 1.53817 0
M  V30 8216 C 763.946 -1.08504 1.71332 0
M  V30 8217 C 764.279 -1.88294 0.475285 0
M  V30 8218 O 763.554 -1.87205 -0.527688 0
M  V30 8219 C 763.837 -2.02597 2.97702 0
M  V30 8220 C 763.69 -1.26268 4.31713 0
M  V30 8221 C 765.009 -3.0241 3.19744 0
M  V30 8222 H 762.128 -0.393072 0.623429 0
M  V30 8223 H 764.77 -0.363579 1.86489 0
M  V30 8224 H 762.92 -2.64118 2.8491 0
M  V30 8225 H 764.592 -0.673594 4.56356 0
M  V30 8226 H 762.835 -0.564696 4.30109 0
M  V30 8227 H 763.506 -1.95253 5.16314 0
M  V30 8228 H 765.982 -2.51004 3.31868 0
M  V30 8229 H 764.858 -3.65449 4.09558 0
M  V30 8230 H 765.119 -3.73806 2.36054 0
M  V30 8231 N 764.178 -1.45556 -0.604258 0
M  V30 8232 C 765.111 -1.48975 -1.72863 0
M  V30 8233 C 766.089 -0.345803 -1.5888 0
M  V30 8234 O 767.273 -0.546796 -1.80395 0
M  V30 8235 C 764.4 -1.34794 -3.10722 0
M  V30 8236 C 763.446 -2.53096 -3.43285 0
M  V30 8237 S 764.279 -4.15551 -3.37754 0
M  V30 8238 C 765.435 -4.03842 -4.78187 0
M  V30 8239 H 765.668 -2.44108 -1.69701 0
M  V30 8240 H 763.201 -1.33179 -0.781194 0
M  V30 8241 H 765.159 -1.273 -3.90263 0
M  V30 8242 H 763.82 -0.411254 -3.11396 0
M  V30 8243 H 763.013 -2.39109 -4.4367 0
M  V30 8244 H 762.615 -2.57469 -2.71267 0
M  V30 8245 H 764.907 -3.69191 -5.6807 0
M  V30 8246 H 765.85 -5.0415 -4.97231 0
M  V30 8247 H 766.258 -3.35443 -4.54025 0
M  V30 8248 N 765.656 0.84705 -1.32902 0
M  V30 8249 C 766.884 1.63403 -1.26913 0
M  V30 8250 C 767.299 1.88108 0.161483 0
M  V30 8251 O 766.656 1.45546 1.10103 0
M  V30 8252 C 766.707 2.98896 -2.03331 0
M  V30 8253 O 766.428 2.75281 -3.40811 0
M  V30 8254 C 767.929 3.93335 -2.04457 0
M  V30 8255 H 765.149 0.508701 -0.437566 0
M  V30 8256 H 767.693 1.05567 -1.75145 0
M  V30 8257 H 765.848 3.53356 -1.58802 0
M  V30 8258 H 766.262 3.61504 -3.8002 0
M  V30 8259 H 767.736 4.85647 -2.62394 0
M  V30 8260 H 768.213 4.26885 -1.03274 0
M  V30 8261 H 768.819 3.44812 -2.48967 0
M  V30 8262 N 767.134 1.16236 1.06428 0
M  V30 8263 C 768.066 0.825446 2.1382 0
M  V30 8264 C 769.079 -0.166707 1.61944 0
M  V30 8265 O 770.268 0.0578606 1.78406 0
M  V30 8266 C 767.368 0.208023 3.38261 0
M  V30 8267 C 766.541 1.23994 4.19457 0
M  V30 8268 C 765.6 0.642569 5.22262 0
M  V30 8269 O 764.626 1.31106 5.53895 0
M  V30 8270 N 765.828 -0.571327 5.77682 0
M  V30 8271 H 768.593 1.7497 2.43322 0
M  V30 8272 H 766.154 1.05951 1.22417 0
M  V30 8273 H 768.146 -0.204608 4.04182 0
M  V30 8274 H 766.716 -0.619752 3.06395 0
M  V30 8275 H 765.936 1.82879 3.49212 0
M  V30 8276 H 767.224 1.93638 4.70512 0
M  V30 8277 H 766.622 -1.13263 5.54245 0
M  V30 8278 H 765.179 -0.926187 6.45186 0
M  V30 8279 N 768.612 -1.24939 0.960631 0
M  V30 8280 C 769.542 -2.28 0.503815 0
M  V30 8281 C 770.523 -1.63959 -0.452928 0
M  V30 8282 O 771.708 -1.91009 -0.350585 0
M  V30 8283 C 768.838 -3.46643 -0.213535 0
M  V30 8284 C 767.792 -4.22903 0.658535 0
M  V30 8285 C 767.118 -5.34363 -0.189902 0
M  V30 8286 C 768.418 -4.84949 1.93963 0
M  V30 8287 H 770.112 -2.66462 1.36521 0
M  V30 8288 H 767.658 -1.28093 0.657897 0
M  V30 8289 H 769.611 -4.1787 -0.544286 0
M  V30 8290 H 768.335 -3.07187 -1.10923 0
M  V30 8291 H 766.994 -3.53467 0.972455 0
M  V30 8292 H 766.642 -4.91147 -1.08553 0
M  V30 8293 H 766.342 -5.86302 0.390331 0
M  V30 8294 H 767.866 -6.0842 -0.515484 0
M  V30 8295 H 769.28 -5.48288 1.67491 0
M  V30 8296 H 767.677 -5.47091 2.46601 0
M  V30 8297 H 768.747 -4.06799 2.639 0
M  V30 8298 N 770.09 -0.729906 -1.39679 0
M  V30 8299 C 771.02 -0.101618 -2.33279 0
M  V30 8300 C 772.001 0.729854 -1.53646 0
M  V30 8301 O 773.186 0.67587 -1.82059 0
M  V30 8302 C 770.316 0.81024 -3.37716 0
M  V30 8303 C 769.27 0.0833126 -4.27919 0
M  V30 8304 C 768.596 1.11185 -5.23012 0
M  V30 8305 C 769.896 -1.07107 -5.112 0
M  V30 8306 H 771.59 -0.883452 -2.86069 0
M  V30 8307 H 769.136 -0.426283 -1.37546 0
M  V30 8308 H 771.089 1.25927 -4.02145 0
M  V30 8309 H 769.813 1.62413 -2.83354 0
M  V30 8310 H 768.472 -0.346043 -3.64963 0
M  V30 8311 H 768.12 1.91917 -4.64948 0
M  V30 8312 H 767.82 0.63026 -5.8421 0
M  V30 8313 H 769.344 1.56068 -5.90318 0
M  V30 8314 H 770.758 -0.700726 -5.69002 0
M  V30 8315 H 769.155 -1.48196 -5.81514 0
M  V30 8316 H 770.225 -1.89513 -4.46332 0
M  V30 8317 N 771.568 1.50203 -0.477153 0
M  V30 8318 C 772.516 2.30278 0.327826 0
M  V30 8319 C 773.51 1.37831 0.984839 0
M  V30 8320 O 774.716 1.54994 0.915251 0
M  V30 8321 H 771.091 0.741612 0.124564 0
M  V30 8322 H 773.062 2.96124 -0.367853 0
M  V30 8323 C 771.811 3.18548 1.39365 0
M  V30 8324 H 771.134 3.89596 0.897475 0
M  V30 8325 H 772.574 3.77561 1.92934 0
M  V30 8326 C 771.033 2.36548 2.39889 0
M  V30 8327 O 771.563 2.05282 3.45286 0
M  V30 8328 N 769.769 1.99015 2.11758 0
M  V30 8329 H 769.316 2.24641 1.26071 0
M  V30 8330 H 769.274 1.44454 2.7925 0
M  V30 8331 N 773.046 0.209999 1.56195 0
M  V30 8332 C 774.295 -0.425106 1.97169 0
M  V30 8333 C 774.608 -1.61718 1.10031 0
M  V30 8334 O 775.814 -2.32105 1.40853 0
M  V30 8335 C 774.27 -0.80771 3.50719 0
M  V30 8336 C 773.878 0.360902 4.46544 0
M  V30 8337 C 775.622 -1.40906 4.00432 0
M  V30 8338 C 773.529 -0.0434919 5.91384 0
M  V30 8339 H 772.459 -0.162598 0.736259 0
M  V30 8340 H 775.11 0.304382 1.80958 0
M  V30 8341 H 773.492 -1.59429 3.62489 0
M  V30 8342 H 774.666 1.13846 4.46515 0
M  V30 8343 H 772.981 0.874729 4.07109 0
M  V30 8344 H 775.578 -1.72433 5.06133 0
M  V30 8345 H 775.921 -2.32081 3.45607 0
M  V30 8346 H 776.454 -0.686154 3.91838 0
M  V30 8347 H 773.193 0.834448 6.50167 0
M  V30 8348 H 772.713 -0.785598 5.94633 0
M  V30 8349 H 774.392 -0.474176 6.4526 0
M  V30 8350 N 774.524 -1.57472 -0.0634922 0
M  V30 8351 C 775.801 -1.78736 -0.794538 0
M  V30 8352 C 776.181 -0.799645 -1.95369 0
M  V30 8353 O 775.529 0.165521 -2.279 0
M  V30 8354 C 775.739 -3.25471 -1.25975 0
M  V30 8355 C 777.087 -3.89528 -1.68976 0
M  V30 8356 O 778.111 -3.29412 -1.35521 0
M  V30 8357 O 776.97 -4.95305 -2.30944 0
M  V30 8358 H 774.064 -0.733813 -0.381376 0
M  V30 8359 H 776.61 -1.69646 -0.0429258 0
M  V30 8360 H 775.382 -3.88922 -0.430721 0
M  V30 8361 H 775.005 -3.39317 -2.07243 0
M  V30 8362 N 776.003 0.335068 -1.53997 0
M  V30 8363 C 777.249 1.07222 -1.72844 0
M  V30 8364 C 777.604 1.86054 -0.490075 0
M  V30 8365 O 776.897 1.84481 0.517416 0
M  V30 8366 C 777.091 2.0364 -2.9371 0
M  V30 8367 C 776.92 1.34287 -4.29182 0
M  V30 8368 C 775.69 1.08417 -4.93532 0
M  V30 8369 C 777.888 0.764703 -5.08583 0
M  V30 8370 N 775.87 0.357342 -6.12859 0
M  V30 8371 C 777.241 0.168876 -6.1977 0
M  V30 8372 C 779.296 0.666383 -4.9342 0
M  V30 8373 C 777.999 -0.515716 -7.17449 0
M  V30 8374 C 780.025 -0.0044859 -5.914 0
M  V30 8375 C 779.387 -0.589305 -7.01931 0
M  V30 8376 H 775.486 0.376448 -0.685427 0
M  V30 8377 H 778.07 0.354778 -1.9144 0
M  V30 8378 H 776.241 2.72668 -2.76599 0
M  V30 8379 H 777.973 2.70256 -3.01237 0
M  V30 8380 H 774.728 1.37351 -4.53246 0
M  V30 8381 H 775.152 0.00840481 -6.76999 0
M  V30 8382 H 779.794 1.10426 -4.08125 0
M  V30 8383 H 777.512 -0.965457 -8.02312 0
M  V30 8384 H 781.098 -0.0800446 -5.81745 0
M  V30 8385 H 779.978 -1.10019 -7.76444 0
M  V30 8386 N 777.481 1.45874 0.596531 0
M  V30 8387 C 778.711 1.5379 1.37958 0
M  V30 8388 C 779.119 0.173086 1.88407 0
M  V30 8389 O 778.462 -0.837498 1.63498 0
M  V30 8390 C 778.524 2.47044 2.61169 0
M  V30 8391 C 778.188 3.93565 2.32283 0
M  V30 8392 C 779.185 4.83162 1.91965 0
M  V30 8393 C 776.87 4.38579 2.44854 0
M  V30 8394 C 778.864 6.15782 1.64593 0
M  V30 8395 C 776.551 5.71238 2.17095 0
M  V30 8396 C 777.549 6.59659 1.77028 0
M  V30 8397 O 777.237 7.89857 1.49601 0
M  V30 8398 H 776.969 0.523 0.428307 0
M  V30 8399 H 779.523 1.91855 0.733529 0
M  V30 8400 H 777.753 2.0397 3.28532 0
M  V30 8401 H 779.442 2.4552 3.23226 0
M  V30 8402 H 780.208 4.49646 1.8178 0
M  V30 8403 H 776.087 3.6999 2.75006 0
M  V30 8404 H 779.631 6.84757 1.33245 0
M  V30 8405 H 775.528 6.04306 2.26901 0
M  V30 8406 H 776.296 8.01991 1.63561 0
M  V30 8407 N 778.959 -0.83999 1.33349 0
M  V30 8408 C 780.375 -1.13049 1.12659 0
M  V30 8409 C 780.575 -2.01328 -0.0832613 0
M  V30 8410 O 779.631 -2.40669 -0.763856 0
M  V30 8411 C 780.944 -1.79366 2.41347 0
M  V30 8412 C 782.492 -1.91937 2.47243 0
M  V30 8413 C 782.967 -2.6167 3.75889 0
M  V30 8414 N 784.458 -2.69184 3.76954 0
M  V30 8415 C 785.193 -3.23827 4.73206 0
M  V30 8416 N 784.689 -3.79166 5.79832 0
M  V30 8417 N 786.482 -3.22068 4.60683 0
M  V30 8418 H 778.633 -0.252432 2.10895 0
M  V30 8419 H 780.896 -0.174501 0.931801 0
M  V30 8420 H 780.602 -1.2196 3.29877 0
M  V30 8421 H 780.476 -2.79396 2.53412 0
M  V30 8422 H 782.863 -2.48498 1.59163 0
M  V30 8423 H 782.944 -0.908604 2.39119 0
M  V30 8424 H 782.588 -2.05769 4.64351 0
M  V30 8425 H 782.518 -3.63217 3.81289 0
M  V30 8426 H 785.009 -2.2994 2.99893 0
M  V30 8427 H 785.322 -4.19061 6.49313 0
M  V30 8428 H 783.667 -3.77457 5.83568 0
M  V30 8429 H 786.858 -2.78092 3.7654 0
M  V30 8430 H 787.031 -3.64351 5.35866 0
M  V30 8431 N 780.437 -1.16799 -1.0581 0
M  V30 8432 C 781.685 -0.950642 -1.78346 0
M  V30 8433 C 782.006 0.522524 -1.87869 0
M  V30 8434 O 781.276 1.3795 -1.39092 0
M  V30 8435 H 779.856 -0.348736 -0.6606 0
M  V30 8436 H 782.518 -1.47158 -1.27791 0
M  V30 8437 H 781.614 -1.37359 -2.80248 0
M  V30 8438 N 781.915 1.24427 -0.967243 0
M  V30 8439 C 782.845 2.2773 -0.515899 0
M  V30 8440 C 783.826 1.64197 0.444227 0
M  V30 8441 O 785.011 1.91193 0.340451 0
M  V30 8442 C 782.141 3.46751 0.195149 0
M  V30 8443 C 781.095 4.22548 -0.680953 0
M  V30 8444 C 780.421 5.34456 0.161561 0
M  V30 8445 C 781.721 4.83914 -1.96532 0
M  V30 8446 H 783.415 2.65735 -1.37933 0
M  V30 8447 H 780.961 1.27742 -0.664681 0
M  V30 8448 H 782.914 4.18153 0.522117 0
M  V30 8449 H 781.638 3.07771 1.09292 0
M  V30 8450 H 780.297 3.52946 -0.991186 0
M  V30 8451 H 779.945 4.91716 1.05947 0
M  V30 8452 H 779.645 5.86087 -0.421418 0
M  V30 8453 H 781.169 6.08685 0.483211 0
M  V30 8454 H 782.583 5.47392 -1.70396 0
M  V30 8455 H 780.98 5.45775 -2.49499 0
M  V30 8456 H 782.05 4.05393 -2.66053 0
M  V30 8457 N 783.393 0.737304 1.3929 0
M  V30 8458 C 784.642 0.283129 1.99703 0
M  V30 8459 C 784.955 -1.13677 1.59176 0
M  V30 8460 O 786.161 -1.69058 2.12442 0
M  V30 8461 C 784.617 0.455262 3.57009 0
M  V30 8462 C 784.225 1.88319 4.06497 0
M  V30 8463 C 785.969 0.0629786 4.24453 0
M  V30 8464 C 783.876 2.00475 5.56385 0
M  V30 8465 H 782.806 0.102106 0.747054 0
M  V30 8466 H 785.457 0.911515 1.5926 0
M  V30 8467 H 783.839 -0.242057 3.9526 0
M  V30 8468 H 785.013 2.61265 3.79575 0
M  V30 8469 H 783.328 2.2289 3.51723 0
M  V30 8470 H 785.925 0.132787 5.34535 0
M  V30 8471 H 786.268 -0.982128 4.04549 0
M  V30 8472 H 786.801 0.71154 3.91385 0
M  V30 8473 H 783.54 3.03182 5.81172 0
M  V30 8474 H 783.06 1.31969 5.85102 0
M  V30 8475 H 784.739 1.787 6.21832 0
M  V30 8476 N 784.871 -1.49948 0.485112 0
M  V30 8477 C 785.803 -2.26691 -0.338222 0
M  V30 8478 C 786.816 -1.32584 -0.944742 0
M  V30 8479 O 788.005 -1.57989 -0.830772 0
M  V30 8480 C 785.105 -3.04405 -1.48966 0
M  V30 8481 C 784.278 -4.25971 -0.993371 0
M  V30 8482 C 783.337 -4.85861 -2.02052 0
M  V30 8483 O 782.363 -5.46382 -1.59547 0
M  V30 8484 N 783.565 -4.74101 -3.34975 0
M  V30 8485 H 786.33 -2.97989 0.319748 0
M  V30 8486 H 783.891 -1.58772 0.316714 0
M  V30 8487 H 785.883 -3.41348 -2.17403 0
M  V30 8488 H 784.453 -2.35815 -2.05207 0
M  V30 8489 H 783.673 -3.93971 -0.134424 0
M  V30 8490 H 784.961 -5.0476 -0.639934 0
M  V30 8491 H 784.359 -4.26002 -3.72208 0
M  V30 8492 H 782.916 -5.15274 -3.9917 0
M  V30 8493 N 786.349 -0.21828 -1.56081 0
M  V30 8494 C 787.597 0.413488 -1.97825 0
M  V30 8495 C 787.918 1.60527 -1.10707 0
M  V30 8496 O 787.188 1.9504 -0.183378 0
M  V30 8497 H 785.768 0.155757 -0.730581 0
M  V30 8498 H 788.43 -0.310413 -1.92412 0
M  V30 8499 H 787.526 0.742024 -3.03151 0
M  V30 8500 N 787.827 1.57504 0.0551401 0
M  V30 8501 C 788.774 2.04825 1.06373 0
M  V30 8502 C 789.744 0.932108 1.37481 0
M  V30 8503 O 790.929 1.20093 1.48265 0
M  V30 8504 C 788.069 2.51091 2.36743 0
M  V30 8505 C 787.182 3.76392 2.12021 0
M  V30 8506 C 786.317 4.11373 3.36074 0
M  V30 8507 C 785.356 5.29666 3.0679 0
M  V30 8508 N 784.493 5.60205 4.2322 0
M  V30 8509 H 789.333 2.90753 0.653216 0
M  V30 8510 H 786.87 1.43776 0.310951 0
M  V30 8511 H 788.828 2.75973 3.12881 0
M  V30 8512 H 787.458 1.68118 2.75565 0
M  V30 8513 H 786.51 3.58751 1.26498 0
M  V30 8514 H 787.822 4.62662 1.86401 0
M  V30 8515 H 786.976 4.37245 4.20597 0
M  V30 8516 H 785.715 3.23704 3.64784 0
M  V30 8517 H 784.72 5.03574 2.20664 0
M  V30 8518 H 785.945 6.18968 2.79385 0
M  V30 8519 H 783.891 4.75495 4.5193 0
M  V30 8520 H 783.808 6.40928 4.00933 0
M  V30 8521 H 785.076 5.90637 5.08692 0
M  V30 8522 N 789.305 -0.326896 1.54172 0
M  V30 8523 C 790.237 -1.42319 1.79661 0
M  V30 8524 C 791.25 -1.47989 0.678456 0
M  V30 8525 O 792.439 -1.50773 0.955503 0
M  V30 8526 C 789.539 -2.80876 1.89636 0
M  V30 8527 C 788.712 -2.98449 3.19761 0
M  V30 8528 C 787.771 -4.17347 3.2048 0
M  V30 8529 O 786.797 -4.10667 3.94134 0
M  V30 8530 N 787.999 -5.26717 2.44027 0
M  V30 8531 H 790.764 -1.20819 2.74268 0
M  V30 8532 H 788.325 -0.516866 1.53428 0
M  V30 8533 H 790.317 -3.58619 1.87549 0
M  V30 8534 H 788.887 -2.95442 1.02141 0
M  V30 8535 H 788.107 -2.08035 3.34836 0
M  V30 8536 H 789.395 -3.07083 4.05681 0
M  V30 8537 H 788.793 -5.35019 1.8377 0
M  V30 8538 H 787.35 -6.02891 2.47721 0
M  V30 8539 N 790.784 -1.46188 -0.588786 0
M  V30 8540 C 791.717 -1.508 -1.71274 0
M  V30 8541 C 792.695 -0.362635 -1.58505 0
M  V30 8542 O 793.879 -0.565899 -1.79805 0
M  V30 8543 C 791.006 -1.38082 -3.09275 0
M  V30 8544 C 790.052 -2.56723 -3.40581 0
M  V30 8545 S 790.885 -4.1911 -3.33327 0
M  V30 8546 C 792.041 -4.08891 -4.73877 0
M  V30 8547 H 792.274 -2.45895 -1.67102 0
M  V30 8548 H 789.807 -1.34 -0.767025 0
M  V30 8549 H 791.765 -1.31432 -3.88891 0
M  V30 8550 H 790.426 -0.444259 -3.10942 0
M  V30 8551 H 789.619 -2.43801 -4.41109 0
M  V30 8552 H 789.221 -2.60332 -2.68521 0
M  V30 8553 H 791.513 -3.75196 -5.64123 0
M  V30 8554 H 792.456 -5.09395 -4.91856 0
M  V30 8555 H 792.864 -3.40239 -4.50441 0
M  V30 8556 N 792.262 0.832906 -1.33792 0
M  V30 8557 C 793.508 1.59089 -1.25772 0
M  V30 8558 C 793.841 1.93414 0.174601 0
M  V30 8559 O 793.116 1.59195 1.11746 0
M  V30 8560 C 793.399 2.89699 -2.13885 0
M  V30 8561 C 793.252 2.62017 -3.65605 0
M  V30 8562 C 794.571 3.91182 -2.01654 0
M  V30 8563 H 791.69 0.577232 -0.458227 0
M  V30 8564 H 794.332 0.960227 -1.6395 0
M  V30 8565 H 792.482 3.4352 -1.81456 0
M  V30 8566 H 794.154 2.14582 -4.08353 0
M  V30 8567 H 792.397 1.95621 -3.87189 0
M  V30 8568 H 793.068 3.55112 -4.2261 0
M  V30 8569 H 795.544 3.46684 -2.30107 0
M  V30 8570 H 794.42 4.80391 -2.65548 0
M  V30 8571 H 794.681 4.30861 -0.990536 0
M  V30 8572 N 793.74 1.17359 1.05189 0
M  V30 8573 C 794.673 0.833768 2.12423 0
M  V30 8574 C 795.651 -0.19945 1.61372 0
M  V30 8575 O 796.835 -0.080979 1.88326 0
M  V30 8576 C 793.962 0.243745 3.37822 0
M  V30 8577 C 793.008 1.25235 4.07699 0
M  V30 8578 S 793.841 2.80368 4.56239 0
M  V30 8579 C 794.997 2.22846 5.84885 0
M  V30 8580 H 795.23 1.74197 2.40921 0
M  V30 8581 H 792.763 0.998242 1.1779 0
M  V30 8582 H 794.721 -0.0901915 4.10401 0
M  V30 8583 H 793.382 -0.642396 3.07461 0
M  V30 8584 H 792.575 0.788168 4.97799 0
M  V30 8585 H 792.177 1.53194 3.41185 0
M  V30 8586 H 794.469 1.60403 6.58238 0
M  V30 8587 H 795.412 3.112 6.3605 0
M  V30 8588 H 795.82 1.66296 5.39449 0
M  V30 8589 N 795.218 -1.23913 0.973828 0
M  V30 8590 C 796.467 -1.91455 0.63464 0
M  V30 8591 C 796.78 -1.76893 -0.834759 0
M  V30 8592 O 797.986 -2.3918 -1.28473 0
M  V30 8593 C 796.442 -3.43172 1.08447 0
M  V30 8594 C 796.05 -3.66409 2.57776 0
M  V30 8595 C 797.794 -4.1653 0.818721 0
M  V30 8596 C 795.701 -5.11728 2.9646 0
M  V30 8597 H 794.631 -0.716881 0.233661 0
M  V30 8598 H 797.282 -1.40457 1.18085 0
M  V30 8599 H 795.664 -3.93242 0.466524 0
M  V30 8600 H 796.838 -3.26913 3.24753 0
M  V30 8601 H 795.153 -3.06349 2.82027 0
M  V30 8602 H 797.75 -5.23603 1.08367 0
M  V30 8603 H 798.093 -4.15578 -0.245128 0
M  V30 8604 H 798.626 -3.72428 1.39793 0
M  V30 8605 H 795.365 -5.17806 4.01941 0
M  V30 8606 H 794.885 -5.52199 2.34172 0
M  V30 8607 H 796.564 -5.80009 2.86703 0
M  V30 8608 N 796.696 -0.74468 -1.38897 0
M  V30 8609 C 797.944 -0.296298 -1.99916 0
M  V30 8610 C 798.265 1.12325 -1.59399 0
M  V30 8611 O 797.535 1.76658 -0.846689 0
M  V30 8612 H 796.115 -0.106561 -0.73936 0
M  V30 8613 H 798.777 -0.956793 -1.69798 0
M  V30 8614 H 797.873 -0.352356 -3.10105 0
M  V30 8615 N 798.174 1.49689 -0.493057 0
M  V30 8616 C 799.404 2.06536 0.0512397 0
M  V30 8617 C 799.812 1.35459 1.32089 0
M  V30 8618 O 799.155 0.424145 1.78736 0
M  V30 8619 C 799.217 3.57452 0.383231 0
M  V30 8620 C 798.881 4.50163 -0.787555 0
M  V30 8621 C 799.878 4.92151 -1.67582 0
M  V30 8622 C 797.563 4.92565 -0.984109 0
M  V30 8623 C 799.557 5.7527 -2.74487 0
M  V30 8624 C 797.244 5.75463 -2.05634 0
M  V30 8625 C 798.242 6.16719 -2.93507 0
M  V30 8626 O 797.93 6.97961 -3.98881 0
M  V30 8627 H 797.662 0.675862 -0.0136516 0
M  V30 8628 H 800.216 1.9356 -0.687298 0
M  V30 8629 H 798.446 3.68408 1.17526 0
M  V30 8630 H 800.135 3.96572 0.8652 0
M  V30 8631 H 800.901 4.60043 -1.53575 0
M  V30 8632 H 796.78 4.5996 -0.309541 0
M  V30 8633 H 800.324 6.07392 -3.43104 0
M  V30 8634 H 796.221 6.06983 -2.19639 0
M  V30 8635 H 796.989 7.16253 -3.96137 0
M  V30 8636 N 799.652 0.226554 1.55963 0
M  V30 8637 C 800.877 -0.411527 2.03276 0
M  V30 8638 C 801.302 -1.52206 1.10521 0
M  V30 8639 O 800.66 -1.81054 0.0943217 0
M  V30 8640 C 800.708 -0.915694 3.4878 0
M  V30 8641 O 799.812 -2.02672 3.59163 0
M  V30 8642 H 799.153 -0.0924907 0.657527 0
M  V30 8643 H 801.683 0.346656 2.01642 0
M  V30 8644 H 801.693 -1.22421 3.892 0
M  V30 8645 H 800.368 -0.102915 4.15773 0
M  V30 8646 H 798.945 -1.72445 3.30632 0
M  V30 8647 N 801.13 -1.57531 -0.0467866 0
M  V30 8648 C 802.407 -1.79568 -0.775536 0
M  V30 8649 C 802.787 -0.820322 -1.94509 0
M  V30 8650 O 802.135 0.14134 -2.28062 0
M  V30 8651 C 802.345 -3.26789 -1.22516 0
M  V30 8652 C 803.693 -3.91299 -1.64835 0
M  V30 8653 O 804.717 -3.30831 -1.3202 0
M  V30 8654 O 803.576 -4.97727 -2.25677 0
M  V30 8655 H 800.67 -0.737817 -0.373572 0
M  V30 8656 H 803.216 -1.69682 -0.0249302 0
M  V30 8657 H 801.988 -3.89357 -0.389446 0
M  V30 8658 H 801.611 -3.41496 -2.03633 0
M  V30 8659 N 802.608 0.318715 -1.54344 0
M  V30 8660 C 803.833 1.07987 -1.77069 0
M  V30 8661 C 804.258 1.80766 -0.520117 0
M  V30 8662 O 803.616 1.73424 0.528566 0
M  V30 8663 C 803.664 2.04987 -2.96669 0
M  V30 8664 O 802.768 3.12974 -2.68554 0
M  V30 8665 H 802.109 0.311109 -0.586606 0
M  V30 8666 H 804.639 0.361533 -2.0138 0
M  V30 8667 H 804.649 2.47771 -3.2415 0
M  V30 8668 H 803.324 1.51417 -3.87357 0
M  V30 8669 H 801.901 2.74831 -2.52037 0
M  V30 8670 N 804.086 1.46499 0.581025 0
M  V30 8671 C 805.049 1.5677 1.672 0
M  V30 8672 C 806.049 0.444716 1.54528 0
M  V30 8673 O 807.239 0.709074 1.59116 0
M  V30 8674 C 804.371 1.4896 3.06633 0
M  V30 8675 H 805.564 2.54 1.5945 0
M  V30 8676 H 803.117 1.34334 0.799003 0
M  V30 8677 H 803.852 0.530168 3.19937 0
M  V30 8678 H 803.637 2.30439 3.17239 0
M  V30 8679 H 805.127 1.59237 3.86048 0
M  V30 8680 N 805.565 -0.825799 1.34232 0
M  V30 8681 C 806.512 -1.93651 1.2557 0
M  V30 8682 C 807.482 -1.65578 0.131536 0
M  V30 8683 O 808.667 -1.88231 0.312027 0
M  V30 8684 C 805.807 -3.29862 1.01415 0
M  V30 8685 C 804.92 -3.70247 2.22579 0
M  V30 8686 C 804.055 -4.95392 1.91731 0
M  V30 8687 C 803.094 -5.28349 3.09053 0
M  V30 8688 N 802.231 -6.44671 2.78107 0
M  V30 8689 H 807.071 -2.00392 2.20561 0
M  V30 8690 H 804.608 -0.980441 1.09662 0
M  V30 8691 H 806.566 -4.08356 0.854485 0
M  V30 8692 H 805.196 -3.22642 0.100936 0
M  V30 8693 H 804.248 -2.87169 2.49476 0
M  V30 8694 H 805.56 -3.90575 3.10246 0
M  V30 8695 H 804.714 -5.81665 1.72484 0
M  V30 8696 H 803.453 -4.77059 1.0132 0
M  V30 8697 H 802.458 -4.40574 3.289 0
M  V30 8698 H 803.683 -5.48622 4.00239 0
M  V30 8699 H 801.629 -6.278 1.9027 0
M  V30 8700 H 801.546 -6.65158 3.59306 0
M  V30 8701 H 802.814 -7.34022 2.62358 0
M  V30 8702 N 807.043 -1.17915 -1.04565 0
M  V30 8703 C 808.32 -0.881187 -1.74627 0
M  V30 8704 C 808.7 0.617123 -2.01878 0
M  V30 8705 O 808.048 1.57032 -1.65991 0
M  V30 8706 C 808.258 -1.72299 -3.03503 0
M  V30 8707 C 809.606 -1.94688 -3.77335 0
M  V30 8708 O 810.63 -1.6931 -3.13389 0
M  V30 8709 O 809.489 -2.37379 -4.92253 0
M  V30 8710 H 806.583 -0.326864 -0.759664 0
M  V30 8711 H 809.129 -1.28642 -1.10676 0
M  V30 8712 H 807.901 -2.73891 -2.79462 0
M  V30 8713 H 807.524 -1.31593 -3.75192 0
M  V30 8714 N 808.521 1.23394 -0.980386 0
M  V30 8715 C 809.484 2.23092 -0.525619 0
M  V30 8716 C 810.484 1.56129 0.384745 0
M  V30 8717 O 811.674 1.73284 0.178439 0
M  V30 8718 C 808.806 3.40074 0.23712 0
M  V30 8719 H 809.999 2.64839 -1.40714 0
M  V30 8720 H 807.552 1.36227 -0.766275 0
M  V30 8721 H 808.287 3.03783 1.13518 0
M  V30 8722 H 808.072 3.89883 -0.416356 0
M  V30 8723 H 809.562 4.14043 0.543892 0
M  V30 8724 N 809.999 0.752036 1.385 0
M  V30 8725 C 811.247 0.306895 1.99756 0
M  V30 8726 C 811.568 -1.11478 1.59992 0
M  V30 8727 O 810.838 -1.76206 0.856045 0
M  V30 8728 H 809.418 0.11048 0.738785 0
M  V30 8729 H 812.08 0.965785 1.69289 0
M  V30 8730 H 811.176 0.368797 3.09913 0
M  V30 8731 N 811.477 -1.49425 0.500989 0
M  V30 8732 C 812.723 -2.02753 -0.0436 0
M  V30 8733 C 813.056 -1.37991 -1.36646 0
M  V30 8734 O 812.331 -0.515597 -1.87542 0
M  V30 8735 C 812.614 -3.59565 -0.19616 0
M  V30 8736 C 812.467 -4.34855 1.14982 0
M  V30 8737 C 813.786 -4.30014 -0.936795 0
M  V30 8738 H 810.905 -0.73686 -0.0143711 0
M  V30 8739 H 813.547 -1.78448 0.652397 0
M  V30 8740 H 811.697 -3.80405 -0.788959 0
M  V30 8741 H 813.369 -4.25512 1.7815 0
M  V30 8742 H 811.612 -3.97414 1.73911 0
M  V30 8743 H 812.283 -5.42933 0.996385 0
M  V30 8744 H 814.759 -4.1383 -0.434036 0
M  V30 8745 H 813.635 -5.39483 -1.01238 0
M  V30 8746 H 813.896 -3.95257 -1.9805 0
M  V30 8747 N 812.955 -0.234822 -1.55841 0
M  V30 8748 C 813.888 0.710134 -2.16869 0
M  V30 8749 C 814.866 1.18155 -1.11706 0
M  V30 8750 O 816.05 1.26188 -1.40032 0
M  V30 8751 C 813.177 1.96368 -2.75966 0
M  V30 8752 C 812.223 1.63114 -3.94076 0
M  V30 8753 S 813.056 0.744307 -5.30302 0
M  V30 8754 C 814.212 2.00712 -5.92845 0
M  V30 8755 H 814.445 0.19146 -2.96683 0
M  V30 8756 H 811.978 -0.0193854 -1.54388 0
M  V30 8757 H 813.936 2.68338 -3.10653 0
M  V30 8758 H 812.597 2.45347 -1.96121 0
M  V30 8759 H 811.79 2.56285 -4.33975 0
M  V30 8760 H 811.392 0.991967 -3.60605 0
M  V30 8761 H 813.684 2.9557 -6.09627 0
M  V30 8762 H 814.627 1.65182 -6.88564 0
M  V30 8763 H 815.035 2.1537 -5.21801 0
M  V30 8764 N 814.433 1.57553 0.0384317 0
M  V30 8765 C 815.396 2.04927 1.02653 0
M  V30 8766 C 816.396 0.951768 1.29607 0
M  V30 8767 O 817.586 1.21568 1.24768 0
M  V30 8768 C 814.718 2.45828 2.36181 0
M  V30 8769 H 815.911 2.93474 0.617508 0
M  V30 8770 H 813.464 1.53679 0.285031 0
M  V30 8771 H 814.199 1.60408 2.8185 0
M  V30 8772 H 813.984 3.25945 2.1795 0
M  V30 8773 H 815.474 2.82939 3.0714 0
M  V30 8774 N 815.911 -0.310526 1.54511 0
M  V30 8775 C 816.874 -1.3657 1.84068 0
M  V30 8776 C 817.874 -1.44123 0.713097 0
M  V30 8777 O 819.064 -1.43924 0.981399 0
M  V30 8778 C 816.196 -2.75162 2.01243 0
M  V30 8779 H 817.389 -1.1161 2.78358 0
M  V30 8780 H 814.942 -0.546699 1.46427 0
M  V30 8781 H 815.677 -3.05359 1.09208 0
M  V30 8782 H 815.462 -2.71071 2.83307 0
M  V30 8783 H 816.952 -3.51473 2.25514 0
M  V30 8784 N 817.389 -1.46805 -0.573248 0
M  V30 8785 C 818.614 -1.56433 -1.36175 0
M  V30 8786 C 819.039 -0.209336 -1.86932 0
M  V30 8787 O 818.397 0.812146 -1.62092 0
M  V30 8788 C 818.445 -2.58055 -2.51873 0
M  V30 8789 O 817.549 -2.12214 -3.53609 0
M  V30 8790 H 816.89 -0.526068 -0.405153 0
M  V30 8791 H 819.42 -1.92456 -0.694405 0
M  V30 8792 H 819.43 -2.77966 -2.98662 0
M  V30 8793 H 818.105 -3.56448 -2.14284 0
M  V30 8794 H 816.682 -2.02333 -3.13234 0
M  V30 8795 N 818.867 0.818669 -1.34668 0
M  V30 8796 C 820.113 1.577 -1.28461 0
M  V30 8797 C 820.468 1.91867 0.143057 0
M  V30 8798 O 819.761 1.57545 1.09041 0
M  V30 8799 C 819.955 2.88245 -2.11304 0
M  V30 8800 C 819.784 2.66831 -3.61982 0
M  V30 8801 C 818.554 2.63346 -4.3125 0
M  V30 8802 C 820.752 2.38049 -4.55892 0
M  V30 8803 N 818.734 2.33522 -5.67751 0
M  V30 8804 C 820.105 2.17957 -5.80426 0
M  V30 8805 C 822.16 2.23812 -4.44761 0
M  V30 8806 C 820.863 1.8507 -6.95084 0
M  V30 8807 C 822.889 1.92321 -5.59255 0
M  V30 8808 C 822.251 1.73056 -6.82811 0
M  V30 8809 H 818.35 0.579284 -0.525314 0
M  V30 8810 H 820.934 0.959336 -1.69425 0
M  V30 8811 H 819.105 3.47927 -1.7263 0
M  V30 8812 H 820.837 3.53677 -1.96709 0
M  V30 8813 H 817.592 2.7757 -3.83734 0
M  V30 8814 H 818.016 2.21438 -6.39761 0
M  V30 8815 H 822.658 2.3741 -3.49852 0
M  V30 8816 H 820.376 1.7021 -7.89971 0
M  V30 8817 H 823.962 1.82031 -5.5259 0
M  V30 8818 H 822.842 1.49042 -7.69907 0
M  V30 8819 N 820.346 1.18468 1.03938 0
M  V30 8820 C 821.309 0.914944 2.10146 0
M  V30 8821 C 822.309 -0.10022 1.60487 0
M  V30 8822 O 823.499 0.133365 1.73689 0
M  V30 8823 C 820.631 0.372993 3.38853 0
M  V30 8824 H 821.824 1.85677 2.35508 0
M  V30 8825 H 819.377 0.996876 1.20383 0
M  V30 8826 H 820.112 -0.57538 3.19155 0
M  V30 8827 H 819.897 1.1048 3.76213 0
M  V30 8828 H 821.387 0.203014 4.17106 0
M  V30 8829 N 821.824 -1.22873 0.986916 0
M  V30 8830 C 822.756 -2.23889 0.490537 0
M  V30 8831 C 823.769 -1.57523 -0.411144 0
M  V30 8832 O 824.958 -1.7721 -0.214236 0
M  V30 8833 C 822.058 -3.37488 -0.30902 0
M  V30 8834 C 821.231 -4.33438 0.587354 0
M  V30 8835 C 820.29 -5.25958 -0.159467 0
M  V30 8836 O 819.316 -5.67394 0.453115 0
M  V30 8837 N 820.518 -5.62265 -1.44355 0
M  V30 8838 H 823.283 -2.67109 1.35914 0
M  V30 8839 H 820.844 -1.37111 0.860937 0
M  V30 8840 H 822.836 -3.96365 -0.817139 0
M  V30 8841 H 821.406 -2.934 -1.07868 0
M  V30 8842 H 820.626 -3.72969 1.27622 0
M  V30 8843 H 821.914 -4.94495 1.19801 0
M  V30 8844 H 821.312 -5.30562 -1.96266 0
M  V30 8845 H 819.869 -6.23585 -1.89698 0
M  V30 8846 N 823.302 -0.75937 -1.38099 0
M  V30 8847 C 824.532 -0.328634 -2.0397 0
M  V30 8848 C 824.94 1.04989 -1.57398 0
M  V30 8849 O 824.283 1.67918 -0.744932 0
M  V30 8850 C 824.345 -0.279216 -3.58414 0
M  V30 8851 C 824.009 -1.60025 -4.28067 0
M  V30 8852 C 825.006 -2.55048 -4.53041 0
M  V30 8853 C 822.691 -1.87128 -4.66142 0
M  V30 8854 C 824.685 -3.7539 -5.15132 0
M  V30 8855 C 822.372 -3.07742 -5.27956 0
M  V30 8856 C 823.37 -4.01694 -5.52387 0
M  V30 8857 O 823.058 -5.20186 -6.12912 0
M  V30 8858 H 822.79 -0.137443 -0.66188 0
M  V30 8859 H 825.344 -1.03082 -1.77661 0
M  V30 8860 H 823.574 0.479254 -3.83719 0
M  V30 8861 H 825.263 0.122781 -4.05714 0
M  V30 8862 H 826.029 -2.35387 -4.24049 0
M  V30 8863 H 821.908 -1.14833 -4.46469 0
M  V30 8864 H 825.452 -4.48737 -5.34117 0
M  V30 8865 H 821.349 -3.27294 -5.56371 0
M  V30 8866 H 822.117 -5.20846 -6.31397 0
M  V30 8867 N 824.78 1.49157 -0.508906 0
M  V30 8868 C 825.712 2.272 0.302115 0
M  V30 8869 C 826.725 1.3407 0.923529 0
M  V30 8870 O 827.914 1.5929 0.805532 0
M  V30 8871 C 825.014 3.06736 1.44105 0
M  V30 8872 C 824.187 4.27497 0.925477 0
M  V30 8873 C 823.246 4.89014 1.94297 0
M  V30 8874 O 822.272 5.48851 1.50834 0
M  V30 8875 N 823.474 4.7937 3.2739 0
M  V30 8876 H 826.239 2.97443 -0.367115 0
M  V30 8877 H 823.8 1.58248 -0.341933 0
M  V30 8878 H 825.792 3.44763 2.11944 0
M  V30 8879 H 824.362 2.3905 2.0143 0
M  V30 8880 H 823.582 3.94135 0.0717301 0
M  V30 8881 H 824.87 5.05714 0.55955 0
M  V30 8882 H 824.268 4.31869 3.65384 0
M  V30 8883 H 822.825 5.21559 3.90922 0
M  V30 8884 N 826.258 0.243083 1.55714 0
M  V30 8885 C 827.221 -0.644723 2.19945 0
M  V30 8886 C 828.221 -1.10562 1.16759 0
M  V30 8887 O 829.411 -1.01095 1.41865 0
M  V30 8888 C 826.543 -1.88569 2.83997 0
M  V30 8889 H 827.736 -0.0843839 2.99781 0
M  V30 8890 H 825.289 -0.00647246 1.56299 0
M  V30 8891 H 826.024 -2.48736 2.08089 0
M  V30 8892 H 825.809 -1.56345 3.59581 0
M  V30 8893 H 827.299 -2.51774 3.33166 0
M  V30 8894 N 827.736 -1.57571 -0.0300757 0
M  V30 8895 C 828.668 -2.0329 -1.05857 0
M  V30 8896 C 829.681 -0.945543 -1.32527 0
M  V30 8897 O 830.87 -1.22287 -1.30032 0
M  V30 8898 C 827.97 -2.39234 -2.40042 0
M  V30 8899 C 827.143 -3.70337 -2.32743 0
M  V30 8900 C 826.202 -3.93482 -3.49369 0
M  V30 8901 O 825.228 -4.64551 -3.28909 0
M  V30 8902 N 826.43 -3.39042 -4.71201 0
M  V30 8903 H 829.195 -2.9214 -0.668897 0
M  V30 8904 H 826.756 -1.60425 -0.218038 0
M  V30 8905 H 828.748 -2.51856 -3.16782 0
M  V30 8906 H 827.318 -1.5606 -2.70858 0
M  V30 8907 H 826.538 -3.68079 -1.41109 0
M  V30 8908 H 827.826 -4.56343 -2.25007 0
M  V30 8909 H 827.224 -2.81434 -4.90725 0
M  V30 8910 H 825.781 -3.57045 -5.45309 0
M  V30 8911 N 829.214 0.302327 -1.54673 0
M  V30 8912 C 830.491 1.05721 -1.64567 0
M  V30 8913 C 830.871 2.0526 -0.493108 0
M  V30 8914 O 830.219 2.22729 0.510315 0
M  V30 8915 C 830.429 1.74025 -3.02517 0
M  V30 8916 C 831.777 2.26271 -3.59286 0
M  V30 8917 O 832.801 1.8406 -3.0496 0
M  V30 8918 O 831.66 3.0361 -4.54404 0
M  V30 8919 H 828.754 0.488577 -0.667249 0
M  V30 8920 H 831.3 0.300521 -1.67018 0
M  V30 8921 H 830.072 1.0174 -3.77842 0
M  V30 8922 H 829.695 2.56454 -3.03838 0
M  V30 8923 N 830.692 1.47107 0.565454 0
M  V30 8924 C 831.655 1.58535 1.65527 0
M  V30 8925 C 832.655 0.461081 1.54048 0
M  V30 8926 O 833.845 0.725911 1.58355 0
M  V30 8927 C 830.977 1.52204 3.05036 0
M  V30 8928 H 832.17 2.55676 1.56747 0
M  V30 8929 H 829.723 1.35174 0.78471 0
M  V30 8930 H 830.458 0.564071 3.19357 0
M  V30 8931 H 830.243 2.3379 3.14777 0
M  V30 8932 H 831.733 1.63322 3.84338 0
M  V30 8933 N 832.17 -0.811516 1.35101 0
M  V30 8934 C 833.1 -1.9378 1.30275 0
M  V30 8935 C 834.081 -1.69165 0.178075 0
M  V30 8936 O 835.266 -1.90599 0.372256 0
M  V30 8937 C 832.396 -3.30439 1.06899 0
M  V30 8938 C 831.35 -3.69523 2.15955 0
M  V30 8939 C 830.676 -5.0429 1.77751 0
M  V30 8940 C 831.976 -3.80419 3.57881 0
M  V30 8941 H 833.67 -1.98075 2.24514 0
M  V30 8942 H 831.216 -0.951586 1.08078 0
M  V30 8943 H 833.169 -4.08828 1.02164 0
M  V30 8944 H 831.893 -3.26473 0.0910462 0
M  V30 8945 H 830.552 -2.93416 2.19778 0
M  V30 8946 H 830.2 -4.96823 0.785876 0
M  V30 8947 H 829.9 -5.31411 2.5075 0
M  V30 8948 H 831.424 -5.85125 1.74533 0
M  V30 8949 H 832.838 -4.49051 3.56407 0
M  V30 8950 H 831.235 -4.19005 4.29598 0
M  V30 8951 H 832.305 -2.82105 3.94391 0
M  V30 8952 N 833.648 -1.19017 -1.03309 0
M  V30 8953 C 834.897 -0.984542 -1.76039 0
M  V30 8954 C 835.21 0.485937 -1.89468 0
M  V30 8955 O 836.416 0.810278 -2.59127 0
M  V30 8956 C 834.872 -1.71261 -3.1654 0
M  V30 8957 C 834.48 -3.22291 -3.11179 0
M  V30 8958 C 836.224 -1.59007 -3.93595 0
M  V30 8959 C 834.131 -3.87704 -4.46587 0
M  V30 8960 H 833.061 -0.364749 -0.659905 0
M  V30 8961 H 835.712 -1.4247 -1.15649 0
M  V30 8962 H 834.094 -1.20025 -3.77373 0
M  V30 8963 H 835.268 -3.80611 -2.59753 0
M  V30 8964 H 833.583 -3.34772 -2.47622 0
M  V30 8965 H 836.18 -2.05232 -4.93745 0
M  V30 8966 H 836.523 -0.543534 -4.12736 0
M  V30 8967 H 837.056 -2.07564 -3.39355 0
M  V30 8968 H 833.795 -4.92437 -4.3265 0
M  V30 8969 H 833.315 -3.34172 -4.98085 0
M  V30 8970 H 834.994 -3.91008 -5.15482 0
M  V30 8971 N 835.127 1.22348 -0.993418 0
M  V30 8972 C 836.074 2.24294 -0.544118 0
M  V30 8973 C 837.044 1.60602 0.42381 0
M  V30 8974 O 838.229 1.87952 0.328453 0
M  V30 8975 C 835.369 3.44837 0.134578 0
M  V30 8976 C 834.482 4.23043 -0.875151 0
M  V30 8977 C 833.617 5.30928 -0.169919 0
M  V30 8978 C 832.656 6.00853 -1.16798 0
M  V30 8979 N 831.793 7.00381 -0.491021 0
M  V30 8980 H 836.633 2.6209 -1.4182 0
M  V30 8981 H 834.17 1.2881 -0.710384 0
M  V30 8982 H 836.128 4.13625 0.544998 0
M  V30 8983 H 834.758 3.07804 0.972446 0
M  V30 8984 H 833.81 3.53546 -1.40389 0
M  V30 8985 H 835.122 4.71237 -1.63516 0
M  V30 8986 H 834.276 6.05972 0.297205 0
M  V30 8987 H 833.015 4.8371 0.622586 0
M  V30 8988 H 832.02 5.24591 -1.64573 0
M  V30 8989 H 833.245 6.50159 -1.96137 0
M  V30 8990 H 831.191 6.55393 0.282037 0
M  V30 8991 H 831.108 7.46584 -1.18947 0
M  V30 8992 H 832.376 7.79486 -0.0467169 0
M  V30 8993 N 836.605 0.766683 1.37694 0
M  V30 8994 C 837.833 0.339939 2.04088 0
M  V30 8995 C 838.248 -1.03617 1.57826 0
M  V30 8996 O 837.605 -1.6605 0.757214 0
M  V30 8997 C 837.656 0.368269 3.59619 0
M  V30 8998 O 837.377 1.69009 4.04188 0
M  V30 8999 C 838.878 -0.0707053 4.43244 0
M  V30 9000 H 836.098 0.143189 0.655544 0
M  V30 9001 H 838.642 1.03919 1.76128 0
M  V30 9002 H 836.797 -0.282359 3.8637 0
M  V30 9003 H 837.211 1.62523 4.98685 0
M  V30 9004 H 838.685 0.000273538 5.52 0
M  V30 9005 H 839.162 -1.1204 4.24669 0
M  V30 9006 H 839.768 0.551543 4.21709 0
M  V30 9007 N 838.083 -1.48885 0.516809 0
M  V30 9008 C 839.323 -2.0439 -0.0202232 0
M  V30 9009 C 839.687 -1.38652 -1.32814 0
M  V30 9010 O 840.888 -1.84968 -1.95039 0
M  V30 9011 C 839.159 -3.57071 -0.153257 0
M  V30 9012 S 840.718 -4.34074 -0.642256 0
M  V30 9013 H 837.536 -0.710977 0.00576322 0
M  V30 9014 H 840.138 -1.82753 0.694376 0
M  V30 9015 H 838.842 -4.02454 0.803695 0
M  V30 9016 H 838.373 -3.83139 -0.892627 0
M  V30 9017 H 840.388 -4.58011 -1.90893 0
M  V30 9018 N 839.561 -0.251338 -1.55583 0
M  V30 9019 C 840.471 0.656978 -2.25213 0
M  V30 9020 C 841.487 1.18966 -1.26977 0
M  V30 9021 O 842.663 1.22499 -1.59862 0
M  V30 9022 C 839.728 1.83527 -2.94141 0
M  V30 9023 C 838.789 1.34162 -4.07798 0
M  V30 9024 C 838.022 2.46375 -4.73429 0
M  V30 9025 O 838.245 3.65205 -4.38157 0
M  V30 9026 O 837.179 2.15881 -5.61853 0
M  V30 9027 H 841.005 0.0936395 -3.03556 0
M  V30 9028 H 838.59 -0.0196638 -1.49387 0
M  V30 9029 H 840.472 2.52279 -3.3754 0
M  V30 9030 H 839.147 2.38614 -2.18735 0
M  V30 9031 H 838.054 0.621249 -3.68906 0
M  V30 9032 H 839.387 0.836779 -4.85035 0
M  V30 9033 N 841.039 1.57585 0.0217189 0
M  V30 9034 C 841.986 2.07036 1.02004 0
M  V30 9035 C 842.956 0.96106 1.35473 0
M  V30 9036 O 844.141 1.23211 1.45684 0
M  V30 9037 C 841.281 2.56056 2.31364 0
M  V30 9038 C 840.394 3.80805 2.03989 0
M  V30 9039 C 839.529 4.18409 3.27272 0
M  V30 9040 C 838.568 5.36055 2.95486 0
M  V30 9041 N 837.705 5.69056 4.11242 0
M  V30 9042 H 842.545 2.92073 0.591396 0
M  V30 9043 H 840.082 1.44403 0.280384 0
M  V30 9044 H 842.04 2.82548 3.06957 0
M  V30 9045 H 840.67 1.73925 2.71937 0
M  V30 9046 H 839.722 3.61354 1.1886 0
M  V30 9047 H 841.034 4.66512 1.76546 0
M  V30 9048 H 840.188 4.46068 4.11228 0
M  V30 9049 H 838.927 3.31369 3.57835 0
M  V30 9050 H 837.932 5.08142 2.09933 0
M  V30 9051 H 839.157 6.24755 2.66193 0
M  V30 9052 H 837.103 4.84974 4.41742 0
M  V30 9053 H 837.02 6.49288 3.87247 0
M  V30 9054 H 838.288 6.01295 4.96049 0
M  V30 9055 N 842.517 -0.29412 1.54831 0
M  V30 9056 C 843.48 -1.3461 1.85507 0
M  V30 9057 C 844.48 -1.43359 0.728343 0
M  V30 9058 O 845.67 -1.42875 0.996609 0
M  V30 9059 C 842.802 -2.73012 2.0415 0
M  V30 9060 H 843.995 -1.08651 2.79526 0
M  V30 9061 H 841.548 -0.531138 1.46999 0
M  V30 9062 H 842.283 -3.04183 1.12441 0
M  V30 9063 H 842.068 -2.68051 2.86166 0
M  V30 9064 H 843.558 -3.49061 2.29229 0
M  V30 9065 N 843.995 -1.47404 -0.557645 0
M  V30 9066 C 845.243 -1.53703 -1.31224 0
M  V30 9067 C 845.564 -0.200742 -1.93964 0
M  V30 9068 O 844.834 0.775253 -1.79907 0
M  V30 9069 H 843.414 -0.566171 -0.487299 0
M  V30 9070 H 846.076 -1.83699 -0.651195 0
M  V30 9071 H 845.172 -2.30335 -2.10599 0
M  V30 9072 N 845.473 0.80434 -1.35529 0
M  V30 9073 C 846.722 1.55665 -1.28263 0
M  V30 9074 C 847.035 1.95096 0.140352 0
M  V30 9075 O 848.241 2.69422 0.335303 0
M  V30 9076 C 846.697 2.80935 -2.24952 0
M  V30 9077 C 846.305 2.48733 -3.72607 0
M  V30 9078 C 848.049 3.5894 -2.26632 0
M  V30 9079 C 845.956 3.70308 -4.61114 0
M  V30 9080 H 844.886 0.584301 -0.476559 0
M  V30 9081 H 847.537 0.88395 -1.60806 0
M  V30 9082 H 845.919 3.49927 -1.85383 0
M  V30 9083 H 847.093 1.87733 -4.20824 0
M  V30 9084 H 845.408 1.83969 -3.73557 0
M  V30 9085 H 848.005 4.49244 -2.89973 0
M  V30 9086 H 848.348 3.96433 -1.27069 0
M  V30 9087 H 848.881 2.96912 -2.64742 0
M  V30 9088 H 845.62 3.37922 -5.61684 0
M  V30 9089 H 845.14 4.30526 -4.17621 0
M  V30 9090 H 846.819 4.37511 -4.76648 0
M  V30 9091 N 846.951 1.19563 1.02676 0
M  V30 9092 C 847.861 0.950691 2.14474 0
M  V30 9093 C 848.877 -0.0900219 1.73767 0
M  V30 9094 O 850.053 0.0951063 2.01175 0
M  V30 9095 C 847.118 0.494917 3.43149 0
M  V30 9096 C 846.179 1.60527 3.98158 0
M  V30 9097 C 845.412 1.17115 5.20692 0
M  V30 9098 O 845.635 0.0355937 5.70389 0
M  V30 9099 O 844.569 1.97454 5.68591 0
M  V30 9100 H 848.395 1.88651 2.38001 0
M  V30 9101 H 845.98 0.978635 1.12885 0
M  V30 9102 H 847.862 0.249492 4.20661 0
M  V30 9103 H 846.537 -0.412434 3.21062 0
M  V30 9104 H 845.444 1.90487 3.21971 0
M  V30 9105 H 846.777 2.48925 4.24614 0
M  V30 9106 N 848.429 -1.21819 0.999893 0
M  V30 9107 C 849.359 -2.26282 0.576096 0
M  V30 9108 C 850.34 -1.65317 -0.400537 0
M  V30 9109 O 851.525 -1.92028 -0.28964 0
M  V30 9110 C 848.655 -3.47147 -0.103145 0
M  V30 9111 C 847.609 -4.20594 0.792745 0
M  V30 9112 C 846.935 -5.34696 -0.0198026 0
M  V30 9113 C 848.235 -4.78533 2.09293 0
M  V30 9114 H 849.929 -2.61984 1.4493 0
M  V30 9115 H 847.475 -1.25935 0.698316 0
M  V30 9116 H 849.428 -4.1939 -0.411068 0
M  V30 9117 H 848.152 -3.1056 -1.01094 0
M  V30 9118 H 846.811 -3.50194 1.08442 0
M  V30 9119 H 846.459 -4.94352 -0.928729 0
M  V30 9120 H 846.159 -5.84764 0.576661 0
M  V30 9121 H 847.683 -6.09752 -0.321659 0
M  V30 9122 H 849.097 -5.42682 1.8485 0
M  V30 9123 H 847.494 -5.38968 2.63881 0
M  V30 9124 H 848.564 -3.98197 2.76708 0
M  V30 9125 N 849.908 -0.773975 -1.37286 0
M  V30 9126 C 851.136 -0.350758 -2.03905 0
M  V30 9127 C 851.551 1.02779 -1.58373 0
M  V30 9128 O 850.908 1.65646 -0.766009 0
M  V30 9129 C 850.959 -0.387335 -3.59419 0
M  V30 9130 O 850.68 -1.7115 -4.03286 0
M  V30 9131 C 852.181 0.047198 -4.43275 0
M  V30 9132 H 849.401 -0.146663 -0.654775 0
M  V30 9133 H 851.945 -1.04852 -1.75574 0
M  V30 9134 H 850.1 0.261865 -3.86514 0
M  V30 9135 H 850.514 -1.65166 -4.97816 0
M  V30 9136 H 851.988 -0.0295474 -5.51992 0
M  V30 9137 H 852.465 1.09786 -4.25257 0
M  V30 9138 H 853.071 -0.573899 -4.2141 0
M  V30 9139 N 851.386 1.48609 -0.524698 0
M  V30 9140 C 852.316 2.32366 0.229837 0
M  V30 9141 C 853.297 1.41759 0.940129 0
M  V30 9142 O 854.482 1.7065 0.926936 0
M  V30 9143 C 851.612 3.22835 1.28043 0
M  V30 9144 C 850.566 4.22424 0.688603 0
M  V30 9145 C 849.892 5.0199 1.84146 0
M  V30 9146 C 851.192 5.21217 -0.336176 0
M  V30 9147 H 852.886 2.95698 -0.469339 0
M  V30 9148 H 850.432 1.42197 -0.227156 0
M  V30 9149 H 852.385 3.80253 1.8162 0
M  V30 9150 H 851.109 2.57492 2.00912 0
M  V30 9151 H 849.768 3.66185 0.174402 0
M  V30 9152 H 849.416 4.33076 2.5584 0
M  V30 9153 H 849.116 5.69392 1.45142 0
M  V30 9154 H 850.64 5.62259 2.38111 0
M  V30 9155 H 852.054 5.7319 0.112307 0
M  V30 9156 H 850.451 5.96642 -0.643324 0
M  V30 9157 H 851.521 4.68676 -1.24381 0
M  V30 9158 N 852.864 0.259585 1.55447 0
M  V30 9159 C 854.111 -0.361607 1.99245 0
M  V30 9160 C 854.439 -1.57017 1.14787 0
M  V30 9161 O 853.694 -1.94658 0.201724 0
M  V30 9162 C 853.993 -0.802727 3.48269 0
M  V30 9163 C 853.659 0.299472 4.49904 0
M  V30 9164 C 852.321 0.602157 4.77418 0
M  V30 9165 C 854.673 1.04295 5.10658 0
M  V30 9166 C 852.001 1.65217 5.62957 0
M  V30 9167 C 854.353 2.08257 5.97337 0
M  V30 9168 C 853.017 2.39177 6.23178 0
M  V30 9169 H 852.287 -0.132322 0.72909 0
M  V30 9170 H 854.934 0.370059 1.8789 0
M  V30 9171 H 853.239 -1.61381 3.5702 0
M  V30 9172 H 854.936 -1.29385 3.79553 0
M  V30 9173 H 851.526 0.0534256 4.28567 0
M  V30 9174 H 855.71 0.822358 4.89439 0
M  V30 9175 H 850.966 1.89692 5.81229 0
M  V30 9176 H 855.14 2.6635 6.43452 0
M  V30 9177 H 852.767 3.20677 6.89253 0
M  V30 9178 N 854.342 -1.57594 -0.0133615 0
M  V30 9179 C 855.292 -2.04048 -1.01726 0
M  V30 9180 C 856.276 -0.932682 -1.3111 0
M  V30 9181 O 857.468 -1.19652 -1.30432 0
M  V30 9182 C 854.597 -2.53637 -2.31351 0
M  V30 9183 C 853.683 -3.71269 -2.04989 0
M  V30 9184 N 854.074 -4.83436 -1.48739 0
M  V30 9185 C 852.372 -3.78943 -2.35198 0
M  V30 9186 C 853.073 -5.64961 -1.38542 0
M  V30 9187 N 852.049 -5.10554 -1.86643 0
M  V30 9188 H 855.851 -2.88188 -0.576623 0
M  V30 9189 H 853.365 -1.60912 -0.219344 0
M  V30 9190 H 855.362 -2.85186 -3.04096 0
M  V30 9191 H 854.022 -1.7091 -2.76079 0
M  V30 9192 H 855.033 -5.04558 -1.16798 0
M  V30 9193 H 851.71 -3.07047 -2.82893 0
M  V30 9194 H 853.1 -6.65092 -0.954075 0
M  V30 9195 N 855.82 0.285905 -1.54985 0
M  V30 9196 C 857.068 1.01718 -1.74636 0
M  V30 9197 C 857.389 1.87277 -0.543342 0
M  V30 9198 O 856.659 1.90847 0.442078 0
M  V30 9199 H 855.239 0.378549 -0.643979 0
M  V30 9200 H 857.901 0.313247 -1.92366 0
M  V30 9201 H 856.997 1.66159 -2.64192 0
M  V30 9202 N 857.298 1.47698 0.54982 0
M  V30 9203 C 858.714 1.3338 0.876468 0
M  V30 9204 C 858.914 0.329837 1.98782 0
M  V30 9205 O 857.97 -0.256022 2.51199 0
M  V30 9206 C 859.283 2.72903 1.26272 0
M  V30 9207 C 860.831 2.81243 1.37373 0
M  V30 9208 C 861.306 4.21423 1.79351 0
M  V30 9209 N 862.797 4.24 1.86489 0
M  V30 9210 C 863.532 5.29386 2.20313 0
M  V30 9211 N 863.028 6.4507 2.527 0
M  V30 9212 N 864.821 5.16768 2.2115 0
M  V30 9213 H 856.972 2.11603 -0.183781 0
M  V30 9214 H 859.235 0.947798 -0.0195601 0
M  V30 9215 H 858.941 3.47836 0.519889 0
M  V30 9216 H 858.815 3.05151 2.21727 0
M  V30 9217 H 861.202 2.06577 2.10737 0
M  V30 9218 H 861.283 2.52639 0.400882 0
M  V30 9219 H 860.927 4.96597 1.06555 0
M  V30 9220 H 860.857 4.47456 2.77652 0
M  V30 9221 H 863.348 3.40547 1.63817 0
M  V30 9222 H 863.661 7.21236 2.77557 0
M  V30 9223 H 862.006 6.48377 2.50263 0
M  V30 9224 H 865.197 4.25416 1.95293 0
M  V30 9225 H 865.37 5.99004 2.4718 0
M  V30 9226 N 858.776 -0.797141 1.35954 0
M  V30 9227 C 860.024 -1.55161 1.29497 0
M  V30 9228 C 860.345 -1.94582 -0.127659 0
M  V30 9229 O 859.615 -1.64343 -1.06622 0
M  V30 9230 H 858.195 -0.575413 0.47635 0
M  V30 9231 H 860.857 -0.950282 1.70164 0
M  V30 9232 H 859.953 -2.46272 1.9172 0
M  V30 9233 N 860.254 -1.20106 -1.0204 0
M  V30 9234 C 861.502 -1.0069 -1.75231 0
M  V30 9235 C 861.823 0.462491 -1.89436 0
M  V30 9236 O 861.093 1.33455 -1.4341 0
M  V30 9237 H 859.673 -0.369576 -0.649171 0
M  V30 9238 H 862.335 -1.51149 -1.23044 0
M  V30 9239 H 861.431 -1.46205 -2.75736 0
M  V30 9240 N 861.732 1.21287 -1.00634 0
M  V30 9241 C 862.957 1.94925 -0.708441 0
M  V30 9242 C 863.382 1.73659 0.722783 0
M  V30 9243 O 862.74 1.02429 1.49593 0
M  V30 9244 C 862.788 3.45377 -1.03667 0
M  V30 9245 O 861.892 4.12153 -0.142661 0
M  V30 9246 H 861.233 0.609338 -0.263824 0
M  V30 9247 H 863.763 1.54008 -1.34695 0
M  V30 9248 H 863.773 3.95954 -0.984086 0
M  V30 9249 H 862.448 3.6018 -2.0795 0
M  V30 9250 H 861.025 3.72048 -0.251888 0
M  V30 9251 N 863.21 0.781244 1.36873 0
M  V30 9252 C 864.459 0.34652 1.98701 0
M  V30 9253 C 864.772 -1.08555 1.62712 0
M  V30 9254 O 865.978 -1.62213 2.17713 0
M  V30 9255 C 864.434 0.568611 3.5538 0
M  V30 9256 C 864.042 2.01156 4.003 0
M  V30 9257 C 865.786 0.197983 4.24038 0
M  V30 9258 C 863.693 2.18074 5.49725 0
M  V30 9259 H 862.623 0.125821 0.743428 0
M  V30 9260 H 865.274 0.961721 1.56279 0
M  V30 9261 H 863.656 -0.116185 3.9583 0
M  V30 9262 H 864.83 2.73209 3.71071 0
M  V30 9263 H 863.145 2.33967 3.44454 0
M  V30 9264 H 865.742 0.302778 5.33842 0
M  V30 9265 H 866.085 -0.852927 4.07469 0
M  V30 9266 H 866.618 0.835696 3.88923 0
M  V30 9267 H 863.357 3.21519 5.71232 0
M  V30 9268 H 862.877 1.50517 5.80607 0
M  V30 9269 H 864.556 1.98393 6.15832 0
M  V30 9270 N 864.689 -1.48329 0.532571 0
M  V30 9271 C 865.937 -2.021 -0.000581206 0
M  V30 9272 C 866.258 -1.4117 -1.34522 0
M  V30 9273 O 865.528 -0.578005 -1.87179 0
M  V30 9274 H 864.108 -0.746993 -0.00320281 0
M  V30 9275 H 866.77 -1.82011 0.696991 0
M  V30 9276 H 865.866 -3.11917 -0.106991 0
M  V30 9277 N 866.167 -0.267825 -1.55308 0
M  V30 9278 C 867.583 0.0865107 -1.59365 0
M  V30 9279 C 867.783 1.55205 -1.28505 0
M  V30 9280 O 866.839 2.29978 -1.04241 0
M  V30 9281 C 868.152 -0.28155 -2.99379 0
M  V30 9282 C 869.7 -0.227565 -3.12172 0
M  V30 9283 C 870.175 -0.569959 -4.5444 0
M  V30 9284 N 871.666 -0.521238 -4.60258 0
M  V30 9285 C 872.401 -0.759061 -5.68354 0
M  V30 9286 N 871.897 -1.06112 -6.84626 0
M  V30 9287 N 873.69 -0.688351 -5.57869 0
M  V30 9288 H 865.841 -1.22332 -1.73633 0
M  V30 9289 H 868.104 -0.493703 -0.809297 0
M  V30 9290 H 867.81 -1.3005 -3.26772 0
M  V30 9291 H 867.684 0.381192 -3.75269 0
M  V30 9292 H 870.071 0.782093 -2.84548 0
M  V30 9293 H 870.152 -0.924461 -2.38511 0
M  V30 9294 H 869.796 -1.57727 -4.82788 0
M  V30 9295 H 869.726 0.148646 -5.2639 0
M  V30 9296 H 872.217 -0.297359 -3.76728 0
M  V30 9297 H 872.53 -1.22945 -7.62958 0
M  V30 9298 H 870.875 -1.09881 -6.86259 0
M  V30 9299 H 874.066 -0.452268 -4.6591 0
M  V30 9300 H 874.239 -0.877081 -6.42037 0
M  V30 9301 N 867.645 1.57599 0.00500368 0
M  V30 9302 C 868.893 1.89973 0.68953 0
M  V30 9303 C 869.214 0.868531 1.7459 0
M  V30 9304 O 868.484 -0.0947367 1.95671 0
M  V30 9305 H 867.064 0.701153 0.25767 0
M  V30 9306 H 869.726 1.94869 -0.0347392 0
M  V30 9307 H 868.822 2.89584 1.16394 0
M  V30 9308 N 869.123 -0.277682 1.55134 0
M  V30 9309 C 870.371 -1.00791 1.75173 0
M  V30 9310 C 870.692 -1.86987 0.553266 0
M  V30 9311 O 869.962 -1.91079 -0.43195 0
M  V30 9312 H 868.542 -0.375129 0.645978 0
M  V30 9313 H 871.204 -0.303041 1.9253 0
M  V30 9314 H 870.3 -1.64756 2.6507 0
M  V30 9315 N 870.601 -1.47988 -0.541979 0
M  V30 9316 C 871.564 -1.61148 -1.62984 0
M  V30 9317 C 872.564 -0.48553 -1.53295 0
M  V30 9318 O 873.754 -0.751012 -1.5718 0
M  V30 9319 C 870.886 -1.57038 -3.02576 0
M  V30 9320 H 872.079 -2.58138 -1.52659 0
M  V30 9321 H 869.632 -1.36405 -0.763106 0
M  V30 9322 H 870.367 -0.614807 -3.18419 0
M  V30 9323 H 870.152 -2.38769 -3.11018 0
M  V30 9324 H 871.642 -1.69416 -3.81691 0
M  V30 9325 N 872.079 0.78992 -1.36375 0
M  V30 9326 C 873.49 1.36506 -1.2737 0
M  V30 9327 C 873.841 1.96008 0.086711 0
M  V30 9328 O 872.966 1.92521 0.988159 0
M  V30 9329 C 873.561 2.48175 -2.30639 0
M  V30 9330 C 872.12 3.01506 -2.25325 0
M  V30 9331 C 871.267 1.74581 -2.15445 0
M  V30 9332 H 874.218 0.591606 -1.47261 0
M  V30 9333 H 874.239 3.27179 -1.94253 0
M  V30 9334 H 873.751 2.04838 -3.2964 0
M  V30 9335 H 871.852 3.49265 -1.29788 0
M  V30 9336 H 871.965 3.58355 -3.17992 0
M  V30 9337 H 870.329 1.96794 -1.61692 0
M  V30 9338 H 871.112 1.33373 -3.16333 0
M  V30 9339 N 873.557 1.20646 1.01402 0
M  V30 9340 C 874.52 0.959314 2.08158 0
M  V30 9341 C 875.52 -0.0661558 1.60664 0
M  V30 9342 O 876.71 0.170177 1.73367 0
M  V30 9343 C 873.842 0.444785 3.37986 0
M  V30 9344 H 875.035 1.90631 2.31517 0
M  V30 9345 H 872.588 1.02219 1.18241 0
M  V30 9346 H 873.323 -0.507553 3.20304 0
M  V30 9347 H 873.108 1.18435 3.73785 0
M  V30 9348 H 874.598 0.291443 4.16582 0
M  V30 9349 N 875.035 -1.20752 1.01276 0
M  V30 9350 C 875.985 -2.21252 0.550602 0
M  V30 9351 C 876.969 -1.56052 -0.391985 0
M  V30 9352 O 878.161 -1.75682 -0.215575 0
M  V30 9353 C 875.29 -3.43112 -0.113601 0
M  V30 9354 C 874.376 -4.15485 0.850465 0
M  V30 9355 N 874.767 -4.64301 2.00643 0
M  V30 9356 C 873.065 -4.40932 0.670476 0
M  V30 9357 C 873.766 -5.197 2.61317 0
M  V30 9358 N 872.742 -5.09534 1.8941 0
M  V30 9359 H 876.544 -2.56657 1.43194 0
M  V30 9360 H 874.058 -1.36646 0.877597 0
M  V30 9361 H 876.055 -4.1433 -0.462211 0
M  V30 9362 H 874.715 -3.09213 -0.990825 0
M  V30 9363 H 875.726 -4.59637 2.38651 0
M  V30 9364 H 872.403 -4.17197 -0.159016 0
M  V30 9365 H 873.793 -5.67873 3.59123 0
M  V30 9366 N 876.513 -0.788492 -1.36457 0
M  V30 9367 C 877.476 -0.192209 -2.28393 0
M  V30 9368 C 878.476 0.609916 -1.48784 0
M  V30 9369 O 879.666 0.431046 -1.68783 0
M  V30 9370 C 876.798 0.734096 -3.32902 0
M  V30 9371 H 877.991 -1.00284 -2.82636 0
M  V30 9372 H 875.544 -0.557852 -1.46006 0
M  V30 9373 H 876.279 1.5691 -2.83813 0
M  V30 9374 H 876.064 0.160875 -3.9177 0
M  V30 9375 H 877.554 1.1462 -4.01562 0
M  V30 9376 N 877.991 1.48044 -0.54043 0
M  V30 9377 C 878.954 2.28273 0.205966 0
M  V30 9378 C 879.954 1.35983 0.858209 0
M  V30 9379 O 881.144 1.58776 0.716651 0
M  V30 9380 C 878.276 3.15174 1.29917 0
M  V30 9381 H 879.469 2.95727 -0.498555 0
M  V30 9382 H 877.022 1.53457 -0.296745 0
M  V30 9383 H 877.757 2.52374 2.03661 0
M  V30 9384 H 877.542 3.83074 0.836475 0
M  V30 9385 H 879.032 3.75666 1.82387 0
M  V30 9386 N 879.47 0.276058 1.55163 0
M  V30 9387 C 880.4 -0.604633 2.25536 0
M  V30 9388 C 881.381 -1.15813 1.24585 0
M  V30 9389 O 882.566 -1.1921 1.53306 0
M  V30 9390 C 879.696 -1.78836 2.97716 0
M  V30 9391 C 878.65 -1.36635 4.05604 0
M  V30 9392 C 877.976 -2.63325 4.65364 0
M  V30 9393 C 879.276 -0.515858 5.19746 0
M  V30 9394 H 880.97 -0.0177483 2.99395 0
M  V30 9395 H 878.516 -0.00709627 1.43998 0
M  V30 9396 H 880.469 -2.41036 3.45658 0
M  V30 9397 H 879.193 -2.40109 2.21394 0
M  V30 9398 H 877.852 -0.767541 3.58475 0
M  V30 9399 H 877.5 -3.22858 3.85709 0
M  V30 9400 H 877.2 -2.358 5.38212 0
M  V30 9401 H 878.724 -3.26372 5.16056 0
M  V30 9402 H 880.138 -1.04289 5.63735 0
M  V30 9403 H 878.535 -0.335449 5.99162 0
M  V30 9404 H 879.605 0.465137 4.82664 0
M  V30 9405 N 880.948 -1.576 0.00335426 0
M  V30 9406 C 881.878 -2.11668 -0.985839 0
M  V30 9407 C 882.859 -1.02661 -1.35627 0
M  V30 9408 O 884.044 -1.30361 -1.43943 0
M  V30 9409 C 881.174 -2.62273 -2.27662 0
M  V30 9410 C 880.128 -3.75837 -2.0477 0
M  V30 9411 C 879.454 -4.12769 -3.39891 0
M  V30 9412 C 880.754 -5.02975 -1.40759 0
M  V30 9413 H 882.448 -2.9457 -0.535637 0
M  V30 9414 H 879.994 -1.41702 -0.256204 0
M  V30 9415 H 881.947 -2.98727 -2.97221 0
M  V30 9416 H 880.671 -1.76498 -2.74802 0
M  V30 9417 H 879.33 -3.39782 -1.37636 0
M  V30 9418 H 878.978 -3.24013 -3.8474 0
M  V30 9419 H 878.678 -4.89281 -3.25389 0
M  V30 9420 H 880.202 -4.51784 -4.1076 0
M  V30 9421 H 881.616 -5.37179 -2.00279 0
M  V30 9422 H 880.013 -5.84315 -1.36734 0
M  V30 9423 H 881.083 -4.83431 -0.377218 0
M  V30 9424 N 882.426 0.269451 -1.5528 0
M  V30 9425 C 883.651 1.02299 -1.80415 0
M  V30 9426 C 884.076 1.7902 -0.577363 0
M  V30 9427 O 883.434 1.75018 0.473125 0
M  V30 9428 C 883.482 1.95445 -3.0304 0
M  V30 9429 O 882.586 3.04271 -2.78375 0
M  V30 9430 H 881.927 0.292289 -0.596207 0
M  V30 9431 H 884.457 0.297282 -2.02429 0
M  V30 9432 H 884.467 2.37333 -3.31869 0
M  V30 9433 H 883.142 1.39017 -3.91978 0
M  V30 9434 H 881.719 2.66673 -2.60653 0
M  V30 9435 N 883.904 1.48273 0.534124 0
M  V30 9436 C 884.836 1.5857 1.65494 0
M  V30 9437 C 885.849 0.470266 1.5586 0
M  V30 9438 O 887.038 0.740928 1.62396 0
M  V30 9439 C 884.138 1.49554 3.04117 0
M  V30 9440 C 883.311 2.76066 3.39273 0
M  V30 9441 C 882.37 2.60562 4.57159 0
M  V30 9442 O 881.396 3.34438 4.60587 0
M  V30 9443 N 882.598 1.69906 5.55079 0
M  V30 9444 H 885.363 2.55226 1.57099 0
M  V30 9445 H 882.924 1.44944 0.721303 0
M  V30 9446 H 884.916 1.36882 3.80848 0
M  V30 9447 H 883.486 0.608895 3.06613 0
M  V30 9448 H 882.706 3.03332 2.51761 0
M  V30 9449 H 883.994 3.60006 3.59546 0
M  V30 9450 H 883.392 1.09079 5.55084 0
M  V30 9451 H 881.949 1.63175 6.31044 0
M  V30 9452 N 885.382 -0.782676 1.36792 0
M  V30 9453 C 886.793 -1.35828 1.28092 0
M  V30 9454 C 887.144 -1.96052 -0.076315 0
M  V30 9455 O 886.269 -1.93042 -0.977935 0
M  V30 9456 C 886.864 -2.46949 2.31952 0
M  V30 9457 C 885.423 -3.00307 2.2692 0
M  V30 9458 C 884.57 -1.73436 2.16368 0
M  V30 9459 H 887.521 -0.583788 1.47572 0
M  V30 9460 H 887.542 -3.26144 1.95986 0
M  V30 9461 H 887.054 -2.03087 3.30722 0
M  V30 9462 H 885.155 -3.48571 1.31639 0
M  V30 9463 H 885.268 -3.56663 3.19887 0
M  V30 9464 H 883.632 -1.95934 1.62733 0
M  V30 9465 H 884.415 -1.31693 3.17036 0
M  V30 9466 N 886.86 -1.21182 -1.00761 0
M  V30 9467 C 888.271 -1.02652 -1.55947 0
M  V30 9468 C 888.622 0.414466 -1.91772 0
M  V30 9469 O 887.747 1.29727 -1.73204 0
M  V30 9470 C 888.342 -1.85713 -2.83366 0
M  V30 9471 C 886.901 -1.71523 -3.35048 0
M  V30 9472 C 886.048 -1.83087 -2.08265 0
M  V30 9473 H 888.999 -1.35242 -0.830379 0
M  V30 9474 H 889.02 -1.36583 -3.55141 0
M  V30 9475 H 888.532 -2.90584 -2.5726 0
M  V30 9476 H 886.633 -0.693257 -3.66094 0
M  V30 9477 H 886.746 -2.53333 -4.06644 0
M  V30 9478 H 885.11 -1.26367 -2.21141 0
M  V30 9479 H 885.893 -2.8946 -1.84575 0
M  V30 9480 N 888.338 1.20213 -1.01915 0
M  V30 9481 C 889.586 1.89272 -0.708552 0
M  V30 9482 C 889.907 1.79394 0.76438 0
M  V30 9483 O 889.177 1.198 1.54999 0
M  V30 9484 H 887.757 0.700628 -0.259094 0
M  V30 9485 H 890.419 1.45985 -1.29129 0
M  V30 9486 H 889.515 2.95841 -0.994215 0
M  V30 9487 N 889.816 0.795718 1.36037 0
M  V30 9488 C 891.041 0.38204 2.03851 0
M  V30 9489 C 891.466 -0.995553 1.59594 0
M  V30 9490 O 890.824 -1.64258 0.767401 0
M  V30 9491 C 890.872 0.461248 3.57638 0
M  V30 9492 O 889.976 -0.529448 4.08987 0
M  V30 9493 H 889.317 0.161227 0.644129 0
M  V30 9494 H 891.847 1.07858 1.73861 0
M  V30 9495 H 891.857 0.32712 4.06687 0
M  V30 9496 H 890.532 1.46613 3.89201 0
M  V30 9497 H 889.109 -0.35646 3.71192 0
M  V30 9498 N 891.294 -1.47756 0.548274 0
M  V30 9499 C 892.224 -2.32702 -0.19284 0
M  V30 9500 C 893.205 -1.43237 -0.917457 0
M  V30 9501 O 894.39 -1.72103 -0.89967 0
M  V30 9502 C 891.52 -3.24831 -1.22891 0
M  V30 9503 C 890.474 -4.23466 -0.621312 0
M  V30 9504 C 889.8 -5.04856 -1.76137 0
M  V30 9505 C 891.1 -5.20616 0.419055 0
M  V30 9506 H 892.794 -2.94914 0.516323 0
M  V30 9507 H 890.34 -1.41818 0.24975 0
M  V30 9508 H 892.293 -3.83094 -1.75547 0
M  V30 9509 H 891.017 -2.60656 -1.9679 0
M  V30 9510 H 889.676 -3.66416 -0.116123 0
M  V30 9511 H 889.324 -4.37091 -2.48918 0
M  V30 9512 H 889.024 -5.71629 -1.36065 0
M  V30 9513 H 890.548 -5.65976 -2.29136 0
M  V30 9514 H 891.962 -5.73296 -0.0211034 0
M  V30 9515 H 890.359 -5.95543 0.738163 0
M  V30 9516 H 891.429 -4.66638 1.31822 0
M  V30 9517 N 892.772 -0.284283 -1.55015 0
M  V30 9518 C 893.719 0.599194 -2.22886 0
M  V30 9519 C 894.689 1.14264 -1.20553 0
M  V30 9520 O 895.874 1.19025 -1.49123 0
M  V30 9521 C 893.014 1.77317 -2.96062 0
M  V30 9522 C 892.127 1.26271 -4.13134 0
M  V30 9523 C 891.262 2.39922 -4.73931 0
M  V30 9524 C 890.301 1.85925 -5.8318 0
M  V30 9525 N 889.438 2.93084 -6.38002 0
M  V30 9526 H 894.278 0.0137816 -2.97997 0
M  V30 9527 H 891.815 -0.00496503 -1.47099 0
M  V30 9528 H 893.773 2.46339 -3.36709 0
M  V30 9529 H 892.403 2.33047 -2.23358 0
M  V30 9530 H 891.455 0.465296 -3.77544 0
M  V30 9531 H 892.767 0.827284 -4.91892 0
M  V30 9532 H 891.921 3.1692 -5.17346 0
M  V30 9533 H 890.66 2.86784 -3.9447 0
M  V30 9534 H 889.665 1.07409 -5.39206 0
M  V30 9535 H 890.89 1.39987 -6.64515 0
M  V30 9536 H 888.836 3.3931 -5.61431 0
M  V30 9537 H 888.753 2.53986 -7.12058 0
M  V30 9538 H 890.021 3.7003 -6.86075 0
M  V30 9539 N 894.251 1.57596 -0.0117121 0
M  V30 9540 C 895.499 1.90694 0.669342 0
M  V30 9541 C 895.82 0.886999 1.73659 0
M  V30 9542 O 895.09 -0.0739779 1.9576 0
M  V30 9543 H 893.67 0.703846 0.250219 0
M  V30 9544 H 896.332 1.94821 -0.0554057 0
M  V30 9545 H 895.428 2.90802 1.13316 0
M  V30 9546 N 895.729 -0.261212 1.5542 0
M  V30 9547 C 896.977 -0.989272 1.76232 0
M  V30 9548 C 897.298 -1.86389 0.573067 0
M  V30 9549 O 896.568 -1.91526 -0.41166 0
M  V30 9550 H 895.148 -0.368256 0.64992 0
M  V30 9551 H 897.81 -0.282603 1.9284 0
M  V30 9552 H 896.906 -1.61935 2.66802 0
M  V30 9553 N 897.207 -1.48554 -0.526253 0
M  V30 9554 C 898.137 -1.66252 -1.63959 0
M  V30 9555 C 899.118 -0.511351 -1.62232 0
M  V30 9556 O 900.303 -0.744322 -1.7937 0
M  V30 9557 C 897.433 -1.70556 -3.02536 0
M  V30 9558 C 896.387 -2.8521 -3.19123 0
M  V30 9559 C 895.713 -2.74606 -4.58798 0
M  V30 9560 C 897.013 -4.26463 -3.0154 0
M  V30 9561 H 898.707 -2.59459 -1.49404 0
M  V30 9562 H 896.253 -1.24862 -0.717326 0
M  V30 9563 H 898.206 -1.81524 -3.80298 0
M  V30 9564 H 896.93 -0.739297 -3.18123 0
M  V30 9565 H 895.589 -2.73802 -2.43779 0
M  V30 9566 H 895.237 -1.75941 -4.71226 0
M  V30 9567 H 894.937 -3.51544 -4.70841 0
M  V30 9568 H 896.461 -2.87548 -5.38655 0
M  V30 9569 H 897.875 -4.38685 -3.69091 0
M  V30 9570 H 896.272 -5.04428 -3.25073 0
M  V30 9571 H 897.342 -4.42667 -1.97925 0
M  V30 9572 N 898.685 0.775411 -1.37205 0
M  V30 9573 C 900.101 1.07546 -1.17924 0
M  V30 9574 C 900.301 2.01496 -0.0128897 0
M  V30 9575 O 899.357 2.44039 0.64816 0
M  V30 9576 C 900.67 1.67647 -2.49629 0
M  V30 9577 C 902.218 1.79923 -2.56119 0
M  V30 9578 C 902.693 2.43438 -3.87946 0
M  V30 9579 N 904.184 2.50893 -3.89368 0
M  V30 9580 C 904.919 3.00881 -4.88117 0
M  V30 9581 N 904.415 3.5107 -5.97262 0
M  V30 9582 N 906.208 2.99722 -4.75524 0
M  V30 9583 H 898.359 0.151524 -2.11859 0
M  V30 9584 H 900.622 0.129845 -0.939066 0
M  V30 9585 H 900.328 1.06082 -3.3532 0
M  V30 9586 H 900.202 2.66988 -2.66453 0
M  V30 9587 H 902.589 2.40621 -1.70838 0
M  V30 9588 H 902.67 0.793482 -2.43182 0
M  V30 9589 H 902.314 1.8338 -4.73639 0
M  V30 9590 H 902.244 3.44611 -3.98184 0
M  V30 9591 H 904.735 2.1537 -3.10522 0
M  V30 9592 H 905.048 3.87604 -6.68568 0
M  V30 9593 H 903.393 3.49184 -6.00912 0
M  V30 9594 H 906.584 2.5981 -3.8938 0
M  V30 9595 H 906.757 3.38369 -5.52639 0
M  V30 9596 N 900.163 1.21714 1.00117 0
M  V30 9597 C 901.409 1.03823 1.74208 0
M  V30 9598 C 901.742 -0.426733 1.89454 0
M  V30 9599 O 901.017 -1.31658 1.43166 0
M  V30 9600 C 901.3 1.74047 3.15246 0
M  V30 9601 C 901.153 3.28087 3.077 0
M  V30 9602 C 902.472 1.48614 4.14249 0
M  V30 9603 H 899.591 0.378573 0.632338 0
M  V30 9604 H 902.233 1.49942 1.16694 0
M  V30 9605 H 900.383 1.3484 3.64349 0
M  V30 9606 H 902.055 3.76686 2.6628 0
M  V30 9607 H 900.298 3.58191 2.44707 0
M  V30 9608 H 900.969 3.72392 4.07466 0
M  V30 9609 H 903.445 1.82656 3.73866 0
M  V30 9610 H 902.321 2.00257 5.11066 0
M  V30 9611 H 902.582 0.416957 4.40129 0
M  V30 9612 N 901.641 -1.19671 1.02551 0
M  V30 9613 C 902.869 -1.93233 0.739513 0
M  V30 9614 C 903.284 -1.75298 -0.701158 0
M  V30 9615 O 902.641 -1.07269 -1.47647 0
M  V30 9616 C 902.692 -3.45085 1.07697 0
M  V30 9617 O 902.413 -3.62441 2.46106 0
M  V30 9618 C 903.914 -4.35776 0.813298 0
M  V30 9619 H 901.134 -0.613905 0.270853 0
M  V30 9620 H 903.678 -1.51909 1.36909 0
M  V30 9621 H 901.833 -3.84255 0.492635 0
M  V30 9622 H 902.247 -4.56337 2.58567 0
M  V30 9623 H 903.721 -5.40941 1.09941 0
M  V30 9624 H 904.198 -4.38474 -0.252359 0
M  V30 9625 H 904.804 -4.02282 1.38021 0
M  V30 9626 N 903.119 -0.802921 -1.35613 0
M  V30 9627 C 904.029 -0.212177 -2.33639 0
M  V30 9628 C 905.045 0.642871 -1.61689 0
M  V30 9629 O 906.221 0.555485 -1.93588 0
M  V30 9630 C 903.286 0.632406 -3.40883 0
M  V30 9631 C 902.347 -0.242708 -4.28613 0
M  V30 9632 C 901.58 0.56166 -5.30736 0
M  V30 9633 O 901.803 1.79664 -5.41366 0
M  V30 9634 O 900.737 -0.0455387 -6.01883 0
M  V30 9635 H 904.563 -1.023 -2.85952 0
M  V30 9636 H 902.148 -0.564636 -1.38319 0
M  V30 9637 H 904.03 1.11358 -4.0642 0
M  V30 9638 H 902.705 1.42089 -2.90848 0
M  V30 9639 H 901.612 -0.77094 -3.6607 0
M  V30 9640 H 902.945 -0.995046 -4.82037 0
M  V30 9641 N 904.597 1.47463 -0.556102 0
M  V30 9642 C 905.529 2.28046 0.22968 0
M  V30 9643 C 906.542 1.3694 0.880409 0
M  V30 9644 O 907.731 1.61773 0.754447 0
M  V30 9645 C 904.831 3.11165 1.34273 0
M  V30 9646 C 904.004 4.30225 0.789004 0
M  V30 9647 C 903.063 4.94948 1.78641 0
M  V30 9648 O 902.089 5.53372 1.33297 0
M  V30 9649 N 903.291 4.89543 3.11974 0
M  V30 9650 H 906.056 2.96125 -0.461558 0
M  V30 9651 H 903.617 1.5708 -0.392105 0
M  V30 9652 H 905.609 3.51331 2.00869 0
M  V30 9653 H 904.179 2.45337 1.93722 0
M  V30 9654 H 903.399 3.94163 -0.0536971 0
M  V30 9655 H 904.687 5.07238 0.398378 0
M  V30 9656 H 904.085 4.43275 3.51459 0
M  V30 9657 H 902.642 5.33732 3.74131 0
M  V30 9658 N 906.075 0.2925 1.54862 0
M  V30 9659 C 907.323 -0.318633 1.99572 0
M  V30 9660 C 907.644 -1.55062 1.1824 0
M  V30 9661 O 906.914 -1.93943 0.276226 0
M  V30 9662 H 905.494 -0.120722 0.737181 0
M  V30 9663 H 908.156 0.401862 1.90712 0
M  V30 9664 H 907.252 -0.596542 3.06346 0
M  V30 9665 N 907.553 -1.57587 0.0200696 0
M  V30 9666 C 908.463 -2.13119 -0.980676 0
M  V30 9667 C 909.479 -1.08124 -1.36328 0
M  V30 9668 O 910.655 -1.40134 -1.44653 0
M  V30 9669 C 907.72 -2.63991 -2.24743 0
M  V30 9670 C 906.781 -3.83667 -1.9261 0
M  V30 9671 C 906.014 -4.32103 -3.13246 0
M  V30 9672 O 906.237 -3.79758 -4.25606 0
M  V30 9673 O 905.171 -5.24047 -2.96072 0
M  V30 9674 H 908.997 -2.98887 -0.538528 0
M  V30 9675 H 906.582 -1.48055 -0.19999 0
M  V30 9676 H 908.464 -2.9682 -2.99125 0
M  V30 9677 H 907.139 -1.81311 -2.68157 0
M  V30 9678 H 906.046 -3.55778 -1.15641 0
M  V30 9679 H 907.379 -4.67482 -1.54019 0
M  V30 9680 N 909.032 0.252966 -1.55557 0
M  V30 9681 C 909.965 1.33928 -1.84766 0
M  V30 9682 C 910.943 1.46653 -0.702254 0
M  V30 9683 O 912.127 1.62963 -0.947375 0
M  V30 9684 C 909.254 2.71348 -2.02701 0
M  V30 9685 C 908.3 2.75804 -3.25322 0
M  V30 9686 S 909.133 2.33025 -4.82141 0
M  V30 9687 C 910.289 3.72382 -5.03073 0
M  V30 9688 H 910.522 1.08951 -2.76617 0
M  V30 9689 H 908.055 0.45364 -1.47585 0
M  V30 9690 H 910.013 3.50478 -2.13718 0
M  V30 9691 H 908.674 2.93566 -1.11703 0
M  V30 9692 H 907.867 3.76713 -3.34819 0
M  V30 9693 H 907.469 2.04713 -3.12999 0
M  V30 9694 H 909.761 4.67828 -4.90044 0
M  V30 9695 H 910.704 3.67824 -6.05071 0
M  V30 9696 H 911.112 3.64614 -4.30949 0
M  V30 9697 N 910.51 1.48831 0.518367 0
M  V30 9698 C 911.759 1.5669 1.27008 0
M  V30 9699 C 912.072 0.250934 1.93984 0
M  V30 9700 O 913.278 0.207884 2.70703 0
M  V30 9701 C 911.734 2.76387 2.30517 0
M  V30 9702 C 911.342 4.14673 1.69559 0
M  V30 9703 C 913.086 2.93566 3.06625 0
M  V30 9704 C 910.993 5.25616 2.71076 0
M  V30 9705 H 909.923 0.583362 0.477708 0
M  V30 9706 H 912.574 1.75187 0.546052 0
M  V30 9707 H 910.956 2.51348 3.06006 0
M  V30 9708 H 912.13 4.49779 1.00179 0
M  V30 9709 H 910.445 4.02708 1.05902 0
M  V30 9710 H 913.042 3.7362 3.82508 0
M  V30 9711 H 913.385 2.03462 3.63193 0
M  V30 9712 H 913.918 3.18562 2.38251 0
M  V30 9713 H 910.657 6.17723 2.19313 0
M  V30 9714 H 910.177 4.94985 3.38748 0
M  V30 9715 H 911.856 5.5422 3.3384 0
M  V30 9716 N 911.988 -0.768124 1.37614 0
M  V30 9717 C 913.404 -1.06919 1.18493 0
M  V30 9718 C 913.604 -2.01486 0.0235753 0
M  V30 9719 O 912.66 -2.4438 -0.635209 0
M  V30 9720 C 913.973 -1.66321 2.50515 0
M  V30 9721 C 915.521 -1.78562 2.57069 0
M  V30 9722 C 915.996 -2.41377 3.89231 0
M  V30 9723 N 917.487 -2.48824 3.90693 0
M  V30 9724 C 918.222 -2.98288 4.89706 0
M  V30 9725 N 917.718 -3.47897 5.99115 0
M  V30 9726 N 919.511 -2.97196 4.77107 0
M  V30 9727 H 911.662 -0.140286 2.11936 0
M  V30 9728 H 913.925 -0.124863 0.939741 0
M  V30 9729 H 913.631 -1.04303 3.35878 0
M  V30 9730 H 913.505 -2.65571 2.67866 0
M  V30 9731 H 915.892 -2.39712 1.72111 0
M  V30 9732 H 915.973 -0.780574 2.43599 0
M  V30 9733 H 915.617 -1.80866 4.74605 0
M  V30 9734 H 915.547 -3.42495 4.00006 0
M  V30 9735 H 918.038 -2.1372 3.1166 0
M  V30 9736 H 918.351 -3.84053 6.70614 0
M  V30 9737 H 916.696 -3.45993 6.02755 0
M  V30 9738 H 919.887 -2.57741 3.90752 0
M  V30 9739 H 920.06 -3.35434 5.54426 0
M  V30 9740 N 913.466 -1.22244 -0.994698 0
M  V30 9741 C 914.713 -1.04591 -1.73398 0
M  V30 9742 C 915.041 0.419223 -1.89928 0
M  V30 9743 O 914.296 1.32714 -1.43824 0
M  V30 9744 C 914.595 -1.70014 -3.14372 0
M  V30 9745 C 914.261 -3.19903 -3.17762 0
M  V30 9746 C 912.923 -3.60803 -3.18394 0
M  V30 9747 C 915.275 -4.15851 -3.14194 0
M  V30 9748 C 912.603 -4.96135 -3.13157 0
M  V30 9749 C 914.955 -5.51157 -3.10498 0
M  V30 9750 C 913.619 -5.91439 -3.09445 0
M  V30 9751 H 912.889 -0.382725 -0.63451 0
M  V30 9752 H 915.536 -1.51981 -1.16508 0
M  V30 9753 H 913.841 -1.14945 -3.7456 0
M  V30 9754 H 915.538 -1.53848 -3.70313 0
M  V30 9755 H 912.128 -2.87336 -3.18019 0
M  V30 9756 H 916.312 -3.85272 -3.12857 0
M  V30 9757 H 911.568 -5.26578 -3.10685 0
M  V30 9758 H 915.742 -6.2523 -3.06692 0
M  V30 9759 H 913.369 -6.96271 -3.05141 0
M  V30 9760 N 914.944 1.19125 -1.03184 0
M  V30 9761 C 915.891 2.2245 -0.6152 0
M  V30 9762 C 916.861 1.61869 0.372502 0
M  V30 9763 O 918.046 1.88901 0.268491 0
M  V30 9764 C 915.186 3.45091 0.0248027 0
M  V30 9765 C 914.299 4.20044 -1.0093 0
M  V30 9766 C 913.434 5.30119 -0.338744 0
M  V30 9767 C 912.473 5.96833 -1.35855 0
M  V30 9768 N 911.61 6.98464 -0.713594 0
M  V30 9769 H 916.45 2.57445 -1.50086 0
M  V30 9770 H 913.987 1.26485 -0.751005 0
M  V30 9771 H 915.945 4.15149 0.413131 0
M  V30 9772 H 914.575 3.10742 0.874028 0
M  V30 9773 H 913.627 3.48901 -1.51566 0
M  V30 9774 H 914.939 4.65796 -1.78425 0
M  V30 9775 H 914.093 6.0661 0.104269 0
M  V30 9776 H 912.832 4.85446 0.468382 0
M  V30 9777 H 911.837 5.1909 -1.81179 0
M  V30 9778 H 913.062 6.4359 -2.16722 0
M  V30 9779 H 911.008 6.55959 0.0733863 0
M  V30 9780 H 910.925 7.42422 -1.42638 0
M  V30 9781 H 912.193 7.78943 -0.294681 0
M  V30 9782 N 916.422 0.810101 1.35185 0
M  V30 9783 C 917.652 0.404109 2.02609 0
M  V30 9784 C 918.06 -0.990748 1.61186 0
M  V30 9785 O 917.403 -1.65038 0.80674 0
M  V30 9786 C 917.465 0.412047 3.57131 0
M  V30 9787 C 917.129 1.75802 4.21832 0
M  V30 9788 C 918.126 2.71687 4.43263 0
M  V30 9789 C 915.811 2.04299 4.58876 0
M  V30 9790 C 917.805 3.9425 5.00845 0
M  V30 9791 C 915.492 3.27125 5.16171 0
M  V30 9792 C 916.49 4.21918 5.37098 0
M  V30 9793 O 916.178 5.42576 5.93184 0
M  V30 9794 H 915.91 0.161914 0.656323 0
M  V30 9795 H 918.464 1.09605 1.73712 0
M  V30 9796 H 916.694 -0.336509 3.85233 0
M  V30 9797 H 918.383 0.0278817 4.0589 0
M  V30 9798 H 919.149 2.50964 4.15021 0
M  V30 9799 H 915.028 1.31324 4.41899 0
M  V30 9800 H 918.572 4.68251 5.17094 0
M  V30 9801 H 914.469 3.47718 5.43841 0
M  V30 9802 H 915.237 5.43921 6.11631 0
M  V30 9803 N 917.9 -1.47166 0.563914 0
M  V30 9804 C 919.148 -2.02056 0.0422873 0
M  V30 9805 C 919.469 -1.43992 -1.31497 0
M  V30 9806 O 918.739 -0.617578 -1.85911 0
M  V30 9807 H 917.319 -0.746893 0.0126427 0
M  V30 9808 H 919.981 -1.80492 0.735441 0
M  V30 9809 H 919.077 -3.12073 -0.0408044 0
M  V30 9810 N 919.378 -0.300708 -1.54705 0
M  V30 9811 C 920.308 0.568675 -2.26469 0
M  V30 9812 C 921.289 1.13817 -1.26411 0
M  V30 9813 O 922.474 1.16756 -1.55183 0
M  V30 9814 C 919.604 1.74077 -3.00524 0
M  V30 9815 C 918.558 1.30165 -4.07727 0
M  V30 9816 C 917.884 2.55888 -4.69495 0
M  V30 9817 C 919.184 0.433106 -5.20501 0
M  V30 9818 H 920.878 -0.0298851 -2.99385 0
M  V30 9819 H 918.424 -0.0158135 -1.43991 0
M  V30 9820 H 920.377 2.35506 -3.49449 0
M  V30 9821 H 919.101 2.36556 -2.25186 0
M  V30 9822 H 917.76 0.710414 -3.59651 0
M  V30 9823 H 917.408 3.16681 -3.90797 0
M  V30 9824 H 917.108 2.27207 -5.41895 0
M  V30 9825 H 918.632 3.18121 -5.21183 0
M  V30 9826 H 920.046 0.95307 -5.65322 0
M  V30 9827 H 918.443 0.240085 -5.9962 0
M  V30 9828 H 919.513 -0.541866 -4.81863 0
M  V30 9829 N 920.856 1.57574 -0.0284266 0
M  V30 9830 C 922.267 1.79585 0.510502 0
M  V30 9831 C 922.618 0.938625 1.72291 0
M  V30 9832 O 921.743 0.14884 2.15888 0
M  V30 9833 C 922.338 3.25703 0.932912 0
M  V30 9834 C 920.897 3.48711 1.41696 0
M  V30 9835 C 920.044 2.74665 0.381356 0
M  V30 9836 H 922.995 1.56647 -0.254464 0
M  V30 9837 H 923.016 3.35376 1.79731 0
M  V30 9838 H 922.528 3.88067 0.0503036 0
M  V30 9839 H 920.629 2.91597 2.31952 0
M  V30 9840 H 920.742 4.57423 1.42481 0
M  V30 9841 H 919.106 2.40123 0.8493 0
M  V30 9842 H 919.889 3.39745 -0.492775 0
M  V30 9843 N 922.334 -0.244713 1.55689 0
M  V30 9844 C 923.244 -1.32447 1.93636 0
M  V30 9845 C 924.26 -1.52541 0.837086 0
M  V30 9846 O 925.436 -1.66121 1.13867 0
M  V30 9847 C 922.501 -2.65864 2.22525 0
M  V30 9848 C 921.562 -2.54273 3.45896 0
M  V30 9849 C 920.795 -3.81327 3.73397 0
M  V30 9850 O 921.018 -4.83307 3.02936 0
M  V30 9851 O 919.952 -3.79829 4.66919 0
M  V30 9852 H 923.778 -1.03255 2.85608 0
M  V30 9853 H 921.363 -0.445652 1.42598 0
M  V30 9854 H 923.245 -3.447 2.42404 0
M  V30 9855 H 921.92 -2.94784 1.33731 0
M  V30 9856 H 920.827 -1.73715 3.31321 0
M  V30 9857 H 922.16 -2.30297 4.34999 0
M  V30 9858 N 923.813 -1.49104 -0.510467 0
M  V30 9859 C 925.062 -1.57362 -1.26175 0
M  V30 9860 C 925.375 -0.261218 -1.93848 0
M  V30 9861 O 926.581 -0.222238 -2.70589 0
M  V30 9862 C 925.037 -2.77606 -2.29048 0
M  V30 9863 C 924.645 -4.15567 -1.67357 0
M  V30 9864 C 926.389 -2.95188 -3.05064 0
M  V30 9865 C 924.296 -5.27046 -2.68285 0
M  V30 9866 H 923.226 -0.585887 -0.474608 0
M  V30 9867 H 925.877 -1.75474 -0.536753 0
M  V30 9868 H 924.259 -2.52968 -3.04669 0
M  V30 9869 H 925.433 -4.50304 -0.977924 0
M  V30 9870 H 923.748 -4.03264 -1.03765 0
M  V30 9871 H 926.345 -3.75643 -3.80521 0
M  V30 9872 H 926.688 -2.05385 -3.62108 0
M  V30 9873 H 927.221 -3.19821 -2.36558 0
M  V30 9874 H 923.96 -6.18878 -2.16034 0
M  V30 9875 H 923.48 -4.96774 -3.36118 0
M  V30 9876 H 925.159 -5.55983 -3.30896 0
M  V30 9877 N 925.291 0.760815 -1.38019 0
M  V30 9878 C 926.519 1.55001 -1.37048 0
M  V30 9879 C 926.934 1.88754 0.0415261 0
M  V30 9880 O 926.291 1.52254 1.00624 0
M  V30 9881 C 926.342 2.8536 -2.21928 0
M  V30 9882 O 926.063 2.53049 -3.57628 0
M  V30 9883 C 927.564 3.79536 -2.29057 0
M  V30 9884 H 924.784 0.479844 -0.469032 0
M  V30 9885 H 927.328 0.942148 -1.81504 0
M  V30 9886 H 925.483 3.42542 -1.80953 0
M  V30 9887 H 925.897 3.36604 -4.02241 0
M  V30 9888 H 927.371 4.67977 -2.92749 0
M  V30 9889 H 927.848 4.19453 -1.30213 0
M  V30 9890 H 928.454 3.28281 -2.70392 0
M  V30 9891 N 926.769 1.22769 0.988202 0
M  V30 9892 C 928.015 1.05665 1.73097 0
M  V30 9893 C 928.348 -0.406615 1.89895 0
M  V30 9894 O 927.623 -1.30132 1.44554 0
M  V30 9895 C 927.906 1.77381 3.13382 0
M  V30 9896 C 927.759 3.31332 3.04203 0
M  V30 9897 C 929.078 1.52999 4.12649 0
M  V30 9898 H 926.197 0.385258 0.628288 0
M  V30 9899 H 928.839 1.51171 1.15097 0
M  V30 9900 H 926.989 1.38696 3.62899 0
M  V30 9901 H 928.661 3.79489 2.6227 0
M  V30 9902 H 926.904 3.60767 2.40894 0
M  V30 9903 H 927.575 3.76692 4.03493 0
M  V30 9904 H 930.051 1.86611 3.71908 0
M  V30 9905 H 928.927 2.05666 5.08913 0
M  V30 9906 H 929.188 0.463615 4.39662 0
M  V30 9907 N 928.247 -1.18576 1.03814 0
M  V30 9908 C 929.472 -1.92978 0.759873 0
M  V30 9909 C 929.897 -1.75514 -0.676486 0
M  V30 9910 O 929.255 -1.06359 -1.46824 0
M  V30 9911 C 929.303 -3.42507 1.12788 0
M  V30 9912 O 928.407 -4.1163 0.251886 0
M  V30 9913 H 927.748 -0.602129 0.279886 0
M  V30 9914 H 930.278 -1.50383 1.3873 0
M  V30 9915 H 930.288 -3.93206 1.08872 0
M  V30 9916 H 928.963 -3.5454 2.17427 0
M  V30 9917 H 927.54 -3.7125 0.350441 0
M  V30 9918 N 929.725 -0.817259 -1.34754 0
M  V30 9919 C 930.95 -0.414423 -2.03217 0
M  V30 9920 C 931.375 0.970037 -1.61158 0
M  V30 9921 O 930.733 1.63016 -0.793436 0
M  V30 9922 C 930.781 -0.518087 -3.56859 0
M  V30 9923 O 929.885 0.464314 -4.09778 0
M  V30 9924 H 929.226 -0.171454 -0.641482 0
M  V30 9925 H 931.756 -1.10611 -1.72123 0
M  V30 9926 H 931.766 -0.391779 -4.06115 0
M  V30 9927 H 930.441 -1.52786 -3.86819 0
M  V30 9928 H 929.018 0.297361 -3.71712 0
M  V30 9929 N 931.203 1.46865 -0.571711 0
M  V30 9930 C 932.133 2.3298 0.155795 0
M  V30 9931 C 933.114 1.44678 0.894553 0
M  V30 9932 O 934.299 1.73513 0.872176 0
M  V30 9933 C 931.429 3.26745 1.17708 0
M  V30 9934 C 930.383 4.24401 0.553863 0
M  V30 9935 C 929.709 5.07595 1.68083 0
M  V30 9936 C 931.009 5.19884 -0.501827 0
M  V30 9937 H 932.703 2.94056 -0.563176 0
M  V30 9938 H 930.249 1.41402 -0.27228 0
M  V30 9939 H 932.202 3.85838 1.6943 0
M  V30 9940 H 930.926 2.63753 1.92618 0
M  V30 9941 H 929.585 3.66554 0.057815 0
M  V30 9942 H 929.233 4.40996 2.41933 0
M  V30 9943 H 928.933 5.73722 1.26953 0
M  V30 9944 H 930.457 5.6955 2.20103 0
M  V30 9945 H 931.871 5.73257 -0.0701057 0
M  V30 9946 H 930.268 5.94293 -0.832815 0
M  V30 9947 H 931.338 4.64482 -1.39229 0
M  V30 9948 N 932.681 0.308908 1.54543 0
M  V30 9949 C 933.906 -0.303196 2.05172 0
M  V30 9950 C 934.331 -1.46133 1.18434 0
M  V30 9951 O 933.689 -1.803 0.190162 0
M  V30 9952 C 933.737 -0.729526 3.53143 0
M  V30 9953 O 932.841 -1.83348 3.69401 0
M  V30 9954 H 932.182 -0.0575066 0.661505 0
M  V30 9955 H 934.712 0.453055 1.99521 0
M  V30 9956 H 934.722 -1.01619 3.95143 0
M  V30 9957 H 933.397 0.117622 4.15734 0
M  V30 9958 H 931.974 -1.54676 3.39308 0
M  V30 9959 N 934.159 -1.57557 0.0367827 0
M  V30 9960 C 935.089 -2.13712 -0.940719 0
M  V30 9961 C 936.07 -1.05515 -1.33419 0
M  V30 9962 O 937.255 -1.33385 -1.41146 0
M  V30 9963 C 934.385 -2.67043 -2.22048 0
M  V30 9964 C 933.339 -3.80096 -1.96752 0
M  V30 9965 C 932.665 -4.19886 -3.31059 0
M  V30 9966 C 933.965 -5.05848 -1.30058 0
M  V30 9967 H 935.659 -2.9564 -0.473033 0
M  V30 9968 H 933.205 -1.42214 -0.226089 0
M  V30 9969 H 935.158 -3.04964 -2.90818 0
M  V30 9970 H 933.882 -1.82287 -2.70996 0
M  V30 9971 H 932.541 -3.42625 -1.30398 0
M  V30 9972 H 932.189 -3.32101 -3.77781 0
M  V30 9973 H 931.889 -4.96073 -3.14937 0
M  V30 9974 H 933.413 -4.60395 -4.01084 0
M  V30 9975 H 934.827 -5.41306 -1.8884 0
M  V30 9976 H 933.224 -5.87084 -1.24309 0
M  V30 9977 H 934.294 -4.84122 -0.274591 0
M  V30 9978 N 935.637 0.236453 -1.55816 0
M  V30 9979 C 936.867 0.978873 -1.81939 0
M  V30 9980 C 937.275 1.79041 -0.611647 0
M  V30 9981 O 936.618 1.78616 0.429172 0
M  V30 9982 C 936.68 1.9569 -3.01572 0
M  V30 9983 C 936.344 1.33131 -4.37178 0
M  V30 9984 C 937.341 0.728585 -5.1477 0
M  V30 9985 C 935.026 1.34755 -4.83887 0
M  V30 9986 C 937.02 0.150427 -6.37222 0
M  V30 9987 C 934.707 0.765539 -6.06286 0
M  V30 9988 C 935.705 0.168017 -6.82793 0
M  V30 9989 O 935.393 -0.404976 -8.02879 0
M  V30 9990 H 935.125 0.293186 -0.609113 0
M  V30 9991 H 937.679 0.261384 -2.0373 0
M  V30 9992 H 935.909 2.71298 -2.75562 0
M  V30 9993 H 937.598 2.56362 -3.14695 0
M  V30 9994 H 938.364 0.708477 -4.79797 0
M  V30 9995 H 934.243 1.80202 -4.24321 0
M  V30 9996 H 937.787 -0.316586 -6.96881 0
M  V30 9997 H 933.684 0.78301 -6.40733 0
M  V30 9998 H 934.452 -0.29785 -8.17958 0
M  V30 9999 N 937.115 1.49373 0.502552 0
M  V30 10000 C 938.343 1.62488 1.28084 0
M  V30 10001 C 938.758 0.295667 1.86471 0
M  V30 10002 O 938.115 -0.718664 1.67754 0
M  V30 10003 C 938.166 2.69249 2.4122 0
M  V30 10004 O 937.887 3.97014 1.85234 0
M  V30 10005 C 939.388 2.93054 3.32617 0
M  V30 10006 H 936.608 0.547068 0.388533 0
M  V30 10007 H 939.152 1.95394 0.603452 0
M  V30 10008 H 937.307 2.39125 3.04792 0
M  V30 10009 H 937.721 4.55809 2.59496 0
M  V30 10010 H 939.195 3.71493 4.08285 0
M  V30 10011 H 939.672 2.02911 3.89517 0
M  V30 10012 H 940.278 3.24589 2.74813 0
M  V30 10013 N 938.594 -0.753485 1.38421 0
M  V30 10014 C 939.842 -1.50962 1.34368 0
M  V30 10015 C 940.163 -1.94889 -0.0656895 0
M  V30 10016 O 939.433 -1.67652 -1.01339 0
M  V30 10017 H 938.013 -0.559967 0.494415 0
M  V30 10018 H 940.675 -0.895665 1.73101 0
M  V30 10019 H 939.771 -2.40048 1.99458 0
M  V30 10020 N 940.072 -1.23292 -0.981677 0
M  V30 10021 C 941.035 -1.01417 -2.05542 0
M  V30 10022 C 942.035 0.0235354 -1.60783 0
M  V30 10023 O 943.225 -0.216082 -1.72855 0
M  V30 10024 C 940.357 -0.534239 -3.36688 0
M  V30 10025 H 941.55 -1.96702 -2.26381 0
M  V30 10026 H 939.103 -1.05318 -1.1549 0
M  V30 10027 H 939.838 0.422452 -3.21537 0
M  V30 10028 H 939.623 -1.28304 -3.70514 0
M  V30 10029 H 941.113 -0.40179 -4.15663 0
M  V30 10030 N 941.55 1.18024 -1.04442 0
M  V30 10031 C 942.799 1.8743 -0.745185 0
M  V30 10032 C 943.112 1.81459 0.730206 0
M  V30 10033 O 944.318 2.46263 1.1431 0
M  V30 10034 C 942.774 3.36266 -1.28271 0
M  V30 10035 C 942.382 3.50757 -2.787 0
M  V30 10036 C 944.126 4.11048 -1.06018 0
M  V30 10037 C 942.033 4.93573 -3.25791 0
M  V30 10038 H 940.963 0.702038 -0.27506 0
M  V30 10039 H 943.614 1.33333 -1.26073 0
M  V30 10040 H 941.996 3.89853 -0.695002 0
M  V30 10041 H 943.17 3.07423 -3.43261 0
M  V30 10042 H 941.485 2.89385 -2.99408 0
M  V30 10043 H 944.082 5.16395 -1.38711 0
M  V30 10044 H 944.425 4.163 0.00241716 0
M  V30 10045 H 944.958 3.63644 -1.61269 0
M  V30 10046 H 941.697 4.93491 -4.31447 0
M  V30 10047 H 941.217 5.37607 -2.65968 0
M  V30 10048 H 942.896 5.62307 -3.20031 0
M  V30 10049 N 943.028 0.824394 1.34319 0
M  V30 10050 C 943.958 0.262077 2.32025 0
M  V30 10051 C 944.939 -0.622277 1.58309 0
M  V30 10052 O 946.124 -0.548848 1.86283 0
M  V30 10053 C 943.254 -0.57567 3.42496 0
M  V30 10054 C 942.208 0.21167 4.27476 0
M  V30 10055 C 941.534 -0.748913 5.29429 0
M  V30 10056 C 942.834 1.42068 5.02607 0
M  V30 10057 H 944.528 1.07842 2.79304 0
M  V30 10058 H 942.074 0.520022 1.34282 0
M  V30 10059 H 944.027 -0.979251 4.09864 0
M  V30 10060 H 942.751 -1.42508 2.93869 0
M  V30 10061 H 941.41 0.596636 3.61712 0
M  V30 10062 H 941.058 -1.59432 4.77064 0
M  V30 10063 H 940.758 -0.226313 5.87164 0
M  V30 10064 H 942.282 -1.15032 5.99667 0
M  V30 10065 H 943.696 1.09103 5.62823 0
M  V30 10066 H 942.093 1.87903 5.69923 0
M  V30 10067 H 943.163 2.1981 4.32217 0
M  V30 10068 N 944.506 -1.46559 0.579492 0
M  V30 10069 C 945.416 -2.34066 -0.15816 0
M  V30 10070 C 946.432 -1.49556 -0.88932 0
M  V30 10071 O 947.608 -1.82434 -0.853226 0
M  V30 10072 C 944.673 -3.26683 -1.161 0
M  V30 10073 C 943.734 -4.27092 -0.434855 0
M  V30 10074 C 942.967 -5.15283 -1.38992 0
M  V30 10075 O 943.19 -5.06345 -2.62623 0
M  V30 10076 O 942.124 -5.95099 -0.902253 0
M  V30 10077 H 945.95 -2.98488 0.560234 0
M  V30 10078 H 943.535 -1.45482 0.339918 0
M  V30 10079 H 945.417 -3.8383 -1.73932 0
M  V30 10080 H 944.092 -2.64862 -1.86091 0
M  V30 10081 H 942.999 -3.73641 0.185224 0
M  V30 10082 H 944.332 -4.9169 0.224031 0
M  V30 10083 N 945.984 -0.3171 -1.54377 0
M  V30 10084 C 946.947 0.53905 -2.22771 0
M  V30 10085 C 947.947 1.04865 -1.21901 0
M  V30 10086 O 949.137 0.942108 -1.46526 0
M  V30 10087 C 946.269 1.74804 -2.92671 0
M  V30 10088 H 947.462 -0.0587417 -2.99842 0
M  V30 10089 H 945.015 -0.068107 -1.56152 0
M  V30 10090 H 945.75 2.38524 -2.1972 0
M  V30 10091 H 945.535 1.39011 -3.66631 0
M  V30 10092 H 947.025 2.35592 -3.44799 0
M  V30 10093 N 947.462 1.57535 -0.0451378 0
M  V30 10094 C 948.41 2.12351 0.949205 0
M  V30 10095 C 949.404 1.05386 1.32628 0
M  V30 10096 O 950.61 1.23802 1.30664 0
M  V30 10097 H 946.985 0.678648 0.323945 0
M  V30 10098 H 948.956 2.94806 0.461718 0
M  V30 10099 C 947.705 2.67862 2.21687 0
M  V30 10100 H 947.028 3.49826 1.93551 0
M  V30 10101 H 948.468 3.09844 2.89435 0
M  V30 10102 C 946.927 1.61353 2.95748 0
M  V30 10103 O 947.457 1.02276 3.88462 0
M  V30 10104 N 945.663 1.33017 2.5837 0
M  V30 10105 H 945.21 1.81246 1.83051 0
M  V30 10106 H 945.168 0.619812 3.0823 0
M  V30 10107 N 948.94 -0.228186 1.55939 0
M  V30 10108 C 949.87 -1.28607 1.94891 0
M  V30 10109 C 950.851 -1.49236 0.816245 0
M  V30 10110 O 952.036 -1.61531 1.07803 0
M  V30 10111 C 949.166 -2.63719 2.25986 0
M  V30 10112 C 948.12 -2.57757 3.4168 0
M  V30 10113 C 947.446 -3.96837 3.58364 0
M  V30 10114 C 948.746 -2.13116 4.76843 0
M  V30 10115 H 950.44 -0.962531 2.83506 0
M  V30 10116 H 947.986 -0.461577 1.36402 0
M  V30 10117 H 949.939 -3.37878 2.51826 0
M  V30 10118 H 948.663 -2.97747 1.34217 0
M  V30 10119 H 947.322 -1.86055 3.15878 0
M  V30 10120 H 946.97 -4.28162 2.63982 0
M  V30 10121 H 946.67 -3.93731 4.36176 0
M  V30 10122 H 948.194 -4.72668 3.86545 0
M  V30 10123 H 949.608 -2.77015 5.01932 0
M  V30 10124 H 948.005 -2.21083 5.57891 0
M  V30 10125 H 949.075 -1.08326 4.72645 0
M  V30 10126 N 950.418 -1.49637 -0.494624 0
M  V30 10127 C 951.348 -1.69692 -1.60396 0
M  V30 10128 C 952.329 -0.545648 -1.61111 0
M  V30 10129 O 953.514 -0.782202 -1.77751 0
M  V30 10130 C 950.644 -1.76934 -2.9885 0
M  V30 10131 C 949.598 -2.91915 -3.13001 0
M  V30 10132 C 948.924 -2.84276 -4.5287 0
M  V30 10133 C 950.224 -4.32764 -2.92426 0
M  V30 10134 H 951.918 -2.6257 -1.43866 0
M  V30 10135 H 949.464 -1.26355 -0.690679 0
M  V30 10136 H 951.417 -1.8955 -3.76362 0
M  V30 10137 H 950.141 -0.806609 -3.16483 0
M  V30 10138 H 948.8 -2.78911 -2.37916 0
M  V30 10139 H 948.448 -1.85897 -4.67388 0
M  V30 10140 H 948.148 -3.61452 -4.63278 0
M  V30 10141 H 949.672 -2.98909 -5.32434 0
M  V30 10142 H 951.086 -4.46415 -3.59703 0
M  V30 10143 H 949.483 -5.1121 -3.143 0
M  V30 10144 H 950.553 -4.46765 -1.88491 0
M  V30 10145 N 951.896 0.746133 -1.38819 0
M  V30 10146 C 953.307 1.32384 -1.31648 0
M  V30 10147 C 953.658 1.96185 0.0243086 0
M  V30 10148 O 952.783 1.95567 0.92641 0
M  V30 10149 C 953.378 2.40712 -2.38418 0
M  V30 10150 C 951.937 2.94185 -2.34803 0
M  V30 10151 C 951.084 1.67639 -2.20891 0
M  V30 10152 H 954.035 0.544457 -1.49068 0
M  V30 10153 H 954.056 3.20833 -2.04564 0
M  V30 10154 H 953.568 1.94247 -3.3599 0
M  V30 10155 H 951.669 3.44959 -1.40834 0
M  V30 10156 H 951.782 3.48057 -3.29231 0
M  V30 10157 H 950.146 1.9155 -1.67871 0
M  V30 10158 H 950.929 1.23242 -3.20416 0
M  V30 10159 N 953.375 1.23811 0.975125 0
M  V30 10160 C 954.786 1.0675 1.53171 0
M  V30 10161 C 955.137 -0.363475 1.92804 0
M  V30 10162 O 954.262 -1.25089 1.76583 0
M  V30 10163 C 954.857 1.93161 2.78342 0
M  V30 10164 C 953.416 1.80346 3.30382 0
M  V30 10165 C 952.563 1.88544 2.03338 0
M  V30 10166 H 955.514 1.37396 0.79423 0
M  V30 10167 H 955.535 1.45951 3.51395 0
M  V30 10168 H 955.047 2.97302 2.49465 0
M  V30 10169 H 953.148 0.790077 3.64127 0
M  V30 10170 H 953.261 2.64026 3.99784 0
M  V30 10171 H 951.625 1.32186 2.17713 0
M  V30 10172 H 952.408 2.94252 1.76836 0
M  V30 10173 N 954.853 -1.17469 1.05066 0
M  V30 10174 C 956.264 -1.69334 0.786304 0
M  V30 10175 C 956.615 -1.83604 -0.691671 0
M  V30 10176 O 955.74 -1.52269 -1.53763 0
M  V30 10177 C 956.335 -3.07572 1.42074 0
M  V30 10178 C 954.894 -3.56609 1.20446 0
M  V30 10179 C 954.041 -2.329 1.50508 0
M  V30 10180 H 956.992 -1.02003 1.21577 0
M  V30 10181 H 957.013 -3.71352 0.829334 0
M  V30 10182 H 956.525 -2.97154 2.49642 0
M  V30 10183 H 954.626 -3.72306 0.147968 0
M  V30 10184 H 954.739 -4.39446 1.90852 0
M  V30 10185 H 953.103 -2.37305 0.925124 0
M  V30 10186 H 953.886 -2.25093 2.59207 0
M  V30 10187 N 956.331 -0.831506 -1.3388 0
M  V30 10188 C 957.241 -0.261688 -2.33136 0
M  V30 10189 C 958.257 0.608429 -1.63016 0
M  V30 10190 O 959.433 0.514297 -1.94723 0
M  V30 10191 C 956.498 0.559957 -3.42148 0
M  V30 10192 C 955.559 -0.333569 -4.28002 0
M  V30 10193 C 954.792 0.448956 -5.31808 0
M  V30 10194 O 955.015 1.6814 -5.45055 0
M  V30 10195 O 953.949 -0.173197 -6.01651 0
M  V30 10196 H 957.775 -1.08343 -2.83717 0
M  V30 10197 H 955.36 -0.593849 -1.3709 0
M  V30 10198 H 957.242 1.02712 -4.08691 0
M  V30 10199 H 955.917 1.35888 -2.93796 0
M  V30 10200 H 954.824 -0.848416 -3.64352 0
M  V30 10201 H 956.157 -1.09707 -4.79818 0
M  V30 10202 N 957.809 1.4625 -0.587256 0
M  V30 10203 C 959.22 1.85997 -0.161918 0
M  V30 10204 C 959.571 1.49025 1.27616 0
M  V30 10205 O 958.696 0.907282 1.96462 0
M  V30 10206 C 959.291 3.37582 -0.287077 0
M  V30 10207 C 957.85 3.76308 0.0834211 0
M  V30 10208 C 956.997 2.70259 -0.620932 0
M  V30 10209 H 959.948 1.3734 -0.795199 0
M  V30 10210 H 959.969 3.77379 0.486333 0
M  V30 10211 H 959.481 3.64459 -1.33383 0
M  V30 10212 H 957.582 3.55047 1.13013 0
M  V30 10213 H 957.695 4.78184 -0.296064 0
M  V30 10214 H 956.059 2.54628 -0.0607027 0
M  V30 10215 H 956.842 2.99975 -1.66942 0
M  V30 10216 N 959.287 0.325282 1.54207 0
M  V30 10217 C 960.234 -0.539889 2.24397 0
M  V30 10218 C 961.204 -1.11028 1.2354 0
M  V30 10219 O 962.389 -1.1503 1.52226 0
M  V30 10220 C 959.529 -1.69405 3.00659 0
M  V30 10221 C 958.642 -1.15273 4.16337 0
M  V30 10222 C 957.777 -2.27272 4.80126 0
M  V30 10223 C 956.816 -1.70397 5.87904 0
M  V30 10224 N 955.953 -2.76065 6.45548 0
M  V30 10225 H 960.793 0.0652318 2.97929 0
M  V30 10226 H 958.33 0.043964 1.47034 0
M  V30 10227 H 960.288 -2.37325 3.43122 0
M  V30 10228 H 958.918 -2.27043 2.29458 0
M  V30 10229 H 957.97 -0.365034 3.78645 0
M  V30 10230 H 959.282 -0.696576 4.93912 0
M  V30 10231 H 958.436 -3.03092 5.25566 0
M  V30 10232 H 957.175 -2.76224 4.01935 0
M  V30 10233 H 956.18 -0.930752 5.41864 0
M  V30 10234 H 957.405 -1.22319 6.67993 0
M  V30 10235 H 955.351 -3.24306 5.7023 0
M  V30 10236 H 955.268 -2.35018 7.18542 0
M  V30 10237 H 956.536 -3.5171 6.95644 0
M  V30 10238 N 960.765 -1.57509 0.0534917 0
M  V30 10239 C 961.675 -2.15152 -0.935249 0
M  V30 10240 C 962.691 -1.10991 -1.34003 0
M  V30 10241 O 963.867 -1.43171 -1.41648 0
M  V30 10242 C 960.932 -2.68699 -2.19093 0
M  V30 10243 C 959.993 -3.87666 -1.84428 0
M  V30 10244 C 959.226 -4.3865 -3.0401 0
M  V30 10245 O 959.449 -3.887 -4.17455 0
M  V30 10246 O 958.383 -5.30209 -2.84889 0
M  V30 10247 H 962.209 -2.99962 -0.475009 0
M  V30 10248 H 959.794 -1.48446 -0.16854 0
M  V30 10249 H 961.676 -3.03098 -2.92762 0
M  V30 10250 H 960.351 -1.86958 -2.6425 0
M  V30 10251 H 959.258 -3.58151 -1.08068 0
M  V30 10252 H 960.591 -4.70643 -1.44068 0
M  V30 10253 N 962.243 0.219913 -1.56058 0
M  V30 10254 C 963.468 0.965073 -1.83579 0
M  V30 10255 C 963.893 1.77092 -0.634024 0
M  V30 10256 O 963.251 1.76434 0.417205 0
M  V30 10257 C 963.299 1.85705 -3.09105 0
M  V30 10258 O 962.403 2.95261 -2.87914 0
M  V30 10259 H 961.744 0.273173 -0.605204 0
M  V30 10260 H 964.274 0.23273 -2.03272 0
M  V30 10261 H 964.284 2.26655 -3.39252 0
M  V30 10262 H 962.959 1.26476 -3.96203 0
M  V30 10263 H 961.536 2.58246 -2.69005 0
M  V30 10264 N 963.721 1.49897 0.486681 0
M  V30 10265 C 964.967 1.61313 1.23893 0
M  V30 10266 C 965.322 0.302457 1.90008 0
M  V30 10267 O 964.615 -0.698466 1.78415 0
M  V30 10268 C 964.809 2.71982 2.31863 0
M  V30 10269 C 964.638 4.13685 1.76338 0
M  V30 10270 C 963.408 4.8029 1.57002 0
M  V30 10271 C 965.606 4.98446 1.26711 0
M  V30 10272 N 963.588 6.06259 0.965564 0
M  V30 10273 C 964.959 6.15011 0.784912 0
M  V30 10274 C 967.014 4.84338 1.15419 0
M  V30 10275 C 965.717 7.19019 0.200942 0
M  V30 10276 C 967.743 5.88508 0.584173 0
M  V30 10277 C 967.105 7.04311 0.112272 0
M  V30 10278 H 963.204 0.644555 0.442801 0
M  V30 10279 H 965.788 1.86959 0.543562 0
M  V30 10280 H 963.959 2.48086 2.98844 0
M  V30 10281 H 965.691 2.72842 2.98897 0
M  V30 10282 H 962.446 4.37324 1.81781 0
M  V30 10283 H 962.87 6.73554 0.6822 0
M  V30 10284 H 967.512 3.95107 1.50499 0
M  V30 10285 H 965.23 8.07937 -0.162099 0
M  V30 10286 H 968.816 5.79653 0.49938 0
M  V30 10287 H 967.696 7.83539 -0.321907 0
M  V30 10288 N 965.199 -0.738761 1.39212 0
M  V30 10289 C 966.615 -1.04381 1.20734 0
M  V30 10290 C 966.815 -2.01391 0.0663082 0
M  V30 10291 O 965.871 -2.45672 -0.583229 0
M  V30 10292 C 967.184 -1.6097 2.53987 0
M  V30 10293 C 968.732 -1.73069 2.60799 0
M  V30 10294 C 969.207 -2.33067 3.94264 0
M  V30 10295 N 970.698 -2.40481 3.95883 0
M  V30 10296 C 971.433 -2.87834 4.95923 0
M  V30 10297 N 970.929 -3.35111 6.0636 0
M  V30 10298 N 972.722 -2.87009 4.83304 0
M  V30 10299 H 964.873 -0.0952996 2.12186 0
M  V30 10300 H 967.136 -0.104902 0.942178 0
M  V30 10301 H 966.842 -0.971548 3.38015 0
M  V30 10302 H 966.716 -2.59829 2.73439 0
M  V30 10303 H 969.103 -2.36007 1.77157 0
M  V30 10304 H 969.184 -0.728728 2.452 0
M  V30 10305 H 968.828 -1.70758 4.78335 0
M  V30 10306 H 968.758 -3.33933 4.07181 0
M  V30 10307 H 971.249 -2.07061 3.16123 0
M  V30 10308 H 971.562 -3.69742 6.78609 0
M  V30 10309 H 969.907 -3.33129 6.09959 0
M  V30 10310 H 973.098 -2.49395 3.96131 0
M  V30 10311 H 973.271 -3.23598 5.61416 0
M  V30 10312 N 966.677 -1.24326 -0.968545 0
M  V30 10313 C 968.093 -1.00847 -1.23701 0
M  V30 10314 C 968.293 0.283235 -1.99499 0
M  V30 10315 O 967.349 0.999607 -2.31871 0
M  V30 10316 C 968.662 -2.22295 -2.02498 0
M  V30 10317 C 970.21 -2.26911 -2.15593 0
M  V30 10318 C 970.685 -3.47978 -2.97784 0
M  V30 10319 N 972.176 -3.48289 -3.05367 0
M  V30 10320 C 972.911 -4.38625 -3.69318 0
M  V30 10321 N 972.407 -5.39213 -4.34995 0
M  V30 10322 N 974.2 -4.26339 -3.66322 0
M  V30 10323 H 966.351 -2.07335 -0.461087 0
M  V30 10324 H 968.614 -0.909805 -0.26638 0
M  V30 10325 H 968.32 -3.161 -1.54188 0
M  V30 10326 H 968.194 -2.24344 -3.03232 0
M  V30 10327 H 970.581 -1.33639 -2.63106 0
M  V30 10328 H 970.662 -2.28888 -1.14209 0
M  V30 10329 H 970.306 -4.41564 -2.50965 0
M  V30 10330 H 970.236 -3.43244 -3.99364 0
M  V30 10331 H 972.727 -2.75517 -2.58648 0
M  V30 10332 H 973.04 -6.04378 -4.81608 0
M  V30 10333 H 971.385 -5.43101 -4.33667 0
M  V30 10334 H 974.576 -3.46991 -3.14189 0
M  V30 10335 H 974.749 -4.9694 -4.15878 0
M  V30 10336 N 968.156 1.1691 -1.05688 0
M  V30 10337 C 969.405 1.86629 -0.765022 0
M  V30 10338 C 969.718 1.82223 0.710918 0
M  V30 10339 O 970.924 2.47462 1.11691 0
M  V30 10340 C 969.38 3.34886 -1.3183 0
M  V30 10341 C 968.988 3.47781 -2.82404 0
M  V30 10342 C 970.732 4.099 -1.10372 0
M  V30 10343 C 968.639 4.9009 -3.31008 0
M  V30 10344 H 967.569 0.699082 -0.282491 0
M  V30 10345 H 970.22 1.31989 -1.27481 0
M  V30 10346 H 968.602 3.89094 -0.736312 0
M  V30 10347 H 969.776 3.03765 -3.46502 0
M  V30 10348 H 968.091 2.86193 -3.02461 0
M  V30 10349 H 970.688 5.14894 -1.4418 0
M  V30 10350 H 971.031 4.16279 -0.0417372 0
M  V30 10351 H 971.564 3.61913 -1.65117 0
M  V30 10352 H 968.303 4.88887 -4.36657 0
M  V30 10353 H 967.823 5.34756 -2.71655 0
M  V30 10354 H 969.502 5.58881 -3.25977 0
M  V30 10355 N 969.634 0.838594 1.33437 0
M  V30 10356 C 970.567 0.216651 2.27169 0
M  V30 10357 C 971.545 -0.636065 1.49643 0
M  V30 10358 O 972.729 -0.596388 1.78817 0
M  V30 10359 C 969.856 -0.69584 3.31475 0
M  V30 10360 C 968.902 0.0813808 4.26422 0
M  V30 10361 S 969.735 1.43909 5.15801 0
M  V30 10362 C 970.891 0.531887 6.23636 0
M  V30 10363 H 971.124 1.01128 2.79572 0
M  V30 10364 H 968.657 0.635332 1.40723 0
M  V30 10365 H 970.615 -1.21671 3.92054 0
M  V30 10366 H 969.276 -1.46413 2.77888 0
M  V30 10367 H 968.469 -0.612944 5.00259 0
M  V30 10368 H 968.071 0.533304 3.70178 0
M  V30 10369 H 970.363 -0.270371 6.7696 0
M  V30 10370 H 971.306 1.24041 6.97151 0
M  V30 10371 H 971.714 0.113357 5.64386 0
M  V30 10372 N 971.112 -1.45937 0.595003 0
M  V30 10373 C 972.389 -1.95592 0.0178748 0
M  V30 10374 C 972.769 -1.53758 -1.44643 0
M  V30 10375 O 972.117 -0.794104 -2.14257 0
M  V30 10376 C 972.327 -3.4841 0.202789 0
M  V30 10377 C 973.675 -4.2453 0.0770121 0
M  V30 10378 O 974.699 -3.55954 0.132257 0
M  V30 10379 O 973.558 -5.46479 -0.0484271 0
M  V30 10380 H 970.652 -0.825888 -0.0428702 0
M  V30 10381 H 973.198 -1.56162 0.664184 0
M  V30 10382 H 971.97 -3.71787 1.22027 0
M  V30 10383 H 971.593 -3.947 -0.479376 0
M  V30 10384 N 972.59 -0.333456 -1.54032 0
M  V30 10385 C 973.5 0.536674 -2.28379 0
M  V30 10386 C 974.516 1.12068 -1.33104 0
M  V30 10387 O 975.692 1.13853 -1.66131 0
M  V30 10388 C 972.757 1.67677 -3.03456 0
M  V30 10389 C 971.818 1.12357 -4.14336 0
M  V30 10390 C 971.051 2.20933 -4.85823 0
M  V30 10391 O 971.274 3.41466 -4.569 0
M  V30 10392 O 970.208 1.85795 -5.72507 0
M  V30 10393 H 974.034 -0.0674003 -3.03625 0
M  V30 10394 H 971.619 -0.098823 -1.49073 0
M  V30 10395 H 973.501 2.34032 -3.50438 0
M  V30 10396 H 972.176 2.26684 -2.31076 0
M  V30 10397 H 971.083 0.424827 -3.7168 0
M  V30 10398 H 972.416 0.578497 -4.88789 0
M  V30 10399 N 974.068 1.57479 -0.061844 0
M  V30 10400 C 974.998 2.15181 0.9066 0
M  V30 10401 C 975.979 1.07624 1.31724 0
M  V30 10402 O 977.164 1.35614 1.39006 0
M  V30 10403 C 974.294 2.70542 2.17771 0
M  V30 10404 C 973.248 3.83178 1.9068 0
M  V30 10405 C 972.574 4.25099 3.24337 0
M  V30 10406 C 973.874 5.07853 1.21994 0
M  V30 10407 H 975.568 2.96355 0.42594 0
M  V30 10408 H 973.114 1.42556 0.203435 0
M  V30 10409 H 975.067 3.09552 2.85929 0
M  V30 10410 H 973.791 1.86575 2.68062 0
M  V30 10411 H 972.45 3.44656 1.24931 0
M  V30 10412 H 972.098 3.38069 3.72449 0
M  V30 10413 H 971.798 5.01021 3.07005 0
M  V30 10414 H 973.322 4.66718 3.93709 0
M  V30 10415 H 974.736 5.44242 1.80204 0
M  V30 10416 H 973.133 5.88987 1.14954 0
M  V30 10417 H 974.203 4.84497 0.197536 0
M  V30 10418 N 975.546 -0.211634 1.56173 0
M  V30 10419 C 976.771 -0.955324 1.84088 0
M  V30 10420 C 977.196 -1.76754 0.643407 0
M  V30 10421 O 976.554 -1.76653 -0.407842 0
M  V30 10422 C 976.602 -1.84063 3.10085 0
M  V30 10423 O 975.706 -2.9373 2.89476 0
M  V30 10424 H 975.047 -0.26996 0.606645 0
M  V30 10425 H 977.577 -0.221947 2.03393 0
M  V30 10426 H 977.587 -2.24852 3.40449 0
M  V30 10427 H 976.262 -1.24373 3.96868 0
M  V30 10428 H 974.839 -2.56816 2.7037 0
M  V30 10429 N 977.024 -1.50153 -0.478725 0
M  V30 10430 C 978.27 -1.60998 -1.23318 0
M  V30 10431 C 978.603 -0.305868 -1.91776 0
M  V30 10432 O 977.878 0.692158 -1.81767 0
M  V30 10433 C 978.161 -2.78495 -2.28282 0
M  V30 10434 C 978.014 -4.18767 -1.64178 0
M  V30 10435 C 979.333 -2.91569 -3.2966 0
M  V30 10436 H 976.452 -0.585983 -0.446982 0
M  V30 10437 H 979.094 -1.82514 -0.528063 0
M  V30 10438 H 977.244 -2.60281 -2.8842 0
M  V30 10439 H 978.916 -4.48552 -1.07696 0
M  V30 10440 H 977.159 -4.23379 -0.94514 0
M  V30 10441 H 977.83 -4.96894 -2.40417 0
M  V30 10442 H 980.306 -3.08219 -2.79536 0
M  V30 10443 H 979.182 -3.75419 -4.0044 0
M  V30 10444 H 979.443 -2.01859 -3.93326 0
M  V30 10445 N 978.502 0.731368 -1.39602 0
M  V30 10446 C 979.751 1.48647 -1.36334 0
M  V30 10447 C 980.064 1.95565 0.0367383 0
M  V30 10448 O 981.27 2.7082 0.192017 0
M  V30 10449 C 979.726 2.68616 -2.39528 0
M  V30 10450 C 979.334 2.28632 -3.85268 0
M  V30 10451 C 981.078 3.46422 -2.45341 0
M  V30 10452 C 978.985 3.45345 -4.80095 0
M  V30 10453 H 977.915 0.558218 -0.506861 0
M  V30 10454 H 980.566 0.797467 -1.65266 0
M  V30 10455 H 978.948 3.39609 -2.03671 0
M  V30 10456 H 980.122 1.65162 -4.30184 0
M  V30 10457 H 978.437 1.63909 -3.82783 0
M  V30 10458 H 981.034 4.33241 -3.13379 0
M  V30 10459 H 981.377 3.8914 -1.47904 0
M  V30 10460 H 981.91 2.82461 -2.80108 0
M  V30 10461 H 978.649 3.07674 -5.78807 0
M  V30 10462 H 978.169 4.07784 -4.39855 0
M  V30 10463 H 979.848 4.1163 -4.99169 0
M  V30 10464 N 979.98 1.24838 0.961938 0
M  V30 10465 C 981.205 1.11967 1.7458 0
M  V30 10466 C 981.63 -0.323287 1.85301 0
M  V30 10467 O 980.988 -1.23412 1.32812 0
M  V30 10468 C 981.036 1.77066 3.14134 0
M  V30 10469 O 980.14 1.04534 3.98932 0
M  V30 10470 H 979.481 0.391338 0.536424 0
M  V30 10471 H 982.011 1.65259 1.20626 0
M  V30 10472 H 982.021 1.83056 3.64629 0
M  V30 10473 H 980.696 2.82052 3.05646 0
M  V30 10474 H 979.273 1.06372 3.57407 0
M  V30 10475 N 981.458 -1.16348 1.06306 0
M  V30 10476 C 982.698 -1.88556 0.789055 0
M  V30 10477 C 983.062 -1.79849 -0.672179 0
M  V30 10478 O 984.263 -2.46984 -1.06078 0
M  V30 10479 C 982.534 -3.34069 1.27016 0
M  V30 10480 S 984.093 -4.24128 1.12522 0
M  V30 10481 H 980.911 -0.65084 0.286232 0
M  V30 10482 H 983.513 -1.40443 1.36 0
M  V30 10483 H 982.217 -3.37944 2.32856 0
M  V30 10484 H 981.748 -3.87231 0.693963 0
M  V30 10485 H 983.763 -4.96168 0.0562142 0
M  V30 10486 N 982.937 -0.845659 -1.3299 0
M  V30 10487 C 984.214 -0.366306 -1.92139 0
M  V30 10488 C 984.594 1.14912 -1.77083 0
M  V30 10489 O 983.942 1.96667 -1.16338 0
M  V30 10490 C 984.152 -0.820716 -3.39213 0
M  V30 10491 C 985.5 -0.832667 -4.16355 0
M  V30 10492 O 986.524 -0.764764 -3.47893 0
M  V30 10493 O 985.383 -0.926658 -5.38586 0
M  V30 10494 H 982.477 -0.105063 -0.820299 0
M  V30 10495 H 985.023 -0.931962 -1.41819 0
M  V30 10496 H 983.795 -1.86357 -3.44074 0
M  V30 10497 H 983.418 -0.232009 -3.96923 0
M  V30 10498 N 984.415 1.45619 -0.602734 0
M  V30 10499 C 985.661 2.02572 -0.0961759 0
M  V30 10500 C 985.994 1.47076 1.26815 0
M  V30 10501 O 985.269 0.643566 1.83544 0
M  V30 10502 C 985.552 3.60062 -0.0520032 0
M  V30 10503 C 985.405 4.25901 -1.44665 0
M  V30 10504 C 986.724 4.35446 0.638342 0
M  V30 10505 H 983.843 0.736099 -0.0364238 0
M  V30 10506 H 986.485 1.7353 -0.773776 0
M  V30 10507 H 984.635 3.84936 0.525032 0
M  V30 10508 H 986.307 4.12228 -2.0704 0
M  V30 10509 H 984.55 3.84489 -2.00874 0
M  V30 10510 H 985.221 5.34779 -1.36803 0
M  V30 10511 H 987.697 4.15837 0.147926 0
M  V30 10512 H 986.573 5.45176 0.63834 0
M  V30 10513 H 986.834 4.07962 1.70351 0
M  V30 10514 N 985.893 0.34162 1.53853 0
M  V30 10515 C 987.123 -0.256557 2.05001 0
M  V30 10516 C 987.531 -1.44916 1.21639 0
M  V30 10517 O 986.874 -1.8207 0.244138 0
M  V30 10518 C 986.936 -0.737109 3.51862 0
M  V30 10519 C 986.6 0.335584 4.55766 0
M  V30 10520 C 987.597 1.17765 5.06387 0
M  V30 10521 C 985.282 0.488958 4.99914 0
M  V30 10522 C 987.276 2.15865 5.99734 0
M  V30 10523 C 984.963 1.47336 5.93073 0
M  V30 10524 C 985.961 2.30666 6.4287 0
M  V30 10525 O 985.649 3.2743 7.34197 0
M  V30 10526 H 985.381 -0.0536867 0.673865 0
M  V30 10527 H 987.935 0.49123 1.99439 0
M  V30 10528 H 986.165 -1.53611 3.54881 0
M  V30 10529 H 987.854 -1.25562 3.85991 0
M  V30 10530 H 988.62 1.07023 4.73044 0
M  V30 10531 H 984.499 -0.149807 4.60757 0
M  V30 10532 H 988.043 2.80945 6.38526 0
M  V30 10533 H 983.94 1.58134 6.25831 0
M  V30 10534 H 984.708 3.22879 7.52125 0
M  V30 10535 N 987.371 -1.57444 0.0701946 0
M  V30 10536 C 988.787 -1.57009 -0.286431 0
M  V30 10537 C 988.987 -1.07946 -1.70147 0
M  V30 10538 O 988.043 -0.744622 -2.41271 0
M  V30 10539 C 989.356 -3.00542 -0.0975466 0
M  V30 10540 C 990.904 -3.12553 -0.167205 0
M  V30 10541 C 991.379 -4.58 -0.00662047 0
M  V30 10542 N 992.87 -4.63158 -0.0622778 0
M  V30 10543 C 993.605 -5.73388 0.0375831 0
M  V30 10544 N 993.101 -6.92537 0.190873 0
M  V30 10545 N 994.894 -5.62097 -0.0193672 0
M  V30 10546 H 987.045 -1.87651 0.995023 0
M  V30 10547 H 989.308 -0.865006 0.387902 0
M  V30 10548 H 989.014 -3.40543 0.878822 0
M  V30 10549 H 988.888 -3.67485 -0.850547 0
M  V30 10550 H 991.275 -2.72439 -1.13406 0
M  V30 10551 H 991.356 -2.48251 0.616871 0
M  V30 10552 H 991 -4.98803 0.956992 0
M  V30 10553 H 990.93 -5.20332 -0.810081 0
M  V30 10554 H 993.421 -3.77475 -0.179229 0
M  V30 10555 H 993.734 -7.72365 0.25926 0
M  V30 10556 H 992.079 -6.94632 0.226214 0
M  V30 10557 H 995.27 -4.67897 -0.137815 0
M  V30 10558 H 995.443 -6.4797 0.0619121 0
M  V30 10559 N 988.849 0.203349 -1.56283 0
M  V30 10560 C 990.097 0.923183 -1.79782 0
M  V30 10561 C 990.418 1.84134 -0.64185 0
M  V30 10562 O 989.688 1.92922 0.340292 0
M  V30 10563 H 988.268 0.343881 -0.66314 0
M  V30 10564 H 990.93 0.210837 -1.93756 0
M  V30 10565 H 990.026 1.51921 -2.72629 0
M  V30 10566 N 990.327 1.50405 0.470755 0
M  V30 10567 C 991.557 1.64928 1.24428 0
M  V30 10568 C 991.965 0.332139 1.86262 0
M  V30 10569 O 991.308 -0.695919 1.70008 0
M  V30 10570 C 991.37 2.6829 2.39293 0
M  V30 10571 C 991.034 4.11835 1.98093 0
M  V30 10572 C 992.031 4.97693 1.50326 0
M  V30 10573 C 989.716 4.57753 2.06803 0
M  V30 10574 C 991.71 6.27516 1.11813 0
M  V30 10575 C 989.397 5.87582 1.67902 0
M  V30 10576 C 990.395 6.72289 1.20485 0
M  V30 10577 O 990.083 7.99694 0.821219 0
M  V30 10578 H 989.815 0.557418 0.382442 0
M  V30 10579 H 992.369 1.97382 0.568292 0
M  V30 10580 H 990.599 2.31079 3.10063 0
M  V30 10581 H 992.288 2.7203 3.01255 0
M  V30 10582 H 993.054 4.63434 1.43018 0
M  V30 10583 H 988.933 3.91966 2.42659 0
M  V30 10584 H 992.477 6.93586 0.747317 0
M  V30 10585 H 988.374 6.21362 1.74869 0
M  V30 10586 H 989.142 8.12968 0.950038 0
M  V30 10587 N 991.805 -0.723954 1.39988 0
M  V30 10588 C 993.051 -1.48591 1.38017 0
M  V30 10589 C 993.384 -1.94189 -0.0203522 0
M  V30 10590 O 992.659 -1.67572 -0.987422 0
M  V30 10591 C 992.942 -2.71786 2.36229 0
M  V30 10592 C 992.795 -2.32136 3.8527 0
M  V30 10593 C 994.114 -3.73921 2.32102 0
M  V30 10594 H 991.233 -0.538993 0.502648 0
M  V30 10595 H 993.875 -0.826908 1.71062 0
M  V30 10596 H 992.025 -3.28015 2.0818 0
M  V30 10597 H 993.697 -1.81454 4.24113 0
M  V30 10598 H 991.94 -1.64234 4.01509 0
M  V30 10599 H 992.611 -3.20406 4.49493 0
M  V30 10600 H 995.087 -3.27303 2.56928 0
M  V30 10601 H 993.963 -4.5777 3.02882 0
M  V30 10602 H 994.224 -4.21627 1.32979 0
M  V30 10603 N 993.283 -1.25346 -0.955304 0
M  V30 10604 C 994.699 -1.02154 -1.22625 0
M  V30 10605 C 994.899 0.26206 -1.99789 0
M  V30 10606 O 993.955 0.974958 -2.32918 0
M  V30 10607 C 995.268 -2.2443 -2.00129 0
M  V30 10608 C 996.816 -2.29185 -2.13174 0
M  V30 10609 C 997.291 -3.51117 -2.94077 0
M  V30 10610 N 998.782 -3.51509 -3.01655 0
M  V30 10611 C 999.517 -4.42517 -3.64645 0
M  V30 10612 N 999.013 -5.43796 -4.29252 0
M  V30 10613 N 1000.81 -4.302 -3.61779 0
M  V30 10614 H 992.957 -2.07812 -0.439071 0
M  V30 10615 H 995.22 -0.91258 -0.256715 0
M  V30 10616 H 994.926 -3.17717 -1.50827 0
M  V30 10617 H 994.8 -2.27548 -3.00835 0
M  V30 10618 H 997.187 -1.36422 -2.61674 0
M  V30 10619 H 997.268 -2.30087 -1.11775 0
M  V30 10620 H 996.912 -4.44201 -2.46268 0
M  V30 10621 H 996.842 -3.4746 -3.95701 0
M  V30 10622 H 999.333 -2.78245 -2.55711 0
M  V30 10623 H 999.646 -6.09453 -4.75171 0
M  V30 10624 H 997.991 -5.4767 -4.27882 0
M  V30 10625 H 1001.18 -3.50304 -3.10491 0
M  V30 10626 H 1001.36 -5.01323 -4.10584 0
M  V30 10627 N 994.761 1.15782 -1.06922 0
M  V30 10628 C 995.671 2.24008 -0.696948 0
M  V30 10629 C 996.687 1.71569 0.289862 0
M  V30 10630 O 997.863 2.00929 0.137585 0
M  V30 10631 C 994.928 3.46568 -0.0957895 0
M  V30 10632 C 993.989 4.14017 -1.13528 0
M  V30 10633 C 993.222 5.30725 -0.562713 0
M  V30 10634 O 993.445 5.66992 0.62259 0
M  V30 10635 O 992.379 5.87572 -1.30549 0
M  V30 10636 H 996.205 2.58174 -1.59938 0
M  V30 10637 H 993.79 1.2342 -0.841889 0
M  V30 10638 H 995.672 4.20731 0.237407 0
M  V30 10639 H 994.347 3.14161 0.780027 0
M  V30 10640 H 993.254 3.41795 -1.52076 0
M  V30 10641 H 994.587 4.50493 -1.98285 0
M  V30 10642 N 996.239 0.8527 1.3254 0
M  V30 10643 C 997.187 0.284659 2.30852 0
M  V30 10644 C 998.181 -0.5909 1.5876 0
M  V30 10645 O 999.387 -0.478922 1.73512 0
M  V30 10646 H 995.762 0.0733452 0.748415 0
M  V30 10647 H 997.733 1.1281 2.76254 0
M  V30 10648 C 996.482 -0.51379 3.43883 0
M  V30 10649 H 995.805 0.150644 3.99516 0
M  V30 10650 H 997.245 -0.876866 4.14834 0
M  V30 10651 C 995.704 -1.69823 2.90967 0
M  V30 10652 O 996.234 -2.79727 2.88298 0
M  V30 10653 N 994.44 -1.52465 2.47392 0
M  V30 10654 H 993.987 -0.630599 2.49762 0
M  V30 10655 H 993.945 -2.31859 2.12341 0
M  V30 10656 N 997.718 -1.45297 0.610449 0
M  V30 10657 C 998.665 -2.30553 -0.106718 0
M  V30 10658 C 999.635 -1.42272 -0.85719 0
M  V30 10659 O 1000.82 -1.71199 -0.842357 0
M  V30 10660 C 997.96 -3.27226 -1.09623 0
M  V30 10661 C 997.073 -4.3061 -0.346329 0
M  V30 10662 C 996.208 -5.14389 -1.32581 0
M  V30 10663 C 995.247 -6.09497 -0.563892 0
M  V30 10664 N 994.384 -6.86047 -1.4928 0
M  V30 10665 H 999.224 -2.91344 0.626296 0
M  V30 10666 H 996.761 -1.43563 0.32065 0
M  V30 10667 H 998.719 -3.81744 -1.68308 0
M  V30 10668 H 997.349 -2.68182 -1.79662 0
M  V30 10669 H 996.401 -3.7873 0.356084 0
M  V30 10670 H 997.713 -4.98183 0.248026 0
M  V30 10671 H 996.867 -5.73321 -1.98464 0
M  V30 10672 H 995.606 -4.4684 -1.9541 0
M  V30 10673 H 994.611 -5.49693 0.108551 0
M  V30 10674 H 995.836 -6.79074 0.0593872 0
M  V30 10675 H 993.782 -6.21185 -2.10868 0
M  V30 10676 H 993.699 -7.49983 -0.951953 0
M  V30 10677 H 994.967 -7.49518 -2.14112 0
M  V30 10678 N 999.196 -0.349774 -1.5367 0
M  V30 10679 C 1000.47 0.300419 -1.93279 0
M  V30 10680 C 1000.85 1.67721 -1.28191 0
M  V30 10681 O 1000.2 2.24319 -0.435127 0
M  V30 10682 C 1000.41 0.366466 -3.47071 0
M  V30 10683 C 1001.76 0.614349 -4.20132 0
M  V30 10684 O 1002.78 0.448327 -3.53367 0
M  V30 10685 O 1001.64 0.936421 -5.38417 0
M  V30 10686 H 998.736 0.176599 -0.807924 0
M  V30 10687 H 1001.28 -0.401405 -1.64884 0
M  V30 10688 H 1000.05 -0.599455 -3.86681 0
M  V30 10689 H 999.677 1.11482 -3.81651 0
M  V30 10690 N 1000.67 1.57404 -0.0785433 0
M  V30 10691 C 1001.92 1.93744 0.589024 0
M  V30 10692 C 1002.25 0.959087 1.69209 0
M  V30 10693 O 1001.5 -0.0241604 1.95685 0
M  V30 10694 C 1001.8 3.36684 1.1991 0
M  V30 10695 C 1001.47 4.50356 0.221493 0
M  V30 10696 C 1000.13 4.81177 -0.0474347 0
M  V30 10697 C 1002.48 5.1928 -0.446941 0
M  V30 10698 C 999.811 5.78257 -0.99177 0
M  V30 10699 C 1002.16 6.17372 -1.37964 0
M  V30 10700 C 1000.83 6.46607 -1.65697 0
M  V30 10701 H 1000.1 0.70896 0.215539 0
M  V30 10702 H 1002.74 1.90905 -0.150856 0
M  V30 10703 H 1001.05 3.36022 2.01486 0
M  V30 10704 H 1002.75 3.62095 1.72303 0
M  V30 10705 H 999.336 4.26322 0.441284 0
M  V30 10706 H 1003.52 4.95658 -0.252298 0
M  V30 10707 H 998.776 5.9923 -1.21381 0
M  V30 10708 H 1002.95 6.6988 -1.9035 0
M  V30 10709 H 1000.58 7.21643 -2.39031 0
M  V30 10710 N 1002.15 -0.195058 1.56388 0
M  V30 10711 C 1003.4 -0.9168 1.80894 0
M  V30 10712 C 1003.73 -1.82907 0.652592 0
M  V30 10713 O 1003.01 -1.91382 -0.346853 0
M  V30 10714 C 1003.29 -1.733 3.15657 0
M  V30 10715 C 1003.14 -0.845449 4.41783 0
M  V30 10716 C 1004.46 -2.70557 3.47112 0
M  V30 10717 H 1001.58 -0.331861 0.658056 0
M  V30 10718 H 1004.22 -0.184174 1.89105 0
M  V30 10719 H 1002.37 -2.3576 3.08787 0
M  V30 10720 H 1004.04 -0.235557 4.60698 0
M  V30 10721 H 1002.29 -0.152172 4.33533 0
M  V30 10722 H 1002.96 -1.45152 5.32574 0
M  V30 10723 H 1005.43 -2.1823 3.54281 0
M  V30 10724 H 1004.31 -3.24749 4.42526 0
M  V30 10725 H 1004.57 -3.49605 2.70608 0
M  V30 10726 N 1003.63 -1.50653 -0.462772 0
M  V30 10727 C 1005.04 -1.54821 -1.04342 0
M  V30 10728 C 1005.39 -0.356595 -1.92932 0
M  V30 10729 O 1004.52 0.529579 -2.0982 0
M  V30 10730 C 1005.11 -2.80571 -1.89909 0
M  V30 10731 C 1003.67 -2.87394 -2.43067 0
M  V30 10732 C 1002.82 -2.49206 -1.21621 0
M  V30 10733 H 1005.77 -1.56797 -0.245048 0
M  V30 10734 H 1005.79 -2.62897 -2.75074 0
M  V30 10735 H 1005.3 -3.67281 -1.25405 0
M  V30 10736 H 1003.4 -2.05055 -3.111 0
M  V30 10737 H 1003.52 -3.90477 -2.77605 0
M  V30 10738 H 1001.88 -2.01829 -1.55361 0
M  V30 10739 H 1002.66 -3.38233 -0.587669 0
M  V30 10740 N 1005.11 0.71652 -1.4037 0
M  V30 10741 C 1006.34 1.50344 -1.41704 0
M  V30 10742 C 1006.75 1.89194 -0.0148011 0
M  V30 10743 O 1006.09 1.55916 0.971391 0
M  V30 10744 C 1006.15 2.80928 -2.2432 0
M  V30 10745 C 1005.82 2.64406 -3.72744 0
M  V30 10746 C 1006.81 2.31727 -4.65401 0
M  V30 10747 C 1004.5 2.807 -4.16549 0
M  V30 10748 C 1006.49 2.15551 -5.99847 0
M  V30 10749 C 1004.18 2.64141 -5.51065 0
M  V30 10750 C 1005.18 2.31614 -6.42529 0
M  V30 10751 O 1004.86 2.15179 -7.74566 0
M  V30 10752 H 1004.6 0.470574 -0.48532 0
M  V30 10753 H 1007.15 0.89152 -1.85043 0
M  V30 10754 H 1005.38 3.4445 -1.75759 0
M  V30 10755 H 1007.07 3.4264 -2.17607 0
M  V30 10756 H 1007.84 2.18773 -4.32855 0
M  V30 10757 H 1003.71 3.05005 -3.45677 0
M  V30 10758 H 1007.26 1.90084 -6.71203 0
M  V30 10759 H 1003.16 2.76679 -5.83197 0
M  V30 10760 H 1003.92 2.30106 -7.85489 0
M  V30 10761 N 1006.59 1.25851 0.948643 0
M  V30 10762 C 1007.83 1.10954 1.69397 0
M  V30 10763 C 1008.16 -0.348443 1.91353 0
M  V30 10764 O 1007.42 -1.27285 1.48651 0
M  V30 10765 C 1007.72 1.81565 3.07846 0
M  V30 10766 C 1007.38 3.31477 3.0567 0
M  V30 10767 C 1006.04 3.72371 3.04784 0
M  V30 10768 C 1008.4 4.27225 2.98543 0
M  V30 10769 C 1005.72 5.07416 2.94527 0
M  V30 10770 C 1008.08 5.62301 2.89828 0
M  V30 10771 C 1006.74 6.02516 2.87281 0
M  V30 10772 H 1006.01 0.406011 0.619868 0
M  V30 10773 H 1008.66 1.562 1.10787 0
M  V30 10774 H 1006.96 1.28767 3.70035 0
M  V30 10775 H 1008.66 1.67486 3.64348 0
M  V30 10776 H 1005.25 2.98941 3.07135 0
M  V30 10777 H 1009.43 3.96618 2.98342 0
M  V30 10778 H 1004.69 5.37746 2.90928 0
M  V30 10779 H 1008.86 6.36182 2.83276 0
M  V30 10780 H 1006.49 7.07116 2.79089 0
M  V30 10781 N 1008.06 -1.15214 1.07534 0
M  V30 10782 C 1009.48 -1.38031 0.801228 0
M  V30 10783 C 1009.68 -1.92556 -0.593672 0
M  V30 10784 O 1008.74 -2.1325 -1.35206 0
M  V30 10785 C 1010.05 -2.34958 1.87657 0
M  V30 10786 C 1011.6 -2.48617 1.90154 0
M  V30 10787 C 1012.07 -3.48837 2.96777 0
M  V30 10788 N 1013.56 -3.56374 2.95892 0
M  V30 10789 C 1014.3 -4.33746 3.75036 0
M  V30 10790 N 1013.79 -5.14435 4.64036 0
M  V30 10791 N 1015.59 -4.28853 3.63375 0
M  V30 10792 H 1007.74 -0.781639 1.97495 0
M  V30 10793 H 1010 -0.406243 0.856546 0
M  V30 10794 H 1009.71 -2.02013 2.87895 0
M  V30 10795 H 1009.58 -3.3476 1.73827 0
M  V30 10796 H 1011.97 -2.80859 0.905666 0
M  V30 10797 H 1012.05 -1.48808 2.08062 0
M  V30 10798 H 1011.69 -3.1733 3.96565 0
M  V30 10799 H 1011.62 -4.48406 2.76116 0
M  V30 10800 H 1014.11 -2.98784 2.31379 0
M  V30 10801 H 1014.43 -5.70722 5.21053 0
M  V30 10802 H 1012.77 -5.13734 4.68084 0
M  V30 10803 H 1015.96 -3.64882 2.93221 0
M  V30 10804 H 1016.14 -4.88903 4.25298 0
M  V30 10805 N 1009.54 -0.859717 -1.32086 0
M  V30 10806 C 1010.77 -0.478865 -2.01796 0
M  V30 10807 C 1011.19 0.918274 -1.64163 0
M  V30 10808 O 1010.55 1.60409 -0.844896 0
M  V30 10809 C 1010.6 -0.631356 -3.5503 0
M  V30 10810 O 1009.7 0.333712 -4.11048 0
M  V30 10811 H 1009.04 -0.191775 -0.635703 0
M  V30 10812 H 1011.57 -1.16031 -1.68517 0
M  V30 10813 H 1011.58 -0.520783 -4.04663 0
M  V30 10814 H 1010.26 -1.65015 -3.81763 0
M  V30 10815 H 1008.84 0.178953 -3.7247 0
M  V30 10816 N 1011.02 1.44971 -0.618145 0
M  V30 10817 C 1011.98 2.29044 0.0846739 0
M  V30 10818 C 1012.98 1.40341 0.784921 0
M  V30 10819 O 1014.17 1.62351 0.631479 0
M  V30 10820 C 1011.31 3.21617 1.13027 0
M  V30 10821 H 1012.5 2.92668 -0.654612 0
M  V30 10822 H 1010.05 1.51668 -0.377672 0
M  V30 10823 H 1010.79 2.62815 1.89997 0
M  V30 10824 H 1010.57 3.86969 0.63224 0
M  V30 10825 H 1012.06 3.84805 1.62218 0
M  V30 10826 N 1012.5 0.357919 1.53482 0
M  V30 10827 C 1013.73 -0.23514 2.05559 0
M  V30 10828 C 1014.14 -1.43068 1.23195 0
M  V30 10829 O 1013.5 -1.80481 0.270741 0
M  V30 10830 C 1013.55 -0.636147 3.55859 0
M  V30 10831 O 1013.27 0.511864 4.35099 0
M  V30 10832 C 1014.77 -1.28841 4.24164 0
M  V30 10833 H 1011.99 -0.0428446 0.669631 0
M  V30 10834 H 1014.54 0.51407 1.97933 0
M  V30 10835 H 1012.69 -1.33528 3.63661 0
M  V30 10836 H 1013.1 0.189328 5.24158 0
M  V30 10837 H 1014.58 -1.51962 5.30671 0
M  V30 10838 H 1015.06 -2.24638 3.77405 0
M  V30 10839 H 1015.66 -0.630914 4.20594 0
M  V30 10840 N 1013.98 -1.5736 0.0868897 0
M  V30 10841 C 1015.39 -1.81356 -0.443499 0
M  V30 10842 C 1015.74 -1.00192 -1.68689 0
M  V30 10843 O 1014.86 -0.228863 -2.15186 0
M  V30 10844 C 1015.46 -3.28941 -0.811387 0
M  V30 10845 C 1014.02 -3.53729 -1.28656 0
M  V30 10846 C 1013.16 -2.75891 -0.279153 0
M  V30 10847 H 1016.12 -1.55594 0.312427 0
M  V30 10848 H 1016.14 -3.41815 -1.6716 0
M  V30 10849 H 1015.65 -3.87987 0.0937598 0
M  V30 10850 H 1013.75 -3.00005 -2.2097 0
M  V30 10851 H 1013.86 -4.62396 -1.25406 0
M  V30 10852 H 1012.23 -2.4311 -0.759595 0
M  V30 10853 H 1013.01 -3.37682 0.618529 0
M  V30 10854 N 1015.45 0.186762 -1.56489 0
M  V30 10855 C 1016.36 1.25169 -1.98419 0
M  V30 10856 C 1017.38 1.49329 -0.893124 0
M  V30 10857 O 1018.56 1.61781 -1.19954 0
M  V30 10858 C 1015.62 2.57422 -2.32239 0
M  V30 10859 C 1014.68 2.4126 -3.55095 0
M  V30 10860 C 1013.92 3.67206 -3.87292 0
M  V30 10861 O 1014.14 4.71731 -3.20665 0
M  V30 10862 O 1013.07 3.62238 -4.80695 0
M  V30 10863 H 1016.9 0.925834 -2.89244 0
M  V30 10864 H 1014.48 0.392421 -1.44154 0
M  V30 10865 H 1016.37 3.35466 -2.5503 0
M  V30 10866 H 1015.04 2.89618 -1.44579 0
M  V30 10867 H 1013.95 1.61299 -3.37541 0
M  V30 10868 H 1015.28 2.13994 -4.43247 0
M  V30 10869 N 1016.93 1.50896 0.454776 0
M  V30 10870 C 1017.86 1.6712 1.56855 0
M  V30 10871 C 1018.88 0.552223 1.53148 0
M  V30 10872 O 1020.07 0.825969 1.5824 0
M  V30 10873 C 1017.17 1.65464 2.95762 0
M  V30 10874 C 1016.34 2.93662 3.24163 0
M  V30 10875 C 1015.4 2.84428 4.42704 0
M  V30 10876 O 1014.42 3.58382 4.42211 0
M  V30 10877 N 1015.63 1.9909 5.45292 0
M  V30 10878 H 1018.39 2.63194 1.43349 0
M  V30 10879 H 1015.95 1.48564 0.643457 0
M  V30 10880 H 1017.94 1.56878 3.73057 0
M  V30 10881 H 1016.51 0.770568 3.02954 0
M  V30 10882 H 1015.73 3.16251 2.35328 0
M  V30 10883 H 1017.02 3.78558 3.39957 0
M  V30 10884 H 1016.42 1.3835 5.48521 0
M  V30 10885 H 1014.98 1.96396 6.21508 0
M  V30 10886 N 1018.41 -0.709066 1.40748 0
M  V30 10887 C 1019.32 -1.85314 1.43861 0
M  V30 10888 C 1020.34 -1.70832 0.330539 0
M  V30 10889 O 1021.51 -1.92983 0.576152 0
M  V30 10890 C 1018.58 -3.21174 1.30568 0
M  V30 10891 C 1017.64 -3.47863 2.51574 0
M  V30 10892 C 1016.87 -4.77241 2.38906 0
M  V30 10893 O 1017.09 -5.52791 1.40636 0
M  V30 10894 O 1016.03 -5.04413 3.28407 0
M  V30 10895 H 1019.85 -1.85644 2.40354 0
M  V30 10896 H 1017.44 -0.860352 1.2214 0
M  V30 10897 H 1019.32 -4.02313 1.25388 0
M  V30 10898 H 1018 -3.21557 0.371841 0
M  V30 10899 H 1016.9 -2.66708 2.62331 0
M  V30 10900 H 1018.24 -3.52283 3.43741 0
M  V30 10901 N 1019.89 -1.26353 -0.941956 0
M  V30 10902 C 1020.82 -1.10341 -2.05784 0
M  V30 10903 C 1021.8 -0.00881565 -1.70098 0
M  V30 10904 O 1022.99 -0.180699 -1.93357 0
M  V30 10905 C 1020.12 -0.734788 -3.39438 0
M  V30 10906 C 1019.07 -1.78103 -3.89183 0
M  V30 10907 C 1018.4 -1.26675 -5.19478 0
M  V30 10908 C 1019.7 -3.1824 -4.14151 0
M  V30 10909 H 1021.39 -2.03684 -2.19438 0
M  V30 10910 H 1018.94 -0.980698 -1.05443 0
M  V30 10911 H 1020.89 -0.609653 -4.16967 0
M  V30 10912 H 1019.61 0.234354 -3.25758 0
M  V30 10913 H 1018.27 -1.89482 -3.13835 0
M  V30 10914 H 1017.92 -0.287472 -5.02178 0
M  V30 10915 H 1017.62 -1.96612 -5.53731 0
M  V30 10916 H 1019.14 -1.15427 -5.99591 0
M  V30 10917 H 1020.56 -3.09942 -4.82296 0
M  V30 10918 H 1018.95 -3.8576 -4.59684 0
M  V30 10919 H 1020.02 -3.64354 -3.19959 0
M  V30 10920 N 1021.37 1.14642 -1.08144 0
M  V30 10921 C 1022.62 1.8525 -0.807885 0
M  V30 10922 C 1022.94 1.83194 0.668213 0
M  V30 10923 O 1022.21 1.27848 1.48431 0
M  V30 10924 H 1020.79 0.685909 -0.295868 0
M  V30 10925 H 1023.45 1.38935 -1.36686 0
M  V30 10926 H 1022.54 2.90155 -1.14964 0
M  V30 10927 N 1022.85 0.866709 1.31628 0
M  V30 10928 C 1023.79 0.318169 2.28596 0
M  V30 10929 C 1024.76 -0.581558 1.55586 0
M  V30 10930 O 1025.95 -0.513895 1.83749 0
M  V30 10931 C 1023.09 -0.477137 3.41786 0
M  V30 10932 C 1022.2 0.449739 4.29653 0
M  V30 10933 C 1021.34 -0.359373 5.29983 0
M  V30 10934 C 1020.37 0.564138 6.09495 0
M  V30 10935 N 1019.51 -0.208526 7.0179 0
M  V30 10936 H 1024.35 1.15029 2.74904 0
M  V30 10937 H 1021.89 0.578649 1.35241 0
M  V30 10938 H 1023.85 -0.953985 4.06146 0
M  V30 10939 H 1022.48 -1.27398 2.96597 0
M  V30 10940 H 1021.53 1.04502 3.65764 0
M  V30 10941 H 1022.84 1.158 4.85172 0
M  V30 10942 H 1021.99 -0.89887 6.00004 0
M  V30 10943 H 1020.73 -1.10094 4.75111 0
M  V30 10944 H 1019.74 1.11542 5.38366 0
M  V30 10945 H 1020.96 1.30451 6.66453 0
M  V30 10946 H 1018.91 -0.932969 6.49332 0
M  V30 10947 H 1018.83 0.440463 7.54716 0
M  V30 10948 H 1020.09 -0.72936 7.7608 0
M  V30 10949 N 1024.32 -1.44642 0.625825 0
M  V30 10950 C 1025.25 -2.33397 -0.0692188 0
M  V30 10951 C 1026.23 -1.47898 -0.840241 0
M  V30 10952 O 1027.42 -1.7663 -0.807176 0
M  V30 10953 C 1024.55 -3.30888 -1.055 0
M  V30 10954 C 1023.5 -4.26164 -0.395968 0
M  V30 10955 C 1022.83 -5.13483 -1.49128 0
M  V30 10956 C 1024.13 -5.17663 0.694433 0
M  V30 10957 H 1025.82 -2.91763 0.671925 0
M  V30 10958 H 1023.37 -1.40294 0.324573 0
M  V30 10959 H 1025.32 -3.91861 -1.54993 0
M  V30 10960 H 1024.05 -2.7072 -1.82696 0
M  V30 10961 H 1022.71 -3.66516 0.0782691 0
M  V30 10962 H 1022.35 -4.49672 -2.25399 0
M  V30 10963 H 1022.05 -5.78038 -1.05573 0
M  V30 10964 H 1023.58 -5.77327 -1.98813 0
M  V30 10965 H 1024.99 -5.72602 0.282818 0
M  V30 10966 H 1023.39 -5.90793 1.05281 0
M  V30 10967 H 1024.46 -4.58994 1.56372 0
M  V30 10968 N 1025.8 -0.366053 -1.5329 0
M  V30 10969 C 1027.21 0.113056 -1.86357 0
M  V30 10970 C 1027.56 1.48123 -1.28662 0
M  V30 10971 O 1026.69 2.07658 -0.608849 0
M  V30 10972 C 1027.28 0.211923 -3.38137 0
M  V30 10973 C 1025.84 0.635289 -3.71 0
M  V30 10974 C 1024.99 -0.217203 -2.76448 0
M  V30 10975 H 1027.94 -0.584829 -1.47531 0
M  V30 10976 H 1027.96 1.0354 -3.66142 0
M  V30 10977 H 1027.47 -0.783994 -3.80099 0
M  V30 10978 H 1025.57 1.63942 -3.34595 0
M  V30 10979 H 1025.69 0.409571 -4.77346 0
M  V30 10980 H 1024.05 0.313988 -2.52757 0
M  V30 10981 H 1024.83 -1.21067 -3.21244 0
M  V30 10982 N 1027.28 1.57312 -0.0952337 0
M  V30 10983 C 1028.21 2.17056 0.860753 0
M  V30 10984 C 1029.19 1.10394 1.29411 0
M  V30 10985 O 1030.38 1.38532 1.36098 0
M  V30 10986 C 1027.51 2.751 2.11984 0
M  V30 10987 C 1026.46 3.87136 1.8251 0
M  V30 10988 C 1025.79 4.31883 3.15247 0
M  V30 10989 C 1027.09 5.10326 1.11194 0
M  V30 10990 H 1028.78 2.97192 0.362983 0
M  V30 10991 H 1026.33 1.42955 0.173151 0
M  V30 10992 H 1028.28 3.15547 2.79299 0
M  V30 10993 H 1027 1.92219 2.64044 0
M  V30 10994 H 1025.66 3.47229 1.17592 0
M  V30 10995 H 1025.31 3.45893 3.65195 0
M  V30 10996 H 1025.01 5.0742 2.96309 0
M  V30 10997 H 1026.53 4.74964 3.83721 0
M  V30 10998 H 1027.95 5.47942 1.6862 0
M  V30 10999 H 1026.34 5.91293 1.02435 0
M  V30 11000 H 1027.41 4.84807 0.0947227 0
M  V30 11001 N 1028.76 -0.17846 1.56586 0
M  V30 11002 C 1030.01 -0.894464 1.81228 0
M  V30 11003 C 1030.33 -1.83089 0.671062 0
M  V30 11004 O 1029.6 -1.93439 -0.309557 0
M  V30 11005 H 1028.18 -0.333288 0.668527 0
M  V30 11006 H 1030.84 -0.179986 1.94067 0
M  V30 11007 H 1029.93 -1.47565 2.75011 0
M  V30 11008 N 1030.24 -1.51135 -0.446768 0
M  V30 11009 C 1031.46 -1.67411 -1.22427 0
M  V30 11010 C 1031.89 -0.367009 -1.84485 0
M  V30 11011 O 1031.24 0.67185 -1.68392 0
M  V30 11012 C 1031.29 -2.78473 -2.29096 0
M  V30 11013 O 1030.4 -2.41419 -3.34351 0
M  V30 11014 H 1029.74 -0.558512 -0.359111 0
M  V30 11015 H 1032.27 -1.97648 -0.5288 0
M  V30 11016 H 1032.28 -3.02277 -2.7403 0
M  V30 11017 H 1030.95 -3.73326 -1.83304 0
M  V30 11018 H 1029.53 -2.28152 -2.9496 0
M  V30 11019 N 1031.71 0.701592 -1.41122 0
M  V30 11020 C 1033.13 1.01143 -1.23459 0
M  V30 11021 C 1033.33 2.01144 -0.11968 0
M  V30 11022 O 1032.39 2.47132 0.517889 0
M  V30 11023 C 1033.7 1.54179 -2.58165 0
M  V30 11024 C 1035.25 1.66093 -2.65296 0
M  V30 11025 C 1035.72 2.22532 -4.00304 0
M  V30 11026 N 1037.21 2.299 -4.0212 0
M  V30 11027 C 1037.95 2.74584 -5.0338 0
M  V30 11028 N 1037.44 3.18917 -6.15032 0
M  V30 11029 N 1039.24 2.74094 -4.90743 0
M  V30 11030 H 1031.39 0.0390087 -2.12364 0
M  V30 11031 H 1033.65 0.0798848 -0.944628 0
M  V30 11032 H 1033.36 0.881587 -3.40472 0
M  V30 11033 H 1033.23 2.52488 -2.80231 0
M  V30 11034 H 1035.62 2.31227 -1.83352 0
M  V30 11035 H 1035.7 0.663461 -2.47046 0
M  V30 11036 H 1035.34 1.58016 -4.82694 0
M  V30 11037 H 1035.27 3.2302 -4.15891 0
M  V30 11038 H 1037.76 1.98607 -3.21502 0
M  V30 11039 H 1038.08 3.5162 -6.88174 0
M  V30 11040 H 1036.42 3.1684 -6.18577 0
M  V30 11041 H 1039.61 2.38804 -4.02604 0
M  V30 11042 H 1039.79 3.086 -5.69798 0
M  V30 11043 N 1033.19 1.2685 0.935242 0
M  V30 11044 C 1034.6 1.11569 1.49697 0
M  V30 11045 C 1034.95 -0.301952 1.93863 0
M  V30 11046 O 1034.08 -1.19408 1.80473 0
M  V30 11047 C 1034.67 2.01918 2.72056 0
M  V30 11048 C 1033.23 1.90765 3.24477 0
M  V30 11049 C 1032.38 1.94918 1.97237 0
M  V30 11050 H 1035.33 1.39853 0.750116 0
M  V30 11051 H 1035.35 1.57056 3.46574 0
M  V30 11052 H 1034.86 3.05088 2.39881 0
M  V30 11053 H 1032.96 0.905521 3.61429 0
M  V30 11054 H 1033.08 2.76611 3.91182 0
M  V30 11055 H 1031.44 1.39046 2.13397 0
M  V30 11056 H 1032.22 2.99729 1.67385 0
M  V30 11057 N 1034.67 -1.14067 1.0875 0
M  V30 11058 C 1035.63 -2.17453 0.724341 0
M  V30 11059 C 1036.63 -1.58959 -0.242614 0
M  V30 11060 O 1037.82 -1.74186 -0.0217008 0
M  V30 11061 C 1034.96 -3.40828 0.0700236 0
M  V30 11062 H 1036.15 -2.51094 1.63987 0
M  V30 11063 H 1033.7 -1.28775 0.885813 0
M  V30 11064 H 1034.44 -3.1277 -0.857061 0
M  V30 11065 H 1034.22 -3.84551 0.76569 0
M  V30 11066 H 1035.71 -4.17258 -0.168905 0
M  V30 11067 N 1036.15 -0.873678 -1.31166 0
M  V30 11068 C 1037.1 -0.330288 -2.28424 0
M  V30 11069 C 1038.07 0.573299 -1.55893 0
M  V30 11070 O 1039.25 0.504143 -1.84019 0
M  V30 11071 C 1036.39 0.459004 -3.42034 0
M  V30 11072 C 1035.5 -0.472519 -4.29408 0
M  V30 11073 C 1034.64 0.331261 -5.30166 0
M  V30 11074 C 1033.68 -0.596453 -6.09187 0
M  V30 11075 N 1032.81 0.171305 -7.01891 0
M  V30 11076 H 1037.65 -1.16485 -2.7429 0
M  V30 11077 H 1035.19 -0.585813 -1.34932 0
M  V30 11078 H 1037.15 0.932432 -4.06647 0
M  V30 11079 H 1035.78 1.25824 -2.97268 0
M  V30 11080 H 1034.83 -1.06441 -3.65205 0
M  V30 11081 H 1036.14 -1.18372 -4.84551 0
M  V30 11082 H 1035.3 0.867038 -6.00473 0
M  V30 11083 H 1034.04 1.07573 -4.75688 0
M  V30 11084 H 1033.04 -1.14395 -5.37767 0
M  V30 11085 H 1034.27 -1.33983 -6.65752 0
M  V30 11086 H 1032.21 0.89852 -6.49817 0
M  V30 11087 H 1032.13 -0.480481 -7.54472 0
M  V30 11088 H 1033.4 0.688192 -7.76456 0
M  V30 11089 N 1037.63 1.44308 -0.633487 0
M  V30 11090 C 1039.04 1.56768 -0.29931 0
M  V30 11091 C 1039.24 1.62061 1.19743 0
M  V30 11092 O 1038.3 1.56492 1.98158 0
M  V30 11093 C 1039.61 2.8382 -0.993307 0
M  V30 11094 C 1041.16 2.97536 -0.971674 0
M  V30 11095 C 1041.63 4.27393 -1.64618 0
M  V30 11096 N 1043.13 4.34212 -1.61288 0
M  V30 11097 C 1043.86 5.33415 -2.1037 0
M  V30 11098 N 1043.36 6.3901 -2.67653 0
M  V30 11099 N 1045.15 5.24939 -2.00985 0
M  V30 11100 H 1037.3 1.39115 -1.60501 0
M  V30 11101 H 1039.56 0.666804 -0.673852 0
M  V30 11102 H 1039.27 2.85902 -2.04823 0
M  V30 11103 H 1039.14 3.73422 -0.532537 0
M  V30 11104 H 1041.53 2.95005 0.0747854 0
M  V30 11105 H 1041.61 2.09276 -1.47096 0
M  V30 11106 H 1041.26 4.30683 -2.6921 0
M  V30 11107 H 1041.19 5.14515 -1.12171 0
M  V30 11108 H 1043.68 3.58519 -1.19468 0
M  V30 11109 H 1043.99 7.10994 -3.02831 0
M  V30 11110 H 1042.33 6.39689 -2.71705 0
M  V30 11111 H 1045.53 4.41357 -1.55953 0
M  V30 11112 H 1045.7 6.02097 -2.39547 0
M  V30 11113 N 1039.1 0.374177 1.53094 0
M  V30 11114 C 1040.52 0.0234783 1.59583 0
M  V30 11115 C 1040.72 -1.45984 1.38892 0
M  V30 11116 O 1039.78 -2.22251 1.19836 0
M  V30 11117 C 1041.09 0.487117 2.96728 0
M  V30 11118 C 1042.64 0.442073 3.09862 0
M  V30 11119 C 1043.11 0.881659 4.49434 0
M  V30 11120 N 1044.6 0.837062 4.55574 0
M  V30 11121 C 1045.34 1.14878 5.61774 0
M  V30 11122 N 1044.83 1.53022 6.75689 0
M  V30 11123 N 1046.63 1.07102 5.51802 0
M  V30 11124 H 1038.78 1.34003 1.64794 0
M  V30 11125 H 1041.04 0.548281 0.773364 0
M  V30 11126 H 1040.75 1.52252 3.17037 0
M  V30 11127 H 1040.62 -0.121772 3.77003 0
M  V30 11128 H 1043.01 -0.584216 2.89259 0
M  V30 11129 H 1043.09 1.08657 2.31576 0
M  V30 11130 H 1042.73 1.90611 4.70776 0
M  V30 11131 H 1042.66 0.214326 5.26164 0
M  V30 11132 H 1045.15 0.556173 3.73785 0
M  V30 11133 H 1045.47 1.75211 7.52676 0
M  V30 11134 H 1043.81 1.56895 6.77059 0
M  V30 11135 H 1047 0.772149 4.61688 0
M  V30 11136 H 1047.18 1.31728 6.3447 0
M  V30 11137 N 1040.58 -1.57259 0.103575 0
M  V30 11138 C 1041.99 -1.81816 -0.424239 0
M  V30 11139 C 1042.34 -1.01976 -1.67617 0
M  V30 11140 O 1041.47 -0.251673 -2.14932 0
M  V30 11141 C 1042.06 -3.29783 -0.776453 0
M  V30 11142 C 1040.62 -3.55074 -1.24897 0
M  V30 11143 C 1039.77 -2.76172 -0.249875 0
M  V30 11144 H 1042.72 -1.55254 0.328913 0
M  V30 11145 H 1042.74 -3.43569 -1.63526 0
M  V30 11146 H 1042.25 -3.87865 0.134906 0
M  V30 11147 H 1040.36 -3.02332 -2.17775 0
M  V30 11148 H 1040.47 -4.637 -1.20495 0
M  V30 11149 H 1038.83 -2.43902 -0.733767 0
M  V30 11150 H 1039.62 -3.37007 0.65431 0
M  V30 11151 N 1042.06 0.170153 -1.56679 0
M  V30 11152 C 1043.29 0.902134 -1.86197 0
M  V30 11153 C 1043.7 1.75775 -0.689098 0
M  V30 11154 O 1043.06 1.79271 0.341763 0
M  V30 11155 C 1043.11 1.77792 -3.14757 0
M  V30 11156 O 1042.83 0.956817 -4.27524 0
M  V30 11157 C 1044.33 2.61947 -3.57629 0
M  V30 11158 H 1041.55 0.262026 -0.617724 0
M  V30 11159 H 1044.1 0.169899 -2.03793 0
M  V30 11160 H 1042.25 2.46348 -2.98984 0
M  V30 11161 H 1042.67 1.5559 -5.00891 0
M  V30 11162 H 1044.14 3.19011 -4.50484 0
M  V30 11163 H 1044.62 3.36873 -2.81803 0
M  V30 11164 H 1045.22 1.98721 -3.76019 0
M  V30 11165 N 1043.54 1.5137 0.438746 0
M  V30 11166 C 1044.79 1.63645 1.18595 0
M  V30 11167 C 1045.11 0.354241 1.91755 0
M  V30 11168 O 1044.38 -0.629838 1.85499 0
M  V30 11169 H 1042.96 0.603103 0.440767 0
M  V30 11170 H 1045.62 1.88293 0.503159 0
M  V30 11171 H 1044.72 2.46342 1.9163 0
M  V30 11172 N 1045.02 -0.694098 1.41492 0
M  V30 11173 C 1046.26 -1.45127 1.4065 0
M  V30 11174 C 1046.59 -1.94993 0.0170289 0
M  V30 11175 O 1045.86 -1.71799 -0.941372 0
M  V30 11176 H 1044.44 -0.538493 0.51772 0
M  V30 11177 H 1047.1 -0.821441 1.76744 0
M  V30 11178 H 1046.19 -2.31372 2.0946 0
M  V30 11179 N 1046.49 -1.27344 -0.928501 0
M  V30 11180 C 1047.74 -1.13804 -1.67859 0
M  V30 11181 C 1048.07 0.31555 -1.91619 0
M  V30 11182 O 1047.35 1.23087 -1.50599 0
M  V30 11183 C 1047.63 -1.9213 -3.04562 0
M  V30 11184 C 1047.48 -3.45468 -2.88048 0
M  V30 11185 C 1048.8 -1.72513 -4.04879 0
M  V30 11186 H 1045.92 -0.414796 -0.609191 0
M  V30 11187 H 1048.56 -1.5649 -1.07753 0
M  V30 11188 H 1046.71 -1.55853 -3.55868 0
M  V30 11189 H 1048.39 -3.9157 -2.43865 0
M  V30 11190 H 1046.63 -3.71849 -2.23407 0
M  V30 11191 H 1047.3 -3.95515 -3.85061 0
M  V30 11192 H 1049.78 -2.04143 -3.62581 0
M  V30 11193 H 1048.65 -2.29713 -4.98521 0
M  V30 11194 H 1048.91 -0.672856 -4.3695 0
M  V30 11195 N 1047.97 1.13488 -1.09353 0
M  V30 11196 C 1048.88 2.2248 -0.744307 0
M  V30 11197 C 1049.9 1.72145 0.253404 0
M  V30 11198 O 1051.07 2.01176 0.0949339 0
M  V30 11199 C 1048.14 3.46286 -0.16928 0
M  V30 11200 C 1047.2 4.11516 -1.22284 0
M  V30 11201 C 1046.43 5.29412 -0.675161 0
M  V30 11202 O 1046.66 5.68185 0.502182 0
M  V30 11203 O 1045.59 5.8467 -1.42983 0
M  V30 11204 H 1049.42 2.54723 -1.65378 0
M  V30 11205 H 1047 1.21607 -0.867879 0
M  V30 11206 H 1048.88 4.2114 0.14811 0
M  V30 11207 H 1047.56 3.15745 0.713214 0
M  V30 11208 H 1046.47 3.38492 -1.59292 0
M  V30 11209 H 1047.8 4.46186 -2.07796 0
M  V30 11210 N 1049.45 0.880621 1.30701 0
M  V30 11211 C 1050.68 0.510909 2.01009 0
M  V30 11212 C 1051.1 -0.892041 1.65603 0
M  V30 11213 O 1050.46 -1.59045 0.870309 0
M  V30 11214 C 1050.51 0.687759 3.53981 0
M  V30 11215 O 1049.61 -0.268275 4.11526 0
M  V30 11216 H 1048.95 0.201864 0.632572 0
M  V30 11217 H 1051.48 1.18697 1.6665 0
M  V30 11218 H 1051.49 0.585095 4.03783 0
M  V30 11219 H 1050.17 1.71068 3.79089 0
M  V30 11220 H 1048.74 -0.119673 3.72708 0
M  V30 11221 N 1050.93 -1.4397 0.641131 0
M  V30 11222 C 1051.86 -2.33458 -0.04446 0
M  V30 11223 C 1052.84 -1.48781 -0.824507 0
M  V30 11224 O 1054.03 -1.77477 -0.788397 0
M  V30 11225 C 1051.16 -3.31989 -1.01984 0
M  V30 11226 C 1050.11 -4.2656 -0.350745 0
M  V30 11227 C 1049.44 -5.15036 -1.43673 0
M  V30 11228 C 1050.74 -5.16897 0.749299 0
M  V30 11229 H 1052.43 -2.91034 0.702832 0
M  V30 11230 H 1049.98 -1.39942 0.339435 0
M  V30 11231 H 1051.93 -3.93483 -1.50828 0
M  V30 11232 H 1050.65 -2.72643 -1.79815 0
M  V30 11233 H 1049.31 -3.66413 0.117139 0
M  V30 11234 H 1048.96 -4.52037 -2.20617 0
M  V30 11235 H 1048.66 -5.79125 -0.994358 0
M  V30 11236 H 1050.18 -5.79403 -1.92678 0
M  V30 11237 H 1051.6 -5.7227 0.343534 0
M  V30 11238 H 1049.99 -5.89643 1.11541 0
M  V30 11239 H 1051.06 -4.5731 1.61232 0
M  V30 11240 N 1052.41 -0.382291 -1.52893 0
M  V30 11241 C 1053.82 -0.031941 -1.59568 0
M  V30 11242 C 1054.02 1.45245 -1.39664 0
M  V30 11243 O 1053.08 2.21612 -1.21013 0
M  V30 11244 C 1054.39 -0.502846 -2.96466 0
M  V30 11245 C 1055.94 -0.4585 -3.09624 0
M  V30 11246 C 1056.42 -0.905481 -4.4896 0
M  V30 11247 N 1057.91 -0.861211 -4.55124 0
M  V30 11248 C 1058.64 -1.17856 -5.61157 0
M  V30 11249 N 1058.14 -1.56603 -6.74868 0
M  V30 11250 N 1059.93 -1.10027 -5.51226 0
M  V30 11251 H 1052.08 -1.34875 -1.64081 0
M  V30 11252 H 1054.34 -0.552375 -0.770446 0
M  V30 11253 H 1054.05 -1.53931 -3.16225 0
M  V30 11254 H 1053.92 0.101777 -3.77063 0
M  V30 11255 H 1056.31 0.568868 -2.89565 0
M  V30 11256 H 1056.39 -1.09884 -2.30996 0
M  V30 11257 H 1056.04 -1.93105 -4.69759 0
M  V30 11258 H 1055.97 -0.242227 -5.26043 0
M  V30 11259 H 1058.46 -0.575988 -3.73485 0
M  V30 11260 H 1058.77 -1.792 -7.51736 0
M  V30 11261 H 1057.12 -1.60484 -6.76217 0
M  V30 11262 H 1060.31 -0.796623 -4.61272 0
M  V30 11263 H 1060.48 -1.35091 -6.33762 0
M  V30 11264 N 1053.89 1.57202 -0.111913 0
M  V30 11265 C 1054.85 2.13778 0.826534 0
M  V30 11266 C 1055.85 1.07097 1.19945 0
M  V30 11267 O 1057.04 1.32906 1.12613 0
M  V30 11268 C 1054.17 2.6722 2.11675 0
M  V30 11269 H 1055.36 2.98023 0.334975 0
M  V30 11270 H 1052.92 1.55696 0.137256 0
M  V30 11271 H 1053.65 1.86542 2.65278 0
M  V30 11272 H 1053.44 3.45235 1.8589 0
M  V30 11273 H 1054.93 3.10926 2.78774 0
M  V30 11274 N 1055.36 -0.161842 1.56767 0
M  V30 11275 C 1056.61 -0.875278 1.81719 0
M  V30 11276 C 1056.93 -1.82998 0.690739 0
M  V30 11277 O 1058.13 -2.58648 0.82545 0
M  V30 11278 C 1056.59 -1.60703 3.22029 0
M  V30 11279 C 1056.2 -0.695486 4.42569 0
M  V30 11280 C 1057.94 -2.30813 3.56266 0
M  V30 11281 C 1055.85 -1.42801 5.73901 0
M  V30 11282 H 1054.78 -0.330591 0.677662 0
M  V30 11283 H 1057.43 -0.128112 1.83052 0
M  V30 11284 H 1055.81 -2.39929 3.1504 0
M  V30 11285 H 1056.98 0.0604882 4.6076 0
M  V30 11286 H 1055.3 -0.10356 4.16271 0
M  V30 11287 H 1057.9 -2.86229 4.51638 0
M  V30 11288 H 1058.24 -3.06603 2.81604 0
M  V30 11289 H 1058.77 -1.5852 3.64851 0
M  V30 11290 H 1055.51 -0.712253 6.51619 0
M  V30 11291 H 1055.03 -2.15707 5.5967 0
M  V30 11292 H 1056.71 -1.97295 6.16185 0
M  V30 11293 N 1056.84 -1.516 -0.430713 0
M  V30 11294 C 1058.25 -1.57 -1.01035 0
M  V30 11295 C 1058.6 -0.397439 -1.92132 0
M  V30 11296 O 1057.73 0.484954 -2.10896 0
M  V30 11297 C 1058.32 -2.84536 -1.83915 0
M  V30 11298 C 1056.88 -2.92485 -2.36917 0
M  V30 11299 C 1056.03 -2.5173 -1.16308 0
M  V30 11300 H 1058.98 -1.57281 -0.211734 0
M  V30 11301 H 1059 -2.68672 -2.69435 0
M  V30 11302 H 1058.51 -3.69858 -1.17586 0
M  V30 11303 H 1056.61 -2.11608 -3.0668 0
M  V30 11304 H 1056.73 -3.96277 -2.6926 0
M  V30 11305 H 1055.09 -2.05079 -1.51045 0
M  V30 11306 H 1055.87 -3.39403 -0.515793 0
M  V30 11307 N 1058.32 0.686584 -1.41858 0
M  V30 11308 C 1059.57 1.44738 -1.42908 0
M  V30 11309 C 1059.92 1.92357 -0.0404705 0
M  V30 11310 O 1059.21 1.67221 0.935287 0
M  V30 11311 C 1059.41 2.66793 -2.37816 0
M  V30 11312 C 1059.24 2.31114 -3.85767 0
M  V30 11313 C 1058.01 2.21043 -4.54388 0
M  V30 11314 C 1060.2 1.93512 -4.76505 0
M  V30 11315 N 1058.19 1.78344 -5.87424 0
M  V30 11316 C 1059.56 1.61642 -5.98558 0
M  V30 11317 C 1061.61 1.80401 -4.64069 0
M  V30 11318 C 1060.32 1.17977 -7.09559 0
M  V30 11319 C 1062.34 1.38141 -5.7504 0
M  V30 11320 C 1061.7 1.07186 -6.96197 0
M  V30 11321 H 1057.8 0.526577 -0.578136 0
M  V30 11322 H 1060.39 0.793483 -1.77797 0
M  V30 11323 H 1058.56 3.29889 -2.05007 0
M  V30 11324 H 1060.29 3.33318 -2.29524 0
M  V30 11325 H 1057.04 2.39731 -4.08443 0
M  V30 11326 H 1057.47 1.59451 -6.57955 0
M  V30 11327 H 1062.11 2.02983 -3.70888 0
M  V30 11328 H 1059.83 0.941397 -8.02598 0
M  V30 11329 H 1063.41 1.28533 -5.67425 0
M  V30 11330 H 1062.29 0.749804 -7.80607 0
M  V30 11331 N 1059.8 1.27835 0.921735 0
M  V30 11332 C 1061.05 1.13904 1.6646 0
M  V30 11333 C 1061.36 -0.313379 1.93073 0
M  V30 11334 O 1062.57 -0.573687 2.6537 0
M  V30 11335 C 1061.02 1.99064 2.99836 0
M  V30 11336 C 1060.63 3.48998 2.80899 0
M  V30 11337 C 1062.37 1.93797 3.77681 0
M  V30 11338 C 1060.28 4.26337 4.09867 0
M  V30 11339 H 1059.21 0.422681 0.624385 0
M  V30 11340 H 1061.86 1.52303 1.02352 0
M  V30 11341 H 1060.24 1.53514 3.65034 0
M  V30 11342 H 1061.42 4.02452 2.24431 0
M  V30 11343 H 1059.73 3.55707 2.16476 0
M  V30 11344 H 1062.33 2.48852 4.73262 0
M  V30 11345 H 1062.67 0.912928 4.06167 0
M  V30 11346 H 1063.21 2.37275 3.19289 0
M  V30 11347 H 1059.94 5.2939 3.86557 0
M  V30 11348 H 1059.46 3.77659 4.65976 0
M  V30 11349 H 1061.14 4.3583 4.78185 0
M  V30 11350 N 1061.28 -1.12907 1.09954 0
M  V30 11351 C 1062.52 -1.84306 0.838912 0
M  V30 11352 C 1062.85 -1.83825 -0.635508 0
M  V30 11353 O 1062.11 -1.27556 -1.48418 0
M  V30 11354 C 1062.4 -3.31885 1.32616 0
M  V30 11355 C 1062.07 -3.52542 2.81114 0
M  V30 11356 C 1060.73 -3.57888 3.21667 0
M  V30 11357 C 1063.08 -3.60065 3.76833 0
M  V30 11358 C 1060.41 -3.68296 4.567 0
M  V30 11359 C 1062.76 -3.72001 5.11662 0
M  V30 11360 C 1061.43 -3.75602 5.51797 0
M  V30 11361 H 1060.7 -0.674422 0.30698 0
M  V30 11362 H 1063.35 -1.33261 1.37527 0
M  V30 11363 H 1061.65 -3.85318 0.709719 0
M  V30 11364 H 1063.35 -3.85588 1.10105 0
M  V30 11365 H 1059.94 -3.4904 2.48735 0
M  V30 11366 H 1064.12 -3.55209 3.46612 0
M  V30 11367 H 1059.38 -3.69352 4.87226 0
M  V30 11368 H 1063.55 -3.76765 5.8568 0
M  V30 11369 H 1061.18 -3.83419 6.56425 0
M  V30 11370 N 1062.75 -0.88754 -1.30232 0
M  V30 11371 C 1063.72 -0.361095 -2.26338 0
M  V30 11372 C 1064.72 0.497871 -1.52898 0
M  V30 11373 O 1065.91 0.30466 -1.71515 0
M  V30 11374 C 1063.04 0.485135 -3.3743 0
M  V30 11375 H 1064.23 -1.20973 -2.74419 0
M  V30 11376 H 1061.78 -0.664619 -1.41466 0
M  V30 11377 H 1062.52 1.35425 -2.9467 0
M  V30 11378 H 1062.3 -0.130173 -3.91884 0
M  V30 11379 H 1063.79 0.845169 -4.08958 0
M  V30 11380 N 1064.23 1.43628 -0.648757 0
M  V30 11381 C 1065.48 2.02695 -0.169158 0
M  V30 11382 C 1065.83 1.50239 1.20191 0
M  V30 11383 O 1065.13 0.684018 1.78974 0
M  V30 11384 C 1065.32 3.57214 -0.115282 0
M  V30 11385 C 1065.15 4.24663 -1.47959 0
M  V30 11386 C 1063.92 4.60917 -2.07084 0
M  V30 11387 C 1066.12 4.53962 -2.41708 0
M  V30 11388 N 1064.1 5.13416 -3.36566 0
M  V30 11389 C 1065.47 5.07733 -3.55819 0
M  V30 11390 C 1067.53 4.35927 -2.40566 0
M  V30 11391 C 1066.23 5.45367 -4.69007 0
M  V30 11392 C 1068.25 4.7462 -3.52831 0
M  V30 11393 C 1067.62 5.2852 -4.65667 0
M  V30 11394 H 1063.72 0.774751 -0.106227 0
M  V30 11395 H 1066.3 1.74869 -0.85609 0
M  V30 11396 H 1064.47 3.84614 0.54098 0
M  V30 11397 H 1066.2 4.02961 0.374775 0
M  V30 11398 H 1062.96 4.45812 -1.59841 0
M  V30 11399 H 1063.38 5.44124 -4.02813 0
M  V30 11400 H 1068.02 3.93533 -1.54569 0
M  V30 11401 H 1065.74 5.86707 -5.55698 0
M  V30 11402 H 1069.33 4.62364 -3.53144 0
M  V30 11403 H 1068.21 5.57906 -5.511 0
M  V30 11404 N 1065.71 0.390394 1.52688 0
M  V30 11405 C 1066.94 -0.191485 2.06012 0
M  V30 11406 C 1067.35 -1.40422 1.26202 0
M  V30 11407 O 1066.71 -1.79866 0.308963 0
M  V30 11408 C 1066.76 -0.560521 3.57128 0
M  V30 11409 O 1066.48 0.60404 4.33916 0
M  V30 11410 C 1067.98 -1.19814 4.26801 0
M  V30 11411 H 1065.2 -0.0286311 0.670389 0
M  V30 11412 H 1067.75 0.555939 1.96798 0
M  V30 11413 H 1065.9 -1.25784 3.66411 0
M  V30 11414 H 1066.32 0.300467 5.23639 0
M  V30 11415 H 1067.79 -1.40672 5.33775 0
M  V30 11416 H 1068.27 -2.16582 3.82085 0
M  V30 11417 H 1068.87 -0.541558 4.21838 0
M  V30 11418 N 1067.19 -1.57141 0.120249 0
M  V30 11419 C 1068.12 -2.12454 -0.859987 0
M  V30 11420 C 1069.13 -1.06755 -1.22911 0
M  V30 11421 O 1070.32 -1.34124 -1.17784 0
M  V30 11422 C 1067.42 -2.61024 -2.16147 0
M  V30 11423 C 1066.6 -3.90835 -1.96385 0
M  V30 11424 C 1065.65 -4.2499 -3.10274 0
M  V30 11425 O 1064.68 -4.93786 -2.83133 0
M  V30 11426 N 1065.88 -3.82411 -4.36741 0
M  V30 11427 H 1068.65 -2.97186 -0.387402 0
M  V30 11428 H 1066.21 -1.61773 -0.0641376 0
M  V30 11429 H 1068.2 -2.80903 -2.91334 0
M  V30 11430 H 1066.77 -1.81166 -2.5475 0
M  V30 11431 H 1065.99 -3.79853 -1.05383 0
M  V30 11432 H 1067.28 -4.75712 -1.80487 0
M  V30 11433 H 1066.68 -3.26926 -4.61666 0
M  V30 11434 H 1065.23 -4.07395 -5.08795 0
M  V30 11435 N 1068.67 0.153526 -1.5685 0
M  V30 11436 C 1069.61 1.20896 -1.98713 0
M  V30 11437 C 1070.61 1.44839 -0.878529 0
M  V30 11438 O 1071.81 1.45208 -1.0637 0
M  V30 11439 H 1068.19 0.406797 -0.632472 0
M  V30 11440 H 1070.16 0.829145 -2.86649 0
M  V30 11441 C 1068.91 2.53642 -2.37825 0
M  V30 11442 H 1068.23 2.36047 -3.22679 0
M  V30 11443 H 1069.67 3.26136 -2.70946 0
M  V30 11444 C 1068.13 3.13706 -1.22841 0
M  V30 11445 O 1068.66 3.98246 -0.525626 0
M  V30 11446 N 1066.87 2.73059 -0.99435 0
M  V30 11447 H 1066.41 2.0441 -1.56761 0
M  V30 11448 H 1066.37 3.1358 -0.226883 0
M  V30 11449 N 1070.14 1.51827 0.422667 0
M  V30 11450 C 1071.56 1.40328 0.760275 0
M  V30 11451 C 1071.76 0.497119 1.95272 0
M  V30 11452 O 1070.82 -0.0422083 2.52465 0
M  V30 11453 C 1072.13 2.82622 1.02689 0
M  V30 11454 C 1073.68 2.91874 1.13044 0
M  V30 11455 C 1074.15 4.35107 1.4299 0
M  V30 11456 N 1075.64 4.3828 1.49883 0
M  V30 11457 C 1076.38 5.46153 1.74655 0
M  V30 11458 N 1075.87 6.64165 1.9712 0
M  V30 11459 N 1077.67 5.33651 1.76558 0
M  V30 11460 H 1069.82 2.09285 -0.362455 0
M  V30 11461 H 1072.08 0.94273 -0.0998161 0
M  V30 11462 H 1071.79 3.50991 0.223226 0
M  V30 11463 H 1071.66 3.22844 1.95068 0
M  V30 11464 H 1074.05 2.23694 1.92471 0
M  V30 11465 H 1074.13 2.55128 0.185326 0
M  V30 11466 H 1073.77 5.03841 0.640848 0
M  V30 11467 H 1073.7 4.69377 2.38731 0
M  V30 11468 H 1076.19 3.53206 1.34366 0
M  V30 11469 H 1076.51 7.42165 2.15434 0
M  V30 11470 H 1074.85 6.67255 1.94413 0
M  V30 11471 H 1078.04 4.40436 1.58536 0
M  V30 11472 H 1078.22 6.17798 1.95525 0
M  V30 11473 N 1071.62 -0.679052 1.4222 0
M  V30 11474 C 1072.55 -1.80481 1.48152 0
M  V30 11475 C 1073.53 -1.66698 0.338502 0
M  V30 11476 O 1074.72 -1.86183 0.552228 0
M  V30 11477 C 1071.85 -3.18746 1.37908 0
M  V30 11478 C 1070.8 -3.47258 2.50192 0
M  V30 11479 C 1070.13 -4.85052 2.25008 0
M  V30 11480 C 1071.43 -3.44576 3.92511 0
M  V30 11481 H 1073.12 -1.75774 2.42371 0
M  V30 11482 H 1070.67 -0.844241 1.16656 0
M  V30 11483 H 1072.62 -3.97229 1.40666 0
M  V30 11484 H 1071.35 -3.24119 0.401806 0
M  V30 11485 H 1070 -2.71133 2.46744 0
M  V30 11486 H 1069.65 -4.8707 1.25584 0
M  V30 11487 H 1069.35 -5.05092 3.00259 0
M  V30 11488 H 1070.88 -5.65825 2.29508 0
M  V30 11489 H 1072.29 -4.13036 3.97585 0
M  V30 11490 H 1070.69 -3.76151 4.67579 0
M  V30 11491 H 1071.76 -2.4323 4.19484 0
M  V30 11492 N 1073.1 -1.28322 -0.914942 0
M  V30 11493 C 1074.03 -1.06469 -2.01841 0
M  V30 11494 C 1075.01 0.0188681 -1.62589 0
M  V30 11495 O 1076.2 -0.128825 -1.88059 0
M  V30 11496 C 1073.32 -0.617685 -3.3302 0
M  V30 11497 C 1072.37 -1.6977 -3.91255 0
M  V30 11498 S 1073.2 -3.29337 -4.22253 0
M  V30 11499 C 1074.36 -2.86468 -5.56495 0
M  V30 11500 H 1074.59 -1.99893 -2.20068 0
M  V30 11501 H 1072.12 -1.12297 -1.05966 0
M  V30 11502 H 1074.08 -0.366481 -4.08861 0
M  V30 11503 H 1072.74 0.296709 -3.12695 0
M  V30 11504 H 1071.94 -1.33653 -4.85956 0
M  V30 11505 H 1071.54 -1.90164 -3.22046 0
M  V30 11506 H 1073.83 -2.32565 -6.36333 0
M  V30 11507 H 1074.77 -3.79962 -5.97523 0
M  V30 11508 H 1075.18 -2.2522 -5.17626 0
M  V30 11509 N 1074.58 1.12322 -1.10551 0
M  V30 11510 C 1075.51 2.20176 -0.777486 0
M  V30 11511 C 1076.49 1.68252 0.250069 0
M  V30 11512 O 1077.67 1.93856 0.115574 0
M  V30 11513 C 1074.8 3.46666 -0.209822 0
M  V30 11514 C 1073.76 4.11749 -1.1682 0
M  V30 11515 C 1073.08 5.32703 -0.461684 0
M  V30 11516 C 1074.38 4.57746 -2.51527 0
M  V30 11517 H 1076.08 2.47872 -1.67928 0
M  V30 11518 H 1073.62 1.19136 -0.808863 0
M  V30 11519 H 1075.58 4.21388 0.0318068 0
M  V30 11520 H 1074.3 3.18401 0.727226 0
M  V30 11521 H 1072.96 3.39009 -1.3953 0
M  V30 11522 H 1072.61 5.00706 0.479875 0
M  V30 11523 H 1072.31 5.77197 -1.1008 0
M  V30 11524 H 1073.83 6.10172 -0.228629 0
M  V30 11525 H 1075.25 5.23835 -2.32958 0
M  V30 11526 H 1073.64 5.13021 -3.11335 0
M  V30 11527 H 1074.71 3.71667 -3.11435 0
M  V30 11528 N 1076.06 0.894434 1.2976 0
M  V30 11529 C 1077.47 0.566892 1.77885 0
M  V30 11530 C 1077.82 -0.917289 1.73437 0
M  V30 11531 O 1076.94 -1.71707 1.31703 0
M  V30 11532 C 1077.54 1.02227 3.2301 0
M  V30 11533 C 1076.1 0.745978 3.68934 0
M  V30 11534 C 1075.24 1.19993 2.49994 0
M  V30 11535 H 1078.2 1.0777 1.16496 0
M  V30 11536 H 1078.22 0.355281 3.78838 0
M  V30 11537 H 1077.73 2.1025 3.26215 0
M  V30 11538 H 1075.83 -0.321866 3.71207 0
M  V30 11539 H 1075.94 1.34017 4.59974 0
M  V30 11540 H 1074.31 0.619047 2.47063 0
M  V30 11541 H 1075.09 2.28811 2.55931 0
M  V30 11542 N 1077.53 -1.43282 0.656365 0
M  V30 11543 C 1078.5 -2.29188 -0.0239173 0
M  V30 11544 C 1079.5 -1.42373 -0.747436 0
M  V30 11545 O 1080.69 -1.63969 -0.588213 0
M  V30 11546 C 1077.82 -3.24501 -1.0446 0
M  V30 11547 H 1079.01 -2.9083 0.731978 0
M  V30 11548 H 1076.57 -1.50614 0.417752 0
M  V30 11549 H 1077.3 -2.6776 -1.82962 0
M  V30 11550 H 1077.09 -3.88509 -0.52942 0
M  V30 11551 H 1078.58 -3.88971 -1.51958 0
M  V30 11552 N 1079.01 -0.398486 -1.52479 0
M  V30 11553 C 1080.26 0.17345 -2.02659 0
M  V30 11554 C 1080.61 1.43702 -1.27935 0
M  V30 11555 O 1079.91 1.87916 -0.37392 0
M  V30 11556 C 1080.1 0.485909 -3.54081 0
M  V30 11557 C 1079.93 -0.745833 -4.43472 0
M  V30 11558 C 1078.7 -1.26785 -4.89136 0
M  V30 11559 C 1080.9 -1.62085 -4.88091 0
M  V30 11560 N 1078.88 -2.45619 -5.62623 0
M  V30 11561 C 1080.25 -2.65552 -5.60252 0
M  V30 11562 C 1082.31 -1.63986 -4.7012 0
M  V30 11563 C 1081.01 -3.70818 -6.1635 0
M  V30 11564 C 1083.04 -2.68164 -5.27107 0
M  V30 11565 C 1082.4 -3.70353 -5.99181 0
M  V30 11566 H 1078.5 0.0253159 -0.78159 0
M  V30 11567 H 1081.08 -0.550442 -1.86757 0
M  V30 11568 H 1079.25 1.17885 -3.70078 0
M  V30 11569 H 1080.98 1.0458 -3.90954 0
M  V30 11570 H 1077.74 -0.827472 -4.66315 0
M  V30 11571 H 1078.16 -3.05771 -6.04014 0
M  V30 11572 H 1082.8 -0.863253 -4.13893 0
M  V30 11573 H 1080.52 -4.49341 -6.71653 0
M  V30 11574 H 1084.11 -2.7053 -5.15077 0
M  V30 11575 H 1082.99 -4.49642 -6.42489 0
M  V30 11576 N 1080.49 1.57075 -0.12858 0
M  V30 11577 C 1081.42 2.18833 0.814519 0
M  V30 11578 C 1082.4 1.13114 1.2704 0
M  V30 11579 O 1083.59 1.41387 1.33129 0
M  V30 11580 C 1080.72 2.79535 2.06101 0
M  V30 11581 C 1079.67 3.9092 1.74257 0
M  V30 11582 C 1079 4.38473 3.06015 0
M  V30 11583 C 1080.3 5.1257 1.00345 0
M  V30 11584 H 1081.99 2.97895 0.299862 0
M  V30 11585 H 1079.54 1.4329 0.14279 0
M  V30 11586 H 1081.49 3.21401 2.72543 0
M  V30 11587 H 1080.21 1.97777 2.59907 0
M  V30 11588 H 1078.87 3.49645 1.102 0
M  V30 11589 H 1078.52 3.53561 3.57776 0
M  V30 11590 H 1078.22 5.13591 2.85479 0
M  V30 11591 H 1079.75 4.82997 3.7356 0
M  V30 11592 H 1081.16 5.51395 1.56959 0
M  V30 11593 H 1079.56 5.93333 0.898693 0
M  V30 11594 H 1080.63 4.84899 -0.0081335 0
M  V30 11595 N 1081.97 -0.145205 1.5693 0
M  V30 11596 C 1083.22 -0.855822 1.83085 0
M  V30 11597 C 1083.54 -1.81625 0.709747 0
M  V30 11598 O 1082.81 -1.94052 -0.268456 0
M  V30 11599 H 1081.39 -0.319032 0.675446 0
M  V30 11600 H 1084.05 -0.138781 1.94405 0
M  V30 11601 H 1083.15 -1.41698 2.78079 0
M  V30 11602 N 1083.45 -1.52049 -0.414609 0
M  V30 11603 C 1084.41 -1.74382 -1.4874 0
M  V30 11604 C 1085.41 -0.613701 -1.48628 0
M  V30 11605 O 1086.6 -0.88152 -1.50249 0
M  V30 11606 C 1083.73 -1.82116 -2.88178 0
M  V30 11607 H 1084.93 -2.70147 -1.30233 0
M  V30 11608 H 1082.48 -1.42382 -0.644756 0
M  V30 11609 H 1083.21 -0.882457 -3.12063 0
M  V30 11610 H 1083 -2.64268 -2.89663 0
M  V30 11611 H 1084.49 -2.01155 -3.65959 0
M  V30 11612 N 1084.93 0.6715 -1.42579 0
M  V30 11613 C 1086.17 1.42871 -1.42941 0
M  V30 11614 C 1086.49 1.94941 -0.0480483 0
M  V30 11615 O 1085.76 1.73275 0.913921 0
M  V30 11616 H 1084.34 0.530189 -0.526221 0
M  V30 11617 H 1087.01 0.793219 -1.78028 0
M  V30 11618 H 1086.1 2.2801 -2.13114 0
M  V30 11619 N 1086.4 1.28806 0.908124 0
M  V30 11620 C 1087.63 1.19153 1.69146 0
M  V30 11621 C 1088.05 -0.249056 1.8715 0
M  V30 11622 O 1087.4 -1.16772 1.40251 0
M  V30 11623 C 1087.45 1.89167 3.08055 0
M  V30 11624 O 1087.18 3.27599 2.90879 0
M  V30 11625 C 1088.68 1.85886 4.02444 0
M  V30 11626 H 1085.9 0.413359 0.528559 0
M  V30 11627 H 1088.44 1.7003 1.13622 0
M  V30 11628 H 1086.6 1.42146 3.60379 0
M  V30 11629 H 1087.01 3.62743 3.78837 0
M  V30 11630 H 1088.48 2.39454 4.97359 0
M  V30 11631 H 1088.96 0.832483 4.31238 0
M  V30 11632 H 1089.57 2.32612 3.5605 0
M  V30 11633 N 1087.88 -1.11734 1.11145 0
M  V30 11634 C 1088.84 -2.15868 0.770303 0
M  V30 11635 C 1089.84 -1.59438 -0.208842 0
M  V30 11636 O 1091.03 -1.74193 0.0152516 0
M  V30 11637 C 1088.17 -3.40603 0.142303 0
M  V30 11638 H 1089.36 -2.4756 1.69276 0
M  V30 11639 H 1086.91 -1.26867 0.912929 0
M  V30 11640 H 1087.65 -3.14517 -0.790526 0
M  V30 11641 H 1087.43 -3.8284 0.847087 0
M  V30 11642 H 1088.92 -4.17523 -0.0803608 0
M  V30 11643 N 1089.36 -0.901303 -1.29284 0
M  V30 11644 C 1090.29 -0.396909 -2.30102 0
M  V30 11645 C 1091.27 0.528919 -1.61668 0
M  V30 11646 O 1092.46 0.439306 -1.89166 0
M  V30 11647 C 1089.59 0.375006 -3.45269 0
M  V30 11648 C 1088.54 -0.46054 -4.25515 0
M  V30 11649 C 1087.87 0.438967 -5.32895 0
M  V30 11650 C 1089.17 -1.7113 -4.93469 0
M  V30 11651 H 1090.86 -1.23943 -2.72541 0
M  V30 11652 H 1088.41 -0.597428 -1.31022 0
M  V30 11653 H 1090.36 0.738622 -4.14876 0
M  V30 11654 H 1089.08 1.25132 -3.01678 0
M  V30 11655 H 1087.74 -0.80651 -3.57618 0
M  V30 11656 H 1087.39 1.31346 -4.85548 0
M  V30 11657 H 1087.09 -0.116406 -5.87485 0
M  V30 11658 H 1088.61 0.79874 -6.05353 0
M  V30 11659 H 1090.03 -1.41732 -5.55504 0
M  V30 11660 H 1088.42 -2.20811 -5.57999 0
M  V30 11661 H 1089.49 -2.44636 -4.18666 0
M  V30 11662 N 1090.84 1.42931 -0.663954 0
M  V30 11663 C 1091.77 2.29122 0.0598878 0
M  V30 11664 C 1092.78 1.43094 0.776404 0
M  V30 11665 O 1093.97 1.66923 0.63237 0
M  V30 11666 C 1091.07 3.20268 1.10822 0
M  V30 11667 C 1090.24 4.34892 0.4677 0
M  V30 11668 C 1089.3 5.06836 1.41435 0
M  V30 11669 O 1088.33 5.61735 0.918818 0
M  V30 11670 N 1089.53 5.11336 2.74801 0
M  V30 11671 H 1092.3 2.91885 -0.679945 0
M  V30 11672 H 1089.86 1.53739 -0.507543 0
M  V30 11673 H 1091.85 3.65264 1.74255 0
M  V30 11674 H 1090.42 2.59031 1.7499 0
M  V30 11675 H 1089.64 3.92679 -0.34593 0
M  V30 11676 H 1090.93 5.08796 0.0210237 0
M  V30 11677 H 1090.33 4.68124 3.1761 0
M  V30 11678 H 1088.88 5.60013 3.33509 0
M  V30 11679 N 1092.32 0.406567 1.52266 0
M  V30 11680 C 1093.26 -0.420182 2.26943 0
M  V30 11681 C 1094.23 -1.04323 1.29251 0
M  V30 11682 O 1095.42 -1.06799 1.5811 0
M  V30 11683 C 1092.56 -1.5323 3.09216 0
M  V30 11684 C 1091.67 -0.930419 4.21862 0
M  V30 11685 C 1090.81 -2.01502 4.91498 0
M  V30 11686 C 1089.84 -1.38994 5.9611 0
M  V30 11687 N 1088.98 -2.41458 6.59274 0
M  V30 11688 H 1093.82 0.223066 2.97164 0
M  V30 11689 H 1091.36 0.121842 1.46595 0
M  V30 11690 H 1093.32 -2.18803 3.5522 0
M  V30 11691 H 1091.95 -2.14561 2.41171 0
M  V30 11692 H 1091 -0.163809 3.80047 0
M  V30 11693 H 1092.31 -0.433785 4.9691 0
M  V30 11694 H 1091.46 -2.74807 5.40894 0
M  V30 11695 H 1090.2 -2.5453 4.16012 0
M  V30 11696 H 1089.21 -0.642213 5.46036 0
M  V30 11697 H 1090.43 -0.867386 6.73538 0
M  V30 11698 H 1088.38 -2.93623 5.86619 0
M  V30 11699 H 1088.3 -1.96599 7.2999 0
M  V30 11700 H 1089.56 -3.14341 7.13309 0
M  V30 11701 N 1093.79 -1.57004 0.136909 0
M  V30 11702 C 1095.04 -1.96087 -0.517477 0
M  V30 11703 C 1095.37 -1.0213 -1.65176 0
M  V30 11704 O 1094.65 -0.0617958 -1.94402 0
M  V30 11705 C 1094.93 -3.44958 -1.03323 0
M  V30 11706 C 1094.78 -4.49691 0.0988609 0
M  V30 11707 C 1096.1 -3.96091 -1.91832 0
M  V30 11708 H 1093.22 -0.712978 -0.186632 0
M  V30 11709 H 1095.86 -1.88767 0.216095 0
M  V30 11710 H 1094.01 -3.51327 -1.65836 0
M  V30 11711 H 1095.69 -4.55409 0.734847 0
M  V30 11712 H 1093.93 -4.271 0.75947 0
M  V30 11713 H 1094.6 -5.51165 -0.303554 0
M  V30 11714 H 1097.08 -3.92139 -1.39164 0
M  V30 11715 H 1095.95 -5.00742 -2.24831 0
M  V30 11716 H 1096.21 -3.37846 -2.85153 0
M  V30 11717 N 1095.27 0.136881 -1.57004 0
M  V30 11718 C 1096.52 0.849031 -1.84172 0
M  V30 11719 C 1096.85 1.80359 -0.720027 0
M  V30 11720 O 1096.13 1.92538 0.275584 0
M  V30 11721 C 1096.41 1.61465 -3.21871 0
M  V30 11722 C 1096.26 0.680902 -4.44616 0
M  V30 11723 C 1097.58 2.57488 -3.56914 0
M  V30 11724 H 1094.7 0.307209 -0.669919 0
M  V30 11725 H 1097.34 0.113862 -1.89659 0
M  V30 11726 H 1095.49 2.24137 -3.17325 0
M  V30 11727 H 1097.16 0.0644094 -4.61255 0
M  V30 11728 H 1095.41 -0.00883629 -4.33799 0
M  V30 11729 H 1096.08 1.25286 -5.37594 0
M  V30 11730 H 1098.55 2.0493 -3.62136 0
M  V30 11731 H 1097.43 3.08101 -4.54274 0
M  V30 11732 H 1097.69 3.39321 -2.83397 0
M  V30 11733 N 1096.75 1.52266 0.40654 0
M  V30 11734 C 1097.66 1.78688 1.52012 0
M  V30 11735 C 1098.68 0.6726 1.60475 0
M  V30 11736 O 1099.85 0.95829 1.77141 0
M  V30 11737 C 1096.92 1.93434 2.87722 0
M  V30 11738 C 1095.98 3.17341 2.89125 0
M  V30 11739 C 1095.21 3.31374 4.18362 0
M  V30 11740 O 1095.43 2.50613 5.12396 0
M  V30 11741 O 1094.37 4.24539 4.26674 0
M  V30 11742 H 1098.19 2.73213 1.3262 0
M  V30 11743 H 1095.78 1.37142 0.592653 0
M  V30 11744 H 1097.66 2.04941 3.68208 0
M  V30 11745 H 1096.34 1.02099 3.07177 0
M  V30 11746 H 1095.24 3.1129 2.07483 0
M  V30 11747 H 1096.58 4.08466 2.7462 0
M  V30 11748 N 1098.23 -0.663929 1.42933 0
M  V30 11749 C 1099.51 -1.42054 1.34462 0
M  V30 11750 C 1099.89 -2.11096 -0.0127801 0
M  V30 11751 O 1099.23 -2.04027 -1.02884 0
M  V30 11752 C 1099.44 -2.41406 2.5204 0
M  V30 11753 C 1100.79 -3.05726 2.94647 0
M  V30 11754 O 1101.82 -2.51733 2.52009 0
M  V30 11755 O 1100.67 -4.03593 3.68477 0
M  V30 11756 H 1097.77 -0.634149 0.530834 0
M  V30 11757 H 1100.31 -0.691738 1.54962 0
M  V30 11758 H 1099.09 -1.89263 3.42484 0
M  V30 11759 H 1098.71 -3.21752 2.33584 0
M  V30 11760 N 1099.71 -1.29285 -0.901281 0
M  V30 11761 C 1100.95 -1.16934 -1.64836 0
M  V30 11762 C 1101.28 0.279826 -1.92982 0
M  V30 11763 O 1100.55 1.19179 -1.55478 0
M  V30 11764 H 1099.13 -0.429768 -0.61099 0
M  V30 11765 H 1101.79 -1.62189 -1.08077 0
M  V30 11766 H 1100.88 -1.71821 -2.60545 0
M  V30 11767 N 1101.18 1.11143 -1.11736 0
M  V30 11768 C 1102.13 2.17274 -0.778513 0
M  V30 11769 C 1103.1 1.64186 0.251405 0
M  V30 11770 O 1104.29 1.90373 0.127629 0
M  V30 11771 C 1101.43 3.44324 -0.231246 0
M  V30 11772 C 1100.54 4.114 -1.31809 0
M  V30 11773 C 1099.67 5.26146 -0.73104 0
M  V30 11774 C 1098.71 5.85112 -1.79752 0
M  V30 11775 N 1097.85 6.91247 -1.22973 0
M  V30 11776 H 1102.69 2.45603 -1.68769 0
M  V30 11777 H 1100.23 1.20565 -0.842759 0
M  V30 11778 H 1102.19 4.1707 0.104045 0
M  V30 11779 H 1100.82 3.16369 0.641119 0
M  V30 11780 H 1099.87 3.36697 -1.77029 0
M  V30 11781 H 1101.18 4.51278 -2.12485 0
M  V30 11782 H 1100.33 6.05713 -0.345987 0
M  V30 11783 H 1099.07 4.87583 0.107 0
M  V30 11784 H 1098.08 5.0422 -2.19185 0
M  V30 11785 H 1099.3 6.25741 -2.63865 0
M  V30 11786 H 1097.25 6.54696 -0.41339 0
M  V30 11787 H 1097.17 7.29796 -1.97316 0
M  V30 11788 H 1098.43 7.74611 -0.87167 0
M  V30 11789 N 1102.66 0.908147 1.28804 0
M  V30 11790 C 1103.59 0.34957 2.26519 0
M  V30 11791 C 1104.61 -0.508845 1.54643 0
M  V30 11792 O 1105.8 -0.324633 1.75523 0
M  V30 11793 C 1102.9 -0.519461 3.34895 0
M  V30 11794 C 1102.07 0.315157 4.36263 0
M  V30 11795 C 1101.13 -0.488059 5.23932 0
M  V30 11796 O 1100.15 0.0974133 5.69117 0
M  V30 11797 N 1101.36 -1.79233 5.52137 0
M  V30 11798 H 1104.12 1.18945 2.75086 0
M  V30 11799 H 1101.68 0.77351 1.42227 0
M  V30 11800 H 1103.67 -1.0634 3.90479 0
M  V30 11801 H 1102.24 -1.26004 2.8608 0
M  V30 11802 H 1101.46 1.04049 3.8022 0
M  V30 11803 H 1102.75 0.886438 5.01019 0
M  V30 11804 H 1102.15 -2.2906 5.1725 0
M  V30 11805 H 1100.71 -2.28322 6.10502 0
M  V30 11806 N 1104.14 -1.42577 0.671525 0
M  V30 11807 C 1105.37 -2.06442 0.199152 0
M  V30 11808 C 1105.79 -1.50104 -1.1336 0
M  V30 11809 O 1105.15 -0.618211 -1.70434 0
M  V30 11810 C 1105.2 -3.60323 0.141215 0
M  V30 11811 O 1104.3 -4.02655 -0.891238 0
M  V30 11812 H 1103.64 -0.655919 0.103277 0
M  V30 11813 H 1106.17 -1.82768 0.919614 0
M  V30 11814 H 1106.18 -4.07984 -0.0360209 0
M  V30 11815 H 1104.86 -4.00702 1.11403 0
M  V30 11816 H 1103.43 -3.66549 -0.685309 0
M  V30 11817 N 1105.62 -0.414636 -1.52048 0
M  V30 11818 C 1106.53 0.414861 -2.30903 0
M  V30 11819 C 1107.54 1.04855 -1.38858 0
M  V30 11820 O 1108.72 1.04886 -1.71933 0
M  V30 11821 C 1105.79 1.51356 -3.11917 0
M  V30 11822 C 1104.85 0.902359 -4.19709 0
M  V30 11823 C 1104.08 1.9487 -4.96852 0
M  V30 11824 O 1104.3 3.16766 -4.74358 0
M  V30 11825 O 1103.24 1.55186 -5.8155 0
M  V30 11826 H 1107.06 -0.228251 -3.02841 0
M  V30 11827 H 1104.65 -0.177704 -1.48339 0
M  V30 11828 H 1106.53 2.15127 -3.62351 0
M  V30 11829 H 1105.2 2.14117 -2.42767 0
M  V30 11830 H 1104.11 0.22721 -3.73409 0
M  V30 11831 H 1105.44 0.318587 -4.91168 0
M  V30 11832 N 1107.1 1.56929 -0.145233 0
M  V30 11833 C 1108.03 2.19685 0.791263 0
M  V30 11834 C 1109.01 1.14455 1.25833 0
M  V30 11835 O 1110.19 1.42791 1.31622 0
M  V30 11836 C 1107.32 2.81705 2.03124 0
M  V30 11837 C 1106.28 3.92746 1.70101 0
M  V30 11838 C 1105.6 4.41694 3.01347 0
M  V30 11839 C 1106.9 5.13606 0.949025 0
M  V30 11840 H 1108.6 2.98196 0.26825 0
M  V30 11841 H 1106.14 1.43434 0.127584 0
M  V30 11842 H 1108.1 3.24273 2.69119 0
M  V30 11843 H 1106.82 2.00523 2.57795 0
M  V30 11844 H 1105.48 3.50794 1.06486 0
M  V30 11845 H 1105.13 3.57336 3.54006 0
M  V30 11846 H 1104.83 5.1659 2.80016 0
M  V30 11847 H 1106.35 4.86931 3.68416 0
M  V30 11848 H 1107.76 5.53029 1.51102 0
M  V30 11849 H 1106.16 5.94252 0.835711 0
M  V30 11850 H 1107.23 4.84863 -0.0595631 0
M  V30 11851 N 1108.58 -0.128553 1.57075 0
M  V30 11852 C 1109.49 -1.17718 2.02927 0
M  V30 11853 C 1110.5 -1.45912 0.947932 0
M  V30 11854 O 1111.68 -1.57217 1.25876 0
M  V30 11855 C 1108.74 -2.48625 2.41633 0
M  V30 11856 C 1107.8 -2.27914 3.63804 0
M  V30 11857 C 1107.04 -3.52579 4.00654 0
M  V30 11858 O 1107.26 -4.59505 3.37952 0
M  V30 11859 O 1106.19 -3.44147 4.93808 0
M  V30 11860 H 1110.02 -0.817846 2.92481 0
M  V30 11861 H 1107.6 -0.338649 1.45511 0
M  V30 11862 H 1109.49 -3.2577 2.67305 0
M  V30 11863 H 1108.16 -2.84052 1.55229 0
M  V30 11864 H 1107.07 -1.4866 3.43294 0
M  V30 11865 H 1108.4 -1.97395 4.50883 0
M  V30 11866 N 1110.05 -1.5248 -0.398459 0
M  V30 11867 C 1111.02 -1.75949 -1.46883 0
M  V30 11868 C 1112.02 -0.629431 -1.47969 0
M  V30 11869 O 1113.21 -0.897407 -1.49306 0
M  V30 11870 C 1110.34 -1.85162 -2.8623 0
M  V30 11871 H 1111.53 -2.71513 -1.2736 0
M  V30 11872 H 1109.08 -1.43058 -0.629619 0
M  V30 11873 H 1109.82 -0.915505 -3.11109 0
M  V30 11874 H 1109.6 -2.67326 -2.86844 0
M  V30 11875 H 1111.09 -2.05025 -3.63805 0
M  V30 11876 N 1111.53 0.65634 -1.43283 0
M  V30 11877 C 1112.46 1.78122 -1.42646 0
M  V30 11878 C 1113.44 1.60024 -0.288301 0
M  V30 11879 O 1114.63 1.82249 -0.481407 0
M  V30 11880 C 1111.75 3.1538 -1.23505 0
M  V30 11881 C 1110.8 3.52186 -2.40556 0
M  V30 11882 S 1111.63 3.52515 -4.03105 0
M  V30 11883 C 1112.79 4.92435 -3.8634 0
M  V30 11884 H 1113.02 1.78391 -2.37832 0
M  V30 11885 H 1110.55 0.828699 -1.30276 0
M  V30 11886 H 1112.51 3.94598 -1.13148 0
M  V30 11887 H 1111.17 3.12676 -0.298726 0
M  V30 11888 H 1110.37 4.52002 -2.22959 0
M  V30 11889 H 1109.97 2.80373 -2.47522 0
M  V30 11890 H 1112.26 5.81011 -3.48472 0
M  V30 11891 H 1113.2 5.15082 -4.85897 0
M  V30 11892 H 1113.61 4.65823 -3.18857 0
M  V30 11893 N 1113.01 1.29761 0.894412 0
M  V30 11894 C 1114.25 1.19313 1.65963 0
M  V30 11895 C 1114.61 -0.25022 1.90363 0
M  V30 11896 O 1115.81 -0.477779 2.6452 0
M  V30 11897 C 1114.09 1.98934 2.96917 0
M  V30 11898 S 1115.64 2.05079 3.87928 0
M  V30 11899 H 1112.46 0.42535 0.569735 0
M  V30 11900 H 1115.06 1.64116 1.06236 0
M  V30 11901 H 1113.77 3.02932 2.76876 0
M  V30 11902 H 1113.3 1.54756 3.61682 0
M  V30 11903 H 1115.31 1.17131 4.82177 0
M  V30 11904 N 1114.49 -1.10549 1.12324 0
M  V30 11905 C 1115.9 -1.34508 0.85905 0
M  V30 11906 C 1116.1 -1.94901 -0.511468 0
M  V30 11907 O 1115.16 -2.18793 -1.2604 0
M  V30 11908 C 1116.47 -2.26788 1.97453 0
M  V30 11909 C 1118.02 -2.40328 2.00528 0
M  V30 11910 C 1118.5 -3.35936 3.11305 0
M  V30 11911 N 1119.99 -3.43504 3.1074 0
M  V30 11912 C 1120.72 -4.17449 3.93096 0
M  V30 11913 N 1120.22 -4.9429 4.85437 0
M  V30 11914 N 1122.01 -4.13055 3.81237 0
M  V30 11915 H 1114.16 -0.697171 2.00632 0
M  V30 11916 H 1116.42 -0.369548 0.873005 0
M  V30 11917 H 1116.13 -1.89621 2.96204 0
M  V30 11918 H 1116 -3.27086 1.87869 0
M  V30 11919 H 1118.39 -2.76765 1.02397 0
M  V30 11920 H 1118.47 -1.39849 2.14186 0
M  V30 11921 H 1118.12 -3.00225 4.09667 0
M  V30 11922 H 1118.05 -4.36291 2.94886 0
M  V30 11923 H 1120.54 -2.88702 2.43843 0
M  V30 11924 H 1120.85 -5.48109 5.4479 0
M  V30 11925 H 1119.2 -4.93419 4.89452 0
M  V30 11926 H 1122.39 -3.52117 3.08433 0
M  V30 11927 H 1122.56 -4.70424 4.45651 0
M  V30 11928 N 1115.97 -0.914965 -1.28321 0
M  V30 11929 C 1117.24 -0.46764 -1.89928 0
M  V30 11930 C 1117.62 1.05364 -1.82925 0
M  V30 11931 O 1116.97 1.90223 -1.26599 0
M  V30 11932 C 1117.18 -0.999372 -3.34385 0
M  V30 11933 C 1118.53 -1.0522 -4.11356 0
M  V30 11934 O 1119.55 -0.9481 -3.4335 0
M  V30 11935 O 1118.41 -1.21085 -5.32917 0
M  V30 11936 H 1115.51 -0.148398 -0.813577 0
M  V30 11937 H 1118.05 -1.00583 -1.36679 0
M  V30 11938 H 1116.82 -2.04333 -3.33712 0
M  V30 11939 H 1116.45 -0.442083 -3.95135 0
M  V30 11940 N 1117.44 1.42219 -0.679077 0
M  V30 11941 C 1118.69 2.02291 -0.212115 0
M  V30 11942 C 1119.04 1.52755 1.16977 0
M  V30 11943 O 1118.34 0.721827 1.77483 0
M  V30 11944 C 1118.53 3.56889 -0.191027 0
M  V30 11945 C 1118.36 4.21429 -1.56933 0
M  V30 11946 C 1117.13 4.5642 -2.16814 0
M  V30 11947 C 1119.33 4.48733 -2.51283 0
M  V30 11948 N 1117.31 5.06162 -3.47381 0
M  V30 11949 C 1118.68 5.00072 -3.66508 0
M  V30 11950 C 1120.74 4.30726 -2.49758 0
M  V30 11951 C 1119.44 5.35296 -4.80469 0
M  V30 11952 C 1121.47 4.67029 -3.62819 0
M  V30 11953 C 1120.83 5.18524 -4.76773 0
M  V30 11954 H 1116.93 0.772324 -0.122637 0
M  V30 11955 H 1119.51 1.73014 -0.89299 0
M  V30 11956 H 1117.68 3.85675 0.459276 0
M  V30 11957 H 1119.41 4.03665 0.289217 0
M  V30 11958 H 1116.17 4.42321 -1.69261 0
M  V30 11959 H 1116.59 5.35457 -4.14264 0
M  V30 11960 H 1121.23 3.90166 -1.62882 0
M  V30 11961 H 1118.95 5.74788 -5.68018 0
M  V30 11962 H 1122.54 4.54769 -3.62872 0
M  V30 11963 H 1121.42 5.4609 -5.6281 0
M  V30 11964 N 1118.92 0.422693 1.51826 0
M  V30 11965 C 1120.33 -0.0438129 1.86649 0
M  V30 11966 C 1120.68 -1.43246 1.34071 0
M  V30 11967 O 1119.81 -2.05256 0.685501 0
M  V30 11968 C 1120.4 -0.0862802 3.3869 0
M  V30 11969 C 1118.96 -0.497157 3.73102 0
M  V30 11970 C 1118.11 0.319655 2.75451 0
M  V30 11971 H 1121.06 0.639181 1.45259 0
M  V30 11972 H 1121.08 -0.8988 3.69732 0
M  V30 11973 H 1120.59 0.924525 3.76927 0
M  V30 11974 H 1118.69 -1.51411 3.40449 0
M  V30 11975 H 1118.81 -0.232125 4.78537 0
M  V30 11976 H 1117.17 -0.219963 2.53748 0
M  V30 11977 H 1117.95 1.32906 3.16529 0
M  V30 11978 N 1120.4 -1.5685 0.153553 0
M  V30 11979 C 1121.65 -1.96334 -0.495915 0
M  V30 11980 C 1121.97 -1.03873 -1.64441 0
M  V30 11981 O 1121.23 -0.069231 -1.95578 0
M  V30 11982 C 1121.53 -3.42022 -1.0371 0
M  V30 11983 C 1121.19 -4.509 -0.00637049 0
M  V30 11984 C 1119.86 -4.80402 0.276956 0
M  V30 11985 C 1122.21 -5.16556 0.694187 0
M  V30 11986 C 1119.54 -5.72866 1.26653 0
M  V30 11987 C 1121.89 -6.10087 1.67263 0
M  V30 11988 C 1120.55 -6.37965 1.96359 0
M  V30 11989 H 1119.82 -0.718436 -0.181468 0
M  V30 11990 H 1122.47 -1.89968 0.241768 0
M  V30 11991 H 1120.77 -3.45252 -1.85225 0
M  V30 11992 H 1122.47 -3.69903 -1.54831 0
M  V30 11993 H 1119.06 -4.27942 -0.237378 0
M  V30 11994 H 1123.25 -4.9389 0.488496 0
M  V30 11995 H 1118.5 -5.92756 1.49833 0
M  V30 11996 H 1122.68 -6.60036 2.22094 0
M  V30 11997 H 1120.3 -7.09416 2.73189 0
M  V30 11998 N 1121.88 0.120221 -1.57141 0
M  V30 11999 C 1123.12 0.828222 -1.84788 0
M  V30 12000 C 1123.45 1.79936 -0.738459 0
M  V30 12001 O 1122.71 1.93824 0.270295 0
M  V30 12002 C 1123.01 1.61338 -3.18912 0
M  V30 12003 C 1122.67 0.786637 -4.43985 0
M  V30 12004 C 1121.33 0.558645 -4.77946 0
M  V30 12005 C 1123.69 0.210281 -5.20776 0
M  V30 12006 C 1121.01 -0.255975 -5.86141 0
M  V30 12007 C 1123.37 -0.591523 -6.29828 0
M  V30 12008 C 1122.03 -0.829843 -6.62322 0
M  V30 12009 H 1121.3 0.303068 -0.676188 0
M  V30 12010 H 1123.95 0.0906538 -1.91285 0
M  V30 12011 H 1122.25 2.42182 -3.07986 0
M  V30 12012 H 1123.95 2.16513 -3.37525 0
M  V30 12013 H 1120.54 0.974426 -4.17376 0
M  V30 12014 H 1124.72 0.373641 -4.94892 0
M  V30 12015 H 1119.98 -0.449849 -6.09743 0
M  V30 12016 H 1124.15 -1.04512 -6.88513 0
M  V30 12017 H 1121.78 -1.4629 -7.45992 0
M  V30 12018 N 1123.36 1.52689 0.390367 0
M  V30 12019 C 1124.58 1.71839 1.16129 0
M  V30 12020 C 1125.01 0.435226 1.82996 0
M  V30 12021 O 1124.36 -0.60889 1.70769 0
M  V30 12022 C 1124.41 2.86784 2.18603 0
M  V30 12023 O 1123.52 2.53662 3.25161 0
M  V30 12024 H 1122.86 0.571455 0.338135 0
M  V30 12025 H 1125.39 1.99475 0.45508 0
M  V30 12026 H 1125.4 3.12239 2.62622 0
M  V30 12027 H 1124.07 3.79872 1.69322 0
M  V30 12028 H 1122.65 2.38942 2.86289 0
M  V30 12029 N 1124.83 -0.648732 1.43629 0
M  V30 12030 C 1126.06 -1.4362 1.48932 0
M  V30 12031 C 1126.48 -1.88487 0.108599 0
M  V30 12032 O 1125.83 -1.59768 -0.882066 0
M  V30 12033 C 1125.89 -2.66822 2.43903 0
M  V30 12034 O 1125.61 -2.2383 3.76606 0
M  V30 12035 C 1127.11 -3.60134 2.58493 0
M  V30 12036 H 1124.33 -0.441055 0.505679 0
M  V30 12037 H 1126.87 -0.794936 1.88417 0
M  V30 12038 H 1125.03 -3.27079 2.07601 0
M  V30 12039 H 1125.44 -3.03575 4.27718 0
M  V30 12040 H 1126.91 -4.43234 3.29011 0
M  V30 12041 H 1127.39 -4.07779 1.63134 0
M  V30 12042 H 1128 -3.05756 2.95624 0
M  V30 12043 N 1126.31 -1.30234 -0.887518 0
M  V30 12044 C 1127.73 -1.0851 -1.17037 0
M  V30 12045 C 1127.93 0.155788 -2.00897 0
M  V30 12046 O 1126.98 0.850123 -2.37759 0
M  V30 12047 C 1128.3 -2.34723 -1.87951 0
M  V30 12048 C 1129.85 -2.40163 -2.00726 0
M  V30 12049 C 1130.32 -3.66211 -2.75051 0
M  V30 12050 N 1131.81 -3.67004 -2.82599 0
M  V30 12051 C 1132.55 -4.61224 -3.40676 0
M  V30 12052 N 1132.04 -5.65786 -3.99823 0
M  V30 12053 N 1133.84 -4.48772 -3.38467 0
M  V30 12054 H 1125.99 -2.09847 -0.328297 0
M  V30 12055 H 1128.25 -0.924904 -0.20798 0
M  V30 12056 H 1127.96 -3.25265 -1.33773 0
M  V30 12057 H 1127.83 -2.43175 -2.8835 0
M  V30 12058 H 1130.22 -1.50101 -2.54074 0
M  V30 12059 H 1130.3 -2.35688 -0.994218 0
M  V30 12060 H 1129.94 -4.56631 -2.22376 0
M  V30 12061 H 1129.87 -3.67947 -3.76726 0
M  V30 12062 H 1132.36 -2.91409 -2.40602 0
M  V30 12063 H 1132.68 -6.33783 -4.42197 0
M  V30 12064 H 1131.02 -5.69581 -3.9825 0
M  V30 12065 H 1134.21 -3.6627 -2.91485 0
M  V30 12066 H 1134.38 -5.22382 -3.83433 0
M  V30 12067 N 1127.79 1.09952 -1.12909 0
M  V30 12068 C 1128.72 2.18477 -0.824014 0
M  V30 12069 C 1129.7 1.68744 0.214324 0
M  V30 12070 O 1130.89 1.94057 0.0744281 0
M  V30 12071 C 1128.02 3.46143 -0.283308 0
M  V30 12072 C 1126.97 4.09178 -1.25528 0
M  V30 12073 C 1126.3 5.31604 -0.574574 0
M  V30 12074 C 1127.6 4.52308 -2.6118 0
M  V30 12075 H 1129.29 2.44254 -1.73148 0
M  V30 12076 H 1126.84 1.17394 -0.833952 0
M  V30 12077 H 1128.79 4.21361 -0.057583 0
M  V30 12078 H 1127.51 3.19872 0.659525 0
M  V30 12079 H 1126.17 3.35973 -1.4669 0
M  V30 12080 H 1125.82 5.01611 0.37356 0
M  V30 12081 H 1125.52 5.74732 -1.22299 0
M  V30 12082 H 1127.04 6.0955 -0.358004 0
M  V30 12083 H 1128.46 5.18776 -2.44017 0
M  V30 12084 H 1126.86 5.06302 -3.22147 0
M  V30 12085 H 1127.93 3.64977 -3.19249 0
M  V30 12086 N 1129.27 0.921757 1.27833 0
M  V30 12087 C 1130.52 0.557974 1.94245 0
M  V30 12088 C 1130.84 -0.90268 1.72849 0
M  V30 12089 O 1130.11 -1.63915 1.07279 0
M  V30 12090 H 1128.69 0.203364 0.718785 0
M  V30 12091 H 1131.35 1.17286 1.5566 0
M  V30 12092 H 1130.45 0.759202 3.02725 0
M  V30 12093 N 1130.75 -1.41857 0.686609 0
M  V30 12094 C 1131.68 -2.28174 -0.0347358 0
M  V30 12095 C 1132.66 -1.41732 -0.796928 0
M  V30 12096 O 1133.84 -1.71165 -0.789607 0
M  V30 12097 C 1130.97 -3.21801 -1.0565 0
M  V30 12098 C 1130.01 -4.24727 -0.388523 0
M  V30 12099 S 1130.85 -5.28508 0.862546 0
M  V30 12100 C 1132 -6.25701 -0.157849 0
M  V30 12101 H 1132.24 -2.89005 0.697381 0
M  V30 12102 H 1129.77 -1.46861 0.476562 0
M  V30 12103 H 1131.73 -3.76278 -1.64089 0
M  V30 12104 H 1130.39 -2.60082 -1.76114 0
M  V30 12105 H 1129.58 -4.90471 -1.15991 0
M  V30 12106 H 1129.18 -3.73799 0.122567 0
M  V30 12107 H 1131.48 -6.6987 -1.01393 0
M  V30 12108 H 1132.42 -7.06569 0.465437 0
M  V30 12109 H 1132.83 -5.62204 -0.508614 0
M  V30 12110 N 1132.22 -0.430739 -1.51599 0
M  V30 12111 C 1133.15 0.374695 -2.30474 0
M  V30 12112 C 1134.14 1.02694 -1.35602 0
M  V30 12113 O 1135.32 1.03184 -1.6452 0
M  V30 12114 C 1132.45 1.47981 -3.14196 0
M  V30 12115 C 1131.4 0.951415 -4.17291 0
M  V30 12116 C 1130.73 2.15177 -4.89492 0
M  V30 12117 C 1132.03 -0.00957951 -5.22299 0
M  V30 12118 H 1133.72 -0.283508 -2.98055 0
M  V30 12119 H 1131.27 -0.13779 -1.43339 0
M  V30 12120 H 1133.22 2.05043 -3.68151 0
M  V30 12121 H 1131.95 2.16621 -2.44424 0
M  V30 12122 H 1130.61 0.403052 -3.64378 0
M  V30 12123 H 1130.25 2.82421 -4.1623 0
M  V30 12124 H 1129.95 1.80464 -5.59202 0
M  V30 12125 H 1131.48 2.72806 -5.46269 0
M  V30 12126 H 1132.89 0.470527 -5.71366 0
M  V30 12127 H 1131.29 -0.268959 -5.99497 0
M  V30 12128 H 1132.36 -0.948297 -4.75537 0
M  V30 12129 N 1133.7 1.56767 -0.161869 0
M  V30 12130 C 1134.61 2.21083 0.784814 0
M  V30 12131 C 1135.63 1.19959 1.26039 0
M  V30 12132 O 1136.8 1.52588 1.31449 0
M  V30 12133 C 1133.87 2.83153 2.00063 0
M  V30 12134 C 1132.93 3.9945 1.57285 0
M  V30 12135 C 1132.16 4.5855 2.7307 0
M  V30 12136 O 1132.39 4.16534 3.89686 0
M  V30 12137 O 1131.32 5.48575 2.47688 0
M  V30 12138 H 1135.15 3.02522 0.267243 0
M  V30 12139 H 1132.73 1.49255 0.0658783 0
M  V30 12140 H 1134.61 3.22546 2.71186 0
M  V30 12141 H 1133.29 2.04718 2.50744 0
M  V30 12142 H 1132.2 3.64745 0.831393 0
M  V30 12143 H 1133.53 4.7945 1.11304 0
M  V30 12144 N 1135.18 -0.111886 1.57202 0
M  V30 12145 C 1136.11 -1.16749 1.96074 0
M  V30 12146 C 1137.09 -1.39735 0.831438 0
M  V30 12147 O 1138.28 -1.53772 1.09025 0
M  V30 12148 C 1135.4 -2.51996 2.26308 0
M  V30 12149 C 1134.45 -2.45394 3.48832 0
M  V30 12150 S 1135.28 -1.8867 5.01163 0
M  V30 12151 C 1136.44 -3.25576 5.34557 0
M  V30 12152 H 1136.67 -0.836033 2.85303 0
M  V30 12153 H 1134.2 -0.318922 1.5107 0
M  V30 12154 H 1136.16 -3.29813 2.44405 0
M  V30 12155 H 1134.82 -2.82317 1.3768 0
M  V30 12156 H 1134.02 -3.45038 3.67376 0
M  V30 12157 H 1133.62 -1.75702 3.30159 0
M  V30 12158 H 1135.91 -4.21807 5.30174 0
M  V30 12159 H 1136.85 -3.11853 6.35731 0
M  V30 12160 H 1137.26 -3.24333 4.62026 0
M  V30 12161 N 1136.66 -1.52894 -0.382264 0
M  V30 12162 C 1137.9 -1.68515 -1.12829 0
M  V30 12163 C 1138.24 -0.427211 -1.89443 0
M  V30 12164 O 1137.51 0.57516 -1.85801 0
M  V30 12165 C 1137.8 -2.92449 -2.10108 0
M  V30 12166 C 1137.65 -4.2836 -1.37214 0
M  V30 12167 C 1138.97 -3.11944 -3.1045 0
M  V30 12168 H 1136.09 -0.613223 -0.408811 0
M  V30 12169 H 1138.73 -1.85503 -0.410921 0
M  V30 12170 H 1136.88 -2.78097 -2.71283 0
M  V30 12171 H 1138.55 -4.54493 -0.789516 0
M  V30 12172 H 1136.79 -4.28532 -0.673973 0
M  V30 12173 H 1137.46 -5.11178 -2.0833 0
M  V30 12174 H 1139.94 -3.25372 -2.59369 0
M  V30 12175 H 1138.82 -4.00125 -3.75754 0
M  V30 12176 H 1139.08 -2.26465 -3.79692 0
M  V30 12177 N 1138.14 0.641106 -1.43971 0
M  V30 12178 C 1139.38 1.40084 -1.46228 0
M  V30 12179 C 1139.71 1.94287 -0.0911011 0
M  V30 12180 O 1138.97 1.73481 0.905688 0
M  V30 12181 C 1139.27 2.59092 -2.46183 0
M  V30 12182 C 1138.93 2.23237 -3.9176 0
M  V30 12183 C 1137.59 2.13171 -4.31407 0
M  V30 12184 C 1139.95 1.94746 -4.83449 0
M  V30 12185 C 1137.27 1.72788 -5.60679 0
M  V30 12186 C 1139.63 1.55858 -6.13099 0
M  V30 12187 C 1138.29 1.44326 -6.5171 0
M  V30 12188 H 1137.56 0.512603 -0.535088 0
M  V30 12189 H 1140.21 0.727956 -1.77124 0
M  V30 12190 H 1138.51 3.31568 -2.08734 0
M  V30 12191 H 1140.21 3.17313 -2.4518 0
M  V30 12192 H 1136.8 2.31986 -3.60389 0
M  V30 12193 H 1140.98 2.01438 -4.53582 0
M  V30 12194 H 1136.24 1.62455 -5.89422 0
M  V30 12195 H 1140.41 1.32848 -6.83611 0
M  V30 12196 H 1138.04 1.12806 -7.51784 0
M  V30 12197 N 1139.62 1.30703 0.880598 0
M  V30 12198 C 1140.58 1.17429 1.96832 0
M  V30 12199 C 1141.58 0.104305 1.60461 0
M  V30 12200 O 1142.77 0.352758 1.70591 0
M  V30 12201 C 1139.9 0.800099 3.31378 0
M  V30 12202 H 1141.09 2.14069 2.10034 0
M  V30 12203 H 1138.65 1.14162 1.06755 0
M  V30 12204 H 1139.38 -0.165606 3.23877 0
M  V30 12205 H 1139.17 1.57341 3.59146 0
M  V30 12206 H 1140.66 0.730826 4.11155 0
M  V30 12207 N 1141.09 -1.09351 1.1349 0
M  V30 12208 C 1142.04 -2.16008 0.812981 0
M  V30 12209 C 1143.01 -1.64566 -0.225252 0
M  V30 12210 O 1144.2 -1.90552 -0.0973261 0
M  V30 12211 C 1141.34 -3.43913 0.285996 0
M  V30 12212 C 1140.45 -4.09251 1.38338 0
M  V30 12213 C 1139.58 -5.24916 0.814652 0
M  V30 12214 C 1138.62 -5.82178 1.89038 0
M  V30 12215 N 1137.76 -6.89203 1.33955 0
M  V30 12216 H 1142.6 -2.42887 1.72655 0
M  V30 12217 H 1140.14 -1.19209 0.861833 0
M  V30 12218 H 1142.09 -4.17183 -0.0376794 0
M  V30 12219 H 1140.72 -3.17349 -0.590707 0
M  V30 12220 H 1139.78 -3.33838 1.82363 0
M  V30 12221 H 1141.09 -4.4784 2.19638 0
M  V30 12222 H 1140.24 -6.05086 0.442306 0
M  V30 12223 H 1138.98 -4.87691 -0.029416 0
M  V30 12224 H 1137.99 -5.00669 2.27179 0
M  V30 12225 H 1139.21 -6.21464 2.73787 0
M  V30 12226 H 1137.16 -6.53956 0.517494 0
M  V30 12227 H 1137.07 -7.26565 2.08902 0
M  V30 12228 H 1138.34 -7.73126 0.994793 0
M  V30 12229 N 1142.57 -0.928524 -1.27343 0
M  V30 12230 C 1143.53 -0.43292 -2.25074 0
M  V30 12231 C 1144.53 0.448976 -1.54405 0
M  V30 12232 O 1145.72 0.249939 -1.72398 0
M  V30 12233 C 1142.86 0.377539 -3.38803 0
M  V30 12234 H 1144.05 -1.29642 -2.70431 0
M  V30 12235 H 1141.6 -0.709289 -1.3928 0
M  V30 12236 H 1142.34 1.25982 -2.98829 0
M  V30 12237 H 1142.12 -0.254782 -3.91271 0
M  V30 12238 H 1143.61 0.714634 -4.1144 0
M  V30 12239 N 1144.05 1.41491 -0.694123 0
M  V30 12240 C 1145.33 1.95004 -0.152571 0
M  V30 12241 C 1145.71 1.63357 1.33707 0
M  V30 12242 O 1145.05 0.939815 2.08278 0
M  V30 12243 C 1145.26 3.46186 -0.44232 0
M  V30 12244 C 1146.61 4.22991 -0.369279 0
M  V30 12245 O 1147.64 3.54198 -0.377152 0
M  V30 12246 O 1146.5 5.45514 -0.328145 0
M  V30 12247 H 1143.59 0.826879 -0.0141253 0
M  V30 12248 H 1146.14 1.51216 -0.770183 0
M  V30 12249 H 1144.91 3.62497 -1.47348 0
M  V30 12250 H 1144.53 3.97064 0.206337 0
M  V30 12251 N 1145.53 0.438773 1.51369 0
M  V30 12252 C 1146.46 -0.362467 2.3067 0
M  V30 12253 C 1147.44 -1.01973 1.36145 0
M  V30 12254 O 1148.62 -1.0231 1.65065 0
M  V30 12255 C 1145.75 -1.46313 3.14976 0
M  V30 12256 C 1144.71 -0.929272 4.1779 0
M  V30 12257 C 1144.03 -2.12579 4.90627 0
M  V30 12258 C 1145.33 0.0372782 5.22287 0
M  V30 12259 H 1147.03 0.29931 2.979 0
M  V30 12260 H 1144.57 0.14539 1.43264 0
M  V30 12261 H 1146.53 -2.03088 3.69233 0
M  V30 12262 H 1145.25 -2.15321 2.45569 0
M  V30 12263 H 1143.91 -0.383722 3.64586 0
M  V30 12264 H 1143.56 -2.8021 4.17722 0
M  V30 12265 H 1143.26 -1.77496 5.60151 0
M  V30 12266 H 1144.78 -2.69905 5.47708 0
M  V30 12267 H 1146.2 -0.44022 5.71607 0
M  V30 12268 H 1144.59 0.300748 5.99346 0
M  V30 12269 H 1145.66 0.973503 4.75027 0
M  V30 12270 N 1147.01 -1.56678 0.170181 0
M  V30 12271 C 1148.25 -1.97913 -0.469262 0
M  V30 12272 C 1148.61 -1.05438 -1.60936 0
M  V30 12273 O 1147.9 -0.0938273 -1.9137 0
M  V30 12274 C 1148.09 -3.43103 -1.00076 0
M  V30 12275 C 1147.92 -4.49617 0.0863088 0
M  V30 12276 C 1146.69 -5.02454 0.535589 0
M  V30 12277 C 1148.89 -5.06606 0.886289 0
M  V30 12278 N 1146.87 -5.926 1.60308 0
M  V30 12279 C 1148.24 -5.93182 1.80374 0
M  V30 12280 C 1150.3 -4.89109 0.931495 0
M  V30 12281 C 1149 -6.64134 2.76257 0
M  V30 12282 C 1151.03 -5.60781 1.87827 0
M  V30 12283 C 1150.39 -6.47084 2.78319 0
M  V30 12284 H 1146.49 -0.769393 -0.139852 0
M  V30 12285 H 1149.07 -1.92817 0.270136 0
M  V30 12286 H 1147.24 -3.48747 -1.70968 0
M  V30 12287 H 1148.98 -3.71351 -1.60874 0
M  V30 12288 H 1145.73 -4.73412 0.133508 0
M  V30 12289 H 1146.15 -6.42378 2.13729 0
M  V30 12290 H 1150.8 -4.22084 0.245904 0
M  V30 12291 H 1148.51 -7.30373 3.45805 0
M  V30 12292 H 1152.1 -5.49229 1.91934 0
M  V30 12293 H 1150.98 -7.01569 3.50386 0
M  V30 12294 N 1148.48 0.103547 -1.57259 0
M  V30 12295 C 1149.41 1.12714 -2.04494 0
M  V30 12296 C 1150.39 1.42278 -0.932255 0
M  V30 12297 O 1151.58 1.52453 -1.20298 0
M  V30 12298 C 1148.71 2.44927 -2.46228 0
M  V30 12299 C 1147.66 2.2979 -3.61082 0
M  V30 12300 C 1146.99 3.67105 -3.88765 0
M  V30 12301 C 1148.29 1.7455 -4.9227 0
M  V30 12302 H 1149.98 0.734198 -2.90258 0
M  V30 12303 H 1147.53 0.351725 -1.39638 0
M  V30 12304 H 1149.48 3.16798 -2.77879 0
M  V30 12305 H 1148.21 2.8614 -1.57453 0
M  V30 12306 H 1146.87 1.60366 -3.29664 0
M  V30 12307 H 1146.51 4.05831 -2.97171 0
M  V30 12308 H 1146.21 3.57825 -4.66084 0
M  V30 12309 H 1147.74 4.40456 -4.22884 0
M  V30 12310 H 1149.15 2.36253 -5.22358 0
M  V30 12311 H 1147.55 1.76051 -5.73695 0
M  V30 12312 H 1148.62 0.704242 -4.79759 0
M  V30 12313 N 1149.96 1.53094 0.37415 0
M  V30 12314 C 1150.92 1.78264 1.44065 0
M  V30 12315 C 1151.92 0.652892 1.46949 0
M  V30 12316 O 1153.11 0.921046 1.47859 0
M  V30 12317 C 1150.25 1.89693 2.83248 0
M  V30 12318 H 1151.44 2.73505 1.23025 0
M  V30 12319 H 1148.99 1.44041 0.60678 0
M  V30 12320 H 1149.73 0.964884 3.09613 0
M  V30 12321 H 1149.51 2.71855 2.82554 0
M  V30 12322 H 1151 2.10787 3.60498 0
M  V30 12323 N 1151.44 -0.633461 1.44309 0
M  V30 12324 C 1152.35 -1.77428 1.53481 0
M  V30 12325 C 1153.37 -1.68839 0.420628 0
M  V30 12326 O 1154.54 -1.89658 0.677638 0
M  V30 12327 C 1151.61 -3.13801 1.47409 0
M  V30 12328 C 1150.67 -3.34039 2.6966 0
M  V30 12329 C 1149.9 -4.63907 2.63868 0
M  V30 12330 O 1150.12 -5.44559 1.69741 0
M  V30 12331 O 1149.06 -4.86295 3.54684 0
M  V30 12332 H 1152.88 -1.72642 2.49857 0
M  V30 12333 H 1150.47 -0.794399 1.26529 0
M  V30 12334 H 1152.35 -3.95101 1.46537 0
M  V30 12335 H 1151.03 -3.19134 0.541769 0
M  V30 12336 H 1149.93 -2.52427 2.761 0
M  V30 12337 H 1151.27 -3.33566 3.61931 0
M  V30 12338 N 1152.92 -1.31168 -0.873655 0
M  V30 12339 C 1154.15 -1.23416 -1.65686 0
M  V30 12340 C 1154.56 0.203534 -1.88102 0
M  V30 12341 O 1153.9 1.14476 -1.4367 0
M  V30 12342 C 1153.96 -1.90418 -3.04929 0
M  V30 12343 C 1153.63 -3.39757 -3.05637 0
M  V30 12344 C 1154.62 -4.35565 -2.83865 0
M  V30 12345 C 1152.31 -3.81389 -3.26875 0
M  V30 12346 C 1154.3 -5.70979 -2.83304 0
M  V30 12347 C 1151.99 -5.16918 -3.25943 0
M  V30 12348 C 1152.99 -6.11524 -3.04184 0
M  V30 12349 O 1152.67 -7.44575 -3.0309 0
M  V30 12350 H 1152.41 -0.4278 -0.523415 0
M  V30 12351 H 1154.96 -1.73525 -1.09902 0
M  V30 12352 H 1153.19 -1.34854 -3.62424 0
M  V30 12353 H 1154.88 -1.76631 -3.65453 0
M  V30 12354 H 1155.65 -4.0473 -2.67243 0
M  V30 12355 H 1151.52 -3.08187 -3.42844 0
M  V30 12356 H 1155.07 -6.44796 -2.66239 0
M  V30 12357 H 1150.97 -5.47389 -3.42104 0
M  V30 12358 H 1151.73 -7.53703 -3.19177 0
M  V30 12359 N 1154.4 1.08748 -1.14068 0
M  V30 12360 C 1155.63 1.84546 -0.928789 0
M  V30 12361 C 1156.03 1.81741 0.526007 0
M  V30 12362 O 1155.38 1.2169 1.37613 0
M  V30 12363 C 1155.44 3.33282 -1.34771 0
M  V30 12364 C 1155.1 3.59826 -2.81734 0
M  V30 12365 C 1156.1 3.54964 -3.79864 0
M  V30 12366 C 1153.79 3.87949 -3.19063 0
M  V30 12367 C 1155.78 3.77847 -5.13332 0
M  V30 12368 C 1153.47 4.10487 -4.52707 0
M  V30 12369 C 1154.46 4.05429 -5.49651 0
M  V30 12370 O 1154.15 4.27378 -6.80884 0
M  V30 12371 H 1153.88 0.589555 -0.330758 0
M  V30 12372 H 1156.44 1.38275 -1.51886 0
M  V30 12373 H 1154.67 3.80294 -0.700948 0
M  V30 12374 H 1156.36 3.90508 -1.10718 0
M  V30 12375 H 1157.12 3.33256 -3.52371 0
M  V30 12376 H 1153 3.91007 -2.44201 0
M  V30 12377 H 1156.55 3.73815 -5.88989 0
M  V30 12378 H 1152.44 4.31677 -4.79922 0
M  V30 12379 H 1153.21 4.44802 -6.8709 0
M  V30 12380 N 1155.87 0.935264 1.26849 0
M  V30 12381 C 1157.15 0.497797 1.8916 0
M  V30 12382 C 1157.53 -1.02441 1.84578 0
M  V30 12383 O 1156.88 -1.88185 1.29609 0
M  V30 12384 C 1157.09 1.05244 3.32753 0
M  V30 12385 C 1158.44 1.11751 4.0963 0
M  V30 12386 O 1159.46 1.0026 3.41799 0
M  V30 12387 O 1158.32 1.29548 5.30923 0
M  V30 12388 H 1155.41 0.161322 0.811113 0
M  V30 12389 H 1157.96 1.02744 1.35062 0
M  V30 12390 H 1156.73 2.09617 3.30419 0
M  V30 12391 H 1156.36 0.504889 3.94381 0
M  V30 12392 N 1157.35 -1.41121 0.701616 0
M  V30 12393 C 1158.28 -2.292 0.000880842 0
M  V30 12394 C 1159.3 -1.45102 -0.738192 0
M  V30 12395 O 1160.49 -1.68541 -0.587891 0
M  V30 12396 C 1157.59 -3.23094 -1.02292 0
M  V30 12397 C 1156.76 -4.35979 -0.352231 0
M  V30 12398 C 1155.82 -5.10408 -1.27947 0
M  V30 12399 O 1154.84 -5.63974 -0.769561 0
M  V30 12400 N 1156.05 -5.18442 -2.61147 0
M  V30 12401 H 1158.81 -2.8998 0.757094 0
M  V30 12402 H 1156.37 -1.52339 0.548126 0
M  V30 12403 H 1158.36 -3.69755 -1.64509 0
M  V30 12404 H 1156.93 -2.6358 -1.68061 0
M  V30 12405 H 1156.15 -3.91624 0.44992 0
M  V30 12406 H 1157.44 -5.08673 0.113882 0
M  V30 12407 H 1156.84 -4.76381 -3.05087 0
M  V30 12408 H 1155.4 -5.68659 -3.18544 0
M  V30 12409 N 1158.83 -0.446794 -1.51134 0
M  V30 12410 C 1160.25 -0.0995905 -1.59289 0
M  V30 12411 C 1160.45 1.39191 -1.45699 0
M  V30 12412 O 1159.5 2.1628 -1.30303 0
M  V30 12413 C 1160.82 -0.628135 -2.94066 0
M  V30 12414 C 1162.36 -0.589409 -3.074 0
M  V30 12415 C 1162.84 -1.09509 -4.44715 0
M  V30 12416 N 1164.33 -1.05347 -4.51061 0
M  V30 12417 C 1165.06 -1.41551 -5.55654 0
M  V30 12418 N 1164.56 -1.85086 -6.67619 0
M  V30 12419 N 1166.35 -1.33307 -5.46064 0
M  V30 12420 H 1158.5 -1.41713 -1.58213 0
M  V30 12421 H 1160.77 -0.584555 -0.746324 0
M  V30 12422 H 1160.47 -1.67205 -3.09411 0
M  V30 12423 H 1160.35 -0.0582398 -3.77155 0
M  V30 12424 H 1162.73 0.445541 -2.91717 0
M  V30 12425 H 1162.82 -1.19582 -2.26128 0
M  V30 12426 H 1162.46 -2.12855 -4.61146 0
M  V30 12427 H 1162.39 -0.465122 -5.24542 0
M  V30 12428 H 1164.88 -0.733877 -3.70706 0
M  V30 12429 H 1165.19 -2.10923 -7.43459 0
M  V30 12430 H 1163.54 -1.8902 -6.68802 0
M  V30 12431 H 1166.73 -0.991547 -4.57478 0
M  V30 12432 H 1166.9 -1.6185 -6.27462 0
M  V30 12433 N 1160.31 1.56586 -0.178487 0
M  V30 12434 C 1161.24 2.21313 0.744486 0
M  V30 12435 C 1162.22 1.17098 1.23377 0
M  V30 12436 O 1163.4 1.45551 1.28563 0
M  V30 12437 C 1160.53 2.8595 1.97103 0
M  V30 12438 C 1159.49 3.96266 1.61732 0
M  V30 12439 C 1158.81 4.47987 2.91911 0
M  V30 12440 C 1160.11 5.15503 0.839868 0
M  V30 12441 H 1161.81 2.98698 0.204938 0
M  V30 12442 H 1159.35 1.43672 0.0971306 0
M  V30 12443 H 1161.31 3.29909 2.6218 0
M  V30 12444 H 1160.03 2.05946 2.53484 0
M  V30 12445 H 1158.69 3.52974 0.990208 0
M  V30 12446 H 1158.34 3.64765 3.46346 0
M  V30 12447 H 1158.04 5.22413 2.68995 0
M  V30 12448 H 1159.56 4.94637 3.58004 0
M  V30 12449 H 1160.98 5.5611 1.39337 0
M  V30 12450 H 1159.37 5.95891 0.709473 0
M  V30 12451 H 1160.44 4.84628 -0.162396 0
M  V30 12452 N 1161.79 -0.095206 1.57312 0
M  V30 12453 C 1163.03 -0.799903 1.86358 0
M  V30 12454 C 1163.37 -1.78386 0.767593 0
M  V30 12455 O 1162.64 -1.93201 -0.224439 0
M  V30 12456 C 1162.92 -1.52875 3.26039 0
M  V30 12457 C 1162.78 -0.562781 4.46265 0
M  V30 12458 C 1164.1 -2.47935 3.63616 0
M  V30 12459 H 1161.21 -0.289339 0.677829 0
M  V30 12460 H 1163.86 -0.0635369 1.89894 0
M  V30 12461 H 1162.01 -2.15645 3.23156 0
M  V30 12462 H 1163.68 0.0579068 4.61264 0
M  V30 12463 H 1161.92 0.123847 4.33623 0
M  V30 12464 H 1162.59 -1.10989 5.40727 0
M  V30 12465 H 1165.07 -1.95257 3.67442 0
M  V30 12466 H 1163.94 -2.95948 4.62283 0
M  V30 12467 H 1164.21 -3.31687 2.92294 0
M  V30 12468 N 1163.26 -1.53291 -0.366026 0
M  V30 12469 C 1164.54 -1.60055 -1.12436 0
M  V30 12470 C 1164.92 -0.407811 -2.07123 0
M  V30 12471 O 1164.27 0.601977 -2.20428 0
M  V30 12472 C 1164.48 -2.95062 -1.86385 0
M  V30 12473 C 1165.83 -3.49623 -2.40934 0
M  V30 12474 O 1166.85 -2.97088 -1.96512 0
M  V30 12475 O 1165.71 -4.41461 -3.2214 0
M  V30 12476 H 1162.8 -0.646476 -0.51575 0
M  V30 12477 H 1165.35 -1.65632 -0.369326 0
M  V30 12478 H 1164.12 -3.73312 -1.17277 0
M  V30 12479 H 1163.75 -2.92973 -2.68798 0
M  V30 12480 N 1164.74 0.6258 -1.44643 0
M  V30 12481 C 1165.69 1.73751 -1.51919 0
M  V30 12482 C 1166.66 1.62007 -0.36647 0
M  V30 12483 O 1167.84 1.81852 -0.577439 0
M  V30 12484 C 1164.98 3.12015 -1.47448 0
M  V30 12485 C 1164.1 3.34696 -2.73135 0
M  V30 12486 C 1163.23 4.62962 -2.6046 0
M  V30 12487 C 1162.27 4.7884 -3.81286 0
M  V30 12488 N 1161.41 5.98388 -3.67255 0
M  V30 12489 H 1166.25 1.66867 -2.46899 0
M  V30 12490 H 1163.79 0.813921 -1.22531 0
M  V30 12491 H 1165.74 3.91983 -1.42846 0
M  V30 12492 H 1164.37 3.179 -0.560312 0
M  V30 12493 H 1163.43 2.4863 -2.87901 0
M  V30 12494 H 1164.74 3.42306 -3.62806 0
M  V30 12495 H 1163.89 5.51099 -2.53722 0
M  V30 12496 H 1162.63 4.57719 -1.68359 0
M  V30 12497 H 1161.64 3.89131 -3.88403 0
M  V30 12498 H 1162.86 4.85893 -4.74431 0
M  V30 12499 H 1160.81 5.94224 -2.77909 0
M  V30 12500 H 1160.72 6.07078 -4.50547 0
M  V30 12501 H 1161.99 6.89072 -3.64417 0
M  V30 12502 N 1166.22 1.31629 0.866686 0
M  V30 12503 C 1167.18 1.1951 1.95576 0
M  V30 12504 C 1168.18 0.121319 1.60342 0
M  V30 12505 O 1169.37 0.370832 1.70207 0
M  V30 12506 C 1166.51 0.835201 3.30511 0
M  V30 12507 H 1167.7 2.16285 2.07752 0
M  V30 12508 H 1165.25 1.15288 1.05539 0
M  V30 12509 H 1165.99 -0.131245 3.24034 0
M  V30 12510 H 1165.77 1.61142 3.57457 0
M  V30 12511 H 1167.26 0.774393 4.10357 0
M  V30 12512 N 1167.7 -1.08142 1.14644 0
M  V30 12513 C 1168.63 -2.17139 0.858667 0
M  V30 12514 C 1169.61 -1.69064 -0.187452 0
M  V30 12515 O 1170.8 -1.94151 -0.0435458 0
M  V30 12516 C 1167.93 -3.45648 0.33834 0
M  V30 12517 C 1166.88 -4.07129 1.32021 0
M  V30 12518 C 1166.21 -5.30623 0.659075 0
M  V30 12519 C 1167.51 -4.48095 2.68343 0
M  V30 12520 H 1169.2 -2.41468 1.77012 0
M  V30 12521 H 1166.75 -1.16052 0.852523 0
M  V30 12522 H 1168.7 -4.21216 0.124611 0
M  V30 12523 H 1167.42 -3.2088 -0.608553 0
M  V30 12524 H 1166.08 -3.33596 1.52016 0
M  V30 12525 H 1165.73 -5.02142 -0.293711 0
M  V30 12526 H 1165.43 -5.72714 1.31427 0
M  V30 12527 H 1166.95 -6.08903 0.454933 0
M  V30 12528 H 1168.37 -5.14828 2.5224 0
M  V30 12529 H 1166.76 -5.01113 3.30161 0
M  V30 12530 H 1167.83 -3.59852 3.25015 0
M  V30 12531 N 1169.18 -0.941978 -1.26351 0
M  V30 12532 C 1170.42 -0.600372 -1.94338 0
M  V30 12533 C 1170.78 0.851343 -1.7254 0
M  V30 12534 O 1170.07 1.60116 -1.0523 0
M  V30 12535 C 1170.27 -0.879481 -3.4641 0
M  V30 12536 C 1170.09 -2.35678 -3.82996 0
M  V30 12537 C 1168.86 -3.01208 -4.05712 0
M  V30 12538 C 1171.06 -3.33531 -3.91486 0
M  V30 12539 N 1169.04 -4.38942 -4.29189 0
M  V30 12540 C 1170.42 -4.56525 -4.19506 0
M  V30 12541 C 1172.47 -3.28544 -3.74117 0
M  V30 12542 C 1171.17 -5.75153 -4.31962 0
M  V30 12543 C 1173.2 -4.46498 -3.87806 0
M  V30 12544 C 1172.56 -5.68275 -4.16225 0
M  V30 12545 H 1168.66 -0.270078 -0.733881 0
M  V30 12546 H 1171.24 -1.21155 -1.52413 0
M  V30 12547 H 1169.42 -0.297345 -3.8726 0
M  V30 12548 H 1171.15 -0.499062 -4.01611 0
M  V30 12549 H 1167.9 -2.51823 -4.01101 0
M  V30 12550 H 1168.33 -5.10236 -4.44959 0
M  V30 12551 H 1172.97 -2.35451 -3.51173 0
M  V30 12552 H 1170.69 -6.68699 -4.53727 0
M  V30 12553 H 1174.27 -4.44173 -3.75768 0
M  V30 12554 H 1173.15 -6.58024 -4.26584 0
M  V30 12555 N 1170.66 1.40747 -0.709091 0
M  V30 12556 C 1172.07 1.83955 -0.318968 0
M  V30 12557 C 1172.42 1.59304 1.14527 0
M  V30 12558 O 1171.54 1.07052 1.88066 0
M  V30 12559 C 1172.14 3.33934 -0.572147 0
M  V30 12560 C 1170.7 3.75661 -0.235802 0
M  V30 12561 C 1169.84 2.64024 -0.847743 0
M  V30 12562 H 1172.79 1.30107 -0.908734 0
M  V30 12563 H 1172.82 3.80143 0.164752 0
M  V30 12564 H 1172.33 3.51844 -1.63791 0
M  V30 12565 H 1170.43 3.63348 0.825164 0
M  V30 12566 H 1170.54 4.73955 -0.700263 0
M  V30 12567 H 1168.91 2.53197 -0.276283 0
M  V30 12568 H 1169.69 2.84748 -1.91765 0
M  V30 12569 N 1172.13 0.454803 1.50895 0
M  V30 12570 C 1173.06 -0.337982 2.31041 0
M  V30 12571 C 1174.04 -1.00523 1.37219 0
M  V30 12572 O 1175.23 -1.00553 1.66141 0
M  V30 12573 C 1172.36 -1.42964 3.1651 0
M  V30 12574 C 1171.31 -0.884907 4.18752 0
M  V30 12575 C 1170.64 -2.07363 4.92854 0
M  V30 12576 C 1171.94 0.0926716 5.22218 0
M  V30 12577 H 1173.63 0.33089 2.97566 0
M  V30 12578 H 1171.18 0.160577 1.43102 0
M  V30 12579 H 1173.13 -1.9916 3.71367 0
M  V30 12580 H 1171.86 -2.12705 2.47839 0
M  V30 12581 H 1170.52 -0.345031 3.64973 0
M  V30 12582 H 1170.16 -2.75764 4.2067 0
M  V30 12583 H 1169.86 -1.71545 5.62002 0
M  V30 12584 H 1171.39 -2.6408 5.5054 0
M  V30 12585 H 1172.8 -0.379568 5.72042 0
M  V30 12586 H 1171.2 0.3643 5.98993 0
M  V30 12587 H 1172.27 1.02383 4.73968 0
M  V30 12588 N 1173.61 -1.56489 0.186789 0
M  V30 12589 C 1174.86 -1.96952 -0.453261 0
M  V30 12590 C 1175.18 -1.07451 -1.62725 0
M  V30 12591 O 1174.45 -0.144046 -1.9537 0
M  V30 12592 H 1173.03 -0.727295 -0.170445 0
M  V30 12593 H 1175.69 -1.92999 0.271584 0
M  V30 12594 H 1174.79 -3.01594 -0.802951 0
M  V30 12595 N 1175.09 0.086862 -1.5736 0
M  V30 12596 C 1176.04 1.10478 -2.02641 0
M  V30 12597 C 1177.01 1.39331 -0.904219 0
M  V30 12598 O 1178.19 1.50654 -1.17081 0
M  V30 12599 C 1175.33 2.41754 -2.4627 0
M  V30 12600 C 1174.44 2.19561 -3.72044 0
M  V30 12601 C 1173.58 3.44294 -4.04519 0
M  V30 12602 C 1172.62 3.17399 -5.23378 0
M  V30 12603 N 1171.76 4.3442 -5.51564 0
M  V30 12604 H 1176.6 0.711663 -2.89378 0
M  V30 12605 H 1174.13 0.339856 -1.4312 0
M  V30 12606 H 1176.09 3.18378 -2.69613 0
M  V30 12607 H 1174.72 2.78896 -1.62532 0
M  V30 12608 H 1173.77 1.337 -3.5613 0
M  V30 12609 H 1175.08 1.95685 -4.58812 0
M  V30 12610 H 1174.24 4.29321 -4.28682 0
M  V30 12611 H 1172.98 3.71232 -3.16289 0
M  V30 12612 H 1171.98 2.30765 -4.99026 0
M  V30 12613 H 1173.21 2.91799 -6.13213 0
M  V30 12614 H 1171.15 4.61418 -4.66293 0
M  V30 12615 H 1171.07 4.13764 -6.3272 0
M  V30 12616 H 1172.34 5.20489 -5.80269 0
M  V30 12617 N 1176.57 1.53483 0.357892 0
M  V30 12618 C 1177.48 1.83434 1.4625 0
M  V30 12619 C 1178.49 0.723313 1.58254 0
M  V30 12620 O 1179.67 1.01416 1.74002 0
M  V30 12621 C 1176.73 2.0249 2.81423 0
M  V30 12622 C 1175.8 3.26378 2.78883 0
M  V30 12623 C 1175.03 3.44516 4.07608 0
M  V30 12624 O 1175.25 2.66787 5.04163 0
M  V30 12625 O 1174.19 4.37898 4.12952 0
M  V30 12626 H 1178.01 2.77294 1.23861 0
M  V30 12627 H 1175.6 1.38958 0.548722 0
M  V30 12628 H 1177.48 2.16552 3.61501 0
M  V30 12629 H 1176.15 1.11819 3.03773 0
M  V30 12630 H 1175.06 3.17733 1.97475 0
M  V30 12631 H 1176.39 4.16996 2.61486 0
M  V30 12632 N 1178.05 -0.61812 1.44973 0
M  V30 12633 C 1178.98 -1.74035 1.55673 0
M  V30 12634 C 1179.96 -1.65112 0.4089 0
M  V30 12635 O 1181.14 -1.83673 0.630698 0
M  V30 12636 C 1178.27 -3.1261 1.51303 0
M  V30 12637 C 1177.23 -3.36334 2.64696 0
M  V30 12638 C 1176.55 -4.75072 2.45378 0
M  V30 12639 C 1177.85 -3.27618 4.06772 0
M  V30 12640 H 1179.55 -1.65336 2.49608 0
M  V30 12641 H 1177.09 -0.794003 1.20132 0
M  V30 12642 H 1179.04 -3.90906 1.57388 0
M  V30 12643 H 1177.77 -3.22123 0.538914 0
M  V30 12644 H 1176.43 -2.60423 2.58022 0
M  V30 12645 H 1176.08 -4.81306 1.46129 0
M  V30 12646 H 1175.78 -4.91903 3.21412 0
M  V30 12647 H 1177.3 -5.55582 2.53301 0
M  V30 12648 H 1178.71 -3.95802 4.14746 0
M  V30 12649 H 1177.11 -3.55981 4.83113 0
M  V30 12650 H 1178.18 -2.25219 4.29423 0
M  V30 12651 N 1179.52 -1.32087 -0.859693 0
M  V30 12652 C 1180.94 -1.10968 -1.14709 0
M  V30 12653 C 1181.14 0.113139 -2.01182 0
M  V30 12654 O 1180.2 0.799499 -2.39508 0
M  V30 12655 C 1181.51 -2.38657 -1.8293 0
M  V30 12656 C 1183.06 -2.44366 -1.95587 0
M  V30 12657 C 1183.53 -3.71963 -2.67222 0
M  V30 12658 N 1185.02 -3.72916 -2.7475 0
M  V30 12659 C 1185.76 -4.68346 -3.30816 0
M  V30 12660 N 1185.25 -5.74139 -3.87732 0
M  V30 12661 N 1187.05 -4.55851 -3.28872 0
M  V30 12662 H 1179.2 -2.10497 -0.283711 0
M  V30 12663 H 1181.46 -0.929108 -0.188315 0
M  V30 12664 H 1181.17 -3.2803 -1.26844 0
M  V30 12665 H 1181.04 -2.49236 -2.83128 0
M  V30 12666 H 1183.43 -1.55456 -2.50833 0
M  V30 12667 H 1183.51 -2.37744 -0.944001 0
M  V30 12668 H 1183.15 -4.61245 -2.1264 0
M  V30 12669 H 1183.08 -3.75855 -3.68837 0
M  V30 12670 H 1185.57 -2.96447 -2.34367 0
M  V30 12671 H 1185.89 -6.43021 -4.28654 0
M  V30 12672 H 1184.23 -5.779 -3.86078 0
M  V30 12673 H 1187.42 -3.72371 -2.83651 0
M  V30 12674 H 1187.6 -5.30398 -3.72266 0
M  V30 12675 N 1181 1.07532 -1.15215 0
M  V30 12676 C 1181.95 2.16785 -0.843022 0
M  V30 12677 C 1182.94 1.68411 0.182802 0
M  V30 12678 O 1184.15 1.7996 0.0380164 0
M  V30 12679 H 1180.52 0.707465 -0.254945 0
M  V30 12680 H 1182.5 2.40078 -1.77215 0
M  V30 12681 C 1181.24 3.45967 -0.346699 0
M  V30 12682 H 1180.57 3.83574 -1.12744 0
M  V30 12683 H 1182.01 4.23663 -0.169039 0
M  V30 12684 C 1180.47 3.23768 0.931437 0
M  V30 12685 O 1181 3.48179 2.00336 0
M  V30 12686 N 1179.2 2.77264 0.870217 0
M  V30 12687 H 1178.75 2.576 -0.00226223 0
M  V30 12688 H 1178.71 2.6279 1.72594 0
M  V30 12689 N 1182.48 0.948665 1.2585 0
M  V30 12690 C 1183.41 0.482036 2.2847 0
M  V30 12691 C 1184.39 -0.468553 1.63519 0
M  V30 12692 O 1185.58 -0.368796 1.90666 0
M  V30 12693 C 1182.71 -0.246603 3.46423 0
M  V30 12694 C 1181.66 0.61815 4.23513 0
M  V30 12695 C 1180.99 -0.240884 5.34157 0
M  V30 12696 C 1182.29 1.89327 4.86778 0
M  V30 12697 H 1183.98 1.33973 2.67753 0
M  V30 12698 H 1181.53 0.645645 1.28715 0
M  V30 12699 H 1183.48 -0.584135 4.17332 0
M  V30 12700 H 1182.2 -1.13849 3.06114 0
M  V30 12701 H 1180.86 0.938682 3.54379 0
M  V30 12702 H 1180.51 -1.13235 4.90089 0
M  V30 12703 H 1180.21 0.334367 5.86648 0
M  V30 12704 H 1181.73 -0.573517 6.07901 0
M  V30 12705 H 1183.15 1.62252 5.49861 0
M  V30 12706 H 1181.55 2.41369 5.49419 0
M  V30 12707 H 1182.62 2.60006 4.09298 0
M  V30 12708 N 1183.96 -1.40369 0.716545 0
M  V30 12709 C 1184.89 -2.29186 0.0251905 0
M  V30 12710 C 1185.9 -1.45877 -0.722761 0
M  V30 12711 O 1187.09 -1.69155 -0.569982 0
M  V30 12712 C 1184.19 -3.24161 -0.988589 0
M  V30 12713 C 1183.37 -4.36329 -0.30597 0
M  V30 12714 C 1182.42 -5.11736 -1.22527 0
M  V30 12715 O 1181.45 -5.64758 -0.7097 0
M  V30 12716 N 1182.65 -5.21183 -2.55634 0
M  V30 12717 H 1185.42 -2.8916 0.787808 0
M  V30 12718 H 1182.98 -1.51749 0.564253 0
M  V30 12719 H 1184.97 -3.71479 -1.60578 0
M  V30 12720 H 1183.54 -2.65347 -1.65256 0
M  V30 12721 H 1182.76 -3.91125 0.491432 0
M  V30 12722 H 1184.05 -5.08523 0.167827 0
M  V30 12723 H 1183.45 -4.7959 -3.00017 0
M  V30 12724 H 1182 -5.72005 -3.12495 0
M  V30 12725 N 1185.44 -0.462799 -1.50652 0
M  V30 12726 C 1186.35 0.341191 -2.32106 0
M  V30 12727 C 1187.36 1.00384 -1.42123 0
M  V30 12728 O 1188.54 0.993635 -1.75182 0
M  V30 12729 C 1185.6 1.41356 -3.16575 0
M  V30 12730 C 1184.66 0.768375 -4.22368 0
M  V30 12731 C 1183.9 1.78964 -5.028 0
M  V30 12732 O 1184.12 3.01515 -4.84195 0
M  V30 12733 O 1183.05 1.36606 -5.86193 0
M  V30 12734 H 1186.88 -0.324482 -3.01962 0
M  V30 12735 H 1184.47 -0.224807 -1.47699 0
M  V30 12736 H 1186.35 2.0349 -3.69012 0
M  V30 12737 H 1185.02 2.06285 -2.49456 0
M  V30 12738 H 1183.93 0.108297 -3.73943 0
M  V30 12739 H 1185.26 0.162164 -4.91933 0
M  V30 12740 N 1186.91 1.56388 -0.195085 0
M  V30 12741 C 1187.82 2.22698 0.737743 0
M  V30 12742 C 1188.84 1.22605 1.23466 0
M  V30 12743 O 1190.02 1.55342 1.28183 0
M  V30 12744 C 1187.08 2.87333 1.94011 0
M  V30 12745 C 1186.14 4.02696 1.48776 0
M  V30 12746 C 1185.38 4.64239 2.63282 0
M  V30 12747 O 1185.6 4.24706 3.80763 0
M  V30 12748 O 1184.53 5.53705 2.35996 0
M  V30 12749 H 1188.36 3.03021 0.203013 0
M  V30 12750 H 1185.94 1.49361 0.0342044 0
M  V30 12751 H 1187.83 3.28226 2.64284 0
M  V30 12752 H 1186.5 2.0999 2.46345 0
M  V30 12753 H 1185.41 3.66426 0.753839 0
M  V30 12754 H 1186.74 4.81703 1.01109 0
M  V30 12755 N 1188.39 -0.0785156 1.57404 0
M  V30 12756 C 1189.67 -0.811557 1.77969 0
M  V30 12757 C 1190.05 -1.96123 0.780966 0
M  V30 12758 O 1189.4 -2.27731 -0.18726 0
M  V30 12759 C 1189.61 -1.29075 3.24254 0
M  V30 12760 C 1190.96 -1.72685 3.87898 0
M  V30 12761 O 1191.98 -1.38658 3.28104 0
M  V30 12762 O 1190.84 -2.3566 4.93079 0
M  V30 12763 H 1187.93 -0.388361 0.73014 0
M  V30 12764 H 1190.48 -0.0591118 1.69597 0
M  V30 12765 H 1189.25 -0.467813 3.88494 0
M  V30 12766 H 1188.87 -2.10472 3.37324 0
M  V30 12767 N 1189.87 -1.5367 -0.349747 0
M  V30 12768 C 1191.12 -1.69835 -1.08807 0
M  V30 12769 C 1191.43 -0.46497 -1.89993 0
M  V30 12770 O 1192.64 -0.507452 -2.66716 0
M  V30 12771 C 1191.09 -3.00294 -1.98372 0
M  V30 12772 C 1190.7 -4.30949 -1.22422 0
M  V30 12773 C 1192.45 -3.25826 -2.72099 0
M  V30 12774 C 1190.35 -5.52486 -2.1098 0
M  V30 12775 H 1189.28 -0.63284 -0.409915 0
M  V30 12776 H 1191.93 -1.80171 -0.347968 0
M  V30 12777 H 1190.32 -2.838 -2.76176 0
M  V30 12778 H 1191.49 -4.58126 -0.495707 0
M  V30 12779 H 1189.81 -4.11983 -0.604896 0
M  V30 12780 H 1192.4 -4.13817 -3.38615 0
M  V30 12781 H 1192.75 -2.42566 -3.3833 0
M  V30 12782 H 1193.28 -3.43067 -2.0137 0
M  V30 12783 H 1190.02 -6.38271 -1.49301 0
M  V30 12784 H 1189.54 -5.29566 -2.81638 0
M  V30 12785 H 1191.22 -5.87889 -2.70176 0
M  V30 12786 N 1191.35 0.610423 -1.45298 0
M  V30 12787 C 1192.3 1.7213 -1.53753 0
M  V30 12788 C 1193.27 1.61609 -0.383632 0
M  V30 12789 O 1194.45 1.8123 -0.596694 0
M  V30 12790 C 1191.59 3.10433 -1.50749 0
M  V30 12791 C 1190.7 3.3178 -2.76669 0
M  V30 12792 C 1189.84 4.60173 -2.65356 0
M  V30 12793 C 1188.88 4.74769 -3.86343 0
M  V30 12794 N 1188.01 5.94459 -3.73581 0
M  V30 12795 H 1192.85 1.64239 -2.48655 0
M  V30 12796 H 1190.39 0.800879 -1.23387 0
M  V30 12797 H 1192.35 3.90446 -1.46996 0
M  V30 12798 H 1190.98 3.17288 -0.593998 0
M  V30 12799 H 1190.03 2.45563 -2.90522 0
M  V30 12800 H 1191.34 3.38439 -3.66416 0
M  V30 12801 H 1190.5 5.48377 -2.59553 0
M  V30 12802 H 1189.24 4.55907 -1.73204 0
M  V30 12803 H 1188.24 3.8499 -3.92509 0
M  V30 12804 H 1189.47 4.80834 -4.79557 0
M  V30 12805 H 1187.41 5.91243 -2.84196 0
M  V30 12806 H 1187.33 6.02265 -4.5696 0
M  V30 12807 H 1188.6 6.85168 -3.71705 0
M  V30 12808 N 1192.83 1.32541 0.852676 0
M  V30 12809 C 1194.07 1.23397 1.60938 0
M  V30 12810 C 1194.41 -0.203294 1.93133 0
M  V30 12811 O 1193.68 -1.14097 1.57519 0
M  V30 12812 C 1193.96 2.0956 2.92842 0
M  V30 12813 C 1193.82 3.61675 2.67416 0
M  V30 12814 C 1195.14 1.95825 3.94133 0
M  V30 12815 H 1192.25 0.449608 0.583971 0
M  V30 12816 H 1194.9 1.62507 0.98446 0
M  V30 12817 H 1193.05 1.76336 3.46176 0
M  V30 12818 H 1194.72 4.05122 2.20621 0
M  V30 12819 H 1192.96 3.84242 2.01347 0
M  V30 12820 H 1193.63 4.17292 3.61347 0
M  V30 12821 H 1196.11 2.24935 3.50062 0
M  V30 12822 H 1194.98 2.58387 4.8428 0
M  V30 12823 H 1195.25 0.926466 4.32284 0
M  V30 12824 N 1194.3 -1.0692 1.15784 0
M  V30 12825 C 1195.55 -1.79866 0.936815 0
M  V30 12826 C 1195.88 -1.867 -0.534477 0
M  V30 12827 O 1195.16 -1.35395 -1.39637 0
M  V30 12828 C 1195.44 -3.24691 1.55717 0
M  V30 12829 C 1195.29 -3.25975 3.09936 0
M  V30 12830 C 1196.61 -4.22076 1.24658 0
M  V30 12831 H 1193.73 -0.652971 0.341756 0
M  V30 12832 H 1196.37 -1.25085 1.43016 0
M  V30 12833 H 1194.52 -3.7147 1.13763 0
M  V30 12834 H 1196.2 -2.87405 3.60827 0
M  V30 12835 H 1194.44 -2.64808 3.43597 0
M  V30 12836 H 1195.11 -4.28114 3.48458 0
M  V30 12837 H 1197.59 -3.83709 1.60956 0
M  V30 12838 H 1196.46 -5.21691 1.70675 0
M  V30 12839 H 1196.72 -4.41794 0.164341 0
M  V30 12840 N 1195.78 -0.955326 -1.25345 0
M  V30 12841 C 1196.71 -0.494145 -2.28211 0
M  V30 12842 C 1197.69 0.459875 -1.63766 0
M  V30 12843 O 1198.88 0.358679 -1.90859 0
M  V30 12844 C 1196.01 0.228228 -3.46549 0
M  V30 12845 C 1194.96 -0.640601 -4.23179 0
M  V30 12846 C 1194.29 0.212553 -5.34277 0
M  V30 12847 C 1195.59 -1.91906 -4.85767 0
M  V30 12848 H 1197.28 -1.35391 -2.67039 0
M  V30 12849 H 1194.83 -0.652462 -1.2837 0
M  V30 12850 H 1196.78 0.561995 -4.17636 0
M  V30 12851 H 1195.51 1.12224 -3.06714 0
M  V30 12852 H 1194.16 -0.957462 -3.53876 0
M  V30 12853 H 1193.81 1.10634 -4.90682 0
M  V30 12854 H 1193.51 -0.365473 -5.86462 0
M  V30 12855 H 1195.04 0.541271 -6.08196 0
M  V30 12856 H 1196.45 -1.65165 -5.48993 0
M  V30 12857 H 1194.85 -2.44279 -5.48131 0
M  V30 12858 H 1195.92 -2.62173 -4.07914 0
M  V30 12859 N 1197.26 1.39987 -0.723979 0
M  V30 12860 C 1198.22 2.29041 -0.0854583 0
M  V30 12861 C 1199.22 1.45777 0.678657 0
M  V30 12862 O 1200.41 1.66588 0.509311 0
M  V30 12863 C 1197.55 3.29115 0.88859 0
M  V30 12864 H 1198.74 2.87006 -0.869903 0
M  V30 12865 H 1196.29 1.48449 -0.489136 0
M  V30 12866 H 1197.03 2.76184 1.69979 0
M  V30 12867 H 1196.81 3.90593 0.343454 0
M  V30 12868 H 1198.3 3.95778 1.33227 0
M  V30 12869 N 1198.74 0.470782 1.50404 0
M  V30 12870 C 1199.99 -0.0859981 2.01517 0
M  V30 12871 C 1200.3 -1.40811 1.35763 0
M  V30 12872 O 1201.51 -2.04982 1.7803 0
M  V30 12873 C 1199.96 -0.203773 3.59323 0
M  V30 12874 C 1199.57 1.10989 4.34034 0
M  V30 12875 C 1201.32 -0.712528 4.18477 0
M  V30 12876 C 1199.22 0.955928 5.83623 0
M  V30 12877 H 1198.15 -0.0359142 0.753144 0
M  V30 12878 H 1200.8 0.605631 1.73218 0
M  V30 12879 H 1199.19 -0.959177 3.84208 0
M  V30 12880 H 1200.36 1.87623 4.20873 0
M  V30 12881 H 1198.67 1.54973 3.86487 0
M  V30 12882 H 1201.27 -0.844745 5.27985 0
M  V30 12883 H 1201.61 -1.70377 3.79838 0
M  V30 12884 H 1202.15 -0.0145179 3.97797 0
M  V30 12885 H 1198.89 1.92054 6.26734 0
M  V30 12886 H 1198.41 0.22997 5.99359 0
M  V30 12887 H 1200.09 0.622423 6.43999 0
M  V30 12888 N 1200.22 -1.56282 0.203376 0
M  V30 12889 C 1201.18 -2.18233 -0.700489 0
M  V30 12890 C 1202.18 -1.13908 -1.13497 0
M  V30 12891 O 1203.37 -1.39246 -1.04672 0
M  V30 12892 C 1200.5 -2.79107 -1.95735 0
M  V30 12893 H 1201.7 -2.99469 -0.160649 0
M  V30 12894 H 1199.25 -1.56232 -0.0462475 0
M  V30 12895 H 1199.98 -2.01691 -2.53951 0
M  V30 12896 H 1199.77 -3.55486 -1.65446 0
M  V30 12897 H 1201.26 -3.2665 -2.60172 0
M  V30 12898 N 1201.7 0.070167 -1.57444 0
M  V30 12899 C 1202.64 1.10193 -2.04842 0
M  V30 12900 C 1203.64 1.39978 -0.954069 0
M  V30 12901 O 1204.84 1.39366 -1.13917 0
M  V30 12902 H 1201.22 0.372699 -0.653146 0
M  V30 12903 H 1203.19 0.676033 -2.90641 0
M  V30 12904 C 1201.94 2.40679 -2.50936 0
M  V30 12905 H 1201.26 2.1861 -3.34738 0
M  V30 12906 H 1202.7 3.11315 -2.87852 0
M  V30 12907 C 1201.16 3.06754 -1.39297 0
M  V30 12908 O 1201.69 3.949 -0.735989 0
M  V30 12909 N 1199.9 2.67404 -1.13769 0
M  V30 12910 H 1199.44 1.95813 -1.67376 0
M  V30 12911 H 1199.4 3.11937 -0.392787 0
M  V30 12912 N 1203.17 1.53854 0.341593 0
M  V30 12913 C 1204.45 1.61823 1.09875 0
M  V30 12914 C 1204.83 0.440711 2.06448 0
M  V30 12915 O 1204.18 -0.566833 2.21358 0
M  V30 12916 C 1204.39 2.9799 1.81668 0
M  V30 12917 C 1205.74 3.53411 2.35341 0
M  V30 12918 O 1206.76 3.00177 1.91761 0
M  V30 12919 O 1205.62 4.4653 3.15076 0
M  V30 12920 H 1202.71 0.654599 0.5054 0
M  V30 12921 H 1205.26 1.66199 0.342929 0
M  V30 12922 H 1204.03 3.7513 1.11323 0
M  V30 12923 H 1203.65 2.97213 2.64103 0
M  V30 12924 N 1204.65 -0.602709 1.4562 0
M  V30 12925 C 1205.88 -1.39299 1.53657 0
M  V30 12926 C 1206.3 -1.87315 0.171632 0
M  V30 12927 O 1205.66 -1.60423 -0.844639 0
M  V30 12928 C 1205.71 -2.57021 2.52928 0
M  V30 12929 O 1204.81 -3.57812 2.05047 0
M  V30 12930 H 1204.15 -0.41567 0.517798 0
M  V30 12931 H 1206.68 -0.73304 1.91018 0
M  V30 12932 H 1206.69 -3.04202 2.71892 0
M  V30 12933 H 1205.37 -2.21422 3.52058 0
M  V30 12934 H 1203.94 -3.17247 1.95981 0
M  V30 12935 N 1206.13 -1.32992 -0.845635 0
M  V30 12936 C 1207.08 -1.19256 -1.94325 0
M  V30 12937 C 1208.06 -0.0971701 -1.60606 0
M  V30 12938 O 1209.26 -0.324591 -1.73998 0
M  V30 12939 C 1206.38 -0.927027 -3.30547 0
M  V30 12940 C 1205.47 -2.06454 -3.70456 0
M  V30 12941 N 1205.86 -3.31393 -3.82116 0
M  V30 12942 C 1204.16 -1.96972 -4.00147 0
M  V30 12943 C 1204.86 -4.05955 -4.16624 0
M  V30 12944 N 1203.84 -3.34332 -4.28629 0
M  V30 12945 H 1207.64 -2.13965 -2.01485 0
M  V30 12946 H 1205.15 -1.24901 -1.03795 0
M  V30 12947 H 1207.15 -0.809565 -4.08964 0
M  V30 12948 H 1205.81 0.011597 -3.24698 0
M  V30 12949 H 1206.82 -3.66222 -3.662 0
M  V30 12950 H 1203.5 -1.10728 -4.02549 0
M  V30 12951 H 1204.89 -5.13738 -4.33039 0
M  V30 12952 N 1207.61 1.06304 -1.1635 0
M  V30 12953 C 1208.54 2.15745 -0.893103 0
M  V30 12954 C 1209.52 1.69341 0.160531 0
M  V30 12955 O 1210.7 1.94196 0.0126526 0
M  V30 12956 C 1207.83 3.45066 -0.393287 0
M  V30 12957 C 1206.79 4.04978 -1.38482 0
M  V30 12958 C 1206.11 5.29507 -0.743409 0
M  V30 12959 C 1207.41 4.4377 -2.75438 0
M  V30 12960 H 1209.11 2.38622 -1.80831 0
M  V30 12961 H 1206.65 1.14681 -0.870878 0
M  V30 12962 H 1208.61 4.20964 -0.191607 0
M  V30 12963 H 1207.33 3.21808 0.557426 0
M  V30 12964 H 1205.99 3.31136 -1.57304 0
M  V30 12965 H 1205.64 5.02545 0.213787 0
M  V30 12966 H 1205.34 5.7055 -1.40521 0
M  V30 12967 H 1206.86 6.08102 -0.551746 0
M  V30 12968 H 1208.28 5.1075 -2.60398 0
M  V30 12969 H 1206.67 4.95797 -3.38091 0
M  V30 12970 H 1207.74 3.54636 -3.30699 0
M  V30 12971 N 1209.09 0.96196 1.24836 0
M  V30 12972 C 1210.02 0.432188 2.2407 0
M  V30 12973 C 1211 -0.490539 1.55024 0
M  V30 12974 O 1212.18 -0.423236 1.83687 0
M  V30 12975 C 1209.31 -0.37673 3.36598 0
M  V30 12976 C 1208.35 0.48745 4.23705 0
M  V30 12977 S 1209.19 1.92417 4.99736 0
M  V30 12978 C 1210.34 1.12388 6.15727 0
M  V30 12979 H 1210.58 1.27315 2.6866 0
M  V30 12980 H 1208.11 0.766568 1.34026 0
M  V30 12981 H 1210.07 -0.837488 4.01866 0
M  V30 12982 H 1208.73 -1.1926 2.90579 0
M  V30 12983 H 1207.92 -0.133338 5.03824 0
M  V30 12984 H 1207.52 0.883707 3.6341 0
M  V30 12985 H 1209.81 0.376097 6.76455 0
M  V30 12986 H 1210.76 1.89924 6.82154 0
M  V30 12987 H 1211.17 0.650779 5.60736 0
M  V30 12988 N 1210.56 -1.39601 0.731392 0
M  V30 12989 C 1211.53 -2.28992 0.0976037 0
M  V30 12990 C 1212.53 -1.46135 -0.670917 0
M  V30 12991 O 1213.72 -1.66856 -0.50047 0
M  V30 12992 C 1210.85 -3.29582 -0.871124 0
M  V30 12993 H 1212.04 -2.86541 0.885112 0
M  V30 12994 H 1209.59 -1.48188 0.497002 0
M  V30 12995 H 1210.33 -2.77082 -1.68512 0
M  V30 12996 H 1210.11 -3.9077 -0.322735 0
M  V30 12997 H 1211.6 -3.96479 -1.31126 0
M  V30 12998 N 1212.04 -0.478751 -1.50152 0
M  V30 12999 C 1213.32 0.135533 -1.9513 0
M  V30 13000 C 1213.7 1.56253 -1.41944 0
M  V30 13001 O 1213.05 2.19824 -0.623673 0
M  V30 13002 C 1213.26 0.0710037 -3.48928 0
M  V30 13003 C 1214.61 0.256075 -4.23827 0
M  V30 13004 O 1215.63 0.147234 -3.55896 0
M  V30 13005 O 1214.49 0.476741 -5.44417 0
M  V30 13006 H 1211.58 0.107491 -0.819985 0
M  V30 13007 H 1214.13 -0.539701 -1.60889 0
M  V30 13008 H 1212.9 -0.925012 -3.80209 0
M  V30 13009 H 1212.52 0.787362 -3.89726 0
M  V30 13010 N 1213.52 1.56172 -0.211661 0
M  V30 13011 C 1214.45 2.22843 0.697375 0
M  V30 13012 C 1215.43 1.19689 1.20866 0
M  V30 13013 O 1216.62 1.48245 1.25447 0
M  V30 13014 C 1213.75 2.90067 1.90993 0
M  V30 13015 C 1212.7 3.99608 1.5329 0
M  V30 13016 C 1212.03 4.54078 2.82343 0
M  V30 13017 C 1213.33 5.17169 0.730333 0
M  V30 13018 H 1215.02 2.99065 0.141533 0
M  V30 13019 H 1212.57 1.43846 0.0666337 0
M  V30 13020 H 1214.52 3.35396 2.55123 0
M  V30 13021 H 1213.24 2.11276 2.49058 0
M  V30 13022 H 1211.9 3.54995 0.915115 0
M  V30 13023 H 1211.55 3.72029 3.38531 0
M  V30 13024 H 1211.25 5.28001 2.57853 0
M  V30 13025 H 1212.77 5.02119 3.47432 0
M  V30 13026 H 1214.19 5.5894 1.2751 0
M  V30 13027 H 1212.59 5.97262 0.582916 0
M  V30 13028 H 1213.66 4.84174 -0.265157 0
M  V30 13029 N 1215 -0.0618163 1.57479 0
M  V30 13030 C 1216.41 -0.612461 1.76368 0
M  V30 13031 C 1216.76 -1.77381 0.838466 0
M  V30 13032 O 1215.89 -2.16386 0.0250211 0
M  V30 13033 C 1216.48 -1.11782 3.19829 0
M  V30 13034 C 1215.04 -1.61424 3.40028 0
M  V30 13035 C 1214.19 -0.53795 2.72032 0
M  V30 13036 H 1217.14 0.164382 1.57846 0
M  V30 13037 H 1217.16 -1.98634 3.24538 0
M  V30 13038 H 1216.67 -0.272353 3.87143 0
M  V30 13039 H 1214.77 -2.48263 2.77842 0
M  V30 13040 H 1214.88 -1.68431 4.48517 0
M  V30 13041 H 1213.25 -0.985355 2.34868 0
M  V30 13042 H 1214.03 0.297495 3.42009 0
M  V30 13043 N 1216.48 -1.54033 -0.333429 0
M  V30 13044 C 1217.72 -1.72958 -1.07038 0
M  V30 13045 C 1218.08 -0.492055 -1.86002 0
M  V30 13046 O 1217.37 0.515453 -1.84536 0
M  V30 13047 C 1217.56 -2.93926 -2.03328 0
M  V30 13048 C 1217.39 -4.29324 -1.33831 0
M  V30 13049 C 1216.16 -4.93647 -1.07892 0
M  V30 13050 C 1218.36 -5.08664 -0.75929 0
M  V30 13051 N 1216.34 -6.12897 -0.35082 0
M  V30 13052 C 1217.71 -6.19788 -0.162281 0
M  V30 13053 C 1219.77 -4.93491 -0.661131 0
M  V30 13054 C 1218.47 -7.17394 0.523351 0
M  V30 13055 C 1220.5 -5.91399 0.0107794 0
M  V30 13056 C 1219.86 -7.01867 0.596775 0
M  V30 13057 H 1215.96 -0.685828 -0.375718 0
M  V30 13058 H 1218.54 -1.91478 -0.35274 0
M  V30 13059 H 1216.71 -2.76889 -2.72373 0
M  V30 13060 H 1218.45 -3.01524 -2.69936 0
M  V30 13061 H 1215.2 -4.53392 -1.36868 0
M  V30 13062 H 1215.63 -6.77 -0.00120039 0
M  V30 13063 H 1220.27 -4.08242 -1.09991 0
M  V30 13064 H 1217.99 -8.02209 0.973994 0
M  V30 13065 H 1221.57 -5.81736 0.0862353 0
M  V30 13066 H 1220.45 -7.76327 1.10845 0
M  V30 13067 N 1217.95 0.594978 -1.45938 0
M  V30 13068 C 1219.2 1.34976 -1.49881 0
M  V30 13069 C 1219.52 1.95025 -0.14983 0
M  V30 13070 O 1220.72 2.71417 -0.0669868 0
M  V30 13071 C 1219.18 2.44563 -2.6404 0
M  V30 13072 C 1218.79 1.9087 -4.05306 0
M  V30 13073 C 1220.53 3.21461 -2.77242 0
M  V30 13074 C 1218.44 2.98013 -5.10825 0
M  V30 13075 H 1217.37 0.507366 -0.55776 0
M  V30 13076 H 1220.02 0.636316 -1.72114 0
M  V30 13077 H 1218.4 3.1865 -2.35114 0
M  V30 13078 H 1219.57 1.23408 -4.43968 0
M  V30 13079 H 1217.89 1.26678 -3.96663 0
M  V30 13080 H 1220.49 4.01399 -3.53246 0
M  V30 13081 H 1220.83 3.73271 -1.84321 0
M  V30 13082 H 1221.36 2.54477 -3.05756 0
M  V30 13083 H 1218.1 2.51104 -6.05497 0
M  V30 13084 H 1217.62 3.64003 -4.7672 0
M  V30 13085 H 1219.3 3.62178 -5.36131 0
M  V30 13086 N 1219.43 1.33438 0.838571 0
M  V30 13087 C 1220.4 1.23632 1.92997 0
M  V30 13088 C 1221.4 0.155302 1.60048 0
M  V30 13089 O 1222.59 0.406852 1.69382 0
M  V30 13090 C 1219.72 0.90512 3.28665 0
M  V30 13091 H 1220.91 2.20643 2.03117 0
M  V30 13092 H 1218.46 1.17501 1.03069 0
M  V30 13093 H 1219.2 -0.0624833 3.2424 0
M  V30 13094 H 1218.98 1.68688 3.53959 0
M  V30 13095 H 1220.47 0.861262 4.08622 0
M  V30 13096 N 1220.91 -1.05686 1.16912 0
M  V30 13097 C 1221.82 -2.16824 0.8958 0
M  V30 13098 C 1222.84 -1.73482 -0.134215 0
M  V30 13099 O 1224.01 -2.01352 0.0438776 0
M  V30 13100 C 1221.08 -3.44298 0.407427 0
M  V30 13101 C 1220.14 -4.02114 1.50342 0
M  V30 13102 C 1219.37 -5.23503 1.03826 0
M  V30 13103 O 1219.59 -5.70295 -0.109579 0
M  V30 13104 O 1218.53 -5.73432 1.8292 0
M  V30 13105 H 1222.35 -2.42725 1.82533 0
M  V30 13106 H 1219.94 -1.15339 0.949589 0
M  V30 13107 H 1221.82 -4.21159 0.142356 0
M  V30 13108 H 1220.5 -3.19908 -0.494009 0
M  V30 13109 H 1219.4 -3.26715 1.82231 0
M  V30 13110 H 1220.74 -4.30811 2.38039 0
M  V30 13111 N 1222.39 -0.968567 -1.24324 0
M  V30 13112 C 1223.61 -0.648166 -1.97012 0
M  V30 13113 C 1224.04 0.775842 -1.71354 0
M  V30 13114 O 1223.4 1.52672 -0.977804 0
M  V30 13115 C 1223.44 -0.929974 -3.48402 0
M  V30 13116 O 1222.55 -0.015854 -4.12397 0
M  V30 13117 H 1221.89 -0.244961 -0.617163 0
M  V30 13118 H 1224.42 -1.29895 -1.58077 0
M  V30 13119 H 1224.43 -0.861863 -3.98793 0
M  V30 13120 H 1223.1 -1.96776 -3.66404 0
M  V30 13121 H 1221.68 -0.137361 -3.72647 0
M  V30 13122 N 1223.87 1.39211 -0.738786 0
M  V30 13123 C 1225.12 1.99673 -0.285254 0
M  V30 13124 C 1225.43 1.59297 1.13507 0
M  V30 13125 O 1226.63 2.12622 1.68832 0
M  V30 13126 C 1225.09 3.5696 -0.45906 0
M  V30 13127 C 1224.7 4.06297 -1.88751 0
M  V30 13128 C 1226.44 4.24446 -0.0674954 0
M  V30 13129 C 1224.35 5.56171 -2.01067 0
M  V30 13130 H 1223.28 0.746945 -0.102901 0
M  V30 13131 H 1225.93 1.59163 -0.913209 0
M  V30 13132 H 1224.31 3.95285 0.23785 0
M  V30 13133 H 1225.49 3.79297 -2.61669 0
M  V30 13134 H 1223.8 3.51486 -2.23264 0
M  V30 13135 H 1226.4 5.34521 -0.138475 0
M  V30 13136 H 1226.74 4.04653 0.977823 0
M  V30 13137 H 1227.27 3.91309 -0.715704 0
M  V30 13138 H 1224.01 5.80849 -3.03801 0
M  V30 13139 H 1223.53 5.84961 -1.32591 0
M  V30 13140 H 1225.21 6.21642 -1.79362 0
M  V30 13141 N 1225.34 0.486708 1.49896 0
M  V30 13142 C 1226.28 -0.335809 2.26727 0
M  V30 13143 C 1227.29 -0.94333 1.32684 0
M  V30 13144 O 1228.48 -0.82909 1.58077 0
M  V30 13145 C 1225.58 -1.48642 3.04563 0
M  V30 13146 C 1224.75 -0.988837 4.26076 0
M  V30 13147 C 1223.81 -2.01535 4.86076 0
M  V30 13148 O 1222.84 -1.58966 5.46552 0
M  V30 13149 N 1224.04 -3.34471 4.74457 0
M  V30 13150 H 1226.8 0.322919 2.97955 0
M  V30 13151 H 1224.36 0.318403 1.58738 0
M  V30 13152 H 1226.36 -2.17039 3.41579 0
M  V30 13153 H 1224.93 -2.04956 2.36033 0
M  V30 13154 H 1224.15 -0.130232 3.93985 0
M  V30 13155 H 1225.43 -0.634562 5.04827 0
M  V30 13156 H 1224.83 -3.71755 4.26398 0
M  V30 13157 H 1223.39 -3.98621 5.15698 0
M  V30 13158 N 1226.82 -1.56058 0.219941 0
M  V30 13159 C 1227.75 -2.2321 -0.685547 0
M  V30 13160 C 1228.73 -1.20328 -1.20229 0
M  V30 13161 O 1229.92 -1.48909 -1.24659 0
M  V30 13162 C 1227.05 -2.91076 -1.89452 0
M  V30 13163 C 1226 -4.00415 -1.51169 0
M  V30 13164 C 1225.33 -4.55569 -2.79931 0
M  V30 13165 C 1226.63 -5.17549 -0.702896 0
M  V30 13166 H 1228.32 -2.99136 -0.125671 0
M  V30 13167 H 1225.87 -1.43879 -0.0590043 0
M  V30 13168 H 1227.82 -3.36744 -2.53341 0
M  V30 13169 H 1226.55 -2.12594 -2.47934 0
M  V30 13170 H 1225.21 -3.55475 -0.896275 0
M  V30 13171 H 1224.85 -3.73819 -3.36553 0
M  V30 13172 H 1224.55 -5.29361 -2.55049 0
M  V30 13173 H 1226.08 -5.03955 -3.44764 0
M  V30 13174 H 1227.49 -5.59608 -1.24544 0
M  V30 13175 H 1225.89 -5.97563 -0.551234 0
M  V30 13176 H 1226.96 -4.84027 0.29083 0
M  V30 13177 N 1228.3 0.053464 -1.57509 0
M  V30 13178 C 1229.72 0.408651 -1.5428 0
M  V30 13179 C 1229.92 1.78086 -0.942735 0
M  V30 13180 O 1228.97 2.46366 -0.553163 0
M  V30 13181 C 1230.29 0.332884 -2.98852 0
M  V30 13182 C 1231.83 0.411745 -3.1028 0
M  V30 13183 C 1232.31 0.365691 -4.56538 0
M  V30 13184 N 1233.8 0.425222 -4.61244 0
M  V30 13185 C 1234.54 0.412093 -5.71917 0
M  V30 13186 N 1234.03 0.352693 -6.91902 0
M  V30 13187 N 1235.82 0.460016 -5.60214 0
M  V30 13188 H 1227.98 -0.844834 -1.94875 0
M  V30 13189 H 1230.24 -0.318888 -0.892757 0
M  V30 13190 H 1229.94 -0.609116 -3.46385 0
M  V30 13191 H 1229.82 1.13605 -3.59686 0
M  V30 13192 H 1232.21 1.34417 -2.62709 0
M  V30 13193 H 1232.29 -0.420333 -2.52323 0
M  V30 13194 H 1231.93 -0.562963 -5.0477 0
M  V30 13195 H 1231.86 1.21555 -5.12379 0
M  V30 13196 H 1234.35 0.474634 -3.74908 0
M  V30 13197 H 1234.66 0.347105 -7.7202 0
M  V30 13198 H 1233.01 0.319104 -6.94267 0
M  V30 13199 H 1236.2 0.504242 -4.65376 0
M  V30 13200 H 1236.37 0.446315 -6.46461 0
M  V30 13201 N 1229.78 1.54207 0.325255 0
M  V30 13202 C 1230.73 1.84197 1.42036 0
M  V30 13203 C 1231.72 0.71375 1.53629 0
M  V30 13204 O 1232.93 0.897385 1.56035 0
M  V30 13205 H 1229.3 0.583848 0.473947 0
M  V30 13206 H 1231.27 2.7578 1.13965 0
M  V30 13207 C 1230.02 2.08459 2.78281 0
M  V30 13208 H 1229.35 2.94734 2.70133 0
M  V30 13209 H 1230.79 2.33398 3.5398 0
M  V30 13210 C 1229.24 0.875615 3.25322 0
M  V30 13211 O 1229.77 0.0840387 4.01612 0
M  V30 13212 N 1227.98 0.687721 2.82345 0
M  V30 13213 H 1227.53 1.33307 2.20425 0
M  V30 13214 H 1227.49 -0.119687 3.14172 0
M  V30 13215 N 1231.26 -0.58723 1.46251 0
M  V30 13216 C 1232.51 -1.34179 1.50595 0
M  V30 13217 C 1232.82 -1.94943 0.160171 0
M  V30 13218 O 1234.03 -2.71378 0.0813797 0
M  V30 13219 C 1232.48 -2.43159 2.65333 0
M  V30 13220 C 1232.09 -1.88718 4.06312 0
M  V30 13221 C 1233.83 -3.19986 2.78943 0
M  V30 13222 C 1231.74 -2.953 5.12398 0
M  V30 13223 H 1230.67 -0.504401 0.560442 0
M  V30 13224 H 1233.32 -0.627179 1.72449 0
M  V30 13225 H 1231.7 -3.17398 2.368 0
M  V30 13226 H 1232.88 -1.21051 4.44616 0
M  V30 13227 H 1231.19 -1.24572 3.97329 0
M  V30 13228 H 1233.79 -3.9952 3.5537 0
M  V30 13229 H 1234.13 -3.72288 1.86298 0
M  V30 13230 H 1234.67 -2.52852 3.07101 0
M  V30 13231 H 1231.4 -2.4789 6.0682 0
M  V30 13232 H 1230.92 -3.61469 4.78644 0
M  V30 13233 H 1232.6 -3.5933 5.38044 0
M  V30 13234 N 1232.74 -1.33881 -0.831482 0
M  V30 13235 C 1233.97 -1.28625 -1.61676 0
M  V30 13236 C 1234.37 0.143588 -1.88654 0
M  V30 13237 O 1233.72 1.09847 -1.47239 0
M  V30 13238 C 1233.78 -2.00022 -2.98716 0
M  V30 13239 C 1233.44 -3.49309 -2.94674 0
M  V30 13240 C 1234.44 -4.44375 -2.69864 0
M  V30 13241 C 1232.12 -3.91596 -3.14576 0
M  V30 13242 C 1234.12 -5.79703 -2.64996 0
M  V30 13243 C 1231.81 -5.27026 -3.09333 0
M  V30 13244 C 1232.8 -6.20892 -2.84575 0
M  V30 13245 O 1232.49 -7.53841 -2.79248 0
M  V30 13246 H 1232.22 -0.444235 -0.50954 0
M  V30 13247 H 1234.78 -1.76933 -1.04326 0
M  V30 13248 H 1233.01 -1.46316 -3.57951 0
M  V30 13249 H 1234.7 -1.88168 -3.59649 0
M  V30 13250 H 1235.46 -4.13027 -2.54231 0
M  V30 13251 H 1231.34 -3.18938 -3.32865 0
M  V30 13252 H 1234.89 -6.5294 -2.45591 0
M  V30 13253 H 1230.78 -5.57996 -3.24516 0
M  V30 13254 H 1231.55 -7.63476 -2.95037 0
M  V30 13255 N 1234.21 1.05064 -1.1747 0
M  V30 13256 C 1235.44 1.81761 -0.988464 0
M  V30 13257 C 1235.86 1.83028 0.463272 0
M  V30 13258 O 1235.21 1.25846 1.32171 0
M  V30 13259 C 1235.26 3.2782 -1.5237 0
M  V30 13260 O 1234.99 3.26726 -2.91859 0
M  V30 13261 C 1236.49 4.212 -1.38223 0
M  V30 13262 H 1233.71 0.572712 -0.349631 0
M  V30 13263 H 1236.25 1.32477 -1.55789 0
M  V30 13264 H 1234.41 3.7437 -0.996272 0
M  V30 13265 H 1234.82 4.18151 -3.16623 0
M  V30 13266 H 1236.29 5.2166 -1.80485 0
M  V30 13267 H 1236.77 4.37962 -0.329491 0
M  V30 13268 H 1237.38 3.80506 -1.89988 0
M  V30 13269 N 1235.69 0.975146 1.23809 0
M  V30 13270 C 1236.97 0.557725 1.8748 0
M  V30 13271 C 1237.35 -0.965164 1.87744 0
M  V30 13272 O 1236.7 -1.83966 1.35531 0
M  V30 13273 C 1236.91 1.15777 3.29236 0
M  V30 13274 C 1238.25 1.24726 4.05868 0
M  V30 13275 O 1239.28 1.11084 3.38436 0
M  V30 13276 O 1238.14 1.46373 5.26533 0
M  V30 13277 H 1235.23 0.187045 0.80557 0
M  V30 13278 H 1237.78 1.06989 1.31725 0
M  V30 13279 H 1236.55 2.20023 3.23583 0
M  V30 13280 H 1236.17 0.630103 3.92575 0
M  V30 13281 N 1237.17 -1.38817 0.746158 0
M  V30 13282 C 1238.58 -1.83045 0.367629 0
M  V30 13283 C 1238.93 -1.62285 -1.10263 0
M  V30 13284 O 1238.06 -1.12001 -1.85162 0
M  V30 13285 C 1238.65 -3.323 0.660482 0
M  V30 13286 C 1237.21 -3.74903 0.335318 0
M  V30 13287 C 1236.36 -2.61683 0.917446 0
M  V30 13288 H 1239.31 -1.27651 0.94291 0
M  V30 13289 H 1239.33 -3.80446 -0.0639061 0
M  V30 13290 H 1238.84 -3.47377 1.73062 0
M  V30 13291 H 1236.94 -3.65408 -0.728538 0
M  V30 13292 H 1237.06 -4.71932 0.825677 0
M  V30 13293 H 1235.42 -2.52376 0.343316 0
M  V30 13294 H 1236.2 -2.79563 1.99247 0
M  V30 13295 N 1238.65 -0.49465 -1.49636 0
M  V30 13296 C 1239.58 0.276606 -2.31856 0
M  V30 13297 C 1240.56 0.968499 -1.39836 0
M  V30 13298 O 1241.74 0.96113 -1.68748 0
M  V30 13299 C 1238.87 1.34522 -3.20189 0
M  V30 13300 C 1237.83 0.773571 -4.20951 0
M  V30 13301 C 1237.15 1.94223 -4.98178 0
M  V30 13302 C 1238.45 -0.231096 -5.21788 0
M  V30 13303 H 1240.15 -0.409668 -2.96584 0
M  V30 13304 H 1237.69 -0.198461 -1.42626 0
M  V30 13305 H 1239.65 1.89244 -3.76517 0
M  V30 13306 H 1238.37 2.06059 -2.53392 0
M  V30 13307 H 1237.03 0.248144 -3.65759 0
M  V30 13308 H 1236.68 2.64514 -4.27834 0
M  V30 13309 H 1236.38 1.56584 -5.66353 0
M  V30 13310 H 1237.9 2.49391 -5.57348 0
M  V30 13311 H 1239.32 0.227768 -5.72847 0
M  V30 13312 H 1237.71 -0.522984 -5.97817 0
M  V30 13313 H 1238.78 -1.14914 -4.71087 0
M  V30 13314 N 1240.13 1.55939 -0.228214 0
M  V30 13315 C 1241.07 2.21957 0.69556 0
M  V30 13316 C 1242.07 1.20109 1.19458 0
M  V30 13317 O 1243.27 1.38171 1.15364 0
M  V30 13318 H 1239.65 0.711744 0.242744 0
M  V30 13319 H 1241.62 2.98177 0.115403 0
M  V30 13320 C 1240.37 2.91847 1.88999 0
M  V30 13321 H 1239.69 3.69978 1.51512 0
M  V30 13322 H 1241.13 3.4143 2.51399 0
M  V30 13323 C 1239.59 1.94683 2.74954 0
M  V30 13324 O 1240.12 1.468 3.73915 0
M  V30 13325 N 1238.33 1.62188 2.41129 0
M  V30 13326 H 1237.87 2.01322 1.60709 0
M  V30 13327 H 1237.83 0.9744 2.98919 0
M  V30 13328 N 1241.6 -0.0451101 1.57535 0
M  V30 13329 C 1242.85 -0.740209 1.88809 0
M  V30 13330 C 1243.18 -1.75854 0.823956 0
M  V30 13331 O 1242.46 -1.93817 -0.16286 0
M  V30 13332 C 1242.74 -1.42424 3.30737 0
M  V30 13333 C 1242.59 -0.42052 4.4783 0
M  V30 13334 C 1243.91 -2.36241 3.7132 0
M  V30 13335 H 1241.03 -0.267628 0.686691 0
M  V30 13336 H 1243.67 -0.00309149 1.9 0
M  V30 13337 H 1241.82 -2.05254 3.29853 0
M  V30 13338 H 1243.5 0.204625 4.60846 0
M  V30 13339 H 1241.74 0.261739 4.3301 0
M  V30 13340 H 1242.41 -0.937298 5.43984 0
M  V30 13341 H 1244.89 -1.83468 3.73468 0
M  V30 13342 H 1243.76 -2.81091 4.71465 0
M  V30 13343 H 1244.02 -3.2222 3.02699 0
M  V30 13344 N 1243.08 -1.54377 -0.317073 0
M  V30 13345 C 1244.01 -1.8721 -1.39552 0
M  V30 13346 C 1244.99 -0.729483 -1.53664 0
M  V30 13347 O 1246.18 -0.983799 -1.67437 0
M  V30 13348 C 1243.31 -2.1052 -2.76222 0
M  V30 13349 C 1242.26 -3.26366 -2.76892 0
M  V30 13350 C 1241.59 -3.35061 -4.16699 0
M  V30 13351 C 1242.89 -4.63862 -2.40061 0
M  V30 13352 H 1244.58 -2.77532 -1.12323 0
M  V30 13353 H 1242.13 -1.33536 -0.538897 0
M  V30 13354 H 1244.08 -2.32073 -3.51739 0
M  V30 13355 H 1242.81 -1.16953 -3.04942 0
M  V30 13356 H 1241.46 -3.0471 -2.03831 0
M  V30 13357 H 1241.11 -2.39041 -4.4257 0
M  V30 13358 H 1240.81 -4.12923 -4.18053 0
M  V30 13359 H 1242.34 -3.58856 -4.94019 0
M  V30 13360 H 1243.75 -4.85252 -3.05292 0
M  V30 13361 H 1242.15 -5.44321 -2.52655 0
M  V30 13362 H 1243.22 -4.6567 -1.35202 0
M  V30 13363 N 1244.56 0.579466 -1.4656 0
M  V30 13364 C 1245.49 1.70291 -1.53406 0
M  V30 13365 C 1246.51 1.57232 -0.422116 0
M  V30 13366 O 1247.69 1.64598 -0.69064 0
M  V30 13367 C 1244.79 3.08572 -1.40131 0
M  V30 13368 C 1243.97 3.47602 -2.65502 0
M  V30 13369 C 1243.03 4.64955 -2.4638 0
M  V30 13370 O 1242.05 4.70653 -3.20116 0
M  V30 13371 N 1243.25 5.60041 -1.52756 0
M  V30 13372 H 1246.02 1.64873 -2.50274 0
M  V30 13373 H 1243.58 0.765533 -1.42658 0
M  V30 13374 H 1245.57 3.84877 -1.25106 0
M  V30 13375 H 1244.14 3.0834 -0.514322 0
M  V30 13376 H 1243.36 2.60969 -2.95446 0
M  V30 13377 H 1244.65 3.70446 -3.48779 0
M  V30 13378 H 1244.05 5.58176 -0.919587 0
M  V30 13379 H 1242.61 6.35764 -1.43693 0
M  V30 13380 N 1246.04 1.3432 0.824371 0
M  V30 13381 C 1247 1.25672 1.91675 0
M  V30 13382 C 1248 0.172269 1.59875 0
M  V30 13383 O 1249.19 0.424794 1.68941 0
M  V30 13384 C 1246.32 0.939928 3.27686 0
M  V30 13385 H 1247.52 2.22785 2.00766 0
M  V30 13386 H 1245.07 1.18587 1.01817 0
M  V30 13387 H 1245.8 -0.0280898 3.24288 0
M  V30 13388 H 1245.59 1.72432 3.5215 0
M  V30 13389 H 1247.08 0.904553 4.07686 0
M  V30 13390 N 1247.52 -1.0444 1.18026 0
M  V30 13391 C 1248.43 -2.15862 0.918747 0
M  V30 13392 C 1249.44 -1.73614 -0.115808 0
M  V30 13393 O 1250.62 -2.01294 0.0652312 0
M  V30 13394 C 1247.68 -3.43846 0.443922 0
M  V30 13395 C 1246.74 -4.00497 1.54599 0
M  V30 13396 C 1245.98 -5.22373 1.09372 0
M  V30 13397 O 1246.2 -5.70379 -0.049085 0
M  V30 13398 O 1245.13 -5.71459 1.88992 0
M  V30 13399 H 1248.96 -2.40776 1.85097 0
M  V30 13400 H 1246.55 -1.14326 0.961769 0
M  V30 13401 H 1248.43 -4.20985 0.187017 0
M  V30 13402 H 1247.1 -3.20414 -0.460051 0
M  V30 13403 H 1246.01 -3.24764 1.85686 0
M  V30 13404 H 1247.34 -4.28262 2.42595 0
M  V30 13405 N 1248.99 -0.981699 -1.2329 0
M  V30 13406 C 1249.92 -0.542441 -2.27112 0
M  V30 13407 C 1250.91 0.425034 -1.64704 0
M  V30 13408 O 1252.09 0.318114 -1.91577 0
M  V30 13409 C 1249.22 0.154668 -3.46955 0
M  V30 13410 C 1248.17 -0.73022 -4.21725 0
M  V30 13411 C 1247.5 0.0991766 -5.34608 0
M  V30 13412 C 1248.8 -2.02166 -4.81587 0
M  V30 13413 H 1250.49 -1.41024 -2.64107 0
M  V30 13414 H 1248.04 -0.679544 -1.26957 0
M  V30 13415 H 1249.99 0.473281 -4.18734 0
M  V30 13416 H 1248.72 1.05693 -3.09025 0
M  V30 13417 H 1247.38 -1.03231 -3.51765 0
M  V30 13418 H 1247.02 1.00201 -4.92919 0
M  V30 13419 H 1246.72 -0.489788 -5.85555 0
M  V30 13420 H 1248.25 0.412141 -6.09207 0
M  V30 13421 H 1249.66 -1.76773 -5.45366 0
M  V30 13422 H 1248.06 -2.55851 -5.42826 0
M  V30 13423 H 1249.13 -2.70766 -4.02261 0
M  V30 13424 N 1250.47 1.3842 -0.753509 0
M  V30 13425 C 1251.4 2.33073 -0.141198 0
M  V30 13426 C 1252.38 1.54863 0.70367 0
M  V30 13427 O 1253.57 1.8318 0.644872 0
M  V30 13428 C 1250.7 3.39043 0.752802 0
M  V30 13429 C 1249.65 4.27999 0.0106692 0
M  V30 13430 C 1248.98 5.24824 1.02291 0
M  V30 13431 C 1250.28 5.09308 -1.15768 0
M  V30 13432 H 1251.97 2.84528 -0.93188 0
M  V30 13433 H 1249.52 1.36802 -0.449567 0
M  V30 13434 H 1251.47 4.04224 1.19083 0
M  V30 13435 H 1250.2 2.8607 1.57581 0
M  V30 13436 H 1248.85 3.64323 -0.407939 0
M  V30 13437 H 1248.5 4.68139 1.83998 0
M  V30 13438 H 1248.2 5.85196 0.53101 0
M  V30 13439 H 1249.73 5.92882 1.46026 0
M  V30 13440 H 1251.14 5.6773 -0.797203 0
M  V30 13441 H 1249.54 5.78914 -1.58044 0
M  V30 13442 H 1250.61 4.43051 -1.97062 0
M  V30 13443 N 1251.95 0.502579 1.49372 0
M  V30 13444 C 1252.9 -0.294292 2.26093 0
M  V30 13445 C 1253.88 -0.934147 1.31006 0
M  V30 13446 O 1255.08 -0.841486 1.55718 0
M  V30 13447 C 1252.21 -1.3572 3.15333 0
M  V30 13448 C 1251.29 -0.723506 4.17883 0
M  V30 13449 N 1251.68 0.174787 5.05498 0
M  V30 13450 C 1249.98 -0.983906 4.35012 0
M  V30 13451 C 1250.68 0.537673 5.7921 0
M  V30 13452 N 1249.66 -0.0947799 5.43517 0
M  V30 13453 H 1253.46 0.397202 2.91204 0
M  V30 13454 H 1250.97 0.31876 1.59241 0
M  V30 13455 H 1252.97 -1.94154 3.6893 0
M  V30 13456 H 1251.63 -2.05036 2.51775 0
M  V30 13457 H 1252.64 0.545699 5.15017 0
M  V30 13458 H 1249.32 -1.66969 3.82658 0
M  V30 13459 H 1250.71 1.27266 6.59737 0
M  V30 13460 N 1253.43 -1.55816 0.23648 0
M  V30 13461 C 1254.84 -1.59159 -0.118601 0
M  V30 13462 C 1255.04 -1.25352 -1.57763 0
M  V30 13463 O 1254.1 -0.995863 -2.32032 0
M  V30 13464 C 1255.41 -2.99885 0.221175 0
M  V30 13465 C 1256.96 -3.12567 0.164624 0
M  V30 13466 C 1257.44 -4.55496 0.478285 0
M  V30 13467 N 1258.93 -4.61215 0.428402 0
M  V30 13468 C 1259.66 -5.69768 0.644398 0
M  V30 13469 N 1259.16 -6.86624 0.922966 0
M  V30 13470 N 1260.95 -5.59143 0.575814 0
M  V30 13471 H 1253.1 -1.76063 1.18809 0
M  V30 13472 H 1255.37 -0.819079 0.477297 0
M  V30 13473 H 1255.07 -3.29326 1.2344 0
M  V30 13474 H 1254.95 -3.74425 -0.456723 0
M  V30 13475 H 1257.33 -2.82914 -0.839263 0
M  V30 13476 H 1257.41 -2.40325 0.876219 0
M  V30 13477 H 1257.06 -4.85868 1.47968 0
M  V30 13478 H 1256.99 -5.25984 -0.254671 0
M  V30 13479 H 1259.48 -3.77251 0.221398 0
M  V30 13480 H 1259.79 -7.6528 1.07548 0
M  V30 13481 H 1258.14 -6.88333 0.960325 0
M  V30 13482 H 1261.33 -4.66727 0.358307 0
M  V30 13483 H 1261.5 -6.43674 0.747548 0
M  V30 13484 N 1254.91 0.036755 -1.57557 0
M  V30 13485 C 1256.13 0.744813 -1.93565 0
M  V30 13486 C 1256.56 1.68508 -0.835863 0
M  V30 13487 O 1255.91 1.80091 0.208986 0
M  V30 13488 C 1255.96 1.48461 -3.28621 0
M  V30 13489 O 1255.07 2.59739 -3.20327 0
M  V30 13490 H 1254.41 0.200866 -0.632889 0
M  V30 13491 H 1256.94 -0.00547543 -2.04599 0
M  V30 13492 H 1256.95 1.85622 -3.63329 0
M  V30 13493 H 1255.62 0.794953 -4.08232 0
M  V30 13494 H 1254.2 2.25176 -2.97237 0
M  V30 13495 N 1256.39 1.54543 0.308881 0
M  V30 13496 C 1257.8 1.45581 0.654088 0
M  V30 13497 C 1258 0.640597 1.91046 0
M  V30 13498 O 1257.06 0.14518 2.52082 0
M  V30 13499 C 1258.37 2.89461 0.814422 0
M  V30 13500 C 1259.92 2.99455 0.910817 0
M  V30 13501 C 1260.39 4.44515 1.10321 0
M  V30 13502 N 1261.88 4.4819 1.1696 0
M  V30 13503 C 1262.62 5.57604 1.33661 0
M  V30 13504 N 1262.12 6.76957 1.47311 0
M  V30 13505 N 1263.91 5.45278 1.36487 0
M  V30 13506 H 1256.06 2.06019 -0.516699 0
M  V30 13507 H 1258.32 0.932729 -0.169471 0
M  V30 13508 H 1258.03 3.5168 -0.0377455 0
M  V30 13509 H 1257.9 3.36425 1.70582 0
M  V30 13510 H 1260.29 2.37355 1.75348 0
M  V30 13511 H 1260.37 2.558 -0.00443172 0
M  V30 13512 H 1260.01 5.07206 0.265346 0
M  V30 13513 H 1259.94 4.85793 2.03256 0
M  V30 13514 H 1262.44 3.62199 1.07796 0
M  V30 13515 H 1262.75 7.561 1.59788 0
M  V30 13516 H 1261.09 6.79837 1.44382 0
M  V30 13517 H 1264.28 4.50983 1.25429 0
M  V30 13518 H 1264.46 6.30599 1.4916 0
M  V30 13519 N 1257.86 -0.571685 1.46866 0
M  V30 13520 C 1258.8 -1.69475 1.54307 0
M  V30 13521 C 1259.81 -1.57006 0.430449 0
M  V30 13522 O 1261 -1.64229 0.69936 0
M  V30 13523 C 1258.1 -3.07824 1.41766 0
M  V30 13524 C 1257.27 -3.46189 2.67342 0
M  V30 13525 C 1256.33 -4.63642 2.48843 0
M  V30 13526 O 1255.36 -4.68949 3.22608 0
M  V30 13527 N 1256.56 -5.59223 1.55724 0
M  V30 13528 H 1259.32 -1.63543 2.51145 0
M  V30 13529 H 1256.88 -0.757957 1.43062 0
M  V30 13530 H 1258.88 -3.84208 1.27146 0
M  V30 13531 H 1257.45 -3.08063 0.530667 0
M  V30 13532 H 1256.67 -2.59399 2.96826 0
M  V30 13533 H 1257.95 -3.68591 3.50739 0
M  V30 13534 H 1257.35 -5.5768 0.949175 0
M  V30 13535 H 1255.91 -6.34993 1.47063 0
M  V30 13536 N 1259.34 -1.34755 -0.817236 0
M  V30 13537 C 1260.3 -1.26687 -1.91006 0
M  V30 13538 C 1261.3 -0.180745 -1.59781 0
M  V30 13539 O 1262.49 -0.433748 -1.68714 0
M  V30 13540 C 1259.63 -0.957293 -3.27183 0
M  V30 13541 H 1260.82 -2.23846 -1.99582 0
M  V30 13542 H 1258.37 -1.19125 -1.01187 0
M  V30 13543 H 1259.11 0.0108917 -3.24298 0
M  V30 13544 H 1258.89 -1.74297 -3.5123 0
M  V30 13545 H 1260.38 -0.926161 -4.072 0
M  V30 13546 N 1260.82 1.03812 -1.18578 0
M  V30 13547 C 1261.73 2.15371 -0.930182 0
M  V30 13548 C 1262.75 1.73673 0.106599 0
M  V30 13549 O 1263.92 2.01257 -0.0759054 0
M  V30 13550 C 1260.99 3.43606 -0.462151 0
M  V30 13551 C 1260.05 3.99671 -1.5672 0
M  V30 13552 C 1259.28 5.21785 -1.12141 0
M  V30 13553 O 1259.5 5.70397 0.0188357 0
M  V30 13554 O 1258.44 5.70449 -1.9202 0
M  V30 13555 H 1262.26 2.39791 -1.86371 0
M  V30 13556 H 1259.85 1.13814 -0.967819 0
M  V30 13557 H 1261.73 4.2088 -0.20934 0
M  V30 13558 H 1260.41 3.20654 0.443052 0
M  V30 13559 H 1259.31 3.23774 -1.87406 0
M  V30 13560 H 1260.65 4.2697 -2.44862 0
M  V30 13561 N 1262.3 0.988223 1.22768 0
M  V30 13562 C 1263.24 0.534605 2.24523 0
M  V30 13563 C 1264.21 -0.430615 1.60421 0
M  V30 13564 O 1265.4 -0.336417 1.87811 0
M  V30 13565 C 1262.54 -0.149195 3.44777 0
M  V30 13566 C 1261.65 0.85721 4.2341 0
M  V30 13567 C 1260.79 0.147411 5.30995 0
M  V30 13568 C 1259.83 1.1425 6.01343 0
M  V30 13569 N 1258.96 0.461327 7.00583 0
M  V30 13570 H 1263.8 1.40708 2.62689 0
M  V30 13571 H 1261.34 0.704918 1.2911 0
M  V30 13572 H 1263.3 -0.562527 4.1339 0
M  V30 13573 H 1261.93 -0.985485 3.07389 0
M  V30 13574 H 1260.98 1.38889 3.54138 0
M  V30 13575 H 1262.29 1.61517 4.71926 0
M  V30 13576 H 1261.45 -0.32289 6.0584 0
M  V30 13577 H 1260.19 -0.643085 4.83442 0
M  V30 13578 H 1259.19 1.62348 5.25284 0
M  V30 13579 H 1260.42 1.93379 6.50985 0
M  V30 13580 H 1258.36 -0.309818 6.55268 0
M  V30 13581 H 1258.28 1.15781 7.47082 0
M  V30 13582 H 1259.55 0.0136734 7.79499 0
M  V30 13583 N 1263.78 -1.38018 0.760839 0
M  V30 13584 C 1264.69 -2.34181 0.140232 0
M  V30 13585 C 1265.7 -1.59635 -0.692287 0
M  V30 13586 O 1266.88 -1.91788 -0.614752 0
M  V30 13587 C 1263.94 -3.38778 -0.73693 0
M  V30 13588 C 1263 -4.29157 0.110792 0
M  V30 13589 C 1262.24 -5.28758 -0.724599 0
M  V30 13590 O 1262.46 -5.35585 -1.96226 0
M  V30 13591 O 1261.39 -6.01738 -0.139565 0
M  V30 13592 H 1265.22 -2.88962 0.934588 0
M  V30 13593 H 1262.8 -1.3999 0.521835 0
M  V30 13594 H 1264.69 -4.02804 -1.23803 0
M  V30 13595 H 1263.36 -2.86341 -1.50966 0
M  V30 13596 H 1262.27 -3.68268 0.658007 0
M  V30 13597 H 1263.6 -4.84869 0.846346 0
M  V30 13598 N 1265.25 -0.510493 -1.49103 0
M  V30 13599 C 1266.5 0.0305831 -2.02077 0
M  V30 13600 C 1266.82 1.36602 -1.39157 0
M  V30 13601 O 1266.09 1.88016 -0.550154 0
M  V30 13602 H 1264.67 0.0142916 -0.746863 0
M  V30 13603 H 1267.33 -0.669895 -1.83026 0
M  V30 13604 H 1266.43 0.153283 -3.11723 0
M  V30 13605 N 1266.73 1.55688 -0.24474 0
M  V30 13606 C 1267.66 2.18616 0.68844 0
M  V30 13607 C 1268.68 1.16185 1.14039 0
M  V30 13608 O 1269.87 1.43059 1.06754 0
M  V30 13609 C 1266.97 2.77375 1.94721 0
M  V30 13610 C 1266.14 4.05204 1.64706 0
M  V30 13611 C 1265.2 4.48302 2.75521 0
M  V30 13612 O 1264.22 5.14723 2.42999 0
M  V30 13613 N 1265.43 4.15907 4.04971 0
M  V30 13614 H 1268.19 2.99324 0.150018 0
M  V30 13615 H 1265.75 1.61771 -0.0646183 0
M  V30 13616 H 1267.74 3.03165 2.68091 0
M  V30 13617 H 1266.31 2.00837 2.39548 0
M  V30 13618 H 1265.53 3.87026 0.74865 0
M  V30 13619 H 1266.82 4.8855 1.42114 0
M  V30 13620 H 1266.22 3.62579 4.34227 0
M  V30 13621 H 1264.78 4.46538 4.74813 0
M  V30 13622 N 1268.21 -0.0283989 1.57574 0
M  V30 13623 C 1269.12 -1.04575 2.10003 0
M  V30 13624 C 1270.14 -1.39588 1.03881 0
M  V30 13625 O 1271.31 -1.48894 1.35619 0
M  V30 13626 C 1268.38 -2.32755 2.56955 0
M  V30 13627 C 1267.44 -2.04317 3.77562 0
M  V30 13628 C 1266.67 -3.26385 4.22266 0
M  V30 13629 O 1266.89 -4.37082 3.66491 0
M  V30 13630 O 1265.83 -3.12046 5.14695 0
M  V30 13631 H 1269.65 -0.630183 2.9709 0
M  V30 13632 H 1267.24 -0.245423 1.4737 0
M  V30 13633 H 1269.12 -3.08111 2.87482 0
M  V30 13634 H 1267.8 -2.73605 1.72979 0
M  V30 13635 H 1266.7 -1.26527 3.52054 0
M  V30 13636 H 1268.04 -1.68321 4.62524 0
M  V30 13637 N 1269.69 -1.54705 -0.300681 0
M  V30 13638 C 1271.1 -1.64998 -0.873654 0
M  V30 13639 C 1271.45 -0.558842 -1.88073 0
M  V30 13640 O 1270.57 0.304474 -2.14247 0
M  V30 13641 C 1271.17 -2.99099 -1.59138 0
M  V30 13642 C 1269.73 -3.11512 -2.11276 0
M  V30 13643 C 1268.88 -2.60681 -0.945551 0
M  V30 13644 H 1271.83 -1.5851 -0.0776752 0
M  V30 13645 H 1271.85 -2.9054 -2.45696 0
M  V30 13646 H 1271.36 -3.78493 -0.858172 0
M  V30 13647 H 1269.46 -2.36838 -2.87643 0
M  V30 13648 H 1269.57 -4.17672 -2.34707 0
M  V30 13649 H 1267.94 -2.17143 -1.33121 0
M  V30 13650 H 1268.72 -3.42553 -0.226291 0
M  V30 13651 N 1271.17 0.563888 -1.47167 0
M  V30 13652 C 1272.44 1.32454 -1.43928 0
M  V30 13653 C 1272.82 2.10683 -0.13267 0
M  V30 13654 O 1272.17 2.1063 0.885845 0
M  V30 13655 C 1272.38 2.2347 -2.68071 0
M  V30 13656 C 1273.73 2.84702 -3.15008 0
M  V30 13657 O 1274.75 2.33775 -2.68752 0
M  V30 13658 O 1273.61 3.77251 -3.95404 0
M  V30 13659 H 1270.71 0.596074 -0.573258 0
M  V30 13660 H 1273.25 0.583345 -1.59359 0
M  V30 13661 H 1272.02 1.6522 -3.54708 0
M  V30 13662 H 1271.65 3.04897 -2.55193 0
M  V30 13663 N 1272.64 1.35187 0.810078 0
M  V30 13664 C 1274.06 1.25329 1.38381 0
M  V30 13665 C 1274.41 -0.115799 1.95858 0
M  V30 13666 O 1273.53 -1.01663 1.91033 0
M  V30 13667 C 1274.13 2.2693 2.51572 0
M  V30 13668 C 1272.69 2.20824 3.04818 0
M  V30 13669 C 1271.83 2.1283 1.7776 0
M  V30 13670 H 1274.78 1.46366 0.613402 0
M  V30 13671 H 1274.8 1.89375 3.30026 0
M  V30 13672 H 1274.32 3.26563 2.09709 0
M  V30 13673 H 1272.42 1.24589 3.51153 0
M  V30 13674 H 1272.53 3.12637 3.63036 0
M  V30 13675 H 1270.89 1.58752 1.99173 0
M  V30 13676 H 1271.68 3.14318 1.38054 0
M  V30 13677 N 1274.12 -1.03182 1.19127 0
M  V30 13678 C 1275.54 -1.28773 0.942854 0
M  V30 13679 C 1275.74 -1.97759 -0.386483 0
M  V30 13680 O 1274.79 -2.26365 -1.1187 0
M  V30 13681 C 1276.11 -2.13771 2.11476 0
M  V30 13682 C 1277.66 -2.27089 2.15406 0
M  V30 13683 C 1278.13 -3.15458 3.32039 0
M  V30 13684 N 1279.62 -3.23046 3.31957 0
M  V30 13685 C 1280.36 -3.91604 4.18848 0
M  V30 13686 N 1279.85 -4.62418 5.15889 0
M  V30 13687 N 1281.65 -3.87974 4.06734 0
M  V30 13688 H 1273.8 -0.568165 2.0466 0
M  V30 13689 H 1276.06 -0.31328 0.89474 0
M  V30 13690 H 1275.77 -1.704 3.07663 0
M  V30 13691 H 1275.64 -3.14476 2.0829 0
M  V30 13692 H 1278.03 -2.69693 1.19791 0
M  V30 13693 H 1278.11 -1.25945 2.22647 0
M  V30 13694 H 1277.75 -2.73564 4.27931 0
M  V30 13695 H 1277.68 -4.16654 3.22035 0
M  V30 13696 H 1280.17 -2.7261 2.6171 0
M  V30 13697 H 1280.49 -5.12353 5.78545 0
M  V30 13698 H 1278.83 -4.61293 5.1984 0
M  V30 13699 H 1282.02 -3.31789 3.30202 0
M  V30 13700 H 1282.19 -4.4113 4.74666 0
M  V30 13701 N 1275.6 -0.99472 -1.22242 0
M  V30 13702 C 1276.85 -0.672596 -1.91322 0
M  V30 13703 C 1277.18 0.793542 -1.77247 0
M  V30 13704 O 1276.45 1.57407 -1.14251 0
M  V30 13705 C 1276.74 -1.08155 -3.43474 0
M  V30 13706 C 1276.59 -2.60638 -3.6659 0
M  V30 13707 C 1277.91 -0.636161 -4.35478 0
M  V30 13708 H 1275.03 -0.24582 -0.694796 0
M  V30 13709 H 1277.67 -1.23857 -1.44082 0
M  V30 13710 H 1275.82 -0.599987 -3.83839 0
M  V30 13711 H 1277.49 -3.16479 -3.35617 0
M  V30 13712 H 1275.74 -3.02624 -3.10808 0
M  V30 13713 H 1276.41 -2.84304 -4.73155 0
M  V30 13714 H 1278.88 -1.04982 -4.02639 0
M  V30 13715 H 1277.76 -0.950584 -5.40606 0
M  V30 13716 H 1278.02 0.4631 -4.39668 0
M  V30 13717 N 1277.08 1.37613 -0.768148 0
M  V30 13718 C 1277.99 2.34103 -0.152649 0
M  V30 13719 C 1279 1.6 0.683811 0
M  V30 13720 O 1280.18 1.92112 0.604572 0
M  V30 13721 C 1277.25 3.39164 0.718954 0
M  V30 13722 C 1276.31 4.29092 -0.13355 0
M  V30 13723 C 1275.54 5.29135 0.696547 0
M  V30 13724 O 1275.76 5.36618 1.93383 0
M  V30 13725 O 1274.7 6.01804 0.107652 0
M  V30 13726 H 1278.52 2.88462 -0.949899 0
M  V30 13727 H 1276.11 1.39711 -0.529252 0
M  V30 13728 H 1277.99 4.03454 1.21665 0
M  V30 13729 H 1276.66 2.87137 1.49445 0
M  V30 13730 H 1275.57 3.67914 -0.677528 0
M  V30 13731 H 1276.9 4.84413 -0.872048 0
M  V30 13732 N 1278.56 0.518393 1.4883 0
M  V30 13733 C 1279.49 -0.287642 2.27388 0
M  V30 13734 C 1280.5 -0.914974 1.34655 0
M  V30 13735 O 1281.69 -0.795373 1.598 0
M  V30 13736 C 1278.79 -1.42149 3.07647 0
M  V30 13737 C 1277.96 -0.898238 4.28078 0
M  V30 13738 C 1277.02 -1.91179 4.90242 0
M  V30 13739 O 1276.05 -1.47337 5.498 0
M  V30 13740 N 1277.25 -3.24331 4.81445 0
M  V30 13741 H 1280.02 0.386047 2.97203 0
M  V30 13742 H 1277.58 0.352002 1.58027 0
M  V30 13743 H 1279.57 -2.09745 3.46106 0
M  V30 13744 H 1278.14 -1.99903 2.40328 0
M  V30 13745 H 1277.36 -0.0466326 3.94172 0
M  V30 13746 H 1278.65 -0.527338 5.0606 0
M  V30 13747 H 1278.04 -3.62627 4.34187 0
M  V30 13748 H 1276.6 -3.87593 5.24037 0
M  V30 13749 N 1280.03 -1.55556 0.252993 0
M  V30 13750 C 1281 -2.20351 -0.630705 0
M  V30 13751 C 1282 -1.17461 -1.09816 0
M  V30 13752 O 1283.19 -1.42505 -1.00189 0
M  V30 13753 C 1280.32 -2.85192 -1.86757 0
M  V30 13754 H 1281.51 -2.99829 -0.0652939 0
M  V30 13755 H 1279.07 -1.563 0.00347982 0
M  V30 13756 H 1279.8 -2.09669 -2.47406 0
M  V30 13757 H 1279.59 -3.60569 -1.54053 0
M  V30 13758 H 1281.08 -3.34762 -2.49648 0
M  V30 13759 N 1281.51 0.0200419 -1.57587 0
M  V30 13760 C 1282.44 1.01715 -2.10181 0
M  V30 13761 C 1283.42 1.37136 -1.00636 0
M  V30 13762 O 1284.61 1.45862 -1.2821 0
M  V30 13763 C 1281.74 2.31531 -2.58865 0
M  V30 13764 C 1280.69 2.10327 -3.72755 0
M  V30 13765 C 1280.02 3.45981 -4.07678 0
M  V30 13766 C 1281.32 1.4821 -5.0083 0
M  V30 13767 H 1283.01 0.579307 -2.93742 0
M  V30 13768 H 1280.56 0.277211 -1.41307 0
M  V30 13769 H 1282.51 3.01623 -2.94281 0
M  V30 13770 H 1281.24 2.77392 -1.72399 0
M  V30 13771 H 1279.89 1.42665 -3.37701 0
M  V30 13772 H 1279.54 3.89508 -3.18265 0
M  V30 13773 H 1279.24 3.32616 -4.84397 0
M  V30 13774 H 1280.77 4.17421 -4.45637 0
M  V30 13775 H 1282.18 2.08232 -5.34146 0
M  V30 13776 H 1280.58 1.45393 -5.82221 0
M  V30 13777 H 1281.65 0.448942 -4.82817 0
M  V30 13778 N 1282.99 1.54862 0.292472 0
M  V30 13779 C 1283.92 1.81298 1.38586 0
M  V30 13780 C 1284.9 0.664704 1.48393 0
M  V30 13781 O 1286.09 0.905595 1.65322 0
M  V30 13782 C 1283.21 1.9573 2.76419 0
M  V30 13783 C 1282.26 3.18197 2.83994 0
M  V30 13784 S 1283.09 4.76054 2.45219 0
M  V30 13785 C 1284.25 4.93433 3.85064 0
M  V30 13786 H 1284.48 2.73755 1.15955 0
M  V30 13787 H 1282.01 1.46383 0.491053 0
M  V30 13788 H 1283.97 2.0473 3.55803 0
M  V30 13789 H 1282.63 1.04196 2.96314 0
M  V30 13790 H 1281.83 3.25123 3.85112 0
M  V30 13791 H 1281.43 3.07688 2.12613 0
M  V30 13792 H 1283.72 4.7798 4.80148 0
M  V30 13793 H 1284.66 5.95515 3.83103 0
M  V30 13794 H 1285.07 4.2153 3.75463 0
M  V30 13795 N 1284.47 -0.556076 1.47464 0
M  V30 13796 C 1285.71 -1.31515 1.54375 0
M  V30 13797 C 1286.05 -1.93106 0.205837 0
M  V30 13798 O 1285.32 -1.77927 -0.785643 0
M  V30 13799 C 1285.61 -2.4244 2.66261 0
M  V30 13800 C 1285.46 -1.8571 4.09673 0
M  V30 13801 C 1286.78 -3.4436 2.74051 0
M  V30 13802 H 1283.9 -0.476817 0.561974 0
M  V30 13803 H 1286.54 -0.622157 1.79525 0
M  V30 13804 H 1284.69 -3.01551 2.44948 0
M  V30 13805 H 1286.36 -1.30851 4.42353 0
M  V30 13806 H 1284.6 -1.16379 4.17898 0
M  V30 13807 H 1285.27 -2.65904 4.83735 0
M  V30 13808 H 1287.75 -2.95169 2.93282 0
M  V30 13809 H 1286.63 -4.194 3.54111 0
M  V30 13810 H 1286.89 -4.03281 1.81155 0
M  V30 13811 N 1285.95 -1.35615 -0.802897 0
M  V30 13812 C 1287.18 -1.32217 -1.59142 0
M  V30 13813 C 1287.59 0.0995496 -1.88537 0
M  V30 13814 O 1286.95 1.05258 -1.49087 0
M  V30 13815 C 1287 -2.13048 -2.92049 0
M  V30 13816 O 1286.72 -3.49677 -2.63927 0
M  V30 13817 C 1288.22 -2.17278 -3.864 0
M  V30 13818 H 1285.44 -0.454054 -0.49404 0
M  V30 13819 H 1287.98 -1.78521 -0.997516 0
M  V30 13820 H 1286.14 -1.70334 -3.47944 0
M  V30 13821 H 1286.55 -3.917 -3.48814 0
M  V30 13822 H 1288.03 -2.7822 -4.76758 0
M  V30 13823 H 1288.5 -1.17253 -4.23259 0
M  V30 13824 H 1289.11 -2.6017 -3.3644 0
M  V30 13825 N 1287.43 1.02549 -1.19673 0
M  V30 13826 C 1288.67 1.75408 -0.995732 0
M  V30 13827 C 1288.99 1.89773 0.473863 0
M  V30 13828 O 1290.19 2.59638 0.793762 0
M  V30 13829 C 1288.65 3.15444 -1.73273 0
M  V30 13830 C 1288.26 3.09121 -3.24266 0
M  V30 13831 C 1290 3.92575 -1.61509 0
M  V30 13832 C 1287.91 4.44109 -3.9054 0
M  V30 13833 H 1286.84 0.657569 -0.368944 0
M  V30 13834 H 1289.49 1.14739 -1.43203 0
M  V30 13835 H 1287.87 3.76601 -1.22425 0
M  V30 13836 H 1289.05 2.57325 -3.82257 0
M  V30 13837 H 1287.36 2.45485 -3.36342 0
M  V30 13838 H 1289.96 4.92428 -2.08372 0
M  V30 13839 H 1290.3 4.12382 -0.569804 0
M  V30 13840 H 1290.83 3.38027 -2.09721 0
M  V30 13841 H 1287.57 4.29506 -4.95182 0
M  V30 13842 H 1287.09 4.95947 -3.37337 0
M  V30 13843 H 1288.77 5.12982 -3.94282 0
M  V30 13844 N 1288.9 1.00119 1.21713 0
M  V30 13845 C 1289.87 0.563409 2.22167 0
M  V30 13846 C 1290.87 -0.35819 1.5676 0
M  V30 13847 O 1292.06 -0.149001 1.73562 0
M  V30 13848 C 1289.19 -0.179365 3.40428 0
M  V30 13849 H 1290.38 1.45189 2.62412 0
M  V30 13850 H 1287.93 0.789286 1.34907 0
M  V30 13851 H 1288.67 -1.08345 3.05666 0
M  V30 13852 H 1288.45 0.482471 3.8912 0
M  V30 13853 H 1289.94 -0.473537 4.14906 0
M  V30 13854 N 1290.38 -1.37203 0.775435 0
M  V30 13855 C 1291.63 -1.99207 0.340756 0
M  V30 13856 C 1291.95 -1.61861 -1.08747 0
M  V30 13857 O 1291.22 -0.88583 -1.74728 0
M  V30 13858 H 1289.8 -0.736803 0.123004 0
M  V30 13859 H 1292.46 -1.67625 0.994379 0
M  V30 13860 H 1291.56 -3.09243 0.421346 0
M  V30 13861 N 1291.86 -0.526279 -1.48553 0
M  V30 13862 C 1293.11 0.0111473 -2.01697 0
M  V30 13863 C 1293.42 1.35675 -1.40895 0
M  V30 13864 O 1294.63 1.98233 -1.85515 0
M  V30 13865 C 1293.08 0.0702721 -3.59831 0
M  V30 13866 C 1292.69 -1.27022 -4.29616 0
M  V30 13867 C 1294.44 0.556722 -4.20834 0
M  V30 13868 C 1292.34 -1.17188 -5.79673 0
M  V30 13869 H 1291.27 0.00793697 -0.753958 0
M  V30 13870 H 1293.92 -0.669503 -1.70851 0
M  V30 13871 H 1292.31 0.81592 -3.87503 0
M  V30 13872 H 1293.48 -2.03114 -4.1362 0
M  V30 13873 H 1291.79 -1.69211 -3.80469 0
M  V30 13874 H 1294.39 0.648205 -5.30756 0
M  V30 13875 H 1294.73 1.56163 -3.859 0
M  V30 13876 H 1295.27 -0.133132 -3.97577 0
M  V30 13877 H 1292.01 -2.15182 -6.19174 0
M  V30 13878 H 1291.53 -0.452259 -5.98093 0
M  V30 13879 H 1293.21 -0.861011 -6.41245 0
M  V30 13880 N 1293.34 1.5542 -0.261239 0
M  V30 13881 C 1294.3 2.20683 0.619011 0
M  V30 13882 C 1295.3 1.18042 1.09192 0
M  V30 13883 O 1296.49 1.43035 0.99432 0
M  V30 13884 C 1293.62 2.86179 1.85242 0
M  V30 13885 H 1294.82 2.99859 0.0493924 0
M  V30 13886 H 1292.37 1.56296 -0.0117687 0
M  V30 13887 H 1293.1 2.10978 2.4629 0
M  V30 13888 H 1292.89 3.61381 1.52138 0
M  V30 13889 H 1294.38 3.36081 2.47869 0
M  V30 13890 N 1294.82 -0.0116844 1.57596 0
M  V30 13891 C 1295.78 -0.991601 2.0664 0
M  V30 13892 C 1296.78 -1.27973 0.973629 0
M  V30 13893 O 1297.97 -1.22686 1.23668 0
M  V30 13894 C 1295.1 -2.31975 2.49801 0
M  V30 13895 H 1296.29 -0.567607 2.9448 0
M  V30 13896 H 1293.85 -0.258906 1.54141 0
M  V30 13897 H 1294.58 -2.79087 1.65169 0
M  V30 13898 H 1294.37 -2.12386 3.29598 0
M  V30 13899 H 1295.86 -3.02294 2.88112 0
M  V30 13900 N 1296.29 -1.55015 -0.284256 0
M  V30 13901 C 1297.54 -1.74744 -1.01532 0
M  V30 13902 C 1297.86 -0.545334 -1.87219 0
M  V30 13903 O 1297.13 0.440046 -1.90894 0
M  V30 13904 H 1295.71 -0.644382 -0.377864 0
M  V30 13905 H 1298.37 -1.92399 -0.311199 0
M  V30 13906 H 1297.47 -2.64369 -1.65878 0
M  V30 13907 N 1297.77 0.548248 -1.47757 0
M  V30 13908 C 1298.7 1.6705 -1.55466 0
M  V30 13909 C 1299.68 1.57444 -0.406208 0
M  V30 13910 O 1300.87 1.78176 -0.615268 0
M  V30 13911 C 1297.99 3.0535 -1.46558 0
M  V30 13912 C 1297.04 3.33372 -2.66017 0
M  V30 13913 S 1297.87 3.21643 -4.28143 0
M  V30 13914 C 1299.03 4.62421 -4.21803 0
M  V30 13915 H 1299.26 1.60258 -2.50409 0
M  V30 13916 H 1296.79 0.72978 -1.36065 0
M  V30 13917 H 1298.75 3.85118 -1.42106 0
M  V30 13918 H 1297.41 3.09599 -0.529838 0
M  V30 13919 H 1296.61 4.34218 -2.55873 0
M  V30 13920 H 1296.21 2.6124 -2.67638 0
M  V30 13921 H 1298.5 5.53561 -3.9061 0
M  V30 13922 H 1299.44 4.77621 -5.22766 0
M  V30 13923 H 1299.85 4.40887 -3.52532 0
M  V30 13924 N 1299.25 1.36039 0.795694 0
M  V30 13925 C 1300.67 1.16315 1.09284 0
M  V30 13926 C 1300.87 -0.017024 2.01493 0
M  V30 13927 O 1299.92 -0.684316 2.4305 0
M  V30 13928 C 1301.23 2.47113 1.71335 0
M  V30 13929 C 1302.78 2.5342 1.83705 0
M  V30 13930 C 1303.26 3.84289 2.49171 0
M  V30 13931 N 1304.75 3.856 2.56645 0
M  V30 13932 C 1305.48 4.83597 3.08094 0
M  V30 13933 N 1304.98 5.91985 3.59897 0
M  V30 13934 N 1306.77 4.71023 3.06748 0
M  V30 13935 H 1298.92 2.11611 0.182957 0
M  V30 13936 H 1301.19 0.937035 0.143771 0
M  V30 13937 H 1300.89 3.33708 1.11049 0
M  V30 13938 H 1300.77 2.62461 2.70914 0
M  V30 13939 H 1303.15 1.67247 2.43131 0
M  V30 13940 H 1303.23 2.41977 0.829495 0
M  V30 13941 H 1302.88 4.70865 1.90391 0
M  V30 13942 H 1302.81 3.93025 3.50484 0
M  V30 13943 H 1305.3 3.07291 2.19956 0
M  V30 13944 H 1305.61 6.6274 3.97487 0
M  V30 13945 H 1303.96 5.95662 3.58066 0
M  V30 13946 H 1307.15 3.8548 2.65561 0
M  V30 13947 H 1307.32 5.47555 3.46536 0
M  V30 13948 N 1300.73 -1.01913 1.20215 0
M  V30 13949 C 1301.68 -2.12516 0.945493 0
M  V30 13950 C 1302.67 -1.69091 -0.102243 0
M  V30 13951 O 1303.88 -1.79936 0.047888 0
M  V30 13952 H 1300.25 -0.694496 0.288409 0
M  V30 13953 H 1302.22 -2.31349 1.88468 0
M  V30 13954 C 1300.97 -3.43919 0.51137 0
M  V30 13955 H 1300.29 -3.77758 1.30916 0
M  V30 13956 H 1301.73 -4.22374 0.370981 0
M  V30 13957 C 1300.19 -3.27844 -0.775902 0
M  V30 13958 O 1300.72 -3.5734 -1.83496 0
M  V30 13959 N 1298.93 -2.81101 -0.73694 0
M  V30 13960 H 1298.48 -2.57296 0.125164 0
M  V30 13961 H 1298.43 -2.70726 -1.59859 0
M  V30 13962 N 1302.21 -1.00763 -1.2118 0
M  V30 13963 C 1303.43 -0.710746 -1.94309 0
M  V30 13964 C 1303.85 0.727103 -1.74237 0
M  V30 13965 O 1303.21 1.49223 -1.05065 0
M  V30 13966 C 1303.26 -1.02562 -3.46646 0
M  V30 13967 O 1302.98 -2.40699 -3.66054 0
M  V30 13968 C 1304.48 -0.748517 -4.36935 0
M  V30 13969 H 1301.7 -0.26171 -0.617858 0
M  V30 13970 H 1304.24 -1.34639 -1.53924 0
M  V30 13971 H 1302.4 -0.435537 -3.84944 0
M  V30 13972 H 1302.81 -2.51764 -4.60125 0
M  V30 13973 H 1304.29 -1.01899 -5.42513 0
M  V30 13974 H 1304.76 0.317423 -4.38051 0
M  V30 13975 H 1305.37 -1.32033 -4.04286 0
M  V30 13976 N 1303.68 1.3679 -0.7827 0
M  V30 13977 C 1304.93 1.99023 -0.351316 0
M  V30 13978 C 1305.25 1.62436 1.07887 0
M  V30 13979 O 1304.52 0.895084 1.74256 0
M  V30 13980 H 1303.1 0.736141 -0.126909 0
M  V30 13981 H 1305.77 1.67095 -1.00325 0
M  V30 13982 H 1304.86 3.09015 -0.43774 0
M  V30 13983 O 1305.2 0.675472 1.46696 0
M  V30 13984 H 1305.89 0.207859 1.92582 0
M  V30 END ATOM
M  V30 BEGIN BOND
M  V30 END BOND
M  V30 END CTAB
M  END
$$$$
