drugbank_target|P00914 Deoxyribodipyrimidine photo-lyase (DB03147)
 OpenBabel12092120263D

  0  0  0     0  0            999 V3000
M  V30 BEGIN CTAB
M  V30 COUNTS 7482 7585 0 0 0
M  V30 BEGIN ATOM
M  V30 1 H -0.908 1.98254 -0.117106 0
M  V30 2 N 0 1.576 0 0
M  V30 3 C 0.933 2.03868 1.02534 0
M  V30 4 C 1.911 0.928543 1.3348 0
M  V30 5 O 3.095 1.19667 1.45644 0
M  V30 6 C 0.222 2.43627 2.35294 0
M  V30 7 C -0.732 3.65373 2.2001 0
M  V30 8 S 0.101 5.13292 1.52614 0
M  V30 9 C 1.257 5.56322 2.86805 0
M  V30 10 H 1.49 2.90518 0.631377 0
M  V30 11 H -0.977 1.52953 0.210867 0
M  V30 12 H 0.981 2.67203 3.11629 0
M  V30 13 H -0.358 1.57376 2.7183 0
M  V30 14 H -1.165 3.90944 3.18086 0
M  V30 15 H -1.563 3.418 1.51819 0
M  V30 16 H 0.729 5.58782 3.83104 0
M  V30 17 H 1.672 6.56266 2.65933 0
M  V30 18 H 2.08 4.83886 2.90714 0
M  V30 19 N 1.4781 -0.272755 1.55222 0
M  V30 20 C 2.7061 -1.02255 1.79865 0
M  V30 21 C 3.1211 -1.79924 0.572088 0
M  V30 22 O 2.4781 -1.76638 -0.458842 0
M  V30 23 C 2.5291 -1.98094 3.02392 0
M  V30 24 O 2.2501 -1.23572 4.20311 0
M  V30 25 C 3.7511 -2.84884 3.39641 0
M  V30 26 H 0.9711 -0.302057 0.599168 0
M  V30 27 H 3.5151 -0.303465 2.02236 0
M  V30 28 H 1.6701 -2.65465 2.82147 0
M  V30 29 H 2.0841 -1.88172 4.89583 0
M  V30 30 H 3.5581 -3.47927 4.28545 0
M  V30 31 H 4.0351 -3.54665 2.59055 0
M  V30 32 H 4.6411 -2.23003 3.62146 0
M  V30 33 N 2.9562 -1.48159 -0.537278 0
M  V30 34 C 4.1842 -1.59454 -1.31841 0
M  V30 35 C 4.5992 -0.252065 -1.8711 0
M  V30 36 O 3.9562 0.757621 -1.66031 0
M  V30 37 C 4.0072 -2.63546 -2.47439 0
M  V30 38 O 3.7282 -3.92583 -1.94449 0
M  V30 39 C 5.2292 -2.85212 -3.39366 0
M  V30 40 H 2.4492 -0.53785 -0.401196 0
M  V30 41 H 4.9932 -1.93932 -0.648891 0
M  V30 42 H 3.1482 -2.31946 -3.1029 0
M  V30 43 H 3.5622 -4.49629 -2.70063 0
M  V30 44 H 5.0362 -3.61863 -4.16844 0
M  V30 45 H 5.5132 -1.93765 -3.94147 0
M  V30 46 H 6.1192 -3.18086 -2.82314 0
M  V30 47 N 4.4343 0.785586 -1.36625 0
M  V30 48 C 5.3843 1.88822 -1.27789 0
M  V30 49 C 6.3683 1.60014 -0.168579 0
M  V30 50 O 7.5603 1.72381 -0.401737 0
M  V30 51 C 4.6893 3.26092 -1.07327 0
M  V30 52 C 3.7753 3.60897 -2.22743 0
M  V30 53 N 4.1663 3.66982 -3.48077 0
M  V30 54 C 2.4643 3.90981 -2.14593 0
M  V30 55 C 3.1653 3.98137 -4.24101 0
M  V30 56 N 2.1413 4.13319 -3.53084 0
M  V30 57 H 5.9433 1.91759 -2.22723 0
M  V30 58 H 3.4573 0.981311 -1.29399 0
M  V30 59 H 5.4543 4.04954 -0.990842 0
M  V30 60 H 4.1143 3.24428 -0.132977 0
M  V30 61 H 5.1253 3.49531 -3.82163 0
M  V30 62 H 1.8023 3.9722 -1.2854 0
M  V30 63 H 3.1923 4.09737 -5.32509 0
M  V30 64 N 5.9124 1.20967 1.01018 0
M  V30 65 C 6.8424 0.988272 2.11555 0
M  V30 66 C 7.8234 -0.0849778 1.69888 0
M  V30 67 O 9.0084 0.0738202 1.9406 0
M  V30 68 C 6.1384 0.546528 3.42973 0
M  V30 69 C 5.0924 1.56375 3.9841 0
M  V30 70 C 4.4184 0.97842 5.25672 0
M  V30 71 C 5.7184 2.94922 4.31066 0
M  V30 72 H 7.4124 1.91276 2.30334 0
M  V30 73 H 4.9584 0.921073 1.1069 0
M  V30 74 H 6.9114 0.378839 4.19694 0
M  V30 75 H 5.6354 -0.413598 3.23971 0
M  V30 76 H 4.2944 1.71891 3.23804 0
M  V30 77 H 3.9424 0.0101688 5.02999 0
M  V30 78 H 3.6424 1.65784 5.63728 0
M  V30 79 H 5.1664 0.821939 6.05043 0
M  V30 80 H 6.5804 2.8288 4.9865 0
M  V30 81 H 4.9774 3.5983 4.80253 0
M  V30 82 H 6.0474 3.4616 3.39561 0
M  V30 83 N 7.3905 -1.2043 1.01659 0
M  V30 84 C 8.6365 -1.90079 0.706963 0
M  V30 85 C 8.9695 -1.78648 -0.761474 0
M  V30 86 O 8.2445 -1.17069 -1.55323 0
M  V30 87 C 8.5275 -3.41469 1.14327 0
M  V30 88 C 8.3805 -3.61833 2.67201 0
M  V30 89 C 9.6995 -4.34261 0.714529 0
M  V30 90 H 6.8185 -0.690254 0.2583 0
M  V30 91 H 9.4605 -1.41826 1.26433 0
M  V30 92 H 7.6105 -3.82696 0.669056 0
M  V30 93 H 9.2825 -3.2986 3.22475 0
M  V30 94 H 7.5255 -3.05304 3.08175 0
M  V30 95 H 8.1965 -4.67955 2.92783 0
M  V30 96 H 10.6725 -4.00682 1.12221 0
M  V30 97 H 9.5485 -5.38806 1.04784 0
M  V30 98 H 9.8095 -4.40431 -0.383799 0
M  V30 99 N 8.8686 -0.792821 -1.36206 0
M  V30 100 C 10.1146 -0.376415 -1.99887 0
M  V30 101 C 10.4696 1.04127 -1.61788 0
M  V30 102 O 9.7626 1.71004 -0.864193 0
M  V30 103 C 9.9566 -0.481501 -3.54142 0
M  V30 104 C 9.7856 -1.90786 -4.07223 0
M  V30 105 C 8.5556 -2.53322 -4.37214 0
M  V30 106 C 10.7536 -2.87048 -4.26741 0
M  V30 107 N 8.7356 -3.8751 -4.7614 0
M  V30 108 C 10.1066 -4.06077 -4.6851 0
M  V30 109 C 12.1616 -2.8406 -4.08918 0
M  V30 110 C 10.8646 -5.22532 -4.94321 0
M  V30 111 C 12.8906 -3.99705 -4.35878 0
M  V30 112 C 12.2526 -5.1748 -4.77906 0
M  V30 113 H 8.3516 -0.185226 -0.759747 0
M  V30 114 H 10.9356 -1.03114 -1.65153 0
M  V30 115 H 9.1066 0.143154 -3.88136 0
M  V30 116 H 10.8386 -0.0410128 -4.04679 0
M  V30 117 H 7.5936 -2.04777 -4.2704 0
M  V30 118 H 8.0176 -4.5656 -4.99882 0
M  V30 119 H 12.6596 -1.94165 -3.75579 0
M  V30 120 H 10.3776 -6.1301 -5.2654 0
M  V30 121 H 13.9636 -3.98758 -4.23655 0
M  V30 122 H 12.8436 -6.05478 -4.98363 0
M  V30 123 N 10.3467 1.47872 -0.545128 0
M  V30 124 C 11.5937 2.02493 -0.0165858 0
M  V30 125 C 11.9217 1.42073 1.32836 0
M  V30 126 O 11.1767 0.561459 1.87473 0
M  V30 127 C 11.4757 3.57131 0.13867 0
M  V30 128 C 11.1417 4.36411 -1.13384 0
M  V30 129 C 9.8037 4.57792 -1.48256 0
M  V30 130 C 12.1557 4.82223 -1.97764 0
M  V30 131 C 9.4837 5.22233 -2.67376 0
M  V30 132 C 11.8357 5.47977 -3.16076 0
M  V30 133 C 10.4997 5.67593 -3.51275 0
M  V30 134 H 9.7697 0.740975 -0.00606918 0
M  V30 135 H 12.4167 1.77683 -0.714207 0
M  V30 136 H 10.7217 3.80865 0.919172 0
M  V30 137 H 12.4187 3.97031 0.562782 0
M  V30 138 H 9.0087 4.2004 -0.852297 0
M  V30 139 H 13.1927 4.65493 -1.72132 0
M  V30 140 H 8.4487 5.35616 -2.94831 0
M  V30 141 H 12.6227 5.8244 -3.81755 0
M  V30 142 H 10.2497 6.17298 -4.43675 0
M  V30 143 N 11.8248 0.280983 1.55075 0
M  V30 144 C 13.2408 -0.0729964 1.59433 0
M  V30 145 C 13.4408 -1.5411 1.29817 0
M  V30 146 O 12.4968 -2.29086 1.06187 0
M  V30 147 C 13.8098 0.306921 2.9913 0
M  V30 148 C 15.3578 0.254023 3.11968 0
M  V30 149 C 15.8328 0.608467 4.5394 0
M  V30 150 N 17.3238 0.560241 4.59799 0
M  V30 151 C 18.0588 0.80722 5.6769 0
M  V30 152 N 17.5548 1.11912 6.83701 0
M  V30 153 N 19.3478 0.735623 5.57266 0
M  V30 154 H 11.4988 1.238 1.7259 0
M  V30 155 H 13.7618 0.500547 0.805082 0
M  V30 156 H 13.4678 1.32816 3.25657 0
M  V30 157 H 13.3418 -0.349363 3.75579 0
M  V30 158 H 15.7288 -0.75794 2.852 0
M  V30 159 H 15.8098 0.944649 2.37718 0
M  V30 160 H 15.4538 1.61814 4.81434 0
M  V30 161 H 15.3838 -0.104013 5.26497 0
M  V30 162 H 17.8748 0.329288 3.76463 0
M  V30 163 H 18.1878 1.29409 7.61888 0
M  V30 164 H 16.5328 1.15695 6.85303 0
M  V30 165 H 19.7238 0.491752 4.6551 0
M  V30 166 H 19.8968 0.931482 6.4127 0
M  V30 167 N 13.3029 -1.57598 0.00835791 0
M  V30 168 C 14.2349 -2.05811 -1.00868 0
M  V30 169 C 15.2479 -0.977579 -1.30182 0
M  V30 170 O 16.4369 -1.25421 -1.27011 0
M  V30 171 C 13.5369 -2.45016 -2.34137 0
M  V30 172 C 12.7099 -3.75903 -2.23643 0
M  V30 173 C 11.7689 -4.01884 -3.3967 0
M  V30 174 O 10.7949 -4.72433 -3.17483 0
M  V30 175 N 11.9969 -3.50432 -4.62793 0
M  V30 176 H 14.7619 -2.93684 -0.597458 0
M  V30 177 H 12.3229 -1.60909 -0.178852 0
M  V30 178 H 14.3149 -2.59506 -3.10546 0
M  V30 179 H 12.8849 -1.62618 -2.66972 0
M  V30 180 H 12.1049 -3.7141 -1.32091 0
M  V30 181 H 13.3929 -4.61695 -2.13812 0
M  V30 182 H 12.7909 -2.93317 -4.83716 0
M  V30 183 H 11.3479 -3.70236 -5.3644 0
M  V30 184 N 14.781 0.264519 -1.55364 0
M  V30 185 C 16.058 1.01677 -1.67096 0
M  V30 186 C 16.438 2.03996 -0.543015 0
M  V30 187 O 15.786 2.23907 0.45585 0
M  V30 188 C 15.996 1.66596 -3.0667 0
M  V30 189 C 17.344 2.17442 -3.64697 0
M  V30 190 O 18.368 1.76568 -3.09358 0
M  V30 191 O 17.227 2.92439 -4.61673 0
M  V30 192 H 14.321 0.472161 -0.678965 0
M  V30 193 H 16.867 0.259703 -1.67701 0
M  V30 194 H 15.639 0.924962 -3.80211 0
M  V30 195 H 15.262 2.48968 -3.10001 0
M  V30 196 N 16.2591 1.48442 0.529413 0
M  V30 197 C 17.1891 1.65902 1.64313 0
M  V30 198 C 18.1701 0.507897 1.6234 0
M  V30 199 O 19.3551 0.740503 1.79528 0
M  V30 200 C 16.4851 1.69911 3.02898 0
M  V30 201 C 15.4391 2.8453 3.19729 0
M  V30 202 C 14.7651 2.73629 4.59381 0
M  V30 203 C 16.0651 4.25821 3.02447 0
M  V30 204 H 17.7591 2.5914 1.49955 0
M  V30 205 H 15.3051 1.24709 0.719982 0
M  V30 206 H 17.2581 1.80715 3.80684 0
M  V30 207 H 15.9821 0.732524 3.18279 0
M  V30 208 H 14.6411 2.73283 2.44361 0
M  V30 209 H 14.2891 1.74938 4.71599 0
M  V30 210 H 13.9891 3.50541 4.71588 0
M  V30 211 H 15.5131 2.86401 5.39265 0
M  V30 212 H 16.9271 4.37898 3.70024 0
M  V30 213 H 15.3241 5.03735 3.26146 0
M  V30 214 H 16.3941 4.42244 1.98867 0
M  V30 215 N 17.7372 -0.778329 1.37039 0
M  V30 216 C 19.1532 -1.07796 1.17695 0
M  V30 217 C 19.3532 -2.01498 0.00860115 0
M  V30 218 O 18.4092 -2.43901 -0.653352 0
M  V30 219 C 19.7222 -1.68178 2.49272 0
M  V30 220 C 21.2702 -1.80467 2.55735 0
M  V30 221 C 21.7452 -2.44263 3.87427 0
M  V30 222 N 23.2362 -2.51721 3.88833 0
M  V30 223 C 23.9712 -3.01919 4.87476 0
M  V30 224 N 23.4672 -3.5234 5.96513 0
M  V30 225 N 25.2602 -3.00733 4.74885 0
M  V30 226 H 17.4112 -0.156032 2.11826 0
M  V30 227 H 19.6742 -0.131844 0.938787 0
M  V30 228 H 19.3802 -1.06796 3.35093 0
M  V30 229 H 19.2542 -2.67554 2.65885 0
M  V30 230 H 21.6412 -2.40984 1.70325 0
M  V30 231 H 21.7222 -0.798656 2.43013 0
M  V30 232 H 21.3662 -1.84388 4.73248 0
M  V30 233 H 21.2962 -3.45458 3.9745 0
M  V30 234 H 23.7872 -2.1603 3.10063 0
M  V30 235 H 24.1002 -3.89027 6.67741 0
M  V30 236 H 22.4452 -3.50462 6.00168 0
M  V30 237 H 25.6362 -2.60638 3.88826 0
M  V30 238 H 25.8092 -3.39545 5.51918 0
M  V30 239 N 19.2153 -1.21501 -1.00376 0
M  V30 240 C 20.1453 -0.999478 -2.11028 0
M  V30 241 C 21.1263 0.0759671 -1.6993 0
M  V30 242 O 22.3113 -0.0841106 -1.94018 0
M  V30 243 C 19.4413 -0.564709 -3.42678 0
M  V30 244 C 18.3953 -1.58486 -3.97576 0
M  V30 245 C 17.7213 -1.00628 -5.25146 0
M  V30 246 C 19.0213 -2.97204 -4.29496 0
M  V30 247 H 20.7153 -1.92495 -2.29317 0
M  V30 248 H 18.2613 -0.92693 -1.102 0
M  V30 249 H 20.2143 -0.401091 -4.19487 0
M  V30 250 H 18.9383 0.396411 -3.24185 0
M  V30 251 H 17.5973 -1.73606 -3.22888 0
M  V30 252 H 17.2453 -0.0368439 -5.02987 0
M  V30 253 H 16.9453 -1.68771 -5.62841 0
M  V30 254 H 18.4693 -0.854015 -6.04598 0
M  V30 255 H 19.8833 -2.8552 -4.97143 0
M  V30 256 H 18.2803 -3.62372 -4.78338 0
M  V30 257 H 19.3503 -3.47956 -3.3772 0
M  V30 258 N 20.6934 1.19889 -1.02296 0
M  V30 259 C 21.6434 2.20777 -0.56934 0
M  V30 260 C 22.6274 1.56379 0.378741 0
M  V30 261 O 23.8194 1.75859 0.200673 0
M  V30 262 C 20.9484 3.43196 0.0845077 0
M  V30 263 C 20.0344 4.14749 -0.88566 0
M  V30 264 N 20.4254 4.62584 -2.04573 0
M  V30 265 C 18.7234 4.40347 -0.707835 0
M  V30 266 C 19.4244 5.17466 -2.65714 0
M  V30 267 N 18.4004 5.0791 -1.93723 0
M  V30 268 H 22.2024 2.55434 -1.45365 0
M  V30 269 H 19.7164 1.35897 -0.88915 0
M  V30 270 H 21.7134 4.14707 0.427067 0
M  V30 271 H 20.3734 3.10042 0.964574 0
M  V30 272 H 21.3844 4.57597 -2.4254 0
M  V30 273 H 18.0614 4.17317 0.12364 0
M  V30 274 H 19.4514 5.64808 -3.63925 0
M  V30 275 N 22.1715 0.800033 1.35784 0
M  V30 276 C 23.4485 0.30088 1.93272 0
M  V30 277 C 23.8285 -1.20857 1.73081 0
M  V30 278 O 23.1765 -2.00502 1.09596 0
M  V30 279 C 23.3865 0.70511 3.41803 0
M  V30 280 C 24.7345 0.690871 4.18942 0
M  V30 281 O 25.7585 0.646244 3.50289 0
M  V30 282 O 24.6175 0.74332 5.41421 0
M  V30 283 H 21.7115 0.0771605 0.823393 0
M  V30 284 H 24.2575 0.88329 1.449 0
M  V30 285 H 23.0295 1.74571 3.50201 0
M  V30 286 H 22.6525 0.0971541 3.97481 0
M  V30 287 N 23.6496 -1.47581 0.552962 0
M  V30 288 C 24.5976 -2.31648 -0.21023 0
M  V30 289 C 25.5916 -1.42663 -0.913432 0
M  V30 290 O 26.7976 -1.5945 -0.835201 0
M  V30 291 H 23.1726 -0.746989 -0.0866676 0
M  V30 292 H 25.1436 -2.93869 0.518051 0
M  V30 293 C 23.8926 -3.25226 -1.22976 0
M  V30 294 H 23.2156 -3.93658 -0.698077 0
M  V30 295 H 24.6556 -3.86889 -1.73473 0
M  V30 296 C 23.1146 -2.48448 -2.27542 0
M  V30 297 O 23.6446 -2.22585 -3.34393 0
M  V30 298 N 21.8506 -2.09532 -2.01357 0
M  V30 299 H 21.3976 -2.30765 -1.14478 0
M  V30 300 H 21.3556 -1.58476 -2.71538 0
M  V30 301 N 25.1277 -0.289203 -1.54924 0
M  V30 302 C 26.0577 0.58549 -2.2604 0
M  V30 303 C 27.0387 1.14753 -1.25562 0
M  V30 304 O 28.2237 1.17906 -1.54311 0
M  V30 305 C 25.3537 1.76305 -2.99222 0
M  V30 306 C 24.3077 1.33191 -4.06748 0
M  V30 307 C 23.6337 2.5937 -4.6758 0
M  V30 308 C 24.9337 0.471775 -5.20165 0
M  V30 309 H 26.6277 -0.00763532 -2.99399 0
M  V30 310 H 24.1737 -0.00511229 -1.43999 0
M  V30 311 H 26.1267 2.38097 -3.47689 0
M  V30 312 H 24.8507 2.38223 -2.23422 0
M  V30 313 H 23.5097 0.737121 -3.59113 0
M  V30 314 H 23.1577 3.19576 -3.88433 0
M  V30 315 H 22.8577 2.31228 -5.40192 0
M  V30 316 H 24.3817 3.21985 -5.18804 0
M  V30 317 H 25.7957 0.995056 -5.64599 0
M  V30 318 H 24.1927 0.284639 -5.99425 0
M  V30 319 H 25.2627 -0.506041 -4.82252 0
M  V30 320 N 26.6058 1.57591 -0.0167156 0
M  V30 321 C 27.5688 2.08393 0.954204 0
M  V30 322 C 28.5688 0.996531 1.26198 0
M  V30 323 O 29.7588 1.25858 1.20438 0
M  V30 324 C 26.8908 2.5394 2.27436 0
M  V30 325 H 28.0838 2.95455 0.514451 0
M  V30 326 H 25.6368 1.54582 0.231089 0
M  V30 327 H 26.3718 1.70171 2.76066 0
M  V30 328 H 26.1568 3.33371 2.06412 0
M  V30 329 H 27.6468 2.93512 2.97053 0
M  V30 330 N 28.0839 -0.256276 1.55502 0
M  V30 331 C 29.0139 -1.32102 1.92539 0
M  V30 332 C 29.9949 -1.50684 0.789194 0
M  V30 333 O 31.1799 -1.63449 1.04872 0
M  V30 334 C 28.3099 -2.67752 2.21192 0
M  V30 335 C 27.2639 -2.63878 3.36975 0
M  V30 336 C 26.5899 -4.03236 3.51147 0
M  V30 337 C 27.8899 -2.21682 4.72921 0
M  V30 338 H 29.5839 -1.01351 2.81724 0
M  V30 339 H 27.1299 -0.486105 1.35547 0
M  V30 340 H 29.0829 -3.42365 2.45691 0
M  V30 341 H 27.8069 -3.0012 1.28824 0
M  V30 342 H 26.4659 -1.91722 3.12471 0
M  V30 343 H 26.1139 -4.32854 2.56216 0
M  V30 344 H 25.8139 -4.01535 4.29003 0
M  V30 345 H 27.3379 -4.79563 3.77957 0
M  V30 346 H 28.7519 -2.86023 4.96854 0
M  V30 347 H 27.1489 -2.3111 5.53812 0
M  V30 348 H 28.2189 -1.16833 4.70615 0
M  V30 349 N 29.562 -1.4872 -0.521534 0
M  V30 350 C 30.525 -1.63379 -1.60748 0
M  V30 351 C 31.525 -0.50661 -1.52611 0
M  V30 352 O 32.715 -0.772601 -1.5613 0
M  V30 353 C 29.847 -1.61192 -3.00383 0
M  V30 354 H 31.04 -2.60217 -1.49087 0
M  V30 355 H 28.593 -1.37444 -0.744235 0
M  V30 356 H 29.328 -0.65863 -3.17541 0
M  V30 357 H 29.113 -2.43032 -3.07698 0
M  V30 358 H 30.603 -1.7466 -3.7932 0
M  V30 359 N 31.0401 0.771051 -1.3745 0
M  V30 360 C 32.0031 1.86598 -1.33093 0
M  V30 361 C 33.0031 1.59076 -0.234845 0
M  V30 362 O 34.1931 1.67145 -0.490732 0
M  V30 363 C 31.3251 3.23747 -1.06773 0
M  V30 364 H 32.5181 1.91873 -2.30488 0
M  V30 365 H 30.0711 0.970876 -1.2249 0
M  V30 366 H 30.8061 3.24148 -0.099129 0
M  V30 367 H 30.5911 3.45115 -1.86112 0
M  V30 368 H 32.0811 4.03824 -1.06377 0
M  V30 369 N 32.5182 1.22032 0.997298 0
M  V30 370 C 33.4812 0.987909 2.06816 0
M  V30 371 C 34.4812 -0.0440084 1.6074 0
M  V30 372 O 35.6712 0.194053 1.73116 0
M  V30 373 C 32.8032 0.49132 3.37341 0
M  V30 374 H 33.9962 1.93803 2.28868 0
M  V30 375 H 31.5492 1.03838 1.16822 0
M  V30 376 H 32.2842 -0.463364 3.20973 0
M  V30 377 H 32.0692 1.23575 3.72118 0
M  V30 378 H 33.5592 0.348824 4.16141 0
M  V30 379 N 33.9963 -1.19345 1.0293 0
M  V30 380 C 35.2363 -1.90738 0.734727 0
M  V30 381 C 35.6003 -1.7785 -0.723414 0
M  V30 382 O 36.8013 -2.43844 -1.13108 0
M  V30 383 C 35.0723 -3.37569 1.17396 0
M  V30 384 S 36.6313 -4.27176 1.00329 0
M  V30 385 H 33.4493 -0.658771 0.267474 0
M  V30 386 H 36.0513 -1.4428 1.31922 0
M  V30 387 H 34.7553 -3.44475 2.23081 0
M  V30 388 H 34.2863 -3.8906 0.582772 0
M  V30 389 H 36.3013 -4.96126 -0.0859152 0
M  V30 390 N 35.4744 -0.807222 -1.35358 0
M  V30 391 C 36.8904 -0.491038 -1.51858 0
M  V30 392 C 37.0904 0.987648 -1.75635 0
M  V30 393 O 36.1464 1.77265 -1.79815 0
M  V30 394 C 37.4594 -1.33695 -2.69344 0
M  V30 395 C 39.0074 -1.33246 -2.83222 0
M  V30 396 C 39.4824 -2.1625 -4.03733 0
M  V30 397 N 40.9734 -2.1379 -4.10911 0
M  V30 398 C 41.7084 -2.74772 -5.03277 0
M  V30 399 N 41.2044 -3.44684 -6.0097 0
M  V30 400 N 42.9974 -2.6441 -4.96028 0
M  V30 401 H 35.1484 -1.76485 -1.18181 0
M  V30 402 H 37.4114 -0.751199 -0.578276 0
M  V30 403 H 37.1174 -2.38634 -2.58354 0
M  V30 404 H 36.9914 -0.990618 -3.6396 0
M  V30 405 H 39.3784 -0.290911 -2.93663 0
M  V30 406 H 39.4594 -1.71866 -1.89461 0
M  V30 407 H 39.1034 -3.20445 -3.94052 0
M  V30 408 H 39.0334 -1.74989 -4.96675 0
M  V30 409 H 41.5244 -1.62923 -3.40976 0
M  V30 410 H 41.8374 -3.88501 -6.68047 0
M  V30 411 H 40.1824 -3.48788 -6.01142 0
M  V30 412 H 43.3734 -2.0938 -4.18662 0
M  V30 413 H 43.5464 -3.12225 -5.6782 0
M  V30 414 N 36.9525 1.47285 -0.560781 0
M  V30 415 C 37.9005 2.31756 0.197942 0
M  V30 416 C 38.8945 1.43146 0.905854 0
M  V30 417 O 40.1005 1.59891 0.826733 0
M  V30 418 H 36.4755 0.747438 0.0827049 0
M  V30 419 H 38.4465 2.9359 -0.533629 0
M  V30 420 C 37.1955 3.25874 1.21249 0
M  V30 421 H 36.5185 3.94023 0.67719 0
M  V30 422 H 37.9585 3.87803 1.71419 0
M  V30 423 C 36.4175 2.49651 2.26221 0
M  V30 424 O 36.9475 2.24355 3.33208 0
M  V30 425 N 35.1535 2.10597 2.00243 0
M  V30 426 H 34.7005 2.31369 1.13252 0
M  V30 427 H 34.6585 1.59913 2.70694 0
M  V30 428 N 38.4306 0.297415 1.54768 0
M  V30 429 C 39.6556 -0.318435 2.04941 0
M  V30 430 C 40.0806 -1.4701 1.17345 0
M  V30 431 O 39.4386 -1.80436 0.176758 0
M  V30 432 C 39.4866 -0.755749 3.52592 0
M  V30 433 O 38.5906 -1.86088 3.68028 0
M  V30 434 H 37.9316 -0.062421 0.661059 0
M  V30 435 H 40.4616 0.438215 1.99852 0
M  V30 436 H 40.4716 -1.04552 3.94376 0
M  V30 437 H 39.1466 0.0867233 4.1581 0
M  V30 438 H 37.7236 -1.57193 3.38149 0
M  V30 439 N 39.9087 -1.5758 0.0250728 0
M  V30 440 C 41.1337 -1.96337 -0.668317 0
M  V30 441 C 41.5587 -0.901314 -1.651 0
M  V30 442 O 40.9167 0.138187 -1.80773 0
M  V30 443 C 40.9647 -3.34191 -1.35457 0
M  V30 444 O 40.0687 -3.30269 -2.46974 0
M  V30 445 H 39.4097 -0.640281 -0.175887 0
M  V30 446 H 41.9397 -2.0442 0.0857224 0
M  V30 447 H 41.9497 -3.70331 -1.71228 0
M  V30 448 H 40.6247 -4.11036 -0.634218 0
M  V30 449 H 39.2017 -3.05841 -2.13344 0
M  V30 450 N 41.3868 0.248026 -1.55636 0
M  V30 451 C 42.3498 1.29044 -1.89421 0
M  V30 452 C 43.3498 1.41134 -0.770581 0
M  V30 453 O 44.5398 1.39854 -1.03858 0
M  V30 454 C 41.6718 2.66831 -2.12165 0
M  V30 455 H 42.8648 1.00305 -2.82629 0
M  V30 456 H 40.4178 0.487265 -1.48511 0
M  V30 457 H 41.1528 3.00711 -1.21422 0
M  V30 458 H 40.9378 2.59438 -2.93997 0
M  V30 459 H 42.4278 3.42103 -2.3949 0
M  V30 460 N 42.8649 1.48995 0.513639 0
M  V30 461 C 44.2809 1.35478 0.843682 0
M  V30 462 C 44.4809 0.378213 1.97919 0
M  V30 463 O 43.5369 -0.194689 2.51748 0
M  V30 464 C 44.8499 2.75901 1.1958 0
M  V30 465 C 46.3979 2.84509 1.30474 0
M  V30 466 C 46.8729 4.25671 1.69021 0
M  V30 467 N 48.3639 4.28422 1.76094 0
M  V30 468 C 49.0989 5.34601 2.07338 0
M  V30 469 N 48.5949 6.5104 2.36894 0
M  V30 470 N 50.3879 5.22007 2.08483 0
M  V30 471 H 42.5389 2.11092 -0.235328 0
M  V30 472 H 44.8019 0.947039 -0.0426669 0
M  V30 473 H 44.5079 3.49001 0.434913 0
M  V30 474 H 44.3819 3.10467 2.1422 0
M  V30 475 H 46.7689 2.11655 2.05637 0
M  V30 476 H 46.8499 2.53542 0.339155 0
M  V30 477 H 46.4939 4.99048 0.944135 0
M  V30 478 H 46.4239 4.54094 2.66658 0
M  V30 479 H 48.9149 3.44441 1.55464 0
M  V30 480 H 49.2279 7.2779 2.59887 0
M  V30 481 H 47.5729 6.54287 2.34378 0
M  V30 482 H 50.7639 4.30051 1.84861 0
M  V30 483 H 50.9369 6.04854 2.325 0
M  V30 484 N 44.343 -0.763751 1.37857 0
M  V30 485 C 45.589 -1.52483 1.33704 0
M  V30 486 C 45.922 -1.94051 -0.0759612 0
M  V30 487 O 45.197 -1.64675 -1.03501 0
M  V30 488 C 45.48 -2.78441 2.28348 0
M  V30 489 C 45.333 -2.43075 3.78463 0
M  V30 490 C 46.652 -3.80415 2.21298 0
M  V30 491 H 43.771 -0.553169 0.487005 0
M  V30 492 H 46.413 -0.875562 1.68624 0
M  V30 493 H 44.563 -3.33842 1.987 0
M  V30 494 H 46.235 -1.93527 4.18742 0
M  V30 495 H 44.478 -1.75666 3.96641 0
M  V30 496 H 45.149 -3.33149 4.40132 0
M  V30 497 H 47.625 -3.34527 2.47449 0
M  V30 498 H 46.501 -4.66257 2.89647 0
M  V30 499 H 46.762 -4.25262 1.20849 0
M  V30 500 N 45.8211 -1.22559 -0.990812 0
M  V30 501 C 46.7511 -1.0218 -2.09956 0
M  V30 502 C 47.7321 0.0579394 -1.70001 0
M  V30 503 O 48.9171 -0.104684 -1.93918 0
M  V30 504 C 46.0471 -0.601023 -3.4206 0
M  V30 505 C 45.0011 -1.62694 -3.95872 0
M  V30 506 C 44.3271 -1.06193 -5.24049 0
M  V30 507 C 45.6271 -3.01743 -4.2632 0
M  V30 508 H 47.3211 -1.94916 -2.27262 0
M  V30 509 H 44.8671 -0.938566 -1.09211 0
M  V30 510 H 46.8201 -0.445561 -4.19038 0
M  V30 511 H 45.5441 0.362005 -3.24588 0
M  V30 512 H 44.2031 -1.77021 -3.21028 0
M  V30 513 H 43.8511 -0.0901903 -5.02919 0
M  V30 514 H 43.5511 -1.74732 -5.61019 0
M  V30 515 H 45.0751 -0.918092 -6.03658 0
M  V30 516 H 46.4891 -2.90777 -4.94087 0
M  V30 517 H 44.8861 -3.67425 -4.74467 0
M  V30 518 H 45.9561 -3.51518 -3.34011 0
M  V30 519 N 47.2992 1.18797 -1.03562 0
M  V30 520 C 48.2622 2.20464 -0.626769 0
M  V30 521 C 49.2622 1.57721 0.313173 0
M  V30 522 O 50.4522 1.73917 0.0992615 0
M  V30 523 C 47.5842 3.40802 0.0818498 0
M  V30 524 H 48.7772 2.58149 -1.5264 0
M  V30 525 H 46.3302 1.32593 -0.827578 0
M  V30 526 H 47.0652 3.08642 0.995518 0
M  V30 527 H 46.8502 3.8758 -0.593652 0
M  V30 528 H 48.3402 4.16092 0.354584 0
M  V30 529 N 48.7773 0.814389 1.34928 0
M  V30 530 C 49.7073 0.244827 2.32213 0
M  V30 531 C 50.6883 -0.634024 1.57842 0
M  V30 532 O 51.8733 -0.562676 1.8587 0
M  V30 533 C 49.0033 -0.601106 3.42058 0
M  V30 534 C 47.9573 0.179896 4.27622 0
M  V30 535 C 47.2833 -0.788237 5.28858 0
M  V30 536 C 48.5833 1.38329 5.03649 0
M  V30 537 H 50.2773 1.05763 2.80097 0
M  V30 538 H 47.8233 0.510029 1.34665 0
M  V30 539 H 49.7763 -1.00968 4.09125 0
M  V30 540 H 48.5003 -1.44688 2.92802 0
M  V30 541 H 47.1593 0.569739 3.62146 0
M  V30 542 H 46.8073 -1.62973 4.75866 0
M  V30 543 H 46.5073 -0.269942 5.8698 0
M  V30 544 H 48.0313 -1.19485 5.98795 0
M  V30 545 H 49.4453 1.04918 5.63618 0
M  V30 546 H 47.8423 1.83662 5.71304 0
M  V30 547 H 48.9123 2.16592 4.33839 0
M  V30 548 N 50.2554 -1.46986 0.568584 0
M  V30 549 C 51.4854 -2.0653 0.0539173 0
M  V30 550 C 51.8934 -1.42004 -1.25026 0
M  V30 551 O 51.2364 -0.514541 -1.76347 0
M  V30 552 C 51.2984 -3.58938 -0.200854 0
M  V30 553 C 50.9624 -4.45572 1.01559 0
M  V30 554 C 51.9594 -4.82986 1.92407 0
M  V30 555 C 49.6444 -4.8692 1.23346 0
M  V30 556 C 51.6384 -5.60559 3.03402 0
M  V30 557 C 49.3254 -5.64255 2.34649 0
M  V30 558 C 50.3234 -6.00986 3.24507 0
M  V30 559 O 50.0114 -6.76761 4.33878 0
M  V30 560 H 49.7434 -0.674292 0.0480234 0
M  V30 561 H 52.2974 -1.89812 0.784896 0
M  V30 562 H 50.5274 -3.73911 -0.986279 0
M  V30 563 H 52.2164 -4.0046 -0.662294 0
M  V30 564 H 52.9824 -4.51633 1.76785 0
M  V30 565 H 48.8614 -4.57789 0.543178 0
M  V30 566 H 52.4054 -5.89147 3.73565 0
M  V30 567 H 48.3024 -5.95021 2.5024 0
M  V30 568 H 49.0704 -6.95168 4.32068 0
M  V30 569 N 51.7335 -0.305618 -1.54608 0
M  V30 570 C 52.9825 0.303098 -1.9941 0
M  V30 571 C 53.2955 1.54648 -1.19764 0
M  V30 572 O 54.5015 2.23007 -1.54855 0
M  V30 573 C 52.9575 0.590588 -3.55021 0
M  V30 574 C 52.5655 -0.634719 -4.43481 0
M  V30 575 C 54.3095 1.16025 -4.08336 0
M  V30 576 C 52.2165 -0.320126 -5.90533 0
M  V30 577 H 51.1465 0.117031 -0.744862 0
M  V30 578 H 53.7975 -0.415045 -1.78745 0
M  V30 579 H 52.1795 1.36845 -3.71604 0
M  V30 580 H 53.3535 -1.41079 -4.38672 0
M  V30 581 H 51.6685 -1.12333 -4.00962 0
M  V30 582 H 54.2655 1.40994 -5.15776 0
M  V30 583 H 54.6085 2.10397 -3.5922 0
M  V30 584 H 55.1415 0.443985 -3.95315 0
M  V30 585 H 51.8805 -1.23254 -6.43808 0
M  V30 586 H 51.4005 0.418579 -5.98338 0
M  V30 587 H 53.0795 0.0766241 -6.46955 0
M  V30 588 N 53.2116 1.57565 -0.0334293 0
M  V30 589 C 54.1746 2.09393 0.932048 0
M  V30 590 C 55.1746 1.00986 1.25134 0
M  V30 591 O 56.3646 1.27129 1.19096 0
M  V30 592 C 53.4966 2.56338 2.2473 0
M  V30 593 H 54.6896 2.95984 0.483085 0
M  V30 594 H 52.2426 1.54819 0.21468 0
M  V30 595 H 52.9776 1.7309 2.74245 0
M  V30 596 H 52.7626 3.35542 2.02865 0
M  V30 597 H 54.2526 2.96646 2.93923 0
M  V30 598 N 54.6897 -0.239769 1.55765 0
M  V30 599 C 55.9177 -0.98417 1.81994 0
M  V30 600 C 56.3327 -1.7867 0.610124 0
M  V30 601 O 55.6897 -1.77571 -0.421271 0
M  V30 602 C 55.7407 -1.91635 3.06526 0
M  V30 603 O 55.4617 -1.14629 4.22838 0
M  V30 604 C 56.9627 -2.77616 3.45607 0
M  V30 605 H 54.1827 -0.28928 0.605441 0
M  V30 606 H 56.7267 -0.260499 2.02834 0
M  V30 607 H 54.8817 -2.5942 2.87715 0
M  V30 608 H 55.2957 -1.77745 4.93464 0
M  V30 609 H 56.7697 -3.38759 4.35828 0
M  V30 610 H 57.2467 -3.4909 2.6652 0
M  V30 611 H 57.8527 -2.15271 3.66795 0
M  V30 612 N 56.1678 -1.49265 -0.50573 0
M  V30 613 C 57.5788 -1.51769 -1.08734 0
M  V30 614 C 57.9298 -0.301192 -1.93874 0
M  V30 615 O 57.0548 0.589456 -2.08217 0
M  V30 616 C 57.6498 -2.75017 -1.97867 0
M  V30 617 C 56.2088 -2.80314 -2.51199 0
M  V30 618 C 55.3558 -2.4562 -1.28709 0
M  V30 619 H 58.3068 -1.56031 -0.289855 0
M  V30 620 H 58.3278 -2.5491 -2.82491 0
M  V30 621 H 57.8398 -3.63539 -1.35873 0
M  V30 622 H 55.9408 -1.96061 -3.16845 0
M  V30 623 H 56.0538 -3.82366 -2.88675 0
M  V30 624 H 54.4178 -1.97297 -1.61078 0
M  V30 625 H 55.2008 -3.36411 -0.6843 0
M  V30 626 N 57.6459 0.756429 -1.3826 0
M  V30 627 C 59.0619 1.0591 -1.19395 0
M  V30 628 C 59.2619 2.01459 -0.0406567 0
M  V30 629 O 58.3179 2.44909 0.614467 0
M  V30 630 C 59.6309 1.64191 -2.51916 0
M  V30 631 C 61.1789 1.76376 -2.58574 0
M  V30 632 C 61.6539 2.38069 -3.91264 0
M  V30 633 N 63.1449 2.45503 -3.92788 0
M  V30 634 C 63.8799 2.94126 -4.92217 0
M  V30 635 N 63.3759 3.42805 -6.02043 0
M  V30 636 N 65.1689 2.9314 -4.7961 0
M  V30 637 H 57.3199 0.122313 -2.12048 0
M  V30 638 H 59.5829 0.116892 -0.940766 0
M  V30 639 H 59.2889 1.01451 -3.3675 0
M  V30 640 H 59.1629 2.6329 -2.70108 0
M  V30 641 H 61.5499 2.38244 -1.74137 0
M  V30 642 H 61.6309 0.759894 -2.44252 0
M  V30 643 H 61.2749 1.76835 -4.76121 0
M  V30 644 H 61.2049 3.39091 -4.02895 0
M  V30 645 H 63.6959 2.1107 -3.13461 0
M  V30 646 H 64.0089 3.78354 -6.73846 0
M  V30 647 H 62.3539 3.4087 -6.05667 0
M  V30 648 H 65.5449 2.54419 -3.92923 0
M  V30 649 H 65.7179 3.30721 -5.5725 0
M  V30 650 N 59.124 1.23083 0.984299 0
M  V30 651 C 60.056 0.96636 2.07832 0
M  V30 652 C 61.069 -0.0582135 1.62696 0
M  V30 653 O 62.258 0.176843 1.77622 0
M  V30 654 C 59.358 0.433397 3.36117 0
M  V30 655 C 58.531 1.51722 4.10243 0
M  V30 656 C 57.59 0.989821 5.16807 0
M  V30 657 O 56.616 1.67794 5.43906 0
M  V30 658 N 57.818 -0.184367 5.80207 0
M  V30 659 H 60.583 1.90824 2.31098 0
M  V30 660 H 58.144 1.13888 1.1507 0
M  V30 661 H 60.136 0.065699 4.04647 0
M  V30 662 H 58.706 -0.413806 3.09849 0
M  V30 663 H 57.926 2.05786 3.36223 0
M  V30 664 H 59.214 2.24619 4.56534 0
M  V30 665 H 58.612 -0.760062 5.60571 0
M  V30 666 H 57.169 -0.493366 6.4993 0
M  V30 667 N 60.6021 -1.18246 1.0419 0
M  V30 668 C 61.8481 -1.88793 0.75689 0
M  V30 669 C 62.2031 -1.78909 -0.707767 0
M  V30 670 O 61.4961 -1.1794 -1.50999 0
M  V30 671 C 61.6901 -3.38082 1.15911 0
M  V30 672 C 61.5191 -3.62496 2.66133 0
M  V30 673 C 60.2891 -3.7979 3.33298 0
M  V30 674 C 62.4871 -3.62976 3.64353 0
M  V30 675 N 60.4691 -3.91955 4.72487 0
M  V30 676 C 61.8401 -3.80869 4.89222 0
M  V30 677 C 63.8951 -3.46071 3.57965 0
M  V30 678 C 62.5981 -3.83608 6.08471 0
M  V30 679 C 64.6241 -3.50093 4.76643 0
M  V30 680 C 63.9861 -3.68484 6.00332 0
M  V30 681 H 60.0851 -0.709406 0.32904 0
M  V30 682 H 62.6691 -1.42022 1.33183 0
M  V30 683 H 60.8401 -3.83544 0.612238 0
M  V30 684 H 62.5721 -3.96202 0.824989 0
M  V30 685 H 59.3271 -3.79224 2.83701 0
M  V30 686 H 59.7511 -4.01857 5.44831 0
M  V30 687 H 64.3931 -3.30797 2.63311 0
M  V30 688 H 62.1111 -3.97669 7.0348 0
M  V30 689 H 65.6971 -3.38285 4.73344 0
M  V30 690 H 64.5771 -3.71488 6.90627 0
M  V30 691 N 62.0802 -0.821533 -1.34494 0
M  V30 692 C 63.0432 -0.247847 -2.27856 0
M  V30 693 C 64.0432 0.573453 -1.50227 0
M  V30 694 O 65.2332 0.389759 -1.69784 0
M  V30 695 C 62.3652 0.652698 -3.34593 0
M  V30 696 H 63.5582 -1.07146 -2.80107 0
M  V30 697 H 61.1112 -0.593291 -1.44602 0
M  V30 698 H 61.8462 1.49943 -2.87555 0
M  V30 699 H 61.6312 0.065292 -3.92046 0
M  V30 700 H 63.1212 1.04793 -4.04238 0
M  V30 701 N 63.5583 1.46682 -0.576371 0
M  V30 702 C 64.7863 2.06798 -0.0649635 0
M  V30 703 C 65.2013 1.42612 1.23723 0
M  V30 704 O 64.5583 0.529203 1.74659 0
M  V30 705 C 64.6093 3.6132 0.114202 0
M  V30 706 O 64.3303 4.23104 -1.13644 0
M  V30 707 C 65.8313 4.38349 0.66069 0
M  V30 708 H 63.0513 0.668778 -0.0545616 0
M  V30 709 H 65.5953 1.88404 -0.795237 0
M  V30 710 H 63.7503 3.79162 0.794673 0
M  V30 711 H 64.1643 5.15894 -0.946253 0
M  V30 712 H 65.6383 5.47081 0.73526 0
M  V30 713 H 66.1153 4.05953 1.67627 0
M  V30 714 H 66.7213 4.25297 0.0152951 0
M  V30 715 N 65.0364 0.313813 1.54444 0
M  V30 716 C 65.9864 -0.571898 2.20711 0
M  V30 717 C 66.9704 -1.08913 1.18435 0
M  V30 718 O 68.1624 -1.02777 1.44104 0
M  V30 719 C 65.2914 -1.7371 2.96108 0
M  V30 720 C 64.3774 -1.23522 4.05713 0
M  V30 721 N 64.7684 -0.452288 5.03774 0
M  V30 722 C 63.0664 -1.51482 4.19487 0
M  V30 723 C 63.7674 -0.183438 5.81411 0
M  V30 724 N 62.7434 -0.766845 5.38164 0
M  V30 725 H 66.5454 0.0336802 2.93881 0
M  V30 726 H 64.0594 0.119192 1.61962 0
M  V30 727 H 66.0564 -2.38329 3.4206 0
M  V30 728 H 64.7164 -2.34625 2.24458 0
M  V30 729 H 65.7274 -0.0960131 5.17811 0
M  V30 730 H 62.4044 -2.13053 3.59047 0
M  V30 731 H 63.7944 0.446216 6.70417 0
M  V30 732 N 66.5145 -1.57545 0.0417849 0
M  V30 733 C 67.4625 -2.12148 -0.953723 0
M  V30 734 C 68.4565 -1.05104 -1.32852 0
M  V30 735 O 69.6625 -1.23524 -1.30927 0
M  V30 736 H 66.0375 -0.677957 -0.325389 0
M  V30 737 H 68.0085 -2.94707 -0.467991 0
M  V30 738 C 66.7575 -2.6739 -2.22257 0
M  V30 739 H 66.0805 -3.49413 -1.94295 0
M  V30 740 H 67.5205 -3.09227 -2.90094 0
M  V30 741 C 65.9795 -1.60723 -2.96091 0
M  V30 742 O 66.5095 -1.01449 -3.88679 0
M  V30 743 N 64.7155 -1.32466 -2.58652 0
M  V30 744 H 64.2625 -1.80856 -1.83437 0
M  V30 745 H 64.2205 -0.61325 -3.08361 0
M  V30 746 N 67.9926 0.231505 -1.5589 0
M  V30 747 C 68.9256 1.31369 -1.86595 0
M  V30 748 C 69.9036 1.45671 -0.722397 0
M  V30 749 O 71.0876 1.61642 -0.969743 0
M  V30 750 C 68.2146 2.68529 -2.06421 0
M  V30 751 C 67.2606 2.71295 -3.29092 0
M  V30 752 S 68.0936 2.26358 -4.85306 0
M  V30 753 C 69.2496 3.65414 -5.08157 0
M  V30 754 H 69.4826 1.05128 -2.78092 0
M  V30 755 H 67.0156 0.433259 -1.48197 0
M  V30 756 H 68.9736 3.47499 -2.18528 0
M  V30 757 H 67.6346 2.91999 -1.15738 0
M  V30 758 H 66.8276 3.72063 -3.39978 0
M  V30 759 H 66.4296 2.0038 -3.15791 0
M  V30 760 H 68.7216 4.6103 -4.96445 0
M  V30 761 H 69.6646 3.5945 -6.10083 0
M  V30 762 H 70.0726 3.5864 -4.35933 0
M  V30 763 N 69.4707 1.49531 0.497807 0
M  V30 764 C 70.6957 1.63159 1.28039 0
M  V30 765 C 71.1207 0.30418 1.85624 0
M  V30 766 O 70.4787 -0.728618 1.66015 0
M  V30 767 C 70.5267 2.70537 2.38416 0
M  V30 768 O 69.6307 2.29931 3.42353 0
M  V30 769 H 68.9717 0.546001 0.377861 0
M  V30 770 H 71.5017 1.9574 0.59558 0
M  V30 771 H 71.5117 2.92802 2.84132 0
M  V30 772 H 70.1867 3.6689 1.95869 0
M  V30 773 H 68.7637 2.18009 3.02533 0
M  V30 774 N 70.9488 -0.749086 1.3866 0
M  V30 775 C 72.3598 -1.32664 1.31366 0
M  V30 776 C 72.7108 -1.96179 -0.028484 0
M  V30 777 O 71.8358 -1.9537 -0.93057 0
M  V30 778 C 72.4308 -2.41219 2.37905 0
M  V30 779 C 70.9898 -2.94684 2.34176 0
M  V30 780 C 70.1368 -1.68108 2.20533 0
M  V30 781 H 73.0878 -0.547628 1.48952 0
M  V30 782 H 73.1088 -3.21268 2.0388 0
M  V30 783 H 72.6208 -1.94962 3.35576 0
M  V30 784 H 70.7218 -3.45258 1.401 0
M  V30 785 H 70.8348 -3.48757 3.2849 0
M  V30 786 H 69.1988 -1.91907 1.67463 0
M  V30 787 H 69.9818 -1.23923 3.20153 0
M  V30 788 N 72.4269 -1.23603 -0.977757 0
M  V30 789 C 73.8429 -0.999251 -1.24447 0
M  V30 790 C 74.0429 0.298053 -1.99283 0
M  V30 791 O 73.0989 1.01681 -2.31122 0
M  V30 792 C 74.4119 -2.20784 -2.04144 0
M  V30 793 C 75.9599 -2.25303 -2.17273 0
M  V30 794 C 76.4349 -3.45755 -3.00362 0
M  V30 795 N 77.9259 -3.4601 -3.07947 0
M  V30 796 C 78.6609 -4.35868 -3.72568 0
M  V30 797 N 78.1569 -5.35966 -4.38991 0
M  V30 798 N 79.9499 -4.23605 -3.6948 0
M  V30 799 H 72.1009 -2.06986 -0.476483 0
M  V30 800 H 74.3639 -0.907801 -0.273134 0
M  V30 801 H 74.0699 -3.14945 -1.56533 0
M  V30 802 H 73.9439 -2.22085 -3.04891 0
M  V30 803 H 76.3309 -1.3168 -2.64092 0
M  V30 804 H 76.4119 -2.28033 -1.15907 0
M  V30 805 H 76.0559 -4.39687 -2.5424 0
M  V30 806 H 75.9859 -3.40266 -4.01904 0
M  V30 807 H 78.4769 -2.73588 -2.60688 0
M  V30 808 H 78.7899 -6.00783 -4.86086 0
M  V30 809 H 77.1349 -5.39863 -4.37691 0
M  V30 810 H 80.3259 -3.44647 -3.16759 0
M  V30 811 H 80.4989 -4.93836 -4.1956 0
M  V30 812 N 73.905 1.17692 -1.04816 0
M  V30 813 C 74.837 2.21103 -0.603822 0
M  V30 814 C 75.85 1.59411 0.33046 0
M  V30 815 O 77.039 1.7807 0.12379 0
M  V30 816 C 74.139 3.38623 0.136898 0
M  V30 817 C 73.312 4.29888 -0.807137 0
M  V30 818 C 72.371 5.26088 -0.10836 0
M  V30 819 O 71.397 5.64353 -0.741232 0
M  V30 820 N 72.599 5.68882 1.15558 0
M  V30 821 H 75.364 2.59848 -1.49329 0
M  V30 822 H 72.925 1.32553 -0.929587 0
M  V30 823 H 74.917 4.00009 0.614401 0
M  V30 824 H 73.487 2.98508 0.927993 0
M  V30 825 H 72.707 3.65993 -1.46434 0
M  V30 826 H 73.995 4.87759 -1.44807 0
M  V30 827 H 73.393 5.39861 1.69015 0
M  V30 828 H 71.95 6.32429 1.57722 0
M  V30 829 N 75.3831 0.828654 1.34056 0
M  V30 830 C 76.3461 0.259927 2.27721 0
M  V30 831 C 77.3461 -0.565478 1.50529 0
M  V30 832 O 78.5361 -0.38075 1.69988 0
M  V30 833 C 75.6681 -0.634944 3.34935 0
M  V30 834 H 76.8611 1.0863 2.79534 0
M  V30 835 H 74.4141 0.600951 1.44285 0
M  V30 836 H 75.1491 -1.48416 2.88346 0
M  V30 837 H 74.9341 -0.0444999 3.92075 0
M  V30 838 H 76.4241 -1.02648 4.04788 0
M  V30 839 N 76.8612 -1.46375 0.584142 0
M  V30 840 C 77.7712 -2.34115 -0.150728 0
M  V30 841 C 78.7872 -1.49838 -0.884567 0
M  V30 842 O 79.9632 -1.82704 -0.847429 0
M  V30 843 C 77.0282 -3.2705 -1.15062 0
M  V30 844 C 76.0892 -4.27228 -0.421293 0
M  V30 845 C 75.3222 -5.15722 -1.37355 0
M  V30 846 O 75.5452 -5.07176 -2.61014 0
M  V30 847 O 74.4792 -5.95383 -0.883355 0
M  V30 848 H 78.3052 -2.98309 0.569708 0
M  V30 849 H 75.8902 -1.45373 0.344535 0
M  V30 850 H 77.7722 -3.84381 -1.72712 0
M  V30 851 H 76.4472 -2.65451 -1.8525 0
M  V30 852 H 75.3542 -3.7358 0.197085 0
M  V30 853 H 76.6872 -4.91616 0.239641 0
M  V30 854 N 78.3393 -0.321999 -1.54275 0
M  V30 855 C 79.2693 0.537411 -2.27231 0
M  V30 856 C 80.2503 1.12064 -1.27968 0
M  V30 857 O 81.4353 1.14606 -1.56777 0
M  V30 858 C 78.5653 1.69919 -3.02894 0
M  V30 859 C 77.5193 1.24534 -4.09482 0
M  V30 860 C 76.8453 2.49394 -4.72977 0
M  V30 861 C 78.1453 0.361335 -5.21049 0
M  V30 862 H 79.8393 -0.0711406 -2.99315 0
M  V30 863 H 77.3853 -0.0356555 -1.43956 0
M  V30 864 H 79.3383 2.30668 -3.52662 0
M  V30 865 H 78.0623 2.33431 -2.28424 0
M  V30 866 H 76.7213 0.660782 -3.60596 0
M  V30 867 H 76.3693 3.11265 -3.95124 0
M  V30 868 H 76.0693 2.19718 -5.44975 0
M  V30 869 H 77.5933 3.10908 -5.25517 0
M  V30 870 H 79.0073 0.875072 -5.66582 0
M  V30 871 H 77.4043 0.157428 -5.99893 0
M  V30 872 H 78.4743 -0.60822 -4.8107 0
M  V30 873 N 79.8174 1.5752 -0.0501392 0
M  V30 874 C 81.0664 1.91827 0.623328 0
M  V30 875 C 81.3794 0.930222 1.72065 0
M  V30 876 O 82.5854 1.1653 2.4522 0
M  V30 877 C 81.0414 3.40692 1.16003 0
M  V30 878 C 80.6494 4.479 0.0948811 0
M  V30 879 C 82.3934 3.84034 1.80881 0
M  V30 880 C 80.3004 5.87879 0.644411 0
M  V30 881 H 79.2304 0.715918 0.236596 0
M  V30 882 H 81.8814 1.83115 -0.118861 0
M  V30 883 H 80.2634 3.44405 1.9545 0
M  V30 884 H 81.4374 4.55775 -0.678675 0
M  V30 885 H 79.7524 4.13892 -0.45637 0
M  V30 886 H 82.3494 4.85984 2.22988 0
M  V30 887 H 82.6924 3.20225 2.6601 0
M  V30 888 H 83.2254 3.82833 1.0809 0
M  V30 889 H 79.9644 6.55282 -0.169229 0
M  V30 890 H 79.4844 5.83567 1.38598 0
M  V30 891 H 81.1634 6.37098 1.12763 0
M  V30 892 N 81.2955 -0.223234 1.56011 0
M  V30 893 C 82.2435 -1.29627 1.93131 0
M  V30 894 C 83.2375 -1.48608 0.813146 0
M  V30 895 O 84.4435 -1.49802 0.997966 0
M  V30 896 H 80.8185 -0.434563 0.613726 0
M  V30 897 H 82.7895 -0.955995 2.82672 0
M  V30 898 C 81.5385 -2.63983 2.26292 0
M  V30 899 H 80.8615 -2.50185 3.11846 0
M  V30 900 H 82.3015 -3.3788 2.56151 0
M  V30 901 C 80.7605 -3.18866 1.08747 0
M  V30 902 O 81.2905 -4.00192 0.347727 0
M  V30 903 N 79.4965 -2.77217 0.871743 0
M  V30 904 H 79.0435 -2.1119 1.47501 0
M  V30 905 H 79.0015 -3.1428 0.0869905 0
M  V30 906 N 82.7736 -1.49793 -0.48987 0
M  V30 907 C 83.7366 -1.66752 -1.57246 0
M  V30 908 C 84.7366 -0.538867 -1.51502 0
M  V30 909 O 85.9266 -0.805545 -1.54456 0
M  V30 910 C 83.0586 -1.67528 -2.96896 0
M  V30 911 H 84.2516 -2.63321 -1.43534 0
M  V30 912 H 81.8046 -1.38992 -0.714914 0
M  V30 913 H 82.5396 -0.725837 -3.16073 0
M  V30 914 H 82.3246 -2.49504 -3.02473 0
M  V30 915 H 83.8146 -1.82667 -3.7553 0
M  V30 916 N 84.2517 0.741722 -1.39055 0
M  V30 917 C 85.1837 1.8657 -1.33133 0
M  V30 918 C 86.1967 1.61001 -0.241329 0
M  V30 919 O 87.3857 1.7136 -0.499784 0
M  V30 920 C 84.4857 3.22457 -1.04283 0
M  V30 921 C 83.6587 3.75435 -2.24427 0
M  V30 922 C 82.7177 4.89867 -1.92138 0
M  V30 923 O 81.7437 5.03879 -2.64754 0
M  V30 924 N 82.9457 5.73738 -0.88347 0
M  V30 925 H 85.7107 1.92156 -2.29991 0
M  V30 926 H 83.2717 0.922172 -1.3307 0
M  V30 927 H 85.2637 3.9657 -0.807128 0
M  V30 928 H 83.8337 3.12181 -0.161807 0
M  V30 929 H 83.0537 2.92751 -2.6399 0
M  V30 930 H 84.3417 4.07563 -3.04581 0
M  V30 931 H 83.7397 5.64999 -0.281517 0
M  V30 932 H 82.2967 6.47947 -0.707662 0
M  V30 933 N 85.7298 1.2412 0.971189 0
M  V30 934 C 86.6598 1.05508 2.08304 0
M  V30 935 C 87.6408 -0.0308864 1.70072 0
M  V30 936 O 88.8258 0.135521 1.93727 0
M  V30 937 C 85.9558 0.655365 3.4106 0
M  V30 938 C 84.9098 1.68971 3.93234 0
M  V30 939 C 84.2358 1.14516 5.22293 0
M  V30 940 C 85.5358 3.08487 4.21465 0
M  V30 941 H 87.2298 1.98507 2.24132 0
M  V30 942 H 84.7758 0.955821 1.07704 0
M  V30 943 H 86.7288 0.51217 4.18276 0
M  V30 944 H 85.4528 -0.31032 3.25122 0
M  V30 945 H 84.1118 1.82106 3.18171 0
M  V30 946 H 83.7598 0.170189 5.02712 0
M  V30 947 H 83.4598 1.83635 5.58168 0
M  V30 948 H 84.9838 1.01401 6.02121 0
M  V30 949 H 86.3978 2.98601 4.89398 0
M  V30 950 H 84.7948 3.74926 4.68562 0
M  V30 951 H 85.8648 3.56787 3.28376 0
M  V30 952 N 87.2079 -1.17134 1.05439 0
M  V30 953 C 88.1559 -2.23289 0.651511 0
M  V30 954 C 89.1499 -1.66186 -0.328411 0
M  V30 955 O 90.3559 -1.78949 -0.194206 0
M  V30 956 H 86.7309 -0.726938 0.192523 0
M  V30 957 H 88.7019 -2.54565 1.55689 0
M  V30 958 C 87.4509 -3.47671 0.0448436 0
M  V30 959 H 86.7739 -3.91918 0.78996 0
M  V30 960 H 88.2139 -4.2353 -0.19964 0
M  V30 961 C 86.6729 -3.14453 -1.20918 0
M  V30 962 O 87.2029 -3.29459 -2.29825 0
M  V30 963 N 85.4089 -2.68657 -1.10779 0
M  V30 964 H 84.9559 -2.56646 -0.221526 0
M  V30 965 H 84.9139 -2.46804 -1.9477 0
M  V30 966 N 88.686 -0.835752 -1.33615 0
M  V30 967 C 89.934 -0.429109 -1.97492 0
M  V30 968 C 90.255 1.01433 -1.66543 0
M  V30 969 O 89.525 1.70611 -0.962744 0
M  V30 970 H 88.105 -0.155686 -0.730596 0
M  V30 971 H 90.767 -1.06802 -1.63031 0
M  V30 972 H 89.863 -0.55861 -3.0706 0
M  V30 973 N 90.1641 1.46063 -0.591896 0
M  V30 974 C 91.0941 2.33172 0.123673 0
M  V30 975 C 92.0751 1.45897 0.87453 0
M  V30 976 O 93.2601 1.74698 0.848181 0
M  V30 977 C 90.3901 3.28336 1.13194 0
M  V30 978 C 89.3441 4.25124 0.495324 0
M  V30 979 C 88.6701 5.09863 1.61071 0
M  V30 980 C 89.9701 5.19143 -0.573425 0
M  V30 981 H 91.6641 2.93252 -0.603646 0
M  V30 982 H 89.2101 1.41014 -0.291741 0
M  V30 983 H 91.1631 3.88137 1.64097 0
M  V30 984 H 89.8871 2.66383 1.88965 0
M  V30 985 H 88.5461 3.66599 0.00729452 0
M  V30 986 H 88.1941 4.44288 2.35832 0
M  V30 987 H 87.8941 5.75417 1.19035 0
M  V30 988 H 89.4181 5.72529 2.12233 0
M  V30 989 H 90.8321 5.73106 -0.1491 0
M  V30 990 H 89.2291 5.93089 -0.914636 0
M  V30 991 H 90.2991 4.62519 -1.45617 0
M  V30 992 N 91.6422 0.330177 1.54103 0
M  V30 993 C 92.5742 -0.566902 2.22079 0
M  V30 994 C 93.5872 -1.07462 1.22294 0
M  V30 995 O 94.7762 -0.987065 1.48726 0
M  V30 996 C 91.8762 -1.79138 2.87685 0
M  V30 997 C 91.0492 -1.42123 4.13666 0
M  V30 998 C 90.1082 -2.50394 4.62806 0
M  V30 999 O 89.1342 -2.14261 5.27334 0
M  V30 1000 N 90.3362 -3.81433 4.37595 0
M  V30 1001 H 93.1012 0.0151844 2.99696 0
M  V30 1002 H 90.6622 0.153681 1.61169 0
M  V30 1003 H 92.6542 -2.50975 3.1748 0
M  V30 1004 H 91.2242 -2.28115 2.13734 0
M  V30 1005 H 90.4442 -0.534201 3.90564 0
M  V30 1006 H 91.7322 -1.14971 4.9564 0
M  V30 1007 H 91.1302 -4.13584 3.8596 0
M  V30 1008 H 89.6872 -4.4948 4.72029 0
M  V30 1009 N 93.1203 -1.57491 0.0584922 0
M  V30 1010 C 94.3693 -1.92155 -0.613146 0
M  V30 1011 C 94.6823 -0.939334 -1.71569 0
M  V30 1012 O 95.8883 -1.17829 -2.44599 0
M  V30 1013 C 94.3443 -3.41303 -1.14195 0
M  V30 1014 C 93.9523 -4.47944 -0.0711265 0
M  V30 1015 C 95.6963 -3.84988 -1.78841 0
M  V30 1016 C 93.6033 -5.88212 -0.613225 0
M  V30 1017 H 92.5333 -0.717162 -0.232796 0
M  V30 1018 H 95.1843 -1.83049 0.12857 0
M  V30 1019 H 93.5663 -3.45437 -1.93621 0
M  V30 1020 H 94.7403 -4.55408 0.702836 0
M  V30 1021 H 93.0553 -4.13644 0.478313 0
M  V30 1022 H 95.6523 -4.87159 -2.20408 0
M  V30 1023 H 95.9953 -3.21632 -2.64308 0
M  V30 1024 H 96.5283 -3.83401 -1.06059 0
M  V30 1025 H 93.2673 -6.55183 0.203978 0
M  V30 1026 H 92.7873 -5.84294 -1.35501 0
M  V30 1027 H 94.4663 -6.37687 -1.09383 0
M  V30 1028 N 94.5984 0.214957 -1.56127 0
M  V30 1029 C 95.5614 1.24997 -1.92116 0
M  V30 1030 C 96.5614 1.39467 -0.800344 0
M  V30 1031 O 97.7514 1.37619 -1.06802 0
M  V30 1032 C 94.8834 2.62271 -2.17777 0
M  V30 1033 H 96.0764 0.942875 -2.84693 0
M  V30 1034 H 93.6294 0.455654 -1.49511 0
M  V30 1035 H 94.3644 2.98068 -1.27773 0
M  V30 1036 H 94.1494 2.53143 -2.99434 0
M  V30 1037 H 95.6394 3.36946 -2.46693 0
M  V30 1038 N 96.0765 1.50051 0.48192 0
M  V30 1039 C 97.0065 1.71046 1.58951 0
M  V30 1040 C 97.9875 0.559288 1.60642 0
M  V30 1041 O 99.1725 0.797243 1.77081 0
M  V30 1042 C 96.3025 1.79462 2.97339 0
M  V30 1043 C 95.2565 2.94558 3.10515 0
M  V30 1044 C 94.5825 2.88105 4.50444 0
M  V30 1045 C 95.8825 4.35227 2.88747 0
M  V30 1046 H 97.5765 2.6378 1.41635 0
M  V30 1047 H 95.1225 1.26936 0.679942 0
M  V30 1048 H 97.0755 1.92734 3.74742 0
M  V30 1049 H 95.7995 0.833412 3.15788 0
M  V30 1050 H 94.4585 2.80918 2.35543 0
M  V30 1051 H 94.1065 1.89853 4.65795 0
M  V30 1052 H 93.8065 3.65366 4.60197 0
M  V30 1053 H 95.3305 3.03412 5.29881 0
M  V30 1054 H 96.7445 4.49449 3.55905 0
M  V30 1055 H 95.1415 5.13856 3.09955 0
M  V30 1056 H 96.2115 4.48347 1.84696 0
M  V30 1057 N 97.5546 -0.734337 1.39446 0
M  V30 1058 C 98.5176 -1.83004 1.37994 0
M  V30 1059 C 99.5176 -1.58397 0.276938 0
M  V30 1060 O 100.708 -1.65785 0.534875 0
M  V30 1061 C 97.8396 -3.20802 1.1532 0
M  V30 1062 H 99.0326 -1.85694 2.35494 0
M  V30 1063 H 96.5856 -0.938059 1.25021 0
M  V30 1064 H 97.3206 -3.23772 0.185036 0
M  V30 1065 H 97.1056 -3.4006 1.95197 0
M  V30 1066 H 98.5956 -4.00862 1.17046 0
M  V30 1067 N 99.0327 -1.24633 -0.964593 0
M  V30 1068 C 99.9427 -1.05859 -2.09359 0
M  V30 1069 C 100.959 0.00148855 -1.74 0
M  V30 1070 O 102.135 -0.197346 -2.00431 0
M  V30 1071 C 99.1997 -0.668879 -3.40187 0
M  V30 1072 C 98.2607 -1.80578 -3.89474 0
M  V30 1073 C 97.4937 -1.43457 -5.14058 0
M  V30 1074 O 97.7167 -0.325775 -5.69469 0
M  V30 1075 O 96.6507 -2.2613 -5.57807 0
M  V30 1076 H 100.477 -2.00516 -2.28094 0
M  V30 1077 H 98.0617 -1.03481 -1.0776 0
M  V30 1078 H 99.9437 -0.463211 -4.18846 0
M  V30 1079 H 98.6187 0.248536 -3.22744 0
M  V30 1080 H 97.5257 -2.06623 -3.11862 0
M  V30 1081 H 98.8587 -2.70208 -4.11398 0
M  V30 1082 N 100.511 1.16574 -1.06058 0
M  V30 1083 C 101.458 2.20883 -0.669263 0
M  V30 1084 C 102.428 1.62729 0.332918 0
M  V30 1085 O 103.613 1.895 0.222346 0
M  V30 1086 C 100.753 3.45049 -0.0593572 0
M  V30 1087 C 99.8658 4.17458 -1.11143 0
M  V30 1088 C 99.0008 5.29135 -0.467916 0
M  V30 1089 C 98.0398 5.93343 -1.50369 0
M  V30 1090 N 97.1768 6.96516 -0.883706 0
M  V30 1091 H 102.017 2.53709 -1.5632 0
M  V30 1092 H 99.5538 1.24616 -0.781625 0
M  V30 1093 H 101.512 4.16033 0.311771 0
M  V30 1094 H 100.142 3.12781 0.797992 0
M  V30 1095 H 99.1938 3.45101 -1.60029 0
M  V30 1096 H 100.506 4.61307 -1.89731 0
M  V30 1097 H 99.6598 6.06684 -0.0436871 0
M  V30 1098 H 98.3988 4.86443 0.349864 0
M  V30 1099 H 97.4038 5.14517 -1.93784 0
M  V30 1100 H 98.6288 6.38114 -2.32352 0
M  V30 1101 H 96.5748 6.55943 -0.086595 0
M  V30 1102 H 96.4918 7.38723 -1.607 0
M  V30 1103 H 97.7598 7.77993 -0.484543 0
M  V30 1104 N 101.989 0.842826 1.3317 0
M  V30 1105 C 103.237 0.439577 1.97262 0
M  V30 1106 C 103.558 -1.00548 1.67078 0
M  V30 1107 O 102.828 -1.70098 0.971779 0
M  V30 1108 H 101.408 0.159558 0.72976 0
M  V30 1109 H 104.07 1.07665 1.62463 0
M  V30 1110 H 103.166 0.574886 3.0676 0
M  V30 1111 N 103.467 -1.45747 0.599634 0
M  V30 1112 C 104.716 -2.01502 0.0893511 0
M  V30 1113 C 105.029 -1.4748 -1.28488 0
M  V30 1114 O 106.235 -1.95161 -1.88745 0
M  V30 1115 C 104.691 -3.59735 0.109082 0
M  V30 1116 C 104.299 -4.22754 1.48267 0
M  V30 1117 C 106.043 -4.23085 -0.346374 0
M  V30 1118 C 103.95 -5.73115 1.45921 0
M  V30 1119 H 102.88 -0.753417 0.0296347 0
M  V30 1120 H 105.531 -1.67303 0.753788 0
M  V30 1121 H 103.913 -3.91087 -0.621854 0
M  V30 1122 H 105.087 -4.02987 2.23468 0
M  V30 1123 H 103.402 -3.71567 1.87955 0
M  V30 1124 H 105.999 -5.33327 -0.38298 0
M  V30 1125 H 106.342 -3.93201 -1.36743 0
M  V30 1126 H 106.875 -3.9642 0.331038 0
M  V30 1127 H 103.614 -6.07685 2.45762 0
M  V30 1128 H 103.134 -5.95097 0.749665 0
M  V30 1129 H 104.813 -6.3616 1.17941 0
M  V30 1130 N 104.945 -0.338344 -1.53925 0
M  V30 1131 C 106.356 0.146651 -1.86123 0
M  V30 1132 C 106.707 1.5042 -1.2597 0
M  V30 1133 O 105.832 2.08723 -0.571294 0
M  V30 1134 C 106.427 0.272879 -3.37699 0
M  V30 1135 C 104.986 0.702103 -3.69794 0
M  V30 1136 C 104.133 -0.167304 -2.76795 0
M  V30 1137 H 107.084 -0.558123 -1.48562 0
M  V30 1138 H 107.105 1.10128 -3.64214 0
M  V30 1139 H 106.617 -0.715307 -3.81451 0
M  V30 1140 H 104.718 1.6995 -3.31584 0
M  V30 1141 H 104.831 0.495604 -4.7653 0
M  V30 1142 H 103.195 0.359527 -2.5215 0
M  V30 1143 H 103.978 -1.15253 -3.23375 0
M  V30 1144 N 106.423 1.57458 -0.0668435 0
M  V30 1145 C 107.353 2.15468 0.899764 0
M  V30 1146 C 108.334 1.08042 1.31381 0
M  V30 1147 O 109.519 1.36054 1.38574 0
M  V30 1148 C 106.649 2.71232 2.16911 0
M  V30 1149 C 105.603 3.83781 1.89463 0
M  V30 1150 C 104.929 4.26127 3.22986 0
M  V30 1151 C 106.229 5.08238 1.20381 0
M  V30 1152 H 107.923 2.96488 0.416529 0
M  V30 1153 H 105.469 1.4262 0.198908 0
M  V30 1154 H 107.422 3.10458 2.84945 0
M  V30 1155 H 106.146 1.87426 2.67468 0
M  V30 1156 H 104.805 3.45051 1.23836 0
M  V30 1157 H 104.453 3.39249 3.71374 0
M  V30 1158 H 104.153 5.01993 3.05413 0
M  V30 1159 H 105.677 4.67966 3.92225 0
M  V30 1160 H 107.091 5.44811 1.78475 0
M  V30 1161 H 105.488 5.89349 1.13083 0
M  V30 1162 H 106.558 4.84558 0.182153 0
M  V30 1163 N 107.901 -0.206675 1.56239 0
M  V30 1164 C 108.831 -1.25909 1.96645 0
M  V30 1165 C 109.812 -1.48097 0.836734 0
M  V30 1166 O 110.997 -1.6003 1.10019 0
M  V30 1167 C 108.127 -2.6058 2.29599 0
M  V30 1168 C 107.081 -2.53024 3.452 0
M  V30 1169 C 106.407 -3.91861 3.63798 0
M  V30 1170 C 107.707 -2.06524 4.79734 0
M  V30 1171 H 109.401 -0.923369 2.84806 0
M  V30 1172 H 106.947 -0.442735 1.37025 0
M  V30 1173 H 108.9 -3.34375 2.56459 0
M  V30 1174 H 107.624 -2.95869 1.38307 0
M  V30 1175 H 106.283 -1.81684 3.18412 0
M  V30 1176 H 105.931 -4.24483 2.69857 0
M  V30 1177 H 105.631 -3.87683 4.4156 0
M  V30 1178 H 107.155 -4.67296 3.93022 0
M  V30 1179 H 108.569 -2.70072 5.05702 0
M  V30 1180 H 106.966 -2.13374 5.60885 0
M  V30 1181 H 108.036 -1.01802 4.74093 0
M  V30 1182 N 109.379 -1.50304 -0.473955 0
M  V30 1183 C 110.626 -1.6115 -1.22625 0
M  V30 1184 C 110.954 -0.310517 -1.92005 0
M  V30 1185 O 110.209 0.703419 -1.82621 0
M  V30 1186 C 110.508 -2.73938 -2.29549 0
M  V30 1187 C 110.174 -4.14519 -1.7744 0
M  V30 1188 C 108.836 -4.5277 -1.62949 0
M  V30 1189 C 111.188 -5.02392 -1.3875 0
M  V30 1190 C 108.516 -5.76639 -1.08187 0
M  V30 1191 C 110.868 -6.26805 -0.854309 0
M  V30 1192 C 109.532 -6.63861 -0.696011 0
M  V30 1193 H 108.802 -0.589691 -0.448715 0
M  V30 1194 H 111.449 -1.84228 -0.522705 0
M  V30 1195 H 109.754 -2.44937 -3.05799 0
M  V30 1196 H 111.451 -2.79534 -2.87509 0
M  V30 1197 H 108.041 -3.8434 -1.89685 0
M  V30 1198 H 112.225 -4.73474 -1.4878 0
M  V30 1199 H 107.481 -6.04027 -0.946666 0
M  V30 1200 H 111.655 -6.94258 -0.545843 0
M  V30 1201 H 109.282 -7.59722 -0.26952 0
M  V30 1202 N 110.857 0.726932 -1.39834 0
M  V30 1203 C 112.273 1.03354 -1.21615 0
M  V30 1204 C 112.473 2.01327 -0.08338 0
M  V30 1205 O 111.529 2.46158 0.56238 0
M  V30 1206 C 112.842 1.58811 -2.55342 0
M  V30 1207 C 114.39 1.70851 -2.62257 0
M  V30 1208 C 114.865 2.29716 -3.96225 0
M  V30 1209 N 116.356 2.37116 -3.97907 0
M  V30 1210 C 117.091 2.83619 -4.98345 0
M  V30 1211 N 116.587 3.29958 -6.09179 0
M  V30 1212 N 118.38 2.82901 -4.8572 0
M  V30 1213 H 110.531 0.0773069 -2.12259 0
M  V30 1214 H 112.794 0.0969102 -0.943034 0
M  V30 1215 H 112.5 0.942855 -3.38826 0
M  V30 1216 H 112.374 2.57502 -2.75632 0
M  V30 1217 H 114.761 2.34497 -1.79152 0
M  V30 1218 H 114.842 0.707913 -2.45809 0
M  V30 1219 H 114.486 1.66696 -4.79765 0
M  V30 1220 H 114.416 3.30469 -4.09997 0
M  V30 1221 H 116.907 2.04374 -3.17868 0
M  V30 1222 H 117.22 3.63976 -6.8172 0
M  V30 1223 H 115.565 3.27946 -6.12761 0
M  V30 1224 H 118.756 2.46027 -3.98231 0
M  V30 1225 H 118.929 3.18827 -5.6414 0
M  V30 1226 N 112.336 1.25143 0.95797 0
M  V30 1227 C 113.246 1.06968 2.08794 0
M  V30 1228 C 114.262 0.00773911 1.73998 0
M  V30 1229 O 115.438 0.207972 2.00323 0
M  V30 1230 C 112.503 0.68691 3.39827 0
M  V30 1231 C 111.564 1.82641 3.88511 0
M  V30 1232 C 110.797 1.46181 5.1329 0
M  V30 1233 O 111.02 0.355971 5.69288 0
M  V30 1234 O 109.954 2.29085 5.566 0
M  V30 1235 H 113.78 2.01723 2.27027 0
M  V30 1236 H 111.365 1.04051 1.07209 0
M  V30 1237 H 113.247 0.485417 4.18595 0
M  V30 1238 H 111.922 -0.231417 3.22872 0
M  V30 1239 H 110.829 2.08274 3.10762 0
M  V30 1240 H 112.162 2.72386 4.09959 0
M  V30 1241 N 113.814 -1.1601 1.06675 0
M  V30 1242 C 115.06 -1.86909 0.786945 0
M  V30 1243 C 115.393 -1.81717 -0.685018 0
M  V30 1244 O 114.668 -1.23551 -1.50218 0
M  V30 1245 C 114.951 -3.36313 1.28707 0
M  V30 1246 C 114.804 -3.50175 2.82308 0
M  V30 1247 C 116.123 -4.3084 0.898071 0
M  V30 1248 H 113.242 -0.678677 0.287343 0
M  V30 1249 H 115.884 -1.36336 1.32334 0
M  V30 1250 H 114.034 -3.79513 0.830768 0
M  V30 1251 H 115.706 -3.15886 3.36175 0
M  V30 1252 H 113.949 -2.91959 3.20847 0
M  V30 1253 H 114.62 -4.55116 3.12368 0
M  V30 1254 H 117.096 -3.95561 1.29114 0
M  V30 1255 H 115.972 -5.33876 1.27543 0
M  V30 1256 H 116.233 -4.41662 -0.196651 0
M  V30 1257 N 115.292 -0.849877 -1.32721 0
M  V30 1258 C 116.569 -0.372405 -1.92022 0
M  V30 1259 C 116.949 1.1435 -1.77447 0
M  V30 1260 O 116.297 1.96296 -1.16962 0
M  V30 1261 C 116.507 -0.831482 -3.3895 0
M  V30 1262 C 117.855 -0.845882 -4.16089 0
M  V30 1263 O 118.879 -0.775806 -3.47649 0
M  V30 1264 O 117.738 -0.943753 -5.38289 0
M  V30 1265 H 114.832 -0.107667 -0.819961 0
M  V30 1266 H 117.378 -0.93646 -1.41522 0
M  V30 1267 H 116.15 -1.87448 -3.4348 0
M  V30 1268 H 115.773 -0.24461 -3.96847 0
M  V30 1269 N 116.77 1.45427 -0.607355 0
M  V30 1270 C 118.047 1.9557 -0.0344566 0
M  V30 1271 C 118.427 1.54979 1.43334 0
M  V30 1272 O 117.775 0.812241 2.13576 0
M  V30 1273 C 117.985 3.48226 -0.232321 0
M  V30 1274 C 119.333 4.2445 -0.113001 0
M  V30 1275 O 120.357 3.55829 -0.162431 0
M  V30 1276 O 119.216 5.465 0.00209442 0
M  V30 1277 H 116.31 0.826222 0.0358667 0
M  V30 1278 H 118.856 1.55594 -0.6774 0
M  V30 1279 H 117.628 3.70739 -1.25174 0
M  V30 1280 H 117.251 3.95092 0.445896 0
M  V30 1281 N 118.248 0.346503 1.53744 0
M  V30 1282 C 119.495 -0.249104 2.00962 0
M  V30 1283 C 119.823 -1.5032 1.23426 0
M  V30 1284 O 119.078 -1.93217 0.310761 0
M  V30 1285 C 119.377 -0.605809 3.52228 0
M  V30 1286 C 119.043 0.551747 4.47512 0
M  V30 1287 C 117.705 0.86941 4.73281 0
M  V30 1288 C 120.057 1.32818 5.03993 0
M  V30 1289 C 117.385 1.96582 5.52786 0
M  V30 1290 C 119.737 2.41486 5.84694 0
M  V30 1291 C 118.401 2.73808 6.08757 0
M  V30 1292 H 117.671 -0.0911538 0.735372 0
M  V30 1293 H 120.318 0.475027 1.85515 0
M  V30 1294 H 118.623 -1.4107 3.65522 0
M  V30 1295 H 120.32 -1.07858 3.86222 0
M  V30 1296 H 116.91 0.294102 4.2759 0
M  V30 1297 H 121.094 1.09602 4.84047 0
M  V30 1298 H 116.35 2.22045 5.69654 0
M  V30 1299 H 120.524 3.02078 6.27473 0
M  V30 1300 H 118.151 3.58892 6.7015 0
M  V30 1301 N 119.726 -1.57421 0.075193 0
M  V30 1302 C 120.972 -1.93905 -0.594025 0
M  V30 1303 C 121.305 -0.955701 -1.69056 0
M  V30 1304 O 120.58 0.0145373 -1.94495 0
M  V30 1305 C 120.863 -3.40638 -1.1678 0
M  V30 1306 C 120.716 -4.49733 -0.0776792 0
M  V30 1307 C 122.035 -3.88259 -2.07228 0
M  V30 1308 H 119.154 -0.705105 -0.214466 0
M  V30 1309 H 121.796 -1.8947 0.141854 0
M  V30 1310 H 119.946 -3.44549 -1.79494 0
M  V30 1311 H 121.618 -4.57942 0.555573 0
M  V30 1312 H 119.861 -4.29751 0.591286 0
M  V30 1313 H 120.532 -5.49549 -0.519603 0
M  V30 1314 H 123.008 -3.86376 -1.54445 0
M  V30 1315 H 121.884 -4.91533 -2.44308 0
M  V30 1316 H 122.145 -3.26396 -2.98191 0
M  V30 1317 N 121.204 0.198386 -1.56346 0
M  V30 1318 C 122.167 1.22952 -1.93431 0
M  V30 1319 C 123.167 1.38611 -0.815092 0
M  V30 1320 O 124.357 1.36479 -1.08255 0
M  V30 1321 C 121.489 2.59946 -2.20546 0
M  V30 1322 H 122.682 0.912626 -2.85677 0
M  V30 1323 H 120.235 0.43977 -1.49986 0
M  V30 1324 H 120.97 2.96696 -1.30927 0
M  V30 1325 H 120.755 2.49953 -3.02102 0
M  V30 1326 H 122.245 3.3431 -2.50253 0
M  V30 1327 N 122.682 1.50554 0.465978 0
M  V30 1328 C 123.907 1.65838 1.24549 0
M  V30 1329 C 124.332 0.343486 1.84937 0
M  V30 1330 O 123.69 -0.69324 1.67523 0
M  V30 1331 C 123.738 2.75533 2.32624 0
M  V30 1332 O 122.842 2.37142 3.37398 0
M  V30 1333 H 122.183 0.553893 0.366194 0
M  V30 1334 H 124.713 1.96959 0.553927 0
M  V30 1335 H 124.723 2.98763 2.77857 0
M  V30 1336 H 123.398 3.70962 1.88043 0
M  V30 1337 H 121.975 2.24377 2.97841 0
M  V30 1338 N 124.16 -0.719506 1.40217 0
M  V30 1339 C 125.406 -1.48152 1.38488 0
M  V30 1340 C 125.739 -1.94195 -0.0141867 0
M  V30 1341 O 125.014 -1.67884 -0.982096 0
M  V30 1342 C 125.297 -2.71035 2.37091 0
M  V30 1343 C 125.15 -2.30912 3.86005 0
M  V30 1344 C 126.469 -3.73182 2.33288 0
M  V30 1345 H 123.588 -0.537395 0.504357 0
M  V30 1346 H 126.23 -0.821472 1.71324 0
M  V30 1347 H 124.38 -3.27352 2.0922 0
M  V30 1348 H 126.052 -1.80107 4.24687 0
M  V30 1349 H 124.295 -1.62958 4.02029 0
M  V30 1350 H 124.966 -3.18978 4.50508 0
M  V30 1351 H 127.442 -3.26485 2.57966 0
M  V30 1352 H 126.318 -4.56806 3.04334 0
M  V30 1353 H 126.579 -4.21202 1.34317 0
M  V30 1354 N 125.638 -1.25649 -0.95132 0
M  V30 1355 C 126.548 -1.08073 -2.08224 0
M  V30 1356 C 127.564 -0.0169666 -1.73992 0
M  V30 1357 O 128.74 -0.218593 -2.0021 0
M  V30 1358 C 125.805 -0.704922 -3.39458 0
M  V30 1359 C 124.866 -1.84699 -3.87537 0
M  V30 1360 C 124.099 -1.48902 -5.12508 0
M  V30 1361 O 124.322 -0.386156 -5.69091 0
M  V30 1362 O 123.256 -2.32033 -5.55378 0
M  V30 1363 H 127.082 -2.02924 -2.25954 0
M  V30 1364 H 124.667 -1.04618 -1.06656 0
M  V30 1365 H 126.549 -0.507609 -4.18332 0
M  V30 1366 H 125.224 0.214291 -3.2299 0
M  V30 1367 H 124.131 -2.09919 -3.09653 0
M  V30 1368 H 125.464 -2.74557 -4.08509 0
M  V30 1369 N 127.117 1.15442 -1.07289 0
M  V30 1370 C 128.366 1.85557 -0.790669 0
M  V30 1371 C 128.679 1.83186 0.685739 0
M  V30 1372 O 129.885 2.48977 1.0827 0
M  V30 1373 C 128.341 3.33038 -1.36433 0
M  V30 1374 C 127.949 3.43856 -2.8717 0
M  V30 1375 C 129.693 4.0834 -1.1601 0
M  V30 1376 C 127.6 4.85482 -3.3773 0
M  V30 1377 H 126.53 0.695122 -0.292098 0
M  V30 1378 H 129.181 1.30219 -1.29287 0
M  V30 1379 H 127.563 3.88043 -0.789864 0
M  V30 1380 H 128.737 2.98961 -3.50655 0
M  V30 1381 H 127.052 2.81998 -3.06376 0
M  V30 1382 H 129.649 5.12859 -1.51262 0
M  V30 1383 H 129.992 4.16182 -0.0991007 0
M  V30 1384 H 130.525 3.59603 -1.70089 0
M  V30 1385 H 127.264 4.82823 -4.43353 0
M  V30 1386 H 126.784 5.30961 -2.78999 0
M  V30 1387 H 128.463 5.54335 -3.33648 0
M  V30 1388 N 128.595 0.856903 1.32268 0
M  V30 1389 C 129.841 0.462069 1.97466 0
M  V30 1390 C 130.174 -0.980298 1.67642 0
M  V30 1391 O 129.449 -1.68824 0.965858 0
M  V30 1392 C 129.732 0.704336 3.53145 0
M  V30 1393 C 129.585 2.19529 3.9259 0
M  V30 1394 C 130.904 0.1622 4.39801 0
M  V30 1395 H 128.023 0.169357 0.717278 0
M  V30 1396 H 130.665 1.07574 1.56614 0
M  V30 1397 H 128.815 0.181999 3.88073 0
M  V30 1398 H 130.487 2.78387 3.67829 0
M  V30 1399 H 128.73 2.67292 3.41668 0
M  V30 1400 H 129.401 2.31549 5.01088 0
M  V30 1401 H 131.877 0.608905 4.11621 0
M  V30 1402 H 130.753 0.361265 5.4771 0
M  V30 1403 H 131.014 -0.935158 4.32096 0
M  V30 1404 N 130.073 -1.45103 0.615059 0
M  V30 1405 C 131.02 -2.30586 -0.0993978 0
M  V30 1406 C 131.99 -1.42544 -0.852669 0
M  V30 1407 O 133.175 -1.71465 -0.836917 0
M  V30 1408 C 130.315 -3.27572 -1.08583 0
M  V30 1409 C 129.428 -4.30717 -0.332656 0
M  V30 1410 C 128.563 -5.14807 -1.30947 0
M  V30 1411 C 127.602 -6.09673 -0.544538 0
M  V30 1412 N 126.739 -6.86517 -1.47101 0
M  V30 1413 H 131.579 -2.91144 0.635542 0
M  V30 1414 H 129.116 -1.4346 0.325206 0
M  V30 1415 H 131.074 -3.82276 -1.67095 0
M  V30 1416 H 129.704 -2.68751 -1.78809 0
M  V30 1417 H 128.756 -3.78615 0.368107 0
M  V30 1418 H 130.068 -4.98102 0.263842 0
M  V30 1419 H 129.222 -5.73948 -1.96643 0
M  V30 1420 H 127.961 -4.47458 -1.9399 0
M  V30 1421 H 126.966 -5.49656 0.126003 0
M  V30 1422 H 128.191 -6.79052 0.080947 0
M  V30 1423 H 126.137 -6.21851 -2.08895 0
M  V30 1424 H 126.054 -7.50281 -0.928137 0
M  V30 1425 H 127.322 -7.50194 -2.11731 0
M  V30 1426 N 131.551 -0.354651 -1.53558 0
M  V30 1427 C 132.483 0.5315 -2.22952 0
M  V30 1428 C 133.496 1.05503 -1.23988 0
M  V30 1429 O 134.685 0.963279 -1.50277 0
M  V30 1430 C 131.785 1.74538 -2.90499 0
M  V30 1431 C 130.958 1.35524 -4.15875 0
M  V30 1432 C 130.017 2.42999 -4.66731 0
M  V30 1433 O 129.043 2.05844 -5.30676 0
M  V30 1434 N 130.245 3.74423 -4.43608 0
M  V30 1435 H 133.01 -0.0628615 -2.99634 0
M  V30 1436 H 130.571 -0.179302 -1.60904 0
M  V30 1437 H 132.563 2.45892 -3.21433 0
M  V30 1438 H 131.133 2.24686 -2.17336 0
M  V30 1439 H 130.353 0.471998 -3.91364 0
M  V30 1440 H 131.641 1.07071 -4.97406 0
M  V30 1441 H 131.039 4.07391 -3.92491 0
M  V30 1442 H 129.596 4.41913 -4.7912 0
M  V30 1443 N 133.029 1.57378 -0.0835403 0
M  V30 1444 C 134.275 1.94217 0.583733 0
M  V30 1445 C 134.608 0.964653 1.68547 0
M  V30 1446 O 133.883 -0.00422258 1.945 0
M  V30 1447 C 134.166 3.41253 1.14972 0
M  V30 1448 C 134.019 4.49768 0.0538277 0
M  V30 1449 C 135.338 3.89352 2.05166 0
M  V30 1450 H 132.457 0.706233 0.210724 0
M  V30 1451 H 135.099 1.89392 -0.1519 0
M  V30 1452 H 133.249 3.45496 1.77665 0
M  V30 1453 H 134.921 4.57641 -0.579851 0
M  V30 1454 H 133.164 4.29432 -0.614068 0
M  V30 1455 H 133.835 5.49817 0.490452 0
M  V30 1456 H 136.311 3.87189 1.52393 0
M  V30 1457 H 135.187 4.92822 2.41698 0
M  V30 1458 H 135.448 3.27973 2.96456 0
M  V30 1459 N 134.507 -0.190092 1.56449 0
M  V30 1460 C 135.747 -0.916414 1.82705 0
M  V30 1461 C 136.111 -1.80235 0.661763 0
M  V30 1462 O 137.312 -2.56484 0.80433 0
M  V30 1463 C 135.583 -1.70691 3.14005 0
M  V30 1464 S 137.142 -2.48457 3.61683 0
M  V30 1465 H 133.96 -0.307281 0.64117 0
M  V30 1466 H 136.562 -0.179433 1.94675 0
M  V30 1467 H 135.266 -1.04677 3.96826 0
M  V30 1468 H 134.797 -2.48562 3.04927 0
M  V30 1469 H 136.812 -3.72756 3.27517 0
M  V30 1470 N 135.985 -1.50799 -0.457987 0
M  V30 1471 C 136.948 -1.7005 -1.53674 0
M  V30 1472 C 137.948 -0.570881 -1.50325 0
M  V30 1473 O 139.138 -0.838126 -1.52712 0
M  V30 1474 C 136.27 -1.73788 -2.93276 0
M  V30 1475 H 137.463 -2.66306 -1.37917 0
M  V30 1476 H 135.016 -1.40477 -0.685271 0
M  V30 1477 H 135.751 -0.792717 -3.14462 0
M  V30 1478 H 135.536 -2.55864 -2.97113 0
M  V30 1479 H 137.026 -1.90591 -3.71571 0
M  V30 1480 N 137.463 0.71206 -1.40597 0
M  V30 1481 C 138.373 1.8562 -1.43466 0
M  V30 1482 C 139.389 1.70902 -0.326902 0
M  V30 1483 O 140.565 1.93105 -0.572043 0
M  V30 1484 C 137.63 3.21451 -1.29884 0
M  V30 1485 C 136.691 3.48398 -2.50833 0
M  V30 1486 C 135.924 4.77749 -2.3789 0
M  V30 1487 O 136.147 5.53089 -1.39459 0
M  V30 1488 O 135.081 5.05111 -3.27333 0
M  V30 1489 H 138.907 1.86155 -2.39958 0
M  V30 1490 H 136.492 0.86295 -1.21957 0
M  V30 1491 H 138.374 4.02579 -1.24531 0
M  V30 1492 H 137.049 3.21636 -0.364997 0
M  V30 1493 H 135.956 2.67265 -2.61763 0
M  V30 1494 H 137.289 3.53014 -3.4299 0
M  V30 1495 N 138.941 1.26152 0.944643 0
M  V30 1496 C 139.889 1.07215 2.06417 0
M  V30 1497 C 140.883 9.2007e-05 1.694 0
M  V30 1498 O 142.089 0.1565 1.79318 0
M  V30 1499 H 138.464 0.329837 0.675805 0
M  V30 1500 H 140.435 2.02099 2.19541 0
M  V30 1501 C 139.184 0.718197 3.40202 0
M  V30 1502 H 138.507 1.53497 3.69159 0
M  V30 1503 H 139.947 0.625459 4.19361 0
M  V30 1504 C 138.406 -0.576435 3.31932 0
M  V30 1505 O 138.936 -1.61574 3.67773 0
M  V30 1506 N 137.142 -0.565781 2.85039 0
M  V30 1507 H 136.689 0.280367 2.5607 0
M  V30 1508 H 136.647 -1.43213 2.79888 0
M  V30 1509 N 140.419 -1.14872 1.07899 0
M  V30 1510 C 141.644 -1.90202 0.826926 0
M  V30 1511 C 142.069 -1.77774 -0.614664 0
M  V30 1512 O 141.427 -1.11431 -1.43013 0
M  V30 1513 C 141.475 -3.38352 1.24702 0
M  V30 1514 O 140.579 -4.10497 0.39575 0
M  V30 1515 H 139.92 -0.591968 0.300782 0
M  V30 1516 H 142.45 -1.45437 1.43907 0
M  V30 1517 H 142.46 -3.89156 1.22563 0
M  V30 1518 H 141.135 -3.46715 2.29698 0
M  V30 1519 H 139.712 -3.69796 0.480117 0
M  V30 1520 N 141.898 -0.863906 -1.31812 0
M  V30 1521 C 143.144 -0.472535 -1.97218 0
M  V30 1522 C 143.477 0.971394 -1.68159 0
M  V30 1523 O 142.752 1.68309 -0.974798 0
M  V30 1524 C 143.035 -0.723054 -3.52766 0
M  V30 1525 C 142.888 -2.21608 -3.91421 0
M  V30 1526 C 144.207 -0.185522 -4.39709 0
M  V30 1527 H 141.326 -0.173158 -0.71637 0
M  V30 1528 H 143.968 -1.08403 -1.56041 0
M  V30 1529 H 142.118 -0.202577 -3.87971 0
M  V30 1530 H 143.79 -2.80334 -3.66347 0
M  V30 1531 H 142.033 -2.691 -3.40246 0
M  V30 1532 H 142.704 -2.34203 -4.99853 0
M  V30 1533 H 145.18 -0.630726 -4.11292 0
M  V30 1534 H 144.056 -0.390306 -5.47511 0
M  V30 1535 H 144.317 0.912229 -4.32586 0
M  V30 1536 N 143.376 1.44774 -0.622745 0
M  V30 1537 C 144.604 2.06487 -0.130722 0
M  V30 1538 C 145.019 1.46476 1.19123 0
M  V30 1539 O 144.376 0.584502 1.72887 0
M  V30 1540 C 144.427 3.615 -0.000807207 0
M  V30 1541 O 144.148 4.19274 -1.27048 0
M  V30 1542 C 145.649 4.40229 0.520898 0
M  V30 1543 H 142.869 0.666704 -0.0758106 0
M  V30 1544 H 145.413 1.85779 -0.854774 0
M  V30 1545 H 143.568 3.81498 0.673643 0
M  V30 1546 H 143.982 5.12622 -1.1099 0
M  V30 1547 H 145.456 5.49144 0.560838 0
M  V30 1548 H 145.933 4.1108 1.54627 0
M  V30 1549 H 146.539 4.25131 -0.120018 0
M  V30 1550 N 144.854 0.36279 1.53368 0
M  V30 1551 C 145.804 -0.501391 2.22419 0
M  V30 1552 C 146.788 -1.0509 1.2184 0
M  V30 1553 O 147.98 -0.981404 1.47301 0
M  V30 1554 C 145.109 -1.64201 3.01484 0
M  V30 1555 C 144.195 -1.10552 4.09438 0
M  V30 1556 N 144.586 -0.291788 5.04958 0
M  V30 1557 C 142.884 -1.3806 4.24094 0
M  V30 1558 C 143.585 0.00162655 5.817 0
M  V30 1559 N 142.561 -0.595244 5.40331 0
M  V30 1560 H 146.363 0.127159 2.93625 0
M  V30 1561 H 143.877 0.170658 1.61501 0
M  V30 1562 H 145.874 -2.27326 3.49469 0
M  V30 1563 H 144.534 -2.27365 2.31809 0
M  V30 1564 H 145.545 0.0687731 5.17854 0
M  V30 1565 H 142.222 -2.01522 3.65644 0
M  V30 1566 H 143.612 0.659278 6.68658 0
M  V30 1567 N 146.332 -1.57332 0.0918853 0
M  V30 1568 C 147.262 -2.16872 -0.865371 0
M  V30 1569 C 148.243 -1.10118 -1.29646 0
M  V30 1570 O 149.428 -1.38242 -1.36392 0
M  V30 1571 C 146.558 -2.74649 -2.12569 0
M  V30 1572 C 145.512 -3.86747 -1.83333 0
M  V30 1573 C 144.838 -4.31212 -3.16166 0
M  V30 1574 C 146.138 -5.10089 -1.1228 0
M  V30 1575 H 147.832 -2.97114 -0.369307 0
M  V30 1576 H 145.378 -1.42918 -0.176194 0
M  V30 1577 H 147.331 -3.14952 -2.7997 0
M  V30 1578 H 146.055 -1.91657 -2.64452 0
M  V30 1579 H 144.714 -3.46978 -1.18331 0
M  V30 1580 H 144.362 -3.45115 -3.6593 0
M  V30 1581 H 144.062 -5.06788 -2.97388 0
M  V30 1582 H 145.586 -4.74146 -3.84731 0
M  V30 1583 H 147 -5.47582 -1.69785 0
M  V30 1584 H 145.397 -5.91073 -1.03693 0
M  V30 1585 H 146.467 -4.84786 -0.105041 0
M  V30 1586 N 147.81 0.181792 -1.56548 0
M  V30 1587 C 149.057 0.900097 -1.81396 0
M  V30 1588 C 149.385 1.82695 -0.667281 0
M  V30 1589 O 148.64 1.92614 0.346146 0
M  V30 1590 C 148.939 1.73728 -3.12335 0
M  V30 1591 C 148.605 0.960255 -4.40556 0
M  V30 1592 C 147.267 0.745766 -4.75386 0
M  V30 1593 C 149.619 0.414477 -5.19549 0
M  V30 1594 C 146.947 -0.0257694 -5.86694 0
M  V30 1595 C 149.299 -0.343916 -6.31664 0
M  V30 1596 C 147.963 -0.569301 -6.65068 0
M  V30 1597 H 147.233 0.329369 -0.663775 0
M  V30 1598 H 149.88 0.165647 -1.90782 0
M  V30 1599 H 148.185 2.54081 -2.98245 0
M  V30 1600 H 149.882 2.29591 -3.28769 0
M  V30 1601 H 146.472 1.13746 -4.13231 0
M  V30 1602 H 150.656 0.567554 -4.93044 0
M  V30 1603 H 145.912 -0.210233 -6.11038 0
M  V30 1604 H 150.086 -0.774133 -6.92084 0
M  V30 1605 H 147.713 -1.16903 -7.51158 0
M  V30 1606 N 149.288 1.51039 0.449983 0
M  V30 1607 C 150.518 1.66627 1.22143 0
M  V30 1608 C 150.926 0.357776 1.85786 0
M  V30 1609 O 150.269 -0.672424 1.70951 0
M  V30 1610 C 150.331 2.71562 2.35573 0
M  V30 1611 C 149.995 4.14526 1.92399 0
M  V30 1612 C 150.992 4.99717 1.43453 0
M  V30 1613 C 148.677 4.60559 2.00475 0
M  V30 1614 C 150.671 6.28998 1.03155 0
M  V30 1615 C 148.358 5.8984 1.59788 0
M  V30 1616 C 149.356 6.73886 1.11208 0
M  V30 1617 O 149.044 8.0075 0.710935 0
M  V30 1618 H 148.776 0.562635 0.374724 0
M  V30 1619 H 151.33 1.98146 0.541036 0
M  V30 1620 H 149.56 2.3533 3.06849 0
M  V30 1621 H 151.249 2.76156 2.97478 0
M  V30 1622 H 152.015 4.65361 1.36618 0
M  V30 1623 H 147.894 3.95273 2.37235 0
M  V30 1624 H 151.438 6.9455 0.651663 0
M  V30 1625 H 147.335 6.23713 1.66289 0
M  V30 1626 H 148.103 8.142 0.837913 0
M  V30 1627 N 150.766 -0.704594 1.40972 0
M  V30 1628 C 151.714 -1.83994 1.42299 0
M  V30 1629 C 152.708 -1.66684 0.302111 0
M  V30 1630 O 153.914 -1.73655 0.473697 0
M  V30 1631 H 150.289 -0.606171 0.44504 0
M  V30 1632 H 152.26 -1.79992 2.38003 0
M  V30 1633 C 151.009 -3.21946 1.31323 0
M  V30 1634 H 150.332 -3.35878 2.16855 0
M  V30 1635 H 151.772 -4.01491 1.36311 0
M  V30 1636 C 150.231 -3.36891 0.0245977 0
M  V30 1637 O 150.761 -3.90687 -0.934153 0
M  V30 1638 N 148.967 -2.90559 -0.0485243 0
M  V30 1639 H 148.514 -2.46968 0.732419 0
M  V30 1640 H 148.472 -3.00937 -0.910171 0
M  V30 1641 N 152.244 -1.26651 -0.937939 0
M  V30 1642 C 153.474 -1.15006 -1.71631 0
M  V30 1643 C 153.882 0.297026 -1.86854 0
M  V30 1644 O 153.225 1.21493 -1.37786 0
M  V30 1645 C 153.287 -1.74984 -3.14039 0
M  V30 1646 C 152.951 -3.24103 -3.2219 0
M  V30 1647 C 153.948 -4.20877 -3.05219 0
M  V30 1648 C 151.633 -3.64625 -3.45476 0
M  V30 1649 C 153.627 -5.56151 -3.11408 0
M  V30 1650 C 151.314 -5.00032 -3.513 0
M  V30 1651 C 152.312 -5.95604 -3.34282 0
M  V30 1652 O 152 -7.28545 -3.3982 0
M  V30 1653 H 151.732 -0.401183 -0.544085 0
M  V30 1654 H 154.286 -1.67832 -1.18413 0
M  V30 1655 H 152.516 -1.16624 -3.68695 0
M  V30 1656 H 154.205 -1.58199 -3.73802 0
M  V30 1657 H 154.971 -3.90908 -2.87081 0
M  V30 1658 H 150.85 -2.90718 -3.57777 0
M  V30 1659 H 154.394 -6.30727 -2.98043 0
M  V30 1660 H 150.291 -5.29659 -3.68959 0
M  V30 1661 H 151.059 -7.3686 -3.56343 0
M  V30 1662 N 153.722 1.14298 -1.08507 0
M  V30 1663 C 154.654 2.1907 -0.673859 0
M  V30 1664 C 155.667 1.60381 0.279577 0
M  V30 1665 O 156.856 1.78374 0.0670754 0
M  V30 1666 C 153.956 3.38888 0.0290979 0
M  V30 1667 C 153.129 4.27103 -0.943494 0
M  V30 1668 C 152.188 5.25477 -0.275676 0
M  V30 1669 O 151.214 5.61709 -0.920401 0
M  V30 1670 N 152.416 5.7227 0.974013 0
M  V30 1671 H 155.181 2.54965 -1.57521 0
M  V30 1672 H 152.742 1.29528 -0.971287 0
M  V30 1673 H 154.734 4.01761 0.48683 0
M  V30 1674 H 153.304 3.01309 0.832555 0
M  V30 1675 H 152.524 3.61149 -1.58004 0
M  V30 1676 H 153.812 4.82905 -1.60251 0
M  V30 1677 H 153.21 5.44965 1.51755 0
M  V30 1678 H 151.767 6.37127 1.37522 0
M  V30 1679 N 155.201 0.870884 1.31352 0
M  V30 1680 C 156.431 0.496049 2.00557 0
M  V30 1681 C 156.839 -0.916241 1.65534 0
M  V30 1682 O 156.182 -1.61188 0.881134 0
M  V30 1683 C 156.244 0.574418 3.54881 0
M  V30 1684 C 155.908 1.94849 4.1338 0
M  V30 1685 C 156.905 2.91611 4.30417 0
M  V30 1686 C 154.59 2.25005 4.49086 0
M  V30 1687 C 156.584 4.16672 4.82352 0
M  V30 1688 C 154.271 3.50315 5.00722 0
M  V30 1689 C 155.269 4.45964 5.17306 0
M  V30 1690 O 154.957 5.69052 5.67833 0
M  V30 1691 H 154.689 0.191664 0.64826 0
M  V30 1692 H 157.243 1.17409 1.68536 0
M  V30 1693 H 155.473 -0.160549 3.86367 0
M  V30 1694 H 157.162 0.212879 4.05341 0
M  V30 1695 H 157.928 2.69622 4.03149 0
M  V30 1696 H 153.807 1.51332 4.35453 0
M  V30 1697 H 157.351 4.91336 4.95211 0
M  V30 1698 H 153.248 3.72147 5.27424 0
M  V30 1699 H 154.016 5.71236 5.86201 0
M  V30 1700 N 156.679 -1.44442 0.630414 0
M  V30 1701 C 157.589 -2.34476 -0.0761693 0
M  V30 1702 C 158.605 -1.52576 -0.836449 0
M  V30 1703 O 159.781 -1.85307 -0.788874 0
M  V30 1704 C 156.846 -3.30545 -1.04599 0
M  V30 1705 C 155.907 -4.28352 -0.28516 0
M  V30 1706 C 155.14 -5.19831 -1.20878 0
M  V30 1707 O 155.363 -5.15223 -2.44747 0
M  V30 1708 O 154.297 -5.97892 -0.693491 0
M  V30 1709 H 158.123 -2.96345 0.664324 0
M  V30 1710 H 155.708 -1.44203 0.39061 0
M  V30 1711 H 157.59 -3.89681 -1.60396 0
M  V30 1712 H 156.265 -2.7121 -1.76711 0
M  V30 1713 H 155.172 -3.72764 0.315837 0
M  V30 1714 H 156.505 -4.90605 0.395924 0
M  V30 1715 N 158.157 -0.370918 -1.53173 0
M  V30 1716 C 159.403 0.217423 -2.01631 0
M  V30 1717 C 159.736 1.47983 -1.25756 0
M  V30 1718 O 159.011 1.91274 -0.352764 0
M  V30 1719 C 159.294 0.503982 -3.56556 0
M  V30 1720 C 159.147 -0.77243 -4.43118 0
M  V30 1721 C 160.466 1.30234 -4.20389 0
M  V30 1722 H 157.585 0.0775486 -0.732909 0
M  V30 1723 H 160.227 -0.496863 -1.83388 0
M  V30 1724 H 158.377 1.11248 -3.72231 0
M  V30 1725 H 160.049 -1.4098 -4.39229 0
M  V30 1726 H 158.292 -1.39167 -4.10871 0
M  V30 1727 H 158.963 -0.526815 -5.4948 0
M  V30 1728 H 161.439 0.787546 -4.08579 0
M  V30 1729 H 160.315 1.47158 -5.28806 0
M  V30 1730 H 160.576 2.31237 -3.76805 0
M  V30 1731 N 159.635 1.57281 -0.100228 0
M  V30 1732 C 160.583 2.15542 0.874328 0
M  V30 1733 C 161.577 1.09962 1.28859 0
M  V30 1734 O 162.783 1.28298 1.26252 0
M  V30 1735 H 159.158 0.689567 0.300003 0
M  V30 1736 H 161.129 2.96241 0.35829 0
M  V30 1737 C 159.878 2.75454 2.1218 0
M  V30 1738 H 159.201 3.56384 1.81193 0
M  V30 1739 H 160.641 3.19781 2.78417 0
M  V30 1740 C 159.1 1.71602 2.89921 0
M  V30 1741 O 159.63 1.15804 3.84646 0
M  V30 1742 N 157.836 1.41975 2.53558 0
M  V30 1743 H 157.383 1.87539 1.76598 0
M  V30 1744 H 157.341 0.727274 3.05873 0
M  V30 1745 N 161.113 -0.173488 1.56642 0
M  V30 1746 C 162.023 -1.23482 1.99473 0
M  V30 1747 C 163.039 -1.48567 0.905752 0
M  V30 1748 O 164.215 -1.60758 1.21321 0
M  V30 1749 C 161.28 -2.55444 2.34413 0
M  V30 1750 C 160.341 -2.38241 3.57127 0
M  V30 1751 C 159.574 -3.63909 3.90392 0
M  V30 1752 O 159.797 -4.68996 3.24653 0
M  V30 1753 O 158.731 -3.58149 4.83749 0
M  V30 1754 H 162.557 -0.901279 2.90018 0
M  V30 1755 H 160.142 -0.380185 1.44482 0
M  V30 1756 H 162.024 -3.33292 2.57865 0
M  V30 1757 H 160.699 -2.88382 1.4703 0
M  V30 1758 H 159.606 -1.58431 3.38896 0
M  V30 1759 H 160.939 -2.10228 4.45045 0
M  V30 1760 N 162.591 -1.51276 -0.441967 0
M  V30 1761 C 164.007 -1.39349 -0.778083 0
M  V30 1762 C 164.207 -0.472212 -1.95889 0
M  V30 1763 O 163.263 0.0743551 -2.5239 0
M  V30 1764 C 164.576 -2.81292 -1.0628 0
M  V30 1765 C 166.124 -2.9041 -1.16751 0
M  V30 1766 C 166.599 -4.33251 -1.48519 0
M  V30 1767 N 168.09 -4.36336 -1.55453 0
M  V30 1768 C 168.825 -5.43885 -1.81596 0
M  V30 1769 N 168.321 -6.61601 -2.05562 0
M  V30 1770 N 170.114 -5.3136 -1.8334 0
M  V30 1771 H 162.265 -2.09729 0.335774 0
M  V30 1772 H 164.528 -0.943925 0.0878028 0
M  V30 1773 H 164.234 -3.50678 -0.267905 0
M  V30 1774 H 164.108 -3.20334 -1.99163 0
M  V30 1775 H 166.495 -2.21225 -1.95304 0
M  V30 1776 H 166.576 -2.54871 -0.217801 0
M  V30 1777 H 166.22 -5.02984 -0.704958 0
M  V30 1778 H 166.15 -4.66299 -2.44689 0
M  V30 1779 H 168.641 -3.51466 -1.38853 0
M  V30 1780 H 168.954 -7.39361 -2.24867 0
M  V30 1781 H 167.299 -6.64725 -2.02894 0
M  V30 1782 H 170.49 -4.38382 -1.64132 0
M  V30 1783 H 170.663 -6.15258 -2.03377 0
M  V30 1784 N 164.069 0.697108 -1.41344 0
M  V30 1785 C 165.032 1.79281 -1.42797 0
M  V30 1786 C 166.032 1.57607 -0.318837 0
M  V30 1787 O 167.222 1.64309 -0.578642 0
M  V30 1788 C 164.354 3.17632 -1.23785 0
M  V30 1789 H 165.547 1.79385 -2.40335 0
M  V30 1790 H 163.1 0.904582 -1.27464 0
M  V30 1791 H 163.835 3.23167 -0.270814 0
M  V30 1792 H 163.62 3.34765 -2.04144 0
M  V30 1793 H 165.11 3.97617 -1.27633 0
M  V30 1794 N 165.547 1.27147 0.931209 0
M  V30 1795 C 166.963 1.04475 1.20653 0
M  V30 1796 C 167.163 -0.223885 2.00252 0
M  V30 1797 O 166.219 -0.930332 2.34736 0
M  V30 1798 C 167.532 2.28209 1.95809 0
M  V30 1799 C 169.08 2.33211 2.08762 0
M  V30 1800 C 169.555 3.56665 2.87323 0
M  V30 1801 N 171.046 3.57201 2.94892 0
M  V30 1802 C 171.781 4.49395 3.56134 0
M  V30 1803 N 171.277 5.51889 4.18796 0
M  V30 1804 N 173.07 4.37026 3.53504 0
M  V30 1805 H 165.221 2.08612 0.399333 0
M  V30 1806 H 167.484 0.917312 0.239253 0
M  V30 1807 H 167.19 3.20538 1.44736 0
M  V30 1808 H 167.064 2.33247 2.96438 0
M  V30 1809 H 169.451 1.41391 2.59023 0
M  V30 1810 H 169.532 2.32178 1.07364 0
M  V30 1811 H 169.176 4.4882 2.37746 0
M  V30 1812 H 169.106 3.54948 3.88998 0
M  V30 1813 H 171.597 2.83074 2.50354 0
M  V30 1814 H 171.91 6.18409 4.63454 0
M  V30 1815 H 170.255 5.55735 4.17353 0
M  V30 1816 H 173.446 3.56166 3.03749 0
M  V30 1817 H 173.619 5.09067 4.00942 0
M  V30 1818 N 167.025 -1.13721 1.09112 0
M  V30 1819 C 168.302 -1.81155 0.737706 0
M  V30 1820 C 168.682 -1.96253 -0.777683 0
M  V30 1821 O 168.03 -1.52807 -1.69889 0
M  V30 1822 C 168.24 -3.16392 1.47299 0
M  V30 1823 C 169.588 -3.91787 1.63671 0
M  V30 1824 O 170.612 -3.26005 1.43524 0
M  V30 1825 O 169.471 -5.0977 1.96969 0
M  V30 1826 H 166.565 -0.783518 0.26463 0
M  V30 1827 H 169.111 -1.20676 1.19312 0
M  V30 1828 H 167.883 -3.0061 2.50498 0
M  V30 1829 H 167.506 -3.8457 1.00953 0
M  V30 1830 N 168.503 -0.877838 -1.30888 0
M  V30 1831 C 169.749 -0.493426 -1.96706 0
M  V30 1832 C 170.082 0.953504 -1.6918 0
M  V30 1833 O 169.357 1.67266 -0.992594 0
M  V30 1834 C 169.64 -0.760429 -3.51979 0
M  V30 1835 C 169.493 -2.25747 -3.89048 0
M  V30 1836 C 170.812 -0.232148 -4.39487 0
M  V30 1837 H 167.931 -0.180746 -0.714493 0
M  V30 1838 H 170.573 -1.10052 -1.54882 0
M  V30 1839 H 168.723 -0.243715 -3.87735 0
M  V30 1840 H 170.395 -2.84204 -3.63354 0
M  V30 1841 H 168.638 -2.72694 -3.37373 0
M  V30 1842 H 169.309 -2.39491 -4.97341 0
M  V30 1843 H 171.785 -0.674314 -4.106 0
M  V30 1844 H 170.661 -0.448355 -5.47066 0
M  V30 1845 H 170.922 0.866297 -4.33529 0
M  V30 1846 N 169.982 1.44106 -0.638065 0
M  V30 1847 C 170.892 2.34513 0.0637334 0
M  V30 1848 C 171.908 1.53018 0.828346 0
M  V30 1849 O 173.084 1.85723 0.779036 0
M  V30 1850 C 170.149 3.31095 1.02844 0
M  V30 1851 C 169.21 4.28497 0.26244 0
M  V30 1852 C 168.443 5.20465 1.1812 0
M  V30 1853 O 168.666 5.16514 2.42011 0
M  V30 1854 O 167.6 5.98251 0.661774 0
M  V30 1855 H 171.426 2.95989 -0.68003 0
M  V30 1856 H 169.011 1.43994 -0.398252 0
M  V30 1857 H 170.893 3.90526 1.58327 0
M  V30 1858 H 169.568 2.72144 1.7527 0
M  V30 1859 H 168.475 3.72592 -0.335602 0
M  V30 1860 H 169.808 4.90388 -0.421936 0
M  V30 1861 N 171.46 0.379036 1.52974 0
M  V30 1862 C 172.706 -0.206727 2.01744 0
M  V30 1863 C 173.039 -1.47314 1.26539 0
M  V30 1864 O 172.314 -1.91084 0.362903 0
M  V30 1865 C 172.597 -0.485066 3.56818 0
M  V30 1866 C 172.45 0.795919 4.42702 0
M  V30 1867 C 173.769 -1.28003 4.21074 0
M  V30 1868 H 170.888 -0.0736607 0.73331 0
M  V30 1869 H 173.53 0.506581 1.83122 0
M  V30 1870 H 171.68 -1.09272 3.72816 0
M  V30 1871 H 173.352 1.43307 4.38476 0
M  V30 1872 H 171.595 1.41344 4.10127 0
M  V30 1873 H 172.266 0.555947 5.49193 0
M  V30 1874 H 174.742 -0.765867 4.08991 0
M  V30 1875 H 173.618 -1.44352 5.29579 0
M  V30 1876 H 173.879 -2.29236 3.78026 0
M  V30 1877 N 172.938 -1.57226 0.108567 0
M  V30 1878 C 173.848 -2.18292 -0.859401 0
M  V30 1879 C 174.864 -1.15612 -1.30038 0
M  V30 1880 O 176.04 -1.48039 -1.36552 0
M  V30 1881 C 173.105 -2.762 -2.09558 0
M  V30 1882 C 172.166 -3.93881 -1.70752 0
M  V30 1883 C 171.399 -4.49018 -2.88477 0
M  V30 1884 O 171.622 -4.03068 -4.036 0
M  V30 1885 O 170.556 -5.39852 -2.66164 0
M  V30 1886 H 174.382 -3.01441 -0.369769 0
M  V30 1887 H 171.967 -1.48945 -0.1165 0
M  V30 1888 H 173.849 -3.13156 -2.81978 0
M  V30 1889 H 172.524 -1.96089 -2.57548 0
M  V30 1890 H 171.431 -3.61713 -0.954714 0
M  V30 1891 H 172.764 -4.75396 -1.27513 0
M  V30 1892 N 174.416 0.165178 -1.56732 0
M  V30 1893 C 175.832 0.517174 -1.50988 0
M  V30 1894 C 176.032 1.84331 -0.813894 0
M  V30 1895 O 175.088 2.49672 -0.37682 0
M  V30 1896 C 176.401 0.544261 -2.95733 0
M  V30 1897 C 177.949 0.631039 -3.06573 0
M  V30 1898 C 178.424 0.68896 -4.52788 0
M  V30 1899 N 179.915 0.751683 -4.5706 0
M  V30 1900 C 180.65 0.817177 -5.67547 0
M  V30 1901 N 180.146 0.843129 -6.8765 0
M  V30 1902 N 181.939 0.856668 -5.55534 0
M  V30 1903 H 174.09 -0.704318 -2.00382 0
M  V30 1904 H 176.353 -0.254687 -0.913148 0
M  V30 1905 H 176.059 -0.361607 -3.49836 0
M  V30 1906 H 175.933 1.3886 -3.5071 0
M  V30 1907 H 178.32 1.52733 -2.52501 0
M  V30 1908 H 178.401 -0.240095 -2.54671 0
M  V30 1909 H 178.045 -0.2031 -5.07494 0
M  V30 1910 H 177.975 1.57633 -5.02454 0
M  V30 1911 H 180.466 0.739661 -3.70591 0
M  V30 1912 H 180.779 0.894448 -7.67606 0
M  V30 1913 H 179.124 0.811304 -6.90248 0
M  V30 1914 H 182.315 0.833437 -4.60621 0
M  V30 1915 H 182.488 0.904247 -6.4166 0
M  V30 1916 N 175.894 1.51508 0.433938 0
M  V30 1917 C 176.857 1.72473 1.50949 0
M  V30 1918 C 177.857 0.594725 1.49398 0
M  V30 1919 O 179.047 0.862315 1.5136 0
M  V30 1920 C 176.179 1.78431 2.90474 0
M  V30 1921 H 177.372 2.68467 1.33662 0
M  V30 1922 H 174.925 1.41549 0.662836 0
M  V30 1923 H 175.66 0.842645 3.13161 0
M  V30 1924 H 175.445 2.60558 2.93005 0
M  V30 1925 H 176.935 1.96479 3.68491 0
M  V30 1926 N 177.372 -0.689602 1.41712 0
M  V30 1927 C 178.302 -1.81577 1.46806 0
M  V30 1928 C 179.283 -1.66945 0.326105 0
M  V30 1929 O 180.468 -1.86588 0.538377 0
M  V30 1930 C 177.598 -3.19762 1.35535 0
M  V30 1931 C 176.552 -3.49107 2.47605 0
M  V30 1932 C 175.878 -4.86711 2.21397 0
M  V30 1933 C 177.178 -3.47483 3.89939 0
M  V30 1934 H 178.872 -1.7757 2.41058 0
M  V30 1935 H 176.418 -0.852887 1.16025 0
M  V30 1936 H 178.371 -3.98263 1.3771 0
M  V30 1937 H 177.095 -3.24409 0.377708 0
M  V30 1938 H 175.754 -2.72959 2.44722 0
M  V30 1939 H 175.402 -4.8799 1.21961 0
M  V30 1940 H 175.102 -5.0731 2.96497 0
M  V30 1941 H 176.626 -5.67515 2.25297 0
M  V30 1942 H 178.04 -4.1598 3.94505 0
M  V30 1943 H 176.437 -3.79615 4.64771 0
M  V30 1944 H 177.507 -2.46341 4.17665 0
M  V30 1945 N 178.85 -1.27639 -0.924453 0
M  V30 1946 C 180.266 -1.05113 -1.20097 0
M  V30 1947 C 180.466 0.213262 -2.00368 0
M  V30 1948 O 179.522 0.91787 -2.35226 0
M  V30 1949 C 180.835 -2.29244 -1.94596 0
M  V30 1950 C 182.383 -2.34315 -2.07522 0
M  V30 1951 C 182.858 -3.58183 -2.85427 0
M  V30 1952 N 184.349 -3.5876 -2.92994 0
M  V30 1953 C 185.084 -4.51277 -3.53746 0
M  V30 1954 N 184.58 -5.54102 -4.15863 0
M  V30 1955 N 186.373 -4.38894 -3.51181 0
M  V30 1956 H 178.524 -2.08821 -0.388264 0
M  V30 1957 H 180.787 -0.918568 -0.234385 0
M  V30 1958 H 180.493 -3.21301 -1.43034 0
M  V30 1959 H 180.367 -2.34816 -2.95197 0
M  V30 1960 H 182.754 -1.42762 -2.58269 0
M  V30 1961 H 182.835 -2.32744 -1.06131 0
M  V30 1962 H 182.479 -4.50074 -2.35363 0
M  V30 1963 H 182.409 -3.57006 -3.8711 0
M  V30 1964 H 184.9 -2.84398 -2.4885 0
M  V30 1965 H 185.213 -6.20859 -4.60168 0
M  V30 1966 H 183.558 -5.57941 -4.144 0
M  V30 1967 H 186.749 -3.57772 -3.01856 0
M  V30 1968 H 186.922 -5.11186 -3.98237 0
M  V30 1969 N 180.328 1.1314 -1.09713 0
M  V30 1970 C 181.276 2.20717 -0.733934 0
M  V30 1971 C 182.27 1.6729 0.266506 0
M  V30 1972 O 183.476 1.79547 0.127656 0
M  V30 1973 H 179.851 0.719292 -0.21937 0
M  V30 1974 H 181.822 2.48611 -1.6503 0
M  V30 1975 C 180.571 3.47265 -0.173849 0
M  V30 1976 H 179.894 3.88716 -0.934873 0
M  V30 1977 H 181.334 4.23979 0.0423126 0
M  V30 1978 C 179.793 3.18724 1.09164 0
M  V30 1979 O 180.323 3.37762 2.17439 0
M  V30 1980 N 178.529 2.72583 1.00732 0
M  V30 1981 H 178.076 2.57291 0.126121 0
M  V30 1982 H 178.034 2.53862 1.85476 0
M  V30 1983 N 181.806 0.884767 1.30421 0
M  V30 1984 C 183.052 0.503851 1.96441 0
M  V30 1985 C 183.385 -0.944518 1.69684 0
M  V30 1986 O 182.66 -1.66737 1.00145 0
M  V30 1987 C 182.943 0.779085 3.51571 0
M  V30 1988 C 182.796 2.27807 3.87846 0
M  V30 1989 C 184.115 0.255452 4.39358 0
M  V30 1990 H 181.234 0.184533 0.713524 0
M  V30 1991 H 183.876 1.10872 1.54297 0
M  V30 1992 H 182.026 0.264274 3.876 0
M  V30 1993 H 183.698 2.86127 3.61841 0
M  V30 1994 H 181.941 2.74479 3.35922 0
M  V30 1995 H 182.612 2.42125 4.96064 0
M  V30 1996 H 185.088 0.696079 4.10236 0
M  V30 1997 H 183.964 0.477361 5.4682 0
M  V30 1998 H 184.225 -0.843293 4.33983 0
M  V30 1999 N 183.284 -1.43765 0.645699 0
M  V30 2000 C 184.53 -2.02197 0.156271 0
M  V30 2001 C 184.863 -1.50776 -1.22393 0
M  V30 2002 O 184.138 -0.697771 -1.81553 0
M  V30 2003 C 184.421 -3.59749 0.158872 0
M  V30 2004 C 184.274 -4.21419 1.57245 0
M  V30 2005 C 185.593 -4.37149 -0.50879 0
M  V30 2006 H 182.712 -0.734694 0.0582602 0
M  V30 2007 H 185.354 -1.71157 0.824951 0
M  V30 2008 H 183.504 -3.86325 -0.410525 0
M  V30 2009 H 185.176 -4.059 2.19186 0
M  V30 2010 H 183.419 -3.78356 2.122 0
M  V30 2011 H 184.09 -5.30482 1.52619 0
M  V30 2012 H 186.566 -4.16093 -0.024412 0
M  V30 2013 H 185.442 -5.4683 -0.476213 0
M  V30 2014 H 185.703 -4.12839 -1.58165 0
M  V30 2015 N 184.763 -0.387143 -1.52771 0
M  V30 2016 C 186.003 0.195537 -2.03463 0
M  V30 2017 C 186.367 1.44222 -1.26744 0
M  V30 2018 O 187.568 2.10192 -1.67549 0
M  V30 2019 C 185.839 0.459097 -3.54439 0
M  V30 2020 S 187.398 1.01237 -4.26962 0
M  V30 2021 H 184.216 0.0552675 -0.708849 0
M  V30 2022 H 186.818 -0.534992 -1.88037 0
M  V30 2023 H 185.522 -0.455382 -4.07866 0
M  V30 2024 H 185.053 1.21811 -3.74066 0
M  V30 2025 H 187.068 2.29492 -4.39941 0
M  V30 2026 N 186.241 1.57166 -0.116904 0
M  V30 2027 C 187.151 2.18745 0.847812 0
M  V30 2028 C 188.167 1.163 1.29423 0
M  V30 2029 O 189.343 1.48761 1.35765 0
M  V30 2030 C 186.408 2.77307 2.0809 0
M  V30 2031 C 185.469 3.94781 1.68661 0
M  V30 2032 C 184.702 4.50541 2.86091 0
M  V30 2033 O 184.925 4.05202 4.01456 0
M  V30 2034 O 183.859 5.41256 2.63298 0
M  V30 2035 H 187.685 3.01632 0.353778 0
M  V30 2036 H 185.27 1.49005 0.108599 0
M  V30 2037 H 187.152 3.14647 2.80313 0
M  V30 2038 H 185.827 1.97452 2.56504 0
M  V30 2039 H 184.734 3.62214 0.935518 0
M  V30 2040 H 186.067 4.76065 1.24991 0
M  V30 2041 N 187.719 -0.156864 1.56817 0
M  V30 2042 C 188.967 -0.869404 1.82444 0
M  V30 2043 C 189.288 -1.82147 0.69623 0
M  V30 2044 O 188.558 -1.93847 -0.28287 0
M  V30 2045 H 187.138 -0.324043 0.673056 0
M  V30 2046 H 189.8 -0.153224 1.94297 0
M  V30 2047 H 188.896 -1.43761 2.77019 0
M  V30 2048 N 189.197 -1.51736 -0.425897 0
M  V30 2049 C 190.444 -1.6497 -1.17436 0
M  V30 2050 C 190.772 -0.371445 -1.9092 0
M  V30 2051 O 190.027 0.644963 -1.84767 0
M  V30 2052 C 190.326 -2.81103 -2.20717 0
M  V30 2053 C 189.992 -4.19954 -1.64162 0
M  V30 2054 C 188.654 -4.57725 -1.48462 0
M  V30 2055 C 191.006 -5.06552 -1.22696 0
M  V30 2056 C 188.334 -5.79789 -0.897873 0
M  V30 2057 C 190.686 -6.29205 -0.654464 0
M  V30 2058 C 189.35 -6.6574 -0.484456 0
M  V30 2059 H 188.62 -0.603668 -0.429727 0
M  V30 2060 H 191.267 -1.85798 -0.463829 0
M  V30 2061 H 189.572 -2.54542 -2.97852 0
M  V30 2062 H 191.269 -2.8854 -2.78471 0
M  V30 2063 H 187.859 -3.90181 -1.77361 0
M  V30 2064 H 192.043 -4.77968 -1.33642 0
M  V30 2065 H 187.299 -6.06733 -0.75402 0
M  V30 2066 H 191.473 -6.95643 -0.324694 0
M  V30 2067 H 189.1 -7.60195 -0.0276833 0
M  V30 2068 N 190.675 0.682077 -1.42076 0
M  V30 2069 C 191.952 1.43755 -1.32642 0
M  V30 2070 C 192.332 2.11063 0.0396611 0
M  V30 2071 O 191.68 2.02701 1.05474 0
M  V30 2072 C 191.89 2.44596 -2.48946 0
M  V30 2073 C 193.238 3.09454 -2.9073 0
M  V30 2074 O 194.262 2.54922 -2.48783 0
M  V30 2075 O 193.121 4.08253 -3.63307 0
M  V30 2076 H 190.215 0.640857 -0.522715 0
M  V30 2077 H 192.761 0.711415 -1.54068 0
M  V30 2078 H 191.533 1.93609 -3.40046 0
M  V30 2079 H 191.156 3.24701 -2.29467 0
M  V30 2080 N 192.153 1.28127 0.917671 0
M  V30 2081 C 193.43 1.05761 1.64542 0
M  V30 2082 C 193.81 -0.404344 2.07191 0
M  V30 2083 O 193.158 -1.38963 1.81388 0
M  V30 2084 C 193.368 2.02857 2.83989 0
M  V30 2085 C 194.716 2.32786 3.551 0
M  V30 2086 O 195.74 2.0091 2.94132 0
M  V30 2087 O 194.599 2.87169 4.64969 0
M  V30 2088 H 191.693 0.403916 0.721652 0
M  V30 2089 H 194.239 1.39431 0.967322 0
M  V30 2090 H 193.011 3.01407 2.49538 0
M  V30 2091 H 192.634 1.69809 3.59514 0
M  V30 2092 N 193.631 -1.12557 1.10312 0
M  V30 2093 C 194.856 -1.88405 0.867085 0
M  V30 2094 C 195.281 -1.79038 -0.576817 0
M  V30 2095 O 194.639 -1.14439 -1.40618 0
M  V30 2096 C 194.687 -3.3563 1.31851 0
M  V30 2097 O 193.791 -4.09565 0.482734 0
M  V30 2098 H 193.132 -0.585455 0.313271 0
M  V30 2099 H 195.662 -1.42352 1.4696 0
M  V30 2100 H 195.672 -3.86469 1.3079 0
M  V30 2101 H 194.347 -3.41765 2.37001 0
M  V30 2102 H 192.924 -3.68695 0.558448 0
M  V30 2103 N 195.109 -0.891671 -1.2995 0
M  V30 2104 C 196.355 -0.514261 -1.96171 0
M  V30 2105 C 196.688 0.935506 -1.70182 0
M  V30 2106 O 195.963 1.66204 -1.01028 0
M  V30 2107 C 196.246 -0.797719 -3.51153 0
M  V30 2108 C 196.099 -2.2986 -3.86632 0
M  V30 2109 C 197.418 -0.278749 -4.39216 0
M  V30 2110 H 194.537 -0.188314 -0.712535 0
M  V30 2111 H 197.179 -1.11689 -1.53706 0
M  V30 2112 H 195.329 -0.284826 -3.87455 0
M  V30 2113 H 197.001 -2.88042 -3.60319 0
M  V30 2114 H 195.244 -2.76257 -3.34462 0
M  V30 2115 H 195.915 -2.44753 -4.94773 0
M  V30 2116 H 198.391 -0.717825 -4.09862 0
M  V30 2117 H 197.267 -0.506353 -5.46559 0
M  V30 2118 H 197.528 0.820266 -4.34424 0
M  V30 2119 N 196.587 1.43421 -0.653314 0
M  V30 2120 C 197.836 2.01032 -0.164076 0
M  V30 2121 C 198.149 1.52147 1.22926 0
M  V30 2122 O 199.355 2.02031 1.81371 0
M  V30 2123 C 197.811 3.59082 -0.24252 0
M  V30 2124 C 197.419 4.1696 -1.63855 0
M  V30 2125 C 199.163 4.24079 0.18911 0
M  V30 2126 C 197.07 5.67304 -1.67092 0
M  V30 2127 H 196 0.751798 -0.0575769 0
M  V30 2128 H 198.651 1.6439 -0.815362 0
M  V30 2129 H 197.033 3.93125 0.476276 0
M  V30 2130 H 198.207 3.94416 -2.38271 0
M  V30 2131 H 196.522 3.64335 -2.01616 0
M  V30 2132 H 199.119 5.34381 0.184775 0
M  V30 2133 H 199.462 3.98005 1.22056 0
M  V30 2134 H 199.995 3.94918 -0.477938 0
M  V30 2135 H 196.734 5.98145 -2.68146 0
M  V30 2136 H 196.254 5.91904 -0.970014 0
M  V30 2137 H 197.933 6.31344 -1.4147 0
M  V30 2138 N 198.065 0.39524 1.52563 0
M  V30 2139 C 198.995 -0.428384 2.29537 0
M  V30 2140 C 199.976 -1.05831 1.33169 0
M  V30 2141 O 201.161 -1.06995 1.62067 0
M  V30 2142 C 198.291 -1.55274 3.10656 0
M  V30 2143 C 197.245 -1.04855 4.14957 0
M  V30 2144 C 196.571 -2.26543 4.84337 0
M  V30 2145 C 197.871 -0.112324 5.22179 0
M  V30 2146 H 199.565 0.213867 2.98635 0
M  V30 2147 H 197.111 0.104298 1.43622 0
M  V30 2148 H 199.064 -2.1358 3.63265 0
M  V30 2149 H 197.788 -2.22266 2.39302 0
M  V30 2150 H 196.447 -0.487985 3.63338 0
M  V30 2151 H 196.095 -2.92059 4.09525 0
M  V30 2152 H 195.795 -1.93466 5.54837 0
M  V30 2153 H 197.319 -2.85481 5.39753 0
M  V30 2154 H 198.733 -0.603752 5.70112 0
M  V30 2155 H 197.13 0.128968 5.99961 0
M  V30 2156 H 198.2 0.837052 4.77621 0
M  V30 2157 N 199.544 -1.57102 0.125237 0
M  V30 2158 C 200.955 -1.82384 -0.399142 0
M  V30 2159 C 201.306 -1.04276 -1.66195 0
M  V30 2160 O 200.431 -0.281269 -2.14564 0
M  V30 2161 C 201.026 -3.30821 -0.730932 0
M  V30 2162 C 199.585 -3.56762 -1.19992 0
M  V30 2163 C 198.732 -2.7649 -0.211792 0
M  V30 2164 H 201.683 -1.54786 0.350277 0
M  V30 2165 H 201.704 -3.4579 -1.58775 0
M  V30 2166 H 201.216 -3.87643 0.188345 0
M  V30 2167 H 199.317 -3.05305 -2.13588 0
M  V30 2168 H 199.43 -4.65317 -1.14093 0
M  V30 2169 H 197.794 -2.4489 -0.700085 0
M  V30 2170 H 198.577 -3.36073 0.700691 0
M  V30 2171 N 201.022 0.148545 -1.56898 0
M  V30 2172 C 202.433 0.708766 -1.72723 0
M  V30 2173 C 202.784 1.81734 -0.739395 0
M  V30 2174 O 201.909 2.16194 0.0943169 0
M  V30 2175 C 202.504 1.29245 -3.13179 0
M  V30 2176 C 201.063 1.79925 -3.30611 0
M  V30 2177 C 200.21 0.687111 -2.68652 0
M  V30 2178 H 203.161 -0.0771063 -1.58513 0
M  V30 2179 H 203.182 2.16224 -3.13093 0
M  V30 2180 H 202.694 0.485382 -3.85053 0
M  V30 2181 H 200.795 2.63203 -2.63732 0
M  V30 2182 H 200.908 1.92903 -4.38549 0
M  V30 2183 H 199.272 1.11335 -2.29078 0
M  V30 2184 H 200.055 -0.108483 -3.43129 0
M  V30 2185 N 202.5 1.5196 0.417844 0
M  V30 2186 C 203.748 1.65263 1.16329 0
M  V30 2187 C 204.069 0.380634 1.91249 0
M  V30 2188 O 203.339 -0.604214 1.86349 0
M  V30 2189 H 201.919 0.60912 0.432414 0
M  V30 2190 H 204.581 1.88969 0.477162 0
M  V30 2191 H 203.677 2.4896 1.88217 0
M  V30 2192 N 203.978 -0.674533 1.42435 0
M  V30 2193 C 204.941 -1.76986 1.45632 0
M  V30 2194 C 205.941 -1.5708 0.343871 0
M  V30 2195 O 207.131 -1.63367 0.604709 0
M  V30 2196 C 204.263 -3.15623 1.28822 0
M  V30 2197 H 205.456 -1.75539 2.43158 0
M  V30 2198 H 203.009 -0.884189 1.28887 0
M  V30 2199 H 203.744 -3.22696 0.322193 0
M  V30 2200 H 203.529 -3.31475 2.09444 0
M  V30 2201 H 205.019 -3.95537 1.33942 0
M  V30 2202 N 205.456 -1.28612 -0.910864 0
M  V30 2203 C 206.702 -1.16106 -1.66274 0
M  V30 2204 C 207.035 0.289113 -1.92036 0
M  V30 2205 O 206.31 1.21 -1.52281 0
M  V30 2206 C 206.593 -1.96309 -3.01885 0
M  V30 2207 C 206.446 -3.49405 -2.8326 0
M  V30 2208 C 207.765 -1.78076 -4.02463 0
M  V30 2209 H 204.884 -0.423152 -0.603417 0
M  V30 2210 H 207.526 -1.57961 -1.05586 0
M  V30 2211 H 205.676 -1.60742 -3.53687 0
M  V30 2212 H 207.348 -3.94894 -2.38446 0
M  V30 2213 H 205.591 -3.74893 -2.18261 0
M  V30 2214 H 206.262 -4.00784 -3.79574 0
M  V30 2215 H 208.738 -2.0912 -3.59733 0
M  V30 2216 H 207.614 -2.36561 -4.95308 0
M  V30 2217 H 207.875 -0.733008 -4.35981 0
M  V30 2218 N 206.934 1.1197 -1.10907 0
M  V30 2219 C 207.867 2.16998 -0.706192 0
M  V30 2220 C 208.845 1.59903 0.294897 0
M  V30 2221 O 210.029 1.87513 0.192636 0
M  V30 2222 C 207.156 3.38673 -0.0427664 0
M  V30 2223 C 206.202 4.14414 -1.00811 0
M  V30 2224 S 207.035 4.72079 -2.52789 0
M  V30 2225 C 208.191 5.97083 -1.87731 0
M  V30 2226 H 208.424 2.50837 -1.59587 0
M  V30 2227 H 205.957 1.23508 -0.926555 0
M  V30 2228 H 207.915 4.09142 0.333668 0
M  V30 2229 H 206.576 3.03105 0.823788 0
M  V30 2230 H 205.769 5.016 -0.491259 0
M  V30 2231 H 205.371 3.49678 -1.3267 0
M  V30 2232 H 207.663 6.66599 -1.21044 0
M  V30 2233 H 208.606 6.53403 -2.72892 0
M  V30 2234 H 209.014 5.4837 -1.33979 0
M  V30 2235 N 208.412 0.89855 1.29475 0
M  V30 2236 C 209.64 0.539261 1.99749 0
M  V30 2237 C 210.055 -0.875716 1.67262 0
M  V30 2238 O 209.412 -1.57786 0.917049 0
M  V30 2239 C 209.463 0.72061 3.54245 0
M  V30 2240 O 209.184 2.07989 3.8558 0
M  V30 2241 C 210.685 0.366118 4.41786 0
M  V30 2242 H 207.905 0.207047 0.638258 0
M  V30 2243 H 210.449 1.20758 1.65039 0
M  V30 2244 H 208.604 0.0994862 3.87272 0
M  V30 2245 H 209.018 2.10841 4.80257 0
M  V30 2246 H 210.492 0.543848 5.49314 0
M  V30 2247 H 210.969 -0.696763 4.33638 0
M  V30 2248 H 211.575 0.964135 4.14228 0
M  V30 2249 N 209.89 -1.43072 0.660911 0
M  V30 2250 C 211.138 -2.01323 0.177094 0
M  V30 2251 C 211.459 -1.5245 -1.2159 0
M  V30 2252 O 210.729 -0.740322 -1.81373 0
M  V30 2253 H 209.309 -0.744382 0.0624804 0
M  V30 2254 H 211.971 -1.75179 0.854305 0
M  V30 2255 H 211.067 -3.11649 0.167641 0
M  V30 2256 N 211.368 -0.403325 -1.52352 0
M  V30 2257 C 212.316 0.439752 -2.28405 0
M  V30 2258 C 213.31 1.05089 -1.32863 0
M  V30 2259 O 214.516 0.989759 -1.50345 0
M  V30 2260 H 210.891 0.160587 -0.734653 0
M  V30 2261 H 212.862 -0.222983 -2.97566 0
M  V30 2262 C 211.611 1.54736 -3.11371 0
M  V30 2263 H 210.934 1.08643 -3.84755 0
M  V30 2264 H 212.374 2.1112 -3.67701 0
M  V30 2265 C 210.833 2.51141 -2.24566 0
M  V30 2266 O 211.363 3.54887 -1.88196 0
M  V30 2267 N 209.569 2.21213 -1.8845 0
M  V30 2268 H 209.116 1.36878 -2.18225 0
M  V30 2269 H 209.074 2.85963 -1.30662 0
M  V30 2270 N 212.846 1.57033 -0.133567 0
M  V30 2271 C 213.796 2.12641 0.822671 0
M  V30 2272 C 214.78 1.05081 1.21847 0
M  V30 2273 O 215.972 1.31287 1.18713 0
M  V30 2274 C 213.101 2.74094 2.06706 0
M  V30 2275 C 212.187 3.88757 1.69497 0
M  V30 2276 N 212.578 4.95194 1.03037 0
M  V30 2277 C 210.876 3.99213 1.98859 0
M  V30 2278 C 211.577 5.75414 0.852873 0
M  V30 2279 N 210.553 5.25726 1.3825 0
M  V30 2280 H 214.355 2.92308 0.305537 0
M  V30 2281 H 211.869 1.62256 0.0684276 0
M  V30 2282 H 213.866 3.12285 2.76195 0
M  V30 2283 H 212.526 1.95896 2.5895 0
M  V30 2284 H 213.537 5.13247 0.692669 0
M  V30 2285 H 210.214 3.32075 2.53047 0
M  V30 2286 H 211.604 6.71089 0.330091 0
M  V30 2287 N 214.325 -0.140222 1.56975 0
M  V30 2288 C 215.235 -1.19223 2.02047 0
M  V30 2289 C 216.251 -1.46612 0.937062 0
M  V30 2290 O 217.427 -1.58148 1.24704 0
M  V30 2291 C 214.492 -2.50414 2.39778 0
M  V30 2292 C 213.553 -2.30612 3.621 0
M  V30 2293 C 212.786 -3.55547 3.98023 0
M  V30 2294 O 213.009 -4.62004 3.34528 0
M  V30 2295 O 211.943 -3.47808 4.91237 0
M  V30 2296 H 215.769 -0.839559 2.91865 0
M  V30 2297 H 213.354 -0.349453 1.45256 0
M  V30 2298 H 215.236 -3.27747 2.64877 0
M  V30 2299 H 213.911 -2.85198 1.53114 0
M  V30 2300 H 212.818 -1.51207 3.4218 0
M  V30 2301 H 214.151 -2.00741 4.49404 0
M  V30 2302 N 215.803 -1.52179 -0.40978 0
M  V30 2303 C 216.736 -1.70196 -1.52015 0
M  V30 2304 C 217.714 -0.549542 -1.53032 0
M  V30 2305 O 218.898 -0.776815 -1.71749 0
M  V30 2306 C 216.025 -1.74069 -2.90547 0
M  V30 2307 C 215.071 -2.95601 -3.07445 0
M  V30 2308 S 215.904 -4.55956 -2.80827 0
M  V30 2309 C 217.06 -4.62614 -4.21591 0
M  V30 2310 H 217.293 -2.64109 -1.36504 0
M  V30 2311 H 214.826 -1.4221 -0.601312 0
M  V30 2312 H 216.784 -1.76985 -3.70387 0
M  V30 2313 H 215.445 -0.812835 -3.034 0
M  V30 2314 H 214.638 -2.94791 -4.08796 0
M  V30 2315 H 214.24 -2.90569 -2.35469 0
M  V30 2316 H 216.532 -4.39951 -5.15218 0
M  V30 2317 H 217.475 -5.64548 -4.27424 0
M  V30 2318 H 217.883 -3.91654 -4.06531 0
M  V30 2319 N 217.281 0.66697 -1.42791 0
M  V30 2320 C 218.511 1.45294 -1.46878 0
M  V30 2321 C 218.919 1.89027 -0.0809861 0
M  V30 2322 O 218.262 1.59219 0.916246 0
M  V30 2323 C 218.324 2.72908 -2.34012 0
M  V30 2324 C 217.988 2.51203 -3.81767 0
M  V30 2325 C 218.985 2.15302 -4.73224 0
M  V30 2326 C 216.67 2.65954 -4.26115 0
M  V30 2327 C 218.664 1.94431 -6.07022 0
M  V30 2328 C 216.351 2.44699 -5.59969 0
M  V30 2329 C 217.349 2.08992 -6.5024 0
M  V30 2330 O 217.037 1.87948 -7.81621 0
M  V30 2331 H 216.769 0.453306 -0.501487 0
M  V30 2332 H 219.323 0.826232 -1.88049 0
M  V30 2333 H 217.553 3.38089 -1.87703 0
M  V30 2334 H 219.242 3.34816 -2.29462 0
M  V30 2335 H 220.008 2.03495 -4.40244 0
M  V30 2336 H 215.887 2.92724 -3.56137 0
M  V30 2337 H 219.431 1.66484 -6.77443 0
M  V30 2338 H 215.328 2.56105 -5.9252 0
M  V30 2339 H 216.096 2.02483 -7.93059 0
M  V30 2340 N 218.759 1.29093 0.90403 0
M  V30 2341 C 219.706 1.13853 2.00764 0
M  V30 2342 C 220.676 0.0330084 1.66067 0
M  V30 2343 O 221.861 0.199733 1.89752 0
M  V30 2344 C 219.001 0.816537 3.35301 0
M  V30 2345 C 218.114 2.00206 3.82807 0
M  V30 2346 C 217.249 1.61983 5.059 0
M  V30 2347 C 216.288 2.77143 5.45764 0
M  V30 2348 N 215.425 2.39346 6.60044 0
M  V30 2349 H 220.265 2.08276 2.13132 0
M  V30 2350 H 217.802 1.03648 1.04381 0
M  V30 2351 H 219.76 0.610557 4.12708 0
M  V30 2352 H 218.39 -0.090779 3.22672 0
M  V30 2353 H 217.442 2.31988 3.01473 0
M  V30 2354 H 218.754 2.86512 4.08304 0
M  V30 2355 H 217.908 1.37649 5.90879 0
M  V30 2356 H 216.647 0.728202 4.82233 0
M  V30 2357 H 215.652 3.02165 4.59322 0
M  V30 2358 H 216.877 3.66964 5.71414 0
M  V30 2359 H 214.823 1.52665 6.37989 0
M  V30 2360 H 214.74 3.19185 6.85315 0
M  V30 2361 H 216.008 2.1832 7.48303 0
M  V30 2362 N 220.237 -1.11381 1.11499 0
M  V30 2363 C 221.483 -1.83403 0.865512 0
M  V30 2364 C 221.816 -1.84459 -0.607329 0
M  V30 2365 O 221.091 -1.29811 -1.44842 0
M  V30 2366 C 221.374 -3.30552 1.42855 0
M  V30 2367 C 221.227 -3.37886 2.96906 0
M  V30 2368 C 222.546 -4.26643 1.08 0
M  V30 2369 H 219.665 -0.665879 0.31587 0
M  V30 2370 H 222.307 -1.30601 1.37998 0
M  V30 2371 H 220.457 -3.75648 0.990985 0
M  V30 2372 H 222.129 -3.01343 3.49271 0
M  V30 2373 H 220.372 -2.78088 3.32941 0
M  V30 2374 H 221.043 -4.41458 3.31389 0
M  V30 2375 H 223.519 -3.89729 1.45775 0
M  V30 2376 H 222.395 -5.27986 1.50072 0
M  V30 2377 H 222.656 -4.42099 -0.00915037 0
M  V30 2378 N 221.715 -0.905404 -1.28997 0
M  V30 2379 C 222.962 -0.534248 -1.95325 0
M  V30 2380 C 223.29 0.920535 -1.71337 0
M  V30 2381 O 222.545 1.66861 -1.02254 0
M  V30 2382 C 222.844 -0.779906 -3.48787 0
M  V30 2383 C 222.51 -2.21293 -3.92861 0
M  V30 2384 C 221.172 -2.60475 -4.04606 0
M  V30 2385 C 223.524 -3.14587 -4.15553 0
M  V30 2386 C 220.852 -3.9212 -4.36416 0
M  V30 2387 C 223.204 -4.45787 -4.48839 0
M  V30 2388 C 221.868 -4.84834 -4.58794 0
M  V30 2389 H 221.138 -0.195495 -0.714747 0
M  V30 2390 H 223.785 -1.14514 -1.53488 0
M  V30 2391 H 222.09 -0.0861365 -3.91705 0
M  V30 2392 H 223.787 -0.472029 -3.98212 0
M  V30 2393 H 220.377 -1.89887 -3.84241 0
M  V30 2394 H 224.561 -2.85528 -4.0594 0
M  V30 2395 H 219.817 -4.22086 -4.42327 0
M  V30 2396 H 223.991 -5.18098 -4.65346 0
M  V30 2397 H 221.618 -5.86877 -4.83197 0
M  V30 2398 N 223.193 1.4272 -0.668489 0
M  V30 2399 C 224.421 2.05966 -0.196348 0
M  V30 2400 C 224.836 1.50191 1.14403 0
M  V30 2401 O 224.193 0.639208 1.7094 0
M  V30 2402 C 224.244 3.61314 -0.115815 0
M  V30 2403 O 223.965 4.1502 -1.40322 0
M  V30 2404 C 225.466 4.41663 0.380579 0
M  V30 2405 H 222.686 0.663954 -0.0969829 0
M  V30 2406 H 225.23 1.82966 -0.913446 0
M  V30 2407 H 223.385 3.83448 0.551931 0
M  V30 2408 H 223.799 5.08832 -1.27243 0
M  V30 2409 H 225.273 5.5065 0.385848 0
M  V30 2410 H 225.75 4.15792 1.41471 0
M  V30 2411 H 226.356 4.24534 -0.255209 0
M  V30 2412 N 224.671 0.411399 1.52136 0
M  V30 2413 C 226.082 -0.0576826 1.86611 0
M  V30 2414 C 226.433 -1.44238 1.33003 0
M  V30 2415 O 225.558 -2.05759 0.670228 0
M  V30 2416 C 226.153 -0.111448 3.38617 0
M  V30 2417 C 224.712 -0.52487 3.72723 0
M  V30 2418 C 223.859 0.299176 2.75681 0
M  V30 2419 H 226.81 0.628368 1.4573 0
M  V30 2420 H 226.831 -0.926252 3.69054 0
M  V30 2421 H 226.343 0.896488 3.77604 0
M  V30 2422 H 224.444 -1.53936 3.39315 0
M  V30 2423 H 224.557 -0.267681 4.78352 0
M  V30 2424 H 222.921 -0.238814 2.53578 0
M  V30 2425 H 223.704 1.3055 3.17508 0
M  V30 2426 N 226.149 -1.5696 0.141893 0
M  V30 2427 C 227.396 -1.9596 -0.510492 0
M  V30 2428 C 227.724 -1.02648 -1.65208 0
M  V30 2429 O 226.979 -0.0546947 -1.95624 0
M  V30 2430 C 227.278 -3.41242 -1.06249 0
M  V30 2431 C 226.944 -4.50882 -0.0398791 0
M  V30 2432 C 225.606 -4.80595 0.241247 0
M  V30 2433 C 227.958 -5.17058 0.65578 0
M  V30 2434 C 225.286 -5.73792 1.22393 0
M  V30 2435 C 227.638 -6.11313 1.62724 0
M  V30 2436 C 226.302 -6.39407 1.91612 0
M  V30 2437 H 225.572 -0.717068 -0.186802 0
M  V30 2438 H 228.219 -1.90142 0.227643 0
M  V30 2439 H 226.524 -3.43866 -1.87785 0
M  V30 2440 H 228.221 -3.68742 -1.57576 0
M  V30 2441 H 224.811 -4.27754 -0.269174 0
M  V30 2442 H 228.995 -4.94239 0.451779 0
M  V30 2443 H 224.251 -5.93853 1.45424 0
M  V30 2444 H 228.425 -6.61668 2.17183 0
M  V30 2445 H 226.052 -7.11427 2.6791 0
M  V30 2446 N 227.627 0.131896 -1.57047 0
M  V30 2447 C 228.574 1.16236 -1.99393 0
M  V30 2448 C 229.544 1.41863 -0.863943 0
M  V30 2449 O 230.729 1.53946 -1.12718 0
M  V30 2450 C 227.869 2.48708 -2.39245 0
M  V30 2451 C 226.982 2.30127 -3.65603 0
M  V30 2452 C 226.117 3.55738 -3.94492 0
M  V30 2453 C 225.156 3.32259 -5.14073 0
M  V30 2454 N 224.293 4.50039 -5.38896 0
M  V30 2455 H 229.133 0.794251 -2.87221 0
M  V30 2456 H 226.67 0.380707 -1.42088 0
M  V30 2457 H 228.628 3.25969 -2.60384 0
M  V30 2458 H 227.258 2.83437 -1.54478 0
M  V30 2459 H 226.31 1.43845 -3.52154 0
M  V30 2460 H 227.622 2.08746 -4.5302 0
M  V30 2461 H 226.776 4.41423 -4.1621 0
M  V30 2462 H 225.515 3.80138 -3.05526 0
M  V30 2463 H 224.52 2.44963 -4.92212 0
M  V30 2464 H 225.745 3.09242 -6.04604 0
M  V30 2465 H 223.691 4.74584 -4.52886 0
M  V30 2466 H 223.608 4.31716 -6.2061 0
M  V30 2467 H 224.876 5.36895 -5.65123 0
M  V30 2468 N 229.106 1.52395 0.401703 0
M  V30 2469 C 230.054 1.7689 1.51039 0
M  V30 2470 C 231.048 0.636298 1.56996 0
M  V30 2471 O 232.254 0.818507 1.60314 0
M  V30 2472 H 228.629 0.559502 0.502456 0
M  V30 2473 H 230.6 2.69757 1.27568 0
M  V30 2474 C 229.349 1.94331 2.88324 0
M  V30 2475 H 228.672 2.80905 2.84486 0
M  V30 2476 H 230.112 2.15466 3.65172 0
M  V30 2477 C 228.571 0.712396 3.29282 0
M  V30 2478 O 229.101 -0.116218 4.01532 0
M  V30 2479 N 227.307 0.546154 2.85422 0
M  V30 2480 H 226.854 1.22156 2.26794 0
M  V30 2481 H 226.812 -0.276113 3.13185 0
M  V30 2482 N 230.584 -0.659388 1.43143 0
M  V30 2483 C 231.547 -1.75432 1.47501 0
M  V30 2484 C 232.547 -1.56707 0.360512 0
M  V30 2485 O 233.737 -1.62717 0.622002 0
M  V30 2486 C 230.869 -3.14239 1.32162 0
M  V30 2487 H 232.062 -1.7295 2.45006 0
M  V30 2488 H 229.615 -0.870469 1.29817 0
M  V30 2489 H 230.35 -3.22336 0.356401 0
M  V30 2490 H 230.135 -3.29235 2.12948 0
M  V30 2491 H 231.625 -3.94094 1.3813 0
M  V30 2492 N 232.062 -1.29571 -0.897171 0
M  V30 2493 C 233.308 -1.18873 -1.65048 0
M  V30 2494 C 233.663 0.256707 -1.9068 0
M  V30 2495 O 232.956 1.18202 -1.50794 0
M  V30 2496 C 233.15 -1.9382 -3.00281 0
M  V30 2497 C 232.979 -3.45503 -2.8785 0
M  V30 2498 C 231.749 -4.14856 -2.88483 0
M  V30 2499 C 233.947 -4.40956 -2.64693 0
M  V30 2500 N 231.929 -5.52886 -2.66815 0
M  V30 2501 C 233.3 -5.66464 -2.5203 0
M  V30 2502 C 235.355 -4.3069 -2.49821 0
M  V30 2503 C 234.058 -6.82871 -2.26008 0
M  V30 2504 C 236.084 -5.46852 -2.25182 0
M  V30 2505 C 235.446 -6.71333 -2.13286 0
M  V30 2506 H 231.545 -0.489998 -0.609447 0
M  V30 2507 H 234.129 -1.63431 -1.05822 0
M  V30 2508 H 232.3 -1.51671 -3.57562 0
M  V30 2509 H 234.032 -1.75366 -3.64731 0
M  V30 2510 H 230.787 -3.66579 -2.99861 0
M  V30 2511 H 231.211 -6.25487 -2.59027 0
M  V30 2512 H 235.853 -3.35141 -2.5776 0
M  V30 2513 H 233.571 -7.78473 -2.16806 0
M  V30 2514 H 237.157 -5.40809 -2.14515 0
M  V30 2515 H 236.037 -7.59701 -1.94485 0
M  V30 2516 N 233.54 1.10788 -1.12088 0
M  V30 2517 C 234.47 2.19083 -0.807755 0
M  V30 2518 C 235.451 1.6858 0.226859 0
M  V30 2519 O 236.636 1.93997 0.0888475 0
M  V30 2520 C 233.766 3.46344 -0.257576 0
M  V30 2521 C 232.72 4.101 -1.22483 0
M  V30 2522 C 232.046 5.32016 -0.535052 0
M  V30 2523 C 233.346 4.54236 -2.57811 0
M  V30 2524 H 235.04 2.45534 -1.71328 0
M  V30 2525 H 232.586 1.1801 -0.825205 0
M  V30 2526 H 234.539 4.21392 -0.0262679 0
M  V30 2527 H 233.263 3.19373 0.683278 0
M  V30 2528 H 231.922 3.37054 -1.44189 0
M  V30 2529 H 231.57 5.01319 0.410827 0
M  V30 2530 H 231.27 5.75625 -1.18024 0
M  V30 2531 H 232.794 6.09799 -0.312695 0
M  V30 2532 H 234.208 5.20575 -2.40155 0
M  V30 2533 H 232.605 5.08682 -3.18375 0
M  V30 2534 H 233.675 3.6734 -3.16528 0
M  V30 2535 N 235.018 0.912232 1.28515 0
M  V30 2536 C 235.965 0.397954 2.27343 0
M  V30 2537 C 236.935 -0.526766 1.57526 0
M  V30 2538 O 238.12 -0.449292 1.85435 0
M  V30 2539 C 235.26 -0.357263 3.43246 0
M  V30 2540 C 234.373 0.599788 4.27816 0
M  V30 2541 C 233.508 -0.173725 5.30916 0
M  V30 2542 C 232.547 0.777039 6.07148 0
M  V30 2543 N 231.684 0.0371398 7.0209 0
M  V30 2544 H 236.524 1.24577 2.70711 0
M  V30 2545 H 234.061 0.625612 1.33133 0
M  V30 2546 H 236.019 -0.8113 4.09236 0
M  V30 2547 H 234.649 -1.16943 3.00872 0
M  V30 2548 H 233.701 1.17235 3.61884 0
M  V30 2549 H 235.013 1.32704 4.80823 0
M  V30 2550 H 234.167 -0.688394 6.02782 0
M  V30 2551 H 232.906 -0.934041 4.78672 0
M  V30 2552 H 231.911 1.3031 5.34134 0
M  V30 2553 H 233.136 1.53689 6.61481 0
M  V30 2554 H 231.082 -0.705213 6.52198 0
M  V30 2555 H 230.999 0.704249 7.52713 0
M  V30 2556 H 232.267 -0.457383 7.78157 0
M  V30 2557 N 236.496 -1.42363 0.676048 0
M  V30 2558 C 237.912 -1.55811 0.345718 0
M  V30 2559 C 238.112 -1.65544 -1.14879 0
M  V30 2560 O 237.168 -1.62306 -1.93424 0
M  V30 2561 C 238.481 -2.80746 1.07713 0
M  V30 2562 C 240.029 -2.9452 1.05958 0
M  V30 2563 C 240.504 -4.22318 1.77233 0
M  V30 2564 N 241.995 -4.29233 1.74108 0
M  V30 2565 C 242.73 -5.26935 2.26113 0
M  V30 2566 N 242.226 -6.30783 2.86505 0
M  V30 2567 N 244.019 -5.18741 2.1648 0
M  V30 2568 H 236.17 -1.34289 1.6456 0
M  V30 2569 H 238.433 -0.646506 0.69335 0
M  V30 2570 H 238.139 -2.79696 2.13221 0
M  V30 2571 H 238.013 -3.71676 0.64316 0
M  V30 2572 H 240.4 -2.95097 0.0128255 0
M  V30 2573 H 240.481 -2.04817 1.53244 0
M  V30 2574 H 240.125 -4.22502 2.81877 0
M  V30 2575 H 240.055 -5.10958 1.27396 0
M  V30 2576 H 242.546 -3.54814 1.30059 0
M  V30 2577 H 242.859 -7.01691 3.23805 0
M  V30 2578 H 241.204 -6.31341 2.90575 0
M  V30 2579 H 244.395 -4.36533 1.68987 0
M  V30 2580 H 244.568 -5.94721 2.57316 0
M  V30 2581 N 237.974 -0.419461 -1.51915 0
M  V30 2582 C 238.904 0.391813 -2.30189 0
M  V30 2583 C 239.885 1.03699 -1.34836 0
M  V30 2584 O 241.07 1.04403 -1.63748 0
M  V30 2585 C 238.2 1.50312 -3.13087 0
M  V30 2586 C 237.154 0.9824 -4.16573 0
M  V30 2587 C 236.48 2.18809 -4.8788 0
M  V30 2588 C 237.78 0.0292356 -5.22292 0
M  V30 2589 H 239.474 -0.26135 -2.98257 0
M  V30 2590 H 237.02 -0.127134 -1.43438 0
M  V30 2591 H 238.973 2.07773 -3.66617 0
M  V30 2592 H 237.697 2.18431 -2.42807 0
M  V30 2593 H 236.356 0.430119 -3.64068 0
M  V30 2594 H 236.004 2.85507 -4.14119 0
M  V30 2595 H 235.704 1.84615 -5.57845 0
M  V30 2596 H 237.228 2.76858 -5.44226 0
M  V30 2597 H 238.642 0.512976 -5.71 0
M  V30 2598 H 237.039 -0.2244 -5.9968 0
M  V30 2599 H 238.109 -0.912931 -4.76228 0
M  V30 2600 N 239.452 1.56882 -0.150215 0
M  V30 2601 C 240.868 1.58263 0.20617 0
M  V30 2602 C 241.068 1.16464 1.64434 0
M  V30 2603 O 240.124 0.866422 2.3717 0
M  V30 2604 C 241.437 3.00649 -0.0555025 0
M  V30 2605 C 242.985 3.12999 0.00795388 0
M  V30 2606 C 243.46 4.5744 -0.226429 0
M  V30 2607 N 244.951 4.62875 -0.173469 0
M  V30 2608 C 245.686 5.72454 -0.329288 0
M  V30 2609 N 245.182 6.90669 -0.543005 0
M  V30 2610 N 246.975 5.61467 -0.266666 0
M  V30 2611 H 239.126 1.82345 -1.08922 0
M  V30 2612 H 241.389 0.844149 -0.431413 0
M  V30 2613 H 241.095 3.3563 -1.05096 0
M  V30 2614 H 240.969 3.71337 0.66246 0
M  V30 2615 H 243.356 2.77857 0.993966 0
M  V30 2616 H 243.437 2.4479 -0.742388 0
M  V30 2617 H 243.081 4.93287 -1.20956 0
M  V30 2618 H 243.011 5.2378 0.544274 0
M  V30 2619 H 245.502 3.77898 -0.0130709 0
M  V30 2620 H 245.815 7.70045 -0.651922 0
M  V30 2621 H 244.16 6.92581 -0.579366 0
M  V30 2622 H 247.351 4.67992 -0.100441 0
M  V30 2623 H 247.524 6.46816 -0.391535 0
M  V30 2624 N 240.93 -0.123565 1.57115 0
M  V30 2625 C 241.84 -1.17074 2.033 0
M  V30 2626 C 242.856 -1.4561 0.952559 0
M  V30 2627 O 244.032 -1.56817 1.26374 0
M  V30 2628 C 241.097 -2.47857 2.42421 0
M  V30 2629 C 240.158 -2.26758 3.64526 0
M  V30 2630 C 239.391 -3.51305 4.01771 0
M  V30 2631 O 239.614 -4.5843 3.39409 0
M  V30 2632 O 238.548 -3.42578 4.94898 0
M  V30 2633 H 242.374 -0.808555 2.92739 0
M  V30 2634 H 239.959 -0.334027 1.45618 0
M  V30 2635 H 241.841 -3.2492 2.68338 0
M  V30 2636 H 240.516 -2.83558 1.5613 0
M  V30 2637 H 239.423 -1.47569 3.43765 0
M  V30 2638 H 240.756 -1.95963 4.51508 0
M  V30 2639 N 242.408 -1.52605 -0.393616 0
M  V30 2640 C 243.656 -1.67093 -1.13685 0
M  V30 2641 C 243.977 -0.411011 -1.90619 0
M  V30 2642 O 243.247 0.574491 -1.87287 0
M  V30 2643 H 241.827 -0.615923 -0.422668 0
M  V30 2644 H 244.489 -1.89704 -0.447039 0
M  V30 2645 H 243.585 -2.51922 -1.84232 0
M  V30 2646 N 243.887 0.651787 -1.4349 0
M  V30 2647 C 244.82 1.77668 -1.43211 0
M  V30 2648 C 245.798 1.59931 -0.29338 0
M  V30 2649 O 246.982 1.82095 -0.487191 0
M  V30 2650 C 244.109 3.14986 -1.24505 0
M  V30 2651 C 243.155 3.51421 -2.41673 0
M  V30 2652 S 243.988 3.51234 -4.04222 0
M  V30 2653 C 245.144 4.91206 -3.87902 0
M  V30 2654 H 245.377 1.77635 -2.38397 0
M  V30 2655 H 242.91 0.824558 -1.30539 0
M  V30 2656 H 244.868 3.94237 -1.144 0
M  V30 2657 H 243.529 3.1258 -0.308651 0
M  V30 2658 H 242.722 4.51291 -2.24393 0
M  V30 2659 H 242.324 2.79585 -2.48411 0
M  V30 2660 H 244.616 5.79902 -3.50315 0
M  V30 2661 H 245.559 5.13537 -4.8753 0
M  V30 2662 H 245.967 4.64808 -3.20334 0
M  V30 2663 N 245.365 1.30045 0.890287 0
M  V30 2664 C 246.776 1.16738 1.45702 0
M  V30 2665 C 247.127 -0.233939 1.948 0
M  V30 2666 O 246.252 -1.13021 1.84541 0
M  V30 2667 C 246.847 2.11313 2.64825 0
M  V30 2668 C 245.406 2.02001 3.17604 0
M  V30 2669 C 244.553 2.01699 1.90296 0
M  V30 2670 H 247.504 1.42392 0.700726 0
M  V30 2671 H 247.525 1.69086 3.40867 0
M  V30 2672 H 247.037 3.13294 2.2906 0
M  V30 2673 H 245.138 1.03142 3.5804 0
M  V30 2674 H 245.251 2.90128 3.81264 0
M  V30 2675 H 243.615 1.46427 2.08402 0
M  V30 2676 H 244.398 3.05402 1.56795 0
M  V30 2677 N 246.843 -1.10192 1.12674 0
M  V30 2678 C 247.753 -2.20172 0.810026 0
M  V30 2679 C 248.769 -1.72821 -0.202188 0
M  V30 2680 O 249.945 -2.01369 -0.0351691 0
M  V30 2681 C 247.01 -3.45631 0.272007 0
M  V30 2682 C 246.071 -4.07704 1.34447 0
M  V30 2683 C 245.304 -5.27175 0.832029 0
M  V30 2684 O 245.527 -5.69425 -0.333284 0
M  V30 2685 O 244.461 -5.80168 1.60277 0
M  V30 2686 H 248.287 -2.49701 1.72867 0
M  V30 2687 H 245.872 -1.18977 0.903597 0
M  V30 2688 H 247.754 -4.21394 -0.0230219 0
M  V30 2689 H 246.429 -3.17723 -0.619164 0
M  V30 2690 H 245.336 -3.33614 1.6927 0
M  V30 2691 H 246.669 -4.3982 2.2095 0
M  V30 2692 N 248.321 -0.919034 -1.28029 0
M  V30 2693 C 249.561 -0.562107 -1.96519 0
M  V30 2694 C 249.925 0.878784 -1.70708 0
M  V30 2695 O 251.126 1.34355 -2.32813 0
M  V30 2696 C 249.397 -0.868953 -3.46676 0
M  V30 2697 S 250.956 -0.619237 -4.34409 0
M  V30 2698 H 247.774 -0.2078 -0.679956 0
M  V30 2699 H 250.376 -1.18562 -1.55446 0
M  V30 2700 H 249.08 -1.91547 -3.62957 0
M  V30 2701 H 248.611 -0.234301 -3.92702 0
M  V30 2702 H 250.626 0.526995 -4.93394 0
M  V30 2703 N 249.799 1.42003 -0.683588 0
M  V30 2704 C 251.045 2.01712 -0.209825 0
M  V30 2705 C 251.378 1.53968 1.18353 0
M  V30 2706 O 250.653 0.745661 1.79639 0
M  V30 2707 C 250.936 3.59202 -0.254197 0
M  V30 2708 C 250.789 4.17102 -1.68363 0
M  V30 2709 C 252.108 4.38344 0.392709 0
M  V30 2710 H 249.227 0.732891 -0.0777189 0
M  V30 2711 H 251.869 1.68909 -0.87004 0
M  V30 2712 H 250.019 3.87278 0.307954 0
M  V30 2713 H 251.691 3.99946 -2.29871 0
M  V30 2714 H 249.934 3.72597 -2.22157 0
M  V30 2715 H 250.605 5.26249 -1.6663 0
M  V30 2716 H 253.081 4.16011 -0.0859162 0
M  V30 2717 H 251.957 5.47901 0.331063 0
M  V30 2718 H 252.218 4.16887 1.47164 0
M  V30 2719 N 251.277 0.427512 1.51691 0
M  V30 2720 C 252.24 -0.377132 2.26076 0
M  V30 2721 C 253.24 -0.958089 1.29141 0
M  V30 2722 O 254.43 -0.83408 1.52934 0
M  V30 2723 C 251.562 -1.53262 3.04506 0
M  V30 2724 H 252.755 0.27464 2.9864 0
M  V30 2725 H 250.308 0.180445 1.55255 0
M  V30 2726 H 251.043 -2.22072 2.36335 0
M  V30 2727 H 250.828 -1.12232 3.75694 0
M  V30 2728 H 252.318 -2.10135 3.60878 0
M  V30 2729 N 252.755 -1.56801 0.158532 0
M  V30 2730 C 253.718 -2.16138 -0.762705 0
M  V30 2731 C 254.718 -1.1061 -1.16713 0
M  V30 2732 O 255.908 -1.36191 -1.08617 0
M  V30 2733 C 253.04 -2.73386 -2.03649 0
M  V30 2734 H 254.233 -2.98886 -0.246354 0
M  V30 2735 H 251.786 -1.56035 -0.0909744 0
M  V30 2736 H 252.521 -1.94335 -2.59623 0
M  V30 2737 H 252.306 -3.50601 -1.75559 0
M  V30 2738 H 253.796 -3.19065 -2.6942 0
M  V30 2739 N 254.233 0.115231 -1.57178 0
M  V30 2740 C 255.644 0.67197 -1.74188 0
M  V30 2741 C 255.995 1.80125 -0.777777 0
M  V30 2742 O 255.12 2.16346 0.0484376 0
M  V30 2743 C 255.715 1.22573 -3.1585 0
M  V30 2744 C 254.274 1.72872 -3.34353 0
M  V30 2745 C 253.421 0.629972 -2.70049 0
M  V30 2746 H 256.372 -0.110712 -1.58313 0
M  V30 2747 H 256.393 2.09535 -3.17609 0
M  V30 2748 H 255.905 0.403598 -3.85996 0
M  V30 2749 H 254.006 2.5755 -2.69256 0
M  V30 2750 H 254.119 1.83557 -4.42542 0
M  V30 2751 H 252.483 1.0645 -2.31388 0
M  V30 2752 H 253.266 -0.181241 -3.42821 0
M  V30 2753 N 255.711 1.52812 0.385517 0
M  V30 2754 C 256.658 1.77838 1.47113 0
M  V30 2755 C 257.628 0.621757 1.54024 0
M  V30 2756 O 258.813 0.861846 1.70226 0
M  V30 2757 C 255.953 1.95618 2.84302 0
M  V30 2758 C 255.066 3.23316 2.86515 0
M  V30 2759 C 254.201 3.31394 4.15152 0
M  V30 2760 C 253.24 4.53201 4.1143 0
M  V30 2761 N 252.377 4.58542 5.3168 0
M  V30 2762 H 257.217 2.70482 1.25073 0
M  V30 2763 H 254.754 1.34006 0.606692 0
M  V30 2764 H 256.712 2.03912 3.63972 0
M  V30 2765 H 255.342 1.06331 3.04784 0
M  V30 2766 H 254.394 3.24076 1.99195 0
M  V30 2767 H 255.706 4.13045 2.79634 0
M  V30 2768 H 254.86 3.3889 5.03228 0
M  V30 2769 H 253.599 2.39645 4.24761 0
M  V30 2770 H 252.604 4.45827 3.21742 0
M  V30 2771 H 253.829 5.46271 4.03442 0
M  V30 2772 H 251.775 3.69686 5.41912 0
M  V30 2773 H 251.692 5.42148 5.26889 0
M  V30 2774 H 252.96 4.70296 6.21644 0
M  V30 2775 N 257.189 -0.644168 1.43834 0
M  V30 2776 C 258.435 -1.40603 1.46146 0
M  V30 2777 C 258.768 -1.93997 0.0887717 0
M  V30 2778 O 258.043 -1.72854 -0.891724 0
M  V30 2779 C 258.326 -2.58086 2.51124 0
M  V30 2780 C 258.179 -2.10126 3.97702 0
M  V30 2781 C 259.498 -3.60291 2.52742 0
M  V30 2782 H 256.617 -0.509905 0.532134 0
M  V30 2783 H 259.259 -0.729502 1.75437 0
M  V30 2784 H 257.409 -3.15801 2.26278 0
M  V30 2785 H 259.081 -1.57342 4.33637 0
M  V30 2786 H 257.324 -1.41419 4.10101 0
M  V30 2787 H 257.995 -2.94649 4.66783 0
M  V30 2788 H 260.471 -3.12352 2.7491 0
M  V30 2789 H 259.347 -4.40032 3.28121 0
M  V30 2790 H 259.608 -4.1349 1.56455 0
M  V30 2791 N 258.668 -1.30515 -0.883378 0
M  V30 2792 C 260.084 -1.08881 -1.16692 0
M  V30 2793 C 260.284 0.149409 -2.00945 0
M  V30 2794 O 259.34 0.84257 -2.38027 0
M  V30 2795 C 260.653 -2.35319 -1.87204 0
M  V30 2796 C 262.201 -2.40799 -1.99962 0
M  V30 2797 C 262.676 -3.67083 -2.73887 0
M  V30 2798 N 264.167 -3.679 -2.81432 0
M  V30 2799 C 264.902 -4.62303 -3.3921 0
M  V30 2800 N 264.398 -5.67052 -3.98025 0
M  V30 2801 N 266.191 -4.49845 -3.3704 0
M  V30 2802 H 258.342 -2.09951 -0.321633 0
M  V30 2803 H 260.605 -0.92556 -0.205043 0
M  V30 2804 H 260.311 -3.25689 -1.3274 0
M  V30 2805 H 260.185 -2.44089 -2.87577 0
M  V30 2806 H 262.572 -1.50907 -2.53597 0
M  V30 2807 H 262.653 -2.36003 -0.98673 0
M  V30 2808 H 262.297 -4.57334 -2.20925 0
M  V30 2809 H 262.227 -3.69141 -3.75556 0
M  V30 2810 H 264.718 -2.92171 -2.39676 0
M  V30 2811 H 265.031 -6.35184 -4.40183 0
M  V30 2812 H 263.376 -5.70842 -3.96439 0
M  V30 2813 H 266.567 -3.67194 -2.90321 0
M  V30 2814 H 266.74 -5.23597 -3.81772 0
M  V30 2815 N 260.146 1.09593 -1.13257 0
M  V30 2816 C 261.371 1.8604 -0.916732 0
M  V30 2817 C 261.796 1.80504 0.529146 0
M  V30 2818 O 261.154 1.18127 1.37534 0
M  V30 2819 C 261.202 3.32017 -1.40703 0
M  V30 2820 O 260.306 4.08141 -0.591153 0
M  V30 2821 H 259.647 0.576943 -0.328683 0
M  V30 2822 H 262.177 1.38405 -1.50682 0
M  V30 2823 H 262.187 3.82865 -1.4099 0
M  V30 2824 H 260.862 3.35361 -2.45979 0
M  V30 2825 H 259.439 3.67084 -0.656005 0
M  V30 2826 N 261.624 0.925811 1.2754 0
M  V30 2827 C 262.849 0.580924 1.99098 0
M  V30 2828 C 263.274 -0.833555 1.68622 0
M  V30 2829 O 262.632 -1.55903 0.925422 0
M  V30 2830 C 262.68 0.811186 3.51358 0
M  V30 2831 O 261.784 -0.124129 4.12213 0
M  V30 2832 H 261.125 0.223873 0.625122 0
M  V30 2833 H 263.655 1.24455 1.62395 0
M  V30 2834 H 263.665 0.72601 4.01489 0
M  V30 2835 H 262.34 1.84227 3.72872 0
M  V30 2836 H 260.917 0.0108006 3.72898 0
M  V30 2837 N 263.102 -1.41638 0.69111 0
M  V30 2838 C 264.35 -2.00902 0.219758 0
M  V30 2839 C 264.671 -1.54994 -1.18329 0
M  V30 2840 O 263.941 -0.778628 -1.79762 0
M  V30 2841 H 262.521 -0.74289 0.0782558 0
M  V30 2842 H 265.183 -1.73327 0.891271 0
M  V30 2843 H 264.279 -3.11224 0.233708 0
M  V30 2844 N 264.58 -0.43555 -1.51462 0
M  V30 2845 C 265.805 0.132627 -2.06976 0
M  V30 2846 C 266.23 1.35848 -1.30104 0
M  V30 2847 O 265.588 1.78112 -0.338493 0
M  V30 2848 C 265.636 0.43523 -3.57964 0
M  V30 2849 O 264.74 1.52198 -3.83288 0
M  V30 2850 H 264.081 0.00265 -0.663995 0
M  V30 2851 H 266.611 -0.616369 -1.95095 0
M  V30 2852 H 266.621 0.686206 -4.02188 0
M  V30 2853 H 265.296 -0.460739 -4.1334 0
M  V30 2854 H 263.873 1.2611 -3.50928 0
M  V30 2855 N 266.058 1.56714 -0.166846 0
M  V30 2856 C 267.307 1.95922 0.479318 0
M  V30 2857 C 267.62 1.05529 1.6469 0
M  V30 2858 O 268.826 1.34399 2.35901 0
M  V30 2859 C 267.282 3.48359 0.90412 0
M  V30 2860 C 266.89 4.47369 -0.237621 0
M  V30 2861 C 268.634 3.96394 1.51896 0
M  V30 2862 C 266.541 5.91039 0.206561 0
M  V30 2863 H 265.471 0.731495 0.18284 0
M  V30 2864 H 268.122 1.81728 -0.254363 0
M  V30 2865 H 266.504 3.57955 1.69365 0
M  V30 2866 H 267.678 4.49485 -1.01489 0
M  V30 2867 H 265.993 4.09366 -0.762128 0
M  V30 2868 H 268.59 5.01186 1.86325 0
M  V30 2869 H 268.933 3.39075 2.41524 0
M  V30 2870 H 269.466 3.89796 0.79395 0
M  V30 2871 H 266.205 6.52221 -0.654834 0
M  V30 2872 H 265.725 5.9224 0.949282 0
M  V30 2873 H 267.404 6.43707 0.651939 0
M  V30 2874 N 267.536 -0.106894 1.57237 0
M  V30 2875 C 268.446 -1.14911 2.0453 0
M  V30 2876 C 269.462 -1.44592 0.96795 0
M  V30 2877 O 270.638 -1.55468 1.2803 0
M  V30 2878 C 267.703 -2.45272 2.45036 0
M  V30 2879 C 266.764 -2.22879 3.66911 0
M  V30 2880 C 265.997 -3.47024 4.05475 0
M  V30 2881 O 266.22 -4.54804 3.44252 0
M  V30 2882 O 265.154 -3.3731 4.98504 0
M  V30 2883 H 268.98 -0.777461 2.9358 0
M  V30 2884 H 266.565 -0.318563 1.45964 0
M  V30 2885 H 268.447 -3.22055 2.71769 0
M  V30 2886 H 267.122 -2.81886 1.59129 0
M  V30 2887 H 266.029 -1.43915 3.45311 0
M  V30 2888 H 267.362 -1.91163 4.53561 0
M  V30 2889 N 269.014 -1.53014 -0.377408 0
M  V30 2890 C 270.425 -1.60438 -0.954798 0
M  V30 2891 C 270.776 -0.464418 -1.90624 0
M  V30 2892 O 269.901 0.41087 -2.12464 0
M  V30 2893 C 270.496 -2.90797 -1.73847 0
M  V30 2894 C 269.055 -3.00595 -2.26538 0
M  V30 2895 C 268.202 -2.55645 -1.07429 0
M  V30 2896 H 271.153 -1.57926 -0.156575 0
M  V30 2897 H 271.174 -2.77935 -2.5987 0
M  V30 2898 H 270.686 -3.73746 -1.04574 0
M  V30 2899 H 268.787 -2.22208 -2.99089 0
M  V30 2900 H 268.9 -4.05456 -2.5523 0
M  V30 2901 H 267.264 -2.10239 -1.43777 0
M  V30 2902 H 268.047 -3.41 -0.396728 0
M  V30 2903 N 270.492 0.636531 -1.44174 0
M  V30 2904 C 271.717 1.42847 -1.50364 0
M  V30 2905 C 272.142 1.87665 -0.127867 0
M  V30 2906 O 271.5 1.58408 0.88185 0
M  V30 2907 C 271.548 2.62854 -2.4686 0
M  V30 2908 O 270.652 3.62501 -1.9664 0
M  V30 2909 H 269.993 0.427642 -0.507955 0
M  V30 2910 H 272.523 0.777422 -1.89255 0
M  V30 2911 H 272.533 3.10465 -2.64718 0
M  V30 2912 H 271.208 2.29578 -3.46795 0
M  V30 2913 H 269.785 3.21735 -1.88523 0
M  V30 2914 N 271.97 1.30982 0.876444 0
M  V30 2915 C 273.381 1.18277 1.44456 0
M  V30 2916 C 273.732 -0.213265 1.95037 0
M  V30 2917 O 272.857 -1.11057 1.85729 0
M  V30 2918 C 273.452 2.1411 2.62569 0
M  V30 2919 C 272.011 2.05358 3.15444 0
M  V30 2920 C 271.158 2.03706 1.88146 0
M  V30 2921 H 274.109 1.43127 0.685584 0
M  V30 2922 H 274.13 1.72692 3.39054 0
M  V30 2923 H 273.642 3.15706 2.25724 0
M  V30 2924 H 271.743 1.06934 3.56926 0
M  V30 2925 H 271.856 2.94156 3.78166 0
M  V30 2926 H 270.22 1.48629 2.06837 0
M  V30 2927 H 271.003 3.07047 1.53547 0
M  V30 2928 N 273.449 -1.08991 1.13837 0
M  V30 2929 C 274.674 -1.85551 0.926585 0
M  V30 2930 C 275.099 -1.80782 -0.519566 0
M  V30 2931 O 274.457 -1.18855 -1.36906 0
M  V30 2932 C 274.505 -3.31266 1.42462 0
M  V30 2933 O 273.609 -4.07822 0.612789 0
M  V30 2934 H 272.95 -0.575192 0.331738 0
M  V30 2935 H 275.48 -1.37604 1.51414 0
M  V30 2936 H 275.49 -3.82112 1.43019 0
M  V30 2937 H 274.165 -3.34052 2.47754 0
M  V30 2938 H 272.742 -3.66731 0.675463 0
M  V30 2939 N 274.927 -0.932562 -1.27047 0
M  V30 2940 C 276.176 -0.571351 -1.93439 0
M  V30 2941 C 276.489 0.892467 -1.74053 0
M  V30 2942 O 277.695 1.36267 -2.34826 0
M  V30 2943 C 276.151 -0.97106 -3.46552 0
M  V30 2944 C 275.759 -2.4559 -3.74686 0
M  V30 2945 C 277.503 -0.681333 -4.18997 0
M  V30 2946 C 275.41 -2.79475 -5.21198 0
M  V30 2947 H 274.34 -0.209966 -0.724176 0
M  V30 2948 H 276.991 -1.13403 -1.44263 0
M  V30 2949 H 275.373 -0.336983 -3.94564 0
M  V30 2950 H 276.547 -3.13829 -3.37414 0
M  V30 2951 H 274.862 -2.71802 -3.15456 0
M  V30 2952 H 277.459 -0.910939 -5.26883 0
M  V30 2953 H 277.802 0.381628 -4.14547 0
M  V30 2954 H 278.335 -1.27473 -3.76823 0
M  V30 2955 H 275.074 -3.847 -5.30741 0
M  V30 2956 H 274.594 -2.1589 -5.596 0
M  V30 2957 H 276.273 -2.67478 -5.89122 0
M  V30 2958 N 276.405 1.4127 -0.698611 0
M  V30 2959 C 277.633 2.05503 -0.239992 0
M  V30 2960 C 278.048 1.52584 1.11191 0
M  V30 2961 O 277.405 0.675323 1.69545 0
M  V30 2962 C 277.456 3.60987 -0.192429 0
M  V30 2963 O 277.177 4.1195 -1.49094 0
M  V30 2964 C 278.678 4.42371 0.28681 0
M  V30 2965 H 275.898 0.661748 -0.111045 0
M  V30 2966 H 278.442 1.80987 -0.95205 0
M  V30 2967 H 276.597 3.84533 0.470472 0
M  V30 2968 H 277.011 5.06018 -1.38007 0
M  V30 2969 H 278.485 5.51344 0.26896 0
M  V30 2970 H 278.962 4.18699 1.32619 0
M  V30 2971 H 279.568 4.23897 -0.345201 0
M  V30 2972 N 277.883 0.443576 1.51229 0
M  V30 2973 C 278.813 -0.355142 2.30783 0
M  V30 2974 C 279.794 -1.0154 1.36468 0
M  V30 2975 O 280.979 -1.01785 1.65389 0
M  V30 2976 C 278.109 -1.45312 3.15439 0
M  V30 2977 C 277.063 -0.916002 4.18083 0
M  V30 2978 C 276.389 -2.1102 4.91299 0
M  V30 2979 C 277.689 0.0538602 5.22272 0
M  V30 2980 H 279.383 0.308767 2.97804 0
M  V30 2981 H 276.929 0.149937 1.43217 0
M  V30 2982 H 278.882 -2.01914 3.69876 0
M  V30 2983 H 277.606 -2.14541 2.46252 0
M  V30 2984 H 276.265 -0.372145 3.64706 0
M  V30 2985 H 275.913 -2.78882 4.18609 0
M  V30 2986 H 275.613 -1.75717 5.60712 0
M  V30 2987 H 277.137 -2.68164 5.48562 0
M  V30 2988 H 278.551 -0.422069 5.71744 0
M  V30 2989 H 276.948 0.319776 5.99247 0
M  V30 2990 H 278.018 0.98858 4.74716 0
M  V30 2991 N 279.361 -1.56624 0.175154 0
M  V30 2992 C 280.309 -2.19468 -0.770495 0
M  V30 2993 C 281.303 -1.15985 -1.23466 0
M  V30 2994 O 282.509 -1.34176 -1.19987 0
M  V30 2995 H 278.884 -0.703095 -0.266761 0
M  V30 2996 H 280.855 -2.97613 -0.216542 0
M  V30 2997 C 279.604 -2.85264 -1.98796 0
M  V30 2998 H 278.927 -3.64623 -1.63983 0
M  V30 2999 H 280.367 -3.327 -2.62843 0
M  V30 3000 C 278.826 -1.85239 -2.81404 0
M  V30 3001 O 279.356 -1.34024 -3.78682 0
M  V30 3002 N 277.562 -1.53911 -2.46495 0
M  V30 3003 H 277.109 -1.95751 -1.67449 0
M  V30 3004 H 277.067 -0.872382 -3.02054 0
M  V30 3005 N 280.839 0.0985539 -1.57292 0
M  V30 3006 C 282.069 0.815135 -1.8984 0
M  V30 3007 C 282.477 1.7297 -0.766679 0
M  V30 3008 O 281.82 1.81698 0.270483 0
M  V30 3009 C 281.882 1.6842 -3.17608 0
M  V30 3010 C 281.546 0.94182 -4.4719 0
M  V30 3011 C 282.543 0.273212 -5.19182 0
M  V30 3012 C 280.228 0.916927 -4.9386 0
M  V30 3013 C 282.222 -0.410361 -6.36078 0
M  V30 3014 C 279.909 0.229567 -6.10669 0
M  V30 3015 C 280.907 -0.432902 -6.81627 0
M  V30 3016 O 280.595 -1.10925 -7.9621 0
M  V30 3017 H 280.327 0.238501 -0.632529 0
M  V30 3018 H 282.881 0.0812659 -2.05239 0
M  V30 3019 H 281.111 2.46022 -2.98345 0
M  V30 3020 H 282.8 2.27704 -3.36015 0
M  V30 3021 H 283.566 0.283927 -4.84168 0
M  V30 3022 H 279.445 1.42201 -4.3852 0
M  V30 3023 H 282.989 -0.928013 -6.914 0
M  V30 3024 H 278.886 0.216686 -6.45136 0
M  V30 3025 H 279.654 -1.01579 -8.12172 0
M  V30 3026 N 282.317 1.53212 0.369288 0
M  V30 3027 C 283.728 1.60943 0.946276 0
M  V30 3028 C 284.079 0.47452 1.90375 0
M  V30 3029 O 283.204 -0.399597 2.12679 0
M  V30 3030 C 283.799 2.91715 1.72302 0
M  V30 3031 C 282.358 3.01792 2.24941 0
M  V30 3032 C 281.505 2.56211 1.06072 0
M  V30 3033 H 284.456 1.58007 0.148198 0
M  V30 3034 H 284.477 2.79309 2.58393 0
M  V30 3035 H 283.989 3.74295 1.0259 0
M  V30 3036 H 282.09 2.23791 2.97906 0
M  V30 3037 H 282.203 4.06803 2.53077 0
M  V30 3038 H 280.567 2.10998 1.4266 0
M  V30 3039 H 281.35 3.41206 0.378639 0
M  V30 3040 N 283.795 -0.628877 1.44509 0
M  V30 3041 C 285.211 -0.947305 1.28446 0
M  V30 3042 C 285.411 -2.00275 0.221872 0
M  V30 3043 O 284.467 -2.49447 -0.391471 0
M  V30 3044 C 285.78 -1.40843 2.65676 0
M  V30 3045 C 287.328 -1.52379 2.73404 0
M  V30 3046 C 287.803 -2.01875 4.11109 0
M  V30 3047 N 289.294 -2.09142 4.13296 0
M  V30 3048 C 290.029 -2.48615 5.16699 0
M  V30 3049 N 289.525 -2.87209 6.30462 0
M  V30 3050 N 291.318 -2.48768 5.04054 0
M  V30 3051 H 283.469 0.0690977 2.12288 0
M  V30 3052 H 285.732 -0.0317164 0.947469 0
M  V30 3053 H 285.438 -0.707206 3.44516 0
M  V30 3054 H 285.312 -2.37902 2.92716 0
M  V30 3055 H 287.699 -2.21598 1.9488 0
M  V30 3056 H 287.78 -0.536898 2.50102 0
M  V30 3057 H 287.424 -1.3325 4.90109 0
M  V30 3058 H 287.354 -3.0144 4.31789 0
M  V30 3059 H 289.845 -1.81991 3.31191 0
M  V30 3060 H 290.158 -3.16149 7.05174 0
M  V30 3061 H 288.503 -2.84955 6.33897 0
M  V30 3062 H 291.694 -2.18009 4.14234 0
M  V30 3063 H 291.867 -2.79207 5.84763 0
M  V30 3064 N 285.273 -1.31445 -0.869486 0
M  V30 3065 C 286.205 -1.14955 -1.98287 0
M  V30 3066 C 287.218 -0.0885037 -1.62559 0
M  V30 3067 O 288.407 -0.336044 -1.75308 0
M  V30 3068 C 285.507 -0.734255 -3.3085 0
M  V30 3069 C 284.68 -1.88042 -3.94917 0
M  V30 3070 C 283.739 -1.4511 -5.05796 0
M  V30 3071 O 282.765 -2.16082 -5.2659 0
M  V30 3072 N 283.967 -0.338763 -5.79511 0
M  V30 3073 H 286.732 -2.10856 -2.12979 0
M  V30 3074 H 284.293 -1.23786 -1.04349 0
M  V30 3075 H 286.285 -0.42975 -4.02412 0
M  V30 3076 H 284.855 0.133158 -3.12316 0
M  V30 3077 H 284.075 -2.35222 -3.1633 0
M  V30 3078 H 285.363 -2.6481 -4.34457 0
M  V30 3079 H 284.761 0.252274 -5.65137 0
M  V30 3080 H 283.318 -0.0937925 -6.51733 0
M  V30 3081 N 286.751 1.08385 -1.14413 0
M  V30 3082 C 287.976 1.85057 -0.936413 0
M  V30 3083 C 288.401 1.81055 0.509971 0
M  V30 3084 O 287.759 1.1958 1.36273 0
M  V30 3085 C 287.807 3.30505 -1.44217 0
M  V30 3086 O 286.911 4.07491 -0.634409 0
M  V30 3087 H 286.252 0.573425 -0.334784 0
M  V30 3088 H 288.782 1.36799 -1.52142 0
M  V30 3089 H 288.792 3.81348 -1.45043 0
M  V30 3090 H 287.467 3.32734 -2.49522 0
M  V30 3091 H 286.044 3.66368 -0.694902 0
M  V30 3092 N 288.23 0.939286 1.26551 0
M  V30 3093 C 289.477 0.585847 1.9384 0
M  V30 3094 C 289.805 -0.874784 1.73718 0
M  V30 3095 O 289.06 -1.64092 1.06642 0
M  V30 3096 C 289.359 0.872106 3.46596 0
M  V30 3097 C 289.025 2.31632 3.86856 0
M  V30 3098 C 287.687 2.71111 3.97558 0
M  V30 3099 C 290.039 3.25494 4.07066 0
M  V30 3100 C 287.367 4.03553 4.25866 0
M  V30 3101 C 289.719 4.57531 4.36862 0
M  V30 3102 C 288.383 4.96828 4.45778 0
M  V30 3103 H 287.653 0.214377 0.709312 0
M  V30 3104 H 290.3 1.18544 1.50398 0
M  V30 3105 H 288.605 0.18996 3.91339 0
M  V30 3106 H 290.302 0.577442 3.96821 0
M  V30 3107 H 286.892 2.00008 3.79071 0
M  V30 3108 H 291.076 2.9619 3.98227 0
M  V30 3109 H 286.332 4.33665 4.30981 0
M  V30 3110 H 290.506 5.30254 4.51446 0
M  V30 3111 H 288.133 5.99482 4.67468 0
M  V30 3112 N 289.708 -1.40897 0.706093 0
M  V30 3113 C 290.985 -1.94868 0.169099 0
M  V30 3114 C 291.365 -1.64485 -1.32318 0
M  V30 3115 O 290.713 -0.95744 -2.07474 0
M  V30 3116 C 290.923 -3.45798 0.471654 0
M  V30 3117 C 292.271 -4.22663 0.405127 0
M  V30 3118 O 293.295 -3.53865 0.407168 0
M  V30 3119 O 292.154 -5.45216 0.374383 0
M  V30 3120 H 289.248 -0.82673 0.0211352 0
M  V30 3121 H 291.794 -1.50558 0.782976 0
M  V30 3122 H 290.566 -3.61235 1.50416 0
M  V30 3123 H 290.189 -3.97225 -0.172666 0
M  V30 3124 N 291.186 -0.45159 -1.50991 0
M  V30 3125 C 292.414 0.108334 -2.06616 0
M  V30 3126 C 292.829 1.35224 -1.31757 0
M  V30 3127 O 292.186 1.78475 -0.381174 0
M  V30 3128 C 292.237 0.41619 -3.59096 0
M  V30 3129 O 291.958 -0.778361 -4.3113 0
M  V30 3130 C 293.459 1.02523 -4.31282 0
M  V30 3131 H 290.679 0.00159995 -0.670998 0
M  V30 3132 H 293.223 -0.634771 -1.94399 0
M  V30 3133 H 291.378 1.10921 -3.71181 0
M  V30 3134 H 291.792 -0.511181 -5.22003 0
M  V30 3135 H 293.266 1.19053 -5.39009 0
M  V30 3136 H 293.743 2.01013 -3.905 0
M  V30 3137 H 294.349 0.371173 -4.23677 0
M  V30 3138 N 292.664 1.56529 -0.183458 0
M  V30 3139 C 293.627 2.17324 0.728223 0
M  V30 3140 C 294.627 1.12453 1.14939 0
M  V30 3141 O 295.817 1.37902 1.06437 0
M  V30 3142 C 292.949 2.76591 1.99274 0
M  V30 3143 H 294.142 2.99241 0.198772 0
M  V30 3144 H 291.695 1.5616 0.0661391 0
M  V30 3145 H 292.43 1.98441 2.56499 0
M  V30 3146 H 292.215 3.5335 1.69959 0
M  V30 3147 H 293.705 3.23311 2.6431 0
M  V30 3148 N 294.142 -0.090211 1.57342 0
M  V30 3149 C 295.092 -1.11557 1.98844 0
M  V30 3150 C 296.076 -1.35503 0.867624 0
M  V30 3151 O 297.268 -1.36113 1.13148 0
M  V30 3152 C 294.397 -2.43446 2.42051 0
M  V30 3153 C 293.483 -2.22853 3.60828 0
M  V30 3154 N 293.874 -1.72141 4.75606 0
M  V30 3155 C 292.172 -2.53401 3.67021 0
M  V30 3156 C 292.873 -1.65932 5.57531 0
M  V30 3157 N 291.849 -2.11323 5.00843 0
M  V30 3158 H 295.651 -0.716499 2.85032 0
M  V30 3159 H 293.165 -0.297567 1.59651 0
M  V30 3160 H 295.162 -3.17644 2.70014 0
M  V30 3161 H 293.822 -2.84087 1.57241 0
M  V30 3162 H 294.833 -1.41268 4.98261 0
M  V30 3163 H 291.51 -2.97532 2.92884 0
M  V30 3164 H 292.9 -1.27733 6.59647 0
M  V30 3165 N 295.62 -1.53406 -0.361157 0
M  V30 3166 C 296.867 -1.69802 -1.10333 0
M  V30 3167 C 297.195 -0.452087 -1.89173 0
M  V30 3168 O 296.45 0.566017 -1.87336 0
M  V30 3169 C 296.749 -2.90211 -2.08596 0
M  V30 3170 C 296.415 -4.26539 -1.46203 0
M  V30 3171 C 295.077 -4.6361 -1.28915 0
M  V30 3172 C 297.429 -5.113 -1.01101 0
M  V30 3173 C 294.757 -5.83075 -0.651157 0
M  V30 3174 C 297.109 -6.31415 -0.387007 0
M  V30 3175 C 295.773 -6.67195 -0.201657 0
M  V30 3176 H 295.043 -0.621351 -0.403737 0
M  V30 3177 H 297.69 -1.87598 -0.384609 0
M  V30 3178 H 295.995 -2.66946 -2.86788 0
M  V30 3179 H 297.692 -3.00091 -2.65982 0
M  V30 3180 H 294.282 -3.97352 -1.60653 0
M  V30 3181 H 298.466 -4.83206 -1.13249 0
M  V30 3182 H 293.722 -6.09385 -0.496006 0
M  V30 3183 H 297.896 -6.96394 -0.0293563 0
M  V30 3184 H 295.523 -7.59628 0.294766 0
M  V30 3185 N 297.098 0.621204 -1.44841 0
M  V30 3186 C 298.509 1.20298 -1.42777 0
M  V30 3187 C 298.86 1.95639 -0.148259 0
M  V30 3188 O 297.985 2.02955 0.750892 0
M  V30 3189 C 298.58 2.1882 -2.58657 0
M  V30 3190 C 297.139 2.72403 -2.59756 0
M  V30 3191 C 296.286 1.4757 -2.34773 0
M  V30 3192 H 299.237 0.411297 -1.53278 0
M  V30 3193 H 299.258 3.01607 -2.31977 0
M  V30 3194 H 298.77 1.63957 -3.51766 0
M  V30 3195 H 296.871 3.31242 -1.70615 0
M  V30 3196 H 296.984 3.17765 -3.58556 0
M  V30 3197 H 295.348 1.76051 -1.8406 0
M  V30 3198 H 296.131 0.945954 -3.3001 0
M  V30 3199 N 298.576 1.31904 0.862503 0
M  V30 3200 C 299.822 1.22197 1.61851 0
M  V30 3201 C 300.155 -0.217641 1.92977 0
M  V30 3202 O 299.43 -1.15264 1.56666 0
M  V30 3203 C 299.713 2.07378 2.94391 0
M  V30 3204 C 299.566 3.59678 2.70096 0
M  V30 3205 C 300.885 1.92891 3.95577 0
M  V30 3206 H 298.004 0.445255 0.587296 0
M  V30 3207 H 300.646 1.6177 0.99651 0
M  V30 3208 H 298.796 1.73758 3.47477 0
M  V30 3209 H 300.468 4.03472 2.23625 0
M  V30 3210 H 298.711 3.82735 2.04197 0
M  V30 3211 H 299.382 4.14595 3.64438 0
M  V30 3212 H 301.858 2.22327 3.51724 0
M  V30 3213 H 300.734 2.54781 4.86187 0
M  V30 3214 H 300.995 0.894315 4.3296 0
M  V30 3215 N 300.054 -1.07777 1.14986 0
M  V30 3216 C 300.964 -2.18404 0.856546 0
M  V30 3217 C 301.98 -1.73211 -0.165485 0
M  V30 3218 O 303.156 -2.01399 0.00755219 0
M  V30 3219 C 300.221 -3.44977 0.34526 0
M  V30 3220 C 299.282 -4.0476 1.43065 0
M  V30 3221 C 298.515 -5.25291 0.943663 0
M  V30 3222 O 298.738 -5.70004 -0.212426 0
M  V30 3223 O 297.672 -5.76638 1.72547 0
M  V30 3224 H 301.498 -2.45978 1.78125 0
M  V30 3225 H 299.083 -1.17033 0.928631 0
M  V30 3226 H 300.965 -4.21348 0.0663671 0
M  V30 3227 H 299.64 -3.18965 -0.551631 0
M  V30 3228 H 298.547 -3.29949 1.76309 0
M  V30 3229 H 299.88 -4.35035 2.30229 0
M  V30 3230 N 301.532 -0.945985 -1.26051 0
M  V30 3231 C 302.442 -0.465633 -2.29933 0
M  V30 3232 C 303.458 0.462761 -1.67733 0
M  V30 3233 O 304.634 0.341118 -1.9849 0
M  V30 3234 C 301.699 0.256994 -3.45746 0
M  V30 3235 C 300.76 -0.708549 -4.23412 0
M  V30 3236 C 299.993 -0.0203135 -5.33696 0
M  V30 3237 O 300.216 1.19571 -5.57726 0
M  V30 3238 O 299.15 -0.701459 -5.97799 0
M  V30 3239 H 302.976 -1.32866 -2.73094 0
M  V30 3240 H 300.561 -0.712071 -1.31339 0
M  V30 3241 H 302.443 0.663852 -4.16138 0
M  V30 3242 H 301.118 1.09533 -3.04605 0
M  V30 3243 H 300.025 -1.16545 -3.55483 0
M  V30 3244 H 301.358 -1.51465 -4.68315 0
M  V30 3245 N 303.011 1.40521 -0.713556 0
M  V30 3246 C 303.958 2.30723 -0.059684 0
M  V30 3247 C 304.928 1.48079 0.752448 0
M  V30 3248 O 306.113 1.76823 0.71681 0
M  V30 3249 C 303.253 3.34274 0.857594 0
M  V30 3250 C 302.366 4.31986 0.0351536 0
M  V30 3251 C 301.501 5.22605 0.951724 0
M  V30 3252 C 300.54 6.11976 0.123253 0
M  V30 3253 N 299.677 6.9502 0.99459 0
M  V30 3254 H 304.517 2.86074 -0.834596 0
M  V30 3255 H 302.054 1.40879 -0.42326 0
M  V30 3256 H 304.012 3.92879 1.40364 0
M  V30 3257 H 302.642 2.8043 1.59871 0
M  V30 3258 H 301.694 3.7518 -0.628052 0
M  V30 3259 H 303.006 4.95101 -0.606347 0
M  V30 3260 H 302.16 5.86131 1.56638 0
M  V30 3261 H 300.899 4.59759 1.62705 0
M  V30 3262 H 299.904 5.47482 -0.50435 0
M  V30 3263 H 301.129 6.76881 -0.548539 0
M  V30 3264 H 299.075 6.34764 1.6556 0
M  V30 3265 H 298.992 7.54892 0.40908 0
M  V30 3266 H 300.26 7.62997 1.59549 0
M  V30 3267 N 304.489 0.459591 1.5075 0
M  V30 3268 C 305.452 -0.329093 2.26825 0
M  V30 3269 C 306.452 -0.930481 1.31144 0
M  V30 3270 O 307.642 -0.801453 1.54669 0
M  V30 3271 C 304.774 -1.46768 3.07688 0
M  V30 3272 H 305.967 0.337924 2.9799 0
M  V30 3273 H 303.52 0.213336 1.54837 0
M  V30 3274 H 304.255 -2.17009 2.40993 0
M  V30 3275 H 304.04 -1.04238 3.77991 0
M  V30 3276 H 305.53 -2.02433 3.65254 0
M  V30 3277 N 305.967 -1.56429 0.191757 0
M  V30 3278 C 306.93 -2.17707 -0.716688 0
M  V30 3279 C 307.93 -1.13061 -1.14341 0
M  V30 3280 O 309.12 -1.38464 -1.05704 0
M  V30 3281 C 306.252 -2.77644 -1.97804 0
M  V30 3282 H 307.445 -2.99342 -0.1829 0
M  V30 3283 H 304.998 -1.56193 -0.0578566 0
M  V30 3284 H 305.733 -1.99799 -2.55443 0
M  V30 3285 H 305.518 -3.54246 -1.68083 0
M  V30 3286 H 307.008 -3.24708 -2.62592 0
M  V30 3287 N 307.445 0.0818655 -1.57387 0
M  V30 3288 C 308.694 0.781681 -1.85937 0
M  V30 3289 C 309.007 1.79246 -0.782957 0
M  V30 3290 O 310.213 2.54112 -0.955987 0
M  V30 3291 C 308.669 1.44109 -3.29789 0
M  V30 3292 C 308.277 0.469396 -4.45534 0
M  V30 3293 C 310.021 2.12386 -3.67549 0
M  V30 3294 C 307.928 1.13415 -5.80423 0
M  V30 3295 H 306.858 0.295682 -0.693605 0
M  V30 3296 H 309.509 0.0348051 -1.83467 0
M  V30 3297 H 307.891 2.23588 -3.2684 0
M  V30 3298 H 309.065 -0.294856 -4.59856 0
M  V30 3299 H 307.38 -0.108383 -4.16259 0
M  V30 3300 H 309.977 2.62878 -4.65617 0
M  V30 3301 H 310.32 2.91877 -2.96839 0
M  V30 3302 H 310.853 1.39751 -3.72444 0
M  V30 3303 H 307.592 0.379771 -6.54399 0
M  V30 3304 H 307.112 1.8695 -5.69921 0
M  V30 3305 H 308.791 1.65686 -6.25426 0
M  V30 3306 N 308.923 1.53595 0.353017 0
M  V30 3307 C 309.886 1.80232 1.41594 0
M  V30 3308 C 310.886 0.673081 1.46035 0
M  V30 3309 O 312.076 0.941335 1.46576 0
M  V30 3310 C 309.208 1.93578 2.80607 0
M  V30 3311 H 310.401 2.75174 1.19244 0
M  V30 3312 H 307.954 1.44864 0.586872 0
M  V30 3313 H 308.689 1.00746 3.08254 0
M  V30 3314 H 308.474 2.75724 2.78781 0
M  V30 3315 H 309.964 2.15735 3.57558 0
M  V30 3316 N 310.401 -0.613514 1.45168 0
M  V30 3317 C 311.333 -1.73825 1.4939 0
M  V30 3318 C 312.346 -1.58175 0.385304 0
M  V30 3319 O 313.535 -1.66165 0.652036 0
M  V30 3320 C 310.635 -3.11758 1.32891 0
M  V30 3321 C 309.808 -3.53704 2.57317 0
M  V30 3322 C 308.867 -4.70579 2.35462 0
M  V30 3323 O 307.893 -4.77996 3.09044 0
M  V30 3324 N 309.095 -5.63454 1.39644 0
M  V30 3325 H 311.86 -1.70669 2.46358 0
M  V30 3326 H 309.421 -0.79862 1.40832 0
M  V30 3327 H 311.413 -3.87692 1.1609 0
M  V30 3328 H 309.983 -3.09456 0.442218 0
M  V30 3329 H 309.203 -2.67794 2.89275 0
M  V30 3330 H 310.491 -3.78486 3.40038 0
M  V30 3331 H 309.889 -5.6017 0.789062 0
M  V30 3332 H 308.446 -6.38944 1.28816 0
M  V30 3333 N 311.879 -1.3236 -0.855495 0
M  V30 3334 C 312.809 -1.23833 -1.97958 0
M  V30 3335 C 313.79 -0.122361 -1.69659 0
M  V30 3336 O 314.975 -0.30939 -1.9172 0
M  V30 3337 C 312.105 -0.959772 -3.33775 0
M  V30 3338 C 311.059 -2.03689 -3.76424 0
M  V30 3339 C 310.385 -1.61075 -5.09862 0
M  V30 3340 C 311.685 -3.4518 -3.9198 0
M  V30 3341 H 313.379 -2.1788 -2.0535 0
M  V30 3342 H 310.925 -1.04891 -0.986605 0
M  V30 3343 H 312.878 -0.886678 -4.11966 0
M  V30 3344 H 311.602 0.0163404 -3.26596 0
M  V30 3345 H 310.261 -2.10012 -3.00484 0
M  V30 3346 H 309.909 -0.622107 -4.99138 0
M  V30 3347 H 309.609 -2.33143 -5.39368 0
M  V30 3348 H 311.133 -1.55201 -5.90546 0
M  V30 3349 H 312.547 -3.4145 -4.60526 0
M  V30 3350 H 310.944 -4.1559 -4.32903 0
M  V30 3351 H 312.014 -3.84903 -2.94919 0
M  V30 3352 N 313.357 1.07166 -1.15556 0
M  V30 3353 C 314.773 1.31899 -0.898603 0
M  V30 3354 C 314.973 1.96333 0.453383 0
M  V30 3355 O 314.029 2.22438 1.19489 0
M  V30 3356 C 315.342 2.20826 -2.04099 0
M  V30 3357 C 316.89 2.34269 -2.07574 0
M  V30 3358 C 317.365 3.26546 -3.21141 0
M  V30 3359 N 318.856 3.34127 -3.20801 0
M  V30 3360 C 319.591 4.05595 -4.05315 0
M  V30 3361 N 319.087 4.79661 -4.99897 0
M  V30 3362 N 320.88 4.01555 -3.93332 0
M  V30 3363 H 313.031 0.637302 -2.02613 0
M  V30 3364 H 315.294 0.343468 -0.883591 0
M  V30 3365 H 315 1.80744 -3.01703 0
M  V30 3366 H 314.874 3.21364 -1.97496 0
M  V30 3367 H 317.261 2.73603 -1.10568 0
M  V30 3368 H 317.342 1.33429 -2.18244 0
M  V30 3369 H 316.986 2.87931 -4.184 0
M  V30 3370 H 316.916 4.27345 -3.07708 0
M  V30 3371 H 319.407 2.81336 -2.52306 0
M  V30 3372 H 319.72 5.31694 -5.60822 0
M  V30 3373 H 318.065 4.78671 -5.03884 0
M  V30 3374 H 321.256 3.42806 -3.18751 0
M  V30 3375 H 321.429 4.56987 -4.5942 0
M  V30 3376 N 314.835 0.952656 1.25548 0
M  V30 3377 C 315.767 0.428609 2.25157 0
M  V30 3378 C 316.78 -0.454428 1.56329 0
M  V30 3379 O 317.969 -0.263023 1.76552 0
M  V30 3380 C 315.069 -0.401972 3.36508 0
M  V30 3381 C 314.242 0.467601 4.34893 0
M  V30 3382 C 313.301 -0.30445 5.25319 0
M  V30 3383 O 312.327 0.296473 5.68427 0
M  V30 3384 N 313.529 -1.59805 5.5807 0
M  V30 3385 H 316.294 1.28497 2.70756 0
M  V30 3386 H 313.855 0.822798 1.39433 0
M  V30 3387 H 315.847 -0.926134 3.9396 0
M  V30 3388 H 314.417 -1.15918 2.90313 0
M  V30 3389 H 313.637 1.17288 3.76347 0
M  V30 3390 H 314.925 1.06119 4.97611 0
M  V30 3391 H 314.323 -2.10823 5.24948 0
M  V30 3392 H 312.88 -2.06822 6.18116 0
M  V30 3393 N 316.313 -1.40141 0.720998 0
M  V30 3394 C 317.56 -2.00787 0.262842 0
M  V30 3395 C 317.888 -1.5718 -1.14563 0
M  V30 3396 O 317.143 -0.785391 -1.79249 0
M  V30 3397 C 317.442 -3.56165 0.296892 0
M  V30 3398 C 317.108 -4.19373 1.65641 0
M  V30 3399 C 315.77 -4.36352 2.02855 0
M  V30 3400 C 318.122 -4.54578 2.54968 0
M  V30 3401 C 315.45 -4.8582 3.28931 0
M  V30 3402 C 317.802 -5.05447 3.80402 0
M  V30 3403 C 316.466 -5.20635 4.17726 0
M  V30 3404 H 315.736 -0.734731 0.0961807 0
M  V30 3405 H 318.383 -1.67673 0.925093 0
M  V30 3406 H 316.688 -3.8922 -0.448932 0
M  V30 3407 H 318.385 -4.00929 -0.0755208 0
M  V30 3408 H 314.975 -4.06549 1.35704 0
M  V30 3409 H 319.159 -4.41091 2.27491 0
M  V30 3410 H 314.415 -4.95764 3.57811 0
M  V30 3411 H 318.589 -5.31663 4.49786 0
M  V30 3412 H 316.216 -5.58728 5.15487 0
M  V30 3413 N 317.792 -0.46758 -1.50504 0
M  V30 3414 C 319.032 0.0874114 -2.04213 0
M  V30 3415 C 319.396 1.37301 -1.34211 0
M  V30 3416 O 320.597 2.01015 -1.78456 0
M  V30 3417 C 318.868 0.270571 -3.56374 0
M  V30 3418 S 320.427 0.784623 -4.31728 0
M  V30 3419 H 317.245 0.0176153 -0.710782 0
M  V30 3420 H 319.847 -0.633915 -1.84937 0
M  V30 3421 H 318.551 -0.670942 -4.04878 0
M  V30 3422 H 318.082 1.01811 -3.79997 0
M  V30 3423 H 320.097 2.05849 -4.51487 0
M  V30 3424 N 319.27 1.56325 -0.20005 0
M  V30 3425 C 320.202 2.16555 0.750771 0
M  V30 3426 C 321.215 1.12871 1.1732 0
M  V30 3427 O 322.404 1.39943 1.10807 0
M  V30 3428 C 319.504 2.71684 2.02586 0
M  V30 3429 C 318.677 4.00321 1.76244 0
M  V30 3430 C 317.736 4.40227 2.88248 0
M  V30 3431 O 316.762 5.07552 2.57642 0
M  V30 3432 N 317.964 4.04138 4.16717 0
M  V30 3433 H 320.729 2.98772 0.235685 0
M  V30 3434 H 318.29 1.6189 -0.0182594 0
M  V30 3435 H 320.282 2.95363 2.76664 0
M  V30 3436 H 318.852 1.93893 2.45202 0
M  V30 3437 H 318.072 3.84723 0.85919 0
M  V30 3438 H 319.36 4.84279 1.56048 0
M  V30 3439 H 318.758 3.49993 4.44434 0
M  V30 3440 H 317.315 4.32756 4.87407 0
M  V30 3441 N 320.748 -0.0735177 1.57428 0
M  V30 3442 C 321.696 -1.10628 2.04607 0
M  V30 3443 C 322.69 -1.40181 0.951088 0
M  V30 3444 O 323.896 -1.39608 1.1362 0
M  V30 3445 H 320.271 -0.374088 0.652351 0
M  V30 3446 H 322.242 -0.682218 2.90497 0
M  V30 3447 C 320.991 -2.41212 2.50423 0
M  V30 3448 H 320.314 -2.19322 3.34272 0
M  V30 3449 H 321.754 -3.11927 2.87189 0
M  V30 3450 C 320.213 -3.0705 1.38644 0
M  V30 3451 O 320.743 -3.95056 0.727582 0
M  V30 3452 N 318.949 -2.67645 1.132 0
M  V30 3453 H 318.496 -1.96169 1.66959 0
M  V30 3454 H 318.454 -3.1202 0.386147 0
M  V30 3455 N 322.226 -1.5378 -0.344866 0
M  V30 3456 C 323.474 -1.70625 -1.08311 0
M  V30 3457 C 323.795 -0.471447 -1.89215 0
M  V30 3458 O 323.065 0.514616 -1.8902 0
M  V30 3459 H 321.645 -0.629058 -0.402859 0
M  V30 3460 H 324.307 -1.9103 -0.386459 0
M  V30 3461 H 323.403 -2.57656 -1.76124 0
M  V30 3462 N 323.704 0.605807 -1.45491 0
M  V30 3463 C 324.667 1.69836 -1.5391 0
M  V30 3464 C 325.667 1.55261 -0.418424 0
M  V30 3465 O 326.857 1.60296 -0.681965 0
M  V30 3466 C 323.989 3.09117 -1.43734 0
M  V30 3467 H 325.182 1.63738 -2.51257 0
M  V30 3468 H 322.735 0.821689 -1.32959 0
M  V30 3469 H 323.47 3.20791 -0.475788 0
M  V30 3470 H 323.255 3.21104 -2.25021 0
M  V30 3471 H 324.745 3.88696 -1.52661 0
M  V30 3472 N 325.182 1.32811 0.848464 0
M  V30 3473 C 326.43 1.23479 1.59991 0
M  V30 3474 C 326.751 -0.201853 1.93952 0
M  V30 3475 O 326.021 -1.12818 1.60153 0
M  V30 3476 H 324.601 0.454034 0.593179 0
M  V30 3477 H 327.263 1.66412 1.01455 0
M  V30 3478 H 326.359 1.82178 2.53412 0
M  V30 3479 N 326.66 -1.06551 1.16123 0
M  V30 3480 C 327.57 -2.17484 0.879662 0
M  V30 3481 C 328.586 -1.73377 -0.147104 0
M  V30 3482 O 329.762 -2.01379 0.0289128 0
M  V30 3483 C 326.827 -3.44591 0.381829 0
M  V30 3484 C 325.888 -4.0322 1.4735 0
M  V30 3485 C 325.121 -5.24261 0.999324 0
M  V30 3486 O 325.344 -5.70198 -0.151957 0
M  V30 3487 O 324.278 -5.74775 1.78653 0
M  V30 3488 H 328.104 -2.44075 1.80724 0
M  V30 3489 H 325.689 -1.16042 0.940992 0
M  V30 3490 H 327.571 -4.21254 0.111053 0
M  V30 3491 H 326.246 -3.19532 -0.51777 0
M  V30 3492 H 325.153 -3.2806 1.79798 0
M  V30 3493 H 326.486 -4.32568 2.34831 0
M  V30 3494 N 328.138 -0.959301 -1.25041 0
M  V30 3495 C 329.368 -0.63303 -1.96663 0
M  V30 3496 C 329.776 0.800031 -1.71453 0
M  V30 3497 O 329.119 1.54736 -0.99008 0
M  V30 3498 C 329.181 -0.817523 -3.50081 0
M  V30 3499 C 328.845 -2.22863 -3.98975 0
M  V30 3500 C 329.842 -3.20569 -4.09306 0
M  V30 3501 C 327.527 -2.55407 -4.32519 0
M  V30 3502 C 329.521 -4.4891 -4.52503 0
M  V30 3503 C 327.208 -3.83976 -4.754 0
M  V30 3504 C 328.206 -4.8054 -4.85356 0
M  V30 3505 O 327.894 -6.06817 -5.27284 0
M  V30 3506 H 327.626 -0.235866 -0.633516 0
M  V30 3507 H 330.18 -1.2874 -1.60047 0
M  V30 3508 H 328.41 -0.105992 -3.86555 0
M  V30 3509 H 330.099 -0.491604 -4.02912 0
M  V30 3510 H 330.865 -2.96753 -3.83618 0
M  V30 3511 H 326.744 -1.8097 -4.23994 0
M  V30 3512 H 330.288 -5.24283 -4.60188 0
M  V30 3513 H 326.185 -4.07596 -5.00535 0
M  V30 3514 H 326.953 -6.10262 -5.45457 0
M  V30 3515 N 329.616 1.39756 -0.72842 0
M  V30 3516 C 330.526 2.34444 -0.0855374 0
M  V30 3517 C 331.542 1.57976 0.729356 0
M  V30 3518 O 332.718 1.90301 0.659346 0
M  V30 3519 C 329.783 3.36965 0.815798 0
M  V30 3520 C 328.844 4.29299 -0.0105996 0
M  V30 3521 C 328.077 5.26923 0.84781 0
M  V30 3522 O 328.3 5.30859 2.08673 0
M  V30 3523 O 327.234 6.01249 0.279969 0
M  V30 3524 H 331.06 2.91065 -0.866892 0
M  V30 3525 H 328.645 1.4117 -0.48902 0
M  V30 3526 H 330.527 3.99804 1.33171 0
M  V30 3527 H 329.202 2.82739 1.57608 0
M  V30 3528 H 328.109 3.69703 -0.571877 0
M  V30 3529 H 329.442 4.86712 -0.73295 0
M  V30 3530 N 331.094 0.475555 1.50254 0
M  V30 3531 C 332.026 -0.352649 2.26471 0
M  V30 3532 C 333.039 -0.953165 1.3198 0
M  V30 3533 O 334.228 -0.840815 1.57457 0
M  V30 3534 C 331.328 -1.50902 3.0345 0
M  V30 3535 C 330.501 -1.02047 4.25329 0
M  V30 3536 C 329.56 -2.05142 4.84565 0
M  V30 3537 O 328.586 -1.63023 5.45355 0
M  V30 3538 N 329.788 -3.37987 4.71959 0
M  V30 3539 H 332.553 0.300767 2.98187 0
M  V30 3540 H 330.114 0.306598 1.5897 0
M  V30 3541 H 332.106 -2.19572 3.39956 0
M  V30 3542 H 330.676 -2.06705 2.34504 0
M  V30 3543 H 329.896 -0.159507 3.93877 0
M  V30 3544 H 331.184 -0.672061 5.04342 0
M  V30 3545 H 330.582 -3.74913 4.23623 0
M  V30 3546 H 329.139 -4.02443 5.12721 0
M  V30 3547 N 332.573 -1.56217 0.208337 0
M  V30 3548 C 333.505 -2.1695 -0.739276 0
M  V30 3549 C 334.518 -1.13492 -1.1672 0
M  V30 3550 O 335.707 -1.40529 -1.10063 0
M  V30 3551 C 332.807 -2.72755 -2.01142 0
M  V30 3552 C 331.98 -4.0125 -1.74118 0
M  V30 3553 C 331.039 -4.41749 -2.85909 0
M  V30 3554 O 330.065 -5.08912 -2.54946 0
M  V30 3555 N 331.267 -4.06342 -4.14568 0
M  V30 3556 H 334.032 -2.98893 -0.219837 0
M  V30 3557 H 331.593 -1.61878 0.0268445 0
M  V30 3558 H 333.585 -2.96826 -2.75094 0
M  V30 3559 H 332.155 -1.95191 -2.4417 0
M  V30 3560 H 331.375 -3.85173 -0.838775 0
M  V30 3561 H 332.663 -4.851 -1.53477 0
M  V30 3562 H 332.061 -3.52345 -4.42571 0
M  V30 3563 H 330.618 -4.35335 -4.85105 0
M  V30 3564 N 334.051 0.0651679 -1.57465 0
M  V30 3565 C 335.467 0.420105 -1.53972 0
M  V30 3566 C 335.667 1.78782 -0.929474 0
M  V30 3567 O 334.723 2.46771 -0.534839 0
M  V30 3568 C 336.036 0.355084 -2.98596 0
M  V30 3569 C 337.584 0.434792 -3.09965 0
M  V30 3570 C 338.059 0.399609 -4.56253 0
M  V30 3571 N 339.55 0.459488 -4.60915 0
M  V30 3572 C 340.285 0.454584 -5.71595 0
M  V30 3573 N 339.781 0.404102 -6.9162 0
M  V30 3574 N 341.574 0.501635 -5.59857 0
M  V30 3575 H 333.725 -0.830328 -1.95498 0
M  V30 3576 H 335.988 -0.312244 -0.895102 0
M  V30 3577 H 335.694 -0.583357 -3.46828 0
M  V30 3578 H 335.568 1.16275 -3.58831 0
M  V30 3579 H 337.955 1.36366 -2.61703 0
M  V30 3580 H 338.036 -0.40157 -2.52628 0
M  V30 3581 H 337.68 -0.525436 -5.05175 0
M  V30 3582 H 337.61 1.25359 -5.11461 0
M  V30 3583 H 340.101 0.502482 -3.74544 0
M  V30 3584 H 340.414 0.404468 -7.71741 0
M  V30 3585 H 338.759 0.37069 -6.94011 0
M  V30 3586 H 341.95 0.538812 -4.64989 0
M  V30 3587 H 342.123 0.494345 -6.46112 0
M  V30 3588 N 335.529 1.53961 0.336706 0
M  V30 3589 C 336.806 1.62171 1.09361 0
M  V30 3590 C 337.186 0.447263 2.06307 0
M  V30 3591 O 336.534 -0.559802 2.21537 0
M  V30 3592 C 336.744 2.98565 1.80721 0
M  V30 3593 C 338.092 3.54157 2.34218 0
M  V30 3594 O 339.116 3.00784 1.90807 0
M  V30 3595 O 337.975 4.47528 3.13657 0
M  V30 3596 H 335.069 0.6562 0.503319 0
M  V30 3597 H 337.615 1.66307 0.33765 0
M  V30 3598 H 336.387 3.75482 1.10132 0
M  V30 3599 H 336.01 2.9805 2.63158 0
M  V30 3600 N 337.007 -0.598083 1.45811 0
M  V30 3601 C 338.254 -1.35681 1.50323 0
M  V30 3602 C 338.582 -1.9393 0.148739 0
M  V30 3603 O 337.837 -1.76094 -0.853787 0
M  V30 3604 C 338.136 -2.51669 2.53766 0
M  V30 3605 C 337.802 -2.11508 3.98215 0
M  V30 3606 C 336.464 -2.0027 4.37545 0
M  V30 3607 C 338.816 -1.80308 4.89018 0
M  V30 3608 C 336.144 -1.56067 5.65562 0
M  V30 3609 C 338.496 -1.37589 6.17456 0
M  V30 3610 C 337.16 -1.24916 6.55708 0
M  V30 3611 H 336.43 -0.496492 0.550069 0
M  V30 3612 H 339.077 -0.675052 1.79207 0
M  V30 3613 H 337.382 -3.25225 2.18486 0
M  V30 3614 H 339.079 -3.09895 2.54492 0
M  V30 3615 H 335.669 -2.21185 3.67117 0
M  V30 3616 H 339.853 -1.87884 4.59362 0
M  V30 3617 H 335.109 -1.44886 5.93985 0
M  V30 3618 H 339.283 -1.12495 6.87254 0
M  V30 3619 H 336.91 -0.904386 7.54801 0
M  V30 3620 N 338.485 -1.33259 -0.841409 0
M  V30 3621 C 339.896 -1.22066 -1.41269 0
M  V30 3622 C 340.247 0.161479 -1.95534 0
M  V30 3623 O 339.372 1.06094 -1.88608 0
M  V30 3624 C 339.967 -2.20996 -2.568 0
M  V30 3625 C 338.526 -2.13649 -3.09888 0
M  V30 3626 C 337.673 -2.08623 -1.82679 0
M  V30 3627 H 340.624 -1.44895 -0.647395 0
M  V30 3628 H 340.645 -1.81621 -3.34356 0
M  V30 3629 H 340.157 -3.2158 -2.17274 0
M  V30 3630 H 338.258 -1.16359 -3.53965 0
M  V30 3631 H 338.371 -3.04079 -3.70234 0
M  V30 3632 H 336.735 -1.54061 -2.02824 0
M  V30 3633 H 337.518 -3.1101 -1.45353 0
M  V30 3634 N 339.963 1.05934 -1.16686 0
M  V30 3635 C 340.926 2.11669 -0.879144 0
M  V30 3636 C 341.926 1.60294 0.127445 0
M  V30 3637 O 343.116 1.7389 -0.103865 0
M  V30 3638 C 340.248 3.39438 -0.315425 0
M  V30 3639 H 341.441 2.38626 -1.81653 0
M  V30 3640 H 338.994 1.22058 -0.976299 0
M  V30 3641 H 339.729 3.18132 0.629468 0
M  V30 3642 H 339.514 3.78034 -1.04079 0
M  V30 3643 H 341.004 4.17391 -0.132189 0
M  V30 3644 N 341.441 0.965919 1.2453 0
M  V30 3645 C 342.687 0.62776 1.92839 0
M  V30 3646 C 343.02 -0.834694 1.75347 0
M  V30 3647 O 342.295 -1.60031 1.10546 0
M  V30 3648 C 342.578 1.00109 3.45905 0
M  V30 3649 C 342.431 2.52011 3.72573 0
M  V30 3650 C 343.75 0.53435 4.36844 0
M  V30 3651 H 340.869 0.229537 0.700344 0
M  V30 3652 H 343.511 1.2046 1.46933 0
M  V30 3653 H 341.661 0.510238 3.85135 0
M  V30 3654 H 343.333 3.08559 3.42912 0
M  V30 3655 H 341.576 2.95287 3.17786 0
M  V30 3656 H 342.247 2.73183 4.79661 0
M  V30 3657 H 344.723 0.955565 4.04979 0
M  V30 3658 H 343.599 0.824152 5.42678 0
M  V30 3659 H 343.86 -0.565589 4.38467 0
M  V30 3660 N 342.919 -1.39368 0.735821 0
M  V30 3661 C 343.829 -2.34395 0.0979693 0
M  V30 3662 C 344.845 -1.58361 -0.720968 0
M  V30 3663 O 346.021 -1.90648 -0.649245 0
M  V30 3664 C 343.086 -3.37393 -0.797916 0
M  V30 3665 C 342.147 -4.29287 0.0333662 0
M  V30 3666 C 341.38 -5.27365 -0.819854 0
M  V30 3667 O 341.603 -5.31959 -2.05855 0
M  V30 3668 O 340.537 -6.01389 -0.248079 0
M  V30 3669 H 344.363 -2.90601 0.882315 0
M  V30 3670 H 341.948 -1.40909 0.4965 0
M  V30 3671 H 343.83 -4.00505 -1.31048 0
M  V30 3672 H 342.505 -2.83571 -1.56106 0
M  V30 3673 H 341.412 -3.69395 0.591475 0
M  V30 3674 H 342.745 -4.86317 0.758752 0
M  V30 3675 N 344.397 -0.483516 -1.5 0
M  V30 3676 C 345.645 0.067027 -2.01989 0
M  V30 3677 C 345.966 1.3909 -1.36671 0
M  V30 3678 O 345.236 1.88978 -0.516152 0
M  V30 3679 H 343.816 0.0277606 -0.746484 0
M  V30 3680 H 346.478 -0.636773 -1.84204 0
M  V30 3681 H 345.574 0.209484 -3.11396 0
M  V30 3682 N 345.875 1.56104 -0.216619 0
M  V30 3683 C 347.103 2.02563 0.421413 0
M  V30 3684 C 347.518 1.0965 1.53695 0
M  V30 3685 O 346.875 0.10521 1.82196 0
M  V30 3686 C 346.926 3.48584 0.957665 0
M  V30 3687 O 346.647 4.37953 -0.113389 0
M  V30 3688 C 348.148 4.10664 1.66943 0
M  V30 3689 H 345.368 0.662944 0.103665 0
M  V30 3690 H 347.912 2.01793 -0.331629 0
M  V30 3691 H 346.067 3.49985 1.661 0
M  V30 3692 H 346.481 5.23704 0.288932 0
M  V30 3693 H 347.955 5.14622 1.99671 0
M  V30 3694 H 348.432 3.55373 2.58083 0
M  V30 3695 H 349.038 4.13098 1.01142 0
M  V30 3696 N 347.353 -0.0568162 1.57498 0
M  V30 3697 C 348.578 -0.769402 1.92601 0
M  V30 3698 C 349.003 -1.69559 0.814336 0
M  V30 3699 O 348.361 -1.79811 -0.231903 0
M  V30 3700 C 348.409 -1.52634 3.26704 0
M  V30 3701 O 347.513 -2.63797 3.16994 0
M  V30 3702 H 346.854 -0.208909 0.63028 0
M  V30 3703 H 349.384 -0.0205798 2.0459 0
M  V30 3704 H 349.394 -1.90234 3.60936 0
M  V30 3705 H 348.069 -0.846875 4.07186 0
M  V30 3706 H 346.646 -2.28943 2.94346 0
M  V30 3707 N 348.832 -1.54138 -0.328536 0
M  V30 3708 C 350.248 -1.44736 -0.672574 0
M  V30 3709 C 350.448 -0.616217 -1.91846 0
M  V30 3710 O 349.504 -0.113067 -2.52247 0
M  V30 3711 C 350.817 -2.884 -0.851217 0
M  V30 3712 C 352.365 -2.98271 -0.948877 0
M  V30 3713 C 352.84 -4.43074 -1.15973 0
M  V30 3714 N 354.331 -4.46665 -1.22658 0
M  V30 3715 C 355.066 -5.55857 -1.40751 0
M  V30 3716 N 354.562 -6.75026 -1.5592 0
M  V30 3717 N 356.355 -5.43495 -1.4342 0
M  V30 3718 H 348.506 -2.06661 0.490421 0
M  V30 3719 H 350.769 -0.934812 0.157579 0
M  V30 3720 H 350.475 -3.51699 -0.00704236 0
M  V30 3721 H 350.349 -3.34225 -1.74853 0
M  V30 3722 H 352.736 -2.35102 -1.78356 0
M  V30 3723 H 352.817 -2.55785 -0.0281435 0
M  V30 3724 H 352.461 -5.06827 -0.329915 0
M  V30 3725 H 352.391 -4.83165 -2.09426 0
M  V30 3726 H 354.882 -3.60797 -1.124 0
M  V30 3727 H 355.195 -7.54004 -1.69404 0
M  V30 3728 H 353.54 -6.77944 -1.53027 0
M  V30 3729 H 356.731 -4.49349 -1.31162 0
M  V30 3730 H 356.904 -6.28649 -1.57178 0
M  V30 3731 N 350.31 0.590341 -1.46126 0
M  V30 3732 C 351.24 1.71032 -1.58966 0
M  V30 3733 C 352.221 1.64302 -0.440335 0
M  V30 3734 O 353.406 1.82436 -0.665634 0
M  V30 3735 C 350.536 3.09665 -1.57241 0
M  V30 3736 C 349.49 3.31221 -2.71066 0
M  V30 3737 C 348.816 4.70303 -2.54399 0
M  V30 3738 C 350.116 3.19796 -4.1295 0
M  V30 3739 H 351.81 1.60543 -2.52718 0
M  V30 3740 H 349.356 0.770933 -1.21625 0
M  V30 3741 H 351.309 3.87831 -1.64819 0
M  V30 3742 H 350.033 3.21036 -0.600289 0
M  V30 3743 H 348.692 2.55452 -2.62944 0
M  V30 3744 H 348.34 4.78429 -1.55288 0
M  V30 3745 H 348.04 4.85679 -3.30741 0
M  V30 3746 H 349.564 5.50647 -2.63857 0
M  V30 3747 H 350.978 3.87815 -4.22223 0
M  V30 3748 H 349.375 3.46696 -4.89818 0
M  V30 3749 H 350.445 2.16983 -4.33643 0
M  V30 3750 N 351.788 1.33704 0.83433 0
M  V30 3751 C 353.013 1.28615 1.62705 0
M  V30 3752 C 353.438 -0.139242 1.87584 0
M  V30 3753 O 352.796 -1.09734 1.4432 0
M  V30 3754 C 352.844 2.07139 2.95171 0
M  V30 3755 O 351.948 1.4331 3.86699 0
M  V30 3756 H 351.289 0.44226 0.49528 0
M  V30 3757 H 353.819 1.76335 1.03766 0
M  V30 3758 H 353.829 2.18073 3.44831 0
M  V30 3759 H 352.504 3.10779 2.76386 0
M  V30 3760 H 351.081 1.4105 3.45195 0
M  V30 3761 N 353.266 -1.05314 1.17247 0
M  V30 3762 C 354.229 -2.112 0.890357 0
M  V30 3763 C 355.229 -1.60359 -0.118943 0
M  V30 3764 O 356.419 -1.73833 0.113086 0
M  V30 3765 C 353.551 -3.39266 0.333422 0
M  V30 3766 H 354.744 -2.37659 1.82916 0
M  V30 3767 H 352.297 -1.21538 0.982758 0
M  V30 3768 H 353.032 -3.18462 -0.612587 0
M  V30 3769 H 352.817 -3.77477 1.06082 0
M  V30 3770 H 354.307 -4.17315 0.154322 0
M  V30 3771 N 354.744 -0.972509 -1.24016 0
M  V30 3772 C 355.969 -0.654417 -1.96805 0
M  V30 3773 C 356.394 0.770398 -1.716 0
M  V30 3774 O 355.752 1.52361 -0.982647 0
M  V30 3775 C 355.8 -0.941031 -3.48105 0
M  V30 3776 O 354.904 -0.0289472 -4.1239 0
M  V30 3777 H 354.245 -0.24692 -0.616382 0
M  V30 3778 H 356.775 -1.30396 -1.57664 0
M  V30 3779 H 356.785 -0.87452 -3.98517 0
M  V30 3780 H 355.46 -1.97939 -3.65777 0
M  V30 3781 H 354.037 -0.149192 -3.72601 0
M  V30 3782 N 356.222 1.38976 -0.743202 0
M  V30 3783 C 357.152 2.33171 -0.123873 0
M  V30 3784 C 358.133 1.54336 0.71516 0
M  V30 3785 O 359.318 1.82696 0.658467 0
M  V30 3786 C 356.448 3.38474 0.777978 0
M  V30 3787 C 355.402 4.27979 0.0424758 0
M  V30 3788 C 354.728 5.2405 1.06189 0
M  V30 3789 C 356.028 5.10155 -1.1198 0
M  V30 3790 H 357.722 2.85213 -0.910709 0
M  V30 3791 H 355.268 1.37133 -0.439388 0
M  V30 3792 H 357.221 4.03328 1.22084 0
M  V30 3793 H 355.945 2.84891 1.59702 0
M  V30 3794 H 354.604 3.64616 -0.380853 0
M  V30 3795 H 354.252 4.66758 1.87472 0
M  V30 3796 H 353.952 5.84785 0.574485 0
M  V30 3797 H 355.476 5.9178 1.50428 0
M  V30 3798 H 356.89 5.68307 -0.75499 0
M  V30 3799 H 355.287 5.80073 -1.53738 0
M  V30 3800 H 356.357 4.44504 -1.93764 0
M  V30 3801 N 357.7 0.491464 1.49741 0
M  V30 3802 C 358.663 -0.280906 2.27472 0
M  V30 3803 C 359.663 -0.902454 1.33088 0
M  V30 3804 O 360.853 -0.768465 1.56334 0
M  V30 3805 C 357.985 -1.40209 3.10732 0
M  V30 3806 H 359.178 0.401056 2.97206 0
M  V30 3807 H 356.731 0.246131 1.5435 0
M  V30 3808 H 357.466 -2.11849 2.45541 0
M  V30 3809 H 357.251 -0.961969 3.80117 0
M  V30 3810 H 358.741 -1.9464 3.69466 0
M  V30 3811 N 359.178 -1.55987 0.224894 0
M  V30 3812 C 360.406 -2.02784 -0.410665 0
M  V30 3813 C 360.821 -1.10464 -1.53112 0
M  V30 3814 O 360.178 -0.114871 -1.82138 0
M  V30 3815 C 360.229 -3.49087 -0.939165 0
M  V30 3816 O 359.95 -4.37887 0.136614 0
M  V30 3817 C 361.451 -4.11543 -1.64763 0
M  V30 3818 H 358.671 -0.663484 -0.100148 0
M  V30 3819 H 361.215 -2.01614 0.342326 0
M  V30 3820 H 359.37 -3.50861 -1.64242 0
M  V30 3821 H 359.784 -5.23849 -0.261155 0
M  V30 3822 H 361.258 -5.15673 -1.96939 0
M  V30 3823 H 361.735 -3.56736 -2.56195 0
M  V30 3824 H 362.341 -4.13629 -0.989503 0
M  V30 3825 N 360.656 0.0484629 -1.57525 0
M  V30 3826 C 361.904 0.741657 -1.88 0
M  V30 3827 C 362.225 1.76918 -0.820054 0
M  V30 3828 O 361.495 1.95335 0.148661 0
M  V30 3829 H 360.075 0.276908 -0.69378 0
M  V30 3830 H 362.737 0.019013 -1.94891 0
M  V30 3831 H 361.833 1.24336 -2.86264 0
M  V30 3832 N 362.134 1.5431 0.320358 0
M  V30 3833 C 363.382 1.72327 1.05583 0
M  V30 3834 C 363.703 0.50149 1.88441 0
M  V30 3835 O 362.973 -0.48448 1.89815 0
M  V30 3836 H 361.553 0.635387 0.3928 0
M  V30 3837 H 364.215 1.91621 0.356019 0
M  V30 3838 H 363.311 2.60426 1.72003 0
M  V30 3839 N 363.613 -0.582584 1.46437 0
M  V30 3840 C 364.543 -1.70187 1.59871 0
M  V30 3841 C 365.524 -1.64066 0.449042 0
M  V30 3842 O 366.709 -1.82081 0.6753 0
M  V30 3843 C 363.839 -3.08827 1.58881 0
M  V30 3844 C 362.793 -3.29779 2.72819 0
M  V30 3845 C 362.119 -4.68947 2.5689 0
M  V30 3846 C 363.419 -3.17601 4.1464 0
M  V30 3847 H 365.113 -1.592 2.53566 0
M  V30 3848 H 362.659 -0.764472 1.22032 0
M  V30 3849 H 364.612 -3.86951 1.66873 0
M  V30 3850 H 363.336 -3.20713 0.617306 0
M  V30 3851 H 361.995 -2.54054 2.64296 0
M  V30 3852 H 361.643 -4.77599 1.57823 0
M  V30 3853 H 361.343 -4.83919 3.33312 0
M  V30 3854 H 362.867 -5.4924 2.66773 0
M  V30 3855 H 364.281 -3.8557 4.24274 0
M  V30 3856 H 362.678 -3.44094 4.9165 0
M  V30 3857 H 363.748 -2.14681 4.34788 0
M  V30 3858 N 365.091 -1.34144 -0.827227 0
M  V30 3859 C 366.316 -1.29476 -1.62021 0
M  V30 3860 C 366.741 0.129292 -1.87655 0
M  V30 3861 O 366.099 1.08967 -1.449 0
M  V30 3862 C 366.147 -2.08702 -2.94068 0
M  V30 3863 O 365.251 -1.45359 -3.85933 0
M  V30 3864 H 364.592 -0.444881 -0.492927 0
M  V30 3865 H 367.122 -1.76882 -1.02829 0
M  V30 3866 H 367.132 -2.19898 -3.43669 0
M  V30 3867 H 365.807 -3.12241 -2.74734 0
M  V30 3868 H 364.384 -1.42879 -3.44442 0
M  V30 3869 N 366.569 1.04691 -1.17803 0
M  V30 3870 C 367.98 1.59238 -0.974689 0
M  V30 3871 C 368.331 1.90306 0.477292 0
M  V30 3872 O 367.456 1.68846 1.35352 0
M  V30 3873 C 368.051 2.89318 -1.76296 0
M  V30 3874 C 366.61 3.40506 -1.60414 0
M  V30 3875 C 365.757 2.14172 -1.76141 0
M  V30 3876 H 368.708 0.874395 -1.32439 0
M  V30 3877 H 368.729 3.5944 -1.24833 0
M  V30 3878 H 368.241 2.66675 -2.81968 0
M  V30 3879 H 366.342 3.68175 -0.572519 0
M  V30 3880 H 366.455 4.14753 -2.39827 0
M  V30 3881 H 364.819 2.25176 -1.19028 0
M  V30 3882 H 365.602 1.93992 -2.83235 0
M  V30 3883 N 368.047 0.979072 1.23499 0
M  V30 3884 C 369.463 0.687475 1.44034 0
M  V30 3885 C 369.663 -0.746801 1.8715 0
M  V30 3886 O 368.719 -1.51939 2.0167 0
M  V30 3887 C 370.032 1.68127 2.49307 0
M  V30 3888 C 371.58 1.69516 2.63122 0
M  V30 3889 C 372.055 2.67723 3.71603 0
M  V30 3890 N 373.546 2.66233 3.79044 0
M  V30 3891 C 374.281 3.38891 4.62537 0
M  V30 3892 N 373.777 4.21103 5.50131 0
M  V30 3893 N 375.57 3.27661 4.56721 0
M  V30 3894 H 367.721 1.90559 0.938135 0
M  V30 3895 H 369.984 0.821051 0.473897 0
M  V30 3896 H 369.69 2.70693 2.2454 0
M  V30 3897 H 369.564 1.46306 3.4767 0
M  V30 3898 H 371.951 0.676561 2.8724 0
M  V30 3899 H 372.032 1.95404 1.65079 0
M  V30 3900 H 371.676 3.69724 3.48233 0
M  V30 3901 H 371.606 2.39111 4.69184 0
M  V30 3902 H 374.097 2.06568 3.16446 0
M  V30 3903 H 374.41 4.73403 6.10827 0
M  V30 3904 H 372.755 4.25195 5.49759 0
M  V30 3905 H 375.946 2.62887 3.87309 0
M  V30 3906 H 376.119 3.84547 5.21562 0
M  V30 3907 N 369.525 -1.3858 0.750561 0
M  V30 3908 C 370.457 -2.29057 0.0810714 0
M  V30 3909 C 371.47 -1.47596 -0.686973 0
M  V30 3910 O 372.659 -1.70495 -0.528563 0
M  V30 3911 C 369.759 -3.26475 -0.909247 0
M  V30 3912 C 368.932 -4.36945 -0.199478 0
M  V30 3913 C 367.991 -5.14572 -1.10011 0
M  V30 3914 O 367.017 -5.66321 -0.57177 0
M  V30 3915 N 368.219 -5.27262 -2.42849 0
M  V30 3916 H 370.984 -2.87153 0.858087 0
M  V30 3917 H 368.545 -1.50328 0.60109 0
M  V30 3918 H 370.537 -3.75285 -1.51471 0
M  V30 3919 H 369.107 -2.69298 -1.58736 0
M  V30 3920 H 368.327 -3.8981 0.586664 0
M  V30 3921 H 369.615 -5.07963 0.291783 0
M  V30 3922 H 369.013 -4.86763 -2.88233 0
M  V30 3923 H 367.57 -5.79456 -2.98453 0
M  V30 3924 N 371.003 -0.499398 -1.49478 0
M  V30 3925 C 372.243 0.0440751 -2.04352 0
M  V30 3926 C 372.607 1.34423 -1.37093 0
M  V30 3927 O 373.808 1.97184 -1.82679 0
M  V30 3928 C 372.079 0.194918 -3.56868 0
M  V30 3929 S 373.638 0.69287 -4.33295 0
M  V30 3930 H 370.456 0.00253458 -0.710995 0
M  V30 3931 H 373.058 -0.673 -1.83551 0
M  V30 3932 H 371.762 -0.756672 -4.03364 0
M  V30 3933 H 371.293 0.93728 -3.82071 0
M  V30 3934 H 373.308 1.96226 -4.55752 0
M  V30 3935 N 372.481 1.55866 -0.233164 0
M  V30 3936 C 373.411 2.23783 0.666599 0
M  V30 3937 C 374.392 1.21343 1.19205 0
M  V30 3938 O 375.577 1.4996 1.23392 0
M  V30 3939 C 372.707 2.92671 1.86978 0
M  V30 3940 C 371.661 4.01682 1.47768 0
M  V30 3941 C 370.987 4.57926 2.76058 0
M  V30 3942 C 372.287 5.18126 0.658993 0
M  V30 3943 H 373.981 2.99232 0.100306 0
M  V30 3944 H 371.527 1.43924 0.046804 0
M  V30 3945 H 373.48 3.3888 2.50476 0
M  V30 3946 H 372.204 2.14688 2.46123 0
M  V30 3947 H 370.863 3.56222 0.866106 0
M  V30 3948 H 370.511 3.76659 3.33372 0
M  V30 3949 H 370.211 5.31505 2.50552 0
M  V30 3950 H 371.735 5.06859 3.40479 0
M  V30 3951 H 373.149 5.60644 1.19795 0
M  V30 3952 H 371.546 5.98009 0.500552 0
M  V30 3953 H 372.616 4.83763 -0.331856 0
M  V30 3954 N 373.959 -0.0401083 1.57549 0
M  V30 3955 C 374.909 -1.05175 2.02292 0
M  V30 3956 C 375.893 -1.32674 0.910294 0
M  V30 3957 O 377.085 -1.32444 1.17421 0
M  V30 3958 C 374.214 -2.35622 2.49674 0
M  V30 3959 C 373.3 -2.11261 3.67736 0
M  V30 3960 N 373.691 -1.56923 4.80842 0
M  V30 3961 C 371.989 -2.41596 3.74897 0
M  V30 3962 C 372.69 -1.48111 5.62528 0
M  V30 3963 N 371.666 -1.95282 5.07312 0
M  V30 3964 H 375.468 -0.625455 2.87168 0
M  V30 3965 H 372.982 -0.246624 1.60516 0
M  V30 3966 H 374.979 -3.08893 2.79983 0
M  V30 3967 H 373.639 -2.7894 1.662 0
M  V30 3968 H 374.65 -1.25345 5.02503 0
M  V30 3969 H 371.327 -2.88064 3.02201 0
M  V30 3970 H 372.717 -1.06683 6.63377 0
M  V30 3971 N 375.437 -1.54477 -0.31217 0
M  V30 3972 C 376.853 -1.45442 -0.657185 0
M  V30 3973 C 377.053 -0.63653 -1.91182 0
M  V30 3974 O 376.109 -0.139815 -2.52113 0
M  V30 3975 C 377.422 -2.89287 -0.82058 0
M  V30 3976 C 378.97 -2.9926 -0.917188 0
M  V30 3977 C 379.445 -4.44279 -1.11267 0
M  V30 3978 N 380.936 -4.4794 -1.17914 0
M  V30 3979 C 381.671 -5.57318 -1.34848 0
M  V30 3980 N 381.167 -6.76642 -1.48752 0
M  V30 3981 N 382.96 -5.44986 -1.37647 0
M  V30 3982 H 375.111 -2.06129 0.512313 0
M  V30 3983 H 377.374 -0.933088 0.167485 0
M  V30 3984 H 377.08 -3.51687 0.0302604 0
M  V30 3985 H 376.954 -3.36061 -1.71298 0
M  V30 3986 H 379.341 -2.36981 -1.75852 0
M  V30 3987 H 379.422 -2.558 -0.00101257 0
M  V30 3988 H 379.066 -5.07149 -0.27614 0
M  V30 3989 H 378.996 -4.85359 -2.04289 0
M  V30 3990 H 381.487 -3.61969 -1.08567 0
M  V30 3991 H 381.8 -7.55758 -1.61397 0
M  V30 3992 H 380.145 -6.79529 -1.45828 0
M  V30 3993 H 383.336 -4.50715 -1.26388 0
M  V30 3994 H 383.509 -6.3028 -1.50501 0
M  V30 3995 N 376.915 0.57481 -1.46744 0
M  V30 3996 C 377.845 1.69337 -1.60771 0
M  V30 3997 C 378.826 1.63825 -0.457736 0
M  V30 3998 O 380.011 1.8172 -0.684947 0
M  V30 3999 C 377.141 3.0798 -1.60517 0
M  V30 4000 C 376.095 3.28327 -2.74564 0
M  V30 4001 C 375.421 4.67578 -2.59373 0
M  V30 4002 C 376.721 3.15398 -4.16319 0
M  V30 4003 H 378.415 1.57853 -2.54407 0
M  V30 4004 H 375.961 0.75799 -1.22436 0
M  V30 4005 H 377.914 3.86061 -1.68923 0
M  V30 4006 H 376.638 3.20381 -0.634305 0
M  V30 4007 H 375.297 2.52649 -2.65639 0
M  V30 4008 H 374.945 4.76755 -1.60353 0
M  V30 4009 H 374.645 4.82144 -3.35873 0
M  V30 4010 H 376.169 5.47817 -2.69682 0
M  V30 4011 H 377.583 3.83315 -4.26313 0
M  V30 4012 H 375.98 3.41482 -4.93468 0
M  V30 4013 H 377.05 2.12372 -4.3592 0
M  V30 4014 N 378.394 1.34581 0.820102 0
M  V30 4015 C 379.324 1.29038 1.94606 0
M  V30 4016 C 380.305 0.1673 1.69275 0
M  V30 4017 O 381.49 0.360112 1.90832 0
M  V30 4018 C 378.62 1.04793 3.31113 0
M  V30 4019 C 377.574 2.13597 3.70891 0
M  V30 4020 C 376.9 1.74537 5.05412 0
M  V30 4021 C 378.2 3.55451 3.8269 0
M  V30 4022 H 379.894 2.23248 1.99501 0
M  V30 4023 H 377.44 1.0747 0.958449 0
M  V30 4024 H 379.393 0.995592 4.0947 0
M  V30 4025 H 378.117 0.0702565 3.26524 0
M  V30 4026 H 376.776 2.17905 2.9481 0
M  V30 4027 H 376.424 0.754226 4.97313 0
M  V30 4028 H 376.124 2.47361 5.32997 0
M  V30 4029 H 377.648 1.70803 5.86224 0
M  V30 4030 H 379.062 3.5354 4.51312 0
M  V30 4031 H 377.459 4.26922 4.21732 0
M  V30 4032 H 378.529 3.92587 2.84611 0
M  V30 4033 N 379.872 -1.04064 1.18357 0
M  V30 4034 C 380.835 -2.10243 0.912707 0
M  V30 4035 C 381.835 -1.60477 -0.101928 0
M  V30 4036 O 383.025 -1.73703 0.131517 0
M  V30 4037 C 380.157 -3.38893 0.369387 0
M  V30 4038 H 381.35 -2.35706 1.85426 0
M  V30 4039 H 378.903 -1.20489 0.995594 0
M  V30 4040 H 379.638 -3.19094 -0.578776 0
M  V30 4041 H 379.423 -3.76331 1.1008 0
M  V30 4042 H 380.913 -4.17128 0.198575 0
M  V30 4043 N 381.35 -0.985608 -1.22978 0
M  V30 4044 C 382.26 -0.538548 -2.28335 0
M  V30 4045 C 383.276 0.409163 -1.69121 0
M  V30 4046 O 384.452 0.277797 -1.99475 0
M  V30 4047 C 381.517 0.146867 -3.46389 0
M  V30 4048 C 380.578 -0.842896 -4.20944 0
M  V30 4049 C 379.811 -0.190095 -5.33361 0
M  V30 4050 O 380.034 1.01767 -5.61248 0
M  V30 4051 O 378.968 -0.891289 -5.95264 0
M  V30 4052 H 382.794 -1.41487 -2.68729 0
M  V30 4053 H 380.379 -0.753495 -1.29007 0
M  V30 4054 H 382.261 0.531125 -4.1804 0
M  V30 4055 H 380.936 0.997871 -3.07935 0
M  V30 4056 H 379.843 -1.27795 -3.51595 0
M  V30 4057 H 381.176 -1.66287 -4.6326 0
M  V30 4058 N 382.828 1.3818 -0.7579 0
M  V30 4059 C 383.76 2.2901 -0.0932177 0
M  V30 4060 C 384.773 1.47958 0.679136 0
M  V30 4061 O 385.962 1.70773 0.519514 0
M  V30 4062 C 383.062 3.26953 0.89192 0
M  V30 4063 C 382.235 4.37045 0.176303 0
M  V30 4064 C 381.294 5.15148 1.07281 0
M  V30 4065 O 380.32 5.66616 0.541728 0
M  V30 4066 N 381.522 5.28542 2.40049 0
M  V30 4067 H 384.287 2.86694 -0.873303 0
M  V30 4068 H 381.848 1.50007 -0.609054 0
M  V30 4069 H 383.84 3.76083 1.49479 0
M  V30 4070 H 382.41 2.70136 1.57306 0
M  V30 4071 H 381.63 3.89493 -0.607328 0
M  V30 4072 H 382.918 5.07801 -0.318718 0
M  V30 4073 H 382.316 4.88285 2.85647 0
M  V30 4074 H 380.873 5.8103 2.95376 0
M  V30 4075 N 384.306 0.507319 1.49211 0
M  V30 4076 C 385.717 0.0611118 1.866 0
M  V30 4077 C 386.068 -1.35488 1.41907 0
M  V30 4078 O 385.193 -2.0108 0.799726 0
M  V30 4079 C 385.788 0.104125 3.3864 0
M  V30 4080 C 384.347 -0.28677 3.75306 0
M  V30 4081 C 383.494 0.473893 2.73221 0
M  V30 4082 H 386.445 0.719775 1.41439 0
M  V30 4083 H 386.466 -0.689672 3.74198 0
M  V30 4084 H 385.978 1.13482 3.71138 0
M  V30 4085 H 384.079 -1.32046 3.48417 0
M  V30 4086 H 384.192 0.0370745 4.79086 0
M  V30 4087 H 382.556 -0.0770644 2.54583 0
M  V30 4088 H 383.339 1.50478 3.08563 0
M  V30 4089 N 385.784 -1.5574 0.241426 0
M  V30 4090 C 386.716 -2.18469 -0.693091 0
M  V30 4091 C 387.729 -1.15942 -1.14286 0
M  V30 4092 O 388.918 -1.42832 -1.07058 0
M  V30 4093 C 386.018 -2.7696 -1.95311 0
M  V30 4094 C 385.191 -4.04853 -1.65568 0
M  V30 4095 C 384.25 -4.47715 -2.76474 0
M  V30 4096 O 383.276 -5.14205 -2.44094 0
M  V30 4097 N 384.478 -4.15044 -4.05855 0
M  V30 4098 H 387.243 -2.99292 -0.156388 0
M  V30 4099 H 384.804 -1.61784 0.0611752 0
M  V30 4100 H 386.796 -3.02594 -2.68736 0
M  V30 4101 H 385.366 -2.00326 -2.39975 0
M  V30 4102 H 384.586 -3.86865 -0.756886 0
M  V30 4103 H 385.874 -4.88246 -1.43153 0
M  V30 4104 H 385.272 -3.61654 -4.34998 0
M  V30 4105 H 383.829 -4.45526 -4.75762 0
M  V30 4106 N 387.262 0.0317525 -1.57568 0
M  V30 4107 C 388.225 1.01783 -2.0536 0
M  V30 4108 C 389.225 1.29203 -0.957253 0
M  V30 4109 O 390.415 1.24251 -1.22095 0
M  V30 4110 C 387.547 2.35137 -2.46827 0
M  V30 4111 H 388.74 0.605062 -2.93733 0
M  V30 4112 H 386.293 0.278514 -1.53799 0
M  V30 4113 H 387.028 2.81168 -1.61602 0
M  V30 4114 H 386.813 2.16566 -3.26866 0
M  V30 4115 H 388.303 3.05938 -2.84239 0
M  V30 4116 N 388.74 1.54641 0.303973 0
M  V30 4117 C 389.67 1.88386 1.3796 0
M  V30 4118 C 390.651 0.742485 1.5304 0
M  V30 4119 O 391.836 0.997959 1.66597 0
M  V30 4120 C 388.966 2.12854 2.74427 0
M  V30 4121 C 387.92 3.28702 2.74115 0
M  V30 4122 C 387.246 3.38582 4.13844 0
M  V30 4123 C 388.546 4.65881 2.3612 0
M  V30 4124 H 390.24 2.78474 1.09966 0
M  V30 4125 H 387.786 1.33988 0.527556 0
M  V30 4126 H 389.739 2.35047 3.49758 0
M  V30 4127 H 388.463 1.19535 3.03939 0
M  V30 4128 H 387.122 3.06428 2.0124 0
M  V30 4129 H 386.77 2.42784 4.40528 0
M  V30 4130 H 386.47 4.16453 4.14537 0
M  V30 4131 H 387.994 3.63031 4.90959 0
M  V30 4132 H 389.408 4.87823 3.01167 0
M  V30 4133 H 387.805 5.46444 2.48031 0
M  V30 4134 H 388.875 4.66799 1.3125 0
M  V30 4135 N 390.218 -0.567019 1.47046 0
M  V30 4136 C 391.495 -1.3276 1.43646 0
M  V30 4137 C 391.875 -2.1071 0.128186 0
M  V30 4138 O 391.223 -2.10441 -0.890326 0
M  V30 4139 C 391.433 -2.2404 2.67595 0
M  V30 4140 C 392.781 -2.85372 3.14401 0
M  V30 4141 O 393.805 -2.34346 2.68254 0
M  V30 4142 O 392.664 -3.78091 3.946 0
M  V30 4143 H 389.758 -0.597293 0.571988 0
M  V30 4144 H 392.304 -0.586735 1.59234 0
M  V30 4145 H 391.076 -1.65975 3.54356 0
M  V30 4146 H 390.699 -3.05439 2.54544 0
M  V30 4147 N 391.696 -1.35014 -0.812953 0
M  V30 4148 C 392.944 -1.27678 -1.56661 0
M  V30 4149 C 393.265 0.150359 -1.94419 0
M  V30 4150 O 392.535 1.08532 -1.63088 0
M  V30 4151 H 391.115 -0.469602 -0.580933 0
M  V30 4152 H 393.777 -1.69043 -0.970076 0
M  V30 4153 H 392.873 -1.88833 -2.48492 0
M  V30 4154 N 393.175 1.03435 -1.18907 0
M  V30 4155 C 394.423 1.76394 -0.986382 0
M  V30 4156 C 394.744 1.88883 0.484567 0
M  V30 4157 O 394.014 1.41843 1.3512 0
M  V30 4158 H 392.594 0.65344 -0.361975 0
M  V30 4159 H 395.256 1.248 -1.49703 0
M  V30 4160 H 394.352 2.77424 -1.42978 0
M  V30 4161 N 394.653 0.992116 1.22453 0
M  V30 4162 C 395.616 0.546883 2.2258 0
M  V30 4163 C 396.616 -0.369829 1.56489 0
M  V30 4164 O 397.806 -0.161896 1.73446 0
M  V30 4165 C 394.938 -0.204659 3.40285 0
M  V30 4166 H 396.131 1.43234 2.63484 0
M  V30 4167 H 393.684 0.779239 1.3549 0
M  V30 4168 H 394.419 -1.10614 3.04853 0
M  V30 4169 H 394.204 0.45354 3.89468 0
M  V30 4170 H 395.694 -0.504358 4.14543 0
M  V30 4171 N 396.131 -1.37776 0.765217 0
M  V30 4172 C 397.379 -1.99454 0.325943 0
M  V30 4173 C 397.7 -1.61049 -1.09947 0
M  V30 4174 O 396.97 -0.872821 -1.75381 0
M  V30 4175 H 395.55 -0.737697 0.117525 0
M  V30 4176 H 398.212 -1.68359 0.981895 0
M  V30 4177 H 397.308 -3.09547 0.398353 0
M  V30 4178 N 397.609 -0.515225 -1.4894 0
M  V30 4179 C 398.834 0.022727 -2.07388 0
M  V30 4180 C 399.259 1.2876 -1.37122 0
M  V30 4181 O 398.617 1.76067 -0.432431 0
M  V30 4182 C 398.665 0.244869 -3.59768 0
M  V30 4183 O 397.769 1.31667 -3.90817 0
M  V30 4184 H 397.11 -0.0325506 -0.663202 0
M  V30 4185 H 399.64 -0.718918 -1.91553 0
M  V30 4186 H 399.65 0.47205 -4.0526 0
M  V30 4187 H 398.325 -0.679194 -4.10317 0
M  V30 4188 H 396.902 1.07331 -3.5712 0
M  V30 4189 N 399.087 1.5561 -0.249682 0
M  V30 4190 C 400.333 1.99306 0.374841 0
M  V30 4191 C 400.666 1.13767 1.57387 0
M  V30 4192 O 399.941 0.201711 1.93451 0
M  V30 4193 C 400.224 3.51507 0.781986 0
M  V30 4194 C 400.077 4.4781 -0.422629 0
M  V30 4195 C 401.396 4.08884 1.62793 0
M  V30 4196 H 398.515 0.724572 0.134773 0
M  V30 4197 H 401.157 1.86719 -0.351549 0
M  V30 4198 H 399.307 3.62363 1.4009 0
M  V30 4199 H 400.979 4.48931 -1.06108 0
M  V30 4200 H 399.222 4.20518 -1.06524 0
M  V30 4201 H 399.893 5.51919 -0.0943766 0
M  V30 4202 H 402.369 4.01147 1.10547 0
M  V30 4203 H 401.245 5.1564 1.88166 0
M  V30 4204 H 401.506 3.57515 2.60068 0
M  V30 4205 N 400.565 -0.0233959 1.57583 0
M  V30 4206 C 401.811 -0.708611 1.90657 0
M  V30 4207 C 402.166 -1.7266 0.848895 0
M  V30 4208 O 401.459 -1.91075 -0.141749 0
M  V30 4209 C 401.653 -1.41428 3.28227 0
M  V30 4210 C 401.482 -0.466155 4.47277 0
M  V30 4211 C 400.252 -0.085117 5.05228 0
M  V30 4212 C 402.45 0.257836 5.13653 0
M  V30 4213 N 400.432 0.863672 6.07794 0
M  V30 4214 C 401.803 1.06209 6.10835 0
M  V30 4215 C 403.858 0.324174 4.96844 0
M  V30 4216 C 402.561 1.9266 6.93018 0
M  V30 4217 C 404.587 1.17583 5.79593 0
M  V30 4218 C 403.949 1.96799 6.7635 0
M  V30 4219 H 400.048 -0.233222 0.746412 0
M  V30 4220 H 402.632 0.0314512 1.94675 0
M  V30 4221 H 400.803 -2.12477 3.25128 0
M  V30 4222 H 402.535 -2.05233 3.488 0
M  V30 4223 H 399.29 -0.448516 4.71471 0
M  V30 4224 H 399.714 1.33274 6.63752 0
M  V30 4225 H 404.356 -0.273975 4.21911 0
M  V30 4226 H 402.074 2.53552 7.67292 0
M  V30 4227 H 405.66 1.23076 5.68633 0
M  V30 4228 H 404.54 2.61635 7.39268 0
M  V30 4229 N 402.043 -1.548 -0.295768 0
M  V30 4230 C 402.973 -1.89115 -1.36959 0
M  V30 4231 C 403.954 -0.75059 -1.52644 0
M  V30 4232 O 405.139 -1.00678 -1.66065 0
M  V30 4233 C 402.269 -2.14307 -2.73295 0
M  V30 4234 C 401.223 -3.30151 -2.72368 0
M  V30 4235 C 400.549 -3.40772 -4.12042 0
M  V30 4236 C 401.849 -4.67126 -2.33646 0
M  V30 4237 H 403.543 -2.79053 -1.08488 0
M  V30 4238 H 401.089 -1.34266 -0.520443 0
M  V30 4239 H 403.042 -2.36898 -3.48507 0
M  V30 4240 H 401.766 -1.21145 -3.03301 0
M  V30 4241 H 400.425 -3.0749 -1.99613 0
M  V30 4242 H 400.073 -2.45117 -4.39234 0
M  V30 4243 H 399.773 -4.18645 -4.12322 0
M  V30 4244 H 401.297 -3.6563 -4.89027 0
M  V30 4245 H 402.711 -4.89414 -2.98575 0
M  V30 4246 H 401.108 -5.47751 -2.45129 0
M  V30 4247 H 402.178 -4.67489 -1.28772 0
M  V30 4248 N 403.521 0.559213 -1.47345 0
M  V30 4249 C 404.469 1.68747 -1.60085 0
M  V30 4250 C 405.463 1.628 -0.46825 0
M  V30 4251 O 406.669 1.68009 -0.645977 0
M  V30 4252 H 403.044 0.558329 -0.503759 0
M  V30 4253 H 405.015 1.55138 -2.54902 0
M  V30 4254 C 403.764 3.07103 -1.63042 0
M  V30 4255 H 403.087 3.12361 -2.49541 0
M  V30 4256 H 404.527 3.85743 -1.76006 0
M  V30 4257 C 402.986 3.34935 -0.363357 0
M  V30 4258 O 403.516 3.98102 0.536416 0
M  V30 4259 N 401.722 2.89574 -0.244 0
M  V30 4260 H 401.269 2.38348 -0.977133 0
M  V30 4261 H 401.227 3.08566 0.602836 0
M  V30 4262 N 404.999 1.35443 0.805782 0
M  V30 4263 C 405.909 1.30546 1.94923 0
M  V30 4264 C 406.925 0.210233 1.72725 0
M  V30 4265 O 408.101 0.43975 1.9654 0
M  V30 4266 C 405.166 1.07782 3.29521 0
M  V30 4267 C 404.227 2.26625 3.64609 0
M  V30 4268 C 403.46 2.04938 4.92784 0
M  V30 4269 O 403.683 1.01624 5.61274 0
M  V30 4270 O 402.617 2.9232 5.26149 0
M  V30 4271 H 406.443 2.26779 2.02002 0
M  V30 4272 H 404.028 1.15823 0.943682 0
M  V30 4273 H 405.91 0.969392 4.10098 0
M  V30 4274 H 404.585 0.146003 3.23371 0
M  V30 4275 H 403.492 2.43033 2.84404 0
M  V30 4276 H 404.825 3.18257 3.75464 0
M  V30 4277 N 406.477 -1.02803 1.19454 0
M  V30 4278 C 407.407 -2.12999 0.956758 0
M  V30 4279 C 408.388 -1.69743 -0.110188 0
M  V30 4280 O 409.573 -1.94148 0.0450038 0
M  V30 4281 C 406.703 -3.43746 0.495553 0
M  V30 4282 C 405.657 -4.00688 1.50443 0
M  V30 4283 C 404.983 -5.27067 0.900275 0
M  V30 4284 C 406.283 -4.35397 2.8849 0
M  V30 4285 H 407.977 -2.33148 1.87836 0
M  V30 4286 H 405.523 -1.12045 0.904539 0
M  V30 4287 H 407.476 -4.2021 0.316493 0
M  V30 4288 H 406.2 -3.23321 -0.461646 0
M  V30 4289 H 404.859 -3.2632 1.67065 0
M  V30 4290 H 404.507 -5.02959 -0.064503 0
M  V30 4291 H 404.207 -5.66127 1.57397 0
M  V30 4292 H 405.731 -6.06196 0.73203 0
M  V30 4293 H 407.145 -5.02795 2.75446 0
M  V30 4294 H 405.542 -4.85541 3.52661 0
M  V30 4295 H 406.612 -3.44662 3.41081 0
M  V30 4296 N 407.956 -0.998596 -1.21925 0
M  V30 4297 C 409.205 -0.673085 -1.90138 0
M  V30 4298 C 409.518 0.79895 -1.78539 0
M  V30 4299 O 410.724 1.23628 -2.4172 0
M  V30 4300 C 409.18 -1.15339 -3.40918 0
M  V30 4301 C 408.788 -2.65106 -3.61141 0
M  V30 4302 C 410.532 -0.902476 -4.14796 0
M  V30 4303 C 408.439 -3.0671 -5.05651 0
M  V30 4304 H 407.369 -0.248057 -0.712028 0
M  V30 4305 H 410.02 -1.20891 -1.38049 0
M  V30 4306 H 408.402 -0.545658 -3.92223 0
M  V30 4307 H 409.576 -3.31274 -3.20304 0
M  V30 4308 H 407.891 -2.88142 -3.00605 0
M  V30 4309 H 410.488 -1.18895 -5.21314 0
M  V30 4310 H 410.831 0.161349 -4.15987 0
M  V30 4311 H 411.364 -1.47269 -3.69536 0
M  V30 4312 H 408.103 -4.12292 -5.09603 0
M  V30 4313 H 407.623 -2.45249 -5.47369 0
M  V30 4314 H 409.302 -2.9833 -5.74115 0
M  V30 4315 N 409.434 1.37368 -0.772513 0
M  V30 4316 C 410.68 2.00423 -0.3467 0
M  V30 4317 C 411.035 1.60224 1.06518 0
M  V30 4318 O 410.328 0.838712 1.72268 0
M  V30 4319 C 410.522 3.54817 -0.428876 0
M  V30 4320 C 410.351 4.10011 -1.84719 0
M  V30 4321 C 409.121 4.40927 -2.46803 0
M  V30 4322 C 411.319 4.30955 -2.80681 0
M  V30 4323 N 409.301 4.8184 -3.80399 0
M  V30 4324 C 410.672 4.74486 -3.99078 0
M  V30 4325 C 412.727 4.1309 -2.77958 0
M  V30 4326 C 411.43 5.02023 -5.15136 0
M  V30 4327 C 413.456 4.41764 -3.9319 0
M  V30 4328 C 412.818 4.85535 -5.10328 0
M  V30 4329 H 408.917 0.762413 -0.173927 0
M  V30 4330 H 411.501 1.66666 -1.00651 0
M  V30 4331 H 409.672 3.87881 0.200757 0
M  V30 4332 H 411.404 4.04696 0.0190668 0
M  V30 4333 H 408.159 4.30033 -1.98415 0
M  V30 4334 H 408.583 5.06604 -4.49089 0
M  V30 4335 H 413.225 3.7842 -1.88568 0
M  V30 4336 H 410.943 5.35582 -6.05126 0
M  V30 4337 H 414.529 4.29528 -3.92425 0
M  V30 4338 H 413.409 5.07296 -5.98013 0
M  V30 4339 N 410.912 0.523116 1.48665 0
M  V30 4340 C 412.328 0.180511 1.58576 0
M  V30 4341 C 412.528 -1.31597 1.52592 0
M  V30 4342 O 411.584 -2.0937 1.4114 0
M  V30 4343 C 412.897 0.776949 2.90489 0
M  V30 4344 C 414.445 0.745058 3.04003 0
M  V30 4345 C 414.92 1.31995 4.38567 0
M  V30 4346 N 416.411 1.28162 4.45117 0
M  V30 4347 C 417.146 1.6964 5.47731 0
M  V30 4348 N 416.642 2.18816 6.57337 0
M  V30 4349 N 418.435 1.6092 5.38573 0
M  V30 4350 H 410.586 1.4958 1.50797 0
M  V30 4351 H 412.849 0.621772 0.715614 0
M  V30 4352 H 412.555 1.82732 3.00503 0
M  V30 4353 H 412.429 0.25007 3.7637 0
M  V30 4354 H 414.816 -0.296532 2.93606 0
M  V30 4355 H 414.897 1.30933 2.1975 0
M  V30 4356 H 414.541 2.36043 4.49718 0
M  V30 4357 H 414.471 0.731418 5.21496 0
M  V30 4358 H 416.962 0.92155 3.66491 0
M  V30 4359 H 417.275 2.48478 7.31764 0
M  V30 4360 H 415.62 2.22805 6.58318 0
M  V30 4361 H 418.811 1.22304 4.5184 0
M  V30 4362 H 418.984 1.93567 6.18414 0
M  V30 4363 N 412.39 -1.55475 0.257931 0
M  V30 4364 C 413.3 -2.2549 -0.647425 0
M  V30 4365 C 414.316 -1.2748 -1.18427 0
M  V30 4366 O 415.492 -1.6038 -1.2182 0
M  V30 4367 C 412.557 -2.94916 -1.82278 0
M  V30 4368 C 411.618 -4.08363 -1.32432 0
M  V30 4369 C 410.851 -4.74469 -2.44366 0
M  V30 4370 O 411.074 -4.39701 -3.63344 0
M  V30 4371 O 410.008 -5.62763 -2.13497 0
M  V30 4372 H 413.834 -3.03593 -0.0807707 0
M  V30 4373 H 411.419 -1.49377 0.0259962 0
M  V30 4374 H 413.301 -3.38606 -2.50846 0
M  V30 4375 H 411.976 -2.19744 -2.37685 0
M  V30 4376 H 410.883 -3.69166 -0.605605 0
M  V30 4377 H 412.216 -4.85385 -0.816211 0
M  V30 4378 N 413.868 0.0150385 -1.57593 0
M  V30 4379 C 415.115 0.703001 -1.89906 0
M  V30 4380 C 415.443 1.74604 -0.856944 0
M  V30 4381 O 414.698 1.95197 0.140287 0
M  V30 4382 C 414.997 1.39686 -3.28972 0
M  V30 4383 C 414.663 0.488457 -4.48246 0
M  V30 4384 C 413.325 0.2383 -4.8061 0
M  V30 4385 C 415.677 -0.137881 -5.21018 0
M  V30 4386 C 413.005 -0.646738 -5.83125 0
M  V30 4387 C 415.357 -1.0107 -6.24474 0
M  V30 4388 C 414.021 -1.27019 -6.55303 0
M  V30 4389 H 413.291 0.257246 -0.694914 0
M  V30 4390 H 415.938 -0.037259 -1.91464 0
M  V30 4391 H 414.243 2.21079 -3.23468 0
M  V30 4392 H 415.94 1.93495 -3.51227 0
M  V30 4393 H 412.53 0.693593 -4.22951 0
M  V30 4394 H 416.714 0.0423953 -4.96282 0
M  V30 4395 H 411.97 -0.855937 -6.05379 0
M  V30 4396 H 416.144 -1.50247 -6.79999 0
M  V30 4397 H 413.771 -1.95769 -7.3456 0
M  V30 4398 N 415.346 1.54954 0.287554 0
M  V30 4399 C 416.576 1.78622 1.03816 0
M  V30 4400 C 416.984 0.552451 1.80955 0
M  V30 4401 O 416.327 -0.487665 1.77109 0
M  V30 4402 C 416.389 2.94975 2.055 0
M  V30 4403 C 416.053 4.32565 1.47433 0
M  V30 4404 C 417.05 5.12096 0.897436 0
M  V30 4405 C 414.735 4.79195 1.50591 0
M  V30 4406 C 416.729 6.36383 0.359851 0
M  V30 4407 C 414.416 6.03441 0.964459 0
M  V30 4408 C 415.414 6.81872 0.392413 0
M  V30 4409 O 415.102 8.03777 -0.140788 0
M  V30 4410 H 414.834 0.599144 0.313053 0
M  V30 4411 H 417.388 2.02761 0.328225 0
M  V30 4412 H 415.618 2.66493 2.80211 0
M  V30 4413 H 417.307 3.06097 2.6657 0
M  V30 4414 H 418.073 4.77209 0.865841 0
M  V30 4415 H 413.952 4.18167 1.94055 0
M  V30 4416 H 417.496 6.97545 -0.0872951 0
M  V30 4417 H 413.393 6.37813 0.993246 0
M  V30 4418 H 414.161 8.18495 -0.0287617 0
M  V30 4419 N 416.824 -0.551391 1.4764 0
M  V30 4420 C 418.24 -0.877887 1.33287 0
M  V30 4421 C 418.44 -1.98817 0.327721 0
M  V30 4422 O 417.496 -2.51171 -0.258695 0
M  V30 4423 C 418.809 -1.26563 2.72768 0
M  V30 4424 C 420.357 -1.37673 2.81097 0
M  V30 4425 C 420.832 -1.79799 4.21232 0
M  V30 4426 N 422.323 -1.8694 4.23802 0
M  V30 4427 C 423.058 -2.20876 5.29151 0
M  V30 4428 N 422.554 -2.53386 6.448 0
M  V30 4429 N 424.347 -2.217 5.16532 0
M  V30 4430 H 416.498 0.18153 2.11623 0
M  V30 4431 H 418.761 0.0185514 0.947818 0
M  V30 4432 H 418.467 -0.523591 3.47781 0
M  V30 4433 H 418.341 -2.22052 3.04915 0
M  V30 4434 H 420.728 -2.10956 2.06353 0
M  V30 4435 H 420.809 -0.40357 2.52596 0
M  V30 4436 H 420.453 -1.07083 4.96483 0
M  V30 4437 H 420.383 -2.78128 4.4716 0
M  V30 4438 H 422.874 -1.64179 3.40373 0
M  V30 4439 H 423.187 -2.78325 7.20941 0
M  V30 4440 H 421.532 -2.50953 6.48111 0
M  V30 4441 H 424.723 -1.95745 4.25207 0
M  V30 4442 H 424.896 -2.47818 5.98741 0
M  V30 4443 N 418.302 -1.35869 -0.798587 0
M  V30 4444 C 419.252 -1.25982 -1.90033 0
M  V30 4445 C 420.236 -0.153303 -1.60168 0
M  V30 4446 O 421.428 -0.38527 -1.72756 0
M  V30 4447 C 418.557 -1.04211 -3.27101 0
M  V30 4448 C 417.643 -2.19289 -3.63006 0
M  V30 4449 N 418.034 -3.44559 -3.70287 0
M  V30 4450 C 416.332 -2.10852 -3.93011 0
M  V30 4451 C 417.033 -4.20283 -4.02166 0
M  V30 4452 N 416.009 -3.49124 -4.16669 0
M  V30 4453 H 419.811 -2.20883 -1.93876 0
M  V30 4454 H 417.325 -1.28457 -0.993614 0
M  V30 4455 H 419.322 -0.952155 -4.05881 0
M  V30 4456 H 417.982 -0.102013 -3.2454 0
M  V30 4457 H 418.993 -3.7881 -3.53162 0
M  V30 4458 H 415.67 -1.24744 -3.98428 0
M  V30 4459 H 417.06 -5.28575 -4.14799 0
M  V30 4460 N 419.78 1.02168 -1.19998 0
M  V30 4461 C 420.71 2.12488 -0.96804 0
M  V30 4462 C 421.691 1.69799 0.101185 0
M  V30 4463 O 422.876 1.94121 -0.0552993 0
M  V30 4464 C 420.006 3.43479 -0.513776 0
M  V30 4465 C 418.96 3.99884 -1.52566 0
M  V30 4466 C 418.286 5.26582 -0.928214 0
M  V30 4467 C 419.586 4.33861 -2.90795 0
M  V30 4468 H 421.28 2.32149 -1.89069 0
M  V30 4469 H 418.826 1.11564 -0.910468 0
M  V30 4470 H 420.779 4.20036 -0.338774 0
M  V30 4471 H 419.503 3.23561 0.444493 0
M  V30 4472 H 418.162 3.25429 -1.68794 0
M  V30 4473 H 417.81 5.02986 0.0378289 0
M  V30 4474 H 417.51 5.65284 -1.60397 0
M  V30 4475 H 419.034 6.05799 -0.764167 0
M  V30 4476 H 420.448 5.01327 -2.78109 0
M  V30 4477 H 418.845 4.83664 -3.55231 0
M  V30 4478 H 419.915 3.42848 -3.42904 0
M  V30 4479 N 421.258 1.00505 1.21394 0
M  V30 4480 C 422.507 0.683159 1.89778 0
M  V30 4481 C 422.82 -0.789471 1.7896 0
M  V30 4482 O 424.026 -1.22344 2.42372 0
M  V30 4483 C 422.482 1.17146 3.40301 0
M  V30 4484 C 422.09 2.67017 3.5973 0
M  V30 4485 C 423.834 0.924461 4.14311 0
M  V30 4486 C 421.741 3.09387 5.04017 0
M  V30 4487 H 420.671 0.25183 0.710702 0
M  V30 4488 H 423.322 1.21622 1.37406 0
M  V30 4489 H 421.704 0.566451 3.91928 0
M  V30 4490 H 422.878 3.32968 3.18542 0
M  V30 4491 H 421.193 2.89732 2.99073 0
M  V30 4492 H 423.79 1.21658 5.20676 0
M  V30 4493 H 424.133 -0.139286 4.16067 0
M  V30 4494 H 424.666 1.49226 3.6875 0
M  V30 4495 H 421.405 4.14989 5.07409 0
M  V30 4496 H 420.925 2.48149 5.46061 0
M  V30 4497 H 422.604 3.01371 5.72525 0
M  V30 4498 N 422.737 -1.36956 0.779787 0
M  V30 4499 C 423.965 -2.03755 0.359398 0
M  V30 4500 C 424.38 -1.58807 -1.02106 0
M  V30 4501 O 423.737 -0.773024 -1.6532 0
M  V30 4502 C 423.788 -3.59251 0.402568 0
M  V30 4503 O 423.509 -4.02557 1.72858 0
M  V30 4504 C 425.01 -4.43291 -0.0284068 0
M  V30 4505 H 422.23 -0.654148 0.149437 0
M  V30 4506 H 424.774 -1.75128 1.05595 0
M  V30 4507 H 422.929 -3.86621 -0.245478 0
M  V30 4508 H 423.343 -4.97111 1.67275 0
M  V30 4509 H 424.817 -5.51975 0.0529466 0
M  V30 4510 H 425.294 -4.25719 -1.07982 0
M  V30 4511 H 425.9 -4.21163 0.591758 0
M  V30 4512 N 424.215 -0.530993 -1.48385 0
M  V30 4513 C 425.445 -0.00133928 -2.066 0
M  V30 4514 C 425.853 1.28599 -1.38777 0
M  V30 4515 O 425.196 1.77599 -0.469495 0
M  V30 4516 C 425.258 0.292137 -3.58311 0
M  V30 4517 C 424.922 -0.901864 -4.48013 0
M  V30 4518 C 425.919 -1.80053 -4.87726 0
M  V30 4519 C 423.604 -1.10915 -4.89901 0
M  V30 4520 C 425.598 -2.89038 -5.68098 0
M  V30 4521 C 423.285 -2.20213 -5.70043 0
M  V30 4522 C 424.283 -3.09107 -6.0905 0
M  V30 4523 O 423.971 -4.16514 -6.87583 0
M  V30 4524 H 423.703 -0.0308475 -0.675296 0
M  V30 4525 H 426.257 -0.736335 -1.91748 0
M  V30 4526 H 424.487 1.08112 -3.7128 0
M  V30 4527 H 426.176 0.763994 -3.98645 0
M  V30 4528 H 426.942 -1.65234 -4.55986 0
M  V30 4529 H 422.821 -0.426498 -4.59023 0
M  V30 4530 H 426.365 -3.58451 -5.98464 0
M  V30 4531 H 422.262 -2.35016 -6.01197 0
M  V30 4532 H 423.03 -4.14237 -7.05939 0
M  V30 4533 N 425.693 1.55336 -0.266172 0
M  V30 4534 C 426.643 2.18848 0.639497 0
M  V30 4535 C 427.627 1.1503 1.12503 0
M  V30 4536 O 428.819 1.40875 1.0716 0
M  V30 4537 C 425.948 2.90626 1.82733 0
M  V30 4538 C 425.034 4.01723 1.35939 0
M  V30 4539 N 425.425 5.02145 0.606988 0
M  V30 4540 C 423.723 4.1463 1.6431 0
M  V30 4541 C 424.424 5.80572 0.362138 0
M  V30 4542 N 423.4 5.35551 0.931971 0
M  V30 4543 H 427.202 2.93845 0.0567057 0
M  V30 4544 H 424.716 1.62252 -0.0693312 0
M  V30 4545 H 426.713 3.34569 2.48735 0
M  V30 4546 H 425.373 2.17137 2.41416 0
M  V30 4547 H 426.384 5.17271 0.255198 0
M  V30 4548 H 423.061 3.52326 2.23993 0
M  V30 4549 H 424.451 6.71472 -0.239848 0
M  V30 4550 N 427.171 -0.0066808 1.57599 0
M  V30 4551 C 428.582 -0.550379 1.78403 0
M  V30 4552 C 428.933 -1.74339 0.900014 0
M  V30 4553 O 428.058 -2.16166 0.100713 0
M  V30 4554 C 428.653 -1.00523 3.23544 0
M  V30 4555 C 427.212 -1.49428 3.45468 0
M  V30 4556 C 426.359 -0.442444 2.73748 0
M  V30 4557 H 429.31 0.219508 1.57175 0
M  V30 4558 H 429.331 -1.87157 3.31289 0
M  V30 4559 H 428.843 -0.136735 3.87859 0
M  V30 4560 H 426.944 -2.3839 2.86358 0
M  V30 4561 H 427.057 -1.52635 4.54136 0
M  V30 4562 H 425.421 -0.902578 2.38171 0
M  V30 4563 H 426.204 0.416973 3.40758 0
M  V30 4564 N 428.649 -1.55105 -0.279332 0
M  V30 4565 C 429.874 -1.7976 -1.03446 0
M  V30 4566 C 430.299 -0.565952 -1.79384 0
M  V30 4567 O 429.657 0.484259 -1.74713 0
M  V30 4568 C 429.705 -3.0179 -1.97371 0
M  V30 4569 O 428.809 -2.76432 -3.06038 0
M  V30 4570 H 428.15 -0.594334 -0.29608 0
M  V30 4571 H 430.68 -2.02235 -0.310165 0
M  V30 4572 H 430.69 -3.30351 -2.39441 0
M  V30 4573 H 429.365 -3.91085 -1.4151 0
M  V30 4574 H 427.942 -2.58949 -2.68328 0
M  V30 4575 N 430.127 0.543554 -1.4793 0
M  V30 4576 C 431.057 1.65888 -1.64327 0
M  V30 4577 C 432.038 1.62818 -0.492383 0
M  V30 4578 O 433.223 1.80226 -0.723338 0
M  V30 4579 C 430.353 3.04506 -1.67013 0
M  V30 4580 C 429.307 3.2243 -2.81466 0
M  V30 4581 C 428.633 4.61972 -2.69233 0
M  V30 4582 C 429.933 3.06496 -4.22915 0
M  V30 4583 H 431.627 1.52421 -2.57698 0
M  V30 4584 H 429.173 0.731849 -1.24016 0
M  V30 4585 H 431.126 3.82391 -1.77074 0
M  V30 4586 H 429.85 3.18964 -0.70212 0
M  V30 4587 H 428.509 2.46957 -2.70938 0
M  V30 4588 H 428.157 4.73247 -1.7043 0
M  V30 4589 H 427.857 4.74911 -3.46025 0
M  V30 4590 H 429.381 5.41974 -2.81242 0
M  V30 4591 H 430.795 3.74186 -4.34348 0
M  V30 4592 H 429.192 3.30938 -5.006 0
M  V30 4593 H 430.262 2.03077 -4.40327 0
M  V30 4594 N 431.605 1.3629 0.791371 0
M  V30 4595 C 432.845 1.31792 1.56238 0
M  V30 4596 C 433.209 -0.102237 1.91728 0
M  V30 4597 O 434.41 -0.271759 2.67423 0
M  V30 4598 C 432.681 2.21303 2.80642 0
M  V30 4599 S 434.24 2.34468 3.70904 0
M  V30 4600 H 431.058 0.468141 0.535131 0
M  V30 4601 H 433.66 1.71841 0.932246 0
M  V30 4602 H 432.364 3.23439 2.52617 0
M  V30 4603 H 431.895 1.82266 3.4863 0
M  V30 4604 H 433.91 1.54074 4.71673 0
M  V30 4605 N 433.083 -1.0153 1.20538 0
M  V30 4606 C 434.03 -2.10098 0.955383 0
M  V30 4607 C 435 -1.65702 -0.114878 0
M  V30 4608 O 436.185 -1.90776 0.0301118 0
M  V30 4609 C 433.325 -3.41236 0.514969 0
M  V30 4610 C 432.438 -3.99102 1.65353 0
M  V30 4611 C 431.573 -5.18306 1.16329 0
M  V30 4612 C 430.612 -5.68258 2.27485 0
M  V30 4613 N 429.749 -6.78722 1.7967 0
M  V30 4614 H 434.589 -2.30818 1.88486 0
M  V30 4615 H 432.126 -1.13189 0.939499 0
M  V30 4616 H 434.084 -4.16504 0.240935 0
M  V30 4617 H 432.714 -3.20585 -0.377512 0
M  V30 4618 H 431.766 -3.20918 2.04245 0
M  V30 4619 H 433.078 -4.32177 2.49047 0
M  V30 4620 H 432.232 -6.00782 0.845302 0
M  V30 4621 H 430.971 -4.86799 0.296254 0
M  V30 4622 H 429.976 -4.84385 2.60099 0
M  V30 4623 H 431.201 -6.01798 3.14667 0
M  V30 4624 H 429.147 -6.49042 0.95295 0
M  V30 4625 H 429.064 -7.10996 2.56944 0
M  V30 4626 H 430.332 -7.64759 1.50875 0
M  V30 4627 N 434.561 -1.01147 -1.20859 0
M  V30 4628 C 435.511 -0.548247 -2.2131 0
M  V30 4629 C 436.495 0.393646 -1.5601 0
M  V30 4630 O 437.687 0.217445 -1.75659 0
M  V30 4631 C 434.816 0.117252 -3.431 0
M  V30 4632 C 433.902 -0.846043 -4.15575 0
M  V30 4633 N 434.293 -2.00149 -4.64515 0
M  V30 4634 C 432.591 -0.665783 -4.41003 0
M  V30 4635 C 433.292 -2.60764 -5.19978 0
M  V30 4636 N 432.268 -1.88868 -5.09735 0
M  V30 4637 H 436.07 -1.42921 -2.56809 0
M  V30 4638 H 433.584 -0.876142 -1.36739 0
M  V30 4639 H 435.581 0.46662 -4.1428 0
M  V30 4640 H 434.241 0.994115 -3.09107 0
M  V30 4641 H 435.252 -2.38162 -4.5989 0
M  V30 4642 H 431.929 0.163456 -4.1718 0
M  V30 4643 H 433.319 -3.58519 -5.68255 0
M  V30 4644 N 436.039 1.36541 -0.78704 0
M  V30 4645 C 437.455 1.52571 -0.46844 0
M  V30 4646 C 437.655 1.7415 1.01361 0
M  V30 4647 O 436.711 1.77163 1.79915 0
M  V30 4648 C 438.024 2.71299 -1.29682 0
M  V30 4649 C 439.572 2.85169 -1.29027 0
M  V30 4650 C 440.047 4.06898 -2.10233 0
M  V30 4651 N 441.538 4.1404 -2.07666 0
M  V30 4652 C 442.273 5.07301 -2.67271 0
M  V30 4653 N 441.769 6.06021 -3.35724 0
M  V30 4654 N 443.562 4.99898 -2.57018 0
M  V30 4655 H 435.713 1.20788 -1.74711 0
M  V30 4656 H 437.976 0.589364 -0.742532 0
M  V30 4657 H 437.682 2.61868 -2.34773 0
M  V30 4658 H 437.556 3.6539 -0.936479 0
M  V30 4659 H 439.943 2.94062 -0.247284 0
M  V30 4660 H 440.024 1.91992 -1.69035 0
M  V30 4661 H 439.668 3.98766 -3.1456 0
M  V30 4662 H 439.598 4.99218 -1.67597 0
M  V30 4663 H 442.089 3.43357 -1.57843 0
M  V30 4664 H 442.402 6.73741 -3.78541 0
M  V30 4665 H 440.747 6.06253 -3.39826 0
M  V30 4666 H 443.938 4.21724 -2.03142 0
M  V30 4667 H 444.111 5.72392 -3.03761 0
M  V30 4668 N 437.518 0.538854 1.48102 0
M  V30 4669 C 438.929 0.100679 1.86428 0
M  V30 4670 C 439.28 -1.32447 1.44749 0
M  V30 4671 O 438.405 -1.99339 0.842199 0
M  V30 4672 C 439 0.175933 3.38343 0
M  V30 4673 C 437.559 -0.207098 3.7583 0
M  V30 4674 C 436.706 0.531741 2.72154 0
M  V30 4675 H 439.657 0.749614 1.3988 0
M  V30 4676 H 439.678 -0.610144 3.75576 0
M  V30 4677 H 439.19 1.21328 3.68648 0
M  V30 4678 H 437.291 -1.24626 3.5114 0
M  V30 4679 H 437.404 0.138687 4.78899 0
M  V30 4680 H 435.768 -0.0230462 2.5469 0
M  V30 4681 H 436.551 1.56989 3.05302 0
M  V30 4682 N 438.996 -1.55193 0.274407 0
M  V30 4683 C 440.243 -1.99581 -0.342579 0
M  V30 4684 C 440.571 -1.1628 -1.55914 0
M  V30 4685 O 439.826 -0.22029 -1.94456 0
M  V30 4686 C 440.125 -3.49019 -0.769458 0
M  V30 4687 C 439.791 -4.49598 0.342389 0
M  V30 4688 C 438.453 -4.76821 0.647686 0
M  V30 4689 C 440.805 -5.0964 1.09163 0
M  V30 4690 C 438.133 -5.61354 1.70581 0
M  V30 4691 C 440.485 -5.95323 2.13948 0
M  V30 4692 C 439.149 -6.20867 2.45113 0
M  V30 4693 H 438.419 -0.730319 -0.125358 0
M  V30 4694 H 441.066 -1.87529 0.387971 0
M  V30 4695 H 439.371 -3.58544 -1.57967 0
M  V30 4696 H 441.068 -3.8077 -1.25757 0
M  V30 4697 H 437.658 -4.28496 0.094318 0
M  V30 4698 H 441.842 -4.88632 0.869024 0
M  V30 4699 H 437.098 -5.79392 1.9523 0
M  V30 4700 H 441.272 -6.40881 2.72478 0
M  V30 4701 H 438.899 -6.86162 3.27239 0
M  V30 4702 N 440.474 -0.00167713 -1.576 0
M  V30 4703 C 441.723 0.682021 -1.89819 0
M  V30 4704 C 442.036 1.74844 -0.876871 0
M  V30 4705 O 443.242 2.48688 -1.08934 0
M  V30 4706 C 441.698 1.26425 -3.36964 0
M  V30 4707 C 441.306 0.232568 -4.47396 0
M  V30 4708 C 443.05 1.92604 -3.78291 0
M  V30 4709 C 440.957 0.824882 -5.85619 0
M  V30 4710 H 439.887 0.258499 -0.708304 0
M  V30 4711 H 442.538 -0.0624957 -1.83394 0
M  V30 4712 H 440.92 2.05949 -3.38232 0
M  V30 4713 H 442.094 -0.5382 -4.57646 0
M  V30 4714 H 440.409 -0.32888 -4.15099 0
M  V30 4715 H 443.006 2.37827 -4.78897 0
M  V30 4716 H 443.349 2.75732 -3.11894 0
M  V30 4717 H 443.882 1.19812 -3.79328 0
M  V30 4718 H 440.621 0.0323542 -6.55492 0
M  V30 4719 H 440.141 1.56477 -5.79029 0
M  V30 4720 H 441.82 1.32301 -6.33329 0
M  V30 4721 N 441.952 1.55251 0.271103 0
M  V30 4722 C 442.915 1.87484 1.31842 0
M  V30 4723 C 443.915 0.749545 1.42262 0
M  V30 4724 O 445.105 1.01771 1.4138 0
M  V30 4725 C 442.237 2.0818 2.69951 0
M  V30 4726 H 443.43 2.81108 1.0449 0
M  V30 4727 H 440.983 1.47771 0.509258 0
M  V30 4728 H 441.718 1.16944 3.02481 0
M  V30 4729 H 441.503 2.90114 2.63774 0
M  V30 4730 H 442.993 2.34385 3.4562 0
M  V30 4731 N 443.43 -0.535701 1.48216 0
M  V30 4732 C 444.676 -1.2913 1.57153 0
M  V30 4733 C 445.031 -1.90899 0.239823 0
M  V30 4734 O 444.324 -1.76022 -0.756748 0
M  V30 4735 C 444.518 -2.4068 2.64212 0
M  V30 4736 C 444.347 -1.89844 4.07663 0
M  V30 4737 C 443.117 -1.72708 4.74869 0
M  V30 4738 C 445.315 -1.43031 4.94011 0
M  V30 4739 N 443.297 -1.16437 6.02757 0
M  V30 4740 C 444.668 -0.986691 6.12098 0
M  V30 4741 C 446.723 -1.3128 4.80281 0
M  V30 4742 C 445.426 -0.437231 7.1797 0
M  V30 4743 C 447.452 -0.777346 5.86269 0
M  V30 4744 C 446.814 -0.343774 7.03561 0
M  V30 4745 H 442.913 -0.463753 0.629648 0
M  V30 4746 H 445.497 -0.604736 1.8507 0
M  V30 4747 H 443.668 -3.06839 2.38126 0
M  V30 4748 H 445.4 -3.07706 2.62867 0
M  V30 4749 H 442.155 -1.96061 4.31111 0
M  V30 4750 H 442.579 -0.903281 6.70947 0
M  V30 4751 H 447.221 -1.63408 3.89946 0
M  V30 4752 H 444.939 -0.103621 8.08034 0
M  V30 4753 H 448.525 -0.689688 5.77698 0
M  V30 4754 H 447.405 0.0641219 7.84174 0
M  V30 4755 N 444.908 -1.36708 -0.784132 0
M  V30 4756 C 446.136 -1.34398 -1.57305 0
M  V30 4757 C 446.551 0.0735577 -1.88657 0
M  V30 4758 O 445.908 1.03193 -1.50524 0
M  V30 4759 C 445.959 -2.17053 -2.89085 0
M  V30 4760 O 445.68 -3.53281 -2.59083 0
M  V30 4761 C 447.181 -2.22583 -3.83369 0
M  V30 4762 H 444.401 -0.460819 -0.487736 0
M  V30 4763 H 446.945 -1.79879 -0.972819 0
M  V30 4764 H 445.1 -1.75113 -3.45564 0
M  V30 4765 H 445.514 -3.9647 -3.43383 0
M  V30 4766 H 446.988 -2.84763 -4.72878 0
M  V30 4767 H 447.465 -1.23075 -4.21603 0
M  V30 4768 H 448.071 -2.64781 -3.32823 0
M  V30 4769 N 446.386 1.0089 -1.21074 0
M  V30 4770 C 447.663 1.71834 -0.934469 0
M  V30 4771 C 448.043 2.0368 0.554753 0
M  V30 4772 O 447.391 1.70742 1.51854 0
M  V30 4773 C 447.601 2.98061 -1.8155 0
M  V30 4774 C 448.949 3.7117 -2.06199 0
M  V30 4775 O 449.973 3.08034 -1.78867 0
M  V30 4776 O 448.832 4.84721 -2.52404 0
M  V30 4777 H 445.926 0.749253 -0.35007 0
M  V30 4778 H 448.472 1.06668 -1.31985 0
M  V30 4779 H 447.244 2.70908 -2.82355 0
M  V30 4780 H 446.867 3.70968 -1.43068 0
M  V30 4781 N 447.864 1.01787 1.20321 0
M  V30 4782 C 449.28 0.732951 1.41774 0
M  V30 4783 C 449.48 -0.686883 1.89431 0
M  V30 4784 O 448.536 -1.45446 2.06402 0
M  V30 4785 C 449.849 1.75973 2.43832 0
M  V30 4786 C 451.397 1.77802 2.57596 0
M  V30 4787 C 451.872 2.7941 3.62897 0
M  V30 4788 N 453.363 2.78157 3.70382 0
M  V30 4789 C 454.098 3.53434 4.51521 0
M  V30 4790 N 453.594 4.38392 5.36455 0
M  V30 4791 N 455.387 3.42026 4.46066 0
M  V30 4792 H 447.538 1.93447 0.877035 0
M  V30 4793 H 449.801 0.835712 0.447536 0
M  V30 4794 H 449.507 2.77699 2.15815 0
M  V30 4795 H 449.381 1.57292 3.4284 0
M  V30 4796 H 451.768 0.767602 2.84942 0
M  V30 4797 H 451.849 2.00557 1.58779 0
M  V30 4798 H 451.493 3.80616 3.36295 0
M  V30 4799 H 451.423 2.53916 4.61339 0
M  V30 4800 H 453.914 2.16531 3.09714 0
M  V30 4801 H 454.227 4.92596 5.95457 0
M  V30 4802 H 452.572 4.4247 5.35953 0
M  V30 4803 H 455.763 2.75075 3.78749 0
M  V30 4804 H 455.936 4.00946 5.09064 0
M  V30 4805 N 449.342 -1.36122 0.79427 0
M  V30 4806 C 450.588 -1.99406 0.369452 0
M  V30 4807 C 450.921 -1.62886 -1.05743 0
M  V30 4808 O 450.196 -0.886053 -1.73145 0
M  V30 4809 C 450.479 -3.56046 0.538833 0
M  V30 4810 C 450.332 -4.02404 2.00976 0
M  V30 4811 C 451.651 -4.40079 -0.0431359 0
M  V30 4812 H 448.77 -0.724397 0.135712 0
M  V30 4813 H 451.412 -1.61461 1.00151 0
M  V30 4814 H 449.562 -3.885 0.000771004 0
M  V30 4815 H 451.234 -3.80415 2.60926 0
M  V30 4816 H 449.477 -3.53765 2.51063 0
M  V30 4817 H 450.148 -5.11344 2.07922 0
M  V30 4818 H 452.624 -4.14013 0.416228 0
M  V30 4819 H 451.5 -5.48799 0.105374 0
M  V30 4820 H 451.761 -4.27264 -1.13571 0
M  V30 4821 N 450.82 -0.546701 -1.47814 0
M  V30 4822 C 451.752 0.244196 -2.27895 0
M  V30 4823 C 452.765 0.88911 -1.36377 0
M  V30 4824 O 453.954 0.764733 -1.61289 0
M  V30 4825 C 451.054 1.36252 -3.10304 0
M  V30 4826 C 450.227 0.816382 -4.29714 0
M  V30 4827 C 449.286 1.81789 -4.93801 0
M  V30 4828 O 448.312 1.36818 -5.52512 0
M  V30 4829 N 449.514 3.15085 -4.87547 0
M  V30 4830 H 452.279 -0.442694 -2.96412 0
M  V30 4831 H 449.84 -0.382095 -1.57327 0
M  V30 4832 H 451.832 2.03102 -3.50045 0
M  V30 4833 H 450.402 1.95281 -2.44099 0
M  V30 4834 H 449.622 -0.0285981 -3.9419 0
M  V30 4835 H 450.91 0.430668 -5.06974 0
M  V30 4836 H 450.308 3.54275 -4.41028 0
M  V30 4837 H 448.865 3.77522 -5.31339 0
M  V30 4838 N 452.299 1.55045 -0.282633 0
M  V30 4839 C 453.545 2.0078 0.325436 0
M  V30 4840 C 453.9 1.1676 1.52921 0
M  V30 4841 O 453.193 0.231475 1.90197 0
M  V30 4842 C 453.387 3.49422 0.750938 0
M  V30 4843 C 453.216 4.47827 -0.410056 0
M  V30 4844 C 451.986 4.97288 -0.896239 0
M  V30 4845 C 454.184 4.98903 -1.24902 0
M  V30 4846 N 452.166 5.79508 -2.02591 0
M  V30 4847 C 453.537 5.78644 -2.22646 0
M  V30 4848 C 455.592 4.81126 -1.2815 0
M  V30 4849 C 454.295 6.42502 -3.23393 0
M  V30 4850 C 456.321 5.45789 -2.27745 0
M  V30 4851 C 455.683 6.25348 -3.24222 0
M  V30 4852 H 451.782 0.77747 0.08405 0
M  V30 4853 H 454.366 1.90369 -0.408368 0
M  V30 4854 H 452.537 3.60159 1.45395 0
M  V30 4855 H 454.269 3.81978 1.33698 0
M  V30 4856 H 451.024 4.71219 -0.474277 0
M  V30 4857 H 451.448 6.25308 -2.59459 0
M  V30 4858 H 456.09 4.19215 -0.549397 0
M  V30 4859 H 453.808 7.03558 -3.97533 0
M  V30 4860 H 457.394 5.33972 -2.31009 0
M  V30 4861 H 456.274 6.74498 -4.00027 0
M  V30 4862 N 453.777 0.010035 1.57597 0
M  V30 4863 C 454.709 -1.00649 2.05918 0
M  V30 4864 C 455.722 -1.30077 0.978964 0
M  V30 4865 O 456.911 -1.26878 1.25556 0
M  V30 4866 C 454.011 -2.33876 2.45265 0
M  V30 4867 C 453.184 -2.23242 3.7614 0
M  V30 4868 C 452.243 -3.39242 4.02245 0
M  V30 4869 O 451.269 -3.1698 4.72771 0
M  V30 4870 N 452.471 -4.6242 3.50924 0
M  V30 4871 H 455.236 -0.594333 2.93748 0
M  V30 4872 H 452.797 -0.17714 1.60928 0
M  V30 4873 H 454.789 -3.1027 2.59836 0
M  V30 4874 H 453.359 -2.66799 1.62902 0
M  V30 4875 H 452.579 -1.31696 3.71551 0
M  V30 4876 H 453.867 -2.13321 4.61922 0
M  V30 4877 H 453.265 -4.83404 2.93832 0
M  V30 4878 H 451.822 -5.36046 3.70807 0
M  V30 4879 N 455.255 -1.55392 -0.262866 0
M  V30 4880 C 456.48 -1.80847 -1.01533 0
M  V30 4881 C 456.905 -0.584946 -1.78774 0
M  V30 4882 O 456.263 0.465701 -1.75217 0
M  V30 4883 C 456.311 -3.03866 -1.94159 0
M  V30 4884 O 455.415 -2.79662 -3.03089 0
M  V30 4885 H 454.756 -0.597441 -0.289759 0
M  V30 4886 H 457.286 -2.02553 -0.288698 0
M  V30 4887 H 457.296 -3.32872 -2.35924 0
M  V30 4888 H 455.971 -3.92564 -1.37354 0
M  V30 4889 H 454.548 -2.61781 -2.65566 0
M  V30 4890 N 456.733 0.527833 -1.48498 0
M  V30 4891 C 457.681 1.65313 -1.63628 0
M  V30 4892 C 458.675 1.6177 -0.502676 0
M  V30 4893 O 459.881 1.66601 -0.681469 0
M  V30 4894 H 456.256 0.547518 -0.515488 0
M  V30 4895 H 458.227 1.49696 -2.58135 0
M  V30 4896 C 456.976 3.03576 -1.6952 0
M  V30 4897 H 456.299 3.06997 -2.56111 0
M  V30 4898 H 457.739 3.81923 -1.84149 0
M  V30 4899 C 456.198 3.34089 -0.43432 0
M  V30 4900 O 456.728 3.99151 0.451852 0
M  V30 4901 N 454.934 2.88991 -0.305368 0
M  V30 4902 H 454.481 2.36222 -1.02747 0
M  V30 4903 H 454.439 3.09776 0.537249 0
M  V30 4904 N 458.211 1.37122 0.776871 0
M  V30 4905 C 459.622 1.28667 1.35284 0
M  V30 4906 C 459.973 -0.0680035 1.96082 0
M  V30 4907 O 459.098 -0.969743 1.93455 0
M  V30 4908 C 459.693 2.32997 2.45963 0
M  V30 4909 C 458.252 2.28191 2.99342 0
M  V30 4910 C 457.399 2.17101 1.72517 0
M  V30 4911 H 460.35 1.47819 0.577527 0
M  V30 4912 H 460.371 1.97366 3.2531 0
M  V30 4913 H 459.883 3.3158 2.01684 0
M  V30 4914 H 457.984 1.33115 3.4801 0
M  V30 4915 H 458.097 3.21397 3.55304 0
M  V30 4916 H 456.461 1.63562 1.95242 0
M  V30 4917 H 457.244 3.17591 1.30348 0
M  V30 4918 N 459.689 -1.00246 1.21608 0
M  V30 4919 C 460.652 -2.07233 0.979133 0
M  V30 4920 C 461.652 -1.6072 -0.0508219 0
M  V30 4921 O 462.842 -1.73196 0.186712 0
M  V30 4922 C 459.974 -3.37546 0.477016 0
M  V30 4923 H 461.167 -2.29687 1.92831 0
M  V30 4924 H 458.72 -1.17261 1.03342 0
M  V30 4925 H 459.455 -3.20773 -0.476966 0
M  V30 4926 H 459.24 -3.72638 1.21997 0
M  V30 4927 H 460.73 -4.16285 0.331181 0
M  V30 4928 N 461.167 -1.02423 -1.1978 0
M  V30 4929 C 462.117 -0.571689 -2.20716 0
M  V30 4930 C 463.101 0.377077 -1.56419 0
M  V30 4931 O 464.293 0.198801 -1.7588 0
M  V30 4932 C 461.422 0.0808555 -3.43205 0
M  V30 4933 C 460.508 -0.890073 -4.14655 0
M  V30 4934 N 460.899 -2.05065 -4.62366 0
M  V30 4935 C 459.197 -0.71252 -4.40272 0
M  V30 4936 C 459.898 -2.66264 -5.17183 0
M  V30 4937 N 458.874 -1.94264 -5.07703 0
M  V30 4938 H 462.676 -1.45636 -2.55279 0
M  V30 4939 H 460.19 -0.890596 -1.35802 0
M  V30 4940 H 462.187 0.422654 -4.14752 0
M  V30 4941 H 460.847 0.961274 -3.10144 0
M  V30 4942 H 461.858 -2.43026 -4.57339 0
M  V30 4943 H 458.535 0.119199 -4.1733 0
M  V30 4944 H 459.925 -3.64526 -5.64421 0
M  V30 4945 N 462.645 1.35699 -0.801477 0
M  V30 4946 C 463.575 2.32436 -0.222658 0
M  V30 4947 C 464.556 1.5723 0.649057 0
M  V30 4948 O 465.741 1.85324 0.580387 0
M  V30 4949 C 462.871 3.41469 0.633719 0
M  V30 4950 C 461.825 4.27774 -0.139083 0
M  V30 4951 C 461.151 5.28082 0.838666 0
M  V30 4952 C 462.451 5.04946 -1.33517 0
M  V30 4953 H 464.145 2.81094 -1.03086 0
M  V30 4954 H 461.691 1.35146 -0.497155 0
M  V30 4955 H 463.644 4.08143 1.04868 0
M  V30 4956 H 462.368 2.91408 1.47475 0
M  V30 4957 H 461.027 3.62673 -0.535156 0
M  V30 4958 H 460.675 4.7429 1.67506 0
M  V30 4959 H 460.375 5.86695 0.32594 0
M  V30 4960 H 461.899 5.97628 1.25194 0
M  V30 4961 H 463.313 5.64593 -0.995349 0
M  V30 4962 H 461.71 5.7303 -1.78202 0
M  V30 4963 H 462.78 4.35886 -2.12442 0
M  V30 4964 N 464.123 0.554532 1.47522 0
M  V30 4965 C 465.055 -0.232106 2.28022 0
M  V30 4966 C 466.068 -0.881865 1.36847 0
M  V30 4967 O 467.257 -0.756168 1.61692 0
M  V30 4968 C 464.357 -1.34604 3.11022 0
M  V30 4969 C 463.53 -0.793582 4.30141 0
M  V30 4970 C 462.589 -1.79168 4.94758 0
M  V30 4971 O 461.615 -1.33886 5.5323 0
M  V30 4972 N 462.817 -3.12495 4.89211 0
M  V30 4973 H 465.582 0.458407 2.96173 0
M  V30 4974 H 463.143 0.390433 1.57122 0
M  V30 4975 H 465.135 -2.01243 3.51118 0
M  V30 4976 H 463.705 -1.93983 2.45131 0
M  V30 4977 H 462.925 0.0495025 3.94169 0
M  V30 4978 H 464.213 -0.403776 5.07195 0
M  V30 4979 H 463.611 -3.51931 4.42901 0
M  V30 4980 H 462.168 -3.74698 5.33333 0
M  V30 4981 N 465.601 -1.54893 0.290851 0
M  V30 4982 C 466.564 -2.21824 -0.576784 0
M  V30 4983 C 467.564 -1.20104 -1.06919 0
M  V30 4984 O 468.754 -1.44906 -0.966843 0
M  V30 4985 C 465.886 -2.89662 -1.79747 0
M  V30 4986 H 467.079 -2.99899 0.00784051 0
M  V30 4987 H 464.632 -1.56245 0.0415934 0
M  V30 4988 H 465.367 -2.15639 -2.42219 0
M  V30 4989 H 465.152 -3.64219 -1.45214 0
M  V30 4990 H 466.642 -3.4075 -2.4141 0
M  V30 4991 N 467.08 -0.0183926 -1.57589 0
M  V30 4992 C 468.326 0.657813 -1.92469 0
M  V30 4993 C 468.681 1.70349 -0.894375 0
M  V30 4994 O 467.974 1.91384 0.0910389 0
M  V30 4995 C 468.168 1.32676 -3.31861 0
M  V30 4996 C 467.997 0.347403 -4.48356 0
M  V30 4997 C 466.767 -0.0488653 -5.05276 0
M  V30 4998 C 468.965 -0.393931 -5.12789 0
M  V30 4999 N 466.947 -1.02451 -6.05291 0
M  V30 5000 C 468.318 -1.22367 -6.07804 0
M  V30 5001 C 470.373 -0.455789 -4.95809 0
M  V30 5002 C 469.076 -2.10966 -6.87667 0
M  V30 5003 C 471.102 -1.32908 -5.76272 0
M  V30 5004 C 470.464 -2.14662 -6.70894 0
M  V30 5005 H 466.563 0.21335 -0.752334 0
M  V30 5006 H 469.147 -0.0830547 -1.94523 0
M  V30 5007 H 467.318 2.03782 -3.30647 0
M  V30 5008 H 469.05 1.95913 -3.54119 0
M  V30 5009 H 465.805 0.323356 -4.72495 0
M  V30 5010 H 466.229 -1.50826 -6.59985 0
M  V30 5011 H 470.871 0.162017 -4.22489 0
M  V30 5012 H 468.589 -2.73807 -7.603 0
M  V30 5013 H 472.175 -1.38109 -5.6517 0
M  V30 5014 H 471.055 -2.81143 -7.32071 0
M  V30 5015 N 468.558 1.5553 0.254621 0
M  V30 5016 C 469.49 1.86104 1.33783 0
M  V30 5017 C 470.503 0.746752 1.44663 0
M  V30 5018 O 471.692 1.0248 1.46151 0
M  V30 5019 C 468.792 2.02532 2.71724 0
M  V30 5020 C 467.965 3.33335 2.83208 0
M  V30 5021 C 467.024 3.396 4.01943 0
M  V30 5022 O 466.05 4.12862 3.91834 0
M  V30 5023 N 467.252 2.68332 5.1476 0
M  V30 5024 H 470.017 2.79605 1.07893 0
M  V30 5025 H 467.578 1.55672 0.444732 0
M  V30 5026 H 469.57 2.04074 3.4948 0
M  V30 5027 H 468.14 1.15811 2.90356 0
M  V30 5028 H 467.36 3.44176 1.92189 0
M  V30 5029 H 468.648 4.19565 2.87824 0
M  V30 5030 H 468.046 2.08528 5.25864 0
M  V30 5031 H 466.603 2.75575 5.90679 0
M  V30 5032 N 470.036 -0.519951 1.48776 0
M  V30 5033 C 470.946 -1.65025 1.66745 0
M  V30 5034 C 471.962 -1.6508 0.549954 0
M  V30 5035 O 473.138 -1.83848 0.822295 0
M  V30 5036 C 470.203 -3.0146 1.71238 0
M  V30 5037 C 469.264 -3.12182 2.94688 0
M  V30 5038 C 468.497 -4.42109 2.98958 0
M  V30 5039 O 468.72 -5.29799 2.1135 0
M  V30 5040 O 467.654 -4.57406 3.91233 0
M  V30 5041 H 471.48 -1.52801 2.62461 0
M  V30 5042 H 469.065 -0.694157 1.32294 0
M  V30 5043 H 470.947 -3.82584 1.76657 0
M  V30 5044 H 469.622 -3.13988 0.786975 0
M  V30 5045 H 468.529 -2.30316 2.94797 0
M  V30 5046 H 469.862 -3.04574 3.86646 0
M  V30 5047 N 471.514 -1.37532 -0.769588 0
M  V30 5048 C 472.762 -1.32597 -1.5252 0
M  V30 5049 C 473.083 0.0884294 -1.94799 0
M  V30 5050 O 472.353 1.03289 -1.66458 0
M  V30 5051 H 470.933 -0.487846 -0.565699 0
M  V30 5052 H 473.595 -1.72044 -0.915806 0
M  V30 5053 H 472.691 -1.96643 -2.42359 0
M  V30 5054 N 472.992 0.995999 -1.22138 0
M  V30 5055 C 473.939 2.08551 -0.988687 0
M  V30 5056 C 474.909 1.65864 0.0885021 0
M  V30 5057 O 476.094 1.90704 -0.0604589 0
M  V30 5058 C 473.234 3.40374 -0.569191 0
M  V30 5059 C 472.347 3.96421 -1.71681 0
M  V30 5060 C 471.482 5.1639 -1.2456 0
M  V30 5061 C 470.521 5.64567 -2.36497 0
M  V30 5062 N 469.658 6.75777 -1.90445 0
M  V30 5063 H 474.498 2.2779 -1.92135 0
M  V30 5064 H 472.035 1.1168 -0.957388 0
M  V30 5065 H 473.993 4.16068 -0.307166 0
M  V30 5066 H 472.623 3.21145 0.326462 0
M  V30 5067 H 471.675 3.17628 -2.09324 0
M  V30 5068 H 472.987 4.2816 -2.55891 0
M  V30 5069 H 472.141 5.99362 -0.940774 0
M  V30 5070 H 470.88 4.86266 -0.373662 0
M  V30 5071 H 469.885 4.80185 -2.67772 0
M  V30 5072 H 471.11 5.96716 -3.24202 0
M  V30 5073 H 469.056 6.47443 -1.05609 0
M  V30 5074 H 468.973 7.06818 -2.68223 0
M  V30 5075 H 470.241 7.62262 -1.63022 0
M  V30 5076 N 474.47 1.03057 1.19235 0
M  V30 5077 C 475.698 0.747697 1.92917 0
M  V30 5078 C 476.113 -0.69372 1.75593 0
M  V30 5079 O 475.47 -1.47191 1.07894 0
M  V30 5080 C 475.521 1.09159 3.44625 0
M  V30 5081 O 475.242 2.47641 3.61394 0
M  V30 5082 C 476.743 0.831763 4.35427 0
M  V30 5083 H 473.963 0.273453 0.612751 0
M  V30 5084 H 476.507 1.37552 1.51327 0
M  V30 5085 H 474.662 0.508919 3.84043 0
M  V30 5086 H 475.076 2.60499 4.55237 0
M  V30 5087 H 476.55 1.12233 5.4047 0
M  V30 5088 H 477.027 -0.233769 4.38577 0
M  V30 5089 H 477.633 1.39725 4.01693 0
M  V30 5090 N 475.948 -1.35272 0.808662 0
M  V30 5091 C 477.196 -1.98316 0.389233 0
M  V30 5092 C 477.517 -1.64465 -1.04767 0
M  V30 5093 O 476.787 -0.928175 -1.72516 0
M  V30 5094 H 475.367 -0.733585 0.140935 0
M  V30 5095 H 478.029 -1.6515 1.03496 0
M  V30 5096 H 477.125 -3.08123 0.496631 0
M  V30 5097 N 477.426 -0.562348 -1.47226 0
M  V30 5098 C 478.656 -0.0451619 -2.06551 0
M  V30 5099 C 479.064 1.25626 -1.41473 0
M  V30 5100 O 478.407 1.76563 -0.507061 0
M  V30 5101 C 478.469 0.216068 -3.5885 0
M  V30 5102 C 478.133 -0.996691 -4.45999 0
M  V30 5103 C 479.13 -1.90358 -4.83797 0
M  V30 5104 C 476.815 -1.21281 -4.87438 0
M  V30 5105 C 478.809 -3.01023 -5.6184 0
M  V30 5106 C 476.496 -2.32255 -5.65244 0
M  V30 5107 C 477.494 -3.21956 -6.02356 0
M  V30 5108 O 477.182 -4.31005 -6.78594 0
M  V30 5109 H 476.914 -0.0451646 -0.67449 0
M  V30 5110 H 479.468 -0.776842 -1.90143 0
M  V30 5111 H 477.698 1.00212 -3.7349 0
M  V30 5112 H 479.387 0.679264 -4.00176 0
M  V30 5113 H 480.153 -1.74868 -4.52378 0
M  V30 5114 H 476.032 -0.523767 -4.58015 0
M  V30 5115 H 479.576 -3.71064 -5.90726 0
M  V30 5116 H 475.473 -2.47715 -5.96077 0
M  V30 5117 H 476.241 -4.29118 -6.96994 0
M  V30 5118 N 478.904 1.54736 -0.299062 0
M  V30 5119 C 480.315 1.8569 0.193971 0
M  V30 5120 C 480.666 1.22101 1.53577 0
M  V30 5121 O 479.791 0.51799 2.10109 0
M  V30 5122 C 480.386 3.36895 0.358733 0
M  V30 5123 C 478.945 3.67887 0.795986 0
M  V30 5124 C 478.092 2.77131 -0.096807 0
M  V30 5125 H 481.043 1.49934 -0.520134 0
M  V30 5126 H 481.064 3.61294 1.19361 0
M  V30 5127 H 480.576 3.83148 -0.617998 0
M  V30 5128 H 478.677 3.27151 1.78334 0
M  V30 5129 H 478.79 4.75114 0.616718 0
M  V30 5130 H 477.154 2.51153 0.423581 0
M  V30 5131 H 477.937 3.26204 -1.06986 0
M  V30 5132 N 480.382 0.0267497 1.57577 0
M  V30 5133 C 481.631 -0.651736 1.9088 0
M  V30 5134 C 481.944 -1.73427 0.904576 0
M  V30 5135 O 483.15 -2.46923 1.12877 0
M  V30 5136 C 481.606 -1.21048 3.38933 0
M  V30 5137 C 481.214 -0.161362 4.47709 0
M  V30 5138 C 482.958 -1.86562 3.81307 0
M  V30 5139 C 480.865 -0.731611 5.86857 0
M  V30 5140 H 479.795 -0.247198 0.712326 0
M  V30 5141 H 482.446 0.0916641 1.83271 0
M  V30 5142 H 480.828 -2.00542 3.41466 0
M  V30 5143 H 482.002 0.61094 4.56732 0
M  V30 5144 H 480.317 0.394877 4.14523 0
M  V30 5145 H 482.914 -2.30178 4.8262 0
M  V30 5146 H 483.257 -2.70735 3.16241 0
M  V30 5147 H 483.79 -1.13762 3.81186 0
M  V30 5148 H 480.529 0.0719329 6.55461 0
M  V30 5149 H 480.049 -1.47245 5.81445 0
M  V30 5150 H 481.728 -1.22208 6.35354 0
M  V30 5151 N 481.861 -1.55662 -0.24637 0
M  V30 5152 C 483.107 -1.77782 -0.975779 0
M  V30 5153 C 483.44 -0.592103 -1.84953 0
M  V30 5154 O 482.715 0.409588 -1.90138 0
M  V30 5155 C 482.998 -3.09788 -1.83584 0
M  V30 5156 C 482.851 -4.38764 -0.990241 0
M  V30 5157 C 484.17 -3.38029 -2.81823 0
M  V30 5158 H 481.289 -0.646789 -0.353317 0
M  V30 5159 H 483.931 -1.88398 -0.246248 0
M  V30 5160 H 482.081 -3.00869 -2.45784 0
M  V30 5161 H 483.753 -4.59675 -0.386897 0
M  V30 5162 H 481.996 -4.32798 -0.294626 0
M  V30 5163 H 482.667 -5.27514 -1.62584 0
M  V30 5164 H 485.143 -3.46915 -2.2976 0
M  V30 5165 H 484.019 -4.3161 -3.39122 0
M  V30 5166 H 484.28 -2.58968 -3.58313 0
M  V30 5167 N 483.339 0.512053 -1.4905 0
M  V30 5168 C 484.616 1.27337 -1.48474 0
M  V30 5169 C 484.996 2.1009 -0.206301 0
M  V30 5170 O 484.344 2.136 0.811609 0
M  V30 5171 C 484.554 2.13954 -2.75726 0
M  V30 5172 C 485.902 2.73507 -3.24776 0
M  V30 5173 O 486.926 2.24229 -2.76767 0
M  V30 5174 O 485.785 3.63186 -4.08361 0
M  V30 5175 H 482.879 0.575652 -0.593762 0
M  V30 5176 H 485.425 0.527232 -1.61302 0
M  V30 5177 H 484.197 1.52709 -3.60272 0
M  V30 5178 H 483.82 2.95782 -2.65705 0
M  V30 5179 N 484.817 1.37938 0.762283 0
M  V30 5180 C 485.78 1.34279 1.85747 0
M  V30 5181 C 486.78 0.244969 1.58923 0
M  V30 5182 O 487.97 0.501365 1.66829 0
M  V30 5183 C 485.102 1.08833 3.23061 0
M  V30 5184 H 486.295 2.31705 1.90401 0
M  V30 5185 H 483.848 1.23105 0.963057 0
M  V30 5186 H 484.583 0.119767 3.24079 0
M  V30 5187 H 484.368 1.88306 3.43923 0
M  V30 5188 H 485.858 1.08946 4.03138 0
M  V30 5189 N 486.295 -0.989507 1.22664 0
M  V30 5190 C 487.258 -2.06183 1.00106 0
M  V30 5191 C 488.258 -1.60765 -0.0337726 0
M  V30 5192 O 489.448 -1.72989 0.205072 0
M  V30 5193 C 486.58 -3.37021 0.51279 0
M  V30 5194 H 487.773 -2.27629 1.95256 0
M  V30 5195 H 485.326 -1.16158 1.0458 0
M  V30 5196 H 486.061 -3.21261 -0.442917 0
M  V30 5197 H 485.846 -3.71323 1.25942 0
M  V30 5198 H 487.336 -4.1591 0.375315 0
M  V30 5199 N 487.773 -1.03688 -1.18687 0
M  V30 5200 C 488.706 -0.569112 -2.2099 0
M  V30 5201 C 489.684 0.394315 -1.57746 0
M  V30 5202 O 490.868 0.309519 -1.85941 0
M  V30 5203 C 487.995 0.169104 -3.38278 0
M  V30 5204 C 487.041 -0.746989 -4.19908 0
M  V30 5205 S 487.874 -2.22773 -4.86963 0
M  V30 5206 C 489.03 -1.50025 -6.07654 0
M  V30 5207 H 489.263 -1.43589 -2.60326 0
M  V30 5208 H 486.796 -0.847507 -1.29061 0
M  V30 5209 H 488.754 0.588868 -4.06254 0
M  V30 5210 H 487.415 1.01172 -2.9736 0
M  V30 5211 H 486.608 -0.176626 -5.0369 0
M  V30 5212 H 486.21 -1.10543 -3.5729 0
M  V30 5213 H 488.502 -0.791217 -6.72864 0
M  V30 5214 H 489.445 -2.31498 -6.69189 0
M  V30 5215 H 489.853 -0.994245 -5.55675 0
M  V30 5216 N 489.251 1.34841 -0.815825 0
M  V30 5217 C 490.667 1.51543 -0.500697 0
M  V30 5218 C 490.867 1.76261 0.976444 0
M  V30 5219 O 489.923 1.8094 1.76117 0
M  V30 5220 C 491.236 2.68487 -1.35407 0
M  V30 5221 C 492.784 2.82368 -1.35046 0
M  V30 5222 C 493.259 4.02347 -2.18816 0
M  V30 5223 N 494.75 4.09542 -2.16402 0
M  V30 5224 C 495.485 5.01517 -2.77971 0
M  V30 5225 N 494.981 5.98763 -3.48503 0
M  V30 5226 N 496.774 4.94334 -2.67563 0
M  V30 5227 H 488.925 1.17055 -1.77234 0
M  V30 5228 H 491.188 0.573481 -0.754866 0
M  V30 5229 H 490.894 2.56829 -2.40274 0
M  V30 5230 H 490.768 3.63321 -1.01377 0
M  V30 5231 H 493.155 2.93471 -0.309604 0
M  V30 5232 H 493.236 1.88363 -1.73069 0
M  V30 5233 H 492.88 3.92004 -3.22948 0
M  V30 5234 H 492.81 4.95551 -1.78148 0
M  V30 5235 H 495.301 3.39932 -1.65091 0
M  V30 5236 H 495.614 6.6556 -3.92747 0
M  V30 5237 H 493.959 5.98909 -3.52609 0
M  V30 5238 H 497.15 4.1732 -2.12041 0
M  V30 5239 H 497.323 5.6582 -3.15834 0
M  V30 5240 N 490.729 0.570148 1.46925 0
M  V30 5241 C 491.661 -0.207909 2.28255 0
M  V30 5242 C 492.674 -0.867301 1.37774 0
M  V30 5243 O 493.863 -0.738976 1.62485 0
M  V30 5244 C 490.963 -1.31298 3.12433 0
M  V30 5245 C 490.136 -0.747915 4.30958 0
M  V30 5246 C 489.195 -1.7391 4.9663 0
M  V30 5247 O 488.221 -1.2801 5.54619 0
M  V30 5248 N 489.423 -3.07288 4.92498 0
M  V30 5249 H 492.188 0.489794 2.95671 0
M  V30 5250 H 489.749 0.407076 1.56699 0
M  V30 5251 H 491.741 -1.97507 3.53232 0
M  V30 5252 H 490.311 -1.91373 2.47175 0
M  V30 5253 H 489.531 0.0913066 3.94094 0
M  V30 5254 H 490.819 -0.349958 5.07595 0
M  V30 5255 H 490.217 -3.47213 4.46609 0
M  V30 5256 H 488.774 -3.69021 5.37277 0
M  V30 5257 N 492.207 -1.54576 0.307264 0
M  V30 5258 C 493.137 -2.26708 -0.55907 0
M  V30 5259 C 494.118 -1.26893 -1.1328 0
M  V30 5260 O 495.303 -1.55677 -1.16097 0
M  V30 5261 C 492.433 -3.01259 -1.72801 0
M  V30 5262 C 491.387 -4.08275 -1.28435 0
M  V30 5263 C 490.713 -4.70575 -2.53895 0
M  V30 5264 C 492.013 -5.2068 -0.411038 0
M  V30 5265 H 493.707 -2.9937 0.042576 0
M  V30 5266 H 491.253 -1.43983 0.0219173 0
M  V30 5267 H 493.206 -3.50444 -2.34023 0
M  V30 5268 H 491.93 -2.26187 -2.356 0
M  V30 5269 H 490.589 -3.59949 -0.695161 0
M  V30 5270 H 490.237 -3.92136 -3.15021 0
M  V30 5271 H 489.937 -5.42854 -2.24908 0
M  V30 5272 H 491.461 -5.22527 -3.15908 0
M  V30 5273 H 492.875 -5.65721 -0.929097 0
M  V30 5274 H 491.272 -5.99716 -0.214664 0
M  V30 5275 H 492.342 -4.81629 0.562287 0
M  V30 5276 N 493.685 -0.035106 -1.57561 0
M  V30 5277 C 494.633 0.962707 -2.11742 0
M  V30 5278 C 495.627 1.33296 -1.0454 0
M  V30 5279 O 496.833 1.31449 -1.22968 0
M  V30 5280 H 493.208 0.32826 -0.676572 0
M  V30 5281 H 495.179 0.48048 -2.94506 0
M  V30 5282 C 493.928 2.23388 -2.66445 0
M  V30 5283 H 493.251 1.95774 -3.48587 0
M  V30 5284 H 494.691 2.91402 -3.07995 0
M  V30 5285 C 493.15 2.96769 -1.59467 0
M  V30 5286 O 493.68 3.89105 -0.998 0
M  V30 5287 N 491.886 2.59212 -1.31369 0
M  V30 5288 H 491.433 1.84202 -1.80076 0
M  V30 5289 H 491.391 3.08618 -0.600173 0
M  V30 5290 N 495.163 1.55791 0.238111 0
M  V30 5291 C 496.388 1.8244 0.986432 0
M  V30 5292 C 496.813 0.613314 1.7782 0
M  V30 5293 O 496.171 -0.437767 1.75935 0
M  V30 5294 C 496.219 3.06917 1.893 0
M  V30 5295 O 495.323 2.84449 2.98601 0
M  V30 5296 H 494.664 0.601975 0.280218 0
M  V30 5297 H 497.194 2.02987 0.256437 0
M  V30 5298 H 497.204 3.36583 2.30598 0
M  V30 5299 H 495.879 3.947 1.31091 0
M  V30 5300 H 494.456 2.65972 2.61368 0
M  V30 5301 N 496.642 -0.504142 1.49319 0
M  V30 5302 C 497.87 -1.28256 1.62351 0
M  V30 5303 C 498.285 -1.86502 0.293682 0
M  V30 5304 O 497.642 -1.67678 -0.720449 0
M  V30 5305 C 497.693 -2.41507 2.68992 0
M  V30 5306 O 497.414 -1.85656 3.96817 0
M  V30 5307 C 498.915 -3.32929 2.927 0
M  V30 5308 H 496.135 -0.389115 0.546654 0
M  V30 5309 H 498.679 -0.605531 1.95329 0
M  V30 5310 H 496.834 -3.05046 2.38801 0
M  V30 5311 H 497.248 -2.59981 4.55533 0
M  V30 5312 H 498.722 -4.0868 3.71058 0
M  V30 5313 H 499.199 -3.89733 2.02496 0
M  V30 5314 H 499.805 -2.75158 3.24296 0
M  V30 5315 N 498.12 -1.38341 -0.754957 0
M  V30 5316 C 499.368 -1.34208 -1.51105 0
M  V30 5317 C 499.689 0.0677634 -1.94882 0
M  V30 5318 O 498.959 1.01517 -1.67544 0
M  V30 5319 H 497.539 -0.493819 -0.560493 0
M  V30 5320 H 500.201 -1.73005 -0.897507 0
M  V30 5321 H 499.297 -1.99203 -2.4026 0
M  V30 5322 N 499.598 0.982988 -1.23187 0
M  V30 5323 C 500.844 1.7273 -1.07405 0
M  V30 5324 C 501.199 1.885 0.385447 0
M  V30 5325 O 500.492 1.4243 1.28157 0
M  V30 5326 C 500.686 3.12736 -1.73006 0
M  V30 5327 C 500.515 3.10621 -3.25184 0
M  V30 5328 C 499.285 3.15957 -3.94334 0
M  V30 5329 C 501.483 2.93992 -4.21987 0
M  V30 5330 N 499.465 3.03701 -5.33516 0
M  V30 5331 C 500.836 2.8987 -5.48065 0
M  V30 5332 C 502.891 2.78457 -4.12754 0
M  V30 5333 C 501.594 2.71804 -6.65969 0
M  V30 5334 C 503.62 2.61754 -5.30319 0
M  V30 5335 C 502.982 2.58328 -6.55321 0
M  V30 5336 H 499.081 0.641279 -0.447533 0
M  V30 5337 H 501.665 1.16664 -1.55877 0
M  V30 5338 H 499.836 3.67026 -1.2707 0
M  V30 5339 H 501.568 3.75786 -1.50224 0
M  V30 5340 H 498.323 3.24034 -3.45397 0
M  V30 5341 H 498.747 3.00855 -6.06478 0
M  V30 5342 H 503.389 2.79898 -3.16886 0
M  V30 5343 H 501.107 2.69108 -7.61975 0
M  V30 5344 H 504.693 2.50702 -5.25014 0
M  V30 5345 H 503.573 2.45564 -7.4476 0
M  V30 5346 N 501.076 1.04316 1.18135 0
M  V30 5347 C 502.009 0.580823 2.20685 0
M  V30 5348 C 502.987 -0.385943 1.57953 0
M  V30 5349 O 504.171 -0.299654 1.86103 0
M  V30 5350 C 501.298 -0.151162 3.38363 0
M  V30 5351 C 500.344 0.769247 4.19505 0
M  V30 5352 S 501.177 2.25352 4.85774 0
M  V30 5353 C 502.333 1.53246 6.0685 0
M  V30 5354 H 502.566 1.44968 2.5956 0
M  V30 5355 H 500.099 0.85434 1.28609 0
M  V30 5356 H 502.057 -0.567315 4.06561 0
M  V30 5357 H 500.718 -0.995936 2.97892 0
M  V30 5358 H 499.911 0.203335 5.0359 0
M  V30 5359 H 499.513 1.12436 3.56699 0
M  V30 5360 H 501.805 0.82689 6.72435 0
M  V30 5361 H 502.748 2.35044 6.67952 0
M  V30 5362 H 503.156 1.0237 5.5514 0
M  V30 5363 N 502.554 -1.34406 0.822964 0
M  V30 5364 C 503.504 -2.26963 0.217208 0
M  V30 5365 C 504.488 -1.48536 -0.618545 0
M  V30 5366 O 505.68 -1.7056 -0.473118 0
M  V30 5367 C 502.809 -3.37655 -0.619973 0
M  V30 5368 C 501.895 -4.23495 0.226411 0
M  V30 5369 N 502.286 -4.88876 1.29744 0
M  V30 5370 C 500.584 -4.45999 0.0107554 0
M  V30 5371 C 501.285 -5.52642 1.81553 0
M  V30 5372 N 500.261 -5.31949 1.11942 0
M  V30 5373 H 504.063 -2.75017 1.03647 0
M  V30 5374 H 501.577 -1.48126 0.665777 0
M  V30 5375 H 503.574 -4.02932 -1.07011 0
M  V30 5376 H 502.234 -2.91151 -1.43739 0
M  V30 5377 H 503.245 -4.89886 1.68024 0
M  V30 5378 H 499.922 -4.10253 -0.774495 0
M  V30 5379 H 501.312 -6.14755 2.71156 0
M  V30 5380 N 504.032 -0.577932 -1.46621 0
M  V30 5381 C 504.98 0.170882 -2.31971 0
M  V30 5382 C 505.974 0.889086 -1.44193 0
M  V30 5383 O 507.18 0.808017 -1.60845 0
M  V30 5384 H 503.555 0.0739763 -0.748353 0
M  V30 5385 H 505.526 -0.567856 -2.92947 0
M  V30 5386 C 504.275 1.17438 -3.27267 0
M  V30 5387 H 503.598 0.63116 -3.94787 0
M  V30 5388 H 505.038 1.66882 -3.89778 0
M  V30 5389 C 503.497 2.23292 -2.52274 0
M  V30 5390 O 504.027 3.30567 -2.28229 0
M  V30 5391 N 502.233 1.97772 -2.12919 0
M  V30 5392 H 501.78 1.10545 -2.32675 0
M  V30 5393 H 501.738 2.68809 -1.63062 0
M  V30 5394 N 505.51 1.54411 -0.315457 0
M  V30 5395 C 506.926 1.59556 0.037464 0
M  V30 5396 C 507.126 1.33217 1.5118 0
M  V30 5397 O 506.182 1.11264 2.26664 0
M  V30 5398 C 507.495 2.98372 -0.373477 0
M  V30 5399 C 509.043 3.11324 -0.323452 0
M  V30 5400 C 509.518 4.52472 -0.709433 0
M  V30 5401 N 511.009 4.58437 -0.662524 0
M  V30 5402 C 511.744 5.65751 -0.933474 0
M  V30 5403 N 511.24 6.81039 -1.27114 0
M  V30 5404 N 513.033 5.55489 -0.859573 0
M  V30 5405 H 505.184 1.6979 -1.27614 0
M  V30 5406 H 507.447 0.793732 -0.518356 0
M  V30 5407 H 507.153 3.22618 -1.40037 0
M  V30 5408 H 507.027 3.76264 0.265615 0
M  V30 5409 H 509.414 2.86818 0.694223 0
M  V30 5410 H 509.495 2.35555 -0.997367 0
M  V30 5411 H 509.139 4.7771 -1.72498 0
M  V30 5412 H 509.069 5.26598 -0.0132923 0
M  V30 5413 H 511.56 3.75636 -0.413065 0
M  V30 5414 H 511.873 7.58816 -1.46348 0
M  V30 5415 H 510.218 6.82555 -1.30932 0
M  V30 5416 H 513.409 4.64299 -0.595324 0
M  V30 5417 H 513.582 6.39036 -1.0741 0
M  V30 5418 N 506.988 0.0434614 1.5754 0
M  V30 5419 C 507.918 -0.931651 2.14109 0
M  V30 5420 C 508.899 -1.32971 1.06079 0
M  V30 5421 O 510.084 -1.40579 1.33982 0
M  V30 5422 C 507.214 -2.20914 2.67982 0
M  V30 5423 C 506.168 -1.95139 3.80926 0
M  V30 5424 C 505.494 -3.29276 4.21285 0
M  V30 5425 C 506.794 -1.27913 5.06395 0
M  V30 5426 H 508.488 -0.460497 2.95837 0
M  V30 5427 H 506.034 -0.220058 1.42309 0
M  V30 5428 H 507.987 -2.89522 3.06194 0
M  V30 5429 H 506.711 -2.70221 1.83434 0
M  V30 5430 H 505.37 -1.28945 3.43175 0
M  V30 5431 H 505.018 -3.76369 3.33699 0
M  V30 5432 H 504.718 -3.12831 4.97404 0
M  V30 5433 H 506.242 -3.99129 4.62091 0
M  V30 5434 H 507.656 -1.86544 5.42102 0
M  V30 5435 H 506.053 -1.2182 5.87605 0
M  V30 5436 H 507.123 -0.254066 4.84234 0
M  V30 5437 N 508.466 -1.55915 -0.229846 0
M  V30 5438 C 509.882 -1.48721 -0.579166 0
M  V30 5439 C 510.082 -0.736976 -1.87539 0
M  V30 5440 O 509.138 -0.273258 -2.51017 0
M  V30 5441 C 510.451 -2.9323 -0.666082 0
M  V30 5442 C 511.999 -3.03701 -0.757267 0
M  V30 5443 C 512.474 -4.49552 -0.8756 0
M  V30 5444 N 513.965 -4.53561 -0.940035 0
M  V30 5445 C 514.7 -5.63683 -1.05116 0
M  V30 5446 N 514.196 -6.83576 -1.12675 0
M  V30 5447 N 515.989 -5.51516 -1.08565 0
M  V30 5448 H 508.14 -2.03123 0.620857 0
M  V30 5449 H 510.403 -0.922898 0.21671 0
M  V30 5450 H 510.109 -3.51032 0.21664 0
M  V30 5451 H 509.983 -3.44668 -1.53243 0
M  V30 5452 H 512.37 -2.45969 -1.63043 0
M  V30 5453 H 512.451 -2.55446 0.134583 0
M  V30 5454 H 512.095 -5.079 -0.00692351 0
M  V30 5455 H 512.025 -4.95506 -1.78274 0
M  V30 5456 H 514.516 -3.67215 -0.892269 0
M  V30 5457 H 514.829 -7.63251 -1.21109 0
M  V30 5458 H 513.174 -6.86303 -1.09603 0
M  V30 5459 H 516.365 -4.5678 -1.02319 0
M  V30 5460 H 516.538 -6.37372 -1.1688 0
M  V30 5461 N 509.944 0.496216 -1.49584 0
M  V30 5462 C 510.877 1.61508 -1.61215 0
M  V30 5463 C 511.855 1.55927 -0.461045 0
M  V30 5464 O 513.039 1.75914 -0.677231 0
M  V30 5465 C 510.166 3.00035 -1.57152 0
M  V30 5466 C 509.212 3.23861 -2.77518 0
M  V30 5467 S 510.045 3.06466 -4.39134 0
M  V30 5468 C 511.201 4.4738 -4.37724 0
M  V30 5469 H 511.434 1.51398 -2.55863 0
M  V30 5470 H 508.967 0.681727 -1.38535 0
M  V30 5471 H 510.925 3.7991 -1.55494 0
M  V30 5472 H 509.586 3.07556 -0.637834 0
M  V30 5473 H 508.779 4.25 -2.70908 0
M  V30 5474 H 508.381 2.51716 -2.76614 0
M  V30 5475 H 510.673 5.39556 -4.09738 0
M  V30 5476 H 511.616 4.59038 -5.39156 0
M  V30 5477 H 512.024 4.28283 -3.67742 0
M  V30 5478 N 511.423 1.38739 0.74761 0
M  V30 5479 C 512.672 1.3459 1.50228 0
M  V30 5480 C 512.985 -0.0595592 1.95509 0
M  V30 5481 O 514.191 -0.22361 2.70578 0
M  V30 5482 C 512.647 2.36377 2.71393 0
M  V30 5483 C 512.255 3.82573 2.33113 0
M  V30 5484 C 513.999 2.41281 3.49262 0
M  V30 5485 C 511.906 4.76032 3.50924 0
M  V30 5486 H 510.836 0.500312 0.564096 0
M  V30 5487 H 513.487 1.64324 0.8167 0
M  V30 5488 H 511.869 1.99694 3.41962 0
M  V30 5489 H 513.043 4.28227 1.70171 0
M  V30 5490 H 511.358 3.80844 1.68365 0
M  V30 5491 H 513.955 3.08301 4.36869 0
M  V30 5492 H 514.298 1.43353 3.9084 0
M  V30 5493 H 514.831 2.76793 2.85711 0
M  V30 5494 H 511.57 5.75177 3.14408 0
M  V30 5495 H 511.09 4.35066 4.12889 0
M  V30 5496 H 512.769 4.94331 4.17427 0
M  V30 5497 N 512.901 -0.976442 1.23707 0
M  V30 5498 C 514.129 -1.75341 1.09833 0
M  V30 5499 C 514.544 -1.8553 -0.349885 0
M  V30 5500 O 513.901 -1.33732 -1.24185 0
M  V30 5501 C 513.952 -3.17833 1.72233 0
M  V30 5502 O 513.673 -3.08167 3.11391 0
M  V30 5503 C 515.174 -4.11906 1.63853 0
M  V30 5504 H 512.394 -0.550137 0.384175 0
M  V30 5505 H 514.938 -1.2265 1.63638 0
M  V30 5506 H 513.093 -3.67538 1.22452 0
M  V30 5507 H 513.507 -3.97897 3.41729 0
M  V30 5508 H 514.981 -5.09579 2.12211 0
M  V30 5509 H 515.458 -4.35109 0.598092 0
M  V30 5510 H 516.064 -3.68107 2.13019 0
M  V30 5511 N 514.379 -1.04941 -1.1758 0
M  V30 5512 C 515.342 -0.652456 -2.19717 0
M  V30 5513 C 516.342 0.294745 -1.58076 0
M  V30 5514 O 517.532 0.0789579 -1.74021 0
M  V30 5515 C 514.664 0.0420712 -3.40874 0
M  V30 5516 H 515.857 -1.55642 -2.5635 0
M  V30 5517 H 513.41 -0.842995 -1.31618 0
M  V30 5518 H 514.145 0.95943 -3.09783 0
M  V30 5519 H 513.93 -0.638844 -3.86861 0
M  V30 5520 H 515.42 0.306 -4.16477 0
M  V30 5521 N 515.857 1.33968 -0.830081 0
M  V30 5522 C 517.082 2.02813 -0.433796 0
M  V30 5523 C 517.507 1.62076 0.954614 0
M  V30 5524 O 516.865 0.808955 1.62252 0
M  V30 5525 C 516.913 3.56348 -0.552115 0
M  V30 5526 O 516.017 4.10202 0.425191 0
M  V30 5527 H 515.358 0.639817 -0.177567 0
M  V30 5528 H 517.888 1.7106 -1.12248 0
M  V30 5529 H 517.898 4.05722 -0.430513 0
M  V30 5530 H 516.573 3.85344 -1.56471 0
M  V30 5531 H 515.15 3.71979 0.261878 0
M  V30 5532 N 517.335 0.585699 1.46312 0
M  V30 5533 C 518.582 0.0724211 2.0237 0
M  V30 5534 C 518.91 -1.28868 1.45683 0
M  V30 5535 O 518.165 -1.85853 0.612945 0
M  V30 5536 C 518.464 -0.0401312 3.57377 0
M  V30 5537 C 518.13 1.25376 4.33119 0
M  V30 5538 C 516.792 1.60824 4.5353 0
M  V30 5539 C 519.144 2.10987 4.76586 0
M  V30 5540 C 516.472 2.81676 5.14661 0
M  V30 5541 C 518.824 3.31068 5.39052 0
M  V30 5542 C 517.488 3.66794 5.5769 0
M  V30 5543 H 516.758 0.0265007 0.740526 0
M  V30 5544 H 519.405 0.762935 1.75646 0
M  V30 5545 H 517.71 -0.813791 3.83255 0
M  V30 5546 H 519.407 -0.453078 3.98432 0
M  V30 5547 H 515.997 0.967808 4.1753 0
M  V30 5548 H 520.181 1.84904 4.60569 0
M  V30 5549 H 515.437 3.0949 5.27282 0
M  V30 5550 H 519.611 3.97672 5.71691 0
M  V30 5551 H 517.238 4.60529 6.04828 0
M  V30 5552 N 518.813 -1.54241 0.323641 0
M  V30 5553 C 519.743 -2.27289 -0.534993 0
M  V30 5554 C 520.724 -1.28087 -1.11927 0
M  V30 5555 O 521.909 -1.56899 -1.14439 0
M  V30 5556 C 519.039 -3.03075 -1.69596 0
M  V30 5557 C 517.993 -4.09614 -1.24098 0
M  V30 5558 C 517.319 -4.73242 -2.4889 0
M  V30 5559 C 518.619 -5.21087 -0.355789 0
M  V30 5560 H 520.313 -2.99308 0.0743257 0
M  V30 5561 H 517.859 -1.43952 0.0371874 0
M  V30 5562 H 519.812 -3.52907 -2.30293 0
M  V30 5563 H 518.536 -2.28673 -2.33187 0
M  V30 5564 H 517.195 -3.60666 -0.656945 0
M  V30 5565 H 516.843 -3.95455 -3.10845 0
M  V30 5566 H 516.543 -5.45209 -2.19138 0
M  V30 5567 H 518.067 -5.25848 -3.10348 0
M  V30 5568 H 519.481 -5.66675 -0.869042 0
M  V30 5569 H 517.878 -5.9991 -0.151045 0
M  V30 5570 H 518.948 -4.81005 0.613339 0
M  V30 5571 N 520.291 -0.0518155 -1.57515 0
M  V30 5572 C 521.537 0.622745 -1.93002 0
M  V30 5573 C 521.87 1.70456 -0.930499 0
M  V30 5574 O 521.145 1.94452 0.0434086 0
M  V30 5575 C 521.428 1.21824 -3.38867 0
M  V30 5576 C 521.281 0.144434 -4.49568 0
M  V30 5577 C 522.6 2.12968 -3.8514 0
M  V30 5578 H 519.719 0.22491 -0.701844 0
M  V30 5579 H 522.361 -0.113711 -1.89659 0
M  V30 5580 H 520.511 1.8459 -3.41846 0
M  V30 5581 H 522.183 -0.48753 -4.58717 0
M  V30 5582 H 520.426 -0.527424 -4.30582 0
M  V30 5583 H 521.097 0.601127 -5.48717 0
M  V30 5584 H 523.573 1.60163 -3.8404 0
M  V30 5585 H 522.449 2.51578 -4.87852 0
M  V30 5586 H 522.71 3.03004 -3.21934 0
M  V30 5587 N 521.769 1.56035 0.221574 0
M  V30 5588 C 522.716 1.92413 1.27459 0
M  V30 5589 C 523.686 0.781323 1.46576 0
M  V30 5590 O 524.871 1.03721 1.60145 0
M  V30 5591 C 522.011 2.24617 2.61995 0
M  V30 5592 C 521.124 3.51831 2.50677 0
M  V30 5593 C 520.259 3.73482 3.77736 0
M  V30 5594 C 519.298 4.94211 3.6114 0
M  V30 5595 N 518.435 5.12252 4.80148 0
M  V30 5596 H 523.275 2.82203 0.957355 0
M  V30 5597 H 520.812 1.39676 0.461415 0
M  V30 5598 H 522.77 2.41298 3.40339 0
M  V30 5599 H 521.4 1.38 2.91815 0
M  V30 5600 H 520.452 3.43343 1.63767 0
M  V30 5601 H 521.764 4.40328 2.34334 0
M  V30 5602 H 520.918 3.9026 4.64523 0
M  V30 5603 H 519.657 2.83266 3.97003 0
M  V30 5604 H 518.662 4.77384 2.72736 0
M  V30 5605 H 519.887 5.85912 3.43343 0
M  V30 5606 H 517.833 4.24978 4.99729 0
M  V30 5607 H 517.75 5.94881 4.66532 0
M  V30 5608 H 519.018 5.33465 5.68362 0
M  V30 5609 N 523.247 -0.488276 1.49845 0
M  V30 5610 C 524.524 -1.24959 1.50481 0
M  V30 5611 C 524.904 -2.09735 0.239698 0
M  V30 5612 O 524.252 -2.14865 -0.777524 0
M  V30 5613 C 524.462 -2.0954 2.79095 0
M  V30 5614 C 525.81 -2.68305 3.29086 0
M  V30 5615 O 526.834 -2.19797 2.80299 0
M  V30 5616 O 525.693 -3.56643 4.14087 0
M  V30 5617 H 522.787 -0.566133 0.602845 0
M  V30 5618 H 525.333 -0.501504 1.6212 0
M  V30 5619 H 524.105 -1.46958 3.62656 0
M  V30 5620 H 523.728 -2.91517 2.70377 0
M  V30 5621 N 524.725 -1.39134 -0.740242 0
M  V30 5622 C 525.655 -1.40165 -1.86751 0
M  V30 5623 C 526.636 -0.265708 -1.68012 0
M  V30 5624 O 527.821 -0.47076 -1.88408 0
M  V30 5625 C 524.951 -1.2392 -3.2444 0
M  V30 5626 C 523.905 -2.34858 -3.57807 0
M  V30 5627 C 523.231 -2.03707 -4.94376 0
M  V30 5628 C 524.531 -3.77159 -3.61315 0
M  V30 5629 H 526.225 -2.345 -1.86145 0
M  V30 5630 H 523.771 -1.12875 -0.89416 0
M  V30 5631 H 525.724 -1.23263 -4.02969 0
M  V30 5632 H 524.448 -0.26051 -3.25559 0
M  V30 5633 H 523.107 -2.34723 -2.81604 0
M  V30 5634 H 522.755 -1.04289 -4.9207 0
M  V30 5635 H 522.455 -2.78016 -5.17669 0
M  V30 5636 H 523.979 -2.04691 -5.75268 0
M  V30 5637 H 525.393 -3.79252 -4.29931 0
M  V30 5638 H 523.79 -4.50784 -3.96124 0
M  V30 5639 H 524.86 -4.08513 -2.61238 0
M  V30 5640 N 526.204 0.969867 -1.24223 0
M  V30 5641 C 527.134 2.08191 -1.05729 0
M  V30 5642 C 528.115 1.70075 0.0290765 0
M  V30 5643 O 529.3 1.93712 -0.137583 0
M  V30 5644 C 526.43 3.40991 -0.658995 0
M  V30 5645 C 525.384 3.93054 -1.69389 0
M  V30 5646 C 524.71 5.22171 -1.15072 0
M  V30 5647 C 526.01 4.21137 -3.08935 0
M  V30 5648 H 527.704 2.23921 -1.98746 0
M  V30 5649 H 525.25 1.07602 -0.956967 0
M  V30 5650 H 527.203 4.18221 -0.51662 0
M  V30 5651 H 525.927 3.25155 0.30686 0
M  V30 5652 H 524.586 3.17977 -1.82444 0
M  V30 5653 H 524.234 5.02694 -0.175539 0
M  V30 5654 H 523.934 5.57973 -1.84229 0
M  V30 5655 H 525.458 6.02013 -1.02042 0
M  V30 5656 H 526.872 4.8908 -2.99121 0
M  V30 5657 H 525.269 4.68163 -3.75425 0
M  V30 5658 H 526.339 3.27996 -3.57137 0
M  V30 5659 N 527.682 1.05563 1.17022 0
M  V30 5660 C 528.931 0.763036 1.8671 0
M  V30 5661 C 529.244 -0.712857 1.82147 0
M  V30 5662 O 530.45 -1.11955 2.47343 0
M  V30 5663 C 528.906 1.31474 3.35026 0
M  V30 5664 C 528.514 2.82034 3.48081 0
M  V30 5665 C 530.258 1.09935 4.10018 0
M  V30 5666 C 528.165 3.30486 4.90442 0
M  V30 5667 H 527.095 0.281747 0.699382 0
M  V30 5668 H 529.746 1.2734 1.32124 0
M  V30 5669 H 528.128 0.732171 3.89173 0
M  V30 5670 H 529.302 3.46178 3.04133 0
M  V30 5671 H 527.617 3.02156 2.86515 0
M  V30 5672 H 530.214 1.43632 5.15048 0
M  V30 5673 H 530.557 0.0373072 4.16283 0
M  V30 5674 H 531.09 1.64732 3.62089 0
M  V30 5675 H 527.829 4.36137 4.89352 0
M  V30 5676 H 527.349 2.71086 5.35044 0
M  V30 5677 H 529.028 3.25382 5.59227 0
M  V30 5678 N 529.16 -1.33526 0.837174 0
M  V30 5679 C 530.437 -1.92369 0.354065 0
M  V30 5680 C 530.817 -1.76348 -1.16038 0
M  V30 5681 O 530.165 -1.15083 -1.97403 0
M  V30 5682 C 530.375 -3.39728 0.799101 0
M  V30 5683 C 531.723 -4.16877 0.806139 0
M  V30 5684 O 532.747 -3.48373 0.742597 0
M  V30 5685 O 531.606 -5.39166 0.892345 0
M  V30 5686 H 528.7 -0.820952 0.0998378 0
M  V30 5687 H 531.246 -1.42409 0.922913 0
M  V30 5688 H 530.018 -3.45254 1.84162 0
M  V30 5689 H 529.641 -3.97062 0.206731 0
M  V30 5690 N 530.638 -0.59345 -1.46 0
M  V30 5691 C 531.884 -0.0916503 -2.03193 0
M  V30 5692 C 532.239 1.25839 -1.45541 0
M  V30 5693 O 531.532 1.81455 -0.615191 0
M  V30 5694 C 531.726 0.021178 -3.57394 0
M  V30 5695 C 531.555 -1.31638 -4.30002 0
M  V30 5696 C 530.325 -1.89336 -4.68487 0
M  V30 5697 C 532.523 -2.242 -4.62859 0
M  V30 5698 N 530.505 -3.1672 -5.25891 0
M  V30 5699 C 531.876 -3.36175 -5.20948 0
M  V30 5700 C 533.931 -2.23748 -4.44794 0
M  V30 5701 C 532.634 -4.47844 -5.62875 0
M  V30 5702 C 534.66 -3.34454 -4.87744 0
M  V30 5703 C 534.022 -4.4515 -5.45913 0
M  V30 5704 H 530.121 -0.0765713 -0.778242 0
M  V30 5705 H 532.705 -0.788705 -1.7801 0
M  V30 5706 H 530.876 0.687423 -3.82268 0
M  V30 5707 H 532.608 0.528343 -4.01236 0
M  V30 5708 H 529.363 -1.42704 -4.51589 0
M  V30 5709 H 529.787 -3.81746 -5.59106 0
M  V30 5710 H 534.429 -1.39433 -3.99147 0
M  V30 5711 H 532.147 -5.32894 -6.07495 0
M  V30 5712 H 535.733 -3.35234 -4.75509 0
M  V30 5713 H 534.613 -5.29398 -5.78539 0
M  V30 5714 N 532.116 1.54067 -0.331816 0
M  V30 5715 C 533.532 1.59587 0.0205388 0
M  V30 5716 C 533.732 1.34813 1.49759 0
M  V30 5717 O 532.788 1.13661 2.25471 0
M  V30 5718 C 534.101 2.97959 -0.405103 0
M  V30 5719 C 535.649 3.10964 -0.356454 0
M  V30 5720 C 536.124 4.51694 -0.757384 0
M  V30 5721 N 537.615 4.57709 -0.71111 0
M  V30 5722 C 538.35 5.64729 -0.993427 0
M  V30 5723 N 537.846 6.79652 -1.3433 0
M  V30 5724 N 539.639 5.54546 -0.918442 0
M  V30 5725 H 531.79 1.68426 -1.29407 0
M  V30 5726 H 534.053 0.78819 -0.526745 0
M  V30 5727 H 533.759 3.21115 -1.43451 0
M  V30 5728 H 533.633 3.76524 0.225692 0
M  V30 5729 H 536.02 2.87538 0.663763 0
M  V30 5730 H 536.101 2.34484 -1.02229 0
M  V30 5731 H 535.745 4.75853 -1.77555 0
M  V30 5732 H 535.675 5.26555 -0.0691444 0
M  V30 5733 H 538.166 3.75176 -0.452883 0
M  V30 5734 H 538.479 7.57221 -1.54388 0
M  V30 5735 H 536.824 6.81128 -1.38164 0
M  V30 5736 H 540.015 4.63641 -0.644536 0
M  V30 5737 H 540.188 6.37861 -1.14181 0
M  V30 5738 N 533.594 0.0601682 1.57485 0
M  V30 5739 C 534.504 -0.926121 2.15546 0
M  V30 5740 C 535.52 -1.33532 1.11558 0
M  V30 5741 O 536.696 -1.4104 1.4377 0
M  V30 5742 C 533.761 -2.17952 2.69625 0
M  V30 5743 C 532.822 -1.82783 3.88444 0
M  V30 5744 C 532.055 -3.02148 4.39935 0
M  V30 5745 O 532.278 -4.15803 3.90466 0
M  V30 5746 O 531.212 -2.82639 5.31412 0
M  V30 5747 H 535.038 -0.462289 3.00161 0
M  V30 5748 H 532.623 -0.162246 1.48516 0
M  V30 5749 H 534.505 -2.91474 3.04337 0
M  V30 5750 H 533.18 -2.63456 1.88077 0
M  V30 5751 H 532.087 -1.06549 3.58606 0
M  V30 5752 H 533.42 -1.42072 4.7125 0
M  V30 5753 N 535.072 -1.5615 -0.213296 0
M  V30 5754 C 536.32 -1.79191 -0.934612 0
M  V30 5755 C 536.641 -0.630112 -1.84539 0
M  V30 5756 O 535.911 0.35257 -1.92701 0
M  V30 5757 H 534.491 -0.660937 -0.348097 0
M  V30 5758 H 537.153 -1.93618 -0.22317 0
M  V30 5759 H 536.249 -2.71656 -1.53654 0
M  V30 5760 N 536.55 0.480323 -1.50102 0
M  V30 5761 C 537.46 1.60547 -1.71061 0
M  V30 5762 C 538.476 1.63564 -0.593529 0
M  V30 5763 O 539.652 1.81604 -0.870751 0
M  V30 5764 C 536.717 2.96814 -1.79171 0
M  V30 5765 C 535.778 3.04259 -3.02861 0
M  V30 5766 C 535.011 4.34027 -3.10574 0
M  V30 5767 O 535.234 5.24009 -2.25323 0
M  V30 5768 O 534.168 4.46873 -4.03223 0
M  V30 5769 H 537.994 1.45788 -2.6642 0
M  V30 5770 H 535.579 0.658838 -1.34088 0
M  V30 5771 H 537.461 3.77765 -1.86738 0
M  V30 5772 H 536.136 3.11791 -0.869947 0
M  V30 5773 H 535.043 2.22419 -3.008 0
M  V30 5774 H 536.376 2.94216 -3.94586 0
M  V30 5775 N 538.028 1.39524 0.732853 0
M  V30 5776 C 539.444 1.21176 1.03868 0
M  V30 5777 C 539.644 0.0748448 2.01361 0
M  V30 5778 O 538.7 -0.57281 2.45917 0
M  V30 5779 C 540.013 2.54667 1.59892 0
M  V30 5780 C 541.561 2.6153 1.71962 0
M  V30 5781 C 542.036 3.95248 2.31394 0
M  V30 5782 N 543.527 3.96899 2.38801 0
M  V30 5783 C 544.262 4.97138 2.85729 0
M  V30 5784 N 543.758 6.07775 3.32537 0
M  V30 5785 N 545.551 4.84516 2.84957 0
M  V30 5786 H 537.702 2.12225 0.086304 0
M  V30 5787 H 539.965 0.942614 0.100907 0
M  V30 5788 H 539.671 3.38423 0.95721 0
M  V30 5789 H 539.545 2.74538 2.58668 0
M  V30 5790 H 541.932 1.78156 2.35254 0
M  V30 5791 H 542.013 2.45507 0.718327 0
M  V30 5792 H 541.657 4.79054 1.68729 0
M  V30 5793 H 541.587 4.08593 3.32204 0
M  V30 5794 H 544.078 3.16998 2.05719 0
M  V30 5795 H 544.391 6.8017 3.66862 0
M  V30 5796 H 542.736 6.11366 3.30541 0
M  V30 5797 H 545.927 3.97185 2.47713 0
M  V30 5798 H 546.1 5.62783 3.21215 0
M  V30 5799 N 539.506 -0.963266 1.24736 0
M  V30 5800 C 540.736 -1.73913 1.11524 0
M  V30 5801 C 541.144 -1.86218 -0.334612 0
M  V30 5802 O 540.487 -1.3531 -1.24245 0
M  V30 5803 C 540.549 -3.17501 1.68622 0
M  V30 5804 C 540.213 -3.28655 3.17546 0
M  V30 5805 C 541.21 -3.13637 4.14642 0
M  V30 5806 C 538.895 -3.52753 3.5759 0
M  V30 5807 C 540.889 -3.2255 5.49764 0
M  V30 5808 C 538.576 -3.61303 4.92852 0
M  V30 5809 C 539.574 -3.46214 5.88748 0
M  V30 5810 O 539.262 -3.5443 7.2155 0
M  V30 5811 H 538.994 -0.552057 0.390139 0
M  V30 5812 H 541.548 -1.2177 1.65412 0
M  V30 5813 H 539.778 -3.70969 1.09172 0
M  V30 5814 H 541.467 -3.76914 1.50635 0
M  V30 5815 H 542.233 -2.94899 3.85045 0
M  V30 5816 H 538.112 -3.63561 2.83451 0
M  V30 5817 H 541.656 -3.1069 6.24594 0
M  V30 5818 H 537.553 -3.79556 5.22118 0
M  V30 5819 H 538.321 -3.71116 7.29531 0
M  V30 5820 N 540.985 -1.06182 -1.16461 0
M  V30 5821 C 542.232 -0.777863 -1.86964 0
M  V30 5822 C 542.56 0.695602 -1.81636 0
M  V30 5823 O 541.815 1.52532 -1.22607 0
M  V30 5824 C 542.114 -1.21633 -3.36066 0
M  V30 5825 C 541.78 -2.69371 -3.61594 0
M  V30 5826 C 540.442 -3.09727 -3.6827 0
M  V30 5827 C 542.794 -3.64791 -3.7226 0
M  V30 5828 C 540.122 -4.44345 -3.83112 0
M  V30 5829 C 542.474 -4.99155 -3.88623 0
M  V30 5830 C 541.138 -5.39149 -3.93541 0
M  V30 5831 H 540.408 -0.28464 -0.68415 0
M  V30 5832 H 543.055 -1.33071 -1.37711 0
M  V30 5833 H 541.36 -0.582651 -3.87443 0
M  V30 5834 H 543.057 -0.973682 -3.88999 0
M  V30 5835 H 539.647 -2.37124 -3.57029 0
M  V30 5836 H 543.831 -3.34746 -3.66413 0
M  V30 5837 H 539.087 -4.74819 -3.85172 0
M  V30 5838 H 543.261 -5.72976 -3.95817 0
M  V30 5839 H 540.888 -6.43464 -4.04794 0
M  V30 5840 N 542.463 1.3308 -0.844243 0
M  V30 5841 C 543.396 2.27075 -0.226279 0
M  V30 5842 C 544.374 1.49911 0.629716 0
M  V30 5843 O 545.558 1.79068 0.588803 0
M  V30 5844 C 542.685 3.31767 0.681782 0
M  V30 5845 C 541.731 4.26384 -0.0994565 0
M  V30 5846 S 542.564 5.15186 -1.46094 0
M  V30 5847 C 543.72 6.23405 -0.558319 0
M  V30 5848 H 543.953 2.79141 -1.02312 0
M  V30 5849 H 541.486 1.40452 -0.641292 0
M  V30 5850 H 543.444 3.92566 1.20008 0
M  V30 5851 H 542.105 2.78507 1.45234 0
M  V30 5852 H 541.298 5.00514 0.591733 0
M  V30 5853 H 540.9 3.69949 -0.548991 0
M  V30 5854 H 543.192 6.77069 0.241672 0
M  V30 5855 H 544.135 6.96619 -1.26995 0
M  V30 5856 H 544.543 5.64333 -0.13728 0
M  V30 5857 N 543.941 0.601185 1.45683 0
M  V30 5858 C 545.166 0.0982245 2.07167 0
M  V30 5859 C 545.591 -1.20546 1.44396 0
M  V30 5860 O 544.949 -1.73247 0.534347 0
M  V30 5861 C 544.997 -0.0346976 3.60583 0
M  V30 5862 O 544.101 -1.08657 3.97828 0
M  V30 5863 H 543.442 0.0711618 0.660176 0
M  V30 5864 H 545.972 0.829376 1.87036 0
M  V30 5865 H 545.982 -0.234969 4.07323 0
M  V30 5866 H 544.657 0.917265 4.05659 0
M  V30 5867 H 543.234 -0.863275 3.6277 0
M  V30 5868 N 545.419 -1.53889 0.339982 0
M  V30 5869 C 546.351 -2.22435 -0.55275 0
M  V30 5870 C 547.364 -1.22975 -1.06681 0
M  V30 5871 O 548.553 -1.49351 -0.977575 0
M  V30 5872 C 545.653 -2.8882 -1.77302 0
M  V30 5873 C 544.826 -4.14563 -1.39486 0
M  V30 5874 C 543.885 -4.64391 -2.47442 0
M  V30 5875 O 542.911 -5.28687 -2.10899 0
M  V30 5876 N 544.113 -4.40015 -3.78639 0
M  V30 5877 H 546.878 -2.9968 0.0342669 0
M  V30 5878 H 544.439 -1.61068 0.16394 0
M  V30 5879 H 546.431 -3.19072 -2.48948 0
M  V30 5880 H 545.001 -2.15182 -2.26749 0
M  V30 5881 H 544.221 -3.90896 -0.509321 0
M  V30 5882 H 545.509 -4.96362 -1.11813 0
M  V30 5883 H 544.907 -3.88586 -4.11118 0
M  V30 5884 H 543.464 -4.74881 -4.46465 0
M  V30 5885 N 546.897 -0.0685191 -1.57451 0
M  V30 5886 C 547.827 0.89747 -2.15564 0
M  V30 5887 C 548.808 1.31266 -1.08181 0
M  V30 5888 O 549.993 1.38429 -1.36202 0
M  V30 5889 C 547.123 2.16623 -2.71463 0
M  V30 5890 C 546.077 1.89054 -3.83982 0
M  V30 5891 C 545.403 3.22532 -4.26471 0
M  V30 5892 C 546.703 1.1984 -5.08366 0
M  V30 5893 H 548.397 0.413373 -2.96533 0
M  V30 5894 H 545.943 0.197391 -1.42641 0
M  V30 5895 H 547.896 2.84614 -3.10761 0
M  V30 5896 H 546.62 2.67269 -1.8771 0
M  V30 5897 H 545.279 1.23469 -3.45183 0
M  V30 5898 H 544.927 3.71013 -3.39644 0
M  V30 5899 H 544.627 3.04879 -5.02317 0
M  V30 5900 H 546.151 3.91727 -4.68383 0
M  V30 5901 H 547.565 1.77896 -5.45001 0
M  V30 5902 H 545.962 1.12456 -5.89469 0
M  V30 5903 H 547.032 0.176996 -4.84577 0
M  V30 5904 N 548.375 1.56261 0.205012 0
M  V30 5905 C 549.624 1.79236 0.925058 0
M  V30 5906 C 549.937 0.640011 1.84833 0
M  V30 5907 O 551.143 0.753809 2.60826 0
M  V30 5908 C 549.599 3.17475 1.69522 0
M  V30 5909 C 549.207 4.40482 0.817269 0
M  V30 5910 C 550.951 3.49766 2.4055 0
M  V30 5911 C 548.858 5.69744 1.58573 0
M  V30 5912 H 547.788 0.668287 0.349153 0
M  V30 5913 H 550.439 1.82629 0.178544 0
M  V30 5914 H 548.821 3.08304 2.48526 0
M  V30 5915 H 549.995 4.60752 0.0665988 0
M  V30 5916 H 548.31 4.15827 0.218316 0
M  V30 5917 H 550.907 4.43573 2.98575 0
M  V30 5918 H 551.25 2.73041 3.14252 0
M  V30 5919 H 551.783 3.60341 1.68522 0
M  V30 5920 H 548.522 6.49407 0.891679 0
M  V30 5921 H 548.042 5.53509 2.31059 0
M  V30 5922 H 549.721 6.1051 2.14212 0
M  V30 5923 N 549.853 -0.472356 1.50355 0
M  V30 5924 C 551.13 -1.23356 1.51798 0
M  V30 5925 C 551.51 -2.09469 0.26193 0
M  V30 5926 O 550.858 -2.15677 -0.754691 0
M  V30 5927 C 551.068 -2.06568 2.81302 0
M  V30 5928 C 552.416 -2.648 3.31913 0
M  V30 5929 O 553.44 -2.16812 2.82614 0
M  V30 5930 O 552.299 -3.52231 4.17846 0
M  V30 5931 H 549.393 -0.559707 0.608816 0
M  V30 5932 H 551.939 -0.48428 1.62643 0
M  V30 5933 H 550.711 -1.43103 3.64194 0
M  V30 5934 H 550.334 -2.88633 2.73454 0
M  V30 5935 N 551.331 -1.39911 -0.725443 0
M  V30 5936 C 552.579 -1.37382 -1.48224 0
M  V30 5937 C 552.9 0.0264107 -1.94982 0
M  V30 5938 O 552.17 0.979408 -1.6966 0
M  V30 5939 H 550.75 -0.505596 -0.549892 0
M  V30 5940 H 553.412 -1.7487 -0.860608 0
M  V30 5941 H 552.508 -2.04254 -2.3598 0
M  V30 5942 N 552.809 0.956637 -1.25245 0
M  V30 5943 C 554.086 1.67716 -1.00651 0
M  V30 5944 C 554.466 2.0585 0.467866 0
M  V30 5945 O 553.814 1.77029 1.44475 0
M  V30 5946 C 554.024 2.90093 -1.94028 0
M  V30 5947 C 555.372 3.6209 -2.21756 0
M  V30 5948 O 556.396 3.00171 -1.9177 0
M  V30 5949 O 555.255 4.7358 -2.72735 0
M  V30 5950 H 552.349 0.733731 -0.381533 0
M  V30 5951 H 554.895 1.00974 -1.3639 0
M  V30 5952 H 553.667 2.58689 -2.93591 0
M  V30 5953 H 553.29 3.64566 -1.58674 0
M  V30 5954 N 554.287 1.06798 1.15896 0
M  V30 5955 C 555.217 0.704677 2.22613 0
M  V30 5956 C 556.198 -0.305252 1.67339 0
M  V30 5957 O 557.383 -0.179247 1.93371 0
M  V30 5958 C 554.513 0.0957325 3.47168 0
M  V30 5959 C 553.467 1.0322 4.15367 0
M  V30 5960 C 552.793 0.286293 5.33933 0
M  V30 5961 C 554.093 2.36341 4.65768 0
M  V30 5962 H 555.787 1.59688 2.53259 0
M  V30 5963 H 553.333 0.769257 1.21731 0
M  V30 5964 H 555.286 -0.170333 4.21056 0
M  V30 5965 H 554.01 -0.831516 3.15838 0
M  V30 5966 H 552.669 1.28309 3.43413 0
M  V30 5967 H 552.317 -0.644237 4.98857 0
M  V30 5968 H 552.017 0.910436 5.80504 0
M  V30 5969 H 553.541 0.0278938 6.10594 0
M  V30 5970 H 554.955 2.1561 5.31211 0
M  V30 5971 H 553.352 2.94299 5.2298 0
M  V30 5972 H 554.422 2.99047 3.81705 0
M  V30 5973 N 555.766 -1.3263 0.851289 0
M  V30 5974 C 556.729 -2.27247 0.298541 0
M  V30 5975 C 557.729 -1.51467 -0.539847 0
M  V30 5976 O 558.919 -1.7061 -0.351843 0
M  V30 5977 C 556.051 -3.35964 -0.578004 0
M  V30 5978 H 557.244 -2.7765 1.13359 0
M  V30 5979 H 554.797 -1.43245 0.625354 0
M  V30 5980 H 555.532 -2.90823 -1.435 0
M  V30 5981 H 555.317 -3.92094 0.0220539 0
M  V30 5982 H 556.807 -4.06472 -0.957626 0
M  V30 5983 N 557.244 -0.608902 -1.45362 0
M  V30 5984 C 558.207 0.0992563 -2.28985 0
M  V30 5985 C 559.207 0.793841 -1.39838 0
M  V30 5986 O 560.397 0.641804 -1.61946 0
M  V30 5987 C 557.529 1.15073 -3.20891 0
M  V30 5988 H 558.722 -0.635964 -2.93079 0
M  V30 5989 H 556.275 -0.368007 -1.51906 0
M  V30 5990 H 557.01 1.91667 -2.616 0
M  V30 5991 H 556.795 0.656867 -3.86559 0
M  V30 5992 H 558.285 1.64665 -3.83765 0
M  V30 5993 N 558.722 1.53707 -0.348139 0
M  V30 5994 C 559.67 2.26671 0.521808 0
M  V30 5995 C 560.664 1.28988 1.09811 0
M  V30 5996 O 561.87 1.4668 1.04332 0
M  V30 5997 H 558.245 0.728387 0.186968 0
M  V30 5998 H 560.216 2.98176 -0.115563 0
M  V30 5999 C 558.965 3.05591 1.6586 0
M  V30 6000 H 558.288 3.80589 1.22443 0
M  V30 6001 H 559.728 3.59851 2.24239 0
M  V30 6002 C 558.187 2.15366 2.59073 0
M  V30 6003 O 558.717 1.7528 3.61441 0
M  V30 6004 N 556.923 1.80352 2.27863 0
M  V30 6005 H 556.47 2.13149 1.44656 0
M  V30 6006 H 556.428 1.20268 2.90488 0
M  V30 6007 N 560.2 0.0768682 1.57412 0
M  V30 6008 C 561.148 -0.906229 2.1422 0
M  V30 6009 C 562.142 -1.30477 1.08037 0
M  V30 6010 O 563.348 -1.28143 1.2641 0
M  V30 6011 H 559.723 -0.310207 0.685037 0
M  V30 6012 H 561.694 -0.402228 2.95677 0
M  V30 6013 C 560.443 -2.16245 2.72274 0
M  V30 6014 H 559.766 -1.86463 3.53655 0
M  V30 6015 H 561.206 -2.83134 3.15613 0
M  V30 6016 C 559.665 -2.92437 1.67279 0
M  V30 6017 O 560.195 -3.86322 1.10081 0
M  V30 6018 N 558.401 -2.55637 1.38195 0
M  V30 6019 H 557.948 -1.79363 1.84897 0
M  V30 6020 H 557.906 -3.06919 0.681787 0
M  V30 6021 N 561.678 -1.56367 -0.196722 0
M  V30 6022 C 562.926 -1.80172 -0.915554 0
M  V30 6023 C 563.247 -0.649649 -1.8386 0
M  V30 6024 O 562.517 0.332111 -1.93064 0
M  V30 6025 H 561.097 -0.664592 -0.341067 0
M  V30 6026 H 563.759 -1.93844 -0.202622 0
M  V30 6027 H 562.855 -2.7327 -1.50764 0
M  V30 6028 N 563.156 0.464375 -1.50603 0
M  V30 6029 C 564.404 1.21356 -1.61608 0
M  V30 6030 C 564.725 1.92329 -0.321643 0
M  V30 6031 O 563.995 1.84403 0.661232 0
M  V30 6032 H 562.575 0.45094 -0.595535 0
M  V30 6033 H 565.237 0.535046 -1.87412 0
M  V30 6034 H 564.333 1.95783 -2.43054 0
M  V30 6035 N 564.634 1.40294 0.718013 0
M  V30 6036 C 565.88 1.39648 1.47885 0
M  V30 6037 C 566.235 -0.0023879 1.924 0
M  V30 6038 O 565.528 -0.972304 1.65096 0
M  V30 6039 C 565.722 2.31814 2.72024 0
M  V30 6040 C 565.551 3.80523 2.3965 0
M  V30 6041 C 564.321 4.49351 2.3111 0
M  V30 6042 C 566.519 4.72077 2.04079 0
M  V30 6043 N 564.501 5.83305 1.91385 0
M  V30 6044 C 565.872 5.94809 1.74935 0
M  V30 6045 C 567.927 4.59935 1.90694 0
M  V30 6046 C 566.63 7.06755 1.33753 0
M  V30 6047 C 568.656 5.7182 1.50915 0
M  V30 6048 C 568.018 6.93637 1.22668 0
M  V30 6049 H 564.117 0.566263 0.539324 0
M  V30 6050 H 566.701 1.75986 0.832891 0
M  V30 6051 H 564.872 1.97607 3.34374 0
M  V30 6052 H 566.604 2.22042 3.38348 0
M  V30 6053 H 563.359 4.03002 2.4877 0
M  V30 6054 H 563.783 6.54239 1.74068 0
M  V30 6055 H 568.425 3.66274 2.11194 0
M  V30 6056 H 566.143 8.00302 1.11995 0
M  V30 6057 H 569.729 5.64421 1.4114 0
M  V30 6058 H 568.609 7.78743 0.923502 0
M  V30 6059 N 566.112 -0.949982 1.2575 0
M  V30 6060 C 567.044 -2.05088 1.02331 0
M  V30 6061 C 568.057 -1.62795 -0.0133247 0
M  V30 6062 O 569.246 -1.77067 0.225759 0
M  V30 6063 C 566.346 -3.34794 0.525924 0
M  V30 6064 C 565.519 -4.05903 1.62978 0
M  V30 6065 C 564.578 -5.1388 1.13196 0
M  V30 6066 O 563.604 -5.39072 1.82729 0
M  V30 6067 N 564.806 -5.80495 -0.0242926 0
M  V30 6068 H 567.571 -2.25747 1.97125 0
M  V30 6069 H 565.132 -1.11886 1.17018 0
M  V30 6070 H 567.124 -4.04312 0.177263 0
M  V30 6071 H 565.694 -3.10872 -0.328202 0
M  V30 6072 H 564.914 -3.3042 2.1498 0
M  V30 6073 H 566.202 -4.50166 2.37124 0
M  V30 6074 H 565.6 -5.62454 -0.605184 0
M  V30 6075 H 564.157 -6.51043 -0.313947 0
M  V30 6076 N 567.59 -1.07411 -1.15328 0
M  V30 6077 C 568.836 -0.808666 -1.86634 0
M  V30 6078 C 569.191 0.65816 -1.80793 0
M  V30 6079 O 568.484 1.47689 -1.22059 0
M  V30 6080 C 568.678 -1.25191 -3.34757 0
M  V30 6081 C 568.507 -2.76028 -3.55019 0
M  V30 6082 C 567.277 -3.43644 -3.70455 0
M  V30 6083 C 569.475 -3.74224 -3.5279 0
M  V30 6084 N 567.457 -4.83117 -3.78776 0
M  V30 6085 C 568.828 -4.9954 -3.67233 0
M  V30 6086 C 570.883 -3.67373 -3.36068 0
M  V30 6087 C 569.586 -6.18819 -3.66682 0
M  V30 6088 C 571.612 -4.86116 -3.36816 0
M  V30 6089 C 570.974 -6.10266 -3.51789 0
M  V30 6090 H 567.073 -0.348478 -0.700062 0
M  V30 6091 H 569.657 -1.37049 -1.38295 0
M  V30 6092 H 567.828 -0.717775 -3.8171 0
M  V30 6093 H 569.56 -0.933936 -3.93776 0
M  V30 6094 H 566.315 -2.94051 -3.71256 0
M  V30 6095 H 566.739 -5.55705 -3.86679 0
M  V30 6096 H 571.381 -2.72334 -3.2341 0
M  V30 6097 H 569.099 -7.14179 -3.78118 0
M  V30 6098 H 572.685 -4.82492 -3.25103 0
M  V30 6099 H 571.565 -7.00609 -3.52301 0
M  V30 6100 N 569.068 1.32177 -0.85831 0
M  V30 6101 C 570.031 2.27086 -0.310588 0
M  V30 6102 C 571.031 1.51751 0.531806 0
M  V30 6103 O 572.221 1.70794 0.34279 0
M  V30 6104 C 569.353 3.36266 0.560179 0
M  V30 6105 H 570.546 2.77045 -1.1483 0
M  V30 6106 H 568.099 1.42911 -0.632942 0
M  V30 6107 H 568.834 2.9158 1.41956 0
M  V30 6108 H 568.619 3.92077 -0.0428473 0
M  V30 6109 H 570.109 4.06974 0.936056 0
M  V30 6110 N 570.547 0.616602 1.45037 0
M  V30 6111 C 571.51 -0.0871112 2.29034 0
M  V30 6112 C 572.51 -0.786414 1.40258 0
M  V30 6113 O 573.7 -0.633207 1.62284 0
M  V30 6114 C 570.832 -1.13369 3.21497 0
M  V30 6115 H 572.025 0.651497 2.92738 0
M  V30 6116 H 569.578 0.376058 1.51709 0
M  V30 6117 H 570.313 -1.90277 2.62612 0
M  V30 6118 H 570.098 -0.636358 3.86902 0
M  V30 6119 H 571.588 -1.62627 3.84633 0
M  V30 6120 N 572.025 -1.5352 0.356285 0
M  V30 6121 C 573.25 -2.06007 -0.239961 0
M  V30 6122 C 573.675 -1.22872 -1.42422 0
M  V30 6123 O 573.033 -0.245516 -1.7963 0
M  V30 6124 C 573.081 -3.5522 -0.620587 0
M  V30 6125 O 572.185 -3.74864 -1.71902 0
M  V30 6126 H 571.526 -0.662961 -0.0371377 0
M  V30 6127 H 574.056 -1.98033 0.514194 0
M  V30 6128 H 574.066 -3.98081 -0.894197 0
M  V30 6129 H 572.741 -4.15175 0.245407 0
M  V30 6130 H 571.318 -3.43904 -1.44169 0
M  V30 6131 N 573.503 -0.0852151 -1.57369 0
M  V30 6132 C 574.731 0.58946 -1.98325 0
M  V30 6133 C 575.146 1.62333 -0.96403 0
M  V30 6134 O 574.503 1.82438 0.0476395 0
M  V30 6135 C 574.554 1.24604 -3.39347 0
M  V30 6136 O 574.275 0.253532 -4.37366 0
M  V30 6137 C 575.776 2.00726 -3.95252 0
M  V30 6138 H 572.996 0.158783 -0.651942 0
M  V30 6139 H 575.54 -0.161584 -2.03861 0
M  V30 6140 H 573.695 1.94808 -3.34856 0
M  V30 6141 H 574.109 0.726207 -5.19448 0
M  V30 6142 H 575.583 2.42039 -4.96106 0
M  V30 6143 H 576.06 2.86919 -3.32527 0
M  V30 6144 H 576.666 1.3536 -4.03185 0
M  V30 6145 N 574.981 1.5647 0.188427 0
M  V30 6146 C 576.229 1.80655 0.905986 0
M  V30 6147 C 576.55 0.659391 1.83513 0
M  V30 6148 O 575.82 -0.321868 1.93238 0
M  V30 6149 H 574.4 0.666391 0.337538 0
M  V30 6150 H 577.062 1.93949 0.192339 0
M  V30 6151 H 576.158 2.74066 1.49313 0
M  V30 6152 N 576.459 -0.456382 1.50847 0
M  V30 6153 C 577.687 -1.23026 1.66349 0
M  V30 6154 C 578.102 -1.85473 0.352868 0
M  V30 6155 O 577.459 -1.69885 -0.666739 0
M  V30 6156 C 577.51 -2.32827 2.76539 0
M  V30 6157 O 577.231 -1.72938 4.02522 0
M  V30 6158 C 578.732 -3.23448 3.03144 0
M  V30 6159 H 575.952 -0.371527 0.558756 0
M  V30 6160 H 578.496 -0.543082 1.97157 0
M  V30 6161 H 576.651 -2.97294 2.48384 0
M  V30 6162 H 577.065 -2.45357 4.63573 0
M  V30 6163 H 578.539 -3.96669 3.83872 0
M  V30 6164 H 579.016 -3.83094 2.14793 0
M  V30 6165 H 579.622 -2.64702 3.32886 0
M  V30 6166 N 577.937 -1.40673 -0.710563 0
M  V30 6167 C 579.214 -1.29718 -1.46398 0
M  V30 6168 C 579.594 0.082177 -2.1094 0
M  V30 6169 O 578.942 1.09536 -2.00534 0
M  V30 6170 C 579.152 -2.43967 -2.49562 0
M  V30 6171 C 580.5 -2.84436 -3.15248 0
M  V30 6172 O 581.524 -2.43597 -2.59883 0
M  V30 6173 O 580.383 -3.55008 -4.1549 0
M  V30 6174 H 577.477 -0.509697 -0.651258 0
M  V30 6175 H 580.023 -1.52603 -0.742312 0
M  V30 6176 H 578.795 -3.36076 -2.0042 0
M  V30 6177 H 578.418 -2.22879 -3.29258 0
M  V30 6178 N 579.415 0.9433 -1.26252 0
M  V30 6179 C 580.378 2.02326 -1.07689 0
M  V30 6180 C 581.378 1.60779 -0.0259174 0
M  V30 6181 O 582.568 1.72108 -0.269134 0
M  V30 6182 C 579.7 3.34886 -0.63752 0
M  V30 6183 H 580.893 2.20225 -2.0357 0
M  V30 6184 H 578.446 1.12197 -1.08819 0
M  V30 6185 H 579.181 3.22684 0.323377 0
M  V30 6186 H 578.966 3.66393 -1.39637 0
M  V30 6187 H 580.456 4.14231 -0.529418 0
M  V30 6188 N 580.893 1.08022 1.14757 0
M  V30 6189 C 581.856 0.71048 2.1791 0
M  V30 6190 C 582.856 -0.252731 1.58801 0
M  V30 6191 O 584.046 -0.0327915 1.74169 0
M  V30 6192 C 581.178 0.0483203 3.40866 0
M  V30 6193 H 582.371 1.62384 2.52134 0
M  V30 6194 H 579.924 0.877595 1.29337 0
M  V30 6195 H 580.659 -0.876959 3.12218 0
M  V30 6196 H 580.444 0.741189 3.85031 0
M  V30 6197 H 581.934 -0.195471 4.17142 0
M  V30 6198 N 582.371 -1.3172 0.865308 0
M  V30 6199 C 583.782 -1.79104 0.527126 0
M  V30 6200 C 584.133 -1.7135 -0.955695 0
M  V30 6201 O 583.258 -1.27845 -1.74598 0
M  V30 6202 C 583.853 -3.25207 0.950061 0
M  V30 6203 C 582.412 -3.70504 0.663611 0
M  V30 6204 C 581.559 -2.52605 1.14395 0
M  V30 6205 H 584.51 -1.18868 1.05148 0
M  V30 6206 H 584.531 -3.79535 0.270805 0
M  V30 6207 H 584.043 -3.30818 2.02931 0
M  V30 6208 H 582.144 -3.70398 -0.404474 0
M  V30 6209 H 582.257 -4.62845 1.23737 0
M  V30 6210 H 580.621 -2.4838 0.563859 0
M  V30 6211 H 581.404 -2.60964 2.23053 0
M  V30 6212 N 583.85 -0.624285 -1.44708 0
M  V30 6213 C 585.08 -0.132726 -2.06173 0
M  V30 6214 C 585.488 1.19513 -1.46674 0
M  V30 6215 O 584.831 1.74254 -0.581491 0
M  V30 6216 C 584.893 0.0636732 -3.59444 0
M  V30 6217 C 584.557 -1.18496 -4.4137 0
M  V30 6218 C 585.553 -2.10706 -4.75288 0
M  V30 6219 C 583.239 -1.41846 -4.81856 0
M  V30 6220 C 585.233 -3.24582 -5.48567 0
M  V30 6221 C 582.92 -2.5602 -5.54885 0
M  V30 6222 C 583.918 -3.47215 -5.88159 0
M  V30 6223 O 583.606 -4.59399 -6.59703 0
M  V30 6224 H 583.338 -0.0737313 -0.671967 0
M  V30 6225 H 585.892 -0.856789 -1.86677 0
M  V30 6226 H 584.122 0.842809 -3.77404 0
M  V30 6227 H 585.811 0.508924 -4.02697 0
M  V30 6228 H 586.577 -1.93898 -4.44554 0
M  V30 6229 H 582.456 -0.717556 -4.55381 0
M  V30 6230 H 586 -3.95785 -5.74456 0
M  V30 6231 H 581.897 -2.72774 -5.85034 0
M  V30 6232 H 582.665 -4.58293 -6.78166 0
M  V30 6233 N 585.328 1.53329 -0.364422 0
M  V30 6234 C 586.575 2.01239 0.225634 0
M  V30 6235 C 586.903 1.25172 1.48869 0
M  V30 6236 O 586.158 0.333289 1.92841 0
M  V30 6237 C 586.457 3.52911 0.564661 0
M  V30 6238 C 586.123 4.46837 -0.603936 0
M  V30 6239 C 584.785 4.72234 -0.924585 0
M  V30 6240 C 587.137 5.02409 -1.38691 0
M  V30 6241 C 584.465 5.50454 -2.0302 0
M  V30 6242 C 586.817 5.81836 -2.48293 0
M  V30 6243 C 585.481 6.0552 -2.80894 0
M  V30 6244 H 584.751 0.736386 0.0825654 0
M  V30 6245 H 587.398 1.84948 -0.496645 0
M  V30 6246 H 585.703 3.67144 1.36794 0
M  V30 6247 H 587.4 3.87455 1.03344 0
M  V30 6248 H 583.99 4.27217 -0.343983 0
M  V30 6249 H 588.174 4.82735 -1.15243 0
M  V30 6250 H 583.43 5.67024 -2.28678 0
M  V30 6251 H 587.604 6.23905 -3.0938 0
M  V30 6252 H 585.231 6.65916 -3.66688 0
M  V30 6253 N 586.806 0.0935595 1.57322 0
M  V30 6254 C 588.222 -0.263091 1.57417 0
M  V30 6255 C 588.422 -1.68526 1.1046 0
M  V30 6256 O 587.478 -2.40139 0.780357 0
M  V30 6257 C 588.791 -0.0529201 3.00653 0
M  V30 6258 C 590.339 -0.120788 3.12767 0
M  V30 6259 C 590.814 0.0613707 4.57959 0
M  V30 6260 N 592.305 0.00648534 4.632 0
M  V30 6261 C 593.04 0.122699 5.73269 0
M  V30 6262 N 592.536 0.29366 6.92177 0
M  V30 6263 N 594.329 0.0640787 5.62063 0
M  V30 6264 H 586.48 1.02277 1.86154 0
M  V30 6265 H 588.743 0.4007 0.859153 0
M  V30 6266 H 588.449 0.929279 3.39201 0
M  V30 6267 H 588.323 -0.795899 3.68708 0
M  V30 6268 H 590.71 -1.09349 2.74093 0
M  V30 6269 H 590.791 0.653656 2.47307 0
M  V30 6270 H 590.435 1.03093 4.97327 0
M  V30 6271 H 590.365 -0.732748 5.21477 0
M  V30 6272 H 592.856 -0.123173 3.77699 0
M  V30 6273 H 593.169 0.37389 7.71895 0
M  V30 6274 H 591.514 0.329307 6.94219 0
M  V30 6275 H 594.705 -0.0683396 4.6805 0
M  V30 6276 H 594.878 0.158097 6.47807 0
M  V30 6277 N 588.284 -1.56567 -0.180126 0
M  V30 6278 C 589.533 -1.80685 -0.896426 0
M  V30 6279 C 589.846 -0.669335 -1.83791 0
M  V30 6280 O 591.052 -0.795209 -2.59593 0
M  V30 6281 C 589.508 -3.20132 -1.6445 0
M  V30 6282 C 589.116 -4.41727 -0.747088 0
M  V30 6283 C 590.86 -3.53549 -2.34955 0
M  V30 6284 C 588.767 -5.72195 -1.49489 0
M  V30 6285 H 587.697 -0.673758 -0.338477 0
M  V30 6286 H 590.348 -1.8289 -0.149467 0
M  V30 6287 H 588.73 -3.12218 -2.43589 0
M  V30 6288 H 589.904 -4.608 0.00671129 0
M  V30 6289 H 588.219 -4.16122 -0.152134 0
M  V30 6290 H 590.816 -4.48267 -2.91481 0
M  V30 6291 H 591.159 -2.78006 -3.09868 0
M  V30 6292 H 591.692 -3.62976 -1.62768 0
M  V30 6293 H 588.431 -6.50743 -0.788251 0
M  V30 6294 H 587.951 -5.57115 -2.22224 0
M  V30 6295 H 589.63 -6.1384 -2.04472 0
M  V30 6296 N 589.762 0.448376 -1.51087 0
M  V30 6297 C 591.009 1.19872 -1.63209 0
M  V30 6298 C 591.337 1.91451 -0.343062 0
M  V30 6299 O 590.592 1.83789 0.672321 0
M  V30 6300 C 590.891 2.24866 -2.77795 0
M  V30 6301 C 590.557 1.70378 -4.17471 0
M  V30 6302 C 589.219 1.55241 -4.55471 0
M  V30 6303 C 591.571 1.30203 -5.04675 0
M  V30 6304 C 588.899 0.983844 -5.78392 0
M  V30 6305 C 591.251 0.747798 -6.28165 0
M  V30 6306 C 589.915 0.583233 -6.64947 0
M  V30 6307 H 589.185 0.438642 -0.597222 0
M  V30 6308 H 591.832 0.49136 -1.85089 0
M  V30 6309 H 590.137 3.01598 -2.50092 0
M  V30 6310 H 591.834 2.82723 -2.84374 0
M  V30 6311 H 588.424 1.83134 -3.87505 0
M  V30 6312 H 592.608 1.40723 -4.75932 0
M  V30 6313 H 587.864 0.844007 -6.05546 0
M  V30 6314 H 592.038 0.427927 -6.95084 0
M  V30 6315 H 589.665 0.140532 -7.6007 0
M  V30 6316 N 591.24 1.41047 0.703093 0
M  V30 6317 C 592.188 1.42494 1.83843 0
M  V30 6318 C 593.182 0.303885 1.66652 0
M  V30 6319 O 594.388 0.475544 1.73605 0
M  V30 6320 H 590.763 0.445685 0.605697 0
M  V30 6321 H 592.734 2.38194 1.79739 0
M  V30 6322 C 591.483 1.31666 3.21807 0
M  V30 6323 H 590.806 2.17212 3.35647 0
M  V30 6324 H 592.246 1.36738 4.01346 0
M  V30 6325 C 590.705 0.0281828 3.36888 0
M  V30 6326 O 591.235 -0.929995 3.90786 0
M  V30 6327 N 589.441 -0.0454322 2.90564 0
M  V30 6328 H 588.988 0.735046 2.4689 0
M  V30 6329 H 588.946 -0.906968 3.01034 0
M  V30 6330 N 592.718 -0.936591 1.26751 0
M  V30 6331 C 594.129 -1.49816 1.1141 0
M  V30 6332 C 594.48 -1.9383 -0.304015 0
M  V30 6333 O 593.605 -1.80346 -1.196 0
M  V30 6334 C 594.2 -2.72271 2.01629 0
M  V30 6335 C 592.759 -3.2468 1.9042 0
M  V30 6336 C 591.906 -1.97444 1.94708 0
M  V30 6337 H 594.857 -0.751604 1.39773 0
M  V30 6338 H 594.878 -3.46741 1.56688 0
M  V30 6339 H 594.39 -2.40205 3.04833 0
M  V30 6340 H 592.491 -3.61525 0.901674 0
M  V30 6341 H 592.604 -3.91476 2.76195 0
M  V30 6342 H 590.968 -2.13545 1.38818 0
M  V30 6343 H 591.751 -1.67703 2.9955 0
M  V30 6344 N 594.196 -1.08629 -1.14182 0
M  V30 6345 C 595.424 -0.838889 -1.8913 0
M  V30 6346 C 595.839 0.609153 -1.78703 0
M  V30 6347 O 595.196 1.41876 -1.14794 0
M  V30 6348 C 595.247 -1.25477 -3.39025 0
M  V30 6349 O 594.968 -2.64601 -3.49167 0
M  V30 6350 C 596.469 -1.03856 -4.30963 0
M  V30 6351 H 593.689 -0.302377 -0.599007 0
M  V30 6352 H 596.233 -1.44615 -1.44592 0
M  V30 6353 H 594.388 -0.691571 -3.81177 0
M  V30 6354 H 594.802 -2.81922 -4.42289 0
M  V30 6355 H 596.276 -1.37892 -5.345 0
M  V30 6356 H 596.753 0.0242522 -4.39193 0
M  V30 6357 H 597.359 -1.58731 -3.94569 0
M  V30 6358 N 595.674 1.31259 -0.872281 0
M  V30 6359 C 596.902 2.00795 -0.498907 0
M  V30 6360 C 597.317 1.65464 0.909238 0
M  V30 6361 O 596.674 0.885073 1.59602 0
M  V30 6362 C 596.725 3.55625 -0.649092 0
M  V30 6363 O 596.446 3.89692 -2.00179 0
M  V30 6364 C 597.947 4.42434 -0.277034 0
M  V30 6365 H 595.167 0.642299 -0.194145 0
M  V30 6366 H 597.711 1.67438 -1.17408 0
M  V30 6367 H 595.866 3.87394 -0.0214402 0
M  V30 6368 H 596.28 4.84407 -2.01122 0
M  V30 6369 H 597.754 5.50299 -0.433064 0
M  V30 6370 H 598.231 4.32146 0.783989 0
M  V30 6371 H 598.837 4.16086 -0.880483 0
M  V30 6372 N 597.152 0.631951 1.44375 0
M  V30 6373 C 598.084 -0.110911 2.28931 0
M  V30 6374 C 599.097 -0.808086 1.41329 0
M  V30 6375 O 600.286 -0.669396 1.65473 0
M  V30 6376 C 597.386 -1.17928 3.1772 0
M  V30 6377 C 596.559 -0.564458 4.33743 0
M  V30 6378 C 595.618 -1.5269 5.0356 0
M  V30 6379 O 594.644 -1.04372 5.59549 0
M  V30 6380 N 595.846 -2.86123 5.05088 0
M  V30 6381 H 598.611 0.614758 2.93327 0
M  V30 6382 H 596.172 0.473171 1.54831 0
M  V30 6383 H 598.164 -1.82348 3.61291 0
M  V30 6384 H 596.734 -1.80717 2.55069 0
M  V30 6385 H 595.954 0.258373 3.93352 0
M  V30 6386 H 597.242 -0.134355 5.08623 0
M  V30 6387 H 596.64 -3.27959 4.60933 0
M  V30 6388 H 595.197 -3.45901 5.52445 0
M  V30 6389 N 598.631 -1.53133 0.372548 0
M  V30 6390 C 599.879 -2.00958 -0.214534 0
M  V30 6391 C 600.2 -1.26135 -1.48711 0
M  V30 6392 O 599.47 -0.376597 -1.92246 0
M  V30 6393 H 598.05 -0.742456 -0.0822664 0
M  V30 6394 H 600.712 -1.88367 0.500385 0
M  V30 6395 H 599.808 -3.09031 -0.436605 0
M  V30 6396 N 600.109 -0.101901 -1.5727 0
M  V30 6397 C 601.019 0.868647 -2.17926 0
M  V30 6398 C 602.035 1.30527 -1.1506 0
M  V30 6399 O 603.211 1.37178 -1.47459 0
M  V30 6400 C 600.276 2.10727 -2.75309 0
M  V30 6401 C 599.337 1.7242 -3.93154 0
M  V30 6402 C 598.57 2.90377 -4.47791 0
M  V30 6403 O 598.793 4.05305 -4.01353 0
M  V30 6404 O 597.727 2.6845 -5.38719 0
M  V30 6405 H 601.553 0.382544 -3.01281 0
M  V30 6406 H 599.138 0.122812 -1.48894 0
M  V30 6407 H 601.02 2.83303 -3.11958 0
M  V30 6408 H 599.695 2.58376 -1.94996 0
M  V30 6409 H 598.602 0.970039 -3.61305 0
M  V30 6410 H 599.935 1.29528 -4.74851 0
M  V30 6411 N 601.587 1.56661 0.17182 0
M  V30 6412 C 602.534 1.96371 1.21273 0
M  V30 6413 C 603.504 0.82756 1.44016 0
M  V30 6414 O 604.689 1.08764 1.56764 0
M  V30 6415 C 601.829 2.32838 2.54716 0
M  V30 6416 C 600.942 3.59628 2.39356 0
M  V30 6417 C 600.077 3.85311 3.65662 0
M  V30 6418 C 599.116 5.0545 3.45234 0
M  V30 6419 N 598.253 5.27268 4.63608 0
M  V30 6420 H 603.093 2.85106 0.86709 0
M  V30 6421 H 600.63 1.41073 0.416744 0
M  V30 6422 H 602.588 2.52004 3.3249 0
M  V30 6423 H 601.218 1.47214 2.87277 0
M  V30 6424 H 600.27 3.4838 1.52761 0
M  V30 6425 H 601.582 4.4756 2.20207 0
M  V30 6426 H 600.736 4.04841 4.51872 0
M  V30 6427 H 599.475 2.95753 3.8779 0
M  V30 6428 H 598.48 4.85819 2.5741 0
M  V30 6429 H 599.705 5.96538 3.24529 0
M  V30 6430 H 597.651 4.40662 4.85956 0
M  V30 6431 H 597.568 6.09422 4.4737 0
M  V30 6432 H 598.836 5.51277 5.51103 0
M  V30 6433 N 603.065 -0.440357 1.51323 0
M  V30 6434 C 604.312 -1.19004 1.63842 0
M  V30 6435 C 604.64 -1.91266 0.35321 0
M  V30 6436 O 603.895 -1.84143 -0.662565 0
M  V30 6437 C 604.194 -2.2339 2.78984 0
M  V30 6438 C 603.86 -1.68162 4.18369 0
M  V30 6439 C 602.522 -1.52823 4.56288 0
M  V30 6440 C 604.874 -1.27524 5.05358 0
M  V30 6441 C 602.202 -0.953157 5.78906 0
M  V30 6442 C 604.554 -0.714474 6.28552 0
M  V30 6443 C 603.218 -0.547961 6.65247 0
M  V30 6444 H 602.488 -0.435468 0.59954 0
M  V30 6445 H 605.135 -0.481538 1.85347 0
M  V30 6446 H 603.44 -3.00267 2.51688 0
M  V30 6447 H 605.137 -2.81211 2.85869 0
M  V30 6448 H 601.727 -1.81077 3.8847 0
M  V30 6449 H 605.911 -1.38197 4.76671 0
M  V30 6450 H 601.167 -0.811882 6.05986 0
M  V30 6451 H 605.341 -0.391059 6.95301 0
M  V30 6452 H 602.968 -0.100222 7.60134 0
M  V30 6453 N 604.543 -1.41418 -0.695603 0
M  V30 6454 C 605.82 -1.31264 -1.45014 0
M  V30 6455 C 606.2 0.0597994 -2.11015 0
M  V30 6456 O 605.548 1.07403 -2.01685 0
M  V30 6457 C 605.758 -2.466 -2.4696 0
M  V30 6458 C 607.106 -2.87763 -3.12214 0
M  V30 6459 O 608.13 -2.46339 -2.57285 0
M  V30 6460 O 606.989 -3.59395 -4.11701 0
M  V30 6461 H 604.083 -0.516576 -0.645816 0
M  V30 6462 H 606.629 -1.53382 -0.726084 0
M  V30 6463 H 605.401 -3.38183 -1.96845 0
M  V30 6464 H 605.024 -2.26358 -3.26876 0
M  V30 6465 N 606.021 0.929856 -1.27246 0
M  V30 6466 C 606.971 2.01629 -1.06442 0
M  V30 6467 C 607.955 1.60899 0.00687842 0
M  V30 6468 O 609.147 1.75733 -0.211407 0
M  V30 6469 C 606.276 3.35849 -0.711361 0
M  V30 6470 C 605.362 3.8303 -1.82069 0
M  V30 6471 N 605.753 4.02743 -3.05993 0
M  V30 6472 C 604.051 4.12046 -1.70687 0
M  V30 6473 C 604.752 4.42001 -3.78167 0
M  V30 6474 N 603.728 4.4935 -3.05918 0
M  V30 6475 H 607.53 2.14898 -2.00489 0
M  V30 6476 H 605.044 1.11654 -1.17929 0
M  V30 6477 H 607.041 4.13343 -0.543442 0
M  V30 6478 H 605.701 3.23944 0.221517 0
M  V30 6479 H 606.712 3.89112 -3.41778 0
M  V30 6480 H 603.389 4.08866 -0.844681 0
M  V30 6481 H 604.779 4.6535 -4.84664 0
M  V30 6482 N 607.499 1.09233 1.13605 0
M  V30 6483 C 608.409 0.741939 2.22559 0
M  V30 6484 C 609.425 -0.255236 1.72118 0
M  V30 6485 O 610.601 -0.0970747 2.01166 0
M  V30 6486 C 607.666 0.165595 3.46304 0
M  V30 6487 C 606.727 1.21846 4.11645 0
M  V30 6488 C 605.96 0.669526 5.29484 0
M  V30 6489 O 606.183 -0.508228 5.68131 0
M  V30 6490 O 605.117 1.42361 5.84822 0
M  V30 6491 H 608.943 1.65107 2.54899 0
M  V30 6492 H 606.528 0.866584 1.21699 0
M  V30 6493 H 608.41 -0.152592 4.21124 0
M  V30 6494 H 607.085 -0.716573 3.15669 0
M  V30 6495 H 605.992 1.58931 3.38662 0
M  V30 6496 H 607.325 2.07321 4.46407 0
M  V30 6497 N 608.977 -1.30795 0.87923 0
M  V30 6498 C 610.225 -1.95974 0.493809 0
M  V30 6499 C 610.546 -1.69787 -0.959021 0
M  V30 6500 O 609.816 -1.01832 -1.67353 0
M  V30 6501 H 608.396 -0.725083 0.179622 0
M  V30 6502 H 611.058 -1.59432 1.12105 0
M  V30 6503 H 610.154 -3.05058 0.659263 0
M  V30 6504 N 610.455 -0.639598 -1.44038 0
M  V30 6505 C 611.365 0.0612377 -2.3452 0
M  V30 6506 C 612.381 0.826717 -1.53106 0
M  V30 6507 O 613.557 0.777059 -1.85806 0
M  V30 6508 C 610.622 1.02492 -3.31204 0
M  V30 6509 C 609.683 0.25788 -4.28525 0
M  V30 6510 C 608.916 1.17566 -5.2059 0
M  V30 6511 O 609.139 2.41461 -5.16771 0
M  V30 6512 O 608.073 0.655407 -5.98321 0
M  V30 6513 H 611.899 -0.68318 -2.95916 0
M  V30 6514 H 609.484 -0.399784 -1.43952 0
M  V30 6515 H 611.366 1.57911 -3.90694 0
M  V30 6516 H 610.041 1.7498 -2.7233 0
M  V30 6517 H 608.948 -0.339566 -3.72556 0
M  V30 6518 H 610.281 -0.427154 -4.90343 0
M  V30 6519 N 611.933 1.52934 -0.380664 0
M  V30 6520 C 613.18 2.01467 0.204278 0
M  V30 6521 C 613.508 1.26744 1.47533 0
M  V30 6522 O 612.763 0.353723 1.92477 0
M  V30 6523 C 613.062 3.5349 0.527199 0
M  V30 6524 C 612.728 4.46171 -0.651295 0
M  V30 6525 C 611.39 4.71227 -0.974619 0
M  V30 6526 C 613.742 5.00909 -1.44012 0
M  V30 6527 C 611.07 5.4827 -2.08847 0
M  V30 6528 C 613.422 5.7917 -2.5445 0
M  V30 6529 C 612.086 6.02507 -2.87301 0
M  V30 6530 H 611.356 0.73722 0.0747504 0
M  V30 6531 H 614.003 1.84411 -0.516234 0
M  V30 6532 H 612.308 3.68574 1.32892 0
M  V30 6533 H 614.005 3.88529 0.992283 0
M  V30 6534 H 610.595 4.26829 -0.389276 0
M  V30 6535 H 614.779 4.81485 -1.20357 0
M  V30 6536 H 610.035 5.64567 -2.34679 0
M  V30 6537 H 614.209 6.20588 -3.1598 0
M  V30 6538 H 611.836 6.61989 -3.7373 0
M  V30 6539 N 613.412 0.11024 1.57214 0
M  V30 6540 C 614.661 -0.549638 1.94067 0
M  V30 6541 C 614.974 -1.68388 0.995234 0
M  V30 6542 O 616.18 -2.40593 1.25807 0
M  V30 6543 C 614.636 -1.02912 3.44873 0
M  V30 6544 C 614.244 0.0761861 4.47935 0
M  V30 6545 C 615.988 -1.66087 3.9066 0
M  V30 6546 C 613.895 -0.419502 5.8991 0
M  V30 6547 H 612.825 -0.209092 0.724428 0
M  V30 6548 H 615.476 0.188683 1.82527 0
M  V30 6549 H 613.858 -1.82159 3.51616 0
M  V30 6550 H 615.032 0.852185 4.52851 0
M  V30 6551 H 613.347 0.614052 4.11847 0
M  V30 6552 H 615.944 -2.04272 4.94143 0
M  V30 6553 H 616.287 -2.53591 3.30148 0
M  V30 6554 H 616.82 -0.933959 3.86681 0
M  V30 6555 H 613.559 0.419277 6.54158 0
M  V30 6556 H 613.079 -1.16217 5.88433 0
M  V30 6557 H 614.758 -0.883577 6.40938 0
M  V30 6558 N 614.89 -1.56749 -0.16351 0
M  V30 6559 C 616.306 -1.51043 -0.515567 0
M  V30 6560 C 616.506 -0.815855 -1.84245 0
M  V30 6561 O 615.562 -0.379477 -2.49632 0
M  V30 6562 C 616.875 -2.95791 -0.541114 0
M  V30 6563 C 618.423 -3.0664 -0.627776 0
M  V30 6564 C 618.898 -4.52861 -0.684141 0
M  V30 6565 N 620.389 -4.5714 -0.746818 0
M  V30 6566 C 621.124 -5.67634 -0.811137 0
M  V30 6567 N 620.62 -6.8774 -0.835811 0
M  V30 6568 N 622.413 -5.55624 -0.850756 0
M  V30 6569 H 614.564 -2.00307 0.70645 0
M  V30 6570 H 616.827 -0.912876 0.255659 0
M  V30 6571 H 616.533 -3.49797 0.365329 0
M  V30 6572 H 616.407 -3.50858 -1.38487 0
M  V30 6573 H 618.794 -2.52663 -1.52464 0
M  V30 6574 H 618.875 -2.54645 0.242805 0
M  V30 6575 H 618.519 -5.07472 0.2085 0
M  V30 6576 H 618.449 -5.02621 -1.57098 0
M  V30 6577 H 620.94 -3.70669 -0.735717 0
M  V30 6578 H 621.253 -7.67701 -0.886279 0
M  V30 6579 H 619.598 -6.90334 -0.803958 0
M  V30 6580 H 622.789 -4.60709 -0.828535 0
M  V30 6581 H 622.962 -6.41756 -0.897418 0
M  V30 6582 N 616.368 0.432326 -1.51554 0
M  V30 6583 C 617.3 1.54357 -1.6943 0
M  V30 6584 C 618.313 1.52311 -0.574897 0
M  V30 6585 O 619.502 1.56997 -0.849369 0
M  V30 6586 C 616.602 2.93273 -1.69836 0
M  V30 6587 C 615.775 3.19768 -2.98442 0
M  V30 6588 C 614.834 4.38433 -2.90969 0
M  V30 6589 O 613.86 4.36842 -3.64908 0
M  V30 6590 N 615.062 5.42276 -2.07163 0
M  V30 6591 H 617.827 1.39426 -2.65293 0
M  V30 6592 H 615.388 0.621331 -1.49503 0
M  V30 6593 H 617.38 3.70687 -1.62399 0
M  V30 6594 H 615.95 3.01777 -0.815456 0
M  V30 6595 H 615.17 2.30607 -3.19709 0
M  V30 6596 H 616.458 3.343 -3.83563 0
M  V30 6597 H 615.856 5.46407 -1.46477 0
M  V30 6598 H 614.413 6.18524 -2.05601 0
M  V30 6599 N 617.846 1.41785 0.688094 0
M  V30 6600 C 619.092 1.42753 1.4489 0
M  V30 6601 C 619.447 0.0384235 1.92362 0
M  V30 6602 O 618.74 -0.937066 1.67122 0
M  V30 6603 C 618.934 2.37532 2.67046 0
M  V30 6604 C 618.763 3.85521 2.31525 0
M  V30 6605 C 617.533 4.54152 2.21527 0
M  V30 6606 C 619.731 4.76299 1.94019 0
M  V30 6607 N 617.713 5.87233 1.78969 0
M  V30 6608 C 619.084 5.98386 1.62279 0
M  V30 6609 C 621.139 4.63877 1.80895 0
M  V30 6610 C 619.842 7.09433 1.18732 0
M  V30 6611 C 621.868 5.74893 1.38752 0
M  V30 6612 C 621.23 6.96083 1.07927 0
M  V30 6613 H 617.329 0.577575 0.527192 0
M  V30 6614 H 619.913 1.77713 0.795375 0
M  V30 6615 H 618.084 2.04656 3.30107 0
M  V30 6616 H 619.816 2.29169 3.33562 0
M  V30 6617 H 616.571 4.08188 2.40166 0
M  V30 6618 H 616.995 6.57785 1.60151 0
M  V30 6619 H 621.637 3.70671 2.03378 0
M  V30 6620 H 619.355 8.02497 0.949937 0
M  V30 6621 H 622.941 5.67287 1.29136 0
M  V30 6622 H 621.821 7.80527 0.758111 0
M  V30 6623 N 619.324 -0.923095 1.27737 0
M  V30 6624 C 620.254 -2.04124 1.13383 0
M  V30 6625 C 621.235 -1.70066 0.0340658 0
M  V30 6626 O 622.42 -1.93068 0.209383 0
M  V30 6627 C 619.55 -3.3831 0.785097 0
M  V30 6628 C 618.504 -3.86496 1.8386 0
M  V30 6629 C 617.83 -5.1754 1.34373 0
M  V30 6630 C 619.13 -4.09381 3.24353 0
M  V30 6631 H 620.824 -2.1639 2.06919 0
M  V30 6632 H 618.37 -1.03976 0.996243 0
M  V30 6633 H 620.323 -4.16016 0.671485 0
M  V30 6634 H 619.047 -3.2607 -0.185969 0
M  V30 6635 H 617.706 -3.10987 1.9412 0
M  V30 6636 H 617.354 -5.01696 0.361989 0
M  V30 6637 H 617.054 -5.50751 2.04811 0
M  V30 6638 H 618.578 -5.97811 1.24315 0
M  V30 6639 H 619.992 -4.77641 3.17067 0
M  V30 6640 H 618.389 -4.53906 3.92542 0
M  V30 6641 H 619.459 -3.14515 3.69064 0
M  V30 6642 N 620.802 -1.09834 -1.13024 0
M  V30 6643 C 622.213 -0.855651 -1.65938 0
M  V30 6644 C 622.564 0.615159 -1.86307 0
M  V30 6645 O 621.689 1.47335 -1.58497 0
M  V30 6646 C 622.284 -1.5467 -3.01434 0
M  V30 6647 C 620.843 -1.35088 -3.51323 0
M  V30 6648 C 619.99 -1.6001 -2.26478 0
M  V30 6649 H 622.941 -1.25691 -0.968889 0
M  V30 6650 H 622.962 -0.982179 -3.67605 0
M  V30 6651 H 622.474 -2.61715 -2.86578 0
M  V30 6652 H 620.575 -0.30179 -3.71376 0
M  V30 6653 H 620.688 -2.0886 -4.31178 0
M  V30 6654 H 619.052 -1.02246 -2.33276 0
M  V30 6655 H 619.835 -2.68293 -2.14182 0
M  V30 6656 N 622.28 1.30327 -0.886154 0
M  V30 6657 C 623.19 2.31854 -0.357866 0
M  V30 6658 C 624.206 1.65392 0.540502 0
M  V30 6659 O 625.382 1.96683 0.433339 0
M  V30 6660 C 622.447 3.44171 0.417999 0
M  V30 6661 C 621.508 4.26257 -0.510263 0
M  V30 6662 C 620.741 5.3321 0.228669 0
M  V30 6663 O 620.964 5.51542 1.45458 0
M  V30 6664 O 619.898 6.0042 -0.421832 0
M  V30 6665 H 623.724 2.78995 -1.19982 0
M  V30 6666 H 621.309 1.34518 -0.650028 0
M  V30 6667 H 623.191 4.12588 0.857251 0
M  V30 6668 H 621.866 2.99164 1.23623 0
M  V30 6669 H 620.773 3.60533 -0.99835 0
M  V30 6670 H 622.106 4.74871 -1.29454 0
M  V30 6671 N 623.758 0.647228 1.43697 0
M  V30 6672 C 624.688 -0.0345631 2.33474 0
M  V30 6673 C 625.669 -0.818193 1.4913 0
M  V30 6674 O 626.854 -0.780867 1.77809 0
M  V30 6675 C 623.984 -1.00576 3.32418 0
M  V30 6676 C 622.938 -0.33266 4.26705 0
M  V30 6677 C 622.264 -1.41489 5.1564 0
M  V30 6678 C 623.564 0.771204 5.16575 0
M  V30 6679 H 625.258 0.715163 2.90733 0
M  V30 6680 H 622.804 0.345364 1.39797 0
M  V30 6681 H 624.757 -1.49159 3.94119 0
M  V30 6682 H 623.481 -1.78657 2.73403 0
M  V30 6683 H 622.14 0.13267 3.6636 0
M  V30 6684 H 621.788 -2.18698 4.52968 0
M  V30 6685 H 621.488 -0.969799 5.79542 0
M  V30 6686 H 623.012 -1.9022 5.80214 0
M  V30 6687 H 624.426 0.36779 5.72119 0
M  V30 6688 H 622.823 1.1404 5.89165 0
M  V30 6689 H 623.893 1.63169 4.56622 0
M  V30 6690 N 625.236 -1.5273 0.388769 0
M  V30 6691 C 626.652 -1.59553 0.0387049 0
M  V30 6692 C 626.852 -1.40278 -1.44652 0
M  V30 6693 O 625.908 -1.21951 -2.21098 0
M  V30 6694 C 627.221 -2.9625 0.515409 0
M  V30 6695 C 628.769 -3.09426 0.471621 0
M  V30 6696 C 629.244 -4.48572 0.924505 0
M  V30 6697 N 630.735 -4.54754 0.880496 0
M  V30 6698 C 631.47 -5.60653 1.20234 0
M  V30 6699 N 630.966 -6.74198 1.59463 0
M  V30 6700 N 632.759 -5.50755 1.12363 0
M  V30 6701 H 624.91 -1.63508 1.35569 0
M  V30 6702 H 627.173 -0.768097 0.555636 0
M  V30 6703 H 626.879 -3.15569 1.5527 0
M  V30 6704 H 626.753 -3.77102 -0.085792 0
M  V30 6705 H 629.14 -2.89804 -0.556588 0
M  V30 6706 H 629.221 -2.30528 1.10862 0
M  V30 6707 H 628.865 -4.68936 1.95094 0
M  V30 6708 H 628.795 -5.25935 0.264524 0
M  V30 6709 H 631.286 -3.73237 0.591815 0
M  V30 6710 H 631.599 -7.5097 1.82385 0
M  V30 6711 H 629.944 -6.75531 1.63349 0
M  V30 6712 H 633.135 -4.6093 0.816169 0
M  V30 6713 H 633.308 -6.33184 1.37777 0
M  V30 6714 N 626.714 -0.118576 -1.57153 0
M  V30 6715 C 627.991 0.583062 -1.86708 0
M  V30 6716 C 628.371 1.84841 -1.01967 0
M  V30 6717 O 627.719 2.28288 -0.0984673 0
M  V30 6718 C 627.929 0.875912 -3.3783 0
M  V30 6719 C 629.277 1.22916 -4.0642 0
M  V30 6720 O 630.301 0.966188 -3.42846 0
M  V30 6721 O 629.16 1.72269 -5.18638 0
M  V30 6722 H 626.254 0.294185 -0.772906 0
M  V30 6723 H 628.8 -0.153048 -1.69008 0
M  V30 6724 H 627.572 -0.0207776 -3.91294 0
M  V30 6725 H 627.195 1.66719 -3.60958 0
M  V30 6726 N 628.193 1.56834 0.155195 0
M  V30 6727 C 629.439 1.83169 0.870467 0
M  V30 6728 C 629.772 0.698929 1.81187 0
M  V30 6729 O 629.047 -0.298035 1.92203 0
M  V30 6730 C 629.33 3.19965 1.65211 0
M  V30 6731 C 629.183 4.43792 0.732744 0
M  V30 6732 C 630.502 3.53885 2.61636 0
M  V30 6733 H 627.621 0.666288 0.315006 0
M  V30 6734 H 630.263 1.89513 0.135988 0
M  V30 6735 H 628.413 3.14687 2.27825 0
M  V30 6736 H 630.085 4.61148 0.118236 0
M  V30 6737 H 628.328 4.3378 0.0417906 0
M  V30 6738 H 628.999 5.36095 1.31552 0
M  V30 6739 H 631.475 3.5972 2.09143 0
M  V30 6740 H 630.351 4.50648 3.13381 0
M  V30 6741 H 630.612 2.79418 3.42605 0
M  V30 6742 N 629.671 -0.424282 1.51781 0
M  V30 6743 C 631.082 -1.00368 1.57427 0
M  V30 6744 C 631.433 -1.91962 0.40558 0
M  V30 6745 O 630.558 -2.111 -0.47601 0
M  V30 6746 C 631.153 -1.82707 2.85313 0
M  V30 6747 C 629.712 -2.35675 2.93487 0
M  V30 6748 C 628.859 -1.1524 2.5222 0
M  V30 6749 H 631.81 -0.205064 1.5737 0
M  V30 6750 H 631.831 -2.68294 2.69812 0
M  V30 6751 H 631.343 -1.16017 3.70353 0
M  V30 6752 H 629.444 -3.05781 2.12906 0
M  V30 6753 H 629.557 -2.67578 3.97415 0
M  V30 6754 H 627.921 -1.50174 2.05718 0
M  V30 6755 H 628.704 -0.5014 3.39619 0
M  V30 6756 N 631.149 -1.42148 -0.680565 0
M  V30 6757 C 632.397 -1.42029 -1.43779 0
M  V30 6758 C 632.718 -0.0356347 -1.94967 0
M  V30 6759 O 631.988 0.924936 -1.7269 0
M  V30 6760 H 630.568 -0.522835 -0.533529 0
M  V30 6761 H 633.23 -1.7752 -0.804538 0
M  V30 6762 H 632.326 -2.11658 -2.29363 0
M  V30 6763 N 632.627 0.916307 -1.28225 0
M  V30 6764 C 633.574 2.01841 -1.11932 0
M  V30 6765 C 634.544 1.66091 -0.0171604 0
M  V30 6766 O 635.729 1.89934 -0.181617 0
M  V30 6767 C 632.869 3.36065 -0.784504 0
M  V30 6768 C 631.982 3.847 -1.96544 0
M  V30 6769 C 631.117 5.07423 -1.57149 0
M  V30 6770 C 630.156 5.48384 -2.71922 0
M  V30 6771 N 629.293 6.62298 -2.33037 0
M  V30 6772 H 634.133 2.1511 -2.06232 0
M  V30 6773 H 631.67 1.05366 -1.02647 0
M  V30 6774 H 633.628 4.13272 -0.571148 0
M  V30 6775 H 632.258 3.22571 0.121565 0
M  V30 6776 H 631.31 3.03673 -2.291 0
M  V30 6777 H 632.622 4.1102 -2.82603 0
M  V30 6778 H 631.776 5.92165 -1.32004 0
M  V30 6779 H 630.515 4.82906 -0.682153 0
M  V30 6780 H 629.52 4.62184 -2.97768 0
M  V30 6781 H 630.745 5.7489 -3.61494 0
M  V30 6782 H 628.691 6.39416 -1.4657 0
M  V30 6783 H 628.608 6.8833 -3.12631 0
M  V30 6784 H 629.876 7.50352 -2.11169 0
M  V30 6785 N 634.105 1.10431 1.1244 0
M  V30 6786 C 635.351 0.847972 1.84221 0
M  V30 6787 C 635.684 -0.624903 1.83871 0
M  V30 6788 O 634.959 -1.46074 1.28423 0
M  V30 6789 C 635.242 1.39695 3.319 0
M  V30 6790 C 635.095 2.93668 3.40704 0
M  V30 6791 C 636.414 1.03924 4.27654 0
M  V30 6792 H 633.533 0.309502 0.668863 0
M  V30 6793 H 636.175 1.36745 1.31912 0
M  V30 6794 H 634.325 0.955095 3.76577 0
M  V30 6795 H 635.997 3.46379 3.04662 0
M  V30 6796 H 634.24 3.30272 2.81252 0
M  V30 6797 H 634.911 3.27162 4.446 0
M  V30 6798 H 637.387 1.42049 3.91102 0
M  V30 6799 H 636.263 1.45027 5.29394 0
M  V30 6800 H 636.524 -0.051336 4.4207 0
M  V30 6801 N 635.583 -1.29855 0.893053 0
M  V30 6802 C 636.829 -1.96116 0.516349 0
M  V30 6803 C 637.162 -1.70281 -0.933695 0
M  V30 6804 O 636.437 -1.01205 -1.66096 0
M  V30 6805 C 636.72 -3.51068 0.801455 0
M  V30 6806 C 636.573 -3.86387 2.30272 0
M  V30 6807 C 637.892 -4.39186 0.283423 0
M  V30 6808 H 635.011 -0.712335 0.189072 0
M  V30 6809 H 637.653 -1.53587 1.11852 0
M  V30 6810 H 635.803 -3.87424 0.288949 0
M  V30 6811 H 637.475 -3.60012 2.88425 0
M  V30 6812 H 635.718 -3.34167 2.76613 0
M  V30 6813 H 636.389 -4.94512 2.45279 0
M  V30 6814 H 638.865 -4.09785 0.722187 0
M  V30 6815 H 637.741 -5.46505 0.512169 0
M  V30 6816 H 638.002 -4.34511 -0.815643 0
M  V30 6817 N 637.061 -0.65484 -1.43351 0
M  V30 6818 C 638.011 0.0581325 -2.27926 0
M  V30 6819 C 638.995 0.793188 -1.3999 0
M  V30 6820 O 640.187 0.675387 -1.63608 0
M  V30 6821 C 637.316 1.02272 -3.27712 0
M  V30 6822 C 636.402 0.286048 -4.23134 0
M  V30 6823 N 636.793 -0.698298 -5.00957 0
M  V30 6824 C 635.091 0.527272 -4.42872 0
M  V30 6825 C 635.792 -1.1357 -5.70506 0
M  V30 6826 N 634.768 -0.469631 -5.41568 0
M  V30 6827 H 638.57 -0.697182 -2.85511 0
M  V30 6828 H 636.084 -0.482252 -1.55074 0
M  V30 6829 H 638.081 1.5483 -3.87083 0
M  V30 6830 H 636.741 1.77807 -2.71688 0
M  V30 6831 H 637.752 -1.07708 -5.06576 0
M  V30 6832 H 634.429 1.26367 -3.97916 0
M  V30 6833 H 635.819 -1.95027 -6.42973 0
M  V30 6834 N 638.539 1.52521 -0.396863 0
M  V30 6835 C 639.449 2.30403 0.44178 0
M  V30 6836 C 640.465 1.37625 1.06468 0
M  V30 6837 O 641.641 1.70697 1.06886 0
M  V30 6838 C 638.706 3.1013 1.54986 0
M  V30 6839 C 637.767 4.18628 0.951279 0
M  V30 6840 C 637 4.94543 2.00655 0
M  V30 6841 O 637.223 4.70629 3.22281 0
M  V30 6842 O 636.157 5.797 1.61962 0
M  V30 6843 H 639.983 3.03087 -0.192892 0
M  V30 6844 H 637.568 1.48537 -0.16038 0
M  V30 6845 H 639.45 3.59816 2.19341 0
M  V30 6846 H 638.125 2.40251 2.16935 0
M  V30 6847 H 637.032 3.73119 0.270773 0
M  V30 6848 H 638.365 4.90763 0.375887 0
M  V30 6849 N 640.017 0.126909 1.57088 0
M  V30 6850 C 641.428 -0.397201 1.82426 0
M  V30 6851 C 641.779 -1.66084 1.04453 0
M  V30 6852 O 640.904 -2.14534 0.283552 0
M  V30 6853 C 641.499 -0.727411 3.30899 0
M  V30 6854 C 640.058 -1.19612 3.56889 0
M  V30 6855 C 639.205 -0.20885 2.76512 0
M  V30 6856 H 642.156 0.351924 1.54749 0
M  V30 6857 H 642.177 -1.58407 3.45959 0
M  V30 6858 H 641.689 0.19247 3.87622 0
M  V30 6859 H 639.79 -2.13263 3.05532 0
M  V30 6860 H 639.903 -1.13598 4.65438 0
M  V30 6861 H 638.267 -0.697479 2.44964 0
M  V30 6862 H 639.05 0.704267 3.35998 0
M  V30 6863 N 641.495 -1.56914 -0.146875 0
M  V30 6864 C 642.741 -1.84515 -0.855914 0
M  V30 6865 C 643.096 -0.710909 -1.78784 0
M  V30 6866 O 642.389 0.291123 -1.89375 0
M  V30 6867 C 642.583 -3.16128 -1.66727 0
M  V30 6868 C 642.412 -4.42246 -0.815405 0
M  V30 6869 C 641.182 -5.03006 -0.480976 0
M  V30 6870 C 643.38 -5.14094 -0.145684 0
M  V30 6871 N 641.362 -6.12695 0.384476 0
M  V30 6872 C 642.733 -6.17282 0.579902 0
M  V30 6873 C 644.788 -4.97856 -0.0663705 0
M  V30 6874 C 643.491 -7.0599 1.37731 0
M  V30 6875 C 645.517 -5.87028 0.71778 0
M  V30 6876 C 644.879 -6.89698 1.43165 0
M  V30 6877 H 640.978 -0.725829 -0.291026 0
M  V30 6878 H 643.562 -1.94322 -0.121279 0
M  V30 6879 H 641.733 -3.07468 -2.37315 0
M  V30 6880 H 643.465 -3.31635 -2.31949 0
M  V30 6881 H 640.22 -4.66504 -0.816789 0
M  V30 6882 H 640.644 -6.72158 0.80823 0
M  V30 6883 H 645.286 -4.18465 -0.603929 0
M  V30 6884 H 643.004 -7.84809 1.92613 0
M  V30 6885 H 646.59 -5.76532 0.781141 0
M  V30 6886 H 645.47 -7.57505 2.02868 0
M  V30 6887 N 642.974 0.416227 -1.52004 0
M  V30 6888 C 643.921 1.50666 -1.74838 0
M  V30 6889 C 644.891 1.55245 -0.590599 0
M  V30 6890 O 646.076 1.71928 -0.827374 0
M  V30 6891 C 643.216 2.88185 -1.89851 0
M  V30 6892 C 642.329 2.92971 -3.17478 0
M  V30 6893 C 641.464 4.21745 -3.22962 0
M  V30 6894 C 640.503 4.20478 -4.4482 0
M  V30 6895 N 639.64 5.40811 -4.47736 0
M  V30 6896 H 644.48 1.30498 -2.67907 0
M  V30 6897 H 642.017 0.633568 -1.32757 0
M  V30 6898 H 643.975 3.68007 -1.96537 0
M  V30 6899 H 642.605 3.06865 -1.00169 0
M  V30 6900 H 641.657 2.05684 -3.19997 0
M  V30 6901 H 642.969 2.87899 -4.07328 0
M  V30 6902 H 642.123 5.09954 -3.28682 0
M  V30 6903 H 640.862 4.29503 -2.31038 0
M  V30 6904 H 639.867 3.30659 -4.39254 0
M  V30 6905 H 641.092 4.14366 -5.38031 0
M  V30 6906 H 639.038 5.4925 -3.58692 0
M  V30 6907 H 638.955 5.37705 -5.31422 0
M  V30 6908 H 640.223 6.30993 -4.57676 0
M  V30 6909 N 644.452 1.42507 0.673017 0
M  V30 6910 C 645.698 1.44282 1.43367 0
M  V30 6911 C 646.053 0.0588239 1.9231 0
M  V30 6912 O 645.346 -0.919288 1.68106 0
M  V30 6913 C 645.54 2.40351 2.64511 0
M  V30 6914 C 645.369 3.87955 2.27423 0
M  V30 6915 C 644.139 4.56476 2.16697 0
M  V30 6916 C 646.337 4.7833 1.88957 0
M  V30 6917 N 644.319 5.89099 1.72731 0
M  V30 6918 C 645.69 6.00073 1.55923 0
M  V30 6919 C 647.745 4.65769 1.75965 0
M  V30 6920 C 646.448 7.10652 1.112 0
M  V30 6921 C 648.474 5.76332 1.32647 0
M  V30 6922 C 647.836 6.97188 1.00538 0
M  V30 6923 H 643.935 0.583134 0.521036 0
M  V30 6924 H 646.519 1.78547 0.776481 0
M  V30 6925 H 644.69 2.08145 3.27918 0
M  V30 6926 H 646.422 2.32694 3.31113 0
M  V30 6927 H 643.177 4.10712 2.35823 0
M  V30 6928 H 643.601 6.59446 1.53166 0
M  V30 6929 H 648.243 3.72808 1.99435 0
M  V30 6930 H 645.961 8.0346 0.864768 0
M  V30 6931 H 649.547 5.68625 1.23112 0
M  V30 6932 H 648.427 7.81287 0.675283 0
M  V30 6933 N 645.93 -0.909495 1.28709 0
M  V30 6934 C 646.893 -1.99399 1.13016 0
M  V30 6935 C 647.893 -1.60654 0.068536 0
M  V30 6936 O 649.083 -1.71334 0.314671 0
M  V30 6937 C 646.215 -3.33078 0.726085 0
M  V30 6938 H 647.408 -2.14751 2.09338 0
M  V30 6939 H 644.961 -1.09272 1.11756 0
M  V30 6940 H 645.696 -3.23428 -0.23771 0
M  V30 6941 H 645.481 -3.62562 1.49302 0
M  V30 6942 H 646.971 -4.12681 0.639058 0
M  V30 6943 N 647.408 -1.11026 -1.11852 0
M  V30 6944 C 648.34 -0.72249 -2.17515 0
M  V30 6945 C 649.353 0.243782 -1.60964 0
M  V30 6946 O 650.542 0.0273252 -1.78479 0
M  V30 6947 C 647.642 -0.0463979 -3.38868 0
M  V30 6948 C 646.815 -1.0384 -4.24895 0
M  V30 6949 C 645.874 -0.392659 -5.24733 0
M  V30 6950 O 644.9 -1.0453 -5.5952 0
M  V30 6951 N 646.102 0.846296 -5.74298 0
M  V30 6952 H 648.867 -1.63161 -2.51393 0
M  V30 6953 H 646.428 -0.999899 -1.27333 0
M  V30 6954 H 648.42 0.397215 -4.02746 0
M  V30 6955 H 646.99 0.765231 -3.03089 0
M  V30 6956 H 646.21 -1.6601 -3.57539 0
M  V30 6957 H 647.498 -1.70968 -4.79215 0
M  V30 6958 H 646.896 1.39578 -5.4821 0
M  V30 6959 H 645.453 1.23296 -6.40032 0
M  V30 6960 N 648.886 1.2938 -0.899927 0
M  V30 6961 C 649.833 2.27713 -0.376243 0
M  V30 6962 C 650.803 1.57016 0.541774 0
M  V30 6963 O 651.988 1.84997 0.466966 0
M  V30 6964 C 649.128 3.42889 0.39 0
M  V30 6965 C 648.241 4.28369 -0.558938 0
M  V30 6966 C 647.376 5.30726 0.224379 0
M  V30 6967 C 646.415 6.07862 -0.719068 0
M  V30 6968 N 645.552 7.02094 0.0298569 0
M  V30 6969 H 650.392 2.71888 -1.21988 0
M  V30 6970 H 647.929 1.33724 -0.612879 0
M  V30 6971 H 649.887 4.08443 0.850314 0
M  V30 6972 H 648.517 2.99743 1.19809 0
M  V30 6973 H 647.569 3.62986 -1.13777 0
M  V30 6974 H 648.881 4.82068 -1.2811 0
M  V30 6975 H 648.035 6.02098 0.745881 0
M  V30 6976 H 646.774 4.77759 0.979674 0
M  V30 6977 H 645.779 5.35353 -1.25207 0
M  V30 6978 H 647.004 6.62917 -1.4737 0
M  V30 6979 H 644.95 6.51496 0.767415 0
M  V30 6980 H 644.867 7.5335 -0.632391 0
M  V30 6981 H 646.135 7.77685 0.531615 0
M  V30 6982 N 650.364 0.662433 1.43002 0
M  V30 6983 C 651.327 -0.0142016 2.29196 0
M  V30 6984 C 652.327 -0.741394 1.42688 0
M  V30 6985 O 653.517 -0.581257 1.64216 0
M  V30 6986 C 650.649 -1.03084 3.24941 0
M  V30 6987 H 651.842 0.7443 2.90517 0
M  V30 6988 H 649.395 0.424133 1.50435 0
M  V30 6989 H 650.13 -1.81826 2.68533 0
M  V30 6990 H 649.915 -0.512946 3.8873 0
M  V30 6991 H 651.405 -1.50308 3.89612 0
M  V30 6992 N 651.842 -1.52309 0.404946 0
M  V30 6993 C 653.09 -2.01368 -0.17186 0
M  V30 6994 C 653.411 -1.29261 -1.46002 0
M  V30 6995 O 652.681 -0.41729 -1.91404 0
M  V30 6996 H 651.261 -0.744034 -0.0664993 0
M  V30 6997 H 653.923 -1.87263 0.540228 0
M  V30 6998 H 653.019 -3.09888 -0.370957 0
M  V30 6999 N 653.32 -0.135238 -1.57019 0
M  V30 7000 C 654.566 0.519563 -1.96032 0
M  V30 7001 C 654.899 1.65284 -1.01955 0
M  V30 7002 O 654.174 1.94408 -0.059727 0
M  V30 7003 C 654.457 1.0369 -3.44848 0
M  V30 7004 C 654.31 -0.0940754 -4.49702 0
M  V30 7005 C 655.629 1.92254 -3.95887 0
M  V30 7006 H 652.748 0.18739 -0.712779 0
M  V30 7007 H 655.39 -0.214086 -1.8879 0
M  V30 7008 H 653.54 1.66209 -3.5115 0
M  V30 7009 H 655.212 -0.73 -4.55487 0
M  V30 7010 H 653.455 -0.754924 -4.27181 0
M  V30 7011 H 654.126 0.309419 -5.51132 0
M  V30 7012 H 656.602 1.39581 -3.9199 0
M  V30 7013 H 655.478 2.25364 -5.00502 0
M  V30 7014 H 655.739 2.85513 -3.37543 0
M  V30 7015 N 654.798 1.5699 0.138552 0
M  V30 7016 C 656.026 1.87976 0.864437 0
M  V30 7017 C 656.441 0.724372 1.74351 0
M  V30 7018 O 655.798 -0.305575 1.79924 0
M  V30 7019 C 655.849 3.18276 1.71414 0
M  V30 7020 O 655.57 4.29365 0.870487 0
M  V30 7021 C 657.071 3.62834 2.54688 0
M  V30 7022 H 654.291 0.622878 0.249528 0
M  V30 7023 H 656.835 2.04094 0.128805 0
M  V30 7024 H 654.99 3.03886 2.40274 0
M  V30 7025 H 655.404 5.03924 1.45466 0
M  V30 7026 H 656.878 4.5682 3.0987 0
M  V30 7027 H 657.355 2.88533 3.31127 0
M  V30 7028 H 657.961 3.79946 1.91105 0
M  V30 7029 N 656.276 -0.40816 1.52223 0
M  V30 7030 C 657.206 -1.5042 1.78595 0
M  V30 7031 C 658.187 -1.57723 0.636974 0
M  V30 7032 O 659.372 -1.72982 0.882664 0
M  V30 7033 C 656.502 -2.88232 1.93751 0
M  V30 7034 C 655.456 -2.95779 3.09352 0
M  V30 7035 C 654.782 -4.35855 3.09732 0
M  V30 7036 C 656.082 -2.67175 4.48793 0
M  V30 7037 H 657.776 -1.28601 2.70374 0
M  V30 7038 H 655.322 -0.617221 1.30101 0
M  V30 7039 H 657.275 -3.64895 2.10783 0
M  V30 7040 H 655.999 -3.11347 0.986443 0
M  V30 7041 H 654.658 -2.21561 2.92072 0
M  V30 7042 H 654.306 -4.55981 2.12346 0
M  V30 7043 H 654.006 -4.41829 3.87377 0
M  V30 7044 H 655.53 -5.14451 3.28895 0
M  V30 7045 H 656.944 -3.3356 4.66273 0
M  V30 7046 H 655.341 -2.84523 5.28362 0
M  V30 7047 H 656.411 -1.62609 4.56822 0
M  V30 7048 N 657.755 -1.42862 -0.66545 0
M  V30 7049 C 659.032 -1.3431 -1.42197 0
M  V30 7050 C 659.412 0.0150265 -2.11095 0
M  V30 7051 O 658.76 1.03101 -2.03918 0
M  V30 7052 C 658.97 -2.51783 -2.41674 0
M  V30 7053 C 660.318 -2.94321 -3.0604 0
M  V30 7054 O 661.342 -2.51741 -2.52001 0
M  V30 7055 O 660.201 -3.68047 -4.03985 0
M  V30 7056 H 657.295 -0.530159 -0.634713 0
M  V30 7057 H 659.841 -1.54888 -0.693386 0
M  V30 7058 H 658.613 -3.42282 -1.89627 0
M  V30 7059 H 658.236 -2.33241 -3.22001 0
M  V30 7060 N 659.233 0.902656 -1.29189 0
M  V30 7061 C 660.463 1.68394 -1.19695 0
M  V30 7062 C 660.871 1.87602 0.245384 0
M  V30 7063 O 660.214 1.41084 1.17648 0
M  V30 7064 C 660.276 3.09094 -1.83578 0
M  V30 7065 C 659.94 3.1313 -3.32864 0
M  V30 7066 C 660.937 2.93497 -4.29134 0
M  V30 7067 C 658.622 3.3529 -3.74013 0
M  V30 7068 C 660.616 2.95953 -5.64527 0
M  V30 7069 C 658.303 3.37377 -5.09529 0
M  V30 7070 C 659.301 3.1773 -6.04596 0
M  V30 7071 O 658.989 3.196 -7.37639 0
M  V30 7072 H 658.721 0.532815 -0.416034 0
M  V30 7073 H 661.275 1.1374 -1.71033 0
M  V30 7074 H 659.505 3.65338 -1.26747 0
M  V30 7075 H 661.194 3.69297 -1.68447 0
M  V30 7076 H 661.96 2.76192 -3.98677 0
M  V30 7077 H 657.839 3.49623 -3.00474 0
M  V30 7078 H 661.383 2.80536 -6.38706 0
M  V30 7079 H 657.28 3.54213 -5.39633 0
M  V30 7080 H 658.048 3.35887 -7.46406 0
M  V30 7081 N 660.711 1.11618 1.11262 0
M  V30 7082 C 662.122 0.881942 1.64556 0
M  V30 7083 C 662.473 -0.585442 1.87262 0
M  V30 7084 O 661.598 -1.44795 1.60821 0
M  V30 7085 C 662.193 1.59446 2.98935 0
M  V30 7086 C 660.752 1.40661 3.4913 0
M  V30 7087 C 659.899 1.63593 2.23903 0
M  V30 7088 H 662.85 1.27217 0.94877 0
M  V30 7089 H 662.871 1.04054 3.65996 0
M  V30 7090 H 662.383 2.66241 2.82378 0
M  V30 7091 H 660.484 0.360835 3.70849 0
M  V30 7092 H 660.597 2.15693 4.27801 0
M  V30 7093 H 658.961 1.05944 2.3162 0
M  V30 7094 H 659.744 2.71666 2.09886 0
M  V30 7095 N 662.189 -1.289 0.906776 0
M  V30 7096 C 663.121 -2.26556 0.347159 0
M  V30 7097 C 664.134 -1.54589 -0.51049 0
M  V30 7098 O 665.323 -1.75489 -0.326501 0
M  V30 7099 C 662.423 -3.3484 -0.523024 0
M  V30 7100 C 661.596 -4.36296 0.310515 0
M  V30 7101 C 660.655 -5.23879 -0.493634 0
M  V30 7102 O 659.681 -5.69127 0.0913569 0
M  V30 7103 N 660.883 -5.51946 -1.7982 0
M  V30 7104 H 663.648 -2.75212 1.18652 0
M  V30 7105 H 661.209 -1.42309 0.771996 0
M  V30 7106 H 663.201 -3.90366 -1.06756 0
M  V30 7107 H 661.771 -2.85946 -1.26309 0
M  V30 7108 H 660.991 -3.80331 1.03644 0
M  V30 7109 H 662.279 -5.01113 0.881106 0
M  V30 7110 H 661.677 -5.17006 -2.2961 0
M  V30 7111 H 660.234 -6.10258 -2.28971 0
M  V30 7112 N 663.667 -0.670007 -1.42649 0
M  V30 7113 C 665.078 -0.268118 -1.84765 0
M  V30 7114 C 665.429 1.18877 -1.56086 0
M  V30 7115 O 664.554 1.90947 -1.01825 0
M  V30 7116 C 665.149 -0.47984 -3.35385 0
M  V30 7117 C 663.708 -0.132116 -3.76168 0
M  V30 7118 C 662.855 -0.774611 -2.66261 0
M  V30 7119 H 665.806 -0.872509 -1.32563 0
M  V30 7120 H 665.827 0.269522 -3.79544 0
M  V30 7121 H 665.339 -1.54026 -3.56227 0
M  V30 7122 H 663.44 0.92505 -3.60934 0
M  V30 7123 H 663.553 -0.569294 -4.75706 0
M  V30 7124 H 661.917 -0.206353 -2.53863 0
M  V30 7125 H 662.7 -1.83839 -2.89928 0
M  V30 7126 N 665.145 1.52092 -0.413018 0
M  V30 7127 C 666.394 2.01041 0.16287 0
M  V30 7128 C 666.707 1.30288 1.45892 0
M  V30 7129 O 667.913 1.70075 2.11629 0
M  V30 7130 C 666.369 3.58283 0.340806 0
M  V30 7131 C 665.977 4.37955 -0.943377 0
M  V30 7132 C 667.721 4.15452 0.871774 0
M  V30 7133 C 665.628 5.86847 -0.732417 0
M  V30 7134 H 664.558 0.751224 0.0646414 0
M  V30 7135 H 667.209 1.75404 -0.539059 0
M  V30 7136 H 665.591 3.80266 1.10516 0
M  V30 7137 H 666.765 4.2773 -1.71418 0
M  V30 7138 H 665.08 3.92122 -1.40105 0
M  V30 7139 H 667.677 5.24375 1.0457 0
M  V30 7140 H 668.02 3.73057 1.84755 0
M  V30 7141 H 668.553 3.97452 0.166377 0
M  V30 7142 H 665.292 6.33609 -1.67986 0
M  V30 7143 H 664.812 5.998 -0.000980058 0
M  V30 7144 H 666.491 6.45906 -0.376105 0
M  V30 7145 N 666.623 0.143563 1.56945 0
M  V30 7146 C 667.869 -0.50916 1.96304 0
M  V30 7147 C 668.202 -1.64741 1.0283 0
M  V30 7148 O 667.477 -1.94374 0.0700361 0
M  V30 7149 C 667.76 -1.0186 3.45393 0
M  V30 7150 C 667.613 0.117923 4.49645 0
M  V30 7151 C 668.932 -1.90151 3.96901 0
M  V30 7152 H 666.051 -0.183608 0.713763 0
M  V30 7153 H 668.693 0.224095 1.88674 0
M  V30 7154 H 666.843 -1.64345 3.52027 0
M  V30 7155 H 668.515 0.754145 4.55094 0
M  V30 7156 H 666.758 0.777568 4.26774 0
M  V30 7157 H 667.429 -0.280187 5.51288 0
M  V30 7158 H 669.905 -1.375 3.92725 0
M  V30 7159 H 668.781 -2.22707 5.0169 0
M  V30 7160 H 669.042 -2.83718 3.39052 0
M  V30 7161 N 668.101 -1.57061 -0.130224 0
M  V30 7162 C 669.011 -2.02802 -1.17934 0
M  V30 7163 C 670.027 -0.946378 -1.46013 0
M  V30 7164 O 671.203 -1.25708 -1.57351 0
M  V30 7165 C 668.268 -2.41368 -2.48882 0
M  V30 7166 C 667.329 -3.63561 -2.28301 0
M  V30 7167 C 666.562 -4.00279 -3.53005 0
M  V30 7168 O 666.785 -3.37463 -4.59864 0
M  V30 7169 O 665.719 -4.93441 -3.44673 0
M  V30 7170 H 669.545 -2.92394 -0.820958 0
M  V30 7171 H 667.13 -1.45475 -0.340197 0
M  V30 7172 H 669.012 -2.66958 -3.26054 0
M  V30 7173 H 667.687 -1.54926 -2.84217 0
M  V30 7174 H 666.594 -3.43136 -1.49025 0
M  V30 7175 H 667.927 -4.50673 -1.97875 0
M  V30 7176 N 669.579 0.400081 -1.52437 0
M  V30 7177 C 670.529 1.48734 -1.72807 0
M  V30 7178 C 671.513 1.50004 -0.582032 0
M  V30 7179 O 672.705 1.55828 -0.839449 0
M  V30 7180 C 669.834 2.86568 -1.89034 0
M  V30 7181 C 668.92 2.8991 -3.09537 0
M  V30 7182 N 669.311 2.62937 -4.32086 0
M  V30 7183 C 667.609 3.21078 -3.09556 0
M  V30 7184 C 668.31 2.73079 -5.13617 0
M  V30 7185 N 667.286 3.06342 -4.49061 0
M  V30 7186 H 671.088 1.26689 -2.65193 0
M  V30 7187 H 668.602 0.607902 -1.50593 0
M  V30 7188 H 670.599 3.64834 -2.01746 0
M  V30 7189 H 669.259 3.09604 -0.978547 0
M  V30 7190 H 670.27 2.37163 -4.60406 0
M  V30 7191 H 666.947 3.49651 -2.28146 0
M  V30 7192 H 668.337 2.55863 -6.21276 0
M  V30 7193 N 671.057 1.43213 0.657864 0
M  V30 7194 C 672.004 1.48011 1.77092 0
M  V30 7195 C 672.974 0.330291 1.62783 0
M  V30 7196 O 674.159 0.536787 1.83094 0
M  V30 7197 C 671.299 1.40461 3.15222 0
M  V30 7198 C 670.412 2.65612 3.40697 0
M  V30 7199 C 669.547 2.50083 4.68649 0
M  V30 7200 C 668.586 3.70525 4.87214 0
M  V30 7201 N 667.723 3.53835 6.0642 0
M  V30 7202 H 672.563 2.43121 1.72326 0
M  V30 7203 H 670.1 1.20687 0.841013 0
M  V30 7204 H 672.058 1.34079 3.95068 0
M  V30 7205 H 670.688 0.489359 3.19069 0
M  V30 7206 H 669.74 2.82292 2.54982 0
M  V30 7207 H 671.052 3.5509 3.50303 0
M  V30 7208 H 670.206 2.41383 5.56614 0
M  V30 7209 H 668.945 1.58121 4.61356 0
M  V30 7210 H 667.95 3.79639 3.97686 0
M  V30 7211 H 669.175 4.63489 4.96341 0
M  V30 7212 H 667.121 2.64604 6.00267 0
M  V30 7213 H 667.038 4.36912 6.16963 0
M  V30 7214 H 668.306 3.48978 6.97019 0
M  V30 7215 N 672.536 -0.895792 1.29666 0
M  V30 7216 C 673.446 -2.03329 1.17024 0
M  V30 7217 C 674.462 -1.73753 0.0925962 0
M  V30 7218 O 675.638 -1.99071 0.305431 0
M  V30 7219 C 672.703 -3.36072 0.851841 0
M  V30 7220 C 671.764 -3.7914 2.01373 0
M  V30 7221 C 670.997 -5.05549 1.71043 0
M  V30 7222 O 671.22 -5.66874 0.633213 0
M  V30 7223 O 670.154 -5.44764 2.5596 0
M  V30 7224 H 673.98 -2.16918 2.12556 0
M  V30 7225 H 671.565 -1.02007 1.09156 0
M  V30 7226 H 673.447 -4.15729 0.689006 0
M  V30 7227 H 672.122 -3.23616 -0.0736634 0
M  V30 7228 H 671.029 -3.00233 2.23183 0
M  V30 7229 H 672.362 -3.96186 2.92058 0
M  V30 7230 N 674.014 -1.12206 -1.10668 0
M  V30 7231 C 674.977 -0.790867 -2.15123 0
M  V30 7232 C 675.977 0.193618 -1.5963 0
M  V30 7233 O 677.167 -0.0318728 -1.74171 0
M  V30 7234 C 674.299 -0.174797 -3.40452 0
M  V30 7235 H 675.492 -1.7163 -2.45933 0
M  V30 7236 H 673.045 -0.924993 -1.2599 0
M  V30 7237 H 673.78 0.760478 -3.15257 0
M  V30 7238 H 673.565 -0.88358 -3.82015 0
M  V30 7239 H 675.055 0.0405162 -4.1758 0
M  V30 7240 N 675.492 1.28418 -0.913599 0
M  V30 7241 C 676.908 1.47411 -0.611728 0
M  V30 7242 C 677.108 1.83018 0.843008 0
M  V30 7243 O 676.164 1.93505 1.6221 0
M  V30 7244 C 677.477 2.57703 -1.5495 0
M  V30 7245 C 679.025 2.71572 -1.5562 0
M  V30 7246 C 679.5 3.85008 -2.48058 0
M  V30 7247 N 680.991 3.92361 -2.46184 0
M  V30 7248 C 681.726 4.79516 -3.14407 0
M  V30 7249 N 681.222 5.71262 -3.91958 0
M  V30 7250 N 683.015 4.73125 -3.03495 0
M  V30 7251 H 675.166 1.03585 -1.85429 0
M  V30 7252 H 677.429 0.515907 -0.795326 0
M  V30 7253 H 677.135 2.38298 -2.58663 0
M  V30 7254 H 677.009 3.54801 -1.28048 0
M  V30 7255 H 679.396 2.90366 -0.526441 0
M  V30 7256 H 679.477 1.75006 -1.86565 0
M  V30 7257 H 679.121 3.66969 -3.51136 0
M  V30 7258 H 679.051 4.80971 -2.14416 0
M  V30 7259 H 681.542 3.26749 -1.89851 0
M  V30 7260 H 681.855 6.34593 -4.41034 0
M  V30 7261 H 680.2 5.71103 -3.96063 0
M  V30 7262 H 683.391 4.00442 -2.42413 0
M  V30 7263 H 683.564 5.40834 -3.56935 0
M  V30 7264 N 676.97 0.677563 1.42291 0
M  V30 7265 C 678.216 0.201272 2.01799 0
M  V30 7266 C 678.549 -1.19004 1.53465 0
M  V30 7267 O 677.824 -1.79953 0.738039 0
M  V30 7268 C 678.107 0.238968 3.59306 0
M  V30 7269 C 677.96 1.66594 4.17812 0
M  V30 7270 C 679.279 -0.411287 4.38174 0
M  V30 7271 H 676.398 0.0746114 0.733214 0
M  V30 7272 H 679.04 0.862872 1.69276 0
M  V30 7273 H 677.19 -0.324368 3.87144 0
M  V30 7274 H 678.862 2.28173 4.00917 0
M  V30 7275 H 677.105 2.20576 3.73536 0
M  V30 7276 H 677.776 1.64398 5.26951 0
M  V30 7277 H 680.252 0.0682804 4.16044 0
M  V30 7278 H 679.128 -0.354286 5.47755 0
M  V30 7279 H 679.389 -1.4893 4.1626 0
M  V30 7280 N 678.448 -1.51871 0.421078 0
M  V30 7281 C 679.38 -2.25052 -0.434065 0
M  V30 7282 C 680.393 -1.28458 -1.00013 0
M  V30 7283 O 681.582 -1.54323 -0.897033 0
M  V30 7284 C 678.682 -2.97813 -1.61743 0
M  V30 7285 C 677.855 -4.21374 -1.17315 0
M  V30 7286 C 676.914 -4.76854 -2.22478 0
M  V30 7287 O 675.94 -5.39123 -1.82577 0
M  V30 7288 N 677.142 -4.59467 -3.54782 0
M  V30 7289 H 679.907 -2.99077 0.193073 0
M  V30 7290 H 677.468 -1.59972 0.249088 0
M  V30 7291 H 679.46 -3.3182 -2.31685 0
M  V30 7292 H 678.03 -2.26899 -2.15024 0
M  V30 7293 H 677.25 -3.93046 -0.3014 0
M  V30 7294 H 678.538 -5.01591 -0.853444 0
M  V30 7295 H 677.936 -4.09832 -3.89941 0
M  V30 7296 H 676.493 -4.9788 -4.20665 0
M  V30 7297 N 679.926 -0.151884 -1.56866 0
M  V30 7298 C 681.154 0.504813 -2.00647 0
M  V30 7299 C 681.569 1.58098 -1.03201 0
M  V30 7300 O 680.926 1.82476 -0.0297814 0
M  V30 7301 C 680.977 1.10099 -3.44326 0
M  V30 7302 O 680.698 0.0678021 -4.38048 0
M  V30 7303 C 682.199 1.83782 -4.03409 0
M  V30 7304 H 679.419 0.130989 -0.65809 0
M  V30 7305 H 681.963 -0.247903 -2.02992 0
M  V30 7306 H 680.118 1.8043 -3.42817 0
M  V30 7307 H 680.532 0.505237 -5.22061 0
M  V30 7308 H 682.006 2.2078 -5.05925 0
M  V30 7309 H 682.483 2.72557 -3.44397 0
M  V30 7310 H 683.089 1.18138 -4.08563 0
M  V30 7311 N 681.404 1.57128 0.121893 0
M  V30 7312 C 682.334 2.03165 1.15092 0
M  V30 7313 C 683.315 0.915587 1.43356 0
M  V30 7314 O 684.5 1.1851 1.53847 0
M  V30 7315 C 681.63 2.43352 2.47784 0
M  V30 7316 C 680.584 3.58376 2.33989 0
M  V30 7317 C 679.91 3.84454 3.71617 0
M  V30 7318 C 681.21 4.90199 1.80283 0
M  V30 7319 H 682.904 2.89382 0.768023 0
M  V30 7320 H 680.45 1.39218 0.367998 0
M  V30 7321 H 682.403 2.74163 3.20019 0
M  V30 7322 H 681.127 1.54103 2.87958 0
M  V30 7323 H 679.786 3.2777 1.64202 0
M  V30 7324 H 679.434 2.92414 4.09271 0
M  V30 7325 H 679.134 4.61877 3.6324 0
M  V30 7326 H 680.658 4.17714 4.45362 0
M  V30 7327 H 682.072 5.19565 2.42333 0
M  V30 7328 H 680.469 5.71601 1.82735 0
M  V30 7329 H 681.539 4.78904 0.760184 0
M  V30 7330 N 682.882 -0.391992 1.52647 0
M  V30 7331 C 683.845 -1.46135 1.7657 0
M  V30 7332 C 684.845 -1.47701 0.635698 0
M  V30 7333 O 686.035 -1.48924 0.903728 0
M  V30 7334 C 683.167 -2.85443 1.86374 0
M  V30 7335 H 684.36 -1.26208 2.72051 0
M  V30 7336 H 681.913 -0.623549 1.43323 0
M  V30 7337 H 682.648 -3.10718 0.928685 0
M  V30 7338 H 682.433 -2.85708 2.68539 0
M  V30 7339 H 683.923 -3.62933 2.06566 0
M  V30 7340 N 684.36 -1.4356 -0.65026 0
M  V30 7341 C 685.323 -1.48615 -1.74489 0
M  V30 7342 C 686.323 -0.370483 -1.56474 0
M  V30 7343 O 687.513 -0.632351 -1.62317 0
M  V30 7344 C 684.645 -1.34161 -3.13391 0
M  V30 7345 H 685.838 -2.46103 -1.71387 0
M  V30 7346 H 683.391 -1.30369 -0.862186 0
M  V30 7347 H 684.126 -0.376918 -3.22102 0
M  V30 7348 H 683.911 -2.1504 -3.27872 0
M  V30 7349 H 685.401 -1.40637 -3.93206 0
M  V30 7350 N 685.838 0.888903 -1.30139 0
M  V30 7351 C 687.068 1.67115 -1.21474 0
M  V30 7352 C 687.476 1.87852 0.225472 0
M  V30 7353 O 686.819 1.42324 1.16145 0
M  V30 7354 C 686.881 3.0713 -1.86846 0
M  V30 7355 C 686.545 3.09582 -3.36167 0
M  V30 7356 C 687.542 2.88929 -4.32222 0
M  V30 7357 C 685.227 3.31304 -3.77549 0
M  V30 7358 C 687.221 2.89949 -5.67634 0
M  V30 7359 C 684.908 3.31954 -5.13079 0
M  V30 7360 C 685.906 3.113 -6.07932 0
M  V30 7361 O 685.594 3.11758 -7.40987 0
M  V30 7362 H 685.326 0.528372 -0.421662 0
M  V30 7363 H 687.88 1.11919 -1.7223 0
M  V30 7364 H 686.11 3.63973 -1.30615 0
M  V30 7365 H 687.799 3.6749 -1.72354 0
M  V30 7366 H 688.565 2.71948 -4.01584 0
M  V30 7367 H 684.444 3.46417 -3.04165 0
M  V30 7368 H 687.988 2.73746 -6.41645 0
M  V30 7369 H 683.885 3.48469 -5.43359 0
M  V30 7370 H 684.653 3.27951 -7.49927 0
M  V30 7371 N 687.317 1.12792 1.10072 0
M  V30 7372 C 688.227 0.812369 2.20086 0
M  V30 7373 C 689.243 -0.200349 1.72843 0
M  V30 7374 O 690.419 -0.0330262 2.01373 0
M  V30 7375 C 687.484 0.275685 3.45602 0
M  V30 7376 C 686.545 1.34881 4.07561 0
M  V30 7377 C 685.778 0.837639 5.27086 0
M  V30 7378 O 686.001 -0.327224 5.69461 0
M  V30 7379 O 684.935 1.60894 5.79997 0
M  V30 7380 H 688.761 1.73133 2.49517 0
M  V30 7381 H 686.346 0.904863 1.18881 0
M  V30 7382 H 688.228 -0.0185375 4.21396 0
M  V30 7383 H 686.903 -0.615783 3.17789 0
M  V30 7384 H 685.81 1.69625 3.33434 0
M  V30 7385 H 687.143 2.21418 4.39585 0
M  V30 7386 N 688.795 -1.27931 0.920396 0
M  V30 7387 C 689.758 -2.25345 0.41858 0
M  V30 7388 C 690.758 -1.54116 -0.458798 0
M  V30 7389 O 691.948 -1.72235 -0.260912 0
M  V30 7390 C 689.08 -3.38556 -0.399104 0
M  V30 7391 H 690.273 -2.71251 1.27918 0
M  V30 7392 H 687.826 -1.39728 0.700406 0
M  V30 7393 H 688.561 -2.98021 -1.27882 0
M  V30 7394 H 688.346 -3.91426 0.229863 0
M  V30 7395 H 689.836 -4.10976 -0.740817 0
M  V30 7396 N 690.273 -0.685099 -1.4193 0
M  V30 7397 C 691.236 -0.0222632 -2.29189 0
M  V30 7398 C 692.236 0.7186 -1.4385 0
M  V30 7399 O 693.426 0.555058 -1.6512 0
M  V30 7400 C 690.558 0.979013 -3.2654 0
M  V30 7401 H 691.751 -0.790424 -2.89296 0
M  V30 7402 H 689.304 -0.448012 -1.49742 0
M  V30 7403 H 690.039 1.77531 -2.71392 0
M  V30 7404 H 689.824 0.451037 -3.89497 0
M  V30 7405 H 691.314 1.44091 -3.91954 0
M  V30 7406 N 691.751 1.51645 -0.429126 0
M  V30 7407 C 693.167 1.59394 -0.080994 0
M  V30 7408 C 693.367 1.44064 1.40882 0
M  V30 7409 O 692.423 1.27771 2.17786 0
M  V30 7410 C 693.736 2.94779 -0.593773 0
M  V30 7411 C 695.284 3.08067 -0.553494 0
M  V30 7412 C 695.759 4.45963 -1.04311 0
M  V30 7413 N 697.25 4.5226 -1.00076 0
M  V30 7414 C 697.985 5.57268 -1.35056 0
M  V30 7415 N 697.481 6.69734 -1.77282 0
M  V30 7416 N 699.274 5.47582 -1.26925 0
M  V30 7417 H 691.425 1.59856 -1.39857 0
M  V30 7418 H 693.688 0.753095 -0.575805 0
M  V30 7419 H 693.394 3.11342 -1.63583 0
M  V30 7420 H 693.268 3.77197 -0.0142202 0
M  V30 7421 H 695.655 2.91177 0.479556 0
M  V30 7422 H 695.736 2.27508 -1.16935 0
M  V30 7423 H 695.38 4.63598 -2.07459 0
M  V30 7424 H 695.31 5.25049 -0.403873 0
M  V30 7425 H 697.801 3.71537 -0.690564 0
M  V30 7426 H 698.114 7.4587 -2.02232 0
M  V30 7427 H 696.459 6.70963 -1.81202 0
M  V30 7428 H 699.65 4.58604 -0.93809 0
M  V30 7429 H 699.823 6.29308 -1.54516 0
M  V30 7430 N 693.229 0.160201 1.56784 0
M  V30 7431 C 694.176 -0.774416 2.1742 0
M  V30 7432 C 695.146 -1.23483 1.11091 0
M  V30 7433 O 696.331 -1.30499 1.39193 0
M  V30 7434 C 693.471 -2.00283 2.81035 0
M  V30 7435 C 692.584 -1.58701 4.01793 0
M  V30 7436 C 691.719 -2.76824 4.53367 0
M  V30 7437 C 690.758 -2.31679 5.66561 0
M  V30 7438 N 689.895 -3.42856 6.12694 0
M  V30 7439 H 694.735 -0.250542 2.96945 0
M  V30 7440 H 692.272 -0.111943 1.46673 0
M  V30 7441 H 694.23 -2.72316 3.16069 0
M  V30 7442 H 692.86 -2.5006 2.04132 0
M  V30 7443 H 691.912 -0.76384 3.72652 0
M  V30 7444 H 693.224 -1.21555 4.83762 0
M  V30 7445 H 692.378 -3.57029 4.90525 0
M  V30 7446 H 691.117 -3.17223 3.70433 0
M  V30 7447 H 690.122 -1.49917 5.28966 0
M  V30 7448 H 691.347 -1.9235 6.5129 0
M  V30 7449 H 689.293 -3.82852 5.32692 0
M  V30 7450 H 689.21 -3.09767 6.89624 0
M  V30 7451 H 690.478 -4.23379 6.545 0
M  V30 7452 N 694.707 -1.5719 -0.113559 0
M  V30 7453 C 695.955 -1.84772 -0.818761 0
M  V30 7454 C 696.276 -0.746196 -1.80158 0
M  V30 7455 O 695.546 0.229305 -1.94553 0
M  V30 7456 H 694.126 -0.681737 -0.305359 0
M  V30 7457 H 696.788 -1.94645 -0.0995845 0
M  V30 7458 H 695.884 -2.80878 -1.36067 0
M  V30 7459 N 696.185 0.383891 -1.52853 0
M  V30 7460 C 697.132 1.46924 -1.77995 0
M  V30 7461 C 698.102 1.53958 -0.623396 0
M  V30 7462 O 699.287 1.70134 -0.863657 0
M  V30 7463 C 696.427 2.84093 -1.95921 0
M  V30 7464 C 695.54 2.86171 -3.23621 0
M  V30 7465 C 694.675 4.14799 -3.31836 0
M  V30 7466 C 693.714 4.10948 -4.53639 0
M  V30 7467 N 692.851 5.31192 -4.59107 0
M  V30 7468 H 697.691 1.24786 -2.70615 0
M  V30 7469 H 695.228 0.605265 -1.34071 0
M  V30 7470 H 697.186 3.63755 -2.04299 0
M  V30 7471 H 695.816 3.04671 -1.06656 0
M  V30 7472 H 694.868 1.9885 -3.24288 0
M  V30 7473 H 696.18 2.79194 -4.13343 0
M  V30 7474 H 695.334 5.02867 -3.39425 0
M  V30 7475 H 694.073 4.24505 -2.40097 0
M  V30 7476 H 693.078 3.21268 -4.46169 0
M  V30 7477 H 694.303 4.0286 -5.467 0
M  V30 7478 H 692.249 5.41518 -3.70262 0
M  V30 7479 H 692.166 5.26311 -5.42708 0
M  V30 7480 H 693.434 6.21143 -4.70958 0
M  V30 7481 O 697.702 1.52561 0.529841 0
M  V30 7482 H 698.393 1.53227 1.18495 0
M  V30 END ATOM
M  V30 BEGIN BOND
M  V30 END BOND
M  V30 END CTAB
M  END
$$$$
