drugbank_target|P00935 Cystathionine gamma-synthase (DB04083)
 OpenBabel12092120283D

  0  0  0     0  0            999 V3000
M  V30 BEGIN CTAB
M  V30 COUNTS 5859 5912 0 0 0
M  V30 BEGIN ATOM
M  V30 1 H -0.908 1.98254 -0.117106 0
M  V30 2 N 0 1.576 0 0
M  V30 3 C 0.933 2.03868 1.02534 0
M  V30 4 C 1.911 0.928543 1.3348 0
M  V30 5 O 3.095 1.19667 1.45644 0
M  V30 6 C 0.222 2.43627 2.35294 0
M  V30 7 C -0.732 3.65373 2.2001 0
M  V30 8 S 0.101 5.13292 1.52614 0
M  V30 9 C 1.257 5.56322 2.86805 0
M  V30 10 H 1.49 2.90518 0.631377 0
M  V30 11 H -0.977 1.52953 0.210867 0
M  V30 12 H 0.981 2.67203 3.11629 0
M  V30 13 H -0.358 1.57376 2.7183 0
M  V30 14 H -1.165 3.90944 3.18086 0
M  V30 15 H -1.563 3.418 1.51819 0
M  V30 16 H 0.729 5.58782 3.83104 0
M  V30 17 H 1.672 6.56266 2.65933 0
M  V30 18 H 2.08 4.83886 2.90714 0
M  V30 19 N 1.4781 -0.272755 1.55222 0
M  V30 20 C 2.7061 -1.02255 1.79865 0
M  V30 21 C 3.1211 -1.79924 0.572088 0
M  V30 22 O 2.4781 -1.76638 -0.458842 0
M  V30 23 C 2.5291 -1.98094 3.02392 0
M  V30 24 O 2.2501 -1.23572 4.20311 0
M  V30 25 C 3.7511 -2.84884 3.39641 0
M  V30 26 H 0.9711 -0.302057 0.599168 0
M  V30 27 H 3.5151 -0.303465 2.02236 0
M  V30 28 H 1.6701 -2.65465 2.82147 0
M  V30 29 H 2.0841 -1.88172 4.89583 0
M  V30 30 H 3.5581 -3.47927 4.28545 0
M  V30 31 H 4.0351 -3.54665 2.59055 0
M  V30 32 H 4.6411 -2.23003 3.62146 0
M  V30 33 N 2.9562 -1.48159 -0.537278 0
M  V30 34 C 4.3722 -1.34118 -0.865129 0
M  V30 35 C 4.5722 -0.346678 -1.98495 0
M  V30 36 O 3.6282 0.234715 -2.51407 0
M  V30 37 C 4.9412 -2.73963 -1.23954 0
M  V30 38 C 6.4892 -2.82397 -1.34984 0
M  V30 39 C 6.9642 -4.22928 -1.75772 0
M  V30 40 N 8.4552 -4.25566 -1.82887 0
M  V30 41 C 9.1902 -5.31235 -2.15817 0
M  V30 42 N 8.6862 -6.47189 -2.47222 0
M  V30 43 N 10.4792 -5.18624 -2.16761 0
M  V30 44 H 2.6302 -2.1144 0.201715 0
M  V30 45 H 4.8932 -0.947598 0.0275949 0
M  V30 46 H 4.5992 -3.48264 -0.490381 0
M  V30 47 H 4.4732 -3.0702 -2.19132 0
M  V30 48 H 6.8602 -2.08356 -2.08978 0
M  V30 49 H 6.9412 -2.5297 -0.379448 0
M  V30 50 H 6.5852 -4.97482 -1.02341 0
M  V30 51 H 6.5152 -4.49794 -2.73848 0
M  V30 52 H 9.0062 -3.41924 -1.60924 0
M  V30 53 H 9.3192 -7.23564 -2.71433 0
M  V30 54 H 7.6642 -6.50476 -2.44757 0
M  V30 55 H 10.8552 -4.27056 -1.91679 0
M  V30 56 H 11.0282 -6.01078 -2.42093 0
M  V30 57 N 4.4343 0.785586 -1.36625 0
M  V30 58 C 5.3813 1.89838 -1.31264 0
M  V30 59 C 6.3513 1.65115 -0.180633 0
M  V30 60 O 7.5363 1.87222 -0.36777 0
M  V30 61 C 4.6763 3.26706 -1.11163 0
M  V30 62 C 3.7893 3.63476 -2.33472 0
M  V30 63 C 2.9243 4.89481 -2.06353 0
M  V30 64 C 1.9633 5.18941 -3.24602 0
M  V30 65 N 1.1003 6.36131 -2.97123 0
M  V30 66 H 5.9403 1.93756 -2.26413 0
M  V30 67 H 3.4773 0.947454 -1.12524 0
M  V30 68 H 5.4353 4.05639 -0.975337 0
M  V30 69 H 4.0653 3.222 -0.196674 0
M  V30 70 H 3.1173 2.79636 -2.57891 0
M  V30 71 H 4.4293 3.81193 -3.21704 0
M  V30 72 H 3.5833 5.76288 -1.89675 0
M  V30 73 H 2.3223 4.73841 -1.15437 0
M  V30 74 H 1.3273 4.30615 -3.41834 0
M  V30 75 H 2.5523 5.36498 -4.16349 0
M  V30 76 H 0.4983 6.21875 -2.08823 0
M  V30 77 H 0.4153 6.54198 -3.78894 0
M  V30 78 H 1.6833 7.2591 -2.84033 0
M  V30 79 N 5.9124 1.20967 1.01018 0
M  V30 80 C 6.8444 0.922059 2.09835 0
M  V30 81 C 7.8574 -0.0927106 1.62536 0
M  V30 82 O 9.0464 0.139127 1.77957 0
M  V30 83 C 6.1464 0.362004 3.36961 0
M  V30 84 C 5.3194 1.42986 4.13369 0
M  V30 85 C 4.3784 0.879976 5.1879 0
M  V30 86 O 3.4044 1.56219 5.47343 0
M  V30 87 N 4.6064 -0.307396 5.79686 0
M  V30 88 H 7.3714 1.8588 2.35093 0
M  V30 89 H 4.9324 1.11422 1.1746 0
M  V30 90 H 6.9244 -0.0201474 4.04695 0
M  V30 91 H 5.4944 -0.479437 3.08902 0
M  V30 92 H 4.7144 1.98608 3.40512 0
M  V30 93 H 6.0024 2.14885 4.61196 0
M  V30 94 H 5.4004 -0.878796 5.58832 0
M  V30 95 H 3.9574 -0.631115 6.48737 0
M  V30 96 N 7.3905 -1.2043 1.01659 0
M  V30 97 C 8.3535 -2.21433 0.591616 0
M  V30 98 C 9.3535 -1.57203 -0.338226 0
M  V30 99 O 10.5435 -1.73737 -0.126918 0
M  V30 100 C 7.6755 -3.40628 -0.136058 0
M  V30 101 H 8.8685 -2.60545 1.48514 0
M  V30 102 H 6.4215 -1.33893 0.806379 0
M  V30 103 H 7.1565 -3.07019 -1.04449 0
M  V30 104 H 6.9415 -3.88475 0.531917 0
M  V30 105 H 8.4315 -4.15475 -0.420735 0
M  V30 106 N 8.8686 -0.792821 -1.36206 0
M  V30 107 C 10.0966 -0.378825 -2.03402 0
M  V30 108 C 10.5116 1.00586 -1.59774 0
M  V30 109 O 9.8686 1.64574 -0.788764 0
M  V30 110 C 9.9196 -0.43683 -3.58851 0
M  V30 111 O 9.6406 -1.76691 -4.00889 0
M  V30 112 C 11.1416 -0.0138943 -4.43298 0
M  V30 113 H 8.3616 -0.155673 -0.652692 0
M  V30 114 H 10.9056 -1.07261 -1.74113 0
M  V30 115 H 9.0606 0.208575 -3.86838 0
M  V30 116 H 9.4746 -1.72011 -4.95492 0
M  V30 117 H 10.9486 -0.105615 -5.51899 0
M  V30 118 H 11.4256 1.03915 -4.2673 0
M  V30 119 H 12.0316 -0.63192 -4.20579 0
M  V30 120 N 10.3467 1.47872 -0.545128 0
M  V30 121 C 11.5957 2.01695 -0.0145033 0
M  V30 122 C 11.9087 1.42609 1.33873 0
M  V30 123 O 13.1147 1.88021 1.95858 0
M  V30 124 C 11.5707 3.59892 0.0245068 0
M  V30 125 C 11.1787 4.27966 -1.32475 0
M  V30 126 C 12.9227 4.21507 0.50316 0
M  V30 127 C 10.8297 5.78136 -1.2455 0
M  V30 128 H 9.7597 0.753998 -0.00165172 0
M  V30 129 H 12.4107 1.69985 -0.691175 0
M  V30 130 H 10.7927 3.88509 0.766575 0
M  V30 131 H 11.9667 4.11003 -2.08357 0
M  V30 132 H 10.2817 3.78286 -1.74036 0
M  V30 133 H 12.8787 5.31538 0.580656 0
M  V30 134 H 13.2217 3.87855 1.51243 0
M  V30 135 H 13.7547 3.97376 -0.183681 0
M  V30 136 H 10.4937 6.16388 -2.23039 0
M  V30 137 H 10.0137 5.97469 -0.528282 0
M  V30 138 H 11.6927 6.40099 -0.942488 0
M  V30 139 N 11.8248 0.280983 1.55075 0
M  V30 140 C 12.7878 -0.590896 2.21452 0
M  V30 141 C 13.7878 -1.07682 1.19421 0
M  V30 142 O 14.9778 -0.97605 1.44288 0
M  V30 143 C 12.1098 -1.81587 2.88511 0
M  V30 144 H 13.3028 -0.0112554 2.99898 0
M  V30 145 H 10.8558 0.0316438 1.56268 0
M  V30 146 H 11.5908 -2.43587 2.14093 0
M  V30 147 H 11.3758 -1.4753 3.63287 0
M  V30 148 H 12.8658 -2.43575 3.39206 0
M  V30 149 N 13.3029 -1.57598 0.00835791 0
M  V30 150 C 14.5489 -1.91211 -0.675732 0
M  V30 151 C 14.8819 -0.883139 -1.72958 0
M  V30 152 O 14.1569 0.097016 -1.94258 0
M  V30 153 C 14.4399 -3.35379 -1.31123 0
M  V30 154 C 14.2929 -4.48999 -0.268356 0
M  V30 155 C 15.6119 -3.7912 -2.23508 0
M  V30 156 H 12.7309 -0.695374 -0.244179 0
M  V30 157 H 15.3729 -1.89901 0.0613655 0
M  V30 158 H 13.5229 -3.36626 -1.93946 0
M  V30 159 H 15.1949 -4.59887 0.360844 0
M  V30 160 H 13.4379 -4.31873 0.408482 0
M  V30 161 H 14.1089 -5.46851 -0.752218 0
M  V30 162 H 16.5849 -3.79477 -1.70693 0
M  V30 163 H 15.4609 -4.80729 -2.64936 0
M  V30 164 H 15.7219 -3.13455 -3.11766 0
M  V30 165 N 14.781 0.264519 -1.55364 0
M  V30 166 C 16.197 0.61215 -1.47394 0
M  V30 167 C 16.397 1.89134 -0.695018 0
M  V30 168 O 15.453 2.51563 -0.217275 0
M  V30 169 C 16.766 0.731235 -2.91674 0
M  V30 170 C 18.314 0.82473 -3.01939 0
M  V30 171 C 18.789 0.975522 -4.4749 0
M  V30 172 N 20.28 1.04083 -4.51354 0
M  V30 173 C 21.015 1.17646 -5.61201 0
M  V30 174 N 20.511 1.27874 -6.80896 0
M  V30 175 N 22.304 1.20823 -5.48961 0
M  V30 176 H 14.455 -0.575456 -2.04456 0
M  V30 177 H 16.718 -0.196099 -0.927496 0
M  V30 178 H 16.424 -0.138392 -3.51428 0
M  V30 179 H 16.298 1.60883 -3.41169 0
M  V30 180 H 18.685 1.68482 -2.42276 0
M  V30 181 H 18.766 -0.0776479 -2.55682 0
M  V30 182 H 18.41 0.120058 -5.07758 0
M  V30 183 H 18.34 1.89268 -4.91412 0
M  V30 184 H 20.831 0.973846 -3.65136 0
M  V30 185 H 21.144 1.38081 -7.60364 0
M  V30 186 H 19.489 1.24863 -6.83692 0
M  V30 187 H 22.68 1.12469 -4.54388 0
M  V30 188 H 22.853 1.31049 -6.3461 0
M  V30 189 N 16.2591 1.48442 0.529413 0
M  V30 190 C 17.4841 1.60406 1.31471 0
M  V30 191 C 17.9091 0.264738 1.86228 0
M  V30 192 O 17.2671 -0.763668 1.64432 0
M  V30 193 C 17.3151 2.65419 2.44101 0
M  V30 194 O 16.4191 2.22618 3.47153 0
M  V30 195 H 15.7601 0.537863 0.389357 0
M  V30 196 H 18.2901 1.94432 0.636965 0
M  V30 197 H 18.3001 2.86709 2.90279 0
M  V30 198 H 16.9751 3.62652 2.03608 0
M  V30 199 H 15.5521 2.11543 3.0709 0
M  V30 200 N 17.7372 -0.778329 1.37039 0
M  V30 201 C 18.9852 -1.53361 1.31623 0
M  V30 202 C 19.3062 -1.94739 -0.100831 0
M  V30 203 O 18.5762 -1.65797 -1.04347 0
M  V30 204 H 17.1562 -0.568794 0.484234 0
M  V30 205 H 19.8182 -0.926742 1.71457 0
M  V30 206 H 18.9142 -2.43606 1.95096 0
M  V30 207 N 19.2153 -1.21501 -1.00376 0
M  V30 208 C 20.1453 -0.999478 -2.11028 0
M  V30 209 C 21.1263 0.0759671 -1.6993 0
M  V30 210 O 22.3113 -0.0841106 -1.94018 0
M  V30 211 C 19.4413 -0.564709 -3.42678 0
M  V30 212 C 18.3953 -1.58486 -3.97576 0
M  V30 213 C 17.7213 -1.00628 -5.25146 0
M  V30 214 C 19.0213 -2.97204 -4.29496 0
M  V30 215 H 20.7153 -1.92495 -2.29317 0
M  V30 216 H 18.2613 -0.92693 -1.102 0
M  V30 217 H 20.2143 -0.401091 -4.19487 0
M  V30 218 H 18.9383 0.396411 -3.24185 0
M  V30 219 H 17.5973 -1.73606 -3.22888 0
M  V30 220 H 17.2453 -0.0368439 -5.02987 0
M  V30 221 H 16.9453 -1.68771 -5.62841 0
M  V30 222 H 18.4693 -0.854015 -6.04598 0
M  V30 223 H 19.8833 -2.8552 -4.97143 0
M  V30 224 H 18.2803 -3.62372 -4.78338 0
M  V30 225 H 19.3503 -3.47956 -3.3772 0
M  V30 226 N 20.6934 1.19889 -1.02296 0
M  V30 227 C 21.6414 2.24938 -0.592081 0
M  V30 228 C 22.6354 1.65257 0.372357 0
M  V30 229 O 23.8414 1.78371 0.241583 0
M  V30 230 H 20.2164 0.731787 -0.173182 0
M  V30 231 H 22.1874 2.58603 -1.48885 0
M  V30 232 C 20.9364 3.47668 0.047351 0
M  V30 233 H 20.2594 3.93875 -0.685772 0
M  V30 234 H 21.6994 4.22852 0.311862 0
M  V30 235 C 20.1584 3.11136 1.29212 0
M  V30 236 O 20.6884 3.2325 2.38479 0
M  V30 237 N 18.8944 2.65625 1.17863 0
M  V30 238 H 18.4414 2.55968 0.289493 0
M  V30 239 H 18.3994 2.41553 2.01245 0
M  V30 240 N 22.1715 0.800033 1.35784 0
M  V30 241 C 23.4485 0.30088 1.93272 0
M  V30 242 C 23.8285 -1.20857 1.73081 0
M  V30 243 O 23.1765 -2.00502 1.09596 0
M  V30 244 C 23.3865 0.70511 3.41803 0
M  V30 245 C 24.7345 0.690871 4.18942 0
M  V30 246 O 25.7585 0.646244 3.50289 0
M  V30 247 O 24.6175 0.74332 5.41421 0
M  V30 248 H 21.7115 0.0771605 0.823393 0
M  V30 249 H 24.2575 0.88329 1.449 0
M  V30 250 H 23.0295 1.74571 3.50201 0
M  V30 251 H 22.6525 0.0971541 3.97481 0
M  V30 252 N 23.6496 -1.47581 0.552962 0
M  V30 253 C 24.9266 -1.95563 -0.0381515 0
M  V30 254 C 25.3066 -1.49552 -1.48988 0
M  V30 255 O 24.6546 -0.732414 -2.16444 0
M  V30 256 C 24.8646 -3.48848 0.102919 0
M  V30 257 C 26.2126 -4.24577 -0.0446082 0
M  V30 258 O 27.2366 -3.56187 0.0302548 0
M  V30 259 O 26.0956 -5.46116 -0.204923 0
M  V30 260 H 23.1896 -0.824321 -0.0665067 0
M  V30 261 H 25.7356 -1.58001 0.619186 0
M  V30 262 H 24.5076 -3.75129 1.11328 0
M  V30 263 H 24.1306 -3.93165 -0.592224 0
M  V30 264 N 25.1277 -0.289203 -1.54924 0
M  V30 265 C 26.0377 0.601863 -2.26748 0
M  V30 266 C 27.0537 1.15834 -1.2984 0
M  V30 267 O 28.2297 1.18564 -1.62802 0
M  V30 268 C 25.2947 1.76299 -2.98529 0
M  V30 269 C 24.3557 1.24178 -4.10948 0
M  V30 270 C 23.5887 2.34757 -4.79296 0
M  V30 271 O 23.8117 3.54411 -4.46933 0
M  V30 272 O 22.7457 2.02115 -5.66951 0
M  V30 273 H 26.5717 0.0195879 -3.03694 0
M  V30 274 H 24.1567 -0.0560868 -1.49295 0
M  V30 275 H 26.0387 2.43973 -3.43592 0
M  V30 276 H 24.7137 2.33209 -2.24488 0
M  V30 277 H 23.6207 0.531104 -3.70311 0
M  V30 278 H 24.9537 0.718252 -4.86931 0
M  V30 279 N 26.6058 1.57591 -0.0167156 0
M  V30 280 C 27.5378 2.06343 0.997753 0
M  V30 281 C 28.5508 0.984469 1.29661 0
M  V30 282 O 29.7398 1.26093 1.26344 0
M  V30 283 C 26.8398 2.46255 2.32834 0
M  V30 284 C 26.0128 3.77083 2.21646 0
M  V30 285 C 25.0718 4.0368 3.37534 0
M  V30 286 O 24.0978 4.7411 3.14973 0
M  V30 287 N 25.2998 3.52881 4.60929 0
M  V30 288 H 28.0648 2.93997 0.581875 0
M  V30 289 H 25.6258 1.61002 0.170316 0
M  V30 290 H 27.6178 2.61149 3.09166 0
M  V30 291 H 26.1878 1.64032 2.66106 0
M  V30 292 H 25.4078 3.72106 1.30119 0
M  V30 293 H 26.6958 4.62822 2.11361 0
M  V30 294 H 26.0938 2.95878 4.82154 0
M  V30 295 H 24.6508 3.73076 5.34469 0
M  V30 296 N 28.0839 -0.256276 1.55502 0
M  V30 297 C 29.3139 -1.00196 1.80677 0
M  V30 298 C 29.7219 -1.79805 0.588797 0
M  V30 299 O 29.0649 -1.78055 -0.451883 0
M  V30 300 C 29.1269 -1.99515 2.99055 0
M  V30 301 C 28.7909 -1.38688 4.35448 0
M  V30 302 C 29.7879 -0.794079 5.138 0
M  V30 303 C 27.4729 -1.40906 4.82132 0
M  V30 304 C 29.4669 -0.231562 6.36979 0
M  V30 305 C 27.1539 -0.842684 6.05262 0
M  V30 306 C 28.1519 -0.254953 6.82524 0
M  V30 307 O 27.8399 0.3027 8.0333 0
M  V30 308 H 27.5719 -0.300919 0.60533 0
M  V30 309 H 30.1259 -0.287307 2.03381 0
M  V30 310 H 28.3559 -2.74785 2.72084 0
M  V30 311 H 30.0449 -2.60349 3.11405 0
M  V30 312 H 30.8109 -0.769519 4.78856 0
M  V30 313 H 26.6899 -1.85591 4.21992 0
M  V30 314 H 30.2339 0.227816 6.97228 0
M  V30 315 H 26.1309 -0.86454 6.39684 0
M  V30 316 H 26.8989 0.193662 8.18271 0
M  V30 317 N 29.562 -1.4872 -0.521534 0
M  V30 318 C 30.81 -1.56857 -1.27437 0
M  V30 319 C 31.131 -0.247982 -1.93417 0
M  V30 320 O 30.401 0.731151 -1.81744 0
M  V30 321 H 28.981 -0.577885 -0.473347 0
M  V30 322 H 31.643 -1.85233 -0.606205 0
M  V30 323 H 30.739 -2.35402 -2.0492 0
M  V30 324 N 31.0401 0.771051 -1.3745 0
M  V30 325 C 32.2801 1.54264 -1.34096 0
M  V30 326 C 32.6441 1.91858 0.0737639 0
M  V30 327 O 33.8451 2.67797 0.23203 0
M  V30 328 C 32.1161 2.77326 -2.25445 0
M  V30 329 S 33.6751 3.67383 -2.39948 0
M  V30 330 H 30.4931 0.528122 -0.476034 0
M  V30 331 H 33.0951 0.906633 -1.73206 0
M  V30 332 H 31.7991 2.47788 -3.27153 0
M  V30 333 H 31.3301 3.45886 -1.87421 0
M  V30 334 H 33.3451 4.69334 -1.61059 0
M  V30 335 N 32.5182 1.22032 0.997298 0
M  V30 336 C 33.7642 1.04376 1.73878 0
M  V30 337 C 34.0972 -0.420716 1.89588 0
M  V30 338 O 33.3722 -1.31202 1.43583 0
M  V30 339 C 33.6552 1.75047 3.14691 0
M  V30 340 C 33.5082 3.29062 3.06656 0
M  V30 341 C 34.8272 1.49928 4.13775 0
M  V30 342 H 31.9462 0.380578 0.631133 0
M  V30 343 H 34.5882 1.50312 1.16217 0
M  V30 344 H 32.7382 1.35996 3.63919 0
M  V30 345 H 34.4102 3.7753 2.65083 0
M  V30 346 H 32.6532 3.58967 2.43568 0
M  V30 347 H 33.3242 3.73683 4.06282 0
M  V30 348 H 35.8002 1.83842 3.73285 0
M  V30 349 H 34.6762 2.01878 5.10428 0
M  V30 350 H 34.9372 0.430929 4.39995 0
M  V30 351 N 33.9963 -1.19345 1.0293 0
M  V30 352 C 35.2423 -1.89318 0.727083 0
M  V30 353 C 35.5753 -1.79446 -0.742483 0
M  V30 354 O 34.8503 -1.1871 -1.54072 0
M  V30 355 C 35.1333 -3.40238 1.17942 0
M  V30 356 C 34.9863 -3.58979 2.71024 0
M  V30 357 C 36.3053 -4.33479 0.760548 0
M  V30 358 H 33.4243 -0.687475 0.265606 0
M  V30 359 H 36.0663 -1.40477 1.2793 0
M  V30 360 H 34.2163 -3.81964 0.709608 0
M  V30 361 H 35.8883 -3.26421 3.25955 0
M  V30 362 H 34.1313 -3.02018 3.11396 0
M  V30 363 H 34.8023 -4.64823 2.9773 0
M  V30 364 H 37.2783 -3.99469 1.16464 0
M  V30 365 H 36.1543 -5.37664 1.10493 0
M  V30 366 H 36.4153 -4.40813 -0.337063 0
M  V30 367 N 35.4744 -0.807222 -1.35358 0
M  V30 368 C 36.8854 -0.44876 -1.81226 0
M  V30 369 C 37.2364 1.02929 -1.67033 0
M  V30 370 O 36.3614 1.79991 -1.20133 0
M  V30 371 C 36.9564 -0.807774 -3.2903 0
M  V30 372 C 35.5154 -0.501901 -3.73039 0
M  V30 373 C 34.6624 -1.03304 -2.57339 0
M  V30 374 H 37.6134 -0.998808 -1.23327 0
M  V30 375 H 37.6344 -0.10554 -3.80354 0
M  V30 376 H 37.1464 -1.88357 -3.39328 0
M  V30 377 H 35.2474 0.565128 -3.68289 0
M  V30 378 H 35.3604 -1.03497 -4.67787 0
M  V30 379 H 33.7244 -0.455339 -2.50597 0
M  V30 380 H 34.5074 -2.11496 -2.70415 0
M  V30 381 N 36.9525 1.47285 -0.560781 0
M  V30 382 C 38.3635 1.86258 -0.128343 0
M  V30 383 C 38.7145 1.46699 1.30284 0
M  V30 384 O 37.8395 0.871698 1.98067 0
M  V30 385 C 38.4345 3.38044 -0.22614 0
M  V30 386 C 36.9935 3.76096 0.151283 0
M  V30 387 C 36.1405 2.71335 -0.572084 0
M  V30 388 H 39.0915 1.38752 -0.770297 0
M  V30 389 H 39.1125 3.76441 0.554322 0
M  V30 390 H 38.6245 3.66806 -1.26788 0
M  V30 391 H 36.7255 3.52951 1.19399 0
M  V30 392 H 36.8385 4.78641 -0.209765 0
M  V30 393 H 35.2025 2.54696 -0.0147653 0
M  V30 394 H 35.9855 3.02938 -1.61504 0
M  V30 395 N 38.4306 0.297415 1.54768 0
M  V30 396 C 39.6796 -0.313669 1.99246 0
M  V30 397 C 39.9926 -1.55281 1.18942 0
M  V30 398 O 41.1986 -2.23825 1.5367 0
M  V30 399 C 39.6546 -0.609407 3.54703 0
M  V30 400 C 39.2626 0.611192 4.43811 0
M  V30 401 C 41.0066 -1.18188 4.07715 0
M  V30 402 C 38.9136 0.288805 5.90694 0
M  V30 403 H 37.8436 -0.120979 0.744231 0
M  V30 404 H 40.4946 0.40556 1.78962 0
M  V30 405 H 38.8766 -1.38813 3.70873 0
M  V30 406 H 40.0506 1.3875 4.39414 0
M  V30 407 H 38.3656 1.10205 4.01552 0
M  V30 408 H 40.9626 -1.43727 5.15021 0
M  V30 409 H 41.3056 -2.12299 3.58099 0
M  V30 410 H 41.8386 -0.464944 3.95074 0
M  V30 411 H 38.5776 1.19838 6.44453 0
M  V30 412 H 38.0976 -0.450305 5.98107 0
M  V30 413 H 39.7766 -0.110933 6.46905 0
M  V30 414 N 39.9087 -1.5758 0.0250728 0
M  V30 415 C 40.8587 -2.06468 -0.967201 0
M  V30 416 C 41.8427 -0.964376 -1.28797 0
M  V30 417 O 43.0347 -1.22797 -1.27475 0
M  V30 418 C 40.1637 -2.59203 -2.25097 0
M  V30 419 C 39.2497 -3.76157 -1.95874 0
M  V30 420 N 39.6407 -4.86919 -1.36905 0
M  V30 421 C 37.9387 -3.84566 -2.25887 0
M  V30 422 C 38.6397 -5.68172 -1.24724 0
M  V30 423 N 37.6157 -5.14953 -1.74138 0
M  V30 424 H 41.4177 -2.89508 -0.506176 0
M  V30 425 H 38.9317 -1.61399 -0.18004 0
M  V30 426 H 40.9287 -2.92517 -2.97052 0
M  V30 427 H 39.5887 -1.77592 -2.71829 0
M  V30 428 H 40.5997 -5.07256 -1.04459 0
M  V30 429 H 37.2767 -3.13854 -2.75321 0
M  V30 430 H 38.6667 -6.67221 -0.791605 0
M  V30 431 N 41.3868 0.248026 -1.55636 0
M  V30 432 C 42.3168 1.31079 -1.93237 0
M  V30 433 C 43.2978 1.50264 -0.797174 0
M  V30 434 O 44.4828 1.62891 -1.05737 0
M  V30 435 C 41.6128 2.66575 -2.22609 0
M  V30 436 C 40.5668 2.62087 -3.3837 0
M  V30 437 C 39.8928 4.01369 -3.53281 0
M  V30 438 C 41.1928 2.19171 -4.7409 0
M  V30 439 H 42.8868 0.998556 -2.82257 0
M  V30 440 H 40.4328 0.47891 -1.35803 0
M  V30 441 H 42.3858 3.41057 -2.47503 0
M  V30 442 H 41.1098 2.99432 -1.30414 0
M  V30 443 H 39.7688 1.90063 -3.13483 0
M  V30 444 H 39.4168 4.31489 -2.58508 0
M  V30 445 H 39.1168 3.99254 -4.31127 0
M  V30 446 H 40.6408 4.77552 -3.80495 0
M  V30 447 H 42.0548 2.83384 -4.98363 0
M  V30 448 H 40.4518 2.2817 -5.5503 0
M  V30 449 H 41.5218 1.14336 -4.71227 0
M  V30 450 N 42.8649 1.48995 0.513639 0
M  V30 451 C 44.0899 1.61792 1.29762 0
M  V30 452 C 44.5149 0.284475 1.85936 0
M  V30 453 O 43.8729 -0.746185 1.65232 0
M  V30 454 C 43.9209 2.67993 2.41272 0
M  V30 455 O 43.0249 2.26287 3.44772 0
M  V30 456 H 42.3659 0.541963 0.38363 0
M  V30 457 H 44.8959 1.95097 0.616307 0
M  V30 458 H 44.9059 2.89772 2.87221 0
M  V30 459 H 43.5809 3.64791 1.9975 0
M  V30 460 H 42.1579 2.14788 3.04829 0
M  V30 461 N 44.343 -0.763751 1.37857 0
M  V30 462 C 45.568 -1.55805 1.36893 0
M  V30 463 C 45.993 -1.88054 -0.0416135 0
M  V30 464 O 45.351 -1.49825 -1.02089 0
M  V30 465 C 45.399 -2.84012 2.22192 0
M  V30 466 O 44.503 -3.78732 1.63204 0
M  V30 467 H 43.844 -0.471638 0.46739 0
M  V30 468 H 46.374 -0.944657 1.81487 0
M  V30 469 H 46.384 -3.33037 2.35691 0
M  V30 470 H 45.059 -2.59869 3.24716 0
M  V30 471 H 43.636 -3.37402 1.58791 0
M  V30 472 N 45.8211 -1.22559 -0.990812 0
M  V30 473 C 47.0491 -1.07779 -1.76611 0
M  V30 474 C 47.4641 0.371513 -1.85109 0
M  V30 475 O 46.8211 1.25737 -1.32274 0
M  V30 476 C 46.8721 -1.68512 -3.19822 0
M  V30 477 O 46.5931 -3.07774 -3.1178 0
M  V30 478 C 48.0941 -1.59035 -4.13791 0
M  V30 479 H 45.3141 -0.377729 -0.554583 0
M  V30 480 H 47.8581 -1.62195 -1.24551 0
M  V30 481 H 46.0131 -1.18154 -3.68942 0
M  V30 482 H 46.4271 -3.37062 -4.01858 0
M  V30 483 H 47.9011 -2.0625 -5.1202 0
M  V30 484 H 48.3781 -0.547273 -4.35777 0
M  V30 485 H 48.9841 -2.08709 -3.70568 0
M  V30 486 N 47.2992 1.18797 -1.03562 0
M  V30 487 C 48.5292 1.92319 -0.754773 0
M  V30 488 C 48.9372 1.7612 0.691248 0
M  V30 489 O 48.2802 1.08491 1.48241 0
M  V30 490 C 48.3422 3.44284 -1.03484 0
M  V30 491 C 48.0062 3.84258 -2.47376 0
M  V30 492 C 49.0032 3.88459 -3.45537 0
M  V30 493 C 46.6882 4.15701 -2.81954 0
M  V30 494 C 48.6822 4.23545 -4.76328 0
M  V30 495 C 46.3692 4.50458 -4.12954 0
M  V30 496 C 47.3672 4.54356 -5.09951 0
M  V30 497 O 47.0552 4.88305 -6.38603 0
M  V30 498 H 46.7872 0.617527 -0.275021 0
M  V30 499 H 49.3412 1.51683 -1.38497 0
M  V30 500 H 47.5712 3.85135 -0.347513 0
M  V30 501 H 49.2602 3.99049 -0.7426 0
M  V30 502 H 50.0262 3.6431 -3.20162 0
M  V30 503 H 45.9052 4.11847 -2.0713 0
M  V30 504 H 49.4492 4.26502 -5.52035 0
M  V30 505 H 45.3462 4.74067 -4.38099 0
M  V30 506 H 46.1142 5.06227 -6.43177 0
M  V30 507 N 48.7773 0.814389 1.34928 0
M  V30 508 C 49.7253 0.218424 2.31572 0
M  V30 509 C 50.7193 -0.636128 1.57002 0
M  V30 510 O 51.9253 -0.52842 1.72069 0
M  V30 511 H 48.3003 0.0518799 0.750208 0
M  V30 512 H 50.2713 1.04852 2.79372 0
M  V30 513 C 49.0203 -0.61207 3.4227 0
M  V30 514 H 48.3433 0.0361578 3.99784 0
M  V30 515 H 49.7833 -0.995317 4.12152 0
M  V30 516 C 48.2423 -1.78087 2.85984 0
M  V30 517 O 48.7723 -2.8787 2.80168 0
M  V30 518 N 46.9783 -1.59488 2.42924 0
M  V30 519 H 46.5253 -0.701874 2.47854 0
M  V30 520 H 46.4833 -2.37846 2.05613 0
M  V30 521 N 50.2554 -1.46986 0.568584 0
M  V30 522 C 51.5024 -2.02441 0.0487986 0
M  V30 523 C 51.8304 -1.44169 -1.30559 0
M  V30 524 O 51.0854 -0.591213 -1.86556 0
M  V30 525 C 51.3844 -3.57306 -0.081836 0
M  V30 526 C 51.0504 -4.34552 1.20313 0
M  V30 527 C 49.7124 -4.55376 1.5552 0
M  V30 528 C 52.0644 -4.79016 2.05411 0
M  V30 529 C 49.3924 -5.17913 2.7565 0
M  V30 530 C 51.7444 -5.42879 3.24754 0
M  V30 531 C 50.4084 -5.61933 3.60261 0
M  V30 532 H 49.6784 -0.740785 0.0178567 0
M  V30 533 H 52.3254 -1.76525 0.742384 0
M  V30 534 H 50.6304 -3.8228 -0.858463 0
M  V30 535 H 52.3274 -3.97876 -0.499546 0
M  V30 536 H 48.9174 -4.18631 0.919014 0
M  V30 537 H 53.1014 -4.62696 1.79516 0
M  V30 538 H 48.3574 -5.30858 3.03315 0
M  V30 539 H 52.5314 -5.76293 3.90973 0
M  V30 540 H 50.1584 -6.10161 4.53439 0
M  V30 541 N 51.7335 -0.305618 -1.54608 0
M  V30 542 C 52.9615 0.304775 -2.04643 0
M  V30 543 C 53.3765 1.47167 -1.18268 0
M  V30 544 O 52.7335 1.81296 -0.209328 0
M  V30 545 C 52.7845 0.756564 -3.53495 0
M  V30 546 O 52.5055 -0.36389 -4.36586 0
M  V30 547 C 54.0065 1.43163 -4.19546 0
M  V30 548 H 51.2265 0.0655481 -0.667791 0
M  V30 549 H 53.7705 -0.446592 -1.99564 0
M  V30 550 H 51.9255 1.45794 -3.58919 0
M  V30 551 H 52.3395 -0.0113121 -5.24499 0
M  V30 552 H 53.8135 1.69886 -5.25207 0
M  V30 553 H 54.2905 2.37318 -3.69563 0
M  V30 554 H 54.8965 0.773307 -4.18211 0
M  V30 555 N 53.2116 1.57565 -0.0334293 0
M  V30 556 C 54.4596 1.91598 0.642999 0
M  V30 557 C 54.7806 0.910847 1.7242 0
M  V30 558 O 54.0506 -0.0469931 1.95844 0
M  V30 559 H 52.6306 0.707228 0.240496 0
M  V30 560 H 55.2926 1.94726 -0.0822488 0
M  V30 561 H 54.3886 2.92336 1.09298 0
M  V30 562 N 54.6897 -0.239769 1.55765 0
M  V30 563 C 55.9367 -0.966801 1.7793 0
M  V30 564 C 56.2647 -1.85046 0.599015 0
M  V30 565 O 55.5197 -1.91197 -0.417395 0
M  V30 566 C 55.8187 -1.852 3.05672 0
M  V30 567 C 55.4847 -1.1231 4.36689 0
M  V30 568 C 54.1467 -0.921689 4.72291 0
M  V30 569 C 56.4987 -0.607019 5.17653 0
M  V30 570 C 53.8267 -0.191996 5.86386 0
M  V30 571 C 56.1787 0.109241 6.32506 0
M  V30 572 C 54.8427 0.322073 6.66723 0
M  V30 573 H 54.1127 -0.353778 0.651093 0
M  V30 574 H 56.7597 -0.23634 1.90036 0
M  V30 575 H 55.0647 -2.64975 2.8861 0
M  V30 576 H 56.7617 -2.41635 3.20021 0
M  V30 577 H 53.3517 -1.29004 4.08725 0
M  V30 578 H 57.5357 -0.750153 4.90598 0
M  V30 579 H 52.7917 -0.0166949 6.11398 0
M  V30 580 H 56.9657 0.516737 6.9448 0
M  V30 581 H 54.5927 0.88944 7.54979 0
M  V30 582 N 56.1678 -1.49265 -0.50573 0
M  V30 583 C 57.1158 -1.66065 -1.62866 0
M  V30 584 C 58.1098 -0.526636 -1.61006 0
M  V30 585 O 59.3158 -0.706126 -1.65571 0
M  V30 586 H 55.6908 -0.52356 -0.539805 0
M  V30 587 H 57.6618 -2.60329 -1.45848 0
M  V30 588 C 56.4108 -1.74008 -3.01026 0
M  V30 589 H 55.7338 -2.6064 -3.03161 0
M  V30 590 H 57.1738 -1.89798 -3.79147 0
M  V30 591 C 55.6328 -0.483868 -3.33407 0
M  V30 592 O 56.1628 0.392548 -3.99777 0
M  V30 593 N 54.3688 -0.348236 -2.88506 0
M  V30 594 H 53.9158 -1.06242 -2.34671 0
M  V30 595 H 53.8738 0.491204 -3.10539 0
M  V30 596 N 57.6459 0.756429 -1.3826 0
M  V30 597 C 58.5559 1.9009 -1.37488 0
M  V30 598 C 59.5719 1.71855 -0.272366 0
M  V30 599 O 60.7479 1.94827 -0.510318 0
M  V30 600 C 57.8129 3.25421 -1.19592 0
M  V30 601 C 56.8739 3.56202 -2.39622 0
M  V30 602 C 56.1069 4.85075 -2.2257 0
M  V30 603 O 56.3299 5.57246 -1.21793 0
M  V30 604 O 55.2639 5.15269 -3.11098 0
M  V30 605 H 59.0899 1.93695 -2.33914 0
M  V30 606 H 56.6749 0.901313 -1.1915 0
M  V30 607 H 58.5569 4.06337 -1.11661 0
M  V30 608 H 57.2319 3.22634 -0.262486 0
M  V30 609 H 56.1389 2.75458 -2.53128 0
M  V30 610 H 57.4719 3.63747 -3.31586 0
M  V30 611 N 59.124 1.23083 0.984299 0
M  V30 612 C 60.535 1.05609 1.5396 0
M  V30 613 C 60.886 -0.377793 1.92528 0
M  V30 614 O 60.011 -1.26398 1.75649 0
M  V30 615 C 60.606 1.91087 2.7977 0
M  V30 616 C 59.165 1.77885 3.31713 0
M  V30 617 C 58.312 1.87028 2.04733 0
M  V30 618 H 61.263 1.36802 0.804419 0
M  V30 619 H 61.284 1.43336 3.5247 0
M  V30 620 H 60.796 2.9544 2.51668 0
M  V30 621 H 58.897 0.762995 3.64704 0
M  V30 622 H 59.01 2.61047 4.01735 0
M  V30 623 H 57.374 1.30565 2.18689 0
M  V30 624 H 58.157 2.92929 1.79017 0
M  V30 625 N 60.6021 -1.18246 1.0419 0
M  V30 626 C 62.0181 -1.40269 0.761366 0
M  V30 627 C 62.2181 -1.90777 -0.648578 0
M  V30 628 O 61.2741 -2.0929 -1.41258 0
M  V30 629 C 62.5871 -2.40237 1.8085 0
M  V30 630 C 64.1351 -2.53961 1.82955 0
M  V30 631 C 64.6101 -3.57194 2.86664 0
M  V30 632 N 66.1011 -3.64702 2.85563 0
M  V30 633 C 66.8361 -4.44309 3.6246 0
M  V30 634 N 66.3321 -5.27514 4.49111 0
M  V30 635 N 68.1251 -4.39084 3.50944 0
M  V30 636 H 60.2761 -0.837882 1.95175 0
M  V30 637 H 62.5391 -0.430608 0.84456 0
M  V30 638 H 62.2451 -2.10176 2.81991 0
M  V30 639 H 62.1191 -3.39601 1.64168 0
M  V30 640 H 64.5061 -2.83338 0.824855 0
M  V30 641 H 64.5871 -1.54706 2.03715 0
M  V30 642 H 64.2311 -3.28558 3.87314 0
M  V30 643 H 64.1611 -4.5613 2.6316 0
M  V30 644 H 66.6521 -3.05289 2.22727 0
M  V30 645 H 66.9651 -5.85411 5.04493 0
M  V30 646 H 65.3101 -5.2693 4.53178 0
M  V30 647 H 68.5011 -3.7313 2.82651 0
M  V30 648 H 68.6741 -5.00883 4.11121 0
M  V30 649 N 62.0802 -0.821533 -1.34494 0
M  V30 650 C 63.0432 -0.247847 -2.27856 0
M  V30 651 C 64.0432 0.573453 -1.50227 0
M  V30 652 O 65.2332 0.389759 -1.69784 0
M  V30 653 C 62.3652 0.652698 -3.34593 0
M  V30 654 H 63.5582 -1.07146 -2.80107 0
M  V30 655 H 61.1112 -0.593291 -1.44602 0
M  V30 656 H 61.8462 1.49943 -2.87555 0
M  V30 657 H 61.6312 0.065292 -3.92046 0
M  V30 658 H 63.1212 1.04793 -4.04238 0
M  V30 659 N 63.5583 1.46682 -0.576371 0
M  V30 660 C 64.5083 2.27278 0.181288 0
M  V30 661 C 65.4923 1.35497 0.867721 0
M  V30 662 O 66.6843 1.59717 0.762863 0
M  V30 663 C 63.8133 3.21703 1.19841 0
M  V30 664 C 62.8993 4.20969 0.51442 0
M  V30 665 N 63.2903 5.03999 -0.426407 0
M  V30 666 C 61.5883 4.39373 0.765963 0
M  V30 667 C 62.2893 5.75812 -0.825565 0
M  V30 668 N 61.2653 5.43315 -0.176116 0
M  V30 669 H 65.0673 2.88863 -0.541785 0
M  V30 670 H 62.5813 1.57455 -0.397697 0
M  V30 671 H 64.5783 3.78145 1.75533 0
M  V30 672 H 63.2383 2.61677 1.92238 0
M  V30 673 H 64.2493 5.11659 -0.8016 0
M  V30 674 H 60.9263 3.90502 1.47698 0
M  V30 675 H 62.3163 6.52577 -1.59976 0
M  V30 676 N 65.0364 0.313813 1.54444 0
M  V30 677 C 66.3134 -0.345447 1.92525 0
M  V30 678 C 66.6934 -1.70667 1.24242 0
M  V30 679 O 66.0414 -2.25273 0.382654 0
M  V30 680 C 66.2514 -0.44737 3.46121 0
M  V30 681 C 67.5994 -0.712238 4.18584 0
M  V30 682 O 68.6234 -0.530678 3.52225 0
M  V30 683 O 67.4824 -1.06183 5.36085 0
M  V30 684 H 64.5764 -0.195407 0.803583 0
M  V30 685 H 67.1224 0.362813 1.65776 0
M  V30 686 H 65.8944 0.509043 3.87975 0
M  V30 687 H 65.5174 -1.20359 3.78945 0
M  V30 688 N 66.5145 -1.57545 0.0417849 0
M  V30 689 C 67.7445 -1.96339 -0.642995 0
M  V30 690 C 68.1525 -0.917536 -1.65463 0
M  V30 691 O 67.4955 0.107747 -1.83384 0
M  V30 692 C 67.5575 -3.31333 -1.39494 0
M  V30 693 C 67.2215 -4.53796 -0.540204 0
M  V30 694 C 68.2185 -5.19553 0.189806 0
M  V30 695 C 65.9035 -5.0006 -0.473886 0
M  V30 696 C 67.8975 -6.29904 0.974674 0
M  V30 697 C 65.5845 -6.10289 0.314677 0
M  V30 698 C 66.5825 -6.75072 1.03765 0
M  V30 699 O 66.2705 -7.83183 1.81327 0
M  V30 700 H 66.0025 -0.651241 -0.181277 0
M  V30 701 H 68.5565 -2.05148 0.101665 0
M  V30 702 H 66.7865 -3.19052 -2.18502 0
M  V30 703 H 68.4755 -3.54942 -1.96904 0
M  V30 704 H 69.2415 -4.84774 0.147981 0
M  V30 705 H 65.1205 -4.49433 -1.0262 0
M  V30 706 H 68.6645 -6.80401 1.5395 0
M  V30 707 H 64.5615 -6.44506 0.358174 0
M  V30 708 H 65.3295 -7.99913 1.73438 0
M  V30 709 N 67.9926 0.231505 -1.5589 0
M  V30 710 C 69.2176 0.978689 -1.82856 0
M  V30 711 C 69.6426 1.77559 -0.620846 0
M  V30 712 O 69.0006 1.76119 0.430305 0
M  V30 713 C 69.0486 1.87997 -3.07716 0
M  V30 714 O 68.1526 2.97393 -2.85712 0
M  V30 715 H 67.4936 0.277663 -0.603158 0
M  V30 716 H 70.0236 0.24783 -2.03093 0
M  V30 717 H 70.0336 2.2917 -3.37558 0
M  V30 718 H 68.7086 1.29417 -3.95252 0
M  V30 719 H 67.2856 2.60238 -2.67078 0
M  V30 720 N 69.4707 1.49531 0.497807 0
M  V30 721 C 70.8867 1.36365 0.829266 0
M  V30 722 C 71.0867 0.399184 1.97506 0
M  V30 723 O 70.1427 -0.167977 2.51941 0
M  V30 724 C 71.4557 2.77153 1.16647 0
M  V30 725 C 73.0037 2.85877 1.27449 0
M  V30 726 C 73.4787 4.2744 1.64497 0
M  V30 727 N 74.9697 4.30265 1.7154 0
M  V30 728 C 75.7047 5.3677 2.01656 0
M  V30 729 N 75.2007 6.53516 2.29976 0
M  V30 730 N 76.9937 5.24189 2.02934 0
M  V30 731 H 69.1447 2.10831 -0.257703 0
M  V30 732 H 71.4077 0.946534 -0.0527091 0
M  V30 733 H 71.1137 3.49442 0.397872 0
M  V30 734 H 70.9877 3.12722 2.10915 0
M  V30 735 H 73.3747 2.13824 2.0338 0
M  V30 736 H 73.4557 2.53887 0.312244 0
M  V30 737 H 73.0997 5.00021 0.891151 0
M  V30 738 H 73.0297 4.56896 2.61827 0
M  V30 739 H 75.5207 3.4607 1.51802 0
M  V30 740 H 75.8337 7.30506 2.52153 0
M  V30 741 H 74.1787 6.56737 2.27425 0
M  V30 742 H 77.3697 4.31988 1.80289 0
M  V30 743 H 77.5427 6.07286 2.26071 0
M  V30 744 N 70.9488 -0.749086 1.3866 0
M  V30 745 C 72.3648 -1.05276 1.19955 0
M  V30 746 C 72.5648 -2.01435 0.05134 0
M  V30 747 O 71.6208 -2.45232 -0.60147 0
M  V30 748 C 72.9338 -1.62853 2.52783 0
M  V30 749 C 74.4818 -1.75002 2.59506 0
M  V30 750 C 74.9568 -2.35991 3.92521 0
M  V30 751 N 76.4478 -2.43416 3.94085 0
M  V30 752 C 77.1828 -2.91511 4.9377 0
M  V30 753 N 76.6788 -3.39608 6.03853 0
M  V30 754 N 78.4718 -2.90592 4.81157 0
M  V30 755 H 70.6228 -0.111066 2.12109 0
M  V30 756 H 72.8858 -0.111901 0.941373 0
M  V30 757 H 72.5918 -0.99664 3.37283 0
M  V30 758 H 72.4658 -2.61854 2.715 0
M  V30 759 H 74.8528 -2.37317 1.75398 0
M  V30 760 H 74.9338 -0.74693 2.44652 0
M  V30 761 H 74.5778 -1.74308 4.77053 0
M  V30 762 H 74.5078 -3.3695 4.04688 0
M  V30 763 H 76.9988 -2.09405 3.14576 0
M  V30 764 H 77.3118 -3.74775 6.75843 0
M  V30 765 H 75.6568 -3.37653 6.07466 0
M  V30 766 H 78.8478 -2.52332 3.94267 0
M  V30 767 H 79.0208 -3.27762 5.58996 0
M  V30 768 N 72.4269 -1.23603 -0.977757 0
M  V30 769 C 73.6749 -1.06759 -1.71601 0
M  V30 770 C 73.9959 0.395929 -1.90938 0
M  V30 771 O 73.2659 1.28356 -1.47992 0
M  V30 772 H 71.8459 -0.392062 -0.635843 0
M  V30 773 H 74.5079 -1.55362 -1.1768 0
M  V30 774 H 73.6039 -1.55763 -2.70452 0
M  V30 775 N 73.905 1.17692 -1.04816 0
M  V30 776 C 74.853 2.23632 -0.63966 0
M  V30 777 C 75.847 1.6601 0.337219 0
M  V30 778 O 77.053 1.78844 0.203693 0
M  V30 779 H 73.428 0.727949 -0.188665 0
M  V30 780 H 75.399 2.55387 -1.54337 0
M  V30 781 C 74.148 3.4769 -0.0264051 0
M  V30 782 H 73.471 3.92331 -0.769164 0
M  V30 783 H 74.911 4.23418 0.222098 0
M  V30 784 C 73.37 3.13807 1.22584 0
M  V30 785 O 73.9 3.28236 2.31569 0
M  V30 786 N 72.106 2.68065 1.12202 0
M  V30 787 H 71.653 2.56525 0.235133 0
M  V30 788 H 71.611 2.45767 1.96076 0
M  V30 789 N 75.3831 0.828654 1.34056 0
M  V30 790 C 76.7941 0.477534 1.8049 0
M  V30 791 C 77.1451 -1.00258 1.6865 0
M  V30 792 O 76.2701 -1.78057 1.22982 0
M  V30 793 C 76.8651 0.860018 3.27703 0
M  V30 794 C 75.4241 0.561185 3.72193 0
M  V30 795 C 74.5711 1.07385 2.55663 0
M  V30 796 H 77.5221 1.0183 1.21722 0
M  V30 797 H 77.5431 0.166038 3.80138 0
M  V30 798 H 77.0551 1.93731 3.36288 0
M  V30 799 H 75.1561 -0.506465 3.69142 0
M  V30 800 H 75.2691 1.10926 4.66082 0
M  V30 801 H 73.6331 0.495149 2.49841 0
M  V30 802 H 74.4161 2.15771 2.67016 0
M  V30 803 N 76.8612 -1.46375 0.584142 0
M  V30 804 C 78.0892 -2.06761 0.0759296 0
M  V30 805 C 78.5042 -1.43266 -1.22965 0
M  V30 806 O 77.8612 -0.538458 -1.74376 0
M  V30 807 C 77.9122 -3.61375 -0.0950384 0
M  V30 808 O 77.6332 -4.22495 1.15887 0
M  V30 809 C 79.1342 -4.38693 -0.637434 0
M  V30 810 H 76.3542 -0.668479 0.0581075 0
M  V30 811 H 78.8982 -1.8798 0.805218 0
M  V30 812 H 77.0532 -3.79578 -0.774554 0
M  V30 813 H 77.4672 -5.15385 0.973598 0
M  V30 814 H 78.9412 -5.47464 -0.706237 0
M  V30 815 H 79.4182 -4.06836 -1.65472 0
M  V30 816 H 80.0242 -4.25299 0.00725967 0
M  V30 817 N 78.3393 -0.321999 -1.54275 0
M  V30 818 C 79.7553 0.0306999 -1.5957 0
M  V30 819 C 79.9553 1.50614 -1.33857 0
M  V30 820 O 79.0113 2.2619 -1.12223 0
M  V30 821 C 80.3243 -0.386122 -2.98211 0
M  V30 822 C 81.8723 -0.336647 -3.11184 0
M  V30 823 C 82.3473 -0.728607 -4.52167 0
M  V30 824 N 83.8383 -0.681952 -4.58152 0
M  V30 825 C 84.5733 -0.957449 -5.6535 0
M  V30 826 N 84.0693 -1.3 -6.80494 0
M  V30 827 N 85.8623 -0.883113 -5.55119 0
M  V30 828 H 78.0133 -1.28332 -1.69247 0
M  V30 829 H 80.2763 -0.521716 -0.791528 0
M  V30 830 H 79.9823 -1.41404 -3.22022 0
M  V30 831 H 79.8563 0.249662 -3.76373 0
M  V30 832 H 82.2433 0.682058 -2.8711 0
M  V30 833 H 82.3243 -1.00734 -2.3513 0
M  V30 834 H 81.9683 -1.74522 -4.76974 0
M  V30 835 H 81.8983 -0.0356152 -5.26588 0
M  V30 836 H 84.3893 -0.428985 -3.75457 0
M  V30 837 H 84.7023 -1.49563 -7.58189 0
M  V30 838 H 83.0473 -1.33824 -6.81994 0
M  V30 839 H 86.2383 -0.615001 -4.64042 0
M  V30 840 H 86.4113 -1.10118 -6.38575 0
M  V30 841 N 79.8174 1.5752 -0.0501392 0
M  V30 842 C 81.0944 1.83996 0.663685 0
M  V30 843 C 81.4744 0.938339 1.89099 0
M  V30 844 O 80.8224 -0.00087759 2.285 0
M  V30 845 C 81.0324 3.33702 1.02196 0
M  V30 846 C 82.3804 4.00691 1.40469 0
M  V30 847 O 83.4044 3.38321 1.11433 0
M  V30 848 O 82.2634 5.10658 1.94654 0
M  V30 849 H 79.3574 0.759385 0.32751 0
M  V30 850 H 81.9034 1.69514 -0.0794238 0
M  V30 851 H 80.6754 3.91015 0.149364 0
M  V30 852 H 80.2984 3.53368 1.82255 0
M  V30 853 N 81.2955 -0.223234 1.56011 0
M  V30 854 C 82.5415 -0.949279 1.79211 0
M  V30 855 C 82.8745 -1.84054 0.619494 0
M  V30 856 O 82.1495 -1.90726 -0.381317 0
M  V30 857 C 82.4325 -1.78965 3.12479 0
M  V30 858 C 82.2855 -0.924997 4.40186 0
M  V30 859 C 83.6045 -2.76774 3.42175 0
M  V30 860 H 80.7235 -0.343676 0.651963 0
M  V30 861 H 83.3655 -0.218253 1.88742 0
M  V30 862 H 81.5155 -2.41291 3.04485 0
M  V30 863 H 83.1875 -0.318615 4.60198 0
M  V30 864 H 81.4305 -0.230344 4.33188 0
M  V30 865 H 82.1015 -1.54735 5.29869 0
M  V30 866 H 84.5775 -2.24584 3.50287 0
M  V30 867 H 83.4535 -3.32678 4.36597 0
M  V30 868 H 83.7145 -3.54429 2.64258 0
M  V30 869 N 82.7736 -1.49793 -0.48987 0
M  V30 870 C 84.0196 -1.60078 -1.24511 0
M  V30 871 C 84.3526 -0.291608 -1.91998 0
M  V30 872 O 83.6276 0.705647 -1.81248 0
M  V30 873 C 83.9106 -2.76791 -2.30345 0
M  V30 874 C 83.7636 -4.17535 -1.67286 0
M  V30 875 C 85.0826 -2.89111 -3.31817 0
M  V30 876 H 82.2016 -0.582645 -0.451324 0
M  V30 877 H 84.8436 -1.82117 -0.541612 0
M  V30 878 H 82.9936 -2.5813 -2.90346 0
M  V30 879 H 84.6656 -4.4774 -1.11026 0
M  V30 880 H 82.9086 -4.22665 -0.976577 0
M  V30 881 H 83.5796 -4.95094 -2.44103 0
M  V30 882 H 86.0556 -3.06133 -2.81819 0
M  V30 883 H 84.9316 -3.72433 -4.03219 0
M  V30 884 H 85.1926 -1.9893 -3.94815 0
M  V30 885 N 84.2517 0.741722 -1.39055 0
M  V30 886 C 85.1837 1.8657 -1.33133 0
M  V30 887 C 86.1967 1.61001 -0.241329 0
M  V30 888 O 87.3857 1.7136 -0.499784 0
M  V30 889 C 84.4857 3.22457 -1.04283 0
M  V30 890 C 83.6587 3.75435 -2.24427 0
M  V30 891 C 82.7177 4.89867 -1.92138 0
M  V30 892 O 81.7437 5.03879 -2.64754 0
M  V30 893 N 82.9457 5.73738 -0.88347 0
M  V30 894 H 85.7107 1.92156 -2.29991 0
M  V30 895 H 83.2717 0.922172 -1.3307 0
M  V30 896 H 85.2637 3.9657 -0.807128 0
M  V30 897 H 83.8337 3.12181 -0.161807 0
M  V30 898 H 83.0537 2.92751 -2.6399 0
M  V30 899 H 84.3417 4.07563 -3.04581 0
M  V30 900 H 83.7397 5.64999 -0.281517 0
M  V30 901 H 82.2967 6.47947 -0.707662 0
M  V30 902 N 85.7298 1.2412 0.971189 0
M  V30 903 C 87.1458 1.00584 1.23916 0
M  V30 904 C 87.3458 -0.287481 1.99439 0
M  V30 905 O 86.4018 -1.00454 2.31658 0
M  V30 906 C 87.7148 2.21864 2.0297 0
M  V30 907 C 89.2628 2.26452 2.16076 0
M  V30 908 C 89.7378 3.47343 2.98524 0
M  V30 909 N 91.2288 3.47639 3.06107 0
M  V30 910 C 91.9638 4.37837 3.70251 0
M  V30 911 N 91.4598 5.38286 4.36142 0
M  V30 912 N 93.2528 4.25558 3.67228 0
M  V30 913 H 85.4038 2.07236 0.465499 0
M  V30 914 H 87.6668 0.909236 0.268315 0
M  V30 915 H 87.3728 3.15771 1.54861 0
M  V30 916 H 87.2468 2.23698 3.03709 0
M  V30 917 H 89.6338 1.33078 2.6339 0
M  V30 918 H 89.7148 2.28645 1.14696 0
M  V30 919 H 89.3588 4.41029 2.51905 0
M  V30 920 H 89.2888 3.42393 4.00093 0
M  V30 921 H 91.7798 2.74966 2.59233 0
M  V30 922 H 92.0928 6.03352 4.82894 0
M  V30 923 H 90.4378 5.42176 4.34822 0
M  V30 924 H 93.6288 3.46322 3.14927 0
M  V30 925 H 93.8018 4.96054 4.16935 0
M  V30 926 N 87.2079 -1.17134 1.05439 0
M  V30 927 C 88.1709 -2.19439 0.661764 0
M  V30 928 C 89.1709 -1.58199 -0.288042 0
M  V30 929 O 90.3609 -1.74053 -0.0715803 0
M  V30 930 C 87.4929 -3.40889 -0.0276209 0
M  V30 931 H 88.6859 -2.55688 1.56728 0
M  V30 932 H 86.2389 -1.31259 0.848567 0
M  V30 933 H 86.9739 -3.10187 -0.94629 0
M  V30 934 H 86.7589 -3.86586 0.655238 0
M  V30 935 H 88.2489 -4.16603 -0.288342 0
M  V30 936 N 88.686 -0.835752 -1.33615 0
M  V30 937 C 89.616 -0.281739 -2.31794 0
M  V30 938 C 90.597 0.608833 -1.58831 0
M  V30 939 O 91.782 0.533035 -1.86741 0
M  V30 940 C 88.912 0.546612 -3.42971 0
M  V30 941 C 87.866 -0.247904 -4.27281 0
M  V30 942 C 87.192 0.704001 -5.30045 0
M  V30 943 C 88.492 -1.46324 -5.01385 0
M  V30 944 H 90.186 -1.10206 -2.78379 0
M  V30 945 H 87.732 -0.531388 -1.33837 0
M  V30 946 H 89.685 0.944467 -4.1068 0
M  V30 947 H 88.409 1.40011 -2.95067 0
M  V30 948 H 87.068 -0.627281 -3.61194 0
M  V30 949 H 86.716 1.55381 -4.78399 0
M  V30 950 H 86.416 0.176524 -5.87335 0
M  V30 951 H 87.94 1.09944 -6.0062 0
M  V30 952 H 89.354 -1.13871 -5.61877 0
M  V30 953 H 87.751 -1.92728 -5.6831 0
M  V30 954 H 88.821 -2.23467 -4.30338 0
M  V30 955 N 90.1641 1.46063 -0.591896 0
M  V30 956 C 91.1271 2.28854 0.125973 0
M  V30 957 C 92.1271 1.38903 0.810107 0
M  V30 958 O 93.3171 1.61186 0.66066 0
M  V30 959 C 90.4491 3.19526 1.1881 0
M  V30 960 H 91.6421 2.93802 -0.601717 0
M  V30 961 H 89.1951 1.52325 -0.350254 0
M  V30 962 H 89.9301 2.59345 1.94707 0
M  V30 963 H 89.7151 3.85766 0.701936 0
M  V30 964 H 91.2051 3.81817 1.69132 0
M  V30 965 N 91.6422 0.330177 1.54103 0
M  V30 966 C 92.5522 -0.541534 2.28264 0
M  V30 967 C 93.5682 -1.12351 1.32866 0
M  V30 968 O 94.7442 -1.14206 1.65888 0
M  V30 969 C 91.8092 -1.68322 3.03098 0
M  V30 970 C 90.8702 -1.13238 4.14096 0
M  V30 971 C 90.1032 -2.21966 4.85352 0
M  V30 972 O 90.3262 -3.42437 4.56172 0
M  V30 973 O 89.2602 -1.87013 5.7211 0
M  V30 974 H 93.0862 0.060938 3.03639 0
M  V30 975 H 90.6712 0.09565 1.49093 0
M  V30 976 H 92.5532 -2.34777 3.49939 0
M  V30 977 H 91.2282 -2.27176 2.30593 0
M  V30 978 H 90.1352 -0.432736 3.71589 0
M  V30 979 H 91.4682 -0.588898 4.88664 0
M  V30 980 N 93.1203 -1.57491 0.0584922 0
M  V30 981 C 94.0503 -2.14988 -0.911178 0
M  V30 982 C 95.0313 -1.07343 -1.31952 0
M  V30 983 O 96.2163 -1.35318 -1.39294 0
M  V30 984 C 93.3463 -2.70078 -2.18347 0
M  V30 985 C 92.3003 -3.82771 -1.91495 0
M  V30 986 C 91.6263 -4.24408 -3.25241 0
M  V30 987 C 92.9263 -5.07592 -1.23075 0
M  V30 988 H 94.6203 -2.96263 -0.432246 0
M  V30 989 H 92.1663 -1.42512 -0.206469 0
M  V30 990 H 94.1193 -3.08943 -2.86587 0
M  V30 991 H 92.8433 -1.86005 -2.68458 0
M  V30 992 H 91.5023 -3.44389 -1.25664 0
M  V30 993 H 91.1503 -3.37275 -3.73168 0
M  V30 994 H 90.8503 -5.00366 -3.08071 0
M  V30 995 H 92.3743 -4.65879 -3.94701 0
M  V30 996 H 93.7883 -5.43857 -1.81362 0
M  V30 997 H 92.1853 -5.88741 -1.16207 0
M  V30 998 H 93.2553 -4.84454 -0.207847 0
M  V30 999 N 94.5984 0.214957 -1.56127 0
M  V30 1000 C 95.5084 1.28727 -1.96129 0
M  V30 1001 C 96.5244 1.50916 -0.866044 0
M  V30 1002 O 97.7004 1.63918 -1.17016 0
M  V30 1003 C 94.7654 2.61569 -2.27558 0
M  V30 1004 C 93.8264 2.47625 -3.50685 0
M  V30 1005 C 93.0594 3.74132 -3.80606 0
M  V30 1006 O 93.2824 4.77438 -3.12104 0
M  V30 1007 O 92.2164 3.70849 -4.74083 0
M  V30 1008 H 96.0424 0.977855 -2.87527 0
M  V30 1009 H 93.6274 0.418358 -1.43423 0
M  V30 1010 H 95.5094 3.40012 -2.48938 0
M  V30 1011 H 94.1844 2.92178 -1.39332 0
M  V30 1012 H 93.0914 1.67361 -3.34576 0
M  V30 1013 H 94.4244 2.21954 -4.39315 0
M  V30 1014 N 96.0765 1.50051 0.48192 0
M  V30 1015 C 97.3245 1.60181 1.23234 0
M  V30 1016 C 97.6455 0.299176 1.92691 0
M  V30 1017 O 96.9155 -0.682708 1.83619 0
M  V30 1018 H 95.4955 0.590232 0.457859 0
M  V30 1019 H 98.1575 1.86775 0.556881 0
M  V30 1020 H 97.2535 2.40753 1.98607 0
M  V30 1021 N 97.5546 -0.734337 1.39446 0
M  V30 1022 C 98.8026 -1.49096 1.36436 0
M  V30 1023 C 99.1236 -1.94961 -0.0388255 0
M  V30 1024 O 98.3936 -1.69033 -0.990191 0
M  V30 1025 H 96.9736 -0.5531 0.502085 0
M  V30 1026 H 99.6356 -0.871725 1.74319 0
M  V30 1027 H 98.7316 -2.37276 2.02747 0
M  V30 1028 N 99.0327 -1.24633 -0.964593 0
M  V30 1029 C 99.9957 -1.0424 -2.04124 0
M  V30 1030 C 100.996 0.00137563 -1.608 0
M  V30 1031 O 102.186 -0.239883 -1.7254 0
M  V30 1032 C 99.3177 -0.580588 -3.3592 0
M  V30 1033 H 100.511 -1.99803 -2.23649 0
M  V30 1034 H 98.0637 -1.06899 -1.14027 0
M  V30 1035 H 98.7987 0.3781 -3.22088 0
M  V30 1036 H 98.5837 -1.33398 -3.6871 0
M  V30 1037 H 100.074 -0.459034 -4.15069 0
M  V30 1038 N 100.511 1.16574 -1.06058 0
M  V30 1039 C 101.759 1.86677 -0.77434 0
M  V30 1040 C 102.08 1.81959 0.701147 0
M  V30 1041 O 101.35 1.2515 1.50713 0
M  V30 1042 H 99.9298 0.691134 -0.283449 0
M  V30 1043 H 102.592 1.41378 -1.34158 0
M  V30 1044 H 101.688 2.92181 -1.09711 0
M  V30 1045 N 101.989 0.842826 1.3317 0
M  V30 1046 C 102.952 0.284065 2.27433 0
M  V30 1047 C 103.952 -0.54948 1.5112 0
M  V30 1048 O 105.142 -0.362699 1.70382 0
M  V30 1049 C 102.274 -0.599384 3.35589 0
M  V30 1050 H 103.467 1.11589 2.78366 0
M  V30 1051 H 101.02 0.616221 1.4364 0
M  V30 1052 H 101.755 -1.45349 2.89904 0
M  V30 1053 H 101.54 -0.00291266 3.921 0
M  V30 1054 H 103.03 -0.983488 4.05854 0
M  V30 1055 N 103.467 -1.45747 0.599634 0
M  V30 1056 C 104.713 -2.02592 0.0918643 0
M  V30 1057 C 105.046 -1.46806 -1.27128 0
M  V30 1058 O 104.321 -0.639658 -1.83681 0
M  V30 1059 C 104.604 -3.60073 0.0443398 0
M  V30 1060 C 104.457 -4.26208 1.43759 0
M  V30 1061 C 105.776 -4.35309 -0.647608 0
M  V30 1062 H 102.895 -0.736175 0.034857 0
M  V30 1063 H 105.537 -1.73694 0.770081 0
M  V30 1064 H 103.687 -3.84823 -0.533224 0
M  V30 1065 H 105.359 -4.12668 2.06162 0
M  V30 1066 H 103.602 -3.84916 2.00056 0
M  V30 1067 H 104.273 -5.35069 1.35665 0
M  V30 1068 H 106.749 -4.15805 -0.156776 0
M  V30 1069 H 105.625 -5.45038 -0.649942 0
M  V30 1070 H 105.886 -4.07598 -1.71219 0
M  V30 1071 N 104.945 -0.338344 -1.53925 0
M  V30 1072 C 105.875 0.51328 -2.27789 0
M  V30 1073 C 106.856 1.107 -1.29149 0
M  V30 1074 O 108.041 1.12937 -1.57984 0
M  V30 1075 C 105.171 1.66697 -3.04679 0
M  V30 1076 C 104.125 1.20183 -4.1078 0
M  V30 1077 C 103.451 2.44363 -4.75595 0
M  V30 1078 C 104.751 0.30605 -5.21403 0
M  V30 1079 H 106.445 -0.102883 -2.99223 0
M  V30 1080 H 103.991 -0.0509219 -1.4391 0
M  V30 1081 H 105.944 2.26915 -3.55088 0
M  V30 1082 H 104.668 2.30995 -2.30887 0
M  V30 1083 H 103.327 0.622499 -3.61276 0
M  V30 1084 H 102.975 3.07057 -3.98403 0
M  V30 1085 H 102.675 2.13925 -5.47275 0
M  V30 1086 H 104.199 3.05317 -5.28786 0
M  V30 1087 H 105.613 0.814929 -5.67478 0
M  V30 1088 H 104.01 0.0937929 -6.00027 0
M  V30 1089 H 105.08 -0.65921 -4.80398 0
M  V30 1090 N 106.423 1.57458 -0.0668435 0
M  V30 1091 C 107.651 1.97624 0.612565 0
M  V30 1092 C 108.066 0.94502 1.63447 0
M  V30 1093 O 107.423 -0.0689276 1.8237 0
M  V30 1094 C 107.474 3.37869 1.28555 0
M  V30 1095 O 107.195 4.3704 0.304557 0
M  V30 1096 C 108.696 3.92882 2.05325 0
M  V30 1097 H 105.916 0.650045 0.166381 0
M  V30 1098 H 108.46 2.04035 -0.137782 0
M  V30 1099 H 106.615 3.3256 1.98702 0
M  V30 1100 H 107.029 5.18565 0.786779 0
M  V30 1101 H 108.503 4.93247 2.47812 0
M  V30 1102 H 108.98 3.29156 2.9078 0
M  V30 1103 H 109.586 4.01577 1.40056 0
M  V30 1104 N 107.901 -0.206675 1.56239 0
M  V30 1105 C 108.849 -1.27571 1.94495 0
M  V30 1106 C 109.843 -1.47737 0.828862 0
M  V30 1107 O 111.049 -1.48735 1.0138 0
M  V30 1108 H 107.424 -0.428029 0.6183 0
M  V30 1109 H 109.395 -0.925961 2.8367 0
M  V30 1110 C 108.144 -2.61568 2.29079 0
M  V30 1111 H 107.467 -2.46863 3.14482 0
M  V30 1112 H 108.907 -3.35144 2.5972 0
M  V30 1113 C 107.366 -3.17695 1.12123 0
M  V30 1114 O 107.896 -3.99801 0.390153 0
M  V30 1115 N 106.102 -2.76276 0.901097 0
M  V30 1116 H 105.649 -2.09613 1.49733 0
M  V30 1117 H 105.607 -3.1417 0.120319 0
M  V30 1118 N 109.379 -1.50304 -0.473955 0
M  V30 1119 C 110.607 -1.64902 -1.24959 0
M  V30 1120 C 111.022 -0.331198 -1.85872 0
M  V30 1121 O 110.379 0.68652 -1.69095 0
M  V30 1122 C 110.43 -2.73803 -2.36038 0
M  V30 1123 O 110.151 -4.00477 -1.77624 0
M  V30 1124 C 111.652 -2.99349 -3.26964 0
M  V30 1125 H 108.872 -0.554383 -0.378022 0
M  V30 1126 H 111.416 -1.9651 -0.566054 0
M  V30 1127 H 109.571 -2.44898 -3.00173 0
M  V30 1128 H 109.985 -4.60678 -2.5075 0
M  V30 1129 H 111.459 -3.79217 -4.01121 0
M  V30 1130 H 111.936 -2.10307 -3.85574 0
M  V30 1131 H 112.542 -3.29774 -2.68569 0
M  V30 1132 N 110.857 0.726932 -1.39834 0
M  V30 1133 C 112.105 1.4837 -1.37225 0
M  V30 1134 C 112.426 1.94979 0.0284857 0
M  V30 1135 O 111.696 1.69555 0.981213 0
M  V30 1136 H 110.276 0.55043 -0.505011 0
M  V30 1137 H 112.938 0.862468 -1.74778 0
M  V30 1138 H 112.034 2.36198 -2.04003 0
M  V30 1139 N 112.336 1.25143 0.95797 0
M  V30 1140 C 113.269 0.995565 2.05338 0
M  V30 1141 C 114.247 -0.0740423 1.62431 0
M  V30 1142 O 115.431 0.0649212 1.88388 0
M  V30 1143 C 112.558 0.504298 3.34925 0
M  V30 1144 C 111.604 1.56393 3.96792 0
M  V30 1145 S 112.437 3.14815 4.33188 0
M  V30 1146 C 113.593 2.67415 5.65898 0
M  V30 1147 H 113.826 1.92309 2.26726 0
M  V30 1148 H 111.359 1.08635 1.09716 0
M  V30 1149 H 113.317 0.227497 4.09869 0
M  V30 1150 H 111.978 -0.402671 3.11508 0
M  V30 1151 H 111.171 1.17082 4.90212 0
M  V30 1152 H 110.773 1.79124 3.28315 0
M  V30 1153 H 113.065 2.10833 6.4386 0
M  V30 1154 H 114.008 3.59463 6.10076 0
M  V30 1155 H 114.416 2.07521 5.24972 0
M  V30 1156 N 113.814 -1.1601 1.06675 0
M  V30 1157 C 115.039 -1.91068 0.806706 0
M  V30 1158 C 115.464 -1.77112 -0.633485 0
M  V30 1159 O 114.822 -1.09908 -1.44187 0
M  V30 1160 C 114.87 -3.39655 1.21106 0
M  V30 1161 O 113.974 -4.10893 0.352189 0
M  V30 1162 H 113.315 -0.595125 0.294486 0
M  V30 1163 H 115.845 -1.46955 1.42356 0
M  V30 1164 H 115.855 -3.90434 1.18428 0
M  V30 1165 H 114.53 -3.49132 2.26008 0
M  V30 1166 H 113.107 -3.70285 0.440868 0
M  V30 1167 N 115.292 -0.849877 -1.32721 0
M  V30 1168 C 116.255 -0.296122 -2.27279 0
M  V30 1169 C 117.255 0.541458 -1.5141 0
M  V30 1170 O 118.445 0.353658 -1.70572 0
M  V30 1171 C 115.577 0.581579 -3.35902 0
M  V30 1172 H 116.77 -1.13064 -2.77771 0
M  V30 1173 H 114.323 -0.62383 -1.43311 0
M  V30 1174 H 115.058 1.43809 -2.9067 0
M  V30 1175 H 114.843 -0.0178814 -3.92096 0
M  V30 1176 H 116.333 0.961951 -4.0637 0
M  V30 1177 N 116.77 1.45427 -0.607355 0
M  V30 1178 C 118.019 2.01452 -0.100036 0
M  V30 1179 C 118.332 1.48159 1.27704 0
M  V30 1180 O 119.538 1.96159 1.87707 0
M  V30 1181 C 117.994 3.59672 -0.128158 0
M  V30 1182 C 117.602 4.21962 -1.50507 0
M  V30 1183 C 119.346 4.23262 0.323932 0
M  V30 1184 C 117.253 5.72333 -1.48959 0
M  V30 1185 H 116.183 0.75325 -0.0336299 0
M  V30 1186 H 118.834 1.66901 -0.76265 0
M  V30 1187 H 117.216 3.91411 0.601105 0
M  V30 1188 H 118.39 4.01796 -2.25602 0
M  V30 1189 H 116.705 3.70565 -1.89923 0
M  V30 1190 H 119.302 5.33522 0.354691 0
M  V30 1191 H 119.645 3.93921 1.34656 0
M  V30 1192 H 120.178 3.96239 -0.352056 0
M  V30 1193 H 116.917 6.06373 -2.48981 0
M  V30 1194 H 116.437 5.94691 -0.781214 0
M  V30 1195 H 118.116 6.35525 -1.21313 0
M  V30 1196 N 118.248 0.346503 1.53744 0
M  V30 1197 C 119.198 -0.524953 2.21874 0
M  V30 1198 C 120.182 -1.06376 1.20718 0
M  V30 1199 O 121.374 -0.996972 1.46251 0
M  V30 1200 C 118.503 -1.6739 2.99726 0
M  V30 1201 C 117.589 -1.14888 4.08242 0
M  V30 1202 N 117.98 -0.345329 5.0462 0
M  V30 1203 C 116.278 -1.4255 4.22606 0
M  V30 1204 C 116.979 -0.0600706 5.81669 0
M  V30 1205 N 115.955 -0.65252 5.39669 0
M  V30 1206 H 119.757 0.0960091 2.93743 0
M  V30 1207 H 117.271 0.15352 1.61673 0
M  V30 1208 H 119.268 -2.3102 3.47038 0
M  V30 1209 H 117.928 -2.29811 2.29384 0
M  V30 1210 H 118.939 0.0138439 5.17898 0
M  V30 1211 H 115.616 -2.05389 3.63486 0
M  V30 1212 H 117.006 0.588321 6.69319 0
M  V30 1213 N 119.726 -1.57421 0.075193 0
M  V30 1214 C 120.656 -2.15942 -0.888324 0
M  V30 1215 C 121.637 -1.08737 -1.30806 0
M  V30 1216 O 122.822 -1.36787 -1.37851 0
M  V30 1217 C 119.952 -2.72379 -2.1547 0
M  V30 1218 C 118.906 -3.8478 -1.87425 0
M  V30 1219 C 118.232 -4.27834 -3.20721 0
M  V30 1220 C 119.532 -5.08869 -1.17684 0
M  V30 1221 H 121.226 -2.96705 -0.400799 0
M  V30 1222 H 118.772 -1.42723 -0.191342 0
M  V30 1223 H 120.725 -3.11965 -2.83295 0
M  V30 1224 H 119.449 -1.88841 -2.6647 0
M  V30 1225 H 118.108 -3.45703 -1.22004 0
M  V30 1226 H 117.756 -3.41214 -3.6957 0
M  V30 1227 H 117.456 -5.03605 -3.02746 0
M  V30 1228 H 118.98 -4.70039 -3.89738 0
M  V30 1229 H 120.394 -5.4575 -1.75584 0
M  V30 1230 H 118.791 -5.8994 -1.09956 0
M  V30 1231 H 119.861 -4.84648 -0.156453 0
M  V30 1232 N 121.204 0.198386 -1.56346 0
M  V30 1233 C 122.45 0.920648 -1.80698 0
M  V30 1234 C 122.783 1.83045 -0.648697 0
M  V30 1235 O 122.058 1.91308 0.350925 0
M  V30 1236 C 122.341 1.73971 -3.15287 0
M  V30 1237 C 122.194 0.85485 -4.41602 0
M  V30 1238 C 123.513 2.71296 -3.46535 0
M  V30 1239 H 120.632 0.333261 -0.657348 0
M  V30 1240 H 123.274 0.188198 -1.89066 0
M  V30 1241 H 121.424 2.36416 -3.08285 0
M  V30 1242 H 123.096 0.245362 -4.60647 0
M  V30 1243 H 121.339 0.161398 -4.335 0
M  V30 1244 H 122.01 1.46286 -5.32264 0
M  V30 1245 H 124.486 2.18983 -3.53816 0
M  V30 1246 H 123.362 3.2569 -4.41834 0
M  V30 1247 H 123.623 3.5018 -2.69864 0
M  V30 1248 N 122.682 1.50554 0.465978 0
M  V30 1249 C 123.91 1.65563 1.24083 0
M  V30 1250 C 124.325 0.341051 1.85694 0
M  V30 1251 O 123.682 -0.677543 1.69457 0
M  V30 1252 C 123.733 2.75051 2.34583 0
M  V30 1253 O 123.454 4.01413 1.75497 0
M  V30 1254 C 124.955 3.01078 3.25372 0
M  V30 1255 H 122.175 0.55638 0.375077 0
M  V30 1256 H 124.719 1.96807 0.555624 0
M  V30 1257 H 122.874 2.46486 2.9887 0
M  V30 1258 H 123.288 4.62002 2.48303 0
M  V30 1259 H 124.762 3.81339 3.99105 0
M  V30 1260 H 125.239 2.12349 3.84453 0
M  V30 1261 H 125.845 3.31194 2.66816 0
M  V30 1262 N 124.16 -0.719506 1.40217 0
M  V30 1263 C 125.388 -1.50864 1.41589 0
M  V30 1264 C 125.803 -1.88794 0.0145275 0
M  V30 1265 O 125.16 -1.55174 -0.960594 0
M  V30 1266 C 125.211 -2.78646 2.30302 0
M  V30 1267 O 124.932 -2.42321 3.64983 0
M  V30 1268 C 126.433 -3.72569 2.40224 0
M  V30 1269 H 123.653 -0.465709 0.48307 0
M  V30 1270 H 126.197 -0.88785 1.84221 0
M  V30 1271 H 124.352 -3.37019 1.91042 0
M  V30 1272 H 124.766 -3.24514 4.12057 0
M  V30 1273 H 126.24 -4.5908 3.06512 0
M  V30 1274 H 126.717 -4.15403 1.42608 0
M  V30 1275 H 127.323 -3.20109 2.80019 0
M  V30 1276 N 125.638 -1.25649 -0.95132 0
M  V30 1277 C 126.884 -1.10757 -1.69884 0
M  V30 1278 C 127.217 0.350061 -1.91019 0
M  V30 1279 O 126.492 1.25783 -1.48354 0
M  V30 1280 C 126.775 -1.86606 -3.07978 0
M  V30 1281 C 126.628 -3.40217 -2.94232 0
M  V30 1282 C 127.947 -1.65182 -4.07925 0
M  V30 1283 H 125.066 -0.40374 -0.616574 0
M  V30 1284 H 127.708 -1.54521 -1.10558 0
M  V30 1285 H 125.858 -1.49409 -3.58621 0
M  V30 1286 H 127.53 -3.87108 -2.50889 0
M  V30 1287 H 125.773 -3.67759 -2.30078 0
M  V30 1288 H 126.444 -3.88505 -3.92133 0
M  V30 1289 H 128.92 -1.9757 -3.66204 0
M  V30 1290 H 127.796 -2.20683 -5.02583 0
M  V30 1291 H 128.057 -0.593933 -4.38092 0
M  V30 1292 N 127.117 1.15442 -1.07289 0
M  V30 1293 C 128.364 1.86213 -0.795668 0
M  V30 1294 C 128.692 1.82291 0.678238 0
M  V30 1295 O 127.947 1.24057 1.51355 0
M  V30 1296 C 128.246 3.3489 -1.24834 0
M  V30 1297 C 127.912 3.59007 -2.72809 0
M  V30 1298 C 126.574 3.65298 -3.13227 0
M  V30 1299 C 128.926 3.68762 -3.68326 0
M  V30 1300 C 126.254 3.78854 -4.4798 0
M  V30 1301 C 128.606 3.83842 -5.0284 0
M  V30 1302 C 127.27 3.88378 -5.4288 0
M  V30 1303 H 126.54 0.681403 -0.291155 0
M  V30 1304 H 129.187 1.36435 -1.34379 0
M  V30 1305 H 127.492 3.8687 -0.619595 0
M  V30 1306 H 129.189 3.88052 -1.01076 0
M  V30 1307 H 125.779 3.5475 -2.40521 0
M  V30 1308 H 129.963 3.63202 -3.38227 0
M  V30 1309 H 125.219 3.80623 -4.78472 0
M  V30 1310 H 129.393 3.90332 -5.76727 0
M  V30 1311 H 127.02 3.98635 -6.47298 0
M  V30 1312 N 128.595 0.856903 1.32268 0
M  V30 1313 C 129.525 0.31858 2.31316 0
M  V30 1314 C 130.506 -0.583487 1.59779 0
M  V30 1315 O 131.691 -0.503259 1.87566 0
M  V30 1316 C 128.821 -0.491979 3.43798 0
M  V30 1317 C 127.775 0.315849 4.26833 0
M  V30 1318 C 127.101 -0.619586 5.31098 0
M  V30 1319 C 128.401 1.54282 4.98993 0
M  V30 1320 H 130.095 1.14621 2.76591 0
M  V30 1321 H 127.641 0.552613 1.32974 0
M  V30 1322 H 129.594 -0.879012 4.1213 0
M  V30 1323 H 128.318 -1.35299 2.97257 0
M  V30 1324 H 126.977 0.684664 3.6015 0
M  V30 1325 H 126.625 -1.47751 4.8081 0
M  V30 1326 H 126.325 -0.0830621 5.87541 0
M  V30 1327 H 127.849 -1.00375 6.02293 0
M  V30 1328 H 129.263 1.22796 5.59995 0
M  V30 1329 H 127.66 2.01745 5.65172 0
M  V30 1330 H 128.73 2.30285 4.26728 0
M  V30 1331 N 130.073 -1.45103 0.615059 0
M  V30 1332 C 131.02 -2.30586 -0.0993978 0
M  V30 1333 C 131.99 -1.42544 -0.852669 0
M  V30 1334 O 133.175 -1.71465 -0.836917 0
M  V30 1335 C 130.315 -3.27572 -1.08583 0
M  V30 1336 C 129.428 -4.30717 -0.332656 0
M  V30 1337 C 128.563 -5.14807 -1.30947 0
M  V30 1338 C 127.602 -6.09673 -0.544538 0
M  V30 1339 N 126.739 -6.86517 -1.47101 0
M  V30 1340 H 131.579 -2.91144 0.635542 0
M  V30 1341 H 129.116 -1.4346 0.325206 0
M  V30 1342 H 131.074 -3.82276 -1.67095 0
M  V30 1343 H 129.704 -2.68751 -1.78809 0
M  V30 1344 H 128.756 -3.78615 0.368107 0
M  V30 1345 H 130.068 -4.98102 0.263842 0
M  V30 1346 H 129.222 -5.73948 -1.96643 0
M  V30 1347 H 127.961 -4.47458 -1.9399 0
M  V30 1348 H 126.966 -5.49656 0.126003 0
M  V30 1349 H 128.191 -6.79052 0.080947 0
M  V30 1350 H 126.137 -6.21851 -2.08895 0
M  V30 1351 H 126.054 -7.50281 -0.928137 0
M  V30 1352 H 127.322 -7.50194 -2.11731 0
M  V30 1353 N 131.551 -0.354651 -1.53558 0
M  V30 1354 C 132.962 0.126902 -1.86268 0
M  V30 1355 C 133.313 1.49075 -1.27558 0
M  V30 1356 O 132.438 2.08105 -0.5934 0
M  V30 1357 C 133.033 0.237046 -3.3797 0
M  V30 1358 C 131.592 0.662842 -3.70518 0
M  V30 1359 C 130.739 -0.196652 -2.76602 0
M  V30 1360 H 133.69 -0.573849 -1.47962 0
M  V30 1361 H 133.711 1.06259 -3.65362 0
M  V30 1362 H 133.223 -0.755725 -3.80671 0
M  V30 1363 H 131.324 1.66424 -3.33367 0
M  V30 1364 H 131.437 0.445034 -4.77029 0
M  V30 1365 H 129.801 0.332763 -2.52517 0
M  V30 1366 H 130.584 -1.18676 -3.22135 0
M  V30 1367 N 133.029 1.57378 -0.0835403 0
M  V30 1368 C 134.277 1.93547 0.581718 0
M  V30 1369 C 134.598 0.96524 1.69435 0
M  V30 1370 O 133.868 0.0153369 1.95894 0
M  V30 1371 H 132.448 0.714521 0.217874 0
M  V30 1372 H 135.11 1.94366 -0.144158 0
M  V30 1373 H 134.206 2.95665 0.999423 0
M  V30 1374 N 134.507 -0.190092 1.56449 0
M  V30 1375 C 135.784 -0.935886 1.71757 0
M  V30 1376 C 136.164 -2.01173 0.639726 0
M  V30 1377 O 135.512 -2.25827 -0.348502 0
M  V30 1378 C 135.722 -1.51775 3.1427 0
M  V30 1379 C 137.07 -1.99794 3.74656 0
M  V30 1380 O 138.094 -1.61607 3.1743 0
M  V30 1381 O 136.953 -2.70079 4.751 0
M  V30 1382 H 134.047 -0.439229 0.700719 0
M  V30 1383 H 136.593 -0.179395 1.68749 0
M  V30 1384 H 135.365 -0.742505 3.84191 0
M  V30 1385 H 134.988 -2.33894 3.21527 0
M  V30 1386 N 135.985 -1.50799 -0.457987 0
M  V30 1387 C 136.915 -1.73553 -1.5621 0
M  V30 1388 C 137.896 -0.584774 -1.59732 0
M  V30 1389 O 139.081 -0.825314 -1.7579 0
M  V30 1390 C 136.211 -1.84169 -2.94447 0
M  V30 1391 C 135.165 -2.99461 -3.0579 0
M  V30 1392 C 134.491 -2.95235 -4.45803 0
M  V30 1393 C 135.791 -4.39766 -2.81786 0
M  V30 1394 H 137.485 -2.66 -1.37421 0
M  V30 1395 H 135.031 -1.28002 -0.659662 0
M  V30 1396 H 136.984 -1.98672 -3.71628 0
M  V30 1397 H 135.708 -0.883545 -3.14422 0
M  V30 1398 H 134.367 -2.8463 -2.31044 0
M  V30 1399 H 134.015 -1.97239 -4.62715 0
M  V30 1400 H 133.715 -3.72642 -4.54326 0
M  V30 1401 H 135.239 -3.11803 -5.24987 0
M  V30 1402 H 136.653 -4.55054 -3.4871 0
M  V30 1403 H 135.05 -5.18722 -3.0174 0
M  V30 1404 H 136.12 -4.51229 -1.7754 0
M  V30 1405 N 137.463 0.71206 -1.40597 0
M  V30 1406 C 138.393 1.83889 -1.43899 0
M  V30 1407 C 139.374 1.67442 -0.299504 0
M  V30 1408 O 140.559 1.87421 -0.508624 0
M  V30 1409 C 137.689 3.21877 -1.30431 0
M  V30 1410 C 136.643 3.53002 -2.42019 0
M  V30 1411 C 135.969 4.90172 -2.13626 0
M  V30 1412 C 137.269 3.53643 -3.84362 0
M  V30 1413 H 138.963 1.81383 -2.38203 0
M  V30 1414 H 136.509 0.871237 -1.14654 0
M  V30 1415 H 138.462 4.00404 -1.31357 0
M  V30 1416 H 137.186 3.24968 -0.326049 0
M  V30 1417 H 135.845 2.76818 -2.40349 0
M  V30 1418 H 135.493 4.89869 -1.14182 0
M  V30 1419 H 135.193 5.11962 -2.88389 0
M  V30 1420 H 136.717 5.71028 -2.1624 0
M  V30 1421 H 138.131 4.22203 -3.87837 0
M  V30 1422 H 136.528 3.86961 -4.58673 0
M  V30 1423 H 137.598 2.52954 -4.13693 0
M  V30 1424 N 138.941 1.26152 0.944643 0
M  V30 1425 C 140.187 1.11657 1.69294 0
M  V30 1426 C 140.52 -0.339926 1.91202 0
M  V30 1427 O 139.795 -1.24994 1.49019 0
M  V30 1428 C 140.078 1.88236 3.06984 0
M  V30 1429 C 139.931 3.41772 2.92424 0
M  V30 1430 C 141.25 1.67343 4.07043 0
M  V30 1431 H 138.369 0.407004 0.614424 0
M  V30 1432 H 141.011 1.55106 1.09737 0
M  V30 1433 H 139.161 1.51308 3.57824 0
M  V30 1434 H 140.833 3.88433 2.48832 0
M  V30 1435 H 139.076 3.68974 2.28124 0
M  V30 1436 H 139.747 3.90579 3.90067 0
M  V30 1437 H 142.223 1.99509 3.65151 0
M  V30 1438 H 141.099 2.23346 5.01406 0
M  V30 1439 H 141.36 0.617158 4.37771 0
M  V30 1440 N 140.419 -1.14872 1.07899 0
M  V30 1441 C 141.382 -2.17986 0.708161 0
M  V30 1442 C 142.382 -1.58775 -0.25442 0
M  V30 1443 O 143.572 -1.74166 -0.034645 0
M  V30 1444 C 140.704 -3.40871 0.0446929 0
M  V30 1445 H 141.897 -2.52306 1.62116 0
M  V30 1446 H 139.45 -1.2943 0.876218 0
M  V30 1447 H 140.185 -3.12124 -0.880281 0
M  V30 1448 H 139.97 -3.8511 0.737091 0
M  V30 1449 H 141.46 -4.17121 -0.19991 0
M  V30 1450 N 141.898 -0.863906 -1.31812 0
M  V30 1451 C 143.309 -0.52522 -1.7916 0
M  V30 1452 C 143.66 0.957518 -1.71248 0
M  V30 1453 O 142.785 1.74734 -1.27659 0
M  V30 1454 C 143.38 -0.9466 -3.25307 0
M  V30 1455 C 141.939 -0.659668 -3.70574 0
M  V30 1456 C 141.086 -1.14126 -2.52726 0
M  V30 1457 H 144.037 -1.05022 -1.1898 0
M  V30 1458 H 144.058 -0.266766 -3.79564 0
M  V30 1459 H 143.57 -2.02579 -3.31034 0
M  V30 1460 H 141.671 0.408416 -3.70355 0
M  V30 1461 H 141.784 -1.23245 -4.62977 0
M  V30 1462 H 140.148 -0.561216 -2.4844 0
M  V30 1463 H 140.931 -2.22775 -2.61201 0
M  V30 1464 N 143.376 1.44774 -0.622745 0
M  V30 1465 C 144.326 2.2774 0.108889 0
M  V30 1466 C 145.31 1.38189 0.824175 0
M  V30 1467 O 146.502 1.62063 0.711664 0
M  V30 1468 C 143.631 3.25353 1.09546 0
M  V30 1469 C 142.717 4.22392 0.380232 0
M  V30 1470 N 143.108 5.02388 -0.586535 0
M  V30 1471 C 141.406 4.41588 0.625792 0
M  V30 1472 C 142.107 5.72894 -1.00834 0
M  V30 1473 N 141.083 5.42479 -0.348878 0
M  V30 1474 H 144.885 2.86993 -0.63341 0
M  V30 1475 H 142.399 1.5611 -0.447589 0
M  V30 1476 H 144.396 3.83538 1.63414 0
M  V30 1477 H 143.056 2.6766 1.83815 0
M  V30 1478 H 144.067 5.0885 -0.963975 0
M  V30 1479 H 140.744 3.95003 1.352 0
M  V30 1480 H 142.134 6.47158 -1.80656 0
M  V30 1481 N 144.854 0.36279 1.53368 0
M  V30 1482 C 146.131 -0.284021 1.93527 0
M  V30 1483 C 146.511 -1.66628 1.29608 0
M  V30 1484 O 145.859 -2.23942 0.45413 0
M  V30 1485 C 146.069 -0.337028 3.47369 0
M  V30 1486 C 147.417 -0.578708 4.20638 0
M  V30 1487 O 148.441 -0.418352 3.53735 0
M  V30 1488 O 147.3 -0.89074 5.39192 0
M  V30 1489 H 144.394 -0.169743 0.809393 0
M  V30 1490 H 146.94 0.41537 1.64538 0
M  V30 1491 H 145.712 0.632217 3.86159 0
M  V30 1492 H 145.335 -1.08243 3.82582 0
M  V30 1493 N 146.332 -1.57332 0.0918853 0
M  V30 1494 C 147.572 -1.96117 -0.575988 0
M  V30 1495 C 147.936 -0.972499 -1.65549 0
M  V30 1496 O 149.137 -1.24872 -2.38034 0
M  V30 1497 C 147.408 -3.39407 -1.11973 0
M  V30 1498 S 148.967 -4.00185 -1.79992 0
M  V30 1499 H 145.785 -0.685682 -0.188045 0
M  V30 1500 H 148.387 -1.94755 0.170525 0
M  V30 1501 H 147.091 -4.09131 -0.322504 0
M  V30 1502 H 146.622 -3.44358 -1.90214 0
M  V30 1503 H 148.637 -3.88728 -3.08391 0
M  V30 1504 N 147.81 0.181792 -1.56548 0
M  V30 1505 C 149.04 0.914618 -1.85252 0
M  V30 1506 C 149.448 1.76791 -0.673914 0
M  V30 1507 O 148.791 1.80009 0.366416 0
M  V30 1508 C 148.853 1.85019 -3.08234 0
M  V30 1509 C 148.517 1.17754 -4.41569 0
M  V30 1510 C 149.514 0.548035 -5.17003 0
M  V30 1511 C 147.199 1.17742 -4.88305 0
M  V30 1512 C 149.193 -0.0726128 -6.37359 0
M  V30 1513 C 146.88 0.552946 -6.08593 0
M  V30 1514 C 147.878 -0.070978 -6.82963 0
M  V30 1515 O 147.566 -0.685635 -8.00971 0
M  V30 1516 H 147.298 0.271695 -0.618998 0
M  V30 1517 H 149.852 0.189944 -2.0452 0
M  V30 1518 H 148.082 2.61491 -2.84885 0
M  V30 1519 H 149.771 2.45195 -3.23472 0
M  V30 1520 H 150.537 0.540174 -4.81982 0
M  V30 1521 H 146.416 1.65246 -4.30366 0
M  V30 1522 H 149.96 -0.560213 -6.95347 0
M  V30 1523 H 145.857 0.558354 -6.43081 0
M  V30 1524 H 146.625 -0.58385 -8.16415 0
M  V30 1525 N 149.288 1.51039 0.449983 0
M  V30 1526 C 150.536 1.62759 1.19808 0
M  V30 1527 C 150.857 0.339981 1.92013 0
M  V30 1528 O 150.127 -0.643606 1.85026 0
M  V30 1529 H 148.707 0.599811 0.445237 0
M  V30 1530 H 151.369 1.87914 0.517138 0
M  V30 1531 H 150.465 2.44911 1.93455 0
M  V30 1532 N 150.766 -0.704594 1.40972 0
M  V30 1533 C 152.014 -1.46169 1.39568 0
M  V30 1534 C 152.335 -1.95 0.00253745 0
M  V30 1535 O 151.605 -1.71095 -0.954114 0
M  V30 1536 H 150.185 -0.542326 0.513704 0
M  V30 1537 H 152.847 -0.834553 1.76128 0
M  V30 1538 H 151.943 -2.32922 2.07735 0
M  V30 1539 N 152.244 -1.26651 -0.937939 0
M  V30 1540 C 153.469 -1.15279 -1.72411 0
M  V30 1541 C 153.894 0.287866 -1.85884 0
M  V30 1542 O 153.252 1.20855 -1.35143 0
M  V30 1543 C 153.3 -1.83028 -3.10698 0
M  V30 1544 O 152.404 -1.12128 -3.96864 0
M  V30 1545 H 151.745 -0.401504 -0.528858 0
M  V30 1546 H 154.275 -1.67531 -1.1745 0
M  V30 1547 H 154.285 -1.89981 -3.6107 0
M  V30 1548 H 152.96 -2.87833 -3.00208 0
M  V30 1549 H 151.537 -1.13173 -3.55312 0
M  V30 1550 N 153.722 1.14298 -1.08507 0
M  V30 1551 C 154.952 1.88945 -0.835663 0
M  V30 1552 C 155.36 1.78894 0.615928 0
M  V30 1553 O 154.703 1.1468 1.43506 0
M  V30 1554 C 154.765 3.39585 -1.17994 0
M  V30 1555 C 154.429 3.7342 -2.63451 0
M  V30 1556 C 155.426 3.73454 -3.61702 0
M  V30 1557 C 153.111 4.03368 -2.99332 0
M  V30 1558 C 155.105 4.02961 -4.93864 0
M  V30 1559 C 152.792 4.32538 -4.31687 0
M  V30 1560 C 153.79 4.32318 -5.28763 0
M  V30 1561 O 153.478 4.6078 -6.58739 0
M  V30 1562 H 153.21 0.605307 -0.300965 0
M  V30 1563 H 155.764 1.45673 -1.44806 0
M  V30 1564 H 153.994 3.83315 -0.51055 0
M  V30 1565 H 155.683 3.9554 -0.911182 0
M  V30 1566 H 156.449 3.50403 -3.35325 0
M  V30 1567 H 152.328 4.02692 -2.24411 0
M  V30 1568 H 155.872 4.02704 -5.69627 0
M  V30 1569 H 151.769 4.55059 -4.57812 0
M  V30 1570 H 152.537 4.78492 -6.64069 0
M  V30 1571 N 155.201 0.870884 1.31352 0
M  V30 1572 C 156.617 0.562932 1.49343 0
M  V30 1573 C 156.817 -0.902725 1.80148 0
M  V30 1574 O 155.873 -1.68484 1.88067 0
M  V30 1575 C 157.186 1.46393 2.62659 0
M  V30 1576 C 158.734 1.46607 2.76542 0
M  V30 1577 C 159.209 2.35266 3.92955 0
M  V30 1578 N 160.7 2.33151 4.00243 0
M  V30 1579 C 161.435 2.98471 4.89594 0
M  V30 1580 N 160.931 3.72964 5.8384 0
M  V30 1581 N 162.724 2.87775 4.82848 0
M  V30 1582 H 154.875 1.81923 1.09626 0
M  V30 1583 H 157.138 0.777934 0.541777 0
M  V30 1584 H 156.844 2.50689 2.46674 0
M  V30 1585 H 156.718 1.16314 3.58819 0
M  V30 1586 H 159.105 0.43069 2.9194 0
M  V30 1587 H 159.186 1.8071 1.81046 0
M  V30 1588 H 158.83 3.38881 3.78315 0
M  V30 1589 H 158.76 1.98487 4.87761 0
M  V30 1590 H 161.251 1.79006 3.32814 0
M  V30 1591 H 161.564 4.19932 6.4875 0
M  V30 1592 H 159.909 3.77073 5.83816 0
M  V30 1593 H 163.1 2.29116 4.08195 0
M  V30 1594 H 163.273 3.38961 5.52277 0
M  V30 1595 N 156.679 -1.44442 0.630414 0
M  V30 1596 C 157.609 -2.33418 -0.0618083 0
M  V30 1597 C 158.59 -1.48165 -0.835541 0
M  V30 1598 O 159.775 -1.76886 -0.801564 0
M  V30 1599 C 156.905 -3.31222 -1.04449 0
M  V30 1600 C 155.859 -4.26288 -0.382436 0
M  V30 1601 C 155.185 -5.13954 -1.47497 0
M  V30 1602 C 156.485 -5.1744 0.710865 0
M  V30 1603 H 158.179 -2.91548 0.681184 0
M  V30 1604 H 155.725 -1.40191 0.329026 0
M  V30 1605 H 157.678 -3.92351 -1.53748 0
M  V30 1606 H 156.402 -2.71299 -1.81836 0
M  V30 1607 H 155.061 -3.6649 0.0899054 0
M  V30 1608 H 154.709 -4.50385 -2.2397 0
M  V30 1609 H 154.409 -5.7837 -1.03737 0
M  V30 1610 H 155.933 -5.77955 -1.96979 0
M  V30 1611 H 157.347 -5.72509 0.300996 0
M  V30 1612 H 155.744 -5.90455 1.07156 0
M  V30 1613 H 156.814 -4.58496 1.57829 0
M  V30 1614 N 158.157 -0.370918 -1.53173 0
M  V30 1615 C 159.404 0.217102 -2.01333 0
M  V30 1616 C 159.732 1.48338 -1.25802 0
M  V30 1617 O 158.987 1.92698 -0.34146 0
M  V30 1618 C 159.286 0.549696 -3.53147 0
M  V30 1619 C 158.952 -0.622872 -4.46577 0
M  V30 1620 C 157.614 -0.944595 -4.71838 0
M  V30 1621 C 159.966 -1.40819 -5.01816 0
M  V30 1622 C 157.294 -2.05351 -5.49589 0
M  V30 1623 C 159.646 -2.50757 -5.80778 0
M  V30 1624 C 158.31 -2.83458 -6.04324 0
M  V30 1625 H 157.58 0.0794431 -0.736729 0
M  V30 1626 H 160.227 -0.504481 -1.84736 0
M  V30 1627 H 158.532 1.35237 -3.6772 0
M  V30 1628 H 160.229 1.017 -3.87889 0
M  V30 1629 H 156.819 -0.36209 -4.27068 0
M  V30 1630 H 161.003 -1.17289 -4.82242 0
M  V30 1631 H 156.259 -2.3108 -5.6605 0
M  V30 1632 H 160.433 -3.12022 -6.22588 0
M  V30 1633 H 158.06 -3.69508 -6.64355 0
M  V30 1634 N 159.635 1.57281 -0.100228 0
M  V30 1635 C 160.912 1.86014 0.604812 0
M  V30 1636 C 161.292 0.998025 1.86018 0
M  V30 1637 O 160.64 0.0718184 2.28387 0
M  V30 1638 C 160.85 3.36784 0.915278 0
M  V30 1639 C 162.198 4.04957 1.27651 0
M  V30 1640 O 163.222 3.41695 1.00613 0
M  V30 1641 O 162.081 5.16593 1.7831 0
M  V30 1642 H 159.175 0.76942 0.303185 0
M  V30 1643 H 161.721 1.69176 -0.133313 0
M  V30 1644 H 160.493 3.91292 0.0248896 0
M  V30 1645 H 160.116 3.58987 1.70921 0
M  V30 1646 N 161.113 -0.173488 1.56642 0
M  V30 1647 C 162.338 -0.910149 1.86363 0
M  V30 1648 C 162.763 -1.75132 0.686318 0
M  V30 1649 O 162.121 -1.77595 -0.364643 0
M  V30 1650 C 162.169 -1.76447 3.14482 0
M  V30 1651 O 161.273 -2.86584 2.96553 0
M  V30 1652 H 160.614 -0.255086 0.613047 0
M  V30 1653 H 163.144 -0.172283 2.03873 0
M  V30 1654 H 163.154 -2.16483 3.45831 0
M  V30 1655 H 161.829 -1.14658 3.99783 0
M  V30 1656 H 160.406 -2.50146 2.76553 0
M  V30 1657 N 162.591 -1.51276 -0.441967 0
M  V30 1658 C 163.521 -1.752 -1.54361 0
M  V30 1659 C 164.502 -0.601682 -1.59103 0
M  V30 1660 O 165.687 -0.843913 -1.74905 0
M  V30 1661 C 162.817 -1.87282 -2.92477 0
M  V30 1662 C 161.771 -3.02687 -3.02596 0
M  V30 1663 C 161.097 -2.99947 -4.42647 0
M  V30 1664 C 162.397 -4.4273 -2.77106 0
M  V30 1665 H 164.091 -2.67442 -1.34592 0
M  V30 1666 H 161.637 -1.28694 -0.646048 0
M  V30 1667 H 163.59 -2.02602 -3.695 0
M  V30 1668 H 162.314 -0.916844 -3.13467 0
M  V30 1669 H 160.973 -2.87065 -2.28012 0
M  V30 1670 H 160.621 -2.02136 -4.60597 0
M  V30 1671 H 160.321 -3.77439 -4.50348 0
M  V30 1672 H 161.845 -3.17354 -5.2165 0
M  V30 1673 H 163.259 -4.58727 -3.43864 0
M  V30 1674 H 161.656 -5.21893 -2.96222 0
M  V30 1675 H 162.726 -4.53087 -1.72744 0
M  V30 1676 N 164.069 0.697108 -1.41344 0
M  V30 1677 C 165.032 1.79281 -1.42797 0
M  V30 1678 C 166.032 1.57607 -0.318837 0
M  V30 1679 O 167.222 1.64309 -0.578642 0
M  V30 1680 C 164.354 3.17632 -1.23785 0
M  V30 1681 H 165.547 1.79385 -2.40335 0
M  V30 1682 H 163.1 0.904582 -1.27464 0
M  V30 1683 H 163.835 3.23167 -0.270814 0
M  V30 1684 H 163.62 3.34765 -2.04144 0
M  V30 1685 H 165.11 3.97617 -1.27633 0
M  V30 1686 N 165.547 1.27147 0.931209 0
M  V30 1687 C 166.494 1.09568 2.03134 0
M  V30 1688 C 167.464 -0.00222433 1.661 0
M  V30 1689 O 168.649 0.159439 1.90133 0
M  V30 1690 C 165.789 0.745231 3.36957 0
M  V30 1691 C 164.902 1.92041 3.86968 0
M  V30 1692 C 164.037 1.51216 5.09222 0
M  V30 1693 C 163.076 2.65504 5.5152 0
M  V30 1694 N 162.213 2.25291 6.64972 0
M  V30 1695 H 167.053 2.03708 2.17502 0
M  V30 1696 H 164.59 1.01411 1.06556 0
M  V30 1697 H 166.548 0.522878 4.1391 0
M  V30 1698 H 165.178 -0.159202 3.22407 0
M  V30 1699 H 164.23 2.25541 3.06326 0
M  V30 1700 H 165.542 2.77787 4.1429 0
M  V30 1701 H 164.696 1.25084 5.93666 0
M  V30 1702 H 163.435 0.625749 4.83669 0
M  V30 1703 H 162.44 2.92354 4.65628 0
M  V30 1704 H 163.665 3.54761 5.7907 0
M  V30 1705 H 161.611 1.39098 6.41083 0
M  V30 1706 H 161.528 3.04577 6.91931 0
M  V30 1707 H 162.796 2.02398 7.52765 0
M  V30 1708 N 167.025 -1.13721 1.09112 0
M  V30 1709 C 168.441 -1.36914 0.820174 0
M  V30 1710 C 168.641 -1.93356 -0.567079 0
M  V30 1711 O 167.697 -2.15093 -1.32255 0
M  V30 1712 C 169.01 -2.3235 1.90877 0
M  V30 1713 C 170.558 -2.45973 1.93562 0
M  V30 1714 C 171.033 -3.44714 3.01556 0
M  V30 1715 N 172.524 -3.52263 3.00775 0
M  V30 1716 C 173.259 -4.28536 3.80978 0
M  V30 1717 N 172.755 -5.07991 4.71081 0
M  V30 1718 N 174.548 -4.23804 3.69251 0
M  V30 1719 H 166.699 -0.754348 1.98553 0
M  V30 1720 H 168.962 -0.3944 0.862063 0
M  V30 1721 H 168.668 -1.98027 2.90651 0
M  V30 1722 H 168.542 -3.32332 1.78424 0
M  V30 1723 H 170.929 -2.79584 0.944286 0
M  V30 1724 H 171.01 -1.45926 2.10093 0
M  V30 1725 H 170.654 -3.11835 4.00901 0
M  V30 1726 H 170.584 -4.44558 2.82269 0
M  V30 1727 H 173.075 -2.95567 2.35475 0
M  V30 1728 H 173.388 -5.63487 5.28869 0
M  V30 1729 H 171.733 -5.07235 4.75119 0
M  V30 1730 H 174.924 -3.60806 2.98222 0
M  V30 1731 H 175.097 -4.82995 4.31995 0
M  V30 1732 N 168.503 -0.877838 -1.30888 0
M  V30 1733 C 169.751 -0.491723 -1.96027 0
M  V30 1734 C 170.072 0.960827 -1.69685 0
M  V30 1735 O 169.342 1.67462 -1.01654 0
M  V30 1736 H 167.922 -0.17885 -0.725273 0
M  V30 1737 H 170.584 -1.11935 -1.59551 0
M  V30 1738 H 169.68 -0.656016 -3.05128 0
M  V30 1739 N 169.982 1.44106 -0.638065 0
M  V30 1740 C 171.222 2.03858 -0.148733 0
M  V30 1741 C 171.586 1.49153 1.20903 0
M  V30 1742 O 172.787 2.00452 1.79088 0
M  V30 1743 C 171.058 3.57117 -0.142314 0
M  V30 1744 S 172.617 4.37897 0.281385 0
M  V30 1745 H 169.435 0.708069 -0.0644912 0
M  V30 1746 H 172.037 1.7639 -0.843009 0
M  V30 1747 H 170.741 3.94436 -1.13349 0
M  V30 1748 H 170.272 3.89205 0.572988 0
M  V30 1749 H 172.287 4.72218 1.52395 0
M  V30 1750 N 171.46 0.379036 1.52974 0
M  V30 1751 C 172.69 -0.20649 2.05566 0
M  V30 1752 C 173.098 -1.41906 1.25137 0
M  V30 1753 O 172.441 -1.81421 0.288464 0
M  V30 1754 C 172.503 -0.651086 3.53555 0
M  V30 1755 C 172.167 0.446626 4.54812 0
M  V30 1756 C 173.164 1.30079 5.03364 0
M  V30 1757 C 170.849 0.610719 4.98573 0
M  V30 1758 C 172.843 2.30426 5.94292 0
M  V30 1759 C 170.53 1.61754 5.89304 0
M  V30 1760 C 171.528 2.46274 6.37054 0
M  V30 1761 O 171.216 3.45237 7.25994 0
M  V30 1762 H 170.948 -0.0372381 0.674974 0
M  V30 1763 H 173.502 0.539718 1.98182 0
M  V30 1764 H 171.732 -1.44911 3.58522 0
M  V30 1765 H 173.421 -1.16112 3.88938 0
M  V30 1766 H 174.187 1.18527 4.70294 0
M  V30 1767 H 170.066 -0.0374044 4.60985 0
M  V30 1768 H 173.61 2.96432 6.31485 0
M  V30 1769 H 169.507 1.73348 6.21788 0
M  V30 1770 H 170.275 3.41124 7.44027 0
M  V30 1771 N 172.938 -1.57226 0.108567 0
M  V30 1772 C 174.354 -1.5766 -0.248058 0
M  V30 1773 C 174.554 -1.12063 -1.67464 0
M  V30 1774 O 173.61 -0.803236 -2.39383 0
M  V30 1775 C 174.923 -3.0069 -0.0242287 0
M  V30 1776 C 176.471 -3.12868 -0.0909372 0
M  V30 1777 C 176.946 -4.57879 0.105067 0
M  V30 1778 N 178.437 -4.63172 0.0506846 0
M  V30 1779 C 179.172 -5.73126 0.177396 0
M  V30 1780 N 178.668 -6.91866 0.359696 0
M  V30 1781 N 180.461 -5.61977 0.117709 0
M  V30 1782 H 172.612 -1.85169 1.04049 0
M  V30 1783 H 174.875 -0.85529 0.40888 0
M  V30 1784 H 174.581 -3.38299 0.961604 0
M  V30 1785 H 174.455 -3.6945 -0.76068 0
M  V30 1786 H 176.842 -2.75124 -1.06729 0
M  V30 1787 H 176.923 -2.46672 0.677225 0
M  V30 1788 H 176.567 -4.96321 1.07834 0
M  V30 1789 H 176.497 -5.22153 -0.682954 0
M  V30 1790 H 178.988 -3.778 -0.0871266 0
M  V30 1791 H 179.301 -7.71503 0.447529 0
M  V30 1792 H 177.646 -6.93874 0.395536 0
M  V30 1793 H 180.837 -4.68094 -0.0236741 0
M  V30 1794 H 181.01 -6.47627 0.219905 0
M  V30 1795 N 174.416 0.165178 -1.56732 0
M  V30 1796 C 175.662 0.882112 -1.82611 0
M  V30 1797 C 175.995 1.81628 -0.687378 0
M  V30 1798 O 175.27 1.92009 0.310267 0
M  V30 1799 C 175.553 1.67245 -3.18906 0
M  V30 1800 C 175.406 0.760987 -4.43316 0
M  V30 1801 C 176.725 2.63884 -3.52212 0
M  V30 1802 H 173.844 0.319242 -0.664269 0
M  V30 1803 H 176.486 0.148052 -1.89422 0
M  V30 1804 H 174.636 2.29824 -3.1323 0
M  V30 1805 H 176.308 0.147596 -4.61064 0
M  V30 1806 H 174.551 0.0694102 -4.33744 0
M  V30 1807 H 175.222 1.34962 -5.35247 0
M  V30 1808 H 177.698 2.11429 -3.58381 0
M  V30 1809 H 176.574 3.16245 -4.48643 0
M  V30 1810 H 176.835 3.44377 -2.77231 0
M  V30 1811 N 175.894 1.51508 0.433938 0
M  V30 1812 C 176.824 1.76016 1.53429 0
M  V30 1813 C 177.805 0.610112 1.58782 0
M  V30 1814 O 178.99 0.853177 1.74455 0
M  V30 1815 C 176.12 1.88831 2.9148 0
M  V30 1816 C 175.074 3.04288 3.00987 0
M  V30 1817 C 174.4 3.0229 4.4105 0
M  V30 1818 C 175.7 4.44193 2.74754 0
M  V30 1819 H 177.394 2.68152 1.33171 0
M  V30 1820 H 174.94 1.29035 0.639214 0
M  V30 1821 H 176.893 2.04559 3.6842 0
M  V30 1822 H 175.617 0.933455 3.12976 0
M  V30 1823 H 174.276 2.8827 2.26486 0
M  V30 1824 H 173.924 2.04576 4.59519 0
M  V30 1825 H 173.624 3.79822 4.4834 0
M  V30 1826 H 175.148 3.20116 5.1996 0
M  V30 1827 H 176.562 4.60544 3.41426 0
M  V30 1828 H 174.959 5.23457 2.9345 0
M  V30 1829 H 176.029 4.53996 1.70339 0
M  V30 1830 N 177.372 -0.689602 1.41712 0
M  V30 1831 C 178.619 -1.44966 1.4139 0
M  V30 1832 C 178.947 -1.94484 0.025105 0
M  V30 1833 O 178.202 -1.70307 -0.964048 0
M  V30 1834 C 178.501 -2.67298 2.37247 0
M  V30 1835 C 178.167 -2.36405 3.83958 0
M  V30 1836 C 176.829 -2.27691 4.23923 0
M  V30 1837 C 179.181 -2.11043 4.76561 0
M  V30 1838 C 176.509 -1.91719 5.54492 0
M  V30 1839 C 178.861 -1.76578 6.07456 0
M  V30 1840 C 177.525 -1.66363 6.46436 0
M  V30 1841 H 176.795 -0.53047 0.517381 0
M  V30 1842 H 179.442 -0.787655 1.74552 0
M  V30 1843 H 177.747 -3.38461 1.9736 0
M  V30 1844 H 179.444 -3.25452 2.34269 0
M  V30 1845 H 176.034 -2.44085 3.52308 0
M  V30 1846 H 180.218 -2.16717 4.46483 0
M  V30 1847 H 175.474 -1.82367 5.83568 0
M  V30 1848 H 179.648 -1.55974 6.78708 0
M  V30 1849 H 177.275 -1.38258 7.47522 0
M  V30 1850 N 178.85 -1.27639 -0.924453 0
M  V30 1851 C 180.096 -1.14336 -1.67497 0
M  V30 1852 C 180.429 0.309465 -1.91718 0
M  V30 1853 O 179.704 1.22608 -1.50989 0
M  V30 1854 C 179.987 -1.93096 -3.0395 0
M  V30 1855 C 179.84 -3.46381 -2.8695 0
M  V30 1856 C 181.159 -1.73798 -4.0433 0
M  V30 1857 H 178.278 -0.416728 -0.607871 0
M  V30 1858 H 180.92 -1.56832 -1.07256 0
M  V30 1859 H 179.07 -1.56982 -3.55372 0
M  V30 1860 H 180.742 -3.92343 -2.42621 0
M  V30 1861 H 178.985 -3.72557 -2.22225 0
M  V30 1862 H 179.656 -3.96735 -3.83804 0
M  V30 1863 H 182.132 -2.05293 -3.61931 0
M  V30 1864 H 181.008 -2.31294 -4.97789 0
M  V30 1865 H 181.269 -0.686725 -4.36734 0
M  V30 1866 N 180.328 1.1314 -1.09713 0
M  V30 1867 C 181.605 1.80762 -0.747302 0
M  V30 1868 C 181.985 1.96663 0.767265 0
M  V30 1869 O 181.333 1.53706 1.69076 0
M  V30 1870 C 181.543 3.15606 -1.48975 0
M  V30 1871 C 182.891 3.90914 -1.65746 0
M  V30 1872 O 183.915 3.25239 -1.45251 0
M  V30 1873 O 182.774 5.08718 -1.9967 0
M  V30 1874 H 179.868 0.782103 -0.268782 0
M  V30 1875 H 182.414 1.20041 -1.19951 0
M  V30 1876 H 181.186 2.99278 -2.52088 0
M  V30 1877 H 180.809 3.84029 -1.02991 0
M  V30 1878 N 181.806 0.884767 1.30421 0
M  V30 1879 C 182.738 0.308655 2.27112 0
M  V30 1880 C 183.751 -0.536655 1.53701 0
M  V30 1881 O 184.94 -0.35624 1.74909 0
M  V30 1882 C 182.04 -0.579782 3.33904 0
M  V30 1883 C 181.213 0.236417 4.36761 0
M  V30 1884 C 180.272 -0.582482 5.22966 0
M  V30 1885 O 179.298 -0.00525502 5.692 0
M  V30 1886 N 180.5 -1.89163 5.48815 0
M  V30 1887 H 183.265 1.13964 2.77186 0
M  V30 1888 H 180.826 0.747731 1.43599 0
M  V30 1889 H 182.818 -1.13366 3.88497 0
M  V30 1890 H 181.388 -1.31144 2.83761 0
M  V30 1891 H 180.608 0.97174 3.82035 0
M  V30 1892 H 181.896 0.795924 5.02536 0
M  V30 1893 H 181.294 -2.38352 5.13035 0
M  V30 1894 H 179.851 -2.39296 6.06284 0
M  V30 1895 N 183.284 -1.43765 0.645699 0
M  V30 1896 C 184.532 -2.01499 0.155731 0
M  V30 1897 C 184.853 -1.51151 -1.232 0
M  V30 1898 O 184.123 -0.721044 -1.82148 0
M  V30 1899 H 182.703 -0.745003 0.0545817 0
M  V30 1900 H 185.365 -1.76075 0.835677 0
M  V30 1901 H 184.461 -3.1181 0.134577 0
M  V30 1902 N 184.763 -0.387143 -1.52771 0
M  V30 1903 C 186.04 0.253197 -1.93954 0
M  V30 1904 C 186.42 1.64545 -1.32243 0
M  V30 1905 O 185.768 2.23191 -0.489699 0
M  V30 1906 C 185.978 0.281722 -3.47861 0
M  V30 1907 C 187.326 0.511715 -4.21505 0
M  V30 1908 O 188.35 0.362023 -3.54356 0
M  V30 1909 O 187.209 0.804847 -5.40541 0
M  V30 1910 H 184.303 0.156845 -0.811991 0
M  V30 1911 H 186.849 -0.441494 -1.63856 0
M  V30 1912 H 185.621 -0.693571 -3.85104 0
M  V30 1913 H 185.244 1.02142 -3.84256 0
M  V30 1914 N 186.241 1.57166 -0.116904 0
M  V30 1915 C 187.151 2.18745 0.847812 0
M  V30 1916 C 188.167 1.163 1.29423 0
M  V30 1917 O 189.343 1.48761 1.35765 0
M  V30 1918 C 186.408 2.77307 2.0809 0
M  V30 1919 C 185.469 3.94781 1.68661 0
M  V30 1920 C 184.702 4.50541 2.86091 0
M  V30 1921 O 184.925 4.05202 4.01456 0
M  V30 1922 O 183.859 5.41256 2.63298 0
M  V30 1923 H 187.685 3.01632 0.353778 0
M  V30 1924 H 185.27 1.49005 0.108599 0
M  V30 1925 H 187.152 3.14647 2.80313 0
M  V30 1926 H 185.827 1.97452 2.56504 0
M  V30 1927 H 184.734 3.62214 0.935518 0
M  V30 1928 H 186.067 4.76065 1.24991 0
M  V30 1929 N 187.719 -0.156864 1.56817 0
M  V30 1930 C 188.651 -1.21883 1.94106 0
M  V30 1931 C 189.664 -1.3971 0.835754 0
M  V30 1932 O 190.853 -1.39457 1.11418 0
M  V30 1933 C 187.953 -2.58527 2.19127 0
M  V30 1934 C 187.126 -2.61809 3.50393 0
M  V30 1935 C 186.185 -3.7992 3.64071 0
M  V30 1936 O 185.211 -3.65249 4.36557 0
M  V30 1937 N 186.413 -4.96973 2.99997 0
M  V30 1938 H 189.178 -0.901974 2.85805 0
M  V30 1939 H 186.739 -0.346513 1.58148 0
M  V30 1940 H 188.731 -3.36034 2.25529 0
M  V30 1941 H 187.301 -2.82545 1.33742 0
M  V30 1942 H 186.521 -1.7029 3.5552 0
M  V30 1943 H 187.809 -2.61024 4.36742 0
M  V30 1944 H 187.207 -5.11794 2.41004 0
M  V30 1945 H 185.764 -5.7229 3.11974 0
M  V30 1946 N 189.197 -1.51736 -0.425897 0
M  V30 1947 C 190.16 -1.73271 -1.50032 0
M  V30 1948 C 191.16 -0.602639 -1.4908 0
M  V30 1949 O 192.35 -0.87033 -1.509 0
M  V30 1950 C 189.482 -1.79969 -2.89523 0
M  V30 1951 H 190.675 -2.69172 -1.32237 0
M  V30 1952 H 188.228 -1.41899 -0.65532 0
M  V30 1953 H 188.963 -0.859241 -3.1271 0
M  V30 1954 H 188.748 -2.62109 -2.91619 0
M  V30 1955 H 190.238 -1.9843 -3.67444 0
M  V30 1956 N 190.675 0.682077 -1.42076 0
M  V30 1957 C 191.605 1.80796 -1.47767 0
M  V30 1958 C 192.586 1.6677 -0.334954 0
M  V30 1959 O 193.771 1.863 -0.548264 0
M  V30 1960 C 190.901 3.19038 -1.37229 0
M  V30 1961 C 189.855 3.47789 -2.49453 0
M  V30 1962 C 189.181 4.8553 -2.23975 0
M  V30 1963 C 190.481 3.45411 -3.91776 0
M  V30 1964 H 192.175 1.7629 -2.41997 0
M  V30 1965 H 189.721 0.846721 -1.16476 0
M  V30 1966 H 191.674 3.97528 -1.39821 0
M  V30 1967 H 190.398 3.24204 -0.394907 0
M  V30 1968 H 189.057 2.71657 -2.46166 0
M  V30 1969 H 188.705 4.87337 -1.24547 0
M  V30 1970 H 188.405 5.0573 -2.99184 0
M  V30 1971 H 189.929 5.66312 -2.28304 0
M  V30 1972 H 191.343 4.13882 -3.96705 0
M  V30 1973 H 189.74 3.77145 -4.66778 0
M  V30 1974 H 190.81 2.44122 -4.18966 0
M  V30 1975 N 192.153 1.28127 0.917671 0
M  V30 1976 C 193.569 1.05749 1.19538 0
M  V30 1977 C 193.769 -0.202633 2.00479 0
M  V30 1978 O 192.825 -0.905382 2.3571 0
M  V30 1979 C 194.138 2.30273 1.93378 0
M  V30 1980 C 195.686 2.35412 2.06277 0
M  V30 1981 C 196.161 3.59692 2.83524 0
M  V30 1982 N 197.652 3.60309 2.91087 0
M  V30 1983 C 198.387 4.53147 3.51348 0
M  V30 1984 N 197.883 5.563 4.12919 0
M  V30 1985 N 199.676 4.40751 3.48849 0
M  V30 1986 H 191.827 2.09024 0.377184 0
M  V30 1987 H 194.09 0.919798 0.22951 0
M  V30 1988 H 193.796 3.22055 1.41328 0
M  V30 1989 H 193.67 2.36378 2.93947 0
M  V30 1990 H 196.057 1.4413 2.57508 0
M  V30 1991 H 196.138 2.33304 1.04895 0
M  V30 1992 H 195.782 4.51316 2.32973 0
M  V30 1993 H 195.712 3.59054 3.85211 0
M  V30 1994 H 198.203 2.85714 2.47338 0
M  V30 1995 H 198.516 6.2329 4.56869 0
M  V30 1996 H 196.861 5.60131 4.11435 0
M  V30 1997 H 200.052 3.59367 2.99955 0
M  V30 1998 H 200.225 5.13291 3.9552 0
M  V30 1999 N 193.631 -1.12557 1.10312 0
M  V30 2000 C 194.594 -2.16434 0.75424 0
M  V30 2001 C 195.594 -1.59278 -0.220685 0
M  V30 2002 O 196.784 -1.742 0.00230591 0
M  V30 2003 C 193.916 -3.40699 0.116987 0
M  V30 2004 H 195.109 -2.48811 1.67431 0
M  V30 2005 H 192.662 -1.27542 0.903475 0
M  V30 2006 H 193.397 -3.13921 -0.813877 0
M  V30 2007 H 193.182 -3.83459 0.818613 0
M  V30 2008 H 194.672 -4.17451 -0.111387 0
M  V30 2009 N 195.109 -0.891671 -1.2995 0
M  V30 2010 C 196.072 -0.36828 -2.26222 0
M  V30 2011 C 197.072 0.493014 -1.53056 0
M  V30 2012 O 198.262 0.299213 -1.71611 0
M  V30 2013 C 195.394 0.47442 -3.37583 0
M  V30 2014 H 196.587 -1.21844 -2.74033 0
M  V30 2015 H 194.14 -0.669107 -1.41254 0
M  V30 2016 H 194.875 1.34489 -2.95099 0
M  V30 2017 H 194.66 -0.142615 -3.91841 0
M  V30 2018 H 196.15 0.83218 -4.09224 0
M  V30 2019 N 196.587 1.43421 -0.653314 0
M  V30 2020 C 197.517 2.33487 0.0246656 0
M  V30 2021 C 198.498 1.49475 0.811863 0
M  V30 2022 O 199.683 1.78139 0.773322 0
M  V30 2023 C 196.813 3.32841 0.99166 0
M  V30 2024 C 195.767 4.26842 0.314568 0
M  V30 2025 C 195.093 5.16236 1.39302 0
M  V30 2026 C 196.393 5.16243 -0.793095 0
M  V30 2027 H 198.087 2.90427 -0.727481 0
M  V30 2028 H 195.633 1.39649 -0.351287 0
M  V30 2029 H 197.586 3.94747 1.47487 0
M  V30 2030 H 196.31 2.74158 1.77497 0
M  V30 2031 H 194.969 3.663 -0.148199 0
M  V30 2032 H 194.617 4.53891 2.16776 0
M  V30 2033 H 194.317 5.79948 0.945223 0
M  V30 2034 H 195.841 5.81015 1.87759 0
M  V30 2035 H 197.255 5.71958 -0.392039 0
M  V30 2036 H 195.652 5.88676 -1.16536 0
M  V30 2037 H 196.722 4.55927 -1.65103 0
M  V30 2038 N 198.065 0.39524 1.52563 0
M  V30 2039 C 199.028 -0.425001 2.25225 0
M  V30 2040 C 200.028 -0.985266 1.27079 0
M  V30 2041 O 201.218 -0.866332 1.5113 0
M  V30 2042 C 198.35 -1.59686 3.01186 0
M  V30 2043 H 199.543 0.211233 2.99155 0
M  V30 2044 H 197.096 0.147472 1.55603 0
M  V30 2045 H 197.831 -2.27035 2.31572 0
M  V30 2046 H 197.616 -1.20176 3.73229 0
M  V30 2047 H 199.106 -2.17743 3.5634 0
M  V30 2048 N 199.544 -1.57102 0.125237 0
M  V30 2049 C 200.454 -2.19191 -0.8362 0
M  V30 2050 C 201.47 -1.16985 -1.28805 0
M  V30 2051 O 202.646 -1.49479 -1.34974 0
M  V30 2052 C 199.711 -2.78407 -2.06617 0
M  V30 2053 C 198.772 -3.9567 -1.66565 0
M  V30 2054 C 198.005 -4.52052 -2.83698 0
M  V30 2055 O 198.228 -4.07326 -3.99302 0
M  V30 2056 O 197.162 -5.42645 -2.60423 0
M  V30 2057 H 200.988 -3.01816 -0.337776 0
M  V30 2058 H 198.573 -1.4906 -0.100695 0
M  V30 2059 H 200.455 -3.16129 -2.7864 0
M  V30 2060 H 199.13 -1.9881 -2.55453 0
M  V30 2061 H 198.037 -3.62705 -0.916296 0
M  V30 2062 H 199.37 -4.76722 -1.22464 0
M  V30 2063 N 201.022 0.148545 -1.56898 0
M  V30 2064 C 201.969 1.18345 -1.98149 0
M  V30 2065 C 202.939 1.42772 -0.848848 0
M  V30 2066 O 204.124 1.55132 -1.11079 0
M  V30 2067 C 201.264 2.51231 -2.36594 0
M  V30 2068 C 200.377 2.33991 -3.63142 0
M  V30 2069 C 199.512 3.59902 -3.90697 0
M  V30 2070 C 198.551 3.37692 -5.1052 0
M  V30 2071 N 197.688 4.5573 -5.34092 0
M  V30 2072 H 202.528 0.82467 -2.86362 0
M  V30 2073 H 200.065 0.395756 -1.41676 0
M  V30 2074 H 202.023 3.28713 -2.56912 0
M  V30 2075 H 200.653 2.85059 -1.51463 0
M  V30 2076 H 199.705 1.47572 -3.50609 0
M  V30 2077 H 201.017 2.13539 -4.5078 0
M  V30 2078 H 200.171 4.45813 -4.11505 0
M  V30 2079 H 198.91 3.83357 -3.01477 0
M  V30 2080 H 197.915 2.5017 -4.89587 0
M  V30 2081 H 199.14 3.15637 -6.0129 0
M  V30 2082 H 197.086 4.79361 -4.47827 0
M  V30 2083 H 197.003 4.38274 -6.15996 0
M  V30 2084 H 198.271 5.42858 -5.59397 0
M  V30 2085 N 202.5 1.5196 0.417844 0
M  V30 2086 C 203.911 1.57851 0.997 0
M  V30 2087 C 204.262 0.413714 1.91789 0
M  V30 2088 O 203.387 -0.467057 2.113 0
M  V30 2089 C 203.982 2.86085 1.81496 0
M  V30 2090 C 202.541 2.94483 2.34428 0
M  V30 2091 C 201.688 2.52707 1.14169 0
M  V30 2092 H 204.639 1.57455 0.198392 0
M  V30 2093 H 204.66 2.70947 2.67148 0
M  V30 2094 H 204.172 3.70842 1.14446 0
M  V30 2095 H 202.273 2.142 3.04875 0
M  V30 2096 H 202.386 3.98546 2.65891 0
M  V30 2097 H 200.75 2.06353 1.49301 0
M  V30 2098 H 201.533 3.39828 0.486999 0
M  V30 2099 N 203.978 -0.674533 1.42435 0
M  V30 2100 C 204.925 -1.78807 1.45934 0
M  V30 2101 C 205.895 -1.63157 0.311271 0
M  V30 2102 O 207.08 -1.83707 0.515383 0
M  V30 2103 C 204.22 -3.16839 1.36773 0
M  V30 2104 C 203.333 -3.43774 2.61617 0
M  V30 2105 C 202.468 -4.71536 2.44597 0
M  V30 2106 C 201.507 -4.91505 3.64814 0
M  V30 2107 N 200.644 -6.10508 3.46734 0
M  V30 2108 H 205.484 -1.75151 2.41093 0
M  V30 2109 H 203.021 -0.85504 1.19697 0
M  V30 2110 H 204.979 -3.96606 1.29459 0
M  V30 2111 H 203.609 -3.19619 0.452089 0
M  V30 2112 H 202.661 -2.58259 2.79297 0
M  V30 2113 H 203.973 -3.54423 3.50978 0
M  V30 2114 H 203.127 -5.59393 2.3487 0
M  V30 2115 H 201.866 -4.6317 1.52726 0
M  V30 2116 H 200.871 -4.0209 3.74972 0
M  V30 2117 H 202.096 -5.01716 4.57665 0
M  V30 2118 H 200.042 -6.03315 2.5758 0
M  V30 2119 H 199.959 -6.2202 4.29682 0
M  V30 2120 H 201.227 -7.01044 3.40819 0
M  V30 2121 N 205.456 -1.28612 -0.910864 0
M  V30 2122 C 206.386 -1.15326 -2.03032 0
M  V30 2123 C 207.367 -0.0502924 -1.70026 0
M  V30 2124 O 208.552 -0.227797 -1.92859 0
M  V30 2125 C 205.682 -0.817343 -3.37545 0
M  V30 2126 C 204.636 -1.8754 -3.84724 0
M  V30 2127 C 203.962 -1.39305 -5.16235 0
M  V30 2128 C 205.262 -3.28244 -4.06267 0
M  V30 2129 H 206.956 -2.08975 -2.14406 0
M  V30 2130 H 204.502 -1.00612 -1.03021 0
M  V30 2131 H 206.455 -0.711151 -4.15356 0
M  V30 2132 H 205.179 0.154846 -3.26233 0
M  V30 2133 H 203.838 -1.97079 -3.09121 0
M  V30 2134 H 203.486 -0.409846 -5.01328 0
M  V30 2135 H 203.186 -2.10057 -5.48771 0
M  V30 2136 H 204.71 -1.30014 -5.96598 0
M  V30 2137 H 206.124 -3.21611 -4.74594 0
M  V30 2138 H 204.521 -3.96855 -4.5014 0
M  V30 2139 H 205.591 -3.72048 -3.10979 0
M  V30 2140 N 206.934 1.1197 -1.10907 0
M  V30 2141 C 208.18 1.8386 -0.855773 0
M  V30 2142 C 208.513 1.84134 0.617103 0
M  V30 2143 O 207.788 1.29041 1.45529 0
M  V30 2144 C 208.071 3.31305 -1.411 0
M  V30 2145 C 207.924 3.39456 -2.9511 0
M  V30 2146 C 209.243 4.2721 -1.05736 0
M  V30 2147 H 206.362 0.667545 -0.312334 0
M  V30 2148 H 209.004 1.31331 -1.37303 0
M  V30 2149 H 207.154 3.76169 -0.97105 0
M  V30 2150 H 208.826 3.03191 -3.47668 0
M  V30 2151 H 207.069 2.79849 -3.31462 0
M  V30 2152 H 207.74 4.43209 -3.29044 0
M  V30 2153 H 210.216 3.90497 -1.43706 0
M  V30 2154 H 209.092 5.28775 -1.47269 0
M  V30 2155 H 209.353 4.42088 0.0325958 0
M  V30 2156 N 208.412 0.89855 1.29475 0
M  V30 2157 C 209.342 0.39201 2.30186 0
M  V30 2158 C 210.323 -0.532359 1.61555 0
M  V30 2159 O 211.508 -0.443331 1.89072 0
M  V30 2160 C 208.638 -0.382353 3.45189 0
M  V30 2161 C 207.592 0.451483 4.25612 0
M  V30 2162 C 206.918 -0.450307 5.328 0
M  V30 2163 C 208.218 1.70079 4.93832 0
M  V30 2164 H 209.912 1.23362 2.72804 0
M  V30 2165 H 207.458 0.594638 1.31149 0
M  V30 2166 H 209.411 -0.747451 4.14718 0
M  V30 2167 H 208.135 -1.25774 3.01411 0
M  V30 2168 H 206.794 0.798897 3.57789 0
M  V30 2169 H 206.442 -1.32379 4.85268 0
M  V30 2170 H 206.142 0.103902 5.87508 0
M  V30 2171 H 207.666 -0.811623 6.05182 0
M  V30 2172 H 209.08 1.40549 5.55805 0
M  V30 2173 H 207.477 2.19623 5.58467 0
M  V30 2174 H 208.547 2.43744 4.19186 0
M  V30 2175 N 209.89 -1.43072 0.660911 0
M  V30 2176 C 211.136 -2.0202 0.177708 0
M  V30 2177 C 211.469 -1.52066 -1.20787 0
M  V30 2178 O 210.744 -0.716987 -1.80802 0
M  V30 2179 C 211.027 -3.59561 0.197019 0
M  V30 2180 C 210.88 -4.19727 1.61706 0
M  V30 2181 C 212.199 -4.37664 -0.462396 0
M  V30 2182 H 209.318 -0.734034 0.0660494 0
M  V30 2183 H 211.96 -1.70272 0.843058 0
M  V30 2184 H 210.11 -3.86739 -0.369527 0
M  V30 2185 H 211.782 -4.03553 2.23479 0
M  V30 2186 H 210.025 -3.76084 2.16201 0
M  V30 2187 H 210.696 -5.28834 1.58237 0
M  V30 2188 H 213.172 -4.16095 0.0197215 0
M  V30 2189 H 212.048 -5.47305 -0.418188 0
M  V30 2190 H 212.309 -4.14493 -1.53778 0
M  V30 2191 N 211.368 -0.403325 -1.52352 0
M  V30 2192 C 212.278 0.432009 -2.30588 0
M  V30 2193 C 213.294 1.05884 -1.38075 0
M  V30 2194 O 214.47 1.06161 -1.71148 0
M  V30 2195 C 211.535 1.53669 -3.10784 0
M  V30 2196 C 210.596 0.933525 -4.19027 0
M  V30 2197 C 209.829 1.98557 -4.9539 0
M  V30 2198 O 210.052 3.20283 -4.71991 0
M  V30 2199 O 208.986 1.59504 -5.80381 0
M  V30 2200 H 212.812 -0.205739 -3.03002 0
M  V30 2201 H 210.397 -0.166675 -1.48467 0
M  V30 2202 H 212.279 2.17814 -3.60742 0
M  V30 2203 H 210.954 2.15915 -2.41169 0
M  V30 2204 H 209.861 0.254954 -3.7323 0
M  V30 2205 H 211.194 0.35508 -4.90918 0
M  V30 2206 N 212.846 1.57033 -0.133567 0
M  V30 2207 C 214.071 2.00475 0.531477 0
M  V30 2208 C 214.496 1.01291 1.58499 0
M  V30 2209 O 213.854 -0.0133279 1.81295 0
M  V30 2210 C 213.902 3.42729 1.12113 0
M  V30 2211 O 213.006 3.46498 2.23636 0
M  V30 2212 H 212.347 0.650876 0.131362 0
M  V30 2213 H 214.877 2.03344 -0.22634 0
M  V30 2214 H 214.887 3.81246 1.4531 0
M  V30 2215 H 213.562 4.14428 0.349557 0
M  V30 2216 H 212.139 3.19811 1.91769 0
M  V30 2217 N 214.325 -0.140222 1.56975 0
M  V30 2218 C 215.736 -0.699596 1.73097 0
M  V30 2219 C 216.087 -1.8134 0.749022 0
M  V30 2220 O 215.212 -2.16241 -0.0828503 0
M  V30 2221 C 215.807 -1.27582 3.1386 0
M  V30 2222 C 214.366 -1.78169 3.31561 0
M  V30 2223 C 213.513 -0.672855 2.69013 0
M  V30 2224 H 216.464 0.0855115 1.58469 0
M  V30 2225 H 216.485 -2.14561 3.14235 0
M  V30 2226 H 215.997 -0.464955 3.85305 0
M  V30 2227 H 214.098 -2.61801 2.65124 0
M  V30 2228 H 214.211 -1.90574 4.39566 0
M  V30 2229 H 212.575 -1.10118 2.29665 0
M  V30 2230 H 213.358 0.126679 3.43066 0
M  V30 2231 N 215.803 -1.52179 -0.40978 0
M  V30 2232 C 217.028 -1.70347 -1.18308 0
M  V30 2233 C 217.453 -0.411887 -1.83535 0
M  V30 2234 O 216.811 0.630587 -1.6998 0
M  V30 2235 C 216.859 -2.83977 -2.22238 0
M  V30 2236 O 215.963 -2.495 -3.28365 0
M  V30 2237 H 215.304 -0.567103 -0.345384 0
M  V30 2238 H 217.834 -1.98879 -0.480445 0
M  V30 2239 H 217.844 -3.0887 -2.66577 0
M  V30 2240 H 216.519 -3.77685 -1.74146 0
M  V30 2241 H 215.096 -2.35277 -2.89308 0
M  V30 2242 N 217.281 0.66697 -1.42791 0
M  V30 2243 C 218.229 1.80157 -1.47127 0
M  V30 2244 C 219.223 1.65825 -0.346199 0
M  V30 2245 O 220.429 1.72338 -0.519572 0
M  V30 2246 H 216.804 0.594158 -0.460956 0
M  V30 2247 H 218.775 1.73619 -2.42692 0
M  V30 2248 C 217.524 3.18351 -1.39813 0
M  V30 2249 H 216.847 3.3001 -2.25684 0
M  V30 2250 H 218.287 3.97736 -1.46908 0
M  V30 2251 C 216.746 3.36707 -0.11391 0
M  V30 2252 O 217.276 3.93027 0.830241 0
M  V30 2253 N 215.482 2.90586 -0.0285295 0
M  V30 2254 H 215.029 2.4494 -0.79764 0
M  V30 2255 H 214.987 3.03245 0.830063 0
M  V30 2256 N 218.759 1.29093 0.90403 0
M  V30 2257 C 220.17 1.15186 1.46932 0
M  V30 2258 C 220.521 -0.254587 1.94541 0
M  V30 2259 O 219.646 -1.14972 1.83332 0
M  V30 2260 C 220.241 2.08492 2.67051 0
M  V30 2261 C 218.8 1.98621 3.19729 0
M  V30 2262 C 217.947 1.9967 1.92425 0
M  V30 2263 H 220.898 1.41641 0.715789 0
M  V30 2264 H 220.919 1.65461 3.42641 0
M  V30 2265 H 220.431 3.10847 2.3237 0
M  V30 2266 H 218.532 0.993389 3.59114 0
M  V30 2267 H 218.645 2.86068 3.8432 0
M  V30 2268 H 217.009 1.44208 2.09943 0
M  V30 2269 H 217.792 3.03721 1.60026 0
M  V30 2270 N 220.237 -1.11381 1.11499 0
M  V30 2271 C 221.167 -2.19509 0.796125 0
M  V30 2272 C 222.148 -1.68458 -0.235796 0
M  V30 2273 O 223.333 -1.93947 -0.0991344 0
M  V30 2274 C 220.463 -3.46475 0.239205 0
M  V30 2275 C 219.417 -4.10744 1.20307 0
M  V30 2276 C 218.743 -5.32293 0.50683 0
M  V30 2277 C 220.043 -4.55597 2.55399 0
M  V30 2278 H 221.737 -2.46439 1.70024 0
M  V30 2279 H 219.283 -1.18446 0.818935 0
M  V30 2280 H 221.236 -4.214 0.00392006 0
M  V30 2281 H 219.96 -3.19006 -0.700206 0
M  V30 2282 H 218.619 -3.37813 1.42399 0
M  V30 2283 H 218.267 -5.01095 -0.437408 0
M  V30 2284 H 217.967 -5.76243 1.1497 0
M  V30 2285 H 219.491 -6.09956 0.280351 0
M  V30 2286 H 220.905 -5.21841 2.37391 0
M  V30 2287 H 219.302 -5.10363 3.15673 0
M  V30 2288 H 220.372 -3.69013 3.14575 0
M  V30 2289 N 221.715 -0.905404 -1.28997 0
M  V30 2290 C 222.645 -0.404212 -2.29975 0
M  V30 2291 C 223.626 0.523784 -1.61835 0
M  V30 2292 O 224.811 0.433298 -1.89304 0
M  V30 2293 C 221.941 0.364042 -3.45387 0
M  V30 2294 C 220.895 -0.474048 -4.25367 0
M  V30 2295 C 220.221 0.422045 -5.33032 0
M  V30 2296 C 221.521 -1.72696 -4.92923 0
M  V30 2297 H 223.215 -1.24807 -2.72146 0
M  V30 2298 H 220.761 -0.601585 -1.30832 0
M  V30 2299 H 222.714 0.725447 -4.15109 0
M  V30 2300 H 221.438 1.24174 -3.02074 0
M  V30 2301 H 220.097 -0.81786 -3.57361 0
M  V30 2302 H 219.745 1.29804 -4.85963 0
M  V30 2303 H 219.445 -0.135057 -5.87445 0
M  V30 2304 H 220.969 0.779517 -6.05604 0
M  V30 2305 H 222.383 -1.43495 -5.55051 0
M  V30 2306 H 220.78 -2.22582 -5.57295 0
M  V30 2307 H 221.85 -2.45964 -4.17887 0
M  V30 2308 N 223.193 1.4272 -0.668489 0
M  V30 2309 C 224.609 1.55992 -0.33745 0
M  V30 2310 C 224.809 1.64933 1.15756 0
M  V30 2311 O 223.865 1.61278 1.94282 0
M  V30 2312 C 225.178 2.81314 -1.06222 0
M  V30 2313 C 226.726 2.95078 -1.04394 0
M  V30 2314 C 227.201 4.23252 -1.74991 0
M  V30 2315 N 228.692 4.3015 -1.71829 0
M  V30 2316 C 229.427 5.28127 -2.23315 0
M  V30 2317 N 228.923 6.32293 -2.83156 0
M  V30 2318 N 230.716 5.19882 -2.13726 0
M  V30 2319 H 222.867 1.3516 -1.63846 0
M  V30 2320 H 225.13 0.650174 -0.689912 0
M  V30 2321 H 224.836 2.80823 -2.11734 0
M  V30 2322 H 224.71 3.72012 -0.62344 0
M  V30 2323 H 227.097 2.951 0.0028244 0
M  V30 2324 H 227.178 2.05627 -1.52155 0
M  V30 2325 H 226.822 4.2399 -2.79633 0
M  V30 2326 H 226.752 5.11626 -1.24685 0
M  V30 2327 H 229.243 3.55499 -1.28175 0
M  V30 2328 H 229.556 7.03398 -3.20079 0
M  V30 2329 H 227.901 6.32873 -2.87223 0
M  V30 2330 H 231.092 4.37423 -1.66669 0
M  V30 2331 H 231.265 5.96077 -2.54158 0
M  V30 2332 N 224.671 0.411399 1.52136 0
M  V30 2333 C 225.917 -0.163888 2.02137 0
M  V30 2334 C 226.25 -1.44597 1.29636 0
M  V30 2335 O 225.525 -1.90272 0.403353 0
M  V30 2336 C 225.808 -0.40927 3.57767 0
M  V30 2337 C 225.661 0.889643 4.40914 0
M  V30 2338 C 226.98 -1.19042 4.23694 0
M  V30 2339 H 224.099 -0.0580896 0.734707 0
M  V30 2340 H 226.741 0.54531 1.82007 0
M  V30 2341 H 224.891 -1.0134 3.7505 0
M  V30 2342 H 226.563 1.52575 4.35337 0
M  V30 2343 H 224.806 1.50011 4.07037 0
M  V30 2344 H 225.477 0.672314 5.4789 0
M  V30 2345 H 227.953 -0.678942 4.10524 0
M  V30 2346 H 226.829 -1.33086 5.32522 0
M  V30 2347 H 227.09 -2.21166 3.82803 0
M  V30 2348 N 226.149 -1.5696 0.141893 0
M  V30 2349 C 227.395 -1.9625 -0.511248 0
M  V30 2350 C 227.728 -1.02654 -1.64851 0
M  V30 2351 O 227.003 -0.0679676 -1.94381 0
M  V30 2352 C 227.286 -3.45285 -1.02227 0
M  V30 2353 C 227.139 -4.49658 0.113138 0
M  V30 2354 C 228.458 -3.96698 -1.90574 0
M  V30 2355 H 225.577 -0.713567 -0.184367 0
M  V30 2356 H 228.219 -1.88698 0.222087 0
M  V30 2357 H 226.369 -3.51852 -1.64719 0
M  V30 2358 H 228.041 -4.55174 0.749302 0
M  V30 2359 H 226.284 -4.26857 0.773026 0
M  V30 2360 H 226.955 -5.51258 -0.286053 0
M  V30 2361 H 229.431 -3.92578 -1.37918 0
M  V30 2362 H 228.307 -5.01453 -2.2324 0
M  V30 2363 H 228.568 -3.3875 -2.84079 0
M  V30 2364 N 227.627 0.131896 -1.57047 0
M  V30 2365 C 228.904 0.871495 -1.75112 0
M  V30 2366 C 229.284 1.9866 -0.713949 0
M  V30 2367 O 228.632 2.26965 0.264447 0
M  V30 2368 C 228.842 1.40007 -3.19686 0
M  V30 2369 C 230.19 1.85752 -3.81813 0
M  V30 2370 O 231.214 1.49715 -3.23209 0
M  V30 2371 O 230.073 2.5226 -4.84796 0
M  V30 2372 H 227.167 0.412919 -0.716538 0
M  V30 2373 H 229.713 0.116641 -1.69299 0
M  V30 2374 H 228.485 0.599404 -3.86682 0
M  V30 2375 H 228.108 2.218 -3.29986 0
M  V30 2376 N 229.106 1.52395 0.401703 0
M  V30 2377 C 230.355 1.66044 1.14509 0
M  V30 2378 C 230.668 0.400216 1.91462 0
M  V30 2379 O 231.874 0.416632 2.68284 0
M  V30 2380 C 230.33 2.93388 2.0845 0
M  V30 2381 C 229.938 4.26545 1.36978 0
M  V30 2382 C 231.682 3.16402 2.83001 0
M  V30 2383 C 229.589 5.45007 2.29611 0
M  V30 2384 H 228.519 0.618562 0.431158 0
M  V30 2385 H 231.17 1.78886 0.40892 0
M  V30 2386 H 229.552 2.74263 2.8565 0
M  V30 2387 H 230.726 4.56179 0.650916 0
M  V30 2388 H 229.041 4.09692 0.74438 0
M  V30 2389 H 231.638 4.02085 3.52465 0
M  V30 2390 H 231.981 2.30943 3.46368 0
M  V30 2391 H 232.514 3.36034 2.12898 0
M  V30 2392 H 229.253 6.32835 1.70879 0
M  V30 2393 H 228.773 5.19702 2.9945 0
M  V30 2394 H 230.452 5.7838 2.89974 0
M  V30 2395 N 230.584 -0.659388 1.43143 0
M  V30 2396 C 231.547 -1.75432 1.47501 0
M  V30 2397 C 232.547 -1.56707 0.360512 0
M  V30 2398 O 233.737 -1.62717 0.622002 0
M  V30 2399 C 230.869 -3.14239 1.32162 0
M  V30 2400 H 232.062 -1.7295 2.45006 0
M  V30 2401 H 229.615 -0.870469 1.29817 0
M  V30 2402 H 230.35 -3.22336 0.356401 0
M  V30 2403 H 230.135 -3.29235 2.12948 0
M  V30 2404 H 231.625 -3.94094 1.3813 0
M  V30 2405 N 232.062 -1.29571 -0.897171 0
M  V30 2406 C 233.009 -1.14916 -2.00158 0
M  V30 2407 C 233.979 -0.0418149 -1.66047 0
M  V30 2408 O 235.164 -0.209793 -1.89643 0
M  V30 2409 C 232.304 -0.834307 -3.34863 0
M  V30 2410 C 231.417 -2.02234 -3.8174 0
M  V30 2411 C 230.552 -1.64664 -5.05034 0
M  V30 2412 C 229.591 -2.80033 -5.44286 0
M  V30 2413 N 228.728 -2.42843 -6.58765 0
M  V30 2414 H 233.568 -2.09403 -2.12025 0
M  V30 2415 H 231.105 -1.042 -1.0383 0
M  V30 2416 H 233.063 -0.632436 -4.12379 0
M  V30 2417 H 231.693 0.0736656 -3.22716 0
M  V30 2418 H 230.745 -2.33583 -3.00238 0
M  V30 2419 H 232.057 -2.88673 -4.06779 0
M  V30 2420 H 231.211 -1.4078 -5.9014 0
M  V30 2421 H 229.95 -0.753766 -4.8184 0
M  V30 2422 H 228.955 -3.04596 -4.57713 0
M  V30 2423 H 230.18 -3.69989 -5.6946 0
M  V30 2424 H 228.126 -1.56046 -6.3717 0
M  V30 2425 H 228.043 -3.22815 -6.83613 0
M  V30 2426 H 229.311 -2.22285 -7.47134 0
M  V30 2427 N 233.54 1.10788 -1.12088 0
M  V30 2428 C 234.789 1.82036 -0.868659 0
M  V30 2429 C 235.102 1.85929 0.607426 0
M  V30 2430 O 236.308 2.53346 0.97613 0
M  V30 2431 C 234.764 3.26951 -1.50435 0
M  V30 2432 C 234.372 3.31367 -3.01496 0
M  V30 2433 C 236.116 4.03053 -1.33225 0
M  V30 2434 C 234.023 4.7072 -3.58017 0
M  V30 2435 H 232.953 0.682108 -0.321318 0
M  V30 2436 H 235.604 1.24618 -1.34694 0
M  V30 2437 H 233.986 3.84343 -0.953735 0
M  V30 2438 H 235.16 2.83819 -3.6302 0
M  V30 2439 H 233.475 2.6875 -3.18061 0
M  V30 2440 H 236.072 5.05981 -1.72878 0
M  V30 2441 H 236.415 4.15387 -0.275529 0
M  V30 2442 H 236.948 3.52066 -1.85188 0
M  V30 2443 H 233.687 4.63585 -4.63432 0
M  V30 2444 H 233.207 5.1865 -3.01268 0
M  V30 2445 H 234.886 5.39685 -3.56859 0
M  V30 2446 N 235.018 0.912232 1.28515 0
M  V30 2447 C 236.258 0.551677 1.96814 0
M  V30 2448 C 236.622 -0.887825 1.7024 0
M  V30 2449 O 237.823 -1.35588 2.32098 0
M  V30 2450 C 236.094 0.850555 3.47132 0
M  V30 2451 S 237.653 0.59619 4.34731 0
M  V30 2452 H 234.471 0.204191 0.681049 0
M  V30 2453 H 237.073 1.17736 1.56072 0
M  V30 2454 H 235.777 1.8962 3.63968 0
M  V30 2455 H 235.308 0.213471 3.9282 0
M  V30 2456 H 237.323 -0.553154 4.93107 0
M  V30 2457 N 236.496 -1.42363 0.676048 0
M  V30 2458 C 237.446 -2.27987 -0.0242903 0
M  V30 2459 C 238.43 -1.41153 -0.772319 0
M  V30 2460 O 239.622 -1.64592 -0.651025 0
M  V30 2461 C 236.751 -3.29195 -0.973953 0
M  V30 2462 C 235.837 -4.23512 -0.223202 0
M  V30 2463 N 236.228 -4.99865 0.772589 0
M  V30 2464 C 234.526 -4.43606 -0.461469 0
M  V30 2465 C 235.227 -5.68757 1.22027 0
M  V30 2466 N 234.203 -5.40811 0.549975 0
M  V30 2467 H 238.005 -2.84445 0.73949 0
M  V30 2468 H 235.519 -1.54341 0.50522 0
M  V30 2469 H 237.516 -3.89339 -1.49067 0
M  V30 2470 H 236.176 -2.74298 -1.73755 0
M  V30 2471 H 237.187 -5.04921 1.15217 0
M  V30 2472 H 233.864 -3.99749 -1.20446 0
M  V30 2473 H 235.254 -6.40007 2.0455 0
M  V30 2474 N 237.974 -0.419461 -1.51915 0
M  V30 2475 C 238.904 0.391813 -2.30189 0
M  V30 2476 C 239.885 1.03699 -1.34836 0
M  V30 2477 O 241.07 1.04403 -1.63748 0
M  V30 2478 C 238.2 1.50312 -3.13087 0
M  V30 2479 C 237.154 0.9824 -4.16573 0
M  V30 2480 C 236.48 2.18809 -4.8788 0
M  V30 2481 C 237.78 0.0292356 -5.22292 0
M  V30 2482 H 239.474 -0.26135 -2.98257 0
M  V30 2483 H 237.02 -0.127134 -1.43438 0
M  V30 2484 H 238.973 2.07773 -3.66617 0
M  V30 2485 H 237.697 2.18431 -2.42807 0
M  V30 2486 H 236.356 0.430119 -3.64068 0
M  V30 2487 H 236.004 2.85507 -4.14119 0
M  V30 2488 H 235.704 1.84615 -5.57845 0
M  V30 2489 H 237.228 2.76858 -5.44226 0
M  V30 2490 H 238.642 0.512976 -5.71 0
M  V30 2491 H 237.039 -0.2244 -5.9968 0
M  V30 2492 H 238.109 -0.912931 -4.76228 0
M  V30 2493 N 239.452 1.56882 -0.150215 0
M  V30 2494 C 240.415 2.1573 0.774157 0
M  V30 2495 C 241.415 1.0999 1.17298 0
M  V30 2496 O 242.605 1.35613 1.09338 0
M  V30 2497 C 239.737 2.72302 2.05096 0
M  V30 2498 H 240.93 2.98752 0.262201 0
M  V30 2499 H 238.483 1.55985 0.099248 0
M  V30 2500 H 239.218 1.92956 2.6065 0
M  V30 2501 H 239.003 3.49665 1.77416 0
M  V30 2502 H 240.493 3.17632 2.71109 0
M  V30 2503 N 240.93 -0.123565 1.57115 0
M  V30 2504 C 242.346 -0.476961 1.52306 0
M  V30 2505 C 242.546 -1.82109 0.86248 0
M  V30 2506 O 241.602 -2.48586 0.442884 0
M  V30 2507 C 242.915 -0.465661 2.97073 0
M  V30 2508 C 244.463 -0.549534 3.08138 0
M  V30 2509 C 244.938 -0.568669 4.54456 0
M  V30 2510 N 246.429 -0.630237 4.58892 0
M  V30 2511 C 247.164 -0.666415 5.69514 0
M  V30 2512 N 246.66 -0.660514 6.89644 0
M  V30 2513 N 248.453 -0.709077 5.5761 0
M  V30 2514 H 240.604 0.757198 1.98445 0
M  V30 2515 H 242.867 0.278808 0.906074 0
M  V30 2516 H 242.573 0.454232 3.48754 0
M  V30 2517 H 242.447 -1.29513 3.54269 0
M  V30 2518 H 244.834 -1.45985 2.56461 0
M  V30 2519 H 244.915 0.307532 2.53945 0
M  V30 2520 H 244.559 0.337581 5.06777 0
M  V30 2521 H 244.489 -1.44256 5.06456 0
M  V30 2522 H 246.98 -0.641146 3.72421 0
M  V30 2523 H 247.293 -0.690616 7.69708 0
M  V30 2524 H 245.638 -0.628012 6.92157 0
M  V30 2525 H 248.829 -0.711019 4.62668 0
M  V30 2526 H 249.002 -0.733804 6.43832 0
M  V30 2527 N 242.408 -1.52605 -0.393616 0
M  V30 2528 C 243.318 -1.79971 -1.50492 0
M  V30 2529 C 244.334 -0.686181 -1.59899 0
M  V30 2530 O 245.51 -0.973274 -1.76322 0
M  V30 2531 C 242.575 -1.95867 -2.86072 0
M  V30 2532 C 241.636 -3.19781 -2.86424 0
M  V30 2533 C 240.869 -3.34909 -4.15538 0
M  V30 2534 O 241.092 -2.54948 -5.10253 0
M  V30 2535 O 240.026 -4.28141 -4.23059 0
M  V30 2536 H 243.852 -2.74328 -1.30299 0
M  V30 2537 H 241.437 -1.3764 -0.581005 0
M  V30 2538 H 243.319 -2.08056 -3.66457 0
M  V30 2539 H 241.994 -1.04699 -3.063 0
M  V30 2540 H 240.901 -3.13038 -2.04837 0
M  V30 2541 H 242.234 -4.1078 -2.71147 0
M  V30 2542 N 243.887 0.651787 -1.4349 0
M  V30 2543 C 245.133 1.41376 -1.45398 0
M  V30 2544 C 245.466 1.94041 -0.0784823 0
M  V30 2545 O 244.741 1.72379 0.900878 0
M  V30 2546 C 245.024 2.59414 -2.49752 0
M  V30 2547 C 244.877 2.12232 -3.96582 0
M  V30 2548 C 246.196 3.61626 -2.50827 0
M  V30 2549 H 243.315 0.512719 -0.529422 0
M  V30 2550 H 245.957 0.738796 -1.75048 0
M  V30 2551 H 244.107 3.16997 -2.246 0
M  V30 2552 H 245.779 1.59639 -4.32797 0
M  V30 2553 H 244.022 1.43592 -4.09346 0
M  V30 2554 H 244.693 2.9712 -4.65214 0
M  V30 2555 H 247.169 3.13805 -2.7325 0
M  V30 2556 H 246.045 4.41766 -3.25783 0
M  V30 2557 H 246.306 4.14314 -1.5426 0
M  V30 2558 N 245.365 1.30045 0.890287 0
M  V30 2559 C 246.613 1.18327 1.63839 0
M  V30 2560 C 246.934 -0.263455 1.93212 0
M  V30 2561 O 246.204 -1.17856 1.56482 0
M  V30 2562 H 244.784 0.434933 0.607324 0
M  V30 2563 H 247.446 1.631 1.06698 0
M  V30 2564 H 246.542 1.74024 2.59079 0
M  V30 2565 N 246.843 -1.10192 1.12674 0
M  V30 2566 C 247.806 -2.14786 0.799979 0
M  V30 2567 C 248.806 -1.59711 -0.18685 0
M  V30 2568 O 249.996 -1.74156 0.0392558 0
M  V30 2569 C 247.128 -3.40374 0.189228 0
M  V30 2570 H 248.321 -2.45203 1.72671 0
M  V30 2571 H 245.874 -1.25597 0.930326 0
M  V30 2572 H 246.609 -3.15577 -0.747107 0
M  V30 2573 H 246.394 -3.81637 0.899766 0
M  V30 2574 H 247.884 -4.17594 -0.0228143 0
M  V30 2575 N 248.321 -0.919034 -1.28029 0
M  V30 2576 C 249.567 -0.555757 -1.95036 0
M  V30 2577 C 249.9 0.899198 -1.72128 0
M  V30 2578 O 249.175 1.64023 -1.04531 0
M  V30 2579 C 249.458 -0.872024 -3.49382 0
M  V30 2580 C 249.311 -2.3801 -3.81669 0
M  V30 2581 C 250.63 -0.37185 -4.38526 0
M  V30 2582 H 247.749 -0.203386 -0.708381 0
M  V30 2583 H 250.391 -1.14924 -1.51303 0
M  V30 2584 H 248.541 -0.366946 -3.86763 0
M  V30 2585 H 250.213 -2.9562 -3.54128 0
M  V30 2586 H 248.456 -2.83289 -3.28526 0
M  V30 2587 H 249.127 -2.55192 -4.8947 0
M  V30 2588 H 251.603 -0.804602 -4.08247 0
M  V30 2589 H 250.479 -0.622173 -5.45362 0
M  V30 2590 H 250.74 0.727934 -4.36066 0
M  V30 2591 N 249.799 1.42003 -0.683588 0
M  V30 2592 C 251.024 2.06265 -0.216647 0
M  V30 2593 C 251.449 1.51059 1.12083 0
M  V30 2594 O 250.807 0.632638 1.69904 0
M  V30 2595 C 250.855 3.60191 -0.171759 0
M  V30 2596 O 249.959 4.03396 0.857069 0
M  V30 2597 H 249.3 0.65502 -0.108834 0
M  V30 2598 H 251.83 1.81982 -0.935077 0
M  V30 2599 H 251.84 4.08 0.0014303 0
M  V30 2600 H 250.515 3.99743 -1.14796 0
M  V30 2601 H 249.092 3.67117 0.654208 0
M  V30 2602 N 251.277 0.427512 1.51691 0
M  V30 2603 C 252.523 -0.142439 2.02299 0
M  V30 2604 C 252.856 -1.43214 1.31162 0
M  V30 2605 O 252.131 -1.89833 0.423511 0
M  V30 2606 C 252.414 -0.371301 3.58181 0
M  V30 2607 C 252.267 0.936358 4.39946 0
M  V30 2608 C 253.586 -1.14542 4.24933 0
M  V30 2609 H 250.705 -0.0502937 0.735282 0
M  V30 2610 H 253.347 0.564584 1.81418 0
M  V30 2611 H 251.497 -0.973559 3.76104 0
M  V30 2612 H 253.169 1.57184 4.33694 0
M  V30 2613 H 251.412 1.5432 4.05423 0
M  V30 2614 H 252.083 0.730388 5.47147 0
M  V30 2615 H 254.559 -0.635362 4.11221 0
M  V30 2616 H 253.435 -1.27431 5.33903 0
M  V30 2617 H 253.696 -2.17093 3.85127 0
M  V30 2618 N 252.755 -1.56801 0.158532 0
M  V30 2619 C 254.001 -1.96781 -0.490405 0
M  V30 2620 C 254.334 -1.04397 -1.63753 0
M  V30 2621 O 253.609 -0.0885805 -1.94298 0
M  V30 2622 C 253.892 -3.4635 -0.985594 0
M  V30 2623 C 253.745 -4.49512 0.160824 0
M  V30 2624 C 255.064 -3.98697 -1.86355 0
M  V30 2625 H 252.183 -0.715482 -0.176788 0
M  V30 2626 H 254.825 -1.88451 0.242088 0
M  V30 2627 H 252.975 -3.53579 -1.60978 0
M  V30 2628 H 254.647 -4.54353 0.797537 0
M  V30 2629 H 252.89 -4.26013 0.818256 0
M  V30 2630 H 253.561 -5.51531 -0.227569 0
M  V30 2631 H 256.037 -3.94019 -1.33746 0
M  V30 2632 H 254.913 -5.03792 -2.17909 0
M  V30 2633 H 255.174 -3.41744 -2.8047 0
M  V30 2634 N 254.233 0.115231 -1.57178 0
M  V30 2635 C 255.51 0.852873 -1.76027 0
M  V30 2636 C 255.89 1.97892 -0.73498 0
M  V30 2637 O 255.238 2.27232 0.24036 0
M  V30 2638 C 255.448 1.36608 -3.21153 0
M  V30 2639 C 256.796 1.81692 -3.83762 0
M  V30 2640 O 257.82 1.46278 -3.24779 0
M  V30 2641 O 256.679 2.47104 -4.87444 0
M  V30 2642 H 253.773 0.405296 -0.720877 0
M  V30 2643 H 256.319 0.0986785 -1.69413 0
M  V30 2644 H 255.091 0.558357 -3.87296 0
M  V30 2645 H 254.714 2.18287 -3.3232 0
M  V30 2646 N 255.711 1.52812 0.385517 0
M  V30 2647 C 256.659 1.78482 1.49155 0
M  V30 2648 C 257.653 0.652914 1.56312 0
M  V30 2649 O 258.859 0.835464 1.59436 0
M  V30 2650 H 255.234 0.5648 0.496493 0
M  V30 2651 H 257.205 2.71095 1.24699 0
M  V30 2652 C 255.954 1.97378 2.86247 0
M  V30 2653 H 255.277 2.83907 2.81491 0
M  V30 2654 H 256.717 2.19327 3.62866 0
M  V30 2655 C 255.176 0.74728 3.28508 0
M  V30 2656 O 255.706 -0.0736232 4.01633 0
M  V30 2657 N 253.912 0.576396 2.84826 0
M  V30 2658 H 253.459 1.24555 2.25486 0
M  V30 2659 H 253.417 -0.24288 3.1346 0
M  V30 2660 N 257.189 -0.644168 1.43834 0
M  V30 2661 C 258.417 -1.43147 1.49387 0
M  V30 2662 C 258.832 -1.88452 0.114583 0
M  V30 2663 O 258.189 -1.60047 -0.876989 0
M  V30 2664 C 258.24 -2.66046 2.44748 0
M  V30 2665 O 257.961 -2.22633 3.77314 0
M  V30 2666 C 259.462 -3.59311 2.59635 0
M  V30 2667 H 256.682 -0.439447 0.507077 0
M  V30 2668 H 259.226 -0.78895 1.88669 0
M  V30 2669 H 257.381 -3.26418 2.08638 0
M  V30 2670 H 257.795 -3.02216 4.28679 0
M  V30 2671 H 259.269 -4.42187 3.30416 0
M  V30 2672 H 259.746 -4.07259 1.64427 0
M  V30 2673 H 260.352 -3.04816 2.96593 0
M  V30 2674 N 258.668 -1.30515 -0.883378 0
M  V30 2675 C 259.915 -1.1943 -1.63532 0
M  V30 2676 C 260.243 0.250627 -1.92878 0
M  V30 2677 O 259.498 1.19556 -1.54935 0
M  V30 2678 C 259.797 -1.96994 -2.98209 0
M  V30 2679 C 259.463 -3.466 -2.88408 0
M  V30 2680 C 258.125 -3.87397 -2.85442 0
M  V30 2681 C 260.477 -4.41863 -2.76418 0
M  V30 2682 C 257.805 -5.21745 -2.68327 0
M  V30 2683 C 260.157 -5.7632 -2.60841 0
M  V30 2684 C 258.821 -6.16354 -2.56251 0
M  V30 2685 H 258.091 -0.437025 -0.598406 0
M  V30 2686 H 260.738 -1.61635 -1.02696 0
M  V30 2687 H 259.043 -1.47429 -3.63004 0
M  V30 2688 H 260.74 -1.85808 -3.55354 0
M  V30 2689 H 257.33 -3.14182 -2.91527 0
M  V30 2690 H 261.514 -4.11285 -2.77775 0
M  V30 2691 H 256.77 -5.51853 -2.63189 0
M  V30 2692 H 260.944 -6.49772 -2.50538 0
M  V30 2693 H 258.571 -7.20401 -2.42748 0
M  V30 2694 N 260.146 1.09593 -1.13257 0
M  V30 2695 C 261.076 2.18214 -0.830946 0
M  V30 2696 C 262.057 1.68812 0.208966 0
M  V30 2697 O 263.242 1.9408 0.0682666 0
M  V30 2698 C 260.372 3.46051 -0.294296 0
M  V30 2699 C 259.326 4.08778 -1.26826 0
M  V30 2700 C 258.652 5.31419 -0.591449 0
M  V30 2701 C 259.952 4.51476 -2.62615 0
M  V30 2702 H 261.646 2.43703 -1.73923 0
M  V30 2703 H 259.192 1.17128 -0.837675 0
M  V30 2704 H 261.145 4.2134 -0.0709606 0
M  V30 2705 H 259.869 3.20079 0.649366 0
M  V30 2706 H 258.528 3.35505 -1.47756 0
M  V30 2707 H 258.176 5.01727 0.357633 0
M  V30 2708 H 257.876 5.74341 -1.24123 0
M  V30 2709 H 259.4 6.09433 -0.377355 0
M  V30 2710 H 260.814 5.17999 -2.45663 0
M  V30 2711 H 259.211 5.05277 -3.23752 0
M  V30 2712 H 260.281 3.63962 -3.20406 0
M  V30 2713 N 261.624 0.925811 1.2754 0
M  V30 2714 C 262.849 0.580924 1.99098 0
M  V30 2715 C 263.274 -0.833555 1.68622 0
M  V30 2716 O 262.632 -1.55903 0.925422 0
M  V30 2717 C 262.68 0.811186 3.51358 0
M  V30 2718 O 261.784 -0.124129 4.12213 0
M  V30 2719 H 261.125 0.223873 0.625122 0
M  V30 2720 H 263.655 1.24455 1.62395 0
M  V30 2721 H 263.665 0.72601 4.01489 0
M  V30 2722 H 262.34 1.84227 3.72872 0
M  V30 2723 H 260.917 0.0108006 3.72898 0
M  V30 2724 N 263.102 -1.41638 0.69111 0
M  V30 2725 C 264.513 -1.84346 0.295517 0
M  V30 2726 C 264.864 -1.57833 -1.16547 0
M  V30 2727 O 263.989 -1.04648 -1.89414 0
M  V30 2728 C 264.584 -3.34636 0.529575 0
M  V30 2729 C 263.143 -3.7593 0.187944 0
M  V30 2730 C 262.29 -2.65082 0.814052 0
M  V30 2731 H 265.241 -1.31253 0.892092 0
M  V30 2732 H 265.262 -3.79903 -0.213148 0
M  V30 2733 H 264.774 -3.53901 1.59297 0
M  V30 2734 H 262.875 -3.62268 -0.871367 0
M  V30 2735 H 262.988 -4.74808 0.63985 0
M  V30 2736 H 261.352 -2.53528 0.244017 0
M  V30 2737 H 262.135 -2.87167 1.88123 0
M  V30 2738 N 264.58 -0.43555 -1.51462 0
M  V30 2739 C 265.543 0.365137 -2.26273 0
M  V30 2740 C 266.543 0.951227 -1.29647 0
M  V30 2741 O 267.733 0.825958 -1.53374 0
M  V30 2742 C 264.865 1.51645 -3.05314 0
M  V30 2743 H 266.058 -0.290474 -2.9849 0
M  V30 2744 H 263.611 -0.188676 -1.55157 0
M  V30 2745 H 264.346 2.20816 -2.3751 0
M  V30 2746 H 264.131 1.10238 -3.76284 0
M  V30 2747 H 265.621 2.08218 -3.61987 0
M  V30 2748 N 266.058 1.56714 -0.166846 0
M  V30 2749 C 266.988 2.20754 0.760913 0
M  V30 2750 C 267.969 1.16178 1.24244 0
M  V30 2751 O 269.154 1.44592 1.29641 0
M  V30 2752 C 266.284 2.84478 1.99223 0
M  V30 2753 C 265.238 3.95053 1.64672 0
M  V30 2754 C 264.564 4.45805 2.95232 0
M  V30 2755 C 265.864 5.14865 0.878155 0
M  V30 2756 H 267.558 2.98537 0.22713 0
M  V30 2757 H 265.104 1.43596 0.107805 0
M  V30 2758 H 267.057 3.27951 2.64624 0
M  V30 2759 H 265.781 2.04056 2.55007 0
M  V30 2760 H 264.44 3.52228 1.01641 0
M  V30 2761 H 264.088 3.62181 3.49047 0
M  V30 2762 H 263.788 5.204 2.7287 0
M  V30 2763 H 265.312 4.91962 3.6167 0
M  V30 2764 H 266.726 5.55059 1.43466 0
M  V30 2765 H 265.123 5.95348 0.753738 0
M  V30 2766 H 266.193 4.84735 -0.126377 0
M  V30 2767 N 267.536 -0.106894 1.57237 0
M  V30 2768 C 268.468 -1.15646 1.97885 0
M  V30 2769 C 269.481 -1.36981 0.879779 0
M  V30 2770 O 270.67 -1.35841 1.15799 0
M  V30 2771 C 267.77 -2.51425 2.27241 0
M  V30 2772 C 266.943 -2.50529 3.58545 0
M  V30 2773 C 266.002 -3.68145 3.75973 0
M  V30 2774 O 265.028 -3.51176 4.47956 0
M  V30 2775 N 266.23 -4.87177 3.15656 0
M  V30 2776 H 268.995 -0.81059 2.8853 0
M  V30 2777 H 266.556 -0.296024 1.59171 0
M  V30 2778 H 268.548 -3.28689 2.36105 0
M  V30 2779 H 267.118 -2.78147 1.42663 0
M  V30 2780 H 266.338 -1.58894 3.60758 0
M  V30 2781 H 267.626 -2.46997 4.44826 0
M  V30 2782 H 267.024 -5.03868 2.57165 0
M  V30 2783 H 265.581 -5.62075 3.30023 0
M  V30 2784 N 269.014 -1.53014 -0.377408 0
M  V30 2785 C 269.962 -1.7927 -1.48206 0
M  V30 2786 C 270.956 -0.661195 -1.55963 0
M  V30 2787 O 272.162 -0.843908 -1.58991 0
M  V30 2788 H 268.537 -0.567425 -0.493491 0
M  V30 2789 H 270.508 -2.71753 -1.2326 0
M  V30 2790 C 269.257 -1.98894 -2.85196 0
M  V30 2791 H 268.58 -2.85395 -2.79981 0
M  V30 2792 H 270.02 -2.21249 -3.61698 0
M  V30 2793 C 268.479 -0.764691 -3.28107 0
M  V30 2794 O 269.009 0.0523226 -4.01666 0
M  V30 2795 N 267.215 -0.591493 -2.84517 0
M  V30 2796 H 266.762 -1.25749 -2.24822 0
M  V30 2797 H 266.72 0.226253 -3.13585 0
M  V30 2798 N 270.492 0.636531 -1.44174 0
M  V30 2799 C 271.903 1.21806 -1.41493 0
M  V30 2800 C 272.254 1.95785 -0.1275 0
M  V30 2801 O 271.379 2.02147 0.772376 0
M  V30 2802 C 271.974 2.21551 -2.56321 0
M  V30 2803 C 270.533 2.75143 -2.56853 0
M  V30 2804 C 269.68 1.50052 -2.33195 0
M  V30 2805 H 272.631 0.427531 -1.52833 0
M  V30 2806 H 272.652 3.0405 -2.28765 0
M  V30 2807 H 272.164 1.67679 -3.50008 0
M  V30 2808 H 270.265 3.33033 -1.67093 0
M  V30 2809 H 270.378 3.2155 -3.55165 0
M  V30 2810 H 268.742 1.77993 -1.82183 0
M  V30 2811 H 269.525 0.980903 -3.28988 0
M  V30 2812 N 271.97 1.30982 0.876444 0
M  V30 2813 C 272.9 1.20668 1.99903 0
M  V30 2814 C 273.881 0.095354 1.69833 0
M  V30 2815 O 275.066 0.27885 1.92188 0
M  V30 2816 C 272.196 0.90655 3.3526 0
M  V30 2817 C 271.15 1.97675 3.79617 0
M  V30 2818 C 270.476 1.52943 5.1236 0
M  V30 2819 C 271.776 3.389 3.97422 0
M  V30 2820 H 273.47 2.14586 2.0879 0
M  V30 2821 H 271.016 1.03308 1.00317 0
M  V30 2822 H 272.969 0.821025 4.13324 0
M  V30 2823 H 271.693 -0.0682969 3.26529 0
M  V30 2824 H 270.352 2.05205 3.03787 0
M  V30 2825 H 270 0.54262 5.00065 0
M  V30 2826 H 269.7 2.24532 5.43009 0
M  V30 2827 H 271.224 1.45786 5.92941 0
M  V30 2828 H 272.638 3.34081 4.659 0
M  V30 2829 H 271.035 4.0865 4.3946 0
M  V30 2830 H 272.105 3.80163 3.01006 0
M  V30 2831 N 273.449 -1.08991 1.13837 0
M  V30 2832 C 274.412 -2.13925 0.822715 0
M  V30 2833 C 275.412 -1.599 -0.1699 0
M  V30 2834 O 276.602 -1.74104 0.0577251 0
M  V30 2835 C 273.734 -3.40155 0.225318 0
M  V30 2836 H 274.927 -2.43358 1.75262 0
M  V30 2837 H 272.48 -1.24603 0.943594 0
M  V30 2838 H 273.215 -3.16352 -0.713594 0
M  V30 2839 H 273 -3.80661 0.940193 0
M  V30 2840 H 274.49 -4.17594 0.0214784 0
M  V30 2841 N 274.927 -0.932562 -1.27047 0
M  V30 2842 C 275.857 -0.452902 -2.29066 0
M  V30 2843 C 276.838 0.489338 -1.62909 0
M  V30 2844 O 278.023 0.393046 -1.90181 0
M  V30 2845 C 275.153 0.290698 -3.46081 0
M  V30 2846 C 274.107 -0.564168 -4.24265 0
M  V30 2847 C 273.433 0.308886 -5.33807 0
M  V30 2848 C 274.733 -1.83112 -4.89149 0
M  V30 2849 H 276.427 -1.30552 -2.69437 0
M  V30 2850 H 273.973 -0.629201 -1.29526 0
M  V30 2851 H 275.926 0.637233 -4.16554 0
M  V30 2852 H 274.65 1.17738 -3.0464 0
M  V30 2853 H 273.309 -0.893477 -3.55545 0
M  V30 2854 H 272.957 1.19467 -4.88607 0
M  V30 2855 H 272.657 -0.259633 -5.87026 0
M  V30 2856 H 274.181 0.650884 -6.07121 0
M  V30 2857 H 275.595 -1.55236 -5.51883 0
M  V30 2858 H 273.992 -2.34353 -5.52448 0
M  V30 2859 H 275.062 -2.54772 -4.12576 0
M  V30 2860 N 276.405 1.4127 -0.698611 0
M  V30 2861 C 277.653 2.00782 -0.230409 0
M  V30 2862 C 277.974 1.5562 1.17505 0
M  V30 2863 O 277.244 0.78815 1.79346 0
M  V30 2864 H 275.824 0.742464 -0.0821944 0
M  V30 2865 H 278.486 1.72852 -0.90045 0
M  V30 2866 H 277.582 3.11095 -0.25021 0
M  V30 2867 N 277.883 0.443576 1.51229 0
M  V30 2868 C 278.846 -0.353132 2.26463 0
M  V30 2869 C 279.846 -0.944338 1.3015 0
M  V30 2870 O 281.036 -0.817813 1.5381 0
M  V30 2871 C 278.168 -1.50023 3.06114 0
M  V30 2872 H 279.361 0.3063 2.98332 0
M  V30 2873 H 276.914 0.196902 1.55055 0
M  V30 2874 H 277.649 -2.19553 2.38677 0
M  V30 2875 H 277.434 -1.08241 3.76864 0
M  V30 2876 H 278.924 -2.06296 3.63087 0
M  V30 2877 N 279.361 -1.56624 0.175154 0
M  V30 2878 C 280.638 -1.88688 -0.515373 0
M  V30 2879 C 281.018 -1.08564 -1.81044 0
M  V30 2880 O 280.366 -0.180703 -2.27784 0
M  V30 2881 C 280.576 -3.40768 -0.753552 0
M  V30 2882 C 281.924 -4.10587 -1.08184 0
M  V30 2883 O 282.948 -3.46106 -0.841961 0
M  V30 2884 O 281.807 -5.24512 -1.53459 0
M  V30 2885 H 278.901 -0.78301 -0.26613 0
M  V30 2886 H 281.447 -1.68347 0.213877 0
M  V30 2887 H 280.219 -3.90965 0.161829 0
M  V30 2888 H 279.842 -3.66733 -1.53598 0
M  V30 2889 N 280.839 0.0985539 -1.57292 0
M  V30 2890 C 281.769 1.12064 -2.04851 0
M  V30 2891 C 282.75 1.41981 -0.936767 0
M  V30 2892 O 283.935 1.52071 -1.20781 0
M  V30 2893 C 281.065 2.44144 -2.47004 0
M  V30 2894 C 280.019 2.28643 -3.6181 0
M  V30 2895 C 279.345 3.65869 -3.89929 0
M  V30 2896 C 280.645 1.72986 -4.92822 0
M  V30 2897 H 282.339 0.724979 -2.9049 0
M  V30 2898 H 279.885 0.34729 -1.39749 0
M  V30 2899 H 281.838 3.15914 -2.78884 0
M  V30 2900 H 280.562 2.85639 -1.5836 0
M  V30 2901 H 279.221 1.59318 -3.30172 0
M  V30 2902 H 278.869 4.04885 -2.98458 0
M  V30 2903 H 278.569 3.56344 -4.67218 0
M  V30 2904 H 280.093 4.39112 -4.2428 0
M  V30 2905 H 281.507 2.34593 -5.23105 0
M  V30 2906 H 279.904 1.74229 -5.74251 0
M  V30 2907 H 280.974 0.689007 -4.7998 0
M  V30 2908 N 282.317 1.53212 0.369288 0
M  V30 2909 C 283.563 1.69466 1.11397 0
M  V30 2910 C 283.896 0.443257 1.89074 0
M  V30 2911 O 283.171 -0.559386 1.86282 0
M  V30 2912 C 283.454 2.9422 2.07621 0
M  V30 2913 C 283.307 4.29508 1.33577 0
M  V30 2914 C 284.626 3.14565 3.07794 0
M  V30 2915 H 281.745 0.616667 0.403597 0
M  V30 2916 H 284.387 1.85845 0.395179 0
M  V30 2917 H 282.537 2.80387 2.68916 0
M  V30 2918 H 284.209 4.55147 0.750955 0
M  V30 2919 H 282.452 4.29088 0.637618 0
M  V30 2920 H 283.123 5.12926 2.03989 0
M  V30 2921 H 285.599 3.2756 2.56601 0
M  V30 2922 H 284.475 4.03297 3.72348 0
M  V30 2923 H 284.736 2.29675 3.77759 0
M  V30 2924 N 283.795 -0.628877 1.44509 0
M  V30 2925 C 284.725 -1.75187 1.54376 0
M  V30 2926 C 285.706 -1.65411 0.396618 0
M  V30 2927 O 286.891 -1.84137 0.617031 0
M  V30 2928 C 284.021 -3.13725 1.48976 0
M  V30 2929 C 282.975 -3.38291 2.62189 0
M  V30 2930 C 282.301 -4.76883 2.41841 0
M  V30 2931 C 283.601 -3.30632 4.04326 0
M  V30 2932 H 285.295 -1.67187 2.48373 0
M  V30 2933 H 282.841 -0.802909 1.19538 0
M  V30 2934 H 284.794 -3.92064 1.54478 0
M  V30 2935 H 283.518 -3.22515 0.514961 0
M  V30 2936 H 282.177 -2.62334 2.56079 0
M  V30 2937 H 281.825 -4.82378 1.42548 0
M  V30 2938 H 281.525 -4.94278 3.17747 0
M  V30 2939 H 283.049 -5.57449 2.49165 0
M  V30 2940 H 284.463 -3.98873 4.11793 0
M  V30 2941 H 282.86 -3.59561 4.80454 0
M  V30 2942 H 283.93 -2.28404 4.27738 0
M  V30 2943 N 285.273 -1.31445 -0.869486 0
M  V30 2944 C 286.223 -1.15731 -1.96444 0
M  V30 2945 C 287.207 -0.0681855 -1.60755 0
M  V30 2946 O 288.399 -0.293154 -1.74555 0
M  V30 2947 C 285.528 -0.867255 -3.32165 0
M  V30 2948 C 284.614 -1.99738 -3.74119 0
M  V30 2949 N 285.005 -3.24447 -3.88031 0
M  V30 2950 C 283.303 -1.89723 -4.03635 0
M  V30 2951 C 284.004 -3.98374 -4.23879 0
M  V30 2952 N 282.98 -3.26547 -4.3459 0
M  V30 2953 H 286.782 -2.10296 -2.05312 0
M  V30 2954 H 284.296 -1.23009 -1.06031 0
M  V30 2955 H 286.293 -0.735668 -4.10358 0
M  V30 2956 H 284.953 0.0701614 -3.24624 0
M  V30 2957 H 285.964 -3.59557 -3.72746 0
M  V30 2958 H 282.641 -1.03449 -4.04481 0
M  V30 2959 H 284.031 -5.05844 -4.42235 0
M  V30 2960 N 286.751 1.08385 -1.14413 0
M  V30 2961 C 287.976 1.85057 -0.936413 0
M  V30 2962 C 288.401 1.81055 0.509971 0
M  V30 2963 O 287.759 1.1958 1.36273 0
M  V30 2964 C 287.807 3.30505 -1.44217 0
M  V30 2965 O 286.911 4.07491 -0.634409 0
M  V30 2966 H 286.252 0.573425 -0.334784 0
M  V30 2967 H 288.782 1.36799 -1.52142 0
M  V30 2968 H 288.792 3.81348 -1.45043 0
M  V30 2969 H 287.467 3.32734 -2.49522 0
M  V30 2970 H 286.044 3.66368 -0.694902 0
M  V30 2971 N 288.23 0.939286 1.26551 0
M  V30 2972 C 289.47 0.5933 1.956 0
M  V30 2973 C 289.834 -0.851515 1.72085 0
M  V30 2974 O 291.035 -1.30634 2.34921 0
M  V30 2975 C 289.306 0.923996 3.45249 0
M  V30 2976 S 290.865 0.688269 4.33369 0
M  V30 2977 H 287.683 0.218591 0.676564 0
M  V30 2978 H 290.285 1.2102 1.5354 0
M  V30 2979 H 288.989 1.97297 3.59864 0
M  V30 2980 H 288.52 0.296746 3.92279 0
M  V30 2981 H 290.535 -0.448434 4.9417 0
M  V30 2982 N 289.708 -1.40897 0.706093 0
M  V30 2983 C 290.936 -2.05373 0.250887 0
M  V30 2984 C 291.351 -1.53172 -1.10381 0
M  V30 2985 O 290.708 -0.684305 -1.69185 0
M  V30 2986 C 290.759 -3.6088 0.211571 0
M  V30 2987 O 290.48 -4.11153 1.51276 0
M  V30 2988 C 291.981 -4.42517 -0.263346 0
M  V30 2989 H 289.201 -0.66115 0.114552 0
M  V30 2990 H 291.745 -1.80479 0.961635 0
M  V30 2991 H 289.9 -3.84777 -0.450073 0
M  V30 2992 H 290.314 -5.05279 1.40689 0
M  V30 2993 H 291.788 -5.51479 -0.239718 0
M  V30 2994 H 292.265 -4.19396 -1.30397 0
M  V30 2995 H 292.871 -4.23708 0.367677 0
M  V30 2996 N 291.186 -0.45159 -1.50991 0
M  V30 2997 C 292.133 0.352625 -2.2809 0
M  V30 2998 C 293.103 1.0044 -1.32291 0
M  V30 2999 O 294.288 1.02058 -1.6121 0
M  V30 3000 C 291.428 1.43983 -3.13629 0
M  V30 3001 C 290.541 0.804772 -4.24438 0
M  V30 3002 C 289.676 1.86822 -4.97263 0
M  V30 3003 C 288.715 1.21236 -5.99973 0
M  V30 3004 N 287.852 2.2178 -6.66152 0
M  V30 3005 H 292.692 -0.311186 -2.96371 0
M  V30 3006 H 290.229 -0.165308 -1.46168 0
M  V30 3007 H 292.187 2.08161 -3.61559 0
M  V30 3008 H 290.817 2.07307 -2.47434 0
M  V30 3009 H 289.869 0.0509129 -3.80366 0
M  V30 3010 H 291.181 0.286076 -4.97979 0
M  V30 3011 H 290.335 2.58628 -5.48813 0
M  V30 3012 H 289.074 2.42068 -4.23385 0
M  V30 3013 H 288.079 0.479828 -5.47702 0
M  V30 3014 H 289.304 0.667051 -6.75816 0
M  V30 3015 H 287.25 2.76079 -5.95077 0
M  V30 3016 H 287.167 1.74841 -7.35504 0
M  V30 3017 H 288.435 2.93026 -7.22327 0
M  V30 3018 N 292.664 1.56529 -0.183458 0
M  V30 3019 C 293.894 2.01331 0.463612 0
M  V30 3020 C 294.302 1.06278 1.5653 0
M  V30 3021 O 293.645 0.0577976 1.83609 0
M  V30 3022 C 293.707 3.42547 1.09096 0
M  V30 3023 C 293.371 4.56817 0.129442 0
M  V30 3024 C 294.368 5.15734 -0.656807 0
M  V30 3025 C 292.053 5.02295 0.02174 0
M  V30 3026 C 294.047 6.1857 -1.53784 0
M  V30 3027 C 291.734 6.04978 -0.862864 0
M  V30 3028 C 292.732 6.62988 -1.64123 0
M  V30 3029 O 292.42 7.63677 -2.51103 0
M  V30 3030 H 292.152 0.664917 0.121907 0
M  V30 3031 H 294.706 2.034 -0.285954 0
M  V30 3032 H 292.936 3.37428 1.88889 0
M  V30 3033 H 294.625 3.71228 1.64148 0
M  V30 3034 H 295.391 4.81473 -0.583839 0
M  V30 3035 H 291.27 4.56847 0.617392 0
M  V30 3036 H 294.814 6.63777 -2.14583 0
M  V30 3037 H 290.711 6.38663 -0.93699 0
M  V30 3038 H 291.479 7.81049 -2.44753 0
M  V30 3039 N 294.142 -0.090211 1.57342 0
M  V30 3040 C 295.072 -1.10976 2.05443 0
M  V30 3041 C 296.053 -1.41482 0.944284 0
M  V30 3042 O 297.238 -1.51428 1.21586 0
M  V30 3043 C 294.368 -2.42831 2.48295 0
M  V30 3044 C 293.322 -2.26721 3.63018 0
M  V30 3045 C 292.648 -3.63796 3.91863 0
M  V30 3046 C 293.948 -1.7037 4.93732 0
M  V30 3047 H 295.642 -0.709564 2.9087 0
M  V30 3048 H 293.188 -0.339874 1.39932 0
M  V30 3049 H 295.141 -3.14431 2.80555 0
M  V30 3050 H 293.865 -2.84795 1.59873 0
M  V30 3051 H 292.524 -1.57565 3.31012 0
M  V30 3052 H 292.172 -4.03297 3.00601 0
M  V30 3053 H 291.872 -3.53861 4.69101 0
M  V30 3054 H 293.396 -4.36855 4.26603 0
M  V30 3055 H 294.81 -2.31816 5.24342 0
M  V30 3056 H 293.207 -1.71181 5.75167 0
M  V30 3057 H 294.277 -0.663542 4.80339 0
M  V30 3058 N 295.62 -1.53406 -0.361157 0
M  V30 3059 C 296.568 -1.80832 -1.46296 0
M  V30 3060 C 297.562 -0.677699 -1.55253 0
M  V30 3061 O 298.768 -0.860723 -1.58087 0
M  V30 3062 H 295.143 -0.572627 -0.487445 0
M  V30 3063 H 297.114 -2.73045 -1.20371 0
M  V30 3064 C 295.863 -2.01907 -2.8307 0
M  V30 3065 H 295.186 -2.88349 -2.76938 0
M  V30 3066 H 296.626 -2.25072 -3.59331 0
M  V30 3067 C 295.085 -0.799449 -3.27277 0
M  V30 3068 O 295.615 0.00971761 -4.01699 0
M  V30 3069 N 293.821 -0.621637 -2.83873 0
M  V30 3070 H 293.368 -1.28126 -2.23476 0
M  V30 3071 H 293.326 0.19298 -3.13807 0
M  V30 3072 N 297.098 0.621204 -1.44841 0
M  V30 3073 C 298.346 1.37783 -1.47852 0
M  V30 3074 C 298.667 1.94653 -0.116224 0
M  V30 3075 O 297.937 1.76367 0.852737 0
M  V30 3076 H 296.517 0.511453 -0.544449 0
M  V30 3077 H 299.179 0.730446 -1.80694 0
M  V30 3078 H 298.275 2.20414 -2.20961 0
M  V30 3079 N 298.576 1.31904 0.862503 0
M  V30 3080 C 299.526 1.16772 1.95827 0
M  V30 3081 C 300.51 0.0767098 1.60717 0
M  V30 3082 O 301.702 0.302407 1.74398 0
M  V30 3083 C 298.831 0.884858 3.317 0
M  V30 3084 C 297.917 2.0172 3.73055 0
M  V30 3085 N 298.308 3.265 3.86305 0
M  V30 3086 C 296.606 1.91861 4.02623 0
M  V30 3087 C 297.307 4.00616 4.2176 0
M  V30 3088 N 296.283 3.28847 4.32852 0
M  V30 3089 H 300.085 2.11382 2.04193 0
M  V30 3090 H 297.599 1.2357 1.05377 0
M  V30 3091 H 299.596 0.757419 4.09962 0
M  V30 3092 H 298.256 -0.0529448 3.24657 0
M  V30 3093 H 299.267 3.61529 3.70833 0
M  V30 3094 H 295.944 1.05593 4.03926 0
M  V30 3095 H 297.334 5.08182 4.39546 0
M  V30 3096 N 300.054 -1.07777 1.14986 0
M  V30 3097 C 301.279 -1.84558 0.946213 0
M  V30 3098 C 301.704 -1.81323 -0.500362 0
M  V30 3099 O 301.062 -1.20301 -1.35637 0
M  V30 3100 C 301.11 -3.29736 1.45968 0
M  V30 3101 O 300.214 -4.07149 0.65601 0
M  V30 3102 H 299.555 -0.571641 0.33782 0
M  V30 3103 H 302.085 -1.35991 1.52865 0
M  V30 3104 H 302.095 -3.80574 1.47063 0
M  V30 3105 H 300.77 -3.31406 2.51283 0
M  V30 3106 H 299.347 -3.65994 0.714322 0
M  V30 3107 N 301.532 -0.945985 -1.26051 0
M  V30 3108 C 302.809 -0.513816 -1.88731 0
M  V30 3109 C 303.189 1.00872 -1.8544 0
M  V30 3110 O 302.537 1.8708 -1.312 0
M  V30 3111 C 302.747 -1.08062 -3.31849 0
M  V30 3112 C 304.095 -1.1522 -4.08668 0
M  V30 3113 O 305.119 -1.03155 -3.40936 0
M  V30 3114 O 303.978 -1.34044 -5.29806 0
M  V30 3115 H 301.072 -0.168193 -0.809716 0
M  V30 3116 H 303.618 -1.03886 -1.34186 0
M  V30 3117 H 302.39 -2.1241 -3.2863 0
M  V30 3118 H 302.013 -0.538307 -3.93939 0
M  V30 3119 N 303.011 1.40521 -0.713556 0
M  V30 3120 C 304.257 2.01221 -0.252564 0
M  V30 3121 C 304.59 1.56444 1.1506 0
M  V30 3122 O 303.865 0.783597 1.78017 0
M  V30 3123 C 304.148 3.58582 -0.330332 0
M  V30 3124 C 304.001 4.13437 -1.77173 0
M  V30 3125 C 305.32 4.39079 0.299641 0
M  V30 3126 H 302.439 0.731077 -0.0932471 0
M  V30 3127 H 305.081 1.67026 -0.905673 0
M  V30 3128 H 303.231 3.87844 0.225737 0
M  V30 3129 H 304.903 3.9498 -2.38303 0
M  V30 3130 H 303.146 3.67801 -2.3001 0
M  V30 3131 H 303.817 5.22597 -1.77755 0
M  V30 3132 H 306.293 4.15735 -0.174139 0
M  V30 3133 H 305.169 5.4848 0.214771 0
M  V30 3134 H 305.43 4.19915 1.38288 0
M  V30 3135 N 304.489 0.459591 1.5075 0
M  V30 3136 C 305.735 -0.0994966 2.02556 0
M  V30 3137 C 306.068 -1.40399 1.3417 0
M  V30 3138 O 305.343 -1.88892 0.463683 0
M  V30 3139 C 305.626 -0.295242 3.58888 0
M  V30 3140 C 305.479 1.02947 4.37861 0
M  V30 3141 C 306.798 -1.05502 4.27267 0
M  V30 3142 H 303.917 -0.034686 0.736183 0
M  V30 3143 H 306.559 0.602938 1.8018 0
M  V30 3144 H 304.709 -0.893563 3.78084 0
M  V30 3145 H 306.381 1.66348 4.30263 0
M  V30 3146 H 304.624 1.62885 4.02058 0
M  V30 3147 H 305.295 0.846281 5.45474 0
M  V30 3148 H 307.771 -0.547993 4.12476 0
M  V30 3149 H 306.647 -1.16077 5.36486 0
M  V30 3150 H 306.908 -2.08875 3.89645 0
M  V30 3151 N 305.967 -1.56429 0.191757 0
M  V30 3152 C 306.93 -2.17707 -0.716688 0
M  V30 3153 C 307.93 -1.13061 -1.14341 0
M  V30 3154 O 309.12 -1.38464 -1.05704 0
M  V30 3155 C 306.252 -2.77644 -1.97804 0
M  V30 3156 H 307.445 -2.99342 -0.1829 0
M  V30 3157 H 304.998 -1.56193 -0.0578566 0
M  V30 3158 H 305.733 -1.99799 -2.55443 0
M  V30 3159 H 305.518 -3.54246 -1.68083 0
M  V30 3160 H 307.008 -3.24708 -2.62592 0
M  V30 3161 N 307.445 0.0818655 -1.57387 0
M  V30 3162 C 308.693 0.781368 -1.86384 0
M  V30 3163 C 309.014 1.78618 -0.782342 0
M  V30 3164 O 308.284 1.94976 0.190061 0
M  V30 3165 H 306.864 0.291562 -0.687751 0
M  V30 3166 H 309.526 0.060348 -1.94807 0
M  V30 3167 H 308.622 1.3038 -2.83562 0
M  V30 3168 N 308.923 1.53595 0.353017 0
M  V30 3169 C 310.169 1.70638 1.09593 0
M  V30 3170 C 310.502 0.463286 1.88593 0
M  V30 3171 O 309.777 -0.539597 1.86865 0
M  V30 3172 C 310.06 2.96406 2.04489 0
M  V30 3173 C 309.913 4.30901 1.29014 0
M  V30 3174 C 311.232 3.17812 3.0444 0
M  V30 3175 H 308.351 0.620913 0.397034 0
M  V30 3176 H 310.993 1.86254 0.375446 0
M  V30 3177 H 309.143 2.83223 2.65927 0
M  V30 3178 H 310.815 4.55917 0.702638 0
M  V30 3179 H 309.058 4.29741 0.592071 0
M  V30 3180 H 309.729 5.1506 1.98537 0
M  V30 3181 H 312.205 3.30263 2.53112 0
M  V30 3182 H 311.081 4.07223 3.6805 0
M  V30 3183 H 311.342 2.33669 3.75301 0
M  V30 3184 N 310.401 -0.613514 1.45168 0
M  V30 3185 C 311.647 -1.37471 1.49096 0
M  V30 3186 C 311.98 -1.93765 0.129901 0
M  V30 3187 O 311.255 -1.74707 -0.854858 0
M  V30 3188 C 311.538 -2.52701 2.56542 0
M  V30 3189 C 311.391 -2.01643 4.0207 0
M  V30 3190 C 312.71 -3.54849 2.60327 0
M  V30 3191 H 309.829 -0.498502 0.54283 0
M  V30 3192 H 312.471 -0.692125 1.76945 0
M  V30 3193 H 310.621 -3.10931 2.32926 0
M  V30 3194 H 312.293 -1.48108 4.36877 0
M  V30 3195 H 310.536 -1.32688 4.13009 0
M  V30 3196 H 311.207 -2.84681 4.72928 0
M  V30 3197 H 313.683 -3.0645 2.81474 0
M  V30 3198 H 312.559 -4.32973 3.37381 0
M  V30 3199 H 312.82 -4.10079 1.6519 0
M  V30 3200 N 311.879 -1.3236 -0.855495 0
M  V30 3201 C 313.128 -1.22226 -1.60448 0
M  V30 3202 C 313.441 0.214733 -1.94418 0
M  V30 3203 O 314.647 0.437917 -2.67945 0
M  V30 3204 C 313.103 -2.14063 -2.89318 0
M  V30 3205 C 312.711 -3.62839 -2.62777 0
M  V30 3206 C 314.455 -2.12764 -3.67331 0
M  V30 3207 C 312.362 -4.4664 -3.87643 0
M  V30 3208 H 311.292 -0.453904 -0.602069 0
M  V30 3209 H 313.943 -1.57314 -0.944698 0
M  V30 3210 H 312.325 -1.71889 -3.5675 0
M  V30 3211 H 313.499 -4.1335 -2.03662 0
M  V30 3212 H 311.814 -3.66261 -1.98096 0
M  V30 3213 H 314.411 -2.72611 -4.59987 0
M  V30 3214 H 314.754 -1.11841 -4.00995 0
M  V30 3215 H 315.287 -2.53214 -3.06802 0
M  V30 3216 H 312.026 -5.48373 -3.5912 0
M  V30 3217 H 311.546 -4.0088 -4.46156 0
M  V30 3218 H 313.225 -4.59597 -4.55389 0
M  V30 3219 N 313.357 1.07166 -1.15556 0
M  V30 3220 C 314.32 2.12589 -0.856644 0
M  V30 3221 C 315.32 1.6015 0.14444 0
M  V30 3222 O 316.51 1.7399 -0.0854163 0
M  V30 3223 C 313.642 3.39753 -0.279405 0
M  V30 3224 H 314.835 2.40539 -1.79112 0
M  V30 3225 H 312.388 1.23086 -0.963298 0
M  V30 3226 H 313.123 3.17447 0.663174 0
M  V30 3227 H 312.908 3.79117 -1.00063 0
M  V30 3228 H 314.398 4.17507 -0.0879113 0
M  V30 3229 N 314.835 0.952656 1.25548 0
M  V30 3230 C 315.782 0.47008 2.25962 0
M  V30 3231 C 316.752 -0.476384 1.59122 0
M  V30 3232 O 317.937 -0.39007 1.8677 0
M  V30 3233 C 315.077 -0.247881 3.44209 0
M  V30 3234 C 314.19 0.735591 4.25691 0
M  V30 3235 C 313.325 -0.0047306 5.312 0
M  V30 3236 C 312.364 0.969805 6.04368 0
M  V30 3237 N 311.501 0.260486 7.01617 0
M  V30 3238 H 316.341 1.33126 2.66611 0
M  V30 3239 H 313.878 0.66765 1.31076 0
M  V30 3240 H 315.836 -0.680695 4.1161 0
M  V30 3241 H 314.466 -1.07312 3.0444 0
M  V30 3242 H 313.518 1.28689 3.57971 0
M  V30 3243 H 314.83 1.47934 4.76358 0
M  V30 3244 H 313.984 -0.496275 6.04667 0
M  V30 3245 H 312.723 -0.781282 4.81401 0
M  V30 3246 H 311.728 1.47237 5.29718 0
M  V30 3247 H 312.953 1.74655 6.56256 0
M  V30 3248 H 310.899 -0.497364 6.54112 0
M  V30 3249 H 310.816 0.943362 7.50091 0
M  V30 3250 H 312.084 -0.209587 7.79218 0
M  V30 3251 N 316.313 -1.40141 0.720998 0
M  V30 3252 C 317.59 -1.94677 0.189757 0
M  V30 3253 C 317.97 -1.65879 -1.30566 0
M  V30 3254 O 317.318 -0.979391 -2.06447 0
M  V30 3255 C 317.528 -3.45279 0.508304 0
M  V30 3256 C 318.876 -4.22209 0.449934 0
M  V30 3257 O 319.9 -3.53413 0.444677 0
M  V30 3258 O 318.759 -5.44788 0.432189 0
M  V30 3259 H 315.853 -0.826459 0.0299026 0
M  V30 3260 H 318.399 -1.49719 0.7989 0
M  V30 3261 H 317.171 -3.59619 1.54239 0
M  V30 3262 H 316.794 -3.97386 -0.130525 0
M  V30 3263 N 317.792 -0.46758 -1.50504 0
M  V30 3264 C 319.203 -0.0116166 -1.86696 0
M  V30 3265 C 319.554 1.39202 -1.38265 0
M  V30 3266 O 318.679 2.0313 -0.746132 0
M  V30 3267 C 319.274 -0.0143044 -3.38797 0
M  V30 3268 C 317.833 0.386175 -3.74414 0
M  V30 3269 C 316.98 -0.401287 -2.74381 0
M  V30 3270 H 319.931 -0.682022 -1.43297 0
M  V30 3271 H 319.952 0.788641 -3.72237 0
M  V30 3272 H 319.464 -1.03602 -3.74016 0
M  V30 3273 H 317.565 1.41237 -3.44794 0
M  V30 3274 H 317.678 0.0899596 -4.79016 0
M  V30 3275 H 316.042 0.144536 -2.5429 0
M  V30 3276 H 316.825 -1.42244 -3.12444 0
M  V30 3277 N 319.27 1.56325 -0.20005 0
M  V30 3278 C 320.547 1.89484 0.48529 0
M  V30 3279 C 320.927 1.1143 1.79294 0
M  V30 3280 O 320.275 0.216919 2.27468 0
M  V30 3281 C 320.485 3.41923 0.699243 0
M  V30 3282 C 321.833 4.12256 1.01638 0
M  V30 3283 O 322.857 3.47402 0.786792 0
M  V30 3284 O 321.716 5.26887 1.45095 0
M  V30 3285 H 318.81 0.787144 0.253639 0
M  V30 3286 H 321.356 1.67985 -0.240633 0
M  V30 3287 H 320.128 3.90658 -0.224008 0
M  V30 3288 H 319.751 3.69131 1.47744 0
M  V30 3289 N 320.748 -0.0735177 1.57428 0
M  V30 3290 C 321.994 -0.774145 1.87443 0
M  V30 3291 C 322.327 -1.77311 0.792103 0
M  V30 3292 O 321.602 -1.93492 -0.197793 0
M  V30 3293 C 321.885 -1.48367 3.28115 0
M  V30 3294 C 321.738 -0.501227 4.46999 0
M  V30 3295 C 323.057 -2.429 3.66998 0
M  V30 3296 H 320.176 -0.279971 0.681752 0
M  V30 3297 H 322.818 -0.0373616 1.89963 0
M  V30 3298 H 320.968 -2.11171 3.26097 0
M  V30 3299 H 322.64 0.121468 4.6114 0
M  V30 3300 H 320.883 0.183593 4.33411 0
M  V30 3301 H 321.554 -1.03526 5.42205 0
M  V30 3302 H 324.03 -1.90175 3.70098 0
M  V30 3303 H 322.906 -2.89549 4.66318 0
M  V30 3304 H 323.167 -3.27628 2.96837 0
M  V30 3305 N 322.226 -1.5378 -0.344866 0
M  V30 3306 C 323.472 -1.71216 -1.08687 0
M  V30 3307 C 323.805 -0.473281 -1.88345 0
M  V30 3308 O 323.08 0.52968 -1.87149 0
M  V30 3309 C 323.363 -2.97486 -2.02914 0
M  V30 3310 C 323.216 -4.31579 -1.26727 0
M  V30 3311 C 324.535 -3.19422 -3.0275 0
M  V30 3312 H 321.654 -0.62301 -0.393735 0
M  V30 3313 H 324.296 -1.8645 -0.365563 0
M  V30 3314 H 322.446 -2.84629 -2.64421 0
M  V30 3315 H 324.118 -4.56284 -0.67845 0
M  V30 3316 H 322.361 -4.30049 -0.569273 0
M  V30 3317 H 323.032 -5.16106 -1.95803 0
M  V30 3318 H 325.508 -3.316 -2.51357 0
M  V30 3319 H 324.384 -4.09169 -3.65885 0
M  V30 3320 H 324.645 -2.35656 -3.74057 0
M  V30 3321 N 323.704 0.605807 -1.45491 0
M  V30 3322 C 324.932 1.39136 -1.5313 0
M  V30 3323 C 325.347 1.88082 -0.164507 0
M  V30 3324 O 324.704 1.62316 0.834247 0
M  V30 3325 C 324.755 2.59463 -2.51716 0
M  V30 3326 O 324.476 2.12551 -3.83084 0
M  V30 3327 C 325.977 3.52301 -2.6907 0
M  V30 3328 H 323.197 0.425849 -0.51855 0
M  V30 3329 H 325.741 0.73865 -1.90694 0
M  V30 3330 H 323.896 3.20772 -2.17219 0
M  V30 3331 H 324.31 2.90744 -4.36541 0
M  V30 3332 H 325.784 4.33271 -3.42024 0
M  V30 3333 H 326.261 4.02757 -1.75167 0
M  V30 3334 H 326.867 2.96845 -3.04571 0
M  V30 3335 N 325.182 1.32811 0.848464 0
M  V30 3336 C 326.092 1.24278 1.98978 0
M  V30 3337 C 327.108 0.155176 1.73307 0
M  V30 3338 O 328.284 0.376999 1.9784 0
M  V30 3339 C 325.349 0.972444 3.32783 0
M  V30 3340 C 324.41 2.14911 3.71634 0
M  V30 3341 C 323.643 1.89157 4.99054 0
M  V30 3342 O 323.866 0.837165 5.64223 0
M  V30 3343 O 322.8 2.75433 5.35183 0
M  V30 3344 H 326.626 2.20238 2.09115 0
M  V30 3345 H 324.211 1.12762 0.980052 0
M  V30 3346 H 326.093 0.838432 4.12975 0
M  V30 3347 H 324.768 0.043051 3.23671 0
M  V30 3348 H 323.675 2.33862 2.91992 0
M  V30 3349 H 325.008 3.06151 3.85399 0
M  V30 3350 N 326.66 -1.06551 1.16123 0
M  V30 3351 C 327.59 -2.15935 0.88851 0
M  V30 3352 C 328.571 -1.69306 -0.164135 0
M  V30 3353 O 329.756 -1.94193 -0.0167857 0
M  V30 3354 C 326.886 -3.45149 0.385942 0
M  V30 3355 C 325.84 -4.05271 1.3762 0
M  V30 3356 C 325.166 -5.29664 0.732137 0
M  V30 3357 C 326.466 -4.44355 2.74493 0
M  V30 3358 H 328.16 -2.39006 1.80323 0
M  V30 3359 H 325.706 -1.14866 0.868435 0
M  V30 3360 H 327.659 -4.21004 0.182647 0
M  V30 3361 H 326.383 -3.21689 -0.564274 0
M  V30 3362 H 325.042 -3.3147 1.56599 0
M  V30 3363 H 324.69 -5.02499 -0.224483 0
M  V30 3364 H 324.39 -5.70848 1.39307 0
M  V30 3365 H 325.914 -6.08218 0.538802 0
M  V30 3366 H 327.328 -5.11303 2.59311 0
M  V30 3367 H 325.725 -4.96515 3.37035 0
M  V30 3368 H 326.795 -3.55339 3.29943 0
M  V30 3369 N 328.138 -0.959301 -1.25041 0
M  V30 3370 C 329.101 -0.487677 -2.23952 0
M  V30 3371 C 330.101 0.41119 -1.55454 0
M  V30 3372 O 331.291 0.207825 -1.72956 0
M  V30 3373 C 328.423 0.294807 -3.39623 0
M  V30 3374 H 329.616 -1.36198 -2.67189 0
M  V30 3375 H 327.169 -0.743042 -1.37508 0
M  V30 3376 H 327.904 1.18658 -3.01813 0
M  V30 3377 H 327.689 -0.35012 -3.90534 0
M  V30 3378 H 329.179 0.614089 -4.1306 0
M  V30 3379 N 329.616 1.39756 -0.72842 0
M  V30 3380 C 330.862 2.01425 -0.282761 0
M  V30 3381 C 331.217 1.56754 1.11561 0
M  V30 3382 O 330.51 0.783482 1.74849 0
M  V30 3383 C 330.704 3.56002 -0.315776 0
M  V30 3384 C 330.533 4.1568 -1.71582 0
M  V30 3385 C 329.303 4.48555 -2.32651 0
M  V30 3386 C 331.501 4.39667 -2.66829 0
M  V30 3387 N 329.483 4.93698 -3.64877 0
M  V30 3388 C 330.854 4.86942 -3.8378 0
M  V30 3389 C 332.909 4.21724 -2.64675 0
M  V30 3390 C 331.612 5.18158 -4.98904 0
M  V30 3391 C 333.638 4.54049 -3.78937 0
M  V30 3392 C 333 5.01525 -4.94623 0
M  V30 3393 H 329.099 0.76756 -0.149583 0
M  V30 3394 H 331.683 1.69784 -0.952976 0
M  V30 3395 H 329.854 3.87046 0.324057 0
M  V30 3396 H 331.586 4.0443 0.147808 0
M  V30 3397 H 328.341 4.36128 -1.84633 0
M  V30 3398 H 328.765 5.20635 -4.32744 0
M  V30 3399 H 333.407 3.84228 -1.76433 0
M  V30 3400 H 331.125 5.54562 -5.87781 0
M  V30 3401 H 334.711 4.41795 -3.78561 0
M  V30 3402 H 333.591 5.26065 -5.81572 0
M  V30 3403 N 331.094 0.475555 1.50254 0
M  V30 3404 C 332.34 -0.0701075 2.03279 0
M  V30 3405 C 332.695 -1.37007 1.35081 0
M  V30 3406 O 331.988 -1.8577 0.469052 0
M  V30 3407 C 332.182 -0.305114 3.56095 0
M  V30 3408 C 332.011 0.970515 4.39103 0
M  V30 3409 C 330.781 1.51509 4.82051 0
M  V30 3410 C 332.979 1.8671 4.79212 0
M  V30 3411 N 330.961 2.73928 5.49397 0
M  V30 3412 C 332.332 2.93715 5.46014 0
M  V30 3413 C 334.387 1.87695 4.61167 0
M  V30 3414 C 333.09 4.01699 5.96683 0
M  V30 3415 C 335.116 2.94637 5.12779 0
M  V30 3416 C 334.478 4.00361 5.79561 0
M  V30 3417 H 330.577 0.014486 0.781866 0
M  V30 3418 H 333.161 0.644755 1.83714 0
M  V30 3419 H 331.332 -0.989019 3.75597 0
M  V30 3420 H 333.064 -0.845516 3.95769 0
M  V30 3421 H 329.819 1.06367 4.61501 0
M  V30 3422 H 330.243 3.36109 5.87673 0
M  V30 3423 H 334.885 1.07273 4.08965 0
M  V30 3424 H 332.603 4.82934 6.4792 0
M  V30 3425 H 336.189 2.96388 5.00645 0
M  V30 3426 H 335.069 4.81751 6.18778 0
M  V30 3427 N 332.573 -1.56217 0.208337 0
M  V30 3428 C 333.536 -2.18455 -0.693557 0
M  V30 3429 C 334.536 -1.14268 -1.13135 0
M  V30 3430 O 335.726 -1.39577 -1.0423 0
M  V30 3431 C 332.858 -2.79727 -1.94848 0
M  V30 3432 H 334.051 -2.99519 -0.15114 0
M  V30 3433 H 331.604 -1.56245 -0.041287 0
M  V30 3434 H 332.339 -2.02497 -2.53309 0
M  V30 3435 H 332.124 -3.56009 -1.64316 0
M  V30 3436 H 333.614 -3.27475 -2.59133 0
M  V30 3437 N 334.051 0.0651679 -1.57465 0
M  V30 3438 C 334.999 1.09542 -2.05191 0
M  V30 3439 C 335.993 1.39675 -0.958509 0
M  V30 3440 O 337.199 1.39003 -1.14359 0
M  V30 3441 H 333.574 0.370623 -0.654326 0
M  V30 3442 H 335.545 0.666802 -2.90854 0
M  V30 3443 C 334.294 2.39881 -2.51699 0
M  V30 3444 H 333.617 2.17547 -3.3543 0
M  V30 3445 H 335.057 3.104 -2.88839 0
M  V30 3446 C 333.516 3.0631 -1.40271 0
M  V30 3447 O 334.046 3.94664 -0.748523 0
M  V30 3448 N 332.252 2.67041 -1.14618 0
M  V30 3449 H 331.799 1.95281 -1.67997 0
M  V30 3450 H 331.757 3.1181 -0.402688 0
M  V30 3451 N 335.529 1.53961 0.336706 0
M  V30 3452 C 336.477 1.83136 1.43401 0
M  V30 3453 C 337.471 0.702313 1.54156 0
M  V30 3454 O 338.677 0.885765 1.56698 0
M  V30 3455 H 335.052 0.580309 0.478273 0
M  V30 3456 H 337.023 2.74925 1.16012 0
M  V30 3457 C 335.772 2.06385 2.79822 0
M  V30 3458 H 335.095 2.92718 2.72316 0
M  V30 3459 H 336.535 2.30761 3.55704 0
M  V30 3460 C 334.994 0.851414 3.25964 0
M  V30 3461 O 335.524 0.0541904 4.01663 0
M  V30 3462 N 333.73 0.66672 2.82848 0
M  V30 3463 H 333.277 1.31665 2.21409 0
M  V30 3464 H 333.235 -0.143032 3.14074 0
M  V30 3465 N 337.007 -0.598083 1.45811 0
M  V30 3466 C 338.256 -1.35295 1.49594 0
M  V30 3467 C 338.569 -1.95057 0.145679 0
M  V30 3468 O 339.775 -2.71431 0.0612099 0
M  V30 3469 C 338.231 -2.45124 2.63519 0
M  V30 3470 C 337.839 -1.91732 4.04899 0
M  V30 3471 C 339.583 -3.2205 2.76558 0
M  V30 3472 C 337.49 -2.991 5.1019 0
M  V30 3473 H 336.42 -0.508552 0.556679 0
M  V30 3474 H 339.071 -0.639977 1.71978 0
M  V30 3475 H 337.453 -3.19149 2.34435 0
M  V30 3476 H 338.627 -1.24352 4.43704 0
M  V30 3477 H 336.942 -1.27522 3.96393 0
M  V30 3478 H 339.539 -4.0215 3.52391 0
M  V30 3479 H 339.882 -3.73663 1.83526 0
M  V30 3480 H 340.415 -2.55127 3.05213 0
M  V30 3481 H 337.154 -2.52393 6.04961 0
M  V30 3482 H 336.674 -3.65017 4.75944 0
M  V30 3483 H 338.353 -3.63318 5.35359 0
M  V30 3484 N 338.485 -1.33259 -0.841409 0
M  V30 3485 C 339.733 -1.24326 -1.59334 0
M  V30 3486 C 340.054 0.191564 -1.94057 0
M  V30 3487 O 339.324 1.11967 -1.60749 0
M  V30 3488 H 337.904 -0.457174 -0.590763 0
M  V30 3489 H 340.566 -1.66947 -1.00571 0
M  V30 3490 H 339.662 -1.8352 -2.52442 0
M  V30 3491 N 339.963 1.05934 -1.16686 0
M  V30 3492 C 341.209 1.79065 -0.95203 0
M  V30 3493 C 341.542 1.87147 0.518629 0
M  V30 3494 O 340.817 1.36574 1.38484 0
M  V30 3495 C 341.1 3.23359 -1.58464 0
M  V30 3496 C 340.953 3.23336 -3.12689 0
M  V30 3497 C 342.272 4.21004 -1.28232 0
M  V30 3498 H 339.391 0.65005 -0.34728 0
M  V30 3499 H 342.033 1.23868 -1.44072 0
M  V30 3500 H 340.183 3.70493 -1.16908 0
M  V30 3501 H 341.855 2.84336 -3.6325 0
M  V30 3502 H 340.098 2.61886 -3.4583 0
M  V30 3503 H 340.769 4.25144 -3.52075 0
M  V30 3504 H 343.245 3.8233 -1.64203 0
M  V30 3505 H 342.121 5.20225 -1.75092 0
M  V30 3506 H 342.382 4.41639 -0.201791 0
M  V30 3507 N 341.441 0.965919 1.2453 0
M  V30 3508 C 342.669 0.644385 1.96609 0
M  V30 3509 C 343.084 -0.785823 1.71669 0
M  V30 3510 O 342.441 -1.52703 0.999399 0
M  V30 3511 C 342.492 0.907375 3.49927 0
M  V30 3512 O 342.213 2.28136 3.74013 0
M  V30 3513 C 343.714 0.599784 4.39224 0
M  V30 3514 H 340.934 0.240588 0.626385 0
M  V30 3515 H 343.478 1.29337 1.58405 0
M  V30 3516 H 341.633 0.304631 3.862 0
M  V30 3517 H 342.047 2.36002 4.68405 0
M  V30 3518 H 343.521 0.834263 5.45659 0
M  V30 3519 H 343.998 -0.465921 4.36722 0
M  V30 3520 H 344.604 1.18235 4.08535 0
M  V30 3521 N 342.919 -1.39368 0.735821 0
M  V30 3522 C 344.167 -2.00101 0.283562 0
M  V30 3523 C 344.488 -1.5868 -1.13338 0
M  V30 3524 O 343.758 -0.835423 -1.77193 0
M  V30 3525 H 342.338 -0.740024 0.101851 0
M  V30 3526 H 345 -1.70404 0.945962 0
M  V30 3527 H 344.096 -3.10323 0.332604 0
M  V30 3528 N 344.397 -0.483516 -1.5 0
M  V30 3529 C 345.645 0.067027 -2.01989 0
M  V30 3530 C 345.966 1.3909 -1.36671 0
M  V30 3531 O 345.236 1.88978 -0.516152 0
M  V30 3532 H 343.816 0.0277606 -0.746484 0
M  V30 3533 H 346.478 -0.636773 -1.84204 0
M  V30 3534 H 345.574 0.209484 -3.11396 0
M  V30 3535 N 345.875 1.56104 -0.216619 0
M  V30 3536 C 346.838 2.18819 0.681962 0
M  V30 3537 C 347.838 1.14866 1.12528 0
M  V30 3538 O 349.028 1.40128 1.03488 0
M  V30 3539 C 346.16 2.80756 1.93362 0
M  V30 3540 H 347.353 2.99595 0.135254 0
M  V30 3541 H 344.906 1.56265 0.0330003 0
M  V30 3542 H 345.641 2.03837 2.52232 0
M  V30 3543 H 345.426 3.56876 1.62426 0
M  V30 3544 H 346.916 3.28844 2.57393 0
M  V30 3545 N 347.353 -0.0568162 1.57498 0
M  V30 3546 C 348.6 -0.753104 1.87975 0
M  V30 3547 C 348.928 -1.76815 0.81035 0
M  V30 3548 O 348.183 -1.94756 -0.19199 0
M  V30 3549 C 348.482 -1.48359 3.25153 0
M  V30 3550 C 348.148 -0.60713 4.46794 0
M  V30 3551 C 346.81 -0.365642 4.79809 0
M  V30 3552 C 349.162 -0.000305978 5.212 0
M  V30 3553 C 346.49 0.491905 5.84634 0
M  V30 3554 C 348.842 0.844781 6.26934 0
M  V30 3555 C 347.506 1.096 6.58441 0
M  V30 3556 H 346.776 -0.27558 0.687849 0
M  V30 3557 H 349.423 -0.0135173 1.91495 0
M  V30 3558 H 347.728 -2.29577 3.17492 0
M  V30 3559 H 349.425 -2.02739 3.45974 0
M  V30 3560 H 346.015 -0.805487 4.20963 0
M  V30 3561 H 350.199 -0.173961 4.95995 0
M  V30 3562 H 345.455 0.695131 6.07436 0
M  V30 3563 H 349.629 1.32165 6.83744 0
M  V30 3564 H 347.256 1.76224 7.39492 0
M  V30 3565 N 348.832 -1.54138 -0.328536 0
M  V30 3566 C 350.109 -1.62749 -1.08499 0
M  V30 3567 C 350.489 -0.458198 -2.06067 0
M  V30 3568 O 349.837 0.548046 -2.2183 0
M  V30 3569 C 350.047 -2.99519 -1.79135 0
M  V30 3570 C 351.395 -3.55394 -2.32337 0
M  V30 3571 O 352.419 -3.01792 -1.89209 0
M  V30 3572 O 351.278 -4.49186 -3.11279 0
M  V30 3573 H 348.372 -0.65886 -0.499832 0
M  V30 3574 H 350.918 -1.66484 -0.328826 0
M  V30 3575 H 349.69 -3.76061 -1.08139 0
M  V30 3576 H 349.313 -2.99441 -2.61574 0
M  V30 3577 N 350.31 0.590341 -1.46126 0
M  V30 3578 C 351.535 1.37991 -1.54833 0
M  V30 3579 C 351.96 1.87163 -0.187506 0
M  V30 3580 O 351.318 1.61133 0.831008 0
M  V30 3581 C 351.366 2.54867 -2.55098 0
M  V30 3582 O 350.47 3.56061 -2.08073 0
M  V30 3583 H 349.811 0.411265 -0.521303 0
M  V30 3584 H 352.341 0.716819 -1.91632 0
M  V30 3585 H 352.351 3.01886 -2.74461 0
M  V30 3586 H 351.026 2.18429 -3.53923 0
M  V30 3587 H 349.603 3.15574 -1.98664 0
M  V30 3588 N 351.788 1.33704 0.83433 0
M  V30 3589 C 353.018 1.28281 1.6195 0
M  V30 3590 C 353.426 -0.147603 1.88623 0
M  V30 3591 O 352.769 -1.1016 1.47005 0
M  V30 3592 C 352.831 1.99386 2.99141 0
M  V30 3593 C 352.495 3.48681 2.95416 0
M  V30 3594 C 353.492 4.438 2.70809 0
M  V30 3595 C 351.177 3.90925 3.15409 0
M  V30 3596 C 353.171 5.79138 2.66229 0
M  V30 3597 C 350.858 5.26366 3.10454 0
M  V30 3598 C 351.856 6.20284 2.85895 0
M  V30 3599 O 351.544 7.53245 2.80852 0
M  V30 3600 H 351.276 0.44315 0.510484 0
M  V30 3601 H 353.83 1.76711 1.04702 0
M  V30 3602 H 352.06 1.45554 3.58261 0
M  V30 3603 H 353.749 1.87403 3.60049 0
M  V30 3604 H 354.515 4.12485 2.5511 0
M  V30 3605 H 350.394 3.18229 3.33543 0
M  V30 3606 H 353.938 6.52416 2.4698 0
M  V30 3607 H 349.835 5.57304 3.25703 0
M  V30 3608 H 350.603 7.62846 2.96661 0
M  V30 3609 N 353.266 -1.05314 1.17247 0
M  V30 3610 C 354.196 -2.1498 0.911362 0
M  V30 3611 C 355.177 -1.69471 -0.146169 0
M  V30 3612 O 356.362 -1.942 0.003812 0
M  V30 3613 C 353.492 -3.4472 0.422528 0
M  V30 3614 C 352.446 -4.03789 1.4191 0
M  V30 3615 C 351.772 -5.28858 0.788274 0
M  V30 3616 C 353.072 -4.41418 2.7919 0
M  V30 3617 H 354.766 -2.3708 1.82848 0
M  V30 3618 H 352.312 -1.13938 0.880569 0
M  V30 3619 H 354.265 -4.20787 0.227289 0
M  V30 3620 H 352.989 -3.22269 -0.530123 0
M  V30 3621 H 351.648 -3.2979 1.60106 0
M  V30 3622 H 351.296 -5.02709 -0.171173 0
M  V30 3623 H 350.996 -5.69338 1.45353 0
M  V30 3624 H 352.52 -6.07612 0.603282 0
M  V30 3625 H 353.934 -5.08524 2.64719 0
M  V30 3626 H 352.331 -4.92913 3.42282 0
M  V30 3627 H 353.401 -3.51819 3.33693 0
M  V30 3628 N 354.744 -0.972509 -1.24016 0
M  V30 3629 C 355.674 -0.525548 -2.27509 0
M  V30 3630 C 356.655 0.437262 -1.64384 0
M  V30 3631 O 357.84 0.332343 -1.91335 0
M  V30 3632 C 354.97 0.180448 -3.46831 0
M  V30 3633 C 353.924 -0.698859 -4.22256 0
M  V30 3634 C 353.25 0.138903 -5.3452 0
M  V30 3635 C 354.55 -1.98582 -4.83076 0
M  V30 3636 H 356.244 -1.39058 -2.65148 0
M  V30 3637 H 353.79 -0.67009 -1.27459 0
M  V30 3638 H 355.743 0.504387 -4.18371 0
M  V30 3639 H 354.467 1.07987 -3.08231 0
M  V30 3640 H 353.126 -1.00614 -3.52523 0
M  V30 3641 H 352.774 1.03862 -4.9216 0
M  V30 3642 H 352.474 -0.446259 -5.85903 0
M  V30 3643 H 353.998 0.457404 -6.08884 0
M  V30 3644 H 355.412 -1.72715 -5.46665 0
M  V30 3645 H 353.809 -2.5181 -5.44713 0
M  V30 3646 H 354.879 -2.67769 -4.04262 0
M  V30 3647 N 356.222 1.38976 -0.743202 0
M  V30 3648 C 357.152 2.33171 -0.123873 0
M  V30 3649 C 358.133 1.54336 0.71516 0
M  V30 3650 O 359.318 1.82696 0.658467 0
M  V30 3651 C 356.448 3.38474 0.777978 0
M  V30 3652 C 355.402 4.27979 0.0424758 0
M  V30 3653 C 354.728 5.2405 1.06189 0
M  V30 3654 C 356.028 5.10155 -1.1198 0
M  V30 3655 H 357.722 2.85213 -0.910709 0
M  V30 3656 H 355.268 1.37133 -0.439388 0
M  V30 3657 H 357.221 4.03328 1.22084 0
M  V30 3658 H 355.945 2.84891 1.59702 0
M  V30 3659 H 354.604 3.64616 -0.380853 0
M  V30 3660 H 354.252 4.66758 1.87472 0
M  V30 3661 H 353.952 5.84785 0.574485 0
M  V30 3662 H 355.476 5.9178 1.50428 0
M  V30 3663 H 356.89 5.68307 -0.75499 0
M  V30 3664 H 355.287 5.80073 -1.53738 0
M  V30 3665 H 356.357 4.44504 -1.93764 0
M  V30 3666 N 357.7 0.491464 1.49741 0
M  V30 3667 C 359.116 0.146835 1.58923 0
M  V30 3668 C 359.316 -1.34804 1.49767 0
M  V30 3669 O 358.372 -2.12317 1.36667 0
M  V30 3670 C 359.685 0.715157 2.92072 0
M  V30 3671 C 361.233 0.680407 3.05515 0
M  V30 3672 C 361.708 1.22663 4.41269 0
M  V30 3673 N 363.199 1.18691 4.47735 0
M  V30 3674 C 363.934 1.57984 5.51207 0
M  V30 3675 N 363.43 2.04824 6.6183 0
M  V30 3676 N 365.223 1.49459 5.41866 0
M  V30 3677 H 357.374 1.46347 1.53936 0
M  V30 3678 H 359.637 0.606453 0.728642 0
M  V30 3679 H 359.343 1.76317 3.04311 0
M  V30 3680 H 359.217 0.17018 3.76816 0
M  V30 3681 H 361.604 -0.358743 2.92911 0
M  V30 3682 H 361.685 1.26242 2.22478 0
M  V30 3683 H 361.329 2.26451 4.54623 0
M  V30 3684 H 361.259 0.620637 5.2293 0
M  V30 3685 H 363.75 0.843605 3.68364 0
M  V30 3686 H 364.063 2.32901 7.3687 0
M  V30 3687 H 362.408 2.08791 6.62896 0
M  V30 3688 H 365.599 1.12692 4.54333 0
M  V30 3689 H 365.772 1.80406 6.22381 0
M  V30 3690 N 359.178 -1.55987 0.224894 0
M  V30 3691 C 360.426 -1.97998 -0.405099 0
M  V30 3692 C 360.747 -1.11387 -1.60056 0
M  V30 3693 O 360.017 -0.191645 -1.9496 0
M  V30 3694 H 358.597 -0.731235 -0.152658 0
M  V30 3695 H 361.259 -1.92279 0.318567 0
M  V30 3696 H 360.355 -3.03463 -0.729167 0
M  V30 3697 N 360.656 0.0484629 -1.57525 0
M  V30 3698 C 361.586 1.0549 -2.08313 0
M  V30 3699 C 362.567 1.38929 -0.981463 0
M  V30 3700 O 363.752 1.48151 -1.25558 0
M  V30 3701 C 360.882 2.36162 -2.54646 0
M  V30 3702 C 359.836 2.17016 -3.68901 0
M  V30 3703 C 359.162 3.53278 -4.01371 0
M  V30 3704 C 360.462 1.57219 -4.98076 0
M  V30 3705 H 362.156 0.632195 -2.92649 0
M  V30 3706 H 359.702 0.302654 -1.40784 0
M  V30 3707 H 361.655 3.06882 -2.88793 0
M  V30 3708 H 360.379 2.80456 -1.67368 0
M  V30 3709 H 359.038 1.48733 -3.35073 0
M  V30 3710 H 358.686 3.95185 -3.11188 0
M  V30 3711 H 358.386 3.41299 -4.78318 0
M  V30 3712 H 359.91 4.25391 -4.38035 0
M  V30 3713 H 361.324 2.17832 -5.30304 0
M  V30 3714 H 359.721 1.55871 -5.79503 0
M  V30 3715 H 360.791 0.535956 -4.81929 0
M  V30 3716 N 362.134 1.5431 0.320358 0
M  V30 3717 C 363.55 1.45091 0.664889 0
M  V30 3718 C 363.75 0.626382 1.91517 0
M  V30 3719 O 362.806 0.126443 2.52183 0
M  V30 3720 C 364.119 2.88848 0.83591 0
M  V30 3721 C 365.667 2.9877 0.933046 0
M  V30 3722 C 366.142 4.43683 1.13621 0
M  V30 3723 N 367.633 4.47309 1.20287 0
M  V30 3724 C 368.368 5.56595 1.37801 0
M  V30 3725 N 367.864 6.75844 1.52338 0
M  V30 3726 N 369.657 5.44248 1.40535 0
M  V30 3727 H 361.808 2.06398 -0.501374 0
M  V30 3728 H 364.071 0.933963 -0.162534 0
M  V30 3729 H 363.777 3.51698 -0.0116092 0
M  V30 3730 H 363.651 3.35148 1.73078 0
M  V30 3731 H 366.038 2.36045 1.77107 0
M  V30 3732 H 366.119 2.55796 0.0145782 0
M  V30 3733 H 365.763 5.06995 0.303032 0
M  V30 3734 H 365.693 4.84269 2.0686 0
M  V30 3735 H 368.184 3.61388 1.10485 0
M  V30 3736 H 368.497 7.54892 1.65403 0
M  V30 3737 H 366.842 6.78746 1.4943 0
M  V30 3738 H 370.033 4.50038 1.28777 0
M  V30 3739 H 370.206 6.29473 1.53842 0
M  V30 3740 N 363.613 -0.582584 1.46437 0
M  V30 3741 C 364.841 -1.36682 1.55324 0
M  V30 3742 C 365.256 -1.87796 0.194409 0
M  V30 3743 O 364.613 -1.63623 -0.808318 0
M  V30 3744 C 364.664 -2.55426 2.55812 0
M  V30 3745 O 364.385 -2.0643 3.86417 0
M  V30 3746 C 365.886 -3.47976 2.74641 0
M  V30 3747 H 363.106 -0.417545 0.525259 0
M  V30 3748 H 365.65 -0.708219 1.91845 0
M  V30 3749 H 363.805 -3.17275 2.22295 0
M  V30 3750 H 364.219 -2.83762 4.41111 0
M  V30 3751 H 365.693 -4.27775 3.48874 0
M  V30 3752 H 366.17 -3.99919 1.81553 0
M  V30 3753 H 366.776 -2.91962 3.09255 0
M  V30 3754 N 365.091 -1.34144 -0.827227 0
M  V30 3755 C 366.021 -1.28005 -1.95287 0
M  V30 3756 C 367.002 -0.158321 -1.69362 0
M  V30 3757 O 368.187 -0.349987 -1.9102 0
M  V30 3758 C 365.317 -1.03036 -3.31664 0
M  V30 3759 C 364.271 -2.11628 -3.72019 0
M  V30 3760 C 363.597 -1.71854 -5.0633 0
M  V30 3761 C 364.897 -3.53417 -3.8457 0
M  V30 3762 H 366.591 -2.22187 -2.00682 0
M  V30 3763 H 364.137 -1.0696 -0.964135 0
M  V30 3764 H 366.09 -0.973863 -4.09993 0
M  V30 3765 H 364.814 -0.0529391 -3.26557 0
M  V30 3766 H 363.473 -2.16339 -2.95961 0
M  V30 3767 H 363.121 -0.727841 -4.97706 0
M  V30 3768 H 362.821 -2.44531 -5.34302 0
M  V30 3769 H 364.345 -1.67692 -5.87122 0
M  V30 3770 H 365.759 -3.51142 -4.5318 0
M  V30 3771 H 364.156 -4.24679 -4.2399 0
M  V30 3772 H 365.226 -3.91072 -2.86689 0
M  V30 3773 N 366.569 1.04691 -1.17803 0
M  V30 3774 C 367.815 1.78045 -0.970969 0
M  V30 3775 C 368.148 1.87686 0.498751 0
M  V30 3776 O 367.423 1.38035 1.37027 0
M  V30 3777 C 367.706 3.2166 -1.61884 0
M  V30 3778 C 367.559 3.20001 -3.161 0
M  V30 3779 C 368.878 4.1962 -1.3269 0
M  V30 3780 H 365.997 0.64633 -0.354155 0
M  V30 3781 H 368.639 1.22333 -1.45378 0
M  V30 3782 H 366.789 3.69232 -1.20831 0
M  V30 3783 H 368.461 2.80467 -3.66246 0
M  V30 3784 H 366.704 2.58203 -3.48588 0
M  V30 3785 H 367.375 4.21386 -3.56564 0
M  V30 3786 H 369.851 3.80567 -1.68249 0
M  V30 3787 H 368.727 5.18339 -1.80599 0
M  V30 3788 H 368.988 4.414 -0.248622 0
M  V30 3789 N 368.047 0.979072 1.23499 0
M  V30 3790 C 369.458 0.684391 1.73704 0
M  V30 3791 C 369.809 -0.799448 1.79174 0
M  V30 3792 O 368.934 -1.62531 1.42873 0
M  V30 3793 C 369.529 1.23564 3.15464 0
M  V30 3794 C 368.088 0.99063 3.6313 0
M  V30 3795 C 367.235 1.36416 2.41425 0
M  V30 3796 H 370.186 1.15307 1.09041 0
M  V30 3797 H 370.207 0.607417 3.7562 0
M  V30 3798 H 369.719 2.31561 3.1145 0
M  V30 3799 H 367.82 -0.0733136 3.72528 0
M  V30 3800 H 367.933 1.64427 4.5 0
M  V30 3801 H 366.297 0.782616 2.42378 0
M  V30 3802 H 367.08 2.45387 2.40083 0
M  V30 3803 N 369.525 -1.3858 0.750561 0
M  V30 3804 C 370.941 -1.53759 0.427824 0
M  V30 3805 C 371.141 -1.71401 -1.05943 0
M  V30 3806 O 370.197 -1.72331 -1.84549 0
M  V30 3807 C 371.51 -2.74642 1.22443 0
M  V30 3808 C 373.058 -2.88489 1.2142 0
M  V30 3809 C 373.533 -4.12329 1.9937 0
M  V30 3810 N 375.024 -4.194 1.96616 0
M  V30 3811 C 375.759 -5.14209 2.53727 0
M  V30 3812 N 375.255 -6.14709 3.19539 0
M  V30 3813 N 377.048 -5.06537 2.43673 0
M  V30 3814 H 369.199 -1.25377 1.71447 0
M  V30 3815 H 371.462 -0.608844 0.726645 0
M  V30 3816 H 371.168 -2.68 2.27747 0
M  V30 3817 H 371.042 -3.67745 0.839273 0
M  V30 3818 H 373.429 -2.94614 0.169232 0
M  V30 3819 H 373.51 -1.96406 1.63885 0
M  V30 3820 H 373.154 -4.06966 3.03877 0
M  V30 3821 H 373.084 -5.03486 1.54302 0
M  V30 3822 H 375.575 -3.47421 1.48684 0
M  V30 3823 H 375.888 -6.8354 3.60545 0
M  V30 3824 H 374.233 -6.1505 3.23633 0
M  V30 3825 H 377.424 -4.26962 1.91889 0
M  V30 3826 H 377.597 -5.80245 2.88479 0
M  V30 3827 N 371.003 -0.499398 -1.49478 0
M  V30 3828 C 371.936 0.326491 -2.25852 0
M  V30 3829 C 372.914 0.971776 -1.30366 0
M  V30 3830 O 374.098 1.00219 -1.59651 0
M  V30 3831 C 371.225 1.45969 -3.05632 0
M  V30 3832 C 370.271 0.928938 -4.16261 0
M  V30 3833 S 371.104 -0.179012 -5.35201 0
M  V30 3834 C 372.26 0.957389 -6.18534 0
M  V30 3835 H 372.493 -0.321746 -2.95554 0
M  V30 3836 H 370.026 -0.284674 -1.51753 0
M  V30 3837 H 371.984 2.109 -3.52181 0
M  V30 3838 H 370.645 2.07953 -2.35402 0
M  V30 3839 H 369.838 1.77813 -4.71592 0
M  V30 3840 H 369.44 0.356869 -3.72293 0
M  V30 3841 H 371.732 1.86296 -6.51383 0
M  V30 3842 H 372.675 0.442733 -7.06715 0
M  V30 3843 H 373.083 1.224 -5.5107 0
M  V30 3844 N 372.481 1.55866 -0.233164 0
M  V30 3845 C 373.391 2.24431 0.683217 0
M  V30 3846 C 374.407 1.2558 1.2044 0
M  V30 3847 O 375.583 1.58422 1.24356 0
M  V30 3848 C 372.648 2.91979 1.86947 0
M  V30 3849 C 371.709 4.06204 1.38912 0
M  V30 3850 C 370.942 4.70522 2.51883 0
M  V30 3851 O 371.165 4.33865 3.70293 0
M  V30 3852 O 370.099 5.59296 2.22423 0
M  V30 3853 H 373.925 3.03426 0.129059 0
M  V30 3854 H 371.51 1.494 -0.0022283 0
M  V30 3855 H 373.392 3.34573 2.56201 0
M  V30 3856 H 372.067 2.15935 2.41151 0
M  V30 3857 H 370.974 3.68155 0.664259 0
M  V30 3858 H 372.307 4.84025 0.893328 0
M  V30 3859 N 373.959 -0.0401083 1.57549 0
M  V30 3860 C 374.889 -1.04384 2.08869 0
M  V30 3861 C 375.87 -1.38407 0.988817 0
M  V30 3862 O 377.055 -1.47483 1.26342 0
M  V30 3863 C 374.185 -2.34808 2.55895 0
M  V30 3864 C 373.139 -2.15057 3.70047 0
M  V30 3865 C 372.465 -3.51145 4.03239 0
M  V30 3866 C 373.765 -1.54576 4.98902 0
M  V30 3867 H 375.459 -0.616666 2.92981 0
M  V30 3868 H 373.005 -0.295184 1.40942 0
M  V30 3869 H 374.958 -3.05346 2.90417 0
M  V30 3870 H 373.682 -2.79565 1.68853 0
M  V30 3871 H 372.341 -1.46954 3.35857 0
M  V30 3872 H 371.989 -3.93529 3.13279 0
M  V30 3873 H 371.689 -3.38758 4.80122 0
M  V30 3874 H 373.213 -4.23062 4.40285 0
M  V30 3875 H 374.627 -2.15017 5.31451 0
M  V30 3876 H 373.024 -1.52796 5.80322 0
M  V30 3877 H 374.094 -0.51039 4.82206 0
M  V30 3878 N 375.437 -1.54477 -0.31217 0
M  V30 3879 C 376.4 -1.83923 -1.36766 0
M  V30 3880 C 377.4 -0.711563 -1.44199 0
M  V30 3881 O 378.59 -0.979866 -1.44029 0
M  V30 3882 C 375.722 -2.0095 -2.75376 0
M  V30 3883 H 376.915 -2.78239 -1.11906 0
M  V30 3884 H 374.468 -1.46369 -0.548257 0
M  V30 3885 H 375.203 -1.08883 -3.05475 0
M  V30 3886 H 374.988 -2.83018 -2.71373 0
M  V30 3887 H 376.478 -2.2514 -3.51713 0
M  V30 3888 N 376.915 0.57481 -1.46744 0
M  V30 3889 C 377.847 1.69804 -1.53946 0
M  V30 3890 C 378.86 1.57098 -0.427106 0
M  V30 3891 O 380.049 1.64378 -0.695863 0
M  V30 3892 C 377.149 3.08125 -1.4111 0
M  V30 3893 C 376.322 3.46757 -2.66605 0
M  V30 3894 C 375.381 4.6417 -2.47855 0
M  V30 3895 O 374.407 4.69634 -3.21609 0
M  V30 3896 N 375.609 5.59553 -1.54534 0
M  V30 3897 H 378.374 1.64077 -2.50796 0
M  V30 3898 H 375.935 0.761 -1.429 0
M  V30 3899 H 377.927 3.84478 -1.26328 0
M  V30 3900 H 376.497 3.08175 -0.524109 0
M  V30 3901 H 375.717 2.6003 -2.96274 0
M  V30 3902 H 377.005 3.69337 -3.49954 0
M  V30 3903 H 376.403 5.57881 -0.937304 0
M  V30 3904 H 374.96 6.35304 -1.45711 0
M  V30 3905 N 378.394 1.34581 0.820102 0
M  V30 3906 C 379.81 1.14325 1.11364 0
M  V30 3907 C 380.01 -0.0533648 2.01429 0
M  V30 3908 O 379.066 -0.728044 2.41776 0
M  V30 3909 C 380.379 2.43983 1.75764 0
M  V30 3910 C 381.927 2.50065 1.88246 0
M  V30 3911 C 382.402 3.79732 2.56061 0
M  V30 3912 N 383.893 3.80908 2.63558 0
M  V30 3913 C 384.628 4.77961 3.16766 0
M  V30 3914 N 384.124 5.85397 3.70517 0
M  V30 3915 N 385.917 4.65413 3.15194 0
M  V30 3916 H 378.068 2.11246 0.221096 0
M  V30 3917 H 380.331 0.934289 0.160649 0
M  V30 3918 H 380.037 3.31651 1.1705 0
M  V30 3919 H 379.911 2.57531 2.75604 0
M  V30 3920 H 382.298 1.62834 2.46108 0
M  V30 3921 H 382.379 2.40442 0.873006 0
M  V30 3922 H 382.023 4.67354 1.98853 0
M  V30 3923 H 381.953 3.86639 3.57516 0
M  V30 3924 H 384.444 3.03274 2.25463 0
M  V30 3925 H 384.757 6.55463 4.09376 0
M  V30 3926 H 383.102 5.89107 3.68752 0
M  V30 3927 H 386.293 3.80627 2.72471 0
M  V30 3928 H 386.466 5.41216 3.56356 0
M  V30 3929 N 379.872 -1.04064 1.18357 0
M  V30 3930 C 380.82 -2.14187 0.907007 0
M  V30 3931 C 381.814 -1.68879 -0.132725 0
M  V30 3932 O 383.02 -1.79993 0.0154248 0
M  V30 3933 H 379.395 -0.699585 0.275835 0
M  V30 3934 H 381.366 -2.34711 1.84264 0
M  V30 3935 C 380.115 -3.44785 0.449254 0
M  V30 3936 H 379.438 -3.80058 1.24081 0
M  V30 3937 H 380.878 -4.22974 0.294737 0
M  V30 3938 C 379.337 -3.26391 -0.834909 0
M  V30 3939 O 379.867 -3.53973 -1.89911 0
M  V30 3940 N 378.073 -2.79726 -0.787523 0
M  V30 3941 H 377.62 -2.5748 0.0787347 0
M  V30 3942 H 377.578 -2.67798 -1.64716 0
M  V30 3943 N 381.35 -0.985608 -1.22978 0
M  V30 3944 C 382.313 -0.535071 -2.22867 0
M  V30 3945 C 383.313 0.378123 -1.56291 0
M  V30 3946 O 384.503 0.171092 -1.73358 0
M  V30 3947 C 381.635 0.222702 -3.40172 0
M  V30 3948 H 382.828 -1.41835 -2.6424 0
M  V30 3949 H 380.381 -0.772042 -1.35901 0
M  V30 3950 H 381.116 1.12229 -3.04262 0
M  V30 3951 H 380.901 -0.43288 -3.89703 0
M  V30 3952 H 382.391 0.526335 -4.1427 0
M  V30 3953 N 382.828 1.3818 -0.7579 0
M  V30 3954 C 383.76 2.2901 -0.0932177 0
M  V30 3955 C 384.773 1.47958 0.679136 0
M  V30 3956 O 385.962 1.70773 0.519514 0
M  V30 3957 C 383.062 3.26953 0.89192 0
M  V30 3958 C 382.235 4.37045 0.176303 0
M  V30 3959 C 381.294 5.15148 1.07281 0
M  V30 3960 O 380.32 5.66616 0.541728 0
M  V30 3961 N 381.522 5.28542 2.40049 0
M  V30 3962 H 384.287 2.86694 -0.873303 0
M  V30 3963 H 381.848 1.50007 -0.609054 0
M  V30 3964 H 383.84 3.76083 1.49479 0
M  V30 3965 H 382.41 2.70136 1.57306 0
M  V30 3966 H 381.63 3.89493 -0.607328 0
M  V30 3967 H 382.918 5.07801 -0.318718 0
M  V30 3968 H 382.316 4.88285 2.85647 0
M  V30 3969 H 380.873 5.8103 2.95376 0
M  V30 3970 N 384.306 0.507319 1.49211 0
M  V30 3971 C 385.269 -0.256763 2.27757 0
M  V30 3972 C 386.269 -0.888287 1.34038 0
M  V30 3973 O 387.459 -0.751841 1.5714 0
M  V30 3974 C 384.591 -1.36905 3.12202 0
M  V30 3975 H 385.784 0.432557 2.96764 0
M  V30 3976 H 383.337 0.262488 1.5408 0
M  V30 3977 H 384.072 -2.09233 2.47775 0
M  V30 3978 H 383.857 -0.921599 3.81115 0
M  V30 3979 H 385.347 -1.9071 3.7151 0
M  V30 3980 N 385.784 -1.5574 0.241426 0
M  V30 3981 C 387.033 -1.97986 -0.385295 0
M  V30 3982 C 387.346 -1.13267 -1.59468 0
M  V30 3983 O 388.552 -1.45501 -2.2922 0
M  V30 3984 C 387.008 -3.52275 -0.736884 0
M  V30 3985 C 386.616 -4.45726 0.450796 0
M  V30 3986 C 388.36 -4.03189 -1.3281 0
M  V30 3987 C 386.267 -5.91352 0.0756662 0
M  V30 3988 H 385.197 -0.739386 -0.147731 0
M  V30 3989 H 387.848 -1.80308 0.340779 0
M  V30 3990 H 386.23 -3.65628 -1.52094 0
M  V30 3991 H 387.404 -4.44131 1.22819 0
M  V30 3992 H 385.719 -4.05264 0.956573 0
M  V30 3993 H 388.316 -5.09505 -1.62201 0
M  V30 3994 H 388.659 -3.50212 -2.25071 0
M  V30 3995 H 389.192 -3.93141 -0.607069 0
M  V30 3996 H 385.931 -6.48354 0.965272 0
M  V30 3997 H 385.451 -5.96095 -0.665635 0
M  V30 3998 H 387.13 -6.46084 -0.344075 0
M  V30 3999 N 387.262 0.0317525 -1.57568 0
M  V30 4000 C 388.508 0.724175 -1.8943 0
M  V30 4001 C 388.841 1.75149 -0.838836 0
M  V30 4002 O 388.116 1.93948 0.146422 0
M  V30 4003 C 388.399 1.39615 -3.31933 0
M  V30 4004 C 388.252 0.382537 -4.4817 0
M  V30 4005 C 389.571 2.33084 -3.73309 0
M  V30 4006 H 386.69 0.261797 -0.688935 0
M  V30 4007 H 389.332 -0.013017 -1.89996 0
M  V30 4008 H 387.482 2.02451 -3.31581 0
M  V30 4009 H 389.154 -0.243689 -4.60656 0
M  V30 4010 H 387.397 -0.29844 -4.32772 0
M  V30 4011 H 388.068 0.891145 -5.44759 0
M  V30 4012 H 390.544 1.80295 -3.7501 0
M  V30 4013 H 389.42 2.77084 -4.73831 0
M  V30 4014 H 389.681 3.19643 -3.05419 0
M  V30 4015 N 388.74 1.54641 0.303973 0
M  V30 4016 C 389.687 1.85386 1.37479 0
M  V30 4017 C 390.657 0.702528 1.50512 0
M  V30 4018 O 391.842 0.950867 1.65418 0
M  V30 4019 C 388.982 2.10413 2.73533 0
M  V30 4020 C 388.095 3.38049 2.68974 0
M  V30 4021 C 387.23 3.52934 3.97002 0
M  V30 4022 C 386.269 4.74373 3.86829 0
M  V30 4023 N 385.406 4.8608 5.06627 0
M  V30 4024 H 390.246 2.76732 1.1056 0
M  V30 4025 H 387.783 1.37034 0.534805 0
M  V30 4026 H 389.741 2.22919 3.52652 0
M  V30 4027 H 388.371 1.22338 2.98719 0
M  V30 4028 H 387.423 3.3418 1.81736 0
M  V30 4029 H 388.735 4.27288 2.57346 0
M  V30 4030 H 387.889 3.65088 4.84557 0
M  V30 4031 H 386.628 2.61824 4.1146 0
M  V30 4032 H 385.633 4.62255 2.97658 0
M  V30 4033 H 386.858 5.66888 3.73918 0
M  V30 4034 H 384.804 3.97891 5.21554 0
M  V30 4035 H 384.721 5.69315 4.9741 0
M  V30 4036 H 385.989 5.02587 5.95841 0
M  V30 4037 N 390.218 -0.567019 1.47046 0
M  V30 4038 C 391.448 -1.34831 1.56538 0
M  V30 4039 C 391.856 -1.8802 0.21101 0
M  V30 4040 O 391.199 -1.65152 -0.804387 0
M  V30 4041 C 391.261 -2.56139 2.52256 0
M  V30 4042 C 390.925 -2.24307 3.98165 0
M  V30 4043 C 391.922 -1.82192 4.86931 0
M  V30 4044 C 389.607 -2.35968 4.43423 0
M  V30 4045 C 391.601 -1.52153 6.18973 0
M  V30 4046 C 389.288 -2.05542 5.75496 0
M  V30 4047 C 390.286 -1.63701 6.63092 0
M  V30 4048 O 389.974 -1.33657 7.92711 0
M  V30 4049 H 389.706 -0.417683 0.531523 0
M  V30 4050 H 392.26 -0.694726 1.93294 0
M  V30 4051 H 390.49 -3.24356 2.10548 0
M  V30 4052 H 392.179 -3.18214 2.51982 0
M  V30 4053 H 392.945 -1.72684 4.53217 0
M  V30 4054 H 388.824 -2.67495 3.75456 0
M  V30 4055 H 392.368 -1.19421 6.87302 0
M  V30 4056 H 388.265 -2.14679 6.08755 0
M  V30 4057 H 389.033 -1.4737 8.05124 0
M  V30 4058 N 391.696 -1.35014 -0.812953 0
M  V30 4059 C 392.626 -1.30069 -1.93919 0
M  V30 4060 C 393.607 -0.176275 -1.69184 0
M  V30 4061 O 394.792 -0.370227 -1.90638 0
M  V30 4062 C 391.922 -1.06547 -3.30552 0
M  V30 4063 C 390.876 -2.15561 -3.69753 0
M  V30 4064 C 390.202 -1.77214 -5.04479 0
M  V30 4065 C 391.502 -3.57476 -3.808 0
M  V30 4066 H 393.196 -2.24303 -1.98314 0
M  V30 4067 H 390.742 -1.07977 -0.952736 0
M  V30 4068 H 392.695 -1.01729 -4.08937 0
M  V30 4069 H 391.419 -0.0875719 -3.26483 0
M  V30 4070 H 390.078 -2.19466 -2.9365 0
M  V30 4071 H 389.726 -0.780589 -4.96906 0
M  V30 4072 H 389.426 -2.50184 -5.31678 0
M  V30 4073 H 390.95 -1.7391 -5.8531 0
M  V30 4074 H 392.364 -3.55929 -4.4943 0
M  V30 4075 H 390.761 -4.29152 -4.19462 0
M  V30 4076 H 391.831 -3.94091 -2.82525 0
M  V30 4077 N 393.175 1.03435 -1.18907 0
M  V30 4078 C 394.107 2.1165 -0.879595 0
M  V30 4079 C 395.12 1.62316 0.125439 0
M  V30 4080 O 396.309 1.78201 -0.103245 0
M  V30 4081 C 393.409 3.37622 -0.294042 0
M  V30 4082 C 392.582 4.16166 -1.34629 0
M  V30 4083 C 391.641 5.20457 -0.775274 0
M  V30 4084 O 390.667 5.50379 -1.4516 0
M  V30 4085 N 391.869 5.78949 0.424126 0
M  V30 4086 H 394.634 2.38791 -1.81105 0
M  V30 4087 H 392.195 1.19681 -1.09032 0
M  V30 4088 H 394.187 4.04572 0.101679 0
M  V30 4089 H 392.757 3.07873 0.541575 0
M  V30 4090 H 391.977 3.44444 -1.91707 0
M  V30 4091 H 393.265 4.65432 -2.05549 0
M  V30 4092 H 392.663 5.56948 0.991209 0
M  V30 4093 H 391.22 6.47334 0.761691 0
M  V30 4094 N 394.653 0.992116 1.22453 0
M  V30 4095 C 395.881 0.685944 1.95198 0
M  V30 4096 C 396.296 -0.749233 1.73297 0
M  V30 4097 O 395.653 -1.50549 1.03156 0
M  V30 4098 C 395.704 0.981395 3.47924 0
M  V30 4099 O 395.425 2.36018 3.6909 0
M  V30 4100 C 396.926 0.692815 4.37853 0
M  V30 4101 H 394.146 0.253821 0.621141 0
M  V30 4102 H 396.69 1.32668 1.55626 0
M  V30 4103 H 394.845 0.386481 3.85467 0
M  V30 4104 H 395.259 2.45884 4.63294 0
M  V30 4105 H 396.733 0.949818 5.43767 0
M  V30 4106 H 397.21 -0.373181 4.37612 0
M  V30 4107 H 397.816 1.26874 4.05935 0
M  V30 4108 N 396.131 -1.37776 0.765217 0
M  V30 4109 C 397.063 -2.28958 0.105361 0
M  V30 4110 C 398.076 -1.48316 -0.67128 0
M  V30 4111 O 399.265 -1.71046 -0.51045 0
M  V30 4112 C 396.365 -3.27421 -0.874569 0
M  V30 4113 C 395.538 -4.37132 -0.153123 0
M  V30 4114 C 394.597 -5.1571 -1.04547 0
M  V30 4115 O 393.623 -5.66896 -0.511672 0
M  V30 4116 N 394.825 -5.29808 -2.37243 0
M  V30 4117 H 397.59 -2.86227 0.888495 0
M  V30 4118 H 395.151 -1.49682 0.617 0
M  V30 4119 H 397.143 -3.7687 -1.47483 0
M  V30 4120 H 395.713 -2.70967 -1.55871 0
M  V30 4121 H 394.933 -3.89166 0.627975 0
M  V30 4122 H 396.221 -5.07625 0.345643 0
M  V30 4123 H 395.619 -4.89793 -2.83054 0
M  V30 4124 H 394.176 -5.82589 -2.9229 0
M  V30 4125 N 397.609 -0.515225 -1.4894 0
M  V30 4126 C 399.02 -0.0710067 -1.86565 0
M  V30 4127 C 399.371 1.34733 -1.42623 0
M  V30 4128 O 398.496 2.00653 -0.810379 0
M  V30 4129 C 399.091 -0.122083 -3.3858 0
M  V30 4130 C 397.65 0.266863 -3.75453 0
M  V30 4131 C 396.797 -0.488376 -2.72966 0
M  V30 4132 H 399.748 -0.727266 -1.41055 0
M  V30 4133 H 399.769 0.669818 -3.74558 0
M  V30 4134 H 399.281 -1.15448 -3.70531 0
M  V30 4135 H 397.382 1.30196 -3.49113 0
M  V30 4136 H 397.495 -0.0624811 -4.79059 0
M  V30 4137 H 395.859 0.0635622 -2.54621 0
M  V30 4138 H 396.642 -1.52113 -3.07761 0
M  V30 4139 N 399.087 1.5561 -0.249682 0
M  V30 4140 C 400.017 2.24477 0.642826 0
M  V30 4141 C 400.998 1.22601 1.17911 0
M  V30 4142 O 402.183 1.5126 1.21795 0
M  V30 4143 C 399.313 2.94638 1.83863 0
M  V30 4144 C 398.267 4.03227 1.435 0
M  V30 4145 C 397.593 4.60828 2.71186 0
M  V30 4146 C 398.893 5.18796 0.604002 0
M  V30 4147 H 400.587 2.99321 0.0685625 0
M  V30 4148 H 398.133 1.43965 0.0315363 0
M  V30 4149 H 400.086 3.41517 2.46868 0
M  V30 4150 H 398.81 2.17287 2.43832 0
M  V30 4151 H 397.469 3.57121 0.828275 0
M  V30 4152 H 397.117 3.80174 3.29358 0
M  V30 4153 H 396.817 5.34132 2.44901 0
M  V30 4154 H 398.341 5.10442 3.35084 0
M  V30 4155 H 399.755 5.61883 1.13842 0
M  V30 4156 H 398.152 5.98506 0.437097 0
M  V30 4157 H 399.222 4.83384 -0.383147 0
M  V30 4158 N 400.565 -0.0233959 1.57583 0
M  V30 4159 C 401.811 -0.714119 1.89811 0
M  V30 4160 C 402.144 -1.74702 0.848113 0
M  V30 4161 O 401.419 -1.94023 -0.136135 0
M  V30 4162 C 401.702 -1.37853 3.32669 0
M  V30 4163 C 401.555 -0.358764 4.48367 0
M  V30 4164 C 402.874 -2.31101 3.7454 0
M  V30 4165 H 399.993 -0.25814 0.690314 0
M  V30 4166 H 402.635 0.0230927 1.89986 0
M  V30 4167 H 400.785 -2.00689 3.3265 0
M  V30 4168 H 402.457 0.268115 4.6052 0
M  V30 4169 H 400.7 0.321387 4.32608 0
M  V30 4170 H 401.371 -0.862242 5.45224 0
M  V30 4171 H 403.847 -1.78304 3.75961 0
M  V30 4172 H 402.723 -2.74567 4.75294 0
M  V30 4173 H 402.984 -3.18018 3.0711 0
M  V30 4174 N 402.043 -1.548 -0.295768 0
M  V30 4175 C 402.99 -1.86113 -1.36494 0
M  V30 4176 C 403.96 -0.7105 -1.50137 0
M  V30 4177 O 405.145 -0.959626 -1.64912 0
M  V30 4178 C 402.285 -2.11861 -2.72413 0
M  V30 4179 C 401.398 -3.39471 -2.67177 0
M  V30 4180 C 400.533 -3.55035 -3.95125 0
M  V30 4181 C 399.572 -4.76418 -3.84308 0
M  V30 4182 N 398.709 -4.8876 -5.04042 0
M  V30 4183 H 403.549 -2.77314 -1.09091 0
M  V30 4184 H 401.086 -1.37315 -0.52753 0
M  V30 4185 H 403.044 -2.24786 -3.51464 0
M  V30 4186 H 401.674 -1.2392 -2.98066 0
M  V30 4187 H 400.726 -3.35139 -1.79962 0
M  V30 4188 H 402.038 -4.28646 -2.55076 0
M  V30 4189 H 401.192 -3.67653 -4.82614 0
M  V30 4190 H 399.931 -2.64002 -4.10066 0
M  V30 4191 H 398.936 -4.63827 -2.95202 0
M  V30 4192 H 400.161 -5.68863 -3.70906 0
M  V30 4193 H 398.107 -4.00652 -5.19436 0
M  V30 4194 H 398.024 -5.71945 -4.94384 0
M  V30 4195 H 399.292 -5.0574 -5.93167 0
M  V30 4196 N 403.521 0.559213 -1.47345 0
M  V30 4197 C 404.468 1.66645 -1.59682 0
M  V30 4198 C 405.438 1.60168 -0.43994 0
M  V30 4199 O 406.623 1.79031 -0.659736 0
M  V30 4200 C 403.763 3.04969 -1.61518 0
M  V30 4201 C 402.876 3.21897 -2.88108 0
M  V30 4202 C 402.011 4.50608 -2.81294 0
M  V30 4203 C 401.05 4.60961 -4.02717 0
M  V30 4204 N 400.187 5.81024 -3.94151 0
M  V30 4205 H 405.027 1.55439 -2.54249 0
M  V30 4206 H 402.564 0.757219 -1.26113 0
M  V30 4207 H 404.522 3.85064 -1.60566 0
M  V30 4208 H 403.152 3.15015 -0.704645 0
M  V30 4209 H 402.204 2.35248 -2.98936 0
M  V30 4210 H 403.516 3.25412 -3.78032 0
M  V30 4211 H 402.67 5.3896 -2.7858 0
M  V30 4212 H 401.409 4.49568 -1.89049 0
M  V30 4213 H 400.414 3.71021 -4.05738 0
M  V30 4214 H 401.639 4.63761 -4.96087 0
M  V30 4215 H 399.585 5.80938 -3.04708 0
M  V30 4216 H 399.502 5.85909 -4.77752 0
M  V30 4217 H 400.77 6.71744 -3.9545 0
M  V30 4218 N 404.999 1.35443 0.805782 0
M  V30 4219 C 405.929 1.31095 1.93226 0
M  V30 4220 C 406.91 0.185244 1.69088 0
M  V30 4221 O 408.095 0.380332 1.90439 0
M  V30 4222 C 405.225 1.08299 3.29983 0
M  V30 4223 C 404.179 2.17519 3.68605 0
M  V30 4224 C 403.505 1.79887 5.03532 0
M  V30 4225 C 404.805 3.5949 3.78898 0
M  V30 4226 H 406.499 2.25352 1.97122 0
M  V30 4227 H 404.045 1.0848 0.946996 0
M  V30 4228 H 405.998 1.03897 4.08391 0
M  V30 4229 H 404.722 0.104885 3.26432 0
M  V30 4230 H 403.381 2.2102 2.92482 0
M  V30 4231 H 403.029 0.80693 4.96485 0
M  V30 4232 H 402.729 2.53001 5.30344 0
M  V30 4233 H 404.253 1.77011 5.84379 0
M  V30 4234 H 405.667 3.58307 4.47536 0
M  V30 4235 H 404.064 4.31371 4.1718 0
M  V30 4236 H 405.134 3.95584 2.80431 0
M  V30 4237 N 406.477 -1.02803 1.19454 0
M  V30 4238 C 407.707 -1.79581 1.02149 0
M  V30 4239 C 408.115 -1.84182 -0.432851 0
M  V30 4240 O 407.458 -1.28534 -1.31243 0
M  V30 4241 C 407.52 -3.25993 1.51554 0
M  V30 4242 C 407.184 -3.45025 2.99678 0
M  V30 4243 C 408.181 -3.35175 3.97434 0
M  V30 4244 C 405.866 -3.71212 3.38389 0
M  V30 4245 C 407.86 -3.51238 5.31893 0
M  V30 4246 C 405.547 -3.8692 4.73008 0
M  V30 4247 C 406.545 -3.76936 5.69569 0
M  V30 4248 O 406.233 -3.92179 7.01748 0
M  V30 4249 H 405.965 -0.571962 0.360327 0
M  V30 4250 H 408.519 -1.30367 1.58725 0
M  V30 4251 H 406.749 -3.76235 0.893543 0
M  V30 4252 H 408.438 -3.84368 1.30444 0
M  V30 4253 H 409.204 -3.14895 3.68872 0
M  V30 4254 H 405.083 -3.78075 2.6378 0
M  V30 4255 H 408.627 -3.43362 6.07247 0
M  V30 4256 H 404.524 -4.06699 5.01265 0
M  V30 4257 H 405.292 -4.09265 7.08833 0
M  V30 4258 N 407.956 -0.998596 -1.21925 0
M  V30 4259 C 408.906 -0.524743 -2.21879 0
M  V30 4260 C 409.89 0.41017 -1.55584 0
M  V30 4261 O 411.082 0.236063 -1.75419 0
M  V30 4262 C 408.211 0.153636 -3.42956 0
M  V30 4263 C 407.297 -0.801918 -4.16449 0
M  V30 4264 N 407.688 -1.95211 -4.66611 0
M  V30 4265 C 405.986 -0.618972 -4.41684 0
M  V30 4266 C 406.687 -2.55234 -5.22715 0
M  V30 4267 N 405.663 -1.83451 -5.1171 0
M  V30 4268 H 409.465 -1.40189 -2.58311 0
M  V30 4269 H 406.979 -0.86159 -1.3766 0
M  V30 4270 H 408.976 0.510534 -4.13762 0
M  V30 4271 H 407.636 1.02684 -3.08036 0
M  V30 4272 H 408.647 -2.33271 -4.62391 0
M  V30 4273 H 405.324 0.207694 -4.16983 0
M  V30 4274 H 406.714 -3.52471 -5.72026 0
M  V30 4275 N 409.434 1.37368 -0.772513 0
M  V30 4276 C 410.845 1.8231 -0.402493 0
M  V30 4277 C 411.196 1.6436 1.07146 0
M  V30 4278 O 410.321 1.15514 1.82991 0
M  V30 4279 C 410.916 3.30979 -0.723776 0
M  V30 4280 C 409.475 3.74195 -0.406802 0
M  V30 4281 C 408.622 2.59885 -0.967218 0
M  V30 4282 H 411.573 1.25829 -0.967099 0
M  V30 4283 H 411.594 3.80499 -0.00870832 0
M  V30 4284 H 411.106 3.44011 -1.7966 0
M  V30 4285 H 409.207 3.66732 0.658673 0
M  V30 4286 H 409.32 4.7027 -0.915588 0
M  V30 4287 H 407.684 2.51674 -0.391416 0
M  V30 4288 H 408.467 2.7571 -2.04546 0
M  V30 4289 N 410.912 0.523116 1.48665 0
M  V30 4290 C 412.137 -0.0117284 2.07397 0
M  V30 4291 C 412.562 -1.28031 1.37803 0
M  V30 4292 O 411.92 -1.75836 0.441762 0
M  V30 4293 C 411.968 -0.225786 3.59892 0
M  V30 4294 O 411.072 -1.29592 3.91509 0
M  V30 4295 H 410.413 0.0360673 0.66302 0
M  V30 4296 H 412.943 0.729066 1.9117 0
M  V30 4297 H 412.953 -0.450552 4.05505 0
M  V30 4298 H 411.628 0.700944 4.09951 0
M  V30 4299 H 410.205 -1.05436 3.57684 0
M  V30 4300 N 412.39 -1.55475 0.257931 0
M  V30 4301 C 413.32 -2.24815 -0.630912 0
M  V30 4302 C 414.301 -1.23224 -1.17259 0
M  V30 4303 O 415.486 -1.51904 -1.20991 0
M  V30 4304 C 412.616 -2.95609 -1.82298 0
M  V30 4305 C 411.57 -4.03982 -1.41359 0
M  V30 4306 C 410.896 -4.6226 -2.68738 0
M  V30 4307 C 412.196 -5.19109 -0.57648 0
M  V30 4308 H 413.89 -2.99354 -0.0526878 0
M  V30 4309 H 411.436 -1.4398 -0.023901 0
M  V30 4310 H 413.389 -3.42822 -2.45054 0
M  V30 4311 H 412.113 -2.18577 -2.42676 0
M  V30 4312 H 410.772 -3.57555 -0.809324 0
M  V30 4313 H 410.42 -3.81915 -3.27338 0
M  V30 4314 H 410.12 -5.35424 -2.42065 0
M  V30 4315 H 411.644 -5.12212 -3.32372 0
M  V30 4316 H 413.058 -5.62479 -1.10861 0
M  V30 4317 H 411.455 -5.98729 -0.405351 0
M  V30 4318 H 412.525 -4.83174 0.408776 0
M  V30 4319 N 413.868 0.0150385 -1.57593 0
M  V30 4320 C 415.279 0.559832 -1.78109 0
M  V30 4321 C 415.63 1.74814 -0.890756 0
M  V30 4322 O 414.755 2.16216 -0.0892482 0
M  V30 4323 C 415.35 1.02238 -3.23006 0
M  V30 4324 C 413.909 1.51258 -3.44671 0
M  V30 4325 C 413.056 0.456955 -2.73509 0
M  V30 4326 H 416.007 -0.211169 -1.57289 0
M  V30 4327 H 416.028 1.88912 -3.30292 0
M  V30 4328 H 415.54 0.157302 -3.87781 0
M  V30 4329 H 413.641 2.39905 -2.8509 0
M  V30 4330 H 413.754 1.55042 -4.5332 0
M  V30 4331 H 412.118 0.915196 -2.37689 0
M  V30 4332 H 412.901 -0.398896 -3.40975 0
M  V30 4333 N 415.346 1.54954 0.287554 0
M  V30 4334 C 416.256 1.8991 1.37736 0
M  V30 4335 C 417.272 0.794701 1.54792 0
M  V30 4336 O 418.448 1.09243 1.69198 0
M  V30 4337 C 415.513 2.15108 2.71899 0
M  V30 4338 C 414.574 3.38752 2.63715 0
M  V30 4339 C 413.807 3.62739 3.91479 0
M  V30 4340 O 414.03 2.89492 4.91478 0
M  V30 4341 O 412.964 4.56267 3.92561 0
M  V30 4342 H 416.79 2.82652 1.11092 0
M  V30 4343 H 414.375 1.41315 0.484807 0
M  V30 4344 H 416.257 2.32806 3.51254 0
M  V30 4345 H 414.932 1.25551 2.9836 0
M  V30 4346 H 413.839 3.26405 1.82786 0
M  V30 4347 H 415.172 4.28483 2.42205 0
M  V30 4348 N 416.824 -0.551391 1.4764 0
M  V30 4349 C 417.772 -1.67896 1.60978 0
M  V30 4350 C 418.766 -1.62549 0.476877 0
M  V30 4351 O 419.972 -1.67664 0.654878 0
M  V30 4352 H 416.347 -0.555649 0.506713 0
M  V30 4353 H 418.318 -1.53784 2.55721 0
M  V30 4354 C 417.067 -3.06234 1.64669 0
M  V30 4355 H 416.39 -3.11033 2.51194 0
M  V30 4356 H 417.83 -3.84804 1.7805 0
M  V30 4357 C 416.289 -3.34737 0.381115 0
M  V30 4358 O 416.819 -3.98381 -0.515297 0
M  V30 4359 N 415.025 -2.8944 0.259354 0
M  V30 4360 H 414.572 -2.37827 0.98976 0
M  V30 4361 H 414.53 -3.08882 -0.586464 0
M  V30 4362 N 418.302 -1.35869 -0.798587 0
M  V30 4363 C 419.234 -1.25305 -1.91915 0
M  V30 4364 C 420.247 -0.174548 -1.61862 0
M  V30 4365 O 421.436 -0.428499 -1.73281 0
M  V30 4366 C 418.536 -0.9086 -3.26493 0
M  V30 4367 C 417.709 -2.08711 -3.84394 0
M  V30 4368 C 416.768 -1.71717 -4.97393 0
M  V30 4369 O 415.794 -2.43692 -5.14396 0
M  V30 4370 N 416.996 -0.645473 -5.769 0
M  V30 4371 H 419.761 -2.21849 -2.01502 0
M  V30 4372 H 417.322 -1.29143 -0.976408 0
M  V30 4373 H 419.314 -0.642455 -3.99568 0
M  V30 4374 H 417.884 -0.0325815 -3.12583 0
M  V30 4375 H 417.104 -2.51659 -3.03416 0
M  V30 4376 H 418.392 -2.87468 -4.19809 0
M  V30 4377 H 417.79 -0.047648 -5.6568 0
M  V30 4378 H 416.347 -0.43913 -6.50319 0
M  V30 4379 N 419.78 1.02168 -1.19998 0
M  V30 4380 C 421.028 1.75338 -1.00504 0
M  V30 4381 C 421.349 1.89387 0.464506 0
M  V30 4382 O 420.619 1.43268 1.33608 0
M  V30 4383 H 419.199 0.649564 -0.368885 0
M  V30 4384 H 421.861 1.23205 -1.51018 0
M  V30 4385 H 420.957 2.75892 -1.45912 0
M  V30 4386 N 421.258 1.00505 1.21394 0
M  V30 4387 C 422.208 0.536503 2.21598 0
M  V30 4388 C 423.192 -0.401914 1.55799 0
M  V30 4389 O 424.384 -0.226757 1.75541 0
M  V30 4390 C 421.513 -0.135446 3.43033 0
M  V30 4391 C 420.599 0.823992 4.16018 0
M  V30 4392 N 420.99 1.97683 4.6557 0
M  V30 4393 C 419.288 0.642387 4.4135 0
M  V30 4394 C 419.989 2.58003 5.21354 0
M  V30 4395 N 418.965 1.86162 5.1073 0
M  V30 4396 H 422.767 1.41557 2.57563 0
M  V30 4397 H 420.281 0.868878 1.37202 0
M  V30 4398 H 422.278 -0.488584 4.14027 0
M  V30 4399 H 420.938 -1.01049 3.08576 0
M  V30 4400 H 421.949 2.3572 4.61147 0
M  V30 4401 H 418.626 -0.185578 4.17087 0
M  V30 4402 H 420.016 3.555 5.70149 0
M  V30 4403 N 422.737 -1.36956 0.779787 0
M  V30 4404 C 423.647 -2.33965 0.172491 0
M  V30 4405 C 424.663 -1.60574 -0.670222 0
M  V30 4406 O 425.839 -1.92617 -0.588263 0
M  V30 4407 C 422.904 -3.39761 -0.690173 0
M  V30 4408 C 421.965 -4.28964 0.169924 0
M  V30 4409 C 421.198 -5.29707 -0.651662 0
M  V30 4410 O 421.421 -5.38238 -1.88827 0
M  V30 4411 O 420.355 -6.01873 -0.0566264 0
M  V30 4412 H 424.181 -2.87647 0.974321 0
M  V30 4413 H 421.766 -1.39258 0.541078 0
M  V30 4414 H 423.648 -4.04471 -1.1824 0
M  V30 4415 H 422.323 -2.88394 -1.47006 0
M  V30 4416 H 421.23 -3.67326 0.708696 0
M  V30 4417 H 422.563 -4.83656 0.913085 0
M  V30 4418 N 424.215 -0.530993 -1.48385 0
M  V30 4419 C 425.464 0.00474348 -2.01699 0
M  V30 4420 C 425.777 1.35227 -1.41325 0
M  V30 4421 O 426.983 1.97643 -1.86144 0
M  V30 4422 C 425.439 0.0588473 -3.59852 0
M  V30 4423 C 425.047 -1.28385 -4.2921 0
M  V30 4424 C 426.791 0.543358 -4.21008 0
M  V30 4425 C 424.698 -1.19028 -5.79298 0
M  V30 4426 H 423.628 0.00554317 -0.75398 0
M  V30 4427 H 426.279 -0.674924 -1.70637 0
M  V30 4428 H 424.661 0.803612 -3.8776 0
M  V30 4429 H 425.835 -2.04426 -4.12973 0
M  V30 4430 H 424.15 -1.70418 -3.7993 0
M  V30 4431 H 426.747 0.631351 -5.3096 0
M  V30 4432 H 427.09 1.54937 -3.86394 0
M  V30 4433 H 427.623 -0.145754 -3.97533 0
M  V30 4434 H 424.362 -2.17147 -6.18488 0
M  V30 4435 H 423.882 -0.471246 -5.97946 0
M  V30 4436 H 425.561 -0.881365 -6.40969 0
M  V30 4437 N 425.693 1.55336 -0.266172 0
M  V30 4438 C 426.656 2.20878 0.612001 0
M  V30 4439 C 427.656 1.18388 1.08816 0
M  V30 4440 O 428.846 1.4335 0.989774 0
M  V30 4441 C 425.978 2.86765 1.84332 0
M  V30 4442 H 427.171 2.99873 0.0398718 0
M  V30 4443 H 424.724 1.56291 -0.0167309 0
M  V30 4444 H 425.459 2.11759 2.45619 0
M  V30 4445 H 425.244 3.61862 1.5099 0
M  V30 4446 H 426.734 3.36867 2.46801 0
M  V30 4447 N 427.171 -0.0066808 1.57599 0
M  V30 4448 C 428.134 -0.985035 2.06953 0
M  V30 4449 C 429.134 -1.27663 0.977687 0
M  V30 4450 O 430.324 -1.22293 1.24057 0
M  V30 4451 C 427.456 -2.3118 2.50536 0
M  V30 4452 H 428.649 -0.558255 2.94658 0
M  V30 4453 H 426.202 -0.254011 1.54222 0
M  V30 4454 H 426.937 -2.78561 1.66054 0
M  V30 4455 H 426.722 -2.11338 3.3027 0
M  V30 4456 H 428.212 -3.01377 2.8907 0
M  V30 4457 N 428.649 -1.55105 -0.279332 0
M  V30 4458 C 430.065 -1.46803 -0.626187 0
M  V30 4459 C 430.265 -0.676939 -1.89789 0
M  V30 4460 O 429.321 -0.19326 -2.51759 0
M  V30 4461 C 430.634 -2.90962 -0.759034 0
M  V30 4462 C 432.182 -3.01138 -0.853504 0
M  V30 4463 C 432.657 -4.46539 -1.01818 0
M  V30 4464 N 434.148 -4.50341 -1.08386 0
M  V30 4465 C 434.883 -5.60053 -1.22996 0
M  V30 4466 N 434.379 -6.79645 -1.34366 0
M  V30 4467 N 436.172 -5.47783 -1.26056 0
M  V30 4468 H 428.323 -2.04996 0.555921 0
M  V30 4469 H 430.586 -0.929325 0.187239 0
M  V30 4470 H 430.292 -3.51544 0.104852 0
M  V30 4471 H 430.166 -3.39619 -1.64131 0
M  V30 4472 H 432.553 -2.40658 -1.70786 0
M  V30 4473 H 432.634 -2.55745 0.0532466 0
M  V30 4474 H 432.278 -5.0762 -0.168504 0
M  V30 4475 H 432.208 -4.89583 -1.93948 0
M  V30 4476 H 434.699 -3.64191 -1.00864 0
M  V30 4477 H 435.012 -7.59012 -1.4533 0
M  V30 4478 H 433.357 -6.82469 -1.31382 0
M  V30 4479 H 436.548 -4.53294 -1.168 0
M  V30 4480 H 436.721 -6.33331 -1.37098 0
M  V30 4481 N 430.127 0.543554 -1.4793 0
M  V30 4482 C 431.059 1.665 -1.57513 0
M  V30 4483 C 432.072 1.56156 -0.460333 0
M  V30 4484 O 433.261 1.62865 -0.730573 0
M  V30 4485 C 430.361 3.05063 -1.47614 0
M  V30 4486 C 429.534 3.41024 -2.739 0
M  V30 4487 C 428.593 4.58809 -2.57645 0
M  V30 4488 O 427.619 4.62707 -3.31498 0
M  V30 4489 N 428.821 5.56149 -1.66368 0
M  V30 4490 H 431.586 1.5872 -2.5422 0
M  V30 4491 H 429.147 0.730517 -1.44482 0
M  V30 4492 H 431.139 3.81712 -1.34455 0
M  V30 4493 H 429.709 3.06994 -0.589359 0
M  V30 4494 H 428.929 2.53687 -3.01723 0
M  V30 4495 H 430.217 3.61831 -3.57709 0
M  V30 4496 H 429.615 5.55767 -1.05543 0
M  V30 4497 H 428.172 6.32071 -1.59154 0
M  V30 4498 N 431.605 1.3629 0.791371 0
M  V30 4499 C 432.537 1.26321 1.91248 0
M  V30 4500 C 433.55 0.18313 1.61767 0
M  V30 4501 O 434.739 0.437682 1.73051 0
M  V30 4502 C 431.839 0.925901 3.26007 0
M  V30 4503 C 431.012 2.10746 3.83281 0
M  V30 4504 C 430.071 1.74352 4.96475 0
M  V30 4505 O 429.097 2.46416 5.13096 0
M  V30 4506 N 430.299 0.676058 5.7655 0
M  V30 4507 H 433.064 2.22915 2.00323 0
M  V30 4508 H 430.625 1.29659 0.969546 0
M  V30 4509 H 432.617 0.663636 3.99222 0
M  V30 4510 H 431.187 0.0491581 3.12561 0
M  V30 4511 H 430.407 2.53264 3.02077 0
M  V30 4512 H 431.695 2.8969 4.18279 0
M  V30 4513 H 431.093 0.0776467 5.65647 0
M  V30 4514 H 429.65 0.473612 6.50077 0
M  V30 4515 N 433.083 -1.0153 1.20538 0
M  V30 4516 C 434.03 -2.10098 0.955383 0
M  V30 4517 C 435 -1.65702 -0.114878 0
M  V30 4518 O 436.185 -1.90776 0.0301118 0
M  V30 4519 C 433.325 -3.41236 0.514969 0
M  V30 4520 C 432.438 -3.99102 1.65353 0
M  V30 4521 C 431.573 -5.18306 1.16329 0
M  V30 4522 C 430.612 -5.68258 2.27485 0
M  V30 4523 N 429.749 -6.78722 1.7967 0
M  V30 4524 H 434.589 -2.30818 1.88486 0
M  V30 4525 H 432.126 -1.13189 0.939499 0
M  V30 4526 H 434.084 -4.16504 0.240935 0
M  V30 4527 H 432.714 -3.20585 -0.377512 0
M  V30 4528 H 431.766 -3.20918 2.04245 0
M  V30 4529 H 433.078 -4.32177 2.49047 0
M  V30 4530 H 432.232 -6.00782 0.845302 0
M  V30 4531 H 430.971 -4.86799 0.296254 0
M  V30 4532 H 429.976 -4.84385 2.60099 0
M  V30 4533 H 431.201 -6.01798 3.14667 0
M  V30 4534 H 429.147 -6.49042 0.95295 0
M  V30 4535 H 429.064 -7.10996 2.56944 0
M  V30 4536 H 430.332 -7.64759 1.50875 0
M  V30 4537 N 434.561 -1.01147 -1.20859 0
M  V30 4538 C 435.809 -0.696486 -1.89719 0
M  V30 4539 C 436.13 0.775788 -1.78904 0
M  V30 4540 O 435.4 1.55759 -1.18811 0
M  V30 4541 H 433.98 -0.254628 -0.702263 0
M  V30 4542 H 436.642 -1.28197 -1.46804 0
M  V30 4543 H 435.738 -0.975357 -2.96468 0
M  V30 4544 N 436.039 1.36541 -0.78704 0
M  V30 4545 C 437.286 1.99304 -0.358341 0
M  V30 4546 C 437.614 1.62467 1.06933 0
M  V30 4547 O 436.869 0.870019 1.75297 0
M  V30 4548 C 437.168 3.54343 -0.466485 0
M  V30 4549 C 436.834 4.10993 -1.85461 0
M  V30 4550 C 435.496 4.26177 -2.23443 0
M  V30 4551 C 437.848 4.41895 -2.76366 0
M  V30 4552 C 435.176 4.69573 -3.51736 0
M  V30 4553 C 437.528 4.86722 -4.04084 0
M  V30 4554 C 436.192 5.00112 -4.42091 0
M  V30 4555 H 435.462 0.729306 -0.131126 0
M  V30 4556 H 438.109 1.63068 -1.00404 0
M  V30 4557 H 436.414 3.90918 0.262719 0
M  V30 4558 H 438.111 4.00833 -0.115854 0
M  V30 4559 H 434.701 3.99612 -1.54946 0
M  V30 4560 H 438.885 4.29735 -2.48277 0
M  V30 4561 H 434.141 4.78127 -3.81057 0
M  V30 4562 H 438.315 5.09598 -4.7464 0
M  V30 4563 H 435.942 5.33498 -5.41557 0
M  V30 4564 N 437.518 0.538854 1.48102 0
M  V30 4565 C 438.766 0.00798599 2.02098 0
M  V30 4566 C 439.087 -1.33922 1.41739 0
M  V30 4567 O 438.357 -1.86932 0.585934 0
M  V30 4568 H 436.937 -3.62179e-05 0.747 0
M  V30 4569 H 439.599 0.7047 1.81714 0
M  V30 4570 H 438.695 -0.0937672 3.11959 0
M  V30 4571 N 438.996 -1.55193 0.274407 0
M  V30 4572 C 439.959 -2.212 -0.600279 0
M  V30 4573 C 440.959 -1.18963 -1.08187 0
M  V30 4574 O 442.149 -1.43873 -0.982158 0
M  V30 4575 C 439.281 -2.87739 -1.82809 0
M  V30 4576 H 440.474 -2.9989 -0.0239682 0
M  V30 4577 H 438.027 -1.5628 0.0250192 0
M  V30 4578 H 438.762 -2.13058 -2.44493 0
M  V30 4579 H 438.547 -3.62658 -1.49069 0
M  V30 4580 H 440.037 -3.38171 -2.45011 0
M  V30 4581 N 440.474 -0.00167713 -1.576 0
M  V30 4582 C 441.407 1.02317 -2.03977 0
M  V30 4583 C 442.385 1.33381 -0.929963 0
M  V30 4584 O 443.569 1.45517 -1.19822 0
M  V30 4585 C 440.696 2.35035 -2.43878 0
M  V30 4586 C 439.742 2.19621 -3.65607 0
M  V30 4587 S 440.575 1.52068 -5.13455 0
M  V30 4588 C 441.731 2.86212 -5.56627 0
M  V30 4589 H 441.964 0.628285 -2.90585 0
M  V30 4590 H 439.497 0.209239 -1.52976 0
M  V30 4591 H 441.455 3.11345 -2.67534 0
M  V30 4592 H 440.116 2.71663 -1.57665 0
M  V30 4593 H 439.309 3.1767 -3.91282 0
M  V30 4594 H 438.911 1.51455 -3.41961 0
M  V30 4595 H 441.203 3.82509 -5.59189 0
M  V30 4596 H 442.146 2.65235 -6.56549 0
M  V30 4597 H 442.554 2.90199 -4.84195 0
M  V30 4598 N 441.952 1.55251 0.271103 0
M  V30 4599 C 442.882 1.9127 1.33933 0
M  V30 4600 C 443.863 0.77478 1.5143 0
M  V30 4601 O 445.048 1.03307 1.64442 0
M  V30 4602 C 442.178 2.18627 2.69851 0
M  V30 4603 C 441.132 3.34442 2.67081 0
M  V30 4604 C 440.458 3.47284 4.06569 0
M  V30 4605 C 441.758 4.70784 2.26185 0
M  V30 4606 H 443.452 2.80744 1.04035 0
M  V30 4607 H 440.998 1.35077 0.499017 0
M  V30 4608 H 442.951 2.42413 3.44694 0
M  V30 4609 H 441.675 1.25955 3.01335 0
M  V30 4610 H 440.334 3.10627 1.94695 0
M  V30 4611 H 439.982 2.52074 4.35279 0
M  V30 4612 H 439.682 4.25152 4.0561 0
M  V30 4613 H 441.206 3.73363 4.83148 0
M  V30 4614 H 442.62 4.94102 2.90751 0
M  V30 4615 H 441.017 5.51582 2.36384 0
M  V30 4616 H 442.087 4.69478 1.21319 0
M  V30 4617 N 443.43 -0.535701 1.48216 0
M  V30 4618 C 444.655 -1.32149 1.59848 0
M  V30 4619 C 445.08 -1.86338 0.256842 0
M  V30 4620 O 444.438 -1.64107 -0.770632 0
M  V30 4621 C 444.486 -2.45224 2.64381 0
M  V30 4622 O 443.59 -3.48093 2.21144 0
M  V30 4623 H 442.931 -0.391634 0.536208 0
M  V30 4624 H 445.461 -0.645202 1.94161 0
M  V30 4625 H 445.471 -2.91491 2.85476 0
M  V30 4626 H 444.146 -2.05143 3.61786 0
M  V30 4627 H 442.723 -3.07984 2.10239 0
M  V30 4628 N 444.908 -1.36708 -0.784132 0
M  V30 4629 C 446.155 -1.31231 -1.54222 0
M  V30 4630 C 446.483 0.106864 -1.94206 0
M  V30 4631 O 445.738 1.07734 -1.63376 0
M  V30 4632 C 446.037 -2.18571 -2.82774 0
M  V30 4633 C 445.703 -3.67039 -2.61903 0
M  V30 4634 C 444.365 -4.07503 -2.55919 0
M  V30 4635 C 446.717 -4.61149 -2.4288 0
M  V30 4636 C 444.045 -5.40211 -2.28886 0
M  V30 4637 C 446.397 -5.94081 -2.17373 0
M  V30 4638 C 445.061 -6.33664 -2.09825 0
M  V30 4639 H 444.331 -0.48021 -0.56434 0
M  V30 4640 H 446.978 -1.68807 -0.904233 0
M  V30 4641 H 445.283 -1.73949 -3.51068 0
M  V30 4642 H 446.98 -2.11655 -3.40592 0
M  V30 4643 H 443.57 -3.34941 -2.67418 0
M  V30 4644 H 447.754 -4.30756 -2.46501 0
M  V30 4645 H 443.01 -5.69855 -2.21529 0
M  V30 4646 H 447.184 -6.66566 -2.01649 0
M  V30 4647 H 444.811 -7.36423 -1.88641 0
M  V30 4648 N 446.386 1.0089 -1.21074 0
M  V30 4649 C 447.296 2.13039 -0.982425 0
M  V30 4650 C 448.312 1.73881 0.0642161 0
M  V30 4651 O 449.488 2.01012 -0.12496 0
M  V30 4652 C 446.553 3.42377 -0.545803 0
M  V30 4653 C 445.614 3.95731 -1.6642 0
M  V30 4654 C 444.847 5.18896 -1.24832 0
M  V30 4655 O 445.07 5.70273 -0.120265 0
M  V30 4656 O 444.004 5.65597 -2.05873 0
M  V30 4657 H 447.83 2.35175 -1.92163 0
M  V30 4658 H 445.415 1.1142 -0.995285 0
M  V30 4659 H 447.297 4.20244 -0.311912 0
M  V30 4660 H 445.972 3.21639 0.364727 0
M  V30 4661 H 444.879 3.19108 -1.95246 0
M  V30 4662 H 446.212 4.20872 -2.55201 0
M  V30 4663 N 447.864 1.01787 1.20321 0
M  V30 4664 C 448.794 0.609625 2.25401 0
M  V30 4665 C 449.775 -0.375951 1.65893 0
M  V30 4666 O 450.96 -0.261101 1.92437 0
M  V30 4667 C 448.09 -0.0515995 3.47262 0
M  V30 4668 C 447.044 0.855095 4.19371 0
M  V30 4669 C 446.37 0.0595757 5.34667 0
M  V30 4670 C 447.67 2.16374 4.75373 0
M  V30 4671 H 449.364 1.48803 2.59804 0
M  V30 4672 H 446.91 0.716934 1.24884 0
M  V30 4673 H 448.863 -0.348764 4.19954 0
M  V30 4674 H 447.587 -0.964726 3.12027 0
M  V30 4675 H 446.246 1.13628 3.48546 0
M  V30 4676 H 445.894 -0.85524 4.95676 0
M  V30 4677 H 445.594 0.663406 5.83843 0
M  V30 4678 H 447.118 -0.231105 6.10162 0
M  V30 4679 H 448.532 1.92885 5.39878 0
M  V30 4680 H 446.929 2.71853 5.34991 0
M  V30 4681 H 447.999 2.82589 3.94045 0
M  V30 4682 N 449.342 -1.36122 0.79427 0
M  V30 4683 C 450.619 -1.93398 0.292685 0
M  V30 4684 C 450.999 -1.72567 -1.21589 0
M  V30 4685 O 450.347 -1.08745 -2.00965 0
M  V30 4686 C 450.557 -3.42099 0.690614 0
M  V30 4687 C 451.905 -4.19231 0.673105 0
M  V30 4688 O 452.929 -3.50559 0.631389 0
M  V30 4689 O 451.788 -5.41732 0.720362 0
M  V30 4690 H 448.882 -0.823712 0.0736693 0
M  V30 4691 H 451.428 -1.45273 0.87714 0
M  V30 4692 H 450.2 -3.50938 1.73085 0
M  V30 4693 H 449.823 -3.97519 0.0803036 0
M  V30 4694 N 450.82 -0.546701 -1.47814 0
M  V30 4695 C 452.068 -0.0187037 -2.02091 0
M  V30 4696 C 452.389 1.33168 -1.42447 0
M  V30 4697 O 451.659 1.86619 -0.595839 0
M  V30 4698 H 450.239 -0.00392531 -0.74699 0
M  V30 4699 H 452.901 -0.714327 -1.81338 0
M  V30 4700 H 451.997 0.0772219 -3.12004 0
M  V30 4701 N 452.299 1.55045 -0.282633 0
M  V30 4702 C 453.576 1.9179 0.384166 0
M  V30 4703 C 453.956 1.20778 1.73136 0
M  V30 4704 O 453.304 0.33719 2.25998 0
M  V30 4705 C 453.514 3.45149 0.517014 0
M  V30 4706 C 454.862 4.17064 0.796427 0
M  V30 4707 O 455.886 3.51084 0.601535 0
M  V30 4708 O 454.745 5.33837 1.16962 0
M  V30 4709 H 451.839 0.799483 0.211558 0
M  V30 4710 H 454.385 1.66474 -0.32934 0
M  V30 4711 H 453.157 3.88922 -0.430772 0
M  V30 4712 H 452.78 3.76443 1.2797 0
M  V30 4713 N 453.777 0.010035 1.57597 0
M  V30 4714 C 454.687 -0.994226 2.12491 0
M  V30 4715 C 455.703 -1.37013 1.07254 0
M  V30 4716 O 456.879 -1.45542 1.3921 0
M  V30 4717 C 453.944 -2.2642 2.62555 0
M  V30 4718 C 453.005 -1.95049 3.82432 0
M  V30 4719 C 452.238 -3.15991 4.30099 0
M  V30 4720 O 452.461 -4.28015 3.7704 0
M  V30 4721 O 451.395 -2.99403 5.22151 0
M  V30 4722 H 455.221 -0.557549 2.98538 0
M  V30 4723 H 452.806 -0.209413 1.47925 0
M  V30 4724 H 454.688 -3.01009 2.9491 0
M  V30 4725 H 453.363 -2.69306 1.796 0
M  V30 4726 H 452.27 -1.17904 3.55034 0
M  V30 4727 H 453.603 -1.56992 4.66491 0
M  V30 4728 N 455.255 -1.55392 -0.262866 0
M  V30 4729 C 456.187 -1.85392 -1.34768 0
M  V30 4730 C 457.2 -0.739069 -1.45057 0
M  V30 4731 O 458.389 -1.01703 -1.46693 0
M  V30 4732 C 455.489 -2.01088 -2.72795 0
M  V30 4733 C 454.662 -3.31828 -2.84972 0
M  V30 4734 C 453.721 -3.37464 -4.03738 0
M  V30 4735 O 452.747 -4.10778 -3.94018 0
M  V30 4736 N 453.949 -2.65599 -5.16176 0
M  V30 4737 H 456.714 -2.79029 -1.09375 0
M  V30 4738 H 454.275 -1.55434 -0.452981 0
M  V30 4739 H 456.267 -2.02217 -3.50557 0
M  V30 4740 H 454.837 -1.1427 -2.90966 0
M  V30 4741 H 454.057 -3.43152 -1.94012 0
M  V30 4742 H 455.345 -4.18032 -2.90045 0
M  V30 4743 H 454.743 -2.05736 -5.26962 0
M  V30 4744 H 453.3 -2.72439 -5.92132 0
M  V30 4745 N 456.733 0.527833 -1.48498 0
M  V30 4746 C 457.961 1.30823 -1.6029 0
M  V30 4747 C 458.376 1.86945 -0.263974 0
M  V30 4748 O 457.733 1.6651 0.747034 0
M  V30 4749 C 457.784 2.45756 -2.65116 0
M  V30 4750 O 457.505 1.91946 -3.93813 0
M  V30 4751 C 459.006 3.37543 -2.87367 0
M  V30 4752 H 456.226 0.397763 -0.540394 0
M  V30 4753 H 458.77 0.636529 -1.94341 0
M  V30 4754 H 456.925 3.08806 -2.33917 0
M  V30 4755 H 457.339 2.67195 -4.51339 0
M  V30 4756 H 458.813 4.14532 -3.6451 0
M  V30 4757 H 459.29 3.92905 -1.9627 0
M  V30 4758 H 459.896 2.80283 -3.19878 0
M  V30 4759 N 458.211 1.37122 0.776871 0
M  V30 4760 C 459.141 1.35164 1.90402 0
M  V30 4761 C 460.122 0.221069 1.68657 0
M  V30 4762 O 461.307 0.420642 1.8959 0
M  V30 4763 C 458.437 1.15274 3.27611 0
M  V30 4764 C 457.391 2.25289 3.63908 0
M  V30 4765 C 456.717 1.90527 4.99603 0
M  V30 4766 C 458.017 3.67446 3.71188 0
M  V30 4767 H 459.711 2.29482 1.92297 0
M  V30 4768 H 457.257 1.10465 0.923773 0
M  V30 4769 H 459.21 1.12536 4.06096 0
M  V30 4770 H 457.934 0.174102 3.26136 0
M  V30 4771 H 456.593 2.27174 2.87728 0
M  V30 4772 H 456.241 0.91206 4.94662 0
M  V30 4773 H 455.941 2.64193 5.24858 0
M  V30 4774 H 457.465 1.89367 5.80493 0
M  V30 4775 H 458.879 3.67719 4.39836 0
M  V30 4776 H 457.276 4.40123 4.07936 0
M  V30 4777 H 458.346 4.01443 2.71977 0
M  V30 4778 N 459.689 -1.00246 1.21608 0
M  V30 4779 C 461.105 -1.26435 0.973975 0
M  V30 4780 C 461.305 -1.98642 -0.338143 0
M  V30 4781 O 460.361 -2.29026 -1.06317 0
M  V30 4782 C 461.674 -2.08551 2.16626 0
M  V30 4783 C 463.222 -2.21769 2.20879 0
M  V30 4784 C 463.697 -3.07267 3.39633 0
M  V30 4785 N 465.188 -3.14855 3.39736 0
M  V30 4786 C 465.923 -3.81274 4.28273 0
M  V30 4787 N 465.419 -4.497 5.27012 0
M  V30 4788 N 467.212 -3.7794 4.16074 0
M  V30 4789 H 459.363 -0.518089 2.05984 0
M  V30 4790 H 461.626 -0.291368 0.902113 0
M  V30 4791 H 461.332 -1.62847 3.11727 0
M  V30 4792 H 461.206 -3.09303 2.15897 0
M  V30 4793 H 463.593 -2.66691 1.26332 0
M  V30 4794 H 463.674 -1.20478 2.25652 0
M  V30 4795 H 463.318 -2.63047 4.34475 0
M  V30 4796 H 463.248 -4.08678 3.321 0
M  V30 4797 H 465.739 -2.66147 2.6828 0
M  V30 4798 H 466.052 -4.98092 5.90867 0
M  V30 4799 H 464.397 -4.48479 5.30935 0
M  V30 4800 H 467.588 -3.23638 3.38195 0
M  V30 4801 H 467.761 -4.29424 4.85282 0
M  V30 4802 N 461.167 -1.02423 -1.1978 0
M  V30 4803 C 462.583 -0.740459 -1.41384 0
M  V30 4804 C 462.783 0.676827 -1.89793 0
M  V30 4805 O 461.839 1.4435 -2.0717 0
M  V30 4806 C 463.152 -1.77264 -2.42895 0
M  V30 4807 C 464.7 -1.79165 -2.56649 0
M  V30 4808 C 465.175 -2.8133 -3.6141 0
M  V30 4809 N 466.666 -2.80118 -3.68901 0
M  V30 4810 C 467.401 -3.55824 -4.49641 0
M  V30 4811 N 466.897 -4.41231 -5.34123 0
M  V30 4812 N 468.69 -3.44387 -4.44246 0
M  V30 4813 H 460.841 -1.9391 -0.866764 0
M  V30 4814 H 463.104 -0.838074 -0.443098 0
M  V30 4815 H 462.81 -2.7884 -2.14339 0
M  V30 4816 H 462.684 -1.59108 -3.42001 0
M  V30 4817 H 465.071 -0.782702 -2.84531 0
M  V30 4818 H 465.152 -2.01396 -1.57713 0
M  V30 4819 H 464.796 -3.82394 -3.34271 0
M  V30 4820 H 464.726 -2.56359 -4.59986 0
M  V30 4821 H 467.217 -2.1817 -3.08562 0
M  V30 4822 H 467.53 -4.95747 -5.92836 0
M  V30 4823 H 465.875 -4.45306 -5.33599 0
M  V30 4824 H 469.066 -2.7708 -3.77285 0
M  V30 4825 H 469.239 -4.0364 -5.06931 0
M  V30 4826 N 462.645 1.35699 -0.801477 0
M  V30 4827 C 463.892 1.98913 -0.379459 0
M  V30 4828 C 464.22 1.63592 1.05204 0
M  V30 4829 O 463.475 0.888563 1.74365 0
M  V30 4830 C 463.774 3.53828 -0.504041 0
M  V30 4831 C 463.44 4.09002 -1.8981 0
M  V30 4832 C 462.102 4.23783 -2.27951 0
M  V30 4833 C 464.454 4.38939 -2.81038 0
M  V30 4834 C 461.782 4.65816 -3.56696 0
M  V30 4835 C 464.134 4.82409 -4.09224 0
M  V30 4836 C 462.798 4.95395 -4.4737 0
M  V30 4837 H 462.068 0.727874 -0.138854 0
M  V30 4838 H 464.715 1.61994 -1.02128 0
M  V30 4839 H 463.02 3.91175 0.221242 0
M  V30 4840 H 464.717 4.00687 -0.158361 0
M  V30 4841 H 461.307 3.97946 -1.59176 0
M  V30 4842 H 465.491 4.27077 -2.52821 0
M  V30 4843 H 460.747 4.74059 -3.86106 0
M  V30 4844 H 464.921 5.04535 -4.80018 0
M  V30 4845 H 462.548 5.27724 -5.47185 0
M  V30 4846 N 464.123 0.554532 1.47522 0
M  V30 4847 C 465.053 -0.182974 2.32782 0
M  V30 4848 C 466.034 -0.911377 1.43624 0
M  V30 4849 O 467.219 -0.892366 1.72483 0
M  V30 4850 C 464.349 -1.21513 3.25349 0
M  V30 4851 C 463.303 -0.603355 4.23726 0
M  V30 4852 C 462.629 -1.73995 5.05598 0
M  V30 4853 C 463.929 0.441121 5.20434 0
M  V30 4854 H 465.623 0.52882 2.94693 0
M  V30 4855 H 463.169 0.255759 1.41711 0
M  V30 4856 H 465.122 -1.73922 3.83835 0
M  V30 4857 H 463.846 -1.95683 2.61487 0
M  V30 4858 H 462.505 -0.10059 3.66462 0
M  V30 4859 H 462.153 -2.47063 4.38143 0
M  V30 4860 H 461.853 -1.3364 5.72201 0
M  V30 4861 H 463.377 -2.26735 5.66942 0
M  V30 4862 H 464.791 0.00319931 5.733 0
M  V30 4863 H 463.188 0.763402 5.95224 0
M  V30 4864 H 464.258 1.33799 4.66075 0
M  V30 4865 N 465.601 -1.54893 0.290851 0
M  V30 4866 C 466.849 -1.99538 -0.320756 0
M  V30 4867 C 467.17 -1.18075 -1.55188 0
M  V30 4868 O 466.44 -0.274162 -1.93972 0
M  V30 4869 H 465.02 -0.737052 -0.121507 0
M  V30 4870 H 467.682 -1.90755 0.399832 0
M  V30 4871 H 466.778 -3.06282 -0.599802 0
M  V30 4872 N 467.08 -0.0183926 -1.57589 0
M  V30 4873 C 468.328 0.661253 -1.90976 0
M  V30 4874 C 468.649 1.73281 -0.894353 0
M  V30 4875 O 467.919 1.9579 0.0656788 0
M  V30 4876 H 466.499 0.247233 -0.704901 0
M  V30 4877 H 469.161 -0.0636639 -1.94796 0
M  V30 4878 H 468.257 1.12083 -2.9128 0
M  V30 4879 N 468.558 1.5553 0.254621 0
M  V30 4880 C 469.488 1.9268 1.31897 0
M  V30 4881 C 470.469 0.790797 1.506 0
M  V30 4882 O 471.654 1.05045 1.63337 0
M  V30 4883 C 468.784 2.21477 2.67517 0
M  V30 4884 C 467.738 3.37256 2.63519 0
M  V30 4885 C 467.064 3.51576 4.02862 0
M  V30 4886 C 468.364 4.73157 2.21179 0
M  V30 4887 H 470.058 2.81832 1.01051 0
M  V30 4888 H 467.604 1.35599 0.484662 0
M  V30 4889 H 469.557 2.46055 3.42104 0
M  V30 4890 H 468.281 1.29144 2.99982 0
M  V30 4891 H 466.94 3.12675 1.9139 0
M  V30 4892 H 466.588 2.56676 4.32581 0
M  V30 4893 H 466.288 4.2943 4.01078 0
M  V30 4894 H 467.812 3.78467 4.79161 0
M  V30 4895 H 469.226 4.97158 2.85494 0
M  V30 4896 H 467.623 5.54058 2.30521 0
M  V30 4897 H 468.693 4.70739 1.16332 0
M  V30 4898 N 470.036 -0.519951 1.48776 0
M  V30 4899 C 471.261 -1.30447 1.6124 0
M  V30 4900 C 471.686 -1.86055 0.276591 0
M  V30 4901 O 471.044 -1.64915 -0.753183 0
M  V30 4902 C 471.092 -2.42406 2.66967 0
M  V30 4903 O 470.196 -3.45728 2.24824 0
M  V30 4904 H 469.537 -0.385924 0.540332 0
M  V30 4905 H 472.067 -0.624572 1.94834 0
M  V30 4906 H 472.077 -2.88447 2.88552 0
M  V30 4907 H 470.752 -2.01294 3.63941 0
M  V30 4908 H 469.329 -3.05737 2.13494 0
M  V30 4909 N 471.514 -1.37532 -0.769588 0
M  V30 4910 C 472.444 -1.36172 -1.89682 0
M  V30 4911 C 473.425 -0.23001 -1.68538 0
M  V30 4912 O 474.61 -0.43069 -1.89364 0
M  V30 4913 C 471.74 -1.1701 -3.26995 0
M  V30 4914 C 470.694 -2.27216 -3.62708 0
M  V30 4915 C 470.02 -1.93174 -4.98586 0
M  V30 4916 C 471.32 -3.6941 -3.69234 0
M  V30 4917 H 473.014 -2.30499 -1.91078 0
M  V30 4918 H 470.56 -1.10953 -0.917902 0
M  V30 4919 H 472.513 -1.14688 -4.05493 0
M  V30 4920 H 471.237 -0.191395 -3.26039 0
M  V30 4921 H 469.896 -2.28697 -2.86519 0
M  V30 4922 H 469.544 -0.938281 -4.94171 0
M  V30 4923 H 469.244 -2.66973 -5.23449 0
M  V30 4924 H 470.768 -1.92443 -5.79481 0
M  V30 4925 H 472.182 -3.70047 -4.37879 0
M  V30 4926 H 470.579 -4.4228 -4.05597 0
M  V30 4927 H 471.649 -4.0288 -2.69844 0
M  V30 4928 N 472.992 0.995999 -1.22138 0
M  V30 4929 C 474.239 1.7351 -1.04406 0
M  V30 4930 C 474.567 1.89884 0.421244 0
M  V30 4931 O 473.822 1.43683 1.32867 0
M  V30 4932 C 474.121 3.14553 -1.6968 0
M  V30 4933 C 473.787 3.18102 -3.19565 0
M  V30 4934 C 472.449 3.18778 -3.60464 0
M  V30 4935 C 474.801 3.14636 -4.15516 0
M  V30 4936 C 472.129 3.13684 -4.95801 0
M  V30 4937 C 474.481 3.11084 -5.50826 0
M  V30 4938 C 473.145 3.10074 -5.91109 0
M  V30 4939 H 472.415 0.634916 -0.38205 0
M  V30 4940 H 475.062 1.1667 -1.51857 0
M  V30 4941 H 473.367 3.74682 -1.14546 0
M  V30 4942 H 475.064 3.70477 -1.53454 0
M  V30 4943 H 471.654 3.18324 -2.86998 0
M  V30 4944 H 475.838 3.13266 -3.84939 0
M  V30 4945 H 471.094 3.11245 -5.26247 0
M  V30 4946 H 475.268 3.07357 -6.24904 0
M  V30 4947 H 472.895 3.05882 -6.95946 0
M  V30 4948 N 474.47 1.03057 1.19235 0
M  V30 4949 C 475.698 0.747697 1.92917 0
M  V30 4950 C 476.113 -0.69372 1.75593 0
M  V30 4951 O 475.47 -1.47191 1.07894 0
M  V30 4952 C 475.521 1.09159 3.44625 0
M  V30 4953 O 475.242 2.47641 3.61394 0
M  V30 4954 C 476.743 0.831763 4.35427 0
M  V30 4955 H 473.963 0.273453 0.612751 0
M  V30 4956 H 476.507 1.37552 1.51327 0
M  V30 4957 H 474.662 0.508919 3.84043 0
M  V30 4958 H 475.076 2.60499 4.55237 0
M  V30 4959 H 476.55 1.12233 5.4047 0
M  V30 4960 H 477.027 -0.233769 4.38577 0
M  V30 4961 H 477.633 1.39725 4.01693 0
M  V30 4962 N 475.948 -1.35272 0.808662 0
M  V30 4963 C 476.878 -2.32315 0.234981 0
M  V30 4964 C 477.859 -1.57572 -0.64071 0
M  V30 4965 O 479.044 -1.8563 -0.570551 0
M  V30 4966 C 476.174 -3.41801 -0.615601 0
M  V30 4967 C 475.128 -4.27694 0.161767 0
M  V30 4968 C 474.454 -5.28519 -0.810649 0
M  V30 4969 C 475.754 -5.04231 1.36193 0
M  V30 4970 H 477.448 -2.80543 1.04575 0
M  V30 4971 H 474.994 -1.3488 0.504315 0
M  V30 4972 H 476.947 -4.08693 -1.02702 0
M  V30 4973 H 475.671 -2.92186 -1.45928 0
M  V30 4974 H 474.33 -3.62384 0.554382 0
M  V30 4975 H 473.978 -4.75171 -1.64988 0
M  V30 4976 H 473.678 -5.8686 -0.294822 0
M  V30 4977 H 475.202 -5.98283 -1.22023 0
M  V30 4978 H 476.616 -5.64058 1.02528 0
M  V30 4979 H 475.013 -5.72077 1.81239 0
M  V30 4980 H 476.083 -4.34753 2.14751 0
M  V30 4981 N 477.426 -0.562348 -1.47226 0
M  V30 4982 C 478.389 0.172056 -2.28553 0
M  V30 4983 C 479.389 0.837928 -1.37242 0
M  V30 4984 O 480.579 0.693001 -1.59822 0
M  V30 4985 C 477.711 1.25223 -3.17068 0
M  V30 4986 H 478.904 -0.542401 -2.94954 0
M  V30 4987 H 476.457 -0.319493 -1.53 0
M  V30 4988 H 477.192 1.99892 -2.55369 0
M  V30 4989 H 476.977 0.779515 -3.84273 0
M  V30 4990 H 478.467 1.76791 -3.78332 0
M  V30 4991 N 478.904 1.54736 -0.299062 0
M  V30 4992 C 479.814 2.27127 0.587413 0
M  V30 4993 C 480.83 1.30575 1.15005 0
M  V30 4994 O 482.006 1.63554 1.17525 0
M  V30 4995 C 479.071 2.99645 1.74395 0
M  V30 4996 C 478.132 4.11731 1.21559 0
M  V30 4997 C 477.365 4.80781 2.317 0
M  V30 4998 O 477.588 4.4918 3.51558 0
M  V30 4999 O 476.522 5.68226 1.98501 0
M  V30 5000 H 480.348 3.037 0.000250109 0
M  V30 5001 H 477.933 1.49256 -0.0655919 0
M  V30 5002 H 479.815 3.45138 2.4178 0
M  V30 5003 H 478.49 2.25969 2.31775 0
M  V30 5004 H 477.397 3.70641 0.507514 0
M  V30 5005 H 478.73 4.87379 0.687233 0
M  V30 5006 N 480.382 0.0267497 1.57577 0
M  V30 5007 C 481.607 -0.666227 1.96408 0
M  V30 5008 C 482.032 -1.65004 0.903071 0
M  V30 5009 O 481.39 -1.80787 -0.136263 0
M  V30 5010 C 481.438 -1.35101 3.34335 0
M  V30 5011 O 480.542 -2.46623 3.30531 0
M  V30 5012 H 479.883 -0.175206 0.640468 0
M  V30 5013 H 482.413 0.0878977 2.04411 0
M  V30 5014 H 482.423 -1.70834 3.70513 0
M  V30 5015 H 481.098 -0.629844 4.11103 0
M  V30 5016 H 479.675 -2.13019 3.06068 0
M  V30 5017 N 481.861 -1.55662 -0.24637 0
M  V30 5018 C 482.791 -1.93377 -1.30873 0
M  V30 5019 C 483.772 -0.798773 -1.50179 0
M  V30 5020 O 484.957 -1.0591 -1.62778 0
M  V30 5021 C 482.087 -2.22893 -2.66338 0
M  V30 5022 C 481.041 -3.38649 -2.61727 0
M  V30 5023 C 480.367 -3.53708 -4.00992 0
M  V30 5024 C 481.667 -4.74323 -2.18666 0
M  V30 5025 H 483.361 -2.82363 -0.995552 0
M  V30 5026 H 480.907 -1.35854 -0.477464 0
M  V30 5027 H 482.86 -2.47866 -3.40794 0
M  V30 5028 H 481.584 -1.30733 -2.99293 0
M  V30 5029 H 480.243 -3.13685 -1.89729 0
M  V30 5030 H 479.891 -2.58967 -4.31214 0
M  V30 5031 H 479.591 -4.31551 -3.98795 0
M  V30 5032 H 481.115 -3.81003 -4.77147 0
M  V30 5033 H 482.529 -4.98665 -2.82854 0
M  V30 5034 H 480.926 -5.55273 -2.27579 0
M  V30 5035 H 481.996 -4.71349 -1.13834 0
M  V30 5036 N 483.339 0.512053 -1.4905 0
M  V30 5037 C 484.587 1.26436 -1.57665 0
M  V30 5038 C 484.908 1.93255 -0.260293 0
M  V30 5039 O 484.178 1.82206 0.719564 0
M  V30 5040 H 482.758 0.469658 -0.580888 0
M  V30 5041 H 485.42 0.594398 -1.85615 0
M  V30 5042 H 484.516 2.03417 -2.36702 0
M  V30 5043 N 484.817 1.37938 0.762283 0
M  V30 5044 C 486.065 1.33404 1.51815 0
M  V30 5045 C 486.386 -0.0780975 1.94844 0
M  V30 5046 O 485.656 -1.02405 1.67003 0
M  V30 5047 H 484.236 0.490839 0.563104 0
M  V30 5048 H 486.898 1.72527 0.906669 0
M  V30 5049 H 485.994 1.97926 2.41313 0
M  V30 5050 N 486.295 -0.989507 1.22664 0
M  V30 5051 C 487.541 -1.7321 1.05481 0
M  V30 5052 C 487.874 -1.89852 -0.408635 0
M  V30 5053 O 487.149 -1.44416 -1.30285 0
M  V30 5054 C 487.432 -3.1357 1.77047 0
M  V30 5055 C 487.285 -3.04555 3.31008 0
M  V30 5056 C 488.604 -4.12812 1.5256 0
M  V30 5057 H 485.723 -0.628697 0.384589 0
M  V30 5058 H 488.365 -1.15258 1.51049 0
M  V30 5059 H 486.515 -3.63046 1.3831 0
M  V30 5060 H 488.187 -2.62674 3.7921 0
M  V30 5061 H 486.43 -2.41278 3.6051 0
M  V30 5062 H 487.101 -4.03894 3.76263 0
M  V30 5063 H 489.577 -3.72106 1.86215 0
M  V30 5064 H 488.453 -5.09132 2.05124 0
M  V30 5065 H 488.714 -4.39711 0.458936 0
M  V30 5066 N 487.773 -1.03688 -1.18687 0
M  V30 5067 C 488.683 -0.634908 -2.25845 0
M  V30 5068 C 489.699 0.337065 -1.70704 0
M  V30 5069 O 490.875 0.192943 -2.00474 0
M  V30 5070 C 487.94 -0.000180054 -3.467 0
M  V30 5071 C 487.001 -1.02067 -4.1699 0
M  V30 5072 C 486.234 -0.41614 -5.32075 0
M  V30 5073 O 486.457 0.778712 -5.65059 0
M  V30 5074 O 485.391 -1.14296 -5.90948 0
M  V30 5075 H 489.217 -1.52757 -2.62486 0
M  V30 5076 H 486.802 -0.807533 -1.25695 0
M  V30 5077 H 488.684 0.353342 -4.19916 0
M  V30 5078 H 487.359 0.866367 -3.11891 0
M  V30 5079 H 486.266 -1.42592 -3.45859 0
M  V30 5080 H 487.599 -1.85786 -4.5579 0
M  V30 5081 N 489.251 1.34841 -0.815825 0
M  V30 5082 C 490.476 2.03261 -0.41226 0
M  V30 5083 C 490.901 1.61055 0.971751 0
M  V30 5084 O 490.259 0.7917 1.63101 0
M  V30 5085 C 490.307 3.56914 -0.514289 0
M  V30 5086 O 489.411 4.09728 0.468675 0
M  V30 5087 H 488.752 0.641664 -0.170771 0
M  V30 5088 H 491.282 1.72241 -1.10427 0
M  V30 5089 H 491.292 4.06156 -0.387457 0
M  V30 5090 H 489.967 3.86982 -1.52375 0
M  V30 5091 H 488.544 3.71681 0.301316 0
M  V30 5092 N 490.729 0.570148 1.46925 0
M  V30 5093 C 491.659 -0.158274 2.32963 0
M  V30 5094 C 492.64 -0.896093 1.44583 0
M  V30 5095 O 493.825 -0.874022 1.7342 0
M  V30 5096 C 490.955 -1.18055 3.26619 0
M  V30 5097 C 489.909 -0.558379 4.24342 0
M  V30 5098 C 489.235 -1.68623 5.07415 0
M  V30 5099 C 490.535 0.496295 5.19937 0
M  V30 5100 H 492.229 0.560046 2.94115 0
M  V30 5101 H 489.775 0.270775 1.41431 0
M  V30 5102 H 491.728 -1.69841 3.85658 0
M  V30 5103 H 490.452 -1.92899 2.63548 0
M  V30 5104 H 489.111 -0.0617157 3.66548 0
M  V30 5105 H 488.759 -2.42402 4.40738 0
M  V30 5106 H 488.459 -1.27564 5.73586 0
M  V30 5107 H 489.983 -2.20709 5.69315 0
M  V30 5108 H 491.397 0.0640052 5.73264 0
M  V30 5109 H 489.794 0.82649 5.94381 0
M  V30 5110 H 490.864 1.38735 4.6463 0
M  V30 5111 N 492.207 -1.54576 0.307264 0
M  V30 5112 C 493.456 -1.99442 -0.300976 0
M  V30 5113 C 493.769 -1.19928 -1.5452 0
M  V30 5114 O 494.975 -1.55092 -2.22842 0
M  V30 5115 C 493.431 -3.55084 -0.586809 0
M  V30 5116 C 493.039 -4.43413 0.639438 0
M  V30 5117 C 494.783 -4.0846 -1.1559 0
M  V30 5118 C 492.69 -5.90499 0.326411 0
M  V30 5119 H 491.62 -0.744986 -0.116238 0
M  V30 5120 H 494.271 -1.787 0.416947 0
M  V30 5121 H 492.653 -3.71749 -1.36449 0
M  V30 5122 H 493.827 -4.38522 1.41545 0
M  V30 5123 H 492.142 -4.00842 1.1276 0
M  V30 5124 H 494.739 -5.15926 -1.40445 0
M  V30 5125 H 495.082 -3.59443 -2.10015 0
M  V30 5126 H 495.615 -3.95362 -0.439778 0
M  V30 5127 H 492.354 -6.43676 1.23939 0
M  V30 5128 H 491.874 -5.98382 -0.412212 0
M  V30 5129 H 493.553 -6.46962 -0.0697393 0
M  V30 5130 N 493.685 -0.035106 -1.57561 0
M  V30 5131 C 494.91 0.655802 -1.96759 0
M  V30 5132 C 495.335 1.64523 -0.911809 0
M  V30 5133 O 494.693 1.80857 0.126673 0
M  V30 5134 C 494.741 1.33326 -3.35047 0
M  V30 5135 O 493.845 2.44866 -3.31835 0
M  V30 5136 H 493.186 0.171807 -0.641388 0
M  V30 5137 H 495.716 -0.0987369 -2.04362 0
M  V30 5138 H 495.726 1.68867 -3.71413 0
M  V30 5139 H 494.401 0.608033 -4.11431 0
M  V30 5140 H 492.978 2.11392 -3.07193 0
M  V30 5141 N 495.163 1.55791 0.238111 0
M  V30 5142 C 496.113 1.87444 1.29803 0
M  V30 5143 C 497.097 0.736043 1.43078 0
M  V30 5144 O 498.289 0.998146 1.46171 0
M  V30 5145 C 495.418 2.18028 2.65177 0
M  V30 5146 C 494.504 3.38217 2.55871 0
M  V30 5147 N 494.895 4.57264 2.16202 0
M  V30 5148 C 493.193 3.41502 2.86866 0
M  V30 5149 C 493.894 5.3941 2.17744 0
M  V30 5150 N 492.87 4.78695 2.57589 0
M  V30 5151 H 496.672 2.7701 0.981965 0
M  V30 5152 H 494.186 1.56135 0.44672 0
M  V30 5153 H 496.183 2.38873 3.4168 0
M  V30 5154 H 494.843 1.29765 2.97643 0
M  V30 5155 H 495.854 4.82727 1.87602 0
M  V30 5156 H 492.531 2.63536 3.23813 0
M  V30 5157 H 493.921 6.44671 1.89339 0
M  V30 5158 N 496.642 -0.504142 1.49319 0
M  V30 5159 C 497.605 -1.5883 1.65244 0
M  V30 5160 C 498.605 -1.52009 0.524386 0
M  V30 5161 O 499.795 -1.55218 0.79077 0
M  V30 5162 C 496.927 -2.98481 1.64687 0
M  V30 5163 H 498.12 -1.4604 2.61939 0
M  V30 5164 H 495.673 -0.728144 1.38303 0
M  V30 5165 H 496.408 -3.16751 0.695644 0
M  V30 5166 H 496.193 -3.0484 2.46607 0
M  V30 5167 H 497.683 -3.77256 1.79075 0
M  V30 5168 N 498.12 -1.38341 -0.754957 0
M  V30 5169 C 499.083 -1.35262 -1.85032 0
M  V30 5170 C 500.083 -0.253393 -1.58791 0
M  V30 5171 O 501.273 -0.510205 -1.66561 0
M  V30 5172 C 498.405 -1.10544 -3.22479 0
M  V30 5173 H 499.598 -2.32712 -1.8917 0
M  V30 5174 H 497.151 -1.23614 -0.956515 0
M  V30 5175 H 497.886 -0.136952 -3.24011 0
M  V30 5176 H 497.671 -1.90127 -3.4292 0
M  V30 5177 H 499.161 -1.11082 -4.02555 0
M  V30 5178 N 499.598 0.982988 -1.23187 0
M  V30 5179 C 500.826 1.75921 -1.08901 0
M  V30 5180 C 501.241 1.85341 0.359719 0
M  V30 5181 O 500.598 1.33072 1.24892 0
M  V30 5182 C 500.649 3.18742 -1.70545 0
M  V30 5183 O 500.37 3.09814 -3.09753 0
M  V30 5184 C 501.871 4.1277 -1.61667 0
M  V30 5185 H 499.091 0.552166 -0.381252 0
M  V30 5186 H 501.635 1.23516 -1.62985 0
M  V30 5187 H 499.79 3.68182 -1.20501 0
M  V30 5188 H 500.204 3.99703 -3.39614 0
M  V30 5189 H 501.678 5.10697 -2.09506 0
M  V30 5190 H 502.155 4.3542 -0.575009 0
M  V30 5191 H 502.761 3.69232 -2.11064 0
M  V30 5192 N 501.076 1.04316 1.18135 0
M  V30 5193 C 502.009 0.580823 2.20685 0
M  V30 5194 C 502.987 -0.385943 1.57953 0
M  V30 5195 O 504.171 -0.299654 1.86103 0
M  V30 5196 C 501.298 -0.151162 3.38363 0
M  V30 5197 C 500.344 0.769247 4.19505 0
M  V30 5198 S 501.177 2.25352 4.85774 0
M  V30 5199 C 502.333 1.53246 6.0685 0
M  V30 5200 H 502.566 1.44968 2.5956 0
M  V30 5201 H 500.099 0.85434 1.28609 0
M  V30 5202 H 502.057 -0.567315 4.06561 0
M  V30 5203 H 500.718 -0.995936 2.97892 0
M  V30 5204 H 499.911 0.203335 5.0359 0
M  V30 5205 H 499.513 1.12436 3.56699 0
M  V30 5206 H 501.805 0.82689 6.72435 0
M  V30 5207 H 502.748 2.35044 6.67952 0
M  V30 5208 H 503.156 1.0237 5.5514 0
M  V30 5209 N 502.554 -1.34406 0.822964 0
M  V30 5210 C 503.782 -2.02508 0.424039 0
M  V30 5211 C 504.197 -1.61975 -0.970022 0
M  V30 5212 O 503.554 -0.825228 -1.62777 0
M  V30 5213 C 503.605 -3.57789 0.516657 0
M  V30 5214 O 503.326 -3.96853 1.85577 0
M  V30 5215 C 504.827 -4.43157 0.112637 0
M  V30 5216 H 502.047 -0.649063 0.170173 0
M  V30 5217 H 504.591 -1.7168 1.11113 0
M  V30 5218 H 502.746 -3.87207 -0.122353 0
M  V30 5219 H 503.16 -4.91538 1.83005 0
M  V30 5220 H 504.634 -5.51527 0.228526 0
M  V30 5221 H 505.111 -4.28939 -0.943837 0
M  V30 5222 H 505.717 -4.19067 0.725449 0
M  V30 5223 N 504.032 -0.577932 -1.46621 0
M  V30 5224 C 504.982 0.178869 -2.27297 0
M  V30 5225 C 505.966 0.866279 -1.35589 0
M  V30 5226 O 507.158 0.761163 -1.59798 0
M  V30 5227 C 504.287 1.19499 -3.2183 0
M  V30 5228 C 503.373 0.50994 -4.21023 0
M  V30 5229 N 503.764 -0.43177 -5.03954 0
M  V30 5230 C 502.062 0.761287 -4.39455 0
M  V30 5231 C 502.763 -0.831693 -5.75724 0
M  V30 5232 N 501.739 -0.181897 -5.43296 0
M  V30 5233 H 505.541 -0.544859 -2.88805 0
M  V30 5234 H 503.055 -0.399373 -1.57413 0
M  V30 5235 H 505.052 1.75131 -3.78332 0
M  V30 5236 H 503.712 1.91959 -2.61881 0
M  V30 5237 H 504.723 -0.807045 -5.11573 0
M  V30 5238 H 501.4 1.47282 -3.90659 0
M  V30 5239 H 502.79 -1.6067 -6.52407 0
M  V30 5240 N 505.51 1.54411 -0.315457 0
M  V30 5241 C 506.473 2.22713 0.54142 0
M  V30 5242 C 507.473 1.2179 1.04995 0
M  V30 5243 O 508.663 1.46426 0.943667 0
M  V30 5244 C 505.795 2.92485 1.75116 0
M  V30 5245 H 506.988 2.99849 -0.0555508 0
M  V30 5246 H 504.541 1.56159 -0.0664453 0
M  V30 5247 H 505.276 2.19466 2.38758 0
M  V30 5248 H 505.061 3.66483 1.39401 0
M  V30 5249 H 506.551 3.44548 2.35959 0
M  V30 5250 N 506.988 0.0434614 1.5754 0
M  V30 5251 C 508.236 -0.630786 1.92004 0
M  V30 5252 C 508.557 -1.71836 0.921807 0
M  V30 5253 O 507.827 -1.9587 -0.034522 0
M  V30 5254 H 506.407 -0.235988 0.708745 0
M  V30 5255 H 509.069 0.0946462 1.9467 0
M  V30 5256 H 508.165 -1.07434 2.93026 0
M  V30 5257 N 508.466 -1.55915 -0.229846 0
M  V30 5258 C 509.399 -1.86734 -1.3117 0
M  V30 5259 C 510.377 -0.723947 -1.45595 0
M  V30 5260 O 511.561 -0.971462 -1.61539 0
M  V30 5261 C 508.688 -2.06707 -2.68309 0
M  V30 5262 C 507.734 -3.2938 -2.70944 0
M  V30 5263 S 508.567 -4.85547 -2.25842 0
M  V30 5264 C 509.723 -5.08546 -3.64873 0
M  V30 5265 H 509.956 -2.78204 -1.04832 0
M  V30 5266 H 507.489 -1.48243 -0.431681 0
M  V30 5267 H 509.447 -2.18898 -3.47267 0
M  V30 5268 H 508.108 -1.16049 -2.91876 0
M  V30 5269 H 507.301 -3.40374 -3.71701 0
M  V30 5270 H 506.903 -3.16004 -2.00044 0
M  V30 5271 H 509.195 -4.96935 -4.60502 0
M  V30 5272 H 510.138 -6.10465 -3.58801 0
M  V30 5273 H 510.546 -4.36314 -3.58176 0
M  V30 5274 N 509.944 0.496216 -1.49584 0
M  V30 5275 C 510.907 1.57952 -1.66084 0
M  V30 5276 C 511.907 1.51729 -0.53244 0
M  V30 5277 O 513.097 1.54796 -0.79899 0
M  V30 5278 C 510.229 2.97604 -1.66268 0
M  V30 5279 H 511.422 1.44649 -2.6271 0
M  V30 5280 H 508.975 0.7208 -1.38687 0
M  V30 5281 H 509.71 3.16378 -0.712432 0
M  V30 5282 H 509.495 3.03528 -2.4822 0
M  V30 5283 H 510.985 3.76301 -1.81073 0
M  V30 5284 N 511.423 1.38739 0.74761 0
M  V30 5285 C 512.834 1.31507 1.32524 0
M  V30 5286 C 513.185 -0.0263963 1.96182 0
M  V30 5287 O 512.31 -0.92849 1.95469 0
M  V30 5288 C 512.905 2.38162 2.40966 0
M  V30 5289 C 511.464 2.34489 2.94434 0
M  V30 5290 C 510.611 2.20712 1.67873 0
M  V30 5291 H 513.562 1.4901 0.546043 0
M  V30 5292 H 513.583 2.04222 3.21051 0
M  V30 5293 H 513.095 3.35783 1.94605 0
M  V30 5294 H 511.196 1.40467 3.45108 0
M  V30 5295 H 511.309 3.28861 3.48407 0
M  V30 5296 H 509.673 1.67667 1.91729 0
M  V30 5297 H 510.456 3.20285 1.23582 0
M  V30 5298 N 512.901 -0.976442 1.23707 0
M  V30 5299 C 513.811 -2.10359 1.03856 0
M  V30 5300 C 514.827 -1.73991 -0.0180919 0
M  V30 5301 O 516.003 -2.0061 0.178211 0
M  V30 5302 C 513.068 -3.40809 0.636387 0
M  V30 5303 C 512.129 -3.91179 1.76854 0
M  V30 5304 C 511.362 -5.15404 1.38546 0
M  V30 5305 O 511.585 -5.69754 0.27142 0
M  V30 5306 O 510.519 -5.5994 2.20797 0
M  V30 5307 H 514.345 -2.29997 1.98331 0
M  V30 5308 H 511.93 -1.08742 1.02448 0
M  V30 5309 H 513.812 -4.19269 0.423223 0
M  V30 5310 H 512.487 -3.22493 -0.279322 0
M  V30 5311 H 511.394 -3.13819 2.03638 0
M  V30 5312 H 512.727 -4.13958 2.6627 0
M  V30 5313 N 514.379 -1.04941 -1.1758 0
M  V30 5314 C 515.342 -0.652456 -2.19717 0
M  V30 5315 C 516.342 0.294745 -1.58076 0
M  V30 5316 O 517.532 0.0789579 -1.74021 0
M  V30 5317 C 514.664 0.0420712 -3.40874 0
M  V30 5318 H 515.857 -1.55642 -2.5635 0
M  V30 5319 H 513.41 -0.842995 -1.31618 0
M  V30 5320 H 514.145 0.95943 -3.09783 0
M  V30 5321 H 513.93 -0.638844 -3.86861 0
M  V30 5322 H 515.42 0.306 -4.16477 0
M  V30 5323 N 515.857 1.33968 -0.830081 0
M  V30 5324 C 517.273 1.51003 -0.516742 0
M  V30 5325 C 517.473 1.77286 0.957694 0
M  V30 5326 O 516.529 1.82797 1.74188 0
M  V30 5327 C 517.842 2.67036 -1.38247 0
M  V30 5328 C 519.39 2.80919 -1.38034 0
M  V30 5329 C 519.865 4.00004 -2.23071 0
M  V30 5330 N 521.356 4.07224 -2.20733 0
M  V30 5331 C 522.091 4.98541 -2.83275 0
M  V30 5332 N 521.587 5.95033 -3.54835 0
M  V30 5333 N 523.38 4.91469 -2.72791 0
M  V30 5334 H 515.531 1.15168 -1.78466 0
M  V30 5335 H 517.794 0.565443 -0.760906 0
M  V30 5336 H 517.5 2.54266 -2.42985 0
M  V30 5337 H 517.374 3.62226 -1.05225 0
M  V30 5338 H 519.761 2.93127 -0.340713 0
M  V30 5339 H 519.842 1.86517 -1.75057 0
M  V30 5340 H 519.486 3.88557 -3.27087 0
M  V30 5341 H 519.416 4.93634 -1.83394 0
M  V30 5342 H 521.907 3.38162 -1.68687 0
M  V30 5343 H 522.22 6.61357 -3.99784 0
M  V30 5344 H 520.565 5.95135 -3.58942 0
M  V30 5345 H 523.756 4.15048 -2.16456 0
M  V30 5346 H 523.929 5.62439 -3.21818 0
M  V30 5347 N 517.335 0.585699 1.46312 0
M  V30 5348 C 518.298 -0.135673 2.28798 0
M  V30 5349 C 519.298 -0.815988 1.38558 0
M  V30 5350 O 520.488 -0.667487 1.60904 0
M  V30 5351 C 517.62 -1.20163 3.1902 0
M  V30 5352 H 518.813 0.589257 2.94054 0
M  V30 5353 H 516.366 0.343794 1.52472 0
M  V30 5354 H 517.101 -1.95804 2.58517 0
M  V30 5355 H 516.886 -0.718282 3.85465 0
M  V30 5356 H 518.376 -1.70749 3.81096 0
M  V30 5357 N 518.813 -1.54241 0.323641 0
M  V30 5358 C 519.776 -2.22997 -0.529602 0
M  V30 5359 C 520.776 -1.22345 -1.04347 0
M  V30 5360 O 521.966 -1.46924 -0.935889 0
M  V30 5361 C 519.098 -2.93409 -1.73562 0
M  V30 5362 H 520.291 -2.99815 0.0714518 0
M  V30 5363 H 517.844 -1.56121 0.0747258 0
M  V30 5364 H 518.579 -2.20729 -2.37591 0
M  V30 5365 H 518.364 -3.67217 -1.37456 0
M  V30 5366 H 519.854 -3.45794 -2.34128 0
M  V30 5367 N 520.291 -0.0518155 -1.57515 0
M  V30 5368 C 521.254 0.907547 -2.10467 0
M  V30 5369 C 522.254 1.23947 -1.02439 0
M  V30 5370 O 523.444 1.17604 -1.2851 0
M  V30 5371 C 520.576 2.21723 -2.58944 0
M  V30 5372 H 521.769 0.44851 -2.96527 0
M  V30 5373 H 519.322 0.196598 -1.55059 0
M  V30 5374 H 520.057 2.72206 -1.76279 0
M  V30 5375 H 519.842 1.98935 -3.37886 0
M  V30 5376 H 521.332 2.90441 -3.00056 0
M  V30 5377 N 521.769 1.56035 0.221574 0
M  V30 5378 C 523.017 1.78693 0.944102 0
M  V30 5379 C 523.338 0.620317 1.8487 0
M  V30 5380 O 522.608 -0.362784 1.92512 0
M  V30 5381 H 521.188 0.659082 0.351597 0
M  V30 5382 H 523.85 1.93497 0.233435 0
M  V30 5383 H 522.946 2.70837 1.55093 0
M  V30 5384 N 523.247 -0.488276 1.49845 0
M  V30 5385 C 524.496 -1.23826 1.59217 0
M  V30 5386 C 524.809 -1.93439 0.289966 0
M  V30 5387 O 526.015 -2.70229 0.262382 0
M  V30 5388 C 524.471 -2.24902 2.80976 0
M  V30 5389 C 524.079 -1.6117 4.18005 0
M  V30 5390 C 525.823 -3.00648 2.99685 0
M  V30 5391 C 523.73 -2.60431 5.3097 0
M  V30 5392 H 522.66 -0.465858 0.592868 0
M  V30 5393 H 525.311 -0.510645 1.76252 0
M  V30 5394 H 523.693 -3.0088 2.57463 0
M  V30 5395 H 524.867 -0.910968 4.51706 0
M  V30 5396 H 523.182 -0.97767 4.0476 0
M  V30 5397 H 525.779 -3.74903 3.81251 0
M  V30 5398 H 526.122 -3.5902 2.10738 0
M  V30 5399 H 526.655 -2.31784 3.23297 0
M  V30 5400 H 523.394 -2.06823 6.22017 0
M  V30 5401 H 522.914 -3.28707 5.01709 0
M  V30 5402 H 524.593 -3.22606 5.60834 0
M  V30 5403 N 524.725 -1.39134 -0.740242 0
M  V30 5404 C 525.95 -1.39518 -1.53459 0
M  V30 5405 C 526.375 0.00968883 -1.88098 0
M  V30 5406 O 525.733 0.995312 -1.51536 0
M  V30 5407 C 525.781 -2.26981 -2.802 0
M  V30 5408 O 524.885 -1.69609 -3.75908 0
M  V30 5409 H 524.226 -0.475328 -0.463637 0
M  V30 5410 H 526.756 -1.83064 -0.913717 0
M  V30 5411 H 526.766 -2.41309 -3.28989 0
M  V30 5412 H 525.441 -3.29081 -2.5432 0
M  V30 5413 H 524.018 -1.64495 -3.34658 0
M  V30 5414 N 526.204 0.969867 -1.24223 0
M  V30 5415 C 527.114 2.09806 -1.0497 0
M  V30 5416 C 528.13 1.73998 0.00886455 0
M  V30 5417 O 529.306 2.00513 -0.188848 0
M  V30 5418 C 526.371 3.40467 -0.654452 0
M  V30 5419 C 525.432 3.90236 -1.78926 0
M  V30 5420 C 524.665 5.14662 -1.41277 0
M  V30 5421 O 524.888 5.69602 -0.301632 0
M  V30 5422 O 523.822 5.58761 -2.23763 0
M  V30 5423 H 527.648 2.28942 -1.99548 0
M  V30 5424 H 525.233 1.08197 -1.03023 0
M  V30 5425 H 527.115 4.19039 -0.445452 0
M  V30 5426 H 525.79 3.22636 0.262216 0
M  V30 5427 H 524.697 3.12735 -2.05299 0
M  V30 5428 H 526.03 4.1254 -2.68462 0
M  V30 5429 N 527.682 1.05563 1.17022 0
M  V30 5430 C 528.91 0.78845 1.91288 0
M  V30 5431 C 529.325 -0.656318 1.77025 0
M  V30 5432 O 528.682 -1.44869 1.10992 0
M  V30 5433 C 528.733 1.16444 3.42232 0
M  V30 5434 O 528.454 2.5525 3.5606 0
M  V30 5435 C 529.955 0.923937 4.33565 0
M  V30 5436 H 527.175 0.286389 0.606813 0
M  V30 5437 H 529.719 1.4073 1.48375 0
M  V30 5438 H 527.874 0.590266 3.82877 0
M  V30 5439 H 528.288 2.70097 4.49609 0
M  V30 5440 H 529.762 1.23672 5.37968 0
M  V30 5441 H 530.239 -0.140688 4.38975 0
M  V30 5442 H 530.845 1.48214 3.98639 0
M  V30 5443 N 529.16 -1.33526 0.837174 0
M  V30 5444 C 530.09 -2.31764 0.284206 0
M  V30 5445 C 531.071 -1.58896 -0.607142 0
M  V30 5446 O 532.256 -1.86798 -0.531047 0
M  V30 5447 C 529.386 -3.43029 -0.542962 0
M  V30 5448 C 528.34 -4.27255 0.252451 0
M  V30 5449 C 527.666 -5.3012 -0.69836 0
M  V30 5450 C 528.966 -5.01229 1.46858 0
M  V30 5451 H 530.66 -2.78262 1.10502 0
M  V30 5452 H 528.206 -1.3378 0.532812 0
M  V30 5453 H 530.159 -4.1078 -0.940096 0
M  V30 5454 H 528.883 -2.95216 -1.39697 0
M  V30 5455 H 527.542 -3.61127 0.631124 0
M  V30 5456 H 527.19 -4.78564 -1.54872 0
M  V30 5457 H 526.89 -5.87353 -0.170274 0
M  V30 5458 H 528.414 -6.00737 -1.09305 0
M  V30 5459 H 529.828 -5.61756 1.14469 0
M  V30 5460 H 528.225 -5.68104 1.93333 0
M  V30 5461 H 529.295 -4.301 2.23924 0
M  V30 5462 N 530.638 -0.59345 -1.46 0
M  V30 5463 C 531.568 0.121192 -2.33185 0
M  V30 5464 C 532.549 0.872977 -1.4599 0
M  V30 5465 O 533.734 0.846321 -1.74789 0
M  V30 5466 C 530.864 1.12844 -3.28456 0
M  V30 5467 C 529.818 0.4908 -4.25177 0
M  V30 5468 C 529.144 1.60529 -5.10034 0
M  V30 5469 C 530.444 -0.578949 -5.19081 0
M  V30 5470 H 532.138 -0.606767 -2.93187 0
M  V30 5471 H 529.684 -0.293242 -1.40983 0
M  V30 5472 H 531.637 1.63684 -3.88311 0
M  V30 5473 H 530.361 1.88681 -2.66584 0
M  V30 5474 H 529.02 0.00339328 -3.666 0
M  V30 5475 H 528.668 2.35359 -4.44539 0
M  V30 5476 H 528.368 1.18422 -5.75543 0
M  V30 5477 H 529.892 2.11623 -5.72755 0
M  V30 5478 H 531.306 -0.155199 -5.7309 0
M  V30 5479 H 529.703 -0.920947 -5.92991 0
M  V30 5480 H 530.773 -1.46109 -4.62364 0
M  V30 5481 N 532.116 1.54067 -0.331816 0
M  V30 5482 C 533.532 1.59587 0.0205388 0
M  V30 5483 C 533.732 1.34813 1.49759 0
M  V30 5484 O 532.788 1.13661 2.25471 0
M  V30 5485 C 534.101 2.97959 -0.405103 0
M  V30 5486 C 535.649 3.10964 -0.356454 0
M  V30 5487 C 536.124 4.51694 -0.757384 0
M  V30 5488 N 537.615 4.57709 -0.71111 0
M  V30 5489 C 538.35 5.64729 -0.993427 0
M  V30 5490 N 537.846 6.79652 -1.3433 0
M  V30 5491 N 539.639 5.54546 -0.918442 0
M  V30 5492 H 531.79 1.68426 -1.29407 0
M  V30 5493 H 534.053 0.78819 -0.526745 0
M  V30 5494 H 533.759 3.21115 -1.43451 0
M  V30 5495 H 533.633 3.76524 0.225692 0
M  V30 5496 H 536.02 2.87538 0.663763 0
M  V30 5497 H 536.101 2.34484 -1.02229 0
M  V30 5498 H 535.745 4.75853 -1.77555 0
M  V30 5499 H 535.675 5.26555 -0.0691444 0
M  V30 5500 H 538.166 3.75176 -0.452883 0
M  V30 5501 H 538.479 7.57221 -1.54388 0
M  V30 5502 H 536.824 6.81128 -1.38164 0
M  V30 5503 H 540.015 4.63641 -0.644536 0
M  V30 5504 H 540.188 6.37861 -1.14181 0
M  V30 5505 N 533.594 0.0601682 1.57485 0
M  V30 5506 C 534.843 -0.611101 1.9222 0
M  V30 5507 C 535.156 -1.71469 0.941159 0
M  V30 5508 O 536.362 -2.44473 1.18089 0
M  V30 5509 C 534.818 -1.13832 3.41424 0
M  V30 5510 C 534.426 -0.0663596 4.47951 0
M  V30 5511 C 536.17 -1.78432 3.85178 0
M  V30 5512 C 534.077 -0.606965 5.88277 0
M  V30 5513 H 533.007 -0.232033 0.71741 0
M  V30 5514 H 535.658 0.130518 1.83035 0
M  V30 5515 H 534.04 -1.93254 3.45643 0
M  V30 5516 H 535.214 0.707682 4.55333 0
M  V30 5517 H 533.529 0.482715 4.13593 0
M  V30 5518 H 536.126 -2.1989 4.87394 0
M  V30 5519 H 536.469 -2.63966 3.21913 0
M  V30 5520 H 537.002 -1.05651 3.83514 0
M  V30 5521 H 533.741 0.21095 6.5516 0
M  V30 5522 H 533.261 -1.34879 5.84438 0
M  V30 5523 H 534.94 -1.08704 6.37803 0
M  V30 5524 N 535.072 -1.5615 -0.213296 0
M  V30 5525 C 536.297 -1.83986 -0.957282 0
M  V30 5526 C 536.722 -0.641526 -1.76822 0
M  V30 5527 O 536.08 0.409722 -1.7661 0
M  V30 5528 C 536.128 -3.09889 -1.84393 0
M  V30 5529 O 535.232 -2.89163 -2.94038 0
M  V30 5530 H 534.573 -0.606357 -0.270605 0
M  V30 5531 H 537.103 -2.03369 -0.224111 0
M  V30 5532 H 537.113 -3.40209 -2.25215 0
M  V30 5533 H 535.788 -3.96735 -1.24795 0
M  V30 5534 H 534.365 -2.70097 -2.57103 0
M  V30 5535 N 536.55 0.480323 -1.50102 0
M  V30 5536 C 537.778 1.25657 -1.64371 0
M  V30 5537 C 538.193 1.86011 -0.323316 0
M  V30 5538 O 537.55 1.68803 0.693682 0
M  V30 5539 C 537.601 2.37197 -2.728 0
M  V30 5540 O 537.322 1.7932 -3.9972 0
M  V30 5541 C 538.823 3.2823 -2.9796 0
M  V30 5542 H 536.043 0.380369 -0.552775 0
M  V30 5543 H 538.587 0.574379 -1.96268 0
M  V30 5544 H 536.742 3.01208 -2.43623 0
M  V30 5545 H 537.156 2.52701 -4.59611 0
M  V30 5546 H 538.63 4.02725 -3.77513 0
M  V30 5547 H 539.107 3.86462 -2.08671 0
M  V30 5548 H 539.713 2.69964 -3.28633 0
M  V30 5549 N 538.028 1.39524 0.732853 0
M  V30 5550 C 539.276 1.36594 1.48951 0
M  V30 5551 C 539.597 -0.0367507 1.94965 0
M  V30 5552 O 538.867 -0.988391 1.69138 0
M  V30 5553 H 537.447 0.502673 0.552566 0
M  V30 5554 H 540.109 1.74411 0.869869 0
M  V30 5555 H 539.205 2.03 2.3706 0
M  V30 5556 N 539.506 -0.963266 1.24736 0
M  V30 5557 C 540.755 -1.70115 1.08369 0
M  V30 5558 C 541.068 -1.91939 -0.376688 0
M  V30 5559 O 542.274 -2.6334 -0.660624 0
M  V30 5560 C 540.73 -3.06218 1.89099 0
M  V30 5561 C 540.338 -2.92221 3.39574 0
M  V30 5562 C 542.082 -3.83848 1.81275 0
M  V30 5563 C 539.989 -4.23662 4.12631 0
M  V30 5564 H 538.919 -0.637944 0.401924 0
M  V30 5565 H 541.57 -1.07304 1.48856 0
M  V30 5566 H 539.952 -3.69884 1.41429 0
M  V30 5567 H 541.126 -2.37541 3.94856 0
M  V30 5568 H 539.441 -2.28054 3.48397 0
M  V30 5569 H 542.038 -4.81188 2.33158 0
M  V30 5570 H 542.381 -4.08949 0.778895 0
M  V30 5571 H 542.914 -3.26918 2.26649 0
M  V30 5572 H 539.653 -4.03753 5.16395 0
M  V30 5573 H 539.173 -4.78141 3.62135 0
M  V30 5574 H 540.852 -4.92256 4.19873 0
M  V30 5575 N 540.985 -1.06182 -1.16461 0
M  V30 5576 C 541.895 -0.682671 -2.24448 0
M  V30 5577 C 542.911 0.30078 -1.71381 0
M  V30 5578 O 544.087 0.150376 -2.00838 0
M  V30 5579 C 541.152 -0.0737202 -3.46622 0
M  V30 5580 C 540.213 -1.10889 -4.14731 0
M  V30 5581 C 539.446 -0.528908 -5.31073 0
M  V30 5582 O 539.669 0.65868 -5.66584 0
M  V30 5583 O 538.603 -1.26805 -5.88391 0
M  V30 5584 H 542.429 -1.58291 -2.59187 0
M  V30 5585 H 540.014 -0.834013 -1.23954 0
M  V30 5586 H 541.896 0.264192 -4.20571 0
M  V30 5587 H 540.571 0.800015 -3.13658 0
M  V30 5588 H 539.478 -1.49896 -3.42756 0
M  V30 5589 H 540.811 -1.95412 -4.51747 0
M  V30 5590 N 542.463 1.3308 -0.844243 0
M  V30 5591 C 543.74 1.92178 -0.364261 0
M  V30 5592 C 544.12 1.76961 1.15101 0
M  V30 5593 O 543.468 1.16128 1.9679 0
M  V30 5594 C 543.678 3.393 -0.817106 0
M  V30 5595 C 545.026 4.16444 -0.828236 0
M  V30 5596 O 546.05 3.47975 -0.761062 0
M  V30 5597 O 544.909 5.38685 -0.920926 0
M  V30 5598 H 542.003 0.820411 -0.10419 0
M  V30 5599 H 544.549 1.41918 -0.930453 0
M  V30 5600 H 543.321 3.44272 -1.85991 0
M  V30 5601 H 542.944 3.96947 -0.227785 0
M  V30 5602 N 543.941 0.601185 1.45683 0
M  V30 5603 C 545.189 0.0936957 2.01883 0
M  V30 5604 C 545.51 -1.2779 1.47291 0
M  V30 5605 O 544.78 -1.84279 0.664691 0
M  V30 5606 H 543.36 0.0316466 0.746329 0
M  V30 5607 H 546.022 0.781137 1.78562 0
M  V30 5608 H 545.118 0.0386297 3.12076 0
M  V30 5609 N 545.419 -1.53889 0.339982 0
M  V30 5610 C 546.329 -2.28604 -0.526988 0
M  V30 5611 C 547.345 -1.33578 -1.11503 0
M  V30 5612 O 548.521 -1.66612 -1.13148 0
M  V30 5613 C 545.586 -3.04164 -1.66389 0
M  V30 5614 C 544.647 -4.14809 -1.10599 0
M  V30 5615 C 543.88 -4.86756 -2.18871 0
M  V30 5616 O 544.103 -4.58343 -3.39526 0
M  V30 5617 O 543.037 -5.73289 -1.83366 0
M  V30 5618 H 546.863 -3.03594 0.0802707 0
M  V30 5619 H 544.448 -1.4903 0.105141 0
M  V30 5620 H 546.33 -3.51427 -2.32544 0
M  V30 5621 H 545.005 -2.32035 -2.25703 0
M  V30 5622 H 543.912 -3.71857 -0.409067 0
M  V30 5623 H 545.245 -4.89029 -0.557771 0
M  V30 5624 N 546.897 -0.0685191 -1.57451 0
M  V30 5625 C 548.174 0.642167 -1.84758 0
M  V30 5626 C 548.554 1.87991 -0.960344 0
M  V30 5627 O 547.902 2.28485 -0.0257894 0
M  V30 5628 C 548.112 0.982946 -3.34872 0
M  V30 5629 C 549.46 1.35784 -4.02303 0
M  V30 5630 O 550.484 1.07477 -3.39598 0
M  V30 5631 O 549.343 1.88681 -5.12895 0
M  V30 5632 H 546.437 0.318625 -0.763156 0
M  V30 5633 H 548.983 -0.0992015 -1.6941 0
M  V30 5634 H 547.755 0.10372 -3.91163 0
M  V30 5635 H 547.378 1.78119 -3.55471 0
M  V30 5636 N 548.375 1.56261 0.205012 0
M  V30 5637 C 549.305 1.96779 1.257 0
M  V30 5638 C 550.286 0.838309 1.48008 0
M  V30 5639 O 551.471 1.10189 1.59913 0
M  V30 5640 C 548.601 2.29876 2.60335 0
M  V30 5641 C 547.555 3.45469 2.52656 0
M  V30 5642 C 546.881 3.64215 3.91473 0
M  V30 5643 C 548.181 4.79954 2.06014 0
M  V30 5644 H 549.875 2.84904 0.920338 0
M  V30 5645 H 547.421 1.37072 0.441277 0
M  V30 5646 H 549.374 2.56814 3.34102 0
M  V30 5647 H 548.098 1.38622 2.95722 0
M  V30 5648 H 546.757 3.18605 1.81345 0
M  V30 5649 H 546.405 2.70309 4.24196 0
M  V30 5650 H 546.105 4.41973 3.87213 0
M  V30 5651 H 547.629 3.93519 4.66878 0
M  V30 5652 H 549.043 5.05989 2.69533 0
M  V30 5653 H 547.44 5.61111 2.12777 0
M  V30 5654 H 548.51 4.74201 1.01297 0
M  V30 5655 N 549.853 -0.472356 1.50355 0
M  V30 5656 C 551.102 -1.2213 1.60522 0
M  V30 5657 C 551.415 -1.9312 0.310466 0
M  V30 5658 O 552.621 -2.69936 0.291029 0
M  V30 5659 C 551.077 -2.21909 2.83345 0
M  V30 5660 C 550.685 -1.56727 4.19691 0
M  V30 5661 C 552.429 -2.97453 3.02856 0
M  V30 5662 C 550.336 -2.54785 5.33703 0
M  V30 5663 H 549.266 -0.459543 0.597776 0
M  V30 5664 H 551.917 -0.491922 1.76783 0
M  V30 5665 H 550.299 -2.98133 2.60639 0
M  V30 5666 H 551.473 -0.863007 4.52646 0
M  V30 5667 H 549.788 -0.934685 4.05774 0
M  V30 5668 H 552.385 -3.70838 3.85205 0
M  V30 5669 H 552.728 -3.56764 2.14534 0
M  V30 5670 H 553.261 -2.28342 3.25737 0
M  V30 5671 H 550 -2.00214 6.24175 0
M  V30 5672 H 549.52 -3.23367 5.05167 0
M  V30 5673 H 551.199 -3.16639 5.64224 0
M  V30 5674 N 551.331 -1.39911 -0.725443 0
M  V30 5675 C 552.294 -1.39156 -1.82121 0
M  V30 5676 C 553.294 -0.287018 -1.58218 0
M  V30 5677 O 554.484 -0.545421 -1.65441 0
M  V30 5678 C 551.616 -1.1736 -3.20062 0
M  V30 5679 H 552.809 -2.36672 -1.84191 0
M  V30 5680 H 550.362 -1.25615 -0.930079 0
M  V30 5681 H 551.097 -0.205648 -3.23647 0
M  V30 5682 H 550.882 -1.97358 -3.3881 0
M  V30 5683 H 552.372 -1.19596 -4.00108 0
M  V30 5684 N 552.809 0.956637 -1.25245 0
M  V30 5685 C 554.086 1.67716 -1.00651 0
M  V30 5686 C 554.466 2.0585 0.467866 0
M  V30 5687 O 553.814 1.77029 1.44475 0
M  V30 5688 C 554.024 2.90093 -1.94028 0
M  V30 5689 C 555.372 3.6209 -2.21756 0
M  V30 5690 O 556.396 3.00171 -1.9177 0
M  V30 5691 O 555.255 4.7358 -2.72735 0
M  V30 5692 H 552.349 0.733731 -0.381533 0
M  V30 5693 H 554.895 1.00974 -1.3639 0
M  V30 5694 H 553.667 2.58689 -2.93591 0
M  V30 5695 H 553.29 3.64566 -1.58674 0
M  V30 5696 N 554.287 1.06798 1.15896 0
M  V30 5697 C 555.217 0.704677 2.22613 0
M  V30 5698 C 556.198 -0.305252 1.67339 0
M  V30 5699 O 557.383 -0.179247 1.93371 0
M  V30 5700 C 554.513 0.0957325 3.47168 0
M  V30 5701 C 553.467 1.0322 4.15367 0
M  V30 5702 C 552.793 0.286293 5.33933 0
M  V30 5703 C 554.093 2.36341 4.65768 0
M  V30 5704 H 555.787 1.59688 2.53259 0
M  V30 5705 H 553.333 0.769257 1.21731 0
M  V30 5706 H 555.286 -0.170333 4.21056 0
M  V30 5707 H 554.01 -0.831516 3.15838 0
M  V30 5708 H 552.669 1.28309 3.43413 0
M  V30 5709 H 552.317 -0.644237 4.98857 0
M  V30 5710 H 552.017 0.910436 5.80504 0
M  V30 5711 H 553.541 0.0278938 6.10594 0
M  V30 5712 H 554.955 2.1561 5.31211 0
M  V30 5713 H 553.352 2.94299 5.2298 0
M  V30 5714 H 554.422 2.99047 3.81705 0
M  V30 5715 N 555.766 -1.3263 0.851289 0
M  V30 5716 C 556.676 -2.32722 0.296268 0
M  V30 5717 C 557.692 -1.63901 -0.584162 0
M  V30 5718 O 558.868 -1.95465 -0.485334 0
M  V30 5719 C 555.933 -3.42942 -0.509103 0
M  V30 5720 C 554.994 -4.2746 0.397069 0
M  V30 5721 C 554.227 -5.32416 -0.36996 0
M  V30 5722 O 554.45 -5.47491 -1.6003 0
M  V30 5723 O 553.384 -6.01327 0.262493 0
M  V30 5724 H 557.21 -2.82078 1.12543 0
M  V30 5725 H 554.795 -1.36194 0.614135 0
M  V30 5726 H 556.677 -4.1017 -0.96634 0
M  V30 5727 H 555.352 -2.95781 -1.31512 0
M  V30 5728 H 554.259 -3.63053 0.902411 0
M  V30 5729 H 555.592 -4.78136 1.16818 0
M  V30 5730 N 557.244 -0.608902 -1.45362 0
M  V30 5731 C 558.192 0.121639 -2.32282 0
M  V30 5732 C 559.186 0.858301 -1.46046 0
M  V30 5733 O 560.392 0.773718 -1.62523 0
M  V30 5734 H 556.767 0.058086 -0.749753 0
M  V30 5735 H 558.738 -0.629866 -2.91677 0
M  V30 5736 C 557.487 1.1047 -3.29684 0
M  V30 5737 H 556.81 0.547278 -3.96036 0
M  V30 5738 H 558.25 1.58576 -3.9323 0
M  V30 5739 C 556.709 2.17891 -2.56954 0
M  V30 5740 O 557.239 3.25652 -2.35189 0
M  V30 5741 N 555.445 1.93211 -2.17066 0
M  V30 5742 H 554.992 1.05584 -2.34967 0
M  V30 5743 H 554.95 2.6529 -1.68727 0
M  V30 5744 N 558.722 1.53707 -0.348139 0
M  V30 5745 C 559.97 2.00591 0.246478 0
M  V30 5746 C 560.291 1.23753 1.50699 0
M  V30 5747 O 559.561 0.345964 1.92821 0
M  V30 5748 H 558.141 0.741053 0.0940679 0
M  V30 5749 H 560.803 1.89139 -0.470354 0
M  V30 5750 H 559.899 3.08297 0.485714 0
M  V30 5751 N 560.2 0.0768682 1.57412 0
M  V30 5752 C 561.447 -0.591085 1.93681 0
M  V30 5753 C 561.775 -1.69311 0.957286 0
M  V30 5754 O 561.03 -1.95682 -0.0262428 0
M  V30 5755 C 561.329 -1.20268 3.36557 0
M  V30 5756 C 560.995 -0.226286 4.50332 0
M  V30 5757 C 559.657 0.0423142 4.81181 0
M  V30 5758 C 562.009 0.441415 5.19327 0
M  V30 5759 C 559.337 0.985616 5.78362 0
M  V30 5760 C 561.689 1.37307 6.17519 0
M  V30 5761 C 560.353 1.65009 6.46783 0
M  V30 5762 H 559.623 -0.216293 0.70873 0
M  V30 5763 H 562.27 0.148824 1.90921 0
M  V30 5764 H 560.575 -2.01844 3.35807 0
M  V30 5765 H 562.272 -1.72688 3.61911 0
M  V30 5766 H 558.862 -0.445821 4.26275 0
M  V30 5767 H 563.046 0.247023 4.95685 0
M  V30 5768 H 558.302 1.20743 5.99359 0
M  V30 5769 H 562.476 1.89637 6.70083 0
M  V30 5770 H 560.103 2.38263 7.21897 0
M  V30 5771 N 561.678 -1.56367 -0.196722 0
M  V30 5772 C 563.094 -1.49916 -0.54749 0
M  V30 5773 C 563.294 -0.77659 -1.85934 0
M  V30 5774 O 562.35 -0.32644 -2.50381 0
M  V30 5775 C 563.663 -2.94577 -0.603734 0
M  V30 5776 C 565.211 -3.05239 -0.692677 0
M  V30 5777 C 565.686 -4.51308 -0.780046 0
M  V30 5778 N 567.177 -4.55453 -0.843616 0
M  V30 5779 C 567.912 -5.65786 -0.931358 0
M  V30 5780 N 567.408 -6.85812 -0.981503 0
M  V30 5781 N 569.201 -5.53695 -0.968421 0
M  V30 5782 H 561.352 -2.01761 0.663803 0
M  V30 5783 H 563.615 -0.918094 0.236238 0
M  V30 5784 H 563.321 -3.50494 0.29105 0
M  V30 5785 H 563.195 -3.47841 -1.45898 0
M  V30 5786 H 565.582 -2.49372 -1.57789 0
M  V30 5787 H 565.663 -2.55103 0.188736 0
M  V30 5788 H 565.307 -5.078 0.100811 0
M  V30 5789 H 565.237 -4.99176 -1.67724 0
M  V30 5790 H 567.728 -3.69025 -0.814176 0
M  V30 5791 H 568.041 -7.65648 -1.04892 0
M  V30 5792 H 566.386 -6.88474 -0.950208 0
M  V30 5793 H 569.577 -4.58848 -0.926072 0
M  V30 5794 H 569.75 -6.39708 -1.03334 0
M  V30 5795 N 563.156 0.464375 -1.50603 0
M  V30 5796 C 564.119 1.54393 -1.69397 0
M  V30 5797 C 565.119 1.50566 -0.564504 0
M  V30 5798 O 566.309 1.53066 -0.831645 0
M  V30 5799 C 563.441 2.9401 -1.72543 0
M  V30 5800 H 564.634 1.39044 -2.65719 0
M  V30 5801 H 562.187 0.69122 -1.40185 0
M  V30 5802 H 562.922 3.14795 -0.77938 0
M  V30 5803 H 562.707 2.98195 -2.54602 0
M  V30 5804 H 564.197 3.72375 -1.89015 0
M  V30 5805 N 564.634 1.40294 0.718013 0
M  V30 5806 C 565.597 1.4012 1.81381 0
M  V30 5807 C 566.597 0.295405 1.58063 0
M  V30 5808 O 567.787 0.554187 1.6515 0
M  V30 5809 C 564.919 1.19056 3.19435 0
M  V30 5810 H 566.112 2.37645 1.82933 0
M  V30 5811 H 563.665 1.26107 0.923405 0
M  V30 5812 H 564.4 0.222809 3.23534 0
M  V30 5813 H 564.185 1.99152 3.37758 0
M  V30 5814 H 565.675 1.21716 3.99468 0
M  V30 5815 N 566.112 -0.949982 1.2575 0
M  V30 5816 C 567.06 -2.06869 1.06339 0
M  V30 5817 C 568.054 -1.69399 -0.00708901 0
M  V30 5818 O 569.26 -1.79383 0.148897 0
M  V30 5819 H 565.635 -0.677197 0.326969 0
M  V30 5820 H 567.606 -2.20396 2.01167 0
M  V30 5821 C 566.355 -3.40503 0.703769 0
M  V30 5822 H 565.678 -3.69807 1.51931 0
M  V30 5823 H 567.118 -4.19623 0.607677 0
M  V30 5824 C 565.577 -3.31685 -0.5905 0
M  V30 5825 O 566.107 -3.67085 -1.63131 0
M  V30 5826 N 564.313 -2.84797 -0.577859 0
M  V30 5827 H 563.86 -2.56186 0.26951 0
M  V30 5828 H 563.818 -2.79279 -1.44398 0
M  V30 5829 N 567.59 -1.07411 -1.15328 0
M  V30 5830 C 568.537 -0.694995 -2.20087 0
M  V30 5831 C 569.507 0.313904 -1.63107 0
M  V30 5832 O 570.692 0.200216 -1.89747 0
M  V30 5833 C 567.832 -0.0996218 -3.44956 0
M  V30 5834 C 566.945 -1.16007 -4.16133 0
M  V30 5835 C 566.08 -0.529636 -5.28553 0
M  V30 5836 C 565.119 -1.57283 -5.91548 0
M  V30 5837 N 564.256 -0.964932 -6.95438 0
M  V30 5838 H 569.096 -1.5927 -2.51867 0
M  V30 5839 H 566.633 -0.796115 -1.23695 0
M  V30 5840 H 568.591 0.263197 -4.16369 0
M  V30 5841 H 567.221 0.761435 -3.13691 0
M  V30 5842 H 566.273 -1.64045 -3.4321 0
M  V30 5843 H 567.585 -1.95101 -4.59061 0
M  V30 5844 H 566.739 -0.114487 -6.06592 0
M  V30 5845 H 565.478 0.29307 -4.86819 0
M  V30 5846 H 564.483 -1.99775 -5.12221 0
M  V30 5847 H 565.708 -2.39783 -6.35359 0
M  V30 5848 H 563.654 -0.16314 -6.55797 0
M  V30 5849 H 563.571 -1.69311 -7.36797 0
M  V30 5850 H 564.839 -0.575305 -7.77374 0
M  V30 5851 N 569.068 1.32177 -0.85831 0
M  V30 5852 C 570.316 1.96735 -0.462568 0
M  V30 5853 C 570.637 1.6824 0.985911 0
M  V30 5854 O 569.907 0.991564 1.68952 0
M  V30 5855 H 568.487 0.727849 -0.168064 0
M  V30 5856 H 571.149 1.61195 -1.09554 0
M  V30 5857 H 570.245 3.06068 -0.610647 0
M  V30 5858 O 570.585 0.756816 1.42669 0
M  V30 5859 H 571.276 0.315719 1.9111 0
M  V30 END ATOM
M  V30 BEGIN BOND
M  V30 END BOND
M  V30 END CTAB
M  END
$$$$
