drugbank_target|P01008 Antithrombin-III (DB00407; DB00569; DB01109; DB01225; DB04464; DB05361; DB06271; DB06754; DB06779; DB06822; DB08813; DB09130; DB09141; DB09258; DB11598)
 OpenBabel12092119283D

  0  0  0     0  0            999 V3000
M  V30 BEGIN CTAB
M  V30 COUNTS 7413 7487 0 0 0
M  V30 BEGIN ATOM
M  V30 1 H -0.908 1.98254 -0.117106 0
M  V30 2 N 0 1.576 0 0
M  V30 3 C 0.933 2.03868 1.02534 0
M  V30 4 C 1.911 0.928543 1.3348 0
M  V30 5 O 3.095 1.19667 1.45644 0
M  V30 6 C 0.222 2.43627 2.35294 0
M  V30 7 C -0.732 3.65373 2.2001 0
M  V30 8 S 0.101 5.13292 1.52614 0
M  V30 9 C 1.257 5.56322 2.86805 0
M  V30 10 H 1.49 2.90518 0.631377 0
M  V30 11 H -0.977 1.52953 0.210867 0
M  V30 12 H 0.981 2.67203 3.11629 0
M  V30 13 H -0.358 1.57376 2.7183 0
M  V30 14 H -1.165 3.90944 3.18086 0
M  V30 15 H -1.563 3.418 1.51819 0
M  V30 16 H 0.729 5.58782 3.83104 0
M  V30 17 H 1.672 6.56266 2.65933 0
M  V30 18 H 2.08 4.83886 2.90714 0
M  V30 19 N 1.4781 -0.272755 1.55222 0
M  V30 20 C 2.7081 -1.02107 1.79604 0
M  V30 21 C 3.1161 -1.80419 0.569693 0
M  V30 22 O 2.4591 -1.77566 -0.470743 0
M  V30 23 C 2.5211 -2.02675 2.96922 0
M  V30 24 C 2.1851 -1.43299 4.33952 0
M  V30 25 C 3.1821 -0.84853 5.12929 0
M  V30 26 C 0.8671 -1.46012 4.8061 0
M  V30 27 C 2.8611 -0.299109 6.36698 0
M  V30 28 C 0.5481 -0.906833 6.04334 0
M  V30 29 C 1.5461 -0.32733 6.82215 0
M  V30 30 O 1.2341 0.217479 8.03606 0
M  V30 31 H 0.9661 -0.307322 0.602104 0
M  V30 32 H 3.5201 -0.308862 2.03065 0
M  V30 33 H 1.7501 -2.77656 2.69155 0
M  V30 34 H 3.4391 -2.63637 3.08626 0
M  V30 35 H 4.2051 -0.820265 4.78013 0
M  V30 36 H 0.0841 -1.90056 4.2 0
M  V30 37 H 3.6281 0.153852 6.9743 0
M  V30 38 H -0.4749 -0.932339 6.38731 0
M  V30 39 H 0.2931 0.106863 8.1843 0
M  V30 40 N 2.9562 -1.48159 -0.537278 0
M  V30 41 C 4.1812 -1.59707 -1.32319 0
M  V30 42 C 4.6062 -0.254859 -1.86365 0
M  V30 43 O 3.9642 0.772378 -1.64024 0
M  V30 44 C 4.0122 -2.6412 -2.45505 0
M  V30 45 O 3.1162 -2.20774 -3.48328 0
M  V30 46 H 2.4572 -0.535791 -0.392204 0
M  V30 47 H 4.9872 -1.94092 -0.647268 0
M  V30 48 H 4.9972 -2.85166 -2.91795 0
M  V30 49 H 3.6722 -3.61567 -2.05528 0
M  V30 50 H 2.2492 -2.09911 -3.08207 0
M  V30 51 N 4.4343 0.785586 -1.36625 0
M  V30 52 C 5.3823 1.91978 -1.31329 0
M  V30 53 C 6.3763 1.68162 -0.204416 0
M  V30 54 O 7.5823 1.76122 -0.371645 0
M  V30 55 H 3.9573 0.631087 -0.408942 0
M  V30 56 H 5.9283 1.93562 -2.27104 0
M  V30 57 C 4.6773 3.29055 -1.12329 0
M  V30 58 H 4.0003 3.4795 -1.96903 0
M  V30 59 H 5.4403 4.08756 -1.12671 0
M  V30 60 C 3.8993 3.36461 0.171861 0
M  V30 61 O 4.4293 3.84576 1.16035 0
M  V30 62 N 2.6353 2.89782 0.217846 0
M  V30 63 H 2.1823 2.50819 -0.587183 0
M  V30 64 H 2.1403 2.95119 1.08408 0
M  V30 65 N 5.9124 1.20967 1.01018 0
M  V30 66 C 7.1584 1.02526 1.74975 0
M  V30 67 C 7.4914 -0.4408 1.89131 0
M  V30 68 O 6.7664 -1.32718 1.42184 0
M  V30 69 C 7.0494 1.71699 3.1653 0
M  V30 70 C 6.9024 3.25791 3.10129 0
M  V30 71 C 8.2214 1.45531 4.15342 0
M  V30 72 H 5.3404 0.373863 0.635134 0
M  V30 73 H 7.9824 1.49071 1.17805 0
M  V30 74 H 6.1324 1.32128 3.65341 0
M  V30 75 H 7.8044 3.74697 2.69072 0
M  V30 76 H 6.0474 3.56363 2.47362 0
M  V30 77 H 6.7184 3.69353 4.10222 0
M  V30 78 H 9.1944 1.79872 3.75213 0
M  V30 79 H 8.0704 1.96453 5.1254 0
M  V30 80 H 8.3314 0.384237 4.40427 0
M  V30 81 N 7.3905 -1.2043 1.01659 0
M  V30 82 C 8.6395 -1.89118 0.701237 0
M  V30 83 C 8.9525 -1.79705 -0.772358 0
M  V30 84 O 10.1585 -2.43528 -1.20026 0
M  V30 85 C 8.6145 -3.39168 1.20388 0
M  V30 86 C 8.2225 -3.57166 2.70438 0
M  V30 87 C 9.9665 -4.1341 0.963953 0
M  V30 88 C 7.8735 -5.01042 3.14183 0
M  V30 89 H 6.8035 -0.708267 0.2586 0
M  V30 90 H 9.4545 -1.36239 1.22927 0
M  V30 91 H 7.8365 -3.91369 0.603824 0
M  V30 92 H 9.0105 -3.15351 3.35992 0
M  V30 93 H 7.3255 -2.96294 2.92572 0
M  V30 94 H 9.9225 -5.19491 1.26621 0
M  V30 95 H 10.2655 -4.16181 -0.099578 0
M  V30 96 H 10.7985 -3.67309 1.52738 0
M  V30 97 H 7.5375 -5.03426 4.19812 0
M  V30 98 H 7.0575 -5.43668 2.53348 0
M  V30 99 H 8.7365 -5.69623 3.0682 0
M  V30 100 N 8.8686 -0.792821 -1.36206 0
M  V30 101 C 10.1166 -0.366062 -1.98757 0
M  V30 102 C 10.4376 1.0668 -1.63231 0
M  V30 103 O 9.7076 1.73587 -0.907978 0
M  V30 104 H 8.2876 -0.132364 -0.735179 0
M  V30 105 H 10.9496 -1.01562 -1.66347 0
M  V30 106 H 10.0456 -0.460638 -3.08682 0
M  V30 107 N 10.3467 1.47872 -0.545128 0
M  V30 108 C 11.5747 2.06889 -0.021084 0
M  V30 109 C 11.9897 1.39955 1.2672 0
M  V30 110 O 11.3467 0.492036 1.75742 0
M  V30 111 C 11.3977 3.60996 0.190817 0
M  V30 112 O 11.1187 4.25419 -1.04644 0
M  V30 113 C 12.6197 4.36849 0.753521 0
M  V30 114 H 9.8397 0.669785 -0.0403635 0
M  V30 115 H 12.3837 1.90049 -0.755095 0
M  V30 116 H 10.5387 3.77391 0.87492 0
M  V30 117 H 10.9527 5.17785 -0.836611 0
M  V30 118 H 12.4267 5.45399 0.851139 0
M  V30 119 H 12.9037 4.02306 1.762 0
M  V30 120 H 13.5097 4.25169 0.105503 0
M  V30 121 N 11.8248 0.280983 1.55075 0
M  V30 122 C 13.0708 -0.33461 2.00021 0
M  V30 123 C 13.4038 -1.55063 1.16915 0
M  V30 124 O 12.6788 -1.93006 0.240646 0
M  V30 125 C 12.9618 -0.711007 3.53011 0
M  V30 126 C 12.8148 0.512766 4.46868 0
M  V30 127 C 14.1338 -1.54522 4.12081 0
M  V30 128 H 11.2528 -0.120147 0.727141 0
M  V30 129 H 13.8948 0.389097 1.85973 0
M  V30 130 H 12.0448 -1.32761 3.65112 0
M  V30 131 H 13.7168 1.15131 4.46702 0
M  V30 132 H 11.9598 1.14975 4.18286 0
M  V30 133 H 12.6308 0.205556 5.51617 0
M  V30 134 H 15.1068 -1.02442 4.03293 0
M  V30 135 H 13.9828 -1.77739 5.19327 0
M  V30 136 H 14.2438 -2.52813 3.62682 0
M  V30 137 N 13.3029 -1.57598 0.00835791 0
M  V30 138 C 14.5309 -1.95214 -0.68549 0
M  V30 139 C 14.9459 -0.883706 -1.66841 0
M  V30 140 O 14.3029 0.136565 -1.81988 0
M  V30 141 C 14.3539 -3.32865 -1.41007 0
M  V30 142 O 14.0749 -4.35609 -0.466552 0
M  V30 143 C 15.5759 -3.84991 -2.19765 0
M  V30 144 H 12.7959 -0.643422 -0.190392 0
M  V30 145 H 15.3399 -2.04406 0.0619607 0
M  V30 146 H 13.4949 -3.24956 -2.10908 0
M  V30 147 H 13.9089 -5.15288 -0.978699 0
M  V30 148 H 15.3829 -4.8371 -2.65948 0
M  V30 149 H 15.8599 -3.18137 -3.02796 0
M  V30 150 H 16.4659 -3.96103 -1.54864 0
M  V30 151 N 14.781 0.264519 -1.55364 0
M  V30 152 C 16.006 1.01726 -1.80739 0
M  V30 153 C 16.431 1.78836 -0.583044 0
M  V30 154 O 15.789 1.75167 0.467566 0
M  V30 155 C 15.837 1.94482 -3.03659 0
M  V30 156 O 14.941 3.03386 -2.7934 0
M  V30 157 H 14.282 0.290395 -0.597132 0
M  V30 158 H 16.812 0.290854 -2.02522 0
M  V30 159 H 16.822 2.36278 -3.32621 0
M  V30 160 H 15.497 1.37772 -3.92418 0
M  V30 161 H 14.074 2.65844 -2.61498 0
M  V30 162 N 16.2591 1.48442 0.529413 0
M  V30 163 C 17.5071 1.56179 1.28267 0
M  V30 164 C 17.8281 0.237721 1.93546 0
M  V30 165 O 17.0981 -0.740779 1.81354 0
M  V30 166 H 15.6781 0.575367 0.476405 0
M  V30 167 H 18.3401 1.84909 0.61602 0
M  V30 168 H 17.4361 2.34312 2.06165 0
M  V30 169 N 17.7372 -0.778329 1.37039 0
M  V30 170 C 18.6842 -1.89139 1.32269 0
M  V30 171 C 19.6542 -1.65017 0.189387 0
M  V30 172 O 20.8392 -1.87024 0.377693 0
M  V30 173 C 17.9792 -3.26112 1.12894 0
M  V30 174 C 17.0922 -3.62233 2.35396 0
M  V30 175 C 16.2272 -4.8838 2.08946 0
M  V30 176 C 15.2662 -5.17212 3.2735 0
M  V30 177 N 14.4032 -6.34546 3.00492 0
M  V30 178 H 19.2432 -1.92552 2.27437 0
M  V30 179 H 16.7802 -0.941473 1.13025 0
M  V30 180 H 18.7382 -4.05116 0.996835 0
M  V30 181 H 17.3682 -3.22091 0.213758 0
M  V30 182 H 16.4202 -2.78265 2.5937 0
M  V30 183 H 17.7322 -3.79481 3.23721 0
M  V30 184 H 16.8862 -5.75274 1.92729 0
M  V30 185 H 15.6252 -4.73222 1.17949 0
M  V30 186 H 14.6302 -4.28796 3.44113 0
M  V30 187 H 15.8552 -5.34283 4.19188 0
M  V30 188 H 13.8012 -6.20759 2.12118 0
M  V30 189 H 13.7182 -6.52179 3.82358 0
M  V30 190 H 14.9862 -7.24394 2.87879 0
M  V30 191 N 19.2153 -1.21501 -1.00376 0
M  V30 192 C 20.6313 -0.972629 -1.26539 0
M  V30 193 C 20.8313 0.340257 -1.98606 0
M  V30 194 O 19.8873 1.06561 -2.28913 0
M  V30 195 C 21.2003 -2.16404 -2.08781 0
M  V30 196 C 22.7483 -2.20643 -2.22004 0
M  V30 197 C 23.2233 -3.39306 -3.07629 0
M  V30 198 N 24.7143 -3.39401 -3.15217 0
M  V30 199 C 25.4493 -4.27867 -3.81729 0
M  V30 200 N 24.9453 -5.26533 -4.5026 0
M  V30 201 N 26.7383 -4.15672 -3.78382 0
M  V30 202 H 18.8893 -2.05929 -0.520281 0
M  V30 203 H 21.1523 -0.901803 -0.292328 0
M  V30 204 H 20.8583 -3.11554 -1.63178 0
M  V30 205 H 20.7323 -2.15567 -3.09533 0
M  V30 206 H 23.1193 -1.26048 -2.66825 0
M  V30 207 H 23.2003 -2.25523 -1.20718 0
M  V30 208 H 22.8443 -4.34195 -2.63509 0
M  V30 209 H 22.7743 -3.31665 -4.09031 0
M  V30 210 H 25.2653 -2.67997 -2.66432 0
M  V30 211 H 25.5783 -5.90337 -4.98721 0
M  V30 212 H 23.9233 -5.30457 -4.49044 0
M  V30 213 H 27.1143 -3.3785 -3.23998 0
M  V30 214 H 27.2873 -4.84825 -4.2994 0
M  V30 215 N 20.6934 1.19889 -1.02296 0
M  V30 216 C 21.6404 2.22901 -0.598651 0
M  V30 217 C 22.6104 1.61588 0.384521 0
M  V30 218 O 23.7954 1.88697 0.282522 0
M  V30 219 C 20.9354 3.45063 0.0504476 0
M  V30 220 C 20.0484 4.20783 -0.978053 0
M  V30 221 C 19.1834 5.30356 -0.299338 0
M  V30 222 C 18.2224 5.97826 -1.31416 0
M  V30 223 N 17.3594 6.98975 -0.661667 0
M  V30 224 H 22.1994 2.58554 -1.48169 0
M  V30 225 H 19.7364 1.27039 -0.741584 0
M  V30 226 H 21.6944 4.14831 0.443971 0
M  V30 227 H 20.3244 3.10084 0.897097 0
M  V30 228 H 19.3764 3.50018 -1.48969 0
M  V30 229 H 20.6884 4.67109 -1.74958 0
M  V30 230 H 19.8424 6.06516 0.149347 0
M  V30 231 H 18.5814 4.85084 0.504445 0
M  V30 232 H 17.5864 5.20422 -1.77317 0
M  V30 233 H 18.8114 6.45183 -2.11933 0
M  V30 234 H 16.7574 6.55886 0.122132 0
M  V30 235 H 16.6744 7.43461 -1.37117 0
M  V30 236 H 17.9424 7.7914 -0.236785 0
M  V30 237 N 22.1715 0.800033 1.35784 0
M  V30 238 C 23.4175 0.377901 1.99248 0
M  V30 239 C 23.7505 -1.05052 1.63333 0
M  V30 240 O 23.0255 -1.72768 0.893385 0
M  V30 241 C 23.3085 0.553922 3.55814 0
M  V30 242 C 23.1615 2.0268 4.01548 0
M  V30 243 C 24.4805 -0.0244802 4.40093 0
M  V30 244 H 21.5995 0.138782 0.723815 0
M  V30 245 H 24.2415 1.00835 1.61035 0
M  V30 246 H 22.3915 0.0172398 3.88496 0
M  V30 247 H 24.0635 2.62536 3.79305 0
M  V30 248 H 22.3065 2.5256 3.52698 0
M  V30 249 H 22.9775 2.10087 5.10458 0
M  V30 250 H 25.4535 0.433775 4.13833 0
M  V30 251 H 24.3295 0.128637 5.48749 0
M  V30 252 H 24.5905 -1.11758 4.27741 0
M  V30 253 N 23.6496 -1.47581 0.552962 0
M  V30 254 C 24.8796 -2.06575 0.0320091 0
M  V30 255 C 25.2876 -1.4067 -1.26525 0
M  V30 256 O 24.6306 -0.495808 -1.76883 0
M  V30 257 C 24.6926 -3.58705 -0.238913 0
M  V30 258 C 24.3566 -4.46625 0.968272 0
M  V30 259 C 25.3536 -4.85 1.87274 0
M  V30 260 C 23.0386 -4.88201 1.18175 0
M  V30 261 C 25.0326 -5.63745 2.9744 0
M  V30 262 C 22.7196 -5.66712 2.28651 0
M  V30 263 C 23.7176 -6.04394 3.18114 0
M  V30 264 O 23.4056 -6.81324 4.26676 0
M  V30 265 H 23.1376 -0.674763 0.0408689 0
M  V30 266 H 25.6916 -1.90634 0.764719 0
M  V30 267 H 23.9216 -3.72844 -1.02588 0
M  V30 268 H 25.6106 -3.99735 -0.704731 0
M  V30 269 H 26.3766 -4.53482 1.71984 0
M  V30 270 H 22.2556 -4.58339 0.494593 0
M  V30 271 H 25.7996 -5.93077 3.67296 0
M  V30 272 H 21.6966 -5.97642 2.43915 0
M  V30 273 H 22.4646 -6.99712 4.24671 0
M  V30 274 N 25.1277 -0.289203 -1.54924 0
M  V30 275 C 26.0577 0.58549 -2.2604 0
M  V30 276 C 27.0387 1.14753 -1.25562 0
M  V30 277 O 28.2237 1.17906 -1.54311 0
M  V30 278 C 25.3537 1.76305 -2.99222 0
M  V30 279 C 24.3077 1.33191 -4.06748 0
M  V30 280 C 23.6337 2.5937 -4.6758 0
M  V30 281 C 24.9337 0.471775 -5.20165 0
M  V30 282 H 26.6277 -0.00763532 -2.99399 0
M  V30 283 H 24.1737 -0.00511229 -1.43999 0
M  V30 284 H 26.1267 2.38097 -3.47689 0
M  V30 285 H 24.8507 2.38223 -2.23422 0
M  V30 286 H 23.5097 0.737121 -3.59113 0
M  V30 287 H 23.1577 3.19576 -3.88433 0
M  V30 288 H 22.8577 2.31228 -5.40192 0
M  V30 289 H 24.3817 3.21985 -5.18804 0
M  V30 290 H 25.7957 0.995056 -5.64599 0
M  V30 291 H 24.1927 0.284639 -5.99425 0
M  V30 292 H 25.2627 -0.506041 -4.82252 0
M  V30 293 N 26.6058 1.57591 -0.0167156 0
M  V30 294 C 27.5358 2.12496 0.967858 0
M  V30 295 C 28.5168 1.03807 1.34752 0
M  V30 296 O 29.7018 1.31577 1.42833 0
M  V30 297 C 26.8318 2.64194 2.25431 0
M  V30 298 C 25.7858 3.77559 2.01576 0
M  V30 299 C 25.1118 4.15636 3.36379 0
M  V30 300 C 26.4118 5.04151 1.36489 0
M  V30 301 H 28.1058 2.95013 0.510643 0
M  V30 302 H 25.6518 1.41915 0.244181 0
M  V30 303 H 27.6048 3.01236 2.94678 0
M  V30 304 H 26.3288 1.78821 2.73296 0
M  V30 305 H 24.9878 3.40937 1.34751 0
M  V30 306 H 24.6358 3.27263 3.81979 0
M  V30 307 H 24.3358 4.92022 3.21229 0
M  V30 308 H 25.8598 4.5525 4.06915 0
M  V30 309 H 27.2738 5.38857 1.95718 0
M  V30 310 H 25.6708 5.85453 1.31776 0
M  V30 311 H 26.7408 4.83733 0.336219 0
M  V30 312 N 28.0839 -0.256276 1.55502 0
M  V30 313 C 29.3089 -1.00766 1.81276 0
M  V30 314 C 29.7339 -1.78524 0.59252 0
M  V30 315 O 29.0919 -1.75413 -0.45827 0
M  V30 316 C 29.1399 -1.92869 3.04687 0
M  V30 317 O 28.2439 -3.019 2.80945 0
M  V30 318 H 27.5849 -0.287224 0.598664 0
M  V30 319 H 30.1149 -0.280109 2.02674 0
M  V30 320 H 30.1249 -2.34511 3.33869 0
M  V30 321 H 28.7999 -1.35689 3.93143 0
M  V30 322 H 27.3769 -2.64454 2.62904 0
M  V30 323 N 29.562 -1.4872 -0.521534 0
M  V30 324 C 30.492 -1.66771 -1.63431 0
M  V30 325 C 31.473 -0.516499 -1.62069 0
M  V30 326 O 32.658 -0.750013 -1.79132 0
M  V30 327 C 29.788 -1.71515 -3.01993 0
M  V30 328 C 28.742 -2.86222 -3.18216 0
M  V30 329 C 28.068 -2.76061 -4.57924 0
M  V30 330 C 29.368 -4.27419 -3.00184 0
M  V30 331 H 31.062 -2.59932 -1.48579 0
M  V30 332 H 28.608 -1.25089 -0.713358 0
M  V30 333 H 30.561 -1.82731 -3.7972 0
M  V30 334 H 29.285 -0.749393 -3.17886 0
M  V30 335 H 27.944 -2.74575 -2.42908 0
M  V30 336 H 27.592 -1.77437 -4.70665 0
M  V30 337 H 27.292 -3.53037 -4.69722 0
M  V30 338 H 28.816 -2.89256 -5.37739 0
M  V30 339 H 30.23 -4.39855 -3.67697 0
M  V30 340 H 28.627 -5.05458 -3.2347 0
M  V30 341 H 29.697 -4.43293 -1.96518 0
M  V30 342 N 31.0401 0.771051 -1.3745 0
M  V30 343 C 31.9701 1.89827 -1.3597 0
M  V30 344 C 32.9511 1.68562 -0.228216 0
M  V30 345 O 34.1361 1.8941 -0.428675 0
M  V30 346 C 31.2661 3.2712 -1.16662 0
M  V30 347 C 30.2201 3.6295 -2.2683 0
M  V30 348 C 29.5461 4.98791 -1.92644 0
M  V30 349 C 30.8461 3.69627 -3.69017 0
M  V30 350 H 32.5401 1.91323 -2.30295 0
M  V30 351 H 30.0861 0.919082 -1.10855 0
M  V30 352 H 32.0391 4.05615 -1.14256 0
M  V30 353 H 30.7631 3.26059 -0.187926 0
M  V30 354 H 29.4221 2.86763 -2.28392 0
M  V30 355 H 29.0701 4.94271 -0.933021 0
M  V30 356 H 28.7701 5.23733 -2.66416 0
M  V30 357 H 30.2941 5.79685 -1.91826 0
M  V30 358 H 31.7081 4.38273 -3.69581 0
M  V30 359 H 30.1051 4.06067 -4.41848 0
M  V30 360 H 31.1751 2.70273 -4.02592 0
M  V30 361 N 32.5182 1.22032 0.997298 0
M  V30 362 C 33.4482 1.01065 2.10495 0
M  V30 363 C 34.4292 -0.0669542 1.69968 0
M  V30 364 O 35.6142 0.0943987 1.9397 0
M  V30 365 C 32.7442 0.582874 3.42374 0
M  V30 366 C 31.6982 1.60592 3.96729 0
M  V30 367 C 31.0242 1.03412 5.24605 0
M  V30 368 C 32.3242 2.99478 4.27914 0
M  V30 369 H 34.0182 1.93708 2.28292 0
M  V30 370 H 31.5642 0.932761 1.09707 0
M  V30 371 H 33.5172 0.423332 4.19268 0
M  V30 372 H 32.2412 -0.379213 3.24391 0
M  V30 373 H 30.9002 1.75316 3.21963 0
M  V30 374 H 30.5482 0.063518 5.0296 0
M  V30 375 H 30.2482 1.71754 5.61938 0
M  V30 376 H 31.7722 0.886066 6.04137 0
M  V30 377 H 33.1862 2.88153 4.95622 0
M  V30 378 H 31.5832 3.64903 4.76409 0
M  V30 379 H 32.6532 3.49742 3.3587 0
M  V30 380 N 33.9963 -1.19345 1.0293 0
M  V30 381 C 35.2453 -1.88363 0.721256 0
M  V30 382 C 35.5583 -1.80514 -0.753254 0
M  V30 383 O 36.7643 -2.44788 -1.17436 0
M  V30 384 C 35.2203 -3.37872 1.23978 0
M  V30 385 C 34.8283 -3.54278 2.74211 0
M  V30 386 C 36.5723 -4.12365 1.00775 0
M  V30 387 C 34.4793 -4.97682 3.19479 0
M  V30 388 H 33.4093 -0.705484 0.266098 0
M  V30 389 H 36.0603 -1.34928 1.24365 0
M  V30 390 H 34.4423 -3.90707 0.6453 0
M  V30 391 H 35.6163 -3.11769 3.39318 0
M  V30 392 H 33.9313 -2.93174 2.95699 0
M  V30 393 H 36.5283 -5.18119 1.32123 0
M  V30 394 H 36.8713 -4.16263 -0.0554308 0
M  V30 395 H 37.4043 -3.65668 1.56625 0
M  V30 396 H 34.1433 -4.98945 4.25128 0
M  V30 397 H 33.6633 -5.4095 2.591 0
M  V30 398 H 35.3423 -5.66337 3.12845 0
M  V30 399 N 35.4744 -0.807222 -1.35358 0
M  V30 400 C 36.7224 -0.387122 -1.98358 0
M  V30 401 C 37.0434 1.04942 -1.64354 0
M  V30 402 O 36.3134 1.72615 -0.926339 0
M  V30 403 H 34.8934 -0.140154 -0.733734 0
M  V30 404 H 37.5554 -1.0332 -1.6526 0
M  V30 405 H 36.6514 -0.493352 -3.08176 0
M  V30 406 N 36.9525 1.47285 -0.560781 0
M  V30 407 C 38.1995 2.02464 -0.038062 0
M  V30 408 C 38.5275 1.43474 1.31322 0
M  V30 409 O 37.7825 0.581311 1.86867 0
M  V30 410 C 38.0815 3.57258 0.100784 0
M  V30 411 C 37.7475 4.35184 -1.18007 0
M  V30 412 C 36.4095 4.56194 -1.53103 0
M  V30 413 C 38.7615 4.80098 -2.02867 0
M  V30 414 C 36.0895 5.19367 -2.729 0
M  V30 415 C 38.4415 5.44593 -3.21871 0
M  V30 416 C 37.1055 5.63835 -3.57276 0
M  V30 417 H 36.3755 0.740869 -0.0139279 0
M  V30 418 H 39.0225 1.76916 -0.733012 0
M  V30 419 H 37.3275 3.81819 0.878724 0
M  V30 420 H 39.0245 3.97606 0.520639 0
M  V30 421 H 35.6145 4.19113 -0.8968 0
M  V30 422 H 39.7985 4.63642 -1.7706 0
M  V30 423 H 35.0545 5.32459 -3.00496 0
M  V30 424 H 39.2285 5.78358 -3.87911 0
M  V30 425 H 36.8555 6.12557 -4.50197 0
M  V30 426 N 38.4306 0.297415 1.54768 0
M  V30 427 C 39.6766 -0.306263 2.01081 0
M  V30 428 C 40.0316 -1.518 1.18214 0
M  V30 429 O 39.3246 -1.89967 0.249613 0
M  V30 430 C 39.5186 -0.717561 3.50123 0
M  V30 431 C 39.3476 0.45277 4.47415 0
M  V30 432 C 38.1176 0.943651 4.9641 0
M  V30 433 C 40.3156 1.29657 4.97688 0
M  V30 434 N 38.2976 2.08112 5.77549 0
M  V30 435 C 39.6686 2.28158 5.76493 0
M  V30 436 C 41.7236 1.32735 4.79881 0
M  V30 437 C 40.4266 3.29509 6.39387 0
M  V30 438 C 42.4526 2.32943 5.43591 0
M  V30 439 C 41.8146 3.30174 6.22225 0
M  V30 440 H 37.9136 -0.0766274 0.778237 0
M  V30 441 H 40.4976 0.426515 1.89971 0
M  V30 442 H 38.6686 -1.41952 3.6153 0
M  V30 443 H 40.4006 -1.30047 3.83236 0
M  V30 444 H 37.1556 0.51922 4.70745 0
M  V30 445 H 37.5796 2.65414 6.22803 0
M  V30 446 H 42.2216 0.589375 4.18672 0
M  V30 447 H 39.9396 4.04228 6.99732 0
M  V30 448 H 43.5256 2.36094 5.31743 0
M  V30 449 H 42.4056 4.06445 6.7065 0
M  V30 450 N 39.9087 -1.5758 0.0250728 0
M  V30 451 C 41.1857 -1.82917 -0.692873 0
M  V30 452 C 41.5657 -0.908137 -1.90568 0
M  V30 453 O 40.9137 0.0372298 -2.2847 0
M  V30 454 C 41.1237 -3.32034 -1.07492 0
M  V30 455 C 42.4717 -3.98406 -1.46826 0
M  V30 456 O 43.4957 -3.36505 -1.16801 0
M  V30 457 O 42.3547 -5.07497 -2.02754 0
M  V30 458 H 39.4487 -0.754079 -0.33955 0
M  V30 459 H 41.9947 -1.69619 0.0524456 0
M  V30 460 H 40.7667 -3.90728 -0.211552 0
M  V30 461 H 40.3897 -3.50424 -1.87854 0
M  V30 462 N 41.3868 0.248026 -1.55636 0
M  V30 463 C 42.6268 0.983592 -1.79178 0
M  V30 464 C 42.9908 1.82567 -0.594414 0
M  V30 465 O 44.1918 2.59292 -0.708583 0
M  V30 466 C 42.4628 1.82228 -3.07454 0
M  V30 467 S 44.0218 2.61709 -3.52213 0
M  V30 468 H 40.8398 0.330866 -0.629324 0
M  V30 469 H 43.4418 0.251562 -1.93875 0
M  V30 470 H 42.1458 1.19333 -3.92668 0
M  V30 471 H 41.6768 2.59708 -2.95492 0
M  V30 472 H 43.6918 3.84655 -3.13457 0
M  V30 473 N 42.8649 1.48995 0.513639 0
M  V30 474 C 44.1109 1.58076 1.27042 0
M  V30 475 C 44.4439 0.261026 1.92438 0
M  V30 476 O 43.7189 -0.734393 1.80103 0
M  V30 477 C 44.0019 2.73091 2.34719 0
M  V30 478 C 43.8549 4.14821 1.73907 0
M  V30 479 C 45.1739 2.83796 3.36375 0
M  V30 480 H 42.2929 0.575391 0.460536 0
M  V30 481 H 44.9349 1.81232 0.570516 0
M  V30 482 H 43.0849 2.53479 2.94416 0
M  V30 483 H 44.7569 4.45917 1.18135 0
M  V30 484 H 42.9999 4.21058 1.0437 0
M  V30 485 H 43.6709 4.91147 2.51949 0
M  V30 486 H 46.1469 3.01611 2.86653 0
M  V30 487 H 45.0229 3.65971 4.09093 0
M  V30 488 H 45.2839 1.92624 3.9793 0
M  V30 489 N 44.343 -0.763751 1.37857 0
M  V30 490 C 45.571 -1.55293 1.36718 0
M  V30 491 C 45.986 -1.88745 -0.0455434 0
M  V30 492 O 45.343 -1.52039 -1.00947 0
M  V30 493 C 45.394 -2.85831 2.2132 0
M  V30 494 O 45.115 -2.5381 3.57089 0
M  V30 495 C 46.616 -3.80023 2.28249 0
M  V30 496 H 43.836 -0.480841 0.468009 0
M  V30 497 H 46.38 -0.946009 1.81303 0
M  V30 498 H 44.535 -3.42926 1.80223 0
M  V30 499 H 44.949 -3.37459 4.01524 0
M  V30 500 H 46.423 -4.68599 2.91752 0
M  V30 501 H 46.9 -4.1973 1.2932 0
M  V30 502 H 47.506 -3.28855 2.69693 0
M  V30 503 N 45.8211 -1.22559 -0.990812 0
M  V30 504 C 47.0611 -1.06302 -1.74583 0
M  V30 505 C 47.4251 0.394737 -1.87898 0
M  V30 506 O 48.6261 0.678214 -2.60103 0
M  V30 507 C 46.8971 -1.75699 -3.11231 0
M  V30 508 S 48.4561 -1.74882 -4.02445 0
M  V30 509 H 45.2741 -0.380639 -0.600529 0
M  V30 510 H 47.8761 -1.55532 -1.18449 0
M  V30 511 H 46.5801 -2.80923 -2.99183 0
M  V30 512 H 46.1111 -1.26708 -3.72436 0
M  V30 513 H 48.1261 -0.799997 -4.89709 0
M  V30 514 N 47.2992 1.18797 -1.03562 0
M  V30 515 C 48.2492 2.20161 -0.592724 0
M  V30 516 C 49.2332 1.56772 0.362133 0
M  V30 517 O 50.4252 1.76062 0.182009 0
M  V30 518 C 47.5542 3.43266 0.0481024 0
M  V30 519 C 46.6402 4.13786 -0.9296 0
M  V30 520 N 47.0312 4.60388 -2.09467 0
M  V30 521 C 45.3292 4.39572 -0.754499 0
M  V30 522 C 46.0302 5.14619 -2.71187 0
M  V30 523 N 45.0062 5.05826 -1.991 0
M  V30 524 H 48.8082 2.53877 -1.48066 0
M  V30 525 H 46.3222 1.34946 -0.903514 0
M  V30 526 H 48.3192 4.15136 0.383058 0
M  V30 527 H 46.9792 3.11048 0.931636 0
M  V30 528 H 47.9902 4.54999 -2.47379 0
M  V30 529 H 44.6672 4.17425 0.0793713 0
M  V30 530 H 46.0572 5.60917 -3.69895 0
M  V30 531 N 48.7773 0.814389 1.34928 0
M  V30 532 C 50.0253 0.397636 1.9815 0
M  V30 533 C 50.3463 -1.04069 1.64908 0
M  V30 534 O 49.6163 -1.72121 0.93548 0
M  V30 535 H 48.1963 0.144043 0.732981 0
M  V30 536 H 50.8583 1.04195 1.6471 0
M  V30 537 H 49.9543 0.509688 3.0791 0
M  V30 538 N 50.2554 -1.46986 0.568584 0
M  V30 539 C 51.4804 -2.07335 0.0520528 0
M  V30 540 C 51.9054 -1.41675 -1.23733 0
M  V30 541 O 51.2634 -0.495623 -1.74394 0
M  V30 542 C 51.3114 -3.60417 -0.11501 0
M  V30 543 O 50.4154 -3.95309 -1.17492 0
M  V30 544 H 49.7564 -0.661597 0.0564385 0
M  V30 545 H 52.2864 -1.88837 0.787507 0
M  V30 546 H 52.2964 -4.06698 -0.325644 0
M  V30 547 H 50.9714 -4.07601 0.826675 0
M  V30 548 H 49.5484 -3.60757 -0.943869 0
M  V30 549 N 51.7335 -0.305618 -1.54608 0
M  V30 550 C 53.1445 0.186098 -1.8577 0
M  V30 551 C 53.4955 1.53058 -1.22751 0
M  V30 552 O 52.6205 2.09888 -0.526893 0
M  V30 553 C 53.2155 0.344449 -3.37044 0
M  V30 554 C 51.7745 0.780384 -3.68221 0
M  V30 555 C 50.9215 -0.108554 -2.77087 0
M  V30 556 H 53.8725 -0.526485 -1.49712 0
M  V30 557 H 53.8935 1.17828 -3.61796 0
M  V30 558 H 53.4055 -0.634235 -3.82883 0
M  V30 559 H 51.5065 1.76945 -3.27904 0
M  V30 560 H 51.6195 0.596572 -4.75371 0
M  V30 561 H 49.9835 0.412931 -2.5133 0
M  V30 562 H 50.7665 -1.08368 -3.25747 0
M  V30 563 N 53.2116 1.57565 -0.0334293 0
M  V30 564 C 54.4576 1.92262 0.645226 0
M  V30 565 C 54.7906 0.910543 1.71531 0
M  V30 566 O 54.0656 -0.066099 1.94388 0
M  V30 567 C 54.3486 3.37422 1.2577 0
M  V30 568 C 54.2016 4.49369 0.196891 0
M  V30 569 C 55.5206 3.82628 2.17449 0
M  V30 570 H 52.6396 0.699171 0.233085 0
M  V30 571 H 55.2816 1.89779 -0.0915694 0
M  V30 572 H 53.4316 3.39669 1.88566 0
M  V30 573 H 55.1036 4.59254 -0.433962 0
M  V30 574 H 53.3466 4.31168 -0.477137 0
M  V30 575 H 54.0176 5.47978 0.665124 0
M  V30 576 H 56.4936 3.82145 1.64634 0
M  V30 577 H 55.3696 4.84883 2.57254 0
M  V30 578 H 55.6306 3.18376 3.0674 0
M  V30 579 N 54.6897 -0.239769 1.55765 0
M  V30 580 C 55.9667 -0.990056 1.68693 0
M  V30 581 C 56.3467 -2.03107 0.5754 0
M  V30 582 O 55.6947 -2.24604 -0.42017 0
M  V30 583 C 55.9047 -1.61696 3.09282 0
M  V30 584 C 57.2527 -2.11613 3.6811 0
M  V30 585 O 58.2767 -1.71624 3.12127 0
M  V30 586 O 57.1357 -2.85057 4.66267 0
M  V30 587 H 54.2297 -0.461299 0.686391 0
M  V30 588 H 56.7757 -0.232991 1.68093 0
M  V30 589 H 55.5477 -0.864357 3.81634 0
M  V30 590 H 55.1707 -2.44005 3.13923 0
M  V30 591 N 56.1678 -1.49265 -0.50573 0
M  V30 592 C 57.4168 -1.57761 -1.25675 0
M  V30 593 C 57.7298 -0.267371 -1.93764 0
M  V30 594 O 58.9358 -0.230827 -2.70517 0
M  V30 595 C 57.3918 -2.78332 -2.28165 0
M  V30 596 C 56.9998 -4.16096 -1.66037 0
M  V30 597 C 58.7438 -2.96155 -3.04125 0
M  V30 598 C 56.6508 -5.27895 -2.6661 0
M  V30 599 H 55.5808 -0.587391 -0.472745 0
M  V30 600 H 58.2318 -1.75644 -0.53118 0
M  V30 601 H 56.6138 -2.53934 -3.03865 0
M  V30 602 H 57.7878 -4.50612 -0.963622 0
M  V30 603 H 56.1028 -4.03591 -1.02484 0
M  V30 604 H 58.6998 -3.76849 -3.79327 0
M  V30 605 H 59.0428 -2.06534 -3.61455 0
M  V30 606 H 59.5758 -3.2057 -2.35541 0
M  V30 607 H 56.3148 -6.1956 -2.14068 0
M  V30 608 H 55.8348 -4.97839 -3.34539 0
M  V30 609 H 57.5138 -5.57031 -3.29129 0
M  V30 610 N 57.6459 0.756429 -1.3826 0
M  V30 611 C 58.8859 1.52833 -1.35725 0
M  V30 612 C 59.2499 1.91926 0.0534106 0
M  V30 613 O 60.4509 2.68028 0.203613 0
M  V30 614 C 58.7219 2.74919 -2.28373 0
M  V30 615 S 60.2809 3.64817 -2.43832 0
M  V30 616 H 57.0989 0.523043 -0.481608 0
M  V30 617 H 59.7009 0.888212 -1.74158 0
M  V30 618 H 58.4049 2.44304 -3.29763 0
M  V30 619 H 57.9359 3.43878 -1.91079 0
M  V30 620 H 59.9509 4.676 -1.66027 0
M  V30 621 N 59.124 1.23083 0.984299 0
M  V30 622 C 60.352 1.08714 1.76037 0
M  V30 623 C 60.767 -0.361691 1.85303 0
M  V30 624 O 60.124 -1.25034 1.32939 0
M  V30 625 C 60.175 1.70206 3.18923 0
M  V30 626 O 59.896 3.09423 3.10144 0
M  V30 627 C 61.397 1.61227 4.12941 0
M  V30 628 H 58.617 0.380664 0.552572 0
M  V30 629 H 61.161 1.62853 1.23689 0
M  V30 630 H 59.316 1.20109 3.6831 0
M  V30 631 H 59.73 3.39188 4.00065 0
M  V30 632 H 61.204 2.08962 5.10919 0
M  V30 633 H 61.681 0.570375 4.35481 0
M  V30 634 H 62.287 2.10671 3.69456 0
M  V30 635 N 60.6021 -1.18246 1.0419 0
M  V30 636 C 61.5651 -2.20128 0.638452 0
M  V30 637 C 62.5651 -1.57885 -0.304805 0
M  V30 638 O 63.7551 -1.73967 -0.0900369 0
M  V30 639 C 60.8871 -3.4084 -0.0637751 0
M  V30 640 H 62.0801 -2.57336 1.54007 0
M  V30 641 H 59.6331 -1.32152 0.834598 0
M  V30 642 H 60.3681 -3.09166 -0.979136 0
M  V30 643 H 60.1531 -3.8726 0.614198 0
M  V30 644 H 61.6431 -4.16274 -0.332512 0
M  V30 645 N 62.0802 -0.821533 -1.34494 0
M  V30 646 C 63.0272 -0.240397 -2.29545 0
M  V30 647 C 63.9972 0.634031 -1.53523 0
M  V30 648 O 65.1822 0.575966 -1.81899 0
M  V30 649 C 62.3222 0.592869 -3.39969 0
M  V30 650 C 61.4352 -0.30365 -4.30932 0
M  V30 651 C 60.5702 0.539049 -5.28458 0
M  V30 652 C 59.6092 -0.356942 -6.11058 0
M  V30 653 N 58.7462 0.446603 -7.00678 0
M  V30 654 H 63.5862 -1.05632 -2.7865 0
M  V30 655 H 61.1232 -0.532413 -1.37127 0
M  V30 656 H 63.0812 1.09129 -4.02675 0
M  V30 657 H 61.7112 1.37392 -2.92102 0
M  V30 658 H 60.7632 -0.920276 -3.691 0
M  V30 659 H 62.0752 -0.992661 -4.88823 0
M  V30 660 H 61.2292 1.102 -5.96608 0
M  V30 661 H 59.9682 1.26157 -4.71101 0
M  V30 662 H 58.9732 -0.932047 -5.41842 0
M  V30 663 H 60.1982 -1.07755 -6.70497 0
M  V30 664 H 58.1442 1.15282 -6.45791 0
M  V30 665 H 58.0612 -0.184048 -7.55776 0
M  V30 666 H 59.3292 0.992352 -7.73158 0
M  V30 667 N 63.5583 1.46682 -0.576371 0
M  V30 668 C 64.9693 1.86112 -0.148091 0
M  V30 669 C 65.3203 1.48073 1.2872 0
M  V30 670 O 64.4453 0.892656 1.97131 0
M  V30 671 C 65.0403 3.37786 -0.261982 0
M  V30 672 C 63.5993 3.76235 0.111384 0
M  V30 673 C 62.7463 2.70713 -0.60083 0
M  V30 674 H 65.6973 1.37927 -0.78497 0
M  V30 675 H 65.7183 3.77007 0.514364 0
M  V30 676 H 65.2303 3.6544 -1.30671 0
M  V30 677 H 63.3313 3.54198 1.15649 0
M  V30 678 H 63.4443 4.78391 -0.26052 0
M  V30 679 H 61.8083 2.54666 -0.0417783 0
M  V30 680 H 62.5913 3.01208 -1.64708 0
M  V30 681 N 65.0364 0.313813 1.54444 0
M  V30 682 C 66.4524 -0.0391619 1.59552 0
M  V30 683 C 66.6524 -1.51322 1.33056 0
M  V30 684 O 65.7084 -2.26782 1.11022 0
M  V30 685 C 67.0214 0.370302 2.98411 0
M  V30 686 C 68.5694 0.320139 3.11358 0
M  V30 687 C 69.0444 0.704617 4.52547 0
M  V30 688 N 70.5354 0.657645 4.58508 0
M  V30 689 C 71.2704 0.927453 5.6585 0
M  V30 690 N 70.7664 1.26389 6.81174 0
M  V30 691 N 72.5594 0.853662 5.5558 0
M  V30 692 H 64.7104 1.27433 1.69925 0
M  V30 693 H 66.9734 0.517511 0.794284 0
M  V30 694 H 66.6794 1.39694 3.22767 0
M  V30 695 H 66.5534 -0.269619 3.76235 0
M  V30 696 H 68.9404 -0.697275 2.86744 0
M  V30 697 H 69.0214 0.99486 2.35661 0
M  V30 698 H 68.6654 1.7199 4.77893 0
M  V30 699 H 68.5954 0.00768843 5.26599 0
M  V30 700 H 71.0864 0.409067 3.75679 0
M  V30 701 H 71.3994 1.4554 7.58972 0
M  V30 702 H 69.7444 1.30206 6.82694 0
M  V30 703 H 72.9354 0.590383 4.64362 0
M  V30 704 H 73.1084 1.0673 6.3915 0
M  V30 705 N 66.5145 -1.57545 0.0417849 0
M  V30 706 C 67.7915 -1.83642 -0.673433 0
M  V30 707 C 68.1715 -0.928298 -1.89594 0
M  V30 708 O 67.5195 0.0129955 -2.28496 0
M  V30 709 C 67.7295 -3.33155 -1.03964 0
M  V30 710 C 69.0775 -3.99941 -1.42592 0
M  V30 711 O 70.1015 -3.37725 -1.13226 0
M  V30 712 O 68.9605 -5.09619 -1.9736 0
M  V30 713 H 66.0545 -0.757638 -0.331533 0
M  V30 714 H 68.6005 -1.69554 0.070433 0
M  V30 715 H 67.3725 -3.9093 -0.170098 0
M  V30 716 H 66.9955 -3.52396 -1.84126 0
M  V30 717 N 67.9926 0.231505 -1.5589 0
M  V30 718 C 69.2416 0.955346 -1.7764 0
M  V30 719 C 69.5546 1.85893 -0.608546 0
M  V30 720 O 70.7606 2.62067 -0.70943 0
M  V30 721 C 69.2166 1.74886 -3.14552 0
M  V30 722 C 68.8246 0.891915 -4.39032 0
M  V30 723 C 70.5686 2.46452 -3.45633 0
M  V30 724 C 68.4756 1.68221 -5.66971 0
M  V30 725 H 67.4056 0.360446 -0.662265 0
M  V30 726 H 70.0566 0.209516 -1.823 0
M  V30 727 H 68.4386 2.53723 -3.04041 0
M  V30 728 H 69.6126 0.144793 -4.60572 0
M  V30 729 H 67.9276 0.288863 -4.15397 0
M  V30 730 H 70.5246 3.06061 -4.38441 0
M  V30 731 H 70.8676 3.18841 -2.67668 0
M  V30 732 H 71.4006 1.74613 -3.57428 0
M  V30 733 H 68.1396 1.00178 -6.478 0
M  V30 734 H 67.6596 2.4042 -5.49507 0
M  V30 735 H 69.3386 2.24544 -6.06786 0
M  V30 736 N 69.4707 1.49531 0.497807 0
M  V30 737 C 70.8817 1.52344 1.07927 0
M  V30 738 C 71.2327 0.311469 1.93712 0
M  V30 739 O 70.3577 -0.578405 2.08527 0
M  V30 740 C 70.9527 2.76062 1.96405 0
M  V30 741 C 69.5117 2.81643 2.49709 0
M  V30 742 C 68.6587 2.46299 1.27404 0
M  V30 743 H 71.6097 1.56182 0.281576 0
M  V30 744 H 71.6307 2.56405 2.81135 0
M  V30 745 H 71.1427 3.64254 1.33943 0
M  V30 746 H 69.2437 1.97739 3.15801 0
M  V30 747 H 69.3567 3.83891 2.86643 0
M  V30 748 H 67.7207 1.98148 1.60029 0
M  V30 749 H 68.5037 3.36769 0.66645 0
M  V30 750 N 70.9488 -0.749086 1.3866 0
M  V30 751 C 71.8818 -1.87111 1.30631 0
M  V30 752 C 72.8598 -1.61572 0.18251 0
M  V30 753 O 74.0438 -1.85019 0.360592 0
M  V30 754 C 71.1708 -3.22815 1.02511 0
M  V30 755 C 70.2168 -3.67234 2.1689 0
M  V30 756 S 71.0498 -3.78245 3.79066 0
M  V30 757 C 72.2058 -5.16761 3.53142 0
M  V30 758 H 72.4388 -1.93636 2.25594 0
M  V30 759 H 69.9718 -0.912525 1.24549 0
M  V30 760 H 71.9298 -4.01181 0.869701 0
M  V30 761 H 70.5908 -3.13964 0.0925884 0
M  V30 762 H 69.7838 -4.65677 1.92771 0
M  V30 763 H 69.3858 -2.96034 2.28561 0
M  V30 764 H 71.6778 -6.02656 3.09534 0
M  V30 765 H 72.6208 -5.45902 4.50995 0
M  V30 766 H 73.0288 -4.85771 2.87554 0
M  V30 767 N 72.4269 -1.23603 -0.977757 0
M  V30 768 C 73.3749 -1.01704 -2.09187 0
M  V30 769 C 74.3689 0.0448214 -1.69341 0
M  V30 770 O 75.5749 -0.108902 -1.7967 0
M  V30 771 H 71.9499 -0.311803 -0.684312 0
M  V30 772 H 73.9209 -1.96207 -2.24823 0
M  V30 773 C 72.6699 -0.627746 -3.41986 0
M  V30 774 H 71.9929 -1.43656 -3.73099 0
M  V30 775 H 73.4329 -0.514053 -4.20872 0
M  V30 776 C 71.8919 0.664238 -3.30287 0
M  V30 777 O 72.4219 1.71268 -3.6336 0
M  V30 778 N 70.6279 0.641156 -2.83439 0
M  V30 779 H 70.1749 -0.212376 -2.56723 0
M  V30 780 H 70.1329 1.50583 -2.75993 0
M  V30 781 N 73.905 1.17692 -1.04816 0
M  V30 782 C 75.316 1.69501 -0.782698 0
M  V30 783 C 75.667 1.83456 0.695577 0
M  V30 784 O 74.792 1.51942 1.54086 0
M  V30 785 C 75.387 3.07874 -1.41419 0
M  V30 786 C 73.946 3.56864 -1.19686 0
M  V30 787 C 73.093 2.3322 -1.50012 0
M  V30 788 H 76.044 1.02262 -1.2136 0
M  V30 789 H 76.065 3.71528 -0.821428 0
M  V30 790 H 75.577 2.97685 -2.49009 0
M  V30 791 H 73.678 3.72337 -0.140043 0
M  V30 792 H 73.791 4.39851 -1.89916 0
M  V30 793 H 72.155 2.37501 -0.920071 0
M  V30 794 H 72.938 2.25644 -2.58727 0
M  V30 795 N 75.3831 0.828654 1.34056 0
M  V30 796 C 76.3161 0.199763 2.27324 0
M  V30 797 C 77.2941 -0.647168 1.49166 0
M  V30 798 O 78.4781 -0.609661 1.78369 0
M  V30 799 C 75.6051 -0.720455 3.30949 0
M  V30 800 C 74.6511 0.0496888 4.26471 0
M  V30 801 S 75.4841 1.40072 5.16856 0
M  V30 802 C 76.6401 0.485527 6.24014 0
M  V30 803 H 76.8731 0.990478 2.80316 0
M  V30 804 H 74.4061 0.624857 1.41191 0
M  V30 805 H 76.3641 -1.24581 3.91139 0
M  V30 806 H 75.0251 -1.48474 2.76793 0
M  V30 807 H 74.2181 -0.650104 4.9979 0
M  V30 808 H 73.8201 0.505779 3.70564 0
M  V30 809 H 76.1121 -0.320672 6.76741 0
M  V30 810 H 77.0551 1.18856 6.98054 0
M  V30 811 H 77.4631 0.0714109 5.64455 0
M  V30 812 N 76.8612 -1.46375 0.584142 0
M  V30 813 C 78.1012 -2.0427 0.0729695 0
M  V30 814 C 78.4652 -1.44563 -1.26355 0
M  V30 815 O 79.6662 -1.93667 -1.86405 0
M  V30 816 C 77.9372 -3.57399 0.00967464 0
M  V30 817 S 79.4962 -4.36551 -0.443714 0
M  V30 818 H 76.3142 -0.709975 0.0381673 0
M  V30 819 H 78.9162 -1.79398 0.776962 0
M  V30 820 H 77.6202 -3.98372 0.986319 0
M  V30 821 H 77.1512 -3.8681 -0.717044 0
M  V30 822 H 79.1662 -4.66237 -1.69816 0
M  V30 823 N 78.3393 -0.321999 -1.54275 0
M  V30 824 C 79.5883 0.281931 -1.9972 0
M  V30 825 C 79.9013 1.53369 -1.21397 0
M  V30 826 O 81.1073 2.21352 -1.57211 0
M  V30 827 C 79.5633 0.5529 -3.55628 0
M  V30 828 C 79.1713 -0.681721 -4.42783 0
M  V30 829 C 80.9153 1.11687 -4.09544 0
M  V30 830 C 78.8223 -0.382742 -5.9016 0
M  V30 831 H 77.7523 0.109124 -0.746062 0
M  V30 832 H 80.4033 -0.43398 -1.78294 0
M  V30 833 H 78.7853 1.32896 -3.73035 0
M  V30 834 H 79.9593 -1.45723 -4.37151 0
M  V30 835 H 78.2743 -1.1658 -3.99748 0
M  V30 836 H 80.8713 1.35515 -5.17242 0
M  V30 837 H 81.2143 2.06575 -3.61431 0
M  V30 838 H 81.7473 0.402032 -3.95763 0
M  V30 839 H 78.4863 -1.30076 -6.42464 0
M  V30 840 H 78.0063 0.355094 -5.98748 0
M  V30 841 H 79.6853 0.00800157 -6.47 0
M  V30 842 N 79.8174 1.5752 -0.0501392 0
M  V30 843 C 81.0474 1.96678 0.632573 0
M  V30 844 C 81.4554 0.926298 1.64974 0
M  V30 845 O 80.7984 -0.09802 1.83438 0
M  V30 846 C 80.8604 3.32068 1.37735 0
M  V30 847 C 80.5244 4.54076 0.516131 0
M  V30 848 C 81.5214 5.19445 -0.217357 0
M  V30 849 C 79.2064 5.00304 0.44736 0
M  V30 850 C 81.2004 6.29378 -1.00807 0
M  V30 851 C 78.8874 6.10114 -0.347038 0
M  V30 852 C 79.8854 6.74512 -1.07344 0
M  V30 853 O 79.5734 7.82211 -1.85477 0
M  V30 854 H 79.3054 0.652193 0.177821 0
M  V30 855 H 81.8594 2.05091 -0.112543 0
M  V30 856 H 80.0894 3.20206 2.16807 0
M  V30 857 H 81.7784 3.55981 1.95019 0
M  V30 858 H 82.5444 4.84689 -0.173688 0
M  V30 859 H 78.4234 4.49971 1.00235 0
M  V30 860 H 81.9674 6.79575 -1.57556 0
M  V30 861 H 77.8644 6.44307 -0.392349 0
M  V30 862 H 78.6324 7.98982 -1.77678 0
M  V30 863 N 81.2955 -0.223234 1.56011 0
M  V30 864 C 82.7115 -0.572856 1.48965 0
M  V30 865 C 82.9115 -1.87225 0.74492 0
M  V30 866 O 81.9675 -2.50899 0.283896 0
M  V30 867 C 83.2805 -0.653646 2.9351 0
M  V30 868 C 84.8285 -0.744386 3.0402 0
M  V30 869 C 85.3035 -0.856535 4.49919 0
M  V30 870 N 86.7945 -0.9208 4.53955 0
M  V30 871 C 87.5295 -1.02726 5.64123 0
M  V30 872 N 87.0255 -1.09777 6.84047 0
M  V30 873 N 88.8185 -1.06226 5.51971 0
M  V30 874 H 80.9695 0.629462 2.02858 0
M  V30 875 H 83.2325 0.220621 0.921971 0
M  V30 876 H 82.9385 0.231518 3.50937 0
M  V30 877 H 82.8125 -1.51781 3.45315 0
M  V30 878 H 85.1995 -1.61999 2.46658 0
M  V30 879 H 85.2805 0.14541 2.55386 0
M  V30 880 H 84.9245 0.0146069 5.07898 0
M  V30 881 H 84.8545 -1.76172 4.96257 0
M  V30 882 H 87.3455 -0.876694 3.6759 0
M  V30 883 H 87.6585 -1.17872 7.63758 0
M  V30 884 H 86.0035 -1.06693 6.86762 0
M  V30 885 H 89.1945 -1.00382 4.5721 0
M  V30 886 H 89.3675 -1.14177 6.37862 0
M  V30 887 N 82.7736 -1.49793 -0.48987 0
M  V30 888 C 83.9986 -1.63836 -1.27172 0
M  V30 889 C 84.4236 -0.31402 -1.8546 0
M  V30 890 O 83.7816 0.719803 -1.66399 0
M  V30 891 C 83.8296 -2.71797 -2.36978 0
M  V30 892 O 82.9336 -2.31744 -3.41128 0
M  V30 893 H 82.2746 -0.547997 -0.37496 0
M  V30 894 H 84.8046 -1.96053 -0.585191 0
M  V30 895 H 84.8146 -2.94305 -2.82575 0
M  V30 896 H 83.4896 -3.67923 -1.93921 0
M  V30 897 H 82.0666 -2.1961 -3.01373 0
M  V30 898 N 84.2517 0.741722 -1.39055 0
M  V30 899 C 85.6627 1.31966 -1.32068 0
M  V30 900 C 86.0137 1.96192 0.0180797 0
M  V30 901 O 85.1387 1.95861 0.920196 0
M  V30 902 C 85.7337 2.39954 -2.39181 0
M  V30 903 C 84.2927 2.93438 -2.35735 0
M  V30 904 C 83.4397 1.66936 -2.21422 0
M  V30 905 H 86.3907 0.539721 -1.4924 0
M  V30 906 H 86.4117 3.20182 -2.05581 0
M  V30 907 H 85.9237 1.9318 -3.36605 0
M  V30 908 H 84.0247 3.4451 -1.41929 0
M  V30 909 H 84.1377 3.4701 -3.30335 0
M  V30 910 H 82.5017 1.91016 -1.68478 0
M  V30 911 H 83.2847 1.22224 -3.20806 0
M  V30 912 N 85.7298 1.2412 0.971189 0
M  V30 913 C 86.6398 1.04747 2.09917 0
M  V30 914 C 87.6558 -0.0107162 1.73997 0
M  V30 915 O 88.8318 0.186714 2.00533 0
M  V30 916 C 85.8968 0.650828 3.40537 0
M  V30 917 C 84.9578 1.7851 3.90426 0
M  V30 918 C 84.1908 1.40729 5.14812 0
M  V30 919 O 84.4138 0.29557 5.69634 0
M  V30 920 O 83.3478 2.23168 5.58999 0
M  V30 921 H 87.1738 1.99304 2.29154 0
M  V30 922 H 84.7588 1.02908 1.08307 0
M  V30 923 H 86.6408 0.440992 4.19086 0
M  V30 924 H 85.3158 -0.265649 3.22608 0
M  V30 925 H 84.2228 2.04966 3.12953 0
M  V30 926 H 85.5558 2.68023 4.12825 0
M  V30 927 N 87.2079 -1.17134 1.05439 0
M  V30 928 C 88.1549 -2.21235 0.657539 0
M  V30 929 C 89.1249 -1.62551 -0.341543 0
M  V30 930 O 90.3099 -1.89379 -0.232393 0
M  V30 931 C 87.4499 -3.45076 0.0410575 0
M  V30 932 C 86.5629 -4.18042 1.08927 0
M  V30 933 C 85.6979 -5.29376 0.439848 0
M  V30 934 C 84.7369 -5.94132 1.4722 0
M  V30 935 N 83.8739 -6.96975 0.846756 0
M  V30 936 H 88.7139 -2.54534 1.54972 0
M  V30 937 H 86.2509 -1.25028 0.775006 0
M  V30 938 H 88.2089 -4.15862 -0.33383 0
M  V30 939 H 86.8389 -3.12353 -0.814568 0
M  V30 940 H 85.8909 -3.45945 1.58196 0
M  V30 941 H 87.2029 -4.62306 1.87282 0
M  V30 942 H 86.3569 -6.06699 0.0115125 0
M  V30 943 H 85.0959 -4.86251 -0.375656 0
M  V30 944 H 84.1009 -5.15538 1.91052 0
M  V30 945 H 85.3259 -6.39337 2.28965 0
M  V30 946 H 83.2719 -6.5598 0.0518075 0
M  V30 947 H 83.1889 -7.39565 1.5678 0
M  V30 948 H 84.4569 -7.78239 0.443277 0
M  V30 949 N 88.686 -0.835752 -1.33615 0
M  V30 950 C 89.633 -0.26473 -2.29277 0
M  V30 951 C 90.603 0.617712 -1.54187 0
M  V30 952 O 91.788 0.556641 -1.825 0
M  V30 953 C 88.928 0.556777 -3.40579 0
M  V30 954 C 88.041 -0.349339 -4.30585 0
M  V30 955 C 87.176 0.482969 -5.29 0
M  V30 956 C 86.215 -0.421732 -6.10645 0
M  V30 957 N 85.352 0.372262 -7.01112 0
M  V30 958 H 90.192 -1.08582 -2.77514 0
M  V30 959 H 87.729 -0.546927 -1.36554 0
M  V30 960 H 89.687 1.04852 -4.03809 0
M  V30 961 H 88.317 1.34286 -2.93542 0
M  V30 962 H 87.369 -0.959372 -3.68104 0
M  V30 963 H 88.681 -1.04445 -4.87742 0
M  V30 964 H 87.835 1.03866 -5.97743 0
M  V30 965 H 86.574 1.21153 -4.72412 0
M  V30 966 H 85.579 -0.989464 -5.40823 0
M  V30 967 H 86.804 -1.14861 -6.69316 0
M  V30 968 H 84.75 1.08426 -6.46977 0
M  V30 969 H 84.667 -0.264198 -7.55538 0
M  V30 970 H 85.935 0.910293 -7.74167 0
M  V30 971 N 90.1641 1.46063 -0.591896 0
M  V30 972 C 91.1271 2.28854 0.125973 0
M  V30 973 C 92.1271 1.38903 0.810107 0
M  V30 974 O 93.3171 1.61186 0.66066 0
M  V30 975 C 90.4491 3.19526 1.1881 0
M  V30 976 H 91.6421 2.93802 -0.601717 0
M  V30 977 H 89.1951 1.52325 -0.350254 0
M  V30 978 H 89.9301 2.59345 1.94707 0
M  V30 979 H 89.7151 3.85766 0.701936 0
M  V30 980 H 91.2051 3.81817 1.69132 0
M  V30 981 N 91.6422 0.330177 1.54103 0
M  V30 982 C 92.8702 -0.272179 2.05102 0
M  V30 983 C 93.2852 -1.45267 1.20595 0
M  V30 984 O 92.6422 -1.8094 0.238144 0
M  V30 985 C 92.6932 -0.70023 3.54653 0
M  V30 986 O 92.4142 0.433301 4.35952 0
M  V30 987 C 93.9152 -1.3647 4.21771 0
M  V30 988 H 91.1352 -0.0549159 0.668749 0
M  V30 989 H 93.6792 0.478285 1.98828 0
M  V30 990 H 91.8342 -1.40066 3.61193 0
M  V30 991 H 92.2482 0.0947539 5.24414 0
M  V30 992 H 93.7222 -1.61509 5.27843 0
M  V30 993 H 94.1992 -2.31409 3.73292 0
M  V30 994 H 94.8052 -0.706675 4.19388 0
M  V30 995 N 93.1203 -1.57491 0.0584922 0
M  V30 996 C 94.0303 -2.15448 -0.928414 0
M  V30 997 C 95.0463 -1.11416 -1.3365 0
M  V30 998 O 96.2223 -1.4362 -1.41193 0
M  V30 999 C 93.2873 -2.69393 -2.18239 0
M  V30 1000 C 92.3483 -3.88249 -1.83196 0
M  V30 1001 C 91.5813 -4.39613 -3.02616 0
M  V30 1002 O 91.8043 -3.90023 -4.16219 0
M  V30 1003 O 90.7383 -5.31111 -2.83204 0
M  V30 1004 H 94.5643 -3.00112 -0.465483 0
M  V30 1005 H 92.1493 -1.48499 -0.163826 0
M  V30 1006 H 94.0313 -3.04026 -2.91798 0
M  V30 1007 H 92.7063 -1.87796 -2.63656 0
M  V30 1008 H 91.6133 -3.58492 -1.06931 0
M  V30 1009 H 92.9463 -4.71098 -1.42573 0
M  V30 1010 N 94.5984 0.214957 -1.56127 0
M  V30 1011 C 95.8754 0.963093 -1.70247 0
M  V30 1012 C 96.2554 2.02166 -0.60764 0
M  V30 1013 O 95.6034 2.25244 0.384385 0
M  V30 1014 C 95.8134 1.56756 -3.11815 0
M  V30 1015 C 97.1614 2.0573 -3.7143 0
M  V30 1016 O 98.1854 1.66637 -3.14818 0
M  V30 1017 O 97.0444 2.77603 -4.70743 0
M  V30 1018 H 94.1384 0.450321 -0.693643 0
M  V30 1019 H 96.6844 0.206219 -1.68442 0
M  V30 1020 H 95.4564 0.803533 -3.82961 0
M  V30 1021 H 95.0794 2.3898 -3.17765 0
M  V30 1022 N 96.0765 1.50051 0.48192 0
M  V30 1023 C 96.9865 1.7089 1.60728 0
M  V30 1024 C 98.0025 0.591788 1.63627 0
M  V30 1025 O 99.1785 0.868817 1.81696 0
M  V30 1026 C 96.2435 1.78855 2.97005 0
M  V30 1027 C 95.3045 3.02537 3.04581 0
M  V30 1028 C 94.5375 3.10112 4.34357 0
M  V30 1029 O 94.7605 2.24765 5.24249 0
M  V30 1030 O 93.6945 4.02747 4.47301 0
M  V30 1031 H 97.5205 2.66264 1.46072 0
M  V30 1032 H 95.1055 1.34018 0.660264 0
M  V30 1033 H 96.9875 1.86336 3.77964 0
M  V30 1034 H 95.6625 0.866628 3.11883 0
M  V30 1035 H 94.5695 3.00563 2.22739 0
M  V30 1036 H 95.9025 3.94272 2.94636 0
M  V30 1037 N 97.5546 -0.734337 1.39446 0
M  V30 1038 C 98.8026 -1.49096 1.36436 0
M  V30 1039 C 99.1236 -1.94961 -0.0388255 0
M  V30 1040 O 98.3936 -1.69033 -0.990191 0
M  V30 1041 H 96.9736 -0.5531 0.502085 0
M  V30 1042 H 99.6356 -0.871725 1.74319 0
M  V30 1043 H 98.7316 -2.37276 2.02747 0
M  V30 1044 N 99.0327 -1.24633 -0.964593 0
M  V30 1045 C 100.258 -1.11596 -1.74818 0
M  V30 1046 C 100.683 0.32723 -1.85232 0
M  V30 1047 O 100.041 1.23695 -1.32549 0
M  V30 1048 C 100.089 -1.76397 -3.1451 0
M  V30 1049 O 99.1927 -1.03685 -3.99153 0
M  V30 1050 H 98.5337 -0.390196 -0.537255 0
M  V30 1051 H 101.064 -1.65002 -1.20977 0
M  V30 1052 H 101.074 -1.8228 -3.65018 0
M  V30 1053 H 99.7487 -2.81401 -3.06246 0
M  V30 1054 H 98.3257 -1.05611 -3.57632 0
M  V30 1055 N 100.511 1.16574 -1.06058 0
M  V30 1056 C 101.421 2.2452 -0.680282 0
M  V30 1057 C 102.437 1.71348 0.302604 0
M  V30 1058 O 103.613 2.00822 0.152513 0
M  V30 1059 C 100.678 3.46629 -0.0700315 0
M  V30 1060 C 99.7388 4.14849 -1.10448 0
M  V30 1061 C 98.9718 5.31129 -0.523256 0
M  V30 1062 O 99.1948 5.66514 0.664709 0
M  V30 1063 O 98.1288 5.88526 -1.26179 0
M  V30 1064 H 101.955 2.59355 -1.58015 0
M  V30 1065 H 99.5398 1.24043 -0.832694 0
M  V30 1066 H 101.422 4.20543 0.268667 0
M  V30 1067 H 100.097 3.13573 0.803353 0
M  V30 1068 H 99.0038 3.42916 -1.49532 0
M  V30 1069 H 100.337 4.51954 -1.94931 0
M  V30 1070 N 101.989 0.842826 1.3317 0
M  V30 1071 C 102.921 0.236245 2.27979 0
M  V30 1072 C 103.934 -0.585282 1.51915 0
M  V30 1073 O 105.123 -0.411705 1.73687 0
M  V30 1074 C 102.223 -0.685717 3.3189 0
M  V30 1075 C 101.396 0.0973448 4.37292 0
M  V30 1076 C 100.455 -0.748565 5.20848 0
M  V30 1077 O 99.4809 -0.186339 5.68895 0
M  V30 1078 N 100.683 -2.06527 5.42519 0
M  V30 1079 H 103.448 1.05088 2.80672 0
M  V30 1080 H 101.009 0.701667 1.45905 0
M  V30 1081 H 103.001 -1.25669 3.84694 0
M  V30 1082 H 101.571 -1.40105 2.79445 0
M  V30 1083 H 100.791 0.849706 3.84933 0
M  V30 1084 H 102.079 0.635643 5.04814 0
M  V30 1085 H 101.477 -2.54554 5.05192 0
M  V30 1086 H 100.034 -2.58464 5.98364 0
M  V30 1087 N 103.467 -1.45747 0.599634 0
M  V30 1088 C 104.414 -2.30467 -0.123849 0
M  V30 1089 C 105.384 -1.41632 -0.86774 0
M  V30 1090 O 106.569 -1.70568 -0.855056 0
M  V30 1091 C 103.709 -3.26402 -1.12051 0
M  V30 1092 C 102.822 -4.3034 -0.37832 0
M  V30 1093 C 101.957 -5.13389 -1.364 0
M  V30 1094 C 100.996 -6.09061 -0.609171 0
M  V30 1095 N 100.133 -6.84918 -1.54374 0
M  V30 1096 H 104.973 -2.91802 0.604627 0
M  V30 1097 H 102.51 -1.43797 0.309972 0
M  V30 1098 H 104.468 -3.80482 -1.7114 0
M  V30 1099 H 103.098 -2.66839 -1.8165 0
M  V30 1100 H 102.15 -3.78984 0.327929 0
M  V30 1101 H 103.462 -4.98354 0.210997 0
M  V30 1102 H 102.616 -5.7183 -2.02719 0
M  V30 1103 H 101.355 -4.45376 -1.98725 0
M  V30 1104 H 100.36 -5.49758 0.0676979 0
M  V30 1105 H 101.585 -6.79099 0.00891991 0
M  V30 1106 H 99.531 -6.19601 -2.15478 0
M  V30 1107 H 99.448 -7.49254 -1.00766 0
M  V30 1108 H 100.716 -7.47906 -2.19676 0
M  V30 1109 N 104.945 -0.338344 -1.53925 0
M  V30 1110 C 106.194 0.260732 -2.00008 0
M  V30 1111 C 106.507 1.52073 -1.23017 0
M  V30 1112 O 107.713 2.19672 -1.5955 0
M  V30 1113 C 106.169 0.51515 -3.56194 0
M  V30 1114 C 105.777 -0.728645 -4.42035 0
M  V30 1115 C 107.521 1.07337 -4.10706 0
M  V30 1116 C 105.428 -0.445315 -5.89721 0
M  V30 1117 H 104.358 0.101205 -0.747177 0
M  V30 1118 H 107.009 -0.452866 -1.77824 0
M  V30 1119 H 105.391 1.28932 -3.74423 0
M  V30 1120 H 106.565 -1.50352 -4.35581 0
M  V30 1121 H 104.88 -1.20813 -3.98489 0
M  V30 1122 H 107.477 1.30022 -5.18651 0
M  V30 1123 H 107.82 2.0273 -3.63602 0
M  V30 1124 H 108.353 0.360034 -3.96167 0
M  V30 1125 H 105.092 -1.36883 -6.41049 0
M  V30 1126 H 104.612 0.291569 -5.99091 0
M  V30 1127 H 106.291 -0.0606218 -6.46972 0
M  V30 1128 N 106.423 1.57458 -0.0668435 0
M  V30 1129 C 107.834 1.80776 0.466558 0
M  V30 1130 C 108.185 0.980361 1.69951 0
M  V30 1131 O 107.31 0.201441 2.1546 0
M  V30 1132 C 107.905 3.27881 0.85321 0
M  V30 1133 C 106.464 3.52062 1.3315 0
M  V30 1134 C 105.611 2.75513 0.314264 0
M  V30 1135 H 108.562 1.5598 -0.292588 0
M  V30 1136 H 108.583 3.39659 1.715 0
M  V30 1137 H 108.095 3.88075 -0.0443439 0
M  V30 1138 H 106.196 2.97167 2.24772 0
M  V30 1139 H 106.309 4.60762 1.31285 0
M  V30 1140 H 104.673 2.42123 0.790492 0
M  V30 1141 H 105.456 3.38442 -0.575477 0
M  V30 1142 N 107.901 -0.206675 1.56239 0
M  V30 1143 C 108.811 -1.27686 1.96808 0
M  V30 1144 C 109.827 -1.50455 0.874035 0
M  V30 1145 O 111.003 -1.63295 1.17884 0
M  V30 1146 C 108.068 -2.60358 2.28942 0
M  V30 1147 C 107.129 -2.45762 3.51994 0
M  V30 1148 C 106.362 -3.72108 3.82585 0
M  V30 1149 O 106.585 -4.75776 3.14631 0
M  V30 1150 O 105.519 -3.6833 4.76043 0
M  V30 1151 H 109.345 -0.962593 2.88041 0
M  V30 1152 H 106.93 -0.410746 1.43643 0
M  V30 1153 H 108.812 -3.38687 2.50737 0
M  V30 1154 H 107.487 -2.91435 1.4088 0
M  V30 1155 H 106.394 -1.65584 3.35459 0
M  V30 1156 H 107.727 -2.19621 4.40486 0
M  V30 1157 N 109.379 -1.50304 -0.473955 0
M  V30 1158 C 110.342 -1.6841 -1.55469 0
M  V30 1159 C 111.342 -0.554905 -1.50922 0
M  V30 1160 O 112.532 -0.821882 -1.53593 0
M  V30 1161 C 109.664 -1.70667 -2.95102 0
M  V30 1162 H 110.857 -2.64828 -1.40733 0
M  V30 1163 H 108.41 -1.39742 -0.700132 0
M  V30 1164 H 109.145 -0.75932 -3.15285 0
M  V30 1165 H 108.93 -2.52698 -2.9981 0
M  V30 1166 H 110.42 -1.8664 -3.73571 0
M  V30 1167 N 110.857 0.726932 -1.39834 0
M  V30 1168 C 112.085 1.51613 -1.40787 0
M  V30 1169 C 112.5 1.88799 -0.00451505 0
M  V30 1170 O 111.857 1.54662 0.968809 0
M  V30 1171 C 111.908 2.79863 -2.28821 0
M  V30 1172 O 111.629 2.44253 -3.63692 0
M  V30 1173 C 113.13 3.73837 -2.38245 0
M  V30 1174 H 110.35 0.468264 -0.480593 0
M  V30 1175 H 112.894 0.897607 -1.83748 0
M  V30 1176 H 111.049 3.38027 -1.89252 0
M  V30 1177 H 111.463 3.26695 -4.1033 0
M  V30 1178 H 112.937 4.60699 -3.04073 0
M  V30 1179 H 113.414 4.16153 -1.40403 0
M  V30 1180 H 114.02 3.21589 -2.78317 0
M  V30 1181 N 112.336 1.25143 0.95797 0
M  V30 1182 C 113.284 1.05019 2.07542 0
M  V30 1183 C 114.278 -0.0178751 1.69391 0
M  V30 1184 O 115.484 0.137472 1.79474 0
M  V30 1185 H 111.859 0.32265 0.679265 0
M  V30 1186 H 113.83 1.99759 2.21673 0
M  V30 1187 C 112.579 0.682074 3.40944 0
M  V30 1188 H 111.902 1.49573 3.70767 0
M  V30 1189 H 113.342 0.580945 4.20001 0
M  V30 1190 C 111.801 -0.611608 3.31302 0
M  V30 1191 O 112.331 -1.65465 3.66038 0
M  V30 1192 N 110.537 -0.595982 2.84423 0
M  V30 1193 H 110.084 0.253192 2.56353 0
M  V30 1194 H 110.042 -1.46173 2.78354 0
M  V30 1195 N 113.814 -1.1601 1.06675 0
M  V30 1196 C 115.23 -1.38622 0.790948 0
M  V30 1197 C 115.43 -1.92109 -0.607965 0
M  V30 1198 O 114.486 -2.12239 -1.36787 0
M  V30 1199 C 115.799 -2.36347 1.85905 0
M  V30 1200 C 117.347 -2.50023 1.88301 0
M  V30 1201 C 117.822 -3.51033 2.94176 0
M  V30 1202 N 119.313 -3.58563 2.93235 0
M  V30 1203 C 120.048 -4.36521 3.71803 0
M  V30 1204 N 119.544 -5.17869 4.602 0
M  V30 1205 N 121.337 -4.31541 3.60178 0
M  V30 1206 H 113.488 -0.796294 1.96908 0
M  V30 1207 H 115.751 -0.412597 0.853503 0
M  V30 1208 H 115.457 -2.04147 2.86386 0
M  V30 1209 H 115.331 -3.36042 1.71334 0
M  V30 1210 H 117.718 -2.81524 0.884769 0
M  V30 1211 H 117.799 -1.5035 2.06951 0
M  V30 1212 H 117.443 -3.20268 3.94196 0
M  V30 1213 H 117.373 -4.50445 2.72776 0
M  V30 1214 H 119.864 -3.00496 2.29152 0
M  V30 1215 H 120.177 -5.74578 5.16797 0
M  V30 1216 H 118.522 -5.17199 4.64253 0
M  V30 1217 H 121.713 -3.67051 2.90502 0
M  V30 1218 H 121.886 -4.9205 4.21653 0
M  V30 1219 N 115.292 -0.849877 -1.32721 0
M  V30 1220 C 116.708 -0.539102 -1.50219 0
M  V30 1221 C 116.908 0.931271 -1.78689 0
M  V30 1222 O 115.964 1.71455 -1.85363 0
M  V30 1223 C 117.277 -1.42196 -2.64954 0
M  V30 1224 C 118.825 -1.42189 -2.78839 0
M  V30 1225 C 119.3 -2.28985 -3.96648 0
M  V30 1226 N 120.791 -2.26754 -4.03902 0
M  V30 1227 C 121.526 -2.90644 -4.94281 0
M  V30 1228 N 121.022 -3.63629 -5.897 0
M  V30 1229 N 122.815 -2.80057 -4.87365 0
M  V30 1230 H 114.966 -1.80156 -1.12506 0
M  V30 1231 H 117.229 -0.769217 -0.554085 0
M  V30 1232 H 116.935 -2.46733 -2.50631 0
M  V30 1233 H 116.809 -1.10591 -3.60624 0
M  V30 1234 H 119.196 -0.38419 -2.92588 0
M  V30 1235 H 119.277 -1.77807 -1.83898 0
M  V30 1236 H 118.921 -3.32819 -3.83658 0
M  V30 1237 H 118.851 -1.90702 -4.90857 0
M  V30 1238 H 121.342 -1.73688 -3.3562 0
M  V30 1239 H 121.655 -4.09558 -6.55349 0
M  V30 1240 H 120 -3.67737 -5.89741 0
M  V30 1241 H 123.191 -2.22593 -4.11789 0
M  V30 1242 H 123.364 -3.30132 -5.57599 0
M  V30 1243 N 116.77 1.45427 -0.607355 0
M  V30 1244 C 118.016 2.0254 -0.102607 0
M  V30 1245 C 118.349 1.47478 1.26348 0
M  V30 1246 O 117.624 0.64939 1.83339 0
M  V30 1247 C 117.907 3.60044 -0.0634347 0
M  V30 1248 C 117.76 4.2544 -1.46017 0
M  V30 1249 C 119.079 4.35646 0.624514 0
M  V30 1250 H 116.198 0.73598 -0.0387607 0
M  V30 1251 H 118.84 1.73284 -0.779282 0
M  V30 1252 H 116.99 3.85101 0.512808 0
M  V30 1253 H 118.662 4.11569 -2.08347 0
M  V30 1254 H 116.905 3.83849 -2.02094 0
M  V30 1255 H 117.576 5.34342 -1.385 0
M  V30 1256 H 120.052 4.15882 0.134723 0
M  V30 1257 H 118.928 5.45376 0.621028 0
M  V30 1258 H 119.189 4.08501 1.69055 0
M  V30 1259 N 118.248 0.346503 1.53744 0
M  V30 1260 C 119.494 -0.242135 2.01954 0
M  V30 1261 C 119.849 -1.47962 1.22984 0
M  V30 1262 O 119.142 -1.89077 0.309924 0
M  V30 1263 C 119.336 -0.605809 3.52228 0
M  V30 1264 C 119.165 0.594882 4.45748 0
M  V30 1265 C 117.935 1.1011 4.93157 0
M  V30 1266 C 120.133 1.45425 4.93311 0
M  V30 1267 N 118.115 2.26381 5.70636 0
M  V30 1268 C 119.486 2.46383 5.68942 0
M  V30 1269 C 121.541 1.47935 4.75415 0
M  V30 1270 C 120.244 3.49684 6.28581 0
M  V30 1271 C 122.27 2.50119 5.35905 0
M  V30 1272 C 121.632 3.49803 6.11406 0
M  V30 1273 H 117.731 -0.0518296 0.780281 0
M  V30 1274 H 120.315 0.486736 1.88518 0
M  V30 1275 H 118.486 -1.30378 3.65864 0
M  V30 1276 H 120.218 -1.17789 3.87179 0
M  V30 1277 H 116.973 0.668721 4.68855 0
M  V30 1278 H 117.397 2.85094 6.14044 0
M  V30 1279 H 122.039 0.722274 4.16585 0
M  V30 1280 H 119.757 4.26285 6.86518 0
M  V30 1281 H 123.343 2.52892 5.23963 0
M  V30 1282 H 122.223 4.27576 6.5738 0
M  V30 1283 N 119.726 -1.57421 0.075193 0
M  V30 1284 C 120.636 -2.1642 -0.905511 0
M  V30 1285 C 121.652 -1.12828 -1.32461 0
M  V30 1286 O 122.828 -1.45109 -1.39661 0
M  V30 1287 C 119.893 -2.71693 -2.15369 0
M  V30 1288 C 118.954 -3.90171 -1.79068 0
M  V30 1289 C 118.187 -4.42798 -2.97936 0
M  V30 1290 O 118.41 -3.94416 -4.12058 0
M  V30 1291 O 117.344 -5.34085 -2.77555 0
M  V30 1292 H 121.17 -3.00588 -0.433626 0
M  V30 1293 H 118.755 -1.48664 -0.148067 0
M  V30 1294 H 120.637 -3.07104 -2.88557 0
M  V30 1295 H 119.312 -1.90582 -2.61649 0
M  V30 1296 H 118.219 -3.59606 -1.03122 0
M  V30 1297 H 119.552 -4.72584 -1.37569 0
M  V30 1298 N 121.204 0.198386 -1.56346 0
M  V30 1299 C 122.134 1.24865 -1.9731 0
M  V30 1300 C 123.115 1.47651 -0.844576 0
M  V30 1301 O 124.3 1.59444 -1.10866 0
M  V30 1302 C 121.43 2.59358 -2.30977 0
M  V30 1303 C 120.384 2.5119 -3.46537 0
M  V30 1304 C 119.71 3.89926 -3.65871 0
M  V30 1305 C 121.01 2.03977 -4.80823 0
M  V30 1306 H 122.704 0.908252 -2.85291 0
M  V30 1307 H 120.25 0.435462 -1.37258 0
M  V30 1308 H 122.203 3.33011 -2.58228 0
M  V30 1309 H 120.927 2.95132 -1.39874 0
M  V30 1310 H 119.586 1.79993 -3.19371 0
M  V30 1311 H 119.234 4.23046 -2.72105 0
M  V30 1312 H 118.934 3.85336 -4.4361 0
M  V30 1313 H 120.458 4.65205 -3.95495 0
M  V30 1314 H 121.872 2.67386 -5.07127 0
M  V30 1315 H 120.269 2.10397 -5.62008 0
M  V30 1316 H 121.339 0.992861 -4.74626 0
M  V30 1317 N 122.682 1.50554 0.465978 0
M  V30 1318 C 123.907 1.65838 1.24549 0
M  V30 1319 C 124.332 0.343486 1.84937 0
M  V30 1320 O 123.69 -0.69324 1.67523 0
M  V30 1321 C 123.738 2.75533 2.32624 0
M  V30 1322 O 122.842 2.37142 3.37398 0
M  V30 1323 H 122.183 0.553893 0.366194 0
M  V30 1324 H 124.713 1.96959 0.553927 0
M  V30 1325 H 124.723 2.98763 2.77857 0
M  V30 1326 H 123.398 3.70962 1.88043 0
M  V30 1327 H 121.975 2.24377 2.97841 0
M  V30 1328 N 124.16 -0.719506 1.40217 0
M  V30 1329 C 125.107 -1.83359 1.40172 0
M  V30 1330 C 126.077 -1.64065 0.259206 0
M  V30 1331 O 127.262 -1.85254 0.456677 0
M  V30 1332 C 124.402 -3.2103 1.26624 0
M  V30 1333 C 123.515 -3.51923 2.50548 0
M  V30 1334 C 122.65 -4.79079 2.29471 0
M  V30 1335 C 121.689 -5.02863 3.48992 0
M  V30 1336 N 120.826 -6.2123 3.27135 0
M  V30 1337 H 125.666 -1.82733 2.35399 0
M  V30 1338 H 123.203 -0.892688 1.16917 0
M  V30 1339 H 125.161 -4.00524 1.16776 0
M  V30 1340 H 123.791 -3.20895 0.350176 0
M  V30 1341 H 122.843 -2.67014 2.70939 0
M  V30 1342 H 124.155 -3.6541 3.39525 0
M  V30 1343 H 123.309 -5.66582 2.16955 0
M  V30 1344 H 122.048 -4.67794 1.37913 0
M  V30 1345 H 121.053 -4.13816 3.6199 0
M  V30 1346 H 122.278 -5.16023 4.41472 0
M  V30 1347 H 120.224 -6.11204 2.38256 0
M  V30 1348 H 120.141 -6.35375 4.09675 0
M  V30 1349 H 121.409 -7.11532 3.18344 0
M  V30 1350 N 125.638 -1.25649 -0.95132 0
M  V30 1351 C 126.601 -1.06399 -2.03007 0
M  V30 1352 C 127.601 -0.0156794 -1.60792 0
M  V30 1353 O 128.791 -0.25817 -1.72276 0
M  V30 1354 C 125.923 -0.616184 -3.35285 0
M  V30 1355 H 127.116 -2.02164 -2.21517 0
M  V30 1356 H 124.669 -1.08103 -1.12887 0
M  V30 1357 H 125.404 0.343917 -3.22471 0
M  V30 1358 H 125.189 -1.37301 -3.67275 0
M  V30 1359 H 126.679 -0.503032 -4.14559 0
M  V30 1360 N 127.117 1.15442 -1.07289 0
M  V30 1361 C 128.065 2.22225 -0.686952 0
M  V30 1362 C 129.059 1.66688 0.30193 0
M  V30 1363 O 130.265 1.79236 0.165712 0
M  V30 1364 H 126.64 0.723783 -0.204064 0
M  V30 1365 H 128.611 2.52056 -1.5972 0
M  V30 1366 C 127.36 3.47556 -0.100149 0
M  V30 1367 H 126.683 3.90612 -0.852211 0
M  V30 1368 H 128.123 4.23794 0.132235 0
M  V30 1369 C 126.582 3.16337 1.159 0
M  V30 1370 O 127.112 3.33074 2.24555 0
M  V30 1371 N 125.318 2.70385 1.06491 0
M  V30 1372 H 124.865 2.56966 0.180668 0
M  V30 1373 H 124.823 2.49871 1.90819 0
M  V30 1374 N 128.595 0.856903 1.32268 0
M  V30 1375 C 129.82 0.474569 2.01897 0
M  V30 1376 C 130.245 -0.921766 1.63967 0
M  V30 1377 O 129.603 -1.60589 0.84148 0
M  V30 1378 C 129.651 0.623799 3.55164 0
M  V30 1379 O 128.755 -0.342459 4.10976 0
M  V30 1380 H 128.096 0.190422 0.63611 0
M  V30 1381 H 130.626 1.15672 1.68764 0
M  V30 1382 H 130.636 0.512169 4.04773 0
M  V30 1383 H 129.311 1.64202 3.82113 0
M  V30 1384 H 127.888 -0.18688 3.72431 0
M  V30 1385 N 130.073 -1.45103 0.615059 0
M  V30 1386 C 131.489 -1.57137 0.279322 0
M  V30 1387 C 131.689 -1.60523 -1.21797 0
M  V30 1388 O 130.745 -1.53956 -2.00134 0
M  V30 1389 C 132.058 -2.85062 0.957083 0
M  V30 1390 C 133.606 -2.98749 0.933706 0
M  V30 1391 C 134.081 -4.29455 1.59162 0
M  V30 1392 N 135.572 -4.36231 1.55746 0
M  V30 1393 C 136.307 -5.36051 2.0356 0
M  V30 1394 N 135.803 -6.42367 2.59494 0
M  V30 1395 N 137.596 -5.27456 1.94284 0
M  V30 1396 H 129.747 -1.41148 1.58717 0
M  V30 1397 H 132.01 -0.675331 0.665306 0
M  V30 1398 H 131.716 -2.88488 2.01166 0
M  V30 1399 H 131.59 -3.7407 0.48494 0
M  V30 1400 H 133.977 -2.94886 -0.112347 0
M  V30 1401 H 134.058 -2.11132 1.44419 0
M  V30 1402 H 133.702 -4.34077 2.63704 0
M  V30 1403 H 133.632 -5.15901 1.0561 0
M  V30 1404 H 136.123 -3.60011 1.14893 0
M  V30 1405 H 136.436 -7.14793 2.93752 0
M  V30 1406 H 134.781 -6.43097 2.63537 0
M  V30 1407 H 137.972 -4.43308 1.5032 0
M  V30 1408 H 138.145 -6.05099 2.3186 0
M  V30 1409 N 131.551 -0.354651 -1.53558 0
M  V30 1410 C 132.798 0.238443 -2.01091 0
M  V30 1411 C 133.126 1.49663 -1.24222 0
M  V30 1412 O 132.381 1.93049 -0.321003 0
M  V30 1413 C 132.68 0.587121 -3.52545 0
M  V30 1414 C 132.346 -0.575472 -4.47213 0
M  V30 1415 C 131.008 -0.894497 -4.72813 0
M  V30 1416 C 133.36 -1.35489 -5.03281 0
M  V30 1417 C 130.688 -1.99511 -5.51736 0
M  V30 1418 C 133.04 -2.44583 -5.83405 0
M  V30 1419 C 131.704 -2.77033 -6.07296 0
M  V30 1420 H 130.974 0.0872526 -0.735845 0
M  V30 1421 H 133.621 -0.484859 -1.8526 0
M  V30 1422 H 131.926 1.39129 -3.66265 0
M  V30 1423 H 133.623 1.05809 -3.86789 0
M  V30 1424 H 130.213 -0.316774 -4.27428 0
M  V30 1425 H 134.397 -1.12167 -4.83459 0
M  V30 1426 H 129.653 -2.25063 -5.68469 0
M  V30 1427 H 133.827 -3.05401 -6.25862 0
M  V30 1428 H 131.454 -3.6244 -6.68237 0
M  V30 1429 N 133.029 1.57378 -0.0835403 0
M  V30 1430 C 133.992 2.12252 0.864959 0
M  V30 1431 C 134.992 1.04916 1.21858 0
M  V30 1432 O 136.182 1.30853 1.14991 0
M  V30 1433 C 133.314 2.63358 2.16461 0
M  V30 1434 H 134.507 2.97371 0.388676 0
M  V30 1435 H 132.06 1.55423 0.165317 0
M  V30 1436 H 132.795 1.81727 2.686 0
M  V30 1437 H 132.58 3.41826 1.92087 0
M  V30 1438 H 134.07 3.05847 2.84337 0
M  V30 1439 N 134.507 -0.190092 1.56449 0
M  V30 1440 C 135.735 -0.925772 1.85033 0
M  V30 1441 C 136.15 -1.76638 0.666658 0
M  V30 1442 O 135.507 -1.78822 -0.364565 0
M  V30 1443 C 135.558 -1.81786 3.12468 0
M  V30 1444 O 135.279 -1.01118 4.26271 0
M  V30 1445 C 136.78 -2.6648 3.54265 0
M  V30 1446 H 134 -0.269872 0.614337 0
M  V30 1447 H 136.544 -0.195837 2.0356 0
M  V30 1448 H 134.699 -2.50136 2.95822 0
M  V30 1449 H 135.113 -1.61956 4.98869 0
M  V30 1450 H 136.587 -3.24722 4.46385 0
M  V30 1451 H 137.064 -3.40434 2.77491 0
M  V30 1452 H 137.67 -2.03493 3.73458 0
M  V30 1453 N 135.985 -1.50799 -0.457987 0
M  V30 1454 C 137.213 -1.66218 -1.23203 0
M  V30 1455 C 137.628 -0.350894 -1.85511 0
M  V30 1456 O 136.985 0.668546 -1.69814 0
M  V30 1457 C 137.036 -2.76291 -2.33121 0
M  V30 1458 O 136.757 -4.02338 -1.73366 0
M  V30 1459 C 138.258 -3.028 -3.2377 0
M  V30 1460 H 135.478 -0.558361 -0.372121 0
M  V30 1461 H 138.022 -1.97099 -0.545179 0
M  V30 1462 H 136.177 -2.48068 -2.97558 0
M  V30 1463 H 136.591 -4.63312 -2.4585 0
M  V30 1464 H 138.065 -3.8345 -3.97077 0
M  V30 1465 H 138.542 -2.14385 -3.83322 0
M  V30 1466 H 139.148 -3.32604 -2.65056 0
M  V30 1467 N 137.463 0.71206 -1.40597 0
M  V30 1468 C 138.71 1.47197 -1.39065 0
M  V30 1469 C 139.038 1.94499 0.00583891 0
M  V30 1470 O 138.293 1.68752 0.99102 0
M  V30 1471 C 138.592 2.71039 -2.32965 0
M  V30 1472 C 138.258 2.42484 -3.80148 0
M  V30 1473 C 136.92 2.34406 -4.20247 0
M  V30 1474 C 139.272 2.18598 -4.73143 0
M  V30 1475 C 136.6 2.00516 -5.51371 0
M  V30 1476 C 138.952 1.8622 -6.0457 0
M  V30 1477 C 137.616 1.76626 -6.43708 0
M  V30 1478 H 136.886 0.538634 -0.508876 0
M  V30 1479 H 139.533 0.815325 -1.73276 0
M  V30 1480 H 137.838 3.41558 -1.91951 0
M  V30 1481 H 139.535 3.29138 -2.29061 0
M  V30 1482 H 136.125 2.49659 -3.4838 0
M  V30 1483 H 140.309 2.23793 -4.42979 0
M  V30 1484 H 135.565 1.91628 -5.80593 0
M  V30 1485 H 139.739 1.66752 -6.76141 0
M  V30 1486 H 137.366 1.50133 -7.45228 0
M  V30 1487 N 138.941 1.26152 0.944643 0
M  V30 1488 C 140.171 1.14094 1.72239 0
M  V30 1489 C 140.579 -0.306931 1.86694 0
M  V30 1490 O 139.922 -1.22222 1.3714 0
M  V30 1491 C 139.984 1.73316 3.14963 0
M  V30 1492 C 139.648 3.2239 3.23904 0
M  V30 1493 C 140.645 4.19252 3.07447 0
M  V30 1494 C 138.33 3.62788 3.47405 0
M  V30 1495 C 140.324 5.54491 3.14353 0
M  V30 1496 C 138.011 4.98162 3.53947 0
M  V30 1497 C 139.009 5.93823 3.37436 0
M  V30 1498 O 138.697 7.26732 3.43679 0
M  V30 1499 H 138.429 0.398292 0.546205 0
M  V30 1500 H 140.983 1.67201 1.19301 0
M  V30 1501 H 139.213 1.14667 3.69308 0
M  V30 1502 H 140.902 1.56214 3.74636 0
M  V30 1503 H 141.668 3.8938 2.8915 0
M  V30 1504 H 137.547 2.88816 3.59313 0
M  V30 1505 H 141.091 6.29137 3.01384 0
M  V30 1506 H 136.988 5.27695 3.71763 0
M  V30 1507 H 137.756 7.3496 3.60245 0
M  V30 1508 N 140.419 -1.14872 1.07899 0
M  V30 1509 C 141.351 -2.19425 0.662231 0
M  V30 1510 C 142.364 -1.60231 -0.288079 0
M  V30 1511 O 143.553 -1.78336 -0.076534 0
M  V30 1512 C 140.653 -3.38867 -0.0470695 0
M  V30 1513 C 139.826 -4.27597 0.920831 0
M  V30 1514 C 138.885 -5.25616 0.247805 0
M  V30 1515 O 137.911 -5.62189 0.890599 0
M  V30 1516 N 139.113 -5.71746 -1.00435 0
M  V30 1517 H 141.878 -2.55797 1.56166 0
M  V30 1518 H 139.439 -1.30042 0.964404 0
M  V30 1519 H 141.431 -4.01497 -0.50813 0
M  V30 1520 H 140.001 -3.00864 -0.848523 0
M  V30 1521 H 139.221 -3.61982 1.56087 0
M  V30 1522 H 140.509 -4.83748 1.57688 0
M  V30 1523 H 139.907 -5.44153 -1.54642 0
M  V30 1524 H 138.464 -6.36389 -1.40899 0
M  V30 1525 N 141.898 -0.863906 -1.31812 0
M  V30 1526 C 142.848 -0.286898 -2.26188 0
M  V30 1527 C 143.832 0.572577 -1.50367 0
M  V30 1528 O 145.024 0.420447 -1.71934 0
M  V30 1529 C 142.153 0.515849 -3.39402 0
M  V30 1530 C 141.239 -0.356531 -4.22599 0
M  V30 1531 N 141.63 -1.44716 -4.84656 0
M  V30 1532 C 139.928 -0.147898 -4.45755 0
M  V30 1533 C 140.629 -1.98462 -5.46798 0
M  V30 1534 N 139.605 -1.28247 -5.28255 0
M  V30 1535 H 143.407 -1.12055 -2.717 0
M  V30 1536 H 140.921 -0.711012 -1.46008 0
M  V30 1537 H 142.918 0.945701 -4.06032 0
M  V30 1538 H 141.578 1.34718 -2.95434 0
M  V30 1539 H 142.589 -1.83008 -4.84488 0
M  V30 1540 H 139.266 0.647973 -4.12441 0
M  V30 1541 H 140.656 -2.89932 -6.06126 0
M  V30 1542 N 143.376 1.44774 -0.622745 0
M  V30 1543 C 144.306 2.33382 0.0741861 0
M  V30 1544 C 145.287 1.47719 0.843387 0
M  V30 1545 O 146.472 1.76458 0.810934 0
M  V30 1546 C 143.602 3.30663 1.06204 0
M  V30 1547 C 142.556 4.26079 0.405037 0
M  V30 1548 C 141.882 5.13165 1.5022 0
M  V30 1549 C 143.182 5.1781 -0.683414 0
M  V30 1550 H 144.876 2.91905 -0.665713 0
M  V30 1551 H 142.422 1.40363 -0.321587 0
M  V30 1552 H 144.375 3.9153 1.55827 0
M  V30 1553 H 143.099 2.70331 1.83272 0
M  V30 1554 H 141.758 3.66532 -0.0704683 0
M  V30 1555 H 141.406 4.49191 2.26355 0
M  V30 1556 H 141.106 5.77812 1.06803 0
M  V30 1557 H 142.63 5.76902 2.00041 0
M  V30 1558 H 144.044 5.72661 -0.270631 0
M  V30 1559 H 142.441 5.91015 -1.04023 0
M  V30 1560 H 143.511 4.59326 -1.55395 0
M  V30 1561 N 144.854 0.36279 1.53368 0
M  V30 1562 C 145.817 -0.472679 2.24273 0
M  V30 1563 C 146.817 -1.012 1.24961 0
M  V30 1564 O 148.007 -0.898194 1.49259 0
M  V30 1565 C 145.139 -1.66039 2.97731 0
M  V30 1566 H 146.332 0.14773 2.99536 0
M  V30 1567 H 143.885 0.114434 1.55881 0
M  V30 1568 H 144.62 -2.31896 2.26704 0
M  V30 1569 H 144.405 -1.28066 3.70596 0
M  V30 1570 H 145.895 -2.25252 3.51641 0
M  V30 1571 N 146.332 -1.57332 0.0918853 0
M  V30 1572 C 147.609 -1.85691 -0.614668 0
M  V30 1573 C 147.989 -0.988146 -1.86545 0
M  V30 1574 O 147.337 -0.0597055 -2.28422 0
M  V30 1575 C 147.547 -3.36294 -0.933126 0
M  V30 1576 C 148.895 -4.04275 -1.29796 0
M  V30 1577 O 149.919 -3.41157 -1.02424 0
M  V30 1578 O 148.778 -5.1564 -1.81047 0
M  V30 1579 H 145.872 -0.767802 -0.307261 0
M  V30 1580 H 148.418 -1.69244 0.12434 0
M  V30 1581 H 147.19 -3.91273 -0.0456404 0
M  V30 1582 H 146.813 -3.58076 -1.72822 0
M  V30 1583 N 147.81 0.181792 -1.56548 0
M  V30 1584 C 149.035 0.920019 -1.85877 0
M  V30 1585 C 149.46 1.75494 -0.677021 0
M  V30 1586 O 148.818 1.77399 0.374056 0
M  V30 1587 C 148.866 1.78112 -3.13542 0
M  V30 1588 O 147.97 2.88152 -2.95029 0
M  V30 1589 H 147.311 0.258334 -0.611686 0
M  V30 1590 H 149.841 0.183092 -2.03779 0
M  V30 1591 H 149.851 2.18314 -3.44678 0
M  V30 1592 H 148.526 1.16777 -3.99169 0
M  V30 1593 H 147.103 2.51609 -2.75222 0
M  V30 1594 N 149.288 1.51039 0.449983 0
M  V30 1595 C 150.235 1.71439 1.54523 0
M  V30 1596 C 151.205 0.555871 1.56522 0
M  V30 1597 O 152.39 0.788871 1.73728 0
M  V30 1598 C 149.53 1.83384 2.92343 0
M  V30 1599 C 148.643 3.10873 2.9997 0
M  V30 1600 C 147.778 3.13488 4.28834 0
M  V30 1601 C 146.817 4.35343 4.30282 0
M  V30 1602 N 145.954 4.35579 5.5065 0
M  V30 1603 H 150.794 2.64934 1.36433 0
M  V30 1604 H 148.331 1.31312 0.662982 0
M  V30 1605 H 150.289 1.88291 3.72293 0
M  V30 1606 H 148.919 0.933086 3.0902 0
M  V30 1607 H 147.971 3.15336 2.12761 0
M  V30 1608 H 149.283 4.00814 2.96901 0
M  V30 1609 H 148.437 3.17241 5.17149 0
M  V30 1610 H 147.176 2.21414 4.34543 0
M  V30 1611 H 146.181 4.3178 3.40362 0
M  V30 1612 H 147.406 5.28668 4.26248 0
M  V30 1613 H 145.352 3.46369 5.57104 0
M  V30 1614 H 145.269 5.19313 5.49409 0
M  V30 1615 H 146.537 4.43507 6.41032 0
M  V30 1616 N 150.766 -0.704594 1.40972 0
M  V30 1617 C 151.714 -1.83994 1.42299 0
M  V30 1618 C 152.708 -1.66684 0.302111 0
M  V30 1619 O 153.914 -1.73655 0.473697 0
M  V30 1620 H 150.289 -0.606171 0.44504 0
M  V30 1621 H 152.26 -1.79992 2.38003 0
M  V30 1622 C 151.009 -3.21946 1.31323 0
M  V30 1623 H 150.332 -3.35878 2.16855 0
M  V30 1624 H 151.772 -4.01491 1.36311 0
M  V30 1625 C 150.231 -3.36891 0.0245977 0
M  V30 1626 O 150.761 -3.90687 -0.934153 0
M  V30 1627 N 148.967 -2.90559 -0.0485243 0
M  V30 1628 H 148.514 -2.46968 0.732419 0
M  V30 1629 H 148.472 -3.00937 -0.910171 0
M  V30 1630 N 152.244 -1.26651 -0.937939 0
M  V30 1631 C 153.521 -1.0313 -1.66204 0
M  V30 1632 C 153.901 0.437256 -2.06522 0
M  V30 1633 O 153.249 1.41831 -1.79154 0
M  V30 1634 C 153.459 -1.98314 -2.87181 0
M  V30 1635 C 154.807 -2.27107 -3.58758 0
M  V30 1636 O 155.831 -1.96205 -2.97291 0
M  V30 1637 O 154.69 -2.79736 -4.69479 0
M  V30 1638 H 151.784 -0.392384 -0.727986 0
M  V30 1639 H 154.33 -1.37874 -0.989382 0
M  V30 1640 H 153.102 -2.97399 -2.54302 0
M  V30 1641 H 152.725 -1.64068 -3.6217 0
M  V30 1642 N 153.722 1.14298 -1.08507 0
M  V30 1643 C 154.67 2.21483 -0.710483 0
M  V30 1644 C 155.664 1.66998 0.284234 0
M  V30 1645 O 156.87 1.79401 0.146692 0
M  V30 1646 H 153.245 0.721578 -0.211729 0
M  V30 1647 H 155.216 2.50348 -1.62384 0
M  V30 1648 C 153.965 3.4743 -0.137007 0
M  V30 1649 H 153.288 3.89686 -0.893592 0
M  V30 1650 H 154.728 4.2391 0.0872789 0
M  V30 1651 C 153.187 3.17548 1.12538 0
M  V30 1652 O 153.717 3.35437 2.21009 0
M  V30 1653 N 151.923 2.71499 1.03617 0
M  V30 1654 H 151.47 2.57143 0.153403 0
M  V30 1655 H 151.428 2.51881 1.88158 0
M  V30 1656 N 155.201 0.870884 1.31352 0
M  V30 1657 C 156.478 0.402907 1.91405 0
M  V30 1658 C 156.858 -1.11512 1.79244 0
M  V30 1659 O 156.206 -1.94411 1.2007 0
M  V30 1660 C 156.416 0.885301 3.37585 0
M  V30 1661 C 157.764 0.911971 4.14691 0
M  V30 1662 O 158.788 0.831016 3.46371 0
M  V30 1663 O 157.647 1.02927 5.3672 0
M  V30 1664 H 154.741 0.120698 0.818145 0
M  V30 1665 H 157.287 0.958857 1.40014 0
M  V30 1666 H 156.059 1.92889 3.40455 0
M  V30 1667 H 155.682 0.307714 3.96407 0
M  V30 1668 N 156.679 -1.44442 0.630414 0
M  V30 1669 C 157.627 -2.32437 -0.0871428 0
M  V30 1670 C 158.621 -1.47304 -0.836525 0
M  V30 1671 O 159.827 -1.63653 -0.749506 0
M  V30 1672 H 156.202 -0.750533 -0.0469495 0
M  V30 1673 H 158.173 -2.90709 0.673096 0
M  V30 1674 C 156.922 -3.31288 -1.05563 0
M  V30 1675 H 156.245 -3.96805 -0.488426 0
M  V30 1676 H 157.685 -3.9554 -1.52721 0
M  V30 1677 C 156.144 -2.6016 -2.14052 0
M  V30 1678 O 156.674 -2.39997 -3.22124 0
M  V30 1679 N 154.88 -2.19911 -1.89967 0
M  V30 1680 H 154.427 -2.36509 -1.02085 0
M  V30 1681 H 154.385 -1.72646 -2.62756 0
M  V30 1682 N 158.157 -0.370918 -1.53173 0
M  V30 1683 C 159.406 0.218249 -2.00516 0
M  V30 1684 C 159.719 1.49429 -1.26215 0
M  V30 1685 O 160.925 2.16239 -1.64174 0
M  V30 1686 C 159.381 0.43948 -3.57207 0
M  V30 1687 C 158.989 -0.822244 -4.4039 0
M  V30 1688 C 160.733 0.986012 -4.1289 0
M  V30 1689 C 158.64 -0.570304 -5.88644 0
M  V30 1690 H 157.57 0.0853333 -0.749156 0
M  V30 1691 H 160.221 -0.490483 -1.76823 0
M  V30 1692 H 158.603 1.20961 -3.77074 0
M  V30 1693 H 159.777 -1.59557 -4.32294 0
M  V30 1694 H 158.092 -1.29238 -3.95836 0
M  V30 1695 H 160.689 1.18991 -5.21292 0
M  V30 1696 H 161.032 1.94972 -3.6782 0
M  V30 1697 H 161.565 0.27592 -3.96842 0
M  V30 1698 H 158.304 -1.50449 -6.38001 0
M  V30 1699 H 157.824 0.164427 -5.99575 0
M  V30 1700 H 159.503 -0.19784 -6.46697 0
M  V30 1701 N 159.635 1.57281 -0.100228 0
M  V30 1702 C 160.882 1.94537 0.562268 0
M  V30 1703 C 161.21 0.982315 1.67871 0
M  V30 1704 O 160.465 0.00280936 1.957 0
M  V30 1705 C 160.764 3.38305 1.15259 0
M  V30 1706 C 160.43 4.50618 0.159409 0
M  V30 1707 C 159.092 4.81066 -0.113741 0
M  V30 1708 C 161.444 5.18615 -0.518461 0
M  V30 1709 C 158.772 5.76835 -1.07137 0
M  V30 1710 C 161.124 6.15412 -1.46459 0
M  V30 1711 C 159.788 6.44262 -1.74592 0
M  V30 1712 H 159.058 0.711863 0.205748 0
M  V30 1713 H 161.705 1.90679 -0.17715 0
M  V30 1714 H 160.01 3.38766 1.96836 0
M  V30 1715 H 161.707 3.64435 1.67297 0
M  V30 1716 H 158.297 4.2689 0.382491 0
M  V30 1717 H 162.481 4.95264 -0.320581 0
M  V30 1718 H 157.737 5.975 -1.29628 0
M  V30 1719 H 161.911 6.67194 -1.99564 0
M  V30 1720 H 159.538 7.1828 -2.48953 0
M  V30 1721 N 161.113 -0.173488 1.56642 0
M  V30 1722 C 162.043 -1.2171 1.99271 0
M  V30 1723 C 163.024 -1.46289 0.867959 0
M  V30 1724 O 164.209 -1.5766 1.13388 0
M  V30 1725 C 161.339 -2.55651 2.35074 0
M  V30 1726 C 160.293 -2.45645 3.50489 0
M  V30 1727 C 159.619 -3.84056 3.72028 0
M  V30 1728 C 160.919 -1.96302 4.84007 0
M  V30 1729 H 162.613 -0.86275 2.867 0
M  V30 1730 H 160.159 -0.413571 1.37933 0
M  V30 1731 H 162.112 -3.2886 2.63494 0
M  V30 1732 H 160.836 -2.92869 1.44552 0
M  V30 1733 H 159.495 -1.7489 3.22194 0
M  V30 1734 H 159.143 -4.18664 2.788 0
M  V30 1735 H 158.843 -3.7823 4.49684 0
M  V30 1736 H 160.367 -4.58854 4.02846 0
M  V30 1737 H 161.781 -2.59284 5.11317 0
M  V30 1738 H 160.178 -2.01429 5.65284 0
M  V30 1739 H 161.248 -0.917226 4.76146 0
M  V30 1740 N 162.591 -1.51276 -0.441967 0
M  V30 1741 C 163.816 -1.67799 -1.21895 0
M  V30 1742 C 164.241 -0.372864 -1.84367 0
M  V30 1743 O 163.599 0.666501 -1.68604 0
M  V30 1744 C 163.647 -2.79199 -2.28211 0
M  V30 1745 O 162.751 -2.42479 -3.33583 0
M  V30 1746 H 162.092 -0.559649 -0.357336 0
M  V30 1747 H 164.622 -1.97815 -0.522522 0
M  V30 1748 H 164.632 -3.03146 -2.73069 0
M  V30 1749 H 163.307 -3.73906 -1.82118 0
M  V30 1750 H 161.884 -2.29087 -2.94234 0
M  V30 1751 N 164.069 0.697108 -1.41344 0
M  V30 1752 C 165.48 1.27697 -1.36199 0
M  V30 1753 C 165.831 1.9615 -0.0443463 0
M  V30 1754 O 164.956 1.98689 0.857419 0
M  V30 1755 C 165.551 2.32223 -2.46694 0
M  V30 1756 C 164.11 2.8579 -2.44952 0
M  V30 1757 C 163.257 1.59807 -2.26621 0
M  V30 1758 H 166.208 0.491968 -1.50882 0
M  V30 1759 H 166.229 3.1348 -2.15664 0
M  V30 1760 H 165.741 1.82373 -3.42581 0
M  V30 1761 H 163.842 3.3982 -1.52817 0
M  V30 1762 H 163.955 3.36325 -3.41207 0
M  V30 1763 H 162.319 1.8556 -1.7447 0
M  V30 1764 H 163.102 1.11956 -3.24532 0
M  V30 1765 N 165.547 1.27147 0.931209 0
M  V30 1766 C 166.477 1.12081 2.04842 0
M  V30 1767 C 167.458 0.0232364 1.70084 0
M  V30 1768 O 168.643 0.197085 1.93197 0
M  V30 1769 C 165.773 0.76354 3.38803 0
M  V30 1770 C 164.727 1.81396 3.87659 0
M  V30 1771 C 164.053 1.31075 5.18385 0
M  V30 1772 C 165.353 3.21739 4.11438 0
M  V30 1773 H 167.047 2.05537 2.17703 0
M  V30 1774 H 164.593 0.989603 1.04608 0
M  V30 1775 H 166.546 0.644982 4.16435 0
M  V30 1776 H 165.27 -0.206727 3.25945 0
M  V30 1777 H 163.929 1.92136 3.12217 0
M  V30 1778 H 163.577 0.330037 5.01916 0
M  V30 1779 H 163.277 2.013 5.52044 0
M  V30 1780 H 164.801 1.20506 5.98591 0
M  V30 1781 H 166.215 3.14019 4.79651 0
M  V30 1782 H 164.612 3.89644 4.56397 0
M  V30 1783 H 165.682 3.67054 3.16859 0
M  V30 1784 N 167.025 -1.13721 1.09112 0
M  V30 1785 C 168.25 -1.89314 0.847053 0
M  V30 1786 C 168.675 -1.78416 -0.595774 0
M  V30 1787 O 168.033 -1.12942 -1.41823 0
M  V30 1788 C 168.081 -3.3701 1.28284 0
M  V30 1789 O 167.185 -4.10054 0.439267 0
M  V30 1790 H 166.526 -0.588745 0.307044 0
M  V30 1791 H 169.056 -1.43902 1.45442 0
M  V30 1792 H 169.066 -3.87834 1.26683 0
M  V30 1793 H 167.741 -3.4426 2.33363 0
M  V30 1794 H 166.318 -3.69266 0.519312 0
M  V30 1795 N 168.503 -0.877838 -1.30888 0
M  V30 1796 C 169.752 -0.488793 -1.95688 0
M  V30 1797 C 170.065 0.965485 -1.70111 0
M  V30 1798 O 171.271 1.46104 -2.28836 0
M  V30 1799 C 169.727 -0.823201 -3.50359 0
M  V30 1800 C 169.335 -2.29477 -3.84765 0
M  V30 1801 C 171.079 -0.503009 -4.21509 0
M  V30 1802 C 168.986 -2.57118 -5.32583 0
M  V30 1803 H 167.916 -0.179062 -0.732429 0
M  V30 1804 H 170.567 -1.07183 -1.48943 0
M  V30 1805 H 168.949 -0.169331 -3.95638 0
M  V30 1806 H 170.123 -2.99236 -3.5042 0
M  V30 1807 H 168.438 -2.58178 -3.267 0
M  V30 1808 H 171.035 -0.68665 -5.30273 0
M  V30 1809 H 171.378 0.557109 -4.12555 0
M  V30 1810 H 171.911 -1.11376 -3.8189 0
M  V30 1811 H 168.65 -3.61843 -5.4658 0
M  V30 1812 H 168.17 -1.91961 -5.68253 0
M  V30 1813 H 169.849 -2.42251 -5.99936 0
M  V30 1814 N 169.982 1.44106 -0.638065 0
M  V30 1815 C 171.207 2.0685 -0.150916 0
M  V30 1816 C 171.632 1.47417 1.16833 0
M  V30 1817 O 170.99 0.578264 1.71831 0
M  V30 1818 C 171.038 3.60555 -0.05708 0
M  V30 1819 O 170.142 4.00465 0.984972 0
M  V30 1820 H 169.483 0.658151 -0.0879399 0
M  V30 1821 H 172.013 1.84865 -0.876707 0
M  V30 1822 H 172.023 4.07789 0.131232 0
M  V30 1823 H 170.698 4.03193 -1.02021 0
M  V30 1824 H 169.275 3.64849 0.770672 0
M  V30 1825 N 171.46 0.379036 1.52974 0
M  V30 1826 C 172.688 -0.20679 2.05864 0
M  V30 1827 C 173.103 -1.41356 1.25155 0
M  V30 1828 O 172.46 -1.8009 0.295588 0
M  V30 1829 C 172.511 -0.587045 3.56702 0
M  V30 1830 O 172.232 0.571776 4.34353 0
M  V30 1831 C 173.733 -1.22983 4.25899 0
M  V30 1832 H 170.953 -0.0336123 0.670158 0
M  V30 1833 H 173.497 0.541298 1.97206 0
M  V30 1834 H 171.652 -1.28504 3.65466 0
M  V30 1835 H 172.066 0.261544 5.23847 0
M  V30 1836 H 173.54 -1.44635 5.32715 0
M  V30 1837 H 174.017 -2.19416 3.80465 0
M  V30 1838 H 174.623 -0.572892 4.21424 0
M  V30 1839 N 172.938 -1.57226 0.108567 0
M  V30 1840 C 173.901 -2.13602 -0.831082 0
M  V30 1841 C 174.901 -1.06841 -1.20173 0
M  V30 1842 O 176.091 -1.32666 -1.12895 0
M  V30 1843 C 173.223 -2.66769 -2.12243 0
M  V30 1844 H 174.416 -2.97951 -0.341317 0
M  V30 1845 H 171.969 -1.55667 -0.14057 0
M  V30 1846 H 172.704 -1.85977 -2.65675 0
M  V30 1847 H 172.489 -3.44839 -1.86625 0
M  V30 1848 H 173.979 -3.10332 -2.79435 0
M  V30 1849 N 174.416 0.165178 -1.56732 0
M  V30 1850 C 175.663 0.880807 -1.8234 0
M  V30 1851 C 175.991 1.81977 -0.686621 0
M  V30 1852 O 175.246 1.92971 0.325697 0
M  V30 1853 C 175.545 1.70405 -3.1416 0
M  V30 1854 C 175.211 0.913475 -4.4155 0
M  V30 1855 C 173.873 0.695303 -4.7615 0
M  V30 1856 C 176.225 0.359349 -5.1996 0
M  V30 1857 C 173.553 -0.0879947 -5.86634 0
M  V30 1858 C 175.905 -0.410893 -6.31264 0
M  V30 1859 C 174.569 -0.639808 -6.64427 0
M  V30 1860 H 173.839 0.32231 -0.667231 0
M  V30 1861 H 176.486 0.145402 -1.90947 0
M  V30 1862 H 174.791 2.50903 -3.00923 0
M  V30 1863 H 176.488 2.26091 -3.31186 0
M  V30 1864 H 173.078 1.09357 -4.14414 0
M  V30 1865 H 177.262 0.515228 -4.93618 0
M  V30 1866 H 172.518 -0.27503 -6.10781 0
M  V30 1867 H 176.692 -0.847494 -6.91224 0
M  V30 1868 H 174.319 -1.24864 -7.49875 0
M  V30 1869 N 175.894 1.51508 0.433938 0
M  V30 1870 C 176.857 1.72473 1.50949 0
M  V30 1871 C 177.857 0.594725 1.49398 0
M  V30 1872 O 179.047 0.862315 1.5136 0
M  V30 1873 C 176.179 1.78431 2.90474 0
M  V30 1874 H 177.372 2.68467 1.33662 0
M  V30 1875 H 174.925 1.41549 0.662836 0
M  V30 1876 H 175.66 0.842645 3.13161 0
M  V30 1877 H 175.445 2.60558 2.93005 0
M  V30 1878 H 176.935 1.96479 3.68491 0
M  V30 1879 N 177.372 -0.689602 1.41712 0
M  V30 1880 C 178.305 -1.81403 1.3845 0
M  V30 1881 C 179.283 -1.60653 0.250874 0
M  V30 1882 O 180.467 -1.83323 0.43874 0
M  V30 1883 C 177.594 -3.18176 1.1611 0
M  V30 1884 C 176.64 -3.57705 2.3227 0
M  V30 1885 S 177.473 -3.61827 3.94767 0
M  V30 1886 C 178.629 -5.01318 3.74742 0
M  V30 1887 H 178.862 -1.83893 2.33603 0
M  V30 1888 H 176.395 -0.858878 1.28307 0
M  V30 1889 H 178.353 -3.97132 1.03907 0
M  V30 1890 H 177.014 -3.13288 0.225668 0
M  V30 1891 H 176.207 -4.57082 2.12349 0
M  V30 1892 H 175.809 -2.86073 2.40911 0
M  V30 1893 H 178.101 -5.88986 3.34817 0
M  V30 1894 H 179.044 -5.26283 4.73743 0
M  V30 1895 H 179.452 -4.73138 3.07898 0
M  V30 1896 N 178.85 -1.27639 -0.924453 0
M  V30 1897 C 180.078 -1.16989 -1.70649 0
M  V30 1898 C 180.493 0.272869 -1.86818 0
M  V30 1899 O 179.85 1.18549 -1.38753 0
M  V30 1900 C 179.901 -1.85229 -3.10439 0
M  V30 1901 O 179.622 -3.23868 -2.95028 0
M  V30 1902 C 181.123 -1.80746 -4.04779 0
M  V30 1903 H 178.343 -0.406595 -0.53378 0
M  V30 1904 H 180.887 -1.68569 -1.15778 0
M  V30 1905 H 179.042 -1.37545 -3.6216 0
M  V30 1906 H 179.456 -3.57889 -3.83426 0
M  V30 1907 H 180.93 -2.33101 -5.00368 0
M  V30 1908 H 181.407 -0.777499 -4.32263 0
M  V30 1909 H 182.013 -2.28059 -3.58984 0
M  V30 1910 N 180.328 1.1314 -1.09713 0
M  V30 1911 C 181.275 2.18642 -0.739196 0
M  V30 1912 C 182.245 1.63706 0.280978 0
M  V30 1913 O 183.43 1.90111 0.161946 0
M  V30 1914 C 180.57 3.44685 -0.169102 0
M  V30 1915 C 179.683 4.13711 -1.24367 0
M  V30 1916 C 178.818 5.27379 -0.636019 0
M  V30 1917 C 177.857 5.88259 -1.69169 0
M  V30 1918 N 176.994 6.93352 -1.10485 0
M  V30 1919 H 181.834 2.48607 -1.64312 0
M  V30 1920 H 179.371 1.22066 -0.820875 0
M  V30 1921 H 181.329 4.16815 0.179256 0
M  V30 1922 H 179.959 3.15161 0.698079 0
M  V30 1923 H 179.011 3.39835 -1.70927 0
M  V30 1924 H 180.323 4.55037 -2.04311 0
M  V30 1925 H 179.477 6.06238 -0.236677 0
M  V30 1926 H 178.216 4.8731 0.194928 0
M  V30 1927 H 177.221 5.08092 -2.10055 0
M  V30 1928 H 178.446 6.30399 -2.52536 0
M  V30 1929 H 176.392 6.55335 -0.295234 0
M  V30 1930 H 176.309 7.33236 -1.84121 0
M  V30 1931 H 177.577 7.76057 -0.73181 0
M  V30 1932 N 181.806 0.884767 1.30421 0
M  V30 1933 C 182.736 0.367574 2.30589 0
M  V30 1934 C 183.717 -0.549464 1.60981 0
M  V30 1935 O 184.902 -0.46336 1.88591 0
M  V30 1936 C 182.032 -0.418944 3.44764 0
M  V30 1937 C 180.986 0.406316 4.26067 0
M  V30 1938 C 180.312 -0.506793 5.32293 0
M  V30 1939 C 181.612 1.64832 4.95608 0
M  V30 1940 H 183.306 1.20462 2.74097 0
M  V30 1941 H 180.852 0.580695 1.31772 0
M  V30 1942 H 182.805 -0.791395 4.13902 0
M  V30 1943 H 181.529 -1.28964 3.0006 0
M  V30 1944 H 180.188 0.760903 3.58617 0
M  V30 1945 H 179.836 -1.37519 4.83836 0
M  V30 1946 H 179.536 0.0415828 5.87585 0
M  V30 1947 H 181.06 -0.875764 6.04287 0
M  V30 1948 H 182.474 1.34646 5.57264 0
M  V30 1949 H 180.871 2.13688 5.60765 0
M  V30 1950 H 181.941 2.39284 4.21748 0
M  V30 1951 N 183.284 -1.43765 0.645699 0
M  V30 1952 C 184.532 -2.01499 0.155731 0
M  V30 1953 C 184.853 -1.51151 -1.232 0
M  V30 1954 O 184.123 -0.721044 -1.82148 0
M  V30 1955 H 182.703 -0.745003 0.0545817 0
M  V30 1956 H 185.365 -1.76075 0.835677 0
M  V30 1957 H 184.461 -3.1181 0.134577 0
M  V30 1958 N 184.763 -0.387143 -1.52771 0
M  V30 1959 C 185.726 0.436939 -2.24997 0
M  V30 1960 C 186.726 0.991991 -1.26555 0
M  V30 1961 O 187.916 0.874335 -1.50669 0
M  V30 1962 C 185.048 1.61281 -3.00335 0
M  V30 1963 H 186.241 -0.195365 -2.99263 0
M  V30 1964 H 183.794 -0.139218 -1.55679 0
M  V30 1965 H 184.529 2.2826 -2.30364 0
M  V30 1966 H 184.314 1.22154 -3.72587 0
M  V30 1967 H 185.804 2.19629 -3.5518 0
M  V30 1968 N 186.241 1.57166 -0.116904 0
M  V30 1969 C 187.481 1.97008 0.544715 0
M  V30 1970 C 187.845 0.998713 1.63981 0
M  V30 1971 O 189.046 1.28644 2.36018 0
M  V30 1972 C 187.317 3.41145 1.06559 0
M  V30 1973 S 188.876 4.02998 1.73603 0
M  V30 1974 H 185.694 0.688587 0.177112 0
M  V30 1975 H 188.296 1.94459 -0.201487 0
M  V30 1976 H 187 4.09592 0.257374 0
M  V30 1977 H 186.531 3.4734 1.84712 0
M  V30 1978 H 188.546 3.93585 3.02168 0
M  V30 1979 N 187.719 -0.156864 1.56817 0
M  V30 1980 C 188.667 -1.21319 1.98455 0
M  V30 1981 C 189.661 -1.45025 0.875444 0
M  V30 1982 O 190.867 -1.45435 1.0606 0
M  V30 1983 H 187.242 -0.408142 0.631605 0
M  V30 1984 H 189.213 -0.835244 2.86472 0
M  V30 1985 C 187.962 -2.54148 2.37285 0
M  V30 1986 H 187.285 -2.36733 3.22176 0
M  V30 1987 H 188.725 -3.26712 2.70251 0
M  V30 1988 C 187.184 -3.13967 1.22173 0
M  V30 1989 O 187.714 -3.98357 0.517149 0
M  V30 1990 N 185.92 -2.7327 0.988536 0
M  V30 1991 H 185.467 -2.04744 1.56326 0
M  V30 1992 H 185.425 -3.13628 0.220209 0
M  V30 1993 N 189.197 -1.51736 -0.425897 0
M  V30 1994 C 190.474 -1.55519 -1.1863 0
M  V30 1995 C 190.854 -0.326219 -2.08564 0
M  V30 1996 O 190.202 0.688012 -2.17896 0
M  V30 1997 C 190.412 -2.87521 -1.9782 0
M  V30 1998 C 191.76 -3.39899 -2.54468 0
M  V30 1999 O 192.784 -2.89148 -2.08019 0
M  V30 2000 O 191.643 -4.2848 -3.39215 0
M  V30 2001 H 188.737 -0.625739 -0.540721 0
M  V30 2002 H 191.283 -1.64055 -0.434038 0
M  V30 2003 H 190.055 -3.68422 -1.31836 0
M  V30 2004 H 189.678 -2.822 -2.80088 0
M  V30 2005 N 190.675 0.682077 -1.42076 0
M  V30 2006 C 191.903 1.47057 -1.4554 0
M  V30 2007 C 192.318 1.8869 -0.0645779 0
M  V30 2008 O 191.675 1.57666 0.919115 0
M  V30 2009 C 191.726 2.72442 -2.37609 0
M  V30 2010 O 191.447 2.32559 -3.71279 0
M  V30 2011 C 192.948 3.66069 -2.50017 0
M  V30 2012 H 190.168 0.452737 -0.495248 0
M  V30 2013 H 192.712 0.838695 -1.8651 0
M  V30 2014 H 190.867 3.31835 -1.9991 0
M  V30 2015 H 191.281 3.13475 -4.20516 0
M  V30 2016 H 192.755 4.50792 -3.18576 0
M  V30 2017 H 193.232 4.11476 -1.53572 0
M  V30 2018 H 193.838 3.12572 -2.88407 0
M  V30 2019 N 192.153 1.28127 0.917671 0
M  V30 2020 C 193.083 1.14248 2.03641 0
M  V30 2021 C 194.064 0.0412748 1.7005 0
M  V30 2022 O 195.249 0.217566 1.92977 0
M  V30 2023 C 192.379 0.799431 3.37974 0
M  V30 2024 C 191.333 1.85497 3.85713 0
M  V30 2025 C 190.659 1.36565 5.16966 0
M  V30 2026 C 191.959 3.26085 4.08002 0
M  V30 2027 H 193.653 2.07835 2.15511 0
M  V30 2028 H 191.199 1.00064 1.03553 0
M  V30 2029 H 193.152 0.689114 4.15727 0
M  V30 2030 H 191.876 -0.172145 3.26146 0
M  V30 2031 H 190.535 1.95437 3.10161 0
M  V30 2032 H 190.183 0.383253 5.01538 0
M  V30 2033 H 189.883 2.07143 5.49878 0
M  V30 2034 H 191.407 1.26848 5.97279 0
M  V30 2035 H 192.821 3.19089 4.76293 0
M  V30 2036 H 191.218 3.94462 4.52238 0
M  V30 2037 H 192.288 3.70394 3.12948 0
M  V30 2038 N 193.631 -1.12557 1.10312 0
M  V30 2039 C 194.563 -2.17971 0.708625 0
M  V30 2040 C 195.576 -1.60806 -0.254027 0
M  V30 2041 O 196.765 -1.78458 -0.0386891 0
M  V30 2042 C 193.865 -3.38891 0.0248198 0
M  V30 2043 C 193.038 -4.25548 1.01132 0
M  V30 2044 C 192.097 -5.24972 0.35924 0
M  V30 2045 O 191.123 -5.60174 1.00965 0
M  V30 2046 N 192.325 -5.73747 -0.882847 0
M  V30 2047 H 195.09 -2.52427 1.61557 0
M  V30 2048 H 192.651 -1.27967 0.991771 0
M  V30 2049 H 194.643 -4.02485 -0.422852 0
M  V30 2050 H 193.213 -3.02596 -0.784514 0
M  V30 2051 H 192.433 -3.58589 1.6373 0
M  V30 2052 H 193.721 -4.80294 1.67914 0
M  V30 2053 H 193.119 -5.4731 -1.43065 0
M  V30 2054 H 191.676 -6.39234 -1.27369 0
M  V30 2055 N 195.109 -0.891671 -1.2995 0
M  V30 2056 C 196.041 -0.320695 -2.26945 0
M  V30 2057 C 197.054 0.528497 -1.53983 0
M  V30 2058 O 198.243 0.346959 -1.75096 0
M  V30 2059 C 195.343 0.562066 -3.34207 0
M  V30 2060 C 194.516 -0.259576 -4.36629 0
M  V30 2061 C 193.575 0.554739 -5.23268 0
M  V30 2062 O 192.601 -0.0249311 -5.69195 0
M  V30 2063 N 193.803 1.8625 -5.4981 0
M  V30 2064 H 196.568 -1.15432 -2.76578 0
M  V30 2065 H 194.129 -0.755336 -1.432 0
M  V30 2066 H 196.121 1.11304 -3.89093 0
M  V30 2067 H 194.691 1.29637 -2.84452 0
M  V30 2068 H 193.911 -0.991986 -3.81514 0
M  V30 2069 H 195.199 -0.822564 -5.02107 0
M  V30 2070 H 194.597 2.35628 -5.14292 0
M  V30 2071 H 193.154 2.36078 -6.07545 0
M  V30 2072 N 196.587 1.43421 -0.653314 0
M  V30 2073 C 197.517 2.33487 0.0246656 0
M  V30 2074 C 198.498 1.49475 0.811863 0
M  V30 2075 O 199.683 1.78139 0.773322 0
M  V30 2076 C 196.813 3.32841 0.99166 0
M  V30 2077 C 195.767 4.26842 0.314568 0
M  V30 2078 C 195.093 5.16236 1.39302 0
M  V30 2079 C 196.393 5.16243 -0.793095 0
M  V30 2080 H 198.087 2.90427 -0.727481 0
M  V30 2081 H 195.633 1.39649 -0.351287 0
M  V30 2082 H 197.586 3.94747 1.47487 0
M  V30 2083 H 196.31 2.74158 1.77497 0
M  V30 2084 H 194.969 3.663 -0.148199 0
M  V30 2085 H 194.617 4.53891 2.16776 0
M  V30 2086 H 194.317 5.79948 0.945223 0
M  V30 2087 H 195.841 5.81015 1.87759 0
M  V30 2088 H 197.255 5.71958 -0.392039 0
M  V30 2089 H 195.652 5.88676 -1.16536 0
M  V30 2090 H 196.722 4.55927 -1.65103 0
M  V30 2091 N 198.065 0.39524 1.52563 0
M  V30 2092 C 198.998 -0.4813 2.23067 0
M  V30 2093 C 199.976 -1.05927 1.23362 0
M  V30 2094 O 201.16 -1.10979 1.52368 0
M  V30 2095 C 198.287 -1.66676 2.9485 0
M  V30 2096 C 197.333 -1.21348 4.08873 0
M  V30 2097 S 198.166 -0.190102 5.35162 0
M  V30 2098 C 199.322 -1.38121 6.1047 0
M  V30 2099 H 199.555 0.117381 2.97068 0
M  V30 2100 H 197.088 0.179458 1.53354 0
M  V30 2101 H 199.046 -2.3466 3.36816 0
M  V30 2102 H 197.707 -2.23676 2.20518 0
M  V30 2103 H 196.9 -2.09877 4.58222 0
M  V30 2104 H 196.502 -0.612486 3.68951 0
M  V30 2105 H 198.794 -2.30726 6.37002 0
M  V30 2106 H 199.737 -0.928521 7.01986 0
M  V30 2107 H 200.145 -1.60071 5.41329 0
M  V30 2108 N 199.544 -1.57102 0.125237 0
M  V30 2109 C 200.454 -2.19191 -0.8362 0
M  V30 2110 C 201.47 -1.16985 -1.28805 0
M  V30 2111 O 202.646 -1.49479 -1.34974 0
M  V30 2112 C 199.711 -2.78407 -2.06617 0
M  V30 2113 C 198.772 -3.9567 -1.66565 0
M  V30 2114 C 198.005 -4.52052 -2.83698 0
M  V30 2115 O 198.228 -4.07326 -3.99302 0
M  V30 2116 O 197.162 -5.42645 -2.60423 0
M  V30 2117 H 200.988 -3.01816 -0.337776 0
M  V30 2118 H 198.573 -1.4906 -0.100695 0
M  V30 2119 H 200.455 -3.16129 -2.7864 0
M  V30 2120 H 199.13 -1.9881 -2.55453 0
M  V30 2121 H 198.037 -3.62705 -0.916296 0
M  V30 2122 H 199.37 -4.76722 -1.22464 0
M  V30 2123 N 201.022 0.148545 -1.56898 0
M  V30 2124 C 202.268 0.862694 -1.83536 0
M  V30 2125 C 202.601 1.80889 -0.706604 0
M  V30 2126 O 201.876 1.92328 0.289885 0
M  V30 2127 C 202.159 1.63853 -3.20662 0
M  V30 2128 C 202.012 0.713925 -4.44098 0
M  V30 2129 C 203.331 2.60133 -3.54991 0
M  V30 2130 H 200.45 0.312179 -0.667618 0
M  V30 2131 H 203.092 0.127953 -1.89569 0
M  V30 2132 H 201.242 2.26489 -3.1565 0
M  V30 2133 H 202.914 0.098686 -4.61194 0
M  V30 2134 H 201.157 0.0234019 -4.33794 0
M  V30 2135 H 201.828 1.29278 -5.36648 0
M  V30 2136 H 204.304 2.07616 -3.60603 0
M  V30 2137 H 203.18 3.11468 -4.51972 0
M  V30 2138 H 203.441 3.41417 -2.80868 0
M  V30 2139 N 202.5 1.5196 0.417844 0
M  V30 2140 C 203.747 1.65591 1.16559 0
M  V30 2141 C 204.075 0.381565 1.90721 0
M  V30 2142 O 203.33 -0.635156 1.85106 0
M  V30 2143 C 203.629 2.82269 2.19223 0
M  V30 2144 C 203.295 4.20819 1.61933 0
M  V30 2145 C 201.957 4.58506 1.46033 0
M  V30 2146 C 204.309 5.07196 1.20008 0
M  V30 2147 C 201.637 5.80257 0.867113 0
M  V30 2148 C 203.989 6.29544 0.621086 0
M  V30 2149 C 202.653 6.65987 0.449144 0
M  V30 2150 H 201.923 0.605939 0.42652 0
M  V30 2151 H 204.57 1.86041 0.45397 0
M  V30 2152 H 202.875 2.56118 2.96498 0
M  V30 2153 H 204.572 2.90012 2.76936 0
M  V30 2154 H 201.162 3.91116 1.7529 0
M  V30 2155 H 205.346 4.7867 1.31105 0
M  V30 2156 H 200.602 6.07124 0.721833 0
M  V30 2157 H 204.776 6.95805 0.287798 0
M  V30 2158 H 202.403 7.60199 -0.012632 0
M  V30 2159 N 203.978 -0.674533 1.42435 0
M  V30 2160 C 204.925 -1.78807 1.45934 0
M  V30 2161 C 205.895 -1.63157 0.311271 0
M  V30 2162 O 207.08 -1.83707 0.515383 0
M  V30 2163 C 204.22 -3.16839 1.36773 0
M  V30 2164 C 203.333 -3.43774 2.61617 0
M  V30 2165 C 202.468 -4.71536 2.44597 0
M  V30 2166 C 201.507 -4.91505 3.64814 0
M  V30 2167 N 200.644 -6.10508 3.46734 0
M  V30 2168 H 205.484 -1.75151 2.41093 0
M  V30 2169 H 203.021 -0.85504 1.19697 0
M  V30 2170 H 204.979 -3.96606 1.29459 0
M  V30 2171 H 203.609 -3.19619 0.452089 0
M  V30 2172 H 202.661 -2.58259 2.79297 0
M  V30 2173 H 203.973 -3.54423 3.50978 0
M  V30 2174 H 203.127 -5.59393 2.3487 0
M  V30 2175 H 201.866 -4.6317 1.52726 0
M  V30 2176 H 200.871 -4.0209 3.74972 0
M  V30 2177 H 202.096 -5.01716 4.57665 0
M  V30 2178 H 200.042 -6.03315 2.5758 0
M  V30 2179 H 199.959 -6.2202 4.29682 0
M  V30 2180 H 201.227 -7.01044 3.40819 0
M  V30 2181 N 205.456 -1.28612 -0.910864 0
M  V30 2182 C 206.703 -1.15934 -1.66029 0
M  V30 2183 C 207.031 0.291483 -1.92303 0
M  V30 2184 O 206.286 1.22816 -1.52364 0
M  V30 2185 C 206.585 -1.90624 -3.0232 0
M  V30 2186 C 206.251 -3.40405 -2.95695 0
M  V30 2187 C 204.913 -3.81255 -2.93595 0
M  V30 2188 C 207.265 -4.359 -2.85728 0
M  V30 2189 C 204.593 -5.15936 -2.79334 0
M  V30 2190 C 206.945 -5.70657 -2.73007 0
M  V30 2191 C 205.609 -6.10779 -2.69267 0
M  V30 2192 H 204.879 -0.424234 -0.607541 0
M  V30 2193 H 207.526 -1.5942 -1.06101 0
M  V30 2194 H 205.831 -1.39696 -3.6605 0
M  V30 2195 H 207.528 -1.78228 -3.59215 0
M  V30 2196 H 204.118 -3.07927 -2.98125 0
M  V30 2197 H 208.302 -4.053 -2.86436 0
M  V30 2198 H 203.558 -5.46146 -2.74835 0
M  V30 2199 H 207.732 -6.44311 -2.64264 0
M  V30 2200 H 205.359 -7.1509 -2.57974 0
M  V30 2201 N 206.934 1.1197 -1.10907 0
M  V30 2202 C 208.211 1.79959 -0.766432 0
M  V30 2203 C 208.591 1.97466 0.746363 0
M  V30 2204 O 207.939 1.55491 1.67436 0
M  V30 2205 C 208.149 3.14009 -1.52314 0
M  V30 2206 C 209.497 3.89134 -1.69883 0
M  V30 2207 O 210.521 3.2368 -1.48692 0
M  V30 2208 O 209.38 5.06572 -2.05054 0
M  V30 2209 H 206.474 0.779208 -0.277062 0
M  V30 2210 H 209.02 1.18762 -1.21217 0
M  V30 2211 H 207.792 2.96587 -2.55249 0
M  V30 2212 H 207.415 3.82915 -1.07059 0
M  V30 2213 N 208.412 0.89855 1.29475 0
M  V30 2214 C 209.64 0.539261 1.99749 0
M  V30 2215 C 210.055 -0.875716 1.67262 0
M  V30 2216 O 209.412 -1.57786 0.917049 0
M  V30 2217 C 209.463 0.72061 3.54245 0
M  V30 2218 O 209.184 2.07989 3.8558 0
M  V30 2219 C 210.685 0.366118 4.41786 0
M  V30 2220 H 207.905 0.207047 0.638258 0
M  V30 2221 H 210.449 1.20758 1.65039 0
M  V30 2222 H 208.604 0.0994862 3.87272 0
M  V30 2223 H 209.018 2.10841 4.80257 0
M  V30 2224 H 210.492 0.543848 5.49314 0
M  V30 2225 H 210.969 -0.696763 4.33638 0
M  V30 2226 H 211.575 0.964135 4.14228 0
M  V30 2227 N 209.89 -1.43072 0.660911 0
M  V30 2228 C 211.139 -2.00942 0.174735 0
M  V30 2229 C 211.452 -1.52797 -1.22117 0
M  V30 2230 O 212.658 -2.02991 -1.80297 0
M  V30 2231 C 211.114 -3.58948 0.261559 0
M  V30 2232 C 210.722 -4.16085 1.66064 0
M  V30 2233 C 212.466 -4.24173 -0.166617 0
M  V30 2234 C 210.373 -5.6641 1.70098 0
M  V30 2235 H 209.303 -0.751483 0.0615631 0
M  V30 2236 H 211.954 -1.63955 0.824069 0
M  V30 2237 H 210.336 -3.93372 -0.455421 0
M  V30 2238 H 211.51 -3.93147 2.40359 0
M  V30 2239 H 209.825 -3.6326 2.03546 0
M  V30 2240 H 212.422 -5.34471 -0.156433 0
M  V30 2241 H 212.765 -3.98647 -1.19943 0
M  V30 2242 H 213.298 -3.94659 0.498875 0
M  V30 2243 H 210.037 -5.96715 2.71315 0
M  V30 2244 H 209.557 -5.91382 1.00139 0
M  V30 2245 H 211.236 -6.30585 1.44816 0
M  V30 2246 N 211.368 -0.403325 -1.52352 0
M  V30 2247 C 212.593 0.176499 -2.06648 0
M  V30 2248 C 213.018 1.38577 -1.27193 0
M  V30 2249 O 212.376 1.7879 -0.300637 0
M  V30 2250 C 212.424 0.511061 -3.5696 0
M  V30 2251 O 211.528 1.60294 -3.79973 0
M  V30 2252 H 210.869 0.0167337 -0.663789 0
M  V30 2253 H 213.399 -0.574848 -1.96359 0
M  V30 2254 H 213.409 0.771362 -4.00642 0
M  V30 2255 H 212.084 -0.37296 -4.14224 0
M  V30 2256 H 210.661 1.33526 -3.48174 0
M  V30 2257 N 212.846 1.57033 -0.133567 0
M  V30 2258 C 213.756 2.19632 0.824564 0
M  V30 2259 C 214.772 1.17666 1.28182 0
M  V30 2260 O 215.948 1.50193 1.3418 0
M  V30 2261 C 213.013 2.79499 2.05137 0
M  V30 2262 C 212.074 3.96548 1.64464 0
M  V30 2263 C 211.307 4.5355 2.81297 0
M  V30 2264 O 211.53 4.09438 3.97136 0
M  V30 2265 O 210.464 5.44018 2.57542 0
M  V30 2266 H 214.29 3.01991 0.321766 0
M  V30 2267 H 211.875 1.49112 0.0927889 0
M  V30 2268 H 213.757 3.17602 2.7696 0
M  V30 2269 H 212.432 2.00162 2.54395 0
M  V30 2270 H 211.339 3.63186 0.897048 0
M  V30 2271 H 212.672 4.77364 1.19934 0
M  V30 2272 N 214.325 -0.140222 1.56975 0
M  V30 2273 C 215.272 -1.17292 1.98774 0
M  V30 2274 C 216.242 -1.4232 0.856408 0
M  V30 2275 O 217.427 -1.54541 1.119 0
M  V30 2276 C 214.567 -2.49973 2.37923 0
M  V30 2277 C 213.68 -2.32062 3.64378 0
M  V30 2278 C 212.815 -3.57825 3.926 0
M  V30 2279 C 211.854 -3.3498 5.12303 0
M  V30 2280 N 210.991 -4.52891 5.36502 0
M  V30 2281 H 215.831 -0.809472 2.86795 0
M  V30 2282 H 213.368 -0.388237 1.41884 0
M  V30 2283 H 215.326 -3.27346 2.58652 0
M  V30 2284 H 213.956 -2.84252 1.52972 0
M  V30 2285 H 213.008 -1.45711 3.51387 0
M  V30 2286 H 214.32 -2.11145 4.51906 0
M  V30 2287 H 213.474 -4.43624 4.13863 0
M  V30 2288 H 212.213 -3.81753 3.03506 0
M  V30 2289 H 211.218 -2.4757 4.90906 0
M  V30 2290 H 212.443 -3.12444 6.02956 0
M  V30 2291 H 210.389 -4.76979 4.50363 0
M  V30 2292 H 210.306 -4.35001 6.18312 0
M  V30 2293 H 211.574 -5.39884 5.62268 0
M  V30 2294 N 215.803 -1.52179 -0.40978 0
M  V30 2295 C 217.031 -1.70054 -1.17853 0
M  V30 2296 C 217.446 -0.409735 -1.843 0
M  V30 2297 O 216.803 0.614183 -1.71855 0
M  V30 2298 C 216.854 -2.83568 -2.24213 0
M  V30 2299 O 216.575 -4.0765 -1.60478 0
M  V30 2300 C 218.076 -3.12947 -3.13973 0
M  V30 2301 H 215.296 -0.569917 -0.354169 0
M  V30 2302 H 217.84 -1.98734 -0.482198 0
M  V30 2303 H 215.995 -2.57409 -2.89516 0
M  V30 2304 H 216.409 -4.70899 -2.30986 0
M  V30 2305 H 217.883 -3.95889 -3.84677 0
M  V30 2306 H 218.36 -2.26472 -3.76307 0
M  V30 2307 H 218.966 -3.40868 -2.5434 0
M  V30 2308 N 217.281 0.66697 -1.42791 0
M  V30 2309 C 218.506 1.46004 -1.47301 0
M  V30 2310 C 218.931 1.87894 -0.0880317 0
M  V30 2311 O 218.289 1.56502 0.915253 0
M  V30 2312 C 218.337 2.68031 -2.41229 0
M  V30 2313 O 217.441 3.6659 -1.88906 0
M  V30 2314 H 216.782 0.43832 -0.49877 0
M  V30 2315 H 219.312 0.817391 -1.87563 0
M  V30 2316 H 219.322 3.1601 -2.58073 0
M  V30 2317 H 217.997 2.36883 -3.41847 0
M  V30 2318 H 216.574 3.25661 -1.81656 0
M  V30 2319 N 218.759 1.29093 0.90403 0
M  V30 2320 C 220.036 1.075 1.63411 0
M  V30 2321 C 220.416 -0.382346 2.07609 0
M  V30 2322 O 219.764 -1.37031 1.82851 0
M  V30 2323 C 219.974 2.05858 2.81822 0
M  V30 2324 C 221.322 2.36539 3.52611 0
M  V30 2325 O 222.346 2.04019 2.91984 0
M  V30 2326 O 221.205 2.92085 4.61897 0
M  V30 2327 H 218.299 0.411547 0.717327 0
M  V30 2328 H 220.845 1.40449 0.952479 0
M  V30 2329 H 219.617 3.04037 2.46327 0
M  V30 2330 H 219.24 1.73613 3.57693 0
M  V30 2331 N 220.237 -1.11381 1.11499 0
M  V30 2332 C 221.169 -2.17207 0.731704 0
M  V30 2333 C 222.182 -1.61066 -0.236957 0
M  V30 2334 O 223.371 -1.78489 -0.0197591 0
M  V30 2335 C 220.471 -3.38846 0.0607624 0
M  V30 2336 C 219.644 -4.24451 1.0564 0
M  V30 2337 C 218.703 -5.24562 0.4149 0
M  V30 2338 O 217.729 -5.59071 1.069 0
M  V30 2339 N 218.931 -5.74651 -0.821943 0
M  V30 2340 H 221.696 -2.50699 1.64225 0
M  V30 2341 H 219.257 -1.26908 1.00529 0
M  V30 2342 H 221.249 -4.02911 -0.380139 0
M  V30 2343 H 219.819 -3.03411 -0.752376 0
M  V30 2344 H 219.039 -3.56833 1.67524 0
M  V30 2345 H 220.327 -4.78486 1.72998 0
M  V30 2346 H 219.725 -5.48797 -1.37252 0
M  V30 2347 H 218.282 -6.40549 -1.20582 0
M  V30 2348 N 221.715 -0.905404 -1.28997 0
M  V30 2349 C 222.964 -0.530191 -1.94607 0
M  V30 2350 C 223.277 0.929185 -1.72121 0
M  V30 2351 O 224.483 1.41218 -2.31883 0
M  V30 2352 C 222.939 -0.897333 -3.48534 0
M  V30 2353 C 222.547 -2.37587 -3.79811 0
M  V30 2354 C 224.291 -0.592304 -4.20347 0
M  V30 2355 C 222.198 -2.68357 -5.27009 0
M  V30 2356 H 221.128 -0.194558 -0.728466 0
M  V30 2357 H 223.779 -1.10318 -1.46636 0
M  V30 2358 H 222.161 -0.253214 -3.9519 0
M  V30 2359 H 223.335 -3.06602 -3.43994 0
M  V30 2360 H 221.65 -2.6505 -3.2115 0
M  V30 2361 H 224.247 -0.798975 -5.28697 0
M  V30 2362 H 224.59 0.469474 -4.13644 0
M  V30 2363 H 225.123 -1.19452 -3.79442 0
M  V30 2364 H 221.862 -3.73355 -5.38782 0
M  V30 2365 H 221.382 -2.03971 -5.64053 0
M  V30 2366 H 223.061 -2.54922 -5.94663 0
M  V30 2367 N 223.193 1.4272 -0.668489 0
M  V30 2368 C 224.143 2.27971 0.0363806 0
M  V30 2369 C 225.127 1.40741 0.779794 0
M  V30 2370 O 226.319 1.64245 0.659745 0
M  V30 2371 C 223.448 3.28673 0.991398 0
M  V30 2372 C 222.534 4.23388 0.245658 0
M  V30 2373 N 222.925 5.00267 -0.746069 0
M  V30 2374 C 221.223 4.43355 0.484988 0
M  V30 2375 C 221.924 5.69396 -1.19009 0
M  V30 2376 N 220.9 5.41095 -0.521287 0
M  V30 2377 H 224.702 2.84833 -0.724394 0
M  V30 2378 H 222.216 1.54607 -0.497028 0
M  V30 2379 H 224.213 3.88543 1.51129 0
M  V30 2380 H 222.873 2.73373 1.75207 0
M  V30 2381 H 223.884 5.05525 -1.12537 0
M  V30 2382 H 220.561 3.99104 1.22565 0
M  V30 2383 H 221.951 6.41083 -2.01153 0
M  V30 2384 N 224.671 0.411399 1.52136 0
M  V30 2385 C 225.918 -0.163645 2.01838 0
M  V30 2386 C 226.246 -1.4495 1.29691 0
M  V30 2387 O 225.501 -1.91725 0.392431 0
M  V30 2388 C 225.8 -0.455872 3.54481 0
M  V30 2389 C 225.466 0.741055 4.44769 0
M  V30 2390 C 224.128 1.06936 4.69167 0
M  V30 2391 C 226.48 1.54075 4.97906 0
M  V30 2392 C 223.808 2.19851 5.43951 0
M  V30 2393 C 226.16 2.66067 5.73926 0
M  V30 2394 C 224.824 2.99381 5.96596 0
M  V30 2395 H 224.094 -0.0598821 0.738576 0
M  V30 2396 H 226.741 0.553283 1.83333 0
M  V30 2397 H 225.046 -1.2544 3.71177 0
M  V30 2398 H 226.743 -0.913802 3.90449 0
M  V30 2399 H 223.333 0.475192 4.25958 0
M  V30 2400 H 227.517 1.30033 4.78963 0
M  V30 2401 H 222.773 2.46006 5.59724 0
M  V30 2402 H 226.947 3.28419 6.14096 0
M  V30 2403 H 224.574 3.86992 6.54325 0
M  V30 2404 N 226.149 -1.5696 0.141893 0
M  V30 2405 C 227.396 -1.9596 -0.510492 0
M  V30 2406 C 227.724 -1.02648 -1.65208 0
M  V30 2407 O 226.979 -0.0546947 -1.95624 0
M  V30 2408 C 227.278 -3.41242 -1.06249 0
M  V30 2409 C 226.944 -4.50882 -0.0398791 0
M  V30 2410 C 225.606 -4.80595 0.241247 0
M  V30 2411 C 227.958 -5.17058 0.65578 0
M  V30 2412 C 225.286 -5.73792 1.22393 0
M  V30 2413 C 227.638 -6.11313 1.62724 0
M  V30 2414 C 226.302 -6.39407 1.91612 0
M  V30 2415 H 225.572 -0.717068 -0.186802 0
M  V30 2416 H 228.219 -1.90142 0.227643 0
M  V30 2417 H 226.524 -3.43866 -1.87785 0
M  V30 2418 H 228.221 -3.68742 -1.57576 0
M  V30 2419 H 224.811 -4.27754 -0.269174 0
M  V30 2420 H 228.995 -4.94239 0.451779 0
M  V30 2421 H 224.251 -5.93853 1.45424 0
M  V30 2422 H 228.425 -6.61668 2.17183 0
M  V30 2423 H 226.052 -7.11427 2.6791 0
M  V30 2424 N 227.627 0.131896 -1.57047 0
M  V30 2425 C 228.874 0.841932 -1.84168 0
M  V30 2426 C 229.202 1.8048 -0.725066 0
M  V30 2427 O 228.457 1.93618 0.284692 0
M  V30 2428 C 228.756 1.63703 -3.17704 0
M  V30 2429 C 228.422 0.81961 -4.43388 0
M  V30 2430 C 227.084 0.594148 -4.77518 0
M  V30 2431 C 229.436 0.248977 -5.20605 0
M  V30 2432 C 226.764 -0.212409 -5.86315 0
M  V30 2433 C 229.116 -0.544701 -6.30251 0
M  V30 2434 C 227.78 -0.780599 -6.6292 0
M  V30 2435 H 227.05 0.308085 -0.673917 0
M  V30 2436 H 229.697 0.104867 -1.91213 0
M  V30 2437 H 228.002 2.44464 -3.06177 0
M  V30 2438 H 229.699 2.19015 -3.35907 0
M  V30 2439 H 226.289 1.00542 -4.16641 0
M  V30 2440 H 230.473 0.410408 -4.946 0
M  V30 2441 H 225.729 -0.404524 -6.1006 0
M  V30 2442 H 229.903 -0.993922 -6.89271 0
M  V30 2443 H 227.53 -1.40742 -7.47058 0
M  V30 2444 N 229.106 1.52395 0.401703 0
M  V30 2445 C 230.069 1.75636 1.47257 0
M  V30 2446 C 231.069 0.62628 1.48103 0
M  V30 2447 O 232.259 0.894227 1.49497 0
M  V30 2448 C 229.391 1.84553 2.86624 0
M  V30 2449 H 230.584 2.71241 1.27938 0
M  V30 2450 H 228.137 1.42923 0.632662 0
M  V30 2451 H 228.872 0.908882 3.11303 0
M  V30 2452 H 228.657 2.66715 2.87412 0
M  V30 2453 H 230.147 2.04251 3.64241 0
M  V30 2454 N 230.584 -0.659388 1.43143 0
M  V30 2455 C 231.531 -1.77249 1.47822 0
M  V30 2456 C 232.501 -1.62818 0.328558 0
M  V30 2457 O 233.686 -1.83151 0.534838 0
M  V30 2458 C 230.826 -3.15371 1.40126 0
M  V30 2459 C 229.939 -3.4098 2.65249 0
M  V30 2460 C 229.074 -4.68915 2.49584 0
M  V30 2461 C 228.113 -4.87608 3.70006 0
M  V30 2462 N 227.25 -6.06796 3.53189 0
M  V30 2463 H 232.09 -1.72584 2.42938 0
M  V30 2464 H 229.627 -0.842297 1.20598 0
M  V30 2465 H 231.585 -3.9521 1.33659 0
M  V30 2466 H 230.215 -3.19121 0.485964 0
M  V30 2467 H 229.267 -2.55282 2.8202 0
M  V30 2468 H 230.579 -3.50681 3.54717 0
M  V30 2469 H 229.733 -5.56871 2.4079 0
M  V30 2470 H 228.472 -4.61524 1.5763 0
M  V30 2471 H 227.477 -3.9809 3.79215 0
M  V30 2472 H 228.702 -4.96834 4.62961 0
M  V30 2473 H 226.648 -6.00549 2.63965 0
M  V30 2474 H 226.565 -6.17428 4.36255 0
M  V30 2475 H 227.833 -6.9739 3.48236 0
M  V30 2476 N 232.062 -1.29571 -0.897171 0
M  V30 2477 C 232.992 -1.17473 -2.01798 0
M  V30 2478 C 233.973 -0.068323 -1.69963 0
M  V30 2479 O 235.158 -0.248239 -1.92607 0
M  V30 2480 C 232.288 -0.853099 -3.36659 0
M  V30 2481 C 231.242 -1.9161 -3.82713 0
M  V30 2482 C 230.568 -1.44773 -5.14728 0
M  V30 2483 C 231.868 -3.32535 -4.02763 0
M  V30 2484 H 233.562 -2.11237 -2.12177 0
M  V30 2485 H 231.108 -1.01699 -1.01948 0
M  V30 2486 H 233.061 -0.755165 -4.14578 0
M  V30 2487 H 231.785 0.120236 -3.26379 0
M  V30 2488 H 230.444 -2.00346 -3.07013 0
M  V30 2489 H 230.092 -0.462995 -5.00865 0
M  V30 2490 H 229.792 -2.15865 -5.46513 0
M  V30 2491 H 231.316 -1.36334 -5.95185 0
M  V30 2492 H 232.73 -3.26626 -4.71156 0
M  V30 2493 H 231.127 -4.01607 -4.45905 0
M  V30 2494 H 232.197 -3.75326 -3.07016 0
M  V30 2495 N 233.54 1.10788 -1.12088 0
M  V30 2496 C 234.488 2.19111 -0.780587 0
M  V30 2497 C 235.482 1.67818 0.230961 0
M  V30 2498 O 236.688 1.79777 0.0895427 0
M  V30 2499 H 233.063 0.714477 -0.234578 0
M  V30 2500 H 235.034 2.45055 -1.70266 0
M  V30 2501 C 233.783 3.46818 -0.24747 0
M  V30 2502 H 233.106 3.86646 -1.01712 0
M  V30 2503 H 234.546 4.23973 -0.0476291 0
M  V30 2504 C 233.005 3.20968 1.02378 0
M  V30 2505 O 233.535 3.42298 2.10226 0
M  V30 2506 N 231.741 2.74658 0.949271 0
M  V30 2507 H 231.288 2.57501 0.0715173 0
M  V30 2508 H 231.246 2.57739 1.80049 0
M  V30 2509 N 235.018 0.912232 1.28515 0
M  V30 2510 C 236.258 0.551677 1.96814 0
M  V30 2511 C 236.622 -0.887825 1.7024 0
M  V30 2512 O 237.823 -1.35588 2.32098 0
M  V30 2513 C 236.094 0.850555 3.47132 0
M  V30 2514 S 237.653 0.59619 4.34731 0
M  V30 2515 H 234.471 0.204191 0.681049 0
M  V30 2516 H 237.073 1.17736 1.56072 0
M  V30 2517 H 235.777 1.8962 3.63968 0
M  V30 2518 H 235.308 0.213471 3.9282 0
M  V30 2519 H 237.323 -0.553154 4.93107 0
M  V30 2520 N 236.496 -1.42363 0.676048 0
M  V30 2521 C 237.912 -1.55811 0.345718 0
M  V30 2522 C 238.112 -1.65544 -1.14879 0
M  V30 2523 O 237.168 -1.62306 -1.93424 0
M  V30 2524 C 238.481 -2.80746 1.07713 0
M  V30 2525 C 240.029 -2.9452 1.05958 0
M  V30 2526 C 240.504 -4.22318 1.77233 0
M  V30 2527 N 241.995 -4.29233 1.74108 0
M  V30 2528 C 242.73 -5.26935 2.26113 0
M  V30 2529 N 242.226 -6.30783 2.86505 0
M  V30 2530 N 244.019 -5.18741 2.1648 0
M  V30 2531 H 236.17 -1.34289 1.6456 0
M  V30 2532 H 238.433 -0.646506 0.69335 0
M  V30 2533 H 238.139 -2.79696 2.13221 0
M  V30 2534 H 238.013 -3.71676 0.64316 0
M  V30 2535 H 240.4 -2.95097 0.0128255 0
M  V30 2536 H 240.481 -2.04817 1.53244 0
M  V30 2537 H 240.125 -4.22502 2.81877 0
M  V30 2538 H 240.055 -5.10958 1.27396 0
M  V30 2539 H 242.546 -3.54814 1.30059 0
M  V30 2540 H 242.859 -7.01691 3.23805 0
M  V30 2541 H 241.204 -6.31341 2.90575 0
M  V30 2542 H 244.395 -4.36533 1.68987 0
M  V30 2543 H 244.568 -5.94721 2.57316 0
M  V30 2544 N 237.974 -0.419461 -1.51915 0
M  V30 2545 C 238.904 0.391813 -2.30189 0
M  V30 2546 C 239.885 1.03699 -1.34836 0
M  V30 2547 O 241.07 1.04403 -1.63748 0
M  V30 2548 C 238.2 1.50312 -3.13087 0
M  V30 2549 C 237.154 0.9824 -4.16573 0
M  V30 2550 C 236.48 2.18809 -4.8788 0
M  V30 2551 C 237.78 0.0292356 -5.22292 0
M  V30 2552 H 239.474 -0.26135 -2.98257 0
M  V30 2553 H 237.02 -0.127134 -1.43438 0
M  V30 2554 H 238.973 2.07773 -3.66617 0
M  V30 2555 H 237.697 2.18431 -2.42807 0
M  V30 2556 H 236.356 0.430119 -3.64068 0
M  V30 2557 H 236.004 2.85507 -4.14119 0
M  V30 2558 H 235.704 1.84615 -5.57845 0
M  V30 2559 H 237.228 2.76858 -5.44226 0
M  V30 2560 H 238.642 0.512976 -5.71 0
M  V30 2561 H 237.039 -0.2244 -5.9968 0
M  V30 2562 H 238.109 -0.912931 -4.76228 0
M  V30 2563 N 239.452 1.56882 -0.150215 0
M  V30 2564 C 240.682 2.00302 0.506213 0
M  V30 2565 C 241.09 1.02934 1.58749 0
M  V30 2566 O 240.433 0.0188384 1.8369 0
M  V30 2567 C 240.495 3.40156 1.16337 0
M  V30 2568 C 240.159 4.56439 0.226311 0
M  V30 2569 C 241.156 5.17012 -0.547265 0
M  V30 2570 C 238.841 5.02136 0.128279 0
M  V30 2571 C 240.835 6.21693 -1.40629 0
M  V30 2572 C 238.522 6.06672 -0.734345 0
M  V30 2573 C 239.52 6.6632 -1.50023 0
M  V30 2574 O 239.208 7.68831 -2.34848 0
M  V30 2575 H 238.94 0.662182 0.135984 0
M  V30 2576 H 241.494 2.03961 -0.242746 0
M  V30 2577 H 239.724 3.33346 1.96004 0
M  V30 2578 H 241.413 3.67663 1.71985 0
M  V30 2579 H 242.179 4.82603 -0.48158 0
M  V30 2580 H 238.058 4.55435 0.714157 0
M  V30 2581 H 241.602 6.68179 -2.00455 0
M  V30 2582 H 237.499 6.40507 -0.801309 0
M  V30 2583 H 238.267 7.86065 -2.28131 0
M  V30 2584 N 240.93 -0.123565 1.57115 0
M  V30 2585 C 242.346 -0.476961 1.52306 0
M  V30 2586 C 242.546 -1.82109 0.86248 0
M  V30 2587 O 241.602 -2.48586 0.442884 0
M  V30 2588 C 242.915 -0.465661 2.97073 0
M  V30 2589 C 244.463 -0.549534 3.08138 0
M  V30 2590 C 244.938 -0.568669 4.54456 0
M  V30 2591 N 246.429 -0.630237 4.58892 0
M  V30 2592 C 247.164 -0.666415 5.69514 0
M  V30 2593 N 246.66 -0.660514 6.89644 0
M  V30 2594 N 248.453 -0.709077 5.5761 0
M  V30 2595 H 240.604 0.757198 1.98445 0
M  V30 2596 H 242.867 0.278808 0.906074 0
M  V30 2597 H 242.573 0.454232 3.48754 0
M  V30 2598 H 242.447 -1.29513 3.54269 0
M  V30 2599 H 244.834 -1.45985 2.56461 0
M  V30 2600 H 244.915 0.307532 2.53945 0
M  V30 2601 H 244.559 0.337581 5.06777 0
M  V30 2602 H 244.489 -1.44256 5.06456 0
M  V30 2603 H 246.98 -0.641146 3.72421 0
M  V30 2604 H 247.293 -0.690616 7.69708 0
M  V30 2605 H 245.638 -0.628012 6.92157 0
M  V30 2606 H 248.829 -0.711019 4.62668 0
M  V30 2607 H 249.002 -0.733804 6.43832 0
M  V30 2608 N 242.408 -1.52605 -0.393616 0
M  V30 2609 C 243.355 -1.77055 -1.48054 0
M  V30 2610 C 244.325 -0.61358 -1.54352 0
M  V30 2611 O 245.51 -0.852806 -1.70681 0
M  V30 2612 C 242.65 -1.94108 -2.85335 0
M  V30 2613 C 241.763 -3.21792 -2.88226 0
M  V30 2614 C 240.898 -3.29188 -4.16904 0
M  V30 2615 C 239.937 -4.51013 -4.13828 0
M  V30 2616 N 239.074 -4.55716 -5.34105 0
M  V30 2617 H 243.914 -2.69815 -1.26506 0
M  V30 2618 H 241.451 -1.33683 -0.61379 0
M  V30 2619 H 243.409 -2.01979 -3.65049 0
M  V30 2620 H 242.039 -1.04713 -3.05344 0
M  V30 2621 H 241.091 -3.23015 -2.00911 0
M  V30 2622 H 242.403 -4.11557 -2.8182 0
M  V30 2623 H 241.557 -3.36216 -5.05018 0
M  V30 2624 H 240.296 -2.37389 -4.26026 0
M  V30 2625 H 239.301 -4.44115 -3.24102 0
M  V30 2626 H 240.526 -5.44123 -4.06333 0
M  V30 2627 H 238.472 -3.66807 -5.43865 0
M  V30 2628 H 238.389 -5.39346 -5.29756 0
M  V30 2629 H 239.657 -4.66993 -6.2413 0
M  V30 2630 N 243.887 0.651787 -1.4349 0
M  V30 2631 C 244.85 1.74647 -1.48429 0
M  V30 2632 C 245.85 1.56513 -0.368817 0
M  V30 2633 O 247.04 1.62385 -0.630623 0
M  V30 2634 C 244.172 3.13533 -1.33827 0
M  V30 2635 H 245.365 1.71649 -2.4592 0
M  V30 2636 H 242.918 0.863573 -1.30277 0
M  V30 2637 H 243.653 3.22142 -0.37349 0
M  V30 2638 H 243.438 3.28101 -2.14691 0
M  V30 2639 H 244.928 3.93356 -1.40218 0
M  V30 2640 N 245.365 1.30045 0.890287 0
M  V30 2641 C 246.313 1.15873 2.01683 0
M  V30 2642 C 247.307 0.0719403 1.69247 0
M  V30 2643 O 248.513 0.232414 1.78493 0
M  V30 2644 H 244.888 0.358203 0.661207 0
M  V30 2645 H 246.859 2.11229 2.10772 0
M  V30 2646 C 245.608 0.861842 3.36849 0
M  V30 2647 H 244.931 1.69016 3.62317 0
M  V30 2648 H 246.371 0.802762 4.16331 0
M  V30 2649 C 244.83 -0.435132 3.34078 0
M  V30 2650 O 245.36 -1.4583 3.74295 0
M  V30 2651 N 243.566 -0.444377 2.87182 0
M  V30 2652 H 243.113 0.388723 2.5465 0
M  V30 2653 H 243.071 -1.31213 2.85711 0
M  V30 2654 N 246.843 -1.10192 1.12674 0
M  V30 2655 C 247.79 -2.16606 0.796906 0
M  V30 2656 C 248.76 -1.64394 -0.237476 0
M  V30 2657 O 249.945 -1.90474 -0.111484 0
M  V30 2658 C 247.085 -3.44116 0.26043 0
M  V30 2659 C 246.198 -4.10268 1.35293 0
M  V30 2660 C 245.333 -5.25507 0.775621 0
M  V30 2661 C 244.372 -5.83567 1.84706 0
M  V30 2662 N 243.509 -6.90179 1.28829 0
M  V30 2663 H 248.349 -2.44163 1.70846 0
M  V30 2664 H 245.886 -1.19846 0.85295 0
M  V30 2665 H 247.844 -4.17143 -0.0686814 0
M  V30 2666 H 246.474 -3.16901 -0.614274 0
M  V30 2667 H 245.526 -3.35184 1.79877 0
M  V30 2668 H 246.838 -4.4946 2.16303 0
M  V30 2669 H 245.992 -6.05398 0.397327 0
M  V30 2670 H 244.731 -4.87656 -0.0656581 0
M  V30 2671 H 243.736 -5.02344 2.23452 0
M  V30 2672 H 244.961 -6.23482 2.69161 0
M  V30 2673 H 242.907 -6.54322 0.468881 0
M  V30 2674 H 242.824 -7.28097 2.03497 0
M  V30 2675 H 244.092 -7.73844 0.937311 0
M  V30 2676 N 248.321 -0.919034 -1.28029 0
M  V30 2677 C 249.546 -0.570357 -1.99403 0
M  V30 2678 C 249.971 0.842486 -1.68178 0
M  V30 2679 O 249.329 1.56391 -0.917141 0
M  V30 2680 C 249.377 -0.792541 -3.51783 0
M  V30 2681 O 248.481 0.145988 -4.12142 0
M  V30 2682 H 247.822 -0.220555 -0.6263 0
M  V30 2683 H 250.352 -1.23592 -1.63053 0
M  V30 2684 H 250.362 -0.704708 -4.01868 0
M  V30 2685 H 249.037 -1.82247 -3.73844 0
M  V30 2686 H 247.614 0.00897528 -3.72899 0
M  V30 2687 N 249.799 1.42003 -0.683588 0
M  V30 2688 C 251.024 2.06265 -0.216647 0
M  V30 2689 C 251.449 1.51059 1.12083 0
M  V30 2690 O 250.807 0.632638 1.69904 0
M  V30 2691 C 250.855 3.60191 -0.171759 0
M  V30 2692 O 249.959 4.03396 0.857069 0
M  V30 2693 H 249.3 0.65502 -0.108834 0
M  V30 2694 H 251.83 1.81982 -0.935077 0
M  V30 2695 H 251.84 4.08 0.0014303 0
M  V30 2696 H 250.515 3.99743 -1.14796 0
M  V30 2697 H 249.092 3.67117 0.654208 0
M  V30 2698 N 251.277 0.427512 1.51691 0
M  V30 2699 C 252.224 -0.388867 2.275 0
M  V30 2700 C 253.194 -1.02532 1.30677 0
M  V30 2701 O 254.379 -1.0461 1.59566 0
M  V30 2702 C 251.519 -1.48954 3.11298 0
M  V30 2703 C 250.632 -0.872194 4.23104 0
M  V30 2704 C 249.767 -1.94709 4.94228 0
M  V30 2705 C 248.806 -1.30766 5.97969 0
M  V30 2706 N 247.943 -2.32349 6.62539 0
M  V30 2707 H 252.783 0.263997 2.96828 0
M  V30 2708 H 250.32 0.142033 1.46413 0
M  V30 2709 H 252.278 -2.13887 3.58201 0
M  V30 2710 H 250.908 -2.11217 2.44105 0
M  V30 2711 H 249.96 -0.111419 3.80237 0
M  V30 2712 H 251.272 -0.365264 4.97461 0
M  V30 2713 H 250.426 -2.67327 5.44629 0
M  V30 2714 H 249.165 -2.48773 4.1948 0
M  V30 2715 H 248.17 -0.566902 5.4687 0
M  V30 2716 H 249.395 -0.774483 6.74669 0
M  V30 2717 H 247.341 -2.85511 5.90609 0
M  V30 2718 H 247.258 -1.8652 7.3263 0
M  V30 2719 H 248.526 -3.04481 7.17574 0
M  V30 2720 N 252.755 -1.56801 0.158532 0
M  V30 2721 C 253.685 -2.20347 -0.772609 0
M  V30 2722 C 254.666 -1.15518 -1.24859 0
M  V30 2723 O 255.851 -1.43902 -1.30406 0
M  V30 2724 C 252.981 -2.83417 -2.00729 0
M  V30 2725 C 251.935 -3.94174 -1.66765 0
M  V30 2726 C 251.261 -4.44233 -2.97592 0
M  V30 2727 C 252.561 -5.14392 -0.905447 0
M  V30 2728 H 254.255 -2.98413 -0.242959 0
M  V30 2729 H 251.801 -1.43537 -0.115419 0
M  V30 2730 H 253.754 -3.26543 -2.6636 0
M  V30 2731 H 252.478 -2.02701 -2.56086 0
M  V30 2732 H 251.137 -3.51684 -1.03508 0
M  V30 2733 H 250.785 -3.60325 -3.50963 0
M  V30 2734 H 250.485 -5.18945 -2.75626 0
M  V30 2735 H 252.009 -4.90037 -3.64274 0
M  V30 2736 H 253.423 -5.5429 -1.46408 0
M  V30 2737 H 251.82 -5.9494 -0.7853 0
M  V30 2738 H 252.89 -4.84795 0.100668 0
M  V30 2739 N 254.233 0.115231 -1.57178 0
M  V30 2740 C 255.479 0.82357 -1.85325 0
M  V30 2741 C 255.812 1.79349 -0.744814 0
M  V30 2742 O 255.087 1.92899 0.249024 0
M  V30 2743 C 255.37 1.57014 -3.24066 0
M  V30 2744 C 255.223 0.619565 -4.45513 0
M  V30 2745 C 256.542 2.52545 -3.60429 0
M  V30 2746 H 253.661 0.297948 -0.674089 0
M  V30 2747 H 256.303 0.0877138 -1.89797 0
M  V30 2748 H 254.453 2.19742 -3.20383 0
M  V30 2749 H 256.125 0.000837639 -4.613 0
M  V30 2750 H 254.368 -0.0686174 -4.33746 0
M  V30 2751 H 255.039 1.17866 -5.3927 0
M  V30 2752 H 257.515 1.9992 -3.64926 0
M  V30 2753 H 256.391 3.01811 -4.58477 0
M  V30 2754 H 256.652 3.35383 -2.88047 0
M  V30 2755 N 255.711 1.52812 0.385517 0
M  V30 2756 C 256.936 1.72207 1.15583 0
M  V30 2757 C 257.361 0.441034 1.82857 0
M  V30 2758 O 256.719 -0.603465 1.70962 0
M  V30 2759 C 256.767 2.87476 2.17692 0
M  V30 2760 O 255.871 2.54693 3.24354 0
M  V30 2761 H 255.212 0.572526 0.336319 0
M  V30 2762 H 257.742 1.99618 0.448744 0
M  V30 2763 H 257.752 3.13072 2.6163 0
M  V30 2764 H 256.427 3.80408 1.68115 0
M  V30 2765 H 255.004 2.3985 2.85529 0
M  V30 2766 N 257.189 -0.644168 1.43834 0
M  V30 2767 C 258.152 -1.73857 1.49353 0
M  V30 2768 C 259.152 -1.56315 0.377112 0
M  V30 2769 O 260.342 -1.62048 0.639226 0
M  V30 2770 C 257.474 -3.12819 1.35488 0
M  V30 2771 H 258.667 -1.70342 2.46827 0
M  V30 2772 H 256.22 -0.856652 1.30733 0
M  V30 2773 H 256.955 -3.2194 0.390569 0
M  V30 2774 H 256.74 -3.26958 2.16428 0
M  V30 2775 H 258.23 -3.92606 1.42302 0
M  V30 2776 N 258.668 -1.30515 -0.883378 0
M  V30 2777 C 259.616 -1.16941 -2.01066 0
M  V30 2778 C 260.61 -0.0809148 -1.69207 0
M  V30 2779 O 261.816 -0.241877 -1.78367 0
M  V30 2780 H 258.191 -0.361705 -0.659298 0
M  V30 2781 H 260.162 -2.12344 -2.09649 0
M  V30 2782 C 258.911 -0.879694 -3.36388 0
M  V30 2783 H 258.234 -1.70936 -3.61415 0
M  V30 2784 H 259.674 -0.82483 -4.159 0
M  V30 2785 C 258.133 0.417409 -3.34304 0
M  V30 2786 O 258.663 1.43843 -3.75063 0
M  V30 2787 N 256.869 0.429141 -2.87414 0
M  V30 2788 H 256.416 -0.402222 -2.5444 0
M  V30 2789 H 256.374 1.29696 -2.86403 0
M  V30 2790 N 260.146 1.09593 -1.13257 0
M  V30 2791 C 261.562 1.33775 -0.870423 0
M  V30 2792 C 261.762 1.95327 0.494926 0
M  V30 2793 O 260.818 2.19853 1.2418 0
M  V30 2794 C 262.131 2.25106 -1.99369 0
M  V30 2795 C 263.679 2.3862 -2.02558 0
M  V30 2796 C 264.154 3.33285 -3.14142 0
M  V30 2797 N 265.645 3.40857 -3.13641 0
M  V30 2798 C 266.38 4.14101 -3.96621 0
M  V30 2799 N 265.876 4.90157 -4.8961 0
M  V30 2800 N 267.669 4.09808 -3.84726 0
M  V30 2801 H 259.82 0.680136 -2.01216 0
M  V30 2802 H 262.083 0.362133 -0.876107 0
M  V30 2803 H 261.789 1.87103 -2.97801 0
M  V30 2804 H 261.663 3.25481 -1.90635 0
M  V30 2805 H 264.05 2.75887 -1.0474 0
M  V30 2806 H 264.131 1.38028 -2.15364 0
M  V30 2807 H 263.775 2.96741 -4.12198 0
M  V30 2808 H 263.705 4.33776 -2.98574 0
M  V30 2809 H 266.196 2.86624 -2.46282 0
M  V30 2810 H 266.509 5.4347 -5.49418 0
M  V30 2811 H 264.854 4.89251 -4.93617 0
M  V30 2812 H 268.045 3.4949 -3.11408 0
M  V30 2813 H 268.218 4.66629 -4.49623 0
M  V30 2814 N 261.624 0.925811 1.2754 0
M  V30 2815 C 262.554 0.440748 2.29303 0
M  V30 2816 C 263.535 -0.497971 1.62648 0
M  V30 2817 O 264.72 -0.403126 1.8997 0
M  V30 2818 C 261.85 -0.309048 3.45922 0
M  V30 2819 C 260.804 0.54166 4.24559 0
M  V30 2820 C 260.13 -0.337191 5.33636 0
M  V30 2821 C 261.43 1.80516 4.90114 0
M  V30 2822 H 263.124 1.29121 2.70126 0
M  V30 2823 H 260.67 0.622323 1.29858 0
M  V30 2824 H 262.623 -0.659315 4.1621 0
M  V30 2825 H 261.347 -1.19352 3.04011 0
M  V30 2826 H 260.006 0.874609 3.56014 0
M  V30 2827 H 259.654 -1.22056 4.87966 0
M  V30 2828 H 259.354 0.228497 5.87156 0
M  V30 2829 H 260.878 -0.683072 6.06767 0
M  V30 2830 H 262.292 1.52307 5.52698 0
M  V30 2831 H 260.689 2.3142 5.53683 0
M  V30 2832 H 261.759 2.52581 4.13921 0
M  V30 2833 N 263.102 -1.41638 0.69111 0
M  V30 2834 C 264.349 -2.01299 0.220193 0
M  V30 2835 C 264.677 -1.54715 -1.17871 0
M  V30 2836 O 263.932 -0.747193 -1.80874 0
M  V30 2837 C 264.231 -3.56714 0.221277 0
M  V30 2838 C 263.897 -4.22792 1.56709 0
M  V30 2839 C 262.559 -4.40557 1.93554 0
M  V30 2840 C 264.911 -4.59883 2.45268 0
M  V30 2841 C 262.239 -4.92688 3.18552 0
M  V30 2842 C 264.591 -5.13403 3.69595 0
M  V30 2843 C 263.255 -5.29379 4.06589 0
M  V30 2844 H 262.525 -0.736606 0.0805743 0
M  V30 2845 H 265.172 -1.69598 0.889319 0
M  V30 2846 H 263.477 -3.8818 -0.531391 0
M  V30 2847 H 265.174 -4.00678 -0.160547 0
M  V30 2848 H 261.764 -4.09336 1.2705 0
M  V30 2849 H 265.948 -4.45817 2.18084 0
M  V30 2850 H 261.204 -5.03242 3.47214 0
M  V30 2851 H 265.378 -5.41084 4.38407 0
M  V30 2852 H 263.005 -5.69537 5.03519 0
M  V30 2853 N 264.58 -0.43555 -1.51462 0
M  V30 2854 C 265.828 0.131254 -2.01673 0
M  V30 2855 C 266.149 1.43368 -1.32177 0
M  V30 2856 O 265.419 1.90524 -0.455769 0
M  V30 2857 H 263.999 0.0514954 -0.745223 0
M  V30 2858 H 266.661 -0.577847 -1.86137 0
M  V30 2859 H 265.757 0.308446 -3.10572 0
M  V30 2860 N 266.058 1.56714 -0.166846 0
M  V30 2861 C 267.335 1.88412 0.525373 0
M  V30 2862 C 267.715 1.07602 1.81618 0
M  V30 2863 O 267.063 0.168621 2.27877 0
M  V30 2864 C 267.273 3.40363 0.771613 0
M  V30 2865 C 268.621 4.10007 1.1036 0
M  V30 2866 O 269.645 3.45655 0.860304 0
M  V30 2867 O 268.504 5.2369 1.56239 0
M  V30 2868 H 265.598 0.781587 0.270278 0
M  V30 2869 H 268.144 1.68458 -0.204946 0
M  V30 2870 H 266.916 3.91046 -0.141093 0
M  V30 2871 H 266.539 3.65914 1.55541 0
M  V30 2872 N 267.536 -0.106894 1.57237 0
M  V30 2873 C 268.483 -1.13049 2.01217 0
M  V30 2874 C 269.453 -1.40471 0.886403 0
M  V30 2875 O 270.638 -1.52133 1.15153 0
M  V30 2876 C 267.778 -2.4487 2.43172 0
M  V30 2877 C 266.891 -2.24281 3.69218 0
M  V30 2878 C 266.026 -3.49417 4.00101 0
M  V30 2879 C 265.065 -3.24038 5.19294 0
M  V30 2880 N 264.202 -4.41409 5.45988 0
M  V30 2881 H 269.042 -0.748456 2.88448 0
M  V30 2882 H 266.579 -0.358054 1.42676 0
M  V30 2883 H 268.537 -3.21786 2.65537 0
M  V30 2884 H 267.167 -2.80944 1.58967 0
M  V30 2885 H 266.219 -1.38224 3.54398 0
M  V30 2886 H 267.531 -2.01512 4.56283 0
M  V30 2887 H 266.685 -4.34746 4.2318 0
M  V30 2888 H 265.424 -3.75229 3.11535 0
M  V30 2889 H 264.429 -2.37102 4.96047 0
M  V30 2890 H 265.654 -2.99584 6.09447 0
M  V30 2891 H 263.6 -4.67319 4.60379 0
M  V30 2892 H 263.517 -4.21788 6.274 0
M  V30 2893 H 264.785 -5.27836 5.73593 0
M  V30 2894 N 269.014 -1.53014 -0.377408 0
M  V30 2895 C 270.239 -1.72818 -1.14668 0
M  V30 2896 C 270.664 -0.450725 -1.8262 0
M  V30 2897 O 270.022 0.59439 -1.7128 0
M  V30 2898 C 270.07 -2.88627 -2.16164 0
M  V30 2899 O 269.174 -2.56409 -3.22998 0
M  V30 2900 H 268.515 -0.574301 -0.333278 0
M  V30 2901 H 271.045 -1.99853 -0.438152 0
M  V30 2902 H 271.055 -3.14455 -2.59966 0
M  V30 2903 H 269.73 -3.81294 -1.66095 0
M  V30 2904 H 268.307 -2.4136 -2.84253 0
M  V30 2905 N 270.492 0.636531 -1.44174 0
M  V30 2906 C 271.422 1.76003 -1.53444 0
M  V30 2907 C 272.403 1.65619 -0.387841 0
M  V30 2908 O 273.588 1.84461 -0.607257 0
M  V30 2909 C 270.718 3.14511 -1.4731 0
M  V30 2910 C 269.672 3.39677 -2.60391 0
M  V30 2911 C 268.998 4.78159 -2.39308 0
M  V30 2912 C 270.298 3.32772 -4.02567 0
M  V30 2913 H 271.992 1.68501 -2.47483 0
M  V30 2914 H 269.538 0.809237 -1.19111 0
M  V30 2915 H 271.491 3.92878 -1.52397 0
M  V30 2916 H 270.215 3.22783 -0.49785 0
M  V30 2917 H 268.874 2.63688 -2.54684 0
M  V30 2918 H 268.522 4.83128 -1.39988 0
M  V30 2919 H 268.222 4.95956 -3.15122 0
M  V30 2920 H 269.746 5.58762 -2.46205 0
M  V30 2921 H 271.16 4.01051 -4.09672 0
M  V30 2922 H 269.557 3.62104 -4.7854 0
M  V30 2923 H 270.627 2.30669 -4.2652 0
M  V30 2924 N 271.97 1.30982 0.876444 0
M  V30 2925 C 273.198 1.23242 1.6619 0
M  V30 2926 C 273.613 -0.203345 1.87702 0
M  V30 2927 O 272.97 -1.13317 1.43057 0
M  V30 2928 C 273.021 1.96623 3.03351 0
M  V30 2929 O 272.742 3.34594 2.82804 0
M  V30 2930 C 274.243 1.95644 3.97792 0
M  V30 2931 H 271.463 0.426126 0.518322 0
M  V30 2932 H 274.007 1.7275 1.09442 0
M  V30 2933 H 272.162 1.50892 3.56806 0
M  V30 2934 H 272.576 3.71873 3.69879 0
M  V30 2935 H 274.05 2.51511 4.91372 0
M  V30 2936 H 274.527 0.937395 4.2908 0
M  V30 2937 H 275.133 2.41225 3.50272 0
M  V30 2938 N 273.449 -1.08991 1.13837 0
M  V30 2939 C 274.696 -1.81258 0.902882 0
M  V30 2940 C 275.024 -1.85936 -0.570803 0
M  V30 2941 O 274.279 -1.3267 -1.43865 0
M  V30 2942 C 274.578 -3.27042 1.44147 0
M  V30 2943 C 274.244 -3.4249 2.93276 0
M  V30 2944 C 272.906 -3.46414 3.33992 0
M  V30 2945 C 275.258 -3.4666 3.892 0
M  V30 2946 C 272.586 -3.52091 4.69307 0
M  V30 2947 C 274.938 -3.53872 5.24364 0
M  V30 2948 C 273.602 -3.56066 5.646 0
M  V30 2949 H 272.872 -0.663268 0.330388 0
M  V30 2950 H 275.519 -1.28368 1.42105 0
M  V30 2951 H 273.824 -3.82599 0.844097 0
M  V30 2952 H 275.521 -3.81499 1.23528 0
M  V30 2953 H 272.111 -3.40124 2.60794 0
M  V30 2954 H 276.295 -3.42865 3.58828 0
M  V30 2955 H 271.551 -3.52079 4.9985 0
M  V30 2956 H 275.725 -3.56043 5.98503 0
M  V30 2957 H 273.352 -3.60218 6.69438 0
M  V30 2958 N 274.927 -0.932562 -1.27047 0
M  V30 2959 C 275.875 -0.42603 -2.28665 0
M  V30 2960 C 276.869 0.49219 -1.62092 0
M  V30 2961 O 278.075 0.371355 -1.76128 0
M  V30 2962 H 274.45 -0.119213 -0.742491 0
M  V30 2963 H 276.421 -1.29579 -2.68797 0
M  V30 2964 C 275.17 0.301426 -3.46391 0
M  V30 2965 H 274.493 -0.39595 -3.97834 0
M  V30 2966 H 275.933 0.6202 -4.1944 0
M  V30 2967 C 274.392 1.51616 -3.00856 0
M  V30 2968 O 274.922 2.61476 -3.04948 0
M  V30 2969 N 273.128 1.36969 -2.56296 0
M  V30 2970 H 272.675 0.475873 -2.53166 0
M  V30 2971 H 272.633 2.18368 -2.26192 0
M  V30 2972 N 276.405 1.4127 -0.698611 0
M  V30 2973 C 277.315 2.34573 -0.0357891 0
M  V30 2974 C 278.331 1.56393 0.762701 0
M  V30 2975 O 279.507 1.8886 0.699564 0
M  V30 2976 C 276.572 3.35159 0.887089 0
M  V30 2977 C 275.633 4.29225 0.0804634 0
M  V30 2978 C 274.866 5.25006 0.959387 0
M  V30 2979 O 275.089 5.26314 2.19886 0
M  V30 2980 O 274.023 6.00519 0.407439 0
M  V30 2981 H 277.849 2.92838 -0.804957 0
M  V30 2982 H 275.434 1.42175 -0.458966 0
M  V30 2983 H 277.316 3.9689 1.41621 0
M  V30 2984 H 275.991 2.79333 1.6357 0
M  V30 2985 H 274.898 3.70833 -0.493328 0
M  V30 2986 H 276.231 4.88157 -0.629547 0
M  V30 2987 N 277.883 0.443576 1.51229 0
M  V30 2988 C 279.111 -0.11929 2.06556 0
M  V30 2989 C 279.526 -1.35921 1.31038 0
M  V30 2990 O 278.883 -1.78675 0.371704 0
M  V30 2991 C 278.934 -0.435228 3.5887 0
M  V30 2992 O 278.655 0.755486 4.31537 0
M  V30 2993 C 280.156 -1.04808 4.30732 0
M  V30 2994 H 277.376 -0.0051584 0.67098 0
M  V30 2995 H 279.92 0.624453 1.94733 0
M  V30 2996 H 278.075 -1.12887 3.70588 0
M  V30 2997 H 278.489 0.483491 5.22267 0
M  V30 2998 H 279.963 -1.2191 5.3837 0
M  V30 2999 H 280.44 -2.03081 3.89429 0
M  V30 3000 H 281.046 -0.393637 4.23474 0
M  V30 3001 N 279.361 -1.56624 0.175154 0
M  V30 3002 C 280.591 -2.01082 -0.474283 0
M  V30 3003 C 280.999 -1.05447 -1.57091 0
M  V30 3004 O 280.342 -0.0480595 -1.83637 0
M  V30 3005 C 280.404 -3.41963 -1.10911 0
M  V30 3006 C 280.068 -4.56742 -0.153666 0
M  V30 3007 C 281.065 -5.16076 0.629448 0
M  V30 3008 C 278.75 -5.02277 -0.0483776 0
M  V30 3009 C 280.744 -6.19377 1.50501 0
M  V30 3010 C 278.431 -6.05427 0.830768 0
M  V30 3011 C 279.429 -6.63849 1.60605 0
M  V30 3012 O 279.117 -7.64998 2.47049 0
M  V30 3013 H 278.849 -0.664261 -0.125432 0
M  V30 3014 H 281.403 -2.03549 0.275163 0
M  V30 3015 H 279.633 -3.36422 -1.90676 0
M  V30 3016 H 281.322 -3.70352 -1.66114 0
M  V30 3017 H 282.088 -4.81776 0.558297 0
M  V30 3018 H 277.967 -4.56513 -0.641611 0
M  V30 3019 H 281.511 -6.64906 2.1106 0
M  V30 3020 H 277.408 -6.39151 0.903107 0
M  V30 3021 H 278.176 -7.82336 2.40607 0
M  V30 3022 N 280.839 0.0985539 -1.57292 0
M  V30 3023 C 281.771 1.14595 -1.98496 0
M  V30 3024 C 282.784 1.36512 -0.887031 0
M  V30 3025 O 283.973 1.35225 -1.16518 0
M  V30 3026 C 281.073 2.50216 -2.28572 0
M  V30 3027 C 280.246 2.48624 -3.59868 0
M  V30 3028 C 279.305 3.66146 -3.7792 0
M  V30 3029 O 278.331 3.48795 -4.49812 0
M  V30 3030 N 279.533 4.85496 -3.18235 0
M  V30 3031 H 282.298 0.795277 -2.88956 0
M  V30 3032 H 279.859 0.287579 -1.59325 0
M  V30 3033 H 281.851 3.27432 -2.37845 0
M  V30 3034 H 280.421 2.77387 -1.44136 0
M  V30 3035 H 279.641 1.56978 -3.61596 0
M  V30 3036 H 280.929 2.44635 -4.46129 0
M  V30 3037 H 280.327 5.02497 -2.59833 0
M  V30 3038 H 278.884 5.60317 -3.32999 0
M  V30 3039 N 282.317 1.53212 0.369288 0
M  V30 3040 C 283.594 1.59815 1.12776 0
M  V30 3041 C 283.974 0.403402 2.0721 0
M  V30 3042 O 283.322 -0.606667 2.20299 0
M  V30 3043 C 283.532 2.94664 1.87013 0
M  V30 3044 C 284.88 3.49109 2.41677 0
M  V30 3045 O 285.904 2.96669 1.97144 0
M  V30 3046 O 284.763 4.40775 3.23079 0
M  V30 3047 H 281.857 0.645376 0.517125 0
M  V30 3048 H 284.403 1.65553 0.37285 0
M  V30 3049 H 283.175 3.73061 1.18071 0
M  V30 3050 H 282.798 2.92401 2.69421 0
M  V30 3051 N 283.795 -0.628877 1.44509 0
M  V30 3052 C 285.044 -1.38437 1.4669 0
M  V30 3053 C 285.357 -1.95322 0.104272 0
M  V30 3054 O 286.563 -2.715 0.00362163 0
M  V30 3055 C 285.019 -2.50659 2.5826 0
M  V30 3056 C 284.627 -2.00277 4.0074 0
M  V30 3057 C 286.371 -3.27844 2.69664 0
M  V30 3058 C 284.278 -3.09854 5.0373 0
M  V30 3059 H 283.208 -0.520245 0.545766 0
M  V30 3060 H 285.859 -0.676313 1.70582 0
M  V30 3061 H 284.241 -3.2405 2.27612 0
M  V30 3062 H 285.415 -1.33736 4.40966 0
M  V30 3063 H 283.73 -1.35901 3.93599 0
M  V30 3064 H 286.327 -4.09534 3.43781 0
M  V30 3065 H 286.67 -3.77471 1.75559 0
M  V30 3066 H 287.203 -2.61543 2.99733 0
M  V30 3067 H 283.942 -2.65168 5.99472 0
M  V30 3068 H 283.462 -3.7503 4.68095 0
M  V30 3069 H 285.141 -3.74592 5.27532 0
M  V30 3070 N 285.273 -1.31445 -0.869486 0
M  V30 3071 C 286.498 -1.24256 -1.66058 0
M  V30 3072 C 286.923 0.188928 -1.87149 0
M  V30 3073 O 286.281 1.13522 -1.4136 0
M  V30 3074 C 286.329 -1.9924 -3.00559 0
M  V30 3075 O 285.433 -1.33007 -3.90362 0
M  V30 3076 H 284.774 -0.428973 -0.506831 0
M  V30 3077 H 287.304 -1.73521 -1.08404 0
M  V30 3078 H 287.314 -2.08854 -3.50491 0
M  V30 3079 H 285.989 -3.03342 -2.84528 0
M  V30 3080 H 284.566 -1.31848 -3.48813 0
M  V30 3081 N 286.751 1.08385 -1.14413 0
M  V30 3082 C 287.661 2.18856 -0.844951 0
M  V30 3083 C 288.677 1.73121 0.174668 0
M  V30 3084 O 289.853 2.014 0.00312857 0
M  V30 3085 C 286.918 3.45155 -0.32696 0
M  V30 3086 C 285.979 4.05513 -1.40916 0
M  V30 3087 C 285.212 5.25784 -0.915793 0
M  V30 3088 O 285.435 5.69884 0.242651 0
M  V30 3089 O 284.369 5.77545 -1.69487 0
M  V30 3090 H 288.195 2.46919 -1.76818 0
M  V30 3091 H 285.78 1.17524 -0.922411 0
M  V30 3092 H 287.662 4.21377 -0.0440211 0
M  V30 3093 H 286.337 3.18668 0.568539 0
M  V30 3094 H 285.244 3.30879 -1.74556 0
M  V30 3095 H 286.577 4.3625 -2.27919 0
M  V30 3096 N 288.23 0.939286 1.26551 0
M  V30 3097 C 289.16 0.465044 2.28822 0
M  V30 3098 C 290.141 -0.480692 1.63167 0
M  V30 3099 O 291.326 -0.382955 1.90387 0
M  V30 3100 C 288.456 -0.27234 3.46231 0
M  V30 3101 C 287.41 0.58666 4.2396 0
M  V30 3102 C 286.736 -0.280573 5.33963 0
M  V30 3103 C 288.036 1.85704 4.88171 0
M  V30 3104 H 289.73 1.31979 2.68741 0
M  V30 3105 H 287.276 0.636061 1.29191 0
M  V30 3106 H 289.229 -0.615133 4.16886 0
M  V30 3107 H 287.953 -1.16121 3.0526 0
M  V30 3108 H 286.612 0.91232 3.55067 0
M  V30 3109 H 286.26 -1.16874 4.89234 0
M  V30 3110 H 285.96 0.29076 5.8688 0
M  V30 3111 H 287.484 -0.618678 6.07458 0
M  V30 3112 H 288.898 1.58161 5.51052 0
M  V30 3113 H 287.295 2.37279 5.51197 0
M  V30 3114 H 288.365 2.56957 4.11219 0
M  V30 3115 N 289.708 -1.40897 0.706093 0
M  V30 3116 C 290.954 -2.01352 0.241889 0
M  V30 3117 C 291.287 -1.55832 -1.15888 0
M  V30 3118 O 290.562 -0.774145 -1.7843 0
M  V30 3119 C 290.845 -3.58752 0.311311 0
M  V30 3120 C 290.698 -4.1437 1.74978 0
M  V30 3121 C 292.017 -4.38914 -0.322922 0
M  V30 3122 H 289.136 -0.731562 0.0893687 0
M  V30 3123 H 291.778 -1.67504 0.896802 0
M  V30 3124 H 289.928 -3.87718 -0.246302 0
M  V30 3125 H 291.6 -3.96239 2.36205 0
M  V30 3126 H 289.843 -3.69016 2.28057 0
M  V30 3127 H 290.514 -5.23532 1.74981 0
M  V30 3128 H 292.99 -4.15822 0.152089 0
M  V30 3129 H 291.866 -5.48358 -0.243855 0
M  V30 3130 H 292.127 -4.19176 -1.40513 0
M  V30 3131 N 291.186 -0.45159 -1.50991 0
M  V30 3132 C 292.416 0.108177 -2.06317 0
M  V30 3133 C 292.824 1.35774 -1.31765 0
M  V30 3134 O 292.167 1.79838 -0.374694 0
M  V30 3135 C 292.229 0.481659 -3.56259 0
M  V30 3136 C 291.893 -0.663114 -4.52163 0
M  V30 3137 C 292.89 -1.53947 -4.96585 0
M  V30 3138 C 290.575 -0.8479 -4.95092 0
M  V30 3139 C 292.569 -2.58518 -5.82621 0
M  V30 3140 C 290.256 -1.89686 -5.80915 0
M  V30 3141 C 291.254 -2.76388 -6.24579 0
M  V30 3142 O 290.942 -3.79482 -7.08695 0
M  V30 3143 H 290.674 0.00499183 -0.675982 0
M  V30 3144 H 293.228 -0.633659 -1.95381 0
M  V30 3145 H 291.458 1.27641 -3.65027 0
M  V30 3146 H 293.147 0.974233 -3.94035 0
M  V30 3147 H 293.913 -1.4083 -4.64103 0
M  V30 3148 H 289.792 -0.18258 -4.60638 0
M  V30 3149 H 293.336 -3.26224 -6.16623 0
M  V30 3150 H 289.233 -2.02817 -6.12809 0
M  V30 3151 H 290.001 -3.76234 -7.26905 0
M  V30 3152 N 292.664 1.56529 -0.183458 0
M  V30 3153 C 293.912 1.96855 0.457452 0
M  V30 3154 C 294.233 1.07104 1.62953 0
M  V30 3155 O 293.503 0.139887 1.954 0
M  V30 3156 H 292.083 0.72693 0.171992 0
M  V30 3157 H 294.745 1.93056 -0.267476 0
M  V30 3158 H 293.841 3.01423 0.809368 0
M  V30 3159 N 294.142 -0.090211 1.57342 0
M  V30 3160 C 295.105 -1.09335 2.01441 0
M  V30 3161 C 296.105 -1.32666 0.908641 0
M  V30 3162 O 297.295 -1.28697 1.174 0
M  V30 3163 C 294.427 -2.44136 2.3793 0
M  V30 3164 H 295.62 -0.713662 2.91285 0
M  V30 3165 H 293.173 -0.335404 1.52659 0
M  V30 3166 H 293.908 -2.86972 1.51055 0
M  V30 3167 H 293.693 -2.28548 3.18603 0
M  V30 3168 H 295.183 -3.16277 2.72688 0
M  V30 3169 N 295.62 -1.53406 -0.361157 0
M  V30 3170 C 296.567 -1.80156 -1.44265 0
M  V30 3171 C 297.537 -0.646183 -1.53015 0
M  V30 3172 O 298.722 -0.888818 -1.68833 0
M  V30 3173 C 295.862 -2.00116 -2.81154 0
M  V30 3174 C 294.975 -3.27833 -2.81335 0
M  V30 3175 C 294.11 -3.37957 -4.09828 0
M  V30 3176 C 293.149 -4.59689 -4.04168 0
M  V30 3177 N 292.286 -4.66942 -5.24318 0
M  V30 3178 H 297.126 -2.72438 -1.20754 0
M  V30 3179 H 294.663 -1.34954 -0.585296 0
M  V30 3180 H 296.621 -2.09677 -3.60682 0
M  V30 3181 H 295.251 -1.11167 -3.03054 0
M  V30 3182 H 294.303 -3.27204 -1.94014 0
M  V30 3183 H 295.615 -4.17442 -2.73027 0
M  V30 3184 H 294.769 -3.46853 -4.97773 0
M  V30 3185 H 293.508 -2.46372 -4.20894 0
M  V30 3186 H 292.513 -4.50889 -3.14609 0
M  V30 3187 H 293.738 -5.5262 -3.947 0
M  V30 3188 H 291.684 -3.7826 -5.35962 0
M  V30 3189 H 291.601 -5.50462 -5.18197 0
M  V30 3190 H 292.869 -4.80127 -6.14084 0
M  V30 3191 N 297.098 0.621204 -1.44841 0
M  V30 3192 C 298.028 1.74366 -1.55303 0
M  V30 3193 C 299.009 1.65199 -0.405385 0
M  V30 3194 O 300.194 1.83807 -0.626787 0
M  V30 3195 C 297.324 3.12931 -1.50637 0
M  V30 3196 C 296.278 3.36896 -2.63979 0
M  V30 3197 C 295.604 4.75594 -2.44366 0
M  V30 3198 C 296.904 3.28483 -4.06074 0
M  V30 3199 H 298.598 1.65867 -2.49256 0
M  V30 3200 H 296.144 0.796558 -1.19962 0
M  V30 3201 H 298.097 3.9124 -1.56555 0
M  V30 3202 H 296.821 3.22237 -0.532057 0
M  V30 3203 H 295.48 2.60972 -2.57467 0
M  V30 3204 H 295.128 4.81616 -1.45105 0
M  V30 3205 H 294.828 4.92586 -3.20364 0
M  V30 3206 H 296.352 5.5612 -2.52117 0
M  V30 3207 H 297.766 3.96684 -4.13902 0
M  V30 3208 H 296.163 3.57008 -4.82354 0
M  V30 3209 H 297.233 2.26133 -4.28943 0
M  V30 3210 N 298.576 1.31904 0.862503 0
M  V30 3211 C 299.508 1.16005 1.97675 0
M  V30 3212 C 300.521 0.0971234 1.6251 0
M  V30 3213 O 301.71 0.345337 1.75128 0
M  V30 3214 C 298.81 0.751791 3.30456 0
M  V30 3215 C 297.983 1.90133 3.93914 0
M  V30 3216 C 297.042 1.4779 5.05019 0
M  V30 3217 O 296.068 2.18872 5.25437 0
M  V30 3218 N 297.27 0.369491 5.79323 0
M  V30 3219 H 300.035 2.11982 2.11857 0
M  V30 3220 H 297.596 1.24337 1.03691 0
M  V30 3221 H 299.588 0.451084 4.02178 0
M  V30 3222 H 298.158 -0.116593 3.12382 0
M  V30 3223 H 297.378 2.36896 3.15078 0
M  V30 3224 H 298.666 2.67111 4.33047 0
M  V30 3225 H 298.064 -0.222299 5.65263 0
M  V30 3226 H 296.621 0.128354 6.51674 0
M  V30 3227 N 300.054 -1.07777 1.14986 0
M  V30 3228 C 301.465 -1.61766 0.932127 0
M  V30 3229 C 301.816 -1.88974 -0.527581 0
M  V30 3230 O 300.941 -1.65198 -1.39781 0
M  V30 3231 C 301.536 -2.93891 1.68563 0
M  V30 3232 C 300.095 -3.44639 1.5133 0
M  V30 3233 C 299.242 -2.18767 1.704 0
M  V30 3234 H 302.193 -0.909201 1.30074 0
M  V30 3235 H 302.214 -3.62623 1.15259 0
M  V30 3236 H 301.726 -2.74057 2.74799 0
M  V30 3237 H 299.827 -3.69564 0.474702 0
M  V30 3238 H 299.94 -4.20966 2.28746 0
M  V30 3239 H 298.304 -2.28253 1.13016 0
M  V30 3240 H 299.087 -2.01433 2.77992 0
M  V30 3241 N 301.532 -0.945985 -1.26051 0
M  V30 3242 C 302.462 -0.477172 -2.28572 0
M  V30 3243 C 303.443 0.472032 -1.63419 0
M  V30 3244 O 304.628 0.372853 -1.90587 0
M  V30 3245 C 301.758 0.253975 -3.4637 0
M  V30 3246 C 300.712 -0.609135 -4.23643 0
M  V30 3247 C 300.038 0.252252 -5.34105 0
M  V30 3248 C 301.338 -1.8829 -4.8718 0
M  V30 3249 H 303.032 -1.33402 -2.68038 0
M  V30 3250 H 300.578 -0.642904 -1.28852 0
M  V30 3251 H 302.531 0.593016 -4.17207 0
M  V30 3252 H 301.255 1.145 -3.05871 0
M  V30 3253 H 299.914 -0.931138 -3.54578 0
M  V30 3254 H 299.562 1.14278 -4.89846 0
M  V30 3255 H 299.262 -0.32188 -5.86718 0
M  V30 3256 H 300.786 0.586454 -6.07777 0
M  V30 3257 H 302.2 -1.61081 -5.50205 0
M  V30 3258 H 300.597 -2.40199 -5.49931 0
M  V30 3259 H 301.667 -2.59134 -4.09851 0
M  V30 3260 N 303.011 1.40521 -0.713556 0
M  V30 3261 C 304.288 1.94775 -0.17943 0
M  V30 3262 C 304.668 1.65184 1.31444 0
M  V30 3263 O 304.016 0.968429 2.06963 0
M  V30 3264 C 304.226 3.45543 -0.489986 0
M  V30 3265 C 305.574 4.22442 -0.427536 0
M  V30 3266 O 306.598 3.53644 -0.425929 0
M  V30 3267 O 305.457 5.4501 -0.403292 0
M  V30 3268 H 302.551 0.826606 -0.0255192 0
M  V30 3269 H 305.097 1.5014 -0.790949 0
M  V30 3270 H 303.869 3.60432 -1.5233 0
M  V30 3271 H 303.492 3.97311 0.151598 0
M  V30 3272 N 304.489 0.459591 1.5075 0
M  V30 3273 C 305.736 -0.0993495 2.02256 0
M  V30 3274 C 306.064 -1.40751 1.34237 0
M  V30 3275 O 305.319 -1.90379 0.453228 0
M  V30 3276 C 305.618 -0.342866 3.55752 0
M  V30 3277 C 305.284 0.88218 4.42186 0
M  V30 3278 C 303.946 1.21808 4.65528 0
M  V30 3279 C 306.298 1.69837 4.92752 0
M  V30 3280 C 303.626 2.37045 5.36681 0
M  V30 3281 C 305.978 2.84192 5.65171 0
M  V30 3282 C 304.642 3.1821 5.8677 0
M  V30 3283 H 303.912 -0.0363545 0.740108 0
M  V30 3284 H 306.559 0.611329 1.8148 0
M  V30 3285 H 304.864 -1.13567 3.7498 0
M  V30 3286 H 306.561 -0.789121 3.93159 0
M  V30 3287 H 303.151 0.610467 4.2423 0
M  V30 3288 H 307.335 1.45205 4.74583 0
M  V30 3289 H 302.591 2.63689 5.51614 0
M  V30 3290 H 306.765 3.4779 6.03337 0
M  V30 3291 H 304.392 4.07613 6.41682 0
M  V30 3292 N 305.967 -1.56429 0.191757 0
M  V30 3293 C 306.914 -2.18936 -0.730454 0
M  V30 3294 C 307.884 -1.13557 -1.21219 0
M  V30 3295 O 309.069 -1.41794 -1.27668 0
M  V30 3296 C 306.209 -2.85013 -1.9458 0
M  V30 3297 C 305.322 -4.04909 -1.50574 0
M  V30 3298 C 304.457 -4.58853 -2.67634 0
M  V30 3299 C 303.496 -5.71114 -2.20217 0
M  V30 3300 N 302.633 -6.19478 -3.30442 0
M  V30 3301 H 307.473 -2.97389 -0.190664 0
M  V30 3302 H 305.01 -1.46869 -0.0823694 0
M  V30 3303 H 306.968 -3.21492 -2.65893 0
M  V30 3304 H 305.598 -2.09129 -2.45896 0
M  V30 3305 H 304.65 -3.74115 -0.688605 0
M  V30 3306 H 305.962 -4.86113 -1.11784 0
M  V30 3307 H 305.116 -4.97619 -3.47074 0
M  V30 3308 H 303.855 -3.76749 -3.09696 0
M  V30 3309 H 302.86 -5.31879 -1.3923 0
M  V30 3310 H 304.085 -6.55033 -1.79189 0
M  V30 3311 H 302.031 -5.40297 -3.72041 0
M  V30 3312 H 301.948 -6.95725 -2.9581 0
M  V30 3313 H 303.216 -6.62898 -4.10106 0
M  V30 3314 N 307.445 0.0818655 -1.57387 0
M  V30 3315 C 308.355 1.11642 -2.06333 0
M  V30 3316 C 309.371 1.43033 -0.99083 0
M  V30 3317 O 310.547 1.53411 -1.30488 0
M  V30 3318 C 307.612 2.41342 -2.48907 0
M  V30 3319 C 306.673 2.17014 -3.7041 0
M  V30 3320 C 305.906 3.4053 -4.10944 0
M  V30 3321 O 306.129 4.4927 -3.51444 0
M  V30 3322 O 305.063 3.29336 -5.03807 0
M  V30 3323 H 308.889 0.730657 -2.9478 0
M  V30 3324 H 306.474 0.295301 -1.46452 0
M  V30 3325 H 308.356 3.17691 -2.76858 0
M  V30 3326 H 307.031 2.79319 -1.63593 0
M  V30 3327 H 305.938 1.38403 -3.47556 0
M  V30 3328 H 307.271 1.83923 -4.56545 0
M  V30 3329 N 308.923 1.53595 0.353017 0
M  V30 3330 C 309.871 1.81605 1.45335 0
M  V30 3331 C 310.865 0.685923 1.54892 0
M  V30 3332 O 312.071 0.869095 1.57628 0
M  V30 3333 H 308.446 0.575204 0.484401 0
M  V30 3334 H 310.417 2.73679 1.18921 0
M  V30 3335 C 309.166 2.03406 2.81995 0
M  V30 3336 H 308.489 2.89814 2.75405 0
M  V30 3337 H 309.929 2.26975 3.58132 0
M  V30 3338 C 308.388 0.816794 3.26849 0
M  V30 3339 O 308.918 0.0115856 4.01698 0
M  V30 3340 N 307.124 0.636682 2.8354 0
M  V30 3341 H 306.671 1.2931 2.22793 0
M  V30 3342 H 306.629 -0.176336 3.13905 0
M  V30 3343 N 310.401 -0.613514 1.45168 0
M  V30 3344 C 311.364 -1.7065 1.53007 0
M  V30 3345 C 312.364 -1.5548 0.410184 0
M  V30 3346 O 313.554 -1.60656 0.673455 0
M  V30 3347 C 310.686 -3.09875 1.42093 0
M  V30 3348 H 311.879 -1.65068 2.50385 0
M  V30 3349 H 309.432 -0.828728 1.32521 0
M  V30 3350 H 310.167 -3.21039 0.458769 0
M  V30 3351 H 309.952 -3.22293 2.23315 0
M  V30 3352 H 311.442 -3.895 1.50598 0
M  V30 3353 N 311.879 -1.3236 -0.855495 0
M  V30 3354 C 312.789 -1.23221 -1.99634 0
M  V30 3355 C 313.805 -0.145983 -1.73387 0
M  V30 3356 O 314.981 -0.366502 -1.98037 0
M  V30 3357 C 312.046 -0.954782 -3.33294 0
M  V30 3358 C 311.107 -2.12937 -3.72769 0
M  V30 3359 C 310.34 -1.86508 -5.00051 0
M  V30 3360 O 310.563 -0.807231 -5.64659 0
M  V30 3361 O 309.497 -2.72591 -5.36636 0
M  V30 3362 H 313.323 -2.19126 -2.1028 0
M  V30 3363 H 310.908 -1.12241 -0.986018 0
M  V30 3364 H 312.79 -0.816519 -4.13414 0
M  V30 3365 H 311.465 -0.0258854 -3.2369 0
M  V30 3366 H 310.372 -2.3231 -2.93228 0
M  V30 3367 H 311.705 -3.04102 -3.87018 0
M  V30 3368 N 313.357 1.07166 -1.15556 0
M  V30 3369 C 314.289 2.14341 -0.811815 0
M  V30 3370 C 315.302 1.61835 0.177015 0
M  V30 3371 O 316.491 1.78439 -0.0464996 0
M  V30 3372 C 313.591 3.38387 -0.186481 0
M  V30 3373 C 312.764 4.20238 -1.21321 0
M  V30 3374 C 311.823 5.2266 -0.609302 0
M  V30 3375 O 310.849 5.54719 -1.27576 0
M  V30 3376 N 312.051 5.77306 0.608099 0
M  V30 3377 H 314.816 2.44431 -1.73417 0
M  V30 3378 H 312.377 1.23089 -1.0517 0
M  V30 3379 H 314.369 4.04044 0.230339 0
M  V30 3380 H 312.939 3.05994 0.639249 0
M  V30 3381 H 312.159 3.50369 -1.80652 0
M  V30 3382 H 313.447 4.71736 -1.90638 0
M  V30 3383 H 312.845 5.53513 1.1679 0
M  V30 3384 H 311.402 6.44583 0.96725 0
M  V30 3385 N 314.835 0.952656 1.25548 0
M  V30 3386 C 316.06 0.623025 1.97821 0
M  V30 3387 C 316.485 -0.7976 1.70352 0
M  V30 3388 O 315.843 -1.53905 0.958283 0
M  V30 3389 C 315.891 0.885532 3.49558 0
M  V30 3390 O 314.995 -0.0366641 4.12384 0
M  V30 3391 H 314.336 0.237082 0.620232 0
M  V30 3392 H 316.866 1.27871 1.59719 0
M  V30 3393 H 316.876 0.811009 3.99858 0
M  V30 3394 H 315.551 1.92094 3.6888 0
M  V30 3395 H 314.128 0.0898954 3.72792 0
M  V30 3396 N 316.313 -1.40141 0.720998 0
M  V30 3397 C 317.729 -1.54632 0.395113 0
M  V30 3398 C 317.929 -1.69115 -1.09555 0
M  V30 3399 O 316.985 -1.68377 -1.88163 0
M  V30 3400 C 318.298 -2.77177 1.1659 0
M  V30 3401 C 319.846 -2.91 1.15274 0
M  V30 3402 C 320.321 -4.16465 1.90579 0
M  V30 3403 N 321.812 -4.23476 1.87675 0
M  V30 3404 C 322.547 -5.19475 2.42762 0
M  V30 3405 N 322.043 -6.21348 3.06428 0
M  V30 3406 N 323.836 -5.11592 2.32874 0
M  V30 3407 H 315.987 -1.28986 1.68749 0
M  V30 3408 H 318.25 -0.62412 0.713567 0
M  V30 3409 H 317.956 -2.72771 2.22011 0
M  V30 3410 H 317.83 -3.69442 0.76108 0
M  V30 3411 H 320.217 -2.94907 0.106702 0
M  V30 3412 H 320.298 -1.99838 1.59682 0
M  V30 3413 H 319.942 -4.1332 2.95176 0
M  V30 3414 H 319.872 -5.06646 1.43587 0
M  V30 3415 H 322.363 -3.50497 1.41281 0
M  V30 3416 H 322.676 -6.91034 3.45965 0
M  V30 3417 H 321.021 -6.21777 3.10514 0
M  V30 3418 H 324.212 -4.30936 1.82789 0
M  V30 3419 H 324.385 -5.86233 2.76106 0
M  V30 3420 N 317.792 -0.46758 -1.50504 0
M  V30 3421 C 318.755 0.317059 -2.26996 0
M  V30 3422 C 319.755 0.923513 -1.31635 0
M  V30 3423 O 320.945 0.793239 -1.55091 0
M  V30 3424 C 318.077 1.45134 -3.08462 0
M  V30 3425 H 319.27 -0.353723 -2.97807 0
M  V30 3426 H 316.823 -0.221545 -1.54722 0
M  V30 3427 H 317.558 2.15728 -2.4214 0
M  V30 3428 H 317.343 1.02232 -3.78538 0
M  V30 3429 H 318.833 2.00493 -3.66323 0
M  V30 3430 N 319.27 1.56325 -0.20005 0
M  V30 3431 C 320.233 2.18084 0.705132 0
M  V30 3432 C 321.233 1.13666 1.1374 0
M  V30 3433 O 322.423 1.39023 1.04968 0
M  V30 3434 C 319.555 2.78689 1.96329 0
M  V30 3435 H 320.748 2.99435 0.167023 0
M  V30 3436 H 318.301 1.56221 0.0495725 0
M  V30 3437 H 319.036 2.0115 2.5438 0
M  V30 3438 H 318.821 3.55133 1.66202 0
M  V30 3439 H 320.311 3.26096 2.60866 0
M  V30 3440 N 320.748 -0.0735177 1.57428 0
M  V30 3441 C 321.997 -0.771809 1.86349 0
M  V30 3442 C 322.31 -1.78828 0.792452 0
M  V30 3443 O 323.516 -2.53602 0.96945 0
M  V30 3444 C 321.972 -1.42358 3.30548 0
M  V30 3445 C 321.58 -0.445761 4.45777 0
M  V30 3446 C 323.324 -2.10434 3.6867 0
M  V30 3447 C 321.231 -1.10335 5.81016 0
M  V30 3448 H 320.161 -0.291999 0.695164 0
M  V30 3449 H 322.812 -0.0250749 1.83483 0
M  V30 3450 H 321.194 -2.21852 3.28021 0
M  V30 3451 H 322.368 0.319239 4.59693 0
M  V30 3452 H 320.683 0.130457 4.16196 0
M  V30 3453 H 323.28 -2.60405 4.67004 0
M  V30 3454 H 323.623 -2.90298 2.98383 0
M  V30 3455 H 324.156 -1.37773 3.7318 0
M  V30 3456 H 320.895 -0.345061 6.54591 0
M  V30 3457 H 320.415 -1.83925 5.70904 0
M  V30 3458 H 322.094 -1.62367 6.26295 0
M  V30 3459 N 322.226 -1.5378 -0.344866 0
M  V30 3460 C 323.174 -1.82373 -1.4437 0
M  V30 3461 C 324.168 -0.694128 -1.54526 0
M  V30 3462 O 325.374 -0.877442 -1.57165 0
M  V30 3463 H 321.749 -0.577765 -0.481344 0
M  V30 3464 H 323.72 -2.74306 -1.17468 0
M  V30 3465 C 322.469 -2.04898 -2.80913 0
M  V30 3466 H 321.792 -2.9127 -2.73865 0
M  V30 3467 H 323.232 -2.28871 -3.56923 0
M  V30 3468 C 321.691 -0.834116 -3.26411 0
M  V30 3469 O 322.221 -0.0328885 -4.01687 0
M  V30 3470 N 320.427 -0.65171 -2.83198 0
M  V30 3471 H 319.974 -1.30489 -2.22104 0
M  V30 3472 H 319.932 0.159686 -3.13994 0
M  V30 3473 N 323.704 0.605807 -1.45491 0
M  V30 3474 C 324.651 1.7164 -1.54299 0
M  V30 3475 C 325.621 1.61486 -0.388761 0
M  V30 3476 O 326.806 1.81039 -0.602445 0
M  V30 3477 C 323.946 3.09953 -1.51734 0
M  V30 3478 C 323.059 3.309 -2.77721 0
M  V30 3479 C 322.194 4.59329 -2.66816 0
M  V30 3480 C 321.233 4.7354 -3.87848 0
M  V30 3481 N 320.37 5.9327 -3.75467 0
M  V30 3482 H 325.21 1.63449 -2.49176 0
M  V30 3483 H 322.747 0.796957 -1.23641 0
M  V30 3484 H 324.705 3.89977 -1.48235 0
M  V30 3485 H 323.335 3.17098 -0.604068 0
M  V30 3486 H 322.387 2.44639 -2.913 0
M  V30 3487 H 323.699 3.37274 -3.67488 0
M  V30 3488 H 322.853 5.4755 -2.61292 0
M  V30 3489 H 321.592 4.55355 -1.74651 0
M  V30 3490 H 320.597 3.83741 -3.93729 0
M  V30 3491 H 321.822 4.79309 -4.81082 0
M  V30 3492 H 319.768 5.90338 -2.86072 0
M  V30 3493 H 319.685 6.00811 -4.5887 0
M  V30 3494 H 320.953 6.83984 -3.73879 0
M  V30 3495 N 325.182 1.32811 0.848464 0
M  V30 3496 C 326.428 1.24917 1.60522 0
M  V30 3497 C 326.783 -0.185761 1.91501 0
M  V30 3498 O 326.076 -1.12524 1.55077 0
M  V30 3499 C 326.27 2.04831 2.92881 0
M  V30 3500 C 326.099 3.55949 2.74828 0
M  V30 3501 C 324.869 4.25277 2.72887 0
M  V30 3502 C 327.067 4.50476 2.48145 0
M  V30 3503 N 325.049 5.62408 2.46111 0
M  V30 3504 C 326.42 5.75427 2.30832 0
M  V30 3505 C 328.475 4.39665 2.33664 0
M  V30 3506 C 327.178 6.90789 2.00508 0
M  V30 3507 C 329.204 5.54833 2.04731 0
M  V30 3508 C 328.566 6.78787 1.88223 0
M  V30 3509 H 324.665 0.512279 0.590842 0
M  V30 3510 H 327.249 1.67246 0.996839 0
M  V30 3511 H 325.42 1.64837 3.51686 0
M  V30 3512 H 327.152 1.88782 3.57971 0
M  V30 3513 H 323.907 3.77456 2.86049 0
M  V30 3514 H 324.331 6.3467 2.35634 0
M  V30 3515 H 328.973 3.44477 2.45144 0
M  V30 3516 H 326.691 7.85984 1.87765 0
M  V30 3517 H 330.277 5.48398 1.94295 0
M  V30 3518 H 329.157 7.66396 1.66155 0
M  V30 3519 N 326.66 -1.06551 1.16123 0
M  V30 3520 C 327.906 -1.79567 0.94252 0
M  V30 3521 C 328.239 -1.86869 -0.528547 0
M  V30 3522 O 327.514 -1.35838 -1.39206 0
M  V30 3523 C 327.797 -3.24195 1.56747 0
M  V30 3524 C 327.65 -3.24989 3.10969 0
M  V30 3525 C 328.969 -4.21678 1.25998 0
M  V30 3526 H 326.088 -0.651883 0.343828 0
M  V30 3527 H 328.73 -1.2463 1.43413 0
M  V30 3528 H 326.88 -3.71107 1.14942 0
M  V30 3529 H 328.552 -2.86258 3.61737 0
M  V30 3530 H 326.795 -2.63716 3.44436 0
M  V30 3531 H 327.466 -4.27005 3.49815 0
M  V30 3532 H 329.942 -3.83196 1.62174 0
M  V30 3533 H 328.818 -5.21146 1.7233 0
M  V30 3534 H 329.079 -4.4174 0.178367 0
M  V30 3535 N 328.138 -0.959301 -1.25041 0
M  V30 3536 C 329.363 -0.633507 -1.97488 0
M  V30 3537 C 329.788 0.788555 -1.70773 0
M  V30 3538 O 329.146 1.53394 -0.966431 0
M  V30 3539 C 329.194 -0.904057 -3.49083 0
M  V30 3540 O 328.298 0.0147939 -4.12397 0
M  V30 3541 H 327.639 -0.240368 -0.618966 0
M  V30 3542 H 330.169 -1.28717 -1.59038 0
M  V30 3543 H 330.179 -0.832203 -3.99423 0
M  V30 3544 H 328.854 -1.94048 -3.67856 0
M  V30 3545 H 327.431 -0.109664 -3.72739 0
M  V30 3546 N 329.616 1.39756 -0.72842 0
M  V30 3547 C 330.564 2.32485 -0.0731849 0
M  V30 3548 C 331.558 1.52717 0.733063 0
M  V30 3549 O 332.764 1.68428 0.634988 0
M  V30 3550 H 329.139 0.751984 -0.00486469 0
M  V30 3551 H 331.11 2.85382 -0.871761 0
M  V30 3552 C 329.859 3.37773 0.824908 0
M  V30 3553 H 329.182 3.99227 0.213915 0
M  V30 3554 H 330.622 4.05121 1.25111 0
M  V30 3555 C 329.081 2.74287 1.95622 0
M  V30 3556 O 329.611 2.61618 3.04826 0
M  V30 3557 N 327.817 2.32475 1.74367 0
M  V30 3558 H 327.364 2.4298 0.855494 0
M  V30 3559 H 327.322 1.90337 2.50238 0
M  V30 3560 N 331.094 0.475555 1.50254 0
M  V30 3561 C 332.041 -0.316293 2.28622 0
M  V30 3562 C 333.011 -0.983227 1.33873 0
M  V30 3563 O 334.196 -0.994805 1.62814 0
M  V30 3564 C 331.336 -1.38975 3.1588 0
M  V30 3565 C 330.449 -0.737146 4.25664 0
M  V30 3566 C 329.584 -1.78887 5.00173 0
M  V30 3567 C 328.623 -1.11676 6.01826 0
M  V30 3568 N 327.76 -2.11154 6.69596 0
M  V30 3569 H 332.6 0.358297 2.95838 0
M  V30 3570 H 330.137 0.188541 1.45887 0
M  V30 3571 H 332.095 -2.02383 3.64825 0
M  V30 3572 H 330.725 -2.03344 2.50701 0
M  V30 3573 H 329.777 0.0096065 3.80399 0
M  V30 3574 H 331.089 -0.206816 4.98371 0
M  V30 3575 H 330.243 -2.49865 5.52859 0
M  V30 3576 H 328.982 -2.35302 4.27182 0
M  V30 3577 H 327.987 -0.392633 5.48396 0
M  V30 3578 H 329.212 -0.55945 6.76792 0
M  V30 3579 H 327.158 -2.66577 5.99394 0
M  V30 3580 H 327.075 -1.63118 7.38193 0
M  V30 3581 H 328.343 -2.81497 7.26897 0
M  V30 3582 N 332.573 -1.56217 0.208337 0
M  V30 3583 C 333.801 -2.02337 -0.43215 0
M  V30 3584 C 334.216 -1.08834 -1.54275 0
M  V30 3585 O 333.573 -0.0955462 -1.8225 0
M  V30 3586 C 333.624 -3.48072 -0.976138 0
M  V30 3587 O 333.345 -4.38007 0.0901621 0
M  V30 3588 C 334.846 -4.09773 -1.69119 0
M  V30 3589 H 332.066 -0.662385 -0.10718 0
M  V30 3590 H 334.61 -2.01966 0.320923 0
M  V30 3591 H 332.765 -3.49099 -1.67954 0
M  V30 3592 H 333.179 -5.23543 -0.316701 0
M  V30 3593 H 334.653 -5.13556 -2.02397 0
M  V30 3594 H 335.13 -3.53999 -2.59964 0
M  V30 3595 H 335.736 -4.12556 -1.03332 0
M  V30 3596 N 334.051 0.0651679 -1.57465 0
M  V30 3597 C 334.961 1.09448 -2.07505 0
M  V30 3598 C 335.977 1.41974 -1.00595 0
M  V30 3599 O 337.153 1.52018 -1.32107 0
M  V30 3600 C 334.218 2.38689 -2.51453 0
M  V30 3601 C 333.279 2.13073 -3.72691 0
M  V30 3602 C 332.512 3.36152 -4.14533 0
M  V30 3603 O 332.735 4.45517 -3.56189 0
M  V30 3604 O 331.669 3.23974 -5.07272 0
M  V30 3605 H 335.495 0.69935 -2.95538 0
M  V30 3606 H 333.08 0.279752 -1.46757 0
M  V30 3607 H 334.962 3.14736 -2.80212 0
M  V30 3608 H 333.637 2.77568 -1.66546 0
M  V30 3609 H 332.544 1.34709 -3.49005 0
M  V30 3610 H 333.877 1.79071 -4.5847 0
M  V30 3611 N 335.529 1.53961 0.336706 0
M  V30 3612 C 336.777 1.71197 1.07405 0
M  V30 3613 C 337.098 0.481475 1.88962 0
M  V30 3614 O 336.368 -0.504585 1.8929 0
M  V30 3615 H 334.948 0.631185 0.399517 0
M  V30 3616 H 337.61 1.91232 0.376323 0
M  V30 3617 H 336.706 2.58587 1.74755 0
M  V30 3618 N 337.007 -0.598083 1.45811 0
M  V30 3619 C 338.423 -0.919847 1.30426 0
M  V30 3620 C 338.623 -1.99759 0.264303 0
M  V30 3621 O 337.679 -2.50221 -0.338472 0
M  V30 3622 C 338.992 -1.35176 2.68603 0
M  V30 3623 C 340.54 -1.46546 2.76574 0
M  V30 3624 C 341.015 -1.9311 4.15298 0
M  V30 3625 N 342.506 -2.00328 4.1764 0
M  V30 3626 C 343.241 -2.37599 5.21856 0
M  V30 3627 N 342.737 -2.73771 6.36413 0
M  V30 3628 N 344.53 -2.38021 5.09218 0
M  V30 3629 H 336.681 0.114111 2.12093 0
M  V30 3630 H 338.944 -0.0116121 0.947929 0
M  V30 3631 H 338.65 -0.633969 3.45939 0
M  V30 3632 H 338.524 -2.3164 2.97696 0
M  V30 3633 H 340.911 -2.17415 1.99537 0
M  V30 3634 H 340.992 -0.483727 2.51185 0
M  V30 3635 H 340.636 -1.22824 4.92825 0
M  V30 3636 H 340.566 -2.92213 4.38086 0
M  V30 3637 H 343.057 -1.74925 3.34977 0
M  V30 3638 H 343.37 -3.0112 7.11721 0
M  V30 3639 H 341.715 -2.71445 6.39799 0
M  V30 3640 H 344.906 -2.09174 4.18765 0
M  V30 3641 H 345.079 -2.66741 5.90554 0
M  V30 3642 N 338.485 -1.33259 -0.841409 0
M  V30 3643 C 339.734 -1.23921 -1.59143 0
M  V30 3644 C 340.047 0.1941 -1.94635 0
M  V30 3645 O 341.253 0.409474 -2.68394 0
M  V30 3646 C 339.709 -2.17119 -2.87032 0
M  V30 3647 C 339.317 -3.65606 -2.58914 0
M  V30 3648 C 341.061 -2.16648 -3.65053 0
M  V30 3649 C 338.968 -4.50726 -3.82884 0
M  V30 3650 H 337.898 -0.460264 -0.597221 0
M  V30 3651 H 340.549 -1.58307 -0.927959 0
M  V30 3652 H 338.931 -1.75663 -3.54906 0
M  V30 3653 H 340.105 -4.15487 -1.99267 0
M  V30 3654 H 338.42 -3.68341 -1.942 0
M  V30 3655 H 341.017 -2.77474 -4.57069 0
M  V30 3656 H 341.36 -1.16088 -3.99787 0
M  V30 3657 H 341.893 -2.56453 -3.041 0
M  V30 3658 H 338.632 -5.52151 -3.53283 0
M  V30 3659 H 338.152 -4.0559 -4.41879 0
M  V30 3660 H 339.831 -4.64401 -4.50489 0
M  V30 3661 N 339.963 1.05934 -1.16686 0
M  V30 3662 C 341.191 1.8249 -0.974929 0
M  V30 3663 C 341.606 1.82679 0.476861 0
M  V30 3664 O 340.963 1.2486 1.33103 0
M  V30 3665 C 341.014 3.28943 -1.49929 0
M  V30 3666 O 340.735 3.28886 -2.89423 0
M  V30 3667 C 342.236 4.22215 -1.35089 0
M  V30 3668 H 339.456 0.575295 -0.345365 0
M  V30 3669 H 342 1.33631 -1.548 0
M  V30 3670 H 340.155 3.751 -0.968423 0
M  V30 3671 H 340.569 4.20493 -3.13506 0
M  V30 3672 H 342.043 5.22987 -1.76603 0
M  V30 3673 H 342.52 4.38195 -0.296935 0
M  V30 3674 H 343.126 3.81907 -1.87155 0
M  V30 3675 N 341.441 0.965919 1.2453 0
M  V30 3676 C 342.718 0.543777 1.87889 0
M  V30 3677 C 343.098 -0.97909 1.87021 0
M  V30 3678 O 342.446 -1.84969 1.3416 0
M  V30 3679 C 342.656 1.13327 3.30088 0
M  V30 3680 C 344.004 1.21707 4.06783 0
M  V30 3681 O 345.028 1.08566 3.39252 0
M  V30 3682 O 343.887 1.42456 5.27606 0
M  V30 3683 H 340.981 0.181054 0.806938 0
M  V30 3684 H 343.527 1.06007 1.32516 0
M  V30 3685 H 342.299 2.17612 3.25209 0
M  V30 3686 H 341.922 0.600911 3.93033 0
M  V30 3687 N 342.919 -1.39368 0.735821 0
M  V30 3688 C 344.165 -2.00794 0.284544 0
M  V30 3689 C 344.498 -1.58255 -1.12557 0
M  V30 3690 O 343.773 -0.811819 -1.76748 0
M  V30 3691 C 344.056 -3.58011 0.387337 0
M  V30 3692 C 343.909 -4.10566 1.83728 0
M  V30 3693 C 345.228 -4.395 -0.22975 0
M  V30 3694 H 342.347 -0.729501 0.104866 0
M  V30 3695 H 344.989 -1.65564 0.93213 0
M  V30 3696 H 343.139 -3.88154 -0.164006 0
M  V30 3697 H 344.811 -3.91139 2.44556 0
M  V30 3698 H 343.054 -3.64095 2.35833 0
M  V30 3699 H 343.725 -5.19702 1.86047 0
M  V30 3700 H 346.201 -4.15406 0.240257 0
M  V30 3701 H 345.077 -5.48752 -0.127485 0
M  V30 3702 H 345.338 -4.22062 -1.3159 0
M  V30 3703 N 344.397 -0.483516 -1.5 0
M  V30 3704 C 345.646 0.0689102 -2.01582 0
M  V30 3705 C 345.959 1.39655 -1.36952 0
M  V30 3706 O 347.165 2.03465 -1.79762 0
M  V30 3707 C 345.621 0.173302 -3.59483 0
M  V30 3708 C 345.229 -1.14665 -4.33077 0
M  V30 3709 C 346.973 0.677024 -4.19066 0
M  V30 3710 C 344.88 -1.00537 -5.82792 0
M  V30 3711 H 343.81 0.0295277 -0.753422 0
M  V30 3712 H 346.461 -0.620295 -1.72698 0
M  V30 3713 H 344.843 0.926569 -3.85007 0
M  V30 3714 H 346.017 -1.91184 -4.19268 0
M  V30 3715 H 344.332 -1.58244 -3.85159 0
M  V30 3716 H 346.929 0.799952 -5.28682 0
M  V30 3717 H 347.272 1.67151 -3.81269 0
M  V30 3718 H 347.805 -0.0192083 -3.97795 0
M  V30 3719 H 344.544 -1.9736 -6.25083 0
M  V30 3720 H 344.064 -0.280776 -5.99142 0
M  V30 3721 H 345.743 -0.677 -6.43448 0
M  V30 3722 N 345.875 1.56104 -0.216619 0
M  V30 3723 C 347.286 1.844 0.292128 0
M  V30 3724 C 347.637 1.13788 1.59833 0
M  V30 3725 O 346.762 0.405888 2.12559 0
M  V30 3726 C 347.357 3.3452 0.53681 0
M  V30 3727 C 345.916 3.63151 0.989876 0
M  V30 3728 C 345.063 2.77255 0.0502302 0
M  V30 3729 H 348.014 1.52481 -0.439926 0
M  V30 3730 H 348.035 3.54459 1.38345 0
M  V30 3731 H 347.547 3.85885 -0.414031 0
M  V30 3732 H 345.648 3.17238 1.95425 0
M  V30 3733 H 345.761 4.71177 0.867698 0
M  V30 3734 H 344.125 2.48555 0.556117 0
M  V30 3735 H 344.908 3.31416 -0.89544 0
M  V30 3736 N 347.353 -0.0568162 1.57498 0
M  V30 3737 C 348.578 -0.769402 1.92601 0
M  V30 3738 C 349.003 -1.69559 0.814336 0
M  V30 3739 O 348.361 -1.79811 -0.231903 0
M  V30 3740 C 348.409 -1.52634 3.26704 0
M  V30 3741 O 347.513 -2.63797 3.16994 0
M  V30 3742 H 346.854 -0.208909 0.63028 0
M  V30 3743 H 349.384 -0.0205798 2.0459 0
M  V30 3744 H 349.394 -1.90234 3.60936 0
M  V30 3745 H 348.069 -0.846875 4.07186 0
M  V30 3746 H 346.646 -2.28943 2.94346 0
M  V30 3747 N 348.832 -1.54138 -0.328536 0
M  V30 3748 C 349.742 -1.86192 -1.42723 0
M  V30 3749 C 350.758 -0.753382 -1.56844 0
M  V30 3750 O 351.934 -1.04718 -1.72035 0
M  V30 3751 C 348.999 -2.07824 -2.77507 0
M  V30 3752 C 348.06 -3.31641 -2.72603 0
M  V30 3753 C 347.293 -3.52232 -4.00959 0
M  V30 3754 O 347.516 -2.7636 -4.9898 0
M  V30 3755 O 346.45 -4.45699 -4.0452 0
M  V30 3756 H 350.276 -2.79608 -1.18547 0
M  V30 3757 H 347.861 -1.3998 -0.522104 0
M  V30 3758 H 349.743 -2.23411 -3.57303 0
M  V30 3759 H 348.418 -1.17596 -3.01584 0
M  V30 3760 H 347.325 -3.21444 -1.91376 0
M  V30 3761 H 348.658 -4.2191 -2.53481 0
M  V30 3762 N 350.31 0.590341 -1.46126 0
M  V30 3763 C 351.273 1.68194 -1.55703 0
M  V30 3764 C 352.273 1.54808 -0.434868 0
M  V30 3765 O 353.463 1.59564 -0.698928 0
M  V30 3766 C 350.595 3.07575 -1.47005 0
M  V30 3767 H 351.788 1.61064 -2.52979 0
M  V30 3768 H 349.341 0.807541 -1.33823 0
M  V30 3769 H 350.076 3.20268 -0.509785 0
M  V30 3770 H 349.861 3.187 -2.28414 0
M  V30 3771 H 351.351 3.87055 -1.56776 0
M  V30 3772 N 351.788 1.33704 0.83433 0
M  V30 3773 C 353.037 1.24763 1.58484 0
M  V30 3774 C 353.35 -0.183775 1.94735 0
M  V30 3775 O 354.556 -0.395234 2.68608 0
M  V30 3776 C 353.012 2.18638 2.85876 0
M  V30 3777 C 352.62 3.66974 2.56971 0
M  V30 3778 C 354.364 2.18581 3.63899 0
M  V30 3779 C 352.271 4.5275 3.80488 0
M  V30 3780 H 351.201 0.463425 0.594772 0
M  V30 3781 H 353.852 1.58797 0.919551 0
M  V30 3782 H 352.234 1.77542 3.5397 0
M  V30 3783 H 353.408 4.16538 1.9706 0
M  V30 3784 H 351.723 3.69366 1.92244 0
M  V30 3785 H 354.32 2.79894 4.55591 0
M  V30 3786 H 354.663 1.18207 3.99165 0
M  V30 3787 H 355.196 2.58062 3.02735 0
M  V30 3788 H 351.935 5.54017 3.5035 0
M  V30 3789 H 351.455 4.07927 4.39722 0
M  V30 3790 H 353.134 4.66784 4.4802 0
M  V30 3791 N 353.266 -1.05314 1.17247 0
M  V30 3792 C 354.214 -2.15137 0.884238 0
M  V30 3793 C 355.208 -1.68729 -0.15063 0
M  V30 3794 O 356.414 -1.8 -0.00366673 0
M  V30 3795 H 352.789 -0.702471 0.2684 0
M  V30 3796 H 354.76 -2.36652 1.81764 0
M  V30 3797 C 353.509 -3.45243 0.412659 0
M  V30 3798 H 352.832 -3.81352 1.20043 0
M  V30 3799 H 354.272 -4.23263 0.249858 0
M  V30 3800 C 352.731 -3.25487 -0.86948 0
M  V30 3801 O 353.261 -3.51938 -1.93655 0
M  V30 3802 N 351.467 -2.78875 -0.817147 0
M  V30 3803 H 351.014 -2.57549 0.0514211 0
M  V30 3804 H 350.972 -2.66036 -1.67547 0
M  V30 3805 N 354.744 -0.972509 -1.24016 0
M  V30 3806 C 355.654 -0.5143 -2.28893 0
M  V30 3807 C 356.67 0.427078 -1.68677 0
M  V30 3808 O 357.846 0.298939 -1.99169 0
M  V30 3809 C 354.911 0.183598 -3.46214 0
M  V30 3810 C 353.972 -0.798202 -4.21814 0
M  V30 3811 C 353.205 -0.133514 -5.33533 0
M  V30 3812 O 353.428 1.07714 -5.60137 0
M  V30 3813 O 352.362 -0.828103 -5.96176 0
M  V30 3814 H 356.188 -1.38629 -2.70214 0
M  V30 3815 H 353.773 -0.739769 -1.29799 0
M  V30 3816 H 355.655 0.575433 -4.17453 0
M  V30 3817 H 354.33 1.03048 -3.0686 0
M  V30 3818 H 353.237 -1.24059 -3.52931 0
M  V30 3819 H 354.57 -1.61364 -4.64997 0
M  V30 3820 N 356.222 1.38976 -0.743202 0
M  V30 3821 C 357.152 2.33171 -0.123873 0
M  V30 3822 C 358.133 1.54336 0.71516 0
M  V30 3823 O 359.318 1.82696 0.658467 0
M  V30 3824 C 356.448 3.38474 0.777978 0
M  V30 3825 C 355.402 4.27979 0.0424758 0
M  V30 3826 C 354.728 5.2405 1.06189 0
M  V30 3827 C 356.028 5.10155 -1.1198 0
M  V30 3828 H 357.722 2.85213 -0.910709 0
M  V30 3829 H 355.268 1.37133 -0.439388 0
M  V30 3830 H 357.221 4.03328 1.22084 0
M  V30 3831 H 355.945 2.84891 1.59702 0
M  V30 3832 H 354.604 3.64616 -0.380853 0
M  V30 3833 H 354.252 4.66758 1.87472 0
M  V30 3834 H 353.952 5.84785 0.574485 0
M  V30 3835 H 355.476 5.9178 1.50428 0
M  V30 3836 H 356.89 5.68307 -0.75499 0
M  V30 3837 H 355.287 5.80073 -1.53738 0
M  V30 3838 H 356.357 4.44504 -1.93764 0
M  V30 3839 N 357.7 0.491464 1.49741 0
M  V30 3840 C 358.928 -0.0535151 2.06831 0
M  V30 3841 C 359.343 -1.31683 1.35296 0
M  V30 3842 O 358.7 -1.77402 0.42836 0
M  V30 3843 C 358.751 -0.320835 3.60073 0
M  V30 3844 O 358.472 0.892394 4.28915 0
M  V30 3845 C 359.973 -0.910519 4.33848 0
M  V30 3846 H 357.193 0.0161909 0.670805 0
M  V30 3847 H 359.737 0.68609 1.92647 0
M  V30 3848 H 357.892 -1.0104 3.73991 0
M  V30 3849 H 358.306 0.649401 5.20464 0
M  V30 3850 H 359.78 -1.04721 5.41976 0
M  V30 3851 H 360.257 -1.90589 3.95692 0
M  V30 3852 H 360.863 -0.258712 4.24512 0
M  V30 3853 N 359.178 -1.55987 0.224894 0
M  V30 3854 C 360.424 -1.98684 -0.406502 0
M  V30 3855 C 360.757 -1.11248 -1.59177 0
M  V30 3856 O 360.032 -0.170909 -1.93748 0
M  V30 3857 C 360.315 -3.50218 -0.837808 0
M  V30 3858 C 360.168 -4.48426 0.351332 0
M  V30 3859 C 361.487 -4.06243 -1.69278 0
M  V30 3860 H 358.606 -0.722337 -0.146283 0
M  V30 3861 H 361.248 -1.87255 0.321799 0
M  V30 3862 H 359.398 -3.60089 -1.45837 0
M  V30 3863 H 361.07 -4.50562 0.989526 0
M  V30 3864 H 359.313 -4.22159 0.998207 0
M  V30 3865 H 359.984 -5.52 0.00655905 0
M  V30 3866 H 362.46 -3.99337 -1.16914 0
M  V30 3867 H 361.336 -5.12581 -1.96346 0
M  V30 3868 H 361.597 -3.53332 -2.65723 0
M  V30 3869 N 360.656 0.0484629 -1.57525 0
M  V30 3870 C 361.586 1.0549 -2.08313 0
M  V30 3871 C 362.567 1.38929 -0.981463 0
M  V30 3872 O 363.752 1.48151 -1.25558 0
M  V30 3873 C 360.882 2.36162 -2.54646 0
M  V30 3874 C 359.836 2.17016 -3.68901 0
M  V30 3875 C 359.162 3.53278 -4.01371 0
M  V30 3876 C 360.462 1.57219 -4.98076 0
M  V30 3877 H 362.156 0.632195 -2.92649 0
M  V30 3878 H 359.702 0.302654 -1.40784 0
M  V30 3879 H 361.655 3.06882 -2.88793 0
M  V30 3880 H 360.379 2.80456 -1.67368 0
M  V30 3881 H 359.038 1.48733 -3.35073 0
M  V30 3882 H 358.686 3.95185 -3.11188 0
M  V30 3883 H 358.386 3.41299 -4.78318 0
M  V30 3884 H 359.91 4.25391 -4.38035 0
M  V30 3885 H 361.324 2.17832 -5.30304 0
M  V30 3886 H 359.721 1.55871 -5.79503 0
M  V30 3887 H 360.791 0.535956 -4.81929 0
M  V30 3888 N 362.134 1.5431 0.320358 0
M  V30 3889 C 363.38 1.72924 1.05949 0
M  V30 3890 C 363.713 0.503185 1.87568 0
M  V30 3891 O 362.988 -0.499839 1.87968 0
M  V30 3892 C 363.271 3.00676 1.98156 0
M  V30 3893 C 363.124 4.3354 1.19845 0
M  V30 3894 C 364.443 3.24198 2.9763 0
M  V30 3895 H 361.562 0.629195 0.383774 0
M  V30 3896 H 364.204 1.87008 0.335854 0
M  V30 3897 H 362.354 2.888 2.59859 0
M  V30 3898 H 364.026 4.57305 0.605773 0
M  V30 3899 H 362.269 4.309 0.500784 0
M  V30 3900 H 362.94 5.19156 1.87567 0
M  V30 3901 H 365.416 3.35557 2.4605 0
M  V30 3902 H 364.292 4.14938 3.59329 0
M  V30 3903 H 364.553 2.41577 3.7026 0
M  V30 3904 N 363.613 -0.582584 1.46437 0
M  V30 3905 C 364.543 -1.70187 1.59871 0
M  V30 3906 C 365.524 -1.64066 0.449042 0
M  V30 3907 O 366.709 -1.82081 0.6753 0
M  V30 3908 C 363.839 -3.08827 1.58881 0
M  V30 3909 C 362.793 -3.29779 2.72819 0
M  V30 3910 C 362.119 -4.68947 2.5689 0
M  V30 3911 C 363.419 -3.17601 4.1464 0
M  V30 3912 H 365.113 -1.592 2.53566 0
M  V30 3913 H 362.659 -0.764472 1.22032 0
M  V30 3914 H 364.612 -3.86951 1.66873 0
M  V30 3915 H 363.336 -3.20713 0.617306 0
M  V30 3916 H 361.995 -2.54054 2.64296 0
M  V30 3917 H 361.643 -4.77599 1.57823 0
M  V30 3918 H 361.343 -4.83919 3.33312 0
M  V30 3919 H 362.867 -5.4924 2.66773 0
M  V30 3920 H 364.281 -3.8557 4.24274 0
M  V30 3921 H 362.678 -3.44094 4.9165 0
M  V30 3922 H 363.748 -2.14681 4.34788 0
M  V30 3923 N 365.091 -1.34144 -0.827227 0
M  V30 3924 C 366.337 -1.26446 -1.58554 0
M  V30 3925 C 366.67 0.1664 -1.93486 0
M  V30 3926 O 365.945 1.1107 -1.59667 0
M  V30 3927 C 366.228 -2.15111 -2.8879 0
M  V30 3928 C 366.081 -3.66712 -2.60465 0
M  V30 3929 C 367.4 -2.03311 -3.90324 0
M  V30 3930 H 364.519 -0.46067 -0.575284 0
M  V30 3931 H 367.161 -1.64356 -0.953269 0
M  V30 3932 H 365.311 -1.8291 -3.42748 0
M  V30 3933 H 366.983 -4.09259 -2.1285 0
M  V30 3934 H 365.226 -3.88014 -1.93978 0
M  V30 3935 H 365.897 -4.24112 -3.53317 0
M  V30 3936 H 368.373 -2.31574 -3.45706 0
M  V30 3937 H 367.249 -2.67582 -4.79261 0
M  V30 3938 H 367.51 -1.00879 -4.30437 0
M  V30 3939 N 366.569 1.04691 -1.17803 0
M  V30 3940 C 367.517 2.14665 -0.895635 0
M  V30 3941 C 368.511 1.68806 0.141679 0
M  V30 3942 O 369.717 1.79999 -0.00587914 0
M  V30 3943 H 366.092 0.701038 -0.272121 0
M  V30 3944 H 368.063 2.35685 -1.83017 0
M  V30 3945 C 366.812 3.45019 -0.430962 0
M  V30 3946 H 366.135 3.8071 -1.22064 0
M  V30 3947 H 367.575 4.23125 -0.272301 0
M  V30 3948 C 366.034 3.25943 0.852207 0
M  V30 3949 O 366.564 3.5296 1.91786 0
M  V30 3950 N 364.77 2.79304 0.802346 0
M  V30 3951 H 364.317 2.57518 -0.0650788 0
M  V30 3952 H 364.275 2.66921 1.66134 0
M  V30 3953 N 368.047 0.979072 1.23499 0
M  V30 3954 C 369.275 0.665202 1.95915 0
M  V30 3955 C 369.69 -0.767571 1.72493 0
M  V30 3956 O 369.047 -1.51635 1.01554 0
M  V30 3957 C 369.098 0.944438 3.48945 0
M  V30 3958 O 368.819 2.3209 3.71572 0
M  V30 3959 C 370.32 0.646336 4.38563 0
M  V30 3960 H 367.54 0.247218 0.623798 0
M  V30 3961 H 370.084 1.31009 1.57025 0
M  V30 3962 H 368.239 0.345575 3.85856 0
M  V30 3963 H 368.653 2.40957 4.65876 0
M  V30 3964 H 370.127 0.892091 5.44744 0
M  V30 3965 H 370.604 -0.419575 4.37191 0
M  V30 3966 H 371.21 1.22562 4.07258 0
M  V30 3967 N 369.525 -1.3858 0.750561 0
M  V30 3968 C 370.774 -1.99424 0.302172 0
M  V30 3969 C 371.087 -1.60254 -1.12152 0
M  V30 3970 O 372.293 -2.14046 -1.67023 0
M  V30 3971 C 370.749 -3.56558 0.489307 0
M  V30 3972 C 370.357 -4.04682 1.92189 0
M  V30 3973 C 372.101 -4.24374 0.103478 0
M  V30 3974 C 370.008 -5.54446 2.05775 0
M  V30 3975 H 368.938 -0.746046 0.10923 0
M  V30 3976 H 371.589 -1.58383 0.92667 0
M  V30 3977 H 369.971 -3.95472 -0.204329 0
M  V30 3978 H 371.145 -3.77065 2.64875 0
M  V30 3979 H 369.46 -3.4958 2.26236 0
M  V30 3980 H 372.057 -5.34384 0.183787 0
M  V30 3981 H 372.4 -4.05468 -0.943481 0
M  V30 3982 H 372.933 -3.90688 0.748854 0
M  V30 3983 H 369.672 -5.78252 3.08714 0
M  V30 3984 H 369.192 -5.83816 1.37546 0
M  V30 3985 H 370.871 -6.20099 1.84626 0
M  V30 3986 N 371.003 -0.499398 -1.49478 0
M  V30 3987 C 372.233 0.0424839 -2.06556 0
M  V30 3988 C 372.641 1.31514 -1.36018 0
M  V30 3989 O 371.984 1.78555 -0.431718 0
M  V30 3990 C 372.046 0.368074 -3.57611 0
M  V30 3991 C 371.71 -0.806631 -4.49825 0
M  V30 3992 C 372.707 -1.69667 -4.91436 0
M  V30 3993 C 370.392 -1.00498 -4.92144 0
M  V30 3994 C 372.386 -2.76923 -5.74101 0
M  V30 3995 C 370.073 -2.08072 -5.74586 0
M  V30 3996 C 371.071 -2.96119 -6.15469 0
M  V30 3997 O 370.759 -4.01836 -6.96264 0
M  V30 3998 H 370.491 -0.0165165 -0.675798 0
M  V30 3999 H 373.045 -0.695497 -1.93267 0
M  V30 4000 H 371.275 1.15963 -3.68903 0
M  V30 4001 H 372.964 0.848381 -3.96935 0
M  V30 4002 H 373.73 -1.55524 -4.59388 0
M  V30 4003 H 369.609 -0.329036 -4.59824 0
M  V30 4004 H 373.153 -3.45676 -6.05932 0
M  V30 4005 H 369.05 -2.22211 -6.06047 0
M  V30 4006 H 369.818 -3.9917 -7.14567 0
M  V30 4007 N 372.481 1.55866 -0.233164 0
M  V30 4008 C 373.728 1.98603 0.395374 0
M  V30 4009 C 374.056 1.12105 1.58942 0
M  V30 4010 O 373.311 0.168656 1.94972 0
M  V30 4011 C 373.61 3.46856 0.861724 0
M  V30 4012 C 373.276 4.50348 -0.223066 0
M  V30 4013 C 371.938 4.78371 -0.521038 0
M  V30 4014 C 374.29 5.12355 -0.956124 0
M  V30 4015 C 371.618 5.6568 -1.55638 0
M  V30 4016 C 373.97 6.00786 -1.98089 0
M  V30 4017 C 372.634 6.27148 -2.28565 0
M  V30 4018 H 371.904 0.726739 0.144677 0
M  V30 4019 H 374.551 1.88491 -0.338114 0
M  V30 4020 H 372.856 3.5423 1.67418 0
M  V30 4021 H 374.553 3.77302 1.35809 0
M  V30 4022 H 371.143 4.28596 0.0193234 0
M  V30 4023 H 375.327 4.90765 -0.739166 0
M  V30 4024 H 370.583 5.84365 -1.798 0
M  V30 4025 H 374.757 6.4788 -2.55391 0
M  V30 4026 H 372.384 6.94597 -3.08932 0
M  V30 4027 N 373.959 -0.0401083 1.57549 0
M  V30 4028 C 374.906 -1.04413 2.05831 0
M  V30 4029 C 375.876 -1.36585 0.945184 0
M  V30 4030 O 377.061 -1.47112 1.21502 0
M  V30 4031 C 374.201 -2.34336 2.53339 0
M  V30 4032 C 373.314 -2.08419 3.78398 0
M  V30 4033 C 372.449 -3.32133 4.14561 0
M  V30 4034 C 371.488 -3.01721 5.3257 0
M  V30 4035 N 370.625 -4.17855 5.64218 0
M  V30 4036 H 375.465 -0.625442 2.91363 0
M  V30 4037 H 373.002 -0.297218 1.44066 0
M  V30 4038 H 374.96 -3.10234 2.78946 0
M  V30 4039 H 373.59 -2.73948 1.7074 0
M  V30 4040 H 372.642 -1.23069 3.59942 0
M  V30 4041 H 373.954 -1.81978 4.64419 0
M  V30 4042 H 373.108 -4.16406 4.41238 0
M  V30 4043 H 371.847 -3.61678 3.2717 0
M  V30 4044 H 370.852 -2.15849 5.05657 0
M  V30 4045 H 372.077 -2.73466 6.21605 0
M  V30 4046 H 370.023 -4.47372 4.79786 0
M  V30 4047 H 369.94 -3.94798 6.44725 0
M  V30 4048 H 371.208 -5.03033 5.95465 0
M  V30 4049 N 375.437 -1.54477 -0.31217 0
M  V30 4050 C 376.685 -1.72884 -1.04668 0
M  V30 4051 C 377.006 -0.511477 -1.88173 0
M  V30 4052 O 376.276 0.474407 -1.90069 0
M  V30 4053 H 374.856 -0.637461 -0.389425 0
M  V30 4054 H 377.518 -1.91807 -0.345852 0
M  V30 4055 H 376.614 -2.61334 -1.70619 0
M  V30 4056 N 376.915 0.57481 -1.46744 0
M  V30 4057 C 377.845 1.69337 -1.60771 0
M  V30 4058 C 378.826 1.63825 -0.457736 0
M  V30 4059 O 380.011 1.8172 -0.684947 0
M  V30 4060 C 377.141 3.0798 -1.60517 0
M  V30 4061 C 376.095 3.28327 -2.74564 0
M  V30 4062 C 375.421 4.67578 -2.59373 0
M  V30 4063 C 376.721 3.15398 -4.16319 0
M  V30 4064 H 378.415 1.57853 -2.54407 0
M  V30 4065 H 375.961 0.75799 -1.22436 0
M  V30 4066 H 377.914 3.86061 -1.68923 0
M  V30 4067 H 376.638 3.20381 -0.634305 0
M  V30 4068 H 375.297 2.52649 -2.65639 0
M  V30 4069 H 374.945 4.76755 -1.60353 0
M  V30 4070 H 374.645 4.82144 -3.35873 0
M  V30 4071 H 376.169 5.47817 -2.69682 0
M  V30 4072 H 377.583 3.83315 -4.26313 0
M  V30 4073 H 375.98 3.41482 -4.93468 0
M  V30 4074 H 377.05 2.12372 -4.3592 0
M  V30 4075 N 378.394 1.34581 0.820102 0
M  V30 4076 C 379.64 1.28294 1.57836 0
M  V30 4077 C 379.995 -0.145099 1.91852 0
M  V30 4078 O 379.288 -1.09209 1.57429 0
M  V30 4079 C 379.482 2.10997 2.8847 0
M  V30 4080 C 379.311 3.61698 2.67216 0
M  V30 4081 C 378.081 4.3097 2.63805 0
M  V30 4082 C 380.279 4.55638 2.38534 0
M  V30 4083 N 378.261 5.67502 2.34126 0
M  V30 4084 C 379.632 5.80194 2.18574 0
M  V30 4085 C 381.687 4.44523 2.24285 0
M  V30 4086 C 380.39 6.94886 1.8581 0
M  V30 4087 C 382.416 5.5905 1.92916 0
M  V30 4088 C 381.778 6.82627 1.73782 0
M  V30 4089 H 377.877 0.524697 0.579842 0
M  V30 4090 H 380.461 1.69323 0.961139 0
M  V30 4091 H 378.632 1.7226 3.48111 0
M  V30 4092 H 380.364 1.96333 3.53886 0
M  V30 4093 H 377.119 3.83438 2.77978 0
M  V30 4094 H 377.543 6.39525 2.22118 0
M  V30 4095 H 382.185 3.49599 2.37782 0
M  V30 4096 H 379.903 7.89789 1.7105 0
M  V30 4097 H 383.489 5.52396 1.82619 0
M  V30 4098 H 382.369 7.69748 1.49861 0
M  V30 4099 N 379.872 -1.04064 1.18357 0
M  V30 4100 C 380.819 -2.12077 0.910603 0
M  V30 4101 C 381.789 -1.65421 -0.15 0
M  V30 4102 O 382.974 -1.90797 -0.0103614 0
M  V30 4103 C 380.114 -3.42252 0.442472 0
M  V30 4104 C 379.227 -4.0252 1.5685 0
M  V30 4105 C 378.362 -5.20657 1.05309 0
M  V30 4106 C 377.401 -5.72955 2.1538 0
M  V30 4107 N 376.538 -6.8238 1.65233 0
M  V30 4108 H 381.378 -2.34764 1.83548 0
M  V30 4109 H 378.915 -1.15157 0.915279 0
M  V30 4110 H 380.873 -4.16921 0.152534 0
M  V30 4111 H 379.503 -3.19712 -0.445428 0
M  V30 4112 H 378.555 -3.25178 1.97391 0
M  V30 4113 H 379.867 -4.37362 2.39824 0
M  V30 4114 H 379.021 -6.0244 0.717677 0
M  V30 4115 H 377.76 -4.87318 0.19293 0
M  V30 4116 H 376.765 -4.89793 2.49766 0
M  V30 4117 H 377.99 -6.08337 3.01832 0
M  V30 4118 H 375.936 -6.50917 0.815064 0
M  V30 4119 H 375.853 -7.16286 2.41805 0
M  V30 4120 H 377.121 -7.67788 1.34619 0
M  V30 4121 N 381.35 -0.985608 -1.22978 0
M  V30 4122 C 382.575 -0.675254 -1.961 0
M  V30 4123 C 383 0.752154 -1.72407 0
M  V30 4124 O 382.358 1.5131 -0.998751 0
M  V30 4125 C 382.406 -0.977899 -3.47087 0
M  V30 4126 O 381.51 -0.072685 -4.12336 0
M  V30 4127 H 380.851 -0.253443 -0.613728 0
M  V30 4128 H 383.381 -1.32061 -1.56272 0
M  V30 4129 H 383.391 -0.916739 -3.97567 0
M  V30 4130 H 382.066 -2.01807 -3.63657 0
M  V30 4131 H 380.643 -0.188703 -3.72422 0
M  V30 4132 N 382.828 1.3818 -0.7579 0
M  V30 4133 C 383.775 2.30416 -0.133057 0
M  V30 4134 C 384.745 1.50398 0.704957 0
M  V30 4135 O 385.93 1.79014 0.660192 0
M  V30 4136 C 383.07 3.36834 0.750813 0
M  V30 4137 C 382.183 4.31879 -0.102297 0
M  V30 4138 C 381.318 5.25368 0.784979 0
M  V30 4139 C 380.357 6.12058 -0.0715046 0
M  V30 4140 N 379.494 6.97832 0.772972 0
M  V30 4141 H 384.334 2.83274 -0.925186 0
M  V30 4142 H 381.871 1.39461 -0.467866 0
M  V30 4143 H 383.829 3.97145 1.27794 0
M  V30 4144 H 382.459 2.85374 1.50868 0
M  V30 4145 H 381.511 3.72991 -0.747095 0
M  V30 4146 H 382.823 4.92921 -0.763552 0
M  V30 4147 H 381.977 5.90818 1.37911 0
M  V30 4148 H 380.716 4.64703 1.47996 0
M  V30 4149 H 379.721 5.456 -0.678272 0
M  V30 4150 H 380.946 6.74793 -0.763606 0
M  V30 4151 H 378.892 6.3971 1.45282 0
M  V30 4152 H 378.809 7.55812 0.168709 0
M  V30 4153 H 380.077 7.67687 1.35194 0
M  V30 4154 N 384.306 0.507319 1.49211 0
M  V30 4155 C 385.553 -0.0349529 2.0247 0
M  V30 4156 C 385.881 -1.36409 1.38647 0
M  V30 4157 O 385.136 -1.88841 0.513566 0
M  V30 4158 C 385.435 -0.229513 3.56662 0
M  V30 4159 C 385.101 1.02241 4.39156 0
M  V30 4160 C 383.763 1.36557 4.61417 0
M  V30 4161 C 386.115 1.85428 4.871 0
M  V30 4162 C 383.443 2.53999 5.28868 0
M  V30 4163 C 385.795 3.02028 5.55843 0
M  V30 4164 C 384.459 3.36717 5.76349 0
M  V30 4165 H 383.729 -0.0127902 0.74089 0
M  V30 4166 H 386.376 0.668756 1.79443 0
M  V30 4167 H 384.681 -1.0158 3.78403 0
M  V30 4168 H 386.378 -0.663641 3.9547 0
M  V30 4169 H 382.968 0.745124 4.22073 0
M  V30 4170 H 387.152 1.6023 4.69723 0
M  V30 4171 H 382.408 2.81105 5.42946 0
M  V30 4172 H 386.582 3.66808 5.91967 0
M  V30 4173 H 384.209 4.27821 6.28389 0
M  V30 4174 N 385.784 -1.5574 0.241426 0
M  V30 4175 C 387.009 -2.0366 -0.392111 0
M  V30 4176 C 387.434 -1.11969 -1.51144 0
M  V30 4177 O 386.792 -0.111594 -1.80956 0
M  V30 4178 C 386.84 -3.49638 -0.882371 0
M  V30 4179 O 385.944 -3.6108 -1.99235 0
M  V30 4180 H 385.285 -0.658379 -0.0862122 0
M  V30 4181 H 387.815 -2.01302 0.365881 0
M  V30 4182 H 387.825 -3.90351 -1.18702 0
M  V30 4183 H 386.5 -4.15852 -0.0632361 0
M  V30 4184 H 385.077 -3.32262 -1.69282 0
M  V30 4185 N 387.262 0.0317525 -1.57568 0
M  V30 4186 C 388.673 0.578692 -1.77505 0
M  V30 4187 C 389.024 1.75749 -0.872164 0
M  V30 4188 O 388.149 2.16298 -0.0663106 0
M  V30 4189 C 388.744 1.05658 -3.21904 0
M  V30 4190 C 387.303 1.54906 -3.43047 0
M  V30 4191 C 386.45 0.485939 -2.73009 0
M  V30 4192 H 389.401 -0.194475 -1.57504 0
M  V30 4193 H 389.422 1.92404 -3.28269 0
M  V30 4194 H 388.934 0.198422 -3.87592 0
M  V30 4195 H 387.035 2.42915 -2.82529 0
M  V30 4196 H 387.148 1.59841 -4.5165 0
M  V30 4197 H 385.512 0.940354 -2.36705 0
M  V30 4198 H 386.295 -0.362709 -3.41379 0
M  V30 4199 N 388.74 1.54641 0.303973 0
M  V30 4200 C 389.65 1.88439 1.39743 0
M  V30 4201 C 390.666 0.778239 1.55626 0
M  V30 4202 O 391.842 1.07442 1.70347 0
M  V30 4203 C 388.907 2.12212 2.74166 0
M  V30 4204 C 387.968 3.35936 2.67293 0
M  V30 4205 C 387.201 3.58566 3.95305 0
M  V30 4206 O 387.424 2.84263 4.9452 0
M  V30 4207 O 386.358 4.52078 3.97378 0
M  V30 4208 H 390.184 2.81458 1.14083 0
M  V30 4209 H 387.769 1.40793 0.499768 0
M  V30 4210 H 389.651 2.29067 3.53704 0
M  V30 4211 H 388.326 1.22379 2.99675 0
M  V30 4212 H 387.233 3.24448 1.86237 0
M  V30 4213 H 388.566 4.2589 2.46736 0
M  V30 4214 N 390.218 -0.567019 1.47046 0
M  V30 4215 C 391.166 -1.69593 1.59188 0
M  V30 4216 C 392.16 -1.63046 0.459609 0
M  V30 4217 O 393.366 -1.6835 0.637058 0
M  V30 4218 H 389.741 -0.560993 0.500791 0
M  V30 4219 H 391.712 -1.56488 2.54075 0
M  V30 4220 C 390.461 -3.07964 1.61411 0
M  V30 4221 H 389.784 -3.13679 2.47881 0
M  V30 4222 H 391.224 -3.86671 1.73958 0
M  V30 4223 C 389.683 -3.35123 0.34559 0
M  V30 4224 O 390.213 -3.97812 -0.557521 0
M  V30 4225 N 388.419 -2.89699 0.22864 0
M  V30 4226 H 387.966 -2.38863 0.964479 0
M  V30 4227 H 387.924 -3.08242 -0.619192 0
M  V30 4228 N 391.696 -1.35014 -0.812953 0
M  V30 4229 C 392.924 -1.31031 -1.6012 0
M  V30 4230 C 393.339 0.113558 -1.88458 0
M  V30 4231 O 392.696 1.06363 -1.48301 0
M  V30 4232 C 392.747 -2.10872 -2.93624 0
M  V30 4233 O 392.468 -3.47706 -2.66518 0
M  V30 4234 C 393.969 -2.14401 -3.88004 0
M  V30 4235 H 391.189 -0.45037 -0.497401 0
M  V30 4236 H 393.733 -1.77775 -1.01076 0
M  V30 4237 H 391.888 -1.67744 -3.492 0
M  V30 4238 H 392.302 -3.89097 -3.51715 0
M  V30 4239 H 393.776 -2.74669 -4.78812 0
M  V30 4240 H 394.253 -1.14105 -4.24119 0
M  V30 4241 H 394.859 -2.57662 -3.38364 0
M  V30 4242 N 393.175 1.03435 -1.18907 0
M  V30 4243 C 394.591 1.28973 -0.940111 0
M  V30 4244 C 394.791 1.97676 0.390691 0
M  V30 4245 O 393.847 2.26127 1.12352 0
M  V30 4246 C 395.16 2.14221 -2.11021 0
M  V30 4247 C 396.708 2.27547 -2.14922 0
M  V30 4248 C 397.183 3.16164 -3.31367 0
M  V30 4249 N 398.674 3.23752 -3.31269 0
M  V30 4250 C 399.409 3.92495 -4.18014 0
M  V30 4251 N 398.905 4.63515 -5.14904 0
M  V30 4252 N 400.698 3.88838 -4.05908 0
M  V30 4253 H 392.849 0.57252 -2.04538 0
M  V30 4254 H 395.112 0.315184 -0.894071 0
M  V30 4255 H 394.818 1.71054 -3.073 0
M  V30 4256 H 394.692 3.14919 -2.0762 0
M  V30 4257 H 397.079 2.69947 -1.19217 0
M  V30 4258 H 397.16 1.26418 -2.22378 0
M  V30 4259 H 396.804 2.74474 -4.27348 0
M  V30 4260 H 396.734 4.17339 -3.21148 0
M  V30 4261 H 399.225 2.73167 -2.61129 0
M  V30 4262 H 399.538 5.13583 -5.77453 0
M  V30 4263 H 397.883 4.62398 -5.18857 0
M  V30 4264 H 401.074 3.32491 -3.29495 0
M  V30 4265 H 401.247 4.4214 -4.73726 0
M  V30 4266 N 394.653 0.992116 1.22453 0
M  V30 4267 C 395.6 0.541731 2.24352 0
M  V30 4268 C 396.57 -0.425519 1.60557 0
M  V30 4269 O 397.755 -0.330453 1.87917 0
M  V30 4270 C 394.895 -0.138248 3.44823 0
M  V30 4271 C 394.008 0.870649 4.23136 0
M  V30 4272 C 393.143 0.164269 5.30946 0
M  V30 4273 C 392.182 1.16159 6.00977 0
M  V30 4274 N 391.319 0.483568 7.00433 0
M  V30 4275 H 396.159 1.41541 2.62241 0
M  V30 4276 H 393.696 0.709013 1.28885 0
M  V30 4277 H 395.654 -0.5494 4.13567 0
M  V30 4278 H 394.284 -0.975721 3.077 0
M  V30 4279 H 393.336 1.40013 3.53696 0
M  V30 4280 H 394.648 1.63014 4.7141 0
M  V30 4281 H 393.802 -0.303653 6.0594 0
M  V30 4282 H 392.541 -0.627733 4.83643 0
M  V30 4283 H 391.546 1.64015 5.24766 0
M  V30 4284 H 392.771 1.95445 6.50368 0
M  V30 4285 H 390.717 -0.289012 6.55363 0
M  V30 4286 H 390.634 1.18152 7.4671 0
M  V30 4287 H 391.902 0.0384219 7.79491 0
M  V30 4288 N 396.131 -1.37776 0.765217 0
M  V30 4289 C 397.041 -2.34135 0.147666 0
M  V30 4290 C 398.057 -1.59854 -0.687215 0
M  V30 4291 O 399.233 -1.91983 -0.608659 0
M  V30 4292 C 396.298 -3.3901 -0.72617 0
M  V30 4293 C 395.359 -4.2912 0.124417 0
M  V30 4294 C 394.592 -5.28986 -0.707807 0
M  V30 4295 O 394.815 -5.36205 -1.94525 0
M  V30 4296 O 393.749 -6.01779 -0.12046 0
M  V30 4297 H 397.575 -2.88664 0.943758 0
M  V30 4298 H 395.16 -1.39824 0.526277 0
M  V30 4299 H 397.042 -4.03195 -1.22524 0
M  V30 4300 H 395.717 -2.86819 -1.50056 0
M  V30 4301 H 394.624 -3.68057 0.669696 0
M  V30 4302 H 395.957 -4.84598 0.861736 0
M  V30 4303 N 397.609 -0.515225 -1.4894 0
M  V30 4304 C 398.539 0.244628 -2.32215 0
M  V30 4305 C 399.52 0.949136 -1.41157 0
M  V30 4306 O 400.705 0.937783 -1.70057 0
M  V30 4307 C 397.835 1.30096 -3.22013 0
M  V30 4308 C 396.789 0.715486 -4.21977 0
M  V30 4309 C 396.115 1.87339 -5.00808 0
M  V30 4310 C 397.415 -0.302982 -5.2142 0
M  V30 4311 H 399.109 -0.450501 -2.95991 0
M  V30 4312 H 396.655 -0.218098 -1.42339 0
M  V30 4313 H 398.608 1.84037 -3.79089 0
M  V30 4314 H 397.332 2.02547 -2.56207 0
M  V30 4315 H 395.991 0.197715 -3.66066 0
M  V30 4316 H 395.639 2.58592 -4.31438 0
M  V30 4317 H 395.339 1.48764 -5.68457 0
M  V30 4318 H 396.863 2.41686 -5.60732 0
M  V30 4319 H 398.277 0.148802 -5.73107 0
M  V30 4320 H 396.674 -0.60532 -5.97039 0
M  V30 4321 H 397.744 -1.21395 -4.69459 0
M  V30 4322 N 399.087 1.5561 -0.249682 0
M  V30 4323 C 400.334 1.99011 0.374287 0
M  V30 4324 C 400.662 1.13785 1.57744 0
M  V30 4325 O 399.917 0.189326 1.94782 0
M  V30 4326 C 400.216 3.4775 0.824887 0
M  V30 4327 C 399.882 4.50086 -0.270819 0
M  V30 4328 C 398.544 4.77791 -0.571746 0
M  V30 4329 C 400.896 5.11312 -1.01041 0
M  V30 4330 C 398.224 5.63997 -1.61629 0
M  V30 4331 C 400.576 5.98651 -2.0445 0
M  V30 4332 C 399.24 6.24688 -2.35204 0
M  V30 4333 H 398.51 0.728233 0.136961 0
M  V30 4334 H 401.157 1.88122 -0.358087 0
M  V30 4335 H 399.462 3.55985 1.63651 0
M  V30 4336 H 401.159 3.78721 1.31799 0
M  V30 4337 H 397.749 4.28592 -0.026136 0
M  V30 4338 H 401.933 4.89953 -0.791177 0
M  V30 4339 H 397.189 5.82425 -1.85988 0
M  V30 4340 H 401.363 6.45135 -2.62248 0
M  V30 4341 H 398.99 6.91281 -3.16282 0
M  V30 4342 N 400.565 -0.0233959 1.57583 0
M  V30 4343 C 401.795 -0.723631 1.93513 0
M  V30 4344 C 402.203 -1.69115 0.848333 0
M  V30 4345 O 401.546 -1.82781 -0.183484 0
M  V30 4346 C 401.608 -1.53075 3.25282 0
M  V30 4347 C 401.272 -0.727388 4.51174 0
M  V30 4348 C 402.269 -0.0251924 5.19894 0
M  V30 4349 C 399.954 -0.680256 4.97672 0
M  V30 4350 C 401.948 0.713374 6.33395 0
M  V30 4351 C 399.635 0.0620523 6.11068 0
M  V30 4352 C 400.633 0.757622 6.78785 0
M  V30 4353 O 400.321 1.48787 7.90011 0
M  V30 4354 H 400.053 -0.208051 0.643188 0
M  V30 4355 H 402.607 0.0167489 2.05393 0
M  V30 4356 H 400.837 -2.31508 3.09744 0
M  V30 4357 H 402.526 -2.11413 3.46496 0
M  V30 4358 H 403.292 -0.0526003 4.84971 0
M  V30 4359 H 399.171 -1.21116 4.44805 0
M  V30 4360 H 402.715 1.25683 6.86185 0
M  V30 4361 H 398.612 0.0913634 6.45435 0
M  V30 4362 H 399.38 1.40213 8.06401 0
M  V30 4363 N 402.043 -1.548 -0.295768 0
M  V30 4364 C 402.99 -1.86113 -1.36494 0
M  V30 4365 C 403.96 -0.7105 -1.50137 0
M  V30 4366 O 405.145 -0.959626 -1.64912 0
M  V30 4367 C 402.285 -2.11861 -2.72413 0
M  V30 4368 C 401.398 -3.39471 -2.67177 0
M  V30 4369 C 400.533 -3.55035 -3.95125 0
M  V30 4370 C 399.572 -4.76418 -3.84308 0
M  V30 4371 N 398.709 -4.8876 -5.04042 0
M  V30 4372 H 403.549 -2.77314 -1.09091 0
M  V30 4373 H 401.086 -1.37315 -0.52753 0
M  V30 4374 H 403.044 -2.24786 -3.51464 0
M  V30 4375 H 401.674 -1.2392 -2.98066 0
M  V30 4376 H 400.726 -3.35139 -1.79962 0
M  V30 4377 H 402.038 -4.28646 -2.55076 0
M  V30 4378 H 401.192 -3.67653 -4.82614 0
M  V30 4379 H 399.931 -2.64002 -4.10066 0
M  V30 4380 H 398.936 -4.63827 -2.95202 0
M  V30 4381 H 400.161 -5.68863 -3.70906 0
M  V30 4382 H 398.107 -4.00652 -5.19436 0
M  V30 4383 H 398.024 -5.71945 -4.94384 0
M  V30 4384 H 399.292 -5.0574 -5.93167 0
M  V30 4385 N 403.521 0.559213 -1.47345 0
M  V30 4386 C 404.484 1.64854 -1.59235 0
M  V30 4387 C 405.484 1.53851 -0.467607 0
M  V30 4388 O 406.674 1.58045 -0.732617 0
M  V30 4389 C 403.806 3.04388 -1.53496 0
M  V30 4390 H 404.999 1.55662 -2.56339 0
M  V30 4391 H 402.552 0.778973 -1.35505 0
M  V30 4392 H 403.287 3.19115 -0.577604 0
M  V30 4393 H 403.072 3.13783 -2.35123 0
M  V30 4394 H 404.562 3.83642 -1.6495 0
M  V30 4395 N 404.999 1.35443 0.805782 0
M  V30 4396 C 406.276 1.19325 1.54987 0
M  V30 4397 C 406.656 -0.227294 2.09873 0
M  V30 4398 O 406.004 -1.2309 1.92512 0
M  V30 4399 C 406.214 2.26196 2.65775 0
M  V30 4400 C 407.562 2.62043 3.34094 0
M  V30 4401 O 408.586 2.25115 2.76046 0
M  V30 4402 O 407.445 3.25542 4.38958 0
M  V30 4403 H 404.539 0.463623 0.684823 0
M  V30 4404 H 407.085 1.47127 0.845674 0
M  V30 4405 H 405.857 3.21471 2.23096 0
M  V30 4406 H 405.48 1.99667 3.43829 0
M  V30 4407 N 406.477 -1.02803 1.19454 0
M  V30 4408 C 407.725 -1.75869 0.995722 0
M  V30 4409 C 408.046 -1.89138 -0.474543 0
M  V30 4410 O 407.316 -1.42558 -1.34366 0
M  V30 4411 H 405.896 -0.651511 0.365435 0
M  V30 4412 H 408.558 -1.24004 1.50363 0
M  V30 4413 H 407.654 -2.76661 1.44447 0
M  V30 4414 N 407.956 -0.998596 -1.21925 0
M  V30 4415 C 408.866 -0.562736 -2.27751 0
M  V30 4416 C 409.882 0.391203 -1.69545 0
M  V30 4417 O 411.058 0.256625 -1.99758 0
M  V30 4418 C 408.123 0.11012 -3.46525 0
M  V30 4419 C 407.184 -0.887495 -4.20026 0
M  V30 4420 C 406.417 -0.246654 -5.3313 0
M  V30 4421 O 406.64 0.958088 -5.62296 0
M  V30 4422 O 405.574 -0.954374 -5.94286 0
M  V30 4423 H 409.4 -1.44329 -2.67213 0
M  V30 4424 H 406.985 -0.767135 -1.28201 0
M  V30 4425 H 408.867 0.486756 -4.18579 0
M  V30 4426 H 407.542 0.965154 -3.08976 0
M  V30 4427 H 406.449 -1.31517 -3.5022 0
M  V30 4428 H 407.782 -1.71191 -4.6147 0
M  V30 4429 N 409.434 1.37368 -0.772513 0
M  V30 4430 C 410.659 2.0447 -0.347386 0
M  V30 4431 C 411.084 1.57882 1.0225 0
M  V30 4432 O 410.442 0.73941 1.65537 0
M  V30 4433 C 410.49 3.58369 -0.400479 0
M  V30 4434 O 409.594 4.0803 0.598789 0
M  V30 4435 H 408.935 0.646773 -0.15027 0
M  V30 4436 H 411.465 1.75667 -1.04892 0
M  V30 4437 H 411.475 4.07183 -0.258045 0
M  V30 4438 H 410.15 3.91633 -1.39986 0
M  V30 4439 H 408.727 3.70534 0.419411 0
M  V30 4440 N 410.912 0.523116 1.48665 0
M  V30 4441 C 412.152 -0.0115588 2.04397 0
M  V30 4442 C 412.516 -1.32225 1.39214 0
M  V30 4443 O 413.717 -1.94253 1.85793 0
M  V30 4444 C 411.988 -0.138119 3.57133 0
M  V30 4445 S 413.547 -0.623849 4.34343 0
M  V30 4446 H 410.365 0.00877706 0.710946 0
M  V30 4447 H 412.967 0.702116 1.82457 0
M  V30 4448 H 411.671 0.820748 4.02109 0
M  V30 4449 H 411.202 -0.876377 3.83514 0
M  V30 4450 H 413.217 -1.8895 4.58816 0
M  V30 4451 N 412.39 -1.55475 0.257931 0
M  V30 4452 C 413.615 -2.04064 -0.370488 0
M  V30 4453 C 414.04 -1.13565 -1.49948 0
M  V30 4454 O 413.398 -0.130781 -1.80828 0
M  V30 4455 C 413.446 -3.50554 -0.845237 0
M  V30 4456 O 412.55 -3.63173 -1.95394 0
M  V30 4457 H 411.891 -0.659257 -0.0792243 0
M  V30 4458 H 414.421 -2.00903 0.387212 0
M  V30 4459 H 414.431 -3.91588 -1.14555 0
M  V30 4460 H 413.106 -4.15896 -0.0191259 0
M  V30 4461 H 411.683 -3.34039 -1.65748 0
M  V30 4462 N 413.868 0.0150385 -1.57593 0
M  V30 4463 C 414.831 0.995996 -2.06428 0
M  V30 4464 C 415.831 1.2818 -0.970903 0
M  V30 4465 O 417.021 1.22949 -1.23406 0
M  V30 4466 C 414.153 2.32506 -2.49307 0
M  V30 4467 H 415.346 0.573873 -2.94358 0
M  V30 4468 H 412.899 0.262186 -1.54085 0
M  V30 4469 H 413.634 2.79438 -1.64575 0
M  V30 4470 H 413.419 2.13087 -3.29145 0
M  V30 4471 H 414.909 3.02906 -2.87468 0
M  V30 4472 N 415.346 1.54954 0.287554 0
M  V30 4473 C 416.571 1.79209 1.04397 0
M  V30 4474 C 416.996 0.556431 1.79682 0
M  V30 4475 O 416.354 -0.493518 1.74454 0
M  V30 4476 C 416.402 3.00739 1.98969 0
M  V30 4477 O 415.506 2.74805 3.075 0
M  V30 4478 H 414.847 0.592755 0.299227 0
M  V30 4479 H 417.377 2.02068 0.320886 0
M  V30 4480 H 417.387 3.29077 2.4119 0
M  V30 4481 H 416.062 3.90329 1.43582 0
M  V30 4482 H 414.639 2.57523 2.69697 0
M  V30 4483 N 416.824 -0.551391 1.4764 0
M  V30 4484 C 417.757 -1.6738 1.5511 0
M  V30 4485 C 418.735 -1.5753 0.402856 0
M  V30 4486 O 419.919 -1.78307 0.611475 0
M  V30 4487 C 417.046 -3.05661 1.45908 0
M  V30 4488 C 416.092 -3.33938 2.65307 0
M  V30 4489 S 416.925 -3.22553 4.27457 0
M  V30 4490 C 418.081 -4.63317 4.20818 0
M  V30 4491 H 418.314 -1.6079 2.50068 0
M  V30 4492 H 415.847 -0.732674 1.35909 0
M  V30 4493 H 417.805 -3.8542 1.41286 0
M  V30 4494 H 416.466 -3.09711 0.523248 0
M  V30 4495 H 415.659 -4.34761 2.54948 0
M  V30 4496 H 415.261 -2.61809 2.67081 0
M  V30 4497 H 417.553 -5.54391 3.89431 0
M  V30 4498 H 418.496 -4.78732 5.21748 0
M  V30 4499 H 418.904 -4.41636 3.51593 0
M  V30 4500 N 418.302 -1.35869 -0.798587 0
M  V30 4501 C 419.235 -1.23801 -1.91699 0
M  V30 4502 C 420.213 -0.124143 -1.62125 0
M  V30 4503 O 421.397 -0.293656 -1.86199 0
M  V30 4504 C 418.524 -0.908063 -3.263 0
M  V30 4505 C 417.57 -2.0351 -3.74815 0
M  V30 4506 S 418.403 -3.65183 -3.91665 0
M  V30 4507 C 419.559 -3.34283 -5.29156 0
M  V30 4508 H 419.792 -2.18466 -2.01643 0
M  V30 4509 H 417.325 -1.21178 -0.956833 0
M  V30 4510 H 419.283 -0.724506 -4.04056 0
M  V30 4511 H 417.944 0.0206584 -3.14093 0
M  V30 4512 H 417.137 -1.75858 -4.72324 0
M  V30 4513 H 416.739 -2.1774 -3.04081 0
M  V30 4514 H 419.031 -2.87607 -6.13424 0
M  V30 4515 H 419.974 -4.31022 -5.61806 0
M  V30 4516 H 420.382 -2.69854 -4.95822 0
M  V30 4517 N 419.78 1.02168 -1.19998 0
M  V30 4518 C 421.01 1.79036 -1.031 0
M  V30 4519 C 421.418 1.84409 0.423078 0
M  V30 4520 O 420.761 1.29228 1.30559 0
M  V30 4521 C 420.823 3.25185 -1.53281 0
M  V30 4522 C 420.487 3.43431 -3.01503 0
M  V30 4523 C 421.484 3.33063 -3.99206 0
M  V30 4524 C 419.169 3.69412 -3.40353 0
M  V30 4525 C 421.163 3.48413 -5.33748 0
M  V30 4526 C 418.85 3.84406 -4.75053 0
M  V30 4527 C 419.848 3.7391 -5.71559 0
M  V30 4528 O 419.536 3.88452 -7.03818 0
M  V30 4529 H 419.268 0.570043 -0.363355 0
M  V30 4530 H 421.822 1.29524 -1.59414 0
M  V30 4531 H 420.052 3.75756 -0.913483 0
M  V30 4532 H 421.741 3.83671 -1.32481 0
M  V30 4533 H 422.507 3.12934 -3.70537 0
M  V30 4534 H 418.386 3.76671 -2.65782 0
M  V30 4535 H 421.93 3.40137 -6.09059 0
M  V30 4536 H 417.827 4.04035 -5.03415 0
M  V30 4537 H 418.595 4.055 -7.10993 0
M  V30 4538 N 421.258 1.00505 1.21394 0
M  V30 4539 C 422.19 0.52372 2.23136 0
M  V30 4540 C 423.203 -0.387714 1.58116 0
M  V30 4541 O 424.392 -0.187905 1.77508 0
M  V30 4542 C 421.492 -0.258885 3.3791 0
M  V30 4543 C 420.665 0.651634 4.32519 0
M  V30 4544 C 419.724 -0.0813705 5.26137 0
M  V30 4545 O 418.75 0.537295 5.66658 0
M  V30 4546 N 419.952 -1.35992 5.64346 0
M  V30 4547 H 422.717 1.39865 2.65062 0
M  V30 4548 H 420.278 0.881196 1.35818 0
M  V30 4549 H 422.27 -0.758208 3.97534 0
M  V30 4550 H 420.84 -1.035 2.94968 0
M  V30 4551 H 420.06 1.33145 3.71034 0
M  V30 4552 H 421.348 1.27129 4.92662 0
M  V30 4553 H 420.746 -1.88368 5.33417 0
M  V30 4554 H 419.303 -1.8042 6.26332 0
M  V30 4555 N 422.737 -1.36956 0.779787 0
M  V30 4556 C 423.647 -2.33965 0.172491 0
M  V30 4557 C 424.663 -1.60574 -0.670222 0
M  V30 4558 O 425.839 -1.92617 -0.588263 0
M  V30 4559 C 422.904 -3.39761 -0.690173 0
M  V30 4560 C 421.965 -4.28964 0.169924 0
M  V30 4561 C 421.198 -5.29707 -0.651662 0
M  V30 4562 O 421.421 -5.38238 -1.88827 0
M  V30 4563 O 420.355 -6.01873 -0.0566264 0
M  V30 4564 H 424.181 -2.87647 0.974321 0
M  V30 4565 H 421.766 -1.39258 0.541078 0
M  V30 4566 H 423.648 -4.04471 -1.1824 0
M  V30 4567 H 422.323 -2.88394 -1.47006 0
M  V30 4568 H 421.23 -3.67326 0.708696 0
M  V30 4569 H 422.563 -4.83656 0.913085 0
M  V30 4570 N 424.215 -0.530993 -1.48385 0
M  V30 4571 C 425.463 0.00273189 -2.021 0
M  V30 4572 C 425.784 1.34672 -1.41027 0
M  V30 4573 O 425.054 1.8724 -0.576012 0
M  V30 4574 H 423.634 0.00399774 -0.746989 0
M  V30 4575 H 426.296 -0.695054 -1.82085 0
M  V30 4576 H 425.392 0.11031 -3.11905 0
M  V30 4577 N 425.693 1.55336 -0.266172 0
M  V30 4578 C 426.64 2.22172 0.625165 0
M  V30 4579 C 427.61 1.19211 1.15663 0
M  V30 4580 O 428.795 1.47723 1.20758 0
M  V30 4581 C 425.935 2.93972 1.8076 0
M  V30 4582 C 425.048 4.11632 1.31084 0
M  V30 4583 C 424.183 4.71099 2.45436 0
M  V30 4584 C 423.222 5.8097 1.92718 0
M  V30 4585 N 422.359 6.34538 3.00509 0
M  V30 4586 H 427.199 2.9796 0.0485582 0
M  V30 4587 H 424.736 1.47095 0.0122024 0
M  V30 4588 H 426.694 3.33811 2.50251 0
M  V30 4589 H 425.324 2.20623 2.35638 0
M  V30 4590 H 424.376 3.76975 0.509326 0
M  V30 4591 H 425.688 4.90893 0.884633 0
M  V30 4592 H 424.842 5.13612 3.22936 0
M  V30 4593 H 423.581 3.91096 2.91368 0
M  V30 4594 H 422.586 5.37916 1.13695 0
M  V30 4595 H 423.811 6.62836 1.47733 0
M  V30 4596 H 421.757 5.57433 3.45839 0
M  V30 4597 H 421.674 7.09046 2.62279 0
M  V30 4598 H 422.942 6.81709 3.78011 0
M  V30 4599 N 427.171 -0.0066808 1.57599 0
M  V30 4600 C 428.418 -0.69292 1.90276 0
M  V30 4601 C 428.746 -1.74148 0.866192 0
M  V30 4602 O 428.001 -1.95268 -0.129933 0
M  V30 4603 C 428.3 -1.37939 3.29708 0
M  V30 4604 C 427.966 -0.464679 4.48499 0
M  V30 4605 C 426.628 -0.212809 4.80729 0
M  V30 4606 C 428.98 0.16551 5.20937 0
M  V30 4607 C 426.308 0.677653 5.82773 0
M  V30 4608 C 428.66 1.04381 6.23929 0
M  V30 4609 C 427.324 1.30492 6.54621 0
M  V30 4610 H 426.594 -0.253558 0.696268 0
M  V30 4611 H 429.241 0.0474123 1.91441 0
M  V30 4612 H 427.546 -2.1936 3.24636 0
M  V30 4613 H 429.243 -1.9163 3.52249 0
M  V30 4614 H 425.833 -0.671153 4.23313 0
M  V30 4615 H 430.017 -0.0160756 4.96297 0
M  V30 4616 H 425.273 0.88803 6.04917 0
M  V30 4617 H 429.447 1.53851 6.79193 0
M  V30 4618 H 427.074 1.99662 7.33512 0
M  V30 4619 N 428.649 -1.55105 -0.279332 0
M  V30 4620 C 430.065 -1.46803 -0.626187 0
M  V30 4621 C 430.265 -0.676939 -1.89789 0
M  V30 4622 O 429.321 -0.19326 -2.51759 0
M  V30 4623 C 430.634 -2.90962 -0.759034 0
M  V30 4624 C 432.182 -3.01138 -0.853504 0
M  V30 4625 C 432.657 -4.46539 -1.01818 0
M  V30 4626 N 434.148 -4.50341 -1.08386 0
M  V30 4627 C 434.883 -5.60053 -1.22996 0
M  V30 4628 N 434.379 -6.79645 -1.34366 0
M  V30 4629 N 436.172 -5.47783 -1.26056 0
M  V30 4630 H 428.323 -2.04996 0.555921 0
M  V30 4631 H 430.586 -0.929325 0.187239 0
M  V30 4632 H 430.292 -3.51544 0.104852 0
M  V30 4633 H 430.166 -3.39619 -1.64131 0
M  V30 4634 H 432.553 -2.40658 -1.70786 0
M  V30 4635 H 432.634 -2.55745 0.0532466 0
M  V30 4636 H 432.278 -5.0762 -0.168504 0
M  V30 4637 H 432.208 -4.89583 -1.93948 0
M  V30 4638 H 434.699 -3.64191 -1.00864 0
M  V30 4639 H 435.012 -7.59012 -1.4533 0
M  V30 4640 H 433.357 -6.82469 -1.31382 0
M  V30 4641 H 436.548 -4.53294 -1.168 0
M  V30 4642 H 436.721 -6.33331 -1.37098 0
M  V30 4643 N 430.127 0.543554 -1.4793 0
M  V30 4644 C 431.357 1.32324 -1.58663 0
M  V30 4645 C 431.765 1.8766 -0.240896 0
M  V30 4646 O 431.108 1.66411 0.778011 0
M  V30 4647 C 431.17 2.52094 -2.56299 0
M  V30 4648 C 430.834 2.17944 -4.01683 0
M  V30 4649 C 431.831 1.74422 -4.89768 0
M  V30 4650 C 429.516 2.28884 -4.47121 0
M  V30 4651 C 431.51 1.42287 -6.21316 0
M  V30 4652 C 429.197 1.96361 -5.78693 0
M  V30 4653 C 430.195 1.53132 -6.65612 0
M  V30 4654 O 429.883 1.21029 -7.94737 0
M  V30 4655 H 429.615 0.409174 -0.538101 0
M  V30 4656 H 432.169 0.663887 -1.94375 0
M  V30 4657 H 430.399 3.20965 -2.15681 0
M  V30 4658 H 432.088 3.14165 -2.57012 0
M  V30 4659 H 432.854 1.65452 -4.55907 0
M  V30 4660 H 428.733 2.61488 -3.79664 0
M  V30 4661 H 432.277 1.08472 -6.89115 0
M  V30 4662 H 428.174 2.04967 -6.12094 0
M  V30 4663 H 428.942 1.34543 -8.07366 0
M  V30 4664 N 431.605 1.3629 0.791371 0
M  V30 4665 C 433.021 1.16661 1.08914 0
M  V30 4666 C 433.221 -0.0106266 2.01497 0
M  V30 4667 O 432.277 -0.676596 2.43266 0
M  V30 4668 C 433.59 2.47656 1.70549 0
M  V30 4669 C 435.138 2.54002 1.82899 0
M  V30 4670 C 435.613 3.85078 2.47949 0
M  V30 4671 N 437.104 3.86413 2.5542 0
M  V30 4672 C 437.839 4.84572 3.06557 0
M  V30 4673 N 437.335 5.93124 3.58016 0
M  V30 4674 N 439.128 4.71994 3.05251 0
M  V30 4675 H 431.279 2.11668 0.176238 0
M  V30 4676 H 433.542 0.937486 0.140796 0
M  V30 4677 H 433.248 3.34059 1.09989 0
M  V30 4678 H 433.122 2.63319 2.70079 0
M  V30 4679 H 435.509 1.68018 2.42598 0
M  V30 4680 H 435.59 2.42239 0.821808 0
M  V30 4681 H 435.234 4.71467 1.88895 0
M  V30 4682 H 435.164 3.94135 3.49235 0
M  V30 4683 H 437.655 3.07988 2.18979 0
M  V30 4684 H 437.968 6.63999 3.95381 0
M  V30 4685 H 436.313 5.96796 3.56173 0
M  V30 4686 H 439.504 3.86321 2.64336 0
M  V30 4687 H 439.677 5.48653 3.44796 0
M  V30 4688 N 433.083 -1.0153 1.20538 0
M  V30 4689 C 434.499 -1.27461 0.96051 0
M  V30 4690 C 434.699 -1.98273 -0.359193 0
M  V30 4691 O 433.755 -2.27886 -1.0874 0
M  V30 4692 C 435.068 -2.10837 2.14402 0
M  V30 4693 C 436.616 -2.24099 2.18515 0
M  V30 4694 C 437.091 -3.10852 3.36355 0
M  V30 4695 N 438.582 -3.18441 3.36377 0
M  V30 4696 C 439.317 -3.85795 4.24205 0
M  V30 4697 N 438.813 -4.55264 5.22213 0
M  V30 4698 N 440.606 -3.82331 4.12043 0
M  V30 4699 H 432.757 -0.539907 2.05423 0
M  V30 4700 H 435.02 -0.30092 0.898972 0
M  V30 4701 H 434.726 -1.66144 3.09983 0
M  V30 4702 H 434.6 -3.11576 2.12604 0
M  V30 4703 H 436.987 -2.68016 1.23497 0
M  V30 4704 H 437.068 -1.22865 2.24361 0
M  V30 4705 H 436.712 -2.6764 4.31661 0
M  V30 4706 H 436.642 -4.12177 3.27746 0
M  V30 4707 H 439.133 -2.68978 2.65442 0
M  V30 4708 H 439.446 -5.04331 5.85551 0
M  V30 4709 H 437.791 -4.54085 5.26148 0
M  V30 4710 H 440.982 -3.27207 3.34743 0
M  V30 4711 H 441.155 -4.34547 4.807 0
M  V30 4712 N 434.561 -1.01147 -1.20859 0
M  V30 4713 C 435.807 -0.698899 -1.90377 0
M  V30 4714 C 436.14 0.76904 -1.78324 0
M  V30 4715 O 435.415 1.55817 -1.16409 0
M  V30 4716 C 435.698 -1.12878 -3.41951 0
M  V30 4717 C 435.551 -2.65665 -3.62963 0
M  V30 4718 C 436.87 -0.696114 -4.3456 0
M  V30 4719 H 433.989 -0.255372 -0.691342 0
M  V30 4720 H 436.631 -1.25831 -1.42361 0
M  V30 4721 H 434.781 -0.652827 -3.82976 0
M  V30 4722 H 436.453 -3.21074 -3.31224 0
M  V30 4723 H 434.696 -3.06878 -3.06608 0
M  V30 4724 H 435.367 -2.90797 -4.69192 0
M  V30 4725 H 437.843 -1.10521 -4.01154 0
M  V30 4726 H 436.719 -1.025 -5.39245 0
M  V30 4727 H 436.98 0.402465 -4.40264 0
M  V30 4728 N 436.039 1.36541 -0.78704 0
M  V30 4729 C 437.002 2.28413 -0.189778 0
M  V30 4730 C 438.002 1.48719 0.611499 0
M  V30 4731 O 439.192 1.68737 0.432842 0
M  V30 4732 C 436.324 3.32824 0.737638 0
M  V30 4733 H 437.517 2.82743 -0.999831 0
M  V30 4734 H 435.07 1.46065 -0.556298 0
M  V30 4735 H 435.805 2.83646 1.57212 0
M  V30 4736 H 435.59 3.91752 0.165044 0
M  V30 4737 H 437.08 4.0144 1.15047 0
M  V30 4738 N 437.518 0.538854 1.48102 0
M  V30 4739 C 438.428 -0.222648 2.33541 0
M  V30 4740 C 439.444 -0.930225 1.47047 0
M  V30 4741 O 440.62 -0.903211 1.80011 0
M  V30 4742 C 437.685 -1.25064 3.23357 0
M  V30 4743 C 436.746 -0.552469 4.2573 0
M  V30 4744 C 435.979 -1.53149 5.11254 0
M  V30 4745 O 436.202 -2.76487 4.9891 0
M  V30 4746 O 435.136 -1.06602 5.92385 0
M  V30 4747 H 438.962 0.477707 2.99919 0
M  V30 4748 H 436.547 0.299669 1.46364 0
M  V30 4749 H 438.429 -1.8445 3.78888 0
M  V30 4750 H 437.104 -1.93325 2.59629 0
M  V30 4751 H 436.011 0.082114 3.7401 0
M  V30 4752 H 437.344 0.0883526 4.92121 0
M  V30 4753 N 438.996 -1.55193 0.274407 0
M  V30 4754 C 440.244 -1.99187 -0.341902 0
M  V30 4755 C 440.565 -1.16422 -1.56431 0
M  V30 4756 O 439.835 -0.253573 -1.94252 0
M  V30 4757 H 438.415 -0.735721 -0.129317 0
M  V30 4758 H 441.077 -1.91168 0.379578 0
M  V30 4759 H 440.173 -3.05629 -0.632253 0
M  V30 4760 N 440.474 -0.00167713 -1.576 0
M  V30 4761 C 441.702 0.693759 -1.94922 0
M  V30 4762 C 442.117 1.67215 -0.876626 0
M  V30 4763 O 441.474 1.81929 0.144279 0
M  V30 4764 C 441.525 1.42416 -3.32265 0
M  V30 4765 O 441.246 0.485014 -4.35407 0
M  V30 4766 C 442.747 2.21395 -3.84056 0
M  V30 4767 H 439.967 0.193118 -0.642609 0
M  V30 4768 H 442.511 -0.0532952 -2.04431 0
M  V30 4769 H 440.666 2.12284 -3.24059 0
M  V30 4770 H 441.08 1.00053 -5.14868 0
M  V30 4771 H 442.554 2.67996 -4.82578 0
M  V30 4772 H 443.031 3.04142 -3.16851 0
M  V30 4773 H 443.637 1.56542 -3.95443 0
M  V30 4774 N 441.952 1.55251 0.271103 0
M  V30 4775 C 442.884 1.84675 1.35749 0
M  V30 4776 C 443.897 0.731366 1.45447 0
M  V30 4777 O 445.086 1.00924 1.4723 0
M  V30 4778 C 442.186 1.99638 2.73857 0
M  V30 4779 C 441.359 3.30312 2.86727 0
M  V30 4780 C 440.418 3.35318 4.05522 0
M  V30 4781 O 439.444 4.08682 3.96191 0
M  V30 4782 N 440.646 2.62857 5.17577 0
M  V30 4783 H 443.411 2.78445 1.10853 0
M  V30 4784 H 440.972 1.55191 0.461218 0
M  V30 4785 H 442.964 2.00355 3.51625 0
M  V30 4786 H 441.534 1.12725 2.91568 0
M  V30 4787 H 440.754 3.42118 1.95829 0
M  V30 4788 H 442.042 4.16488 2.92258 0
M  V30 4789 H 441.44 2.02939 5.28046 0
M  V30 4790 H 439.997 2.69295 5.93568 0
M  V30 4791 N 443.43 -0.535701 1.48216 0
M  V30 4792 C 444.676 -1.29375 1.56173 0
M  V30 4793 C 445.009 -1.92804 0.232429 0
M  V30 4794 O 444.284 -1.78992 -0.761048 0
M  V30 4795 C 444.567 -2.38747 2.69577 0
M  V30 4796 C 444.42 -1.80046 4.12193 0
M  V30 4797 C 445.739 -3.40551 2.78771 0
M  V30 4798 H 442.858 -0.469027 0.568491 0
M  V30 4799 H 445.5 -0.597358 1.80365 0
M  V30 4800 H 443.65 -2.98147 2.4908 0
M  V30 4801 H 445.322 -1.24742 4.44114 0
M  V30 4802 H 443.565 -1.10609 4.19462 0
M  V30 4803 H 444.236 -2.59212 4.87353 0
M  V30 4804 H 446.712 -2.91099 2.97322 0
M  V30 4805 H 445.588 -4.1448 3.59857 0
M  V30 4806 H 445.849 -4.00746 1.86696 0
M  V30 4807 N 444.908 -1.36708 -0.784132 0
M  V30 4808 C 445.838 -1.34153 -1.91116 0
M  V30 4809 C 446.819 -0.212121 -1.68772 0
M  V30 4810 O 448.004 -0.410581 -1.8981 0
M  V30 4811 C 445.134 -1.13535 -3.28218 0
M  V30 4812 C 444.088 -2.23356 -3.65097 0
M  V30 4813 C 443.414 -1.87875 -5.00607 0
M  V30 4814 C 444.714 -3.65473 -3.73131 0
M  V30 4815 H 446.408 -2.28459 -1.93512 0
M  V30 4816 H 443.954 -1.09973 -0.929618 0
M  V30 4817 H 445.907 -1.10381 -4.06687 0
M  V30 4818 H 444.631 -0.156804 -3.26223 0
M  V30 4819 H 443.29 -2.25645 -2.88929 0
M  V30 4820 H 442.938 -0.885814 -4.95139 0
M  V30 4821 H 442.638 -2.61406 -5.26252 0
M  V30 4822 H 444.162 -1.86286 -5.81489 0
M  V30 4823 H 445.576 -3.65382 -4.41779 0
M  V30 4824 H 443.973 -4.37953 -4.10265 0
M  V30 4825 H 445.043 -3.99995 -2.74102 0
M  V30 4826 N 446.386 1.0089 -1.21074 0
M  V30 4827 C 447.296 2.13039 -0.982425 0
M  V30 4828 C 448.312 1.73881 0.0642161 0
M  V30 4829 O 449.488 2.01012 -0.12496 0
M  V30 4830 C 446.553 3.42377 -0.545803 0
M  V30 4831 C 445.614 3.95731 -1.6642 0
M  V30 4832 C 444.847 5.18896 -1.24832 0
M  V30 4833 O 445.07 5.70273 -0.120265 0
M  V30 4834 O 444.004 5.65597 -2.05873 0
M  V30 4835 H 447.83 2.35175 -1.92163 0
M  V30 4836 H 445.415 1.1142 -0.995285 0
M  V30 4837 H 447.297 4.20244 -0.311912 0
M  V30 4838 H 445.972 3.21639 0.364727 0
M  V30 4839 H 444.879 3.19108 -1.95246 0
M  V30 4840 H 446.212 4.20872 -2.55201 0
M  V30 4841 N 447.864 1.01787 1.20321 0
M  V30 4842 C 448.794 0.609625 2.25401 0
M  V30 4843 C 449.775 -0.375951 1.65893 0
M  V30 4844 O 450.96 -0.261101 1.92437 0
M  V30 4845 C 448.09 -0.0515995 3.47262 0
M  V30 4846 C 447.044 0.855095 4.19371 0
M  V30 4847 C 446.37 0.0595757 5.34667 0
M  V30 4848 C 447.67 2.16374 4.75373 0
M  V30 4849 H 449.364 1.48803 2.59804 0
M  V30 4850 H 446.91 0.716934 1.24884 0
M  V30 4851 H 448.863 -0.348764 4.19954 0
M  V30 4852 H 447.587 -0.964726 3.12027 0
M  V30 4853 H 446.246 1.13628 3.48546 0
M  V30 4854 H 445.894 -0.85524 4.95676 0
M  V30 4855 H 445.594 0.663406 5.83843 0
M  V30 4856 H 447.118 -0.231105 6.10162 0
M  V30 4857 H 448.532 1.92885 5.39878 0
M  V30 4858 H 446.929 2.71853 5.34991 0
M  V30 4859 H 447.999 2.82589 3.94045 0
M  V30 4860 N 449.342 -1.36122 0.79427 0
M  V30 4861 C 450.753 -1.81646 0.431446 0
M  V30 4862 C 451.104 -1.66043 -1.04518 0
M  V30 4863 O 450.229 -1.1841 -1.8113 0
M  V30 4864 C 450.824 -3.29785 0.776341 0
M  V30 4865 C 449.383 -3.73501 0.466282 0
M  V30 4866 C 448.53 -2.58313 1.00844 0
M  V30 4867 H 451.481 -1.24274 0.986995 0
M  V30 4868 H 451.502 -3.80437 0.0692413 0
M  V30 4869 H 451.014 -3.4111 1.8511 0
M  V30 4870 H 449.115 -3.67733 -0.600245 0
M  V30 4871 H 449.228 -4.68754 0.990288 0
M  V30 4872 H 447.592 -2.5102 0.431406 0
M  V30 4873 H 448.375 -2.72421 2.08906 0
M  V30 4874 N 450.82 -0.546701 -1.47814 0
M  V30 4875 C 452.067 -0.0187407 -2.02491 0
M  V30 4876 C 452.395 1.32685 -1.42215 0
M  V30 4877 O 451.65 1.87413 -0.563454 0
M  V30 4878 C 451.949 0.134869 -3.57145 0
M  V30 4879 C 451.615 -1.13849 -4.3629 0
M  V30 4880 C 450.277 -1.48743 -4.57634 0
M  V30 4881 C 452.629 -1.98277 -4.82012 0
M  V30 4882 C 449.957 -2.67932 -5.21948 0
M  V30 4883 C 452.309 -3.16659 -5.4764 0
M  V30 4884 C 450.973 -3.51879 -5.67219 0
M  V30 4885 H 450.243 -0.0068577 -0.740968 0
M  V30 4886 H 452.89 -0.716097 -1.77607 0
M  V30 4887 H 451.195 0.915118 -3.80963 0
M  V30 4888 H 452.892 0.558556 -3.97091 0
M  V30 4889 H 449.482 -0.856767 -4.19949 0
M  V30 4890 H 453.666 -1.72628 -4.6531 0
M  V30 4891 H 448.922 -2.95401 -5.35302 0
M  V30 4892 H 453.096 -3.82374 -5.82033 0
M  V30 4893 H 450.723 -4.44331 -6.16825 0
M  V30 4894 N 452.299 1.55045 -0.282633 0
M  V30 4895 C 453.246 2.22822 0.601566 0
M  V30 4896 C 454.216 1.20431 1.14392 0
M  V30 4897 O 455.401 1.48996 1.19184 0
M  V30 4898 C 452.541 2.95873 1.77632 0
M  V30 4899 C 451.654 4.12999 1.26711 0
M  V30 4900 C 450.789 4.73676 2.40426 0
M  V30 4901 C 449.828 5.82981 1.86545 0
M  V30 4902 N 448.965 6.3769 2.93762 0
M  V30 4903 H 453.805 2.97995 0.0169528 0
M  V30 4904 H 451.342 1.471 -0.00339964 0
M  V30 4905 H 453.3 3.36447 2.46697 0
M  V30 4906 H 451.93 2.2311 2.33285 0
M  V30 4907 H 450.982 3.77494 0.469314 0
M  V30 4908 H 452.294 4.91803 0.832518 0
M  V30 4909 H 451.448 5.17008 3.17471 0
M  V30 4910 H 450.187 3.94164 2.87203 0
M  V30 4911 H 449.192 5.39092 1.07983 0
M  V30 4912 H 450.417 6.64366 1.40694 0
M  V30 4913 H 448.363 5.61069 3.39908 0
M  V30 4914 H 448.28 7.11788 2.54744 0
M  V30 4915 H 449.548 6.8568 3.7076 0
M  V30 4916 N 453.777 0.010035 1.57597 0
M  V30 4917 C 455.025 -0.671371 1.90623 0
M  V30 4918 C 455.346 -1.73753 0.885151 0
M  V30 4919 O 454.616 -1.95752 -0.0760611 0
M  V30 4920 H 453.196 -0.250968 0.703579 0
M  V30 4921 H 455.858 0.0533325 1.94827 0
M  V30 4922 H 454.954 -1.13626 2.90681 0
M  V30 4923 N 455.255 -1.55392 -0.262866 0
M  V30 4924 C 456.532 -1.67204 -1.01499 0
M  V30 4925 C 456.912 -0.545186 -2.03939 0
M  V30 4926 O 456.26 0.453467 -2.23955 0
M  V30 4927 C 456.47 -3.06847 -1.6627 0
M  V30 4928 C 457.818 -3.64928 -2.17054 0
M  V30 4929 O 458.842 -3.09545 -1.76239 0
M  V30 4930 O 457.701 -4.61984 -2.91947 0
M  V30 4931 H 454.795 -0.679467 -0.471438 0
M  V30 4932 H 457.341 -1.67729 -0.257918 0
M  V30 4933 H 456.113 -3.80309 -0.920915 0
M  V30 4934 H 455.736 -3.10266 -2.48638 0
M  V30 4935 N 456.733 0.527833 -1.48498 0
M  V30 4936 C 458.01 1.28905 -1.47115 0
M  V30 4937 C 458.39 2.10297 -0.184007 0
M  V30 4938 O 457.738 2.12728 0.834218 0
M  V30 4939 C 457.948 2.16866 -2.73441 0
M  V30 4940 C 459.296 2.76936 -3.21857 0
M  V30 4941 O 460.32 2.27152 -2.74373 0
M  V30 4942 O 459.179 3.67496 -4.04486 0
M  V30 4943 H 456.273 0.581918 -0.587623 0
M  V30 4944 H 458.819 0.544311 -1.60734 0
M  V30 4945 H 457.591 1.56521 -3.58632 0
M  V30 4946 H 457.214 2.98583 -2.62553 0
M  V30 4947 N 458.211 1.37122 0.776871 0
M  V30 4948 C 459.46 1.31373 1.53049 0
M  V30 4949 C 459.773 -0.101016 1.95339 0
M  V30 4950 O 460.979 -0.280953 2.70042 0
M  V30 4951 C 459.435 2.30567 2.76346 0
M  V30 4952 C 459.043 3.77543 2.41175 0
M  V30 4953 C 460.787 2.33818 3.54301 0
M  V30 4954 C 458.694 4.68481 3.60943 0
M  V30 4955 H 457.624 0.488234 0.574581 0
M  V30 4956 H 460.275 1.62554 0.851372 0
M  V30 4957 H 458.657 1.92396 3.46121 0
M  V30 4958 H 459.831 4.24521 1.79216 0
M  V30 4959 H 458.146 3.77187 1.76405 0
M  V30 4960 H 460.743 2.98965 4.4331 0
M  V30 4961 H 461.086 1.3503 3.93793 0
M  V30 4962 H 461.619 2.7067 2.91518 0
M  V30 4963 H 458.358 5.68378 3.26537 0
M  V30 4964 H 457.878 4.2621 4.22025 0
M  V30 4965 H 459.557 4.85366 4.27819 0
M  V30 4966 N 459.689 -1.00246 1.21608 0
M  V30 4967 C 460.917 -1.77631 1.06089 0
M  V30 4968 C 461.332 -1.84746 -0.38916 0
M  V30 4969 O 460.689 -1.31068 -1.26994 0
M  V30 4970 C 460.74 -3.21415 1.65453 0
M  V30 4971 O 460.461 -3.14703 3.04785 0
M  V30 4972 C 461.962 -4.15289 1.55079 0
M  V30 4973 H 459.182 -0.558162 0.37242 0
M  V30 4974 H 461.726 -1.26093 1.60999 0
M  V30 4975 H 459.881 -3.70053 1.14629 0
M  V30 4976 H 460.295 -4.05056 3.33212 0
M  V30 4977 H 461.769 -5.13965 2.01355 0
M  V30 4978 H 462.246 -4.36279 0.505665 0
M  V30 4979 H 462.852 -3.72543 2.05163 0
M  V30 4980 N 461.167 -1.02423 -1.1978 0
M  V30 4981 C 462.1 -0.545641 -2.21581 0
M  V30 4982 C 463.078 0.411024 -1.57319 0
M  V30 4983 O 464.262 0.329223 -1.85603 0
M  V30 4984 C 461.389 0.204973 -3.38079 0
M  V30 4985 C 460.435 -0.70241 -4.20676 0
M  V30 4986 S 461.268 -2.17595 -4.89298 0
M  V30 4987 C 462.424 -1.43572 -6.09211 0
M  V30 4988 H 462.657 -1.4082 -2.61834 0
M  V30 4989 H 460.19 -0.833771 -1.29952 0
M  V30 4990 H 462.148 0.631924 -4.05607 0
M  V30 4991 H 460.809 1.0432 -2.9627 0
M  V30 4992 H 460.002 -0.123193 -5.03849 0
M  V30 4993 H 459.604 -1.06747 -3.58442 0
M  V30 4994 H 461.896 -0.719806 -6.73665 0
M  V30 4995 H 462.839 -2.24388 -6.71607 0
M  V30 4996 H 463.247 -0.935252 -5.56699 0
M  V30 4997 N 462.645 1.35699 -0.801477 0
M  V30 4998 C 463.891 1.99208 -0.380022 0
M  V30 4999 C 464.224 1.63445 1.04878 0
M  V30 5000 O 463.499 0.895223 1.72673 0
M  V30 5001 C 463.782 3.55755 -0.557708 0
M  V30 5002 C 463.635 4.01332 -2.03107 0
M  V30 5003 C 464.954 4.40096 0.0197968 0
M  V30 5004 H 462.073 0.723667 -0.139552 0
M  V30 5005 H 464.715 1.60928 -1.01006 0
M  V30 5006 H 462.865 3.88494 -0.0213741 0
M  V30 5007 H 464.537 3.79026 -2.62939 0
M  V30 5008 H 462.78 3.52429 -2.52936 0
M  V30 5009 H 463.451 5.10234 -2.1063 0
M  V30 5010 H 465.927 4.13786 -0.438179 0
M  V30 5011 H 464.803 5.48735 -0.134477 0
M  V30 5012 H 465.064 4.2786 1.11303 0
M  V30 5013 N 464.123 0.554532 1.47522 0
M  V30 5014 C 465.053 -0.182974 2.32782 0
M  V30 5015 C 466.034 -0.911377 1.43624 0
M  V30 5016 O 467.219 -0.892366 1.72483 0
M  V30 5017 C 464.349 -1.21513 3.25349 0
M  V30 5018 C 463.303 -0.603355 4.23726 0
M  V30 5019 C 462.629 -1.73995 5.05598 0
M  V30 5020 C 463.929 0.441121 5.20434 0
M  V30 5021 H 465.623 0.52882 2.94693 0
M  V30 5022 H 463.169 0.255759 1.41711 0
M  V30 5023 H 465.122 -1.73922 3.83835 0
M  V30 5024 H 463.846 -1.95683 2.61487 0
M  V30 5025 H 462.505 -0.10059 3.66462 0
M  V30 5026 H 462.153 -2.47063 4.38143 0
M  V30 5027 H 461.853 -1.3364 5.72201 0
M  V30 5028 H 463.377 -2.26735 5.66942 0
M  V30 5029 H 464.791 0.00319931 5.733 0
M  V30 5030 H 463.188 0.763402 5.95224 0
M  V30 5031 H 464.258 1.33799 4.66075 0
M  V30 5032 N 465.601 -1.54893 0.290851 0
M  V30 5033 C 466.85 -1.99111 -0.322113 0
M  V30 5034 C 467.163 -1.18283 -1.55784 0
M  V30 5035 O 468.369 -1.5272 -2.24475 0
M  V30 5036 C 466.825 -3.54442 -0.624438 0
M  V30 5037 C 466.433 -4.44066 0.592373 0
M  V30 5038 C 468.177 -4.07211 -1.19916 0
M  V30 5039 C 466.084 -5.90812 0.263762 0
M  V30 5040 H 465.014 -0.743712 -0.124133 0
M  V30 5041 H 467.665 -1.79132 0.39797 0
M  V30 5042 H 466.047 -3.70281 -1.40384 0
M  V30 5043 H 467.221 -4.39999 1.36886 0
M  V30 5044 H 465.536 -4.02015 1.08502 0
M  V30 5045 H 468.133 -5.14407 -1.45909 0
M  V30 5046 H 468.476 -3.57196 -2.13815 0
M  V30 5047 H 469.009 -3.94873 -0.481687 0
M  V30 5048 H 465.748 -6.44955 1.17105 0
M  V30 5049 H 465.268 -5.97911 -0.475655 0
M  V30 5050 H 466.947 -6.46852 -0.138354 0
M  V30 5051 N 467.08 -0.0183926 -1.57589 0
M  V30 5052 C 468.01 0.965596 -2.12599 0
M  V30 5053 C 468.991 1.34641 -1.0395 0
M  V30 5054 O 470.176 1.42693 -1.31729 0
M  V30 5055 C 467.306 2.25149 -2.64434 0
M  V30 5056 C 466.26 2.01175 -3.77773 0
M  V30 5057 C 465.586 3.35937 -4.15994 0
M  V30 5058 C 466.886 1.35953 -5.04296 0
M  V30 5059 H 468.58 0.507504 -2.95067 0
M  V30 5060 H 466.126 0.242671 -1.41941 0
M  V30 5061 H 468.079 2.94357 -3.01549 0
M  V30 5062 H 466.803 2.73105 -1.79112 0
M  V30 5063 H 465.462 1.34388 -3.4108 0
M  V30 5064 H 465.11 3.81631 -3.27669 0
M  V30 5065 H 464.81 3.20705 -4.92364 0
M  V30 5066 H 466.334 4.0643 -4.55683 0
M  V30 5067 H 467.748 1.95144 -5.39065 0
M  V30 5068 H 466.145 1.31152 -5.85593 0
M  V30 5069 H 467.215 0.331071 -4.83768 0
M  V30 5070 N 468.558 1.5553 0.254621 0
M  V30 5071 C 469.969 1.67518 0.824286 0
M  V30 5072 C 470.32 0.614429 1.86331 0
M  V30 5073 O 469.445 -0.240736 2.15057 0
M  V30 5074 C 470.04 3.03692 1.50189 0
M  V30 5075 C 468.599 3.17646 2.01935 0
M  V30 5076 C 467.746 2.63373 0.867746 0
M  V30 5077 H 470.697 1.58671 0.0305843 0
M  V30 5078 H 470.718 2.97706 2.36962 0
M  V30 5079 H 470.23 3.80874 0.745431 0
M  V30 5080 H 468.331 2.45273 2.80485 0
M  V30 5081 H 468.444 4.24455 2.22204 0
M  V30 5082 H 466.808 2.20999 1.26616 0
M  V30 5083 H 467.591 3.43074 0.124498 0
M  V30 5084 N 470.036 -0.519951 1.48776 0
M  V30 5085 C 470.983 -1.62352 1.64044 0
M  V30 5086 C 471.953 -1.58945 0.482251 0
M  V30 5087 O 473.138 -1.77219 0.706971 0
M  V30 5088 C 470.278 -3.00579 1.69547 0
M  V30 5089 C 469.391 -3.14145 2.96541 0
M  V30 5090 C 468.526 -4.42991 2.93142 0
M  V30 5091 C 467.565 -4.50122 4.14797 0
M  V30 5092 N 466.702 -5.7037 4.09418 0
M  V30 5093 H 471.542 -1.48643 2.58281 0
M  V30 5094 H 469.079 -0.723516 1.28077 0
M  V30 5095 H 471.037 -3.80671 1.70719 0
M  V30 5096 H 469.667 -3.13036 0.787918 0
M  V30 5097 H 468.719 -2.27239 3.05068 0
M  V30 5098 H 470.031 -3.15275 3.86527 0
M  V30 5099 H 469.185 -5.31385 2.92772 0
M  V30 5100 H 467.924 -4.44398 2.00902 0
M  V30 5101 H 466.929 -3.60133 4.15433 0
M  V30 5102 H 468.154 -4.50445 5.08208 0
M  V30 5103 H 466.1 -5.72655 3.20004 0
M  V30 5104 H 466.017 -5.73036 4.93119 0
M  V30 5105 H 467.285 -6.61023 4.13121 0
M  V30 5106 N 471.514 -1.37532 -0.769588 0
M  V30 5107 C 472.925 -1.29382 -1.346 0
M  V30 5108 C 473.276 0.0576039 -1.96115 0
M  V30 5109 O 472.401 0.95947 -1.93967 0
M  V30 5110 C 472.996 -2.34298 -2.44724 0
M  V30 5111 C 471.555 -2.29776 -2.98128 0
M  V30 5112 C 470.702 -2.18013 -1.71364 0
M  V30 5113 H 473.653 -1.48123 -0.56968 0
M  V30 5114 H 473.674 -1.99089 -3.24259 0
M  V30 5115 H 473.186 -3.32645 -1.99922 0
M  V30 5116 H 471.287 -1.34959 -3.47299 0
M  V30 5117 H 471.4 -3.23276 -3.53595 0
M  V30 5118 H 469.764 -1.64595 -1.94372 0
M  V30 5119 H 470.547 -3.18278 -1.28662 0
M  V30 5120 N 472.992 0.995999 -1.22138 0
M  V30 5121 C 473.902 2.11985 -1.00496 0
M  V30 5122 C 474.918 1.7394 0.0457701 0
M  V30 5123 O 476.094 2.00868 -0.146273 0
M  V30 5124 C 473.159 3.41779 -0.582086 0
M  V30 5125 C 472.22 3.93943 -1.70608 0
M  V30 5126 C 471.453 5.17542 -1.30328 0
M  V30 5127 O 471.676 5.70114 -0.180743 0
M  V30 5128 O 470.61 5.63382 -2.11861 0
M  V30 5129 H 474.436 2.33123 -1.94647 0
M  V30 5130 H 472.021 1.10358 -1.00705 0
M  V30 5131 H 473.903 4.1989 -0.356467 0
M  V30 5132 H 472.578 3.22007 0.330592 0
M  V30 5133 H 471.485 3.17019 -1.98619 0
M  V30 5134 H 472.818 4.18141 -2.59651 0
M  V30 5135 N 474.47 1.03057 1.19235 0
M  V30 5136 C 475.417 0.612832 2.22515 0
M  V30 5137 C 476.387 -0.374224 1.61829 0
M  V30 5138 O 477.572 -0.270501 1.88873 0
M  V30 5139 C 474.712 -0.028475 3.45088 0
M  V30 5140 C 473.825 1.00483 4.20151 0
M  V30 5141 C 472.96 0.333102 5.30155 0
M  V30 5142 C 471.999 1.3522 5.96977 0
M  V30 5143 N 471.136 0.70616 6.9854 0
M  V30 5144 H 475.976 1.49812 2.57605 0
M  V30 5145 H 473.513 0.749658 1.26564 0
M  V30 5146 H 475.471 -0.417548 4.15105 0
M  V30 5147 H 474.101 -0.877334 3.10649 0
M  V30 5148 H 473.153 1.51194 3.49062 0
M  V30 5149 H 474.465 1.77929 4.65986 0
M  V30 5150 H 473.619 -0.110725 6.06599 0
M  V30 5151 H 472.358 -0.473547 4.85396 0
M  V30 5152 H 471.363 1.80627 5.19282 0
M  V30 5153 H 472.588 2.16037 6.4382 0
M  V30 5154 H 470.534 -0.0803667 6.55951 0
M  V30 5155 H 470.451 1.41848 7.42573 0
M  V30 5156 H 471.719 0.286391 7.78974 0
M  V30 5157 N 475.948 -1.35272 0.808662 0
M  V30 5158 C 477.173 -2.03477 0.401475 0
M  V30 5159 C 477.598 -1.60537 -0.980279 0
M  V30 5160 O 476.956 -0.78304 -1.63518 0
M  V30 5161 C 477.004 -3.57181 0.495354 0
M  V30 5162 O 476.108 -4.09474 -0.490397 0
M  V30 5163 H 475.449 -0.642561 0.167366 0
M  V30 5164 H 477.979 -1.72824 1.09512 0
M  V30 5165 H 477.989 -4.06356 0.365912 0
M  V30 5166 H 476.664 -3.87784 1.5032 0
M  V30 5167 H 475.241 -3.71516 -0.321023 0
M  V30 5168 N 477.426 -0.562348 -1.47226 0
M  V30 5169 C 478.356 0.170627 -2.32876 0
M  V30 5170 C 479.337 0.903748 -1.44106 0
M  V30 5171 O 480.522 0.883206 -1.72954 0
M  V30 5172 C 477.652 1.19786 -3.25989 0
M  V30 5173 C 476.606 0.580875 -4.2404 0
M  V30 5174 C 475.932 1.71311 -5.06514 0
M  V30 5175 C 477.232 -0.468714 -5.20193 0
M  V30 5176 H 478.926 -0.544441 -2.94408 0
M  V30 5177 H 476.472 -0.263271 -1.41573 0
M  V30 5178 H 478.425 1.71884 -3.84752 0
M  V30 5179 H 477.149 1.94294 -2.62521 0
M  V30 5180 H 475.808 0.0811538 -3.6651 0
M  V30 5181 H 475.456 2.44736 -4.39447 0
M  V30 5182 H 475.156 1.30604 -5.72902 0
M  V30 5183 H 476.68 2.23725 -5.68137 0
M  V30 5184 H 478.094 -0.0336028 -5.7329 0
M  V30 5185 H 476.491 -0.794957 -5.94811 0
M  V30 5186 H 477.561 -1.36269 -4.65359 0
M  V30 5187 N 478.904 1.54736 -0.299062 0
M  V30 5188 C 479.867 2.22127 0.565012 0
M  V30 5189 C 480.867 1.20669 1.06281 0
M  V30 5190 O 482.057 1.45417 0.959145 0
M  V30 5191 C 479.189 2.90611 1.78208 0
M  V30 5192 H 480.382 2.99891 -0.0237448 0
M  V30 5193 H 477.935 1.5622 -0.0498788 0
M  V30 5194 H 478.67 2.16921 2.41072 0
M  V30 5195 H 478.455 3.64984 1.43281 0
M  V30 5196 H 479.945 3.42026 2.396 0
M  V30 5197 N 480.382 0.0267497 1.57577 0
M  V30 5198 C 481.329 -0.955894 2.10075 0
M  V30 5199 C 482.299 -1.32453 1.00226 0
M  V30 5200 O 483.484 -1.41826 1.27632 0
M  V30 5201 C 480.624 -2.2338 2.6305 0
M  V30 5202 C 479.737 -1.92183 3.86898 0
M  V30 5203 C 478.872 -3.14251 4.28275 0
M  V30 5204 C 477.911 -2.78862 5.44888 0
M  V30 5205 N 477.048 -3.93548 5.81433 0
M  V30 5206 H 481.888 -0.501303 2.93753 0
M  V30 5207 H 479.425 -0.235847 1.45197 0
M  V30 5208 H 481.383 -2.98124 2.91853 0
M  V30 5209 H 480.013 -2.6646 1.82205 0
M  V30 5210 H 479.065 -1.07692 3.64838 0
M  V30 5211 H 480.377 -1.62117 4.7172 0
M  V30 5212 H 479.531 -3.97317 4.58502 0
M  V30 5213 H 478.27 -3.47476 3.42215 0
M  V30 5214 H 477.275 -1.94208 5.14357 0
M  V30 5215 H 478.5 -2.46855 6.32645 0
M  V30 5216 H 476.446 -4.2662 4.98328 0
M  V30 5217 H 476.363 -3.67098 6.6089 0
M  V30 5218 H 477.631 -4.77325 6.16264 0
M  V30 5219 N 481.861 -1.55662 -0.24637 0
M  V30 5220 C 483.107 -1.77782 -0.975779 0
M  V30 5221 C 483.44 -0.592103 -1.84953 0
M  V30 5222 O 482.715 0.409588 -1.90138 0
M  V30 5223 C 482.998 -3.09788 -1.83584 0
M  V30 5224 C 482.851 -4.38764 -0.990241 0
M  V30 5225 C 484.17 -3.38029 -2.81823 0
M  V30 5226 H 481.289 -0.646789 -0.353317 0
M  V30 5227 H 483.931 -1.88398 -0.246248 0
M  V30 5228 H 482.081 -3.00869 -2.45784 0
M  V30 5229 H 483.753 -4.59675 -0.386897 0
M  V30 5230 H 481.996 -4.32798 -0.294626 0
M  V30 5231 H 482.667 -5.27514 -1.62584 0
M  V30 5232 H 485.143 -3.46915 -2.2976 0
M  V30 5233 H 484.019 -4.3161 -3.39122 0
M  V30 5234 H 484.28 -2.58968 -3.58313 0
M  V30 5235 N 483.339 0.512053 -1.4905 0
M  V30 5236 C 484.249 1.64139 -1.67617 0
M  V30 5237 C 485.265 1.64786 -0.558701 0
M  V30 5238 O 486.441 1.8341 -0.832034 0
M  V30 5239 C 483.506 3.00548 -1.72835 0
M  V30 5240 C 482.567 3.10615 -2.96339 0
M  V30 5241 C 481.8 4.40517 -3.01298 0
M  V30 5242 O 482.023 5.28671 -2.14157 0
M  V30 5243 O 480.957 4.55325 -3.93653 0
M  V30 5244 H 484.783 1.51407 -2.63267 0
M  V30 5245 H 482.368 0.687131 -1.32661 0
M  V30 5246 H 484.25 3.81641 -1.78683 0
M  V30 5247 H 482.925 3.13566 -0.803616 0
M  V30 5248 H 481.832 2.2875 -2.96014 0
M  V30 5249 H 483.165 3.0252 -3.88256 0
M  V30 5250 N 484.817 1.37938 0.762283 0
M  V30 5251 C 485.764 1.34467 1.87583 0
M  V30 5252 C 486.734 0.208633 1.64785 0
M  V30 5253 O 487.919 0.399494 1.86571 0
M  V30 5254 C 485.059 1.16692 3.24772 0
M  V30 5255 C 484.172 2.39608 3.59461 0
M  V30 5256 C 483.307 2.14631 4.85908 0
M  V30 5257 C 482.346 3.33364 5.13357 0
M  V30 5258 N 481.483 3.07877 6.30996 0
M  V30 5259 H 486.323 2.29669 1.89885 0
M  V30 5260 H 483.86 1.14116 0.928219 0
M  V30 5261 H 485.818 1.04405 4.03925 0
M  V30 5262 H 484.448 0.251333 3.2182 0
M  V30 5263 H 483.5 2.626 2.75219 0
M  V30 5264 H 484.812 3.28128 3.75678 0
M  V30 5265 H 483.966 1.99429 5.72986 0
M  V30 5266 H 482.705 1.23463 4.71814 0
M  V30 5267 H 481.71 3.49094 4.24751 0
M  V30 5268 H 482.935 4.25395 5.29354 0
M  V30 5269 H 480.881 2.19348 6.18241 0
M  V30 5270 H 480.798 3.89944 6.47673 0
M  V30 5271 H 482.066 2.96313 7.20985 0
M  V30 5272 N 486.295 -0.989507 1.22664 0
M  V30 5273 C 487.205 -2.11449 1.01619 0
M  V30 5274 C 488.221 -1.73962 -0.036545 0
M  V30 5275 O 489.397 -2.00788 0.156924 0
M  V30 5276 C 486.462 -3.41465 0.600204 0
M  V30 5277 C 485.523 -3.93033 1.72695 0
M  V30 5278 C 484.756 -5.16844 1.33071 0
M  V30 5279 O 484.979 -5.7001 0.210975 0
M  V30 5280 O 483.913 -5.6225 2.14845 0
M  V30 5281 H 487.739 -2.32088 1.9588 0
M  V30 5282 H 485.324 -1.09823 1.01289 0
M  V30 5283 H 487.206 -4.19695 0.37873 0
M  V30 5284 H 485.881 -3.22178 -0.313511 0
M  V30 5285 H 484.788 -3.15961 2.00298 0
M  V30 5286 H 486.121 -4.16758 2.61865 0
M  V30 5287 N 487.773 -1.03688 -1.18687 0
M  V30 5288 C 488.703 -0.645407 -2.24403 0
M  V30 5289 C 489.684 0.349511 -1.66471 0
M  V30 5290 O 490.869 0.230453 -1.92828 0
M  V30 5291 C 487.999 -0.00365337 -3.473 0
M  V30 5292 C 486.953 -0.921705 -4.17958 0
M  V30 5293 C 486.279 -0.144629 -5.34504 0
M  V30 5294 C 487.579 -2.23909 -4.71871 0
M  V30 5295 H 489.273 -1.52917 -2.57404 0
M  V30 5296 H 486.819 -0.736711 -1.23728 0
M  V30 5297 H 488.772 0.281908 -4.20456 0
M  V30 5298 H 487.496 0.914963 -3.13522 0
M  V30 5299 H 486.155 -1.19159 -3.46694 0
M  V30 5300 H 485.803 0.776274 -4.96974 0
M  V30 5301 H 485.503 -0.756206 -5.82714 0
M  V30 5302 H 487.027 0.134004 -6.10453 0
M  V30 5303 H 488.441 -2.0145 -5.36741 0
M  V30 5304 H 486.838 -2.8033 -5.30599 0
M  V30 5305 H 487.908 -2.88822 -3.895 0
M  V30 5306 N 489.251 1.34841 -0.815825 0
M  V30 5307 C 490.479 2.0273 -0.413294 0
M  V30 5308 C 490.894 1.61459 0.978599 0
M  V30 5309 O 490.251 0.816584 1.63212 0
M  V30 5310 C 490.302 3.58058 -0.497676 0
M  V30 5311 O 490.023 3.97832 -1.8347 0
M  V30 5312 C 491.524 4.4321 -0.0891339 0
M  V30 5313 H 488.744 0.649956 -0.166728 0
M  V30 5314 H 491.288 1.72267 -1.10201 0
M  V30 5315 H 489.443 3.87136 0.142886 0
M  V30 5316 H 489.857 4.92501 -1.80396 0
M  V30 5317 H 491.331 5.5164 -0.199274 0
M  V30 5318 H 491.808 4.28432 0.966571 0
M  V30 5319 H 492.414 4.19446 -0.703214 0
M  V30 5320 N 490.729 0.570148 1.46925 0
M  V30 5321 C 492.14 0.1402 1.86173 0
M  V30 5322 C 492.491 -1.29347 1.47526 0
M  V30 5323 O 491.616 -1.97508 0.884292 0
M  V30 5324 C 492.211 0.247661 3.37894 0
M  V30 5325 C 490.77 -0.127332 3.76185 0
M  V30 5326 C 489.917 0.589349 2.70965 0
M  V30 5327 H 492.868 0.779117 1.38259 0
M  V30 5328 H 492.889 -0.530341 3.76786 0
M  V30 5329 H 492.401 1.29121 3.65991 0
M  V30 5330 H 490.502 -1.17149 3.53704 0
M  V30 5331 H 490.615 0.240238 4.78497 0
M  V30 5332 H 488.979 0.0309824 2.54681 0
M  V30 5333 H 489.762 1.6343 3.01903 0
M  V30 5334 N 492.207 -1.54576 0.307264 0
M  V30 5335 C 493.117 -2.27435 -0.57536 0
M  V30 5336 C 494.133 -1.31183 -1.14311 0
M  V30 5337 O 495.309 -1.64175 -1.16656 0
M  V30 5338 C 492.374 -3.00566 -1.72803 0
M  V30 5339 C 491.435 -4.12369 -1.19373 0
M  V30 5340 C 490.668 -4.82003 -2.29147 0
M  V30 5341 O 490.891 -4.51038 -3.49171 0
M  V30 5342 O 489.825 -5.69271 -1.95485 0
M  V30 5343 H 493.651 -3.03696 0.0158558 0
M  V30 5344 H 491.236 -1.49219 0.0735064 0
M  V30 5345 H 493.118 -3.46416 -2.39946 0
M  V30 5346 H 491.793 -2.27195 -2.30574 0
M  V30 5347 H 490.7 -3.70905 -0.487851 0
M  V30 5348 H 492.033 -4.87736 -0.661376 0
M  V30 5349 N 493.685 -0.035106 -1.57561 0
M  V30 5350 C 494.931 0.64318 -1.92331 0
M  V30 5351 C 495.264 1.71434 -0.912368 0
M  V30 5352 O 494.539 1.94395 0.0640303 0
M  V30 5353 C 494.822 1.25411 -3.37556 0
M  V30 5354 C 494.675 0.192109 -4.4939 0
M  V30 5355 C 495.994 2.17041 -3.82859 0
M  V30 5356 H 493.113 0.232341 -0.699419 0
M  V30 5357 H 495.755 -0.0935889 -1.89769 0
M  V30 5358 H 493.905 1.88205 -3.39869 0
M  V30 5359 H 495.577 -0.438849 -4.59208 0
M  V30 5360 H 493.82 -0.481725 -4.31117 0
M  V30 5361 H 494.491 0.659292 -5.48049 0
M  V30 5362 H 496.967 1.64228 -3.8232 0
M  V30 5363 H 495.843 2.56738 -4.85157 0
M  V30 5364 H 496.104 3.06401 -3.18702 0
M  V30 5365 N 495.163 1.55791 0.238111 0
M  V30 5366 C 496.093 1.94068 1.29846 0
M  V30 5367 C 497.074 0.806726 1.49753 0
M  V30 5368 O 498.259 1.06772 1.62214 0
M  V30 5369 C 495.389 2.24302 2.65153 0
M  V30 5370 C 494.343 3.40032 2.59927 0
M  V30 5371 C 493.669 3.55829 3.99111 0
M  V30 5372 C 494.969 4.75476 2.16148 0
M  V30 5373 H 496.663 2.82887 0.980563 0
M  V30 5374 H 494.209 1.36105 0.470253 0
M  V30 5375 H 496.162 2.4967 3.39475 0
M  V30 5376 H 494.886 1.32318 2.98596 0
M  V30 5377 H 493.545 3.14687 1.88063 0
M  V30 5378 H 493.193 2.6125 4.29834 0
M  V30 5379 H 492.893 4.3366 3.96501 0
M  V30 5380 H 494.417 3.83528 4.7512 0
M  V30 5381 H 495.831 5.00158 2.80205 0
M  V30 5382 H 494.228 5.56472 2.24631 0
M  V30 5383 H 495.298 4.71946 1.11333 0
M  V30 5384 N 496.642 -0.504142 1.49319 0
M  V30 5385 C 497.574 -1.62265 1.61872 0
M  V30 5386 C 498.587 -1.54881 0.501573 0
M  V30 5387 O 499.776 -1.6087 0.773497 0
M  V30 5388 C 496.876 -3.01042 1.55651 0
M  V30 5389 C 496.049 -3.33642 2.82845 0
M  V30 5390 C 495.108 -4.51816 2.69719 0
M  V30 5391 O 494.134 -4.53755 3.4365 0
M  V30 5392 N 495.336 -5.51543 1.81055 0
M  V30 5393 H 498.101 -1.51924 2.58339 0
M  V30 5394 H 495.662 -0.691954 1.46368 0
M  V30 5395 H 497.654 -3.78013 1.44528 0
M  V30 5396 H 496.224 -3.05323 0.670546 0
M  V30 5397 H 495.444 -2.45598 3.08343 0
M  V30 5398 H 496.732 -3.5222 3.67177 0
M  V30 5399 H 496.13 -5.52774 1.20241 0
M  V30 5400 H 494.687 -6.27629 1.75856 0
M  V30 5401 N 498.12 -1.38341 -0.754957 0
M  V30 5402 C 499.03 -1.3769 -1.89944 0
M  V30 5403 C 500.046 -0.274194 -1.71826 0
M  V30 5404 O 501.222 -0.512391 -1.94773 0
M  V30 5405 C 498.287 -1.19938 -3.25293 0
M  V30 5406 C 497.348 -2.40001 -3.55946 0
M  V30 5407 C 496.581 -2.23087 -4.84838 0
M  V30 5408 O 496.804 -1.22386 -5.57116 0
M  V30 5409 O 495.738 -3.11646 -5.14937 0
M  V30 5410 H 499.564 -2.3412 -1.93446 0
M  V30 5411 H 497.149 -1.19246 -0.900044 0
M  V30 5412 H 499.031 -1.12093 -4.06218 0
M  V30 5413 H 497.706 -0.265919 -3.22606 0
M  V30 5414 H 496.613 -2.53421 -2.75188 0
M  V30 5415 H 497.946 -3.31973 -3.63394 0
M  V30 5416 N 499.598 0.982988 -1.23187 0
M  V30 5417 C 500.844 1.7273 -1.07405 0
M  V30 5418 C 501.199 1.885 0.385447 0
M  V30 5419 O 500.492 1.4243 1.28157 0
M  V30 5420 C 500.686 3.12736 -1.73006 0
M  V30 5421 C 500.515 3.10621 -3.25184 0
M  V30 5422 C 499.285 3.15957 -3.94334 0
M  V30 5423 C 501.483 2.93992 -4.21987 0
M  V30 5424 N 499.465 3.03701 -5.33516 0
M  V30 5425 C 500.836 2.8987 -5.48065 0
M  V30 5426 C 502.891 2.78457 -4.12754 0
M  V30 5427 C 501.594 2.71804 -6.65969 0
M  V30 5428 C 503.62 2.61754 -5.30319 0
M  V30 5429 C 502.982 2.58328 -6.55321 0
M  V30 5430 H 499.081 0.641279 -0.447533 0
M  V30 5431 H 501.665 1.16664 -1.55877 0
M  V30 5432 H 499.836 3.67026 -1.2707 0
M  V30 5433 H 501.568 3.75786 -1.50224 0
M  V30 5434 H 498.323 3.24034 -3.45397 0
M  V30 5435 H 498.747 3.00855 -6.06478 0
M  V30 5436 H 503.389 2.79898 -3.16886 0
M  V30 5437 H 501.107 2.69108 -7.61975 0
M  V30 5438 H 504.693 2.50702 -5.25014 0
M  V30 5439 H 503.573 2.45564 -7.4476 0
M  V30 5440 N 501.076 1.04316 1.18135 0
M  V30 5441 C 502.006 0.657299 2.24058 0
M  V30 5442 C 502.987 -0.340678 1.66654 0
M  V30 5443 O 504.172 -0.220223 1.92947 0
M  V30 5444 C 501.302 0.0220715 3.47293 0
M  V30 5445 C 500.256 0.943857 4.17463 0
M  V30 5446 C 499.582 0.172973 5.3442 0
M  V30 5447 C 500.882 2.26409 4.70677 0
M  V30 5448 H 502.576 1.5428 2.56589 0
M  V30 5449 H 500.122 0.743263 1.23335 0
M  V30 5450 H 502.075 -0.259607 4.206 0
M  V30 5451 H 500.799 -0.898323 3.14003 0
M  V30 5452 H 499.458 1.20996 3.46057 0
M  V30 5453 H 499.106 -0.749907 4.97379 0
M  V30 5454 H 498.806 0.787098 5.82304 0
M  V30 5455 H 500.33 -0.101628 6.10515 0
M  V30 5456 H 501.744 2.04294 5.35665 0
M  V30 5457 H 500.141 2.8314 5.29105 0
M  V30 5458 H 501.211 2.90883 3.87962 0
M  V30 5459 N 502.554 -1.34406 0.822964 0
M  V30 5460 C 503.831 -1.92733 0.333641 0
M  V30 5461 C 504.211 -1.75107 -1.17901 0
M  V30 5462 O 503.559 -1.12983 -1.98613 0
M  V30 5463 C 503.769 -3.40557 0.763023 0
M  V30 5464 C 505.117 -4.17709 0.761879 0
M  V30 5465 O 506.141 -3.49141 0.705606 0
M  V30 5466 O 505 -5.40082 0.835109 0
M  V30 5467 H 502.094 -0.821964 0.0911249 0
M  V30 5468 H 504.64 -1.4338 0.907757 0
M  V30 5469 H 503.412 -3.47187 1.8049 0
M  V30 5470 H 503.035 -3.97259 0.164605 0
M  V30 5471 N 504.032 -0.577932 -1.46621 0
M  V30 5472 C 504.942 0.160651 -2.34049 0
M  V30 5473 C 505.958 0.890911 -1.49462 0
M  V30 5474 O 507.134 0.855166 -1.82343 0
M  V30 5475 C 504.199 1.16447 -3.26559 0
M  V30 5476 C 503.26 0.4394 -4.27045 0
M  V30 5477 C 502.493 1.3954 -5.15135 0
M  V30 5478 O 502.716 2.63162 -5.06065 0
M  V30 5479 O 501.65 0.908585 -5.95003 0
M  V30 5480 H 505.476 -0.557057 -2.98547 0
M  V30 5481 H 503.061 -0.338369 -1.45518 0
M  V30 5482 H 504.943 1.7434 -3.83645 0
M  V30 5483 H 503.618 1.86373 -2.64663 0
M  V30 5484 H 502.525 -0.181247 -3.73661 0
M  V30 5485 H 503.858 -0.218799 -4.91713 0
M  V30 5486 N 505.51 1.54411 -0.315457 0
M  V30 5487 C 506.44 2.27002 0.547039 0
M  V30 5488 C 507.421 1.27492 1.12605 0
M  V30 5489 O 508.606 1.5629 1.15269 0
M  V30 5490 C 505.736 3.02171 1.71201 0
M  V30 5491 C 504.69 4.0895 1.26268 0
M  V30 5492 C 504.016 4.71915 2.51396 0
M  V30 5493 C 505.316 5.20891 0.383419 0
M  V30 5494 H 507.01 2.99343 -0.0584517 0
M  V30 5495 H 504.556 1.4397 -0.0295527 0
M  V30 5496 H 506.509 3.51681 2.32161 0
M  V30 5497 H 505.233 2.27433 2.34397 0
M  V30 5498 H 503.892 3.60312 0.676062 0
M  V30 5499 H 503.54 3.93801 3.12937 0
M  V30 5500 H 503.24 5.44039 2.22026 0
M  V30 5501 H 504.764 5.24195 3.13133 0
M  V30 5502 H 506.178 5.66206 0.899082 0
M  V30 5503 H 504.575 5.99821 0.182857 0
M  V30 5504 H 505.645 4.81324 -0.587821 0
M  V30 5505 N 506.988 0.0434614 1.5754 0
M  V30 5506 C 507.898 -0.94893 2.14552 0
M  V30 5507 C 508.914 -1.34707 1.10136 0
M  V30 5508 O 510.09 -1.42557 1.42266 0
M  V30 5509 C 507.155 -2.208 2.67298 0
M  V30 5510 C 506.216 -1.86893 3.86484 0
M  V30 5511 C 505.449 -3.06797 4.36705 0
M  V30 5512 O 505.672 -4.19921 3.86034 0
M  V30 5513 O 504.606 -2.8826 5.28384 0
M  V30 5514 H 508.432 -0.494099 2.99654 0
M  V30 5515 H 506.017 -0.177989 1.48336 0
M  V30 5516 H 507.899 -2.94686 3.01228 0
M  V30 5517 H 506.574 -2.65436 1.85272 0
M  V30 5518 H 505.481 -1.10347 3.57455 0
M  V30 5519 H 506.814 -1.47062 4.69716 0
M  V30 5520 N 508.466 -1.55915 -0.229846 0
M  V30 5521 C 509.376 -1.94891 -1.30593 0
M  V30 5522 C 510.392 -0.851604 -1.51736 0
M  V30 5523 O 511.568 -1.15447 -1.65027 0
M  V30 5524 C 508.633 -2.25052 -2.63728 0
M  V30 5525 C 507.694 -3.48306 -2.5096 0
M  V30 5526 C 506.927 -3.77019 -3.77747 0
M  V30 5527 O 507.15 -3.07534 -4.80395 0
M  V30 5528 O 506.084 -4.70523 -3.75356 0
M  V30 5529 H 509.91 -2.86581 -1.00525 0
M  V30 5530 H 507.495 -1.43017 -0.432025 0
M  V30 5531 H 509.377 -2.45682 -3.42372 0
M  V30 5532 H 508.052 -1.36538 -2.93495 0
M  V30 5533 H 506.959 -3.32964 -1.70546 0
M  V30 5534 H 508.292 -4.37177 -2.26136 0
M  V30 5535 N 509.944 0.496216 -1.49584 0
M  V30 5536 C 510.877 1.61508 -1.61215 0
M  V30 5537 C 511.855 1.55927 -0.461045 0
M  V30 5538 O 513.039 1.75914 -0.677231 0
M  V30 5539 C 510.166 3.00035 -1.57152 0
M  V30 5540 C 509.212 3.23861 -2.77518 0
M  V30 5541 S 510.045 3.06466 -4.39134 0
M  V30 5542 C 511.201 4.4738 -4.37724 0
M  V30 5543 H 511.434 1.51398 -2.55863 0
M  V30 5544 H 508.967 0.681727 -1.38535 0
M  V30 5545 H 510.925 3.7991 -1.55494 0
M  V30 5546 H 509.586 3.07556 -0.637834 0
M  V30 5547 H 508.779 4.25 -2.70908 0
M  V30 5548 H 508.381 2.51716 -2.76614 0
M  V30 5549 H 510.673 5.39556 -4.09738 0
M  V30 5550 H 511.616 4.59038 -5.39156 0
M  V30 5551 H 512.024 4.28283 -3.67742 0
M  V30 5552 N 511.423 1.38739 0.74761 0
M  V30 5553 C 512.356 1.3083 1.86972 0
M  V30 5554 C 513.334 0.184229 1.61553 0
M  V30 5555 O 514.518 0.36256 1.8498 0
M  V30 5556 C 511.645 1.02854 3.22705 0
M  V30 5557 C 510.691 2.17281 3.67003 0
M  V30 5558 S 511.524 3.79468 3.77842 0
M  V30 5559 C 512.68 3.53692 5.16385 0
M  V30 5560 H 512.913 2.258 1.93395 0
M  V30 5561 H 510.446 1.24646 0.911199 0
M  V30 5562 H 512.404 0.87397 4.01089 0
M  V30 5563 H 511.065 0.0959295 3.13953 0
M  V30 5564 H 510.258 1.93267 4.65472 0
M  V30 5565 H 509.86 2.28876 2.9579 0
M  V30 5566 H 512.152 3.10176 6.02327 0
M  V30 5567 H 513.095 4.51576 5.45422 0
M  V30 5568 H 513.503 2.8807 4.85464 0
M  V30 5569 N 512.901 -0.976442 1.23707 0
M  V30 5570 C 513.831 -2.08749 1.04624 0
M  V30 5571 C 514.812 -1.70057 -0.0380956 0
M  V30 5572 O 515.997 -1.93782 0.127308 0
M  V30 5573 C 513.127 -3.41335 0.640902 0
M  V30 5574 C 512.081 -3.93947 1.67302 0
M  V30 5575 C 511.407 -5.22774 1.12301 0
M  V30 5576 C 512.707 -4.22769 3.06697 0
M  V30 5577 H 514.401 -2.24972 1.97555 0
M  V30 5578 H 511.947 -1.08108 0.951247 0
M  V30 5579 H 513.9 -4.18489 0.494434 0
M  V30 5580 H 512.624 -3.24988 -0.324099 0
M  V30 5581 H 511.283 -3.18941 1.80755 0
M  V30 5582 H 510.931 -5.0278 0.148877 0
M  V30 5583 H 510.631 -5.58942 1.81267 0
M  V30 5584 H 512.155 -6.02546 0.988479 0
M  V30 5585 H 513.569 -4.90659 2.96524 0
M  V30 5586 H 511.966 -4.70147 3.72937 0
M  V30 5587 H 513.036 -3.29885 3.55392 0
M  V30 5588 N 514.379 -1.04941 -1.1758 0
M  V30 5589 C 515.625 -0.759112 -1.88057 0
M  V30 5590 C 515.958 0.711918 -1.8068 0
M  V30 5591 O 515.233 1.52035 -1.21308 0
M  V30 5592 C 515.516 -1.237 -3.38187 0
M  V30 5593 C 515.369 -2.77078 -3.54327 0
M  V30 5594 C 516.688 -0.834014 -4.32125 0
M  V30 5595 H 513.807 -0.277237 -0.682868 0
M  V30 5596 H 516.449 -1.30296 -1.38286 0
M  V30 5597 H 514.599 -0.774337 -3.80705 0
M  V30 5598 H 516.271 -3.31449 -3.20842 0
M  V30 5599 H 514.514 -3.16477 -2.96689 0
M  V30 5600 H 515.185 -3.05577 -4.59703 0
M  V30 5601 H 517.661 -1.23228 -3.97434 0
M  V30 5602 H 516.537 -1.19603 -5.35711 0
M  V30 5603 H 516.798 0.262195 -4.41322 0
M  V30 5604 N 515.857 1.33968 -0.830081 0
M  V30 5605 C 517.103 1.98357 -0.422191 0
M  V30 5606 C 517.436 1.65633 1.01387 0
M  V30 5607 O 516.711 0.931648 1.70735 0
M  V30 5608 C 516.994 3.54492 -0.633043 0
M  V30 5609 C 516.847 3.96934 -2.11574 0
M  V30 5610 C 518.166 4.40039 -0.0735584 0
M  V30 5611 H 515.285 0.720544 -0.154871 0
M  V30 5612 H 517.927 1.58749 -1.04397 0
M  V30 5613 H 516.077 3.88361 -0.103775 0
M  V30 5614 H 517.749 3.73363 -2.7092 0
M  V30 5615 H 515.992 3.46984 -2.60354 0
M  V30 5616 H 516.663 5.05651 -2.21406 0
M  V30 5617 H 519.139 4.12764 -0.52585 0
M  V30 5618 H 518.015 5.48327 -0.250841 0
M  V30 5619 H 518.276 4.30124 1.02202 0
M  V30 5620 N 517.335 0.585699 1.46312 0
M  V30 5621 C 518.285 -0.166813 2.27389 0
M  V30 5622 C 519.269 -0.859076 1.36047 0
M  V30 5623 O 520.461 -0.752678 1.60199 0
M  V30 5624 C 517.59 -1.17791 3.2246 0
M  V30 5625 C 516.676 -0.487605 4.21288 0
M  V30 5626 N 517.067 0.45849 5.03718 0
M  V30 5627 C 515.365 -0.737971 4.39852 0
M  V30 5628 C 516.066 0.862213 5.75275 0
M  V30 5629 N 515.042 0.210707 5.43191 0
M  V30 5630 H 518.844 0.560167 2.88512 0
M  V30 5631 H 516.358 0.407715 1.57199 0
M  V30 5632 H 518.355 -1.73122 3.79255 0
M  V30 5633 H 517.015 -1.90568 2.62896 0
M  V30 5634 H 518.026 0.834163 5.11138 0
M  V30 5635 H 514.703 -1.45209 3.91434 0
M  V30 5636 H 516.093 1.64128 6.51546 0
M  V30 5637 N 518.813 -1.54241 0.323641 0
M  V30 5638 C 519.746 -2.20579 -0.584833 0
M  V30 5639 C 520.724 -1.18286 -1.11567 0
M  V30 5640 O 521.908 -1.47025 -1.17966 0
M  V30 5641 C 519.035 -2.86754 -1.80249 0
M  V30 5642 C 518.081 -4.02767 -1.4029 0
M  V30 5643 S 518.914 -5.33693 -0.439539 0
M  V30 5644 C 520.07 -6.03362 -1.66448 0
M  V30 5645 H 520.303 -2.97292 -0.0213238 0
M  V30 5646 H 517.836 -1.54024 0.107726 0
M  V30 5647 H 519.794 -3.25503 -2.50116 0
M  V30 5648 H 518.455 -2.09844 -2.33719 0
M  V30 5649 H 517.648 -4.47933 -2.31024 0
M  V30 5650 H 517.25 -3.65692 -0.783928 0
M  V30 5651 H 519.542 -6.25546 -2.6019 0
M  V30 5652 H 520.485 -6.9689 -1.25498 0
M  V30 5653 H 520.893 -5.33273 -1.85149 0
M  V30 5654 N 520.291 -0.0518155 -1.57515 0
M  V30 5655 C 521.702 0.483787 -1.80323 0
M  V30 5656 C 522.053 1.70879 -0.964099 0
M  V30 5657 O 521.178 2.15643 -0.180872 0
M  V30 5658 C 521.773 0.884459 -3.27052 0
M  V30 5659 C 520.332 1.36504 -3.50776 0
M  V30 5660 C 519.479 0.340539 -2.75201 0
M  V30 5661 H 522.43 -0.277691 -1.56252 0
M  V30 5662 H 522.451 1.74733 -3.38007 0
M  V30 5663 H 521.963 -0.00731093 -3.88099 0
M  V30 5664 H 520.064 2.27598 -2.95009 0
M  V30 5665 H 520.177 1.35675 -4.59488 0
M  V30 5666 H 518.541 0.81356 -2.41357 0
M  V30 5667 H 519.324 -0.543156 -3.38976 0
M  V30 5668 N 521.769 1.56035 0.221574 0
M  V30 5669 C 523.185 1.49026 0.571271 0
M  V30 5670 C 523.385 0.746912 1.87146 0
M  V30 5671 O 522.441 0.286566 2.50869 0
M  V30 5672 C 523.754 2.93579 0.650522 0
M  V30 5673 C 525.302 3.04099 0.741151 0
M  V30 5674 C 525.777 4.5001 0.851747 0
M  V30 5675 N 527.268 4.54053 0.915968 0
M  V30 5676 C 528.003 5.64232 1.02125 0
M  V30 5677 N 527.499 6.84164 1.09049 0
M  V30 5678 N 529.292 5.52084 1.05639 0
M  V30 5679 H 521.443 2.02791 -0.63162 0
M  V30 5680 H 523.706 0.921736 -0.221602 0
M  V30 5681 H 523.412 3.50912 -0.235253 0
M  V30 5682 H 523.286 3.45476 1.51413 0
M  V30 5683 H 525.673 2.4683 1.61737 0
M  V30 5684 H 525.754 2.55371 -0.148128 0
M  V30 5685 H 525.398 5.07896 -0.0200117 0
M  V30 5686 H 525.328 4.96444 1.75644 0
M  V30 5687 H 527.819 3.67683 0.872782 0
M  V30 5688 H 528.132 7.63883 1.1706 0
M  V30 5689 H 526.477 6.86875 1.05962 0
M  V30 5690 H 529.668 4.57317 0.998953 0
M  V30 5691 H 529.841 6.37983 1.13498 0
M  V30 5692 N 523.247 -0.488276 1.49845 0
M  V30 5693 C 524.494 -1.24157 1.59973 0
M  V30 5694 C 524.822 -1.92293 0.292182 0
M  V30 5695 O 524.077 -1.81942 -0.720813 0
M  V30 5696 C 524.376 -2.32152 2.71735 0
M  V30 5697 C 524.042 -1.81387 4.12807 0
M  V30 5698 C 522.704 -1.67262 4.51195 0
M  V30 5699 C 525.056 -1.43537 5.01045 0
M  V30 5700 C 522.384 -1.13685 5.7558 0
M  V30 5701 C 524.736 -0.914081 6.25961 0
M  V30 5702 C 523.4 -0.759327 6.63167 0
M  V30 5703 H 522.67 -0.454322 0.585383 0
M  V30 5704 H 525.317 -0.540261 1.83721 0
M  V30 5705 H 523.622 -3.08122 2.42008 0
M  V30 5706 H 525.319 -2.90164 2.76778 0
M  V30 5707 H 521.909 -1.93344 3.82513 0
M  V30 5708 H 526.093 -1.53292 4.72033 0
M  V30 5709 H 521.349 -1.00426 6.03096 0
M  V30 5710 H 525.523 -0.612066 6.93705 0
M  V30 5711 H 523.15 -0.342002 7.5943 0
M  V30 5712 N 524.725 -1.39134 -0.740242 0
M  V30 5713 C 526.141 -1.20623 -1.0451 0
M  V30 5714 C 526.341 -0.0641651 -2.01398 0
M  V30 5715 O 525.397 0.585843 -2.4561 0
M  V30 5716 C 526.71 -2.53815 -1.6124 0
M  V30 5717 C 528.258 -2.60615 -1.73346 0
M  V30 5718 C 528.733 -3.94015 -2.33486 0
M  V30 5719 N 530.224 -3.95627 -2.40902 0
M  V30 5720 C 530.959 -4.95616 -2.88361 0
M  V30 5721 N 530.455 -6.06003 -3.35756 0
M  V30 5722 N 532.248 -4.82998 -2.87523 0
M  V30 5723 H 524.399 -2.12176 -0.0975576 0
M  V30 5724 H 526.662 -0.942066 -0.105904 0
M  V30 5725 H 526.368 -3.37911 -0.975144 0
M  V30 5726 H 526.242 -2.73162 -2.6012 0
M  V30 5727 H 528.629 -1.76906 -2.36195 0
M  V30 5728 H 528.71 -2.45123 -0.731336 0
M  V30 5729 H 528.354 -4.78153 -1.71267 0
M  V30 5730 H 528.284 -4.06825 -3.34366 0
M  V30 5731 H 530.775 -3.15903 -2.07398 0
M  V30 5732 H 531.088 -6.78215 -3.70464 0
M  V30 5733 H 529.433 -6.09604 -3.33778 0
M  V30 5734 H 532.624 -3.95866 -2.49816 0
M  V30 5735 H 532.797 -5.61072 -3.24196 0
M  V30 5736 N 526.204 0.969867 -1.24223 0
M  V30 5737 C 527.453 1.70687 -1.07466 0
M  V30 5738 C 527.766 1.91736 0.386861 0
M  V30 5739 O 528.972 2.62986 0.674581 0
M  V30 5740 C 527.428 3.07217 -1.87472 0
M  V30 5741 C 527.036 2.94018 -3.3802 0
M  V30 5742 C 528.78 3.84804 -1.79237 0
M  V30 5743 C 526.687 4.25844 -4.10379 0
M  V30 5744 H 525.617 0.640067 -0.398536 0
M  V30 5745 H 528.268 1.08092 -1.48285 0
M  V30 5746 H 526.65 3.70628 -1.39466 0
M  V30 5747 H 527.824 2.39632 -3.9359 0
M  V30 5748 H 526.139 2.29898 -3.47183 0
M  V30 5749 H 528.736 4.82417 -2.30603 0
M  V30 5750 H 529.079 4.09356 -0.757197 0
M  V30 5751 H 529.612 3.28115 -2.24912 0
M  V30 5752 H 526.351 4.06486 -5.14246 0
M  V30 5753 H 525.871 4.80054 -3.59594 0
M  V30 5754 H 527.55 4.94475 -4.17257 0
M  V30 5755 N 527.682 1.05563 1.17022 0
M  V30 5756 C 528.592 0.670758 2.24807 0
M  V30 5757 C 529.608 -0.309865 1.71219 0
M  V30 5758 O 530.784 -0.161025 2.00755 0
M  V30 5759 C 527.849 0.055337 3.46656 0
M  V30 5760 C 526.91 1.08688 4.15314 0
M  V30 5761 C 526.143 0.500736 5.31346 0
M  V30 5762 O 526.366 -0.688718 5.66227 0
M  V30 5763 O 525.3 1.23683 5.89055 0
M  V30 5764 H 529.126 1.56914 2.60023 0
M  V30 5765 H 526.711 0.827428 1.24395 0
M  V30 5766 H 528.593 -0.286492 4.20425 0
M  V30 5767 H 527.268 -0.816638 3.13229 0
M  V30 5768 H 526.175 1.48077 3.43546 0
M  V30 5769 H 527.508 1.93014 4.52777 0
M  V30 5770 N 529.16 -1.33526 0.837174 0
M  V30 5771 C 530.437 -1.92369 0.354065 0
M  V30 5772 C 530.817 -1.76348 -1.16038 0
M  V30 5773 O 530.165 -1.15083 -1.97403 0
M  V30 5774 C 530.375 -3.39728 0.799101 0
M  V30 5775 C 531.723 -4.16877 0.806139 0
M  V30 5776 O 532.747 -3.48373 0.742597 0
M  V30 5777 O 531.606 -5.39166 0.892345 0
M  V30 5778 H 528.7 -0.820952 0.0998378 0
M  V30 5779 H 531.246 -1.42409 0.922913 0
M  V30 5780 H 530.018 -3.45254 1.84162 0
M  V30 5781 H 529.641 -3.97062 0.206731 0
M  V30 5782 N 530.638 -0.59345 -1.46 0
M  V30 5783 C 531.886 -0.082988 -2.0193 0
M  V30 5784 C 532.207 1.28569 -1.46612 0
M  V30 5785 O 531.477 1.84629 -0.654909 0
M  V30 5786 H 530.057 -0.0276882 -0.746487 0
M  V30 5787 H 532.719 -0.771657 -1.78973 0
M  V30 5788 H 531.815 -0.022079 -3.12092 0
M  V30 5789 N 532.116 1.54067 -0.331816 0
M  V30 5790 C 533.363 2.00715 0.268269 0
M  V30 5791 C 533.691 1.21986 1.51491 0
M  V30 5792 O 532.946 0.292309 1.93505 0
M  V30 5793 C 533.245 3.51634 0.639392 0
M  V30 5794 C 532.911 4.48018 -0.509019 0
M  V30 5795 C 531.573 4.74089 -0.824209 0
M  V30 5796 C 533.925 5.05237 -1.28003 0
M  V30 5797 C 531.253 5.54637 -1.91298 0
M  V30 5798 C 533.605 5.86972 -2.35895 0
M  V30 5799 C 532.269 6.11342 -2.67987 0
M  V30 5800 H 531.539 0.734469 0.0981667 0
M  V30 5801 H 534.186 1.8596 -0.457304 0
M  V30 5802 H 532.491 3.6416 1.44551 0
M  V30 5803 H 534.188 3.85175 1.11539 0
M  V30 5804 H 530.778 4.27851 -0.253287 0
M  V30 5805 H 534.962 4.8507 -1.04978 0
M  V30 5806 H 530.218 5.71747 -2.16599 0
M  V30 5807 H 534.392 6.30327 -2.96076 0
M  V30 5808 H 532.019 6.73544 -3.5248 0
M  V30 5809 N 533.594 0.0601682 1.57485 0
M  V30 5810 C 534.819 -0.624416 1.97777 0
M  V30 5811 C 535.244 -1.63051 0.937867 0
M  V30 5812 O 534.602 -1.81036 -0.0978845 0
M  V30 5813 C 534.65 -1.27979 3.37126 0
M  V30 5814 O 533.754 -2.39556 3.35688 0
M  V30 5815 H 533.095 -0.161581 0.64404 0
M  V30 5816 H 535.625 0.131237 2.04179 0
M  V30 5817 H 535.635 -1.62937 3.74053 0
M  V30 5818 H 534.31 -0.542501 4.12347 0
M  V30 5819 H 532.887 -2.06478 3.10517 0
M  V30 5820 N 535.072 -1.5615 -0.213296 0
M  V30 5821 C 536.002 -1.96109 -1.26742 0
M  V30 5822 C 536.983 -0.830448 -1.48451 0
M  V30 5823 O 538.168 -1.09339 -1.60495 0
M  V30 5824 C 535.298 -2.28492 -2.61551 0
M  V30 5825 C 534.252 -3.44124 -2.54485 0
M  V30 5826 C 533.578 -3.62134 -3.93399 0
M  V30 5827 C 534.878 -4.78855 -2.08556 0
M  V30 5828 H 536.572 -2.84412 -0.935434 0
M  V30 5829 H 534.118 -1.36836 -0.44854 0
M  V30 5830 H 536.071 -2.55039 -3.3546 0
M  V30 5831 H 534.795 -1.37052 -2.96453 0
M  V30 5832 H 533.454 -3.17639 -1.83033 0
M  V30 5833 H 533.102 -2.68055 -4.25623 0
M  V30 5834 H 532.802 -4.39913 -3.89551 0
M  V30 5835 H 534.326 -3.91038 -4.68958 0
M  V30 5836 H 535.74 -5.04552 -2.72213 0
M  V30 5837 H 534.137 -5.59975 -2.1575 0
M  V30 5838 H 535.207 -4.73657 -1.03811 0
M  V30 5839 N 536.55 0.480323 -1.50102 0
M  V30 5840 C 537.497 1.57946 -1.6829 0
M  V30 5841 C 538.467 1.57611 -0.524223 0
M  V30 5842 O 539.652 1.75282 -0.753709 0
M  V30 5843 C 536.792 2.95978 -1.77457 0
M  V30 5844 C 535.905 3.06173 -3.04766 0
M  V30 5845 C 535.04 4.35063 -3.04784 0
M  V30 5846 C 534.079 4.38966 -4.26586 0
M  V30 5847 N 533.216 5.59314 -4.24396 0
M  V30 5848 H 538.056 1.41743 -2.62131 0
M  V30 5849 H 535.593 0.689304 -1.2995 0
M  V30 5850 H 537.551 3.76011 -1.80752 0
M  V30 5851 H 536.181 3.10837 -0.870637 0
M  V30 5852 H 535.233 2.19071 -3.10986 0
M  V30 5853 H 536.545 3.04916 -3.9475 0
M  V30 5854 H 535.699 5.23436 -3.06757 0
M  V30 5855 H 534.438 4.38915 -2.12614 0
M  V30 5856 H 533.443 3.48992 -4.24835 0
M  V30 5857 H 534.668 4.36813 -5.19972 0
M  V30 5858 H 532.614 5.63969 -3.35074 0
M  V30 5859 H 532.531 5.5976 -5.08138 0
M  V30 5860 H 533.799 6.49837 -4.30502 0
M  V30 5861 N 538.028 1.39524 0.732853 0
M  V30 5862 C 538.938 1.40695 1.87729 0
M  V30 5863 C 539.954 0.301496 1.71368 0
M  V30 5864 O 541.13 0.543313 1.93933 0
M  V30 5865 C 538.195 1.25098 3.23344 0
M  V30 5866 C 537.256 2.45634 3.52083 0
M  V30 5867 C 536.489 2.30772 4.81228 0
M  V30 5868 O 536.712 1.31233 5.55098 0
M  V30 5869 O 535.646 3.19799 5.09914 0
M  V30 5870 H 539.472 2.37168 1.89697 0
M  V30 5871 H 537.057 1.20663 0.880959 0
M  V30 5872 H 538.939 1.18541 4.04383 0
M  V30 5873 H 537.614 0.317209 3.22142 0
M  V30 5874 H 536.521 2.57767 2.71122 0
M  V30 5875 H 537.854 3.37712 3.58066 0
M  V30 5876 N 539.506 -0.963266 1.24736 0
M  V30 5877 C 540.438 -2.06162 1.0015 0
M  V30 5878 C 541.451 -1.62771 -0.0305905 0
M  V30 5879 O 542.64 -1.77296 0.206966 0
M  V30 5880 C 539.74 -3.35333 0.490385 0
M  V30 5881 C 538.913 -4.07609 1.58663 0
M  V30 5882 C 537.972 -5.15052 1.0774 0
M  V30 5883 O 536.998 -5.4098 1.77002 0
M  V30 5884 N 538.2 -5.80436 -0.0858605 0
M  V30 5885 H 540.965 -2.27825 1.94719 0
M  V30 5886 H 538.526 -1.13121 1.15825 0
M  V30 5887 H 540.518 -4.04477 0.134371 0
M  V30 5888 H 539.088 -3.10507 -0.361155 0
M  V30 5889 H 538.308 -3.32681 2.11463 0
M  V30 5890 H 539.596 -4.52656 2.32336 0
M  V30 5891 H 538.994 -5.6178 -0.664806 0
M  V30 5892 H 537.551 -6.50674 -0.382981 0
M  V30 5893 N 540.985 -1.06182 -1.16461 0
M  V30 5894 C 541.915 -0.692861 -2.22984 0
M  V30 5895 C 542.896 0.314122 -1.67174 0
M  V30 5896 O 544.081 0.189499 -1.93273 0
M  V30 5897 C 541.211 -0.07732 -3.47214 0
M  V30 5898 C 540.165 -1.01015 -4.15909 0
M  V30 5899 C 539.491 -0.257973 -5.34077 0
M  V30 5900 C 540.791 -2.33868 -4.67015 0
M  V30 5901 H 542.485 -1.58343 -2.54102 0
M  V30 5902 H 540.031 -0.76279 -1.22137 0
M  V30 5903 H 541.984 0.19266 -4.20959 0
M  V30 5904 H 540.708 0.848254 -3.15392 0
M  V30 5905 H 539.367 -1.26486 -3.44088 0
M  V30 5906 H 539.015 0.670684 -4.98509 0
M  V30 5907 H 538.715 -0.879638 -5.80979 0
M  V30 5908 H 540.239 0.00448788 -6.106 0
M  V30 5909 H 541.653 -2.1279 -5.32347 0
M  V30 5910 H 540.05 -2.91522 -5.24533 0
M  V30 5911 H 541.12 -2.97019 -3.83286 0
M  V30 5912 N 542.463 1.3308 -0.844243 0
M  V30 5913 C 543.395 2.27954 -0.238671 0
M  V30 5914 C 544.408 1.51978 0.583665 0
M  V30 5915 O 545.597 1.73731 0.409857 0
M  V30 5916 C 542.697 3.31963 0.682185 0
M  V30 5917 C 541.87 4.37281 -0.101998 0
M  V30 5918 C 540.929 5.20928 0.743022 0
M  V30 5919 O 539.955 5.68914 0.180285 0
M  V30 5920 N 541.157 5.42738 2.0595 0
M  V30 5921 H 543.922 2.8056 -1.05386 0
M  V30 5922 H 541.483 1.4583 -0.70322 0
M  V30 5923 H 543.475 3.84828 1.25259 0
M  V30 5924 H 542.045 2.79594 1.39808 0
M  V30 5925 H 541.265 3.84843 -0.853802 0
M  V30 5926 H 542.553 5.04746 -0.641015 0
M  V30 5927 H 541.951 5.05463 2.54016 0
M  V30 5928 H 540.508 5.98639 2.57827 0
M  V30 5929 N 543.941 0.601185 1.45683 0
M  V30 5930 C 545.218 0.0261659 1.95582 0
M  V30 5931 C 545.598 -1.4399 1.5437 0
M  V30 5932 O 544.946 -2.13919 0.80318 0
M  V30 5933 C 545.156 0.217557 3.48321 0
M  V30 5934 C 546.504 0.0950076 4.24494 0
M  V30 5935 O 547.528 0.147345 3.55895 0
M  V30 5936 O 546.387 -0.025261 5.46494 0
M  V30 5937 H 543.481 -0.0393688 0.826062 0
M  V30 5938 H 546.027 0.670798 1.55879 0
M  V30 5939 H 544.799 1.23601 3.71266 0
M  V30 5940 H 544.422 -0.46264 3.94899 0
M  V30 5941 N 545.419 -1.53889 0.339982 0
M  V30 5942 C 546.352 -2.21187 -0.561405 0
M  V30 5943 C 547.33 -1.19463 -1.10306 0
M  V30 5944 O 548.514 -1.48268 -1.164 0
M  V30 5945 C 545.641 -2.8865 -1.77198 0
M  V30 5946 C 544.687 -4.04232 -1.3601 0
M  V30 5947 S 545.52 -5.34129 -0.382909 0
M  V30 5948 C 546.676 -6.05094 -1.60039 0
M  V30 5949 H 546.909 -2.97298 0.0102092 0
M  V30 5950 H 544.442 -1.53901 0.124056 0
M  V30 5951 H 546.4 -3.28138 -2.4665 0
M  V30 5952 H 545.061 -2.12311 -2.3148 0
M  V30 5953 H 544.254 -4.50358 -2.2626 0
M  V30 5954 H 543.856 -3.66503 -0.745098 0
M  V30 5955 H 546.148 -6.2827 -2.53541 0
M  V30 5956 H 547.091 -6.98182 -1.18099 0
M  V30 5957 H 547.499 -5.35207 -1.79483 0
M  V30 5958 N 546.897 -0.0685191 -1.57451 0
M  V30 5959 C 548.145 0.60016 -1.92983 0
M  V30 5960 C 548.466 1.70348 -0.949028 0
M  V30 5961 O 547.736 1.959 0.00335647 0
M  V30 5962 H 546.316 0.224682 -0.712409 0
M  V30 5963 H 548.978 -0.125605 -1.94495 0
M  V30 5964 H 548.074 1.02759 -2.94698 0
M  V30 5965 N 548.375 1.56261 0.205012 0
M  V30 5966 C 549.305 1.96779 1.257 0
M  V30 5967 C 550.286 0.838309 1.48008 0
M  V30 5968 O 551.471 1.10189 1.59913 0
M  V30 5969 C 548.601 2.29876 2.60335 0
M  V30 5970 C 547.555 3.45469 2.52656 0
M  V30 5971 C 546.881 3.64215 3.91473 0
M  V30 5972 C 548.181 4.79954 2.06014 0
M  V30 5973 H 549.875 2.84904 0.920338 0
M  V30 5974 H 547.421 1.37072 0.441277 0
M  V30 5975 H 549.374 2.56814 3.34102 0
M  V30 5976 H 548.098 1.38622 2.95722 0
M  V30 5977 H 546.757 3.18605 1.81345 0
M  V30 5978 H 546.405 2.70309 4.24196 0
M  V30 5979 H 546.105 4.41973 3.87213 0
M  V30 5980 H 547.629 3.93519 4.66878 0
M  V30 5981 H 549.043 5.05989 2.69533 0
M  V30 5982 H 547.44 5.61111 2.12777 0
M  V30 5983 H 548.51 4.74201 1.01297 0
M  V30 5984 N 549.853 -0.472356 1.50355 0
M  V30 5985 C 551.099 -1.22634 1.6152 0
M  V30 5986 C 551.432 -1.91645 0.313995 0
M  V30 5987 O 550.707 -1.82059 -0.684446 0
M  V30 5988 C 550.99 -2.27099 2.7946 0
M  V30 5989 C 550.843 -1.62402 4.19459 0
M  V30 5990 C 552.162 -3.28421 2.92964 0
M  V30 5991 H 549.281 -0.444494 0.587873 0
M  V30 5992 H 551.923 -0.520321 1.82737 0
M  V30 5993 H 550.073 -2.87314 2.61501 0
M  V30 5994 H 551.745 -1.05793 4.49005 0
M  V30 5995 H 549.988 -0.927184 4.23776 0
M  V30 5996 H 550.659 -2.38309 4.97909 0
M  V30 5997 H 553.135 -2.78227 3.09401 0
M  V30 5998 H 552.011 -3.98845 3.77113 0
M  V30 5999 H 552.272 -3.92467 2.03525 0
M  V30 6000 N 551.331 -1.39911 -0.725443 0
M  V30 6001 C 552.608 -1.28158 -1.47766 0
M  V30 6002 C 552.988 0.104545 -2.10841 0
M  V30 6003 O 552.336 1.11657 -1.99361 0
M  V30 6004 C 552.546 -2.41306 -2.52135 0
M  V30 6005 C 553.894 -2.81076 -3.18247 0
M  V30 6006 O 554.918 -2.40827 -2.62452 0
M  V30 6007 O 553.777 -3.50581 -4.19231 0
M  V30 6008 H 550.871 -0.502761 -0.656628 0
M  V30 6009 H 553.417 -1.51808 -0.758456 0
M  V30 6010 H 552.189 -3.33932 -2.03974 0
M  V30 6011 H 551.812 -2.19374 -3.31603 0
M  V30 6012 N 552.809 0.956637 -1.25245 0
M  V30 6013 C 553.739 2.07058 -1.07931 0
M  V30 6014 C 554.72 1.70096 0.0110361 0
M  V30 6015 O 555.905 1.93555 -0.158121 0
M  V30 6016 C 553.035 3.40272 -0.695124 0
M  V30 6017 C 551.989 3.91235 -1.73549 0
M  V30 6018 C 551.315 5.20921 -1.20604 0
M  V30 6019 C 552.615 4.17837 -3.13385 0
M  V30 6020 H 554.309 2.218 -2.01109 0
M  V30 6021 H 551.855 1.06581 -0.968326 0
M  V30 6022 H 553.808 4.1765 -0.560949 0
M  V30 6023 H 552.532 3.25462 0.272355 0
M  V30 6024 H 551.191 3.16025 -1.85807 0
M  V30 6025 H 550.839 5.02479 -0.228846 0
M  V30 6026 H 550.539 5.55987 -1.90136 0
M  V30 6027 H 552.063 6.00897 -1.08421 0
M  V30 6028 H 553.477 4.8588 -3.04292 0
M  V30 6029 H 551.874 4.64154 -3.80369 0
M  V30 6030 H 552.944 3.2419 -3.60595 0
M  V30 6031 N 554.287 1.06798 1.15896 0
M  V30 6032 C 555.534 0.787767 1.86549 0
M  V30 6033 C 555.862 -0.685959 1.82002 0
M  V30 6034 O 555.117 -1.5188 1.23414 0
M  V30 6035 C 555.416 1.23414 3.35416 0
M  V30 6036 C 555.082 2.71285 3.6016 0
M  V30 6037 C 553.744 3.11676 3.66622 0
M  V30 6038 C 556.096 3.6676 3.7032 0
M  V30 6039 C 553.424 4.4637 3.8075 0
M  V30 6040 C 555.776 5.01209 3.8597 0
M  V30 6041 C 554.44 5.41229 3.90676 0
M  V30 6042 H 553.71 0.288264 0.682631 0
M  V30 6043 H 556.357 1.338 1.37003 0
M  V30 6044 H 554.662 0.60319 3.87129 0
M  V30 6045 H 556.359 0.994298 3.88477 0
M  V30 6046 H 552.949 2.39015 3.55767 0
M  V30 6047 H 557.133 3.36685 3.64633 0
M  V30 6048 H 552.389 4.76855 3.82648 0
M  V30 6049 H 556.563 5.75067 3.92773 0
M  V30 6050 H 554.19 6.45602 4.01375 0
M  V30 6051 N 555.766 -1.3263 0.851289 0
M  V30 6052 C 556.991 -2.02097 0.466006 0
M  V30 6053 C 557.416 -1.63574 -0.928709 0
M  V30 6054 O 556.774 -0.834665 -1.60944 0
M  V30 6055 C 556.822 -3.55425 0.608737 0
M  V30 6056 O 555.926 -4.10827 -0.359878 0
M  V30 6057 H 555.267 -0.636911 0.187724 0
M  V30 6058 H 557.797 -1.69253 1.14955 0
M  V30 6059 H 557.807 -4.04986 0.495006 0
M  V30 6060 H 556.482 -3.82806 1.62581 0
M  V30 6061 H 555.059 -3.72349 -0.202666 0
M  V30 6062 N 557.244 -0.608902 -1.45362 0
M  V30 6063 C 558.655 -0.189511 -1.85736 0
M  V30 6064 C 559.006 1.2539 -1.50903 0
M  V30 6065 O 558.131 1.95094 -0.936347 0
M  V30 6066 C 558.726 -0.33716 -3.37118 0
M  V30 6067 C 557.285 0.0275487 -3.7639 0
M  V30 6068 C 556.432 -0.660983 -2.69307 0
M  V30 6069 H 559.383 -0.815499 -1.36144 0
M  V30 6070 H 559.404 0.430257 -3.7806 0
M  V30 6071 H 558.916 -1.38779 -3.62439 0
M  V30 6072 H 557.017 1.0773 -3.56686 0
M  V30 6073 H 557.13 -0.367018 -4.77692 0
M  V30 6074 H 555.494 -0.0984958 -2.54509 0
M  V30 6075 H 556.277 -1.71377 -2.97464 0
M  V30 6076 N 558.722 1.53707 -0.348139 0
M  V30 6077 C 559.632 2.28881 0.514857 0
M  V30 6078 C 560.648 1.34168 1.10793 0
M  V30 6079 O 561.824 1.6721 1.12262 0
M  V30 6080 C 558.889 3.05042 1.64774 0
M  V30 6081 C 557.95 4.15389 1.08398 0
M  V30 6082 C 557.183 4.87909 2.16287 0
M  V30 6083 O 557.406 4.60137 3.3709 0
M  V30 6084 O 556.34 5.74254 1.80323 0
M  V30 6085 H 560.166 3.03547 -0.0963699 0
M  V30 6086 H 557.751 1.48972 -0.113043 0
M  V30 6087 H 559.633 3.52656 2.30677 0
M  V30 6088 H 558.308 2.33228 2.24469 0
M  V30 6089 H 557.215 3.72068 0.389341 0
M  V30 6090 H 558.548 4.89318 0.531829 0
M  V30 6091 N 560.2 0.0768682 1.57412 0
M  V30 6092 C 561.147 -0.888577 2.13009 0
M  V30 6093 C 562.117 -1.29198 1.0439 0
M  V30 6094 O 563.302 -1.37694 1.3208 0
M  V30 6095 C 560.442 -2.14899 2.70023 0
M  V30 6096 C 559.555 -1.79777 3.92816 0
M  V30 6097 C 558.69 -3.00467 4.38056 0
M  V30 6098 C 557.729 -2.61385 5.53484 0
M  V30 6099 N 556.866 -3.74851 5.93659 0
M  V30 6100 H 561.706 -0.407593 2.95199 0
M  V30 6101 H 559.243 -0.189534 1.45874 0
M  V30 6102 H 561.201 -2.88688 3.0119 0
M  V30 6103 H 559.831 -2.60529 1.9059 0
M  V30 6104 H 558.883 -0.960301 3.68079 0
M  V30 6105 H 560.195 -1.47027 4.76639 0
M  V30 6106 H 559.349 -3.82529 4.7091 0
M  V30 6107 H 558.088 -3.36413 3.53097 0
M  V30 6108 H 557.093 -1.77746 5.20275 0
M  V30 6109 H 558.318 -2.26603 6.40178 0
M  V30 6110 H 556.264 -4.1055 5.11649 0
M  V30 6111 H 556.181 -3.45887 6.72234 0
M  V30 6112 H 557.449 -4.57477 6.31138 0
M  V30 6113 N 561.678 -1.56367 -0.196722 0
M  V30 6114 C 562.903 -1.84991 -0.937714 0
M  V30 6115 C 563.328 -0.660244 -1.76132 0
M  V30 6116 O 562.686 0.390967 -1.77034 0
M  V30 6117 C 562.734 -3.11828 -1.81096 0
M  V30 6118 O 561.838 -2.92266 -2.90955 0
M  V30 6119 H 561.179 -0.609193 -0.264159 0
M  V30 6120 H 563.709 -2.03595 -0.202529 0
M  V30 6121 H 563.719 -3.42579 -2.21594 0
M  V30 6122 H 562.394 -3.98037 -1.2058 0
M  V30 6123 H 560.971 -2.72809 -2.54224 0
M  V30 6124 N 563.156 0.464375 -1.50603 0
M  V30 6125 C 564.103 1.56152 -1.69956 0
M  V30 6126 C 565.073 1.57046 -0.54091 0
M  V30 6127 O 566.258 1.74473 -0.772258 0
M  V30 6128 C 563.398 2.94079 -1.80586 0
M  V30 6129 C 562.511 3.02923 -3.07996 0
M  V30 6130 C 561.646 4.31806 -3.09382 0
M  V30 6131 C 560.685 4.34417 -4.31218 0
M  V30 6132 N 559.822 5.54782 -4.30304 0
M  V30 6133 H 564.662 1.38955 -2.6362 0
M  V30 6134 H 562.199 0.675482 -1.30674 0
M  V30 6135 H 564.157 3.74073 -1.8473 0
M  V30 6136 H 562.787 3.09896 -0.903556 0
M  V30 6137 H 561.839 2.1576 -3.13292 0
M  V30 6138 H 563.151 3.00712 -3.97962 0
M  V30 6139 H 562.305 5.20153 -3.12292 0
M  V30 6140 H 561.044 4.36636 -2.17257 0
M  V30 6141 H 560.049 3.44467 -4.28512 0
M  V30 6142 H 561.274 4.31273 -5.24576 0
M  V30 6143 H 559.22 5.60384 -3.41037 0
M  V30 6144 H 559.137 5.54339 -5.14047 0
M  V30 6145 H 560.405 6.45235 -4.3737 0
M  V30 6146 N 564.634 1.40294 0.718013 0
M  V30 6147 C 565.564 1.43118 1.84498 0
M  V30 6148 C 566.545 0.292403 1.67568 0
M  V30 6149 O 567.73 0.500675 1.87635 0
M  V30 6150 C 564.86 1.29065 3.22427 0
M  V30 6151 C 563.814 2.40521 3.54025 0
M  V30 6152 C 563.14 2.11546 4.91073 0
M  V30 6153 C 564.44 3.82859 3.55269 0
M  V30 6154 H 566.134 2.37432 1.82391 0
M  V30 6155 H 563.68 1.14283 0.87609 0
M  V30 6156 H 565.633 1.29658 4.00957 0
M  V30 6157 H 564.357 0.312271 3.25104 0
M  V30 6158 H 563.016 2.39173 2.77834 0
M  V30 6159 H 562.664 1.12104 4.90348 0
M  V30 6160 H 562.364 2.86216 5.1318 0
M  V30 6161 H 563.888 2.13817 5.71939 0
M  V30 6162 H 565.302 3.86044 4.23843 0
M  V30 6163 H 563.699 4.57029 3.88902 0
M  V30 6164 H 564.769 4.12617 2.54706 0
M  V30 6165 N 566.112 -0.949982 1.2575 0
M  V30 6166 C 567.523 -1.50989 1.09815 0
M  V30 6167 C 567.874 -1.93497 -0.324556 0
M  V30 6168 O 566.999 -1.79068 -1.21506 0
M  V30 6169 C 567.594 -2.74394 1.98729 0
M  V30 6170 C 566.153 -3.26682 1.86965 0
M  V30 6171 C 565.3 -1.99498 1.92603 0
M  V30 6172 H 568.251 -0.766387 1.38968 0
M  V30 6173 H 568.272 -3.48383 1.53001 0
M  V30 6174 H 567.784 -2.43425 3.02268 0
M  V30 6175 H 565.885 -3.62461 0.863279 0
M  V30 6176 H 565.998 -3.94383 2.72027 0
M  V30 6177 H 564.362 -2.15005 1.36546 0
M  V30 6178 H 565.145 -1.70871 2.97755 0
M  V30 6179 N 567.59 -1.07411 -1.15328 0
M  V30 6180 C 568.838 -0.796073 -1.85761 0
M  V30 6181 C 569.159 0.679864 -1.82764 0
M  V30 6182 O 568.429 1.49242 -1.269 0
M  V30 6183 H 567.009 -0.291495 -0.687779 0
M  V30 6184 H 569.671 -1.35799 -1.39802 0
M  V30 6185 H 568.767 -1.13114 -2.90881 0
M  V30 6186 N 569.068 1.32177 -0.85831 0
M  V30 6187 C 570.317 1.96392 -0.459689 0
M  V30 6188 C 570.63 1.68659 0.990632 0
M  V30 6189 O 571.836 2.26641 1.49485 0
M  V30 6190 C 570.292 3.51542 -0.7711 0
M  V30 6191 C 569.9 3.8813 -2.2374 0
M  V30 6192 C 571.644 4.2221 -0.44038 0
M  V30 6193 C 569.551 5.36341 -2.49183 0
M  V30 6194 H 568.481 0.735007 -0.168169 0
M  V30 6195 H 571.132 1.50518 -1.0496 0
M  V30 6196 H 569.514 3.95846 -0.11058 0
M  V30 6197 H 570.688 3.54824 -2.94001 0
M  V30 6198 H 569.003 3.30497 -2.533 0
M  V30 6199 H 571.6 5.31234 -0.607855 0
M  V30 6200 H 571.943 4.11683 0.618291 0
M  V30 6201 H 572.476 3.83502 -1.05695 0
M  V30 6202 H 569.215 5.51892 -3.53689 0
M  V30 6203 H 568.735 5.7104 -1.83504 0
M  V30 6204 H 570.414 6.03466 -2.33318 0
M  V30 6205 N 570.547 0.616602 1.45037 0
M  V30 6206 C 571.793 0.115501 2.02471 0
M  V30 6207 C 572.126 -1.25406 1.4828 0
M  V30 6208 O 571.401 -1.82922 0.661051 0
M  V30 6209 C 571.684 0.0863588 3.59996 0
M  V30 6210 C 571.537 1.48723 4.24501 0
M  V30 6211 C 572.856 -0.596762 4.36035 0
M  V30 6212 H 569.975 0.0434461 0.735718 0
M  V30 6213 H 572.617 0.7903 1.72784 0
M  V30 6214 H 570.767 -0.488277 3.85419 0
M  V30 6215 H 572.439 2.10964 4.10234 0
M  V30 6216 H 570.682 2.04534 3.82555 0
M  V30 6217 H 571.353 1.419 5.3345 0
M  V30 6218 H 573.829 -0.10824 4.15959 0
M  V30 6219 H 572.705 -0.586289 5.4576 0
M  V30 6220 H 572.966 -1.66451 4.09569 0
M  V30 6221 N 572.025 -1.5352 0.356285 0
M  V30 6222 C 572.988 -2.24071 -0.482182 0
M  V30 6223 C 573.988 -1.24531 -1.01729 0
M  V30 6224 O 575.178 -1.48876 -0.904513 0
M  V30 6225 C 572.31 -2.97025 -1.67299 0
M  V30 6226 H 573.503 -2.99596 0.135031 0
M  V30 6227 H 571.056 -1.55928 0.107825 0
M  V30 6228 H 571.791 -2.25719 -2.32855 0
M  V30 6229 H 571.576 -3.7005 -1.29636 0
M  V30 6230 H 573.066 -3.50683 -2.26741 0
M  V30 6231 N 573.503 -0.0852151 -1.57369 0
M  V30 6232 C 574.413 0.891712 -2.16992 0
M  V30 6233 C 575.429 1.3174 -1.13669 0
M  V30 6234 O 576.605 1.38735 -1.45995 0
M  V30 6235 C 573.67 2.13635 -2.73059 0
M  V30 6236 C 572.731 1.7658 -3.91303 0
M  V30 6237 C 571.964 2.95111 -4.44686 0
M  V30 6238 O 572.187 4.09539 -3.97032 0
M  V30 6239 O 571.121 2.74149 -5.35841 0
M  V30 6240 H 574.947 0.414477 -3.00858 0
M  V30 6241 H 572.532 0.138598 -1.48756 0
M  V30 6242 H 574.414 2.86595 -3.08935 0
M  V30 6243 H 573.089 2.6043 -1.92244 0
M  V30 6244 H 571.996 1.00831 -3.60255 0
M  V30 6245 H 573.329 1.34557 -4.7345 0
M  V30 6246 N 574.981 1.5647 0.188427 0
M  V30 6247 C 576.229 1.80655 0.905986 0
M  V30 6248 C 576.55 0.659391 1.83513 0
M  V30 6249 O 575.82 -0.321868 1.93238 0
M  V30 6250 H 574.4 0.666391 0.337538 0
M  V30 6251 H 577.062 1.93949 0.192339 0
M  V30 6252 H 576.158 2.74066 1.49313 0
M  V30 6253 N 576.459 -0.456382 1.50847 0
M  V30 6254 C 577.875 -0.791345 1.386 0
M  V30 6255 C 578.075 -1.9633 0.453498 0
M  V30 6256 O 577.131 -2.52308 -0.0984353 0
M  V30 6257 C 578.444 -1.08959 2.80265 0
M  V30 6258 C 579.992 -1.19517 2.89283 0
M  V30 6259 C 580.467 -1.52647 4.31814 0
M  V30 6260 N 581.958 -1.59609 4.34832 0
M  V30 6261 C 582.693 -1.86777 5.42127 0
M  V30 6262 N 582.189 -2.11866 6.59609 0
M  V30 6263 N 583.982 -1.88402 5.29586 0
M  V30 6264 H 576.133 0.315746 2.1004 0
M  V30 6265 H 578.396 0.0787916 0.94472 0
M  V30 6266 H 578.102 -0.301355 3.50407 0
M  V30 6267 H 577.976 -2.02211 3.18419 0
M  V30 6268 H 580.363 -1.97406 2.19351 0
M  V30 6269 H 580.444 -0.242111 2.54652 0
M  V30 6270 H 580.088 -0.752922 5.02288 0
M  V30 6271 H 580.018 -2.49127 4.63943 0
M  V30 6272 H 582.509 -1.42201 3.50125 0
M  V30 6273 H 582.822 -2.31912 7.37182 0
M  V30 6274 H 581.167 -2.09228 6.62758 0
M  V30 6275 H 584.358 -1.68307 4.36795 0
M  V30 6276 H 584.531 -2.09238 6.13289 0
M  V30 6277 N 577.937 -1.40673 -0.710563 0
M  V30 6278 C 579.214 -1.29718 -1.46398 0
M  V30 6279 C 579.594 0.082177 -2.1094 0
M  V30 6280 O 578.942 1.09536 -2.00534 0
M  V30 6281 C 579.152 -2.43967 -2.49562 0
M  V30 6282 C 580.5 -2.84436 -3.15248 0
M  V30 6283 O 581.524 -2.43597 -2.59883 0
M  V30 6284 O 580.383 -3.55008 -4.1549 0
M  V30 6285 H 577.477 -0.509697 -0.651258 0
M  V30 6286 H 580.023 -1.52603 -0.742312 0
M  V30 6287 H 578.795 -3.36076 -2.0042 0
M  V30 6288 H 578.418 -2.22879 -3.29258 0
M  V30 6289 N 579.415 0.9433 -1.26252 0
M  V30 6290 C 580.692 1.66639 -1.02424 0
M  V30 6291 C 581.072 2.06335 0.446006 0
M  V30 6292 O 580.42 1.78551 1.42589 0
M  V30 6293 C 580.63 2.88019 -1.97094 0
M  V30 6294 C 581.978 3.59718 -2.25584 0
M  V30 6295 O 583.002 2.9812 -1.94943 0
M  V30 6296 O 581.861 4.7066 -2.77743 0
M  V30 6297 H 578.955 0.729643 -0.389294 0
M  V30 6298 H 581.501 0.995218 -1.37454 0
M  V30 6299 H 580.273 2.5556 -2.96319 0
M  V30 6300 H 579.896 3.62863 -1.62532 0
M  V30 6301 N 580.893 1.08022 1.14757 0
M  V30 6302 C 581.823 0.728248 2.21853 0
M  V30 6303 C 582.804 -0.287486 1.67653 0
M  V30 6304 O 583.989 -0.158727 1.9355 0
M  V30 6305 C 581.119 0.132549 3.47047 0
M  V30 6306 C 580.073 1.07619 4.14249 0
M  V30 6307 C 579.399 0.342907 5.33599 0
M  V30 6308 C 580.699 2.41268 4.63235 0
M  V30 6309 H 582.393 1.62365 2.51551 0
M  V30 6310 H 579.939 0.782125 1.20908 0
M  V30 6311 H 581.892 -0.125665 4.21213 0
M  V30 6312 H 580.616 -0.797971 3.16702 0
M  V30 6313 H 579.275 1.31944 3.42033 0
M  V30 6314 H 578.923 -0.59129 4.99513 0
M  V30 6315 H 578.623 0.971955 5.79506 0
M  V30 6316 H 580.147 0.0926538 6.1053 0
M  V30 6317 H 581.561 2.21232 5.28894 0
M  V30 6318 H 579.958 2.9983 5.19829 0
M  V30 6319 H 581.028 3.03079 3.78512 0
M  V30 6320 N 582.371 -1.3172 0.865308 0
M  V30 6321 C 583.601 -2.00765 0.487543 0
M  V30 6322 C 584.009 -1.65145 -0.92325 0
M  V30 6323 O 583.352 -0.874294 -1.61561 0
M  V30 6324 C 583.414 -3.55122 0.559369 0
M  V30 6325 C 583.078 -4.14202 1.93095 0
M  V30 6326 C 584.075 -4.3165 2.89784 0
M  V30 6327 C 581.76 -4.50036 2.23099 0
M  V30 6328 C 583.754 -4.84114 4.14623 0
M  V30 6329 C 581.441 -5.02203 3.48189 0
M  V30 6330 C 582.439 -5.19192 4.43767 0
M  V30 6331 O 582.127 -5.70241 5.6664 0
M  V30 6332 H 581.859 -0.649066 0.188915 0
M  V30 6333 H 584.413 -1.69032 1.16694 0
M  V30 6334 H 582.643 -3.86295 -0.176926 0
M  V30 6335 H 584.332 -4.05428 0.195694 0
M  V30 6336 H 585.098 -4.04288 2.6791 0
M  V30 6337 H 580.977 -4.36091 1.49485 0
M  V30 6338 H 584.521 -4.9729 4.89233 0
M  V30 6339 H 580.418 -5.28997 3.69908 0
M  V30 6340 H 581.186 -5.88617 5.68746 0
M  V30 6341 N 583.85 -0.624285 -1.44708 0
M  V30 6342 C 585.096 -0.126237 -2.02407 0
M  V30 6343 C 585.428 1.24618 -1.48943 0
M  V30 6344 O 584.704 1.82569 -0.670742 0
M  V30 6345 C 584.986 -0.105449 -3.59946 0
M  V30 6346 C 584.84 -1.50972 -4.23707 0
M  V30 6347 C 586.159 0.573629 -4.36346 0
M  V30 6348 H 583.278 -0.0473472 -0.735478 0
M  V30 6349 H 585.92 -0.799452 -1.72362 0
M  V30 6350 H 584.07 0.46783 -3.85673 0
M  V30 6351 H 585.742 -2.13136 -4.0911 0
M  V30 6352 H 583.985 -2.0656 -3.81465 0
M  V30 6353 H 584.656 -1.44727 -5.32689 0
M  V30 6354 H 587.132 0.0861787 -4.16011 0
M  V30 6355 H 586.008 0.557338 -5.46063 0
M  V30 6356 H 586.269 1.64276 -4.10446 0
M  V30 6357 N 585.328 1.53329 -0.364422 0
M  V30 6358 C 586.553 2.06132 0.229033 0
M  V30 6359 C 586.978 1.23625 1.41769 0
M  V30 6360 O 586.336 0.255038 1.79497 0
M  V30 6361 C 586.384 3.55544 0.60174 0
M  V30 6362 O 585.488 3.75771 1.69912 0
M  V30 6363 H 584.829 0.663148 0.0336213 0
M  V30 6364 H 587.359 1.97758 -0.524689 0
M  V30 6365 H 587.369 3.98549 0.873073 0
M  V30 6366 H 586.044 4.15039 -0.267421 0
M  V30 6367 H 584.621 3.44663 1.42343 0
M  V30 6368 N 586.806 0.0935595 1.57322 0
M  V30 6369 C 588.083 -0.612692 1.85756 0
M  V30 6370 C 588.463 -1.86439 0.99013 0
M  V30 6371 O 587.811 -2.28416 0.0621362 0
M  V30 6372 C 588.021 -0.929547 3.36393 0
M  V30 6373 C 589.369 -1.29366 4.04413 0
M  V30 6374 O 590.393 -1.02061 3.41265 0
M  V30 6375 O 589.252 -1.80498 5.15832 0
M  V30 6376 H 586.346 -0.306444 0.768128 0
M  V30 6377 H 588.892 0.126141 1.69231 0
M  V30 6378 H 587.664 -0.0414766 3.91278 0
M  V30 6379 H 587.287 -1.72441 3.5826 0
M  V30 6380 N 588.284 -1.56567 -0.180126 0
M  V30 6381 C 589.247 -1.94852 -1.20686 0
M  V30 6382 C 590.247 -0.831212 -1.3765 0
M  V30 6383 O 591.437 -1.09841 -1.35206 0
M  V30 6384 C 588.569 -2.23565 -2.57355 0
M  V30 6385 H 589.762 -2.86722 -0.879225 0
M  V30 6386 H 587.315 -1.50489 -0.422237 0
M  V30 6387 H 588.05 -1.34381 -2.95148 0
M  V30 6388 H 587.835 -3.04999 -2.46411 0
M  V30 6389 H 589.325 -2.54137 -3.31367 0
M  V30 6390 N 589.762 0.448376 -1.51087 0
M  V30 6391 C 591.009 1.19872 -1.63209 0
M  V30 6392 C 591.337 1.91451 -0.343062 0
M  V30 6393 O 590.592 1.83789 0.672321 0
M  V30 6394 C 590.891 2.24866 -2.77795 0
M  V30 6395 C 590.557 1.70378 -4.17471 0
M  V30 6396 C 589.219 1.55241 -4.55471 0
M  V30 6397 C 591.571 1.30203 -5.04675 0
M  V30 6398 C 588.899 0.983844 -5.78392 0
M  V30 6399 C 591.251 0.747798 -6.28165 0
M  V30 6400 C 589.915 0.583233 -6.64947 0
M  V30 6401 H 589.185 0.438642 -0.597222 0
M  V30 6402 H 591.832 0.49136 -1.85089 0
M  V30 6403 H 590.137 3.01598 -2.50092 0
M  V30 6404 H 591.834 2.82723 -2.84374 0
M  V30 6405 H 588.424 1.83134 -3.87505 0
M  V30 6406 H 592.608 1.40723 -4.75932 0
M  V30 6407 H 587.864 0.844007 -6.05546 0
M  V30 6408 H 592.038 0.427927 -6.95084 0
M  V30 6409 H 589.665 0.140532 -7.6007 0
M  V30 6410 N 591.24 1.41047 0.703093 0
M  V30 6411 C 592.19 1.38774 1.80903 0
M  V30 6412 C 593.174 0.263275 1.58731 0
M  V30 6413 O 594.366 0.503362 1.69692 0
M  V30 6414 C 591.495 1.26497 3.19145 0
M  V30 6415 C 590.581 2.43775 3.47037 0
M  V30 6416 N 590.972 3.69249 3.45672 0
M  V30 6417 C 589.27 2.37425 3.77552 0
M  V30 6418 C 589.971 4.46989 3.72258 0
M  V30 6419 N 588.947 3.76998 3.91629 0
M  V30 6420 H 592.749 2.33714 1.78199 0
M  V30 6421 H 590.263 1.34996 0.902762 0
M  V30 6422 H 592.26 1.2295 3.98358 0
M  V30 6423 H 590.92 0.32534 3.23066 0
M  V30 6424 H 591.931 4.02239 3.26228 0
M  V30 6425 H 588.608 1.51895 3.88888 0
M  V30 6426 H 589.998 5.55894 3.77402 0
M  V30 6427 N 592.718 -0.936591 1.26751 0
M  V30 6428 C 593.665 -2.03597 1.08706 0
M  V30 6429 C 594.635 -1.66097 -0.00926542 0
M  V30 6430 O 595.82 -1.90199 0.151377 0
M  V30 6431 C 592.96 -3.3727 0.73094 0
M  V30 6432 C 592.073 -3.87778 1.90399 0
M  V30 6433 C 591.208 -5.09859 1.49056 0
M  V30 6434 C 590.247 -5.5264 2.63164 0
M  V30 6435 N 589.384 -6.65921 2.22471 0
M  V30 6436 H 594.224 -2.18364 2.02784 0
M  V30 6437 H 591.761 -1.06985 1.00958 0
M  V30 6438 H 593.719 -4.14128 0.505328 0
M  V30 6439 H 592.349 -3.22337 -0.172868 0
M  V30 6440 H 591.401 -3.07279 2.2424 0
M  V30 6441 H 592.713 -4.15464 2.76028 0
M  V30 6442 H 591.867 -5.9419 1.22567 0
M  V30 6443 H 590.606 -4.8393 0.60524 0
M  V30 6444 H 589.611 -4.66863 2.90377 0
M  V30 6445 H 590.836 -5.80568 3.52303 0
M  V30 6446 H 588.782 -6.41667 1.36379 0
M  V30 6447 H 588.699 -6.93216 3.01641 0
M  V30 6448 H 589.967 -7.53616 1.99205 0
M  V30 6449 N 594.196 -1.08629 -1.14182 0
M  V30 6450 C 595.159 -0.722027 -2.1753 0
M  V30 6451 C 596.159 0.244305 -1.58933 0
M  V30 6452 O 597.349 0.0235545 -1.74184 0
M  V30 6453 C 594.481 -0.0663966 -3.40835 0
M  V30 6454 H 595.674 -1.63719 -2.51269 0
M  V30 6455 H 593.227 -0.884442 -1.28869 0
M  V30 6456 H 593.962 0.860389 -3.12678 0
M  V30 6457 H 593.747 -0.761598 -3.84632 0
M  V30 6458 H 595.237 0.173346 -4.1724 0
M  V30 6459 N 595.674 1.31259 -0.872281 0
M  V30 6460 C 596.921 1.96622 -0.484365 0
M  V30 6461 C 597.249 1.68939 0.963841 0
M  V30 6462 O 596.504 0.97974 1.6941 0
M  V30 6463 C 596.803 3.50659 -0.690889 0
M  V30 6464 C 596.469 3.98366 -2.11224 0
M  V30 6465 C 595.131 4.11104 -2.50094 0
M  V30 6466 C 597.483 4.23425 -3.0391 0
M  V30 6467 C 594.811 4.46254 -3.80887 0
M  V30 6468 C 597.163 4.60039 -4.3422 0
M  V30 6469 C 595.827 4.70984 -4.73001 0
M  V30 6470 H 595.097 0.71949 -0.177242 0
M  V30 6471 H 597.744 1.56353 -1.10571 0
M  V30 6472 H 596.049 3.91798 0.0135782 0
M  V30 6473 H 597.746 3.99284 -0.370534 0
M  V30 6474 H 594.336 3.88949 -1.80047 0
M  V30 6475 H 598.52 4.13075 -2.75104 0
M  V30 6476 H 593.776 4.52926 -4.10692 0
M  V30 6477 H 597.95 4.78381 -5.06088 0
M  V30 6478 H 595.577 4.97977 -5.7439 0
M  V30 6479 N 597.152 0.631951 1.44375 0
M  V30 6480 C 598.082 -0.0593243 2.33425 0
M  V30 6481 C 599.063 -0.833964 1.48253 0
M  V30 6482 O 600.248 -0.799682 1.76971 0
M  V30 6483 C 597.378 -1.04096 3.31333 0
M  V30 6484 C 596.332 -0.377899 4.26328 0
M  V30 6485 C 595.658 -1.4695 5.14111 0
M  V30 6486 C 596.958 0.716371 5.17364 0
M  V30 6487 H 598.652 0.684287 2.91475 0
M  V30 6488 H 596.198 0.330518 1.40156 0
M  V30 6489 H 598.151 -1.53331 3.92514 0
M  V30 6490 H 596.875 -1.81547 2.71493 0
M  V30 6491 H 595.534 0.0938054 3.6648 0
M  V30 6492 H 595.182 -2.2349 4.50623 0
M  V30 6493 H 594.882 -1.03121 5.78481 0
M  V30 6494 H 596.406 -1.96363 5.78164 0
M  V30 6495 H 597.82 0.307089 5.72477 0
M  V30 6496 H 596.217 1.07784 5.90341 0
M  V30 6497 H 597.287 1.58316 4.58327 0
M  V30 6498 N 598.631 -1.53133 0.372548 0
M  V30 6499 C 599.541 -2.29671 -0.478379 0
M  V30 6500 C 600.557 -1.35913 -1.08644 0
M  V30 6501 O 601.733 -1.68975 -1.09588 0
M  V30 6502 C 598.798 -3.07625 -1.599 0
M  V30 6503 C 597.859 -4.17061 -1.01776 0
M  V30 6504 C 597.092 -4.91289 -2.08497 0
M  V30 6505 O 597.315 -4.65442 -3.29727 0
M  V30 6506 O 596.249 -5.7705 -1.71164 0
M  V30 6507 H 600.075 -3.03355 0.144649 0
M  V30 6508 H 597.66 -1.48773 0.136729 0
M  V30 6509 H 599.542 -3.56281 -2.25038 0
M  V30 6510 H 598.217 -2.3677 -2.2073 0
M  V30 6511 H 597.124 -3.72641 -0.330098 0
M  V30 6512 H 598.457 -4.90102 -0.453915 0
M  V30 6513 N 600.109 -0.101901 -1.5727 0
M  V30 6514 C 601.355 0.561027 -1.94885 0
M  V30 6515 C 601.688 1.6741 -0.984258 0
M  V30 6516 O 600.963 1.94491 -0.0184767 0
M  V30 6517 C 601.246 1.10982 -3.42571 0
M  V30 6518 C 601.099 0.00133418 -4.498 0
M  V30 6519 C 602.418 2.00608 -3.9172 0
M  V30 6520 H 599.537 0.202467 -0.708644 0
M  V30 6521 H 602.179 -0.173992 -1.89202 0
M  V30 6522 H 600.329 1.73621 -3.47546 0
M  V30 6523 H 602.001 -0.63322 -4.56933 0
M  V30 6524 H 600.244 -0.664143 -4.28686 0
M  V30 6525 H 600.915 0.426253 -5.50352 0
M  V30 6526 H 603.391 1.47864 -3.88941 0
M  V30 6527 H 602.267 2.3593 -4.95609 0
M  V30 6528 H 602.528 2.92608 -3.3141 0
M  V30 6529 N 601.587 1.56661 0.17182 0
M  V30 6530 C 602.535 1.97289 1.23207 0
M  V30 6531 C 603.529 0.861566 1.45854 0
M  V30 6532 O 604.735 1.04668 1.4644 0
M  V30 6533 H 601.11 0.627681 0.41415 0
M  V30 6534 H 603.081 2.85662 0.862542 0
M  V30 6535 C 601.83 2.34849 2.564 0
M  V30 6536 H 601.153 3.19903 2.39797 0
M  V30 6537 H 602.593 2.67121 3.29276 0
M  V30 6538 C 601.052 1.19172 3.15119 0
M  V30 6539 O 601.582 0.479113 3.98833 0
M  V30 6540 N 599.788 0.962415 2.74201 0
M  V30 6541 H 599.335 1.54365 2.06226 0
M  V30 6542 H 599.293 0.190272 3.13824 0
M  V30 6543 N 603.065 -0.440357 1.51323 0
M  V30 6544 C 603.975 -1.55955 1.75258 0
M  V30 6545 C 604.991 -1.61933 0.636687 0
M  V30 6546 O 606.167 -1.79231 0.918593 0
M  V30 6547 C 603.232 -2.9196 1.86977 0
M  V30 6548 C 602.293 -2.96122 3.10822 0
M  V30 6549 C 601.526 -4.2564 3.21973 0
M  V30 6550 O 601.749 -5.17851 2.39137 0
M  V30 6551 O 600.683 -4.36025 4.14929 0
M  V30 6552 H 604.509 -1.38673 2.70191 0
M  V30 6553 H 602.094 -0.623055 1.35788 0
M  V30 6554 H 603.976 -3.72682 1.96688 0
M  V30 6555 H 602.651 -3.09375 0.952307 0
M  V30 6556 H 601.558 -2.14366 3.06591 0
M  V30 6557 H 602.891 -2.83651 4.02247 0
M  V30 6558 N 604.543 -1.41418 -0.695603 0
M  V30 6559 C 605.453 -1.45622 -1.83933 0
M  V30 6560 C 606.469 -0.346825 -1.70508 0
M  V30 6561 O 607.645 -0.59454 -1.92424 0
M  V30 6562 C 604.71 -1.33627 -3.19914 0
M  V30 6563 C 603.771 -2.54882 -3.45447 0
M  V30 6564 C 603.004 -2.43449 -4.7494 0
M  V30 6565 O 603.227 -1.45905 -5.51424 0
M  V30 6566 O 602.161 -3.33206 -5.01256 0
M  V30 6567 H 605.987 -2.42114 -1.83342 0
M  V30 6568 H 603.572 -1.22956 -0.848658 0
M  V30 6569 H 605.454 -1.29221 -4.01098 0
M  V30 6570 H 604.129 -0.402508 -3.21188 0
M  V30 6571 H 603.036 -2.64865 -2.64192 0
M  V30 6572 H 604.369 -3.47087 -3.48987 0
M  V30 6573 N 606.021 0.929856 -1.27246 0
M  V30 6574 C 607.269 1.674 -1.13233 0
M  V30 6575 C 607.59 1.92311 0.322744 0
M  V30 6576 O 606.86 1.52784 1.22612 0
M  V30 6577 H 605.44 0.620411 -0.416052 0
M  V30 6578 H 608.102 1.11663 -1.59741 0
M  V30 6579 H 607.198 2.64308 -1.65975 0
M  V30 6580 N 607.499 1.09233 1.13605 0
M  V30 6581 C 608.724 0.849067 1.89224 0
M  V30 6582 C 609.149 -0.593875 1.78479 0
M  V30 6583 O 608.507 -1.41703 1.13092 0
M  V30 6584 C 608.555 1.28642 3.36873 0
M  V30 6585 O 607.659 0.44363 4.10007 0
M  V30 6586 H 607 0.30767 0.588417 0
M  V30 6587 H 609.53 1.45595 1.43748 0
M  V30 6588 H 609.54 1.27096 3.87699 0
M  V30 6589 H 608.215 2.33729 3.44011 0
M  V30 6590 H 606.792 0.523241 3.69211 0
M  V30 6591 N 608.977 -1.30795 0.87923 0
M  V30 6592 C 609.887 -2.32041 0.345565 0
M  V30 6593 C 610.903 -1.65103 -0.549265 0
M  V30 6594 O 612.079 -1.9645 -0.443763 0
M  V30 6595 C 609.144 -3.43944 -0.436245 0
M  V30 6596 C 608.205 -4.26521 0.48765 0
M  V30 6597 C 607.438 -5.33081 -0.256943 0
M  V30 6598 O 607.661 -5.50762 -1.48381 0
M  V30 6599 O 606.595 -6.00635 0.389985 0
M  V30 6600 H 610.421 -2.79627 1.18501 0
M  V30 6601 H 608.006 -1.3486 0.642885 0
M  V30 6602 H 609.888 -4.12128 -0.879119 0
M  V30 6603 H 608.563 -2.98504 -1.25208 0
M  V30 6604 H 607.47 -3.61057 0.979216 0
M  V30 6605 H 608.803 -4.75551 1.26933 0
M  V30 6606 N 610.455 -0.639598 -1.44038 0
M  V30 6607 C 611.418 0.0506628 -2.29144 0
M  V30 6608 C 612.418 0.764001 -1.41491 0
M  V30 6609 O 613.608 0.607309 -1.63271 0
M  V30 6610 C 610.74 1.0824 -3.2326 0
M  V30 6611 H 611.933 -0.697987 -2.91664 0
M  V30 6612 H 609.486 -0.400146 -1.51091 0
M  V30 6613 H 610.221 1.86075 -2.65606 0
M  V30 6614 H 610.006 0.574725 -3.87865 0
M  V30 6615 H 611.496 1.56487 -3.87171 0
M  V30 6616 N 611.933 1.52934 -0.380664 0
M  V30 6617 C 612.896 2.24809 0.446473 0
M  V30 6618 C 613.896 1.26133 0.997347 0
M  V30 6619 O 615.086 1.50297 0.880714 0
M  V30 6620 C 612.218 2.99649 1.62553 0
M  V30 6621 H 613.411 2.99343 -0.182677 0
M  V30 6622 H 610.964 1.55736 -0.132618 0
M  V30 6623 H 611.699 2.29395 2.29235 0
M  V30 6624 H 611.484 3.72066 1.23732 0
M  V30 6625 H 612.974 3.54246 2.21133 0
M  V30 6626 N 613.412 0.11024 1.57214 0
M  V30 6627 C 614.375 -0.828808 2.1369 0
M  V30 6628 C 615.375 -1.20059 1.06969 0
M  V30 6629 O 616.565 -1.12754 1.32786 0
M  V30 6630 C 613.697 -2.11959 2.66994 0
M  V30 6631 H 614.89 -0.338146 2.97988 0
M  V30 6632 H 612.443 -0.138913 1.55681 0
M  V30 6633 H 613.178 -2.65476 1.8626 0
M  V30 6634 H 612.963 -1.86258 3.45037 0
M  V30 6635 H 614.453 -2.79105 3.10629 0
M  V30 6636 N 614.89 -1.56749 -0.16351 0
M  V30 6637 C 616.115 -1.86938 -0.898264 0
M  V30 6638 C 616.54 -0.697456 -1.74692 0
M  V30 6639 O 615.898 0.353327 -1.77824 0
M  V30 6640 C 615.946 -3.15599 -1.74441 0
M  V30 6641 O 615.05 -2.98371 -2.8469 0
M  V30 6642 H 614.391 -0.614659 -0.251178 0
M  V30 6643 H 616.921 -2.03979 -0.159298 0
M  V30 6644 H 616.931 -3.47202 -2.14277 0
M  V30 6645 H 615.606 -4.00505 -1.1211 0
M  V30 6646 H 614.183 -2.7814 -2.4838 0
M  V30 6647 N 616.368 0.432326 -1.51554 0
M  V30 6648 C 617.596 1.20364 -1.68286 0
M  V30 6649 C 618.011 1.84888 -0.38233 0
M  V30 6650 O 617.368 1.70924 0.639627 0
M  V30 6651 C 617.419 2.28398 -2.80208 0
M  V30 6652 O 617.14 1.66512 -4.05223 0
M  V30 6653 C 618.641 3.18584 -3.08251 0
M  V30 6654 H 615.861 0.36259 -0.564596 0
M  V30 6655 H 618.405 0.511647 -1.97996 0
M  V30 6656 H 616.56 2.93305 -2.53083 0
M  V30 6657 H 616.974 2.37951 -4.67418 0
M  V30 6658 H 618.448 3.90511 -3.90135 0
M  V30 6659 H 618.925 3.79628 -2.2086 0
M  V30 6660 H 619.531 2.59372 -3.37055 0
M  V30 6661 N 617.846 1.41785 0.688094 0
M  V30 6662 C 618.809 1.43936 1.78368 0
M  V30 6663 C 619.809 0.328866 1.57401 0
M  V30 6664 O 620.999 0.589093 1.63937 0
M  V30 6665 C 618.131 1.25804 3.16838 0
M  V30 6666 H 619.324 2.41472 1.77852 0
M  V30 6667 H 616.877 1.28037 0.896448 0
M  V30 6668 H 617.612 0.291386 3.22988 0
M  V30 6669 H 617.397 2.06272 3.33458 0
M  V30 6670 H 618.887 1.30162 3.96797 0
M  V30 6671 N 619.324 -0.923095 1.27737 0
M  V30 6672 C 620.57 -1.67375 1.14514 0
M  V30 6673 C 620.903 -1.91751 -0.307424 0
M  V30 6674 O 620.178 -1.51119 -1.22447 0
M  V30 6675 C 620.461 -3.03745 1.9342 0
M  V30 6676 C 620.314 -2.86581 3.46686 0
M  V30 6677 C 621.633 -4.04144 1.74228 0
M  V30 6678 H 618.752 -0.607427 0.417374 0
M  V30 6679 H 621.394 -1.07089 1.56946 0
M  V30 6680 H 619.544 -3.55204 1.5736 0
M  V30 6681 H 621.216 -2.42203 3.92601 0
M  V30 6682 H 619.459 -2.21829 3.72793 0
M  V30 6683 H 620.13 -3.83381 3.97143 0
M  V30 6684 H 622.606 -3.61712 2.05678 0
M  V30 6685 H 621.482 -4.97543 2.31824 0
M  V30 6686 H 621.743 -4.36661 0.691373 0
M  V30 6687 N 620.802 -1.09834 -1.13024 0
M  V30 6688 C 622.048 -0.83819 -1.84668 0
M  V30 6689 C 622.381 0.634645 -1.83537 0
M  V30 6690 O 621.656 1.46753 -1.27647 0
M  V30 6691 C 621.939 -1.37933 -3.32636 0
M  V30 6692 C 621.792 -2.91857 -3.42257 0
M  V30 6693 C 623.111 -1.01654 -4.28199 0
M  V30 6694 H 620.23 -0.30595 -0.670495 0
M  V30 6695 H 622.872 -1.36044 -1.32635 0
M  V30 6696 H 621.022 -0.935111 -3.77078 0
M  V30 6697 H 622.694 -3.44759 -3.06495 0
M  V30 6698 H 620.937 -3.28776 -2.83 0
M  V30 6699 H 621.608 -3.24799 -4.46329 0
M  V30 6700 H 624.084 -1.39973 -3.9185 0
M  V30 6701 H 622.96 -1.42217 -5.30156 0
M  V30 6702 H 623.221 0.0747794 -4.42037 0
M  V30 6703 N 622.28 1.30327 -0.886154 0
M  V30 6704 C 623.529 1.95373 -0.501243 0
M  V30 6705 C 623.842 1.70722 0.954634 0
M  V30 6706 O 625.048 2.29761 1.44644 0
M  V30 6707 C 623.504 3.49828 -0.845493 0
M  V30 6708 C 623.112 3.83296 -2.31922 0
M  V30 6709 C 624.856 4.2118 -0.529838 0
M  V30 6710 C 622.763 5.30935 -2.60504 0
M  V30 6711 H 621.693 0.731274 -0.183722 0
M  V30 6712 H 624.344 1.48258 -1.08129 0
M  V30 6713 H 622.726 3.95522 -0.19452 0
M  V30 6714 H 623.9 3.48508 -3.01461 0
M  V30 6715 H 622.215 3.2505 -2.60253 0
M  V30 6716 H 624.812 5.29825 -0.720401 0
M  V30 6717 H 625.155 4.12902 0.530828 0
M  V30 6718 H 625.688 3.81173 -1.13806 0
M  V30 6719 H 622.427 5.44265 -3.65316 0
M  V30 6720 H 621.947 5.67019 -1.95575 0
M  V30 6721 H 623.626 5.98381 -2.46066 0
M  V30 6722 N 623.758 0.647228 1.43697 0
M  V30 6723 C 624.721 -0.0385101 2.29168 0
M  V30 6724 C 625.721 -0.756487 1.41894 0
M  V30 6725 O 626.911 -0.598641 1.63591 0
M  V30 6726 C 624.043 -1.06524 3.23829 0
M  V30 6727 H 625.236 0.713445 2.9129 0
M  V30 6728 H 622.789 0.408153 1.50877 0
M  V30 6729 H 623.524 -1.84664 2.66589 0
M  V30 6730 H 623.309 -0.554147 3.88164 0
M  V30 6731 H 624.799 -1.54432 3.87996 0
M  V30 6732 N 625.236 -1.5273 0.388769 0
M  V30 6733 C 626.484 -2.01174 -0.193208 0
M  V30 6734 C 626.805 -1.27705 -1.47365 0
M  V30 6735 O 626.075 -0.396966 -1.91836 0
M  V30 6736 H 624.655 -0.743287 -0.0743871 0
M  V30 6737 H 627.317 -1.87826 0.520336 0
M  V30 6738 H 626.413 -3.09477 -0.403803 0
M  V30 6739 N 626.714 -0.118576 -1.57153 0
M  V30 6740 C 628.13 0.238014 -1.57815 0
M  V30 6741 C 628.33 1.66747 -1.13127 0
M  V30 6742 O 627.386 2.38867 -0.818462 0
M  V30 6743 C 628.699 0.00508207 -3.007 0
M  V30 6744 C 630.247 0.0710139 -3.12919 0
M  V30 6745 C 630.722 -0.13422 -4.57803 0
M  V30 6746 N 632.213 -0.0801755 -4.63131 0
M  V30 6747 C 632.948 -0.213885 -5.73001 0
M  V30 6748 N 632.444 -0.403742 -6.91623 0
M  V30 6749 N 634.237 -0.15349 -5.6189 0
M  V30 6750 H 626.388 -1.05226 -1.84503 0
M  V30 6751 H 628.651 -0.414318 -0.852669 0
M  V30 6752 H 628.357 -0.983125 -3.3768 0
M  V30 6753 H 628.231 0.73714 -3.69927 0
M  V30 6754 H 630.618 1.04975 -2.75798 0
M  V30 6755 H 630.699 -0.692918 -2.46236 0
M  V30 6756 H 630.343 -1.10992 -4.95624 0
M  V30 6757 H 630.273 0.649692 -5.22577 0
M  V30 6758 H 632.764 0.0630689 -3.77847 0
M  V30 6759 H 633.077 -0.496645 -7.71202 0
M  V30 6760 H 631.422 -0.43971 -6.93608 0
M  V30 6761 H 634.613 -0.00613174 -4.681 0
M  V30 6762 H 634.786 -0.261138 -6.47474 0
M  V30 6763 N 628.193 1.56834 0.155195 0
M  V30 6764 C 629.418 1.87412 0.888337 0
M  V30 6765 C 629.843 0.70671 1.74319 0
M  V30 6766 O 629.201 -0.343892 1.78009 0
M  V30 6767 C 629.249 3.1652 1.72765 0
M  V30 6768 O 628.353 2.99877 2.83103 0
M  V30 6769 H 627.694 0.615983 0.247914 0
M  V30 6770 H 630.224 2.04061 0.148478 0
M  V30 6771 H 630.234 3.48334 2.12433 0
M  V30 6772 H 628.909 4.01094 1.09985 0
M  V30 6773 H 627.486 2.79453 2.46902 0
M  V30 6774 N 629.671 -0.424282 1.51781 0
M  V30 6775 C 630.601 -1.52305 1.7699 0
M  V30 6776 C 631.582 -1.5839 0.620209 0
M  V30 6777 O 632.767 -1.73908 0.864268 0
M  V30 6778 C 629.897 -2.90271 1.90683 0
M  V30 6779 C 628.851 -2.99043 3.06198 0
M  V30 6780 C 628.177 -4.39116 3.05092 0
M  V30 6781 C 629.477 -2.7192 4.45934 0
M  V30 6782 H 631.171 -1.31461 2.68995 0
M  V30 6783 H 628.717 -0.630985 1.29439 0
M  V30 6784 H 630.67 -3.6711 2.06901 0
M  V30 6785 H 629.394 -3.12376 0.953365 0
M  V30 6786 H 628.053 -2.24646 2.89706 0
M  V30 6787 H 627.701 -4.58207 2.07498 0
M  V30 6788 H 627.401 -4.45912 3.82669 0
M  V30 6789 H 628.925 -5.17911 3.2342 0
M  V30 6790 H 630.339 -3.38487 4.62709 0
M  V30 6791 H 628.736 -2.90111 5.25315 0
M  V30 6792 H 629.806 -1.67445 4.55072 0
M  V30 6793 N 631.149 -1.42148 -0.680565 0
M  V30 6794 C 632.097 -1.45401 -1.81552 0
M  V30 6795 C 633.091 -0.33036 -1.66147 0
M  V30 6796 O 634.297 -0.503103 -1.72826 0
M  V30 6797 H 630.672 -0.455265 -0.59853 0
M  V30 6798 H 632.643 -2.41024 -1.75926 0
M  V30 6799 C 631.392 -1.36769 -3.19671 0
M  V30 6800 H 630.715 -2.22525 -3.32149 0
M  V30 6801 H 632.155 -1.43106 -3.9912 0
M  V30 6802 C 630.614 -0.0817752 -3.36801 0
M  V30 6803 O 631.144 0.867707 -3.92216 0
M  V30 6804 N 629.35 -0.000799811 -2.906 0
M  V30 6805 H 628.897 -0.774231 -2.4569 0
M  V30 6806 H 628.855 0.858961 -3.02439 0
M  V30 6807 N 632.627 0.916307 -1.28225 0
M  V30 6808 C 634.038 1.48024 -1.13779 0
M  V30 6809 C 634.389 1.94289 0.273139 0
M  V30 6810 O 633.514 1.82226 1.16716 0
M  V30 6811 C 634.109 2.69029 -2.05935 0
M  V30 6812 C 632.668 3.2161 -1.95561 0
M  V30 6813 C 631.815 1.94321 -1.97825 0
M  V30 6814 H 634.766 0.729272 -1.40951 0
M  V30 6815 H 634.787 3.44204 -1.62184 0
M  V30 6816 H 634.299 2.35325 -3.08616 0
M  V30 6817 H 632.4 3.60045 -0.959076 0
M  V30 6818 H 632.513 3.87032 -2.82388 0
M  V30 6819 H 630.877 2.1131 -1.42198 0
M  V30 6820 H 631.66 1.62917 -3.0218 0
M  V30 6821 N 634.105 1.10431 1.1244 0
M  V30 6822 C 635.053 0.747974 2.20246 0
M  V30 6823 C 636.047 -0.255848 1.67457 0
M  V30 6824 O 637.253 -0.116221 1.79624 0
M  V30 6825 H 633.628 0.223946 0.71788 0
M  V30 6826 H 635.599 1.6661 2.47556 0
M  V30 6827 C 634.348 0.195957 3.47147 0
M  V30 6828 H 633.671 0.959606 3.88113 0
M  V30 6829 H 635.111 -0.0153154 4.23997 0
M  V30 6830 C 633.57 -1.07132 3.19413 0
M  V30 6831 O 634.1 -2.15284 3.3914 0
M  V30 6832 N 632.306 -0.98994 2.73219 0
M  V30 6833 H 631.853 -0.109736 2.57366 0
M  V30 6834 H 631.811 -1.83856 2.55038 0
M  V30 6835 N 635.583 -1.29855 0.893053 0
M  V30 6836 C 636.999 -1.48366 0.588199 0
M  V30 6837 C 637.199 -1.81654 -0.872018 0
M  V30 6838 O 636.255 -1.909 -1.65268 0
M  V30 6839 C 637.568 -2.60136 1.5083 0
M  V30 6840 C 639.116 -2.74014 1.51279 0
M  V30 6841 C 639.591 -3.88905 2.41902 0
M  V30 6842 N 641.082 -3.96228 2.39911 0
M  V30 6843 C 641.817 -4.84458 3.06738 0
M  V30 6844 N 641.313 -5.77426 3.8282 0
M  V30 6845 N 643.106 -4.77894 2.95929 0
M  V30 6846 H 635.257 -1.06522 1.83757 0
M  V30 6847 H 637.52 -0.528495 0.787018 0
M  V30 6848 H 637.226 -2.42383 2.54839 0
M  V30 6849 H 637.1 -3.56793 1.22388 0
M  V30 6850 H 639.487 -2.91167 0.480179 0
M  V30 6851 H 639.568 -1.77952 1.83757 0
M  V30 6852 H 639.212 -3.72508 3.45253 0
M  V30 6853 H 639.142 -4.84322 2.06737 0
M  V30 6854 H 641.633 -3.29728 1.84629 0
M  V30 6855 H 641.946 -6.41529 4.30883 0
M  V30 6856 H 640.291 -5.77332 3.86927 0
M  V30 6857 H 643.482 -4.04248 2.36012 0
M  V30 6858 H 643.655 -5.46444 3.48286 0
M  V30 6859 N 637.061 -0.65484 -1.43351 0
M  V30 6860 C 638.307 -0.169142 -2.02093 0
M  V30 6861 C 638.64 1.21431 -1.51553 0
M  V30 6862 O 637.915 1.81105 -0.709317 0
M  V30 6863 C 638.198 -0.181775 -3.59641 0
M  V30 6864 C 638.051 -1.59926 -4.20409 0
M  V30 6865 C 639.37 0.480945 -4.37464 0
M  V30 6866 H 636.489 -0.0629371 -0.734308 0
M  V30 6867 H 639.131 -0.835833 -1.70628 0
M  V30 6868 H 637.281 0.385918 -3.86578 0
M  V30 6869 H 638.953 -2.21766 -4.04497 0
M  V30 6870 H 637.196 -2.14605 -3.76998 0
M  V30 6871 H 637.867 -1.55994 -5.295 0
M  V30 6872 H 640.343 -0.00208273 -4.161 0
M  V30 6873 H 639.219 0.441384 -5.47122 0
M  V30 6874 H 639.48 1.55533 -4.13838 0
M  V30 6875 N 638.539 1.52521 -0.396863 0
M  V30 6876 C 639.767 2.06091 0.18275 0
M  V30 6877 C 640.182 1.26796 1.39886 0
M  V30 6878 O 639.539 0.316585 1.79733 0
M  V30 6879 C 639.59 3.57362 0.545377 0
M  V30 6880 O 639.311 4.33656 -0.622428 0
M  V30 6881 C 640.812 4.27305 1.18004 0
M  V30 6882 H 638.032 0.670504 0.025789 0
M  V30 6883 H 640.576 1.96561 -0.564276 0
M  V30 6884 H 638.731 3.66941 1.2423 0
M  V30 6885 H 639.145 5.23507 -0.322662 0
M  V30 6886 H 640.619 5.34366 1.38408 0
M  V30 6887 H 641.096 3.83 2.1496 0
M  V30 6888 H 641.702 4.22064 0.523671 0
M  V30 6889 N 640.017 0.126909 1.57088 0
M  V30 6890 C 641.264 -0.529168 1.95464 0
M  V30 6891 C 641.592 -1.6618 1.01067 0
M  V30 6892 O 640.847 -1.95667 0.0360254 0
M  V30 6893 C 641.146 -1.095 3.40212 0
M  V30 6894 C 640.812 -0.0829015 4.50824 0
M  V30 6895 C 639.474 0.195377 4.80803 0
M  V30 6896 C 641.826 0.606411 5.1766 0
M  V30 6897 C 639.154 1.16912 5.74933 0
M  V30 6898 C 641.506 1.56884 6.12838 0
M  V30 6899 C 640.17 1.85502 6.41206 0
M  V30 6900 H 639.44 -0.193636 0.715252 0
M  V30 6901 H 642.087 0.209489 1.90351 0
M  V30 6902 H 640.392 -1.91058 3.42059 0
M  V30 6903 H 642.089 -1.61087 3.67222 0
M  V30 6904 H 638.679 -0.309979 4.27478 0
M  V30 6905 H 642.863 0.404597 4.94648 0
M  V30 6906 H 638.119 1.3975 5.95214 0
M  V30 6907 H 642.293 2.10859 6.6371 0
M  V30 6908 H 639.92 2.61109 7.13951 0
M  V30 6909 N 641.495 -1.56914 -0.146875 0
M  V30 6910 C 642.442 -1.98275 -1.18134 0
M  V30 6911 C 643.412 -0.850367 -1.42681 0
M  V30 6912 O 644.597 -1.11244 -1.55014 0
M  V30 6913 C 641.737 -2.36861 -2.5098 0
M  V30 6914 C 640.85 -3.63391 -2.33605 0
M  V30 6915 C 639.985 -3.91079 -3.59486 0
M  V30 6916 C 639.024 -5.10879 -3.37149 0
M  V30 6917 N 638.161 -5.34577 -4.55161 0
M  V30 6918 H 643.001 -2.8645 -0.821622 0
M  V30 6919 H 640.538 -1.41718 -0.394248 0
M  V30 6920 H 642.496 -2.57262 -3.28439 0
M  V30 6921 H 641.126 -1.51766 -2.84898 0
M  V30 6922 H 640.178 -3.50766 -1.47199 0
M  V30 6923 H 641.49 -4.51007 -2.13059 0
M  V30 6924 H 640.644 -4.11979 -4.45374 0
M  V30 6925 H 639.383 -3.01885 -3.83036 0
M  V30 6926 H 638.388 -4.89853 -2.49649 0
M  V30 6927 H 639.613 -6.01626 -3.14997 0
M  V30 6928 H 637.559 -4.48337 -4.78884 0
M  V30 6929 H 637.476 -6.16463 -4.37618 0
M  V30 6930 H 638.744 -5.59975 -5.42263 0
M  V30 6931 N 642.974 0.416227 -1.52004 0
M  V30 6932 C 643.937 1.48926 -1.74223 0
M  V30 6933 C 644.937 1.48693 -0.612119 0
M  V30 6934 O 646.127 1.50343 -0.879921 0
M  V30 6935 C 643.259 2.88372 -1.81809 0
M  V30 6936 H 644.452 1.3052 -2.70008 0
M  V30 6937 H 642.005 0.646271 -1.42313 0
M  V30 6938 H 642.74 3.12157 -0.879135 0
M  V30 6939 H 642.525 2.89944 -2.6396 0
M  V30 6940 H 644.015 3.66173 -2.00766 0
M  V30 6941 N 644.452 1.42507 0.673017 0
M  V30 6942 C 645.4 1.46362 1.80779 0
M  V30 6943 C 646.394 0.339166 1.6597 0
M  V30 6944 O 647.6 0.512262 1.72557 0
M  V30 6945 H 643.975 0.458433 0.596107 0
M  V30 6946 H 645.946 2.41953 1.74646 0
M  V30 6947 C 644.695 1.38462 3.18941 0
M  V30 6948 H 644.018 2.24283 3.30964 0
M  V30 6949 H 645.458 1.45221 3.98355 0
M  V30 6950 C 643.917 0.0996354 3.36753 0
M  V30 6951 O 644.447 -0.846894 3.92671 0
M  V30 6952 N 642.653 0.016211 2.90595 0
M  V30 6953 H 642.2 0.78725 2.45276 0
M  V30 6954 H 642.158 -0.84291 3.0289 0
M  V30 6955 N 645.93 -0.909495 1.28709 0
M  V30 6956 C 647.346 -1.18862 1.06508 0
M  V30 6957 C 647.546 -2.00604 -0.189864 0
M  V30 6958 O 646.602 -2.36281 -0.890355 0
M  V30 6959 C 647.915 -1.91908 2.31499 0
M  V30 6960 C 649.463 -2.04773 2.36721 0
M  V30 6961 C 649.938 -2.81228 3.6149 0
M  V30 6962 N 651.429 -2.88787 3.62155 0
M  V30 6963 C 652.164 -3.48455 4.55375 0
M  V30 6964 N 651.66 -4.09369 5.58918 0
M  V30 6965 N 653.453 -3.46035 4.42963 0
M  V30 6966 H 645.604 -0.363867 2.0926 0
M  V30 6967 H 647.867 -0.223649 0.921241 0
M  V30 6968 H 647.573 -1.39275 3.22948 0
M  V30 6969 H 647.447 -2.92436 2.38245 0
M  V30 6970 H 649.834 -2.56585 1.45767 0
M  V30 6971 H 649.915 -1.03408 2.33967 0
M  V30 6972 H 649.559 -2.30094 4.5279 0
M  V30 6973 H 649.489 -3.82917 3.61499 0
M  V30 6974 H 651.98 -2.45514 2.87283 0
M  V30 6975 H 652.293 -4.52891 6.26187 0
M  V30 6976 H 650.638 -4.0786 5.62739 0
M  V30 6977 H 653.829 -2.9766 3.6127 0
M  V30 6978 H 654.002 -3.92244 5.15799 0
M  V30 6979 N 647.408 -1.11026 -1.11852 0
M  V30 6980 C 648.819 -0.873203 -1.65021 0
M  V30 6981 C 649.17 0.595364 -1.86949 0
M  V30 6982 O 648.295 1.45645 -1.60051 0
M  V30 6983 C 648.89 -1.57859 -2.99777 0
M  V30 6984 C 647.449 -1.38807 -3.49871 0
M  V30 6985 C 646.596 -1.62403 -2.24768 0
M  V30 6986 H 649.547 -1.26712 -0.955503 0
M  V30 6987 H 649.568 -1.02111 -3.66543 0
M  V30 6988 H 649.08 -2.6474 -2.83786 0
M  V30 6989 H 647.181 -0.341163 -3.71035 0
M  V30 6990 H 647.294 -2.13421 -4.28938 0
M  V30 6991 H 645.658 -1.04714 -2.32179 0
M  V30 6992 H 646.441 -2.70549 -2.11324 0
M  V30 6993 N 648.886 1.2938 -0.899927 0
M  V30 6994 C 650.133 1.9555 -0.525963 0
M  V30 6995 C 650.461 1.70945 0.927789 0
M  V30 6996 O 649.716 1.01545 1.67293 0
M  V30 6997 C 650.015 3.49114 -0.765113 0
M  V30 6998 C 649.681 3.93796 -2.19626 0
M  V30 6999 C 648.343 4.05707 -2.58758 0
M  V30 7000 C 650.695 4.16883 -3.12823 0
M  V30 7001 C 648.023 4.38074 -3.90267 0
M  V30 7002 C 650.375 4.50725 -4.4388 0
M  V30 7003 C 649.039 4.60845 -4.82885 0
M  V30 7004 H 648.309 0.715569 -0.192463 0
M  V30 7005 H 650.956 1.53972 -1.13863 0
M  V30 7006 H 649.261 3.91738 -0.069531 0
M  V30 7007 H 650.958 3.98409 -0.455144 0
M  V30 7008 H 647.548 3.85042 -1.88256 0
M  V30 7009 H 651.732 4.07147 -2.83804 0
M  V30 7010 H 646.988 4.44112 -4.20207 0
M  V30 7011 H 651.162 4.67538 -5.16121 0
M  V30 7012 H 648.789 4.85681 -5.84823 0
M  V30 7013 N 650.364 0.662433 1.43002 0
M  V30 7014 C 651.294 -0.00979809 2.33498 0
M  V30 7015 C 652.275 -0.802329 1.49989 0
M  V30 7016 O 653.46 -0.761964 1.78627 0
M  V30 7017 C 650.59 -0.970446 3.33466 0
M  V30 7018 C 649.544 -0.287383 4.27034 0
M  V30 7019 C 648.87 -1.36012 5.17112 0
M  V30 7020 C 650.17 0.82595 5.15728 0
M  V30 7021 H 651.864 0.745959 2.89958 0
M  V30 7022 H 649.41 0.360172 1.39423 0
M  V30 7023 H 651.363 -1.44971 3.95679 0
M  V30 7024 H 650.087 -1.75748 2.75282 0
M  V30 7025 H 648.746 0.17152 3.66199 0
M  V30 7026 H 648.394 -2.13882 4.55262 0
M  V30 7027 H 648.094 -0.908276 5.80538 0
M  V30 7028 H 649.618 -1.84056 5.82199 0
M  V30 7029 H 651.032 0.42845 5.71697 0
M  V30 7030 H 649.429 1.20282 5.87922 0
M  V30 7031 H 650.499 1.68003 4.54866 0
M  V30 7032 N 651.842 -1.52309 0.404946 0
M  V30 7033 C 653.088 -2.02065 -0.172455 0
M  V30 7034 C 653.421 -1.29022 -1.45145 0
M  V30 7035 O 652.696 -0.395284 -1.90441 0
M  V30 7036 C 652.979 -3.5759 -0.424433 0
M  V30 7037 C 652.832 -4.41287 0.870945 0
M  V30 7038 C 654.151 -4.23186 -1.20837 0
M  V30 7039 H 651.27 -0.734454 -0.0612035 0
M  V30 7040 H 653.912 -1.82236 0.53759 0
M  V30 7041 H 652.062 -3.74617 -1.02929 0
M  V30 7042 H 653.734 -4.3598 1.50729 0
M  V30 7043 H 651.977 -4.07669 1.48284 0
M  V30 7044 H 652.648 -5.48171 0.649083 0
M  V30 7045 H 655.124 -4.10232 -0.696338 0
M  V30 7046 H 654 -5.31953 -1.35343 0
M  V30 7047 H 654.261 -3.81862 -2.22786 0
M  V30 7048 N 653.32 -0.135238 -1.57019 0
M  V30 7049 C 654.567 0.518794 -1.95742 0
M  V30 7050 C 654.895 1.65642 -1.01947 0
M  V30 7051 O 654.15 1.95645 -0.0464016 0
M  V30 7052 C 654.449 1.07694 -3.40788 0
M  V30 7053 C 654.115 0.058992 -4.50861 0
M  V30 7054 C 652.777 -0.220872 -4.80693 0
M  V30 7055 C 655.129 -0.633856 -5.17331 0
M  V30 7056 C 652.457 -1.19959 -5.74305 0
M  V30 7057 C 654.809 -1.60131 -6.11997 0
M  V30 7058 C 653.473 -1.889 -6.40213 0
M  V30 7059 H 652.743 0.18984 -0.716269 0
M  V30 7060 H 655.39 -0.219581 -1.90237 0
M  V30 7061 H 653.695 1.89241 -3.43067 0
M  V30 7062 H 655.392 1.59137 -3.68071 0
M  V30 7063 H 651.982 0.287304 -4.27636 0
M  V30 7064 H 656.166 -0.430823 -4.94427 0
M  V30 7065 H 651.422 -1.42905 -5.94465 0
M  V30 7066 H 655.596 -2.14376 -6.62583 0
M  V30 7067 H 653.223 -2.64891 -7.12556 0
M  V30 7068 N 654.798 1.5699 0.138552 0
M  V30 7069 C 656.047 1.82998 0.848205 0
M  V30 7070 C 656.36 0.717829 1.81952 0
M  V30 7071 O 657.566 0.863756 2.57394 0
M  V30 7072 C 656.022 3.24379 1.55904 0
M  V30 7073 C 655.63 4.43552 0.62971 0
M  V30 7074 C 657.374 3.59654 2.25498 0
M  V30 7075 C 655.281 5.75957 1.34266 0
M  V30 7076 H 654.211 0.682495 0.320495 0
M  V30 7077 H 656.862 1.83222 0.100924 0
M  V30 7078 H 655.244 3.18567 2.35226 0
M  V30 7079 H 656.418 4.6062 -0.128882 0
M  V30 7080 H 654.733 4.16379 0.0417526 0
M  V30 7081 H 657.33 4.55837 2.79493 0
M  V30 7082 H 657.673 2.86124 3.02388 0
M  V30 7083 H 658.206 3.67164 1.53087 0
M  V30 7084 H 654.945 6.52604 0.615441 0
M  V30 7085 H 654.465 5.62811 2.07375 0
M  V30 7086 H 656.144 6.19046 1.88126 0
M  V30 7087 N 656.276 -0.40816 1.52223 0
M  V30 7088 C 657.692 -0.74685 1.41047 0
M  V30 7089 C 657.892 -1.94788 0.51573 0
M  V30 7090 O 656.948 -2.52494 -0.0181156 0
M  V30 7091 C 658.261 -0.999878 2.83589 0
M  V30 7092 C 659.809 -1.10253 2.92939 0
M  V30 7093 C 660.284 -1.38832 4.36451 0
M  V30 7094 N 661.775 -1.45694 4.3969 0
M  V30 7095 C 662.51 -1.69435 5.47795 0
M  V30 7096 N 662.006 -1.90774 6.66016 0
M  V30 7097 N 663.799 -1.71458 5.35312 0
M  V30 7098 H 655.95 0.382409 2.08929 0
M  V30 7099 H 658.213 0.108807 0.941735 0
M  V30 7100 H 657.919 -0.189723 3.51188 0
M  V30 7101 H 657.793 -1.91978 3.24691 0
M  V30 7102 H 660.18 -1.90328 2.2552 0
M  V30 7103 H 660.261 -0.160973 2.55293 0
M  V30 7104 H 659.905 -0.592741 5.04429 0
M  V30 7105 H 659.835 -2.34241 4.71634 0
M  V30 7106 H 662.326 -1.3099 3.54472 0
M  V30 7107 H 662.639 -2.08342 7.44186 0
M  V30 7108 H 660.984 -1.88037 6.69079 0
M  V30 7109 H 664.175 -1.54326 4.41929 0
M  V30 7110 H 664.348 -1.89621 6.19635 0
M  V30 7111 N 657.755 -1.42862 -0.66545 0
M  V30 7112 C 658.665 -1.49491 -1.80803 0
M  V30 7113 C 659.681 -0.382914 -1.69734 0
M  V30 7114 O 660.857 -0.635223 -1.9112 0
M  V30 7115 C 657.922 -1.40383 -3.17007 0
M  V30 7116 C 656.983 -2.62152 -3.39963 0
M  V30 7117 C 656.216 -2.53469 -4.69669 0
M  V30 7118 O 656.439 -1.57568 -5.48205 0
M  V30 7119 O 655.373 -3.43763 -4.94075 0
M  V30 7120 H 659.199 -2.45949 -1.78165 0
M  V30 7121 H 656.784 -1.24728 -0.822387 0
M  V30 7122 H 658.666 -1.377 -3.98267 0
M  V30 7123 H 657.341 -0.470546 -3.20262 0
M  V30 7124 H 656.248 -2.70409 -2.58515 0
M  V30 7125 H 657.581 -3.54411 -3.41546 0
M  V30 7126 N 659.233 0.902656 -1.29189 0
M  V30 7127 C 660.479 1.65532 -1.17163 0
M  V30 7128 C 660.812 1.92216 0.276879 0
M  V30 7129 O 660.087 1.53048 1.20027 0
M  V30 7130 C 660.37 3.00629 -1.98228 0
M  V30 7131 C 660.223 2.81029 -3.51202 0
M  V30 7132 C 661.542 4.01321 -1.80635 0
M  V30 7133 H 658.661 0.60071 -0.426985 0
M  V30 7134 H 661.303 1.04578 -1.5863 0
M  V30 7135 H 659.453 3.52656 -1.62991 0
M  V30 7136 H 661.125 2.35927 -3.96404 0
M  V30 7137 H 659.368 2.1587 -3.76275 0
M  V30 7138 H 660.039 3.77014 -4.03192 0
M  V30 7139 H 662.515 3.58394 -2.11406 0
M  V30 7140 H 661.391 4.93792 -2.3971 0
M  V30 7141 H 661.652 4.35505 -0.760754 0
M  V30 7142 N 660.711 1.11618 1.11262 0
M  V30 7143 C 662.122 0.881942 1.64556 0
M  V30 7144 C 662.473 -0.585442 1.87262 0
M  V30 7145 O 661.598 -1.44795 1.60821 0
M  V30 7146 C 662.193 1.59446 2.98935 0
M  V30 7147 C 660.752 1.40661 3.4913 0
M  V30 7148 C 659.899 1.63593 2.23903 0
M  V30 7149 H 662.85 1.27217 0.94877 0
M  V30 7150 H 662.871 1.04054 3.65996 0
M  V30 7151 H 662.383 2.66241 2.82378 0
M  V30 7152 H 660.484 0.360835 3.70849 0
M  V30 7153 H 660.597 2.15693 4.27801 0
M  V30 7154 H 658.961 1.05944 2.3162 0
M  V30 7155 H 659.744 2.71666 2.09886 0
M  V30 7156 N 662.189 -1.289 0.906776 0
M  V30 7157 C 663.119 -2.29932 0.406659 0
M  V30 7158 C 664.1 -1.6189 -0.522061 0
M  V30 7159 O 665.285 -1.8935 -0.431283 0
M  V30 7160 C 662.415 -3.45425 -0.360366 0
M  V30 7161 C 661.369 -4.25316 0.478574 0
M  V30 7162 C 660.695 -5.33076 -0.416373 0
M  V30 7163 C 661.995 -4.92739 1.7322 0
M  V30 7164 H 663.689 -2.72013 1.25097 0
M  V30 7165 H 661.235 -1.30768 0.602977 0
M  V30 7166 H 663.188 -4.15186 -0.721029 0
M  V30 7167 H 661.912 -3.02206 -1.23852 0
M  V30 7168 H 660.571 -3.57273 0.821662 0
M  V30 7169 H 660.219 -4.86101 -1.29287 0
M  V30 7170 H 659.919 -5.8743 0.141309 0
M  V30 7171 H 661.443 -6.05686 -0.773072 0
M  V30 7172 H 662.857 -5.54898 1.44086 0
M  V30 7173 H 661.254 -5.57057 2.23175 0
M  V30 7174 H 662.324 -4.17625 2.46408 0
M  V30 7175 N 663.667 -0.670007 -1.42649 0
M  V30 7176 C 664.615 0.0230106 -2.32589 0
M  V30 7177 C 665.609 0.795585 -1.49555 0
M  V30 7178 O 666.815 0.70409 -1.65658 0
M  V30 7179 H 663.19 0.0262342 -0.751542 0
M  V30 7180 H 665.161 -0.753009 -2.88743 0
M  V30 7181 C 663.91 0.963872 -3.34073 0
M  V30 7182 H 663.233 0.378813 -3.98001 0
M  V30 7183 H 664.673 1.41755 -3.99602 0
M  V30 7184 C 663.132 2.06797 -2.65964 0
M  V30 7185 O 663.662 3.15383 -2.48789 0
M  V30 7186 N 661.868 1.83831 -2.25066 0
M  V30 7187 H 661.415 0.955235 -2.39234 0
M  V30 7188 H 661.373 2.57895 -1.79827 0
M  V30 7189 N 665.145 1.52092 -0.413018 0
M  V30 7190 C 666.373 2.06274 0.160881 0
M  V30 7191 C 666.788 1.28273 1.38533 0
M  V30 7192 O 666.145 0.33563 1.79387 0
M  V30 7193 C 666.196 3.57921 0.507443 0
M  V30 7194 O 665.917 4.32971 -0.668388 0
M  V30 7195 C 667.418 4.28533 1.13465 0
M  V30 7196 H 664.638 0.67074 0.0186759 0
M  V30 7197 H 667.182 1.95951 -0.585092 0
M  V30 7198 H 665.337 3.68238 1.20331 0
M  V30 7199 H 665.751 5.23135 -0.378169 0
M  V30 7200 H 667.225 5.35804 1.32732 0
M  V30 7201 H 667.702 3.85258 2.10886 0
M  V30 7202 H 668.308 4.22595 0.478876 0
M  V30 7203 N 666.623 0.143563 1.56945 0
M  V30 7204 C 667.872 -0.50835 1.95189 0
M  V30 7205 C 668.185 -1.66239 1.03073 0
M  V30 7206 O 669.391 -2.3787 1.30882 0
M  V30 7207 C 667.847 -0.955735 3.46978 0
M  V30 7208 C 667.455 0.171183 4.47673 0
M  V30 7209 C 669.199 -1.57763 3.94095 0
M  V30 7210 C 667.106 -0.294279 5.90667 0
M  V30 7211 H 666.036 -0.193679 0.728701 0
M  V30 7212 H 668.687 0.227357 1.82086 0
M  V30 7213 H 667.069 -1.7466 3.55401 0
M  V30 7214 H 668.243 0.948049 4.50942 0
M  V30 7215 H 666.558 0.701273 4.10452 0
M  V30 7216 H 669.155 -1.93745 4.98364 0
M  V30 7217 H 669.498 -2.46531 3.35452 0
M  V30 7218 H 670.031 -0.851728 3.88575 0
M  V30 7219 H 666.77 0.557939 6.53121 0
M  V30 7220 H 666.29 -1.0371 5.90766 0
M  V30 7221 H 667.969 -0.747426 6.42668 0
M  V30 7222 N 668.101 -1.57061 -0.130224 0
M  V30 7223 C 669.35 -1.83446 -0.838488 0
M  V30 7224 C 669.663 -0.727468 -1.81569 0
M  V30 7225 O 670.869 -0.877394 -2.56932 0
M  V30 7226 C 669.325 -3.25201 -1.54182 0
M  V30 7227 C 668.933 -4.4388 -0.606178 0
M  V30 7228 C 670.677 -3.60844 -2.23588 0
M  V30 7229 C 668.584 -5.76661 -1.31209 0
M  V30 7230 H 667.514 -0.684185 -0.316871 0
M  V30 7231 H 670.165 -1.83273 -0.0912059 0
M  V30 7232 H 668.547 -3.1981 -2.33533 0
M  V30 7233 H 669.721 -4.60545 0.153308 0
M  V30 7234 H 668.036 -4.16395 -0.0196705 0
M  V30 7235 H 670.633 -4.57313 -2.77072 0
M  V30 7236 H 670.976 -2.87724 -3.00867 0
M  V30 7237 H 671.509 -3.67971 -1.51137 0
M  V30 7238 H 668.248 -6.52922 -0.580823 0
M  V30 7239 H 667.768 -5.63902 -2.04387 0
M  V30 7240 H 669.447 -6.20035 -1.8484 0
M  V30 7241 N 669.579 0.400081 -1.52437 0
M  V30 7242 C 670.826 1.14619 -1.6694 0
M  V30 7243 C 671.154 1.90262 -0.403797 0
M  V30 7244 O 670.409 1.85835 0.61351 0
M  V30 7245 C 670.708 2.15914 -2.84808 0
M  V30 7246 C 670.374 1.57011 -4.2268 0
M  V30 7247 C 669.036 1.40672 -4.60179 0
M  V30 7248 C 671.388 1.14081 -5.08562 0
M  V30 7249 C 668.716 0.799335 -5.81229 0
M  V30 7250 C 671.068 0.547573 -6.30226 0
M  V30 7251 C 669.732 0.371389 -6.66466 0
M  V30 7252 H 669.002 0.419419 -0.610875 0
M  V30 7253 H 671.649 0.432227 -1.86558 0
M  V30 7254 H 669.954 2.93488 -2.59561 0
M  V30 7255 H 671.651 2.73533 -2.93225 0
M  V30 7256 H 668.241 1.70713 -3.93135 0
M  V30 7257 H 672.425 1.2551 -4.80168 0
M  V30 7258 H 667.681 0.65093 -6.07925 0
M  V30 7259 H 671.855 0.206575 -6.96094 0
M  V30 7260 H 669.482 -0.10135 -7.60132 0
M  V30 7261 N 671.057 1.43213 0.657864 0
M  V30 7262 C 671.99 1.42456 1.78273 0
M  V30 7263 C 672.968 0.286598 1.60054 0
M  V30 7264 O 674.152 0.479467 1.823 0
M  V30 7265 C 671.279 1.23169 3.15511 0
M  V30 7266 C 670.325 2.40181 3.52442 0
M  V30 7267 S 671.158 4.02729 3.52944 0
M  V30 7268 C 672.314 3.85816 4.92846 0
M  V30 7269 H 672.547 2.37642 1.78644 0
M  V30 7270 H 670.08 1.30188 0.830084 0
M  V30 7271 H 672.038 1.12728 3.94719 0
M  V30 7272 H 670.699 0.295398 3.12708 0
M  V30 7273 H 669.892 2.22478 4.52239 0
M  V30 7274 H 669.494 2.47224 2.80636 0
M  V30 7275 H 671.786 3.47853 5.81381 0
M  V30 7276 H 672.729 4.85348 5.15599 0
M  V30 7277 H 673.137 3.18361 4.66162 0
M  V30 7278 N 672.536 -0.895792 1.29666 0
M  V30 7279 C 673.784 -1.64339 1.17631 0
M  V30 7280 C 674.105 -1.93099 -0.271643 0
M  V30 7281 O 673.375 -1.55981 -1.18518 0
M  V30 7282 H 671.955 -0.609162 0.432354 0
M  V30 7283 H 674.617 -1.07389 1.62646 0
M  V30 7284 H 673.713 -2.59815 1.72924 0
M  V30 7285 N 674.014 -1.12206 -1.10668 0
M  V30 7286 C 675.43 -0.857619 -1.346 0
M  V30 7287 C 675.63 0.513542 -1.94846 0
M  V30 7288 O 674.686 1.26273 -2.18658 0
M  V30 7289 C 675.999 -1.97212 -2.26998 0
M  V30 7290 C 677.547 -2.00272 -2.40542 0
M  V30 7291 C 678.022 -3.10948 -3.36267 0
M  V30 7292 N 679.513 -3.10375 -3.43834 0
M  V30 7293 C 680.248 -3.92651 -4.17867 0
M  V30 7294 N 679.744 -4.84911 -4.94807 0
M  V30 7295 N 681.537 -3.80798 -4.1346 0
M  V30 7296 H 673.688 -2.00558 -0.699306 0
M  V30 7297 H 675.951 -0.872612 -0.370477 0
M  V30 7298 H 675.657 -2.96002 -1.89936 0
M  V30 7299 H 675.531 -1.87521 -3.27286 0
M  V30 7300 H 677.918 -1.02103 -2.76874 0
M  V30 7301 H 677.999 -2.14037 -1.40077 0
M  V30 7302 H 677.643 -4.09348 -3.00661 0
M  V30 7303 H 677.573 -2.94421 -4.36605 0
M  V30 7304 H 680.064 -2.43536 -2.88961 0
M  V30 7305 H 680.377 -5.44207 -5.48688 0
M  V30 7306 H 678.722 -4.88926 -4.93939 0
M  V30 7307 H 681.913 -3.08058 -3.52445 0
M  V30 7308 H 682.086 -4.4515 -4.70898 0
M  V30 7309 N 675.492 1.28418 -0.913599 0
M  V30 7310 C 676.738 1.9527 -0.547484 0
M  V30 7311 C 677.071 1.71745 0.906486 0
M  V30 7312 O 676.346 1.03834 1.64465 0
M  V30 7313 C 676.629 3.49748 -0.857205 0
M  V30 7314 C 676.482 3.82675 -2.3639 0
M  V30 7315 C 677.801 4.3868 -0.353258 0
M  V30 7316 H 674.92 0.709236 -0.200381 0
M  V30 7317 H 677.562 1.51789 -1.14281 0
M  V30 7318 H 675.712 3.86915 -0.350548 0
M  V30 7319 H 677.384 3.55378 -2.94116 0
M  V30 7320 H 675.627 3.29724 -2.81894 0
M  V30 7321 H 676.298 4.90547 -2.53115 0
M  V30 7322 H 678.774 4.08584 -0.787288 0
M  V30 7323 H 677.65 5.45621 -0.599049 0
M  V30 7324 H 677.911 4.35753 0.746413 0
M  V30 7325 N 676.97 0.677563 1.42291 0
M  V30 7326 C 677.933 0.0101085 2.29198 0
M  V30 7327 C 678.933 -0.726219 1.43467 0
M  V30 7328 O 680.123 -0.563807 1.64824 0
M  V30 7329 C 677.255 -0.996316 3.26016 0
M  V30 7330 H 678.448 0.775071 2.89711 0
M  V30 7331 H 676.001 0.440065 1.49977 0
M  V30 7332 H 676.736 -1.78967 2.70446 0
M  V30 7333 H 676.521 -0.471687 3.89253 0
M  V30 7334 H 678.011 -1.46167 3.91184 0
M  V30 7335 N 678.448 -1.51871 0.421078 0
M  V30 7336 C 679.396 -2.28903 -0.413066 0
M  V30 7337 C 680.39 -1.3408 -1.03532 0
M  V30 7338 O 681.596 -1.5149 -0.972146 0
M  V30 7339 H 677.971 -0.736478 -0.152003 0
M  V30 7340 H 679.942 -2.97285 0.257695 0
M  V30 7341 C 678.691 -3.13156 -1.51091 0
M  V30 7342 H 678.014 -3.85997 -1.04145 0
M  V30 7343 H 679.454 -3.7014 -2.06814 0
M  V30 7344 C 677.913 -2.27482 -2.48503 0
M  V30 7345 O 678.443 -1.92325 -3.52667 0
M  V30 7346 N 676.649 -1.91019 -2.18998 0
M  V30 7347 H 676.196 -2.19808 -1.34322 0
M  V30 7348 H 676.154 -1.3399 -2.84419 0
M  V30 7349 N 679.926 -0.151884 -1.56866 0
M  V30 7350 C 681.337 0.368128 -1.83035 0
M  V30 7351 C 681.688 1.64402 -1.07082 0
M  V30 7352 O 680.813 2.14056 -0.317647 0
M  V30 7353 C 681.408 0.674676 -3.32014 0
M  V30 7354 C 679.967 1.13919 -3.58747 0
M  V30 7355 C 679.114 0.164833 -2.7681 0
M  V30 7356 H 682.065 -0.376499 -1.54169 0
M  V30 7357 H 682.086 1.52883 -3.48435 0
M  V30 7358 H 681.598 -0.254113 -3.87267 0
M  V30 7359 H 679.699 2.08375 -3.08886 0
M  V30 7360 H 679.812 1.06179 -4.67186 0
M  V30 7361 H 678.176 0.658419 -2.46043 0
M  V30 7362 H 678.959 -0.757633 -3.34836 0
M  V30 7363 N 681.404 1.57128 0.121893 0
M  V30 7364 C 682.644 1.86517 0.836113 0
M  V30 7365 C 683.008 0.739497 1.77188 0
M  V30 7366 O 684.209 0.91508 2.52744 0
M  V30 7367 C 682.48 3.21129 1.56878 0
M  V30 7368 S 684.039 3.72143 2.32497 0
M  V30 7369 H 680.857 0.653923 0.279115 0
M  V30 7370 H 683.459 1.95271 0.0946254 0
M  V30 7371 H 682.163 4.01002 0.873255 0
M  V30 7372 H 681.694 3.15446 2.35069 0
M  V30 7373 H 683.709 3.43413 3.58164 0
M  V30 7374 N 682.882 -0.391992 1.52647 0
M  V30 7375 C 684.128 -1.139 1.67793 0
M  V30 7376 C 684.461 -1.89711 0.41514 0
M  V30 7377 O 683.736 -1.85431 -0.586979 0
M  V30 7378 C 684.019 -2.11966 2.91105 0
M  V30 7379 C 683.872 -1.39939 4.27478 0
M  V30 7380 C 685.191 -3.1243 3.09961 0
M  V30 7381 H 682.31 -0.412707 0.610608 0
M  V30 7382 H 684.952 -0.422725 1.85238 0
M  V30 7383 H 683.102 -2.73048 2.76364 0
M  V30 7384 H 684.774 -0.818439 4.53982 0
M  V30 7385 H 683.017 -0.701246 4.28095 0
M  V30 7386 H 683.688 -2.1158 5.09841 0
M  V30 7387 H 686.164 -2.61435 3.23714 0
M  V30 7388 H 685.04 -3.78294 3.97725 0
M  V30 7389 H 685.301 -3.81127 2.24042 0
M  V30 7390 N 684.36 -1.4356 -0.65026 0
M  V30 7391 C 685.307 -1.48948 -1.76304 0
M  V30 7392 C 686.277 -0.338919 -1.62605 0
M  V30 7393 O 687.462 -0.54649 -1.82806 0
M  V30 7394 C 684.602 -1.42131 -3.14472 0
M  V30 7395 C 683.715 -2.67415 -3.39284 0
M  V30 7396 C 682.85 -2.52565 -4.67316 0
M  V30 7397 C 681.889 -3.73103 -4.85243 0
M  V30 7398 N 681.026 -3.57046 -6.04535 0
M  V30 7399 H 685.866 -2.44032 -1.71034 0
M  V30 7400 H 683.403 -1.21131 -0.834601 0
M  V30 7401 H 685.361 -1.36172 -3.94351 0
M  V30 7402 H 683.991 -0.506273 -3.18805 0
M  V30 7403 H 683.043 -2.8364 -2.53481 0
M  V30 7404 H 684.355 -3.56943 -3.48415 0
M  V30 7405 H 683.509 -2.44331 -5.55326 0
M  V30 7406 H 682.248 -1.60566 -4.60511 0
M  V30 7407 H 681.253 -3.81743 -3.95667 0
M  V30 7408 H 682.478 -4.66115 -4.93876 0
M  V30 7409 H 680.424 -2.67783 -5.98856 0
M  V30 7410 H 680.341 -4.40178 -6.14638 0
M  V30 7411 H 681.609 -3.52669 -6.95158 0
M  V30 7412 O 685.877 0.793351 -1.40671 0
M  V30 7413 H 686.568 1.43915 -1.29646 0
M  V30 END ATOM
M  V30 BEGIN BOND
M  V30 END BOND
M  V30 END CTAB
M  END
$$$$
