drugbank_target|P01011 Alpha-1-antichymotrypsin (DB01593; DB14487; DB14533; DB14548)
 OpenBabel12092121083D

  0  0  0     0  0            999 V3000
M  V30 BEGIN CTAB
M  V30 COUNTS 6731 6795 0 0 0
M  V30 BEGIN ATOM
M  V30 1 H -0.908 1.98254 -0.117106 0
M  V30 2 N 0 1.576 0 0
M  V30 3 C 0.933 2.03868 1.02534 0
M  V30 4 C 1.911 0.928543 1.3348 0
M  V30 5 O 3.095 1.19667 1.45644 0
M  V30 6 C 0.222 2.43627 2.35294 0
M  V30 7 C -0.732 3.65373 2.2001 0
M  V30 8 S 0.101 5.13292 1.52614 0
M  V30 9 C 1.257 5.56322 2.86805 0
M  V30 10 H 1.49 2.90518 0.631377 0
M  V30 11 H -0.977 1.52953 0.210867 0
M  V30 12 H 0.981 2.67203 3.11629 0
M  V30 13 H -0.358 1.57376 2.7183 0
M  V30 14 H -1.165 3.90944 3.18086 0
M  V30 15 H -1.563 3.418 1.51819 0
M  V30 16 H 0.729 5.58782 3.83104 0
M  V30 17 H 1.672 6.56266 2.65933 0
M  V30 18 H 2.08 4.83886 2.90714 0
M  V30 19 N 1.4781 -0.272755 1.55222 0
M  V30 20 C 2.3881 -1.35918 1.91216 0
M  V30 21 C 3.4041 -1.54026 0.809436 0
M  V30 22 O 4.5801 -1.68148 1.10852 0
M  V30 23 C 1.6451 -2.69834 2.17693 0
M  V30 24 C 0.7061 -2.6047 3.41253 0
M  V30 25 C -0.0609 -3.88 3.66458 0
M  V30 26 O 0.1621 -4.88693 2.94169 0
M  V30 27 O -0.9039 -3.88189 4.59992 0
M  V30 28 H 2.9221 -1.0839 2.83699 0
M  V30 29 H 0.5071 -0.471301 1.41771 0
M  V30 30 H 2.3891 -3.49017 2.36147 0
M  V30 31 H 1.0641 -2.97148 1.28392 0
M  V30 32 H -0.0289 -1.79663 3.28134 0
M  V30 33 H 1.3041 -2.38106 4.30774 0
M  V30 34 N 2.9562 -1.48159 -0.537278 0
M  V30 35 C 4.3722 -1.34118 -0.865129 0
M  V30 36 C 4.5722 -0.346678 -1.98495 0
M  V30 37 O 3.6282 0.234715 -2.51407 0
M  V30 38 C 4.9412 -2.73963 -1.23954 0
M  V30 39 C 6.4892 -2.82397 -1.34984 0
M  V30 40 C 6.9642 -4.22928 -1.75772 0
M  V30 41 N 8.4552 -4.25566 -1.82887 0
M  V30 42 C 9.1902 -5.31235 -2.15817 0
M  V30 43 N 8.6862 -6.47189 -2.47222 0
M  V30 44 N 10.4792 -5.18624 -2.16761 0
M  V30 45 H 2.6302 -2.1144 0.201715 0
M  V30 46 H 4.8932 -0.947598 0.0275949 0
M  V30 47 H 4.5992 -3.48264 -0.490381 0
M  V30 48 H 4.4732 -3.0702 -2.19132 0
M  V30 49 H 6.8602 -2.08356 -2.08978 0
M  V30 50 H 6.9412 -2.5297 -0.379448 0
M  V30 51 H 6.5852 -4.97482 -1.02341 0
M  V30 52 H 6.5152 -4.49794 -2.73848 0
M  V30 53 H 9.0062 -3.41924 -1.60924 0
M  V30 54 H 9.3192 -7.23564 -2.71433 0
M  V30 55 H 7.6642 -6.50476 -2.44757 0
M  V30 56 H 10.8552 -4.27056 -1.91679 0
M  V30 57 H 11.0282 -6.01078 -2.42093 0
M  V30 58 N 4.4343 0.785586 -1.36625 0
M  V30 59 C 5.3673 1.90509 -1.25625 0
M  V30 60 C 6.3453 1.62 -0.139607 0
M  V30 61 O 7.5293 1.8591 -0.31141 0
M  V30 62 C 4.6563 3.25419 -0.939158 0
M  V30 63 C 3.7023 3.72856 -2.07077 0
M  V30 64 S 4.5353 3.88162 -3.68904 0
M  V30 65 C 5.6913 5.25942 -3.39317 0
M  V30 66 H 5.9243 1.99549 -2.20381 0
M  V30 67 H 3.4573 0.945226 -1.22085 0
M  V30 68 H 5.4153 4.03346 -0.763029 0
M  V30 69 H 4.0763 3.14099 -0.00931402 0
M  V30 70 H 3.2693 4.70624 -1.80357 0
M  V30 71 H 2.8713 3.01989 -2.20632 0
M  V30 72 H 5.1633 6.10651 -2.93447 0
M  V30 73 H 6.1063 5.57668 -4.36363 0
M  V30 74 H 6.5143 4.93224 -2.74573 0
M  V30 75 N 5.9124 1.20967 1.01018 0
M  V30 76 C 6.8424 0.988272 2.11555 0
M  V30 77 C 7.8234 -0.0849778 1.69888 0
M  V30 78 O 9.0084 0.0738202 1.9406 0
M  V30 79 C 6.1384 0.546528 3.42973 0
M  V30 80 C 5.0924 1.56375 3.9841 0
M  V30 81 C 4.4184 0.97842 5.25672 0
M  V30 82 C 5.7184 2.94922 4.31066 0
M  V30 83 H 7.4124 1.91276 2.30334 0
M  V30 84 H 4.9584 0.921073 1.1069 0
M  V30 85 H 6.9114 0.378839 4.19694 0
M  V30 86 H 5.6354 -0.413598 3.23971 0
M  V30 87 H 4.2944 1.71891 3.23804 0
M  V30 88 H 3.9424 0.0101688 5.02999 0
M  V30 89 H 3.6424 1.65784 5.63728 0
M  V30 90 H 5.1664 0.821939 6.05043 0
M  V30 91 H 6.5804 2.8288 4.9865 0
M  V30 92 H 4.9774 3.5983 4.80253 0
M  V30 93 H 6.0474 3.4616 3.39561 0
M  V30 94 N 7.3905 -1.2043 1.01659 0
M  V30 95 C 8.8015 -1.71517 0.737482 0
M  V30 96 C 9.1525 -1.81547 -0.743973 0
M  V30 97 O 8.2775 -1.47803 -1.58061 0
M  V30 98 C 8.8725 -3.11515 1.33206 0
M  V30 99 C 7.4315 -3.59912 1.10183 0
M  V30 100 C 6.5785 -2.37116 1.43776 0
M  V30 101 H 9.5295 -1.05444 1.18606 0
M  V30 102 H 9.5505 -3.73575 0.722636 0
M  V30 103 H 9.0625 -3.04182 2.41028 0
M  V30 104 H 7.1635 -3.72577 0.0412756 0
M  V30 105 H 7.2765 -4.44731 1.78188 0
M  V30 106 H 5.6405 -2.39857 0.856778 0
M  V30 107 H 6.4235 -2.32424 2.52654 0
M  V30 108 N 8.8686 -0.792821 -1.36206 0
M  V30 109 C 9.7986 -0.207853 -2.32573 0
M  V30 110 C 10.7796 0.659055 -1.56813 0
M  V30 111 O 11.9646 0.592176 -1.84951 0
M  V30 112 C 9.0946 0.655449 -3.41059 0
M  V30 113 C 8.0486 -0.111842 -4.27854 0
M  V30 114 C 7.3746 0.872274 -5.27537 0
M  V30 115 C 8.6746 -1.30299 -5.05786 0
M  V30 116 H 10.3686 -1.01294 -2.81744 0
M  V30 117 H 7.9146 -0.48854 -1.3546 0
M  V30 118 H 9.8676 1.07464 -4.07467 0
M  V30 119 H 8.5916 1.49328 -2.90463 0
M  V30 120 H 7.2506 -0.512053 -3.63006 0
M  V30 121 H 6.8986 1.70523 -4.73214 0
M  V30 122 H 6.5986 0.363291 -5.86476 0
M  V30 123 H 8.1226 1.28996 -5.96818 0
M  V30 124 H 9.5366 -0.959379 -5.65216 0
M  V30 125 H 7.9336 -1.7455 -5.74154 0
M  V30 126 H 9.0036 -2.09663 -4.37229 0
M  V30 127 N 10.3467 1.47872 -0.545128 0
M  V30 128 C 11.2767 2.32661 0.197793 0
M  V30 129 C 12.2577 1.43041 0.920504 0
M  V30 130 O 13.4427 1.71912 0.90333 0
M  V30 131 C 10.5727 3.24569 1.23582 0
M  V30 132 C 9.5267 4.23333 0.630323 0
M  V30 133 C 8.8527 5.0448 1.77211 0
M  V30 134 C 10.1527 5.20704 -0.407974 0
M  V30 135 H 11.8467 2.95024 -0.510045 0
M  V30 136 H 9.3927 1.4187 -0.246731 0
M  V30 137 H 11.3457 3.8272 1.76362 0
M  V30 138 H 10.0697 2.60236 1.97344 0
M  V30 139 H 8.7287 3.6639 0.123922 0
M  V30 140 H 8.3767 4.36561 2.49847 0
M  V30 141 H 8.0767 5.71339 1.37281 0
M  V30 142 H 9.6007 5.65487 2.3034 0
M  V30 143 H 11.0147 5.7329 0.033305 0
M  V30 144 H 9.4117 5.95699 -0.725486 0
M  V30 145 H 10.4817 4.66917 -1.30828 0
M  V30 146 N 11.8248 0.280983 1.55075 0
M  V30 147 C 12.7878 -0.590896 2.21452 0
M  V30 148 C 13.7878 -1.07682 1.19421 0
M  V30 149 O 14.9778 -0.97605 1.44288 0
M  V30 150 C 12.1098 -1.81587 2.88511 0
M  V30 151 H 13.3028 -0.0112554 2.99898 0
M  V30 152 H 10.8558 0.0316438 1.56268 0
M  V30 153 H 11.5908 -2.43587 2.14093 0
M  V30 154 H 11.3758 -1.4753 3.63287 0
M  V30 155 H 12.8658 -2.43575 3.39206 0
M  V30 156 N 13.3029 -1.57598 0.00835791 0
M  V30 157 C 14.2329 -2.1198 -0.979113 0
M  V30 158 C 15.2139 -1.03091 -1.35301 0
M  V30 159 O 16.3989 -1.30818 -1.43528 0
M  V30 160 C 13.5289 -2.62995 -2.26828 0
M  V30 161 C 12.4829 -3.76485 -2.03576 0
M  V30 162 C 11.8089 -4.13846 -3.38579 0
M  V30 163 C 13.1089 -5.0342 -1.39161 0
M  V30 164 H 14.8029 -2.94738 -0.526281 0
M  V30 165 H 12.3489 -1.41783 -0.251704 0
M  V30 166 H 14.3019 -2.99669 -2.96271 0
M  V30 167 H 13.0259 -1.7737 -2.7424 0
M  V30 168 H 11.6849 -3.40217 -1.36557 0
M  V30 169 H 11.3329 -3.25232 -3.83709 0
M  V30 170 H 11.0329 -4.90312 -3.23834 0
M  V30 171 H 12.5569 -4.53086 -4.09323 0
M  V30 172 H 13.9709 -5.37812 -1.98573 0
M  V30 173 H 12.3679 -5.84746 -1.34878 0
M  V30 174 H 13.4379 -4.83548 -0.361868 0
M  V30 175 N 14.781 0.264519 -1.55364 0
M  V30 176 C 16.029 0.993021 -1.76021 0
M  V30 177 C 16.35 1.86511 -0.569099 0
M  V30 178 O 15.62 1.91438 0.415735 0
M  V30 179 H 14.2 0.369639 -0.649135 0
M  V30 180 H 16.862 0.286707 -1.9278 0
M  V30 181 H 15.958 1.62502 -2.66457 0
M  V30 182 N 16.2591 1.48442 0.529413 0
M  V30 183 C 17.1891 1.65902 1.64313 0
M  V30 184 C 18.1701 0.507897 1.6234 0
M  V30 185 O 19.3551 0.740503 1.79528 0
M  V30 186 C 16.4851 1.69911 3.02898 0
M  V30 187 C 15.4391 2.8453 3.19729 0
M  V30 188 C 14.7651 2.73629 4.59381 0
M  V30 189 C 16.0651 4.25821 3.02447 0
M  V30 190 H 17.7591 2.5914 1.49955 0
M  V30 191 H 15.3051 1.24709 0.719982 0
M  V30 192 H 17.2581 1.80715 3.80684 0
M  V30 193 H 15.9821 0.732524 3.18279 0
M  V30 194 H 14.6411 2.73283 2.44361 0
M  V30 195 H 14.2891 1.74938 4.71599 0
M  V30 196 H 13.9891 3.50541 4.71588 0
M  V30 197 H 15.5131 2.86401 5.39265 0
M  V30 198 H 16.9271 4.37898 3.70024 0
M  V30 199 H 15.3241 5.03735 3.26146 0
M  V30 200 H 16.3941 4.42244 1.98867 0
M  V30 201 N 17.7372 -0.778329 1.37039 0
M  V30 202 C 18.6672 -1.90546 1.34962 0
M  V30 203 C 19.6482 -1.68681 0.219274 0
M  V30 204 O 20.8332 -1.89634 0.418624 0
M  V30 205 C 17.9632 -3.27734 1.14925 0
M  V30 206 C 16.9172 -3.64147 2.24902 0
M  V30 207 C 16.2432 -4.99806 1.89996 0
M  V30 208 C 17.5432 -3.71579 3.67051 0
M  V30 209 H 19.2372 -1.92541 2.29277 0
M  V30 210 H 16.7832 -0.924948 1.10366 0
M  V30 211 H 18.7362 -4.06215 1.12104 0
M  V30 212 H 17.4602 -3.26154 0.170631 0
M  V30 213 H 16.1192 -2.8797 2.26868 0
M  V30 214 H 15.7672 -4.94759 0.906796 0
M  V30 215 H 15.4672 -5.25139 2.63634 0
M  V30 216 H 16.9912 -5.80694 1.88749 0
M  V30 217 H 18.4052 -4.40227 3.67251 0
M  V30 218 H 16.8022 -4.08405 4.39688 0
M  V30 219 H 17.8722 -2.72404 4.01154 0
M  V30 220 N 19.2153 -1.21501 -1.00376 0
M  V30 221 C 20.1783 -0.976927 -2.07337 0
M  V30 222 C 21.1783 0.0525322 -1.60714 0
M  V30 223 O 22.3683 -0.184869 -1.73216 0
M  V30 224 C 19.5003 -0.473423 -3.37597 0
M  V30 225 H 20.6933 -1.92587 -2.29892 0
M  V30 226 H 18.2463 -1.03217 -1.17371 0
M  V30 227 H 18.9813 0.480379 -3.20722 0
M  V30 228 H 18.7663 -1.216 -3.72768 0
M  V30 229 H 20.2563 -0.32675 -4.1632 0
M  V30 230 N 20.6934 1.19889 -1.02296 0
M  V30 231 C 21.6564 2.21116 -0.603351 0
M  V30 232 C 22.6564 1.5738 0.329884 0
M  V30 233 O 23.8464 1.73802 0.117702 0
M  V30 234 C 20.9784 3.40696 0.117992 0
M  V30 235 H 22.1714 2.59754 -1.49893 0
M  V30 236 H 19.7244 1.33463 -0.813468 0
M  V30 237 H 20.4594 3.07569 1.0282 0
M  V30 238 H 20.2444 3.88188 -0.552511 0
M  V30 239 H 21.7344 4.15692 0.398696 0
M  V30 240 N 22.1715 0.800033 1.35784 0
M  V30 241 C 23.4195 0.376597 1.9856 0
M  V30 242 C 23.7405 -1.05812 1.63795 0
M  V30 243 O 23.0105 -1.73103 0.917171 0
M  V30 244 H 21.5905 0.136261 0.734467 0
M  V30 245 H 24.2525 1.02442 1.65806 0
M  V30 246 H 23.3485 0.477002 3.08433 0
M  V30 247 N 23.6496 -1.47581 0.552962 0
M  V30 248 C 24.8966 -2.02482 0.0273243 0
M  V30 249 C 25.2246 -1.42776 -1.32081 0
M  V30 250 O 24.4796 -0.571393 -1.87173 0
M  V30 251 C 24.7786 -3.57199 -0.119728 0
M  V30 252 C 24.4446 -4.35804 1.15697 0
M  V30 253 C 23.1066 -4.57 1.50681 0
M  V30 254 C 25.4586 -4.81167 2.00319 0
M  V30 255 C 22.7866 -5.20807 2.70142 0
M  V30 256 C 25.1386 -5.46293 3.18978 0
M  V30 257 C 23.8026 -5.65722 3.54281 0
M  V30 258 H 23.0726 -0.740933 0.00999866 0
M  V30 259 H 25.7196 -1.77302 0.72362 0
M  V30 260 H 24.0246 -3.81348 -0.89896 0
M  V30 261 H 25.7216 -3.97324 -0.541718 0
M  V30 262 H 22.3116 -4.19582 0.874561 0
M  V30 263 H 26.4956 -4.64574 1.74599 0
M  V30 264 H 21.7516 -5.34045 2.97668 0
M  V30 265 H 25.9256 -5.80407 3.84838 0
M  V30 266 H 23.5526 -6.14936 4.46942 0
M  V30 267 N 25.1277 -0.289203 -1.54924 0
M  V30 268 C 26.3677 0.324536 -2.01807 0
M  V30 269 C 26.7317 1.5199 -1.17316 0
M  V30 270 O 27.9327 2.20422 -1.53843 0
M  V30 271 C 26.2037 0.683578 -3.50802 0
M  V30 272 S 27.7627 1.28185 -4.19659 0
M  V30 273 H 24.5807 0.100236 -0.703899 0
M  V30 274 H 27.1827 -0.414325 -1.91059 0
M  V30 275 H 25.8867 -0.195073 -4.09936 0
M  V30 276 H 25.4177 1.45354 -3.65562 0
M  V30 277 H 27.4327 2.57006 -4.24456 0
M  V30 278 N 26.6058 1.57591 -0.0167156 0
M  V30 279 C 28.0168 1.79201 0.523834 0
M  V30 280 C 28.3678 0.925796 1.72984 0
M  V30 281 O 27.4928 0.132792 2.15992 0
M  V30 282 C 28.0878 3.25 0.957091 0
M  V30 283 C 26.6468 3.47648 1.44283 0
M  V30 284 C 25.7938 2.74374 0.401757 0
M  V30 285 H 28.7448 1.56831 -0.242816 0
M  V30 286 H 28.7658 3.34031 1.82219 0
M  V30 287 H 28.2778 3.88019 0.0791415 0
M  V30 288 H 26.3788 2.89866 2.34113 0
M  V30 289 H 26.4918 4.56352 1.45877 0
M  V30 290 H 24.8558 2.39485 0.867121 0
M  V30 291 H 25.6388 3.40102 -0.467513 0
M  V30 292 N 28.0839 -0.256276 1.55502 0
M  V30 293 C 29.0469 -1.30047 1.88734 0
M  V30 294 C 30.0469 -1.4154 0.763086 0
M  V30 295 O 31.2369 -1.40403 1.03115 0
M  V30 296 C 28.3689 -2.67953 2.10747 0
M  V30 297 H 29.5619 -1.01802 2.82093 0
M  V30 298 H 27.1149 -0.495134 1.4825 0
M  V30 299 H 27.8499 -3.01351 1.19825 0
M  V30 300 H 27.6349 -2.60993 2.92617 0
M  V30 301 H 29.1249 -3.43368 2.37673 0
M  V30 302 N 29.562 -1.4872 -0.521534 0
M  V30 303 C 30.808 -1.574 -1.27879 0
M  V30 304 C 31.141 -0.250817 -1.92573 0
M  V30 305 O 30.416 0.743934 -1.79711 0
M  V30 306 C 30.699 -2.71843 -2.36164 0
M  V30 307 C 30.552 -4.13893 -1.76105 0
M  V30 308 C 31.871 -2.82008 -3.37875 0
M  V30 309 H 28.99 -0.572941 -0.463581 0
M  V30 310 H 31.632 -1.80927 -0.580119 0
M  V30 311 H 29.782 -2.51914 -2.95756 0
M  V30 312 H 31.454 -4.45284 -1.20499 0
M  V30 313 H 29.697 -4.20498 -1.06601 0
M  V30 314 H 30.368 -4.89804 -2.5455 0
M  V30 315 H 32.844 -3.00086 -2.88249 0
M  V30 316 H 31.72 -3.63796 -4.11028 0
M  V30 317 H 31.981 -1.90511 -3.98946 0
M  V30 318 N 31.0401 0.771051 -1.3745 0
M  V30 319 C 31.9701 1.89827 -1.3597 0
M  V30 320 C 32.9511 1.68562 -0.228216 0
M  V30 321 O 34.1361 1.8941 -0.428675 0
M  V30 322 C 31.2661 3.2712 -1.16662 0
M  V30 323 C 30.2201 3.6295 -2.2683 0
M  V30 324 C 29.5461 4.98791 -1.92644 0
M  V30 325 C 30.8461 3.69627 -3.69017 0
M  V30 326 H 32.5401 1.91323 -2.30295 0
M  V30 327 H 30.0861 0.919082 -1.10855 0
M  V30 328 H 32.0391 4.05615 -1.14256 0
M  V30 329 H 30.7631 3.26059 -0.187926 0
M  V30 330 H 29.4221 2.86763 -2.28392 0
M  V30 331 H 29.0701 4.94271 -0.933021 0
M  V30 332 H 28.7701 5.23733 -2.66416 0
M  V30 333 H 30.2941 5.79685 -1.91826 0
M  V30 334 H 31.7081 4.38273 -3.69581 0
M  V30 335 H 30.1051 4.06067 -4.41848 0
M  V30 336 H 31.1751 2.70273 -4.02592 0
M  V30 337 N 32.5182 1.22032 0.997298 0
M  V30 338 C 33.7582 1.05375 1.75144 0
M  V30 339 C 34.1222 -0.404696 1.87686 0
M  V30 340 O 35.3232 -0.691998 2.5974 0
M  V30 341 C 33.5942 1.74046 3.12158 0
M  V30 342 S 35.1532 1.72745 4.03366 0
M  V30 343 H 31.9712 0.377449 0.602539 0
M  V30 344 H 34.5732 1.54902 1.19272 0
M  V30 345 H 33.2772 2.79332 3.00669 0
M  V30 346 H 32.8082 1.24731 3.73103 0
M  V30 347 H 34.8232 0.774015 4.90126 0
M  V30 348 N 33.9963 -1.19345 1.0293 0
M  V30 349 C 34.9463 -2.20472 0.58104 0
M  V30 350 C 35.9303 -1.56578 -0.370442 0
M  V30 351 O 37.1223 -1.75963 -0.191344 0
M  V30 352 C 34.2513 -3.43236 -0.066306 0
M  V30 353 C 33.3373 -4.14274 0.907642 0
M  V30 354 N 33.7283 -4.61492 2.07023 0
M  V30 355 C 32.0263 -4.39966 0.731177 0
M  V30 356 C 32.7273 -5.1605 2.68454 0
M  V30 357 N 31.7033 -5.06875 1.96414 0
M  V30 358 H 35.5053 -2.54659 1.46717 0
M  V30 359 H 33.0193 -1.35423 0.896345 0
M  V30 360 H 35.0163 -4.14927 -0.405068 0
M  V30 361 H 33.6763 -3.10549 -0.948118 0
M  V30 362 H 34.6873 -4.56304 2.44963 0
M  V30 363 H 31.3643 -4.17377 -0.101507 0
M  V30 364 H 32.7543 -5.6287 3.66915 0
M  V30 365 N 35.4744 -0.807222 -1.35358 0
M  V30 366 C 36.8854 -0.44876 -1.81226 0
M  V30 367 C 37.2364 1.02929 -1.67033 0
M  V30 368 O 36.3614 1.79991 -1.20133 0
M  V30 369 C 36.9564 -0.807774 -3.2903 0
M  V30 370 C 35.5154 -0.501901 -3.73039 0
M  V30 371 C 34.6624 -1.03304 -2.57339 0
M  V30 372 H 37.6134 -0.998808 -1.23327 0
M  V30 373 H 37.6344 -0.10554 -3.80354 0
M  V30 374 H 37.1464 -1.88357 -3.39328 0
M  V30 375 H 35.2474 0.565128 -3.68289 0
M  V30 376 H 35.3604 -1.03497 -4.67787 0
M  V30 377 H 33.7244 -0.455339 -2.50597 0
M  V30 378 H 34.5074 -2.11496 -2.70415 0
M  V30 379 N 36.9525 1.47285 -0.560781 0
M  V30 380 C 37.9005 2.31756 0.197942 0
M  V30 381 C 38.8945 1.43146 0.905854 0
M  V30 382 O 40.1005 1.59891 0.826733 0
M  V30 383 H 36.4755 0.747438 0.0827049 0
M  V30 384 H 38.4465 2.9359 -0.533629 0
M  V30 385 C 37.1955 3.25874 1.21249 0
M  V30 386 H 36.5185 3.94023 0.67719 0
M  V30 387 H 37.9585 3.87803 1.71419 0
M  V30 388 C 36.4175 2.49651 2.26221 0
M  V30 389 O 36.9475 2.24355 3.33208 0
M  V30 390 N 35.1535 2.10597 2.00243 0
M  V30 391 H 34.7005 2.31369 1.13252 0
M  V30 392 H 34.6585 1.59913 2.70694 0
M  V30 393 N 38.4306 0.297415 1.54768 0
M  V30 394 C 39.6556 -0.318435 2.04941 0
M  V30 395 C 40.0806 -1.4701 1.17345 0
M  V30 396 O 39.4386 -1.80436 0.176758 0
M  V30 397 C 39.4866 -0.755749 3.52592 0
M  V30 398 O 38.5906 -1.86088 3.68028 0
M  V30 399 H 37.9316 -0.062421 0.661059 0
M  V30 400 H 40.4616 0.438215 1.99852 0
M  V30 401 H 40.4716 -1.04552 3.94376 0
M  V30 402 H 39.1466 0.0867233 4.1581 0
M  V30 403 H 37.7236 -1.57193 3.38149 0
M  V30 404 N 39.9087 -1.5758 0.0250728 0
M  V30 405 C 41.3197 -1.79476 -0.514323 0
M  V30 406 C 41.6707 -0.934956 -1.72491 0
M  V30 407 O 40.7957 -0.144245 -2.15919 0
M  V30 408 C 41.3907 -3.25503 -0.939842 0
M  V30 409 C 39.9497 -3.48408 -1.42438 0
M  V30 410 C 39.0967 -2.74583 -0.387201 0
M  V30 411 H 42.0477 -1.567 0.25113 0
M  V30 412 H 42.0687 -3.34992 -1.80445 0
M  V30 413 H 41.5807 -3.88056 -0.0585628 0
M  V30 414 H 39.6817 -2.91103 -2.32572 0
M  V30 415 H 39.7947 -4.57119 -1.43455 0
M  V30 416 H 38.1587 -2.39942 -0.854409 0
M  V30 417 H 38.9417 -3.39849 0.485543 0
M  V30 418 N 41.3868 0.248026 -1.55636 0
M  V30 419 C 42.3168 1.31079 -1.93237 0
M  V30 420 C 43.2978 1.50264 -0.797174 0
M  V30 421 O 44.4828 1.62891 -1.05737 0
M  V30 422 C 41.6128 2.66575 -2.22609 0
M  V30 423 C 40.5668 2.62087 -3.3837 0
M  V30 424 C 39.8928 4.01369 -3.53281 0
M  V30 425 C 41.1928 2.19171 -4.7409 0
M  V30 426 H 42.8868 0.998556 -2.82257 0
M  V30 427 H 40.4328 0.47891 -1.35803 0
M  V30 428 H 42.3858 3.41057 -2.47503 0
M  V30 429 H 41.1098 2.99432 -1.30414 0
M  V30 430 H 39.7688 1.90063 -3.13483 0
M  V30 431 H 39.4168 4.31489 -2.58508 0
M  V30 432 H 39.1168 3.99254 -4.31127 0
M  V30 433 H 40.6408 4.77552 -3.80495 0
M  V30 434 H 42.0548 2.83384 -4.98363 0
M  V30 435 H 40.4518 2.2817 -5.5503 0
M  V30 436 H 41.5218 1.14336 -4.71227 0
M  V30 437 N 42.8649 1.48995 0.513639 0
M  V30 438 C 44.1419 1.48338 1.27495 0
M  V30 439 C 44.5219 0.204065 2.10111 0
M  V30 440 O 43.8699 -0.813881 2.13514 0
M  V30 441 C 44.0799 2.75498 2.14247 0
M  V30 442 C 45.4279 3.24484 2.73852 0
M  V30 443 O 46.4519 2.76528 2.24523 0
M  V30 444 O 45.3109 4.07974 3.6362 0
M  V30 445 H 42.4049 0.593149 0.576284 0
M  V30 446 H 44.9509 1.61246 0.528948 0
M  V30 447 H 43.7229 3.60109 1.53092 0
M  V30 448 H 43.3459 2.6539 2.96064 0
M  V30 449 N 44.343 -0.763751 1.37857 0
M  V30 450 C 45.253 -1.90817 1.36478 0
M  V30 451 C 46.269 -1.71997 0.263248 0
M  V30 452 O 47.445 -1.95095 0.499979 0
M  V30 453 C 44.51 -3.2605 1.17864 0
M  V30 454 C 43.571 -3.57467 2.3773 0
M  V30 455 C 42.804 -4.86249 2.19995 0
M  V30 456 O 43.027 -5.57884 1.18836 0
M  V30 457 O 41.961 -5.16911 3.08361 0
M  V30 458 H 45.787 -1.94933 2.32884 0
M  V30 459 H 43.372 -0.907619 1.1867 0
M  V30 460 H 45.254 -4.06924 1.09504 0
M  V30 461 H 43.929 -3.22769 0.245372 0
M  V30 462 H 42.836 -2.76796 2.51664 0
M  V30 463 H 44.169 -3.655 3.29652 0
M  V30 464 N 45.8211 -1.22559 -0.990812 0
M  V30 465 C 46.7311 -1.01394 -2.11557 0
M  V30 466 C 47.7471 0.0383962 -1.73958 0
M  V30 467 O 48.9231 -0.154787 -2.00804 0
M  V30 468 C 45.9881 -0.596569 -3.41529 0
M  V30 469 C 45.0491 -1.72276 -3.93217 0
M  V30 470 C 44.2821 -1.32521 -5.16985 0
M  V30 471 O 44.5051 -0.204909 -5.70032 0
M  V30 472 O 43.4391 -2.14247 -5.62478 0
M  V30 473 H 47.2651 -1.95633 -2.32296 0
M  V30 474 H 44.8501 -1.01172 -1.0993 0
M  V30 475 H 46.7321 -0.374263 -4.19735 0
M  V30 476 H 45.4071 0.316939 -3.22145 0
M  V30 477 H 44.3141 -1.99961 -3.16174 0
M  V30 478 H 45.6471 -2.61421 -4.17037 0
M  V30 479 N 47.2992 1.18797 -1.03562 0
M  V30 480 C 48.2472 2.24297 -0.615905 0
M  V30 481 C 49.2412 1.65643 0.354808 0
M  V30 482 O 50.4472 1.78618 0.22265 0
M  V30 483 H 46.8222 0.729909 -0.180934 0
M  V30 484 H 48.7932 2.5701 -1.5162 0
M  V30 485 C 47.5422 3.47698 0.0104735 0
M  V30 486 H 46.8652 3.93125 -0.727509 0
M  V30 487 H 48.3052 4.23159 0.266995 0
M  V30 488 C 46.7642 3.12489 1.25905 0
M  V30 489 O 47.2942 3.25761 2.35038 0
M  V30 490 N 45.5002 2.6686 1.15039 0
M  V30 491 H 45.0472 2.56261 0.262328 0
M  V30 492 H 45.0052 2.43674 1.98672 0
M  V30 493 N 48.7773 0.814389 1.34928 0
M  V30 494 C 49.7073 0.244827 2.32213 0
M  V30 495 C 50.6883 -0.634024 1.57842 0
M  V30 496 O 51.8733 -0.562676 1.8587 0
M  V30 497 C 49.0033 -0.601106 3.42058 0
M  V30 498 C 47.9573 0.179896 4.27622 0
M  V30 499 C 47.2833 -0.788237 5.28858 0
M  V30 500 C 48.5833 1.38329 5.03649 0
M  V30 501 H 50.2773 1.05763 2.80097 0
M  V30 502 H 47.8233 0.510029 1.34665 0
M  V30 503 H 49.7763 -1.00968 4.09125 0
M  V30 504 H 48.5003 -1.44688 2.92802 0
M  V30 505 H 47.1593 0.569739 3.62146 0
M  V30 506 H 46.8073 -1.62973 4.75866 0
M  V30 507 H 46.5073 -0.269942 5.8698 0
M  V30 508 H 48.0313 -1.19485 5.98795 0
M  V30 509 H 49.4453 1.04918 5.63618 0
M  V30 510 H 47.8423 1.83662 5.71304 0
M  V30 511 H 48.9123 2.16592 4.33839 0
M  V30 512 N 50.2554 -1.46986 0.568584 0
M  V30 513 C 51.4834 -2.0683 0.0539956 0
M  V30 514 C 51.8984 -1.41953 -1.24478 0
M  V30 515 O 51.2554 -0.519933 -1.74937 0
M  V30 516 C 51.3064 -3.61254 -0.133362 0
M  V30 517 O 51.0274 -4.237 1.11399 0
M  V30 518 C 52.5284 -4.37992 -0.683927 0
M  V30 519 H 49.7484 -0.669058 0.0510141 0
M  V30 520 H 52.2924 -1.88824 0.785234 0
M  V30 521 H 50.4474 -3.78735 -0.81477 0
M  V30 522 H 50.8614 -5.16388 0.91888 0
M  V30 523 H 52.3354 -5.46684 -0.764263 0
M  V30 524 H 52.8124 -4.05058 -1.69778 0
M  V30 525 H 53.4184 -4.25283 -0.0378494 0
M  V30 526 N 51.7335 -0.305618 -1.54608 0
M  V30 527 C 52.6655 0.602161 -2.21149 0
M  V30 528 C 53.6785 1.09394 -1.20569 0
M  V30 529 O 54.8675 1.0106 -1.47136 0
M  V30 530 C 51.9675 1.83692 -2.84799 0
M  V30 531 C 51.1405 1.48686 -4.11353 0
M  V30 532 C 50.1995 2.57725 -4.58764 0
M  V30 533 O 49.2255 2.22623 -5.23858 0
M  V30 534 N 50.4275 3.88346 -4.31471 0
M  V30 535 H 53.1925 0.0324966 -2.99682 0
M  V30 536 H 50.7535 -0.128021 -1.61393 0
M  V30 537 H 52.7455 2.55994 -3.13448 0
M  V30 538 H 51.3155 2.31486 -2.10078 0
M  V30 539 H 50.5355 0.596269 -3.89664 0
M  V30 540 H 51.8235 1.22842 -4.93748 0
M  V30 541 H 51.2215 4.19671 -3.79331 0
M  V30 542 H 49.7785 4.56932 -4.64818 0
M  V30 543 N 53.2116 1.57565 -0.0334293 0
M  V30 544 C 54.1216 2.13943 0.962572 0
M  V30 545 C 55.1376 1.09276 1.35406 0
M  V30 546 O 56.3136 1.41355 1.4346 0
M  V30 547 C 53.3786 2.65887 2.22497 0
M  V30 548 C 52.4396 3.85286 1.8935 0
M  V30 549 C 51.6726 4.34743 3.09571 0
M  V30 550 O 51.8956 3.83352 4.22371 0
M  V30 551 O 50.8296 5.26538 2.91618 0
M  V30 552 H 54.6556 2.99333 0.513169 0
M  V30 553 H 52.2406 1.4822 0.18743 0
M  V30 554 H 54.1226 2.99346 2.96598 0
M  V30 555 H 52.7976 1.83578 2.6661 0
M  V30 556 H 51.7046 3.56746 1.1262 0
M  V30 557 H 53.0376 4.68771 1.5005 0
M  V30 558 N 54.6897 -0.239769 1.55765 0
M  V30 559 C 55.6377 -1.31668 1.91745 0
M  V30 560 C 56.6317 -1.49462 0.797338 0
M  V30 561 O 57.8377 -1.50852 0.982021 0
M  V30 562 H 54.2127 -0.441048 0.609082 0
M  V30 563 H 56.1837 -0.985923 2.81642 0
M  V30 564 C 54.9327 -2.66368 2.2348 0
M  V30 565 H 54.2557 -2.53478 3.09175 0
M  V30 566 H 55.6957 -3.40578 2.52553 0
M  V30 567 C 54.1547 -3.20002 1.05359 0
M  V30 568 O 54.6847 -4.00538 0.305261 0
M  V30 569 N 52.8907 -2.78126 0.842292 0
M  V30 570 H 52.4377 -2.12742 1.45253 0
M  V30 571 H 52.3957 -3.14354 0.053652 0
M  V30 572 N 56.1678 -1.49265 -0.50573 0
M  V30 573 C 57.0998 -1.617 -1.62437 0
M  V30 574 C 58.1128 -0.499924 -1.54934 0
M  V30 575 O 59.3018 -0.771785 -1.60953 0
M  V30 576 C 56.4018 -1.5533 -3.01207 0
M  V30 577 C 55.5748 -2.8249 -3.33943 0
M  V30 578 C 54.6338 -2.69238 -4.52103 0
M  V30 579 O 53.6598 -3.43167 -4.5412 0
M  V30 580 N 54.8618 -1.80468 -5.51735 0
M  V30 581 H 57.6268 -2.58177 -1.52199 0
M  V30 582 H 55.1878 -1.46294 -0.693511 0
M  V30 583 H 57.1798 -1.44125 -3.78167 0
M  V30 584 H 55.7498 -0.667297 -3.05395 0
M  V30 585 H 54.9698 -3.08081 -2.45926 0
M  V30 586 H 56.2578 -3.66802 -3.5261 0
M  V30 587 H 55.6558 -1.19653 -5.52901 0
M  V30 588 H 54.2128 -1.75188 -6.27816 0
M  V30 589 N 57.6459 0.756429 -1.3826 0
M  V30 590 C 58.9229 1.50584 -1.24835 0
M  V30 591 C 59.3029 2.10556 0.151485 0
M  V30 592 O 58.6509 1.96825 1.1607 0
M  V30 593 C 58.8609 2.57448 -2.3563 0
M  V30 594 C 60.2089 3.24429 -2.73917 0
M  V30 595 O 61.2329 2.67751 -2.34921 0
M  V30 596 O 60.0919 4.26937 -3.41156 0
M  V30 597 H 57.1859 0.667664 -0.48801 0
M  V30 598 H 59.7319 0.792083 -1.5008 0
M  V30 599 H 58.5039 2.11362 -3.29305 0
M  V30 600 H 58.1269 3.36408 -2.11933 0
M  V30 601 N 59.124 1.23083 0.984299 0
M  V30 602 C 60.54 0.992637 1.24975 0
M  V30 603 C 60.74 -0.308618 1.99123 0
M  V30 604 O 59.796 -1.02905 2.30579 0
M  V30 605 C 61.109 2.19698 2.05312 0
M  V30 606 C 62.657 2.24147 2.18465 0
M  V30 607 C 63.132 3.44157 3.02192 0
M  V30 608 N 64.623 3.44372 3.09777 0
M  V30 609 C 65.358 4.33886 3.74874 0
M  V30 610 N 64.854 5.3363 4.41827 0
M  V30 611 N 66.647 4.21639 3.71721 0
M  V30 612 H 58.798 2.06731 0.487453 0
M  V30 613 H 61.061 0.906339 0.277944 0
M  V30 614 H 60.767 3.1411 1.58201 0
M  V30 615 H 60.641 2.20465 3.06064 0
M  V30 616 H 63.028 1.30277 2.64786 0
M  V30 617 H 63.109 2.27415 1.17115 0
M  V30 618 H 62.753 4.38332 2.56568 0
M  V30 619 H 62.683 3.3813 4.03702 0
M  V30 620 H 65.174 2.72201 2.62135 0
M  V30 621 H 65.487 5.98196 4.89266 0
M  V30 622 H 63.832 5.37534 4.40548 0
M  V30 623 H 67.023 3.42962 3.18582 0
M  V30 624 H 67.196 4.91604 4.22173 0
M  V30 625 N 60.6021 -1.18246 1.0419 0
M  V30 626 C 61.8501 -1.87886 0.744543 0
M  V30 627 C 62.1711 -1.8082 -0.730006 0
M  V30 628 O 61.4411 -1.22736 -1.52685 0
M  V30 629 H 60.0211 -0.695556 0.272417 0
M  V30 630 H 62.6831 -1.43494 1.31892 0
M  V30 631 H 61.7791 -2.9389 1.05049 0
M  V30 632 N 62.0802 -0.821533 -1.34494 0
M  V30 633 C 63.3082 -0.421884 -2.02553 0
M  V30 634 C 63.7232 0.971745 -1.61872 0
M  V30 635 O 63.0802 1.62864 -0.823496 0
M  V30 636 C 63.1312 -0.51285 -3.57844 0
M  V30 637 O 62.8522 -1.85155 -3.97051 0
M  V30 638 C 64.3532 -0.107921 -4.43169 0
M  V30 639 H 61.5732 -0.169482 -0.649243 0
M  V30 640 H 64.1172 -1.1093 -1.71798 0
M  V30 641 H 62.2722 0.126474 -3.87193 0
M  V30 642 H 62.6862 -1.82482 -4.91732 0
M  V30 643 H 64.1602 -0.222657 -5.51551 0
M  V30 644 H 64.6372 0.948401 -4.28838 0
M  V30 645 H 65.2432 -0.720989 -4.19144 0
M  V30 646 N 63.5583 1.46682 -0.576371 0
M  V30 647 C 64.5083 2.27278 0.181288 0
M  V30 648 C 65.4923 1.35497 0.867721 0
M  V30 649 O 66.6843 1.59717 0.762863 0
M  V30 650 C 63.8133 3.21703 1.19841 0
M  V30 651 C 62.8993 4.20969 0.51442 0
M  V30 652 N 63.2903 5.03999 -0.426407 0
M  V30 653 C 61.5883 4.39373 0.765963 0
M  V30 654 C 62.2893 5.75812 -0.825565 0
M  V30 655 N 61.2653 5.43315 -0.176116 0
M  V30 656 H 65.0673 2.88863 -0.541785 0
M  V30 657 H 62.5813 1.57455 -0.397697 0
M  V30 658 H 64.5783 3.78145 1.75533 0
M  V30 659 H 63.2383 2.61677 1.92238 0
M  V30 660 H 64.2493 5.11659 -0.8016 0
M  V30 661 H 60.9263 3.90502 1.47698 0
M  V30 662 H 62.3163 6.52577 -1.59976 0
M  V30 663 N 65.0364 0.313813 1.54444 0
M  V30 664 C 66.2824 -0.292108 2.00685 0
M  V30 665 C 66.6154 -1.52548 1.20177 0
M  V30 666 O 65.8904 -1.92452 0.281531 0
M  V30 667 C 66.1734 -0.635968 3.5444 0
M  V30 668 C 66.0264 0.607437 4.4568 0
M  V30 669 C 67.3454 -1.45747 4.15266 0
M  V30 670 H 64.4644 -0.104697 0.729526 0
M  V30 671 H 67.1064 0.428457 1.85106 0
M  V30 672 H 65.2564 -1.24986 3.67846 0
M  V30 673 H 66.9284 1.24581 4.44159 0
M  V30 674 H 65.1714 1.23822 4.15753 0
M  V30 675 H 65.8424 0.322515 5.51057 0
M  V30 676 H 68.3184 -0.938645 4.05375 0
M  V30 677 H 67.1944 -1.66683 5.2298 0
M  V30 678 H 67.4554 -2.45063 3.67963 0
M  V30 679 N 66.5145 -1.57545 0.0417849 0
M  V30 680 C 67.7915 -1.83642 -0.673433 0
M  V30 681 C 68.1715 -0.928298 -1.89594 0
M  V30 682 O 67.5195 0.0129955 -2.28496 0
M  V30 683 C 67.7295 -3.33155 -1.03964 0
M  V30 684 C 69.0775 -3.99941 -1.42592 0
M  V30 685 O 70.1015 -3.37725 -1.13226 0
M  V30 686 O 68.9605 -5.09619 -1.9736 0
M  V30 687 H 66.0545 -0.757638 -0.331533 0
M  V30 688 H 68.6005 -1.69554 0.070433 0
M  V30 689 H 67.3725 -3.9093 -0.170098 0
M  V30 690 H 66.9955 -3.52396 -1.84126 0
M  V30 691 N 67.9926 0.231505 -1.5589 0
M  V30 692 C 68.9226 1.29022 -1.94617 0
M  V30 693 C 69.9036 1.4941 -0.813067 0
M  V30 694 O 71.0886 1.6176 -1.07459 0
M  V30 695 C 68.2186 2.64199 -2.25424 0
M  V30 696 C 67.1726 2.58484 -3.41131 0
M  V30 697 C 66.4986 3.97599 -3.57518 0
M  V30 698 C 67.7986 2.1413 -4.76388 0
M  V30 699 H 69.4926 0.968563 -2.83301 0
M  V30 700 H 67.0386 0.464479 -1.36303 0
M  V30 701 H 68.9916 3.38413 -2.51107 0
M  V30 702 H 67.7156 2.98032 -1.33583 0
M  V30 703 H 66.3746 1.86727 -3.15481 0
M  V30 704 H 66.0226 4.28723 -2.6307 0
M  V30 705 H 65.7226 3.94659 -4.35337 0
M  V30 706 H 67.2466 4.7349 -3.85538 0
M  V30 707 H 68.6606 2.78083 -5.01341 0
M  V30 708 H 67.0576 2.2227 -5.57419 0
M  V30 709 H 68.1276 1.09331 -4.72414 0
M  V30 710 N 69.4707 1.49531 0.497807 0
M  V30 711 C 70.7187 1.58865 1.24926 0
M  V30 712 C 71.0397 0.278721 1.92998 0
M  V30 713 O 70.3097 -0.702144 1.82885 0
M  V30 714 H 68.8897 0.585343 0.464094 0
M  V30 715 H 71.5517 1.86174 0.57666 0
M  V30 716 H 70.6477 2.38633 2.01149 0
M  V30 717 N 70.9488 -0.749086 1.3866 0
M  V30 718 C 71.8788 -1.8764 1.38973 0
M  V30 719 C 72.8598 -1.68178 0.255004 0
M  V30 720 O 74.0448 -1.88704 0.458754 0
M  V30 721 C 71.1748 -3.25222 1.21851 0
M  V30 722 C 70.1288 -3.59295 2.32575 0
M  V30 723 C 69.4548 -4.95663 2.00555 0
M  V30 724 C 70.7548 -3.63709 3.7485 0
M  V30 725 H 72.4488 -1.87635 2.3331 0
M  V30 726 H 69.9948 -0.901329 1.12303 0
M  V30 727 H 71.9478 -4.03746 1.20695 0
M  V30 728 H 70.6718 -3.25719 0.239775 0
M  V30 729 H 69.3308 -2.83093 2.32925 0
M  V30 730 H 68.9788 -4.92724 1.01154 0
M  V30 731 H 68.6788 -5.19429 2.74714 0
M  V30 732 H 70.2028 -5.7656 2.01024 0
M  V30 733 H 71.6168 -4.32338 3.76506 0
M  V30 734 H 70.0138 -3.98986 4.48252 0
M  V30 735 H 71.0838 -2.63834 4.06841 0
M  V30 736 N 72.4269 -1.23603 -0.977757 0
M  V30 737 C 73.3899 -1.02069 -2.05218 0
M  V30 738 C 74.3899 0.0184305 -1.60789 0
M  V30 739 O 75.5799 -0.221569 -1.72785 0
M  V30 740 C 72.7119 -0.544926 -3.36517 0
M  V30 741 H 73.9049 -1.9742 -2.25755 0
M  V30 742 H 71.4579 -1.05684 -1.15155 0
M  V30 743 H 72.1929 0.412241 -3.21669 0
M  V30 744 H 71.9779 -1.2948 -3.70105 0
M  V30 745 H 73.4679 -0.414985 -4.15533 0
M  V30 746 N 73.905 1.17692 -1.04816 0
M  V30 747 C 75.13 1.92327 -0.776207 0
M  V30 748 C 75.555 1.76082 0.661581 0
M  V30 749 O 74.913 1.076 1.45917 0
M  V30 750 C 74.961 3.41539 -1.15687 0
M  V30 751 O 74.065 4.11402 -0.286775 0
M  V30 752 H 73.406 0.599735 -0.284981 0
M  V30 753 H 75.936 1.49201 -1.4 0
M  V30 754 H 75.946 3.92269 -1.12202 0
M  V30 755 H 74.621 3.52684 -2.20425 0
M  V30 756 H 73.198 3.70939 -0.381903 0
M  V30 757 N 75.3831 0.828654 1.34056 0
M  V30 758 C 76.3461 0.259927 2.27721 0
M  V30 759 C 77.3461 -0.565478 1.50529 0
M  V30 760 O 78.5361 -0.38075 1.69988 0
M  V30 761 C 75.6681 -0.634944 3.34935 0
M  V30 762 H 76.8611 1.0863 2.79534 0
M  V30 763 H 74.4141 0.600951 1.44285 0
M  V30 764 H 75.1491 -1.48416 2.88346 0
M  V30 765 H 74.9341 -0.0444999 3.92075 0
M  V30 766 H 76.4241 -1.02648 4.04788 0
M  V30 767 N 76.8612 -1.46375 0.584142 0
M  V30 768 C 77.8092 -2.32042 -0.161047 0
M  V30 769 C 78.8032 -1.44569 -0.882966 0
M  V30 770 O 80.0092 -1.61186 -0.801191 0
M  V30 771 H 76.3842 -0.748659 -0.0708033 0
M  V30 772 H 78.3552 -2.92704 0.580269 0
M  V30 773 C 77.1042 -3.27762 -1.1605 0
M  V30 774 H 76.4272 -3.95051 -0.614419 0
M  V30 775 H 77.8672 -3.90481 -1.65228 0
M  V30 776 C 76.3262 -2.53218 -2.22221 0
M  V30 777 O 76.8562 -2.29628 -3.29597 0
M  V30 778 N 75.0622 -2.13756 -1.96868 0
M  V30 779 H 74.6092 -2.33142 -1.09557 0
M  V30 780 H 74.5672 -1.642 -2.68115 0
M  V30 781 N 78.3393 -0.321999 -1.54275 0
M  V30 782 C 79.5853 0.281461 -2.00837 0
M  V30 783 C 79.9183 1.51909 -1.20985 0
M  V30 784 O 79.1933 1.923 -0.291733 0
M  V30 785 C 79.4763 0.617162 -3.54772 0
M  V30 786 C 79.3293 -0.631064 -4.45351 0
M  V30 787 C 80.6483 1.43542 -4.16033 0
M  V30 788 H 77.7673 0.100826 -0.730071 0
M  V30 789 H 80.4093 -0.438268 -1.84876 0
M  V30 790 H 78.5593 1.23034 -3.68504 0
M  V30 791 H 80.2313 -1.26934 -4.43492 0
M  V30 792 H 78.4743 -1.26025 -4.15091 0
M  V30 793 H 79.1453 -0.351735 -5.50878 0
M  V30 794 H 81.6213 0.917134 -4.05867 0
M  V30 795 H 80.4973 1.63907 -5.23856 0
M  V30 796 H 80.7583 2.43108 -3.69257 0
M  V30 797 N 79.8174 1.5752 -0.0501392 0
M  V30 798 C 81.0944 1.83996 0.663685 0
M  V30 799 C 81.4744 0.938339 1.89099 0
M  V30 800 O 80.8224 -0.00087759 2.285 0
M  V30 801 C 81.0324 3.33702 1.02196 0
M  V30 802 C 82.3804 4.00691 1.40469 0
M  V30 803 O 83.4044 3.38321 1.11433 0
M  V30 804 O 82.2634 5.10658 1.94654 0
M  V30 805 H 79.3574 0.759385 0.32751 0
M  V30 806 H 81.9034 1.69514 -0.0794238 0
M  V30 807 H 80.6754 3.91015 0.149364 0
M  V30 808 H 80.2984 3.53368 1.82255 0
M  V30 809 N 81.2955 -0.223234 1.56011 0
M  V30 810 C 82.5425 -0.947875 1.78946 0
M  V30 811 C 82.8705 -1.844 0.618608 0
M  V30 812 O 82.1255 -1.91629 -0.397093 0
M  V30 813 C 82.4245 -1.81948 3.0762 0
M  V30 814 C 82.0905 -1.07672 4.37856 0
M  V30 815 C 80.7525 -0.871544 4.73242 0
M  V30 816 C 83.1045 -0.552081 5.18268 0
M  V30 817 C 80.4325 -0.129791 5.86556 0
M  V30 818 C 82.7845 0.17632 6.32354 0
M  V30 819 C 81.4485 0.39277 6.66343 0
M  V30 820 H 80.7185 -0.346852 0.654809 0
M  V30 821 H 83.3655 -0.216171 1.90276 0
M  V30 822 H 81.6705 -2.61899 2.91404 0
M  V30 823 H 83.3675 -2.38227 3.22566 0
M  V30 824 H 79.9575 -1.24662 4.1007 0
M  V30 825 H 84.1415 -0.698076 4.91366 0
M  V30 826 H 79.3975 0.048153 6.11381 0
M  V30 827 H 83.5715 0.590367 6.93893 0
M  V30 828 H 81.1985 0.969466 7.53993 0
M  V30 829 N 82.7736 -1.49793 -0.48987 0
M  V30 830 C 83.7366 -1.66752 -1.57246 0
M  V30 831 C 84.7366 -0.538867 -1.51502 0
M  V30 832 O 85.9266 -0.805545 -1.54456 0
M  V30 833 C 83.0586 -1.67528 -2.96896 0
M  V30 834 H 84.2516 -2.63321 -1.43534 0
M  V30 835 H 81.8046 -1.38992 -0.714914 0
M  V30 836 H 82.5396 -0.725837 -3.16073 0
M  V30 837 H 82.3246 -2.49504 -3.02473 0
M  V30 838 H 83.8146 -1.82667 -3.7553 0
M  V30 839 N 84.2517 0.741722 -1.39055 0
M  V30 840 C 85.4987 1.50114 -1.35912 0
M  V30 841 C 85.8267 1.94443 0.0470937 0
M  V30 842 O 85.0817 1.66612 1.02659 0
M  V30 843 C 85.3807 2.7592 -2.27163 0
M  V30 844 C 85.0467 2.50493 -3.74919 0
M  V30 845 C 83.7087 2.43267 -4.1518 0
M  V30 846 C 86.0607 2.28585 -4.684 0
M  V30 847 C 83.3887 2.12166 -5.46994 0
M  V30 848 C 85.7407 1.99002 -6.00484 0
M  V30 849 C 84.4047 1.90241 -6.39816 0
M  V30 850 H 83.6747 0.549306 -0.497336 0
M  V30 851 H 86.3217 0.851896 -1.71508 0
M  V30 852 H 84.6267 3.45553 -1.84663 0
M  V30 853 H 86.3237 3.33923 -2.22028 0
M  V30 854 H 82.9137 2.56992 -3.43006 0
M  V30 855 H 87.0977 2.33139 -4.38132 0
M  V30 856 H 82.3537 2.03901 -5.76398 0
M  V30 857 H 86.5277 1.81057 -6.72452 0
M  V30 858 H 84.1547 1.65907 -7.41875 0
M  V30 859 N 85.7298 1.2412 0.971189 0
M  V30 860 C 86.9548 1.10667 1.75407 0
M  V30 861 C 87.3798 -0.337048 1.85056 0
M  V30 862 O 86.7378 -1.24396 1.31892 0
M  V30 863 C 86.7858 1.74726 3.15441 0
M  V30 864 O 85.8898 1.01566 3.99697 0
M  V30 865 H 85.2308 0.387341 0.539317 0
M  V30 866 H 87.7608 1.64358 1.2185 0
M  V30 867 H 87.7708 1.80341 3.6598 0
M  V30 868 H 86.4458 2.79773 3.07734 0
M  V30 869 H 85.0228 1.03713 3.58187 0
M  V30 870 N 87.2079 -1.17134 1.05439 0
M  V30 871 C 88.1379 -2.2342 0.678649 0
M  V30 872 C 89.1189 -1.66971 -0.32476 0
M  V30 873 O 90.3039 -1.93149 -0.201802 0
M  V30 874 C 87.4339 -3.47256 0.0552099 0
M  V30 875 C 86.3879 -4.16543 0.98365 0
M  V30 876 C 85.7139 -5.34231 0.223961 0
M  V30 877 C 87.0139 -4.68495 2.3089 0
M  V30 878 H 88.7079 -2.55105 1.56722 0
M  V30 879 H 86.2539 -1.2262 0.754998 0
M  V30 880 H 88.2069 -4.20828 -0.21946 0
M  V30 881 H 86.9309 -3.14846 -0.868319 0
M  V30 882 H 85.5899 -3.44887 1.24293 0
M  V30 883 H 85.2379 -4.98071 -0.702412 0
M  V30 884 H 84.9379 -5.81527 0.842627 0
M  V30 885 H 86.4619 -6.10585 -0.0433671 0
M  V30 886 H 87.8759 -5.33691 2.09396 0
M  V30 887 H 86.2729 -5.26379 2.88176 0
M  V30 888 H 87.3429 -3.85169 2.94572 0
M  V30 889 N 88.686 -0.835752 -1.33615 0
M  V30 890 C 89.916 -0.442701 -2.01801 0
M  V30 891 C 90.324 0.959807 -1.63047 0
M  V30 892 O 89.667 1.63468 -0.838088 0
M  V30 893 C 89.729 -0.480125 -3.56279 0
M  V30 894 C 89.393 -1.8382 -4.18401 0
M  V30 895 C 90.39 -2.80097 -4.37998 0
M  V30 896 C 88.075 -2.13019 -4.54894 0
M  V30 897 C 90.069 -4.03736 -4.9323 0
M  V30 898 C 87.756 -3.36916 -5.09834 0
M  V30 899 C 88.754 -4.32091 -5.28948 0
M  V30 900 O 88.442 -5.53797 -5.82721 0
M  V30 901 H 88.174 -0.17441 -0.653114 0
M  V30 902 H 90.728 -1.129 -1.71589 0
M  V30 903 H 88.958 0.262931 -3.85805 0
M  V30 904 H 90.647 -0.105335 -4.05763 0
M  V30 905 H 91.413 -2.58838 -4.10156 0
M  V30 906 H 87.292 -1.39733 -4.39313 0
M  V30 907 H 90.836 -4.78034 -5.08064 0
M  V30 908 H 86.733 -3.58033 -5.37106 0
M  V30 909 H 87.501 -5.55494 -6.0114 0
M  V30 910 N 90.1641 1.46063 -0.591896 0
M  V30 911 C 91.1111 2.30399 0.136069 0
M  V30 912 C 92.0811 1.41169 0.875238 0
M  V30 913 O 93.2661 1.70112 0.86409 0
M  V30 914 C 90.4061 3.25804 1.13781 0
M  V30 915 C 89.5191 4.30134 0.401137 0
M  V30 916 C 88.6541 5.12659 1.39121 0
M  V30 917 C 87.6931 6.0873 0.641462 0
M  V30 918 N 86.8301 6.8409 1.58004 0
M  V30 919 H 91.6701 2.92118 -0.589144 0
M  V30 920 H 89.2071 1.43959 -0.302342 0
M  V30 921 H 91.1651 3.79569 1.73156 0
M  V30 922 H 89.7951 2.65872 1.83062 0
M  V30 923 H 88.8471 3.79152 -0.307826 0
M  V30 924 H 90.1591 4.98458 -0.184565 0
M  V30 925 H 89.3131 5.70747 2.05749 0
M  V30 926 H 88.0521 4.44316 2.01084 0
M  V30 927 H 87.0571 5.49786 -0.0385419 0
M  V30 928 H 88.2821 6.79095 0.0270945 0
M  V30 929 H 86.2281 6.18449 2.18761 0
M  V30 930 H 86.1451 7.48709 1.04738 0
M  V30 931 H 87.4131 7.4673 2.23639 0
M  V30 932 N 91.6422 0.330177 1.54103 0
M  V30 933 C 92.5742 -0.566902 2.22079 0
M  V30 934 C 93.5872 -1.07462 1.22294 0
M  V30 935 O 94.7762 -0.987065 1.48726 0
M  V30 936 C 91.8762 -1.79138 2.87685 0
M  V30 937 C 91.0492 -1.42123 4.13666 0
M  V30 938 C 90.1082 -2.50394 4.62806 0
M  V30 939 O 89.1342 -2.14261 5.27334 0
M  V30 940 N 90.3362 -3.81433 4.37595 0
M  V30 941 H 93.1012 0.0151844 2.99696 0
M  V30 942 H 90.6622 0.153681 1.61169 0
M  V30 943 H 92.6542 -2.50975 3.1748 0
M  V30 944 H 91.2242 -2.28115 2.13734 0
M  V30 945 H 90.4442 -0.534201 3.90564 0
M  V30 946 H 91.7322 -1.14971 4.9564 0
M  V30 947 H 91.1302 -4.13584 3.8596 0
M  V30 948 H 89.6872 -4.4948 4.72029 0
M  V30 949 N 93.1203 -1.57491 0.0584922 0
M  V30 950 C 94.0503 -2.14988 -0.911178 0
M  V30 951 C 95.0313 -1.07343 -1.31952 0
M  V30 952 O 96.2163 -1.35318 -1.39294 0
M  V30 953 C 93.3463 -2.70078 -2.18347 0
M  V30 954 C 92.3003 -3.82771 -1.91495 0
M  V30 955 C 91.6263 -4.24408 -3.25241 0
M  V30 956 C 92.9263 -5.07592 -1.23075 0
M  V30 957 H 94.6203 -2.96263 -0.432246 0
M  V30 958 H 92.1663 -1.42512 -0.206469 0
M  V30 959 H 94.1193 -3.08943 -2.86587 0
M  V30 960 H 92.8433 -1.86005 -2.68458 0
M  V30 961 H 91.5023 -3.44389 -1.25664 0
M  V30 962 H 91.1503 -3.37275 -3.73168 0
M  V30 963 H 90.8503 -5.00366 -3.08071 0
M  V30 964 H 92.3743 -4.65879 -3.94701 0
M  V30 965 H 93.7883 -5.43857 -1.81362 0
M  V30 966 H 92.1853 -5.88741 -1.16207 0
M  V30 967 H 93.2553 -4.84454 -0.207847 0
M  V30 968 N 94.5984 0.214957 -1.56127 0
M  V30 969 C 95.8444 0.939762 -1.79712 0
M  V30 970 C 96.1774 1.83723 -0.629247 0
M  V30 971 O 95.4524 1.90925 0.371197 0
M  V30 972 C 95.7354 1.77306 -3.13424 0
M  V30 973 C 95.5884 0.90164 -4.40671 0
M  V30 974 C 96.9074 2.74956 -3.43638 0
M  V30 975 H 94.0264 0.340214 -0.653776 0
M  V30 976 H 96.6684 0.20824 -1.88855 0
M  V30 977 H 94.8184 2.39673 -3.0576 0
M  V30 978 H 96.4904 0.294206 -4.60361 0
M  V30 979 H 94.7334 0.207368 -4.33304 0
M  V30 980 H 95.4044 1.51923 -5.30682 0
M  V30 981 H 97.8804 2.22724 -3.51473 0
M  V30 982 H 96.7564 3.30358 -4.38355 0
M  V30 983 H 97.0174 3.53023 -2.66134 0
M  V30 984 N 96.0765 1.50051 0.48192 0
M  V30 985 C 97.0065 1.71046 1.58951 0
M  V30 986 C 97.9875 0.559288 1.60642 0
M  V30 987 O 99.1725 0.797243 1.77081 0
M  V30 988 C 96.3025 1.79462 2.97339 0
M  V30 989 C 95.2565 2.94558 3.10515 0
M  V30 990 C 94.5825 2.88105 4.50444 0
M  V30 991 C 95.8825 4.35227 2.88747 0
M  V30 992 H 97.5765 2.6378 1.41635 0
M  V30 993 H 95.1225 1.26936 0.679942 0
M  V30 994 H 97.0755 1.92734 3.74742 0
M  V30 995 H 95.7995 0.833412 3.15788 0
M  V30 996 H 94.4585 2.80918 2.35543 0
M  V30 997 H 94.1065 1.89853 4.65795 0
M  V30 998 H 93.8065 3.65366 4.60197 0
M  V30 999 H 95.3305 3.03412 5.29881 0
M  V30 1000 H 96.7445 4.49449 3.55905 0
M  V30 1001 H 95.1415 5.13856 3.09955 0
M  V30 1002 H 96.2115 4.48347 1.84696 0
M  V30 1003 N 97.5546 -0.734337 1.39446 0
M  V30 1004 C 98.5016 -1.84835 1.38219 0
M  V30 1005 C 99.4716 -1.64331 0.24179 0
M  V30 1006 O 100.657 -1.85728 0.437002 0
M  V30 1007 C 97.7966 -3.22355 1.23212 0
M  V30 1008 C 96.9096 -3.5456 2.46801 0
M  V30 1009 C 96.0446 -4.81485 2.24377 0
M  V30 1010 C 95.0836 -5.06536 3.43639 0
M  V30 1011 N 94.2206 -6.24665 3.20528 0
M  V30 1012 H 99.0606 -1.85219 2.33448 0
M  V30 1013 H 96.5976 -0.905039 1.15963 0
M  V30 1014 H 98.5556 -4.0174 1.12522 0
M  V30 1015 H 97.1856 -3.21248 0.316121 0
M  V30 1016 H 96.2376 -2.69872 2.68092 0
M  V30 1017 H 97.5496 -3.6899 3.3563 0
M  V30 1018 H 96.7036 -5.68852 2.10933 0
M  V30 1019 H 95.4426 -4.6923 1.32944 0
M  V30 1020 H 94.4476 -4.17632 3.5758 0
M  V30 1021 H 95.6726 -5.20676 4.35974 0
M  V30 1022 H 93.6186 -6.13696 2.3176 0
M  V30 1023 H 93.5356 -6.39685 4.02913 0
M  V30 1024 H 94.8036 -7.14868 3.10779 0
M  V30 1025 N 99.0327 -1.24633 -0.964593 0
M  V30 1026 C 99.9957 -1.0424 -2.04124 0
M  V30 1027 C 100.996 0.00137563 -1.608 0
M  V30 1028 O 102.186 -0.239883 -1.7254 0
M  V30 1029 C 99.3177 -0.580588 -3.3592 0
M  V30 1030 H 100.511 -1.99803 -2.23649 0
M  V30 1031 H 98.0637 -1.06899 -1.14027 0
M  V30 1032 H 98.7987 0.3781 -3.22088 0
M  V30 1033 H 98.5837 -1.33398 -3.6871 0
M  V30 1034 H 100.074 -0.459034 -4.15069 0
M  V30 1035 N 100.511 1.16574 -1.06058 0
M  V30 1036 C 101.922 1.68662 -0.800632 0
M  V30 1037 C 102.273 1.84184 0.67608 0
M  V30 1038 O 101.398 1.53568 1.52466 0
M  V30 1039 C 101.993 3.06356 -1.44676 0
M  V30 1040 C 100.552 3.55575 -1.23465 0
M  V30 1041 C 99.6988 2.31616 -1.52477 0
M  V30 1042 H 102.65 1.00969 -1.22438 0
M  V30 1043 H 102.671 3.70636 -0.860788 0
M  V30 1044 H 102.183 2.95027 -2.52152 0
M  V30 1045 H 100.284 3.72167 -0.179527 0
M  V30 1046 H 100.397 4.37812 -1.94571 0
M  V30 1047 H 98.7608 2.36512 -0.945209 0
M  V30 1048 H 99.5438 2.22887 -2.61106 0
M  V30 1049 N 101.989 0.842826 1.3317 0
M  V30 1050 C 103.266 0.362216 1.92217 0
M  V30 1051 C 103.646 -1.15289 1.76838 0
M  V30 1052 O 102.994 -1.96914 1.15919 0
M  V30 1053 C 103.204 0.813495 3.39387 0
M  V30 1054 C 104.552 0.823804 4.16532 0
M  V30 1055 O 105.576 0.757358 3.48055 0
M  V30 1056 O 104.435 0.915193 5.38782 0
M  V30 1057 H 101.529 0.103317 0.820521 0
M  V30 1058 H 104.075 0.928942 1.42017 0
M  V30 1059 H 102.847 1.85624 3.4447 0
M  V30 1060 H 102.47 0.223561 3.96971 0
M  V30 1061 N 103.467 -1.45747 0.599634 0
M  V30 1062 C 104.414 -2.30467 -0.123849 0
M  V30 1063 C 105.384 -1.41632 -0.86774 0
M  V30 1064 O 106.569 -1.70568 -0.855056 0
M  V30 1065 C 103.709 -3.26402 -1.12051 0
M  V30 1066 C 102.822 -4.3034 -0.37832 0
M  V30 1067 C 101.957 -5.13389 -1.364 0
M  V30 1068 C 100.996 -6.09061 -0.609171 0
M  V30 1069 N 100.133 -6.84918 -1.54374 0
M  V30 1070 H 104.973 -2.91802 0.604627 0
M  V30 1071 H 102.51 -1.43797 0.309972 0
M  V30 1072 H 104.468 -3.80482 -1.7114 0
M  V30 1073 H 103.098 -2.66839 -1.8165 0
M  V30 1074 H 102.15 -3.78984 0.327929 0
M  V30 1075 H 103.462 -4.98354 0.210997 0
M  V30 1076 H 102.616 -5.7183 -2.02719 0
M  V30 1077 H 101.355 -4.45376 -1.98725 0
M  V30 1078 H 100.36 -5.49758 0.0676979 0
M  V30 1079 H 101.585 -6.79099 0.00891991 0
M  V30 1080 H 99.531 -6.19601 -2.15478 0
M  V30 1081 H 99.448 -7.49254 -1.00766 0
M  V30 1082 H 100.716 -7.47906 -2.19676 0
M  V30 1083 N 104.945 -0.338344 -1.53925 0
M  V30 1084 C 105.893 0.536231 -2.26335 0
M  V30 1085 C 106.887 1.1063 -1.28286 0
M  V30 1086 O 108.093 1.05264 -1.46012 0
M  V30 1087 H 104.468 0.191602 -0.727181 0
M  V30 1088 H 106.439 -0.0965747 -2.98244 0
M  V30 1089 C 105.188 1.67803 -3.04528 0
M  V30 1090 H 104.511 1.24864 -3.79801 0
M  V30 1091 H 105.951 2.26526 -3.58416 0
M  V30 1092 C 104.41 2.60439 -2.13712 0
M  V30 1093 O 104.94 3.6255 -1.72975 0
M  V30 1094 N 103.146 2.29006 -1.78898 0
M  V30 1095 H 102.693 1.46011 -2.12223 0
M  V30 1096 H 102.651 2.91248 -1.18416 0
M  V30 1097 N 106.423 1.57458 -0.0668435 0
M  V30 1098 C 107.669 1.93587 0.6043 0
M  V30 1099 C 108.002 0.946722 1.69561 0
M  V30 1100 O 107.277 -0.0248516 1.94484 0
M  V30 1101 C 107.56 3.40014 1.18585 0
M  V30 1102 C 107.413 4.49685 0.101529 0
M  V30 1103 C 108.732 3.87154 2.09284 0
M  V30 1104 H 105.851 0.703958 0.218202 0
M  V30 1105 H 108.493 1.89542 -0.131804 0
M  V30 1106 H 106.643 3.43592 1.81319 0
M  V30 1107 H 108.315 4.5823 -0.531279 0
M  V30 1108 H 106.558 4.30059 -0.568487 0
M  V30 1109 H 107.229 5.49266 0.54874 0
M  V30 1110 H 109.705 3.85551 1.56491 0
M  V30 1111 H 108.581 4.90231 2.46911 0
M  V30 1112 H 108.842 3.2481 2.99918 0
M  V30 1113 N 107.901 -0.206675 1.56239 0
M  V30 1114 C 109.15 -0.926964 1.79138 0
M  V30 1115 C 109.463 -1.84901 0.638043 0
M  V30 1116 O 110.669 -2.60906 0.751033 0
M  V30 1117 C 109.125 -1.6986 3.17294 0
M  V30 1118 C 108.733 -0.821956 4.40395 0
M  V30 1119 C 110.477 -2.40922 3.4951 0
M  V30 1120 C 108.384 -1.59179 5.69575 0
M  V30 1121 H 107.314 -0.349864 0.667915 0
M  V30 1122 H 109.965 -0.180487 1.8261 0
M  V30 1123 H 108.347 -2.48853 3.08039 0
M  V30 1124 H 109.521 -0.0715019 4.60745 0
M  V30 1125 H 107.836 -0.222741 4.15804 0
M  V30 1126 H 110.433 -2.99047 4.43255 0
M  V30 1127 H 110.776 -3.14542 2.72707 0
M  V30 1128 H 111.309 -1.68905 3.60161 0
M  V30 1129 H 108.048 -0.898589 6.49312 0
M  V30 1130 H 107.568 -2.31648 5.53262 0
M  V30 1131 H 109.247 -2.14862 6.10281 0
M  V30 1132 N 109.379 -1.50304 -0.473955 0
M  V30 1133 C 110.626 -1.6115 -1.22625 0
M  V30 1134 C 110.954 -0.310517 -1.92005 0
M  V30 1135 O 110.209 0.703419 -1.82621 0
M  V30 1136 C 110.508 -2.73938 -2.29549 0
M  V30 1137 C 110.174 -4.14519 -1.7744 0
M  V30 1138 C 108.836 -4.5277 -1.62949 0
M  V30 1139 C 111.188 -5.02392 -1.3875 0
M  V30 1140 C 108.516 -5.76639 -1.08187 0
M  V30 1141 C 110.868 -6.26805 -0.854309 0
M  V30 1142 C 109.532 -6.63861 -0.696011 0
M  V30 1143 H 108.802 -0.589691 -0.448715 0
M  V30 1144 H 111.449 -1.84228 -0.522705 0
M  V30 1145 H 109.754 -2.44937 -3.05799 0
M  V30 1146 H 111.451 -2.79534 -2.87509 0
M  V30 1147 H 108.041 -3.8434 -1.89685 0
M  V30 1148 H 112.225 -4.73474 -1.4878 0
M  V30 1149 H 107.481 -6.04027 -0.946666 0
M  V30 1150 H 111.655 -6.94258 -0.545843 0
M  V30 1151 H 109.282 -7.59722 -0.26952 0
M  V30 1152 N 110.857 0.726932 -1.39834 0
M  V30 1153 C 112.082 1.52121 -1.40976 0
M  V30 1154 C 112.507 1.88098 -0.00826029 0
M  V30 1155 O 111.865 1.52479 0.980807 0
M  V30 1156 C 111.913 2.78021 -2.29644 0
M  V30 1157 O 111.017 3.74272 -1.73188 0
M  V30 1158 H 110.358 0.45908 -0.479731 0
M  V30 1159 H 112.888 0.896207 -1.83927 0
M  V30 1160 H 112.898 3.26671 -2.44438 0
M  V30 1161 H 111.573 2.51169 -3.31492 0
M  V30 1162 H 110.15 3.33073 -1.6768 0
M  V30 1163 N 112.336 1.25143 0.95797 0
M  V30 1164 C 113.747 1.08851 1.51685 0
M  V30 1165 C 114.098 -0.33687 1.93286 0
M  V30 1166 O 113.223 -1.22644 1.7829 0
M  V30 1167 C 113.818 1.96978 2.75654 0
M  V30 1168 C 112.377 1.84881 3.27866 0
M  V30 1169 C 111.524 1.91329 2.0072 0
M  V30 1170 H 114.475 1.38478 0.77522 0
M  V30 1171 H 114.496 1.5078 3.4935 0
M  V30 1172 H 114.008 3.00712 2.45345 0
M  V30 1173 H 112.109 0.840182 3.63004 0
M  V30 1174 H 112.222 2.6951 3.96107 0
M  V30 1175 H 110.586 1.35174 2.15871 0
M  V30 1176 H 111.369 2.96661 1.72764 0
M  V30 1177 N 113.814 -1.1601 1.06675 0
M  V30 1178 C 114.744 -2.22688 0.702307 0
M  V30 1179 C 115.725 -1.67306 -0.307032 0
M  V30 1180 O 116.91 -1.93352 -0.181305 0
M  V30 1181 C 114.04 -3.47178 0.092038 0
M  V30 1182 C 112.994 -4.15477 1.02777 0
M  V30 1183 C 112.32 -5.33963 0.28061 0
M  V30 1184 C 113.62 -4.66019 2.35846 0
M  V30 1185 H 115.314 -2.53429 1.59419 0
M  V30 1186 H 112.86 -1.21813 0.767961 0
M  V30 1187 H 114.813 -4.21037 -0.174814 0
M  V30 1188 H 113.537 -3.15749 -0.834877 0
M  V30 1189 H 112.196 -3.43549 1.27944 0
M  V30 1190 H 111.844 -4.98788 -0.649545 0
M  V30 1191 H 111.544 -5.806 0.904258 0
M  V30 1192 H 113.068 -6.10596 0.021396 0
M  V30 1193 H 114.482 -5.3144 2.15045 0
M  V30 1194 H 112.879 -5.23293 2.93743 0
M  V30 1195 H 113.949 -3.82023 2.98641 0
M  V30 1196 N 115.292 -0.849877 -1.32721 0
M  V30 1197 C 116.517 -0.463856 -2.02146 0
M  V30 1198 C 116.942 0.930449 -1.63476 0
M  V30 1199 O 116.3 1.61033 -0.832952 0
M  V30 1200 C 116.348 -0.604955 -3.55489 0
M  V30 1201 O 115.452 0.36425 -4.10788 0
M  V30 1202 H 114.793 -0.187046 -0.637111 0
M  V30 1203 H 117.323 -1.14775 -1.69375 0
M  V30 1204 H 117.333 -0.490696 -4.05038 0
M  V30 1205 H 116.008 -1.62174 -3.82978 0
M  V30 1206 H 114.585 0.206628 -3.72327 0
M  V30 1207 N 116.77 1.45427 -0.607355 0
M  V30 1208 C 118.019 2.01452 -0.100036 0
M  V30 1209 C 118.332 1.48159 1.27704 0
M  V30 1210 O 119.538 1.96159 1.87707 0
M  V30 1211 C 117.994 3.59672 -0.128158 0
M  V30 1212 C 117.602 4.21962 -1.50507 0
M  V30 1213 C 119.346 4.23262 0.323932 0
M  V30 1214 C 117.253 5.72333 -1.48959 0
M  V30 1215 H 116.183 0.75325 -0.0336299 0
M  V30 1216 H 118.834 1.66901 -0.76265 0
M  V30 1217 H 117.216 3.91411 0.601105 0
M  V30 1218 H 118.39 4.01796 -2.25602 0
M  V30 1219 H 116.705 3.70565 -1.89923 0
M  V30 1220 H 119.302 5.33522 0.354691 0
M  V30 1221 H 119.645 3.93921 1.34656 0
M  V30 1222 H 120.178 3.96239 -0.352056 0
M  V30 1223 H 116.917 6.06373 -2.48981 0
M  V30 1224 H 116.437 5.94691 -0.781214 0
M  V30 1225 H 118.116 6.35525 -1.21313 0
M  V30 1226 N 118.248 0.346503 1.53744 0
M  V30 1227 C 119.473 -0.253074 2.0585 0
M  V30 1228 C 119.898 -1.43202 1.21962 0
M  V30 1229 O 119.256 -1.79783 0.234073 0
M  V30 1230 C 119.304 -0.643193 3.54817 0
M  V30 1231 O 118.408 -1.74286 3.73762 0
M  V30 1232 H 117.749 -0.0413583 0.662711 0
M  V30 1233 H 120.279 0.501574 1.98357 0
M  V30 1234 H 120.289 -0.919526 3.97503 0
M  V30 1235 H 118.964 0.218966 4.15323 0
M  V30 1236 H 117.541 -1.46356 3.42979 0
M  V30 1237 N 119.726 -1.57421 0.075193 0
M  V30 1238 C 120.954 -1.97946 -0.602076 0
M  V30 1239 C 121.369 -0.953674 -1.62943 0
M  V30 1240 O 120.726 0.0592551 -1.82404 0
M  V30 1241 C 120.777 -3.38546 -1.26762 0
M  V30 1242 O 120.498 -4.37195 -0.281376 0
M  V30 1243 C 121.999 -3.93966 -2.03239 0
M  V30 1244 H 119.219 -0.650918 -0.162931 0
M  V30 1245 H 121.763 -2.03959 0.148601 0
M  V30 1246 H 119.918 -3.33609 -1.96936 0
M  V30 1247 H 120.332 -5.18975 -0.759267 0
M  V30 1248 H 121.806 -4.94555 -2.45193 0
M  V30 1249 H 122.283 -3.30693 -2.8903 0
M  V30 1250 H 122.889 -4.02315 -1.37924 0
M  V30 1251 N 121.204 0.198386 -1.56346 0
M  V30 1252 C 122.167 1.22952 -1.93431 0
M  V30 1253 C 123.167 1.38611 -0.815092 0
M  V30 1254 O 124.357 1.36479 -1.08255 0
M  V30 1255 C 121.489 2.59946 -2.20546 0
M  V30 1256 H 122.682 0.912626 -2.85677 0
M  V30 1257 H 120.235 0.43977 -1.49986 0
M  V30 1258 H 120.97 2.96696 -1.30927 0
M  V30 1259 H 120.755 2.49953 -3.02102 0
M  V30 1260 H 122.245 3.3431 -2.50253 0
M  V30 1261 N 122.682 1.50554 0.465978 0
M  V30 1262 C 123.612 1.72722 1.57128 0
M  V30 1263 C 124.593 0.576294 1.6004 0
M  V30 1264 O 125.778 0.81598 1.76225 0
M  V30 1265 C 122.908 1.82605 2.95419 0
M  V30 1266 C 121.862 2.97835 3.07373 0
M  V30 1267 C 121.188 2.92867 4.47363 0
M  V30 1268 C 122.488 4.38265 2.84114 0
M  V30 1269 H 124.182 2.65267 1.38829 0
M  V30 1270 H 121.728 1.2765 0.666441 0
M  V30 1271 H 123.681 1.96698 3.72677 0
M  V30 1272 H 122.405 0.866858 3.14886 0
M  V30 1273 H 121.064 2.83401 2.3255 0
M  V30 1274 H 120.712 1.94783 4.63755 0
M  V30 1275 H 120.412 3.70227 4.56296 0
M  V30 1276 H 121.936 3.09015 5.26633 0
M  V30 1277 H 123.35 4.53198 3.51118 0
M  V30 1278 H 121.747 5.17115 3.04487 0
M  V30 1279 H 122.817 4.50281 1.7993 0
M  V30 1280 N 124.16 -0.719506 1.40217 0
M  V30 1281 C 125.123 -1.8153 1.39927 0
M  V30 1282 C 126.123 -1.58095 0.293723 0
M  V30 1283 O 127.313 -1.65209 0.552429 0
M  V30 1284 C 124.445 -3.19561 1.18716 0
M  V30 1285 H 125.638 -1.83186 2.37451 0
M  V30 1286 H 123.191 -0.924746 1.26008 0
M  V30 1287 H 123.926 -3.23557 0.219366 0
M  V30 1288 H 123.711 -3.3797 1.98793 0
M  V30 1289 H 125.201 -3.99598 1.21291 0
M  V30 1290 N 125.638 -1.25649 -0.95132 0
M  V30 1291 C 126.885 -1.10594 -1.69633 0
M  V30 1292 C 127.213 0.352515 -1.91279 0
M  V30 1293 O 126.468 1.27601 -1.4838 0
M  V30 1294 C 126.767 -1.80909 -3.08231 0
M  V30 1295 C 126.433 -3.30825 -3.06375 0
M  V30 1296 C 125.095 -3.71722 -3.05576 0
M  V30 1297 C 127.447 -4.26589 -2.99452 0
M  V30 1298 C 124.775 -5.06788 -2.95606 0
M  V30 1299 C 127.127 -5.61683 -2.91024 0
M  V30 1300 C 125.791 -6.01904 -2.88562 0
M  V30 1301 H 125.061 -0.404691 -0.620731 0
M  V30 1302 H 127.708 -1.55964 -1.11119 0
M  V30 1303 H 126.013 -1.27979 -3.70309 0
M  V30 1304 H 127.71 -1.6671 -3.64704 0
M  V30 1305 H 124.3 -2.98287 -3.07771 0
M  V30 1306 H 128.484 -3.95982 -2.99185 0
M  V30 1307 H 123.74 -5.37126 -2.92071 0
M  V30 1308 H 127.914 -6.35578 -2.84629 0
M  V30 1309 H 125.541 -7.06521 -2.80593 0
M  V30 1310 N 127.117 1.15442 -1.07289 0
M  V30 1311 C 128.047 2.22312 -0.714107 0
M  V30 1312 C 129.028 1.67467 0.298155 0
M  V30 1313 O 130.213 1.93445 0.171048 0
M  V30 1314 C 127.343 3.47124 -0.110448 0
M  V30 1315 C 126.297 4.14926 -1.04979 0
M  V30 1316 C 125.623 5.33807 -0.308924 0
M  V30 1317 C 126.923 4.64762 -2.38314 0
M  V30 1318 H 128.617 2.5258 -1.6076 0
M  V30 1319 H 126.163 1.21404 -0.77441 0
M  V30 1320 H 128.116 4.21124 0.152482 0
M  V30 1321 H 126.84 3.16187 0.81812 0
M  V30 1322 H 125.499 3.42866 -1.29764 0
M  V30 1323 H 125.147 4.99126 0.623084 0
M  V30 1324 H 124.847 5.80113 -0.935036 0
M  V30 1325 H 126.371 6.10576 -0.0537771 0
M  V30 1326 H 127.785 5.30292 -2.1786 0
M  V30 1327 H 126.182 5.21728 -2.96514 0
M  V30 1328 H 127.252 3.80434 -3.00663 0
M  V30 1329 N 128.595 0.856903 1.32268 0
M  V30 1330 C 129.82 0.474569 2.01897 0
M  V30 1331 C 130.245 -0.921766 1.63967 0
M  V30 1332 O 129.603 -1.60589 0.84148 0
M  V30 1333 C 129.651 0.623799 3.55164 0
M  V30 1334 O 128.755 -0.342459 4.10976 0
M  V30 1335 H 128.096 0.190422 0.63611 0
M  V30 1336 H 130.626 1.15672 1.68764 0
M  V30 1337 H 130.636 0.512169 4.04773 0
M  V30 1338 H 129.311 1.64202 3.82113 0
M  V30 1339 H 127.888 -0.18688 3.72431 0
M  V30 1340 N 130.073 -1.45103 0.615059 0
M  V30 1341 C 131.003 -2.33339 -0.0865619 0
M  V30 1342 C 131.984 -1.4727 -0.851209 0
M  V30 1343 O 133.169 -1.76026 -0.820281 0
M  V30 1344 C 130.299 -3.30095 -1.07956 0
M  V30 1345 C 129.253 -4.25858 -0.427628 0
M  V30 1346 C 128.579 -5.12361 -1.5294 0
M  V30 1347 C 129.879 -5.18165 0.655944 0
M  V30 1348 H 131.573 -2.92254 0.650224 0
M  V30 1349 H 129.119 -1.40532 0.314138 0
M  V30 1350 H 131.072 -3.90698 -1.57901 0
M  V30 1351 H 129.796 -2.69355 -1.84703 0
M  V30 1352 H 128.455 -3.66564 0.0510292 0
M  V30 1353 H 128.103 -4.47984 -2.28734 0
M  V30 1354 H 127.803 -5.77238 -1.09865 0
M  V30 1355 H 129.327 -5.75833 -2.03098 0
M  V30 1356 H 130.741 -5.72796 0.240257 0
M  V30 1357 H 129.138 -5.91559 1.00888 0
M  V30 1358 H 130.208 -4.60144 1.52957 0
M  V30 1359 N 131.551 -0.354651 -1.53558 0
M  V30 1360 C 132.799 0.237972 -2.00694 0
M  V30 1361 C 133.12 1.50173 -1.24391 0
M  V30 1362 O 132.39 1.92673 -0.354135 0
M  V30 1363 H 130.97 0.0909256 -0.741446 0
M  V30 1364 H 133.632 -0.478368 -1.88938 0
M  V30 1365 H 132.728 0.47264 -3.085 0
M  V30 1366 N 133.029 1.57378 -0.0835403 0
M  V30 1367 C 133.992 2.12252 0.864959 0
M  V30 1368 C 134.992 1.04916 1.21858 0
M  V30 1369 O 136.182 1.30853 1.14991 0
M  V30 1370 C 133.314 2.63358 2.16461 0
M  V30 1371 H 134.507 2.97371 0.388676 0
M  V30 1372 H 132.06 1.55423 0.165317 0
M  V30 1373 H 132.795 1.81727 2.686 0
M  V30 1374 H 132.58 3.41826 1.92087 0
M  V30 1375 H 134.07 3.05847 2.84337 0
M  V30 1376 N 134.507 -0.190092 1.56449 0
M  V30 1377 C 135.457 -1.23977 1.91347 0
M  V30 1378 C 136.441 -1.40747 0.779693 0
M  V30 1379 O 137.633 -1.43033 1.04262 0
M  V30 1380 C 134.762 -2.58347 2.26079 0
M  V30 1381 C 133.848 -2.4535 3.45925 0
M  V30 1382 N 134.239 -2.02039 4.63696 0
M  V30 1383 C 132.537 -2.76229 3.50162 0
M  V30 1384 C 133.238 -2.01053 5.4585 0
M  V30 1385 N 132.214 -2.42747 4.8639 0
M  V30 1386 H 136.016 -0.896318 2.79899 0
M  V30 1387 H 133.53 -0.398496 1.57435 0
M  V30 1388 H 135.527 -3.34173 2.49267 0
M  V30 1389 H 134.187 -2.93512 1.38856 0
M  V30 1390 H 135.198 -1.7267 4.88268 0
M  V30 1391 H 131.875 -3.15556 2.73369 0
M  V30 1392 H 133.265 -1.69426 6.50188 0
M  V30 1393 N 135.985 -1.50799 -0.457987 0
M  V30 1394 C 136.933 -1.71162 -1.575 0
M  V30 1395 C 137.927 -0.577592 -1.59249 0
M  V30 1396 O 139.133 -0.758443 -1.63241 0
M  V30 1397 H 135.508 -0.540468 -0.522875 0
M  V30 1398 H 137.479 -2.64837 -1.37492 0
M  V30 1399 C 136.228 -1.83496 -2.95338 0
M  V30 1400 H 135.551 -2.70153 -2.94716 0
M  V30 1401 H 136.991 -2.01765 -3.72917 0
M  V30 1402 C 135.45 -0.589694 -3.31699 0
M  V30 1403 O 135.98 0.265163 -4.00824 0
M  V30 1404 N 134.186 -0.439845 -2.87252 0
M  V30 1405 H 133.733 -1.13655 -2.31172 0
M  V30 1406 H 133.691 0.392159 -3.11945 0
M  V30 1407 N 137.463 0.71206 -1.40597 0
M  V30 1408 C 138.691 1.50111 -1.42388 0
M  V30 1409 C 139.106 1.88784 -0.0245395 0
M  V30 1410 O 138.463 1.55681 0.952351 0
M  V30 1411 C 138.514 2.7742 -2.31776 0
M  V30 1412 O 138.235 2.40382 -3.66262 0
M  V30 1413 C 139.736 3.7129 -2.42196 0
M  V30 1414 H 136.956 0.46314 -0.485533 0
M  V30 1415 H 139.5 0.878068 -1.8469 0
M  V30 1416 H 137.655 3.36001 -1.92827 0
M  V30 1417 H 138.069 3.22324 -4.13772 0
M  V30 1418 H 139.543 4.57448 -3.08943 0
M  V30 1419 H 140.02 4.14641 -1.44809 0
M  V30 1420 H 140.626 3.18619 -2.81712 0
M  V30 1421 N 138.941 1.26152 0.944643 0
M  V30 1422 C 140.169 1.14259 1.72489 0
M  V30 1423 C 140.584 -0.302555 1.8636 0
M  V30 1424 O 139.941 -1.20741 1.36849 0
M  V30 1425 C 139.992 1.80266 3.13347 0
M  V30 1426 O 139.713 3.19133 3.00143 0
M  V30 1427 C 141.214 1.74283 4.07603 0
M  V30 1428 H 138.434 0.398051 0.540181 0
M  V30 1429 H 140.978 1.66706 1.18446 0
M  V30 1430 H 139.133 1.31766 3.64303 0
M  V30 1431 H 139.547 3.51744 3.89071 0
M  V30 1432 H 141.021 2.25111 5.04013 0
M  V30 1433 H 141.498 0.708631 4.33446 0
M  V30 1434 H 142.104 2.22319 3.62567 0
M  V30 1435 N 140.419 -1.14872 1.07899 0
M  V30 1436 C 141.349 -2.2193 0.725887 0
M  V30 1437 C 142.33 -1.67622 -0.28927 0
M  V30 1438 O 143.515 -1.93533 -0.160787 0
M  V30 1439 C 140.645 -3.47061 0.128856 0
M  V30 1440 C 139.599 -4.14363 1.07178 0
M  V30 1441 C 138.925 -5.33636 0.337229 0
M  V30 1442 C 140.225 -4.63492 2.40775 0
M  V30 1443 H 141.919 -2.51724 1.62097 0
M  V30 1444 H 139.465 -1.20991 0.780838 0
M  V30 1445 H 141.418 -4.21199 -0.130147 0
M  V30 1446 H 140.142 -3.16617 -0.80134 0
M  V30 1447 H 138.801 -3.42173 1.3158 0
M  V30 1448 H 138.449 -4.99449 -0.596606 0
M  V30 1449 H 138.149 -5.79609 0.965788 0
M  V30 1450 H 139.673 -6.10539 0.0861567 0
M  V30 1451 H 141.087 -5.2913 2.20669 0
M  V30 1452 H 139.484 -5.20148 2.99276 0
M  V30 1453 H 140.554 -3.78834 3.02676 0
M  V30 1454 N 141.898 -0.863906 -1.31812 0
M  V30 1455 C 143.126 -0.486111 -2.01108 0
M  V30 1456 C 143.541 0.919755 -1.64882 0
M  V30 1457 O 142.898 1.60162 -0.874893 0
M  V30 1458 C 142.949 -0.626435 -3.56031 0
M  V30 1459 O 142.67 -1.97693 -3.90959 0
M  V30 1460 C 144.171 -0.248857 -4.42601 0
M  V30 1461 H 141.391 -0.190052 -0.643523 0
M  V30 1462 H 143.935 -1.1634 -1.68182 0
M  V30 1463 H 142.09 0.00322717 -3.874 0
M  V30 1464 H 142.504 -1.98034 -4.85678 0
M  V30 1465 H 143.978 -0.398016 -5.50563 0
M  V30 1466 H 144.455 0.811489 -4.31638 0
M  V30 1467 H 145.061 -0.853971 -4.16638 0
M  V30 1468 N 143.376 1.44774 -0.622745 0
M  V30 1469 C 144.286 2.34433 0.0886031 0
M  V30 1470 C 145.302 1.52131 0.844529 0
M  V30 1471 O 146.478 1.84886 0.798691 0
M  V30 1472 C 143.543 3.29986 1.0635 0
M  V30 1473 C 142.604 4.28195 0.307873 0
M  V30 1474 C 141.837 5.19183 1.23633 0
M  V30 1475 O 142.06 5.13918 2.47476 0
M  V30 1476 O 140.994 5.97515 0.725189 0
M  V30 1477 H 144.82 2.96693 -0.648599 0
M  V30 1478 H 142.405 1.44408 -0.382957 0
M  V30 1479 H 144.287 3.88825 1.6246 0
M  V30 1480 H 142.962 2.70269 1.78146 0
M  V30 1481 H 141.869 3.72927 -0.296064 0
M  V30 1482 H 143.202 4.90808 -0.3699 0
M  V30 1483 N 144.854 0.36279 1.53368 0
M  V30 1484 C 146.103 -0.22888 2.00397 0
M  V30 1485 C 146.416 -1.50096 1.25421 0
M  V30 1486 O 147.622 -2.17106 1.63025 0
M  V30 1487 C 146.078 -0.458417 3.56969 0
M  V30 1488 C 145.686 0.798877 4.4082 0
M  V30 1489 C 147.43 -1.00789 4.12361 0
M  V30 1490 C 145.337 0.539078 5.88938 0
M  V30 1491 H 144.267 -0.089305 0.748693 0
M  V30 1492 H 146.918 0.481099 1.77081 0
M  V30 1493 H 145.3 -1.22959 3.76427 0
M  V30 1494 H 146.474 1.57262 4.33134 0
M  V30 1495 H 144.789 1.27137 3.96516 0
M  V30 1496 H 147.386 -1.21754 5.20653 0
M  V30 1497 H 147.729 -1.9692 3.66781 0
M  V30 1498 H 148.262 -0.296961 3.9669 0
M  V30 1499 H 145.001 1.47064 6.3879 0
M  V30 1500 H 144.521 -0.196222 5.99479 0
M  V30 1501 H 146.2 0.163542 6.46793 0
M  V30 1502 N 146.332 -1.57332 0.0918853 0
M  V30 1503 C 147.262 -2.16872 -0.865371 0
M  V30 1504 C 148.243 -1.10118 -1.29646 0
M  V30 1505 O 149.428 -1.38242 -1.36392 0
M  V30 1506 C 146.558 -2.74649 -2.12569 0
M  V30 1507 C 145.512 -3.86747 -1.83333 0
M  V30 1508 C 144.838 -4.31212 -3.16166 0
M  V30 1509 C 146.138 -5.10089 -1.1228 0
M  V30 1510 H 147.832 -2.97114 -0.369307 0
M  V30 1511 H 145.378 -1.42918 -0.176194 0
M  V30 1512 H 147.331 -3.14952 -2.7997 0
M  V30 1513 H 146.055 -1.91657 -2.64452 0
M  V30 1514 H 144.714 -3.46978 -1.18331 0
M  V30 1515 H 144.362 -3.45115 -3.6593 0
M  V30 1516 H 144.062 -5.06788 -2.97388 0
M  V30 1517 H 145.586 -4.74146 -3.84731 0
M  V30 1518 H 147 -5.47582 -1.69785 0
M  V30 1519 H 145.397 -5.91073 -1.03693 0
M  V30 1520 H 146.467 -4.84786 -0.105041 0
M  V30 1521 N 147.81 0.181792 -1.56548 0
M  V30 1522 C 148.757 1.22521 -1.95595 0
M  V30 1523 C 149.727 1.4454 -0.818373 0
M  V30 1524 O 150.912 1.57454 -1.07763 0
M  V30 1525 C 148.052 2.56193 -2.31212 0
M  V30 1526 C 147.165 2.41641 -3.58097 0
M  V30 1527 C 146.3 3.68108 -3.82975 0
M  V30 1528 C 145.339 3.48445 -5.03242 0
M  V30 1529 N 144.476 4.66956 -5.24306 0
M  V30 1530 H 149.316 0.885226 -2.84548 0
M  V30 1531 H 146.853 0.425718 -1.40805 0
M  V30 1532 H 148.811 3.34088 -2.49882 0
M  V30 1533 H 147.441 2.88208 -1.45382 0
M  V30 1534 H 146.493 1.54976 -3.474 0
M  V30 1535 H 147.805 2.23052 -4.46149 0
M  V30 1536 H 146.959 4.54441 -4.01956 0
M  V30 1537 H 145.698 3.89666 -2.93278 0
M  V30 1538 H 144.703 2.60499 -4.8417 0
M  V30 1539 H 145.928 3.2832 -5.9446 0
M  V30 1540 H 143.874 4.88752 -4.37559 0
M  V30 1541 H 143.791 4.51242 -6.06561 0
M  V30 1542 H 145.059 5.54602 -5.47756 0
M  V30 1543 N 149.288 1.51039 0.449983 0
M  V30 1544 C 150.536 1.62759 1.19808 0
M  V30 1545 C 150.857 0.339981 1.92013 0
M  V30 1546 O 150.127 -0.643606 1.85026 0
M  V30 1547 H 148.707 0.599811 0.445237 0
M  V30 1548 H 151.369 1.87914 0.517138 0
M  V30 1549 H 150.465 2.44911 1.93455 0
M  V30 1550 N 150.766 -0.704594 1.40972 0
M  V30 1551 C 151.696 -1.83124 1.44872 0
M  V30 1552 C 152.677 -1.67281 0.30838 0
M  V30 1553 O 153.862 -1.87149 0.518556 0
M  V30 1554 C 150.992 -3.21181 1.32136 0
M  V30 1555 C 149.946 -3.51714 2.43888 0
M  V30 1556 C 149.272 -4.89032 2.16222 0
M  V30 1557 C 150.572 -3.516 3.86232 0
M  V30 1558 H 152.266 -1.80117 2.39161 0
M  V30 1559 H 149.812 -0.865145 1.15114 0
M  V30 1560 H 151.765 -3.99702 1.33479 0
M  V30 1561 H 150.489 -3.24791 0.343279 0
M  V30 1562 H 149.148 -2.75539 2.41813 0
M  V30 1563 H 148.796 -4.89256 1.16778 0
M  V30 1564 H 148.496 -5.10426 2.911 0
M  V30 1565 H 150.02 -5.69873 2.19265 0
M  V30 1566 H 151.434 -4.2014 3.9007 0
M  V30 1567 H 149.831 -3.84523 4.60719 0
M  V30 1568 H 150.901 -2.50757 4.15029 0
M  V30 1569 N 152.244 -1.26651 -0.937939 0
M  V30 1570 C 153.191 -1.0849 -2.03712 0
M  V30 1571 C 154.161 0.011033 -1.66096 0
M  V30 1572 O 155.346 -0.149353 -1.90215 0
M  V30 1573 C 152.486 -0.72735 -3.37348 0
M  V30 1574 C 151.599 -1.89986 -3.87981 0
M  V30 1575 C 150.734 -1.48513 -5.10017 0
M  V30 1576 C 149.773 -2.62575 -5.5292 0
M  V30 1577 N 148.91 -2.21762 -6.66158 0
M  V30 1578 H 153.75 -2.02551 -2.18579 0
M  V30 1579 H 151.287 -1.00844 -1.07093 0
M  V30 1580 H 153.245 -0.50092 -4.14182 0
M  V30 1581 H 151.875 0.176298 -3.22318 0
M  V30 1582 H 150.927 -2.23913 -3.07518 0
M  V30 1583 H 152.239 -2.75586 -4.15757 0
M  V30 1584 H 151.393 -1.21934 -5.94321 0
M  V30 1585 H 150.132 -0.60009 -4.83994 0
M  V30 1586 H 149.137 -2.8988 -4.67172 0
M  V30 1587 H 150.362 -3.51685 -5.80943 0
M  V30 1588 H 148.308 -1.35696 -6.41812 0
M  V30 1589 H 148.225 -3.00903 -6.93537 0
M  V30 1590 H 149.493 -1.98403 -7.53828 0
M  V30 1591 N 153.722 1.14298 -1.08507 0
M  V30 1592 C 154.969 1.85359 -0.815373 0
M  V30 1593 C 155.297 1.83001 0.658865 0
M  V30 1594 O 154.552 1.25655 1.50031 0
M  V30 1595 C 154.851 3.33547 -1.28379 0
M  V30 1596 C 154.517 3.56093 -2.76602 0
M  V30 1597 C 153.179 3.61955 -3.17084 0
M  V30 1598 C 155.531 3.64834 -3.72217 0
M  V30 1599 C 152.859 3.74082 -4.51973 0
M  V30 1600 C 155.211 3.78487 -5.06883 0
M  V30 1601 C 153.875 3.82598 -5.46969 0
M  V30 1602 H 153.145 0.678276 -0.298366 0
M  V30 1603 H 155.792 1.35002 -1.35819 0
M  V30 1604 H 154.097 3.86191 -0.660593 0
M  V30 1605 H 155.794 3.86959 -1.05186 0
M  V30 1606 H 152.384 3.52179 -2.4427 0
M  V30 1607 H 156.568 3.59595 -3.42061 0
M  V30 1608 H 151.824 3.75527 -4.82483 0
M  V30 1609 H 155.998 3.84193 -5.80834 0
M  V30 1610 H 153.625 3.91747 -6.51489 0
M  V30 1611 N 155.201 0.870884 1.31352 0
M  V30 1612 C 156.149 0.316445 2.30437 0
M  V30 1613 C 157.143 -0.568965 1.59559 0
M  V30 1614 O 158.349 -0.454964 1.74155 0
M  V30 1615 H 154.724 0.0836521 0.747333 0
M  V30 1616 H 156.695 1.16606 2.74673 0
M  V30 1617 C 155.444 -0.46635 3.44558 0
M  V30 1618 H 154.767 0.205687 3.99271 0
M  V30 1619 H 156.207 -0.819614 4.16003 0
M  V30 1620 C 154.666 -1.65797 2.9328 0
M  V30 1621 O 155.196 -2.75728 2.92125 0
M  V30 1622 N 153.402 -1.49041 2.4947 0
M  V30 1623 H 152.949 -0.59612 2.50608 0
M  V30 1624 H 152.907 -2.28911 2.15516 0
M  V30 1625 N 156.679 -1.44442 0.630414 0
M  V30 1626 C 157.609 -2.33418 -0.0618083 0
M  V30 1627 C 158.59 -1.48165 -0.835541 0
M  V30 1628 O 159.775 -1.76886 -0.801564 0
M  V30 1629 C 156.905 -3.31222 -1.04449 0
M  V30 1630 C 155.859 -4.26288 -0.382436 0
M  V30 1631 C 155.185 -5.13954 -1.47497 0
M  V30 1632 C 156.485 -5.1744 0.710865 0
M  V30 1633 H 158.179 -2.91548 0.681184 0
M  V30 1634 H 155.725 -1.40191 0.329026 0
M  V30 1635 H 157.678 -3.92351 -1.53748 0
M  V30 1636 H 156.402 -2.71299 -1.81836 0
M  V30 1637 H 155.061 -3.6649 0.0899054 0
M  V30 1638 H 154.709 -4.50385 -2.2397 0
M  V30 1639 H 154.409 -5.7837 -1.03737 0
M  V30 1640 H 155.933 -5.77955 -1.96979 0
M  V30 1641 H 157.347 -5.72509 0.300996 0
M  V30 1642 H 155.744 -5.90455 1.07156 0
M  V30 1643 H 156.814 -4.58496 1.57829 0
M  V30 1644 N 158.157 -0.370918 -1.53173 0
M  V30 1645 C 159.385 0.217704 -2.05751 0
M  V30 1646 C 159.8 1.42018 -1.24404 0
M  V30 1647 O 159.157 1.80245 -0.286033 0
M  V30 1648 C 159.208 0.605954 -3.56385 0
M  V30 1649 O 158.929 -0.548734 -4.3465 0
M  V30 1650 C 160.43 1.2524 -4.25241 0
M  V30 1651 H 157.65 0.0371659 -0.66997 0
M  V30 1652 H 160.194 -0.530832 -1.9749 0
M  V30 1653 H 158.349 1.3044 -3.6478 0
M  V30 1654 H 158.763 -0.23376 -5.23979 0
M  V30 1655 H 160.237 1.47458 -5.3194 0
M  V30 1656 H 160.714 2.2143 -3.79296 0
M  V30 1657 H 161.32 0.595233 -4.21114 0
M  V30 1658 N 159.635 1.57281 -0.100228 0
M  V30 1659 C 160.545 2.17833 0.870965 0
M  V30 1660 C 161.561 1.14921 1.30649 0
M  V30 1661 O 162.737 1.47313 1.37335 0
M  V30 1662 C 159.802 2.75085 2.1102 0
M  V30 1663 C 158.863 3.9297 1.72838 0
M  V30 1664 C 158.096 4.47482 2.90854 0
M  V30 1665 O 158.319 4.00922 4.05731 0
M  V30 1666 O 157.253 5.38433 2.69023 0
M  V30 1667 H 161.079 3.0124 0.38575 0
M  V30 1668 H 158.664 1.48881 0.124397 0
M  V30 1669 H 160.546 3.11656 2.83634 0
M  V30 1670 H 159.221 1.94721 2.58584 0
M  V30 1671 H 158.128 3.61201 0.973883 0
M  V30 1672 H 159.461 4.74713 1.30033 0
M  V30 1673 N 161.113 -0.173488 1.56642 0
M  V30 1674 C 162.341 -0.906095 1.86004 0
M  V30 1675 C 162.756 -1.75921 0.685355 0
M  V30 1676 O 162.113 -1.79198 -0.345578 0
M  V30 1677 C 162.164 -1.78462 3.14378 0
M  V30 1678 O 161.885 -0.965914 4.27319 0
M  V30 1679 C 163.386 -2.62707 3.57071 0
M  V30 1680 H 160.606 -0.263341 0.617165 0
M  V30 1681 H 163.15 -0.174236 2.03756 0
M  V30 1682 H 161.305 -2.46984 2.98459 0
M  V30 1683 H 161.719 -1.56655 5.00559 0
M  V30 1684 H 163.193 -3.19969 4.49804 0
M  V30 1685 H 163.67 -3.37472 2.81086 0
M  V30 1686 H 164.276 -1.99521 3.75595 0
M  V30 1687 N 162.591 -1.51276 -0.441967 0
M  V30 1688 C 163.816 -1.67799 -1.21895 0
M  V30 1689 C 164.241 -0.372864 -1.84367 0
M  V30 1690 O 163.599 0.666501 -1.68604 0
M  V30 1691 C 163.647 -2.79199 -2.28211 0
M  V30 1692 O 162.751 -2.42479 -3.33583 0
M  V30 1693 H 162.092 -0.559649 -0.357336 0
M  V30 1694 H 164.622 -1.97815 -0.522522 0
M  V30 1695 H 164.632 -3.03146 -2.73069 0
M  V30 1696 H 163.307 -3.73906 -1.82118 0
M  V30 1697 H 161.884 -2.29087 -2.94234 0
M  V30 1698 N 164.069 0.697108 -1.41344 0
M  V30 1699 C 164.979 1.84088 -1.45427 0
M  V30 1700 C 165.995 1.70545 -0.34501 0
M  V30 1701 O 167.171 1.92488 -0.592492 0
M  V30 1702 C 164.236 3.20056 -1.33286 0
M  V30 1703 C 163.297 3.45718 -2.54514 0
M  V30 1704 C 162.53 4.75199 -2.42944 0
M  V30 1705 O 162.753 5.51579 -1.45318 0
M  V30 1706 O 161.687 5.0161 -3.32672 0
M  V30 1707 H 165.513 1.836 -2.41919 0
M  V30 1708 H 163.098 0.849966 -1.22866 0
M  V30 1709 H 164.98 4.01236 -1.28794 0
M  V30 1710 H 163.655 3.2123 -0.39909 0
M  V30 1711 H 162.562 2.64474 -2.64583 0
M  V30 1712 H 163.895 3.49356 -3.46715 0
M  V30 1713 N 165.547 1.27147 0.931209 0
M  V30 1714 C 166.51 1.09615 2.01289 0
M  V30 1715 C 167.51 0.0412581 1.60747 0
M  V30 1716 O 168.7 0.285545 1.71844 0
M  V30 1717 C 165.832 0.669447 3.34262 0
M  V30 1718 H 167.025 2.05662 2.18273 0
M  V30 1719 H 164.578 1.09885 1.11153 0
M  V30 1720 H 165.313 -0.292572 3.22978 0
M  V30 1721 H 165.098 1.43127 3.65044 0
M  V30 1722 H 166.588 0.568921 4.13706 0
M  V30 1723 N 167.025 -1.13721 1.09112 0
M  V30 1724 C 167.935 -2.22638 0.73957 0
M  V30 1725 C 168.951 -1.72091 -0.257068 0
M  V30 1726 O 170.127 -2.01155 -0.0992154 0
M  V30 1727 C 167.192 -3.46322 0.16191 0
M  V30 1728 C 166.253 -4.11775 1.21408 0
M  V30 1729 C 165.486 -5.29555 0.663891 0
M  V30 1730 O 165.709 -5.68077 -0.514274 0
M  V30 1731 O 164.643 -5.84973 1.41738 0
M  V30 1732 H 168.469 -2.55074 1.64836 0
M  V30 1733 H 166.054 -1.21791 0.865289 0
M  V30 1734 H 167.936 -4.21107 -0.157073 0
M  V30 1735 H 166.611 -3.15593 -0.719932 0
M  V30 1736 H 165.518 -3.3883 1.58571 0
M  V30 1737 H 166.851 -4.46627 2.06845 0
M  V30 1738 N 168.503 -0.877838 -1.30888 0
M  V30 1739 C 169.752 -0.488793 -1.95688 0
M  V30 1740 C 170.065 0.965485 -1.70111 0
M  V30 1741 O 171.271 1.46104 -2.28836 0
M  V30 1742 C 169.727 -0.823201 -3.50359 0
M  V30 1743 C 169.335 -2.29477 -3.84765 0
M  V30 1744 C 171.079 -0.503009 -4.21509 0
M  V30 1745 C 168.986 -2.57118 -5.32583 0
M  V30 1746 H 167.916 -0.179062 -0.732429 0
M  V30 1747 H 170.567 -1.07183 -1.48943 0
M  V30 1748 H 168.949 -0.169331 -3.95638 0
M  V30 1749 H 170.123 -2.99236 -3.5042 0
M  V30 1750 H 168.438 -2.58178 -3.267 0
M  V30 1751 H 171.035 -0.68665 -5.30273 0
M  V30 1752 H 171.378 0.557109 -4.12555 0
M  V30 1753 H 171.911 -1.11376 -3.8189 0
M  V30 1754 H 168.65 -3.61843 -5.4658 0
M  V30 1755 H 168.17 -1.91961 -5.68253 0
M  V30 1756 H 169.849 -2.42251 -5.99936 0
M  V30 1757 N 169.982 1.44106 -0.638065 0
M  V30 1758 C 170.932 2.27843 0.0847285 0
M  V30 1759 C 171.916 1.39055 0.809471 0
M  V30 1760 O 173.108 1.62808 0.694435 0
M  V30 1761 C 170.237 3.26497 1.06089 0
M  V30 1762 C 169.323 4.22772 0.33541 0
M  V30 1763 N 169.714 5.01737 -0.639787 0
M  V30 1764 C 168.012 4.42227 0.578921 0
M  V30 1765 C 168.713 5.71792 -1.06904 0
M  V30 1766 N 167.689 5.42079 -0.406395 0
M  V30 1767 H 171.491 2.86305 -0.663814 0
M  V30 1768 H 169.005 1.55627 -0.464122 0
M  V30 1769 H 171.002 3.8525 1.59337 0
M  V30 1770 H 169.662 2.69595 1.80966 0
M  V30 1771 H 170.673 5.07799 -1.01789 0
M  V30 1772 H 167.35 3.96415 1.31003 0
M  V30 1773 H 168.74 6.45205 -1.8751 0
M  V30 1774 N 171.46 0.379036 1.52974 0
M  V30 1775 C 172.392 -0.495963 2.2377 0
M  V30 1776 C 173.405 -1.03517 1.25651 0
M  V30 1777 O 174.594 -0.939249 1.51791 0
M  V30 1778 C 171.694 -1.69894 2.93239 0
M  V30 1779 C 170.867 -1.2889 4.17979 0
M  V30 1780 C 169.926 -2.35543 4.70538 0
M  V30 1781 O 168.952 -1.97375 5.33883 0
M  V30 1782 N 170.154 -3.67318 4.49508 0
M  V30 1783 H 172.919 0.110523 2.99496 0
M  V30 1784 H 170.48 0.204878 1.60598 0
M  V30 1785 H 172.472 -2.40747 3.25304 0
M  V30 1786 H 171.042 -2.212 2.20883 0
M  V30 1787 H 170.262 -0.409676 3.92065 0
M  V30 1788 H 171.55 -0.991443 4.99047 0
M  V30 1789 H 170.948 -4.01095 3.98923 0
M  V30 1790 H 169.505 -4.34235 4.8609 0
M  V30 1791 N 172.938 -1.57226 0.108567 0
M  V30 1792 C 174.163 -1.99604 -0.563303 0
M  V30 1793 C 174.588 -0.987563 -1.6009 0
M  V30 1794 O 173.946 0.0421687 -1.81251 0
M  V30 1795 C 173.994 -3.40902 -1.17552 0
M  V30 1796 O 173.098 -3.42896 -2.2912 0
M  V30 1797 H 172.439 -0.648704 -0.1417 0
M  V30 1798 H 174.969 -2.03679 0.193961 0
M  V30 1799 H 174.979 -3.78886 -1.51357 0
M  V30 1800 H 173.654 -4.1382 -0.415445 0
M  V30 1801 H 172.231 -3.1672 -1.96832 0
M  V30 1802 N 174.416 0.165178 -1.56732 0
M  V30 1803 C 175.663 0.880807 -1.8234 0
M  V30 1804 C 175.991 1.81977 -0.686621 0
M  V30 1805 O 175.246 1.92971 0.325697 0
M  V30 1806 C 175.545 1.70405 -3.1416 0
M  V30 1807 C 175.211 0.913475 -4.4155 0
M  V30 1808 C 173.873 0.695303 -4.7615 0
M  V30 1809 C 176.225 0.359349 -5.1996 0
M  V30 1810 C 173.553 -0.0879947 -5.86634 0
M  V30 1811 C 175.905 -0.410893 -6.31264 0
M  V30 1812 C 174.569 -0.639808 -6.64427 0
M  V30 1813 H 173.839 0.32231 -0.667231 0
M  V30 1814 H 176.486 0.145402 -1.90947 0
M  V30 1815 H 174.791 2.50903 -3.00923 0
M  V30 1816 H 176.488 2.26091 -3.31186 0
M  V30 1817 H 173.078 1.09357 -4.14414 0
M  V30 1818 H 177.262 0.515228 -4.93618 0
M  V30 1819 H 172.518 -0.27503 -6.10781 0
M  V30 1820 H 176.692 -0.847494 -6.91224 0
M  V30 1821 H 174.319 -1.24864 -7.49875 0
M  V30 1822 N 175.894 1.51508 0.433938 0
M  V30 1823 C 176.826 1.69266 1.54537 0
M  V30 1824 C 177.839 0.573276 1.52373 0
M  V30 1825 O 179.028 0.847698 1.57087 0
M  V30 1826 C 176.128 1.69524 2.93453 0
M  V30 1827 C 175.301 2.98101 3.20085 0
M  V30 1828 C 174.36 2.90502 4.38742 0
M  V30 1829 O 173.386 3.64442 4.3723 0
M  V30 1830 N 174.588 2.06586 5.42496 0
M  V30 1831 H 177.353 2.65145 1.39708 0
M  V30 1832 H 174.914 1.49437 0.622922 0
M  V30 1833 H 176.906 1.62004 3.70859 0
M  V30 1834 H 175.476 0.812245 3.01863 0
M  V30 1835 H 174.696 3.19464 2.30947 0
M  V30 1836 H 175.984 3.83207 3.34708 0
M  V30 1837 H 175.382 1.45896 5.46563 0
M  V30 1838 H 173.939 2.04943 6.18742 0
M  V30 1839 N 177.372 -0.689602 1.41712 0
M  V30 1840 C 178.322 -1.79571 1.40493 0
M  V30 1841 C 179.306 -1.58473 0.278409 0
M  V30 1842 O 180.498 -1.69204 0.519532 0
M  V30 1843 C 177.627 -3.17923 1.29536 0
M  V30 1844 C 176.713 -3.44695 2.47075 0
M  V30 1845 N 177.104 -3.42132 3.72531 0
M  V30 1846 C 175.402 -3.75269 2.41017 0
M  V30 1847 C 176.103 -3.67976 4.50521 0
M  V30 1848 N 175.079 -3.88014 3.80718 0
M  V30 1849 H 178.881 -1.75961 2.35404 0
M  V30 1850 H 176.395 -0.889839 1.35851 0
M  V30 1851 H 178.392 -3.97167 1.26745 0
M  V30 1852 H 177.052 -3.22741 0.356153 0
M  V30 1853 H 178.063 -3.22375 4.05333 0
M  V30 1854 H 174.74 -3.87421 1.55599 0
M  V30 1855 H 176.13 -3.7208 5.59469 0
M  V30 1856 N 178.85 -1.27639 -0.924453 0
M  V30 1857 C 179.78 -1.13166 -2.04244 0
M  V30 1858 C 180.761 -0.032256 -1.70069 0
M  V30 1859 O 181.946 -0.207328 -1.9309 0
M  V30 1860 C 179.076 -0.781496 -3.38393 0
M  V30 1861 C 178.03 -1.83449 -3.86692 0
M  V30 1862 C 177.356 -1.33822 -5.17683 0
M  V30 1863 C 178.656 -3.23917 -4.09726 0
M  V30 1864 H 180.35 -2.06689 -2.1661 0
M  V30 1865 H 177.896 -0.995136 -1.04082 0
M  V30 1866 H 179.849 -0.667057 -4.16087 0
M  V30 1867 H 178.573 0.189439 -3.2605 0
M  V30 1868 H 177.232 -1.93789 -3.11193 0
M  V30 1869 H 176.88 -0.35665 -5.01734 0
M  V30 1870 H 176.58 -2.04224 -5.50968 0
M  V30 1871 H 178.104 -1.23679 -5.97943 0
M  V30 1872 H 179.518 -3.16559 -4.77978 0
M  V30 1873 H 177.915 -3.92059 -4.54324 0
M  V30 1874 H 178.985 -3.68729 -3.14908 0
M  V30 1875 N 180.328 1.1314 -1.09713 0
M  V30 1876 C 181.258 2.20748 -0.761102 0
M  V30 1877 C 182.239 1.68061 0.262566 0
M  V30 1878 O 183.424 1.93765 0.129977 0
M  V30 1879 C 180.554 3.46812 -0.184054 0
M  V30 1880 C 179.508 4.12606 -1.13757 0
M  V30 1881 C 178.834 5.33031 -0.422083 0
M  V30 1882 C 180.134 4.59603 -2.48118 0
M  V30 1883 H 181.828 2.49113 -1.66082 0
M  V30 1884 H 179.374 1.19734 -0.799987 0
M  V30 1885 H 181.327 4.21353 0.0631215 0
M  V30 1886 H 180.051 3.17851 0.750868 0
M  V30 1887 H 178.71 3.40036 -1.37007 0
M  V30 1888 H 178.358 5.00335 0.517072 0
M  V30 1889 H 178.058 5.77999 -1.05788 0
M  V30 1890 H 179.582 6.10325 -0.183277 0
M  V30 1891 H 180.996 5.25552 -2.29059 0
M  V30 1892 H 179.393 5.15321 -3.07514 0
M  V30 1893 H 180.463 3.73971 -3.08665 0
M  V30 1894 N 181.806 0.884767 1.30421 0
M  V30 1895 C 183.222 0.57874 1.48737 0
M  V30 1896 C 183.422 -0.883567 1.81095 0
M  V30 1897 O 182.478 -1.6648 1.89844 0
M  V30 1898 C 183.791 1.49171 2.61091 0
M  V30 1899 C 185.339 1.49532 2.74971 0
M  V30 1900 C 185.814 2.39421 3.90438 0
M  V30 1901 N 187.305 2.37383 3.97748 0
M  V30 1902 C 188.04 3.03647 4.86401 0
M  V30 1903 N 187.536 3.79136 5.79852 0
M  V30 1904 N 189.329 2.9288 4.79768 0
M  V30 1905 H 181.48 1.83075 1.0769 0
M  V30 1906 H 183.743 0.783637 0.533495 0
M  V30 1907 H 183.449 2.53291 2.44001 0
M  V30 1908 H 183.323 1.20113 3.57565 0
M  V30 1909 H 185.71 0.46163 2.91467 0
M  V30 1910 H 185.791 1.8262 1.79119 0
M  V30 1911 H 185.435 3.42874 3.74699 0
M  V30 1912 H 185.365 2.03649 4.85628 0
M  V30 1913 H 187.856 1.82525 3.30897 0
M  V30 1914 H 188.169 4.26789 6.4426 0
M  V30 1915 H 186.514 3.83243 5.79784 0
M  V30 1916 H 189.705 2.33433 4.05742 0
M  V30 1917 H 189.878 3.448 5.4865 0
M  V30 1918 N 183.284 -1.43765 0.645699 0
M  V30 1919 C 184.512 -2.06253 0.163556 0
M  V30 1920 C 184.927 -1.48352 -1.16778 0
M  V30 1921 O 184.284 -0.611932 -1.71935 0
M  V30 1922 C 184.335 -3.61453 0.0583186 0
M  V30 1923 O 184.056 -4.172 1.33702 0
M  V30 1924 C 185.557 -4.41002 -0.450795 0
M  V30 1925 H 182.777 -0.665413 0.0864077 0
M  V30 1926 H 185.321 -1.84396 0.884222 0
M  V30 1927 H 183.476 -3.82522 -0.612865 0
M  V30 1928 H 183.89 -5.10791 1.19131 0
M  V30 1929 H 185.364 -5.49966 -0.473403 0
M  V30 1930 H 185.841 -4.13488 -1.48068 0
M  V30 1931 H 186.447 -4.24886 0.187637 0
M  V30 1932 N 184.763 -0.387143 -1.52771 0
M  V30 1933 C 185.693 0.440551 -2.29306 0
M  V30 1934 C 186.674 1.06535 -1.32606 0
M  V30 1935 O 187.859 1.07853 -1.61497 0
M  V30 1936 C 184.989 1.56919 -3.09829 0
M  V30 1937 C 183.943 1.07054 -4.14395 0
M  V30 1938 C 183.269 2.29109 -4.83129 0
M  V30 1939 C 184.569 0.140015 -5.22112 0
M  V30 1940 H 186.263 -0.198026 -2.98744 0
M  V30 1941 H 183.809 -0.09668 -1.43675 0
M  V30 1942 H 185.762 2.15503 -3.62128 0
M  V30 1943 H 184.486 2.23532 -2.3812 0
M  V30 1944 H 183.145 0.507247 -3.63074 0
M  V30 1945 H 182.793 2.94227 -4.0797 0
M  V30 1946 H 182.493 1.96406 -5.53804 0
M  V30 1947 H 184.017 2.88339 -5.38231 0
M  V30 1948 H 185.431 0.633978 -5.69784 0
M  V30 1949 H 183.828 -0.0971485 -6.00021 0
M  V30 1950 H 184.898 -0.811711 -4.78058 0
M  V30 1951 N 186.241 1.57166 -0.116904 0
M  V30 1952 C 187.189 2.16457 0.851418 0
M  V30 1953 C 188.183 1.11323 1.27686 0
M  V30 1954 O 189.389 1.2963 1.24884 0
M  V30 1955 H 185.764 0.69271 0.292672 0
M  V30 1956 H 187.735 2.96605 0.32685 0
M  V30 1957 C 186.484 2.77689 2.09246 0
M  V30 1958 H 185.807 3.58285 1.77402 0
M  V30 1959 H 187.247 3.22716 2.7501 0
M  V30 1960 C 185.706 1.74667 2.88085 0
M  V30 1961 O 186.236 1.19877 3.83396 0
M  V30 1962 N 184.442 1.44656 2.52038 0
M  V30 1963 H 183.989 1.89402 1.74599 0
M  V30 1964 H 183.947 0.759675 3.05084 0
M  V30 1965 N 187.719 -0.156864 1.56817 0
M  V30 1966 C 188.651 -1.21883 1.94106 0
M  V30 1967 C 189.664 -1.3971 0.835754 0
M  V30 1968 O 190.853 -1.39457 1.11418 0
M  V30 1969 C 187.953 -2.58527 2.19127 0
M  V30 1970 C 187.126 -2.61809 3.50393 0
M  V30 1971 C 186.185 -3.7992 3.64071 0
M  V30 1972 O 185.211 -3.65249 4.36557 0
M  V30 1973 N 186.413 -4.96973 2.99997 0
M  V30 1974 H 189.178 -0.901974 2.85805 0
M  V30 1975 H 186.739 -0.346513 1.58148 0
M  V30 1976 H 188.731 -3.36034 2.25529 0
M  V30 1977 H 187.301 -2.82545 1.33742 0
M  V30 1978 H 186.521 -1.7029 3.5552 0
M  V30 1979 H 187.809 -2.61024 4.36742 0
M  V30 1980 H 187.207 -5.11794 2.41004 0
M  V30 1981 H 185.764 -5.7229 3.11974 0
M  V30 1982 N 189.197 -1.51736 -0.425897 0
M  V30 1983 C 190.422 -1.69082 -1.20108 0
M  V30 1984 C 190.847 -0.392398 -1.83962 0
M  V30 1985 O 190.205 0.64858 -1.69302 0
M  V30 1986 C 190.253 -2.81604 -2.25237 0
M  V30 1987 O 189.357 -2.46004 -3.30992 0
M  V30 1988 H 188.698 -0.563408 -0.35138 0
M  V30 1989 H 191.228 -1.98358 -0.501512 0
M  V30 1990 H 191.238 -3.06025 -2.69838 0
M  V30 1991 H 189.913 -3.75817 -1.78142 0
M  V30 1992 H 188.49 -2.32195 -2.91787 0
M  V30 1993 N 190.675 0.682077 -1.42076 0
M  V30 1994 C 191.9 1.47558 -1.45744 0
M  V30 1995 C 192.325 1.87977 -0.0680981 0
M  V30 1996 O 191.683 1.55522 0.9318 0
M  V30 1997 C 191.731 2.70575 -2.38373 0
M  V30 1998 O 190.835 3.68573 -1.85007 0
M  V30 1999 H 190.176 0.443585 -0.494093 0
M  V30 2000 H 192.706 0.837238 -1.86686 0
M  V30 2001 H 192.716 3.18729 -2.54707 0
M  V30 2002 H 191.391 2.40495 -3.39315 0
M  V30 2003 H 189.968 3.2757 -1.78192 0
M  V30 2004 N 192.153 1.28127 0.917671 0
M  V30 2005 C 193.43 1.05761 1.64542 0
M  V30 2006 C 193.81 -0.404344 2.07191 0
M  V30 2007 O 193.158 -1.38963 1.81388 0
M  V30 2008 C 193.368 2.02857 2.83989 0
M  V30 2009 C 194.716 2.32786 3.551 0
M  V30 2010 O 195.74 2.0091 2.94132 0
M  V30 2011 O 194.599 2.87169 4.64969 0
M  V30 2012 H 191.693 0.403916 0.721652 0
M  V30 2013 H 194.239 1.39431 0.967322 0
M  V30 2014 H 193.011 3.01407 2.49538 0
M  V30 2015 H 192.634 1.69809 3.59514 0
M  V30 2016 N 193.631 -1.12557 1.10312 0
M  V30 2017 C 194.541 -2.21841 0.763142 0
M  V30 2018 C 195.557 -1.72354 -0.238801 0
M  V30 2019 O 196.733 -2.01249 -0.0778746 0
M  V30 2020 C 193.798 -3.46131 0.198632 0
M  V30 2021 C 192.859 -4.10464 1.25769 0
M  V30 2022 C 192.092 -5.28821 0.72002 0
M  V30 2023 O 192.315 -5.6859 -0.453993 0
M  V30 2024 O 191.249 -5.83437 1.47935 0
M  V30 2025 H 195.075 -2.53312 1.67532 0
M  V30 2026 H 192.66 -1.20867 0.878157 0
M  V30 2027 H 194.542 -4.2125 -0.112401 0
M  V30 2028 H 193.217 -3.16338 -0.686419 0
M  V30 2029 H 192.124 -3.3713 1.62156 0
M  V30 2030 H 193.457 -4.44408 2.11571 0
M  V30 2031 N 195.109 -0.891671 -1.2995 0
M  V30 2032 C 196.039 -0.379797 -2.30391 0
M  V30 2033 C 197.02 0.540919 -1.6127 0
M  V30 2034 O 198.205 0.453352 -1.88834 0
M  V30 2035 C 195.335 0.400654 -3.44981 0
M  V30 2036 C 194.289 -0.428905 -4.25846 0
M  V30 2037 C 193.615 0.478557 -5.32554 0
M  V30 2038 C 194.915 -1.67458 -4.94727 0
M  V30 2039 H 196.609 -1.21914 -2.73454 0
M  V30 2040 H 194.155 -0.587675 -1.31462 0
M  V30 2041 H 196.108 0.769434 -4.14316 0
M  V30 2042 H 194.832 1.27371 -3.0074 0
M  V30 2043 H 193.491 -0.779911 -3.58208 0
M  V30 2044 H 193.139 1.34951 -4.84559 0
M  V30 2045 H 192.839 -0.0727433 -5.87555 0
M  V30 2046 H 194.363 0.843705 -6.04743 0
M  V30 2047 H 195.777 -1.376 -5.56542 0
M  V30 2048 H 194.174 -2.16659 -5.59624 0
M  V30 2049 H 195.244 -2.41518 -4.20473 0
M  V30 2050 N 196.587 1.43421 -0.653314 0
M  V30 2051 C 197.519 2.29071 0.0769134 0
M  V30 2052 C 198.532 1.42513 0.787017 0
M  V30 2053 O 199.721 1.66449 0.644757 0
M  V30 2054 C 196.821 3.19436 1.13199 0
M  V30 2055 C 195.994 4.34533 0.500006 0
M  V30 2056 C 195.053 5.05771 1.45198 0
M  V30 2057 O 194.079 5.61037 0.960538 0
M  V30 2058 N 195.281 5.0928 2.78594 0
M  V30 2059 H 198.046 2.92382 -0.658235 0
M  V30 2060 H 195.607 1.54112 -0.496104 0
M  V30 2061 H 197.599 3.63958 1.76964 0
M  V30 2062 H 196.169 2.57724 1.7691 0
M  V30 2063 H 195.389 3.92925 -0.316738 0
M  V30 2064 H 196.677 5.08766 0.0588345 0
M  V30 2065 H 196.075 4.65751 3.2108 0
M  V30 2066 H 194.632 5.57519 3.37662 0
M  V30 2067 N 198.065 0.39524 1.52563 0
M  V30 2068 C 198.995 -0.428384 2.29537 0
M  V30 2069 C 199.976 -1.05831 1.33169 0
M  V30 2070 O 201.161 -1.06995 1.62067 0
M  V30 2071 C 198.291 -1.55274 3.10656 0
M  V30 2072 C 197.245 -1.04855 4.14957 0
M  V30 2073 C 196.571 -2.26543 4.84337 0
M  V30 2074 C 197.871 -0.112324 5.22179 0
M  V30 2075 H 199.565 0.213867 2.98635 0
M  V30 2076 H 197.111 0.104298 1.43622 0
M  V30 2077 H 199.064 -2.1358 3.63265 0
M  V30 2078 H 197.788 -2.22266 2.39302 0
M  V30 2079 H 196.447 -0.487985 3.63338 0
M  V30 2080 H 196.095 -2.92059 4.09525 0
M  V30 2081 H 195.795 -1.93466 5.54837 0
M  V30 2082 H 197.319 -2.85481 5.39753 0
M  V30 2083 H 198.733 -0.603752 5.70112 0
M  V30 2084 H 197.13 0.128968 5.99961 0
M  V30 2085 H 198.2 0.837052 4.77621 0
M  V30 2086 N 199.544 -1.57102 0.125237 0
M  V30 2087 C 200.769 -2.0019 -0.542101 0
M  V30 2088 C 201.194 -1.00449 -1.59034 0
M  V30 2089 O 200.552 0.0229423 -1.81285 0
M  V30 2090 C 200.6 -3.42129 -1.13929 0
M  V30 2091 O 199.704 -3.45307 -2.2547 0
M  V30 2092 H 199.045 -0.650171 -0.134812 0
M  V30 2093 H 201.575 -2.03461 0.215553 0
M  V30 2094 H 201.585 -3.80471 -1.4733 0
M  V30 2095 H 200.26 -4.14237 -0.371531 0
M  V30 2096 H 198.837 -3.1879 -1.93462 0
M  V30 2097 N 201.022 0.148545 -1.56898 0
M  V30 2098 C 201.955 1.21293 -1.93296 0
M  V30 2099 C 202.933 1.41637 -0.798599 0
M  V30 2100 O 204.117 1.56275 -1.05406 0
M  V30 2101 C 201.244 2.5721 -2.20365 0
M  V30 2102 C 200.29 2.53469 -3.4301 0
M  V30 2103 S 201.123 2.00315 -4.96623 0
M  V30 2104 C 202.279 3.37964 -5.26812 0
M  V30 2105 H 202.512 0.902393 -2.83274 0
M  V30 2106 H 200.045 0.354094 -1.50285 0
M  V30 2107 H 202.003 3.35427 -2.36641 0
M  V30 2108 H 200.664 2.85454 -1.31054 0
M  V30 2109 H 199.857 3.53518 -3.59223 0
M  V30 2110 H 199.459 1.83359 -3.25968 0
M  V30 2111 H 201.751 4.34066 -5.20185 0
M  V30 2112 H 202.694 3.26606 -6.28279 0
M  V30 2113 H 203.102 3.35028 -4.54331 0
M  V30 2114 N 202.5 1.5196 0.417844 0
M  V30 2115 C 203.748 1.65263 1.16329 0
M  V30 2116 C 204.069 0.380634 1.91249 0
M  V30 2117 O 203.339 -0.604214 1.86349 0
M  V30 2118 H 201.919 0.60912 0.432414 0
M  V30 2119 H 204.581 1.88969 0.477162 0
M  V30 2120 H 203.677 2.4896 1.88217 0
M  V30 2121 N 203.978 -0.674533 1.42435 0
M  V30 2122 C 204.926 -1.80934 1.46169 0
M  V30 2123 C 205.92 -1.66006 0.3374 0
M  V30 2124 O 207.126 -1.72611 0.510425 0
M  V30 2125 H 203.501 -0.596594 0.457798 0
M  V30 2126 H 205.472 -1.74903 2.41767 0
M  V30 2127 C 204.221 -3.19088 1.38123 0
M  V30 2128 H 203.544 -3.31203 2.23931 0
M  V30 2129 H 204.984 -3.9851 1.44797 0
M  V30 2130 C 203.443 -3.36763 0.0960517 0
M  V30 2131 O 203.973 -3.92581 -0.851073 0
M  V30 2132 N 202.179 -2.90597 0.0131186 0
M  V30 2133 H 201.726 -2.45359 0.784639 0
M  V30 2134 H 201.684 -3.028 -0.846133 0
M  V30 2135 N 205.456 -1.28612 -0.910864 0
M  V30 2136 C 206.419 -1.12803 -1.9952 0
M  V30 2137 C 207.419 -0.0668264 -1.60661 0
M  V30 2138 O 208.609 -0.312847 -1.71368 0
M  V30 2139 C 205.741 -0.72254 -3.33155 0
M  V30 2140 H 206.934 -2.09109 -2.14973 0
M  V30 2141 H 204.487 -1.11639 -1.09391 0
M  V30 2142 H 205.222 0.241152 -3.23402 0
M  V30 2143 H 205.007 -1.48916 -3.62721 0
M  V30 2144 H 206.497 -0.634666 -4.12749 0
M  V30 2145 N 206.934 1.1197 -1.10907 0
M  V30 2146 C 207.867 2.16998 -0.706192 0
M  V30 2147 C 208.845 1.59903 0.294897 0
M  V30 2148 O 210.029 1.87513 0.192636 0
M  V30 2149 C 207.156 3.38673 -0.0427664 0
M  V30 2150 C 206.202 4.14414 -1.00811 0
M  V30 2151 S 207.035 4.72079 -2.52789 0
M  V30 2152 C 208.191 5.97083 -1.87731 0
M  V30 2153 H 208.424 2.50837 -1.59587 0
M  V30 2154 H 205.957 1.23508 -0.926555 0
M  V30 2155 H 207.915 4.09142 0.333668 0
M  V30 2156 H 206.576 3.03105 0.823788 0
M  V30 2157 H 205.769 5.016 -0.491259 0
M  V30 2158 H 205.371 3.49678 -1.3267 0
M  V30 2159 H 207.663 6.66599 -1.21044 0
M  V30 2160 H 208.606 6.53403 -2.72892 0
M  V30 2161 H 209.014 5.4837 -1.33979 0
M  V30 2162 N 208.412 0.89855 1.29475 0
M  V30 2163 C 209.659 0.523882 1.95606 0
M  V30 2164 C 209.987 -0.929608 1.70847 0
M  V30 2165 O 209.242 -1.67401 1.01367 0
M  V30 2166 C 209.541 0.761398 3.49195 0
M  V30 2167 C 209.207 2.19207 3.94029 0
M  V30 2168 C 207.869 2.58326 4.05982 0
M  V30 2169 C 210.221 3.12379 4.17216 0
M  V30 2170 C 207.549 3.898 4.38489 0
M  V30 2171 C 209.901 4.43401 4.51197 0
M  V30 2172 C 208.565 4.82394 4.61359 0
M  V30 2173 H 207.835 0.191702 0.715773 0
M  V30 2174 H 210.482 1.13699 1.54094 0
M  V30 2175 H 208.787 0.0653622 3.91745 0
M  V30 2176 H 210.484 0.450904 3.98457 0
M  V30 2177 H 207.074 1.87846 3.85242 0
M  V30 2178 H 211.258 2.83371 4.07449 0
M  V30 2179 H 206.514 4.19734 4.44559 0
M  V30 2180 H 210.688 5.15623 4.68087 0
M  V30 2181 H 208.315 5.84306 4.86303 0
M  V30 2182 N 209.89 -1.43072 0.660911 0
M  V30 2183 C 211.136 -2.0202 0.177708 0
M  V30 2184 C 211.469 -1.52066 -1.20787 0
M  V30 2185 O 210.744 -0.716987 -1.80802 0
M  V30 2186 C 211.027 -3.59561 0.197019 0
M  V30 2187 C 210.88 -4.19727 1.61706 0
M  V30 2188 C 212.199 -4.37664 -0.462396 0
M  V30 2189 H 209.318 -0.734034 0.0660494 0
M  V30 2190 H 211.96 -1.70272 0.843058 0
M  V30 2191 H 210.11 -3.86739 -0.369527 0
M  V30 2192 H 211.782 -4.03553 2.23479 0
M  V30 2193 H 210.025 -3.76084 2.16201 0
M  V30 2194 H 210.696 -5.28834 1.58237 0
M  V30 2195 H 213.172 -4.16095 0.0197215 0
M  V30 2196 H 212.048 -5.47305 -0.418188 0
M  V30 2197 H 212.309 -4.14493 -1.53778 0
M  V30 2198 N 211.368 -0.403325 -1.52352 0
M  V30 2199 C 212.315 0.425011 -2.26853 0
M  V30 2200 C 213.285 1.04598 -1.29029 0
M  V30 2201 O 214.47 1.07135 -1.57882 0
M  V30 2202 C 211.61 1.53888 -3.08889 0
M  V30 2203 C 210.723 0.939396 -4.21663 0
M  V30 2204 C 209.858 2.02547 -4.91068 0
M  V30 2205 C 208.897 1.40263 -5.95813 0
M  V30 2206 N 208.034 2.4286 -6.58759 0
M  V30 2207 H 212.874 -0.21674 -2.97211 0
M  V30 2208 H 210.411 -0.118722 -1.4662 0
M  V30 2209 H 212.369 2.19558 -3.54753 0
M  V30 2210 H 210.999 2.15074 -2.40714 0
M  V30 2211 H 210.051 0.171898 -3.80011 0
M  V30 2212 H 211.363 0.44436 -4.96817 0
M  V30 2213 H 210.517 2.75958 -5.40308 0
M  V30 2214 H 209.256 2.55415 -4.15469 0
M  V30 2215 H 208.261 0.653833 -5.45898 0
M  V30 2216 H 209.486 0.881719 -6.73352 0
M  V30 2217 H 207.432 2.94871 -5.85992 0
M  V30 2218 H 207.349 1.98152 -7.2957 0
M  V30 2219 H 208.617 3.15858 -7.12639 0
M  V30 2220 N 212.846 1.57033 -0.133567 0
M  V30 2221 C 213.756 2.19632 0.824564 0
M  V30 2222 C 214.772 1.17666 1.28182 0
M  V30 2223 O 215.948 1.50193 1.3418 0
M  V30 2224 C 213.013 2.79499 2.05137 0
M  V30 2225 C 212.074 3.96548 1.64464 0
M  V30 2226 C 211.307 4.5355 2.81297 0
M  V30 2227 O 211.53 4.09438 3.97136 0
M  V30 2228 O 210.464 5.44018 2.57542 0
M  V30 2229 H 214.29 3.01991 0.321766 0
M  V30 2230 H 211.875 1.49112 0.0927889 0
M  V30 2231 H 213.757 3.17602 2.7696 0
M  V30 2232 H 212.432 2.00162 2.54395 0
M  V30 2233 H 211.339 3.63186 0.897048 0
M  V30 2234 H 212.672 4.77364 1.19934 0
M  V30 2235 N 214.325 -0.140222 1.56975 0
M  V30 2236 C 215.257 -1.19818 1.95388 0
M  V30 2237 C 216.27 -1.38816 0.850525 0
M  V30 2238 O 217.459 -1.38267 1.12891 0
M  V30 2239 C 214.559 -2.56189 2.21857 0
M  V30 2240 C 213.732 -2.58077 3.5315 0
M  V30 2241 C 212.791 -3.76037 3.6808 0
M  V30 2242 O 211.817 -3.60598 4.40406 0
M  V30 2243 N 213.019 -4.93763 3.05251 0
M  V30 2244 H 215.784 -0.871609 2.86746 0
M  V30 2245 H 213.345 -0.32972 1.58507 0
M  V30 2246 H 215.337 -3.33623 2.2908 0
M  V30 2247 H 213.907 -2.81111 1.36731 0
M  V30 2248 H 213.127 -1.6651 3.57307 0
M  V30 2249 H 214.415 -2.56377 4.39486 0
M  V30 2250 H 213.813 -5.09209 2.46419 0
M  V30 2251 H 212.37 -5.68949 3.18026 0
M  V30 2252 N 215.803 -1.52179 -0.40978 0
M  V30 2253 C 216.733 -1.78435 -1.5061 0
M  V30 2254 C 217.714 -0.635295 -1.57791 0
M  V30 2255 O 218.899 -0.880823 -1.73076 0
M  V30 2256 C 216.029 -1.93444 -2.88439 0
M  V30 2257 C 214.983 -3.09038 -2.96108 0
M  V30 2258 C 214.309 -3.09268 -4.36185 0
M  V30 2259 C 215.609 -4.48508 -2.67652 0
M  V30 2260 H 217.303 -2.70237 -1.28889 0
M  V30 2261 H 214.849 -1.30036 -0.618605 0
M  V30 2262 H 216.802 -2.10394 -3.65119 0
M  V30 2263 H 215.526 -0.983129 -3.11452 0
M  V30 2264 H 214.185 -2.91837 -2.21872 0
M  V30 2265 H 213.833 -2.11861 -4.56206 0
M  V30 2266 H 213.533 -3.86907 -4.42241 0
M  V30 2267 H 215.057 -3.28348 -5.14801 0
M  V30 2268 H 216.471 -4.65918 -3.34056 0
M  V30 2269 H 214.868 -5.28059 -2.85085 0
M  V30 2270 H 215.938 -4.56649 -1.63095 0
M  V30 2271 N 217.281 0.66697 -1.42791 0
M  V30 2272 C 218.506 1.46004 -1.47301 0
M  V30 2273 C 218.931 1.87894 -0.0880317 0
M  V30 2274 O 218.289 1.56502 0.915253 0
M  V30 2275 C 218.337 2.68031 -2.41229 0
M  V30 2276 O 217.441 3.6659 -1.88906 0
M  V30 2277 H 216.782 0.43832 -0.49877 0
M  V30 2278 H 219.312 0.817391 -1.87563 0
M  V30 2279 H 219.322 3.1601 -2.58073 0
M  V30 2280 H 217.997 2.36883 -3.41847 0
M  V30 2281 H 216.574 3.25661 -1.81656 0
M  V30 2282 N 218.759 1.29093 0.90403 0
M  V30 2283 C 219.689 1.16401 2.02418 0
M  V30 2284 C 220.67 0.0593085 1.69997 0
M  V30 2285 O 221.855 0.238021 1.92736 0
M  V30 2286 C 218.985 0.835233 3.37107 0
M  V30 2287 C 217.939 1.89578 3.83724 0
M  V30 2288 C 217.265 1.42041 5.15489 0
M  V30 2289 C 218.565 3.30394 4.04521 0
M  V30 2290 H 220.259 2.10109 2.13295 0
M  V30 2291 H 217.805 1.01157 1.02486 0
M  V30 2292 H 219.758 0.733169 4.14973 0
M  V30 2293 H 218.482 -0.137543 3.2631 0
M  V30 2294 H 217.141 1.98715 3.08071 0
M  V30 2295 H 216.789 0.436426 5.01103 0
M  V30 2296 H 216.489 2.12964 5.4765 0
M  V30 2297 H 218.013 1.33176 5.959 0
M  V30 2298 H 219.427 3.24123 4.72882 0
M  V30 2299 H 217.824 3.99237 4.48029 0
M  V30 2300 H 218.894 3.73692 3.09002 0
M  V30 2301 N 220.237 -1.11381 1.11499 0
M  V30 2302 C 221.167 -2.19509 0.796125 0
M  V30 2303 C 222.148 -1.68458 -0.235796 0
M  V30 2304 O 223.333 -1.93947 -0.0991344 0
M  V30 2305 C 220.463 -3.46475 0.239205 0
M  V30 2306 C 219.417 -4.10744 1.20307 0
M  V30 2307 C 218.743 -5.32293 0.50683 0
M  V30 2308 C 220.043 -4.55597 2.55399 0
M  V30 2309 H 221.737 -2.46439 1.70024 0
M  V30 2310 H 219.283 -1.18446 0.818935 0
M  V30 2311 H 221.236 -4.214 0.00392006 0
M  V30 2312 H 219.96 -3.19006 -0.700206 0
M  V30 2313 H 218.619 -3.37813 1.42399 0
M  V30 2314 H 218.267 -5.01095 -0.437408 0
M  V30 2315 H 217.967 -5.76243 1.1497 0
M  V30 2316 H 219.491 -6.09956 0.280351 0
M  V30 2317 H 220.905 -5.21841 2.37391 0
M  V30 2318 H 219.302 -5.10363 3.15673 0
M  V30 2319 H 220.372 -3.69013 3.14575 0
M  V30 2320 N 221.715 -0.905404 -1.28997 0
M  V30 2321 C 222.992 -0.453513 -1.9027 0
M  V30 2322 C 223.372 1.06721 -1.82137 0
M  V30 2323 O 222.72 1.91159 -1.25182 0
M  V30 2324 C 222.93 -0.974494 -3.35119 0
M  V30 2325 C 224.278 -1.0216 -4.12127 0
M  V30 2326 O 225.302 -0.922557 -3.44046 0
M  V30 2327 O 224.161 -1.17121 -5.33802 0
M  V30 2328 H 221.255 -0.142347 -0.814657 0
M  V30 2329 H 223.801 -0.995642 -1.37423 0
M  V30 2330 H 222.573 -2.01848 -3.35221 0
M  V30 2331 H 222.196 -0.412706 -3.95452 0
M  V30 2332 N 223.193 1.4272 -0.668489 0
M  V30 2333 C 224.609 1.55992 -0.33745 0
M  V30 2334 C 224.809 1.64933 1.15756 0
M  V30 2335 O 223.865 1.61278 1.94282 0
M  V30 2336 C 225.178 2.81314 -1.06222 0
M  V30 2337 C 226.726 2.95078 -1.04394 0
M  V30 2338 C 227.201 4.23252 -1.74991 0
M  V30 2339 N 228.692 4.3015 -1.71829 0
M  V30 2340 C 229.427 5.28127 -2.23315 0
M  V30 2341 N 228.923 6.32293 -2.83156 0
M  V30 2342 N 230.716 5.19882 -2.13726 0
M  V30 2343 H 222.867 1.3516 -1.63846 0
M  V30 2344 H 225.13 0.650174 -0.689912 0
M  V30 2345 H 224.836 2.80823 -2.11734 0
M  V30 2346 H 224.71 3.72012 -0.62344 0
M  V30 2347 H 227.097 2.951 0.0028244 0
M  V30 2348 H 227.178 2.05627 -1.52155 0
M  V30 2349 H 226.822 4.2399 -2.79633 0
M  V30 2350 H 226.752 5.11626 -1.24685 0
M  V30 2351 H 229.243 3.55499 -1.28175 0
M  V30 2352 H 229.556 7.03398 -3.20079 0
M  V30 2353 H 227.901 6.32873 -2.87223 0
M  V30 2354 H 231.092 4.37423 -1.66669 0
M  V30 2355 H 231.265 5.96077 -2.54158 0
M  V30 2356 N 224.671 0.411399 1.52136 0
M  V30 2357 C 225.918 -0.163645 2.01838 0
M  V30 2358 C 226.246 -1.4495 1.29691 0
M  V30 2359 O 225.501 -1.91725 0.392431 0
M  V30 2360 C 225.8 -0.455872 3.54481 0
M  V30 2361 C 225.466 0.741055 4.44769 0
M  V30 2362 C 224.128 1.06936 4.69167 0
M  V30 2363 C 226.48 1.54075 4.97906 0
M  V30 2364 C 223.808 2.19851 5.43951 0
M  V30 2365 C 226.16 2.66067 5.73926 0
M  V30 2366 C 224.824 2.99381 5.96596 0
M  V30 2367 H 224.094 -0.0598821 0.738576 0
M  V30 2368 H 226.741 0.553283 1.83333 0
M  V30 2369 H 225.046 -1.2544 3.71177 0
M  V30 2370 H 226.743 -0.913802 3.90449 0
M  V30 2371 H 223.333 0.475192 4.25958 0
M  V30 2372 H 227.517 1.30033 4.78963 0
M  V30 2373 H 222.773 2.46006 5.59724 0
M  V30 2374 H 226.947 3.28419 6.14096 0
M  V30 2375 H 224.574 3.86992 6.54325 0
M  V30 2376 N 226.149 -1.5696 0.141893 0
M  V30 2377 C 227.377 -2.00322 -0.517579 0
M  V30 2378 C 227.792 -1.02193 -1.58752 0
M  V30 2379 O 227.149 -0.0181619 -1.82491 0
M  V30 2380 C 227.2 -3.43618 -1.12289 0
M  V30 2381 O 226.921 -4.37995 -0.0956929 0
M  V30 2382 C 228.422 -4.02231 -1.86347 0
M  V30 2383 H 225.642 -0.657243 -0.135177 0
M  V30 2384 H 228.186 -2.03146 0.234973 0
M  V30 2385 H 226.341 -3.41662 -1.82609 0
M  V30 2386 H 226.755 -5.21729 -0.538469 0
M  V30 2387 H 228.229 -5.04509 -2.23997 0
M  V30 2388 H 228.706 -3.42655 -2.74744 0
M  V30 2389 H 229.312 -4.07802 -1.20737 0
M  V30 2390 N 227.627 0.131896 -1.57047 0
M  V30 2391 C 228.537 1.1815 -2.02676 0
M  V30 2392 C 229.553 1.46113 -0.944824 0
M  V30 2393 O 230.729 1.57485 -1.25541 0
M  V30 2394 C 227.794 2.49139 -2.41103 0
M  V30 2395 C 226.855 2.28688 -3.63318 0
M  V30 2396 C 226.088 3.53431 -3.99903 0
M  V30 2397 O 226.311 4.60223 -3.36973 0
M  V30 2398 O 225.245 3.45198 -4.93074 0
M  V30 2399 H 229.071 0.824069 -2.92306 0
M  V30 2400 H 226.656 0.341745 -1.45439 0
M  V30 2401 H 228.538 3.26338 -2.66611 0
M  V30 2402 H 227.213 2.84382 -1.54624 0
M  V30 2403 H 226.12 1.4939 -3.42977 0
M  V30 2404 H 227.453 1.98355 -4.50462 0
M  V30 2405 N 229.106 1.52395 0.401703 0
M  V30 2406 C 230.383 1.57387 1.16141 0
M  V30 2407 C 230.763 0.359359 2.08019 0
M  V30 2408 O 230.111 -0.65326 2.18963 0
M  V30 2409 C 230.321 2.90631 1.93221 0
M  V30 2410 C 231.669 3.43904 2.49028 0
M  V30 2411 O 232.693 2.92421 2.03393 0
M  V30 2412 O 231.552 4.33823 3.32356 0
M  V30 2413 H 228.646 0.634262 0.530698 0
M  V30 2414 H 231.192 1.64725 0.407883 0
M  V30 2415 H 229.964 3.70473 1.25958 0
M  V30 2416 H 229.587 2.8662 2.75563 0
M  V30 2417 N 230.584 -0.659388 1.43143 0
M  V30 2418 C 231.547 -1.75432 1.47501 0
M  V30 2419 C 232.547 -1.56707 0.360512 0
M  V30 2420 O 233.737 -1.62717 0.622002 0
M  V30 2421 C 230.869 -3.14239 1.32162 0
M  V30 2422 H 232.062 -1.7295 2.45006 0
M  V30 2423 H 229.615 -0.870469 1.29817 0
M  V30 2424 H 230.35 -3.22336 0.356401 0
M  V30 2425 H 230.135 -3.29235 2.12948 0
M  V30 2426 H 231.625 -3.94094 1.3813 0
M  V30 2427 N 232.062 -1.29571 -0.897171 0
M  V30 2428 C 233.009 -1.14916 -2.00158 0
M  V30 2429 C 233.979 -0.0418149 -1.66047 0
M  V30 2430 O 235.164 -0.209793 -1.89643 0
M  V30 2431 C 232.304 -0.834307 -3.34863 0
M  V30 2432 C 231.417 -2.02234 -3.8174 0
M  V30 2433 C 230.552 -1.64664 -5.05034 0
M  V30 2434 C 229.591 -2.80033 -5.44286 0
M  V30 2435 N 228.728 -2.42843 -6.58765 0
M  V30 2436 H 233.568 -2.09403 -2.12025 0
M  V30 2437 H 231.105 -1.042 -1.0383 0
M  V30 2438 H 233.063 -0.632436 -4.12379 0
M  V30 2439 H 231.693 0.0736656 -3.22716 0
M  V30 2440 H 230.745 -2.33583 -3.00238 0
M  V30 2441 H 232.057 -2.88673 -4.06779 0
M  V30 2442 H 231.211 -1.4078 -5.9014 0
M  V30 2443 H 229.95 -0.753766 -4.8184 0
M  V30 2444 H 228.955 -3.04596 -4.57713 0
M  V30 2445 H 230.18 -3.69989 -5.6946 0
M  V30 2446 H 228.126 -1.56046 -6.3717 0
M  V30 2447 H 228.043 -3.22815 -6.83613 0
M  V30 2448 H 229.311 -2.22285 -7.47134 0
M  V30 2449 N 233.54 1.10788 -1.12088 0
M  V30 2450 C 234.956 1.34691 -0.856186 0
M  V30 2451 C 235.156 1.94791 0.515615 0
M  V30 2452 O 234.212 2.18524 1.26505 0
M  V30 2453 C 235.525 2.27208 -1.9697 0
M  V30 2454 C 237.073 2.40755 -2.00016 0
M  V30 2455 C 237.548 3.36598 -3.1059 0
M  V30 2456 N 239.039 3.44164 -3.10008 0
M  V30 2457 C 239.774 4.18284 -3.92206 0
M  V30 2458 N 239.27 4.95322 -4.84384 0
M  V30 2459 N 241.063 4.13865 -3.80357 0
M  V30 2460 H 233.214 0.70144 -2.00483 0
M  V30 2461 H 235.477 0.371405 -0.872217 0
M  V30 2462 H 235.183 1.90251 -2.958 0
M  V30 2463 H 235.057 3.27485 -1.87172 0
M  V30 2464 H 237.444 2.76982 -1.01808 0
M  V30 2465 H 237.525 1.40305 -2.13888 0
M  V30 2466 H 237.169 3.01096 -4.09028 0
M  V30 2467 H 237.099 4.36918 -2.93956 0
M  V30 2468 H 239.59 2.8922 -2.43228 0
M  V30 2469 H 239.903 5.49267 -5.43623 0
M  V30 2470 H 238.248 4.94459 -4.884 0
M  V30 2471 H 241.439 3.52773 -3.07683 0
M  V30 2472 H 241.612 4.71372 -4.44649 0
M  V30 2473 N 235.018 0.912232 1.28515 0
M  V30 2474 C 235.948 0.416403 2.29757 0
M  V30 2475 C 236.929 -0.515194 1.6211 0
M  V30 2476 O 238.114 -0.423253 1.89532 0
M  V30 2477 C 235.244 -0.34572 3.45575 0
M  V30 2478 C 234.198 0.496599 4.25109 0
M  V30 2479 C 233.524 -0.393771 5.33248 0
M  V30 2480 C 234.824 1.75307 4.92001 0
M  V30 2481 H 236.518 1.26249 2.7148 0
M  V30 2482 H 234.064 0.608515 1.30511 0
M  V30 2483 H 236.017 -0.703422 4.15488 0
M  V30 2484 H 234.741 -1.2257 3.02728 0
M  V30 2485 H 233.4 0.8368 3.56922 0
M  V30 2486 H 233.048 -1.27225 4.86644 0
M  V30 2487 H 232.748 0.166209 5.87365 0
M  V30 2488 H 234.272 -0.747389 6.06009 0
M  V30 2489 H 235.686 1.46437 5.54283 0
M  V30 2490 H 234.083 2.25534 5.56106 0
M  V30 2491 H 235.153 2.48176 4.16577 0
M  V30 2492 N 236.496 -1.42363 0.676048 0
M  V30 2493 C 237.726 -2.05561 0.206967 0
M  V30 2494 C 238.134 -1.50887 -1.14148 0
M  V30 2495 O 237.477 -0.643933 -1.72044 0
M  V30 2496 C 237.539 -3.5944 0.0659508 0
M  V30 2497 C 237.203 -4.36812 1.34331 0
M  V30 2498 C 238.2 -4.67383 2.27704 0
M  V30 2499 C 235.885 -4.76429 1.59125 0
M  V30 2500 C 237.879 -5.36509 3.44147 0
M  V30 2501 C 235.566 -5.45294 2.75857 0
M  V30 2502 C 236.564 -5.75259 3.68193 0
M  V30 2503 O 236.252 -6.42712 4.82883 0
M  V30 2504 H 235.984 -0.668872 0.0979084 0
M  V30 2505 H 238.538 -1.83467 0.923531 0
M  V30 2506 H 236.768 -3.80197 -0.706204 0
M  V30 2507 H 238.457 -4.0427 -0.363418 0
M  V30 2508 H 239.223 -4.37275 2.09799 0
M  V30 2509 H 235.102 -4.52498 0.881258 0
M  V30 2510 H 238.646 -5.59814 4.16238 0
M  V30 2511 H 234.543 -5.7482 2.93688 0
M  V30 2512 H 235.311 -6.61204 4.82444 0
M  V30 2513 N 237.974 -0.419461 -1.51915 0
M  V30 2514 C 239.222 0.152637 -2.01523 0
M  V30 2515 C 239.543 1.44762 -1.30649 0
M  V30 2516 O 238.813 1.90997 -0.435535 0
M  V30 2517 H 237.393 0.0593966 -0.744635 0
M  V30 2518 H 240.055 -0.558073 -1.86739 0
M  V30 2519 H 239.151 0.341369 -3.10227 0
M  V30 2520 N 239.452 1.56882 -0.150215 0
M  V30 2521 C 240.677 2.01027 0.510184 0
M  V30 2522 C 241.102 1.02966 1.57415 0
M  V30 2523 O 240.46 0.00590158 1.81299 0
M  V30 2524 C 240.508 3.43899 1.08472 0
M  V30 2525 O 239.612 3.4885 2.19948 0
M  V30 2526 H 238.953 0.652233 0.124451 0
M  V30 2527 H 241.483 2.03093 -0.247894 0
M  V30 2528 H 241.493 3.82766 1.41259 0
M  V30 2529 H 240.168 4.14776 0.305582 0
M  V30 2530 H 238.745 3.21827 1.88366 0
M  V30 2531 N 240.93 -0.123565 1.57115 0
M  V30 2532 C 241.84 -1.17074 2.033 0
M  V30 2533 C 242.856 -1.4561 0.952559 0
M  V30 2534 O 244.032 -1.56817 1.26374 0
M  V30 2535 C 241.097 -2.47857 2.42421 0
M  V30 2536 C 240.158 -2.26758 3.64526 0
M  V30 2537 C 239.391 -3.51305 4.01771 0
M  V30 2538 O 239.614 -4.5843 3.39409 0
M  V30 2539 O 238.548 -3.42578 4.94898 0
M  V30 2540 H 242.374 -0.808555 2.92739 0
M  V30 2541 H 239.959 -0.334027 1.45618 0
M  V30 2542 H 241.841 -3.2492 2.68338 0
M  V30 2543 H 240.516 -2.83558 1.5613 0
M  V30 2544 H 239.423 -1.47569 3.43765 0
M  V30 2545 H 240.756 -1.95963 4.51508 0
M  V30 2546 N 242.408 -1.52605 -0.393616 0
M  V30 2547 C 243.371 -1.76415 -1.46323 0
M  V30 2548 C 244.371 -0.634126 -1.47768 0
M  V30 2549 O 245.561 -0.902142 -1.4902 0
M  V30 2550 C 242.693 -1.8607 -2.85641 0
M  V30 2551 H 243.886 -2.71916 -1.26498 0
M  V30 2552 H 241.439 -1.43257 -0.625073 0
M  V30 2553 H 242.174 -0.925378 -3.10817 0
M  V30 2554 H 241.959 -2.68235 -2.85993 0
M  V30 2555 H 243.449 -2.06179 -3.63153 0
M  V30 2556 N 243.887 0.651787 -1.4349 0
M  V30 2557 C 245.134 1.41167 -1.45183 0
M  V30 2558 C 245.462 1.94349 -0.0766601 0
M  V30 2559 O 244.717 1.72804 0.918555 0
M  V30 2560 C 245.016 2.60914 -2.44251 0
M  V30 2561 C 244.682 2.26142 -3.9009 0
M  V30 2562 C 243.344 2.16371 -4.2981 0
M  V30 2563 C 245.696 1.98334 -4.81989 0
M  V30 2564 C 243.024 1.7695 -5.5938 0
M  V30 2565 C 245.376 1.6041 -6.11924 0
M  V30 2566 C 244.04 1.49166 -6.5062 0
M  V30 2567 H 243.31 0.516566 -0.531263 0
M  V30 2568 H 245.957 0.741099 -1.76579 0
M  V30 2569 H 244.262 3.3311 -2.06265 0
M  V30 2570 H 245.959 3.19127 -2.42815 0
M  V30 2571 H 242.549 2.34658 -3.58655 0
M  V30 2572 H 246.733 2.04803 -4.52072 0
M  V30 2573 H 241.989 1.66831 -5.88198 0
M  V30 2574 H 246.163 1.37925 -6.82605 0
M  V30 2575 H 243.79 1.1839 -7.50925 0
M  V30 2576 N 245.365 1.30045 0.890287 0
M  V30 2577 C 246.328 1.15963 1.977 0
M  V30 2578 C 247.328 0.0923777 1.60534 0
M  V30 2579 O 248.518 0.340071 1.70848 0
M  V30 2580 C 245.65 0.775451 3.31963 0
M  V30 2581 H 246.843 2.12502 2.11619 0
M  V30 2582 H 244.396 1.13366 1.07601 0
M  V30 2583 H 245.131 -0.189671 3.23745 0
M  V30 2584 H 244.916 1.54668 3.60306 0
M  V30 2585 H 246.406 0.700251 4.11687 0
M  V30 2586 N 246.843 -1.10192 1.12674 0
M  V30 2587 C 248.071 -1.85983 0.906527 0
M  V30 2588 C 248.486 -1.80783 -0.544333 0
M  V30 2589 O 247.843 -1.19834 -1.37645 0
M  V30 2590 C 247.894 -3.34281 1.37618 0
M  V30 2591 O 247.615 -3.39401 2.77017 0
M  V30 2592 C 249.116 -4.26938 1.19325 0
M  V30 2593 H 246.336 -0.587716 0.323775 0
M  V30 2594 H 248.88 -1.39284 1.49734 0
M  V30 2595 H 247.035 -3.78436 0.828539 0
M  V30 2596 H 247.449 -4.31838 2.97684 0
M  V30 2597 H 248.923 -5.29181 1.57071 0
M  V30 2598 H 249.4 -4.38995 0.134097 0
M  V30 2599 H 250.006 -3.8859 1.72852 0
M  V30 2600 N 248.321 -0.919034 -1.28029 0
M  V30 2601 C 249.598 -0.473668 -1.89778 0
M  V30 2602 C 249.978 1.04783 -1.83259 0
M  V30 2603 O 249.326 1.8982 -1.27202 0
M  V30 2604 C 249.536 -1.00998 -3.34066 0
M  V30 2605 C 250.884 -1.06525 -4.1102 0
M  V30 2606 O 251.908 -0.958996 -3.43048 0
M  V30 2607 O 250.767 -1.22776 -5.3253 0
M  V30 2608 H 247.861 -0.15098 -0.813101 0
M  V30 2609 H 250.407 -1.01016 -1.36359 0
M  V30 2610 H 249.179 -2.05392 -3.33061 0
M  V30 2611 H 248.802 -0.454626 -3.94992 0
M  V30 2612 N 249.799 1.42003 -0.683588 0
M  V30 2613 C 251.046 2.01413 -0.209514 0
M  V30 2614 C 251.374 1.54088 1.1869 0
M  V30 2615 O 250.629 0.737591 1.81268 0
M  V30 2616 C 250.928 3.56827 -0.202357 0
M  V30 2617 C 250.594 4.23617 -1.54464 0
M  V30 2618 C 249.256 4.41577 -1.91215 0
M  V30 2619 C 251.608 4.61178 -2.42826 0
M  V30 2620 C 248.936 4.9437 -3.15935 0
M  V30 2621 C 251.288 5.15355 -3.66867 0
M  V30 2622 C 249.952 5.31528 -4.03776 0
M  V30 2623 H 249.222 0.737023 -0.0766668 0
M  V30 2624 H 251.869 1.70067 -0.880312 0
M  V30 2625 H 250.174 3.87892 0.551969 0
M  V30 2626 H 251.871 4.00588 0.181793 0
M  V30 2627 H 248.461 4.10004 -1.24877 0
M  V30 2628 H 252.645 4.46968 -2.15717 0
M  V30 2629 H 247.901 5.05076 -3.44541 0
M  V30 2630 H 252.075 5.43402 -4.35531 0
M  V30 2631 H 249.702 5.72199 -5.00492 0
M  V30 2632 N 251.277 0.427512 1.51691 0
M  V30 2633 C 252.209 -0.424521 2.25234 0
M  V30 2634 C 253.222 -0.994671 1.2888 0
M  V30 2635 O 254.411 -0.890483 1.54702 0
M  V30 2636 C 251.511 -1.60479 2.98496 0
M  V30 2637 C 250.684 -1.15527 4.21868 0
M  V30 2638 C 249.743 -2.20454 4.77793 0
M  V30 2639 O 248.769 -1.8029 5.39893 0
M  V30 2640 N 249.971 -3.52831 4.60967 0
M  V30 2641 H 252.736 0.205749 2.98993 0
M  V30 2642 H 250.297 0.255867 1.59865 0
M  V30 2643 H 252.289 -2.30276 3.32799 0
M  V30 2644 H 250.859 -2.14061 2.27809 0
M  V30 2645 H 250.079 -0.284736 3.9317 0
M  V30 2646 H 251.367 -0.832173 5.01949 0
M  V30 2647 H 250.765 -3.88201 4.11481 0
M  V30 2648 H 249.322 -4.18551 4.99658 0
M  V30 2649 N 252.755 -1.56801 0.158532 0
M  V30 2650 C 254.032 -1.88131 -0.535357 0
M  V30 2651 C 254.412 -1.06638 -1.82186 0
M  V30 2652 O 253.76 -0.156533 -2.27963 0
M  V30 2653 C 253.97 -3.39949 -0.789653 0
M  V30 2654 C 255.318 -4.09416 -1.12533 0
M  V30 2655 O 256.342 -3.45194 -0.878622 0
M  V30 2656 O 255.201 -5.22855 -1.59014 0
M  V30 2657 H 252.295 -0.780143 -0.27442 0
M  V30 2658 H 254.841 -1.68564 0.19601 0
M  V30 2659 H 253.613 -3.91115 0.120353 0
M  V30 2660 H 253.236 -3.65084 -1.57479 0
M  V30 2661 N 254.233 0.115231 -1.57178 0
M  V30 2662 C 255.458 0.840354 -1.89612 0
M  V30 2663 C 255.883 1.72464 -0.750845 0
M  V30 2664 O 255.241 1.78826 0.298478 0
M  V30 2665 C 255.289 1.64654 -3.20814 0
M  V30 2666 O 254.393 2.7538 -3.06985 0
M  V30 2667 H 253.734 0.232158 -0.622092 0
M  V30 2668 H 256.264 0.0964977 -2.04372 0
M  V30 2669 H 256.274 2.03499 -3.53627 0
M  V30 2670 H 254.949 0.997416 -4.03763 0
M  V30 2671 H 253.526 2.3971 -2.85646 0
M  V30 2672 N 255.711 1.52812 0.385517 0
M  V30 2673 C 256.674 1.77188 1.45386 0
M  V30 2674 C 257.674 0.641953 1.4743 0
M  V30 2675 O 258.864 0.910033 1.4854 0
M  V30 2676 C 255.996 1.87582 2.8465 0
M  V30 2677 H 257.189 2.72583 1.25054 0
M  V30 2678 H 254.742 1.43586 0.617467 0
M  V30 2679 H 255.477 0.941849 3.10322 0
M  V30 2680 H 255.262 2.69748 2.84567 0
M  V30 2681 H 256.752 2.08102 3.62054 0
M  V30 2682 N 257.189 -0.644168 1.43834 0
M  V30 2683 C 258.152 -1.73857 1.49353 0
M  V30 2684 C 259.152 -1.56315 0.377112 0
M  V30 2685 O 260.342 -1.62048 0.639226 0
M  V30 2686 C 257.474 -3.12819 1.35488 0
M  V30 2687 H 258.667 -1.70342 2.46827 0
M  V30 2688 H 256.22 -0.856652 1.30733 0
M  V30 2689 H 256.955 -3.2194 0.390569 0
M  V30 2690 H 256.74 -3.26958 2.16428 0
M  V30 2691 H 258.23 -3.92606 1.42302 0
M  V30 2692 N 258.668 -1.30515 -0.883378 0
M  V30 2693 C 259.631 -1.1701 -1.97082 0
M  V30 2694 C 260.631 -0.10089 -1.60483 0
M  V30 2695 O 261.821 -0.349127 -1.70666 0
M  V30 2696 C 258.953 -0.793045 -3.31547 0
M  V30 2697 H 260.146 -2.13622 -2.10489 0
M  V30 2698 H 257.699 -1.13935 -1.06998 0
M  V30 2699 H 258.434 0.172499 -3.23841 0
M  V30 2700 H 258.219 -1.56576 -3.5948 0
M  V30 2701 H 259.709 -0.722073 -4.1131 0
M  V30 2702 N 260.146 1.09593 -1.13257 0
M  V30 2703 C 261.093 2.1618 -0.808381 0
M  V30 2704 C 262.063 1.64517 0.228754 0
M  V30 2705 O 263.248 1.9053 0.101381 0
M  V30 2706 C 260.388 3.43973 -0.278675 0
M  V30 2707 C 259.501 4.09545 -1.37466 0
M  V30 2708 C 258.636 5.25088 -0.803479 0
M  V30 2709 C 257.675 5.82579 -1.87799 0
M  V30 2710 N 256.812 6.89486 -1.32488 0
M  V30 2711 H 261.652 2.43254 -1.72138 0
M  V30 2712 H 259.189 1.19392 -0.859294 0
M  V30 2713 H 261.147 4.17174 0.0465583 0
M  V30 2714 H 259.777 3.17223 0.597459 0
M  V30 2715 H 258.829 3.34226 -1.81652 0
M  V30 2716 H 260.141 4.48307 -2.18684 0
M  V30 2717 H 259.295 6.05178 -0.429427 0
M  V30 2718 H 258.034 4.87684 0.0397956 0
M  V30 2719 H 257.039 5.01152 -2.26113 0
M  V30 2720 H 258.264 6.22045 -2.72463 0
M  V30 2721 H 256.21 6.54064 -0.503575 0
M  V30 2722 H 256.127 7.27007 -2.07355 0
M  V30 2723 H 257.395 7.73336 -0.978336 0
M  V30 2724 N 261.624 0.925811 1.2754 0
M  V30 2725 C 262.571 0.422045 2.26908 0
M  V30 2726 C 263.541 -0.510029 1.58076 0
M  V30 2727 O 264.726 -0.429599 1.85901 0
M  V30 2728 C 261.866 -0.320837 3.43605 0
M  V30 2729 C 260.979 0.64513 4.27156 0
M  V30 2730 C 260.114 -0.117405 5.3107 0
M  V30 2731 C 259.153 0.841391 6.0629 0
M  V30 2732 N 258.29 0.111604 7.02011 0
M  V30 2733 H 263.13 1.27441 2.69375 0
M  V30 2734 H 260.667 0.639697 1.32462 0
M  V30 2735 H 262.625 -0.76785 4.10073 0
M  V30 2736 H 261.255 -1.13745 3.02096 0
M  V30 2737 H 260.307 1.21067 3.6062 0
M  V30 2738 H 261.619 1.37797 4.79389 0
M  V30 2739 H 260.773 -0.624422 6.03478 0
M  V30 2740 H 259.512 -0.883219 4.79636 0
M  V30 2741 H 258.517 1.35967 5.32722 0
M  V30 2742 H 259.742 1.60696 6.59813 0
M  V30 2743 H 257.688 -0.635999 6.5291 0
M  V30 2744 H 257.605 0.784044 7.51923 0
M  V30 2745 H 258.873 -0.374823 7.78598 0
M  V30 2746 N 263.102 -1.41638 0.69111 0
M  V30 2747 C 264.032 -2.3347 0.037248 0
M  V30 2748 C 265.013 -1.51575 -0.771947 0
M  V30 2749 O 266.198 -1.80126 -0.72582 0
M  V30 2750 C 263.328 -3.35354 -0.903064 0
M  V30 2751 C 262.282 -4.27526 -0.201288 0
M  V30 2752 C 261.608 -5.19747 -1.25565 0
M  V30 2753 C 262.908 -5.13959 0.929689 0
M  V30 2754 H 264.602 -2.88397 0.804227 0
M  V30 2755 H 262.148 -1.38669 0.388189 0
M  V30 2756 H 264.101 -3.98519 -1.36969 0
M  V30 2757 H 262.825 -2.78767 -1.70166 0
M  V30 2758 H 261.484 -3.65779 0.245265 0
M  V30 2759 H 261.132 -4.59479 -2.04666 0
M  V30 2760 H 260.832 -5.8225 -0.791128 0
M  V30 2761 H 262.356 -5.85789 -1.72288 0
M  V30 2762 H 263.77 -5.70718 0.543546 0
M  V30 2763 H 262.167 -5.85379 1.32103 0
M  V30 2764 H 263.237 -4.51389 1.77133 0
M  V30 2765 N 264.58 -0.43555 -1.51462 0
M  V30 2766 C 265.829 0.133007 -2.01261 0
M  V30 2767 C 266.142 1.43942 -1.32439 0
M  V30 2768 O 267.348 2.09081 -1.73198 0
M  V30 2769 C 265.804 0.287581 -3.58749 0
M  V30 2770 C 265.412 -1.00829 -4.36506 0
M  V30 2771 C 267.156 0.810004 -4.167 0
M  V30 2772 C 265.063 -0.819454 -5.85695 0
M  V30 2773 H 263.993 0.0534822 -0.752101 0
M  V30 2774 H 266.644 -0.565038 -1.74584 0
M  V30 2775 H 265.026 1.04859 -3.81865 0
M  V30 2776 H 266.2 -1.77749 -4.25138 0
M  V30 2777 H 264.515 -1.45911 -3.89999 0
M  V30 2778 H 267.112 0.967743 -5.2587 0
M  V30 2779 H 267.455 1.79196 -3.75758 0
M  V30 2780 H 267.988 0.107357 -3.97655 0
M  V30 2781 H 264.727 -1.77374 -6.31046 0
M  V30 2782 H 264.247 -0.0900208 -5.99732 0
M  V30 2783 H 265.926 -0.471949 -6.45276 0
M  V30 2784 N 266.058 1.56714 -0.166846 0
M  V30 2785 C 267.006 2.19056 0.782123 0
M  V30 2786 C 268 1.15328 1.24079 0
M  V30 2787 O 269.206 1.33537 1.20697 0
M  V30 2788 H 265.581 0.70167 0.270486 0
M  V30 2789 H 267.552 2.97494 0.232322 0
M  V30 2790 C 266.301 2.84206 2.00306 0
M  V30 2791 H 265.624 3.63748 1.65914 0
M  V30 2792 H 267.064 3.31302 2.64604 0
M  V30 2793 C 265.523 1.83744 2.82382 0
M  V30 2794 O 266.053 1.32014 3.79388 0
M  V30 2795 N 264.259 1.52601 2.47308 0
M  V30 2796 H 263.806 1.9486 1.68485 0
M  V30 2797 H 263.764 0.856351 3.02513 0
M  V30 2798 N 267.536 -0.106894 1.57237 0
M  V30 2799 C 268.813 -0.843526 1.76477 0
M  V30 2800 C 269.193 -1.97499 0.745464 0
M  V30 2801 O 268.541 -2.27357 -0.228306 0
M  V30 2802 C 268.751 -1.34903 3.21873 0
M  V30 2803 C 270.099 -1.79654 3.8472 0
M  V30 2804 O 271.123 -1.44554 3.2555 0
M  V30 2805 O 269.982 -2.44515 4.88748 0
M  V30 2806 H 267.076 -0.401468 0.723016 0
M  V30 2807 H 269.622 -0.0896927 1.69463 0
M  V30 2808 H 268.394 -0.53781 3.87586 0
M  V30 2809 H 268.017 -2.16522 3.33473 0
M  V30 2810 N 269.014 -1.53014 -0.377408 0
M  V30 2811 C 270.244 -1.72265 -1.14054 0
M  V30 2812 C 270.652 -0.44601 -1.83868 0
M  V30 2813 O 269.995 0.590095 -1.73964 0
M  V30 2814 C 270.057 -2.82492 -2.22348 0
M  V30 2815 C 269.721 -4.23233 -1.72402 0
M  V30 2816 C 270.718 -5.05992 -1.19448 0
M  V30 2817 C 268.403 -4.696 -1.78273 0
M  V30 2818 C 270.397 -6.33203 -0.730268 0
M  V30 2819 C 268.084 -5.96792 -1.31464 0
M  V30 2820 C 269.082 -6.78424 -0.789297 0
M  V30 2821 O 268.77 -8.0323 -0.328077 0
M  V30 2822 H 268.502 -0.579873 -0.347453 0
M  V30 2823 H 271.056 -2.00502 -0.445882 0
M  V30 2824 H 269.286 -2.49702 -2.95272 0
M  V30 2825 H 270.975 -2.90034 -2.83963 0
M  V30 2826 H 271.741 -4.71349 -1.14259 0
M  V30 2827 H 267.62 -4.06142 -2.18106 0
M  V30 2828 H 271.164 -6.96868 -0.319542 0
M  V30 2829 H 267.061 -6.30937 -1.36342 0
M  V30 2830 H 267.829 -8.1727 -0.448493 0
M  V30 2831 N 270.492 0.636531 -1.44174 0
M  V30 2832 C 271.738 1.39826 -1.4689 0
M  V30 2833 C 272.071 1.93947 -0.0990585 0
M  V30 2834 O 271.346 1.73325 0.882544 0
M  V30 2835 C 271.629 2.56751 -2.5249 0
M  V30 2836 C 271.482 2.08014 -3.98811 0
M  V30 2837 C 272.801 3.58946 -2.54649 0
M  V30 2838 H 269.92 0.507075 -0.53483 0
M  V30 2839 H 272.562 0.720188 -1.75822 0
M  V30 2840 H 270.712 3.14597 -2.2795 0
M  V30 2841 H 272.384 1.5504 -4.34466 0
M  V30 2842 H 270.627 1.39242 -4.10846 0
M  V30 2843 H 271.298 2.92169 -4.68339 0
M  V30 2844 H 273.774 3.1089 -2.76563 0
M  V30 2845 H 272.65 4.38286 -3.3045 0
M  V30 2846 H 272.911 4.12655 -1.58646 0
M  V30 2847 N 271.97 1.30982 0.876444 0
M  V30 2848 C 272.917 1.18085 1.98304 0
M  V30 2849 C 273.887 0.0682263 1.6596 0
M  V30 2850 O 275.072 0.239937 1.89285 0
M  V30 2851 C 272.212 0.887475 3.33493 0
M  V30 2852 C 271.325 2.08281 3.78475 0
M  V30 2853 C 270.46 1.72678 5.0235 0
M  V30 2854 C 269.499 2.88657 5.39762 0
M  V30 2855 N 268.636 2.53292 6.54819 0
M  V30 2856 H 273.476 2.1275 2.08666 0
M  V30 2857 H 271.013 1.05839 1.02159 0
M  V30 2858 H 272.971 0.697961 4.1132 0
M  V30 2859 H 271.601 -0.022315 3.22792 0
M  V30 2860 H 270.653 2.3833 2.96484 0
M  V30 2861 H 271.965 2.95108 4.02135 0
M  V30 2862 H 271.119 1.50151 5.87826 0
M  V30 2863 H 269.858 0.830327 4.8058 0
M  V30 2864 H 268.863 3.1184 4.52809 0
M  V30 2865 H 270.088 3.79002 5.63502 0
M  V30 2866 H 268.034 1.66163 6.34607 0
M  V30 2867 H 267.951 3.3365 6.7839 0
M  V30 2868 H 269.219 2.34143 7.43503 0
M  V30 2869 N 273.449 -1.08991 1.13837 0
M  V30 2870 C 274.397 -2.17841 0.815347 0
M  V30 2871 C 275.391 -1.68164 -0.204233 0
M  V30 2872 O 276.597 -1.79897 -0.0609304 0
M  V30 2873 H 272.972 -0.710654 0.245915 0
M  V30 2874 H 274.943 -2.42315 1.74143 0
M  V30 2875 C 273.692 -3.46381 0.302614 0
M  V30 2876 H 273.015 -3.84979 1.0785 0
M  V30 2877 H 274.455 -4.23844 0.115074 0
M  V30 2878 C 272.914 -3.22556 -0.972591 0
M  V30 2879 O 273.444 -3.45599 -2.04754 0
M  V30 2880 N 271.65 -2.76134 -0.905455 0
M  V30 2881 H 271.197 -2.57582 -0.0305421 0
M  V30 2882 H 271.155 -2.60571 -1.75926 0
M  V30 2883 N 274.927 -0.932562 -1.27047 0
M  V30 2884 C 276.175 -0.574422 -1.93765 0
M  V30 2885 C 276.496 0.887993 -1.73608 0
M  V30 2886 O 275.766 1.62999 -1.08665 0
M  V30 2887 H 274.346 -0.209451 -0.717035 0
M  V30 2888 H 277.008 -1.18601 -1.5466 0
M  V30 2889 H 276.104 -0.784841 -3.02071 0
M  V30 2890 N 276.405 1.4127 -0.698611 0
M  V30 2891 C 277.633 2.05503 -0.239992 0
M  V30 2892 C 278.048 1.52584 1.11191 0
M  V30 2893 O 277.405 0.675323 1.69545 0
M  V30 2894 C 277.456 3.60987 -0.192429 0
M  V30 2895 O 277.177 4.1195 -1.49094 0
M  V30 2896 C 278.678 4.42371 0.28681 0
M  V30 2897 H 275.898 0.661748 -0.111045 0
M  V30 2898 H 278.442 1.80987 -0.95205 0
M  V30 2899 H 276.597 3.84533 0.470472 0
M  V30 2900 H 277.011 5.06018 -1.38007 0
M  V30 2901 H 278.485 5.51344 0.26896 0
M  V30 2902 H 278.962 4.18699 1.32619 0
M  V30 2903 H 279.568 4.23897 -0.345201 0
M  V30 2904 N 277.883 0.443576 1.51229 0
M  V30 2905 C 279.299 0.0962001 1.5931 0
M  V30 2906 C 279.499 -1.39501 1.45402 0
M  V30 2907 O 278.555 -2.16557 1.29843 0
M  V30 2908 C 279.868 0.621875 2.94199 0
M  V30 2909 C 281.416 0.582865 3.07525 0
M  V30 2910 C 281.891 1.08562 4.44948 0
M  V30 2911 N 283.382 1.04387 4.51284 0
M  V30 2912 C 284.117 1.40368 5.55954 0
M  V30 2913 N 283.613 1.83664 6.68011 0
M  V30 2914 N 285.406 1.32145 5.46346 0
M  V30 2915 H 277.557 1.41376 1.58514 0
M  V30 2916 H 279.82 0.582965 0.747567 0
M  V30 2917 H 279.526 1.66546 3.09767 0
M  V30 2918 H 279.4 0.0502125 3.77167 0
M  V30 2919 H 281.787 -0.451749 2.91622 0
M  V30 2920 H 281.868 1.191 2.26382 0
M  V30 2921 H 281.512 2.11873 4.61598 0
M  V30 2922 H 281.442 0.453956 5.2464 0
M  V30 2923 H 283.933 0.725986 3.70861 0
M  V30 2924 H 284.246 2.0934 7.43906 0
M  V30 2925 H 282.591 1.87596 6.69203 0
M  V30 2926 H 285.782 0.981808 4.57688 0
M  V30 2927 H 285.955 1.60514 6.27805 0
M  V30 2928 N 279.361 -1.56624 0.175154 0
M  V30 2929 C 280.609 -1.96609 -0.467885 0
M  V30 2930 C 280.93 -1.06238 -1.63519 0
M  V30 2931 O 280.2 -0.129523 -1.95471 0
M  V30 2932 H 278.78 -0.726008 -0.175845 0
M  V30 2933 H 281.442 -1.93195 0.257234 0
M  V30 2934 H 280.538 -3.00989 -0.825342 0
M  V30 2935 N 280.839 0.0985539 -1.57292 0
M  V30 2936 C 281.786 1.11981 -2.01814 0
M  V30 2937 C 282.756 1.39999 -0.89384 0
M  V30 2938 O 283.941 1.5152 -1.15958 0
M  V30 2939 C 281.081 2.43577 -2.44467 0
M  V30 2940 C 280.194 2.2232 -3.70402 0
M  V30 2941 C 279.329 3.4729 -4.01949 0
M  V30 2942 C 278.368 3.2128 -5.21005 0
M  V30 2943 N 277.505 4.38507 -5.48321 0
M  V30 2944 H 282.345 0.733149 -2.88841 0
M  V30 2945 H 279.882 0.350482 -1.42864 0
M  V30 2946 H 281.84 3.20373 -2.6724 0
M  V30 2947 H 280.47 2.80097 -1.60455 0
M  V30 2948 H 279.522 1.36343 -3.55126 0
M  V30 2949 H 280.834 1.99089 -4.57345 0
M  V30 2950 H 279.988 4.32495 -4.25479 0
M  V30 2951 H 278.727 3.73572 -3.13521 0
M  V30 2952 H 277.732 2.34468 -4.97298 0
M  V30 2953 H 278.957 2.96348 -6.11028 0
M  V30 2954 H 276.903 4.64871 -4.62851 0
M  V30 2955 H 276.82 4.18455 -6.29628 0
M  V30 2956 H 278.088 5.24787 -5.76385 0
M  V30 2957 N 282.317 1.53212 0.369288 0
M  V30 2958 C 283.566 1.68436 1.10961 0
M  V30 2959 C 283.879 0.440738 1.9057 0
M  V30 2960 O 285.085 0.473446 2.6734 0
M  V30 2961 C 283.541 2.97744 2.0218 0
M  V30 2962 C 283.149 4.29355 1.279 0
M  V30 2963 C 284.893 3.22334 2.76226 0
M  V30 2964 C 282.8 5.49755 2.17999 0
M  V30 2965 H 281.73 0.627568 0.41794 0
M  V30 2966 H 284.381 1.79713 0.370884 0
M  V30 2967 H 282.763 2.8026 2.79768 0
M  V30 2968 H 283.937 4.57458 0.554007 0
M  V30 2969 H 282.252 4.11179 0.657311 0
M  V30 2970 H 284.849 4.09471 3.43857 0
M  V30 2971 H 285.192 2.38238 3.41392 0
M  V30 2972 H 285.725 3.40475 2.05723 0
M  V30 2973 H 282.464 6.36318 1.57417 0
M  V30 2974 H 281.984 5.25937 2.88359 0
M  V30 2975 H 283.663 5.84401 2.77641 0
M  V30 2976 N 283.795 -0.628877 1.44509 0
M  V30 2977 C 285.023 -1.41554 1.50897 0
M  V30 2978 C 285.438 -1.8832 0.134564 0
M  V30 2979 O 284.795 -1.60969 -0.859965 0
M  V30 2980 C 284.846 -2.63435 2.47556 0
M  V30 2981 O 284.567 -2.18619 3.79654 0
M  V30 2982 C 286.068 -3.56537 2.63431 0
M  V30 2983 H 283.288 -0.434044 0.511709 0
M  V30 2984 H 285.832 -0.768895 1.89495 0
M  V30 2985 H 283.987 -3.24187 2.12089 0
M  V30 2986 H 284.401 -2.97652 4.31861 0
M  V30 2987 H 285.875 -4.38657 3.35088 0
M  V30 2988 H 286.352 -4.05493 1.68738 0
M  V30 2989 H 286.958 -3.01653 2.9981 0
M  V30 2990 N 285.273 -1.31445 -0.869486 0
M  V30 2991 C 286.55 -1.11795 -1.60503 0
M  V30 2992 C 286.93 0.327168 -2.08549 0
M  V30 2993 O 286.278 1.32135 -1.8642 0
M  V30 2994 C 286.488 -2.13258 -2.76265 0
M  V30 2995 C 287.836 -2.45805 -3.46215 0
M  V30 2996 O 288.86 -2.11688 -2.86473 0
M  V30 2997 O 287.719 -3.04228 -4.5399 0
M  V30 2998 H 284.813 -0.430421 -0.706163 0
M  V30 2999 H 287.359 -1.42925 -0.914907 0
M  V30 3000 H 286.131 -3.10461 -2.3818 0
M  V30 3001 H 285.754 -1.83035 -3.52964 0
M  V30 3002 N 286.751 1.08385 -1.14413 0
M  V30 3003 C 287.681 2.17321 -0.854044 0
M  V30 3004 C 288.662 1.69024 0.191049 0
M  V30 3005 O 289.847 1.94141 0.0476779 0
M  V30 3006 C 286.977 3.45719 -0.330983 0
M  V30 3007 C 285.931 4.07409 -1.31155 0
M  V30 3008 C 285.257 5.30762 -0.64778 0
M  V30 3009 C 286.557 4.48665 -2.67388 0
M  V30 3010 H 288.251 2.41845 -1.76498 0
M  V30 3011 H 285.797 1.16233 -0.850051 0
M  V30 3012 H 287.75 4.21241 -0.115645 0
M  V30 3013 H 286.474 3.2075 0.615381 0
M  V30 3014 H 285.133 3.33919 -1.51306 0
M  V30 3015 H 284.781 5.02078 0.304398 0
M  V30 3016 H 284.481 5.72992 -1.30207 0
M  V30 3017 H 286.005 6.08998 -0.441972 0
M  V30 3018 H 287.419 5.15364 -2.51143 0
M  V30 3019 H 285.816 5.01814 -3.29093 0
M  V30 3020 H 286.886 3.60543 -3.24248 0
M  V30 3021 N 288.23 0.939286 1.26551 0
M  V30 3022 C 289.479 0.581601 1.93133 0
M  V30 3023 C 289.792 -0.883224 1.74524 0
M  V30 3024 O 290.998 -1.3502 2.35546 0
M  V30 3025 C 289.454 0.989425 3.46032 0
M  V30 3026 C 289.062 2.47573 3.73379 0
M  V30 3027 C 290.806 0.703544 4.18629 0
M  V30 3028 C 288.713 2.82235 5.19709 0
M  V30 3029 H 287.643 0.213803 0.723052 0
M  V30 3030 H 290.294 1.14167 1.4366 0
M  V30 3031 H 288.676 0.357902 3.94379 0
M  V30 3032 H 289.85 3.15614 3.35744 0
M  V30 3033 H 288.165 2.73471 3.1401 0
M  V30 3034 H 290.762 0.938869 5.26393 0
M  V30 3035 H 291.105 -0.359639 4.14744 0
M  V30 3036 H 291.638 1.2947 3.76141 0
M  V30 3037 H 288.377 3.87509 5.28694 0
M  V30 3038 H 287.897 2.18854 5.58447 0
M  V30 3039 H 289.576 2.70599 5.87695 0
M  V30 3040 N 289.708 -1.40897 0.706093 0
M  V30 3041 C 290.655 -2.30751 0.0474474 0
M  V30 3042 C 291.625 -1.47678 -0.76029 0
M  V30 3043 O 292.81 -1.76441 -0.726177 0
M  V30 3044 C 289.95 -3.33815 -0.875309 0
M  V30 3045 C 289.063 -4.31961 -0.0580623 0
M  V30 3046 C 288.198 -5.22093 -0.979425 0
M  V30 3047 C 287.237 -6.11902 -0.155706 0
M  V30 3048 N 286.374 -6.94482 -1.03144 0
M  V30 3049 H 291.214 -2.86513 0.819413 0
M  V30 3050 H 288.751 -1.41102 0.415783 0
M  V30 3051 H 290.709 -3.92129 -1.42446 0
M  V30 3052 H 289.339 -2.79579 -1.61356 0
M  V30 3053 H 288.391 -3.75507 0.608147 0
M  V30 3054 H 289.703 -4.95415 0.580082 0
M  V30 3055 H 288.857 -5.85292 -1.59744 0
M  V30 3056 H 287.596 -4.5889 -1.65141 0
M  V30 3057 H 286.601 -5.47742 0.475309 0
M  V30 3058 H 287.826 -6.77162 0.512635 0
M  V30 3059 H 285.772 -6.33877 -1.68924 0
M  V30 3060 H 285.689 -7.54665 -0.449108 0
M  V30 3061 H 286.957 -7.6214 -1.63593 0
M  V30 3062 N 291.186 -0.45159 -1.50991 0
M  V30 3063 C 292.463 0.170707 -1.94854 0
M  V30 3064 C 292.843 1.58788 -1.39103 0
M  V30 3065 O 292.191 2.20913 -0.583921 0
M  V30 3066 C 292.401 0.133929 -3.48743 0
M  V30 3067 C 293.749 0.33248 -4.23296 0
M  V30 3068 O 294.773 0.211403 -3.55572 0
M  V30 3069 O 293.632 0.57486 -5.43468 0
M  V30 3070 H 290.726 0.122264 -0.817912 0
M  V30 3071 H 293.272 -0.510594 -1.61836 0
M  V30 3072 H 292.044 -0.856283 -3.81816 0
M  V30 3073 H 291.667 0.857529 -3.88242 0
M  V30 3074 N 292.664 1.56529 -0.183458 0
M  V30 3075 C 293.594 2.21549 0.737456 0
M  V30 3076 C 294.575 1.17489 1.23005 0
M  V30 3077 O 295.76 1.45959 1.281 0
M  V30 3078 C 292.89 2.86575 1.96194 0
M  V30 3079 C 291.844 3.96778 1.60473 0
M  V30 3080 C 291.17 4.48911 2.90487 0
M  V30 3081 C 292.47 5.15767 0.823497 0
M  V30 3082 H 294.164 2.98761 0.195453 0
M  V30 3083 H 291.71 1.43702 0.0925686 0
M  V30 3084 H 293.663 3.30739 2.61131 0
M  V30 3085 H 292.387 2.06749 2.52828 0
M  V30 3086 H 291.046 3.53286 0.978997 0
M  V30 3087 H 290.694 3.65862 3.45186 0
M  V30 3088 H 290.394 5.23265 2.67335 0
M  V30 3089 H 291.918 4.95771 3.56432 0
M  V30 3090 H 293.332 5.56549 1.37571 0
M  V30 3091 H 291.729 5.96114 0.690551 0
M  V30 3092 H 292.799 4.84574 -0.177782 0
M  V30 3093 N 294.142 -0.090211 1.57342 0
M  V30 3094 C 295.419 -0.824761 1.77361 0
M  V30 3095 C 295.799 -1.96698 0.76637 0
M  V30 3096 O 295.147 -2.27586 -0.204179 0
M  V30 3097 C 295.357 -1.31481 3.23286 0
M  V30 3098 C 296.705 -1.75563 3.86604 0
M  V30 3099 O 297.729 -1.41093 3.27065 0
M  V30 3100 O 296.588 -2.39317 4.91314 0
M  V30 3101 H 293.682 -0.393776 0.727234 0
M  V30 3102 H 296.228 -0.0717138 1.69548 0
M  V30 3103 H 295 -0.496671 3.88135 0
M  V30 3104 H 294.623 -2.12973 3.35751 0
M  V30 3105 N 295.62 -1.53406 -0.361157 0
M  V30 3106 C 296.845 -1.74024 -1.12829 0
M  V30 3107 C 297.27 -0.470069 -1.82132 0
M  V30 3108 O 296.628 0.57619 -1.719 0
M  V30 3109 C 296.676 -2.90903 -2.13091 0
M  V30 3110 O 295.78 -2.59821 -3.20261 0
M  V30 3111 H 295.121 -0.577804 -0.327168 0
M  V30 3112 H 297.651 -2.00307 -0.41693 0
M  V30 3113 H 297.661 -3.17194 -2.56616 0
M  V30 3114 H 296.336 -3.83034 -1.62042 0
M  V30 3115 H 294.913 -2.44362 -2.81677 0
M  V30 3116 N 297.098 0.621204 -1.44841 0
M  V30 3117 C 298.03 1.74615 -1.48466 0
M  V30 3118 C 299.043 1.58377 -0.37691 0
M  V30 3119 O 300.232 1.66508 -0.643215 0
M  V30 3120 C 297.332 3.12459 -1.31236 0
M  V30 3121 C 296.505 3.55064 -2.55438 0
M  V30 3122 C 295.564 4.71821 -2.32963 0
M  V30 3123 O 294.59 4.79628 -3.06505 0
M  V30 3124 N 295.792 5.64186 -1.36654 0
M  V30 3125 H 298.557 1.71973 -2.45449 0
M  V30 3126 H 296.118 0.806077 -1.40407 0
M  V30 3127 H 298.11 3.88302 -1.14032 0
M  V30 3128 H 296.68 3.09686 -0.4258 0
M  V30 3129 H 295.9 2.69324 -2.87851 0
M  V30 3130 H 297.188 3.80284 -3.38026 0
M  V30 3131 H 296.586 5.6058 -0.759344 0
M  V30 3132 H 295.143 6.39618 -1.25425 0
M  V30 3133 N 298.576 1.31904 0.862503 0
M  V30 3134 C 299.804 1.24998 1.64873 0
M  V30 3135 C 300.219 -0.183425 1.87907 0
M  V30 3136 O 299.576 -1.11794 1.44251 0
M  V30 3137 C 299.627 1.99829 3.01248 0
M  V30 3138 O 299.348 3.37575 2.79239 0
M  V30 3139 C 300.849 1.99852 3.95694 0
M  V30 3140 H 298.069 0.431599 0.513773 0
M  V30 3141 H 300.613 1.73901 1.07604 0
M  V30 3142 H 298.768 1.54668 3.55185 0
M  V30 3143 H 299.182 3.75776 3.65914 0
M  V30 3144 H 300.656 2.56709 4.88676 0
M  V30 3145 H 301.133 0.982852 4.28062 0
M  V30 3146 H 301.739 2.44926 3.47694 0
M  V30 3147 N 300.054 -1.07777 1.14986 0
M  V30 3148 C 300.987 -2.14228 0.786243 0
M  V30 3149 C 301.965 -1.60888 -0.235347 0
M  V30 3150 O 303.149 -1.88099 -0.122909 0
M  V30 3151 C 300.276 -3.38281 0.168433 0
M  V30 3152 C 299.322 -4.10387 1.16123 0
M  V30 3153 S 300.155 -4.62371 2.70135 0
M  V30 3154 C 301.311 -5.89704 2.09762 0
M  V30 3155 H 301.544 -2.44741 1.68787 0
M  V30 3156 H 299.077 -1.19984 0.971756 0
M  V30 3157 H 301.035 -4.10098 -0.181588 0
M  V30 3158 H 299.696 -3.05953 -0.710725 0
M  V30 3159 H 298.889 -4.99431 0.677086 0
M  V30 3160 H 298.491 -3.44513 1.45556 0
M  V30 3161 H 300.783 -6.61648 1.45701 0
M  V30 3162 H 301.726 -6.42824 2.96955 0
M  V30 3163 H 302.134 -5.4302 1.54239 0
M  V30 3164 N 301.532 -0.945985 -1.26051 0
M  V30 3165 C 302.465 -0.403619 -2.24602 0
M  V30 3166 C 303.443 0.510241 -1.54387 0
M  V30 3167 O 304.627 0.446593 -1.83133 0
M  V30 3168 C 301.754 0.419564 -3.36091 0
M  V30 3169 C 300.8 -0.433454 -4.24292 0
M  V30 3170 S 301.633 -1.86037 -5.02146 0
M  V30 3171 C 302.789 -1.04538 -6.17108 0
M  V30 3172 H 303.022 -1.23883 -2.7026 0
M  V30 3173 H 300.555 -0.749438 -1.34992 0
M  V30 3174 H 302.513 0.888595 -4.00767 0
M  V30 3175 H 301.174 1.22951 -2.89036 0
M  V30 3176 H 300.367 0.197486 -5.03613 0
M  V30 3177 H 299.969 -0.837357 -3.64506 0
M  V30 3178 H 302.261 -0.289923 -6.76879 0
M  V30 3179 H 303.204 -1.81222 -6.84518 0
M  V30 3180 H 303.612 -0.579319 -5.61519 0
M  V30 3181 N 303.011 1.40521 -0.713556 0
M  V30 3182 C 304.257 2.01221 -0.252564 0
M  V30 3183 C 304.59 1.56444 1.1506 0
M  V30 3184 O 303.865 0.783597 1.78017 0
M  V30 3185 C 304.148 3.58582 -0.330332 0
M  V30 3186 C 304.001 4.13437 -1.77173 0
M  V30 3187 C 305.32 4.39079 0.299641 0
M  V30 3188 H 302.439 0.731077 -0.0932471 0
M  V30 3189 H 305.081 1.67026 -0.905673 0
M  V30 3190 H 303.231 3.87844 0.225737 0
M  V30 3191 H 304.903 3.9498 -2.38303 0
M  V30 3192 H 303.146 3.67801 -2.3001 0
M  V30 3193 H 303.817 5.22597 -1.77755 0
M  V30 3194 H 306.293 4.15735 -0.174139 0
M  V30 3195 H 305.169 5.4848 0.214771 0
M  V30 3196 H 305.43 4.19915 1.38288 0
M  V30 3197 N 304.489 0.459591 1.5075 0
M  V30 3198 C 305.419 -0.330644 2.31147 0
M  V30 3199 C 306.4 -1.00087 1.37538 0
M  V30 3200 O 307.585 -1.00025 1.66459 0
M  V30 3201 C 304.715 -1.41958 3.16962 0
M  V30 3202 C 303.669 -0.871608 4.19031 0
M  V30 3203 C 302.995 -2.05797 4.9351 0
M  V30 3204 C 304.295 0.109251 5.22186 0
M  V30 3205 H 305.989 0.340336 2.97459 0
M  V30 3206 H 303.535 0.165119 1.4305 0
M  V30 3207 H 305.488 -1.9798 3.71997 0
M  V30 3208 H 304.212 -2.11917 2.48513 0
M  V30 3209 H 302.871 -0.333442 3.6508 0
M  V30 3210 H 302.519 -2.74427 4.21544 0
M  V30 3211 H 302.219 -1.6976 5.62544 0
M  V30 3212 H 303.743 -2.62331 5.51375 0
M  V30 3213 H 305.157 -0.361405 5.7216 0
M  V30 3214 H 303.554 0.383316 5.98875 0
M  V30 3215 H 304.624 1.03887 4.73641 0
M  V30 3216 N 305.967 -1.56429 0.191757 0
M  V30 3217 C 307.213 -1.97777 -0.448554 0
M  V30 3218 C 307.546 -1.07847 -1.61501 0
M  V30 3219 O 306.821 -0.129774 -1.94067 0
M  V30 3220 C 307.104 -3.48362 -0.911906 0
M  V30 3221 C 306.957 -4.4907 0.256136 0
M  V30 3222 C 308.276 -4.02561 -1.77857 0
M  V30 3223 H 305.395 -0.719071 -0.161572 0
M  V30 3224 H 308.037 -1.87896 0.282007 0
M  V30 3225 H 306.187 -3.56914 -1.53442 0
M  V30 3226 H 307.859 -4.5256 0.893733 0
M  V30 3227 H 306.102 -4.24181 0.908436 0
M  V30 3228 H 306.773 -5.51889 -0.11053 0
M  V30 3229 H 309.249 -3.96767 -1.25359 0
M  V30 3230 H 308.125 -5.08301 -2.07174 0
M  V30 3231 H 308.386 -3.47616 -2.73158 0
M  V30 3232 N 307.445 0.0818655 -1.57387 0
M  V30 3233 C 308.393 1.11712 -2.04018 0
M  V30 3234 C 309.387 1.40683 -0.94364 0
M  V30 3235 O 310.593 1.40209 -1.12878 0
M  V30 3236 H 306.968 0.377542 -0.650358 0
M  V30 3237 H 308.939 0.697614 -2.90131 0
M  V30 3238 C 307.688 2.42537 -2.49141 0
M  V30 3239 H 307.011 2.21092 -3.33104 0
M  V30 3240 H 308.451 3.13446 -2.85531 0
M  V30 3241 C 306.91 3.0778 -1.37014 0
M  V30 3242 O 307.44 3.95436 -0.706621 0
M  V30 3243 N 305.646 2.68242 -1.11779 0
M  V30 3244 H 305.193 1.97052 -1.65917 0
M  V30 3245 H 305.151 3.1222 -0.369594 0
M  V30 3246 N 308.923 1.53595 0.353017 0
M  V30 3247 C 310.153 1.74058 1.11299 0
M  V30 3248 C 310.561 0.475205 1.83135 0
M  V30 3249 O 309.904 -0.562344 1.74881 0
M  V30 3250 C 309.966 2.85994 2.17825 0
M  V30 3251 C 309.63 4.25923 1.65647 0
M  V30 3252 C 310.627 5.07829 1.11383 0
M  V30 3253 C 308.312 4.72377 1.7078 0
M  V30 3254 C 310.306 6.34285 0.629439 0
M  V30 3255 C 307.993 5.98808 1.21953 0
M  V30 3256 C 308.991 6.79594 0.681265 0
M  V30 3257 O 308.679 8.03651 0.200248 0
M  V30 3258 H 308.411 0.585327 0.338183 0
M  V30 3259 H 310.965 2.01186 0.413927 0
M  V30 3260 H 309.195 2.54368 2.91262 0
M  V30 3261 H 310.884 2.94515 2.79313 0
M  V30 3262 H 311.65 4.73107 1.06746 0
M  V30 3263 H 307.529 4.0956 2.11617 0
M  V30 3264 H 311.073 6.97288 0.208636 0
M  V30 3265 H 306.97 6.33026 1.26287 0
M  V30 3266 H 307.738 8.1788 0.318416 0
M  V30 3267 N 310.401 -0.613514 1.45168 0
M  V30 3268 C 311.65 -1.36874 1.4815 0
M  V30 3269 C 311.963 -1.952 0.124982 0
M  V30 3270 O 313.169 -2.71481 0.0324176 0
M  V30 3271 C 311.625 -2.47905 2.60904 0
M  V30 3272 C 311.233 -1.96016 4.02842 0
M  V30 3273 C 312.977 -3.24965 2.73126 0
M  V30 3274 C 310.884 -3.04494 5.06988 0
M  V30 3275 H 309.814 -0.514428 0.551253 0
M  V30 3276 H 312.465 -0.658182 1.7129 0
M  V30 3277 H 310.847 -3.21618 2.31037 0
M  V30 3278 H 312.021 -1.29051 4.4236 0
M  V30 3279 H 310.336 -1.31719 3.95018 0
M  V30 3280 H 312.933 -4.05865 3.48106 0
M  V30 3281 H 313.276 -3.75588 1.79553 0
M  V30 3282 H 313.809 -2.5835 3.0249 0
M  V30 3283 H 310.548 -2.58795 6.0225 0
M  V30 3284 H 310.068 -3.70044 4.72046 0
M  V30 3285 H 311.747 -3.68976 5.31475 0
M  V30 3286 N 311.879 -1.3236 -0.855495 0
M  V30 3287 C 313.126 -1.22872 -1.60962 0
M  V30 3288 C 313.454 0.209658 -1.93367 0
M  V30 3289 O 312.709 1.16243 -1.57436 0
M  V30 3290 C 313.008 -2.03275 -2.93963 0
M  V30 3291 C 312.674 -3.5264 -2.80991 0
M  V30 3292 C 311.336 -3.93364 -2.7716 0
M  V30 3293 C 313.688 -4.47626 -2.66983 0
M  V30 3294 C 311.016 -5.27319 -2.572 0
M  V30 3295 C 313.368 -5.81723 -2.48558 0
M  V30 3296 C 312.032 -6.2165 -2.4312 0
M  V30 3297 H 311.302 -0.44962 -0.589001 0
M  V30 3298 H 313.949 -1.63777 -0.992442 0
M  V30 3299 H 312.254 -1.55095 -3.59795 0
M  V30 3300 H 313.951 -1.93303 -3.51333 0
M  V30 3301 H 310.541 -3.20295 -2.84797 0
M  V30 3302 H 314.725 -4.17084 -2.68988 0
M  V30 3303 H 309.981 -5.57311 -2.51424 0
M  V30 3304 H 314.155 -6.5494 -2.36699 0
M  V30 3305 H 311.782 -7.25388 -2.27412 0
M  V30 3306 N 313.357 1.07166 -1.15556 0
M  V30 3307 C 314.604 1.79798 -0.931604 0
M  V30 3308 C 314.932 1.8682 0.54115 0
M  V30 3309 O 314.187 1.34942 1.41736 0
M  V30 3310 C 314.486 3.24707 -1.49332 0
M  V30 3311 C 314.152 3.37781 -2.98688 0
M  V30 3312 C 312.814 3.41057 -3.39461 0
M  V30 3313 C 315.166 3.40424 -3.94665 0
M  V30 3314 C 312.494 3.4458 -4.74849 0
M  V30 3315 C 314.846 3.45485 -5.29927 0
M  V30 3316 C 313.51 3.47039 -5.70193 0
M  V30 3317 H 312.78 0.657928 -0.340898 0
M  V30 3318 H 315.427 1.26091 -1.44129 0
M  V30 3319 H 313.732 3.81208 -0.904859 0
M  V30 3320 H 315.429 3.79486 -1.29582 0
M  V30 3321 H 312.019 3.35932 -2.66172 0
M  V30 3322 H 316.203 3.37113 -3.64237 0
M  V30 3323 H 311.459 3.44083 -5.05388 0
M  V30 3324 H 315.633 3.46476 -6.04092 0
M  V30 3325 H 313.26 3.49522 -6.75084 0
M  V30 3326 N 314.835 0.952656 1.25548 0
M  V30 3327 C 315.782 0.47008 2.25962 0
M  V30 3328 C 316.752 -0.476384 1.59122 0
M  V30 3329 O 317.937 -0.39007 1.8677 0
M  V30 3330 C 315.077 -0.247881 3.44209 0
M  V30 3331 C 314.19 0.735591 4.25691 0
M  V30 3332 C 313.325 -0.0047306 5.312 0
M  V30 3333 C 312.364 0.969805 6.04368 0
M  V30 3334 N 311.501 0.260486 7.01617 0
M  V30 3335 H 316.341 1.33126 2.66611 0
M  V30 3336 H 313.878 0.66765 1.31076 0
M  V30 3337 H 315.836 -0.680695 4.1161 0
M  V30 3338 H 314.466 -1.07312 3.0444 0
M  V30 3339 H 313.518 1.28689 3.57971 0
M  V30 3340 H 314.83 1.47934 4.76358 0
M  V30 3341 H 313.984 -0.496275 6.04667 0
M  V30 3342 H 312.723 -0.781282 4.81401 0
M  V30 3343 H 311.728 1.47237 5.29718 0
M  V30 3344 H 312.953 1.74655 6.56256 0
M  V30 3345 H 310.899 -0.497364 6.54112 0
M  V30 3346 H 310.816 0.943362 7.50091 0
M  V30 3347 H 312.084 -0.209587 7.79218 0
M  V30 3348 N 316.313 -1.40141 0.720998 0
M  V30 3349 C 317.276 -2.29058 0.0805834 0
M  V30 3350 C 318.276 -1.45632 -0.681758 0
M  V30 3351 O 319.466 -1.6648 -0.512856 0
M  V30 3352 C 316.598 -3.28925 -0.895593 0
M  V30 3353 H 317.791 -2.87191 0.863793 0
M  V30 3354 H 315.344 -1.48553 0.485975 0
M  V30 3355 H 316.079 -2.75822 -1.70566 0
M  V30 3356 H 315.864 -3.90519 -0.351766 0
M  V30 3357 H 317.354 -3.95494 -1.34069 0
M  V30 3358 N 317.792 -0.46758 -1.50504 0
M  V30 3359 C 318.739 0.328413 -2.28452 0
M  V30 3360 C 319.709 0.990313 -1.33349 0
M  V30 3361 O 320.894 1.00343 -1.62284 0
M  V30 3362 C 318.034 1.40648 -3.15138 0
M  V30 3363 C 317.147 0.759709 -4.25267 0
M  V30 3364 C 316.282 1.81537 -4.99217 0
M  V30 3365 C 315.321 1.14866 -6.01226 0
M  V30 3366 N 314.458 2.14702 -6.68467 0
M  V30 3367 H 319.298 -0.342603 -2.96024 0
M  V30 3368 H 316.835 -0.180801 -1.45985 0
M  V30 3369 H 318.793 2.04315 -3.63746 0
M  V30 3370 H 317.423 2.04671 -2.49619 0
M  V30 3371 H 316.475 0.0105671 -3.80399 0
M  V30 3372 H 317.787 0.233243 -4.98254 0
M  V30 3373 H 316.941 2.52793 -5.51526 0
M  V30 3374 H 315.68 2.37564 -4.25928 0
M  V30 3375 H 314.685 0.42171 -5.4818 0
M  V30 3376 H 315.91 0.595334 -6.76485 0
M  V30 3377 H 313.856 2.69752 -5.97972 0
M  V30 3378 H 313.773 1.6703 -7.37317 0
M  V30 3379 H 315.041 2.85348 -7.25394 0
M  V30 3380 N 319.27 1.56325 -0.20005 0
M  V30 3381 C 320.516 1.98772 0.431408 0
M  V30 3382 C 320.871 1.0849 1.58895 0
M  V30 3383 O 320.164 0.130331 1.91156 0
M  V30 3384 C 320.358 3.4495 0.935103 0
M  V30 3385 C 320.187 4.49371 -0.172096 0
M  V30 3386 C 318.957 5.0134 -0.631377 0
M  V30 3387 C 321.155 5.04822 -0.982806 0
M  V30 3388 N 319.137 5.89433 -1.71588 0
M  V30 3389 C 320.508 5.89632 -1.91661 0
M  V30 3390 C 322.563 4.87242 -1.02467 0
M  V30 3391 C 321.266 6.58741 -2.88881 0
M  V30 3392 C 323.292 5.57094 -1.98494 0
M  V30 3393 C 322.654 6.41655 -2.90617 0
M  V30 3394 H 318.753 0.771922 0.125144 0
M  V30 3395 H 321.337 1.92266 -0.306883 0
M  V30 3396 H 319.508 3.51946 1.64282 0
M  V30 3397 H 321.24 3.74354 1.53758 0
M  V30 3398 H 317.995 4.73071 -0.223827 0
M  V30 3399 H 318.419 6.38182 -2.25948 0
M  V30 3400 H 323.061 4.21538 -0.326408 0
M  V30 3401 H 320.779 7.23641 -3.5968 0
M  V30 3402 H 324.365 5.45466 -2.0238 0
M  V30 3403 H 323.245 6.94755 -3.63711 0
M  V30 3404 N 320.748 -0.0735177 1.57428 0
M  V30 3405 C 321.658 -1.10547 2.06922 0
M  V30 3406 C 322.674 -1.42506 0.998402 0
M  V30 3407 O 323.85 -1.52717 1.31299 0
M  V30 3408 C 320.915 -2.40019 2.50184 0
M  V30 3409 C 319.976 -2.15046 3.71556 0
M  V30 3410 C 319.209 -3.38345 4.12745 0
M  V30 3411 O 319.432 -4.47399 3.53822 0
M  V30 3412 O 318.366 -3.2666 5.05546 0
M  V30 3413 H 322.192 -0.715013 2.95163 0
M  V30 3414 H 319.777 -0.287531 1.46607 0
M  V30 3415 H 321.659 -3.16218 2.78539 0
M  V30 3416 H 320.334 -2.78447 1.65072 0
M  V30 3417 H 319.241 -1.36558 3.48285 0
M  V30 3418 H 320.574 -1.81499 4.57514 0
M  V30 3419 N 322.226 -1.5378 -0.344866 0
M  V30 3420 C 323.159 -1.7649 -1.4466 0
M  V30 3421 C 324.137 -0.613954 -1.50563 0
M  V30 3422 O 325.321 -0.84896 -1.683 0
M  V30 3423 C 322.448 -1.86235 -2.82903 0
M  V30 3424 C 321.494 -3.08375 -2.94631 0
M  V30 3425 S 322.327 -4.67457 -2.61236 0
M  V30 3426 C 323.483 -4.80079 -4.0159 0
M  V30 3427 H 323.716 -2.69661 -1.2518 0
M  V30 3428 H 321.249 -1.44632 -0.540455 0
M  V30 3429 H 323.207 -1.92535 -3.62547 0
M  V30 3430 H 321.868 -0.940786 -2.9968 0
M  V30 3431 H 321.061 -3.11865 -3.95925 0
M  V30 3432 H 320.663 -3.00294 -2.22934 0
M  V30 3433 H 322.955 -4.61407 -4.96094 0
M  V30 3434 H 323.898 -5.82168 -4.03095 0
M  V30 3435 H 324.306 -4.08544 -3.89554 0
M  V30 3436 N 323.704 0.605807 -1.45491 0
M  V30 3437 C 325.115 1.18777 -1.44045 0
M  V30 3438 C 325.466 1.95471 -0.169001 0
M  V30 3439 O 324.591 2.0374 0.729324 0
M  V30 3440 C 325.186 2.16064 -2.60963 0
M  V30 3441 C 323.745 2.69633 -2.62631 0
M  V30 3442 C 322.892 1.45072 -2.36325 0
M  V30 3443 H 325.843 0.395017 -1.53705 0
M  V30 3444 H 325.864 2.9913 -2.35163 0
M  V30 3445 H 325.376 1.60217 -3.53486 0
M  V30 3446 H 323.477 3.29414 -1.74119 0
M  V30 3447 H 323.59 3.13944 -3.61906 0
M  V30 3448 H 321.954 1.74089 -1.85917 0
M  V30 3449 H 322.737 0.910899 -3.30995 0
M  V30 3450 N 325.182 1.32811 0.848464 0
M  V30 3451 C 326.429 1.23724 1.60308 0
M  V30 3452 C 326.757 -0.1994 1.93475 0
M  V30 3453 O 326.012 -1.15406 1.5805 0
M  V30 3454 C 326.311 2.04831 2.92881 0
M  V30 3455 C 325.977 3.54125 2.79117 0
M  V30 3456 C 324.639 3.94829 2.7507 0
M  V30 3457 C 326.991 4.49036 2.64606 0
M  V30 3458 C 324.319 5.28675 2.544 0
M  V30 3459 C 326.671 5.83033 2.4547 0
M  V30 3460 C 325.335 6.22931 2.39819 0
M  V30 3461 H 324.605 0.452737 0.586609 0
M  V30 3462 H 327.252 1.64301 0.983743 0
M  V30 3463 H 325.557 1.57001 3.58968 0
M  V30 3464 H 327.254 1.95164 3.50303 0
M  V30 3465 H 323.844 3.21801 2.83094 0
M  V30 3466 H 328.028 4.18505 2.66772 0
M  V30 3467 H 323.284 5.58637 2.48465 0
M  V30 3468 H 327.458 6.56186 2.33222 0
M  V30 3469 H 325.085 7.26584 2.23562 0
M  V30 3470 N 326.66 -1.06551 1.16123 0
M  V30 3471 C 327.937 -1.76097 0.85142 0
M  V30 3472 C 328.317 -2.00802 -0.6513 0
M  V30 3473 O 327.665 -1.63302 -1.59827 0
M  V30 3474 C 327.875 -3.06384 1.67122 0
M  V30 3475 C 329.223 -3.80585 1.88255 0
M  V30 3476 O 330.247 -3.16218 1.63966 0
M  V30 3477 O 329.106 -4.96212 2.2899 0
M  V30 3478 H 326.2 -0.765102 0.313923 0
M  V30 3479 H 328.746 -1.12844 1.26745 0
M  V30 3480 H 327.518 -2.84071 2.69108 0
M  V30 3481 H 327.141 -3.77371 1.25206 0
M  V30 3482 N 328.138 -0.959301 -1.25041 0
M  V30 3483 C 329.549 -0.65667 -1.74771 0
M  V30 3484 C 329.9 0.827852 -1.77879 0
M  V30 3485 O 329.025 1.64783 -1.40269 0
M  V30 3486 C 329.62 -1.1853 -3.1739 0
M  V30 3487 C 328.179 -0.932734 -3.6466 0
M  V30 3488 C 327.326 -1.32558 -2.43564 0
M  V30 3489 H 330.277 -1.13558 -1.10862 0
M  V30 3490 H 330.298 -0.547582 -3.76539 0
M  V30 3491 H 329.81 -2.26576 -3.15095 0
M  V30 3492 H 327.911 0.13257 -3.72364 0
M  V30 3493 H 328.024 -1.57248 -4.52559 0
M  V30 3494 H 326.388 -0.743956 -2.43593 0
M  V30 3495 H 327.171 -2.41537 -2.43957 0
M  V30 3496 N 329.616 1.39756 -0.72842 0
M  V30 3497 C 330.548 2.29157 -0.0446202 0
M  V30 3498 C 331.561 1.46484 0.710367 0
M  V30 3499 O 332.75 1.69632 0.55562 0
M  V30 3500 C 329.85 3.24987 0.961071 0
M  V30 3501 C 329.023 4.36572 0.268967 0
M  V30 3502 C 328.082 5.12756 1.18184 0
M  V30 3503 O 327.108 5.6534 0.661794 0
M  V30 3504 N 328.31 5.23331 2.51206 0
M  V30 3505 H 331.075 2.88482 -0.812295 0
M  V30 3506 H 328.636 1.51265 -0.577098 0
M  V30 3507 H 330.628 3.72827 1.57423 0
M  V30 3508 H 329.198 2.66739 1.63 0
M  V30 3509 H 328.418 3.90694 -0.524574 0
M  V30 3510 H 329.706 5.08363 -0.210934 0
M  V30 3511 H 329.104 4.82116 2.9594 0
M  V30 3512 H 327.661 5.74634 3.07634 0
M  V30 3513 N 331.094 0.475555 1.50254 0
M  V30 3514 C 332.371 -0.139685 1.95101 0
M  V30 3515 C 332.751 -1.56555 1.41611 0
M  V30 3516 O 332.099 -2.19956 0.618993 0
M  V30 3517 C 332.309 -0.0784298 3.48912 0
M  V30 3518 C 333.657 -0.265095 4.23772 0
M  V30 3519 O 334.681 -0.154808 3.55863 0
M  V30 3520 O 333.54 -0.488327 5.44314 0
M  V30 3521 H 330.634 -0.109236 0.819754 0
M  V30 3522 H 333.18 0.536276 1.61004 0
M  V30 3523 H 331.952 0.916918 3.80405 0
M  V30 3524 H 331.575 -0.795655 3.89558 0
M  V30 3525 N 332.573 -1.56217 0.208337 0
M  V30 3526 C 333.801 -2.02337 -0.43215 0
M  V30 3527 C 334.216 -1.08834 -1.54275 0
M  V30 3528 O 333.573 -0.0955462 -1.8225 0
M  V30 3529 C 333.624 -3.48072 -0.976138 0
M  V30 3530 O 333.345 -4.38007 0.0901621 0
M  V30 3531 C 334.846 -4.09773 -1.69119 0
M  V30 3532 H 332.066 -0.662385 -0.10718 0
M  V30 3533 H 334.61 -2.01966 0.320923 0
M  V30 3534 H 332.765 -3.49099 -1.67954 0
M  V30 3535 H 333.179 -5.23543 -0.316701 0
M  V30 3536 H 334.653 -5.13556 -2.02397 0
M  V30 3537 H 335.13 -3.53999 -2.59964 0
M  V30 3538 H 335.736 -4.12556 -1.03332 0
M  V30 3539 N 334.051 0.0651679 -1.57465 0
M  V30 3540 C 335.001 1.0838 -2.00594 0
M  V30 3541 C 335.985 1.34106 -0.889071 0
M  V30 3542 O 337.177 1.34295 -1.15299 0
M  V30 3543 C 334.306 2.39565 -2.45894 0
M  V30 3544 C 333.392 2.17085 -3.64328 0
M  V30 3545 N 333.783 1.64553 -4.78285 0
M  V30 3546 C 332.081 2.4753 -3.71006 0
M  V30 3547 C 332.782 1.57042 -5.60101 0
M  V30 3548 N 331.758 2.03328 -5.04141 0
M  V30 3549 H 335.56 0.671062 -2.86136 0
M  V30 3550 H 333.074 0.27213 -1.60104 0
M  V30 3551 H 335.071 3.13308 -2.75034 0
M  V30 3552 H 333.731 2.81549 -1.61741 0
M  V30 3553 H 334.742 1.33323 -5.00445 0
M  V30 3554 H 331.419 2.92835 -2.9758 0
M  V30 3555 H 332.809 1.17223 -6.61595 0
M  V30 3556 N 335.529 1.53961 0.336706 0
M  V30 3557 C 336.461 1.78751 1.4346 0
M  V30 3558 C 337.474 0.669019 1.48418 0
M  V30 3559 O 338.663 0.945884 1.51378 0
M  V30 3560 C 335.763 1.87844 2.82078 0
M  V30 3561 C 334.936 3.17854 3.00479 0
M  V30 3562 C 333.995 3.17816 4.19379 0
M  V30 3563 O 333.021 3.91511 4.13168 0
M  V30 3564 N 334.223 2.40669 5.2826 0
M  V30 3565 H 336.988 2.73493 1.22563 0
M  V30 3566 H 334.549 1.53096 0.526625 0
M  V30 3567 H 336.541 1.85261 3.59806 0
M  V30 3568 H 335.111 1.00257 2.96086 0
M  V30 3569 H 334.331 3.33504 2.10163 0
M  V30 3570 H 335.619 4.03718 3.0966 0
M  V30 3571 H 335.017 1.8036 5.36178 0
M  V30 3572 H 333.574 2.43877 6.04456 0
M  V30 3573 N 337.007 -0.598083 1.45811 0
M  V30 3574 C 338.232 -1.3881 1.54099 0
M  V30 3575 C 338.657 -1.8726 0.177578 0
M  V30 3576 O 338.015 -1.6069 -0.839541 0
M  V30 3577 C 338.063 -2.56217 2.53743 0
M  V30 3578 O 337.167 -3.5716 2.06182 0
M  V30 3579 H 336.508 -0.414024 0.519115 0
M  V30 3580 H 339.038 -0.726971 1.91249 0
M  V30 3581 H 339.048 -3.03337 2.72856 0
M  V30 3582 H 337.723 -2.20303 3.5276 0
M  V30 3583 H 336.3 -3.16624 1.96987 0
M  V30 3584 N 338.485 -1.33259 -0.841409 0
M  V30 3585 C 339.901 -1.12538 -1.13169 0
M  V30 3586 C 340.101 0.0854037 -2.01319 0
M  V30 3587 O 339.157 0.766417 -2.40587 0
M  V30 3588 C 340.47 -2.41156 -1.79623 0
M  V30 3589 C 342.018 -2.47038 -1.922 0
M  V30 3590 C 342.493 -3.7561 -2.6207 0
M  V30 3591 N 343.984 -3.76667 -2.69585 0
M  V30 3592 C 344.719 -4.72861 -3.2433 0
M  V30 3593 N 344.215 -5.79428 -3.79783 0
M  V30 3594 N 346.008 -4.6034 -3.22558 0
M  V30 3595 H 338.159 -2.10868 -0.254676 0
M  V30 3596 H 340.422 -0.931615 -0.175493 0
M  V30 3597 H 340.128 -3.29747 -1.22311 0
M  V30 3598 H 340.002 -2.53114 -2.79666 0
M  V30 3599 H 342.389 -1.58898 -2.48667 0
M  V30 3600 H 342.47 -2.39022 -0.911148 0
M  V30 3601 H 342.114 -4.64131 -2.06263 0
M  V30 3602 H 342.044 -3.80902 -3.63622 0
M  V30 3603 H 344.535 -2.99648 -2.30259 0
M  V30 3604 H 344.848 -6.48867 -4.19752 0
M  V30 3605 H 343.193 -5.83166 -3.78078 0
M  V30 3606 H 346.384 -3.76244 -2.78492 0
M  V30 3607 H 346.557 -5.35478 -3.64921 0
M  V30 3608 N 339.963 1.05934 -1.16686 0
M  V30 3609 C 341.21 1.788 -0.950622 0
M  V30 3610 C 341.538 1.87384 0.521305 0
M  V30 3611 O 340.793 1.36438 1.40297 0
M  V30 3612 C 341.092 3.23105 -1.52767 0
M  V30 3613 C 340.758 3.34594 -3.02254 0
M  V30 3614 C 339.42 3.37437 -3.43059 0
M  V30 3615 C 341.772 3.36219 -3.98254 0
M  V30 3616 C 339.1 3.39525 -4.78477 0
M  V30 3617 C 341.452 3.39845 -5.33562 0
M  V30 3618 C 340.116 3.40971 -5.73842 0
M  V30 3619 H 339.386 0.654275 -0.347857 0
M  V30 3620 H 342.033 1.24555 -1.45459 0
M  V30 3621 H 340.338 3.80227 -0.94524 0
M  V30 3622 H 342.035 3.7809 -1.336 0
M  V30 3623 H 338.625 3.3309 -2.6972 0
M  V30 3624 H 342.809 3.33231 -3.67792 0
M  V30 3625 H 338.065 3.38703 -5.09009 0
M  V30 3626 H 342.239 3.4005 -6.07733 0
M  V30 3627 H 339.866 3.42342 -6.78753 0
M  V30 3628 N 341.441 0.965919 1.2453 0
M  V30 3629 C 342.671 0.643451 1.96324 0
M  V30 3630 C 343.079 -0.790927 1.71875 0
M  V30 3631 O 342.422 -1.54208 0.998273 0
M  V30 3632 C 342.484 0.836078 3.49643 0
M  V30 3633 C 342.148 2.24975 3.97788 0
M  V30 3634 C 343.145 3.22735 4.07601 0
M  V30 3635 C 340.83 2.57697 4.31158 0
M  V30 3636 C 342.824 4.51303 4.50116 0
M  V30 3637 C 340.511 3.86492 4.73357 0
M  V30 3638 C 341.509 4.83107 4.828 0
M  V30 3639 O 341.197 6.09605 5.24058 0
M  V30 3640 H 340.929 0.239223 0.632257 0
M  V30 3641 H 343.483 1.29587 1.59362 0
M  V30 3642 H 341.713 0.12649 3.86493 0
M  V30 3643 H 343.402 0.512965 4.02646 0
M  V30 3644 H 344.168 2.98783 3.82039 0
M  V30 3645 H 340.047 1.83216 4.23028 0
M  V30 3646 H 343.591 5.26716 4.57401 0
M  V30 3647 H 339.488 4.10245 4.98366 0
M  V30 3648 H 340.256 6.13146 5.42213 0
M  V30 3649 N 342.919 -1.39368 0.735821 0
M  V30 3650 C 343.849 -2.33234 0.111506 0
M  V30 3651 C 344.83 -1.53954 -0.723334 0
M  V30 3652 O 346.015 -1.82344 -0.668147 0
M  V30 3653 C 343.145 -3.38057 -0.795917 0
M  V30 3654 C 342.099 -4.2795 -0.065172 0
M  V30 3655 C 341.425 -5.23479 -1.08967 0
M  V30 3656 C 342.725 -5.10741 1.09273 0
M  V30 3657 H 344.419 -2.85692 0.895571 0
M  V30 3658 H 341.965 -1.37364 0.432109 0
M  V30 3659 H 343.918 -4.02675 -1.24221 0
M  V30 3660 H 342.642 -2.8404 -1.61211 0
M  V30 3661 H 341.301 -3.64813 0.361511 0
M  V30 3662 H 340.949 -4.65758 -1.89944 0
M  V30 3663 H 340.649 -5.84472 -0.605489 0
M  V30 3664 H 342.173 -5.90974 -1.53565 0
M  V30 3665 H 343.587 -5.68699 0.724841 0
M  V30 3666 H 341.984 -5.8088 1.50659 0
M  V30 3667 H 343.054 -4.45525 1.91404 0
M  V30 3668 N 344.397 -0.483516 -1.5 0
M  V30 3669 C 345.622 0.0667119 -2.07293 0
M  V30 3670 C 346.047 1.3164 -1.3436 0
M  V30 3671 O 345.405 1.76945 -0.394987 0
M  V30 3672 C 345.453 0.321126 -3.59167 0
M  V30 3673 O 344.557 1.39927 -3.87936 0
M  V30 3674 H 343.898 -0.0184758 -0.663743 0
M  V30 3675 H 346.428 -0.678125 -1.93035 0
M  V30 3676 H 346.438 0.557906 -4.04168 0
M  V30 3677 H 345.113 -0.592007 -4.11665 0
M  V30 3678 H 343.69 1.14882 -3.54763 0
M  V30 3679 N 345.875 1.56104 -0.216619 0
M  V30 3680 C 346.822 2.2007 0.695531 0
M  V30 3681 C 347.792 1.15471 1.19397 0
M  V30 3682 O 348.977 1.43807 1.25396 0
M  V30 3683 C 346.117 2.88073 1.90021 0
M  V30 3684 C 345.23 4.07253 1.44113 0
M  V30 3685 C 344.365 4.63052 2.603 0
M  V30 3686 C 343.404 5.74545 2.11103 0
M  V30 3687 N 342.541 6.24656 3.20545 0
M  V30 3688 H 347.381 2.97655 0.143327 0
M  V30 3689 H 344.918 1.46982 0.0589934 0
M  V30 3690 H 346.876 3.25681 2.60745 0
M  V30 3691 H 345.506 2.13015 2.42538 0
M  V30 3692 H 344.558 3.75164 0.628999 0
M  V30 3693 H 345.87 4.8783 1.04036 0
M  V30 3694 H 345.024 5.03078 3.39113 0
M  V30 3695 H 343.763 3.81628 3.03663 0
M  V30 3696 H 342.768 5.34027 1.3075 0
M  V30 3697 H 343.993 6.57801 1.68746 0
M  V30 3698 H 341.939 5.46148 3.63399 0
M  V30 3699 H 341.856 7.00343 2.84704 0
M  V30 3700 H 343.124 6.69338 3.99508 0
M  V30 3701 N 347.353 -0.0568162 1.57498 0
M  V30 3702 C 348.3 -1.06591 2.04712 0
M  V30 3703 C 349.27 -1.3758 0.930644 0
M  V30 3704 O 350.455 -1.48392 1.19935 0
M  V30 3705 C 347.595 -2.3701 2.50839 0
M  V30 3706 C 346.708 -2.12421 3.76167 0
M  V30 3707 C 345.843 -3.36511 4.11015 0
M  V30 3708 C 344.882 -3.07353 5.2934 0
M  V30 3709 N 344.019 -4.23816 5.59754 0
M  V30 3710 H 348.859 -0.65631 2.90683 0
M  V30 3711 H 346.396 -0.312481 1.43743 0
M  V30 3712 H 348.354 -3.13175 2.7564 0
M  V30 3713 H 346.984 -2.75744 1.67825 0
M  V30 3714 H 346.036 -1.2688 3.58616 0
M  V30 3715 H 347.348 -1.86894 4.62463 0
M  V30 3716 H 346.502 -4.21062 4.36797 0
M  V30 3717 H 345.241 -3.65128 3.23315 0
M  V30 3718 H 344.246 -2.212 5.03339 0
M  V30 3719 H 345.471 -2.80043 6.1867 0
M  V30 3720 H 343.417 -4.52436 4.75014 0
M  V30 3721 H 343.334 -4.01614 6.40501 0
M  V30 3722 H 344.602 -5.0932 5.90096 0
M  V30 3723 N 348.832 -1.54138 -0.328536 0
M  V30 3724 C 349.779 -1.83176 -1.40411 0
M  V30 3725 C 350.749 -0.678494 -1.5161 0
M  V30 3726 O 351.934 -0.92443 -1.6691 0
M  V30 3727 C 349.074 -2.06035 -2.76846 0
M  V30 3728 C 348.187 -3.33727 -2.74318 0
M  V30 3729 C 347.322 -3.46574 -4.02567 0
M  V30 3730 C 346.361 -4.68159 -3.94327 0
M  V30 3731 N 345.498 -4.77959 -5.14296 0
M  V30 3732 H 350.338 -2.74938 -1.14948 0
M  V30 3733 H 347.875 -1.36166 -0.556538 0
M  V30 3734 H 349.833 -2.1728 -3.56153 0
M  V30 3735 H 348.463 -1.1757 -3.00628 0
M  V30 3736 H 347.515 -3.31246 -1.8703 0
M  V30 3737 H 348.827 -4.23139 -2.64111 0
M  V30 3738 H 347.981 -3.57333 -4.90304 0
M  V30 3739 H 346.72 -2.55245 -4.15574 0
M  V30 3740 H 345.725 -4.57461 -3.04974 0
M  V30 3741 H 346.95 -5.60868 -3.82889 0
M  V30 3742 H 344.896 -3.89544 -5.27818 0
M  V30 3743 H 344.813 -5.6133 -5.06404 0
M  V30 3744 H 346.081 -4.93044 -6.03761 0
M  V30 3745 N 350.31 0.590341 -1.46126 0
M  V30 3746 C 351.556 1.34874 -1.52252 0
M  V30 3747 C 351.911 1.91658 -0.168807 0
M  V30 3748 O 351.204 1.73093 0.821556 0
M  V30 3749 C 351.398 2.5032 -2.55097 0
M  V30 3750 C 351.227 2.04843 -4.00337 0
M  V30 3751 C 349.997 1.90213 -4.68132 0
M  V30 3752 C 352.195 1.61267 -4.88362 0
M  V30 3753 N 350.177 1.38727 -5.9802 0
M  V30 3754 C 351.548 1.21319 -6.08015 0
M  V30 3755 C 353.603 1.49015 -4.75078 0
M  V30 3756 C 352.306 0.7034 -7.15852 0
M  V30 3757 C 354.332 0.994401 -5.8298 0
M  V30 3758 C 353.694 0.604659 -7.018 0
M  V30 3759 H 349.793 0.486803 -0.612002 0
M  V30 3760 H 352.377 0.673007 -1.82698 0
M  V30 3761 H 350.548 3.15466 -2.26574 0
M  V30 3762 H 352.28 3.1725 -2.51266 0
M  V30 3763 H 349.035 2.11927 -4.23537 0
M  V30 3764 H 349.459 1.15168 -6.67132 0
M  V30 3765 H 354.101 1.77768 -3.83612 0
M  V30 3766 H 351.819 0.403446 -8.07092 0
M  V30 3767 H 355.405 0.903621 -5.7474 0
M  V30 3768 H 354.285 0.226963 -7.83871 0
M  V30 3769 N 351.788 1.33704 0.83433 0
M  V30 3770 C 353.034 1.25603 1.59222 0
M  V30 3771 C 353.367 -0.176659 1.93395 0
M  V30 3772 O 352.642 -1.11915 1.59076 0
M  V30 3773 C 352.925 2.13576 2.89926 0
M  V30 3774 C 352.778 3.65326 2.62406 0
M  V30 3775 C 354.097 2.01238 3.91397 0
M  V30 3776 H 351.216 0.457613 0.577719 0
M  V30 3777 H 353.858 1.63848 0.961972 0
M  V30 3778 H 352.008 1.8109 3.43713 0
M  V30 3779 H 353.68 4.08124 2.15017 0
M  V30 3780 H 351.923 3.8698 1.96033 0
M  V30 3781 H 352.594 4.22232 3.55562 0
M  V30 3782 H 355.07 2.29738 3.46929 0
M  V30 3783 H 353.946 2.65036 4.80673 0
M  V30 3784 H 354.207 0.985951 4.30966 0
M  V30 3785 N 353.266 -1.05314 1.17247 0
M  V30 3786 C 354.199 -2.12512 0.831507 0
M  V30 3787 C 355.177 -1.61351 -0.201168 0
M  V30 3788 O 356.361 -1.88317 -0.0829831 0
M  V30 3789 C 353.488 -3.37848 0.24015 0
M  V30 3790 C 352.534 -4.07832 1.24801 0
M  V30 3791 S 353.367 -4.56537 2.79882 0
M  V30 3792 C 354.523 -5.85122 2.22223 0
M  V30 3793 H 354.756 -2.41106 1.7394 0
M  V30 3794 H 352.289 -1.17896 0.996988 0
M  V30 3795 H 354.247 -4.10391 -0.0945588 0
M  V30 3796 H 352.908 -3.07392 -0.645668 0
M  V30 3797 H 352.101 -4.97883 0.78287 0
M  V30 3798 H 351.703 -3.41348 1.52831 0
M  V30 3799 H 353.995 -6.58408 1.59703 0
M  V30 3800 H 354.938 -6.36381 3.10523 0
M  V30 3801 H 355.346 -5.39626 1.65722 0
M  V30 3802 N 354.744 -0.972509 -1.24016 0
M  V30 3803 C 355.99 -0.637978 -1.92504 0
M  V30 3804 C 356.323 0.825383 -1.75787 0
M  V30 3805 O 355.598 1.59442 -1.11393 0
M  V30 3806 C 355.881 -1.01942 -3.45369 0
M  V30 3807 C 355.734 -2.53983 -3.71231 0
M  V30 3808 C 357.053 -0.55751 -4.36555 0
M  V30 3809 H 354.172 -0.233248 -0.699117 0
M  V30 3810 H 356.814 -1.21238 -1.46292 0
M  V30 3811 H 354.964 -0.530656 -3.84859 0
M  V30 3812 H 356.636 -3.10374 -3.41271 0
M  V30 3813 H 354.879 -2.96968 -3.16216 0
M  V30 3814 H 355.55 -2.75723 -4.78206 0
M  V30 3815 H 358.026 -0.977029 -4.04467 0
M  V30 3816 H 356.902 -0.85292 -5.42233 0
M  V30 3817 H 357.163 0.542328 -4.38761 0
M  V30 3818 N 356.222 1.38976 -0.743202 0
M  V30 3819 C 357.633 1.83123 -0.363732 0
M  V30 3820 C 357.984 1.6205 1.10609 0
M  V30 3821 O 357.109 1.11606 1.854 0
M  V30 3822 C 357.704 3.32439 -0.653408 0
M  V30 3823 C 356.263 3.74974 -0.327338 0
M  V30 3824 C 355.41 2.61878 -0.911875 0
M  V30 3825 H 358.361 1.27852 -0.940191 0
M  V30 3826 H 358.382 3.80432 0.0720031 0
M  V30 3827 H 357.894 3.47745 -1.72323 0
M  V30 3828 H 355.995 3.65252 0.736314 0
M  V30 3829 H 356.108 4.72106 -0.815631 0
M  V30 3830 H 354.472 2.52448 -0.337944 0
M  V30 3831 H 355.255 2.79987 -1.98651 0
M  V30 3832 N 357.7 0.491464 1.49741 0
M  V30 3833 C 358.633 -0.338464 2.25676 0
M  V30 3834 C 359.611 -0.978676 1.29849 0
M  V30 3835 O 360.795 -1.01064 1.59117 0
M  V30 3836 C 357.922 -1.47588 3.04853 0
M  V30 3837 C 356.968 -0.951 4.15762 0
M  V30 3838 S 357.801 0.150626 5.35288 0
M  V30 3839 C 358.957 -0.990178 6.18018 0
M  V30 3840 H 359.19 0.306068 2.9572 0
M  V30 3841 H 356.723 0.276622 1.51902 0
M  V30 3842 H 358.681 -2.12764 3.51058 0
M  V30 3843 H 357.342 -2.09199 2.34296 0
M  V30 3844 H 356.535 -1.80311 4.70642 0
M  V30 3845 H 356.137 -0.376607 3.72099 0
M  V30 3846 H 358.429 -1.89748 6.50386 0
M  V30 3847 H 359.372 -0.480205 7.0647 0
M  V30 3848 H 359.78 -1.25321 5.50413 0
M  V30 3849 N 359.178 -1.55987 0.224894 0
M  V30 3850 C 360.111 -2.16413 -0.723929 0
M  V30 3851 C 361.089 -1.10952 -1.18863 0
M  V30 3852 O 362.273 -1.39225 -1.27077 0
M  V30 3853 C 359.4 -2.74711 -1.98121 0
M  V30 3854 C 358.446 -3.9303 -1.6562 0
M  V30 3855 S 359.279 -5.29817 -0.778058 0
M  V30 3856 C 360.435 -5.91555 -2.04483 0
M  V30 3857 H 360.668 -2.96555 -0.210347 0
M  V30 3858 H 358.201 -1.54397 0.00955457 0
M  V30 3859 H 360.159 -3.08938 -2.70311 0
M  V30 3860 H 358.82 -1.94555 -2.46591 0
M  V30 3861 H 358.013 -4.32334 -2.59043 0
M  V30 3862 H 357.615 -3.59966 -1.01491 0
M  V30 3863 H 359.907 -6.07732 -2.99446 0
M  V30 3864 H 360.85 -6.87498 -1.69563 0
M  V30 3865 H 361.258 -5.20419 -2.18688 0
M  V30 3866 N 360.656 0.0484629 -1.57525 0
M  V30 3867 C 361.881 0.759177 -1.93006 0
M  V30 3868 C 362.306 1.69125 -0.823317 0
M  V30 3869 O 361.664 1.79931 0.222364 0
M  V30 3870 C 361.712 1.50899 -3.27509 0
M  V30 3871 O 360.816 2.62112 -3.18388 0
M  V30 3872 H 360.157 0.205564 -0.631379 0
M  V30 3873 H 362.687 0.00972959 -2.04598 0
M  V30 3874 H 362.697 1.88317 -3.6194 0
M  V30 3875 H 361.372 0.825269 -4.0763 0
M  V30 3876 H 359.949 2.27379 -2.95556 0
M  V30 3877 N 362.134 1.5431 0.320358 0
M  V30 3878 C 363.064 1.86912 1.3995 0
M  V30 3879 C 364.045 0.726211 1.53819 0
M  V30 3880 O 365.23 0.980233 1.67646 0
M  V30 3881 C 362.36 2.09932 2.7667 0
M  V30 3882 C 361.314 3.25776 2.77586 0
M  V30 3883 C 360.64 3.34173 4.17412 0
M  V30 3884 C 361.94 4.6335 2.41048 0
M  V30 3885 H 363.634 2.77292 1.12914 0
M  V30 3886 H 361.18 1.33421 0.541738 0
M  V30 3887 H 363.133 2.31324 3.52232 0
M  V30 3888 H 361.857 1.16304 3.0519 0
M  V30 3889 H 360.516 3.04276 2.04479 0
M  V30 3890 H 360.164 2.38098 4.43078 0
M  V30 3891 H 359.864 4.12033 4.18931 0
M  V30 3892 H 361.388 3.57803 4.94782 0
M  V30 3893 H 362.802 4.84602 3.06324 0
M  V30 3894 H 361.199 5.43782 2.53813 0
M  V30 3895 H 362.269 4.65381 1.36193 0
M  V30 3896 N 363.613 -0.582584 1.46437 0
M  V30 3897 C 364.563 -1.68654 1.53426 0
M  V30 3898 C 365.547 -1.55971 0.395194 0
M  V30 3899 O 366.739 -1.64884 0.643612 0
M  V30 3900 C 363.868 -3.07439 1.52762 0
M  V30 3901 C 362.954 -3.25418 2.71963 0
M  V30 3902 N 363.345 -3.13556 3.96883 0
M  V30 3903 C 361.643 -3.56357 2.68189 0
M  V30 3904 C 362.344 -3.33543 4.76575 0
M  V30 3905 N 361.32 -3.58704 4.08451 0
M  V30 3906 H 365.122 -1.58014 2.47808 0
M  V30 3907 H 362.636 -0.786617 1.42078 0
M  V30 3908 H 364.633 -3.86671 1.55857 0
M  V30 3909 H 363.293 -3.1921 0.594573 0
M  V30 3910 H 364.304 -2.9142 4.28129 0
M  V30 3911 H 360.981 -3.74812 1.83908 0
M  V30 3912 H 362.371 -3.29555 5.85528 0
M  V30 3913 N 365.091 -1.34144 -0.827227 0
M  V30 3914 C 366.041 -1.21923 -1.92663 0
M  V30 3915 C 367.025 -0.119294 -1.60457 0
M  V30 3916 O 368.217 -0.348539 -1.73534 0
M  V30 3917 C 365.346 -0.972492 -3.29238 0
M  V30 3918 C 364.432 -2.1154 -3.67576 0
M  V30 3919 N 364.823 -3.36627 -3.77512 0
M  V30 3920 C 363.121 -2.02468 -3.97395 0
M  V30 3921 C 363.822 -4.11658 -4.1099 0
M  V30 3922 N 362.798 -3.40207 -4.23981 0
M  V30 3923 H 366.6 -2.16721 -1.98517 0
M  V30 3924 H 364.114 -1.2632 -1.02064 0
M  V30 3925 H 366.111 -0.865847 -4.0781 0
M  V30 3926 H 364.771 -0.0331509 -3.24683 0
M  V30 3927 H 365.782 -3.71234 -3.61118 0
M  V30 3928 H 362.459 -1.16265 -4.00985 0
M  V30 3929 H 363.849 -5.19657 -4.25918 0
M  V30 3930 N 366.569 1.04691 -1.17803 0
M  V30 3931 C 367.499 2.14494 -0.92275 0
M  V30 3932 C 368.48 1.69546 0.137179 0
M  V30 3933 O 369.665 1.94195 -0.0141108 0
M  V30 3934 C 366.795 3.44491 -0.440803 0
M  V30 3935 C 365.749 4.03031 -1.4405 0
M  V30 3936 C 365.075 5.28432 -0.81631 0
M  V30 3937 C 366.375 4.39932 -2.81527 0
M  V30 3938 H 368.069 2.36107 -1.84103 0
M  V30 3939 H 365.615 1.1347 -0.886599 0
M  V30 3940 H 367.568 4.2066 -0.249602 0
M  V30 3941 H 366.292 3.22546 0.513025 0
M  V30 3942 H 364.951 3.28937 -1.61853 0
M  V30 3943 H 364.599 5.02792 0.144511 0
M  V30 3944 H 364.299 5.68559 -1.48371 0
M  V30 3945 H 365.823 6.07284 -0.635496 0
M  V30 3946 H 367.237 5.07113 -2.67412 0
M  V30 3947 H 365.634 4.9109 -3.44892 0
M  V30 3948 H 366.704 3.50045 -3.35554 0
M  V30 3949 N 368.047 0.979072 1.23499 0
M  V30 3950 C 369.275 0.665202 1.95915 0
M  V30 3951 C 369.69 -0.767571 1.72493 0
M  V30 3952 O 369.047 -1.51635 1.01554 0
M  V30 3953 C 369.098 0.944438 3.48945 0
M  V30 3954 O 368.819 2.3209 3.71572 0
M  V30 3955 C 370.32 0.646336 4.38563 0
M  V30 3956 H 367.54 0.247218 0.623798 0
M  V30 3957 H 370.084 1.31009 1.57025 0
M  V30 3958 H 368.239 0.345575 3.85856 0
M  V30 3959 H 368.653 2.40957 4.65876 0
M  V30 3960 H 370.127 0.892091 5.44744 0
M  V30 3961 H 370.604 -0.419575 4.37191 0
M  V30 3962 H 371.21 1.22562 4.07258 0
M  V30 3963 N 369.525 -1.3858 0.750561 0
M  V30 3964 C 370.774 -1.99424 0.302172 0
M  V30 3965 C 371.087 -1.60254 -1.12152 0
M  V30 3966 O 372.293 -2.14046 -1.67023 0
M  V30 3967 C 370.749 -3.56558 0.489307 0
M  V30 3968 C 370.357 -4.04682 1.92189 0
M  V30 3969 C 372.101 -4.24374 0.103478 0
M  V30 3970 C 370.008 -5.54446 2.05775 0
M  V30 3971 H 368.938 -0.746046 0.10923 0
M  V30 3972 H 371.589 -1.58383 0.92667 0
M  V30 3973 H 369.971 -3.95472 -0.204329 0
M  V30 3974 H 371.145 -3.77065 2.64875 0
M  V30 3975 H 369.46 -3.4958 2.26236 0
M  V30 3976 H 372.057 -5.34384 0.183787 0
M  V30 3977 H 372.4 -4.05468 -0.943481 0
M  V30 3978 H 372.933 -3.90688 0.748854 0
M  V30 3979 H 369.672 -5.78252 3.08714 0
M  V30 3980 H 369.192 -5.83816 1.37546 0
M  V30 3981 H 370.871 -6.20099 1.84626 0
M  V30 3982 N 371.003 -0.499398 -1.49478 0
M  V30 3983 C 372.414 -0.051215 -1.8663 0
M  V30 3984 C 372.765 1.36238 -1.41186 0
M  V30 3985 O 371.89 2.01502 -0.789051 0
M  V30 3986 C 372.485 -0.0861651 -3.3869 0
M  V30 3987 C 371.044 0.30667 -3.75149 0
M  V30 3988 C 370.191 -0.459397 -2.73468 0
M  V30 3989 H 373.142 -0.712264 -1.41818 0
M  V30 3990 H 373.163 0.709507 -3.73826 0
M  V30 3991 H 372.675 -1.11512 -3.71735 0
M  V30 3992 H 370.776 1.33892 -3.47712 0
M  V30 3993 H 370.889 -0.0116669 -4.79099 0
M  V30 3994 H 369.253 0.0905645 -2.54539 0
M  V30 3995 H 370.036 -1.4884 -3.09357 0
M  V30 3996 N 372.481 1.55866 -0.233164 0
M  V30 3997 C 373.711 2.02704 0.399325 0
M  V30 3998 C 374.119 1.11204 1.53069 0
M  V30 3999 O 373.462 0.116182 1.83332 0
M  V30 4000 C 373.524 3.45844 0.981429 0
M  V30 4001 C 373.188 4.56997 -0.0159561 0
M  V30 4002 C 374.185 5.13384 -0.820552 0
M  V30 4003 C 371.87 5.0211 -0.138072 0
M  V30 4004 C 373.864 6.13365 -1.73386 0
M  V30 4005 C 371.551 6.01926 -1.0549 0
M  V30 4006 C 372.549 6.57431 -1.85132 0
M  V30 4007 O 372.237 7.55302 -2.75272 0
M  V30 4008 H 371.969 0.668459 0.100692 0
M  V30 4009 H 374.523 2.02387 -0.35052 0
M  V30 4010 H 372.753 3.43267 1.78058 0
M  V30 4011 H 374.442 3.76262 1.52255 0
M  V30 4012 H 375.208 4.79372 -0.736721 0
M  V30 4013 H 371.087 4.5858 0.471737 0
M  V30 4014 H 374.631 6.56614 -2.35592 0
M  V30 4015 H 370.528 6.35359 -1.1397 0
M  V30 4016 H 371.296 7.72867 -2.69477 0
M  V30 4017 N 373.959 -0.0401083 1.57549 0
M  V30 4018 C 375.206 -0.733125 1.88763 0
M  V30 4019 C 375.534 -1.75946 0.829058 0
M  V30 4020 O 374.789 -1.94949 -0.171323 0
M  V30 4021 C 375.088 -1.44902 3.26708 0
M  V30 4022 C 374.754 -0.559707 4.47413 0
M  V30 4023 C 373.416 -0.314731 4.8017 0
M  V30 4024 C 375.768 0.0549743 5.21171 0
M  V30 4025 C 373.096 0.553886 5.8408 0
M  V30 4026 C 375.448 0.911229 6.26003 0
M  V30 4027 C 374.112 1.16577 6.57241 0
M  V30 4028 H 373.382 -0.268269 0.690733 0
M  V30 4029 H 376.029 0.00679408 1.91499 0
M  V30 4030 H 374.334 -2.26197 3.1991 0
M  V30 4031 H 376.031 -1.99058 3.48105 0
M  V30 4032 H 372.621 -0.760793 4.21794 0
M  V30 4033 H 376.805 -0.121344 4.96152 0
M  V30 4034 H 372.061 0.759518 6.06664 0
M  V30 4035 H 376.235 1.3941 6.82303 0
M  V30 4036 H 373.862 1.84058 7.37582 0
M  V30 4037 N 375.437 -1.54477 -0.31217 0
M  V30 4038 C 376.853 -1.45442 -0.657185 0
M  V30 4039 C 377.053 -0.63653 -1.91182 0
M  V30 4040 O 376.109 -0.139815 -2.52113 0
M  V30 4041 C 377.422 -2.89287 -0.82058 0
M  V30 4042 C 378.97 -2.9926 -0.917188 0
M  V30 4043 C 379.445 -4.44279 -1.11267 0
M  V30 4044 N 380.936 -4.4794 -1.17914 0
M  V30 4045 C 381.671 -5.57318 -1.34848 0
M  V30 4046 N 381.167 -6.76642 -1.48752 0
M  V30 4047 N 382.96 -5.44986 -1.37647 0
M  V30 4048 H 375.111 -2.06129 0.512313 0
M  V30 4049 H 377.374 -0.933088 0.167485 0
M  V30 4050 H 377.08 -3.51687 0.0302604 0
M  V30 4051 H 376.954 -3.36061 -1.71298 0
M  V30 4052 H 379.341 -2.36981 -1.75852 0
M  V30 4053 H 379.422 -2.558 -0.00101257 0
M  V30 4054 H 379.066 -5.07149 -0.27614 0
M  V30 4055 H 378.996 -4.85359 -2.04289 0
M  V30 4056 H 381.487 -3.61969 -1.08567 0
M  V30 4057 H 381.8 -7.55758 -1.61397 0
M  V30 4058 H 380.145 -6.79529 -1.45828 0
M  V30 4059 H 383.336 -4.50715 -1.26388 0
M  V30 4060 H 383.509 -6.3028 -1.50501 0
M  V30 4061 N 376.915 0.57481 -1.46744 0
M  V30 4062 C 378.192 1.3352 -1.4294 0
M  V30 4063 C 378.572 2.10775 -0.117009 0
M  V30 4064 O 377.92 2.09966 0.901474 0
M  V30 4065 C 378.13 2.25456 -2.66403 0
M  V30 4066 C 379.478 2.87035 -3.12883 0
M  V30 4067 O 380.502 2.35766 -2.67007 0
M  V30 4068 O 379.361 3.80179 -3.92589 0
M  V30 4069 H 376.455 0.600318 -0.568812 0
M  V30 4070 H 379.001 0.595171 -1.58921 0
M  V30 4071 H 377.773 1.67851 -3.53471 0
M  V30 4072 H 377.396 3.06785 -2.52921 0
M  V30 4073 N 378.394 1.34581 0.820102 0
M  V30 4074 C 379.304 1.28471 1.96297 0
M  V30 4075 C 380.32 0.191902 1.72939 0
M  V30 4076 O 381.496 0.418879 1.96996 0
M  V30 4077 C 378.561 1.04281 3.30645 0
M  V30 4078 C 377.622 2.22745 3.66992 0
M  V30 4079 C 376.855 1.997 4.9493 0
M  V30 4080 O 377.078 0.956656 5.6232 0
M  V30 4081 O 376.012 2.86723 5.2922 0
M  V30 4082 H 379.838 2.24624 2.04396 0
M  V30 4083 H 377.423 1.14816 0.955913 0
M  V30 4084 H 379.305 0.925841 4.11104 0
M  V30 4085 H 377.98 0.111697 3.23507 0
M  V30 4086 H 376.887 2.40003 2.86966 0
M  V30 4087 H 378.22 3.14257 3.78819 0
M  V30 4088 N 379.872 -1.04064 1.18357 0
M  V30 4089 C 380.782 -2.15569 0.925596 0
M  V30 4090 C 381.798 -1.7365 -0.110295 0
M  V30 4091 O 382.974 -2.01273 0.0716218 0
M  V30 4092 C 380.039 -3.43704 0.454836 0
M  V30 4093 C 379.1 -4.00004 1.55869 0
M  V30 4094 C 378.333 -5.22023 1.1103 0
M  V30 4095 O 378.556 -5.70392 -0.0309756 0
M  V30 4096 O 377.49 -5.70856 1.90805 0
M  V30 4097 H 381.316 -2.40187 1.8586 0
M  V30 4098 H 378.901 -1.1402 0.965394 0
M  V30 4099 H 380.783 -4.20923 0.200382 0
M  V30 4100 H 379.458 -3.20559 -0.449876 0
M  V30 4101 H 378.365 -3.24172 1.86716 0
M  V30 4102 H 379.698 -4.2749 2.43953 0
M  V30 4103 N 381.35 -0.985608 -1.22978 0
M  V30 4104 C 382.28 -0.549649 -2.26939 0
M  V30 4105 C 383.261 0.419803 -1.64838 0
M  V30 4106 O 384.446 0.31203 -1.91677 0
M  V30 4107 C 381.576 0.143652 -3.47003 0
M  V30 4108 C 380.53 -0.743606 -4.21491 0
M  V30 4109 C 379.856 0.0822027 -5.34637 0
M  V30 4110 C 381.156 -2.03694 -4.80943 0
M  V30 4111 H 382.85 -1.41862 -2.63658 0
M  V30 4112 H 380.396 -0.683571 -1.26741 0
M  V30 4113 H 382.349 0.459985 -4.18882 0
M  V30 4114 H 381.073 1.04711 -3.09359 0
M  V30 4115 H 379.732 -1.04347 -3.51436 0
M  V30 4116 H 379.38 0.986359 -4.93234 0
M  V30 4117 H 379.08 -0.508377 -5.85397 0
M  V30 4118 H 380.604 0.392797 -6.09335 0
M  V30 4119 H 382.018 -1.78504 -5.44802 0
M  V30 4120 H 380.415 -2.57573 -5.42011 0
M  V30 4121 H 381.485 -2.72042 -4.01399 0
M  V30 4122 N 382.828 1.3818 -0.7579 0
M  V30 4123 C 384.053 2.04827 -0.325679 0
M  V30 4124 C 384.478 1.56788 1.03919 0
M  V30 4125 O 383.836 0.721811 1.66312 0
M  V30 4126 C 383.884 3.58774 -0.362447 0
M  V30 4127 O 382.988 4.07372 0.642033 0
M  V30 4128 H 382.329 0.64833 -0.143402 0
M  V30 4129 H 384.859 1.7677 -1.03023 0
M  V30 4130 H 384.869 4.07434 -0.214844 0
M  V30 4131 H 383.544 3.93096 -1.35824 0
M  V30 4132 H 382.121 3.70068 0.458688 0
M  V30 4133 N 384.306 0.507319 1.49211 0
M  V30 4134 C 385.546 -0.0332372 2.04373 0
M  V30 4135 C 385.91 -1.33694 1.37804 0
M  V30 4136 O 387.111 -1.96213 1.83722 0
M  V30 4137 C 385.382 -0.17599 3.56966 0
M  V30 4138 S 386.941 -0.669882 4.33657 0
M  V30 4139 H 383.759 0.00123603 0.710999 0
M  V30 4140 H 386.361 0.682725 1.83191 0
M  V30 4141 H 385.065 0.778053 4.02957 0
M  V30 4142 H 384.596 -0.917005 3.82563 0
M  V30 4143 H 386.611 -1.93806 4.56786 0
M  V30 4144 N 385.784 -1.5574 0.241426 0
M  V30 4145 C 387.012 -2.03208 -0.389134 0
M  V30 4146 C 387.427 -1.12082 -1.51931 0
M  V30 4147 O 386.784 -0.134183 -1.82006 0
M  V30 4148 C 386.835 -3.50064 -0.902087 0
M  V30 4149 O 386.556 -4.37717 0.18305 0
M  V30 4150 C 388.057 -4.13268 -1.60389 0
M  V30 4151 H 385.277 -0.664509 -0.0931053 0
M  V30 4152 H 387.821 -2.0124 0.36369 0
M  V30 4153 H 385.976 -3.52583 -1.60511 0
M  V30 4154 H 386.39 -5.24097 -0.205579 0
M  V30 4155 H 387.864 -5.17733 -1.91458 0
M  V30 4156 H 388.341 -3.59434 -2.52397 0
M  V30 4157 H 388.947 -4.14655 -0.945576 0
M  V30 4158 N 387.262 0.0317525 -1.57568 0
M  V30 4159 C 388.508 0.724175 -1.8943 0
M  V30 4160 C 388.841 1.75149 -0.838836 0
M  V30 4161 O 388.116 1.93948 0.146422 0
M  V30 4162 C 388.399 1.39615 -3.31933 0
M  V30 4163 C 388.252 0.382537 -4.4817 0
M  V30 4164 C 389.571 2.33084 -3.73309 0
M  V30 4165 H 386.69 0.261797 -0.688935 0
M  V30 4166 H 389.332 -0.013017 -1.89996 0
M  V30 4167 H 387.482 2.02451 -3.31581 0
M  V30 4168 H 389.154 -0.243689 -4.60656 0
M  V30 4169 H 387.397 -0.29844 -4.32772 0
M  V30 4170 H 388.068 0.891145 -5.44759 0
M  V30 4171 H 390.544 1.80295 -3.7501 0
M  V30 4172 H 389.42 2.77084 -4.73831 0
M  V30 4173 H 389.681 3.19643 -3.05419 0
M  V30 4174 N 388.74 1.54641 0.303973 0
M  V30 4175 C 389.986 1.74038 1.04109 0
M  V30 4176 C 390.319 0.523051 1.87024 0
M  V30 4177 O 389.594 -0.479874 1.88487 0
M  V30 4178 C 389.877 3.02761 1.94955 0
M  V30 4179 C 389.73 4.34787 1.1524 0
M  V30 4180 C 391.049 3.27336 2.94175 0
M  V30 4181 H 388.168 0.63323 0.377079 0
M  V30 4182 H 390.81 1.87354 0.316001 0
M  V30 4183 H 388.96 2.9154 2.56782 0
M  V30 4184 H 390.632 4.57922 0.557236 0
M  V30 4185 H 388.875 4.31407 0.455053 0
M  V30 4186 H 389.546 5.21116 1.8205 0
M  V30 4187 H 392.022 3.38148 2.42477 0
M  V30 4188 H 390.898 4.18726 3.54908 0
M  V30 4189 H 391.159 2.45491 3.67677 0
M  V30 4190 N 390.218 -0.567019 1.47046 0
M  V30 4191 C 391.128 -1.70247 1.6141 0
M  V30 4192 C 392.144 -1.66746 0.497157 0
M  V30 4193 O 393.32 -1.86371 0.763389 0
M  V30 4194 C 390.385 -3.06756 1.61561 0
M  V30 4195 C 389.446 -3.21399 2.84607 0
M  V30 4196 C 388.679 -4.51396 2.84741 0
M  V30 4197 O 388.902 -5.36255 1.94388 0
M  V30 4198 O 387.836 -4.69621 3.76483 0
M  V30 4199 H 391.662 -1.61073 2.57467 0
M  V30 4200 H 389.247 -0.735894 1.30019 0
M  V30 4201 H 391.129 -3.8801 1.64396 0
M  V30 4202 H 389.804 -3.16333 0.686684 0
M  V30 4203 H 388.711 -2.39579 2.8732 0
M  V30 4204 H 390.044 -3.16721 3.76761 0
M  V30 4205 N 391.696 -1.35014 -0.812953 0
M  V30 4206 C 392.626 -1.30069 -1.93919 0
M  V30 4207 C 393.607 -0.176275 -1.69184 0
M  V30 4208 O 394.792 -0.370227 -1.90638 0
M  V30 4209 C 391.922 -1.06547 -3.30552 0
M  V30 4210 C 390.876 -2.15561 -3.69753 0
M  V30 4211 C 390.202 -1.77214 -5.04479 0
M  V30 4212 C 391.502 -3.57476 -3.808 0
M  V30 4213 H 393.196 -2.24303 -1.98314 0
M  V30 4214 H 390.742 -1.07977 -0.952736 0
M  V30 4215 H 392.695 -1.01729 -4.08937 0
M  V30 4216 H 391.419 -0.0875719 -3.26483 0
M  V30 4217 H 390.078 -2.19466 -2.9365 0
M  V30 4218 H 389.726 -0.780589 -4.96906 0
M  V30 4219 H 389.426 -2.50184 -5.31678 0
M  V30 4220 H 390.95 -1.7391 -5.8531 0
M  V30 4221 H 392.364 -3.55929 -4.4943 0
M  V30 4222 H 390.761 -4.29152 -4.19462 0
M  V30 4223 H 391.831 -3.94091 -2.82525 0
M  V30 4224 N 393.175 1.03435 -1.18907 0
M  V30 4225 C 394.122 2.11591 -0.921837 0
M  V30 4226 C 395.092 1.65499 0.141226 0
M  V30 4227 O 396.277 1.908 0.000242829 0
M  V30 4228 C 393.417 3.42012 -0.460616 0
M  V30 4229 C 392.53 4.01682 -1.58982 0
M  V30 4230 C 391.665 5.20091 -1.08069 0
M  V30 4231 C 390.704 5.71805 -2.18416 0
M  V30 4232 N 389.841 6.81494 -1.68849 0
M  V30 4233 H 394.681 2.33787 -1.8479 0
M  V30 4234 H 392.218 1.1467 -0.921373 0
M  V30 4235 H 394.176 4.16834 -0.174642 0
M  V30 4236 H 392.806 3.19944 0.428467 0
M  V30 4237 H 391.858 3.24127 -1.99113 0
M  V30 4238 H 393.17 4.36084 -2.4214 0
M  V30 4239 H 392.324 6.02051 -0.749615 0
M  V30 4240 H 391.063 4.87209 -0.218771 0
M  V30 4241 H 390.068 4.88461 -2.5236 0
M  V30 4242 H 391.293 6.06728 -3.05054 0
M  V30 4243 H 389.239 6.50475 -0.849572 0
M  V30 4244 H 389.156 7.14994 -2.45601 0
M  V30 4245 H 390.424 7.67063 -1.38689 0
M  V30 4246 N 394.653 0.992116 1.22453 0
M  V30 4247 C 395.883 0.684949 1.94915 0
M  V30 4248 C 396.291 -0.754292 1.73514 0
M  V30 4249 O 395.634 -1.52056 1.03076 0
M  V30 4250 C 395.696 0.910054 3.47791 0
M  V30 4251 C 395.36 2.33363 3.92926 0
M  V30 4252 C 396.357 3.31308 4.00663 0
M  V30 4253 C 394.042 2.66785 4.25595 0
M  V30 4254 C 396.036 4.6075 4.40441 0
M  V30 4255 C 393.723 3.96446 4.65053 0
M  V30 4256 C 394.721 4.9324 4.72444 0
M  V30 4257 O 394.409 6.20584 5.1101 0
M  V30 4258 H 394.141 0.25258 0.62704 0
M  V30 4259 H 396.695 1.32939 1.56577 0
M  V30 4260 H 394.925 0.208443 3.86138 0
M  V30 4261 H 396.614 0.598257 4.01467 0
M  V30 4262 H 397.38 3.0682 3.75615 0
M  V30 4263 H 393.259 1.92148 4.19047 0
M  V30 4264 H 396.803 5.363 4.46126 0
M  V30 4265 H 392.7 4.20724 4.89552 0
M  V30 4266 H 393.468 6.24509 5.29085 0
M  V30 4267 N 396.131 -1.37776 0.765217 0
M  V30 4268 C 397.359 -2.04124 0.337767 0
M  V30 4269 C 397.774 -1.57715 -1.03785 0
M  V30 4270 O 397.131 -0.755447 -1.6613 0
M  V30 4271 C 397.182 -3.59658 0.364442 0
M  V30 4272 O 396.903 -4.04367 1.68579 0
M  V30 4273 C 398.404 -4.43236 -0.0754221 0
M  V30 4274 H 395.624 -0.655696 0.142491 0
M  V30 4275 H 398.168 -1.76238 1.03732 0
M  V30 4276 H 396.323 -3.86339 -0.286471 0
M  V30 4277 H 396.737 -4.98857 1.61993 0
M  V30 4278 H 398.211 -5.52 -0.00560067 0
M  V30 4279 H 398.688 -4.2455 -1.12491 0
M  V30 4280 H 399.294 -4.21767 0.547055 0
M  V30 4281 N 397.609 -0.515225 -1.4894 0
M  V30 4282 C 398.857 0.0241671 -2.02086 0
M  V30 4283 C 399.178 1.3616 -1.3959 0
M  V30 4284 O 398.448 1.87841 -0.556121 0
M  V30 4285 H 397.028 0.0119203 -0.746905 0
M  V30 4286 H 399.69 -0.675702 -1.82812 0
M  V30 4287 H 398.786 0.143385 -3.1177 0
M  V30 4288 N 399.087 1.5561 -0.249682 0
M  V30 4289 C 400.035 2.22894 0.664906 0
M  V30 4290 C 401.029 1.21743 1.17792 0
M  V30 4291 O 402.235 1.39748 1.13449 0
M  V30 4292 H 398.61 0.715022 0.232912 0
M  V30 4293 H 400.581 2.98307 0.0742998 0
M  V30 4294 C 399.33 2.94424 1.84959 0
M  V30 4295 H 398.653 3.72031 1.46399 0
M  V30 4296 H 400.093 3.44862 2.4667 0
M  V30 4297 C 398.552 1.98454 2.72245 0
M  V30 4298 O 399.082 1.51939 3.71857 0
M  V30 4299 N 397.288 1.65496 2.38871 0
M  V30 4300 H 396.835 2.03517 1.57919 0
M  V30 4301 H 396.793 1.0155 2.97548 0
M  V30 4302 N 400.565 -0.0233959 1.57583 0
M  V30 4303 C 401.528 -1.00693 2.05897 0
M  V30 4304 C 402.528 -1.28693 0.964092 0
M  V30 4305 O 403.718 -1.23602 1.22753 0
M  V30 4306 C 400.85 -2.33825 2.4807 0
M  V30 4307 H 402.043 -0.589476 2.9405 0
M  V30 4308 H 399.596 -0.270354 1.53944 0
M  V30 4309 H 400.331 -2.80307 1.6309 0
M  V30 4310 H 400.116 -2.1483 3.2801 0
M  V30 4311 H 401.606 -3.04426 2.85857 0
M  V30 4312 N 402.043 -1.548 -0.295768 0
M  V30 4313 C 403.268 -1.78653 -1.05346 0
M  V30 4314 C 403.693 -0.546894 -1.79974 0
M  V30 4315 O 403.051 0.502763 -1.7419 0
M  V30 4316 C 403.099 -2.99679 -2.00561 0
M  V30 4317 O 402.203 -2.7317 -3.08953 0
M  V30 4318 H 401.544 -0.59116 -0.302367 0
M  V30 4319 H 404.074 -2.01895 -0.331598 0
M  V30 4320 H 404.084 -3.27793 -2.42932 0
M  V30 4321 H 402.759 -3.89562 -1.4565 0
M  V30 4322 H 401.336 -2.56089 -2.71059 0
M  V30 4323 N 403.521 0.559213 -1.47345 0
M  V30 4324 C 404.484 1.64854 -1.59235 0
M  V30 4325 C 405.484 1.53851 -0.467607 0
M  V30 4326 O 406.674 1.58045 -0.732617 0
M  V30 4327 C 403.806 3.04388 -1.53496 0
M  V30 4328 H 404.999 1.55662 -2.56339 0
M  V30 4329 H 402.552 0.778973 -1.35505 0
M  V30 4330 H 403.287 3.19115 -0.577604 0
M  V30 4331 H 403.072 3.13783 -2.35123 0
M  V30 4332 H 404.562 3.83642 -1.6495 0
M  V30 4333 N 404.999 1.35443 0.805782 0
M  V30 4334 C 405.929 1.31095 1.93226 0
M  V30 4335 C 406.91 0.185244 1.69088 0
M  V30 4336 O 408.095 0.380332 1.90439 0
M  V30 4337 C 405.225 1.08299 3.29983 0
M  V30 4338 C 404.179 2.17519 3.68605 0
M  V30 4339 C 403.505 1.79887 5.03532 0
M  V30 4340 C 404.805 3.5949 3.78898 0
M  V30 4341 H 406.499 2.25352 1.97122 0
M  V30 4342 H 404.045 1.0848 0.946996 0
M  V30 4343 H 405.998 1.03897 4.08391 0
M  V30 4344 H 404.722 0.104885 3.26432 0
M  V30 4345 H 403.381 2.2102 2.92482 0
M  V30 4346 H 403.029 0.80693 4.96485 0
M  V30 4347 H 402.729 2.53001 5.30344 0
M  V30 4348 H 404.253 1.77011 5.84379 0
M  V30 4349 H 405.667 3.58307 4.47536 0
M  V30 4350 H 404.064 4.31371 4.1718 0
M  V30 4351 H 405.134 3.95584 2.80431 0
M  V30 4352 N 406.477 -1.02803 1.19454 0
M  V30 4353 C 407.724 -1.76217 0.997693 0
M  V30 4354 C 408.052 -1.887 -0.47144 0
M  V30 4355 O 407.307 -1.4011 -1.3663 0
M  V30 4356 C 407.606 -3.18941 1.6128 0
M  V30 4357 C 407.272 -3.26463 3.11019 0
M  V30 4358 C 405.934 -3.28223 3.51885 0
M  V30 4359 C 408.286 -3.25542 4.07028 0
M  V30 4360 C 405.614 -3.26719 4.8731 0
M  V30 4361 C 407.966 -3.25579 5.42385 0
M  V30 4362 C 406.63 -3.25637 5.82681 0
M  V30 4363 H 405.9 -0.644823 0.365082 0
M  V30 4364 H 408.547 -1.20655 1.4871 0
M  V30 4365 H 406.852 -3.77587 1.04572 0
M  V30 4366 H 408.549 -3.74415 1.43577 0
M  V30 4367 H 405.139 -3.25822 2.78457 0
M  V30 4368 H 409.323 -3.23362 3.76498 0
M  V30 4369 H 404.579 -3.25089 5.1781 0
M  V30 4370 H 408.753 -3.23817 6.16535 0
M  V30 4371 H 406.38 -3.24226 6.87591 0
M  V30 4372 N 407.956 -0.998596 -1.21925 0
M  V30 4373 C 409.205 -0.673085 -1.90138 0
M  V30 4374 C 409.518 0.79895 -1.78539 0
M  V30 4375 O 410.724 1.23628 -2.4172 0
M  V30 4376 C 409.18 -1.15339 -3.40918 0
M  V30 4377 C 408.788 -2.65106 -3.61141 0
M  V30 4378 C 410.532 -0.902476 -4.14796 0
M  V30 4379 C 408.439 -3.0671 -5.05651 0
M  V30 4380 H 407.369 -0.248057 -0.712028 0
M  V30 4381 H 410.02 -1.20891 -1.38049 0
M  V30 4382 H 408.402 -0.545658 -3.92223 0
M  V30 4383 H 409.576 -3.31274 -3.20304 0
M  V30 4384 H 407.891 -2.88142 -3.00605 0
M  V30 4385 H 410.488 -1.18895 -5.21314 0
M  V30 4386 H 410.831 0.161349 -4.15987 0
M  V30 4387 H 411.364 -1.47269 -3.69536 0
M  V30 4388 H 408.103 -4.12292 -5.09603 0
M  V30 4389 H 407.623 -2.45249 -5.47369 0
M  V30 4390 H 409.302 -2.9833 -5.74115 0
M  V30 4391 N 409.434 1.37368 -0.772513 0
M  V30 4392 C 410.364 2.32856 -0.173304 0
M  V30 4393 C 411.345 1.55818 0.682262 0
M  V30 4394 O 412.53 1.84052 0.619566 0
M  V30 4395 C 409.66 3.40048 0.706007 0
M  V30 4396 C 408.614 4.27973 -0.0483144 0
M  V30 4397 C 407.94 5.26184 0.950491 0
M  V30 4398 C 409.24 5.07665 -1.22776 0
M  V30 4399 H 410.934 2.83217 -0.971002 0
M  V30 4400 H 408.48 1.3617 -0.468377 0
M  V30 4401 H 410.433 4.05827 1.13501 0
M  V30 4402 H 409.157 2.88214 1.53623 0
M  V30 4403 H 407.816 3.63726 -0.458107 0
M  V30 4404 H 407.464 4.7063 1.77529 0
M  V30 4405 H 407.164 5.85872 0.450314 0
M  V30 4406 H 408.688 5.94838 1.37842 0
M  V30 4407 H 410.102 5.66578 -0.875366 0
M  V30 4408 H 408.499 5.76681 -1.66007 0
M  V30 4409 H 409.569 4.40294 -2.03149 0
M  V30 4410 N 410.912 0.523116 1.48665 0
M  V30 4411 C 412.323 0.0808997 1.86525 0
M  V30 4412 C 412.674 -1.33975 1.43336 0
M  V30 4413 O 411.799 -2.00221 0.821009 0
M  V30 4414 C 412.394 0.140037 3.3851 0
M  V30 4415 C 410.953 -0.246948 3.75589 0
M  V30 4416 C 410.1 0.502845 2.72703 0
M  V30 4417 H 413.051 0.734736 1.40667 0
M  V30 4418 H 413.072 -0.649945 3.74908 0
M  V30 4419 H 412.584 1.17412 3.69914 0
M  V30 4420 H 410.685 -1.28343 3.49798 0
M  V30 4421 H 410.798 0.0878859 4.79019 0
M  V30 4422 H 409.162 -0.0500581 2.54651 0
M  V30 4423 H 409.945 1.53743 3.0695 0
M  V30 4424 N 412.39 -1.55475 0.257931 0
M  V30 4425 C 413.667 -1.91155 -0.414629 0
M  V30 4426 C 414.047 -1.18008 -1.75035 0
M  V30 4427 O 413.395 -0.301193 -2.26506 0
M  V30 4428 C 413.605 -3.44283 -0.571859 0
M  V30 4429 C 414.953 -4.15744 -0.862678 0
M  V30 4430 O 415.977 -3.50083 -0.657314 0
M  V30 4431 O 414.836 -5.31909 -1.2544 0
M  V30 4432 H 411.93 -0.796016 -0.22425 0
M  V30 4433 H 414.476 -1.66976 0.302814 0
M  V30 4434 H 413.248 -3.89558 0.368844 0
M  V30 4435 H 412.871 -3.7436 -1.33943 0
M  V30 4436 N 413.868 0.0150385 -1.57593 0
M  V30 4437 C 414.8 1.03912 -2.04291 0
M  V30 4438 C 415.813 1.31618 -0.958146 0
M  V30 4439 O 417.002 1.28859 -1.23522 0
M  V30 4440 C 414.102 2.37749 -2.41514 0
M  V30 4441 C 413.275 2.29198 -3.72541 0
M  V30 4442 C 412.334 3.45598 -3.96797 0
M  V30 4443 O 411.36 3.24461 -4.67668 0
M  V30 4444 N 412.562 4.67945 -3.43523 0
M  V30 4445 H 415.327 0.64099 -2.92765 0
M  V30 4446 H 412.888 0.20272 -1.60626 0
M  V30 4447 H 414.88 3.14364 -2.54867 0
M  V30 4448 H 413.45 2.69357 -1.58637 0
M  V30 4449 H 412.67 1.3759 -3.69408 0
M  V30 4450 H 413.958 2.20642 -4.5847 0
M  V30 4451 H 413.356 4.88017 -2.86104 0
M  V30 4452 H 411.913 5.41878 -3.62232 0
M  V30 4453 N 415.346 1.54954 0.287554 0
M  V30 4454 C 416.623 1.65569 1.04146 0
M  V30 4455 C 417.003 0.512672 2.0478 0
M  V30 4456 O 416.351 -0.489038 2.23205 0
M  V30 4457 C 416.561 3.04163 1.71131 0
M  V30 4458 C 417.909 3.61429 2.22832 0
M  V30 4459 O 418.933 3.06702 1.81141 0
M  V30 4460 O 417.792 4.57281 2.9926 0
M  V30 4461 H 414.886 0.671881 0.482188 0
M  V30 4462 H 417.432 1.67297 0.28457 0
M  V30 4463 H 416.204 3.78796 0.981303 0
M  V30 4464 H 415.827 3.06271 2.53543 0
M  V30 4465 N 416.824 -0.551391 1.4764 0
M  V30 4466 C 417.771 -1.65796 1.60563 0
M  V30 4467 C 418.741 -1.59932 0.448428 0
M  V30 4468 O 419.926 -1.78679 0.669222 0
M  V30 4469 C 417.066 -3.04108 1.63133 0
M  V30 4470 C 416.179 -3.20365 2.89811 0
M  V30 4471 C 415.314 -4.49109 2.8368 0
M  V30 4472 C 414.353 -4.58819 4.05156 0
M  V30 4473 N 413.49 -5.78926 3.97227 0
M  V30 4474 H 418.33 -1.54088 2.5507 0
M  V30 4475 H 415.867 -0.75052 1.26513 0
M  V30 4476 H 417.825 -3.84207 1.62606 0
M  V30 4477 H 416.455 -3.14637 0.721341 0
M  V30 4478 H 415.507 -2.33659 3.00179 0
M  V30 4479 H 416.819 -3.23402 3.79753 0
M  V30 4480 H 415.973 -5.37475 2.81434 0
M  V30 4481 H 414.712 -4.4856 1.91431 0
M  V30 4482 H 413.717 -3.68864 4.077 0
M  V30 4483 H 414.942 -4.61124 4.98539 0
M  V30 4484 H 412.888 -5.79314 3.07785 0
M  V30 4485 H 412.805 -5.83367 4.80853 0
M  V30 4486 H 414.073 -6.69637 3.99007 0
M  V30 4487 N 418.302 -1.35869 -0.798587 0
M  V30 4488 C 419.235 -1.23801 -1.91699 0
M  V30 4489 C 420.213 -0.124143 -1.62125 0
M  V30 4490 O 421.397 -0.293656 -1.86199 0
M  V30 4491 C 418.524 -0.908063 -3.263 0
M  V30 4492 C 417.57 -2.0351 -3.74815 0
M  V30 4493 S 418.403 -3.65183 -3.91665 0
M  V30 4494 C 419.559 -3.34283 -5.29156 0
M  V30 4495 H 419.792 -2.18466 -2.01643 0
M  V30 4496 H 417.325 -1.21178 -0.956833 0
M  V30 4497 H 419.283 -0.724506 -4.04056 0
M  V30 4498 H 417.944 0.0206584 -3.14093 0
M  V30 4499 H 417.137 -1.75858 -4.72324 0
M  V30 4500 H 416.739 -2.1774 -3.04081 0
M  V30 4501 H 419.031 -2.87607 -6.13424 0
M  V30 4502 H 419.974 -4.31022 -5.61806 0
M  V30 4503 H 420.382 -2.69854 -4.95822 0
M  V30 4504 N 419.78 1.02168 -1.19998 0
M  V30 4505 C 420.69 2.14069 -0.959774 0
M  V30 4506 C 421.706 1.73804 0.082655 0
M  V30 4507 O 422.882 2.01133 -0.103633 0
M  V30 4508 C 419.947 3.42936 -0.509459 0
M  V30 4509 C 419.008 3.97474 -1.62213 0
M  V30 4510 C 418.241 5.2019 -1.19321 0
M  V30 4511 O 418.464 5.70369 -0.0597726 0
M  V30 4512 O 417.398 5.67749 -1.99863 0
M  V30 4513 H 421.224 2.37199 -1.89658 0
M  V30 4514 H 418.809 1.12469 -0.983411 0
M  V30 4515 H 420.691 4.20551 -0.267322 0
M  V30 4516 H 419.366 3.21234 0.398821 0
M  V30 4517 H 418.273 3.21161 -1.9185 0
M  V30 4518 H 419.606 4.23555 -2.50723 0
M  V30 4519 N 421.258 1.00505 1.21394 0
M  V30 4520 C 422.168 0.574806 2.27449 0
M  V30 4521 C 423.184 -0.382206 1.6975 0
M  V30 4522 O 424.36 -0.246027 1.99892 0
M  V30 4523 C 421.425 -0.0917414 3.46579 0
M  V30 4524 C 420.486 0.909758 4.1955 0
M  V30 4525 C 419.719 0.274924 5.32991 0
M  V30 4526 O 419.942 -0.928254 5.62796 0
M  V30 4527 O 418.876 0.985877 5.93771 0
M  V30 4528 H 422.702 1.45744 2.66444 0
M  V30 4529 H 420.287 0.773923 1.27792 0
M  V30 4530 H 422.169 -0.464551 4.18832 0
M  V30 4531 H 420.844 -0.948755 3.09484 0
M  V30 4532 H 419.751 1.33372 3.49518 0
M  V30 4533 H 421.084 1.73636 4.60555 0
M  V30 4534 N 422.737 -1.36956 0.779787 0
M  V30 4535 C 423.983 -1.99787 0.348281 0
M  V30 4536 C 424.316 -1.61756 -1.07465 0
M  V30 4537 O 423.591 -0.867639 -1.74075 0
M  V30 4538 C 423.874 -3.56597 0.50104 0
M  V30 4539 C 423.727 -4.04513 1.96697 0
M  V30 4540 C 425.046 -4.40008 -0.0898097 0
M  V30 4541 H 422.165 -0.725796 0.128022 0
M  V30 4542 H 424.807 -1.62514 0.984331 0
M  V30 4543 H 422.957 -3.88479 -0.0404347 0
M  V30 4544 H 424.629 -3.83161 2.56876 0
M  V30 4545 H 422.872 -3.56408 2.47297 0
M  V30 4546 H 423.543 -5.1352 2.02486 0
M  V30 4547 H 426.019 -4.14431 0.372293 0
M  V30 4548 H 424.895 -5.4888 0.0471605 0
M  V30 4549 H 425.156 -4.26035 -1.18096 0
M  V30 4550 N 424.215 -0.530993 -1.48385 0
M  V30 4551 C 425.125 0.23503 -2.3342 0
M  V30 4552 C 426.141 0.93801 -1.46552 0
M  V30 4553 O 427.317 0.912745 -1.7953 0
M  V30 4554 C 424.382 1.26778 -3.22689 0
M  V30 4555 C 423.443 0.575038 -4.25431 0
M  V30 4556 C 422.676 1.55858 -5.10435 0
M  V30 4557 O 422.899 2.79129 -4.97437 0
M  V30 4558 O 421.833 1.09742 -5.91811 0
M  V30 4559 H 425.659 -0.461794 -3.00169 0
M  V30 4560 H 423.244 -0.291903 -1.46521 0
M  V30 4561 H 425.126 1.86457 -3.77904 0
M  V30 4562 H 423.801 1.94699 -2.586 0
M  V30 4563 H 422.708 -0.0622782 -3.74048 0
M  V30 4564 H 424.041 -0.062253 -4.92161 0
M  V30 4565 N 425.693 1.55336 -0.266172 0
M  V30 4566 C 426.656 2.20878 0.612001 0
M  V30 4567 C 427.656 1.18388 1.08816 0
M  V30 4568 O 428.846 1.4335 0.989774 0
M  V30 4569 C 425.978 2.86765 1.84332 0
M  V30 4570 H 427.171 2.99873 0.0398718 0
M  V30 4571 H 424.724 1.56291 -0.0167309 0
M  V30 4572 H 425.459 2.11759 2.45619 0
M  V30 4573 H 425.244 3.61862 1.5099 0
M  V30 4574 H 426.734 3.36867 2.46801 0
M  V30 4575 N 427.171 -0.0066808 1.57599 0
M  V30 4576 C 428.104 -1.03397 2.03431 0
M  V30 4577 C 429.082 -1.33872 0.922877 0
M  V30 4578 O 430.266 -1.4615 1.19048 0
M  V30 4579 C 427.393 -2.36325 2.42628 0
M  V30 4580 C 426.439 -2.21557 3.64438 0
M  V30 4581 S 427.272 -1.54789 5.12641 0
M  V30 4582 C 428.428 -2.8916 5.55101 0
M  V30 4583 H 428.661 -0.643687 2.90248 0
M  V30 4584 H 426.194 -0.217349 1.52863 0
M  V30 4585 H 428.152 -3.12759 2.65879 0
M  V30 4586 H 426.813 -2.72495 1.56222 0
M  V30 4587 H 426.006 -3.1974 3.89592 0
M  V30 4588 H 425.608 -1.53267 3.41153 0
M  V30 4589 H 427.9 -3.8547 5.57153 0
M  V30 4590 H 428.843 -2.68713 6.55133 0
M  V30 4591 H 429.251 -2.92762 4.82649 0
M  V30 4592 N 428.649 -1.55105 -0.279332 0
M  V30 4593 C 429.579 -1.90557 -1.34945 0
M  V30 4594 C 430.56 -0.766738 -1.51839 0
M  V30 4595 O 431.745 -1.02434 -1.64988 0
M  V30 4596 C 428.875 -2.17193 -2.71006 0
M  V30 4597 C 427.829 -3.33021 -2.68851 0
M  V30 4598 C 427.155 -3.45123 -4.08405 0
M  V30 4599 C 428.455 -4.69578 -2.28678 0
M  V30 4600 H 430.149 -2.80188 -1.05522 0
M  V30 4601 H 427.695 -1.34811 -0.506173 0
M  V30 4602 H 429.648 -2.40581 -3.45975 0
M  V30 4603 H 428.372 -1.24355 -3.01999 0
M  V30 4604 H 427.031 -3.0959 -1.9634 0
M  V30 4605 H 426.679 -2.49762 -4.3661 0
M  V30 4606 H 426.379 -4.22995 -4.07859 0
M  V30 4607 H 427.903 -3.70796 -4.85121 0
M  V30 4608 H 429.317 -4.92553 -2.93368 0
M  V30 4609 H 427.714 -5.5032 -2.39306 0
M  V30 4610 H 428.784 -4.68828 -1.23807 0
M  V30 4611 N 430.127 0.543554 -1.4793 0
M  V30 4612 C 431.057 1.65888 -1.64327 0
M  V30 4613 C 432.038 1.62818 -0.492383 0
M  V30 4614 O 433.223 1.80226 -0.723338 0
M  V30 4615 C 430.353 3.04506 -1.67013 0
M  V30 4616 C 429.307 3.2243 -2.81466 0
M  V30 4617 C 428.633 4.61972 -2.69233 0
M  V30 4618 C 429.933 3.06496 -4.22915 0
M  V30 4619 H 431.627 1.52421 -2.57698 0
M  V30 4620 H 429.173 0.731849 -1.24016 0
M  V30 4621 H 431.126 3.82391 -1.77074 0
M  V30 4622 H 429.85 3.18964 -0.70212 0
M  V30 4623 H 428.509 2.46957 -2.70938 0
M  V30 4624 H 428.157 4.73247 -1.7043 0
M  V30 4625 H 427.857 4.74911 -3.46025 0
M  V30 4626 H 429.381 5.41974 -2.81242 0
M  V30 4627 H 430.795 3.74186 -4.34348 0
M  V30 4628 H 429.192 3.30938 -5.006 0
M  V30 4629 H 430.262 2.03077 -4.40327 0
M  V30 4630 N 431.605 1.3629 0.791371 0
M  V30 4631 C 433.016 1.27225 1.36641 0
M  V30 4632 C 433.367 -0.0887968 1.95999 0
M  V30 4633 O 432.492 -0.990207 1.92416 0
M  V30 4634 C 433.087 2.30375 2.48421 0
M  V30 4635 C 431.646 2.25004 3.01746 0
M  V30 4636 C 430.793 2.15259 1.7481 0
M  V30 4637 H 433.744 1.47198 0.593173 0
M  V30 4638 H 433.765 1.93905 3.27385 0
M  V30 4639 H 433.277 3.29422 2.05189 0
M  V30 4640 H 431.378 1.29417 3.49403 0
M  V30 4641 H 431.491 3.1761 3.58693 0
M  V30 4642 H 429.855 1.61482 1.96966 0
M  V30 4643 H 430.638 3.16191 1.33709 0
M  V30 4644 N 433.083 -1.0153 1.20538 0
M  V30 4645 C 433.993 -2.13557 0.971113 0
M  V30 4646 C 435.009 -1.73845 -0.0734366 0
M  V30 4647 O 436.185 -2.01075 0.114299 0
M  V30 4648 C 433.25 -3.42661 0.527639 0
M  V30 4649 C 432.311 -3.96608 1.64319 0
M  V30 4650 C 431.544 -5.1955 1.22078 0
M  V30 4651 O 431.767 -5.70329 0.0900198 0
M  V30 4652 O 430.701 -5.66681 2.02871 0
M  V30 4653 H 434.527 -2.3619 1.90913 0
M  V30 4654 H 432.112 -1.11946 0.989362 0
M  V30 4655 H 433.994 -4.20404 0.289621 0
M  V30 4656 H 432.669 -3.21441 -0.381779 0
M  V30 4657 H 431.576 -3.20139 1.93551 0
M  V30 4658 H 432.909 -4.22219 2.52966 0
M  V30 4659 N 434.561 -1.01147 -1.20859 0
M  V30 4660 C 435.789 -0.716911 -1.94082 0
M  V30 4661 C 436.204 0.721568 -1.74467 0
M  V30 4662 O 435.561 1.48889 -1.05539 0
M  V30 4663 C 435.612 -1.03662 -3.46318 0
M  V30 4664 O 435.333 -2.4186 -3.65288 0
M  V30 4665 C 436.834 -0.762386 -4.36695 0
M  V30 4666 H 434.054 -0.26367 -0.617024 0
M  V30 4667 H 436.598 -1.35127 -1.53496 0
M  V30 4668 H 434.753 -0.447757 -3.84804 0
M  V30 4669 H 435.167 -2.53224 -4.59323 0
M  V30 4670 H 436.641 -1.03621 -5.42187 0
M  V30 4671 H 437.118 0.303514 -4.3815 0
M  V30 4672 H 437.724 -1.33316 -4.03865 0
M  V30 4673 N 436.039 1.36541 -0.78704 0
M  V30 4674 C 436.969 2.32659 -0.197992 0
M  V30 4675 C 437.95 1.56533 0.665697 0
M  V30 4676 O 439.135 1.84698 0.60001 0
M  V30 4677 C 436.265 3.40778 0.669901 0
M  V30 4678 C 435.219 4.27897 -0.0937039 0
M  V30 4679 C 434.545 5.27163 0.894629 0
M  V30 4680 C 435.845 5.06334 -1.28154 0
M  V30 4681 H 437.539 2.82171 -1.00099 0
M  V30 4682 H 435.085 1.35665 -0.482793 0
M  V30 4683 H 437.038 4.07008 1.09191 0
M  V30 4684 H 435.762 2.89827 1.50558 0
M  V30 4685 H 434.421 3.6322 -0.49666 0
M  V30 4686 H 434.069 4.72486 1.72527 0
M  V30 4687 H 433.769 5.86317 0.388149 0
M  V30 4688 H 435.293 5.96266 1.31525 0
M  V30 4689 H 436.707 5.65617 -0.93541 0
M  V30 4690 H 435.104 5.74888 -1.72115 0
M  V30 4691 H 436.174 4.38114 -2.07807 0
M  V30 4692 N 437.518 0.538854 1.48102 0
M  V30 4693 C 438.465 -0.219042 2.29758 0
M  V30 4694 C 439.435 -0.925562 1.37922 0
M  V30 4695 O 440.62 -0.924855 1.66886 0
M  V30 4696 C 437.76 -1.25452 3.2149 0
M  V30 4697 C 436.873 -0.555943 4.28408 0
M  V30 4698 C 436.008 -1.57512 5.0731 0
M  V30 4699 C 435.047 -0.860498 6.06021 0
M  V30 4700 N 434.184 -1.82564 6.77949 0
M  V30 4701 H 439.024 0.483449 2.94052 0
M  V30 4702 H 436.561 0.250247 1.44956 0
M  V30 4703 H 438.519 -1.86727 3.7308 0
M  V30 4704 H 437.149 -1.92528 2.591 0
M  V30 4705 H 436.201 0.170938 3.80016 0
M  V30 4706 H 437.513 0.00474616 4.988 0
M  V30 4707 H 436.667 -2.26191 5.62959 0
M  V30 4708 H 435.406 -2.16972 4.36778 0
M  V30 4709 H 434.411 -0.159686 5.49568 0
M  V30 4710 H 435.636 -0.271897 6.78555 0
M  V30 4711 H 433.582 -2.40915 6.10161 0
M  V30 4712 H 433.499 -1.31662 7.44447 0
M  V30 4713 H 434.767 -2.50414 7.38182 0
M  V30 4714 N 438.996 -1.55193 0.274407 0
M  V30 4715 C 440.412 -1.59401 -0.0797543 0
M  V30 4716 C 440.612 -1.29162 -1.54659 0
M  V30 4717 O 439.668 -1.05215 -2.29534 0
M  V30 4718 C 440.981 -2.99257 0.294238 0
M  V30 4719 C 442.529 -3.12072 0.240796 0
M  V30 4720 C 443.004 -4.54194 0.589218 0
M  V30 4721 N 444.495 -4.60033 0.540744 0
M  V30 4722 C 445.23 -5.68027 0.783147 0
M  V30 4723 N 444.726 -6.8417 1.09013 0
M  V30 4724 N 446.519 -5.57572 0.711993 0
M  V30 4725 H 438.67 -1.73113 1.23067 0
M  V30 4726 H 440.933 -0.807197 0.497129 0
M  V30 4727 H 440.639 -3.26217 1.31435 0
M  V30 4728 H 440.513 -3.75427 -0.365281 0
M  V30 4729 H 442.9 -2.84877 -0.770024 0
M  V30 4730 H 442.981 -2.38117 0.934563 0
M  V30 4731 H 442.625 -4.82115 1.59772 0
M  V30 4732 H 442.555 -5.26448 -0.126331 0
M  V30 4733 H 445.046 -3.76599 0.313327 0
M  V30 4734 H 445.359 -7.6243 1.26178 0
M  V30 4735 H 443.704 -6.85787 1.12789 0
M  V30 4736 H 446.895 -4.65714 0.472014 0
M  V30 4737 H 447.068 -6.41659 0.90429 0
M  V30 4738 N 440.474 -0.00167713 -1.576 0
M  V30 4739 C 441.72 0.67819 -1.91761 0
M  V30 4740 C 442.075 1.71288 -0.876256 0
M  V30 4741 O 441.368 1.91276 0.111333 0
M  V30 4742 C 441.562 1.36189 -3.30435 0
M  V30 4743 C 441.391 0.394938 -4.47962 0
M  V30 4744 C 440.161 0.00472875 -5.053 0
M  V30 4745 C 442.359 -0.339521 -5.13178 0
M  V30 4746 N 440.341 -0.960257 -6.06343 0
M  V30 4747 C 441.712 -1.15914 -6.09068 0
M  V30 4748 C 443.767 -0.403177 -4.96265 0
M  V30 4749 C 442.47 -2.03661 -6.89866 0
M  V30 4750 C 444.496 -1.26788 -5.77649 0
M  V30 4751 C 443.858 -2.07535 -6.73134 0
M  V30 4752 H 439.957 0.221317 -0.750028 0
M  V30 4753 H 442.541 -0.0624182 -1.946 0
M  V30 4754 H 440.712 2.07278 -3.28467 0
M  V30 4755 H 442.444 1.99658 -3.52021 0
M  V30 4756 H 439.199 0.373452 -4.72125 0
M  V30 4757 H 439.623 -1.43817 -6.61548 0
M  V30 4758 H 444.265 0.206818 -4.22294 0
M  V30 4759 H 441.983 -2.65727 -7.63161 0
M  V30 4760 H 445.569 -1.32107 -5.66603 0
M  V30 4761 H 444.449 -2.73363 -7.35012 0
M  V30 4762 N 441.952 1.55251 0.271103 0
M  V30 4763 C 443.368 1.47133 0.618393 0
M  V30 4764 C 443.568 0.686994 1.89427 0
M  V30 4765 O 442.624 0.206609 2.51653 0
M  V30 4766 C 443.937 2.91361 0.743593 0
M  V30 4767 C 445.485 3.01587 0.837522 0
M  V30 4768 C 445.96 4.47073 0.994483 0
M  V30 4769 N 447.451 4.50909 1.05996 0
M  V30 4770 C 448.186 5.60698 1.20024 0
M  V30 4771 N 447.682 6.80348 1.30759 0
M  V30 4772 N 449.475 5.48444 1.23149 0
M  V30 4773 H 441.626 2.04698 -0.566784 0
M  V30 4774 H 443.889 0.928319 -0.192165 0
M  V30 4775 H 443.595 3.51483 -0.123493 0
M  V30 4776 H 443.469 3.40484 1.62328 0
M  V30 4777 H 445.856 2.4156 1.69507 0
M  V30 4778 H 445.937 2.55713 -0.0668086 0
M  V30 4779 H 445.581 5.07703 0.141582 0
M  V30 4780 H 445.511 4.90605 1.91349 0
M  V30 4781 H 448.002 3.6472 0.989316 0
M  V30 4782 H 448.315 7.59772 1.41303 0
M  V30 4783 H 446.66 6.83156 1.27761 0
M  V30 4784 H 449.851 4.53907 1.14394 0
M  V30 4785 H 450.024 6.34049 1.33738 0
M  V30 4786 N 443.43 -0.535701 1.48216 0
M  V30 4787 C 444.707 -1.29683 1.46429 0
M  V30 4788 C 445.087 -2.10391 0.172852 0
M  V30 4789 O 444.435 -2.12282 -0.845488 0
M  V30 4790 C 444.645 -2.18313 2.72287 0
M  V30 4791 C 445.993 -2.78639 3.20383 0
M  V30 4792 O 447.017 -2.28604 2.73164 0
M  V30 4793 O 445.876 -3.69636 4.02531 0
M  V30 4794 H 442.97 -0.585026 0.584529 0
M  V30 4795 H 445.516 -0.552827 1.60443 0
M  V30 4796 H 444.288 -1.58421 3.57797 0
M  V30 4797 H 443.911 -2.99971 2.60966 0
M  V30 4798 N 444.908 -1.36708 -0.784132 0
M  V30 4799 C 446.133 -1.34565 -1.5782 0
M  V30 4800 C 446.558 0.0695257 -1.87971 0
M  V30 4801 O 445.916 1.04302 -1.48293 0
M  V30 4802 C 445.964 -2.17952 -2.87279 0
M  V30 4803 O 445.068 -1.57563 -3.81114 0
M  V30 4804 H 444.409 -0.460337 -0.478524 0
M  V30 4805 H 446.939 -1.80064 -0.971495 0
M  V30 4806 H 446.949 -2.30721 -3.365 0
M  V30 4807 H 445.624 -3.20823 -2.64661 0
M  V30 4808 H 444.201 -1.53764 -3.39722 0
M  V30 4809 N 446.386 1.0089 -1.21074 0
M  V30 4810 C 447.316 2.1145 -0.990523 0
M  V30 4811 C 448.297 1.69897 0.0831699 0
M  V30 4812 O 449.482 1.94052 -0.0758853 0
M  V30 4813 C 446.612 3.42914 -0.550177 0
M  V30 4814 C 445.566 3.98244 -1.56799 0
M  V30 4815 C 444.892 5.25568 -0.984013 0
M  V30 4816 C 446.192 4.30752 -2.95381 0
M  V30 4817 H 447.886 2.3013 -1.91521 0
M  V30 4818 H 445.432 1.10592 -0.92225 0
M  V30 4819 H 447.385 4.19653 -0.383305 0
M  V30 4820 H 446.109 3.24014 0.41015 0
M  V30 4821 H 444.768 3.23621 -1.72236 0
M  V30 4822 H 444.416 5.02998 -0.0155216 0
M  V30 4823 H 444.116 5.63551 -1.66384 0
M  V30 4824 H 445.64 6.04955 -0.828378 0
M  V30 4825 H 447.054 4.98349 -2.8341 0
M  V30 4826 H 445.451 4.79869 -3.60341 0
M  V30 4827 H 446.521 3.39192 -3.46521 0
M  V30 4828 N 447.864 1.01787 1.20321 0
M  V30 4829 C 448.774 0.598898 2.26827 0
M  V30 4830 C 449.79 -0.36418 1.70146 0
M  V30 4831 O 450.966 -0.224812 2.00141 0
M  V30 4832 C 448.031 -0.0549769 3.46656 0
M  V30 4833 C 447.092 0.954205 4.18561 0
M  V30 4834 C 446.325 0.331439 5.3267 0
M  V30 4835 O 446.548 -0.86851 5.63749 0
M  V30 4836 O 445.482 1.0488 5.92692 0
M  V30 4837 H 449.308 1.48562 2.64883 0
M  V30 4838 H 446.893 0.787434 1.26964 0
M  V30 4839 H 448.775 -0.420102 4.19301 0
M  V30 4840 H 447.45 -0.915876 3.10473 0
M  V30 4841 H 446.357 1.37072 3.48083 0
M  V30 4842 H 447.69 1.78511 4.58688 0
M  V30 4843 N 449.342 -1.36122 0.79427 0
M  V30 4844 C 450.589 -1.99111 0.368905 0
M  V30 4845 C 450.917 -1.63032 -1.0607 0
M  V30 4846 O 450.172 -0.879303 -1.74833 0
M  V30 4847 C 450.471 -3.5409 0.48527 0
M  V30 4848 C 450.137 -4.10003 1.87638 0
M  V30 4849 C 448.799 -4.24986 2.257 0
M  V30 4850 C 451.151 -4.40423 2.78706 0
M  V30 4851 C 448.479 -4.67701 3.54221 0
M  V30 4852 C 450.831 -4.84573 4.0666 0
M  V30 4853 C 449.495 -4.97761 4.44737 0
M  V30 4854 H 448.765 -0.7286 0.134992 0
M  V30 4855 H 451.412 -1.62534 1.01267 0
M  V30 4856 H 449.717 -3.91052 -0.241984 0
M  V30 4857 H 451.414 -4.00766 0.137109 0
M  V30 4858 H 448.004 -3.98784 1.57064 0
M  V30 4859 H 452.188 -4.28412 2.50553 0
M  V30 4860 H 447.444 -4.761 3.83587 0
M  V30 4861 H 451.618 -5.07074 4.77336 0
M  V30 4862 H 449.245 -5.30618 5.44379 0
M  V30 4863 N 450.82 -0.546701 -1.47814 0
M  V30 4864 C 452.236 -0.205717 -1.58269 0
M  V30 4865 C 452.436 1.29153 -1.54667 0
M  V30 4866 O 451.492 2.07098 -1.44453 0
M  V30 4867 C 452.805 -0.823065 -2.89216 0
M  V30 4868 C 454.353 -0.793328 -3.02779 0
M  V30 4869 C 454.828 -1.38955 -4.36412 0
M  V30 4870 N 456.319 -1.35227 -4.43021 0
M  V30 4871 C 457.054 -1.78333 -5.44963 0
M  V30 4872 N 456.55 -2.29246 -6.53772 0
M  V30 4873 N 458.343 -1.69467 -5.35945 0
M  V30 4874 H 450.494 -1.5196 -1.48398 0
M  V30 4875 H 452.757 -0.633078 -0.705632 0
M  V30 4876 H 452.463 -1.8749 -2.97558 0
M  V30 4877 H 452.337 -0.309915 -3.75925 0
M  V30 4878 H 454.724 0.249784 -2.94041 0
M  V30 4879 H 454.805 -1.34412 -2.17639 0
M  V30 4880 H 454.449 -2.43168 -4.45906 0
M  V30 4881 H 454.379 -0.814291 -5.20266 0
M  V30 4882 H 456.87 -0.979739 -3.64979 0
M  V30 4883 H 457.183 -2.60089 -7.27718 0
M  V30 4884 H 455.528 -2.3325 -6.5469 0
M  V30 4885 H 458.719 -1.29477 -4.49837 0
M  V30 4886 H 458.892 -2.03381 -6.15256 0
M  V30 4887 N 452.299 1.55045 -0.282633 0
M  V30 4888 C 453.209 2.26491 0.61147 0
M  V30 4889 C 454.225 1.29348 1.16384 0
M  V30 4890 O 455.401 1.62298 1.19253 0
M  V30 4891 C 452.466 2.97779 1.77563 0
M  V30 4892 C 451.527 4.10418 1.25919 0
M  V30 4893 C 450.76 4.78297 2.36786 0
M  V30 4894 O 450.983 4.45426 3.56303 0
M  V30 4895 O 449.917 5.66089 2.04517 0
M  V30 4896 H 453.743 3.03683 0.0324615 0
M  V30 4897 H 451.328 1.49317 -0.0497576 0
M  V30 4898 H 453.21 3.42554 2.45427 0
M  V30 4899 H 451.885 2.23498 2.34159 0
M  V30 4900 H 450.792 3.70082 0.546797 0
M  V30 4901 H 452.125 4.86622 0.738887 0
M  V30 4902 N 453.777 0.010035 1.57597 0
M  V30 4903 C 455.026 -0.671945 1.90178 0
M  V30 4904 C 455.339 -1.74376 0.886131 0
M  V30 4905 O 456.545 -2.48107 1.10252 0
M  V30 4906 C 455.001 -1.24636 3.3763 0
M  V30 4907 C 454.609 -0.208838 4.47513 0
M  V30 4908 C 456.353 -1.90595 3.79307 0
M  V30 4909 C 454.26 -0.793814 5.86048 0
M  V30 4910 H 453.19 -0.25474 0.709665 0
M  V30 4911 H 455.841 0.0722206 1.83358 0
M  V30 4912 H 454.223 -2.04152 3.3932 0
M  V30 4913 H 455.397 0.562463 4.57354 0
M  V30 4914 H 453.712 0.350889 4.14919 0
M  V30 4915 H 456.309 -2.35284 4.80151 0
M  V30 4916 H 456.652 -2.74074 3.13352 0
M  V30 4917 H 457.185 -1.17798 3.79958 0
M  V30 4918 H 453.924 0.00240855 6.555 0
M  V30 4919 H 453.444 -1.53404 5.79851 0
M  V30 4920 H 455.123 -1.2894 6.34022 0
M  V30 4921 N 455.255 -1.55392 -0.262866 0
M  V30 4922 C 456.503 -1.76127 -0.991147 0
M  V30 4923 C 456.824 -0.571083 -1.8645 0
M  V30 4924 O 456.094 0.413698 -1.91482 0
M  V30 4925 H 454.674 -0.649528 -0.368948 0
M  V30 4926 H 457.336 -1.9281 -0.284655 0
M  V30 4927 H 456.432 -2.6663 -1.62219 0
M  V30 4928 N 456.733 0.527833 -1.48498 0
M  V30 4929 C 457.643 1.65907 -1.65867 0
M  V30 4930 C 458.659 1.6537 -0.541192 0
M  V30 4931 O 459.835 1.84282 -0.812534 0
M  V30 4932 C 456.9 3.02364 -1.69637 0
M  V30 4933 C 455.961 3.1374 -2.93028 0
M  V30 4934 C 455.194 4.43688 -2.96609 0
M  V30 4935 O 455.417 5.30913 -2.08538 0
M  V30 4936 O 454.351 4.59475 -3.88802 0
M  V30 4937 H 458.177 1.5419 -2.61647 0
M  V30 4938 H 455.762 0.701163 -1.31924 0
M  V30 4939 H 457.644 3.83515 -1.74625 0
M  V30 4940 H 456.319 3.14401 -0.770312 0
M  V30 4941 H 455.226 2.31877 -2.93571 0
M  V30 4942 H 456.559 3.06621 -3.85026 0
M  V30 4943 N 458.211 1.37122 0.776871 0
M  V30 4944 C 459.141 1.35164 1.90402 0
M  V30 4945 C 460.122 0.221069 1.68657 0
M  V30 4946 O 461.307 0.420642 1.8959 0
M  V30 4947 C 458.437 1.15274 3.27611 0
M  V30 4948 C 457.391 2.25289 3.63908 0
M  V30 4949 C 456.717 1.90527 4.99603 0
M  V30 4950 C 458.017 3.67446 3.71188 0
M  V30 4951 H 459.711 2.29482 1.92297 0
M  V30 4952 H 457.257 1.10465 0.923773 0
M  V30 4953 H 459.21 1.12536 4.06096 0
M  V30 4954 H 457.934 0.174102 3.26136 0
M  V30 4955 H 456.593 2.27174 2.87728 0
M  V30 4956 H 456.241 0.91206 4.94662 0
M  V30 4957 H 455.941 2.64193 5.24858 0
M  V30 4958 H 457.465 1.89367 5.80493 0
M  V30 4959 H 458.879 3.67719 4.39836 0
M  V30 4960 H 457.276 4.40123 4.07936 0
M  V30 4961 H 458.346 4.01443 2.71977 0
M  V30 4962 N 459.689 -1.00246 1.21608 0
M  V30 4963 C 460.919 -1.77373 1.05935 0
M  V30 4964 C 461.327 -1.85059 -0.393686 0
M  V30 4965 O 460.67 -1.31289 -1.28487 0
M  V30 4966 C 460.732 -3.22705 1.58435 0
M  V30 4967 C 460.396 -3.38591 3.06929 0
M  V30 4968 C 461.393 -3.2667 4.04454 0
M  V30 4969 C 459.078 -3.6395 3.46187 0
M  V30 4970 C 461.072 -3.39877 5.39224 0
M  V30 4971 C 458.759 -3.768 4.81108 0
M  V30 4972 C 459.757 -3.6477 5.77436 0
M  V30 4973 O 459.445 -3.77206 7.09909 0
M  V30 4974 H 459.177 -0.56419 0.372378 0
M  V30 4975 H 461.731 -1.26971 1.61454 0
M  V30 4976 H 459.961 -3.74255 0.973147 0
M  V30 4977 H 461.65 -3.81515 1.38568 0
M  V30 4978 H 462.416 -3.06999 3.75468 0
M  V30 4979 H 458.295 -3.72395 2.71741 0
M  V30 4980 H 461.839 -3.30404 6.14393 0
M  V30 4981 H 457.736 -3.95975 5.09779 0
M  V30 4982 H 458.504 -3.94138 7.17355 0
M  V30 4983 N 461.167 -1.02423 -1.1978 0
M  V30 4984 C 462.097 -0.62157 -2.25075 0
M  V30 4985 C 463.078 0.367148 -1.6609 0
M  V30 4986 O 464.263 0.250892 -1.92573 0
M  V30 4987 C 461.393 0.0331826 -3.47284 0
M  V30 4988 C 460.347 -0.877323 -4.18912 0
M  V30 4989 C 459.673 -0.0879296 -5.34628 0
M  V30 4990 C 460.973 -2.18892 -4.74219 0
M  V30 4991 H 462.667 -1.50179 -2.59011 0
M  V30 4992 H 460.213 -0.723547 -1.24502 0
M  V30 4993 H 462.166 0.326488 -4.20133 0
M  V30 4994 H 460.89 0.948164 -3.12534 0
M  V30 4995 H 459.549 -1.15475 -3.47938 0
M  V30 4996 H 459.197 0.828941 -4.96123 0
M  V30 4997 H 458.897 -0.694359 -5.83483 0
M  V30 4998 H 460.421 0.198743 -6.10276 0
M  V30 4999 H 461.835 -1.95746 -5.38847 0
M  V30 5000 H 460.232 -2.74686 -5.33542 0
M  V30 5001 H 461.302 -2.84674 -3.92541 0
M  V30 5002 N 462.645 1.35699 -0.801477 0
M  V30 5003 C 464.056 1.81415 -0.441073 0
M  V30 5004 C 464.407 1.66595 1.03636 0
M  V30 5005 O 463.532 1.19369 1.80499 0
M  V30 5006 C 464.127 3.29369 -0.793819 0
M  V30 5007 C 462.686 3.73248 -0.486083 0
M  V30 5008 C 461.833 2.57775 -1.02213 0
M  V30 5009 H 464.784 1.23749 -0.993572 0
M  V30 5010 H 464.805 3.80395 -0.0894158 0
M  V30 5011 H 464.317 3.40123 -1.86917 0
M  V30 5012 H 462.418 3.68046 0.580735 0
M  V30 5013 H 462.531 4.68222 -1.01513 0
M  V30 5014 H 460.895 2.50788 -0.444712 0
M  V30 5015 H 461.678 2.71309 -2.10348 0
M  V30 5016 N 464.123 0.554532 1.47522 0
M  V30 5017 C 465.07 -0.19466 2.29978 0
M  V30 5018 C 466.04 -0.910882 1.38896 0
M  V30 5019 O 467.225 -0.907102 1.67858 0
M  V30 5020 C 464.365 -1.22035 3.22802 0
M  V30 5021 C 463.478 -0.510474 4.28973 0
M  V30 5022 C 462.613 -1.52123 5.08952 0
M  V30 5023 C 461.652 -0.796173 6.069 0
M  V30 5024 N 460.789 -1.75363 6.79847 0
M  V30 5025 H 465.629 0.51461 2.93523 0
M  V30 5026 H 463.166 0.265607 1.44682 0
M  V30 5027 H 465.124 -1.8276 3.7504 0
M  V30 5028 H 463.754 -1.89769 2.61127 0
M  V30 5029 H 462.806 0.211234 3.79813 0
M  V30 5030 H 464.118 0.0576503 4.98767 0
M  V30 5031 H 463.272 -2.20207 5.65326 0
M  V30 5032 H 462.011 -2.12327 4.39054 0
M  V30 5033 H 461.016 -0.101388 5.49707 0
M  V30 5034 H 462.241 -0.199911 6.78806 0
M  V30 5035 H 460.187 -2.3443 6.12682 0
M  V30 5036 H 460.104 -1.23759 7.45801 0
M  V30 5037 H 461.372 -2.4257 7.40797 0
M  V30 5038 N 465.601 -1.54893 0.290851 0
M  V30 5039 C 466.848 -1.99933 -0.321391 0
M  V30 5040 C 467.176 -1.17927 -1.54672 0
M  V30 5041 O 466.431 -0.240902 -1.94212 0
M  V30 5042 C 466.73 -3.49815 -0.732397 0
M  V30 5043 C 466.396 -4.4921 0.390056 0
M  V30 5044 C 465.058 -4.76107 0.698223 0
M  V30 5045 C 467.41 -5.08453 1.14562 0
M  V30 5046 C 464.738 -5.59514 1.76526 0
M  V30 5047 C 467.09 -5.9302 2.2025 0
M  V30 5048 C 465.754 -6.18232 2.51684 0
M  V30 5049 H 465.024 -0.731608 -0.117605 0
M  V30 5050 H 467.671 -1.87107 0.407839 0
M  V30 5051 H 465.976 -3.60199 -1.54155 0
M  V30 5052 H 467.673 -3.82083 -1.21712 0
M  V30 5053 H 464.263 -4.28372 0.13976 0
M  V30 5054 H 468.447 -4.87683 0.920801 0
M  V30 5055 H 463.703 -5.77289 2.01364 0
M  V30 5056 H 467.877 -6.37955 2.7926 0
M  V30 5057 H 465.504 -6.82653 3.34499 0
M  V30 5058 N 467.08 -0.0183926 -1.57589 0
M  V30 5059 C 468.305 0.676634 -1.96052 0
M  V30 5060 C 468.73 1.6548 -0.894307 0
M  V30 5061 O 468.088 1.80712 0.145849 0
M  V30 5062 C 468.136 1.36872 -3.33614 0
M  V30 5063 O 467.24 2.48372 -3.29219 0
M  V30 5064 H 466.581 0.1786 -0.63953 0
M  V30 5065 H 469.111 -0.077056 -2.04455 0
M  V30 5066 H 469.121 1.72797 -3.69601 0
M  V30 5067 H 467.796 0.651636 -4.10763 0
M  V30 5068 H 466.373 2.14639 -3.04934 0
M  V30 5069 N 468.558 1.5553 0.254621 0
M  V30 5070 C 469.807 1.76202 0.981612 0
M  V30 5071 C 470.12 0.580883 1.86776 0
M  V30 5072 O 471.326 0.670448 2.63092 0
M  V30 5073 C 469.782 3.11921 1.79537 0
M  V30 5074 C 469.39 4.37659 0.956991 0
M  V30 5075 C 471.134 3.41936 2.51555 0
M  V30 5076 C 469.041 5.64411 1.76619 0
M  V30 5077 H 467.971 0.656841 0.370237 0
M  V30 5078 H 470.622 1.81969 0.236556 0
M  V30 5079 H 469.004 3.00241 2.58208 0
M  V30 5080 H 470.178 4.60307 0.21315 0
M  V30 5081 H 468.493 4.14922 0.350497 0
M  V30 5082 H 471.09 4.33849 3.12536 0
M  V30 5083 H 471.433 2.62905 3.22779 0
M  V30 5084 H 471.966 3.54797 1.799 0
M  V30 5085 H 468.705 6.46241 1.09783 0
M  V30 5086 H 468.225 5.45877 2.48551 0
M  V30 5087 H 469.904 6.03386 2.33527 0
M  V30 5088 N 470.036 -0.519951 1.48776 0
M  V30 5089 C 471.261 -1.30447 1.6124 0
M  V30 5090 C 471.686 -1.86055 0.276591 0
M  V30 5091 O 471.044 -1.64915 -0.753183 0
M  V30 5092 C 471.092 -2.42406 2.66967 0
M  V30 5093 O 470.196 -3.45728 2.24824 0
M  V30 5094 H 469.537 -0.385924 0.540332 0
M  V30 5095 H 472.067 -0.624572 1.94834 0
M  V30 5096 H 472.077 -2.88447 2.88552 0
M  V30 5097 H 470.752 -2.01294 3.63941 0
M  V30 5098 H 469.329 -3.05737 2.13494 0
M  V30 5099 N 471.514 -1.37532 -0.769588 0
M  V30 5100 C 472.93 -1.18379 -1.07045 0
M  V30 5101 C 473.13 -0.0214312 -2.01489 0
M  V30 5102 O 472.186 0.637809 -2.44312 0
M  V30 5103 C 473.499 -2.50338 -1.66588 0
M  V30 5104 C 475.047 -2.56879 -1.78835 0
M  V30 5105 C 475.522 -3.88974 -2.41792 0
M  V30 5106 N 477.013 -3.90428 -2.4924 0
M  V30 5107 C 477.748 -4.89388 -2.98809 0
M  V30 5108 N 477.244 -5.98745 -3.48535 0
M  V30 5109 N 479.037 -4.76791 -2.97703 0
M  V30 5110 H 471.188 -2.11921 -0.142541 0
M  V30 5111 H 473.451 -0.939608 -0.125863 0
M  V30 5112 H 473.157 -3.35767 -1.0466 0
M  V30 5113 H 473.031 -2.67583 -2.65856 0
M  V30 5114 H 475.418 -1.71856 -2.39895 0
M  V30 5115 H 475.499 -2.43516 -0.783166 0
M  V30 5116 H 475.143 -4.74412 -1.81371 0
M  V30 5117 H 475.073 -3.99641 -3.4292 0
M  V30 5118 H 477.564 -3.11433 -2.14052 0
M  V30 5119 H 477.877 -6.70205 -3.84767 0
M  V30 5120 H 476.222 -6.02387 -3.46634 0
M  V30 5121 H 479.413 -3.90478 -2.58157 0
M  V30 5122 H 479.586 -5.54069 -3.36024 0
M  V30 5123 N 472.992 0.995999 -1.22138 0
M  V30 5124 C 474.269 1.70834 -0.952642 0
M  V30 5125 C 474.649 2.04257 0.533119 0
M  V30 5126 O 473.997 1.72343 1.50034 0
M  V30 5127 C 474.207 2.96119 -1.84701 0
M  V30 5128 C 475.555 3.68962 -2.10124 0
M  V30 5129 O 476.579 3.0612 -1.82124 0
M  V30 5130 O 475.438 4.82017 -2.57531 0
M  V30 5131 H 472.532 0.745498 -0.357997 0
M  V30 5132 H 475.078 1.05262 -1.33109 0
M  V30 5133 H 473.85 2.67898 -2.85213 0
M  V30 5134 H 473.473 3.6943 -1.46995 0
M  V30 5135 N 474.47 1.03057 1.19235 0
M  V30 5136 C 475.7 0.746613 1.92638 0
M  V30 5137 C 476.108 -0.698708 1.75826 0
M  V30 5138 O 475.451 -1.487 1.07861 0
M  V30 5139 C 475.513 1.02024 3.44719 0
M  V30 5140 C 475.177 2.45745 3.85303 0
M  V30 5141 C 476.174 3.43887 3.8992 0
M  V30 5142 C 473.859 2.8019 4.16892 0
M  V30 5143 C 475.853 4.74529 4.2556 0
M  V30 5144 C 473.54 4.1104 4.52205 0
M  V30 5145 C 474.538 5.0802 4.56513 0
M  V30 5146 O 474.226 6.36527 4.91008 0
M  V30 5147 H 473.958 0.272401 0.618687 0
M  V30 5148 H 476.512 1.37853 1.52269 0
M  V30 5149 H 474.742 0.331184 3.85279 0
M  V30 5150 H 476.431 0.725677 3.9936 0
M  V30 5151 H 477.197 3.18614 3.65664 0
M  V30 5152 H 473.076 2.05382 4.12722 0
M  V30 5153 H 476.62 5.50222 4.28838 0
M  V30 5154 H 472.517 4.36086 4.7592 0
M  V30 5155 H 473.285 6.41025 5.08949 0
M  V30 5156 N 475.948 -1.35272 0.808662 0
M  V30 5157 C 476.896 -2.31663 0.208606 0
M  V30 5158 C 477.89 -1.56731 -0.642778 0
M  V30 5159 O 479.096 -1.71843 -0.53571 0
M  V30 5160 H 475.471 -0.750421 0.0486993 0
M  V30 5161 H 477.442 -2.79814 1.03666 0
M  V30 5162 C 476.191 -3.42008 -0.626573 0
M  V30 5163 H 475.514 -3.99795 0.0192103 0
M  V30 5164 H 476.954 -4.11727 -1.01278 0
M  V30 5165 C 475.413 -2.85226 -1.79298 0
M  V30 5166 O 475.943 -2.78945 -2.89055 0
M  V30 5167 N 474.149 -2.42245 -1.60516 0
M  V30 5168 H 473.696 -2.47554 -0.712375 0
M  V30 5169 H 473.654 -2.04603 -2.38715 0
M  V30 5170 N 477.426 -0.562348 -1.47226 0
M  V30 5171 C 478.356 0.170627 -2.32876 0
M  V30 5172 C 479.337 0.903748 -1.44106 0
M  V30 5173 O 480.522 0.883206 -1.72954 0
M  V30 5174 C 477.652 1.19786 -3.25989 0
M  V30 5175 C 476.606 0.580875 -4.2404 0
M  V30 5176 C 475.932 1.71311 -5.06514 0
M  V30 5177 C 477.232 -0.468714 -5.20193 0
M  V30 5178 H 478.926 -0.544441 -2.94408 0
M  V30 5179 H 476.472 -0.263271 -1.41573 0
M  V30 5180 H 478.425 1.71884 -3.84752 0
M  V30 5181 H 477.149 1.94294 -2.62521 0
M  V30 5182 H 475.808 0.0811538 -3.6651 0
M  V30 5183 H 475.456 2.44736 -4.39447 0
M  V30 5184 H 475.156 1.30604 -5.72902 0
M  V30 5185 H 476.68 2.23725 -5.68137 0
M  V30 5186 H 478.094 -0.0336028 -5.7329 0
M  V30 5187 H 476.491 -0.794957 -5.94811 0
M  V30 5188 H 477.561 -1.36269 -4.65359 0
M  V30 5189 N 478.904 1.54736 -0.299062 0
M  V30 5190 C 479.852 2.24897 0.593658 0
M  V30 5191 C 480.846 1.25429 1.13859 0
M  V30 5192 O 482.052 1.43286 1.08945 0
M  V30 5193 H 478.427 0.72207 0.210046 0
M  V30 5194 H 480.398 2.98393 -0.0206421 0
M  V30 5195 C 479.147 3.00159 1.75499 0
M  V30 5196 H 478.47 3.76501 1.34489 0
M  V30 5197 H 479.91 3.52535 2.35574 0
M  V30 5198 C 478.369 2.07015 2.65794 0
M  V30 5199 O 478.899 1.63692 3.66835 0
M  V30 5200 N 477.105 1.73012 2.33485 0
M  V30 5201 H 476.652 2.08439 1.51364 0
M  V30 5202 H 476.61 1.10965 2.94167 0
M  V30 5203 N 480.382 0.0267497 1.57577 0
M  V30 5204 C 481.659 -0.690926 1.82991 0
M  V30 5205 C 482.039 -1.90471 0.910164 0
M  V30 5206 O 481.387 -2.28474 -0.0347985 0
M  V30 5207 C 481.597 -1.07139 3.32148 0
M  V30 5208 C 482.945 -1.46402 3.98562 0
M  V30 5209 O 483.969 -1.16443 3.36629 0
M  V30 5210 O 482.828 -2.02214 5.07712 0
M  V30 5211 H 479.922 -0.338747 0.75444 0
M  V30 5212 H 482.468 0.0542506 1.69613 0
M  V30 5213 H 481.24 -0.207394 3.9075 0
M  V30 5214 H 480.863 -1.87481 3.50623 0
M  V30 5215 N 481.861 -1.55662 -0.24637 0
M  V30 5216 C 483.11 -1.7672 -0.972254 0
M  V30 5217 C 483.423 -0.59078 -1.86465 0
M  V30 5218 O 484.629 -0.684391 -2.62732 0
M  V30 5219 C 483.085 -3.12869 -1.7788 0
M  V30 5220 C 482.693 -4.38161 -0.933768 0
M  V30 5221 C 484.437 -3.43265 -2.49738 0
M  V30 5222 C 482.344 -5.6534 -1.73623 0
M  V30 5223 H 481.274 -0.658795 -0.366749 0
M  V30 5224 H 483.925 -1.82092 -0.226902 0
M  V30 5225 H 482.307 -3.01606 -2.56612 0
M  V30 5226 H 483.481 -4.60413 -0.188736 0
M  V30 5227 H 481.796 -4.15102 -0.328488 0
M  V30 5228 H 484.393 -4.35501 -3.10231 0
M  V30 5229 H 484.736 -2.64614 -3.2138 0
M  V30 5230 H 485.269 -3.55746 -1.78016 0
M  V30 5231 H 482.008 -6.46814 -1.06354 0
M  V30 5232 H 481.528 -5.47188 -2.45653 0
M  V30 5233 H 483.207 -6.04616 -2.30323 0
M  V30 5234 N 483.339 0.512053 -1.4905 0
M  V30 5235 C 484.269 1.62365 -1.67809 0
M  V30 5236 C 485.25 1.61737 -0.526809 0
M  V30 5237 O 486.435 1.78651 -0.761404 0
M  V30 5238 C 483.565 3.00895 -1.73435 0
M  V30 5239 C 482.519 3.16387 -2.88242 0
M  V30 5240 C 481.845 4.56157 -2.78971 0
M  V30 5241 C 483.145 2.97457 -4.29321 0
M  V30 5242 H 484.839 1.46921 -2.60873 0
M  V30 5243 H 482.385 0.705379 -1.2554 0
M  V30 5244 H 484.338 3.78549 -1.85145 0
M  V30 5245 H 483.062 3.17403 -0.769619 0
M  V30 5246 H 481.721 2.41155 -2.76116 0
M  V30 5247 H 481.369 4.69525 -1.8043 0
M  V30 5248 H 481.069 4.67465 -3.5602 0
M  V30 5249 H 482.593 5.35886 -2.92675 0
M  V30 5250 H 484.007 3.64888 -4.42187 0
M  V30 5251 H 482.404 3.20245 -5.07507 0
M  V30 5252 H 483.474 1.93692 -4.44535 0
M  V30 5253 N 484.817 1.37938 0.762283 0
M  V30 5254 C 485.747 1.37176 1.88958 0
M  V30 5255 C 486.728 0.238945 1.68413 0
M  V30 5256 O 487.913 0.440726 1.89133 0
M  V30 5257 C 485.043 1.18742 3.2637 0
M  V30 5258 C 483.997 2.29136 3.61498 0
M  V30 5259 C 483.323 1.95816 4.97554 0
M  V30 5260 C 484.623 3.71363 3.6727 0
M  V30 5261 H 486.317 2.31509 1.89853 0
M  V30 5262 H 483.863 1.11438 0.912005 0
M  V30 5263 H 485.816 1.16837 4.04879 0
M  V30 5264 H 484.54 0.208683 3.25933 0
M  V30 5265 H 483.199 2.30213 2.85303 0
M  V30 5266 H 482.847 0.964475 4.93667 0
M  V30 5267 H 482.547 2.69745 5.22026 0
M  V30 5268 H 484.071 1.95513 5.78452 0
M  V30 5269 H 485.485 3.72364 4.35911 0
M  V30 5270 H 483.882 4.44425 4.03245 0
M  V30 5271 H 484.952 4.04305 2.67704 0
M  V30 5272 N 486.295 -0.989507 1.22664 0
M  V30 5273 C 487.227 -2.0824 0.957542 0
M  V30 5274 C 488.24 -1.6267 -0.0651098 0
M  V30 5275 O 489.429 -1.77695 0.169312 0
M  V30 5276 C 486.529 -3.36298 0.419145 0
M  V30 5277 C 485.702 -4.10882 1.49982 0
M  V30 5278 C 484.761 -5.17221 0.967904 0
M  V30 5279 O 483.787 -5.44613 1.65487 0
M  V30 5280 N 484.989 -5.80124 -0.20896 0
M  V30 5281 H 487.754 -2.31904 1.89843 0
M  V30 5282 H 485.315 -1.15552 1.13399 0
M  V30 5283 H 487.307 -4.04671 0.0485451 0
M  V30 5284 H 485.877 -3.09671 -0.426937 0
M  V30 5285 H 485.097 -3.37092 2.04359 0
M  V30 5286 H 486.385 -4.57482 2.22682 0
M  V30 5287 H 485.783 -5.60244 -0.783818 0
M  V30 5288 H 484.34 -6.49715 -0.520913 0
M  V30 5289 N 487.773 -1.03688 -1.18687 0
M  V30 5290 C 488.703 -0.645407 -2.24403 0
M  V30 5291 C 489.684 0.349511 -1.66471 0
M  V30 5292 O 490.869 0.230453 -1.92828 0
M  V30 5293 C 487.999 -0.00365337 -3.473 0
M  V30 5294 C 486.953 -0.921705 -4.17958 0
M  V30 5295 C 486.279 -0.144629 -5.34504 0
M  V30 5296 C 487.579 -2.23909 -4.71871 0
M  V30 5297 H 489.273 -1.52917 -2.57404 0
M  V30 5298 H 486.819 -0.736711 -1.23728 0
M  V30 5299 H 488.772 0.281908 -4.20456 0
M  V30 5300 H 487.496 0.914963 -3.13522 0
M  V30 5301 H 486.155 -1.19159 -3.46694 0
M  V30 5302 H 485.803 0.776274 -4.96974 0
M  V30 5303 H 485.503 -0.756206 -5.82714 0
M  V30 5304 H 487.027 0.134004 -6.10453 0
M  V30 5305 H 488.441 -2.0145 -5.36741 0
M  V30 5306 H 486.838 -2.8033 -5.30599 0
M  V30 5307 H 487.908 -2.88822 -3.895 0
M  V30 5308 N 489.251 1.34841 -0.815825 0
M  V30 5309 C 490.499 1.98107 -0.399744 0
M  V30 5310 C 490.82 1.65019 1.03894 0
M  V30 5311 O 490.09 0.937311 1.72021 0
M  V30 5312 H 488.67 0.732827 -0.144823 0
M  V30 5313 H 491.332 1.64599 -1.0437 0
M  V30 5314 H 490.428 3.07856 -0.512965 0
M  V30 5315 N 490.729 0.570148 1.46925 0
M  V30 5316 C 491.978 0.0487352 2.01641 0
M  V30 5317 C 492.291 -1.31433 1.44861 0
M  V30 5318 O 493.497 -1.92638 1.91318 0
M  V30 5319 C 491.953 0.0365817 3.59881 0
M  V30 5320 C 491.561 1.39719 4.25655 0
M  V30 5321 C 493.305 -0.431545 4.22301 0
M  V30 5322 C 491.212 1.34345 5.75939 0
M  V30 5323 H 490.142 0.0144492 0.753862 0
M  V30 5324 H 492.793 0.719928 1.68788 0
M  V30 5325 H 491.175 -0.700522 3.89755 0
M  V30 5326 H 492.349 2.15303 4.07408 0
M  V30 5327 H 490.664 1.80431 3.75278 0
M  V30 5328 H 493.261 -0.490354 5.32447 0
M  V30 5329 H 493.604 -1.44638 3.90366 0
M  V30 5330 H 494.137 0.251102 3.97007 0
M  V30 5331 H 490.876 2.33469 6.12513 0
M  V30 5332 H 490.396 0.629615 5.96486 0
M  V30 5333 H 492.075 1.051 6.38407 0
M  V30 5334 N 492.207 -1.54576 0.307264 0
M  V30 5335 C 493.117 -2.27435 -0.57536 0
M  V30 5336 C 494.133 -1.31183 -1.14311 0
M  V30 5337 O 495.309 -1.64175 -1.16656 0
M  V30 5338 C 492.374 -3.00566 -1.72803 0
M  V30 5339 C 491.435 -4.12369 -1.19373 0
M  V30 5340 C 490.668 -4.82003 -2.29147 0
M  V30 5341 O 490.891 -4.51038 -3.49171 0
M  V30 5342 O 489.825 -5.69271 -1.95485 0
M  V30 5343 H 493.651 -3.03696 0.0158558 0
M  V30 5344 H 491.236 -1.49219 0.0735064 0
M  V30 5345 H 493.118 -3.46416 -2.39946 0
M  V30 5346 H 491.793 -2.27195 -2.30574 0
M  V30 5347 H 490.7 -3.70905 -0.487851 0
M  V30 5348 H 492.033 -4.87736 -0.661376 0
M  V30 5349 N 493.685 -0.035106 -1.57561 0
M  V30 5350 C 494.595 0.960295 -2.14046 0
M  V30 5351 C 495.611 1.3529 -1.0942 0
M  V30 5352 O 496.787 1.43309 -1.41508 0
M  V30 5353 C 493.852 2.22214 -2.66124 0
M  V30 5354 C 492.913 1.8894 -3.85487 0
M  V30 5355 C 492.146 3.09109 -4.35072 0
M  V30 5356 O 492.369 4.21963 -3.83802 0
M  V30 5357 O 491.303 2.91058 -5.26848 0
M  V30 5358 H 495.129 0.509983 -2.99387 0
M  V30 5359 H 492.714 0.185853 -1.48239 0
M  V30 5360 H 494.596 2.96279 -2.99661 0
M  V30 5361 H 493.271 2.66414 -1.83862 0
M  V30 5362 H 492.178 1.12241 -3.56865 0
M  V30 5363 H 493.511 1.49551 -4.6893 0
M  V30 5364 N 495.163 1.55791 0.238111 0
M  V30 5365 C 496.126 1.90239 1.27835 0
M  V30 5366 C 497.126 0.779552 1.4064 0
M  V30 5367 O 498.316 1.04747 1.3919 0
M  V30 5368 C 495.448 2.13859 2.65475 0
M  V30 5369 H 496.641 2.83262 0.985034 0
M  V30 5370 H 494.194 1.48818 0.477799 0
M  V30 5371 H 494.929 1.23334 2.99932 0
M  V30 5372 H 494.714 2.95643 2.57561 0
M  V30 5373 H 496.204 2.41664 3.40571 0
M  V30 5374 N 496.642 -0.504142 1.49319 0
M  V30 5375 C 497.889 -1.25846 1.58647 0
M  V30 5376 C 498.217 -1.92592 0.27177 0
M  V30 5377 O 497.472 -1.81167 -0.74007 0
M  V30 5378 C 497.771 -2.35021 2.69258 0
M  V30 5379 C 497.437 -1.85755 4.1086 0
M  V30 5380 C 496.099 -1.72038 4.49395 0
M  V30 5381 C 498.451 -1.48844 4.99495 0
M  V30 5382 C 495.779 -1.19783 5.74342 0
M  V30 5383 C 498.131 -0.980422 6.24956 0
M  V30 5384 C 496.795 -0.829622 6.62324 0
M  V30 5385 H 496.065 -0.460505 0.580531 0
M  V30 5386 H 498.712 -0.559716 1.83138 0
M  V30 5387 H 497.017 -3.10672 2.38726 0
M  V30 5388 H 498.714 -2.93083 2.73685 0
M  V30 5389 H 495.304 -1.9739 3.80441 0
M  V30 5390 H 499.488 -1.5829 4.70381 0
M  V30 5391 H 494.744 -1.06817 6.01997 0
M  V30 5392 H 498.918 -0.685608 6.93017 0
M  V30 5393 H 496.545 -0.42253 7.59025 0
M  V30 5394 N 498.12 -1.38341 -0.754957 0
M  V30 5395 C 499.348 -1.37704 -1.54419 0
M  V30 5396 C 499.763 0.0335243 -1.8877 0
M  V30 5397 O 499.12 0.999773 -1.52679 0
M  V30 5398 C 499.171 -2.23136 -2.84416 0
M  V30 5399 O 498.892 -3.58697 -2.51531 0
M  V30 5400 C 500.393 -2.30664 -3.78562 0
M  V30 5401 H 497.613 -0.471061 -0.477852 0
M  V30 5402 H 500.157 -1.81902 -0.934446 0
M  V30 5403 H 498.312 -1.82403 -3.41772 0
M  V30 5404 H 498.726 -4.03665 -3.34896 0
M  V30 5405 H 500.2 -2.9473 -4.66732 0
M  V30 5406 H 500.677 -1.3199 -4.18898 0
M  V30 5407 H 501.283 -2.71781 -3.27131 0
M  V30 5408 N 499.598 0.982988 -1.23187 0
M  V30 5409 C 500.823 1.76455 -1.08988 0
M  V30 5410 C 501.248 1.84726 0.354691 0
M  V30 5411 O 500.606 1.30699 1.25649 0
M  V30 5412 C 500.654 3.17094 -1.71708 0
M  V30 5413 O 499.758 4.00648 -0.977477 0
M  V30 5414 H 499.099 0.542988 -0.382177 0
M  V30 5415 H 501.629 1.23413 -1.63188 0
M  V30 5416 H 501.639 3.67684 -1.76841 0
M  V30 5417 H 500.314 3.10389 -2.76823 0
M  V30 5418 H 498.891 3.59161 -1.0029 0
M  V30 5419 N 501.076 1.04316 1.18135 0
M  V30 5420 C 502.023 0.636398 2.21853 0
M  V30 5421 C 502.993 -0.357039 1.62217 0
M  V30 5422 O 504.178 -0.250453 1.89149 0
M  V30 5423 C 501.318 0.00812779 3.45099 0
M  V30 5424 C 500.431 1.04933 4.19062 0
M  V30 5425 C 499.566 0.389313 5.29771 0
M  V30 5426 C 498.605 1.41544 5.9551 0
M  V30 5427 N 497.742 0.78021 6.97751 0
M  V30 5428 H 502.582 1.52536 2.56002 0
M  V30 5429 H 500.119 0.76304 1.25762 0
M  V30 5430 H 502.077 -0.373497 4.15525 0
M  V30 5431 H 500.707 -0.844336 3.11562 0
M  V30 5432 H 499.759 1.54888 3.47439 0
M  V30 5433 H 501.071 1.82862 4.64072 0
M  V30 5434 H 500.225 -0.0463805 6.06682 0
M  V30 5435 H 498.964 -0.422038 4.8587 0
M  V30 5436 H 497.969 1.86124 5.17337 0
M  V30 5437 H 499.194 2.22854 6.41493 0
M  V30 5438 H 497.14 -0.0107899 6.55999 0
M  V30 5439 H 497.057 1.49716 7.41027 0
M  V30 5440 H 498.325 0.368996 7.78626 0
M  V30 5441 N 502.554 -1.34406 0.822964 0
M  V30 5442 C 503.517 -2.2783 0.250271 0
M  V30 5443 C 504.517 -1.50288 -0.571854 0
M  V30 5444 O 505.707 -1.69825 -0.387952 0
M  V30 5445 C 502.839 -3.34663 -0.649137 0
M  V30 5446 H 504.032 -2.79992 1.07444 0
M  V30 5447 H 501.585 -1.44539 0.594829 0
M  V30 5448 H 502.32 -2.87714 -1.49637 0
M  V30 5449 H 502.105 -3.92052 -0.0611199 0
M  V30 5450 H 503.595 -4.04349 -1.04363 0
M  V30 5451 N 504.032 -0.577932 -1.46621 0
M  V30 5452 C 505.309 0.00495287 -1.95599 0
M  V30 5453 C 505.689 1.46428 -1.5206 0
M  V30 5454 O 505.037 2.1517 -0.769046 0
M  V30 5455 C 505.247 -0.162114 -3.48623 0
M  V30 5456 C 506.595 -0.0274623 -4.24591 0
M  V30 5457 O 507.619 -0.0907067 -3.56084 0
M  V30 5458 O 506.478 0.1122 -5.46385 0
M  V30 5459 H 503.572 0.0525057 -0.825332 0
M  V30 5460 H 506.118 -0.645914 -1.56927 0
M  V30 5461 H 504.89 -1.17679 -3.73185 0
M  V30 5462 H 504.513 0.525407 -3.94113 0
M  V30 5463 N 505.51 1.54411 -0.315457 0
M  V30 5464 C 506.44 2.27002 0.547039 0
M  V30 5465 C 507.421 1.27492 1.12605 0
M  V30 5466 O 508.606 1.5629 1.15269 0
M  V30 5467 C 505.736 3.02171 1.71201 0
M  V30 5468 C 504.69 4.0895 1.26268 0
M  V30 5469 C 504.016 4.71915 2.51396 0
M  V30 5470 C 505.316 5.20891 0.383419 0
M  V30 5471 H 507.01 2.99343 -0.0584517 0
M  V30 5472 H 504.556 1.4397 -0.0295527 0
M  V30 5473 H 506.509 3.51681 2.32161 0
M  V30 5474 H 505.233 2.27433 2.34397 0
M  V30 5475 H 503.892 3.60312 0.676062 0
M  V30 5476 H 503.54 3.93801 3.12937 0
M  V30 5477 H 503.24 5.44039 2.22026 0
M  V30 5478 H 504.764 5.24195 3.13133 0
M  V30 5479 H 506.178 5.66206 0.899082 0
M  V30 5480 H 504.575 5.99821 0.182857 0
M  V30 5481 H 505.645 4.81324 -0.587821 0
M  V30 5482 N 506.988 0.0434614 1.5754 0
M  V30 5483 C 508.213 -0.645358 1.97104 0
M  V30 5484 C 508.638 -1.64037 0.920521 0
M  V30 5485 O 507.996 -1.80922 -0.11708 0
M  V30 5486 C 508.044 -1.31547 3.35749 0
M  V30 5487 O 507.148 -2.43103 3.33129 0
M  V30 5488 H 506.489 -0.168403 0.64229 0
M  V30 5489 H 509.019 0.109573 2.04306 0
M  V30 5490 H 509.029 -1.66895 3.72304 0
M  V30 5491 H 507.704 -0.586205 4.11748 0
M  V30 5492 H 506.281 -2.0976 3.0831 0
M  V30 5493 N 508.466 -1.55915 -0.229846 0
M  V30 5494 C 509.714 -1.7819 -0.953565 0
M  V30 5495 C 510.035 -0.610504 -1.85197 0
M  V30 5496 O 509.305 0.372988 -1.92316 0
M  V30 5497 H 507.885 -0.657208 -0.355087 0
M  V30 5498 H 510.547 -1.9337 -0.243693 0
M  V30 5499 H 509.643 -2.70011 -1.56527 0
M  V30 5500 N 509.944 0.496216 -1.49584 0
M  V30 5501 C 511.193 1.24668 -1.58558 0
M  V30 5502 C 511.506 1.9359 -0.279703 0
M  V30 5503 O 512.712 2.70365 -0.248048 0
M  V30 5504 C 511.168 2.26388 -2.79779 0
M  V30 5505 C 510.776 1.63384 -4.17145 0
M  V30 5506 C 512.52 3.02233 -2.98086 0
M  V30 5507 C 510.427 2.63243 -5.29582 0
M  V30 5508 H 509.357 0.468995 -0.590389 0
M  V30 5509 H 512.008 0.519985 -1.75978 0
M  V30 5510 H 510.39 3.02241 -2.55863 0
M  V30 5511 H 511.564 0.93491 -4.51216 0
M  V30 5512 H 509.879 0.999121 -4.04236 0
M  V30 5513 H 512.476 3.76919 -3.79257 0
M  V30 5514 H 512.819 3.60132 -2.08831 0
M  V30 5515 H 513.352 2.33495 -3.22063 0
M  V30 5516 H 510.091 2.10119 -6.20911 0
M  V30 5517 H 509.611 3.31363 -4.99959 0
M  V30 5518 H 511.29 3.25575 -5.59115 0
M  V30 5519 N 511.423 1.38739 0.74761 0
M  V30 5520 C 512.651 1.38521 1.53686 0
M  V30 5521 C 513.066 -0.0235129 1.88785 0
M  V30 5522 O 512.423 -0.991662 1.53207 0
M  V30 5523 C 512.474 2.24641 2.83229 0
M  V30 5524 O 512.195 3.60026 2.49625 0
M  V30 5525 C 513.696 2.32669 3.77333 0
M  V30 5526 H 510.916 0.473589 0.475347 0
M  V30 5527 H 513.46 1.82395 0.924786 0
M  V30 5528 H 511.615 1.84213 3.40799 0
M  V30 5529 H 512.029 4.05435 3.3275 0
M  V30 5530 H 513.503 2.97201 4.65162 0
M  V30 5531 H 513.98 1.3421 4.18192 0
M  V30 5532 H 514.586 2.73512 3.25685 0
M  V30 5533 N 512.901 -0.976442 1.23707 0
M  V30 5534 C 514.149 -1.71487 1.06942 0
M  V30 5535 C 514.47 -1.9098 -0.393897 0
M  V30 5536 O 513.74 -1.48128 -1.28198 0
M  V30 5537 H 512.32 -0.635425 0.392739 0
M  V30 5538 H 514.982 -1.17515 1.55487 0
M  V30 5539 H 514.078 -2.70286 1.56051 0
M  V30 5540 N 514.379 -1.04941 -1.1758 0
M  V30 5541 C 515.342 -0.652456 -2.19717 0
M  V30 5542 C 516.342 0.294745 -1.58076 0
M  V30 5543 O 517.532 0.0789579 -1.74021 0
M  V30 5544 C 514.664 0.0420712 -3.40874 0
M  V30 5545 H 515.857 -1.55642 -2.5635 0
M  V30 5546 H 513.41 -0.842995 -1.31618 0
M  V30 5547 H 514.145 0.95943 -3.09783 0
M  V30 5548 H 513.93 -0.638844 -3.86861 0
M  V30 5549 H 515.42 0.306 -4.16477 0
M  V30 5550 N 515.857 1.33968 -0.830081 0
M  V30 5551 C 517.273 1.51003 -0.516742 0
M  V30 5552 C 517.473 1.77286 0.957694 0
M  V30 5553 O 516.529 1.82797 1.74188 0
M  V30 5554 C 517.842 2.67036 -1.38247 0
M  V30 5555 C 519.39 2.80919 -1.38034 0
M  V30 5556 C 519.865 4.00004 -2.23071 0
M  V30 5557 N 521.356 4.07224 -2.20733 0
M  V30 5558 C 522.091 4.98541 -2.83275 0
M  V30 5559 N 521.587 5.95033 -3.54835 0
M  V30 5560 N 523.38 4.91469 -2.72791 0
M  V30 5561 H 515.531 1.15168 -1.78466 0
M  V30 5562 H 517.794 0.565443 -0.760906 0
M  V30 5563 H 517.5 2.54266 -2.42985 0
M  V30 5564 H 517.374 3.62226 -1.05225 0
M  V30 5565 H 519.761 2.93127 -0.340713 0
M  V30 5566 H 519.842 1.86517 -1.75057 0
M  V30 5567 H 519.486 3.88557 -3.27087 0
M  V30 5568 H 519.416 4.93634 -1.83394 0
M  V30 5569 H 521.907 3.38162 -1.68687 0
M  V30 5570 H 522.22 6.61357 -3.99784 0
M  V30 5571 H 520.565 5.95135 -3.58942 0
M  V30 5572 H 523.756 4.15048 -2.16456 0
M  V30 5573 H 523.929 5.62439 -3.21818 0
M  V30 5574 N 517.335 0.585699 1.46312 0
M  V30 5575 C 518.283 -0.158577 2.32059 0
M  V30 5576 C 519.277 -0.881427 1.44662 0
M  V30 5577 O 520.483 -0.799476 1.61271 0
M  V30 5578 H 516.858 -0.0700066 0.748734 0
M  V30 5579 H 518.829 0.583383 2.92642 0
M  V30 5580 C 517.578 -1.15701 3.27885 0
M  V30 5581 H 516.901 -0.610215 3.95116 0
M  V30 5582 H 518.341 -1.64812 3.90657 0
M  V30 5583 C 516.8 -2.21951 2.53455 0
M  V30 5584 O 517.33 -3.29352 2.29978 0
M  V30 5585 N 515.536 -1.9664 2.13965 0
M  V30 5586 H 515.083 -1.09309 2.33258 0
M  V30 5587 H 515.041 -2.6794 1.64485 0
M  V30 5588 N 518.813 -1.54241 0.323641 0
M  V30 5589 C 519.743 -2.27289 -0.534993 0
M  V30 5590 C 520.724 -1.28087 -1.11927 0
M  V30 5591 O 521.909 -1.56899 -1.14439 0
M  V30 5592 C 519.039 -3.03075 -1.69596 0
M  V30 5593 C 517.993 -4.09614 -1.24098 0
M  V30 5594 C 517.319 -4.73242 -2.4889 0
M  V30 5595 C 518.619 -5.21087 -0.355789 0
M  V30 5596 H 520.313 -2.99308 0.0743257 0
M  V30 5597 H 517.859 -1.43952 0.0371874 0
M  V30 5598 H 519.812 -3.52907 -2.30293 0
M  V30 5599 H 518.536 -2.28673 -2.33187 0
M  V30 5600 H 517.195 -3.60666 -0.656945 0
M  V30 5601 H 516.843 -3.95455 -3.10845 0
M  V30 5602 H 516.543 -5.45209 -2.19138 0
M  V30 5603 H 518.067 -5.25848 -3.10348 0
M  V30 5604 H 519.481 -5.66675 -0.869042 0
M  V30 5605 H 517.878 -5.9991 -0.151045 0
M  V30 5606 H 518.948 -4.81005 0.613339 0
M  V30 5607 N 520.291 -0.0518155 -1.57515 0
M  V30 5608 C 521.254 0.907547 -2.10467 0
M  V30 5609 C 522.254 1.23947 -1.02439 0
M  V30 5610 O 523.444 1.17604 -1.2851 0
M  V30 5611 C 520.576 2.21723 -2.58944 0
M  V30 5612 H 521.769 0.44851 -2.96527 0
M  V30 5613 H 519.322 0.196598 -1.55059 0
M  V30 5614 H 520.057 2.72206 -1.76279 0
M  V30 5615 H 519.842 1.98935 -3.37886 0
M  V30 5616 H 521.332 2.90441 -3.00056 0
M  V30 5617 N 521.769 1.56035 0.221574 0
M  V30 5618 C 523.015 1.79312 0.947372 0
M  V30 5619 C 523.348 0.621453 1.83988 0
M  V30 5620 O 522.623 -0.379287 1.90766 0
M  V30 5621 C 522.906 3.1267 1.78633 0
M  V30 5622 C 522.759 4.40284 0.920312 0
M  V30 5623 C 524.078 3.4247 2.7641 0
M  V30 5624 H 521.197 0.652328 0.342982 0
M  V30 5625 H 523.839 1.88765 0.216244 0
M  V30 5626 H 521.989 3.04741 2.40967 0
M  V30 5627 H 523.661 4.60232 0.313718 0
M  V30 5628 H 521.904 4.33212 0.225734 0
M  V30 5629 H 522.575 5.30033 1.54171 0
M  V30 5630 H 525.051 3.50526 2.24211 0
M  V30 5631 H 523.927 4.3695 3.32213 0
M  V30 5632 H 524.188 2.64635 3.54148 0
M  V30 5633 N 523.247 -0.488276 1.49845 0
M  V30 5634 C 524.472 -1.26997 1.63971 0
M  V30 5635 C 524.897 -1.85427 0.315994 0
M  V30 5636 O 524.255 -1.66475 -0.718032 0
M  V30 5637 C 524.303 -2.36689 2.72049 0
M  V30 5638 O 523.407 -3.40882 2.32107 0
M  V30 5639 H 522.748 -0.374376 0.548396 0
M  V30 5640 H 525.278 -0.583104 1.96115 0
M  V30 5641 H 525.288 -2.82262 2.94605 0
M  V30 5642 H 523.963 -1.93529 3.68129 0
M  V30 5643 H 522.54 -3.01139 2.19931 0
M  V30 5644 N 524.725 -1.39134 -0.740242 0
M  V30 5645 C 525.657 -1.33332 -1.86428 0
M  V30 5646 C 526.67 -0.243042 -1.60976 0
M  V30 5647 O 527.859 -0.501608 -1.71307 0
M  V30 5648 C 524.959 -1.04626 -3.22346 0
M  V30 5649 C 524.132 -2.24826 -3.75196 0
M  V30 5650 C 523.191 -1.92659 -4.89662 0
M  V30 5651 O 522.217 -2.6529 -5.03597 0
M  V30 5652 N 523.419 -0.889575 -5.73643 0
M  V30 5653 H 526.184 -2.30196 -1.91911 0
M  V30 5654 H 523.745 -1.33168 -0.920756 0
M  V30 5655 H 525.737 -0.811347 -3.96484 0
M  V30 5656 H 524.307 -0.165129 -3.12164 0
M  V30 5657 H 523.527 -2.64301 -2.9247 0
M  V30 5658 H 524.815 -3.05015 -4.07239 0
M  V30 5659 H 524.213 -0.287529 -5.64969 0
M  V30 5660 H 522.77 -0.714557 -6.47871 0
M  V30 5661 N 526.204 0.969867 -1.24223 0
M  V30 5662 C 527.45 1.7151 -1.08223 0
M  V30 5663 C 527.783 1.90478 0.37838 0
M  V30 5664 O 527.058 1.4647 1.27971 0
M  V30 5665 C 527.341 3.10714 -1.82013 0
M  V30 5666 C 527.194 2.9925 -3.35811 0
M  V30 5667 C 528.513 4.10332 -1.59108 0
M  V30 5668 H 525.632 0.622499 -0.394543 0
M  V30 5669 H 528.274 1.1284 -1.52863 0
M  V30 5670 H 526.424 3.608 -1.44068 0
M  V30 5671 H 528.096 2.56608 -3.83341 0
M  V30 5672 H 526.339 2.35512 -3.64303 0
M  V30 5673 H 527.01 3.97857 -3.82641 0
M  V30 5674 H 529.486 3.69097 -1.92111 0
M  V30 5675 H 528.362 5.05804 -2.13198 0
M  V30 5676 H 528.623 4.38926 -0.528832 0
M  V30 5677 N 527.682 1.05563 1.17022 0
M  V30 5678 C 528.928 0.769074 1.87652 0
M  V30 5679 C 529.261 -0.702326 1.81055 0
M  V30 5680 O 528.536 -1.5139 1.22112 0
M  V30 5681 C 528.819 1.25492 3.37526 0
M  V30 5682 C 528.672 2.78953 3.52853 0
M  V30 5683 C 529.991 0.856919 4.31677 0
M  V30 5684 H 527.11 0.280854 0.681388 0
M  V30 5685 H 529.752 1.31027 1.37593 0
M  V30 5686 H 527.902 0.794516 3.80289 0
M  V30 5687 H 529.574 3.33146 3.19079 0
M  V30 5688 H 527.817 3.18046 2.95007 0
M  V30 5689 H 528.488 3.08011 4.58076 0
M  V30 5690 H 530.964 1.25334 3.96775 0
M  V30 5691 H 529.84 1.22443 5.35069 0
M  V30 5692 H 530.101 -0.238787 4.41455 0
M  V30 5693 N 529.16 -1.33526 0.837174 0
M  V30 5694 C 530.11 -2.2672 0.241269 0
M  V30 5695 C 531.094 -1.49183 -0.602756 0
M  V30 5696 O 532.286 -1.71052 -0.455002 0
M  V30 5697 C 529.415 -3.38294 -0.584125 0
M  V30 5698 C 528.501 -4.23231 0.271315 0
M  V30 5699 N 528.892 -4.87473 1.34922 0
M  V30 5700 C 527.19 -4.45962 0.0580589 0
M  V30 5701 C 527.891 -5.50685 1.87405 0
M  V30 5702 N 526.867 -5.30732 1.17578 0
M  V30 5703 H 530.669 -2.73903 1.06558 0
M  V30 5704 H 528.183 -1.47411 0.68145 0
M  V30 5705 H 530.18 -4.04044 -1.02731 0
M  V30 5706 H 528.84 -2.9266 -1.40643 0
M  V30 5707 H 529.851 -4.88077 1.7321 0
M  V30 5708 H 526.528 -4.11052 -0.730938 0
M  V30 5709 H 527.918 -6.11845 2.77661 0
M  V30 5710 N 530.638 -0.59345 -1.46 0
M  V30 5711 C 531.585 0.133618 -2.30413 0
M  V30 5712 C 532.555 0.873736 -1.41262 0
M  V30 5713 O 533.74 0.862279 -1.70204 0
M  V30 5714 C 530.88 1.13434 -3.25924 0
M  V30 5715 C 529.993 0.39656 -4.30176 0
M  V30 5716 C 529.128 1.38575 -5.12806 0
M  V30 5717 C 528.167 0.634984 -6.08797 0
M  V30 5718 N 527.304 1.57276 -6.84258 0
M  V30 5719 H 532.144 -0.592252 -2.92055 0
M  V30 5720 H 529.681 -0.303874 -1.43927 0
M  V30 5721 H 531.639 1.72752 -3.79753 0
M  V30 5722 H 530.269 1.82779 -2.66067 0
M  V30 5723 H 529.321 -0.311861 -3.79119 0
M  V30 5724 H 530.633 -0.189869 -4.98438 0
M  V30 5725 H 529.787 2.05141 -5.70966 0
M  V30 5726 H 528.526 2.00611 -4.44529 0
M  V30 5727 H 527.531 -0.0443925 -5.49782 0
M  V30 5728 H 528.756 0.0198678 -6.79097 0
M  V30 5729 H 526.702 2.18103 -6.18682 0
M  V30 5730 H 526.619 1.03941 -7.48821 0
M  V30 5731 H 527.887 2.22844 -7.46968 0
M  V30 5732 N 532.116 1.54067 -0.331816 0
M  V30 5733 C 533.079 2.23275 0.517768 0
M  V30 5734 C 534.079 1.22897 1.03697 0
M  V30 5735 O 535.269 1.47419 0.928084 0
M  V30 5736 C 532.401 2.94326 1.72004 0
M  V30 5737 H 533.594 2.99773 -0.0873507 0
M  V30 5738 H 531.147 1.56079 -0.0830042 0
M  V30 5739 H 531.882 2.21986 2.36417 0
M  V30 5740 H 531.667 3.67941 1.35507 0
M  V30 5741 H 533.157 3.47031 2.32291 0
M  V30 5742 N 533.594 0.0601682 1.57485 0
M  V30 5743 C 534.84 -0.612501 1.93329 0
M  V30 5744 C 535.173 -1.6996 0.939526 0
M  V30 5745 O 534.448 -1.94472 -0.0330957 0
M  V30 5746 C 534.731 -1.20025 3.39508 0
M  V30 5747 C 534.584 -0.12059 4.49638 0
M  V30 5748 C 535.903 -2.10923 3.86264 0
M  V30 5749 H 533.022 -0.221185 0.703027 0
M  V30 5750 H 535.664 0.123768 1.89596 0
M  V30 5751 H 533.814 -1.82774 3.42821 0
M  V30 5752 H 535.486 0.51185 4.58452 0
M  V30 5753 H 533.729 0.550251 4.30296 0
M  V30 5754 H 534.4 -0.572019 5.49028 0
M  V30 5755 H 536.876 -1.58124 3.84884 0
M  V30 5756 H 535.752 -2.48987 4.8918 0
M  V30 5757 H 536.013 -3.01292 3.23536 0
M  V30 5758 N 535.072 -1.5615 -0.213296 0
M  V30 5759 C 536.002 -1.96109 -1.26742 0
M  V30 5760 C 536.983 -0.830448 -1.48451 0
M  V30 5761 O 538.168 -1.09339 -1.60495 0
M  V30 5762 C 535.298 -2.28492 -2.61551 0
M  V30 5763 C 534.252 -3.44124 -2.54485 0
M  V30 5764 C 533.578 -3.62134 -3.93399 0
M  V30 5765 C 534.878 -4.78855 -2.08556 0
M  V30 5766 H 536.572 -2.84412 -0.935434 0
M  V30 5767 H 534.118 -1.36836 -0.44854 0
M  V30 5768 H 536.071 -2.55039 -3.3546 0
M  V30 5769 H 534.795 -1.37052 -2.96453 0
M  V30 5770 H 533.454 -3.17639 -1.83033 0
M  V30 5771 H 533.102 -2.68055 -4.25623 0
M  V30 5772 H 532.802 -4.39913 -3.89551 0
M  V30 5773 H 534.326 -3.91038 -4.68958 0
M  V30 5774 H 535.74 -5.04552 -2.72213 0
M  V30 5775 H 534.137 -5.59975 -2.1575 0
M  V30 5776 H 535.207 -4.73657 -1.03811 0
M  V30 5777 N 536.55 0.480323 -1.50102 0
M  V30 5778 C 537.827 1.24159 -1.51142 0
M  V30 5779 C 538.207 2.09605 -0.250818 0
M  V30 5780 O 537.555 2.15274 0.766118 0
M  V30 5781 C 537.765 2.08057 -2.80202 0
M  V30 5782 C 539.113 2.66556 -3.30504 0
M  V30 5783 O 540.137 2.18308 -2.81461 0
M  V30 5784 O 538.996 3.54442 -4.15973 0
M  V30 5785 H 536.09 0.562928 -0.605839 0
M  V30 5786 H 538.636 0.492899 -1.62384 0
M  V30 5787 H 537.408 1.45032 -3.6343 0
M  V30 5788 H 537.031 2.90079 -2.71919 0
M  V30 5789 N 538.028 1.39524 0.732853 0
M  V30 5790 C 539.274 1.37068 1.49467 0
M  V30 5791 C 539.607 -0.0327166 1.94172 0
M  V30 5792 O 538.882 -0.998071 1.66939 0
M  V30 5793 C 539.165 2.34494 2.73285 0
M  V30 5794 C 539.018 3.83784 2.34585 0
M  V30 5795 C 540.337 2.29717 3.75391 0
M  V30 5796 H 537.456 0.499206 0.542183 0
M  V30 5797 H 540.098 1.70532 0.837783 0
M  V30 5798 H 538.248 2.06087 3.29333 0
M  V30 5799 H 539.92 4.22949 1.84151 0
M  V30 5800 H 538.163 4.00455 1.66787 0
M  V30 5801 H 538.834 4.47444 3.23262 0
M  V30 5802 H 541.31 2.54839 3.28932 0
M  V30 5803 H 540.186 2.99962 4.59689 0
M  V30 5804 H 540.447 1.30291 4.22465 0
M  V30 5805 N 539.506 -0.963266 1.24736 0
M  V30 5806 C 540.753 -1.7068 1.0897 0
M  V30 5807 C 541.081 -1.90934 -0.370751 0
M  V30 5808 O 540.336 -1.47155 -1.29011 0
M  V30 5809 C 540.635 -3.09944 1.7796 0
M  V30 5810 C 540.301 -3.09518 3.27887 0
M  V30 5811 C 538.963 -3.09109 3.68789 0
M  V30 5812 C 541.315 -3.03509 4.23712 0
M  V30 5813 C 538.643 -3.00429 5.03944 0
M  V30 5814 C 540.995 -2.96371 5.5888 0
M  V30 5815 C 539.659 -2.94293 5.99123 0
M  V30 5816 H 538.929 -0.624564 0.398749 0
M  V30 5817 H 541.576 -1.12603 1.54896 0
M  V30 5818 H 539.881 -3.71513 1.2444 0
M  V30 5819 H 541.578 -3.66278 1.63222 0
M  V30 5820 H 538.168 -3.10603 2.95337 0
M  V30 5821 H 542.352 -3.0295 3.93109 0
M  V30 5822 H 537.608 -2.97183 5.34314 0
M  V30 5823 H 541.782 -2.90681 6.32833 0
M  V30 5824 H 539.409 -2.87322 7.03811 0
M  V30 5825 N 540.985 -1.06182 -1.16461 0
M  V30 5826 C 541.895 -0.682671 -2.24448 0
M  V30 5827 C 542.911 0.30078 -1.71381 0
M  V30 5828 O 544.087 0.150376 -2.00838 0
M  V30 5829 C 541.152 -0.0737202 -3.46622 0
M  V30 5830 C 540.213 -1.10889 -4.14731 0
M  V30 5831 C 539.446 -0.528908 -5.31073 0
M  V30 5832 O 539.669 0.65868 -5.66584 0
M  V30 5833 O 538.603 -1.26805 -5.88391 0
M  V30 5834 H 542.429 -1.58291 -2.59187 0
M  V30 5835 H 540.014 -0.834013 -1.23954 0
M  V30 5836 H 541.896 0.264192 -4.20571 0
M  V30 5837 H 540.571 0.800015 -3.13658 0
M  V30 5838 H 539.478 -1.49896 -3.42756 0
M  V30 5839 H 540.811 -1.95412 -4.51747 0
M  V30 5840 N 542.463 1.3308 -0.844243 0
M  V30 5841 C 543.373 2.32876 -0.283922 0
M  V30 5842 C 544.389 1.63589 0.592846 0
M  V30 5843 O 545.565 1.95205 0.495693 0
M  V30 5844 C 542.63 3.42667 0.527283 0
M  V30 5845 C 541.691 4.27664 -0.374394 0
M  V30 5846 C 540.924 5.32212 0.39819 0
M  V30 5847 O 541.147 5.46635 1.62932 0
M  V30 5848 O 540.081 6.01458 -0.2306 0
M  V30 5849 H 543.907 2.82671 -1.11045 0
M  V30 5850 H 541.492 1.36518 -0.606903 0
M  V30 5851 H 543.374 4.09652 0.988078 0
M  V30 5852 H 542.049 2.95079 1.33078 0
M  V30 5853 H 540.956 3.63526 -0.883144 0
M  V30 5854 H 542.289 4.78749 -1.1428 0
M  V30 5855 N 543.941 0.601185 1.45683 0
M  V30 5856 C 545.189 0.0936957 2.01883 0
M  V30 5857 C 545.51 -1.2779 1.47291 0
M  V30 5858 O 544.78 -1.84279 0.664691 0
M  V30 5859 H 543.36 0.0316466 0.746329 0
M  V30 5860 H 546.022 0.781137 1.78562 0
M  V30 5861 H 545.118 0.0386297 3.12076 0
M  V30 5862 N 545.419 -1.53889 0.339982 0
M  V30 5863 C 546.647 -2.05271 -0.259114 0
M  V30 5864 C 547.062 -1.21517 -1.44496 0
M  V30 5865 O 546.419 -0.24966 -1.80784 0
M  V30 5866 C 546.47 -3.55092 -0.677634 0
M  V30 5867 O 546.191 -4.35667 0.461051 0
M  V30 5868 C 547.692 -4.22631 -1.33782 0
M  V30 5869 H 544.912 -0.669085 -0.0506566 0
M  V30 5870 H 547.456 -1.9852 0.490935 0
M  V30 5871 H 545.611 -3.62077 -1.37763 0
M  V30 5872 H 546.025 -5.24343 0.128144 0
M  V30 5873 H 547.499 -5.28861 -1.58145 0
M  V30 5874 H 547.976 -3.74758 -2.29027 0
M  V30 5875 H 548.582 -4.19829 -0.679957 0
M  V30 5876 N 546.897 -0.0685191 -1.57451 0
M  V30 5877 C 547.807 0.914677 -2.16034 0
M  V30 5878 C 548.823 1.32938 -1.12265 0
M  V30 5879 O 549.999 1.40275 -1.44516 0
M  V30 5880 C 547.064 2.16519 -2.70777 0
M  V30 5881 C 546.125 1.80721 -3.89408 0
M  V30 5882 C 545.358 2.9981 -4.41531 0
M  V30 5883 O 545.581 4.13727 -3.92666 0
M  V30 5884 O 544.515 2.79817 -5.32903 0
M  V30 5885 H 548.341 0.446364 -3.00402 0
M  V30 5886 H 545.926 0.154367 -1.486 0
M  V30 5887 H 547.808 2.89856 -3.05878 0
M  V30 5888 H 546.483 2.62454 -1.89471 0
M  V30 5889 H 545.39 1.04646 -3.59166 0
M  V30 5890 H 546.723 1.39571 -4.71997 0
M  V30 5891 N 548.375 1.56261 0.205012 0
M  V30 5892 C 549.338 1.92908 1.23771 0
M  V30 5893 C 550.338 0.809208 1.38955 0
M  V30 5894 O 551.528 1.07676 1.36936 0
M  V30 5895 C 548.66 2.19442 2.60879 0
M  V30 5896 H 549.853 2.85287 0.924728 0
M  V30 5897 H 547.406 1.49798 0.446125 0
M  V30 5898 H 548.141 1.29668 2.97248 0
M  V30 5899 H 547.926 3.0104 2.51232 0
M  V30 5900 H 549.416 2.48833 3.35368 0
M  V30 5901 N 549.853 -0.472356 1.50355 0
M  V30 5902 C 551.078 -1.25251 1.65309 0
M  V30 5903 C 551.503 -1.85081 0.335643 0
M  V30 5904 O 550.861 -1.67227 -0.700335 0
M  V30 5905 C 550.909 -2.3379 2.74544 0
M  V30 5906 O 550.013 -3.38401 2.35709 0
M  V30 5907 H 549.354 -0.368539 0.552336 0
M  V30 5908 H 551.884 -0.562271 1.96722 0
M  V30 5909 H 551.894 -2.79121 2.97583 0
M  V30 5910 H 550.569 -1.89614 3.70161 0
M  V30 5911 H 549.146 -2.9879 2.23112 0
M  V30 5912 N 551.331 -1.39911 -0.725443 0
M  V30 5913 C 552.294 -1.39156 -1.82121 0
M  V30 5914 C 553.294 -0.287018 -1.58218 0
M  V30 5915 O 554.484 -0.545421 -1.65441 0
M  V30 5916 C 551.616 -1.1736 -3.20062 0
M  V30 5917 H 552.809 -2.36672 -1.84191 0
M  V30 5918 H 550.362 -1.25615 -0.930079 0
M  V30 5919 H 551.097 -0.205648 -3.23647 0
M  V30 5920 H 550.882 -1.97358 -3.3881 0
M  V30 5921 H 552.372 -1.19596 -4.00108 0
M  V30 5922 N 552.809 0.956637 -1.25245 0
M  V30 5923 C 553.772 2.03457 -1.05537 0
M  V30 5924 C 554.772 1.60798 -0.00886317 0
M  V30 5925 O 555.962 1.72384 -0.250865 0
M  V30 5926 C 553.094 3.35543 -0.601965 0
M  V30 5927 H 554.287 2.22372 -2.01223 0
M  V30 5928 H 551.84 1.13344 -1.07623 0
M  V30 5929 H 552.575 3.22323 0.357584 0
M  V30 5930 H 552.36 3.67854 -1.35743 0
M  V30 5931 H 553.85 4.14769 -0.485454 0
M  V30 5932 N 554.287 1.06798 1.15896 0
M  V30 5933 C 555.515 0.808694 1.90441 0
M  V30 5934 C 555.93 -0.637506 1.77711 0
M  V30 5935 O 555.287 -1.43684 1.12522 0
M  V30 5936 C 555.338 1.20068 3.40978 0
M  V30 5937 O 555.059 2.59013 3.53333 0
M  V30 5938 C 556.56 0.96987 4.3256 0
M  V30 5939 H 553.78 0.292809 0.603742 0
M  V30 5940 H 556.324 1.42296 1.46874 0
M  V30 5941 H 554.479 0.630842 3.82229 0
M  V30 5942 H 554.893 2.7485 4.46719 0
M  V30 5943 H 556.367 1.29371 5.36626 0
M  V30 5944 H 556.844 -0.0941209 4.39099 0
M  V30 5945 H 557.45 1.52433 3.97044 0
M  V30 5946 N 555.766 -1.3263 0.851289 0
M  V30 5947 C 556.729 -2.27247 0.298541 0
M  V30 5948 C 557.729 -1.51467 -0.539847 0
M  V30 5949 O 558.919 -1.7061 -0.351843 0
M  V30 5950 C 556.051 -3.35964 -0.578004 0
M  V30 5951 H 557.244 -2.7765 1.13359 0
M  V30 5952 H 554.797 -1.43245 0.625354 0
M  V30 5953 H 555.532 -2.90823 -1.435 0
M  V30 5954 H 555.317 -3.92094 0.0220539 0
M  V30 5955 H 556.807 -4.06472 -0.957626 0
M  V30 5956 N 557.244 -0.608902 -1.45362 0
M  V30 5957 C 558.49 -0.104762 -2.02529 0
M  V30 5958 C 558.823 1.26191 -1.47613 0
M  V30 5959 O 558.098 1.8327 -0.65134 0
M  V30 5960 C 558.381 -0.0672661 -3.60037 0
M  V30 5961 C 558.234 -1.4647 -4.25284 0
M  V30 5962 C 559.553 0.619877 -4.35713 0
M  V30 5963 H 556.672 -0.0395438 -0.735938 0
M  V30 5964 H 559.314 -0.781126 -1.73201 0
M  V30 5965 H 557.464 0.50871 -3.85155 0
M  V30 5966 H 559.136 -2.08785 -4.11347 0
M  V30 5967 H 557.379 -2.02502 -3.83634 0
M  V30 5968 H 558.05 -1.39069 -5.34195 0
M  V30 5969 H 560.526 0.130297 -4.15896 0
M  V30 5970 H 559.402 0.615224 -5.45441 0
M  V30 5971 H 559.663 1.68621 -4.0868 0
M  V30 5972 N 558.722 1.53707 -0.348139 0
M  V30 5973 C 559.669 2.25173 0.506518 0
M  V30 5974 C 560.639 1.25174 1.09182 0
M  V30 5975 O 561.824 1.53917 1.12757 0
M  V30 5976 C 558.964 3.03141 1.64923 0
M  V30 5977 C 558.077 4.18002 1.0908 0
M  V30 5978 C 557.212 4.83447 2.20119 0
M  V30 5979 C 556.251 5.90369 1.61651 0
M  V30 5980 N 555.388 6.49575 2.66451 0
M  V30 5981 H 560.228 2.97799 -0.109452 0
M  V30 5982 H 557.765 1.46953 -0.0657866 0
M  V30 5983 H 559.723 3.46607 2.32205 0
M  V30 5984 H 558.353 2.32803 2.23612 0
M  V30 5985 H 557.405 3.79145 0.308783 0
M  V30 5986 H 558.717 4.94892 0.623178 0
M  V30 5987 H 557.871 5.30008 2.95257 0
M  V30 5988 H 556.61 4.05991 2.70227 0
M  V30 5989 H 555.615 5.43186 0.850209 0
M  V30 5990 H 556.84 6.69735 1.1239 0
M  V30 5991 H 554.786 5.74981 3.15805 0
M  V30 5992 H 554.703 7.21952 2.24325 0
M  V30 5993 H 555.971 7.00789 3.41344 0
M  V30 5994 N 560.2 0.0768682 1.57412 0
M  V30 5995 C 561.449 -0.590679 1.92857 0
M  V30 5996 C 561.762 -1.70461 0.959293 0
M  V30 5997 O 562.968 -2.43207 1.20675 0
M  V30 5998 C 561.424 -1.10204 3.42612 0
M  V30 5999 C 561.032 -0.0188447 4.47996 0
M  V30 6000 C 562.776 -1.74336 3.87049 0
M  V30 6001 C 560.683 -0.544536 5.88888 0
M  V30 6002 H 559.613 -0.224411 0.71983 0
M  V30 6003 H 562.264 0.149924 1.82887 0
M  V30 6004 H 560.646 -1.89577 3.47673 0
M  V30 6005 H 561.82 0.755936 4.54557 0
M  V30 6006 H 560.135 0.526555 4.13057 0
M  V30 6007 H 562.732 -2.14708 4.89699 0
M  V30 6008 H 563.075 -2.60537 3.24694 0
M  V30 6009 H 563.608 -1.01577 3.84613 0
M  V30 6010 H 560.347 0.280426 6.549 0
M  V30 6011 H 559.867 -1.28673 5.85836 0
M  V30 6012 H 561.546 -1.01933 6.3892 0
M  V30 6013 N 561.678 -1.56367 -0.196722 0
M  V30 6014 C 562.906 -1.84639 -0.933608 0
M  V30 6015 C 563.321 -0.659164 -1.76919 0
M  V30 6016 O 562.678 0.372142 -1.78665 0
M  V30 6017 C 562.729 -3.11694 -1.83109 0
M  V30 6018 O 562.45 -4.25838 -1.02924 0
M  V30 6019 C 563.951 -3.53132 -2.67979 0
M  V30 6020 H 561.171 -0.613188 -0.272473 0
M  V30 6021 H 563.715 -2.03475 -0.204465 0
M  V30 6022 H 561.87 -2.94759 -2.51387 0
M  V30 6023 H 562.284 -4.98178 -1.64069 0
M  V30 6024 H 563.758 -4.45005 -3.26611 0
M  V30 6025 H 564.235 -2.76045 -3.41608 0
M  V30 6026 H 564.841 -3.72592 -2.05074 0
M  V30 6027 N 563.156 0.464375 -1.50603 0
M  V30 6028 C 564.086 1.56944 -1.72889 0
M  V30 6029 C 565.067 1.59979 -0.577997 0
M  V30 6030 O 566.252 1.76138 -0.817855 0
M  V30 6031 C 563.382 2.95225 -1.8292 0
M  V30 6032 C 562.336 3.07056 -2.98162 0
M  V30 6033 C 561.662 4.47051 -2.93343 0
M  V30 6034 C 562.962 2.83648 -4.38567 0
M  V30 6035 H 564.656 1.38547 -2.65415 0
M  V30 6036 H 562.202 0.665082 -1.27721 0
M  V30 6037 H 564.155 3.72467 -1.97095 0
M  V30 6038 H 562.879 3.14793 -0.870209 0
M  V30 6039 H 561.538 2.32248 -2.83648 0
M  V30 6040 H 561.186 4.63547 -1.95276 0
M  V30 6041 H 560.886 4.55902 -3.70712 0
M  V30 6042 H 562.41 5.26304 -3.09575 0
M  V30 6043 H 563.824 3.50636 -4.53572 0
M  V30 6044 H 562.221 3.03937 -5.17438 0
M  V30 6045 H 563.291 1.79451 -4.50472 0
M  V30 6046 N 564.634 1.40294 0.718013 0
M  V30 6047 C 565.564 1.43118 1.84498 0
M  V30 6048 C 566.545 0.292403 1.67568 0
M  V30 6049 O 567.73 0.500675 1.87635 0
M  V30 6050 C 564.86 1.29065 3.22427 0
M  V30 6051 C 563.814 2.40521 3.54025 0
M  V30 6052 C 563.14 2.11546 4.91073 0
M  V30 6053 C 564.44 3.82859 3.55269 0
M  V30 6054 H 566.134 2.37432 1.82391 0
M  V30 6055 H 563.68 1.14283 0.87609 0
M  V30 6056 H 565.633 1.29658 4.00957 0
M  V30 6057 H 564.357 0.312271 3.25104 0
M  V30 6058 H 563.016 2.39173 2.77834 0
M  V30 6059 H 562.664 1.12104 4.90348 0
M  V30 6060 H 562.364 2.86216 5.1318 0
M  V30 6061 H 563.888 2.13817 5.71939 0
M  V30 6062 H 565.302 3.86044 4.23843 0
M  V30 6063 H 563.699 4.57029 3.88902 0
M  V30 6064 H 564.769 4.12617 2.54706 0
M  V30 6065 N 566.112 -0.949982 1.2575 0
M  V30 6066 C 567.337 -1.73503 1.13628 0
M  V30 6067 C 567.762 -1.85601 -0.30559 0
M  V30 6068 O 567.12 -1.33984 -1.22139 0
M  V30 6069 C 567.168 -3.1243 1.80055 0
M  V30 6070 O 566.272 -3.97916 1.08336 0
M  V30 6071 H 565.613 -0.532665 0.396439 0
M  V30 6072 H 568.143 -1.19043 1.66403 0
M  V30 6073 H 568.153 -3.62866 1.86527 0
M  V30 6074 H 566.828 -3.02941 2.84956 0
M  V30 6075 H 565.405 -3.56375 1.09777 0
M  V30 6076 N 567.59 -1.07411 -1.15328 0
M  V30 6077 C 568.553 -0.698914 -2.18284 0
M  V30 6078 C 569.553 0.261149 -1.58665 0
M  V30 6079 O 570.743 0.0420277 -1.74149 0
M  V30 6080 C 567.875 -0.0302427 -3.40887 0
M  V30 6081 H 569.068 -1.61045 -2.52991 0
M  V30 6082 H 566.621 -0.870724 -1.298 0
M  V30 6083 H 567.356 0.893505 -3.11748 0
M  V30 6084 H 567.141 -0.720759 -3.85419 0
M  V30 6085 H 568.631 0.21759 -4.17033 0
M  V30 6086 N 569.068 1.32177 -0.85831 0
M  V30 6087 C 569.998 2.31282 -0.321041 0
M  V30 6088 C 570.979 1.59841 0.581786 0
M  V30 6089 O 572.164 1.87619 0.501262 0
M  V30 6090 C 569.294 3.4385 0.48832 0
M  V30 6091 C 568.248 4.26799 -0.320391 0
M  V30 6092 C 567.574 5.31164 0.613934 0
M  V30 6093 C 568.874 4.98829 -1.54813 0
M  V30 6094 H 570.568 2.76469 -1.14915 0
M  V30 6095 H 568.114 1.32916 -0.554028 0
M  V30 6096 H 570.067 4.12224 0.874626 0
M  V30 6097 H 568.791 2.97401 1.34983 0
M  V30 6098 H 567.45 3.60077 -0.688497 0
M  V30 6099 H 567.098 4.80967 1.47239 0
M  V30 6100 H 566.798 5.8755 0.0768097 0
M  V30 6101 H 568.322 6.024 0.997336 0
M  V30 6102 H 569.736 5.59864 -1.23392 0
M  V30 6103 H 568.133 5.64957 -2.02346 0
M  V30 6104 H 569.203 4.26483 -2.30739 0
M  V30 6105 N 570.547 0.616602 1.45037 0
M  V30 6106 C 571.793 0.115501 2.02471 0
M  V30 6107 C 572.126 -1.25406 1.4828 0
M  V30 6108 O 571.401 -1.82922 0.661051 0
M  V30 6109 C 571.684 0.0863588 3.59996 0
M  V30 6110 C 571.537 1.48723 4.24501 0
M  V30 6111 C 572.856 -0.596762 4.36035 0
M  V30 6112 H 569.975 0.0434461 0.735718 0
M  V30 6113 H 572.617 0.7903 1.72784 0
M  V30 6114 H 570.767 -0.488277 3.85419 0
M  V30 6115 H 572.439 2.10964 4.10234 0
M  V30 6116 H 570.682 2.04534 3.82555 0
M  V30 6117 H 571.353 1.419 5.3345 0
M  V30 6118 H 573.829 -0.10824 4.15959 0
M  V30 6119 H 572.705 -0.586289 5.4576 0
M  V30 6120 H 572.966 -1.66451 4.09569 0
M  V30 6121 N 572.025 -1.5352 0.356285 0
M  V30 6122 C 572.935 -2.29151 -0.502712 0
M  V30 6123 C 573.951 -1.34753 -1.1008 0
M  V30 6124 O 575.127 -1.67803 -1.11374 0
M  V30 6125 C 572.192 -3.05911 -1.63154 0
M  V30 6126 C 571.253 -4.15958 -1.06194 0
M  V30 6127 C 570.486 -4.8905 -2.13696 0
M  V30 6128 O 570.709 -4.61919 -3.34645 0
M  V30 6129 O 569.643 -5.75202 -1.77275 0
M  V30 6130 H 573.469 -3.03492 0.112466 0
M  V30 6131 H 571.054 -1.4891 0.120942 0
M  V30 6132 H 572.936 -3.53874 -2.28804 0
M  V30 6133 H 571.611 -2.34415 -2.23229 0
M  V30 6134 H 570.518 -3.7227 -0.369603 0
M  V30 6135 H 571.851 -4.89593 -0.505872 0
M  V30 6136 N 573.503 -0.0852151 -1.57369 0
M  V30 6137 C 574.731 0.58946 -1.98325 0
M  V30 6138 C 575.146 1.62333 -0.96403 0
M  V30 6139 O 574.503 1.82438 0.0476395 0
M  V30 6140 C 574.554 1.24604 -3.39347 0
M  V30 6141 O 574.275 0.253532 -4.37366 0
M  V30 6142 C 575.776 2.00726 -3.95252 0
M  V30 6143 H 572.996 0.158783 -0.651942 0
M  V30 6144 H 575.54 -0.161584 -2.03861 0
M  V30 6145 H 573.695 1.94808 -3.34856 0
M  V30 6146 H 574.109 0.726207 -5.19448 0
M  V30 6147 H 575.583 2.42039 -4.96106 0
M  V30 6148 H 576.06 2.86919 -3.32527 0
M  V30 6149 H 576.666 1.3536 -4.03185 0
M  V30 6150 N 574.981 1.5647 0.188427 0
M  V30 6151 C 576.397 1.50204 0.539532 0
M  V30 6152 C 576.597 0.78644 1.85519 0
M  V30 6153 O 575.653 0.339714 2.50204 0
M  V30 6154 C 576.966 2.94893 0.588103 0
M  V30 6155 C 578.514 3.05602 0.67648 0
M  V30 6156 C 578.989 4.51716 0.756101 0
M  V30 6157 N 580.48 4.55894 0.819451 0
M  V30 6158 C 581.215 5.66272 0.90134 0
M  V30 6159 N 580.711 6.86323 0.945118 0
M  V30 6160 N 582.504 5.54201 0.939043 0
M  V30 6161 H 574.655 2.01406 -0.674493 0
M  V30 6162 H 576.918 0.916828 -0.241103 0
M  V30 6163 H 576.624 3.50334 -0.309633 0
M  V30 6164 H 576.498 3.4861 1.44051 0
M  V30 6165 H 578.885 2.50206 1.56465 0
M  V30 6166 H 578.966 2.54999 -0.202262 0
M  V30 6167 H 578.61 5.07739 -0.12774 0
M  V30 6168 H 578.54 5.00058 1.65074 0
M  V30 6169 H 581.031 3.69452 0.794594 0
M  V30 6170 H 581.344 7.66194 1.0083 0
M  V30 6171 H 579.689 6.88968 0.913683 0
M  V30 6172 H 582.88 4.59333 0.901725 0
M  V30 6173 H 583.053 6.40247 0.999402 0
M  V30 6174 N 576.459 -0.456382 1.50847 0
M  V30 6175 C 577.687 -1.23026 1.66349 0
M  V30 6176 C 578.102 -1.85473 0.352868 0
M  V30 6177 O 577.459 -1.69885 -0.666739 0
M  V30 6178 C 577.51 -2.32827 2.76539 0
M  V30 6179 O 577.231 -1.72938 4.02522 0
M  V30 6180 C 578.732 -3.23448 3.03144 0
M  V30 6181 H 575.952 -0.371527 0.558756 0
M  V30 6182 H 578.496 -0.543082 1.97157 0
M  V30 6183 H 576.651 -2.97294 2.48384 0
M  V30 6184 H 577.065 -2.45357 4.63573 0
M  V30 6185 H 578.539 -3.96669 3.83872 0
M  V30 6186 H 579.016 -3.83094 2.14793 0
M  V30 6187 H 579.622 -2.64702 3.32886 0
M  V30 6188 N 577.937 -1.40673 -0.710563 0
M  V30 6189 C 579.186 -1.38525 -1.46607 0
M  V30 6190 C 579.499 0.0077024 -1.95598 0
M  V30 6191 O 580.705 0.151792 -2.71075 0
M  V30 6192 C 579.161 -2.43489 -2.6503 0
M  V30 6193 C 578.769 -3.88619 -2.22888 0
M  V30 6194 C 580.513 -2.50456 -3.42742 0
M  V30 6195 C 578.42 -4.85168 -3.3818 0
M  V30 6196 H 577.35 -0.515092 -0.550632 0
M  V30 6197 H 580.001 -1.66431 -0.772846 0
M  V30 6198 H 578.383 -2.0869 -3.36548 0
M  V30 6199 H 579.557 -4.32588 -1.58758 0
M  V30 6200 H 577.872 -3.85174 -1.58208 0
M  V30 6201 H 580.469 -3.19776 -4.28541 0
M  V30 6202 H 580.812 -1.53665 -3.86902 0
M  V30 6203 H 581.345 -2.84271 -2.78271 0
M  V30 6204 H 578.084 -5.8331 -2.99047 0
M  V30 6205 H 577.604 -4.4586 -4.01209 0
M  V30 6206 H 579.283 -5.05225 -4.04174 0
M  V30 6207 N 579.415 0.9433 -1.26252 0
M  V30 6208 C 580.661 1.69175 -1.11837 0
M  V30 6209 C 580.994 1.91238 0.337891 0
M  V30 6210 O 580.269 1.49152 1.24836 0
M  V30 6211 C 580.552 3.06783 -1.88563 0
M  V30 6212 C 580.405 2.9206 -3.42083 0
M  V30 6213 C 581.724 4.06865 -1.67776 0
M  V30 6214 H 578.843 0.61399 -0.407658 0
M  V30 6215 H 581.485 1.09572 -1.55222 0
M  V30 6216 H 579.635 3.57663 -1.51689 0
M  V30 6217 H 581.307 2.48419 -3.88698 0
M  V30 6218 H 579.55 2.27731 -3.69217 0
M  V30 6219 H 580.221 3.89651 -3.90994 0
M  V30 6220 H 582.697 3.64939 -1.99897 0
M  V30 6221 H 581.573 5.01168 -2.23879 0
M  V30 6222 H 581.834 4.37705 -0.621816 0
M  V30 6223 N 580.893 1.08022 1.14757 0
M  V30 6224 C 582.309 0.807072 1.3769 0
M  V30 6225 C 582.509 -0.585504 1.92806 0
M  V30 6226 O 581.565 -1.34301 2.13821 0
M  V30 6227 C 582.878 1.88651 2.34161 0
M  V30 6228 C 584.426 1.91206 2.47809 0
M  V30 6229 C 584.901 2.98253 3.47576 0
M  V30 6230 N 586.392 2.974 3.55117 0
M  V30 6231 C 587.127 3.76872 4.32152 0
M  V30 6232 N 586.623 4.66212 5.12463 0
M  V30 6233 N 588.416 3.6519 4.27309 0
M  V30 6234 H 580.567 1.97824 0.77326 0
M  V30 6235 H 582.83 0.85826 0.402608 0
M  V30 6236 H 582.536 2.88749 2.00791 0
M  V30 6237 H 582.41 1.75244 3.3402 0
M  V30 6238 H 584.797 0.917564 2.80472 0
M  V30 6239 H 584.878 2.08691 1.47925 0
M  V30 6240 H 584.522 3.97907 3.15646 0
M  V30 6241 H 584.452 2.78014 4.47231 0
M  V30 6242 H 586.943 2.32643 2.97801 0
M  V30 6243 H 587.256 5.23468 5.68508 0
M  V30 6244 H 585.601 4.70257 5.11745 0
M  V30 6245 H 588.792 2.94765 3.63636 0
M  V30 6246 H 588.965 4.27366 4.87095 0
M  V30 6247 N 582.371 -1.3172 0.865308 0
M  V30 6248 C 583.618 -1.96876 0.473931 0
M  V30 6249 C 583.946 -1.68425 -0.972786 0
M  V30 6250 O 583.201 -0.970742 -1.69927 0
M  V30 6251 C 583.5 -3.5102 0.672283 0
M  V30 6252 C 583.166 -3.9948 2.09108 0
M  V30 6253 C 581.828 -4.12425 2.4791 0
M  V30 6254 C 584.18 -4.2503 3.0166 0
M  V30 6255 C 581.508 -4.48267 3.78515 0
M  V30 6256 C 583.86 -4.62335 4.31774 0
M  V30 6257 C 582.524 -4.73486 4.70497 0
M  V30 6258 H 581.794 -0.72042 0.173424 0
M  V30 6259 H 584.441 -1.56937 1.0974 0
M  V30 6260 H 582.746 -3.91785 -0.034356 0
M  V30 6261 H 584.443 -3.99475 0.349353 0
M  V30 6262 H 581.033 -3.89898 1.77981 0
M  V30 6263 H 585.217 -4.14529 2.7291 0
M  V30 6264 H 580.473 -4.55097 4.08285 0
M  V30 6265 H 584.647 -4.81058 5.03543 0
M  V30 6266 H 582.274 -5.01016 5.71741 0
M  V30 6267 N 583.85 -0.624285 -1.44708 0
M  V30 6268 C 584.798 0.0969952 -2.32398 0
M  V30 6269 C 585.792 0.842762 -1.46949 0
M  V30 6270 O 586.998 0.756436 -1.63334 0
M  V30 6271 H 583.373 0.0501306 -0.750327 0
M  V30 6272 H 585.344 -0.660767 -2.90992 0
M  V30 6273 C 584.093 1.06967 -3.30837 0
M  V30 6274 H 583.416 0.505242 -3.96595 0
M  V30 6275 H 584.856 1.54397 -3.94889 0
M  V30 6276 C 583.315 2.15153 -2.5925 0
M  V30 6277 O 583.845 3.23139 -2.3863 0
M  V30 6278 N 582.051 1.90898 -2.19103 0
M  V30 6279 H 581.598 1.03086 -2.36074 0
M  V30 6280 H 581.556 2.63485 -1.71531 0
M  V30 6281 N 585.328 1.53329 -0.364422 0
M  V30 6282 C 586.744 1.59594 -0.0133165 0
M  V30 6283 C 586.944 1.37959 1.46865 0
M  V30 6284 O 586 1.18418 2.2301 0
M  V30 6285 C 587.313 2.97032 -0.468213 0
M  V30 6286 C 588.861 3.10138 -0.422334 0
M  V30 6287 C 589.336 4.49986 -0.853024 0
M  V30 6288 N 590.827 4.56098 -0.808037 0
M  V30 6289 C 591.562 5.62495 -1.11299 0
M  V30 6290 N 591.058 6.7665 -1.48717 0
M  V30 6291 N 592.851 5.52473 -1.03586 0
M  V30 6292 H 585.002 1.65644 -1.32951 0
M  V30 6293 H 587.265 0.77684 -0.543345 0
M  V30 6294 H 586.971 3.18 -1.5023 0
M  V30 6295 H 586.845 3.76918 0.145775 0
M  V30 6296 H 589.232 2.88881 0.602622 0
M  V30 6297 H 589.313 2.32263 -1.0718 0
M  V30 6298 H 588.957 4.7198 -1.87609 0
M  V30 6299 H 588.887 5.26289 -0.180819 0
M  V30 6300 H 591.378 3.74131 -0.532361 0
M  V30 6301 H 591.691 7.53776 -1.70415 0
M  V30 6302 H 590.036 6.78044 -1.52581 0
M  V30 6303 H 593.227 4.6217 -0.742736 0
M  V30 6304 H 593.4 6.35295 -1.27686 0
M  V30 6305 N 586.806 0.0935595 1.57322 0
M  V30 6306 C 588.217 -0.435807 1.81542 0
M  V30 6307 C 588.568 -1.68263 1.00907 0
M  V30 6308 O 587.693 -2.15087 0.237983 0
M  V30 6309 C 588.288 -0.797436 3.29282 0
M  V30 6310 C 586.847 -1.27155 3.54272 0
M  V30 6311 C 585.994 -0.267455 2.76007 0
M  V30 6312 H 588.945 0.31902 1.5546 0
M  V30 6313 H 588.966 -1.6571 3.42521 0
M  V30 6314 H 588.478 0.110206 3.87943 0
M  V30 6315 H 586.579 -2.19696 3.00939 0
M  V30 6316 H 586.692 -1.23445 4.62923 0
M  V30 6317 H 585.056 -0.749282 2.43429 0
M  V30 6318 H 585.839 0.632839 3.37417 0
M  V30 6319 N 588.284 -1.56567 -0.180126 0
M  V30 6320 C 589.531 -1.81492 -0.898167 0
M  V30 6321 C 589.859 -0.669225 -1.82624 0
M  V30 6322 O 589.114 0.344096 -1.92651 0
M  V30 6323 C 589.413 -3.1252 -1.73395 0
M  V30 6324 C 589.079 -4.40658 -0.955567 0
M  V30 6325 C 587.741 -4.75465 -0.740707 0
M  V30 6326 C 590.093 -5.19593 -0.408948 0
M  V30 6327 C 587.421 -5.86691 0.0320128 0
M  V30 6328 C 589.773 -6.31627 0.350638 0
M  V30 6329 C 588.437 -6.65007 0.576378 0
M  V30 6330 H 587.707 -0.664125 -0.328662 0
M  V30 6331 H 590.354 -1.908 -0.163616 0
M  V30 6332 H 588.659 -2.98515 -2.53763 0
M  V30 6333 H 590.356 -3.29013 -2.29241 0
M  V30 6334 H 586.946 -4.13352 -1.13306 0
M  V30 6335 H 591.13 -4.93104 -0.562307 0
M  V30 6336 H 586.386 -6.11016 0.216735 0
M  V30 6337 H 590.56 -6.92001 0.781497 0
M  V30 6338 H 588.187 -7.51033 1.17703 0
M  V30 6339 N 589.762 0.448376 -1.51087 0
M  V30 6340 C 590.692 1.55102 -1.74544 0
M  V30 6341 C 591.673 1.59357 -0.594932 0
M  V30 6342 O 592.858 1.75261 -0.836491 0
M  V30 6343 C 589.988 2.93268 -1.86041 0
M  V30 6344 C 588.942 3.03877 -3.01402 0
M  V30 6345 C 588.268 4.43914 -2.98068 0
M  V30 6346 C 589.568 2.7898 -4.41551 0
M  V30 6347 H 591.262 1.35724 -2.66869 0
M  V30 6348 H 588.808 0.651498 -1.28419 0
M  V30 6349 H 590.761 3.70356 -2.01034 0
M  V30 6350 H 589.485 3.13853 -0.903548 0
M  V30 6351 H 588.144 2.29227 -2.86096 0
M  V30 6352 H 587.792 4.6145 -2.00182 0
M  V30 6353 H 587.492 4.51944 -3.75527 0
M  V30 6354 H 589.016 5.22991 -3.1514 0
M  V30 6355 H 590.43 3.45805 -4.57265 0
M  V30 6356 H 588.827 2.98431 -5.20633 0
M  V30 6357 H 589.897 1.74663 -4.5235 0
M  V30 6358 N 591.24 1.41047 0.703093 0
M  V30 6359 C 592.173 1.36713 1.82715 0
M  V30 6360 C 593.151 0.235533 1.60885 0
M  V30 6361 O 594.335 0.421227 1.83733 0
M  V30 6362 C 591.462 1.13069 3.1927 0
M  V30 6363 C 590.508 2.28846 3.59905 0
M  V30 6364 S 591.341 3.91297 3.65578 0
M  V30 6365 C 592.497 3.69941 5.04871 0
M  V30 6366 H 592.73 2.31838 1.86114 0
M  V30 6367 H 590.263 1.27481 0.871083 0
M  V30 6368 H 592.221 1.00113 3.98105 0
M  V30 6369 H 590.882 0.195763 3.13489 0
M  V30 6370 H 590.075 2.07977 4.59088 0
M  V30 6371 H 589.677 2.3817 2.88359 0
M  V30 6372 H 591.969 3.29181 5.92154 0
M  V30 6373 H 592.912 4.68699 5.30779 0
M  V30 6374 H 593.32 3.03369 4.76054 0
M  V30 6375 N 592.718 -0.936591 1.26751 0
M  V30 6376 C 593.967 -1.67778 1.11953 0
M  V30 6377 C 594.28 -1.92694 -0.33589 0
M  V30 6378 O 595.486 -2.64682 -0.604618 0
M  V30 6379 C 593.942 -3.02138 1.95551 0
M  V30 6380 C 593.55 -2.84953 3.45696 0
M  V30 6381 C 595.294 -3.79917 1.89377 0
M  V30 6382 C 593.201 -4.14814 4.21525 0
M  V30 6383 H 592.131 -0.629275 0.415366 0
M  V30 6384 H 594.782 -1.04122 1.51099 0
M  V30 6385 H 593.164 -3.668 1.49243 0
M  V30 6386 H 594.338 -2.29112 3.99805 0
M  V30 6387 H 592.653 -2.20612 3.53156 0
M  V30 6388 H 595.25 -4.76134 2.43312 0
M  V30 6389 H 595.593 -4.07204 0.865464 0
M  V30 6390 H 596.126 -3.22037 2.33532 0
M  V30 6391 H 592.865 -3.92709 5.24843 0
M  V30 6392 H 592.385 -4.70352 3.72195 0
M  V30 6393 H 594.064 -4.83239 4.3022 0
M  V30 6394 N 594.196 -1.08629 -1.14182 0
M  V30 6395 C 595.445 -0.812271 -1.84621 0
M  V30 6396 C 595.758 0.664313 -1.83973 0
M  V30 6397 O 596.964 1.05357 -2.50224 0
M  V30 6398 C 595.42 -1.4031 -3.31423 0
M  V30 6399 C 595.028 -2.91164 -3.40481 0
M  V30 6400 C 596.772 -1.20767 -4.06959 0
M  V30 6401 C 594.679 -3.43373 -4.81507 0
M  V30 6402 H 593.609 -0.30019 -0.691666 0
M  V30 6403 H 596.26 -1.30798 -1.28701 0
M  V30 6404 H 594.642 -0.835096 -3.87094 0
M  V30 6405 H 595.816 -3.5412 -2.94848 0
M  V30 6406 H 594.131 -3.09646 -2.78403 0
M  V30 6407 H 596.728 -1.57237 -5.11058 0
M  V30 6408 H 597.071 -0.147664 -4.16038 0
M  V30 6409 H 597.604 -1.74274 -3.57594 0
M  V30 6410 H 594.343 -4.48958 -4.77616 0
M  V30 6411 H 593.863 -2.85176 -5.27669 0
M  V30 6412 H 595.542 -3.40095 -5.50404 0
M  V30 6413 N 595.674 1.31259 -0.872281 0
M  V30 6414 C 596.92 1.96913 -0.485083 0
M  V30 6415 C 597.253 1.68774 0.960667 0
M  V30 6416 O 596.528 0.985495 1.67685 0
M  V30 6417 C 596.811 3.52299 -0.745502 0
M  V30 6418 C 596.664 3.90002 -2.24095 0
M  V30 6419 C 597.983 4.39582 -0.213516 0
M  V30 6420 H 595.102 0.715252 -0.177716 0
M  V30 6421 H 597.744 1.55347 -1.09395 0
M  V30 6422 H 595.894 3.87835 -0.227276 0
M  V30 6423 H 597.566 3.64555 -2.82661 0
M  V30 6424 H 595.809 3.38526 -2.71261 0
M  V30 6425 H 596.48 4.98352 -2.37381 0
M  V30 6426 H 598.956 4.10882 -0.656902 0
M  V30 6427 H 597.832 5.47251 -0.42516 0
M  V30 6428 H 598.093 4.33158 0.884666 0
M  V30 6429 N 597.152 0.631951 1.44375 0
M  V30 6430 C 598.563 0.219036 1.85411 0
M  V30 6431 C 598.914 -1.22974 1.52879 0
M  V30 6432 O 598.039 -1.93579 0.967266 0
M  V30 6433 C 598.634 0.39075 3.36539 0
M  V30 6434 C 597.193 0.0323351 3.76386 0
M  V30 6435 C 596.34 0.703744 2.68221 0
M  V30 6436 H 599.291 0.837056 1.3483 0
M  V30 6437 H 599.312 -0.370056 3.78696 0
M  V30 6438 H 598.824 1.44527 3.60185 0
M  V30 6439 H 596.925 -1.02042 3.58355 0
M  V30 6440 H 597.038 0.442969 4.77048 0
M  V30 6441 H 595.402 0.138974 2.54321 0
M  V30 6442 H 596.185 1.76088 2.947 0
M  V30 6443 N 598.631 -1.53133 0.372548 0
M  V30 6444 C 599.859 -2.05774 -0.215515 0
M  V30 6445 C 600.274 -1.24555 -1.41886 0
M  V30 6446 O 599.631 -0.287951 -1.80214 0
M  V30 6447 C 599.682 -3.5645 -0.602161 0
M  V30 6448 O 599.403 -4.34591 0.553359 0
M  V30 6449 C 600.904 -4.25374 -1.24787 0
M  V30 6450 H 598.124 -0.670009 -0.0364529 0
M  V30 6451 H 600.668 -1.97434 0.532934 0
M  V30 6452 H 598.823 -3.64918 -1.30052 0
M  V30 6453 H 599.237 -5.23954 0.239336 0
M  V30 6454 H 600.711 -5.32097 -1.46891 0
M  V30 6455 H 601.188 -3.79531 -2.21026 0
M  V30 6456 H 601.794 -4.21177 -0.590752 0
M  V30 6457 N 600.109 -0.101901 -1.5727 0
M  V30 6458 C 601.386 0.602832 -1.86079 0
M  V30 6459 C 601.766 1.85912 -1 0
M  V30 6460 O 601.114 2.28379 -0.0742488 0
M  V30 6461 C 601.324 0.911694 -3.36881 0
M  V30 6462 C 602.672 1.2722 -4.05093 0
M  V30 6463 O 603.696 1.0025 -3.41802 0
M  V30 6464 O 602.555 1.7776 -5.16782 0
M  V30 6465 H 599.649 0.302366 -0.769743 0
M  V30 6466 H 602.195 -0.135113 -1.69161 0
M  V30 6467 H 600.967 0.0207256 -3.91295 0
M  V30 6468 H 600.59 1.70538 -3.59169 0
M  V30 6469 N 601.587 1.56661 0.17182 0
M  V30 6470 C 602.815 1.861 0.904115 0
M  V30 6471 C 603.23 0.687227 1.75848 0
M  V30 6472 O 602.587 -0.343671 1.79235 0
M  V30 6473 C 602.638 3.14568 1.78127 0
M  V30 6474 O 602.359 4.27422 0.961366 0
M  V30 6475 C 603.86 3.5735 2.62327 0
M  V30 6476 H 601.08 0.617445 0.262684 0
M  V30 6477 H 603.624 2.03775 0.172068 0
M  V30 6478 H 601.779 2.98721 2.46666 0
M  V30 6479 H 602.193 5.00725 1.56123 0
M  V30 6480 H 603.667 4.50144 3.1949 0
M  V30 6481 H 604.144 2.81445 3.37173 0
M  V30 6482 H 604.75 3.75807 1.99121 0
M  V30 6483 N 603.065 -0.440357 1.51323 0
M  V30 6484 C 603.997 -1.55254 1.68609 0
M  V30 6485 C 605.01 -1.52614 0.566812 0
M  V30 6486 O 606.199 -1.57445 0.841032 0
M  V30 6487 C 603.299 -2.94169 1.68279 0
M  V30 6488 C 602.472 -3.21346 2.96742 0
M  V30 6489 C 601.531 -4.3997 2.8864 0
M  V30 6490 O 600.557 -4.38771 3.62586 0
M  V30 6491 N 601.759 -5.43367 2.04285 0
M  V30 6492 H 604.524 -1.40831 2.6455 0
M  V30 6493 H 602.085 -0.629251 1.49171 0
M  V30 6494 H 604.077 -3.71543 1.60431 0
M  V30 6495 H 602.647 -3.02205 0.799441 0
M  V30 6496 H 601.867 -2.32299 3.18482 0
M  V30 6497 H 603.155 -3.3633 3.81785 0
M  V30 6498 H 602.553 -5.47176 1.43578 0
M  V30 6499 H 601.11 -6.19605 2.02318 0
M  V30 6500 N 604.543 -1.41418 -0.695603 0
M  V30 6501 C 605.491 -1.43467 -1.83084 0
M  V30 6502 C 606.485 -0.312719 -1.66489 0
M  V30 6503 O 607.691 -0.484744 -1.7335 0
M  V30 6504 H 604.066 -0.448891 -0.603325 0
M  V30 6505 H 606.037 -2.39144 -1.78473 0
M  V30 6506 C 604.786 -1.3337 -3.21104 0
M  V30 6507 H 604.109 -2.18989 -3.3449 0
M  V30 6508 H 605.549 -1.38865 -4.00615 0
M  V30 6509 C 604.008 -0.0460484 -3.36869 0
M  V30 6510 O 604.538 0.909258 -3.91274 0
M  V30 6511 N 602.744 0.0300222 -2.90584 0
M  V30 6512 H 602.291 -0.748129 -2.46497 0
M  V30 6513 H 602.249 0.890991 -3.01511 0
M  V30 6514 N 606.021 0.929856 -1.27246 0
M  V30 6515 C 607.27 1.67182 -1.12842 0
M  V30 6516 C 607.583 1.9287 0.325666 0
M  V30 6517 O 608.789 2.64999 0.590572 0
M  V30 6518 C 607.245 3.01097 -1.97151 0
M  V30 6519 C 606.853 2.83115 -3.47203 0
M  V30 6520 C 608.597 3.78907 -1.91389 0
M  V30 6521 C 606.504 4.12573 -4.23719 0
M  V30 6522 H 605.434 0.627064 -0.418697 0
M  V30 6523 H 608.085 1.0332 -1.51649 0
M  V30 6524 H 606.467 3.66004 -1.51186 0
M  V30 6525 H 607.641 2.26989 -4.01015 0
M  V30 6526 H 605.956 2.18736 -3.54321 0
M  V30 6527 H 608.553 4.74837 -2.45834 0
M  V30 6528 H 608.896 4.0674 -0.887047 0
M  V30 6529 H 609.429 3.20794 -2.35237 0
M  V30 6530 H 606.168 3.8992 -5.26918 0
M  V30 6531 H 605.688 4.68371 -3.74685 0
M  V30 6532 H 607.367 4.8095 -4.32777 0
M  V30 6533 N 607.499 1.09233 1.13605 0
M  V30 6534 C 608.746 0.827159 1.84836 0
M  V30 6535 C 609.074 -0.647199 1.83416 0
M  V30 6536 O 608.329 -1.49228 1.26608 0
M  V30 6537 C 608.628 1.305 3.32723 0
M  V30 6538 C 608.294 2.78864 3.54325 0
M  V30 6539 C 606.956 3.19382 3.59928 0
M  V30 6540 C 609.308 3.74532 3.62457 0
M  V30 6541 C 606.636 4.54346 3.71196 0
M  V30 6542 C 608.988 5.09283 3.75252 0
M  V30 6543 C 607.652 5.49394 3.79108 0
M  V30 6544 H 606.922 0.302679 0.676363 0
M  V30 6545 H 609.569 1.36676 1.34134 0
M  V30 6546 H 607.874 0.68517 3.85762 0
M  V30 6547 H 609.571 1.07648 3.86281 0
M  V30 6548 H 606.161 2.46507 3.50617 0
M  V30 6549 H 610.345 3.44343 3.57409 0
M  V30 6550 H 605.601 4.84864 3.72447 0
M  V30 6551 H 609.775 5.83269 3.80487 0
M  V30 6552 H 607.402 6.5397 3.87591 0
M  V30 6553 N 608.977 -1.30795 0.87923 0
M  V30 6554 C 610.224 -1.96362 0.494786 0
M  V30 6555 C 610.552 -1.69448 -0.954868 0
M  V30 6556 O 609.807 -0.988711 -1.68888 0
M  V30 6557 C 610.106 -3.50287 0.709476 0
M  V30 6558 C 609.772 -3.9724 2.13333 0
M  V30 6559 C 608.434 -4.09772 2.52271 0
M  V30 6560 C 610.786 -4.21807 3.06151 0
M  V30 6561 C 608.114 -4.44227 3.83248 0
M  V30 6562 C 610.466 -4.5773 4.36654 0
M  V30 6563 C 609.13 -4.68469 4.75492 0
M  V30 6564 H 608.4 -0.71854 0.181055 0
M  V30 6565 H 611.047 -1.55764 1.11399 0
M  V30 6566 H 609.352 -3.91799 0.0072 0
M  V30 6567 H 611.049 -3.99082 0.391703 0
M  V30 6568 H 607.639 -3.87988 1.82107 0
M  V30 6569 H 611.823 -4.11611 2.77291 0
M  V30 6570 H 607.079 -4.50741 4.13089 0
M  V30 6571 H 611.253 -4.7569 5.08617 0
M  V30 6572 H 608.88 -4.94923 5.77022 0
M  V30 6573 N 610.455 -0.639598 -1.44038 0
M  V30 6574 C 611.388 0.109736 -2.27936 0
M  V30 6575 C 612.366 0.843095 -1.39035 0
M  V30 6576 O 613.55 0.845456 -1.68476 0
M  V30 6577 C 610.677 1.16173 -3.18153 0
M  V30 6578 C 609.723 0.527954 -4.2322 0
M  V30 6579 S 610.556 -0.688318 -5.31058 0
M  V30 6580 C 611.712 0.363481 -6.24844 0
M  V30 6581 H 611.945 -0.601986 -2.91142 0
M  V30 6582 H 609.478 -0.42802 -1.48349 0
M  V30 6583 H 611.436 1.76372 -3.7068 0
M  V30 6584 H 610.097 1.84569 -2.54151 0
M  V30 6585 H 609.29 1.32054 -4.86393 0
M  V30 6586 H 608.892 0.000396444 -3.74 0
M  V30 6587 H 611.184 1.23362 -6.66174 0
M  V30 6588 H 612.127 -0.23288 -7.07717 0
M  V30 6589 H 612.535 0.693179 -5.60228 0
M  V30 6590 N 611.933 1.52934 -0.380664 0
M  V30 6591 C 613.158 2.06363 0.207157 0
M  V30 6592 C 613.583 1.25122 1.4045 0
M  V30 6593 O 612.941 0.274062 1.79217 0
M  V30 6594 C 612.989 3.56162 0.563996 0
M  V30 6595 O 612.093 3.77552 1.65917 0
M  V30 6596 H 611.434 0.663468 0.0265859 0
M  V30 6597 H 613.964 1.9719 -0.545635 0
M  V30 6598 H 613.974 3.99453 0.830752 0
M  V30 6599 H 612.649 4.14732 -0.311427 0
M  V30 6600 H 611.226 3.46154 1.3868 0
M  V30 6601 N 613.412 0.11024 1.57214 0
M  V30 6602 C 614.359 -0.843195 2.14846 0
M  V30 6603 C 615.329 -1.26954 1.07107 0
M  V30 6604 O 616.514 -1.34861 1.34971 0
M  V30 6605 C 613.654 -2.09123 2.74521 0
M  V30 6606 C 612.767 -1.71404 3.96541 0
M  V30 6607 C 611.902 -2.91107 4.44331 0
M  V30 6608 C 610.941 -2.49586 5.58903 0
M  V30 6609 N 610.078 -3.62175 6.01477 0
M  V30 6610 H 614.918 -0.344886 2.95998 0
M  V30 6611 H 612.455 -0.15855 1.46243 0
M  V30 6612 H 614.413 -2.82234 3.07246 0
M  V30 6613 H 613.043 -2.56427 1.96074 0
M  V30 6614 H 612.095 -0.88201 3.70033 0
M  V30 6615 H 613.407 -1.36884 4.7965 0
M  V30 6616 H 612.561 -3.72454 4.78919 0
M  V30 6617 H 611.3 -3.28848 3.60153 0
M  V30 6618 H 610.305 -1.6667 5.23929 0
M  V30 6619 H 611.53 -2.12973 6.4484 0
M  V30 6620 H 609.476 -3.99605 5.20242 0
M  V30 6621 H 609.393 -3.3155 6.79419 0
M  V30 6622 H 610.661 -4.43987 6.407 0
M  V30 6623 N 614.89 -1.56749 -0.16351 0
M  V30 6624 C 616.136 -1.82704 -0.880168 0
M  V30 6625 C 616.469 -0.689311 -1.81555 0
M  V30 6626 O 615.744 0.308224 -1.92042 0
M  V30 6627 C 616.027 -3.19084 -1.66905 0
M  V30 6628 C 615.88 -4.43397 -0.756269 0
M  V30 6629 C 617.199 -3.52493 -2.63509 0
M  V30 6630 H 614.318 -0.664608 -0.318535 0
M  V30 6631 H 616.96 -1.89438 -0.146036 0
M  V30 6632 H 615.11 -3.13475 -2.2949 0
M  V30 6633 H 616.782 -4.61079 -0.14269 0
M  V30 6634 H 615.025 -4.33752 -0.0647944 0
M  V30 6635 H 615.696 -5.3539 -1.34393 0
M  V30 6636 H 618.172 -3.58606 -2.11047 0
M  V30 6637 H 617.048 -4.48979 -3.15767 0
M  V30 6638 H 617.309 -2.77597 -3.44082 0
M  V30 6639 N 616.368 0.432326 -1.51554 0
M  V30 6640 C 617.596 1.20364 -1.68286 0
M  V30 6641 C 618.011 1.84888 -0.38233 0
M  V30 6642 O 617.368 1.70924 0.639627 0
M  V30 6643 C 617.419 2.28398 -2.80208 0
M  V30 6644 O 617.14 1.66512 -4.05223 0
M  V30 6645 C 618.641 3.18584 -3.08251 0
M  V30 6646 H 615.861 0.36259 -0.564596 0
M  V30 6647 H 618.405 0.511647 -1.97996 0
M  V30 6648 H 616.56 2.93305 -2.53083 0
M  V30 6649 H 616.974 2.37951 -4.67418 0
M  V30 6650 H 618.448 3.90511 -3.90135 0
M  V30 6651 H 618.925 3.79628 -2.2086 0
M  V30 6652 H 619.531 2.59372 -3.37055 0
M  V30 6653 N 617.846 1.41785 0.688094 0
M  V30 6654 C 618.794 1.44436 1.82321 0
M  V30 6655 C 619.788 0.321544 1.6632 0
M  V30 6656 O 620.994 0.493931 1.73091 0
M  V30 6657 H 617.369 0.452084 0.600936 0
M  V30 6658 H 619.34 2.40087 1.77202 0
M  V30 6659 C 618.089 1.35071 3.20392 0
M  V30 6660 H 617.412 2.2076 3.33324 0
M  V30 6661 H 618.852 1.40988 3.99873 0
M  V30 6662 C 617.311 0.0639127 3.36839 0
M  V30 6663 O 617.841 -0.888495 3.91751 0
M  V30 6664 N 616.047 -0.0146114 2.90596 0
M  V30 6665 H 615.594 0.761191 2.46097 0
M  V30 6666 H 615.552 -0.874988 3.01979 0
M  V30 6667 N 619.324 -0.923095 1.27737 0
M  V30 6668 C 620.735 -1.48626 1.12993 0
M  V30 6669 C 621.086 -1.94142 -0.283439 0
M  V30 6670 O 620.211 -1.81605 -1.17681 0
M  V30 6671 C 620.806 -2.70117 2.04505 0
M  V30 6672 C 619.365 -3.22642 1.93853 0
M  V30 6673 C 618.512 -1.95368 1.96791 0
M  V30 6674 H 621.463 -0.736737 1.40563 0
M  V30 6675 H 621.484 -3.4506 1.60356 0
M  V30 6676 H 620.996 -2.36959 3.07363 0
M  V30 6677 H 619.097 -3.60549 0.939968 0
M  V30 6678 H 619.21 -3.88525 2.80331 0
M  V30 6679 H 617.574 -2.12061 1.41076 0
M  V30 6680 H 618.357 -1.64517 3.01312 0
M  V30 6681 N 620.802 -1.09834 -1.13024 0
M  V30 6682 C 621.749 -0.741522 -2.18564 0
M  V30 6683 C 622.719 0.279236 -1.63736 0
M  V30 6684 O 623.904 0.159923 -1.90129 0
M  V30 6685 C 621.044 -0.17277 -3.44667 0
M  V30 6686 C 620.157 -1.24808 -4.13578 0
M  V30 6687 C 619.292 -0.641631 -5.27311 0
M  V30 6688 C 618.331 -1.69795 -5.88078 0
M  V30 6689 N 617.468 -1.11223 -6.93234 0
M  V30 6690 H 622.308 -1.64576 -2.48432 0
M  V30 6691 H 619.845 -0.822174 -1.21978 0
M  V30 6692 H 621.803 0.17482 -4.16834 0
M  V30 6693 H 620.433 0.694725 -3.15235 0
M  V30 6694 H 619.485 -1.71288 -3.39653 0
M  V30 6695 H 620.797 -2.04795 -4.54819 0
M  V30 6696 H 619.951 -0.243128 -6.06213 0
M  V30 6697 H 618.69 0.189742 -4.87331 0
M  V30 6698 H 617.695 -2.10595 -5.07868 0
M  V30 6699 H 618.92 -2.53206 -6.3013 0
M  V30 6700 H 616.866 -0.302208 -6.55304 0
M  V30 6701 H 616.783 -1.84901 -7.3304 0
M  V30 6702 H 618.051 -0.740068 -7.75979 0
M  V30 6703 N 622.28 1.30327 -0.886154 0
M  V30 6704 C 623.212 2.27079 -0.311072 0
M  V30 6705 C 624.225 1.53758 0.53502 0
M  V30 6706 O 625.414 1.74947 0.354378 0
M  V30 6707 C 622.514 3.33965 0.576228 0
M  V30 6708 C 621.687 4.36735 -0.241064 0
M  V30 6709 C 620.746 5.23028 0.576916 0
M  V30 6710 O 619.772 5.692 -0.000802231 0
M  V30 6711 N 620.974 5.49016 1.88579 0
M  V30 6712 H 623.739 2.77065 -1.14259 0
M  V30 6713 H 621.3 1.43519 -0.749258 0
M  V30 6714 H 623.292 3.88618 1.12953 0
M  V30 6715 H 621.862 2.839 1.30842 0
M  V30 6716 H 621.082 3.81932 -0.975805 0
M  V30 6717 H 622.37 5.02451 -0.801272 0
M  V30 6718 H 621.768 5.13288 2.37806 0
M  V30 6719 H 620.325 6.06539 2.38651 0
M  V30 6720 N 623.758 0.647228 1.43697 0
M  V30 6721 C 624.721 -0.0385101 2.29168 0
M  V30 6722 C 625.721 -0.756487 1.41894 0
M  V30 6723 O 626.911 -0.598641 1.63591 0
M  V30 6724 C 624.043 -1.06524 3.23829 0
M  V30 6725 H 625.236 0.713445 2.9129 0
M  V30 6726 H 622.789 0.408153 1.50877 0
M  V30 6727 H 623.524 -1.84664 2.66589 0
M  V30 6728 H 623.309 -0.554147 3.88164 0
M  V30 6729 H 624.799 -1.54432 3.87996 0
M  V30 6730 O 625.275 -1.52523 0.530952 0
M  V30 6731 H 625.966 -1.93688 0.0212942 0
M  V30 END ATOM
M  V30 BEGIN BOND
M  V30 END BOND
M  V30 END CTAB
M  END
$$$$
