drugbank_target|P01009 Alpha-1-antitrypsin (DB01593; DB01998; DB03345; DB05481; DB05961; DB09130; DB14487; DB14533; DB14548)
 OpenBabel12092119443D

  0  0  0     0  0            999 V3000
M  V30 BEGIN CTAB
M  V30 COUNTS 6591 6661 0 0 0
M  V30 BEGIN ATOM
M  V30 1 H -0.908 1.98254 -0.117106 0
M  V30 2 N 0 1.576 0 0
M  V30 3 C 0.933 2.03868 1.02534 0
M  V30 4 C 1.911 0.928543 1.3348 0
M  V30 5 O 3.095 1.19667 1.45644 0
M  V30 6 C 0.222 2.43627 2.35294 0
M  V30 7 C -0.732 3.65373 2.2001 0
M  V30 8 S 0.101 5.13292 1.52614 0
M  V30 9 C 1.257 5.56322 2.86805 0
M  V30 10 H 1.49 2.90518 0.631377 0
M  V30 11 H -0.977 1.52953 0.210867 0
M  V30 12 H 0.981 2.67203 3.11629 0
M  V30 13 H -0.358 1.57376 2.7183 0
M  V30 14 H -1.165 3.90944 3.18086 0
M  V30 15 H -1.563 3.418 1.51819 0
M  V30 16 H 0.729 5.58782 3.83104 0
M  V30 17 H 1.672 6.56266 2.65933 0
M  V30 18 H 2.08 4.83886 2.90714 0
M  V30 19 N 1.4781 -0.272755 1.55222 0
M  V30 20 C 2.8891 -0.84378 1.66545 0
M  V30 21 C 3.2401 -1.87035 0.592641 0
M  V30 22 O 2.3651 -2.14761 -0.265818 0
M  V30 23 C 2.9601 -1.53723 3.01918 0
M  V30 24 C 1.5191 -2.05628 3.15268 0
M  V30 25 C 0.6661 -0.898424 2.62343 0
M  V30 26 H 3.6171 -0.0490998 1.58624 0
M  V30 27 H 3.6381 -2.40421 2.94921 0
M  V30 28 H 3.1501 -0.78983 3.79978 0
M  V30 29 H 1.2511 -2.83329 2.41983 0
M  V30 30 H 1.3641 -2.27142 4.21833 0
M  V30 31 H -0.2719 -1.29186 2.19506 0
M  V30 32 H 0.5111 -0.164528 3.42906 0
M  V30 33 N 2.9562 -1.48159 -0.537278 0
M  V30 34 C 4.1812 -1.59707 -1.32319 0
M  V30 35 C 4.6062 -0.254859 -1.86365 0
M  V30 36 O 3.9642 0.772378 -1.64024 0
M  V30 37 C 4.0122 -2.6412 -2.45505 0
M  V30 38 O 3.1162 -2.20774 -3.48328 0
M  V30 39 H 2.4572 -0.535791 -0.392204 0
M  V30 40 H 4.9872 -1.94092 -0.647268 0
M  V30 41 H 4.9972 -2.85166 -2.91795 0
M  V30 42 H 3.6722 -3.61567 -2.05528 0
M  V30 43 H 2.2492 -2.09911 -3.08207 0
M  V30 44 N 4.4343 0.785586 -1.36625 0
M  V30 45 C 5.6593 1.57963 -1.34397 0
M  V30 46 C 6.0843 1.87964 0.071526 0
M  V30 47 O 5.4423 1.48182 1.0446 0
M  V30 48 C 5.4903 2.87511 -2.17646 0
M  V30 49 O 4.5943 3.81281 -1.57158 0
M  V30 50 H 3.9353 0.479014 -0.459828 0
M  V30 51 H 6.4653 0.973411 -1.79961 0
M  V30 52 H 6.4753 3.36745 -2.30362 0
M  V30 53 H 5.1503 2.65002 -3.20541 0
M  V30 54 H 3.7273 3.39885 -1.53403 0
M  V30 55 N 5.9124 1.20967 1.01018 0
M  V30 56 C 7.1584 1.02526 1.74975 0
M  V30 57 C 7.4914 -0.4408 1.89131 0
M  V30 58 O 6.7664 -1.32718 1.42184 0
M  V30 59 C 7.0494 1.71699 3.1653 0
M  V30 60 C 6.9024 3.25791 3.10129 0
M  V30 61 C 8.2214 1.45531 4.15342 0
M  V30 62 H 5.3404 0.373863 0.635134 0
M  V30 63 H 7.9824 1.49071 1.17805 0
M  V30 64 H 6.1324 1.32128 3.65341 0
M  V30 65 H 7.8044 3.74697 2.69072 0
M  V30 66 H 6.0474 3.56363 2.47362 0
M  V30 67 H 6.7184 3.69353 4.10222 0
M  V30 68 H 9.1944 1.79872 3.75213 0
M  V30 69 H 8.0704 1.96453 5.1254 0
M  V30 70 H 8.3314 0.384237 4.40427 0
M  V30 71 N 7.3905 -1.2043 1.01659 0
M  V30 72 C 8.6155 -1.94318 0.724942 0
M  V30 73 C 9.0405 -1.74266 -0.708034 0
M  V30 74 O 8.3985 -1.03694 -1.48719 0
M  V30 75 C 8.4465 -3.44486 1.06591 0
M  V30 76 O 7.5505 -4.12017 0.177599 0
M  V30 77 H 6.8915 -0.60708 0.26898 0
M  V30 78 H 9.4215 -1.52861 1.35995 0
M  V30 79 H 9.4315 -3.95106 1.01762 0
M  V30 80 H 8.1065 -3.58404 2.10997 0
M  V30 81 H 6.6835 -3.71821 0.283421 0
M  V30 82 N 8.8686 -0.792821 -1.36206 0
M  V30 83 C 10.1146 -0.376415 -1.99887 0
M  V30 84 C 10.4696 1.04127 -1.61788 0
M  V30 85 O 9.7626 1.71004 -0.864193 0
M  V30 86 C 9.9566 -0.481501 -3.54142 0
M  V30 87 C 9.7856 -1.90786 -4.07223 0
M  V30 88 C 8.5556 -2.53322 -4.37214 0
M  V30 89 C 10.7536 -2.87048 -4.26741 0
M  V30 90 N 8.7356 -3.8751 -4.7614 0
M  V30 91 C 10.1066 -4.06077 -4.6851 0
M  V30 92 C 12.1616 -2.8406 -4.08918 0
M  V30 93 C 10.8646 -5.22532 -4.94321 0
M  V30 94 C 12.8906 -3.99705 -4.35878 0
M  V30 95 C 12.2526 -5.1748 -4.77906 0
M  V30 96 H 8.3516 -0.185226 -0.759747 0
M  V30 97 H 10.9356 -1.03114 -1.65153 0
M  V30 98 H 9.1066 0.143154 -3.88136 0
M  V30 99 H 10.8386 -0.0410128 -4.04679 0
M  V30 100 H 7.5936 -2.04777 -4.2704 0
M  V30 101 H 8.0176 -4.5656 -4.99882 0
M  V30 102 H 12.6596 -1.94165 -3.75579 0
M  V30 103 H 10.3776 -6.1301 -5.2654 0
M  V30 104 H 13.9636 -3.98758 -4.23655 0
M  V30 105 H 12.8436 -6.05478 -4.98363 0
M  V30 106 N 10.3467 1.47872 -0.545128 0
M  V30 107 C 11.5947 2.02093 -0.016553 0
M  V30 108 C 11.9157 1.42305 1.3332 0
M  V30 109 O 11.1857 0.593853 1.86682 0
M  V30 110 H 9.7657 0.746993 -0.00313038 0
M  V30 111 H 12.4277 1.81414 -0.712397 0
M  V30 112 H 11.5237 3.11996 0.0805422 0
M  V30 113 N 11.8248 0.280983 1.55075 0
M  V30 114 C 13.0738 -0.334784 1.98902 0
M  V30 115 C 13.3868 -1.56534 1.17288 0
M  V30 116 O 14.5928 -2.25443 1.51287 0
M  V30 117 C 13.0488 -0.646994 3.54037 0
M  V30 118 C 12.6568 0.564085 4.44435 0
M  V30 119 C 14.4008 -1.22506 4.06439 0
M  V30 120 C 12.3078 0.226137 5.90967 0
M  V30 121 H 11.2378 -0.128866 0.742906 0
M  V30 122 H 13.8888 0.386556 1.79382 0
M  V30 123 H 12.2708 -1.42739 3.6938 0
M  V30 124 H 13.4448 1.34082 4.40861 0
M  V30 125 H 11.7598 1.0594 4.02698 0
M  V30 126 H 14.3568 -1.49182 5.13468 0
M  V30 127 H 14.6998 -2.16085 3.55827 0
M  V30 128 H 15.2328 -0.50682 3.94558 0
M  V30 129 H 11.9718 1.12996 6.45687 0
M  V30 130 H 11.4918 -0.513717 5.97596 0
M  V30 131 H 13.1708 -0.179539 6.46751 0
M  V30 132 N 13.3029 -1.57598 0.00835791 0
M  V30 133 C 14.2329 -2.1198 -0.979113 0
M  V30 134 C 15.2139 -1.03091 -1.35301 0
M  V30 135 O 16.3989 -1.30818 -1.43528 0
M  V30 136 C 13.5289 -2.62995 -2.26828 0
M  V30 137 C 12.4829 -3.76485 -2.03576 0
M  V30 138 C 11.8089 -4.13846 -3.38579 0
M  V30 139 C 13.1089 -5.0342 -1.39161 0
M  V30 140 H 14.8029 -2.94738 -0.526281 0
M  V30 141 H 12.3489 -1.41783 -0.251704 0
M  V30 142 H 14.3019 -2.99669 -2.96271 0
M  V30 143 H 13.0259 -1.7737 -2.7424 0
M  V30 144 H 11.6849 -3.40217 -1.36557 0
M  V30 145 H 11.3329 -3.25232 -3.83709 0
M  V30 146 H 11.0329 -4.90312 -3.23834 0
M  V30 147 H 12.5569 -4.53086 -4.09323 0
M  V30 148 H 13.9709 -5.37812 -1.98573 0
M  V30 149 H 12.3679 -5.84746 -1.34878 0
M  V30 150 H 13.4379 -4.83548 -0.361868 0
M  V30 151 N 14.781 0.264519 -1.55364 0
M  V30 152 C 15.711 1.33121 -1.91836 0
M  V30 153 C 16.692 1.51101 -0.781192 0
M  V30 154 O 17.877 1.64003 -1.04003 0
M  V30 155 C 15.007 2.68921 -2.19769 0
M  V30 156 C 13.961 2.65661 -3.35571 0
M  V30 157 C 13.287 4.05093 -3.49004 0
M  V30 158 C 14.587 2.24187 -4.71739 0
M  V30 159 H 16.281 1.02844 -2.81182 0
M  V30 160 H 13.827 0.493286 -1.35287 0
M  V30 161 H 15.78 3.43663 -2.43872 0
M  V30 162 H 14.504 3.00799 -1.27231 0
M  V30 163 H 13.163 1.93377 -3.1145 0
M  V30 164 H 12.811 4.34206 -2.53917 0
M  V30 165 H 12.511 4.03804 -4.26868 0
M  V30 166 H 14.035 4.81561 -3.75408 0
M  V30 167 H 15.449 2.88654 -4.9533 0
M  V30 168 H 13.846 2.34044 -5.52579 0
M  V30 169 H 14.916 1.19327 -4.69988 0
M  V30 170 N 16.2591 1.48442 0.529413 0
M  V30 171 C 17.1891 1.65902 1.64313 0
M  V30 172 C 18.1701 0.507897 1.6234 0
M  V30 173 O 19.3551 0.740503 1.79528 0
M  V30 174 C 16.4851 1.69911 3.02898 0
M  V30 175 C 15.4391 2.8453 3.19729 0
M  V30 176 C 14.7651 2.73629 4.59381 0
M  V30 177 C 16.0651 4.25821 3.02447 0
M  V30 178 H 17.7591 2.5914 1.49955 0
M  V30 179 H 15.3051 1.24709 0.719982 0
M  V30 180 H 17.2581 1.80715 3.80684 0
M  V30 181 H 15.9821 0.732524 3.18279 0
M  V30 182 H 14.6411 2.73283 2.44361 0
M  V30 183 H 14.2891 1.74938 4.71599 0
M  V30 184 H 13.9891 3.50541 4.71588 0
M  V30 185 H 15.5131 2.86401 5.39265 0
M  V30 186 H 16.9271 4.37898 3.70024 0
M  V30 187 H 15.3241 5.03735 3.26146 0
M  V30 188 H 16.3941 4.42244 1.98867 0
M  V30 189 N 17.7372 -0.778329 1.37039 0
M  V30 190 C 18.7002 -1.87301 1.32102 0
M  V30 191 C 19.7002 -1.59198 0.226405 0
M  V30 192 O 20.8902 -1.67403 0.481861 0
M  V30 193 C 18.0222 -3.24309 1.05055 0
M  V30 194 H 19.2152 -1.93093 2.29467 0
M  V30 195 H 16.7682 -0.977358 1.21973 0
M  V30 196 H 17.5032 -3.24196 0.0819373 0
M  V30 197 H 17.2882 -3.46098 1.84279 0
M  V30 198 H 18.7782 -4.04382 1.04234 0
M  V30 199 N 19.2153 -1.21501 -1.00376 0
M  V30 200 C 20.4633 -1.03095 -1.73827 0
M  V30 201 C 20.7843 0.436341 -1.90055 0
M  V30 202 O 20.0543 1.31466 -1.45236 0
M  V30 203 H 18.6343 -0.378487 -0.644016 0
M  V30 204 H 21.2963 -1.52831 -1.20949 0
M  V30 205 H 20.3923 -1.49991 -2.73695 0
M  V30 206 N 20.6934 1.19889 -1.02296 0
M  V30 207 C 21.6234 2.25141 -0.619174 0
M  V30 208 C 22.6044 1.66051 0.368915 0
M  V30 209 O 23.7894 1.92546 0.252941 0
M  V30 210 C 20.9194 3.4728 0.0368783 0
M  V30 211 C 19.8734 4.19005 -0.872865 0
M  V30 212 C 19.1994 5.34637 -0.0822402 0
M  V30 213 C 20.4994 4.74452 -2.18387 0
M  V30 214 H 22.1934 2.59171 -1.49903 0
M  V30 215 H 19.7394 1.24579 -0.722222 0
M  V30 216 H 21.6924 4.20098 0.330958 0
M  V30 217 H 20.4164 3.12433 0.95149 0
M  V30 218 H 19.0754 3.48061 -1.15105 0
M  V30 219 H 18.7234 4.96034 0.83422 0
M  V30 220 H 18.4234 5.83557 -0.688149 0
M  V30 221 H 19.9474 6.10255 0.205238 0
M  V30 222 H 21.3614 5.39055 -1.95172 0
M  V30 223 H 19.7584 5.33834 -2.74119 0
M  V30 224 H 20.8284 3.92844 -2.84257 0
M  V30 225 N 22.1715 0.800033 1.35784 0
M  V30 226 C 23.4115 0.382891 2.00782 0
M  V30 227 C 23.7755 -1.02891 1.62103 0
M  V30 228 O 24.9765 -1.54771 2.19771 0
M  V30 229 C 23.2475 0.553299 3.53091 0
M  V30 230 S 24.8065 0.225608 4.3822 0
M  V30 231 H 21.6245 0.145737 0.695904 0
M  V30 232 H 24.2265 1.04085 1.65489 0
M  V30 233 H 22.9305 1.58091 3.78729 0
M  V30 234 H 22.4615 -0.120214 3.93216 0
M  V30 235 H 24.4765 -0.969074 4.86645 0
M  V30 236 N 23.6496 -1.47581 0.552962 0
M  V30 237 C 24.8896 -2.04379 0.0296245 0
M  V30 238 C 25.2536 -1.4185 -1.29393 0
M  V30 239 O 26.4546 -1.89669 -1.90471 0
M  V30 240 C 24.7256 -3.57339 -0.0661371 0
M  V30 241 S 26.2846 -4.35511 -0.536213 0
M  V30 242 H 23.1026 -0.710625 0.0230991 0
M  V30 243 H 25.7046 -1.81005 0.738734 0
M  V30 244 H 24.4086 -4.00374 0.901596 0
M  V30 245 H 23.9396 -3.85202 -0.798931 0
M  V30 246 H 25.9546 -4.6253 -1.79668 0
M  V30 247 N 25.1277 -0.289203 -1.54924 0
M  V30 248 C 26.0577 0.58549 -2.2604 0
M  V30 249 C 27.0387 1.14753 -1.25562 0
M  V30 250 O 28.2237 1.17906 -1.54311 0
M  V30 251 C 25.3537 1.76305 -2.99222 0
M  V30 252 C 24.3077 1.33191 -4.06748 0
M  V30 253 C 23.6337 2.5937 -4.6758 0
M  V30 254 C 24.9337 0.471775 -5.20165 0
M  V30 255 H 26.6277 -0.00763532 -2.99399 0
M  V30 256 H 24.1737 -0.00511229 -1.43999 0
M  V30 257 H 26.1267 2.38097 -3.47689 0
M  V30 258 H 24.8507 2.38223 -2.23422 0
M  V30 259 H 23.5097 0.737121 -3.59113 0
M  V30 260 H 23.1577 3.19576 -3.88433 0
M  V30 261 H 22.8577 2.31228 -5.40192 0
M  V30 262 H 24.3817 3.21985 -5.18804 0
M  V30 263 H 25.7957 0.995056 -5.64599 0
M  V30 264 H 24.1927 0.284639 -5.99425 0
M  V30 265 H 25.2627 -0.506041 -4.82252 0
M  V30 266 N 26.6058 1.57591 -0.0167156 0
M  V30 267 C 27.8518 1.91567 0.665582 0
M  V30 268 C 28.1848 0.892298 1.72487 0
M  V30 269 O 27.4598 -0.0867127 1.94307 0
M  V30 270 C 27.7428 3.36069 1.29342 0
M  V30 271 C 27.5958 4.49135 0.244541 0
M  V30 272 C 28.9148 3.803 2.21495 0
M  V30 273 H 26.0338 0.69666 0.240488 0
M  V30 274 H 28.6758 1.89866 -0.0714356 0
M  V30 275 H 26.8258 3.3765 1.92158 0
M  V30 276 H 28.4978 4.59689 -0.385228 0
M  V30 277 H 26.7408 4.3165 -0.431379 0
M  V30 278 H 27.4118 5.47242 0.723207 0
M  V30 279 H 29.8878 3.80377 1.68678 0
M  V30 280 H 28.7638 4.82127 2.62382 0
M  V30 281 H 29.0248 3.15104 3.101 0
M  V30 282 N 28.0839 -0.256276 1.55502 0
M  V30 283 C 29.4949 -0.826068 1.67431 0
M  V30 284 C 29.8459 -1.86396 0.612446 0
M  V30 285 O 28.9709 -2.15031 -0.243025 0
M  V30 286 C 29.5659 -1.50512 3.03532 0
M  V30 287 C 28.1249 -2.02273 3.17431 0
M  V30 288 C 27.2719 -0.870548 2.63281 0
M  V30 289 H 30.2229 -0.0322728 1.58667 0
M  V30 290 H 30.2439 -2.37279 2.97454 0
M  V30 291 H 29.7559 -0.749484 3.80794 0
M  V30 292 H 27.8569 -2.80746 2.44974 0
M  V30 293 H 27.9699 -2.22655 4.24219 0
M  V30 294 H 26.3339 -1.26851 2.20864 0
M  V30 295 H 27.1169 -0.128149 3.43061 0
M  V30 296 N 29.562 -1.4872 -0.521534 0
M  V30 297 C 30.808 -1.574 -1.27879 0
M  V30 298 C 31.141 -0.250817 -1.92573 0
M  V30 299 O 30.416 0.743934 -1.79711 0
M  V30 300 C 30.699 -2.71843 -2.36164 0
M  V30 301 C 30.552 -4.13893 -1.76105 0
M  V30 302 C 31.871 -2.82008 -3.37875 0
M  V30 303 H 28.99 -0.572941 -0.463581 0
M  V30 304 H 31.632 -1.80927 -0.580119 0
M  V30 305 H 29.782 -2.51914 -2.95756 0
M  V30 306 H 31.454 -4.45284 -1.20499 0
M  V30 307 H 29.697 -4.20498 -1.06601 0
M  V30 308 H 30.368 -4.89804 -2.5455 0
M  V30 309 H 32.844 -3.00086 -2.88249 0
M  V30 310 H 31.72 -3.63796 -4.11028 0
M  V30 311 H 31.981 -1.90511 -3.98946 0
M  V30 312 N 31.0401 0.771051 -1.3745 0
M  V30 313 C 32.2651 1.56529 -1.36065 0
M  V30 314 C 32.6901 1.88029 0.0515859 0
M  V30 315 O 32.0481 1.49282 1.02882 0
M  V30 316 C 32.0961 2.85187 -2.20683 0
M  V30 317 O 31.2001 3.79593 -1.61193 0
M  V30 318 H 30.5411 0.47411 -0.464883 0
M  V30 319 H 33.0711 0.954269 -1.80983 0
M  V30 320 H 33.0811 3.34283 -2.33921 0
M  V30 321 H 31.7561 2.61588 -3.23334 0
M  V30 322 H 30.3331 3.38239 -1.56999 0
M  V30 323 N 32.5182 1.22032 0.997298 0
M  V30 324 C 33.4482 1.01065 2.10495 0
M  V30 325 C 34.4292 -0.0669542 1.69968 0
M  V30 326 O 35.6142 0.0943987 1.9397 0
M  V30 327 C 32.7442 0.582874 3.42374 0
M  V30 328 C 31.6982 1.60592 3.96729 0
M  V30 329 C 31.0242 1.03412 5.24605 0
M  V30 330 C 32.3242 2.99478 4.27914 0
M  V30 331 H 34.0182 1.93708 2.28292 0
M  V30 332 H 31.5642 0.932761 1.09707 0
M  V30 333 H 33.5172 0.423332 4.19268 0
M  V30 334 H 32.2412 -0.379213 3.24391 0
M  V30 335 H 30.9002 1.75316 3.21963 0
M  V30 336 H 30.5482 0.063518 5.0296 0
M  V30 337 H 30.2482 1.71754 5.61938 0
M  V30 338 H 31.7722 0.886066 6.04137 0
M  V30 339 H 33.1862 2.88153 4.95622 0
M  V30 340 H 31.5832 3.64903 4.76409 0
M  V30 341 H 32.6532 3.49742 3.3587 0
M  V30 342 N 33.9963 -1.19345 1.0293 0
M  V30 343 C 34.9593 -2.20793 0.615069 0
M  V30 344 C 35.9593 -1.57553 -0.321533 0
M  V30 345 O 37.1493 -1.73862 -0.108483 0
M  V30 346 C 34.2813 -3.40754 -0.0999222 0
M  V30 347 H 35.4743 -2.58955 1.51269 0
M  V30 348 H 33.0273 -1.3303 0.820534 0
M  V30 349 H 33.7623 -3.0811 -1.01187 0
M  V30 350 H 33.5473 -3.87889 0.57309 0
M  V30 351 H 35.0373 -4.15898 -0.376645 0
M  V30 352 N 35.4744 -0.807222 -1.35358 0
M  V30 353 C 36.3844 -0.219594 -2.3357 0
M  V30 354 C 37.4004 0.637734 -1.61892 0
M  V30 355 O 38.5764 0.549336 -1.93763 0
M  V30 356 C 35.6414 0.62158 -3.41083 0
M  V30 357 C 34.7024 -0.256315 -4.28534 0
M  V30 358 C 33.9354 0.544807 -5.30912 0
M  V30 359 O 34.1584 1.77944 -5.41934 0
M  V30 360 O 33.0924 -0.0646478 -6.01865 0
M  V30 361 H 36.9184 -1.03208 -2.85625 0
M  V30 362 H 34.5034 -0.569025 -1.38139 0
M  V30 363 H 36.3854 1.10067 -4.06772 0
M  V30 364 H 35.0604 1.41165 -2.91297 0
M  V30 365 H 33.9674 -0.782559 -3.65823 0
M  V30 366 H 35.3004 -1.01034 -4.81719 0
M  V30 367 N 36.9525 1.47285 -0.560781 0
M  V30 368 C 38.2295 1.9558 0.0277798 0
M  V30 369 C 38.6095 1.5034 1.48192 0
M  V30 370 O 37.9575 0.743882 2.16052 0
M  V30 371 C 38.1675 3.48789 -0.121418 0
M  V30 372 C 39.5155 4.24594 0.0220912 0
M  V30 373 O 40.5395 3.56166 -0.0491439 0
M  V30 374 O 39.3985 5.46217 0.175958 0
M  V30 375 H 36.4925 0.824663 0.0621342 0
M  V30 376 H 39.0385 1.5767 -0.627556 0
M  V30 377 H 37.8105 3.74533 -1.13316 0
M  V30 378 H 37.4335 3.93473 0.571366 0
M  V30 379 N 38.4306 0.297415 1.54768 0
M  V30 380 C 39.8416 -0.195947 1.85669 0
M  V30 381 C 40.1926 -1.53707 1.21937 0
M  V30 382 O 39.3176 -2.10164 0.515754 0
M  V30 383 C 39.9126 -0.362318 3.36857 0
M  V30 384 C 38.4716 -0.799901 3.67802 0
M  V30 385 C 37.6186 0.0938578 2.77141 0
M  V30 386 H 40.5696 0.518538 1.4999 0
M  V30 387 H 40.5906 -1.19745 3.61167 0
M  V30 388 H 40.1026 0.613921 3.83214 0
M  V30 389 H 38.2036 -1.78682 3.26961 0
M  V30 390 H 38.3166 -0.621773 4.75048 0
M  V30 391 H 36.6806 -0.426254 2.51108 0
M  V30 392 H 37.4636 1.06639 3.26318 0
M  V30 393 N 39.9087 -1.5758 0.0250728 0
M  V30 394 C 40.8407 -2.06869 -0.986796 0
M  V30 395 C 41.8537 -0.991332 -1.29137 0
M  V30 396 O 43.0427 -1.26761 -1.25674 0
M  V30 397 C 40.1427 -2.47486 -2.31525 0
M  V30 398 C 39.3157 -3.78253 -2.19643 0
M  V30 399 C 38.3747 -4.05464 -3.35388 0
M  V30 400 O 37.4007 -4.75774 -3.12454 0
M  V30 401 N 38.6027 -3.55321 -4.59051 0
M  V30 402 H 41.3677 -2.94302 -0.566276 0
M  V30 403 H 38.9287 -1.6109 -0.161776 0
M  V30 404 H 40.9207 -2.62785 -3.07776 0
M  V30 405 H 39.4907 -1.65441 -2.65232 0
M  V30 406 H 38.7107 -3.7279 -1.28144 0
M  V30 407 H 39.9987 -4.63936 -2.08903 0
M  V30 408 H 39.3967 -2.98431 -4.80578 0
M  V30 409 H 37.9537 -3.75905 -5.32483 0
M  V30 410 N 41.3868 0.248026 -1.55636 0
M  V30 411 C 42.6348 0.974295 -1.77065 0
M  V30 412 C 42.9558 1.85897 -0.588849 0
M  V30 413 O 42.2258 1.91868 0.395407 0
M  V30 414 H 40.8058 0.362733 -0.653019 0
M  V30 415 H 43.4678 0.266244 -1.93073 0
M  V30 416 H 42.5638 1.59667 -2.68166 0
M  V30 417 N 42.8649 1.48995 0.513639 0
M  V30 418 C 44.1419 1.48338 1.27495 0
M  V30 419 C 44.5219 0.204065 2.10111 0
M  V30 420 O 43.8699 -0.813881 2.13514 0
M  V30 421 C 44.0799 2.75498 2.14247 0
M  V30 422 C 45.4279 3.24484 2.73852 0
M  V30 423 O 46.4519 2.76528 2.24523 0
M  V30 424 O 45.3109 4.07974 3.6362 0
M  V30 425 H 42.4049 0.593149 0.576284 0
M  V30 426 H 44.9509 1.61246 0.528948 0
M  V30 427 H 43.7229 3.60109 1.53092 0
M  V30 428 H 43.3459 2.6539 2.96064 0
M  V30 429 N 44.343 -0.763751 1.37857 0
M  V30 430 C 45.306 -1.85889 1.34081 0
M  V30 431 C 46.306 -1.58949 0.243277 0
M  V30 432 O 47.496 -1.66882 0.499589 0
M  V30 433 C 44.628 -3.23176 1.08489 0
M  V30 434 H 45.821 -1.90648 2.31502 0
M  V30 435 H 43.374 -0.964367 1.23003 0
M  V30 436 H 44.109 -3.24091 0.116318 0
M  V30 437 H 43.894 -3.44124 1.8794 0
M  V30 438 H 45.384 -4.03254 1.08517 0
M  V30 439 N 45.8211 -1.22559 -0.990812 0
M  V30 440 C 46.7841 -0.998863 -2.0629 0
M  V30 441 C 47.7841 0.0354834 -1.60761 0
M  V30 442 O 48.9741 -0.203231 -1.7301 0
M  V30 443 C 46.1061 -0.509203 -3.37076 0
M  V30 444 H 47.2991 -1.95014 -2.27837 0
M  V30 445 H 44.8521 -1.04456 -1.16269 0
M  V30 446 H 45.5871 0.446335 -3.21214 0
M  V30 447 H 45.3721 -1.25547 -3.71457 0
M  V30 448 H 46.8621 -0.370888 -4.1595 0
M  V30 449 N 47.2992 1.18797 -1.03562 0
M  V30 450 C 48.2312 2.21731 -0.580337 0
M  V30 451 C 49.2442 1.59051 0.347349 0
M  V30 452 O 50.4332 1.77929 0.142669 0
M  V30 453 C 47.5332 3.38459 0.172805 0
M  V30 454 C 46.7062 4.3072 -0.761496 0
M  V30 455 C 45.7652 5.26174 -0.0525547 0
M  V30 456 O 44.7912 5.65108 -0.681333 0
M  V30 457 N 45.9932 5.67624 1.21586 0
M  V30 458 H 48.7582 2.61417 -1.46565 0
M  V30 459 H 46.3192 1.33531 -0.915476 0
M  V30 460 H 48.3112 3.99335 0.656793 0
M  V30 461 H 46.8812 2.97507 0.959602 0
M  V30 462 H 46.1012 3.67525 -1.42544 0
M  V30 463 H 47.3892 4.89267 -1.39626 0
M  V30 464 H 46.7872 5.38038 1.74732 0
M  V30 465 H 45.3442 6.30721 1.64421 0
M  V30 466 N 48.7773 0.814389 1.34928 0
M  V30 467 C 49.7243 0.22822 2.29669 0
M  V30 468 C 50.6943 -0.642164 1.53184 0
M  V30 469 O 51.8793 -0.585605 1.81591 0
M  V30 470 C 49.0193 -0.61089 3.3965 0
M  V30 471 C 48.1323 0.280792 4.31086 0
M  V30 472 C 47.2673 -0.567067 5.28165 0
M  V30 473 C 46.3063 0.324531 6.11239 0
M  V30 474 N 45.4433 -0.483756 7.00431 0
M  V30 475 H 50.2833 1.04153 2.79206 0
M  V30 476 H 47.8203 0.525133 1.37407 0
M  V30 477 H 49.7783 -1.11263 4.0209 0
M  V30 478 H 48.4083 -1.38939 2.91369 0
M  V30 479 H 47.4603 0.900688 3.69583 0
M  V30 480 H 48.7723 0.966723 4.89342 0
M  V30 481 H 47.9263 -1.13363 5.96015 0
M  V30 482 H 46.6653 -1.28654 4.70425 0
M  V30 483 H 45.6703 0.903298 5.42329 0
M  V30 484 H 46.8953 1.04198 6.71059 0
M  V30 485 H 44.8413 -1.18706 6.45171 0
M  V30 486 H 44.7583 0.143965 7.55863 0
M  V30 487 H 46.0263 -1.03334 7.7262 0
M  V30 488 N 50.2554 -1.46986 0.568584 0
M  V30 489 C 51.4834 -2.0683 0.0539956 0
M  V30 490 C 51.8984 -1.41953 -1.24478 0
M  V30 491 O 51.2554 -0.519933 -1.74937 0
M  V30 492 C 51.3064 -3.61254 -0.133362 0
M  V30 493 O 51.0274 -4.237 1.11399 0
M  V30 494 C 52.5284 -4.37992 -0.683927 0
M  V30 495 H 49.7484 -0.669058 0.0510141 0
M  V30 496 H 52.2924 -1.88824 0.785234 0
M  V30 497 H 50.4474 -3.78735 -0.81477 0
M  V30 498 H 50.8614 -5.16388 0.91888 0
M  V30 499 H 52.3354 -5.46684 -0.764263 0
M  V30 500 H 52.8124 -4.05058 -1.69778 0
M  V30 501 H 53.4184 -4.25283 -0.0378494 0
M  V30 502 N 51.7335 -0.305618 -1.54608 0
M  V30 503 C 53.0105 0.355652 -1.92339 0
M  V30 504 C 53.3905 1.71324 -1.23335 0
M  V30 505 O 52.7385 2.25473 -0.370702 0
M  V30 506 C 52.9485 0.46572 -3.45879 0
M  V30 507 C 54.2965 0.734426 -4.182 0
M  V30 508 O 55.3205 0.54935 -3.51938 0
M  V30 509 O 54.1795 1.09024 -5.35515 0
M  V30 510 H 51.2735 0.199666 -0.802535 0
M  V30 511 H 53.8195 -0.354017 -1.65966 0
M  V30 512 H 52.5915 -0.488461 -3.88239 0
M  V30 513 H 52.2145 1.22367 -3.78301 0
M  V30 514 N 53.2116 1.57565 -0.0334293 0
M  V30 515 C 54.4396 1.9628 0.654347 0
M  V30 516 C 54.8546 0.910138 1.65414 0
M  V30 517 O 54.2116 -0.107595 1.82183 0
M  V30 518 C 54.2626 3.35067 1.35693 0
M  V30 519 O 53.9836 4.36296 0.397191 0
M  V30 520 C 55.4846 3.88439 2.13613 0
M  V30 521 H 52.7046 0.646369 0.180132 0
M  V30 522 H 55.2486 2.04282 -0.0944721 0
M  V30 523 H 53.4036 3.2827 2.05712 0
M  V30 524 H 53.8176 5.1678 0.896597 0
M  V30 525 H 55.2916 4.8788 2.58219 0
M  V30 526 H 55.7686 3.22914 2.97696 0
M  V30 527 H 56.3746 3.98516 1.48543 0
M  V30 528 N 54.6897 -0.239769 1.55765 0
M  V30 529 C 55.9147 -0.988373 1.82335 0
M  V30 530 C 56.3397 -1.77886 0.611421 0
M  V30 531 O 55.6977 -1.75889 -0.439639 0
M  V30 532 C 55.7457 -1.89627 3.06715 0
M  V30 533 O 54.8497 -2.98904 2.84131 0
M  V30 534 H 54.1907 -0.280858 0.601677 0
M  V30 535 H 56.7207 -0.258597 2.02959 0
M  V30 536 H 56.7307 -2.30957 3.36338 0
M  V30 537 H 55.4057 -1.31511 3.9456 0
M  V30 538 H 53.9827 -2.61651 2.65694 0
M  V30 539 N 56.1678 -1.49265 -0.50573 0
M  V30 540 C 57.1178 -1.6198 -1.60457 0
M  V30 541 C 58.1018 -0.47568 -1.53708 0
M  V30 542 O 59.2938 -0.728392 -1.61318 0
M  V30 543 C 56.4228 -1.68526 -2.99089 0
M  V30 544 C 55.5088 -2.885 -3.10852 0
M  V30 545 N 55.8998 -4.12635 -2.92517 0
M  V30 546 C 54.1978 -2.86338 -3.41945 0
M  V30 547 C 54.8988 -4.93258 -3.08337 0
M  V30 548 N 53.8748 -4.26533 -3.37003 0
M  V30 549 H 57.6768 -2.55681 -1.44928 0
M  V30 550 H 55.1908 -1.45972 -0.711752 0
M  V30 551 H 57.1878 -1.75732 -3.78053 0
M  V30 552 H 55.8478 -0.759584 -3.1569 0
M  V30 553 H 56.8588 -4.42689 -2.68787 0
M  V30 554 H 53.5358 -2.03129 -3.64753 0
M  V30 555 H 54.9258 -6.01856 -2.98695 0
M  V30 556 N 57.6459 0.756429 -1.3826 0
M  V30 557 C 58.5959 1.86069 -1.31766 0
M  V30 558 C 59.5799 1.59621 -0.202483 0
M  V30 559 O 60.7719 1.7149 -0.438211 0
M  V30 560 C 57.9009 3.23742 -1.1422 0
M  V30 561 C 56.9869 3.56091 -2.30348 0
M  V30 562 N 57.3779 3.59517 -3.55783 0
M  V30 563 C 55.6759 3.86341 -2.22838 0
M  V30 564 C 56.3769 3.89052 -4.32451 0
M  V30 565 N 55.3529 4.05736 -3.61772 0
M  V30 566 H 59.1549 1.86992 -2.26741 0
M  V30 567 H 56.6689 0.953643 -1.31451 0
M  V30 568 H 58.6659 4.02761 -1.07652 0
M  V30 569 H 57.3259 3.24073 -0.201763 0
M  V30 570 H 58.3369 3.41347 -3.89491 0
M  V30 571 H 55.0139 3.94404 -1.36937 0
M  V30 572 H 56.4039 3.98349 -5.4108 0
M  V30 573 N 59.124 1.23083 0.984299 0
M  V30 574 C 60.401 0.9689 1.69917 0
M  V30 575 C 60.781 -0.513604 2.04757 0
M  V30 576 O 60.129 -1.48383 1.73767 0
M  V30 577 C 60.339 1.87518 2.94343 0
M  V30 578 C 61.687 2.13636 3.6694 0
M  V30 579 O 62.711 1.85036 3.04368 0
M  V30 580 O 61.57 2.62119 4.79537 0
M  V30 581 H 58.664 0.365095 0.742048 0
M  V30 582 H 61.21 1.34107 1.03987 0
M  V30 583 H 59.982 2.87756 2.65164 0
M  V30 584 H 59.605 1.50514 3.6801 0
M  V30 585 N 60.6021 -1.18246 1.0419 0
M  V30 586 C 61.5341 -2.2142 0.592088 0
M  V30 587 C 62.5471 -1.59233 -0.338909 0
M  V30 588 O 63.7361 -1.78002 -0.133231 0
M  V30 589 C 60.8361 -3.38546 -0.154854 0
M  V30 590 C 60.0091 -4.3031 0.784328 0
M  V30 591 C 59.0681 -5.26138 0.0804583 0
M  V30 592 O 58.0941 -5.64738 0.711292 0
M  V30 593 N 59.2961 -5.68261 -1.18574 0
M  V30 594 H 62.0611 -2.60636 1.47949 0
M  V30 595 H 59.6221 -1.33044 0.922544 0
M  V30 596 H 61.6141 -3.99678 -0.635606 0
M  V30 597 H 60.1841 -2.98012 -0.943811 0
M  V30 598 H 59.4041 -3.66764 1.44491 0
M  V30 599 H 60.6921 -4.8852 1.42218 0
M  V30 600 H 60.0901 -5.38957 -1.71876 0
M  V30 601 H 58.6471 -6.31584 -1.61074 0
M  V30 602 N 62.0802 -0.821533 -1.34494 0
M  V30 603 C 63.3572 -0.33159 -1.92769 0
M  V30 604 C 63.7372 1.18088 -1.74981 0
M  V30 605 O 63.0852 1.98733 -1.12772 0
M  V30 606 C 63.2952 -0.759398 -3.40638 0
M  V30 607 C 64.6432 -0.757433 -4.1779 0
M  V30 608 O 65.6672 -0.70189 -3.49216 0
M  V30 609 O 64.5262 -0.829361 -5.4017 0
M  V30 610 H 61.6202 -0.0902502 -0.822061 0
M  V30 611 H 64.1662 -0.906231 -1.43477 0
M  V30 612 H 62.9382 -1.8012 -3.47379 0
M  V30 613 H 62.5612 -0.160378 -3.97276 0
M  V30 614 N 63.5583 1.46682 -0.576371 0
M  V30 615 C 64.5083 2.27278 0.181288 0
M  V30 616 C 65.4923 1.35497 0.867721 0
M  V30 617 O 66.6843 1.59717 0.762863 0
M  V30 618 C 63.8133 3.21703 1.19841 0
M  V30 619 C 62.8993 4.20969 0.51442 0
M  V30 620 N 63.2903 5.03999 -0.426407 0
M  V30 621 C 61.5883 4.39373 0.765963 0
M  V30 622 C 62.2893 5.75812 -0.825565 0
M  V30 623 N 61.2653 5.43315 -0.176116 0
M  V30 624 H 65.0673 2.88863 -0.541785 0
M  V30 625 H 62.5813 1.57455 -0.397697 0
M  V30 626 H 64.5783 3.78145 1.75533 0
M  V30 627 H 63.2383 2.61677 1.92238 0
M  V30 628 H 64.2493 5.11659 -0.8016 0
M  V30 629 H 60.9263 3.90502 1.47698 0
M  V30 630 H 62.3163 6.52577 -1.59976 0
M  V30 631 N 65.0364 0.313813 1.54444 0
M  V30 632 C 66.4474 -0.176243 1.85866 0
M  V30 633 C 66.7984 -1.52405 1.23561 0
M  V30 634 O 65.9234 -2.09605 0.538016 0
M  V30 635 C 66.5184 -0.32657 3.37222 0
M  V30 636 C 65.0774 -0.760846 3.6863 0
M  V30 637 C 64.2244 0.123247 2.77026 0
M  V30 638 H 67.1754 0.534418 1.49431 0
M  V30 639 H 67.1964 -1.15908 3.62416 0
M  V30 640 H 66.7084 0.654531 3.82541 0
M  V30 641 H 64.8094 -1.75204 3.28838 0
M  V30 642 H 64.9224 -0.571353 4.75681 0
M  V30 643 H 63.2864 -0.399597 2.51546 0
M  V30 644 H 64.0694 1.10094 3.25168 0
M  V30 645 N 66.5145 -1.57545 0.0417849 0
M  V30 646 C 67.7425 -1.96624 -0.643928 0
M  V30 647 C 68.1575 -0.918897 -1.64929 0
M  V30 648 O 67.5145 0.0979323 -1.82237 0
M  V30 649 C 67.5655 -3.35781 -1.33914 0
M  V30 650 O 67.2865 -4.365 -0.374048 0
M  V30 651 C 68.7875 -3.89566 -2.1155 0
M  V30 652 H 66.0075 -0.647316 -0.176702 0
M  V30 653 H 68.5515 -2.04229 0.105304 0
M  V30 654 H 66.7065 -3.29357 -2.03968 0
M  V30 655 H 67.1205 -5.17248 -0.869179 0
M  V30 656 H 68.5945 -4.89242 -2.55628 0
M  V30 657 H 69.0715 -3.24488 -2.9598 0
M  V30 658 H 69.6775 -3.99298 -1.46427 0
M  V30 659 N 67.9926 0.231505 -1.5589 0
M  V30 660 C 69.2396 0.957352 -1.78441 0
M  V30 661 C 69.5676 1.84726 -0.60882 0
M  V30 662 O 68.8226 1.91416 0.40725 0
M  V30 663 C 69.1216 1.83577 -3.0665 0
M  V30 664 C 68.7876 1.09993 -4.37278 0
M  V30 665 C 67.4496 0.896629 -4.72773 0
M  V30 666 C 69.8016 0.579558 -5.17968 0
M  V30 667 C 67.1296 0.160896 -5.86479 0
M  V30 668 C 69.4816 -0.142783 -6.32439 0
M  V30 669 C 68.1456 -0.357427 -6.66542 0
M  V30 670 H 67.4156 0.35032 -0.65296 0
M  V30 671 H 70.0626 0.226259 -1.90159 0
M  V30 672 H 68.3676 2.63441 -2.90011 0
M  V30 673 H 70.0646 2.39934 -3.21298 0
M  V30 674 H 66.6546 1.26835 -4.09403 0
M  V30 675 H 70.8386 0.724125 -4.90989 0
M  V30 676 H 66.0946 -0.0157293 -6.11398 0
M  V30 677 H 70.2686 -0.553559 -6.94196 0
M  V30 678 H 67.8956 -0.929466 -7.54497 0
M  V30 679 N 69.4707 1.49531 0.497807 0
M  V30 680 C 70.4187 1.66926 1.61983 0
M  V30 681 C 71.4127 0.535167 1.60724 0
M  V30 682 O 72.6187 0.714896 1.65195 0
M  V30 683 H 68.9937 0.526415 0.537021 0
M  V30 684 H 70.9647 2.61098 1.44465 0
M  V30 685 C 69.7137 1.75602 3.00099 0
M  V30 686 H 69.0367 2.62244 3.01775 0
M  V30 687 H 70.4767 1.91807 3.78135 0
M  V30 688 C 68.9357 0.501543 3.33146 0
M  V30 689 O 69.4657 -0.371342 3.9998 0
M  V30 690 N 67.6717 0.363531 2.88317 0
M  V30 691 H 67.2187 1.07485 2.34104 0
M  V30 692 H 67.1767 -0.474728 3.10795 0
M  V30 693 N 70.9488 -0.749086 1.3866 0
M  V30 694 C 71.8958 -1.86291 1.36251 0
M  V30 695 C 72.8658 -1.64578 0.224347 0
M  V30 696 O 74.0508 -1.86181 0.417279 0
M  V30 697 C 71.1908 -3.23644 1.19786 0
M  V30 698 C 70.3038 -3.57158 2.43027 0
M  V30 699 C 69.4388 -4.83838 2.19258 0
M  V30 700 C 68.4778 -5.10152 3.38247 0
M  V30 701 N 67.6148 -6.28029 3.13884 0
M  V30 702 H 72.4548 -1.87685 2.3147 0
M  V30 703 H 69.9918 -0.917287 1.14997 0
M  V30 704 H 71.9498 -4.0291 1.08254 0
M  V30 705 H 70.5798 -3.21566 0.282031 0
M  V30 706 H 69.6318 -2.72701 2.65214 0
M  V30 707 H 70.9438 -3.7253 3.31697 0
M  V30 708 H 70.0978 -5.71057 2.04888 0
M  V30 709 H 68.8368 -4.70614 1.2796 0
M  V30 710 H 67.8418 -4.21401 3.53131 0
M  V30 711 H 69.0668 -5.25271 4.30427 0
M  V30 712 H 67.0128 -6.1612 2.25238 0
M  V30 713 H 66.9298 -6.43922 3.96106 0
M  V30 714 H 68.1978 -7.18124 3.03179 0
M  V30 715 N 72.4269 -1.23603 -0.977757 0
M  V30 716 C 73.6759 -1.06377 -1.71368 0
M  V30 717 C 73.9889 0.399062 -1.91486 0
M  V30 718 O 75.1949 0.691312 -2.62551 0
M  V30 719 C 73.6509 -1.85512 -3.08404 0
M  V30 720 C 73.2589 -3.36141 -2.96164 0
M  V30 721 C 75.0029 -1.76783 -3.85938 0
M  V30 722 C 72.9099 -4.07659 -4.28449 0
M  V30 723 H 71.8399 -0.394452 -0.642591 0
M  V30 724 H 74.4909 -1.47594 -1.09034 0
M  V30 725 H 72.8729 -1.37103 -3.71509 0
M  V30 726 H 74.0469 -3.92056 -2.42133 0
M  V30 727 H 72.3619 -3.45712 -2.32104 0
M  V30 728 H 74.9589 -2.27526 -4.83876 0
M  V30 729 H 75.3019 -0.731116 -4.0983 0
M  V30 730 H 75.8349 -2.22818 -3.2954 0
M  V30 731 H 72.5739 -5.11648 -4.09752 0
M  V30 732 H 72.0939 -3.5653 -4.82334 0
M  V30 733 H 73.7729 -4.141 -4.97122 0
M  V30 734 N 73.905 1.17692 -1.04816 0
M  V30 735 C 75.133 1.91786 -0.776254 0
M  V30 736 C 75.548 1.76604 0.667577 0
M  V30 737 O 74.905 1.10067 1.45573 0
M  V30 738 C 74.956 3.42967 -1.14263 0
M  V30 739 O 74.677 3.57678 -2.52978 0
M  V30 740 C 76.178 4.34144 -0.896311 0
M  V30 741 H 73.398 0.608624 -0.282519 0
M  V30 742 H 75.942 1.49268 -1.39783 0
M  V30 743 H 74.097 3.83245 -0.565874 0
M  V30 744 H 74.511 4.51319 -2.67229 0
M  V30 745 H 75.985 5.38744 -1.20244 0
M  V30 746 H 76.462 4.38876 0.168636 0
M  V30 747 H 77.068 3.99574 -1.45672 0
M  V30 748 N 75.3831 0.828654 1.34056 0
M  V30 749 C 76.7941 0.477534 1.8049 0
M  V30 750 C 77.1451 -1.00258 1.6865 0
M  V30 751 O 76.2701 -1.78057 1.22982 0
M  V30 752 C 76.8651 0.860018 3.27703 0
M  V30 753 C 75.4241 0.561185 3.72193 0
M  V30 754 C 74.5711 1.07385 2.55663 0
M  V30 755 H 77.5221 1.0183 1.21722 0
M  V30 756 H 77.5431 0.166038 3.80138 0
M  V30 757 H 77.0551 1.93731 3.36288 0
M  V30 758 H 75.1561 -0.506465 3.69142 0
M  V30 759 H 75.2691 1.10926 4.66082 0
M  V30 760 H 73.6331 0.495149 2.49841 0
M  V30 761 H 74.4161 2.15771 2.67016 0
M  V30 762 N 76.8612 -1.46375 0.584142 0
M  V30 763 C 77.8092 -2.32042 -0.161047 0
M  V30 764 C 78.8032 -1.44569 -0.882966 0
M  V30 765 O 80.0092 -1.61186 -0.801191 0
M  V30 766 H 76.3842 -0.748659 -0.0708033 0
M  V30 767 H 78.3552 -2.92704 0.580269 0
M  V30 768 C 77.1042 -3.27762 -1.1605 0
M  V30 769 H 76.4272 -3.95051 -0.614419 0
M  V30 770 H 77.8672 -3.90481 -1.65228 0
M  V30 771 C 76.3262 -2.53218 -2.22221 0
M  V30 772 O 76.8562 -2.29628 -3.29597 0
M  V30 773 N 75.0622 -2.13756 -1.96868 0
M  V30 774 H 74.6092 -2.33142 -1.09557 0
M  V30 775 H 74.5672 -1.642 -2.68115 0
M  V30 776 N 78.3393 -0.321999 -1.54275 0
M  V30 777 C 79.2693 0.537411 -2.27231 0
M  V30 778 C 80.2503 1.12064 -1.27968 0
M  V30 779 O 81.4353 1.14606 -1.56777 0
M  V30 780 C 78.5653 1.69919 -3.02894 0
M  V30 781 C 77.5193 1.24534 -4.09482 0
M  V30 782 C 76.8453 2.49394 -4.72977 0
M  V30 783 C 78.1453 0.361335 -5.21049 0
M  V30 784 H 79.8393 -0.0711406 -2.99315 0
M  V30 785 H 77.3853 -0.0356555 -1.43956 0
M  V30 786 H 79.3383 2.30668 -3.52662 0
M  V30 787 H 78.0623 2.33431 -2.28424 0
M  V30 788 H 76.7213 0.660782 -3.60596 0
M  V30 789 H 76.3693 3.11265 -3.95124 0
M  V30 790 H 76.0693 2.19718 -5.44975 0
M  V30 791 H 77.5933 3.10908 -5.25517 0
M  V30 792 H 79.0073 0.875072 -5.66582 0
M  V30 793 H 77.4043 0.157428 -5.99893 0
M  V30 794 H 78.4743 -0.60822 -4.8107 0
M  V30 795 N 79.8174 1.5752 -0.0501392 0
M  V30 796 C 80.7804 2.1037 0.909786 0
M  V30 797 C 81.7804 1.02308 1.24056 0
M  V30 798 O 82.9704 1.28385 1.17741 0
M  V30 799 C 80.1024 2.58708 2.21998 0
M  V30 800 H 81.2954 2.96479 0.451665 0
M  V30 801 H 78.8484 1.55038 0.198248 0
M  V30 802 H 79.5834 1.75989 2.72394 0
M  V30 803 H 79.3684 3.37675 1.99295 0
M  V30 804 H 80.8584 2.99747 2.9076 0
M  V30 805 N 81.2955 -0.223234 1.56011 0
M  V30 806 C 82.2055 -1.29766 1.95443 0
M  V30 807 C 83.2215 -1.51373 0.858028 0
M  V30 808 O 84.3975 -1.64536 1.16146 0
M  V30 809 C 81.4625 -2.62772 2.26167 0
M  V30 810 C 80.5235 -2.49482 3.49367 0
M  V30 811 C 79.7565 -3.76145 3.78616 0
M  V30 812 O 79.9795 -4.79087 3.09568 0
M  V30 813 O 78.9135 -3.73358 4.72109 0
M  V30 814 H 82.7395 -0.99309 2.87004 0
M  V30 815 H 80.3245 -0.425958 1.43199 0
M  V30 816 H 82.2065 -3.41327 2.47131 0
M  V30 817 H 80.8815 -2.92913 1.37781 0
M  V30 818 H 79.7885 -1.69133 3.33684 0
M  V30 819 H 81.1215 -2.2428 4.38131 0
M  V30 820 N 82.7736 -1.49793 -0.48987 0
M  V30 821 C 84.0206 -1.59841 -1.24327 0
M  V30 822 C 84.3486 -0.290135 -1.92324 0
M  V30 823 O 83.6036 0.722749 -1.81865 0
M  V30 824 C 83.9026 -2.71488 -2.32441 0
M  V30 825 C 83.5686 -4.12614 -1.81826 0
M  V30 826 C 82.2306 -4.51017 -1.67742 0
M  V30 827 C 84.5826 -5.00892 -1.4407 0
M  V30 828 C 81.9106 -5.75459 -1.14297 0
M  V30 829 C 84.2626 -6.25863 -0.920742 0
M  V30 830 C 82.9266 -6.63086 -0.766383 0
M  V30 831 H 82.1966 -0.584899 -0.454944 0
M  V30 832 H 84.8436 -1.83663 -0.542215 0
M  V30 833 H 83.1486 -2.4168 -3.0838 0
M  V30 834 H 84.8456 -2.76469 -2.90458 0
M  V30 835 H 81.4356 -3.82307 -1.93751 0
M  V30 836 H 85.6196 -4.7187 -1.53794 0
M  V30 837 H 80.8756 -6.02989 -1.01068 0
M  V30 838 H 85.0496 -6.9364 -0.619448 0
M  V30 839 H 82.6766 -7.59393 -0.350083 0
M  V30 840 N 84.2517 0.741722 -1.39055 0
M  V30 841 C 85.2147 1.83733 -1.37021 0
M  V30 842 C 86.2147 1.58542 -0.268534 0
M  V30 843 O 87.4047 1.66067 -0.526076 0
M  V30 844 C 84.5367 3.2141 -1.13617 0
M  V30 845 H 85.7297 1.86941 -2.34506 0
M  V30 846 H 83.2827 0.944676 -1.24521 0
M  V30 847 H 84.0177 3.23865 -0.167863 0
M  V30 848 H 83.8027 3.4109 -1.93391 0
M  V30 849 H 85.2927 4.01477 -1.14918 0
M  V30 850 N 85.7298 1.2412 0.971189 0
M  V30 851 C 86.9768 1.07881 1.71371 0
M  V30 852 C 87.3048 -0.382901 1.90694 0
M  V30 853 O 86.5598 -1.29945 1.46331 0
M  V30 854 C 86.8588 1.75983 3.11071 0
M  V30 855 C 86.5248 3.25909 3.11599 0
M  V30 856 C 85.1868 3.66813 3.11451 0
M  V30 857 C 87.5388 4.21771 3.062 0
M  V30 858 C 84.8668 5.02021 3.03631 0
M  V30 859 C 87.2188 5.56982 2.99923 0
M  V30 860 C 85.8828 5.97237 2.98102 0
M  V30 861 H 85.1528 0.394764 0.62709 0
M  V30 862 H 87.7998 1.54176 1.13587 0
M  V30 863 H 86.1048 1.22072 3.72298 0
M  V30 864 H 87.8018 1.60887 3.6731 0
M  V30 865 H 84.3918 2.93353 3.12477 0
M  V30 866 H 88.5758 3.91172 3.05447 0
M  V30 867 H 83.8318 5.32411 3.0058 0
M  V30 868 H 88.0058 6.30969 2.94704 0
M  V30 869 H 85.6328 7.01967 2.91798 0
M  V30 870 N 87.2079 -1.17134 1.05439 0
M  V30 871 C 88.4329 -1.91913 0.786396 0
M  V30 872 C 88.8579 -1.7643 -0.652234 0
M  V30 873 O 88.2159 -1.08372 -1.45345 0
M  V30 874 C 88.2639 -3.40921 1.17497 0
M  V30 875 O 87.3679 -4.11244 0.308589 0
M  V30 876 H 86.7089 -0.598215 0.288158 0
M  V30 877 H 89.2389 -1.48457 1.4079 0
M  V30 878 H 89.2489 -3.91668 1.14281 0
M  V30 879 H 87.9239 -3.5151 2.22292 0
M  V30 880 H 86.5009 -3.70731 0.40157 0
M  V30 881 N 88.686 -0.835752 -1.33615 0
M  V30 882 C 89.616 -0.281739 -2.31794 0
M  V30 883 C 90.597 0.608833 -1.58831 0
M  V30 884 O 91.782 0.533035 -1.86741 0
M  V30 885 C 88.912 0.546612 -3.42971 0
M  V30 886 C 87.866 -0.247904 -4.27281 0
M  V30 887 C 87.192 0.704001 -5.30045 0
M  V30 888 C 88.492 -1.46324 -5.01385 0
M  V30 889 H 90.186 -1.10206 -2.78379 0
M  V30 890 H 87.732 -0.531388 -1.33837 0
M  V30 891 H 89.685 0.944467 -4.1068 0
M  V30 892 H 88.409 1.40011 -2.95067 0
M  V30 893 H 87.068 -0.627281 -3.61194 0
M  V30 894 H 86.716 1.55381 -4.78399 0
M  V30 895 H 86.416 0.176524 -5.87335 0
M  V30 896 H 87.94 1.09944 -6.0062 0
M  V30 897 H 89.354 -1.13871 -5.61877 0
M  V30 898 H 87.751 -1.92728 -5.6831 0
M  V30 899 H 88.821 -2.23467 -4.30338 0
M  V30 900 N 90.1641 1.46063 -0.591896 0
M  V30 901 C 91.3941 2.06418 -0.0867676 0
M  V30 902 C 91.8021 1.43975 1.22751 0
M  V30 903 O 91.1451 0.542531 1.75506 0
M  V30 904 C 91.2071 3.59213 0.143725 0
M  V30 905 C 90.8711 4.439 -1.08635 0
M  V30 906 C 91.8681 4.79864 -2.00067 0
M  V30 907 C 89.5531 4.84896 -1.31077 0
M  V30 908 C 91.5471 5.55661 -3.12282 0
M  V30 909 C 89.2341 5.6045 -2.43596 0
M  V30 910 C 90.2321 5.95747 -3.34027 0
M  V30 911 O 89.9201 6.69772 -4.4459 0
M  V30 912 H 89.6521 0.673443 -0.0587447 0
M  V30 913 H 92.2061 1.88539 -0.814994 0
M  V30 914 H 90.4361 3.75433 0.926668 0
M  V30 915 H 92.1251 4.01463 0.5985 0
M  V30 916 H 92.8911 4.48763 -1.83947 0
M  V30 917 H 88.7701 4.56867 -0.61594 0
M  V30 918 H 92.3141 5.8313 -3.82891 0
M  V30 919 H 88.2111 5.90965 -2.59674 0
M  V30 920 H 88.9791 6.88207 -4.43073 0
M  V30 921 N 91.6422 0.330177 1.54103 0
M  V30 922 C 93.0582 -0.0222371 1.59585 0
M  V30 923 C 93.2582 -1.49902 1.34654 0
M  V30 924 O 92.3142 -2.25592 1.13421 0
M  V30 925 C 93.6272 0.401932 2.98002 0
M  V30 926 C 95.1752 0.353145 3.11001 0
M  V30 927 C 95.6502 0.752576 4.51775 0
M  V30 928 N 97.1412 0.706239 4.57784 0
M  V30 929 C 97.8762 0.987417 5.64834 0
M  V30 930 N 97.3722 1.33607 6.79795 0
M  V30 931 N 99.1652 0.91254 5.54643 0
M  V30 932 H 91.3162 1.29228 1.68564 0
M  V30 933 H 93.5792 0.525906 0.78875 0
M  V30 934 H 93.2852 1.4311 3.21267 0
M  V30 935 H 93.1592 -0.229699 3.765 0
M  V30 936 H 95.5462 -0.666822 2.87467 0
M  V30 937 H 95.6272 1.0198 2.34593 0
M  V30 938 H 95.2712 1.77049 4.76042 0
M  V30 939 H 95.2012 0.0635409 5.26562 0
M  V30 940 H 97.6922 0.44889 3.75224 0
M  V30 941 H 98.0052 1.53582 7.57385 0
M  V30 942 H 96.3502 1.37439 6.81275 0
M  V30 943 H 99.5412 0.639601 4.6371 0
M  V30 944 H 99.7142 1.13503 6.37982 0
M  V30 945 N 93.1203 -1.57491 0.0584922 0
M  V30 946 C 94.0523 -2.08916 -0.942694 0
M  V30 947 C 95.0653 -1.0185 -1.27006 0
M  V30 948 O 96.2543 -1.29398 -1.22957 0
M  V30 949 C 93.3543 -2.52341 -2.26224 0
M  V30 950 C 92.5273 -3.82827 -2.1157 0
M  V30 951 C 91.5863 -4.12487 -3.26712 0
M  V30 952 O 90.6123 -4.82295 -3.02292 0
M  V30 953 N 91.8143 -3.64978 -4.5141 0
M  V30 954 H 94.5793 -2.95437 -0.503722 0
M  V30 955 H 92.1403 -1.61397 -0.12757 0
M  V30 956 H 94.1323 -2.69254 -3.02133 0
M  V30 957 H 92.7023 -1.7103 -2.61663 0
M  V30 958 H 91.9223 -3.75425 -1.20208 0
M  V30 959 H 93.2103 -4.68263 -1.99015 0
M  V30 960 H 92.6083 -3.08558 -4.7414 0
M  V30 961 H 91.1653 -3.87115 -5.2439 0
M  V30 962 N 94.5984 0.214957 -1.56127 0
M  V30 963 C 95.5284 1.2695 -1.95974 0
M  V30 964 C 96.5094 1.48539 -0.828868 0
M  V30 965 O 97.6944 1.60611 -1.09168 0
M  V30 966 C 94.8244 2.61794 -2.28214 0
M  V30 967 C 93.7784 2.54851 -3.43853 0
M  V30 968 C 93.1044 3.93785 -3.61715 0
M  V30 969 C 94.4044 2.09065 -4.78632 0
M  V30 970 H 96.0984 0.93846 -2.84312 0
M  V30 971 H 93.6444 0.449996 -1.36788 0
M  V30 972 H 95.5974 3.35731 -2.54682 0
M  V30 973 H 94.3214 2.96599 -1.36736 0
M  V30 974 H 92.9804 1.8337 -3.17444 0
M  V30 975 H 92.6284 4.25908 -2.67602 0
M  V30 976 H 92.3284 3.90019 -4.39498 0
M  V30 977 H 93.8524 4.69374 -3.90539 0
M  V30 978 H 95.2664 2.7275 -5.04262 0
M  V30 979 H 93.6634 2.16346 -5.59745 0
M  V30 980 H 94.7334 1.04315 -4.73547 0
M  V30 981 N 96.0765 1.50051 0.48192 0
M  V30 982 C 97.0395 1.67584 1.5636 0
M  V30 983 C 98.0395 0.546894 1.51214 0
M  V30 984 O 99.2295 0.813725 1.54026 0
M  V30 985 C 96.3615 1.691 2.96003 0
M  V30 986 H 97.5545 2.64078 1.42136 0
M  V30 987 H 95.1075 1.39369 0.707533 0
M  V30 988 H 95.8425 0.742589 3.15684 0
M  V30 989 H 95.6275 2.51105 3.01146 0
M  V30 990 H 97.1175 1.84656 3.74556 0
M  V30 991 N 97.5546 -0.734337 1.39446 0
M  V30 992 C 98.5046 -1.83949 1.34709 0
M  V30 993 C 99.4886 -1.59279 0.227851 0
M  V30 994 O 100.681 -1.70771 0.465438 0
M  V30 995 C 97.8096 -3.21884 1.19356 0
M  V30 996 C 96.8956 -3.52381 2.35984 0
M  V30 997 N 97.2866 -3.53811 3.61457 0
M  V30 998 C 95.5846 -3.82747 2.28956 0
M  V30 999 C 96.2856 -3.82122 4.38586 0
M  V30 1000 N 95.2616 -3.9993 3.68181 0
M  V30 1001 H 99.0636 -1.83361 2.29687 0
M  V30 1002 H 96.5776 -0.932609 1.32952 0
M  V30 1003 H 98.5746 -4.00998 1.14046 0
M  V30 1004 H 97.2346 -3.23711 0.253295 0
M  V30 1005 H 98.2456 -3.35107 3.94872 0
M  V30 1006 H 94.9226 -3.92175 1.43194 0
M  V30 1007 H 96.3126 -3.89691 5.47349 0
M  V30 1008 N 99.0327 -1.24633 -0.964593 0
M  V30 1009 C 99.9647 -0.999302 -2.06268 0
M  V30 1010 C 100.978 0.0323226 -1.62768 0
M  V30 1011 O 102.167 -0.205079 -1.77318 0
M  V30 1012 C 99.2667 -0.486816 -3.35385 0
M  V30 1013 C 98.4397 -1.5823 -4.07777 0
M  V30 1014 C 97.4987 -1.07191 -5.15166 0
M  V30 1015 O 96.5247 -1.76426 -5.41168 0
M  V30 1016 N 97.7267 0.0920373 -5.80427 0
M  V30 1017 H 100.492 -1.94477 -2.28033 0
M  V30 1018 H 98.0527 -1.15704 -1.13244 0
M  V30 1019 H 100.045 -0.130066 -4.04491 0
M  V30 1020 H 98.6147 0.364459 -3.10468 0
M  V30 1021 H 97.8347 -2.11109 -3.32906 0
M  V30 1022 H 99.1227 -2.31854 -4.52903 0
M  V30 1023 H 98.5207 0.670784 -5.61709 0
M  V30 1024 H 97.0777 0.389905 -6.50633 0
M  V30 1025 N 100.511 1.16574 -1.06058 0
M  V30 1026 C 101.736 1.91493 -0.796562 0
M  V30 1027 C 102.161 1.76773 0.642868 0
M  V30 1028 O 101.519 1.09142 1.44768 0
M  V30 1029 C 101.567 3.40293 -1.19303 0
M  V30 1030 O 100.671 4.11074 -0.330394 0
M  V30 1031 H 100.012 0.596678 -0.291326 0
M  V30 1032 H 102.542 1.47708 -1.41575 0
M  V30 1033 H 102.552 3.91057 -1.16356 0
M  V30 1034 H 101.227 3.50326 -2.24153 0
M  V30 1035 H 99.8038 3.70513 -0.421225 0
M  V30 1036 N 101.989 0.842826 1.3317 0
M  V30 1037 C 102.937 0.267495 2.31057 0
M  V30 1038 C 103.931 -0.602682 1.58316 0
M  V30 1039 O 105.137 -0.491803 1.73151 0
M  V30 1040 H 101.512 0.0677813 0.748939 0
M  V30 1041 H 103.483 1.10754 2.77085 0
M  V30 1042 C 102.232 -0.539331 3.43492 0
M  V30 1043 H 101.555 0.12095 3.99617 0
M  V30 1044 H 102.995 -0.90767 4.14171 0
M  V30 1045 C 101.454 -1.71981 2.89697 0
M  V30 1046 O 101.984 -2.81862 2.86211 0
M  V30 1047 N 100.19 -1.54299 2.46252 0
M  V30 1048 H 99.7369 -0.649143 2.49287 0
M  V30 1049 H 99.6949 -2.33431 2.10612 0
M  V30 1050 N 103.467 -1.45747 0.599634 0
M  V30 1051 C 104.692 -2.07178 0.0960198 0
M  V30 1052 C 105.117 -1.44268 -1.207 0
M  V30 1053 O 104.475 -0.532503 -1.73303 0
M  V30 1054 C 104.523 -3.60579 -0.0385348 0
M  V30 1055 O 103.627 -3.97713 -1.0908 0
M  V30 1056 H 102.968 -0.660251 0.0704593 0
M  V30 1057 H 105.498 -1.87124 0.827385 0
M  V30 1058 H 105.508 -4.07298 -0.239304 0
M  V30 1059 H 104.183 -4.05756 0.912947 0
M  V30 1060 H 102.76 -3.62678 -0.867135 0
M  V30 1061 N 104.945 -0.338344 -1.53925 0
M  V30 1062 C 106.173 0.261298 -2.05243 0
M  V30 1063 C 106.588 1.44625 -1.21363 0
M  V30 1064 O 105.945 1.80811 -0.247736 0
M  V30 1065 C 105.996 0.681412 -3.5502 0
M  V30 1066 O 105.717 -0.456414 -4.35716 0
M  V30 1067 C 107.218 1.34232 -4.22489 0
M  V30 1068 H 104.438 0.0513685 -0.669031 0
M  V30 1069 H 106.982 -0.488822 -1.98572 0
M  V30 1070 H 105.137 1.38148 -3.61931 0
M  V30 1071 H 105.551 -0.122564 -5.24357 0
M  V30 1072 H 107.025 1.58708 -5.28693 0
M  V30 1073 H 107.502 2.29426 -3.74514 0
M  V30 1074 H 108.108 0.684424 -4.19757 0
M  V30 1075 N 106.423 1.57458 -0.0668435 0
M  V30 1076 C 107.371 2.13639 0.919851 0
M  V30 1077 C 108.365 1.07204 1.31163 0
M  V30 1078 O 109.571 1.25591 1.28945 0
M  V30 1079 H 105.946 0.683048 0.314562 0
M  V30 1080 H 107.917 2.95415 0.421047 0
M  V30 1081 C 106.666 2.70892 2.17975 0
M  V30 1082 H 105.989 3.5246 1.88711 0
M  V30 1083 H 107.429 3.13803 2.85138 0
M  V30 1084 C 105.888 1.65414 2.93496 0
M  V30 1085 O 106.418 1.07619 3.87015 0
M  V30 1086 N 104.624 1.36564 2.56512 0
M  V30 1087 H 104.171 1.83751 1.80536 0
M  V30 1088 H 104.129 0.66223 3.07347 0
M  V30 1089 N 107.901 -0.206675 1.56239 0
M  V30 1090 C 109.15 -0.926964 1.79138 0
M  V30 1091 C 109.463 -1.84901 0.638043 0
M  V30 1092 O 110.669 -2.60906 0.751033 0
M  V30 1093 C 109.125 -1.6986 3.17294 0
M  V30 1094 C 108.733 -0.821956 4.40395 0
M  V30 1095 C 110.477 -2.40922 3.4951 0
M  V30 1096 C 108.384 -1.59179 5.69575 0
M  V30 1097 H 107.314 -0.349864 0.667915 0
M  V30 1098 H 109.965 -0.180487 1.8261 0
M  V30 1099 H 108.347 -2.48853 3.08039 0
M  V30 1100 H 109.521 -0.0715019 4.60745 0
M  V30 1101 H 107.836 -0.222741 4.15804 0
M  V30 1102 H 110.433 -2.99047 4.43255 0
M  V30 1103 H 110.776 -3.14542 2.72707 0
M  V30 1104 H 111.309 -1.68905 3.60161 0
M  V30 1105 H 108.048 -0.898589 6.49312 0
M  V30 1106 H 107.568 -2.31648 5.53262 0
M  V30 1107 H 109.247 -2.14862 6.10281 0
M  V30 1108 N 109.379 -1.50304 -0.473955 0
M  V30 1109 C 110.626 -1.6115 -1.22625 0
M  V30 1110 C 110.954 -0.310517 -1.92005 0
M  V30 1111 O 110.209 0.703419 -1.82621 0
M  V30 1112 C 110.508 -2.73938 -2.29549 0
M  V30 1113 C 110.174 -4.14519 -1.7744 0
M  V30 1114 C 108.836 -4.5277 -1.62949 0
M  V30 1115 C 111.188 -5.02392 -1.3875 0
M  V30 1116 C 108.516 -5.76639 -1.08187 0
M  V30 1117 C 110.868 -6.26805 -0.854309 0
M  V30 1118 C 109.532 -6.63861 -0.696011 0
M  V30 1119 H 108.802 -0.589691 -0.448715 0
M  V30 1120 H 111.449 -1.84228 -0.522705 0
M  V30 1121 H 109.754 -2.44937 -3.05799 0
M  V30 1122 H 111.451 -2.79534 -2.87509 0
M  V30 1123 H 108.041 -3.8434 -1.89685 0
M  V30 1124 H 112.225 -4.73474 -1.4878 0
M  V30 1125 H 107.481 -6.04027 -0.946666 0
M  V30 1126 H 111.655 -6.94258 -0.545843 0
M  V30 1127 H 109.282 -7.59722 -0.26952 0
M  V30 1128 N 110.857 0.726932 -1.39834 0
M  V30 1129 C 112.104 1.48664 -1.37496 0
M  V30 1130 C 112.432 1.94482 0.0264678 0
M  V30 1131 O 111.687 1.67692 1.00886 0
M  V30 1132 C 111.986 2.73495 -2.30077 0
M  V30 1133 C 111.652 2.46502 -3.77555 0
M  V30 1134 C 110.314 2.3885 -4.17737 0
M  V30 1135 C 112.666 2.23604 -4.70798 0
M  V30 1136 C 109.994 2.06352 -5.49214 0
M  V30 1137 C 112.346 1.92622 -6.02561 0
M  V30 1138 C 111.01 1.83444 -6.41798 0
M  V30 1139 H 110.28 0.544001 -0.503135 0
M  V30 1140 H 112.927 0.833657 -1.72402 0
M  V30 1141 H 111.232 3.43575 -1.88317 0
M  V30 1142 H 112.929 3.31549 -2.25558 0
M  V30 1143 H 109.519 2.5334 -3.45712 0
M  V30 1144 H 113.703 2.28479 -4.40581 0
M  V30 1145 H 108.959 1.97776 -5.78528 0
M  V30 1146 H 113.133 1.73914 -6.74334 0
M  V30 1147 H 110.76 1.58029 -7.43593 0
M  V30 1148 N 112.336 1.25143 0.95797 0
M  V30 1149 C 113.561 1.12521 1.74223 0
M  V30 1150 C 113.986 -0.317402 1.85403 0
M  V30 1151 O 113.344 -1.2299 1.33204 0
M  V30 1152 C 113.392 1.78062 3.1357 0
M  V30 1153 O 112.496 1.058 3.98598 0
M  V30 1154 H 111.837 0.39304 0.535178 0
M  V30 1155 H 114.367 1.65641 1.201 0
M  V30 1156 H 114.377 1.84213 3.64046 0
M  V30 1157 H 113.052 2.83021 3.04749 0
M  V30 1158 H 111.629 1.07506 3.57067 0
M  V30 1159 N 113.814 -1.1601 1.06675 0
M  V30 1160 C 115.225 -1.68235 0.809565 0
M  V30 1161 C 115.576 -1.8454 -0.666303 0
M  V30 1162 O 114.701 -1.54374 -1.5165 0
M  V30 1163 C 115.296 -3.05585 1.46299 0
M  V30 1164 C 113.855 -3.54915 1.25349 0
M  V30 1165 C 113.002 -2.30804 1.53703 0
M  V30 1166 H 115.953 -1.00318 1.22971 0
M  V30 1167 H 115.974 -3.70174 0.880431 0
M  V30 1168 H 115.486 -2.93686 2.53713 0
M  V30 1169 H 113.587 -3.72067 0.199261 0
M  V30 1170 H 113.7 -4.36774 1.9689 0
M  V30 1171 H 112.064 -2.36007 0.957739 0
M  V30 1172 H 112.847 -2.21499 2.62284 0
M  V30 1173 N 115.292 -0.849877 -1.32721 0
M  V30 1174 C 116.538 -0.451591 -1.97708 0
M  V30 1175 C 116.871 0.989175 -1.6712 0
M  V30 1176 O 116.146 1.69334 -0.956891 0
M  V30 1177 C 116.429 -0.685598 -3.53513 0
M  V30 1178 C 116.282 -2.17444 -3.93749 0
M  V30 1179 C 117.601 -0.138874 -4.39881 0
M  V30 1180 H 114.72 -0.16555 -0.718166 0
M  V30 1181 H 117.362 -1.06742 -1.57182 0
M  V30 1182 H 115.512 -0.161416 -3.88165 0
M  V30 1183 H 117.184 -2.76433 -3.693 0
M  V30 1184 H 115.427 -2.65476 -3.43081 0
M  V30 1185 H 116.098 -2.28888 -5.02309 0
M  V30 1186 H 118.574 -0.587068 -4.11938 0
M  V30 1187 H 117.45 -0.332213 -5.47894 0
M  V30 1188 H 117.711 0.95806 -4.31594 0
M  V30 1189 N 116.77 1.45427 -0.607355 0
M  V30 1190 C 117.995 2.07124 -0.107006 0
M  V30 1191 C 118.42 1.44906 1.19933 0
M  V30 1192 O 117.778 0.541687 1.73019 0
M  V30 1193 C 117.826 3.60595 0.0194119 0
M  V30 1194 O 116.93 3.98285 1.0697 0
M  V30 1195 H 116.271 0.659868 -0.0739597 0
M  V30 1196 H 118.801 1.86683 -0.837297 0
M  V30 1197 H 118.811 4.07419 0.2177 0
M  V30 1198 H 117.486 4.05266 -0.934453 0
M  V30 1199 H 116.063 3.63133 0.847889 0
M  V30 1200 N 118.248 0.346503 1.53744 0
M  V30 1201 C 119.497 -0.250122 2.00143 0
M  V30 1202 C 119.81 -1.51418 1.23822 0
M  V30 1203 O 121.016 -2.18823 1.60713 0
M  V30 1204 C 119.472 -0.496252 3.56462 0
M  V30 1205 C 119.08 0.752077 4.41642 0
M  V30 1206 C 120.824 -1.05157 4.11269 0
M  V30 1207 C 118.731 0.476583 5.89477 0
M  V30 1208 H 117.661 -0.0972409 0.747703 0
M  V30 1209 H 120.312 0.46229 1.77581 0
M  V30 1210 H 118.694 -1.26944 3.75102 0
M  V30 1211 H 119.868 1.5266 4.34778 0
M  V30 1212 H 118.183 1.22925 3.97842 0
M  V30 1213 H 120.78 -1.27269 5.19333 0
M  V30 1214 H 121.123 -2.00799 3.64672 0
M  V30 1215 H 121.656 -0.339019 3.96353 0
M  V30 1216 H 118.395 1.4028 6.40314 0
M  V30 1217 H 117.915 -0.259794 5.99237 0
M  V30 1218 H 119.594 0.0949315 6.4693 0
M  V30 1219 N 119.726 -1.57421 0.075193 0
M  V30 1220 C 120.689 -2.11791 -0.876203 0
M  V30 1221 C 121.689 -1.04268 -1.22412 0
M  V30 1222 O 122.879 -1.30242 -1.15684 0
M  V30 1223 C 120.011 -2.62207 -2.17854 0
M  V30 1224 H 121.204 -2.9716 -0.40444 0
M  V30 1225 H 118.757 -1.55333 -0.173557 0
M  V30 1226 H 119.492 -1.803 -2.6956 0
M  V30 1227 H 119.277 -3.40802 -1.93897 0
M  V30 1228 H 120.767 -3.04335 -2.85955 0
M  V30 1229 N 121.204 0.198386 -1.56346 0
M  V30 1230 C 122.432 0.935572 -1.84539 0
M  V30 1231 C 122.847 1.76989 -0.657281 0
M  V30 1232 O 122.204 1.78626 0.374043 0
M  V30 1233 C 122.255 1.8344 -3.11499 0
M  V30 1234 O 121.976 1.03377 -4.25728 0
M  V30 1235 C 123.477 2.68355 -3.52846 0
M  V30 1236 H 120.697 0.273126 -0.612897 0
M  V30 1237 H 123.241 0.20663 -2.03453 0
M  V30 1238 H 121.396 2.51701 -2.94492 0
M  V30 1239 H 121.81 1.64599 -4.98003 0
M  V30 1240 H 123.284 3.27085 -4.44657 0
M  V30 1241 H 123.761 3.41901 -2.75681 0
M  V30 1242 H 124.367 2.05471 -3.72373 0
M  V30 1243 N 122.682 1.50554 0.465978 0
M  V30 1244 C 123.645 1.69233 1.54574 0
M  V30 1245 C 124.645 0.562901 1.50626 0
M  V30 1246 O 125.835 0.830016 1.53155 0
M  V30 1247 C 122.967 1.7223 2.94193 0
M  V30 1248 H 124.16 2.65571 1.39327 0
M  V30 1249 H 121.713 1.40111 0.692711 0
M  V30 1250 H 122.448 0.77603 3.14878 0
M  V30 1251 H 122.233 2.54285 2.98466 0
M  V30 1252 H 123.723 1.88618 3.72576 0
M  V30 1253 N 124.16 -0.719506 1.40217 0
M  V30 1254 C 125.407 -1.47933 1.38283 0
M  V30 1255 C 125.735 -1.94493 -0.0161536 0
M  V30 1256 O 124.99 -1.68224 -0.999956 0
M  V30 1257 C 125.289 -2.72271 2.31524 0
M  V30 1258 C 124.955 -2.44496 3.78857 0
M  V30 1259 C 123.617 -2.36631 4.18998 0
M  V30 1260 C 125.969 -2.21104 4.71977 0
M  V30 1261 C 123.297 -2.03437 5.503 0
M  V30 1262 C 125.649 -1.89423 6.03574 0
M  V30 1263 C 124.313 -1.80038 6.42762 0
M  V30 1264 H 123.583 -0.541325 0.506012 0
M  V30 1265 H 126.23 -0.824502 1.72842 0
M  V30 1266 H 124.535 -3.42572 1.90137 0
M  V30 1267 H 126.232 -3.30348 2.27313 0
M  V30 1268 H 122.822 -2.51503 3.47051 0
M  V30 1269 H 127.006 -2.26139 4.41786 0
M  V30 1270 H 122.262 -1.94705 5.79569 0
M  V30 1271 H 126.436 -1.70336 6.75247 0
M  V30 1272 H 124.063 -1.54083 7.44421 0
M  V30 1273 N 125.638 -1.25649 -0.95132 0
M  V30 1274 C 126.601 -1.06399 -2.03007 0
M  V30 1275 C 127.601 -0.0156794 -1.60792 0
M  V30 1276 O 128.791 -0.25817 -1.72276 0
M  V30 1277 C 125.923 -0.616184 -3.35285 0
M  V30 1278 H 127.116 -2.02164 -2.21517 0
M  V30 1279 H 124.669 -1.08103 -1.12887 0
M  V30 1280 H 125.404 0.343917 -3.22471 0
M  V30 1281 H 125.189 -1.37301 -3.67275 0
M  V30 1282 H 126.679 -0.503032 -4.14559 0
M  V30 1283 N 127.117 1.15442 -1.07289 0
M  V30 1284 C 128.05 2.19135 -0.636798 0
M  V30 1285 C 129.028 1.58884 0.34562 0
M  V30 1286 O 130.212 1.86805 0.252195 0
M  V30 1287 C 127.339 3.38638 0.0650014 0
M  V30 1288 C 126.385 4.17412 -0.87576 0
M  V30 1289 S 127.218 4.79882 -2.37642 0
M  V30 1290 C 128.374 6.02753 -1.6864 0
M  V30 1291 H 128.607 2.55787 -1.51526 0
M  V30 1292 H 126.14 1.26394 -0.886793 0
M  V30 1293 H 128.098 4.07873 0.463664 0
M  V30 1294 H 126.759 3.00331 0.919801 0
M  V30 1295 H 125.952 5.02909 -0.33143 0
M  V30 1296 H 125.554 3.53722 -1.21478 0
M  V30 1297 H 127.846 6.70113 -0.997753 0
M  V30 1298 H 128.789 6.61754 -2.51967 0
M  V30 1299 H 129.197 5.52355 -1.16465 0
M  V30 1300 N 128.595 0.856903 1.32268 0
M  V30 1301 C 129.525 0.31858 2.31316 0
M  V30 1302 C 130.506 -0.583487 1.59779 0
M  V30 1303 O 131.691 -0.503259 1.87566 0
M  V30 1304 C 128.821 -0.491979 3.43798 0
M  V30 1305 C 127.775 0.315849 4.26833 0
M  V30 1306 C 127.101 -0.619586 5.31098 0
M  V30 1307 C 128.401 1.54282 4.98993 0
M  V30 1308 H 130.095 1.14621 2.76591 0
M  V30 1309 H 127.641 0.552613 1.32974 0
M  V30 1310 H 129.594 -0.879012 4.1213 0
M  V30 1311 H 128.318 -1.35299 2.97257 0
M  V30 1312 H 126.977 0.684664 3.6015 0
M  V30 1313 H 126.625 -1.47751 4.8081 0
M  V30 1314 H 126.325 -0.0830621 5.87541 0
M  V30 1315 H 127.849 -1.00375 6.02293 0
M  V30 1316 H 129.263 1.22796 5.59995 0
M  V30 1317 H 127.66 2.01745 5.65172 0
M  V30 1318 H 128.73 2.30285 4.26728 0
M  V30 1319 N 130.073 -1.45103 0.615059 0
M  V30 1320 C 131.298 -2.07064 0.117988 0
M  V30 1321 C 131.723 -1.4554 -1.19163 0
M  V30 1322 O 131.081 -0.550855 -1.72729 0
M  V30 1323 C 131.129 -3.606 -0.000288387 0
M  V30 1324 O 130.233 -3.98847 -1.04856 0
M  V30 1325 H 129.574 -0.659467 0.0774581 0
M  V30 1326 H 132.104 -1.86236 0.847186 0
M  V30 1327 H 132.114 -4.07529 -0.196091 0
M  V30 1328 H 130.789 -4.04765 0.955932 0
M  V30 1329 H 129.366 -3.63577 -0.828619 0
M  V30 1330 N 131.551 -0.354651 -1.53558 0
M  V30 1331 C 132.481 0.489091 -2.2832 0
M  V30 1332 C 133.462 1.09324 -1.30316 0
M  V30 1333 O 134.647 1.11255 -1.59173 0
M  V30 1334 C 131.777 1.63456 -3.0643 0
M  V30 1335 C 130.731 1.1582 -4.12031 0
M  V30 1336 C 130.057 2.39305 -4.7816 0
M  V30 1337 C 131.357 0.250731 -5.21698 0
M  V30 1338 H 133.051 -0.134614 -2.99097 0
M  V30 1339 H 130.597 -0.0661826 -1.43848 0
M  V30 1340 H 132.55 2.23136 -3.57475 0
M  V30 1341 H 131.274 2.28533 -2.33325 0
M  V30 1342 H 129.933 0.584146 -3.61916 0
M  V30 1343 H 129.581 3.02814 -4.01637 0
M  V30 1344 H 129.281 2.08109 -5.49513 0
M  V30 1345 H 130.805 2.99691 -5.31994 0
M  V30 1346 H 132.219 0.754695 -5.68311 0
M  V30 1347 H 130.616 0.0301468 -6.00092 0
M  V30 1348 H 131.686 -0.710125 -4.79672 0
M  V30 1349 N 133.029 1.57378 -0.0835403 0
M  V30 1350 C 134.277 1.93547 0.581718 0
M  V30 1351 C 134.598 0.96524 1.69435 0
M  V30 1352 O 133.868 0.0153369 1.95894 0
M  V30 1353 H 132.448 0.714521 0.217874 0
M  V30 1354 H 135.11 1.94366 -0.144158 0
M  V30 1355 H 134.206 2.95665 0.999423 0
M  V30 1356 N 134.507 -0.190092 1.56449 0
M  V30 1357 C 135.735 -0.925772 1.85033 0
M  V30 1358 C 136.15 -1.76638 0.666658 0
M  V30 1359 O 135.507 -1.78822 -0.364565 0
M  V30 1360 C 135.558 -1.81786 3.12468 0
M  V30 1361 O 135.279 -1.01118 4.26271 0
M  V30 1362 C 136.78 -2.6648 3.54265 0
M  V30 1363 H 134 -0.269872 0.614337 0
M  V30 1364 H 136.544 -0.195837 2.0356 0
M  V30 1365 H 134.699 -2.50136 2.95822 0
M  V30 1366 H 135.113 -1.61956 4.98869 0
M  V30 1367 H 136.587 -3.24722 4.46385 0
M  V30 1368 H 137.064 -3.40434 2.77491 0
M  V30 1369 H 137.67 -2.03493 3.73458 0
M  V30 1370 N 135.985 -1.50799 -0.457987 0
M  V30 1371 C 136.932 -1.70617 -1.5543 0
M  V30 1372 C 137.902 -0.547562 -1.56815 0
M  V30 1373 O 139.087 -0.779647 -1.74144 0
M  V30 1374 C 136.227 -1.81831 -2.93311 0
M  V30 1375 C 135.34 -3.09278 -3.01615 0
M  V30 1376 C 134.475 -3.11209 -4.30491 0
M  V30 1377 C 133.514 -4.33055 -4.32585 0
M  V30 1378 N 132.651 -4.32652 -5.52952 0
M  V30 1379 H 137.491 -2.64207 -1.37836 0
M  V30 1380 H 135.028 -1.30959 -0.669937 0
M  V30 1381 H 136.986 -1.86314 -3.73287 0
M  V30 1382 H 135.616 -0.916685 -3.0951 0
M  V30 1383 H 134.668 -3.14203 -2.1443 0
M  V30 1384 H 135.98 -3.99233 -2.99022 0
M  V30 1385 H 135.134 -3.14494 -5.18824 0
M  V30 1386 H 133.873 -2.19106 -4.35711 0
M  V30 1387 H 132.878 -4.29969 -3.42647 0
M  V30 1388 H 134.103 -5.264 -4.29046 0
M  V30 1389 H 132.049 -3.43409 -5.58933 0
M  V30 1390 H 131.966 -5.16392 -5.52155 0
M  V30 1391 H 133.234 -4.40101 -6.43375 0
M  V30 1392 N 137.463 0.71206 -1.40597 0
M  V30 1393 C 138.426 1.80785 -1.40888 0
M  V30 1394 C 139.426 1.57937 -0.302103 0
M  V30 1395 O 140.616 1.64913 -0.561182 0
M  V30 1396 C 137.748 3.18927 -1.20409 0
M  V30 1397 H 138.941 1.81924 -2.38419 0
M  V30 1398 H 136.494 0.91805 -1.26497 0
M  V30 1399 H 137.229 3.23436 -0.236522 0
M  V30 1400 H 137.014 3.36911 -2.00582 0
M  V30 1401 H 138.504 3.98949 -1.23408 0
M  V30 1402 N 138.941 1.26152 0.944643 0
M  V30 1403 C 140.218 1.02247 1.66748 0
M  V30 1404 C 140.598 -0.448202 2.06287 0
M  V30 1405 O 139.946 -1.42779 1.78399 0
M  V30 1406 C 140.156 1.96788 2.88228 0
M  V30 1407 C 141.504 2.25201 3.59958 0
M  V30 1408 O 142.528 1.94626 2.98327 0
M  V30 1409 O 141.387 2.77242 4.70956 0
M  V30 1410 H 138.481 0.388517 0.730057 0
M  V30 1411 H 141.027 1.37348 0.99668 0
M  V30 1412 H 139.799 2.96047 2.55875 0
M  V30 1413 H 139.422 1.62145 3.63035 0
M  V30 1414 N 140.419 -1.14872 1.07899 0
M  V30 1415 C 141.647 -1.89661 0.82683 0
M  V30 1416 C 142.062 -1.78312 -0.620519 0
M  V30 1417 O 141.419 -1.13888 -1.42604 0
M  V30 1418 C 141.47 -3.39817 1.23316 0
M  V30 1419 O 141.191 -3.50845 2.62372 0
M  V30 1420 C 142.692 -4.31615 1.0111 0
M  V30 1421 H 139.912 -0.60092 0.298557 0
M  V30 1422 H 142.456 -1.4551 1.43691 0
M  V30 1423 H 140.611 -3.8161 0.667286 0
M  V30 1424 H 141.025 -4.44076 2.79101 0
M  V30 1425 H 142.499 -5.35367 1.34486 0
M  V30 1426 H 142.976 -4.39169 -0.0522168 0
M  V30 1427 H 143.582 -3.95572 1.56215 0
M  V30 1428 N 141.898 -0.863906 -1.31812 0
M  V30 1429 C 142.848 -0.286898 -2.26188 0
M  V30 1430 C 143.832 0.572577 -1.50367 0
M  V30 1431 O 145.024 0.420447 -1.71934 0
M  V30 1432 C 142.153 0.515849 -3.39402 0
M  V30 1433 C 141.239 -0.356531 -4.22599 0
M  V30 1434 N 141.63 -1.44716 -4.84656 0
M  V30 1435 C 139.928 -0.147898 -4.45755 0
M  V30 1436 C 140.629 -1.98462 -5.46798 0
M  V30 1437 N 139.605 -1.28247 -5.28255 0
M  V30 1438 H 143.407 -1.12055 -2.717 0
M  V30 1439 H 140.921 -0.711012 -1.46008 0
M  V30 1440 H 142.918 0.945701 -4.06032 0
M  V30 1441 H 141.578 1.34718 -2.95434 0
M  V30 1442 H 142.589 -1.83008 -4.84488 0
M  V30 1443 H 139.266 0.647973 -4.12441 0
M  V30 1444 H 140.656 -2.89932 -6.06126 0
M  V30 1445 N 143.376 1.44774 -0.622745 0
M  V30 1446 C 144.653 1.95522 -0.0551974 0
M  V30 1447 C 145.033 1.5649 1.41683 0
M  V30 1448 O 144.381 0.834848 2.12703 0
M  V30 1449 C 144.591 3.4796 -0.269242 0
M  V30 1450 C 145.939 4.24306 -0.158014 0
M  V30 1451 O 146.963 3.55637 -0.200162 0
M  V30 1452 O 145.822 5.46471 -0.0558693 0
M  V30 1453 H 142.916 0.826556 0.0271015 0
M  V30 1454 H 145.462 1.54866 -0.693864 0
M  V30 1455 H 144.234 3.6939 -1.29099 0
M  V30 1456 H 143.857 3.95543 0.403966 0
M  V30 1457 N 144.854 0.36279 1.53368 0
M  V30 1458 C 145.764 -0.492994 2.29362 0
M  V30 1459 C 146.78 -1.09507 1.35219 0
M  V30 1460 O 147.956 -1.10662 1.68273 0
M  V30 1461 C 145.021 -1.61855 3.066 0
M  V30 1462 C 144.082 -1.04429 4.16405 0
M  V30 1463 C 143.315 -2.11621 4.89951 0
M  V30 1464 O 143.538 -3.32684 4.63333 0
M  V30 1465 O 142.472 -1.74835 5.75948 0
M  V30 1466 H 146.298 0.125331 3.03441 0
M  V30 1467 H 143.883 0.127253 1.48857 0
M  V30 1468 H 145.765 -2.27302 3.54841 0
M  V30 1469 H 144.44 -2.22233 2.3536 0
M  V30 1470 H 143.347 -0.353819 3.72423 0
M  V30 1471 H 144.68 -0.485113 4.89804 0
M  V30 1472 N 146.332 -1.57332 0.0918853 0
M  V30 1473 C 147.581 -1.93412 -0.572249 0
M  V30 1474 C 147.894 -0.975515 -1.69538 0
M  V30 1475 O 149.1 -1.22991 -2.42045 0
M  V30 1476 C 147.556 -3.43648 -1.0693 0
M  V30 1477 C 147.164 -4.47994 0.0239049 0
M  V30 1478 C 148.908 -3.88695 -1.70635 0
M  V30 1479 C 146.815 -5.89381 -0.488319 0
M  V30 1480 H 145.745 -0.721939 -0.217532 0
M  V30 1481 H 148.396 -1.82735 0.167369 0
M  V30 1482 H 146.778 -3.49466 -1.8625 0
M  V30 1483 H 147.952 -4.53815 0.799277 0
M  V30 1484 H 146.267 -4.12536 0.565946 0
M  V30 1485 H 148.864 -4.91725 -2.10025 0
M  V30 1486 H 149.207 -3.27166 -2.57426 0
M  V30 1487 H 149.74 -3.85564 -0.979023 0
M  V30 1488 H 146.479 -6.54602 0.342906 0
M  V30 1489 H 145.999 -5.87037 -1.23077 0
M  V30 1490 H 147.678 -6.39863 -0.958317 0
M  V30 1491 N 147.81 0.181792 -1.56548 0
M  V30 1492 C 148.74 1.22765 -1.98623 0
M  V30 1493 C 149.721 1.46747 -0.860189 0
M  V30 1494 O 150.906 1.58259 -1.12551 0
M  V30 1495 C 148.036 2.56894 -2.33715 0
M  V30 1496 C 146.99 2.475 -3.49182 0
M  V30 1497 C 146.316 3.86023 -3.69986 0
M  V30 1498 C 147.616 1.98866 -4.82959 0
M  V30 1499 H 149.31 0.877942 -2.86239 0
M  V30 1500 H 146.856 0.42088 -1.37712 0
M  V30 1501 H 148.809 3.30253 -2.61746 0
M  V30 1502 H 147.533 2.93632 -1.42997 0
M  V30 1503 H 146.192 1.76596 -3.21262 0
M  V30 1504 H 145.84 4.20136 -2.76576 0
M  V30 1505 H 145.54 3.80609 -4.47672 0
M  V30 1506 H 147.064 4.60984 -4.00407 0
M  V30 1507 H 148.478 2.61992 -5.09934 0
M  V30 1508 H 146.875 2.04424 -5.64208 0
M  V30 1509 H 147.945 0.942465 -4.75653 0
M  V30 1510 N 149.288 1.51039 0.449983 0
M  V30 1511 C 150.198 1.74261 1.57067 0
M  V30 1512 C 151.214 0.626363 1.62335 0
M  V30 1513 O 152.39 0.907162 1.79812 0
M  V30 1514 C 149.455 1.85114 2.93144 0
M  V30 1515 C 148.516 3.0893 2.98095 0
M  V30 1516 C 147.749 3.19256 4.27681 0
M  V30 1517 O 147.972 2.35835 5.19363 0
M  V30 1518 O 146.906 4.12144 4.38658 0
M  V30 1519 H 150.732 2.69303 1.40391 0
M  V30 1520 H 148.317 1.35389 0.631688 0
M  V30 1521 H 150.199 1.94311 3.73926 0
M  V30 1522 H 148.874 0.932588 3.09975 0
M  V30 1523 H 147.781 3.0522 2.16314 0
M  V30 1524 H 149.114 4.00433 2.86206 0
M  V30 1525 N 150.766 -0.704594 1.40972 0
M  V30 1526 C 152.014 -1.46169 1.39568 0
M  V30 1527 C 152.335 -1.95 0.00253745 0
M  V30 1528 O 151.605 -1.71095 -0.954114 0
M  V30 1529 H 150.185 -0.542326 0.513704 0
M  V30 1530 H 152.847 -0.834553 1.76128 0
M  V30 1531 H 151.943 -2.32922 2.07735 0
M  V30 1532 N 152.244 -1.26651 -0.937939 0
M  V30 1533 C 153.174 -1.10993 -2.05433 0
M  V30 1534 C 154.155 -0.0142161 -1.70094 0
M  V30 1535 O 155.34 -0.186837 -1.93299 0
M  V30 1536 C 152.47 -0.745561 -3.39203 0
M  V30 1537 C 151.424 -1.79337 -3.88616 0
M  V30 1538 C 150.75 -1.28324 -5.19073 0
M  V30 1539 C 152.05 -3.19553 -4.13138 0
M  V30 1540 H 153.744 -2.0438 -2.1879 0
M  V30 1541 H 151.29 -0.984041 -1.05131 0
M  V30 1542 H 153.243 -0.622888 -4.16771 0
M  V30 1543 H 151.967 0.22401 -3.25831 0
M  V30 1544 H 150.626 -1.90477 -3.13231 0
M  V30 1545 H 150.274 -0.303414 -5.02084 0
M  V30 1546 H 149.974 -1.98369 -5.53103 0
M  V30 1547 H 151.498 -1.1733 -5.99221 0
M  V30 1548 H 152.912 -3.11471 -4.81309 0
M  V30 1549 H 151.309 -3.87218 -4.58457 0
M  V30 1550 H 152.379 -3.65368 -3.18801 0
M  V30 1551 N 153.722 1.14298 -1.08507 0
M  V30 1552 C 154.67 2.21483 -0.710483 0
M  V30 1553 C 155.664 1.66998 0.284234 0
M  V30 1554 O 156.87 1.79401 0.146692 0
M  V30 1555 H 153.245 0.721578 -0.211729 0
M  V30 1556 H 155.216 2.50348 -1.62384 0
M  V30 1557 C 153.965 3.4743 -0.137007 0
M  V30 1558 H 153.288 3.89686 -0.893592 0
M  V30 1559 H 154.728 4.2391 0.0872789 0
M  V30 1560 C 153.187 3.17548 1.12538 0
M  V30 1561 O 153.717 3.35437 2.21009 0
M  V30 1562 N 151.923 2.71499 1.03617 0
M  V30 1563 H 151.47 2.57143 0.153403 0
M  V30 1564 H 151.428 2.51881 1.88158 0
M  V30 1565 N 155.201 0.870884 1.31352 0
M  V30 1566 C 156.448 0.482273 1.96673 0
M  V30 1567 C 156.776 -0.965638 1.68836 0
M  V30 1568 O 156.031 -1.69514 0.977937 0
M  V30 1569 C 156.33 0.687157 3.50732 0
M  V30 1570 C 155.996 2.108 3.9859 0
M  V30 1571 C 154.658 2.49656 4.1137 0
M  V30 1572 C 157.01 3.03459 4.23748 0
M  V30 1573 C 154.338 3.80412 4.46659 0
M  V30 1574 C 156.69 4.3373 4.60501 0
M  V30 1575 C 155.354 4.725 4.71487 0
M  V30 1576 H 154.624 0.176476 0.719679 0
M  V30 1577 H 157.271 1.10405 1.56471 0
M  V30 1578 H 155.576 -0.0177476 3.91796 0
M  V30 1579 H 157.273 0.366284 3.99324 0
M  V30 1580 H 153.863 1.79633 3.8914 0
M  V30 1581 H 158.047 2.74665 4.13368 0
M  V30 1582 H 153.303 4.1021 4.53362 0
M  V30 1583 H 157.477 5.05578 4.78919 0
M  V30 1584 H 155.104 5.73859 4.98588 0
M  V30 1585 N 156.679 -1.44442 0.630414 0
M  V30 1586 C 157.627 -2.32437 -0.0871428 0
M  V30 1587 C 158.621 -1.47304 -0.836525 0
M  V30 1588 O 159.827 -1.63653 -0.749506 0
M  V30 1589 H 156.202 -0.750533 -0.0469495 0
M  V30 1590 H 158.173 -2.90709 0.673096 0
M  V30 1591 C 156.922 -3.31288 -1.05563 0
M  V30 1592 H 156.245 -3.96805 -0.488426 0
M  V30 1593 H 157.685 -3.9554 -1.52721 0
M  V30 1594 C 156.144 -2.6016 -2.14052 0
M  V30 1595 O 156.674 -2.39997 -3.22124 0
M  V30 1596 N 154.88 -2.19911 -1.89967 0
M  V30 1597 H 154.427 -2.36509 -1.02085 0
M  V30 1598 H 154.385 -1.72646 -2.62756 0
M  V30 1599 N 158.157 -0.370918 -1.53173 0
M  V30 1600 C 159.087 0.464847 -2.28826 0
M  V30 1601 C 160.068 1.07936 -1.31468 0
M  V30 1602 O 161.253 1.0956 -1.60344 0
M  V30 1603 C 158.383 1.60196 -3.08147 0
M  V30 1604 C 157.337 1.11443 -4.13237 0
M  V30 1605 C 156.663 2.3422 -4.80672 0
M  V30 1606 C 157.963 0.195384 -5.21934 0
M  V30 1607 H 159.657 -0.166329 -2.98938 0
M  V30 1608 H 157.203 -0.0814359 -1.4377 0
M  V30 1609 H 159.156 2.19332 -3.59822 0
M  V30 1610 H 157.88 2.26045 -2.35735 0
M  V30 1611 H 156.539 0.545727 -3.62515 0
M  V30 1612 H 156.187 2.98537 -4.04827 0
M  V30 1613 H 155.887 2.02269 -5.51689 0
M  V30 1614 H 157.411 2.94032 -5.35143 0
M  V30 1615 H 158.825 0.694375 -5.69079 0
M  V30 1616 H 157.222 -0.0335027 -6.00091 0
M  V30 1617 H 158.292 -0.760961 -4.78892 0
M  V30 1618 N 159.635 1.57281 -0.100228 0
M  V30 1619 C 160.863 1.98879 0.570509 0
M  V30 1620 C 161.278 0.979476 1.61405 0
M  V30 1621 O 160.635 -0.0302288 1.82475 0
M  V30 1622 C 160.686 3.4052 1.2136 0
M  V30 1623 O 160.407 4.37588 0.211786 0
M  V30 1624 C 161.908 3.97149 1.96945 0
M  V30 1625 H 159.128 0.653428 0.152555 0
M  V30 1626 H 161.672 2.03697 -0.18103 0
M  V30 1627 H 159.827 3.367 1.91603 0
M  V30 1628 H 160.241 5.20118 0.676607 0
M  V30 1629 H 161.715 4.98393 2.37294 0
M  V30 1630 H 162.192 3.3525 2.83733 0
M  V30 1631 H 162.798 4.04458 1.31506 0
M  V30 1632 N 161.113 -0.173488 1.56642 0
M  V30 1633 C 162.023 -1.23482 1.99473 0
M  V30 1634 C 163.039 -1.48567 0.905752 0
M  V30 1635 O 164.215 -1.60758 1.21321 0
M  V30 1636 C 161.28 -2.55444 2.34413 0
M  V30 1637 C 160.341 -2.38241 3.57127 0
M  V30 1638 C 159.574 -3.63909 3.90392 0
M  V30 1639 O 159.797 -4.68996 3.24653 0
M  V30 1640 O 158.731 -3.58149 4.83749 0
M  V30 1641 H 162.557 -0.901279 2.90018 0
M  V30 1642 H 160.142 -0.380185 1.44482 0
M  V30 1643 H 162.024 -3.33292 2.57865 0
M  V30 1644 H 160.699 -2.88382 1.4703 0
M  V30 1645 H 159.606 -1.58431 3.38896 0
M  V30 1646 H 160.939 -2.10228 4.45045 0
M  V30 1647 N 162.591 -1.51276 -0.441967 0
M  V30 1648 C 163.84 -1.6295 -1.18871 0
M  V30 1649 C 164.153 -0.349312 -1.92456 0
M  V30 1650 O 165.359 -0.345355 -2.69295 0
M  V30 1651 C 163.815 -2.87759 -2.16155 0
M  V30 1652 C 163.423 -4.22764 -1.48239 0
M  V30 1653 C 165.167 -3.08788 -2.91291 0
M  V30 1654 C 163.074 -5.38728 -2.4398 0
M  V30 1655 H 162.004 -0.606913 -0.447406 0
M  V30 1656 H 164.655 -1.77739 -0.456205 0
M  V30 1657 H 163.037 -2.66593 -2.92821 0
M  V30 1658 H 164.211 -4.54293 -0.771635 0
M  V30 1659 H 162.526 -4.07575 -0.852741 0
M  V30 1660 H 165.123 -3.92599 -3.63002 0
M  V30 1661 H 165.466 -2.21679 -3.5237 0
M  V30 1662 H 165.999 -3.30272 -2.21733 0
M  V30 1663 H 162.738 -6.28082 -1.87598 0
M  V30 1664 H 162.258 -5.1158 -3.13123 0
M  V30 1665 H 163.937 -5.70489 -3.05207 0
M  V30 1666 N 164.069 0.697108 -1.41344 0
M  V30 1667 C 165.48 1.27697 -1.36199 0
M  V30 1668 C 165.831 1.9615 -0.0443463 0
M  V30 1669 O 164.956 1.98689 0.857419 0
M  V30 1670 C 165.551 2.32223 -2.46694 0
M  V30 1671 C 164.11 2.8579 -2.44952 0
M  V30 1672 C 163.257 1.59807 -2.26621 0
M  V30 1673 H 166.208 0.491968 -1.50882 0
M  V30 1674 H 166.229 3.1348 -2.15664 0
M  V30 1675 H 165.741 1.82373 -3.42581 0
M  V30 1676 H 163.842 3.3982 -1.52817 0
M  V30 1677 H 163.955 3.36325 -3.41207 0
M  V30 1678 H 162.319 1.8556 -1.7447 0
M  V30 1679 H 163.102 1.11956 -3.24532 0
M  V30 1680 N 165.547 1.27147 0.931209 0
M  V30 1681 C 166.457 1.11372 2.06478 0
M  V30 1682 C 167.473 0.044645 1.73943 0
M  V30 1683 O 168.649 0.250417 1.99837 0
M  V30 1684 C 165.714 0.758838 3.38294 0
M  V30 1685 C 164.775 1.90841 3.84549 0
M  V30 1686 C 164.008 1.57036 5.10074 0
M  V30 1687 O 164.231 0.476645 5.68405 0
M  V30 1688 O 163.165 2.40839 5.51616 0
M  V30 1689 H 166.991 2.06493 2.22698 0
M  V30 1690 H 164.576 1.06301 1.04978 0
M  V30 1691 H 166.458 0.574098 4.17471 0
M  V30 1692 H 165.133 -0.162879 3.2329 0
M  V30 1693 H 164.04 2.14819 3.06274 0
M  V30 1694 H 165.373 2.81021 4.04089 0
M  V30 1695 N 167.025 -1.13721 1.09112 0
M  V30 1696 C 167.988 -2.17222 0.731241 0
M  V30 1697 C 168.988 -1.59035 -0.237566 0
M  V30 1698 O 170.178 -1.74192 -0.0161704 0
M  V30 1699 C 167.31 -3.40804 0.0808443 0
M  V30 1700 H 168.503 -2.50573 1.64783 0
M  V30 1701 H 166.056 -1.28493 0.889897 0
M  V30 1702 H 166.791 -3.1304 -0.847127 0
M  V30 1703 H 166.576 -3.84306 0.777896 0
M  V30 1704 H 168.066 -4.1731 -0.155657 0
M  V30 1705 N 168.503 -0.877838 -1.30888 0
M  V30 1706 C 169.435 -0.296607 -2.27273 0
M  V30 1707 C 170.448 0.544799 -1.53414 0
M  V30 1708 O 171.637 0.365511 -1.74718 0
M  V30 1709 C 168.737 0.597481 -3.33592 0
M  V30 1710 C 167.91 -0.213251 -4.3688 0
M  V30 1711 C 166.969 0.610208 -5.2265 0
M  V30 1712 O 165.995 0.035441 -5.69189 0
M  V30 1713 N 167.197 1.92071 -5.47804 0
M  V30 1714 H 169.962 -1.12492 -2.77787 0
M  V30 1715 H 167.523 -0.740105 -1.43993 0
M  V30 1716 H 169.515 1.15425 -3.87891 0
M  V30 1717 H 168.085 1.32647 -2.83061 0
M  V30 1718 H 167.305 -0.951466 -3.82545 0
M  V30 1719 H 168.593 -0.769262 -5.02951 0
M  V30 1720 H 167.991 2.4107 -5.11763 0
M  V30 1721 H 166.548 2.42508 -6.05007 0
M  V30 1722 N 169.982 1.44106 -0.638065 0
M  V30 1723 C 171.231 2.01194 -0.142744 0
M  V30 1724 C 171.544 1.50835 1.24532 0
M  V30 1725 O 172.75 2.00096 1.83504 0
M  V30 1726 C 171.206 3.59319 -0.20442 0
M  V30 1727 C 170.814 4.18674 -1.59423 0
M  V30 1728 C 172.558 4.23854 0.234079 0
M  V30 1729 C 170.465 5.69045 -1.61065 0
M  V30 1730 H 169.395 0.752367 -0.0495998 0
M  V30 1731 H 172.046 1.65246 -0.797881 0
M  V30 1732 H 170.428 3.92598 0.517946 0
M  V30 1733 H 171.602 3.96921 -2.34074 0
M  V30 1734 H 169.917 3.66453 -1.97741 0
M  V30 1735 H 172.514 5.34155 0.241443 0
M  V30 1736 H 172.857 3.96688 1.2627 0
M  V30 1737 H 173.39 3.95403 -0.436025 0
M  V30 1738 H 170.129 6.00956 -2.61787 0
M  V30 1739 H 169.649 5.929 -0.90718 0
M  V30 1740 H 171.328 6.32809 -1.34766 0
M  V30 1741 N 171.46 0.379036 1.52974 0
M  V30 1742 C 172.41 -0.477772 2.22938 0
M  V30 1743 C 173.394 -1.03792 1.22948 0
M  V30 1744 O 174.586 -0.965725 1.48333 0
M  V30 1745 C 171.715 -1.60994 3.03209 0
M  V30 1746 C 170.801 -1.06203 4.10587 0
M  V30 1747 N 171.192 -0.238214 5.05239 0
M  V30 1748 C 169.49 -1.33554 4.25534 0
M  V30 1749 C 170.191 0.0633235 5.81666 0
M  V30 1750 N 169.167 -0.537901 5.40932 0
M  V30 1751 H 172.969 0.158295 2.93473 0
M  V30 1752 H 170.483 0.187778 1.61311 0
M  V30 1753 H 172.48 -2.23607 3.5186 0
M  V30 1754 H 171.14 -2.24893 2.34207 0
M  V30 1755 H 172.151 0.123695 5.17752 0
M  V30 1756 H 168.828 -1.97632 3.6776 0
M  V30 1757 H 170.218 0.730161 6.67921 0
M  V30 1758 N 172.938 -1.57226 0.108567 0
M  V30 1759 C 173.848 -2.18292 -0.859401 0
M  V30 1760 C 174.864 -1.15612 -1.30038 0
M  V30 1761 O 176.04 -1.48039 -1.36552 0
M  V30 1762 C 173.105 -2.762 -2.09558 0
M  V30 1763 C 172.166 -3.93881 -1.70752 0
M  V30 1764 C 171.399 -4.49018 -2.88477 0
M  V30 1765 O 171.622 -4.03068 -4.036 0
M  V30 1766 O 170.556 -5.39852 -2.66164 0
M  V30 1767 H 174.382 -3.01441 -0.369769 0
M  V30 1768 H 171.967 -1.48945 -0.1165 0
M  V30 1769 H 173.849 -3.13156 -2.81978 0
M  V30 1770 H 172.524 -1.96089 -2.57548 0
M  V30 1771 H 171.431 -3.61713 -0.954714 0
M  V30 1772 H 172.764 -4.75396 -1.27513 0
M  V30 1773 N 174.416 0.165178 -1.56732 0
M  V30 1774 C 175.664 0.879068 -1.8198 0
M  V30 1775 C 175.985 1.82514 -0.686561 0
M  V30 1776 O 175.255 1.93694 0.293146 0
M  V30 1777 H 173.835 0.327608 -0.671329 0
M  V30 1778 H 176.497 0.163526 -1.94213 0
M  V30 1779 H 175.593 1.45228 -2.76252 0
M  V30 1780 N 175.894 1.51508 0.433938 0
M  V30 1781 C 177.141 1.64345 1.18309 0
M  V30 1782 C 177.469 0.361315 1.91115 0
M  V30 1783 O 176.724 -0.654753 1.84422 0
M  V30 1784 C 177.023 2.79928 2.22205 0
M  V30 1785 C 176.689 4.19078 1.66387 0
M  V30 1786 C 175.351 4.56932 1.50887 0
M  V30 1787 C 177.703 5.05894 1.25381 0
M  V30 1788 C 175.031 5.79305 0.928608 0
M  V30 1789 C 177.383 6.2885 0.687823 0
M  V30 1790 C 176.047 6.65473 0.519755 0
M  V30 1791 H 175.317 0.601381 0.432923 0
M  V30 1792 H 177.964 1.85549 0.473676 0
M  V30 1793 H 176.269 2.52959 2.99197 0
M  V30 1794 H 177.966 2.87059 2.79997 0
M  V30 1795 H 174.556 3.89234 1.79428 0
M  V30 1796 H 178.74 4.77253 1.36175 0
M  V30 1797 H 173.996 6.06324 0.786186 0
M  V30 1798 H 178.17 6.95461 0.361581 0
M  V30 1799 H 175.797 7.6017 0.0679979 0
M  V30 1800 N 177.372 -0.689602 1.41712 0
M  V30 1801 C 178.304 -1.815 1.39966 0
M  V30 1802 C 179.317 -1.59995 0.300917 0
M  V30 1803 O 180.506 -1.69387 0.563039 0
M  V30 1804 C 177.606 -3.18364 1.16179 0
M  V30 1805 C 176.779 -3.66847 2.38206 0
M  V30 1806 C 175.838 -4.82398 2.10186 0
M  V30 1807 O 174.864 -4.93706 2.83272 0
M  V30 1808 N 176.066 -5.70064 1.0958 0
M  V30 1809 H 178.831 -1.83488 2.36965 0
M  V30 1810 H 176.392 -0.872149 1.36401 0
M  V30 1811 H 178.384 -3.93301 0.953756 0
M  V30 1812 H 176.954 -3.11365 0.27756 0
M  V30 1813 H 176.174 -2.82751 2.74673 0
M  V30 1814 H 177.462 -3.95978 3.19498 0
M  V30 1815 H 176.86 -5.63565 0.491019 0
M  V30 1816 H 175.417 -6.44874 0.947656 0
M  V30 1817 N 178.85 -1.27639 -0.924453 0
M  V30 1818 C 179.76 -1.12466 -2.05885 0
M  V30 1819 C 180.776 -0.053869 -1.73917 0
M  V30 1820 O 181.952 -0.261012 -1.99702 0
M  V30 1821 C 179.017 -0.776768 -3.37886 0
M  V30 1822 C 178.078 -1.92878 -3.83532 0
M  V30 1823 C 177.311 -1.59739 -5.09234 0
M  V30 1824 O 177.534 -0.506782 -5.68144 0
M  V30 1825 O 176.468 -2.43761 -5.50331 0
M  V30 1826 H 180.294 -2.07671 -2.21599 0
M  V30 1827 H 177.879 -1.06857 -1.04413 0
M  V30 1828 H 179.761 -0.596229 -4.17161 0
M  V30 1829 H 178.436 0.145732 -3.23372 0
M  V30 1830 H 177.343 -2.1644 -3.0513 0
M  V30 1831 H 178.676 -2.8316 -4.02593 0
M  V30 1832 N 180.328 1.1314 -1.09713 0
M  V30 1833 C 181.258 2.20748 -0.761102 0
M  V30 1834 C 182.239 1.68061 0.262566 0
M  V30 1835 O 183.424 1.93765 0.129977 0
M  V30 1836 C 180.554 3.46812 -0.184054 0
M  V30 1837 C 179.508 4.12606 -1.13757 0
M  V30 1838 C 178.834 5.33031 -0.422083 0
M  V30 1839 C 180.134 4.59603 -2.48118 0
M  V30 1840 H 181.828 2.49113 -1.66082 0
M  V30 1841 H 179.374 1.19734 -0.799987 0
M  V30 1842 H 181.327 4.21353 0.0631215 0
M  V30 1843 H 180.051 3.17851 0.750868 0
M  V30 1844 H 178.71 3.40036 -1.37007 0
M  V30 1845 H 178.358 5.00335 0.517072 0
M  V30 1846 H 178.058 5.77999 -1.05788 0
M  V30 1847 H 179.582 6.10325 -0.183277 0
M  V30 1848 H 180.996 5.25552 -2.29059 0
M  V30 1849 H 179.393 5.15321 -3.07514 0
M  V30 1850 H 180.463 3.73971 -3.08665 0
M  V30 1851 N 181.806 0.884767 1.30421 0
M  V30 1852 C 182.736 0.367574 2.30589 0
M  V30 1853 C 183.717 -0.549464 1.60981 0
M  V30 1854 O 184.902 -0.46336 1.88591 0
M  V30 1855 C 182.032 -0.418944 3.44764 0
M  V30 1856 C 180.986 0.406316 4.26067 0
M  V30 1857 C 180.312 -0.506793 5.32293 0
M  V30 1858 C 181.612 1.64832 4.95608 0
M  V30 1859 H 183.306 1.20462 2.74097 0
M  V30 1860 H 180.852 0.580695 1.31772 0
M  V30 1861 H 182.805 -0.791395 4.13902 0
M  V30 1862 H 181.529 -1.28964 3.0006 0
M  V30 1863 H 180.188 0.760903 3.58617 0
M  V30 1864 H 179.836 -1.37519 4.83836 0
M  V30 1865 H 179.536 0.0415828 5.87585 0
M  V30 1866 H 181.06 -0.875764 6.04287 0
M  V30 1867 H 182.474 1.34646 5.57264 0
M  V30 1868 H 180.871 2.13688 5.60765 0
M  V30 1869 H 181.941 2.39284 4.21748 0
M  V30 1870 N 183.284 -1.43765 0.645699 0
M  V30 1871 C 184.7 -1.56509 0.312591 0
M  V30 1872 C 184.9 -1.6307 -1.18365 0
M  V30 1873 O 183.956 -1.58167 -1.96824 0
M  V30 1874 C 185.269 -2.82968 1.01733 0
M  V30 1875 C 186.817 -2.96701 0.996865 0
M  V30 1876 C 187.292 -4.25982 1.68236 0
M  V30 1877 N 188.783 -4.32829 1.64964 0
M  V30 1878 C 189.518 -5.31613 2.14885 0
M  V30 1879 N 189.014 -6.36718 2.73061 0
M  V30 1880 N 190.807 -5.23217 2.05428 0
M  V30 1881 H 182.958 -1.3775 1.61675 0
M  V30 1882 H 185.221 -0.661067 0.679481 0
M  V30 1883 H 184.927 -2.84156 2.0724 0
M  V30 1884 H 184.801 -3.72957 0.564177 0
M  V30 1885 H 187.188 -2.95058 -0.0497719 0
M  V30 1886 H 187.269 -2.08022 1.48865 0
M  V30 1887 H 186.913 -4.28386 2.72852 0
M  V30 1888 H 186.843 -5.13545 1.16529 0
M  V30 1889 H 189.334 -3.57493 1.22503 0
M  V30 1890 H 189.647 -7.08401 3.08848 0
M  V30 1891 H 187.992 -6.37362 2.77118 0
M  V30 1892 H 191.183 -4.40019 1.59689 0
M  V30 1893 H 191.356 -6.00045 2.44643 0
M  V30 1894 N 184.763 -0.387143 -1.52771 0
M  V30 1895 C 185.991 0.195869 -2.05971 0
M  V30 1896 C 186.406 1.40691 -1.25903 0
M  V30 1897 O 185.763 1.79931 -0.305134 0
M  V30 1898 C 185.814 0.56812 -3.57008 0
M  V30 1899 O 185.535 -0.594803 -4.34043 0
M  V30 1900 C 187.036 1.20723 -4.26545 0
M  V30 1901 H 184.256 0.0300578 -0.670326 0
M  V30 1902 H 186.8 -0.551749 -1.96916 0
M  V30 1903 H 184.955 1.26564 -3.66143 0
M  V30 1904 H 185.369 -0.289322 -5.23701 0
M  V30 1905 H 186.843 1.41807 -5.33474 0
M  V30 1906 H 187.32 2.17395 -3.81623 0
M  V30 1907 H 187.926 0.550535 -4.21722 0
M  V30 1908 N 186.241 1.57166 -0.116904 0
M  V30 1909 C 187.171 2.18222 0.830759 0
M  V30 1910 C 188.152 1.12167 1.27877 0
M  V30 1911 O 189.337 1.40394 1.34176 0
M  V30 1912 C 186.467 2.77996 2.08172 0
M  V30 1913 C 185.421 3.89614 1.77157 0
M  V30 1914 C 184.747 4.36187 3.09265 0
M  V30 1915 C 186.047 5.1181 1.04151 0
M  V30 1916 H 187.741 2.97664 0.321992 0
M  V30 1917 H 185.287 1.4318 0.153434 0
M  V30 1918 H 187.24 3.19366 2.74924 0
M  V30 1919 H 185.964 1.9584 2.6137 0
M  V30 1920 H 184.623 3.48816 1.12796 0
M  V30 1921 H 184.271 3.50893 3.60393 0
M  V30 1922 H 183.971 5.11455 2.89288 0
M  V30 1923 H 185.495 4.80207 3.77139 0
M  V30 1924 H 186.909 5.50214 1.61052 0
M  V30 1925 H 185.306 5.92648 0.942762 0
M  V30 1926 H 186.376 4.84892 0.0279022 0
M  V30 1927 N 187.719 -0.156864 1.56817 0
M  V30 1928 C 188.667 -1.21319 1.98455 0
M  V30 1929 C 189.661 -1.45025 0.875444 0
M  V30 1930 O 190.867 -1.45435 1.0606 0
M  V30 1931 H 187.242 -0.408142 0.631605 0
M  V30 1932 H 189.213 -0.835244 2.86472 0
M  V30 1933 C 187.962 -2.54148 2.37285 0
M  V30 1934 H 187.285 -2.36733 3.22176 0
M  V30 1935 H 188.725 -3.26712 2.70251 0
M  V30 1936 C 187.184 -3.13967 1.22173 0
M  V30 1937 O 187.714 -3.98357 0.517149 0
M  V30 1938 N 185.92 -2.7327 0.988536 0
M  V30 1939 H 185.467 -2.04744 1.56326 0
M  V30 1940 H 185.425 -3.13628 0.220209 0
M  V30 1941 N 189.197 -1.51736 -0.425897 0
M  V30 1942 C 190.129 -1.70083 -1.53638 0
M  V30 1943 C 191.142 -0.581349 -1.52066 0
M  V30 1944 O 192.331 -0.856017 -1.56635 0
M  V30 1945 C 189.431 -1.71078 -2.9255 0
M  V30 1946 C 188.604 -2.99795 -3.185 0
M  V30 1947 C 187.663 -2.92825 -4.37196 0
M  V30 1948 O 186.689 -3.66756 -4.35291 0
M  V30 1949 N 187.891 -2.0946 -5.41393 0
M  V30 1950 H 190.656 -2.65882 -1.383 0
M  V30 1951 H 188.217 -1.49765 -0.614988 0
M  V30 1952 H 190.209 -1.63969 -3.69995 0
M  V30 1953 H 188.779 -0.828242 -3.01428 0
M  V30 1954 H 187.999 -3.20684 -2.2925 0
M  V30 1955 H 189.287 -3.84977 -3.32671 0
M  V30 1956 H 188.685 -1.48792 -5.45781 0
M  V30 1957 H 187.242 -2.08221 -6.17647 0
M  V30 1958 N 190.675 0.682077 -1.42076 0
M  V30 1959 C 192.086 1.26246 -1.37546 0
M  V30 1960 C 192.437 1.96092 -0.0651481 0
M  V30 1961 O 191.562 1.99587 0.836297 0
M  V30 1962 C 192.157 2.29594 -2.49143 0
M  V30 1963 C 190.716 2.83175 -2.47969 0
M  V30 1964 C 189.863 1.57395 -2.28303 0
M  V30 1965 H 192.814 0.475937 -1.51395 0
M  V30 1966 H 192.835 3.11175 -2.18976 0
M  V30 1967 H 192.347 1.78729 -3.44496 0
M  V30 1968 H 190.448 3.3818 -1.56413 0
M  V30 1969 H 190.561 3.32687 -3.44755 0
M  V30 1970 H 188.925 1.83699 -1.76428 0
M  V30 1971 H 189.708 1.08507 -3.25701 0
M  V30 1972 N 192.153 1.28127 0.917671 0
M  V30 1973 C 193.43 1.05761 1.64542 0
M  V30 1974 C 193.81 -0.404344 2.07191 0
M  V30 1975 O 193.158 -1.38963 1.81388 0
M  V30 1976 C 193.368 2.02857 2.83989 0
M  V30 1977 C 194.716 2.32786 3.551 0
M  V30 1978 O 195.74 2.0091 2.94132 0
M  V30 1979 O 194.599 2.87169 4.64969 0
M  V30 1980 H 191.693 0.403916 0.721652 0
M  V30 1981 H 194.239 1.39431 0.967322 0
M  V30 1982 H 193.011 3.01407 2.49538 0
M  V30 1983 H 192.634 1.69809 3.59514 0
M  V30 1984 N 193.631 -1.12557 1.10312 0
M  V30 1985 C 194.856 -1.88405 0.867085 0
M  V30 1986 C 195.281 -1.79038 -0.576817 0
M  V30 1987 O 194.639 -1.14439 -1.40618 0
M  V30 1988 C 194.687 -3.3563 1.31851 0
M  V30 1989 O 193.791 -4.09565 0.482734 0
M  V30 1990 H 193.132 -0.585455 0.313271 0
M  V30 1991 H 195.662 -1.42352 1.4696 0
M  V30 1992 H 195.672 -3.86469 1.3079 0
M  V30 1993 H 194.347 -3.41765 2.37001 0
M  V30 1994 H 192.924 -3.68695 0.558448 0
M  V30 1995 N 195.109 -0.891671 -1.2995 0
M  V30 1996 C 196.041 -0.320695 -2.26945 0
M  V30 1997 C 197.054 0.528497 -1.53983 0
M  V30 1998 O 198.243 0.346959 -1.75096 0
M  V30 1999 C 195.343 0.562066 -3.34207 0
M  V30 2000 C 194.516 -0.259576 -4.36629 0
M  V30 2001 C 193.575 0.554739 -5.23268 0
M  V30 2002 O 192.601 -0.0249311 -5.69195 0
M  V30 2003 N 193.803 1.8625 -5.4981 0
M  V30 2004 H 196.568 -1.15432 -2.76578 0
M  V30 2005 H 194.129 -0.755336 -1.432 0
M  V30 2006 H 196.121 1.11304 -3.89093 0
M  V30 2007 H 194.691 1.29637 -2.84452 0
M  V30 2008 H 193.911 -0.991986 -3.81514 0
M  V30 2009 H 195.199 -0.822564 -5.02107 0
M  V30 2010 H 194.597 2.35628 -5.14292 0
M  V30 2011 H 193.154 2.36078 -6.07545 0
M  V30 2012 N 196.587 1.43421 -0.653314 0
M  V30 2013 C 197.517 2.33487 0.0246656 0
M  V30 2014 C 198.498 1.49475 0.811863 0
M  V30 2015 O 199.683 1.78139 0.773322 0
M  V30 2016 C 196.813 3.32841 0.99166 0
M  V30 2017 C 195.767 4.26842 0.314568 0
M  V30 2018 C 195.093 5.16236 1.39302 0
M  V30 2019 C 196.393 5.16243 -0.793095 0
M  V30 2020 H 198.087 2.90427 -0.727481 0
M  V30 2021 H 195.633 1.39649 -0.351287 0
M  V30 2022 H 197.586 3.94747 1.47487 0
M  V30 2023 H 196.31 2.74158 1.77497 0
M  V30 2024 H 194.969 3.663 -0.148199 0
M  V30 2025 H 194.617 4.53891 2.16776 0
M  V30 2026 H 194.317 5.79948 0.945223 0
M  V30 2027 H 195.841 5.81015 1.87759 0
M  V30 2028 H 197.255 5.71958 -0.392039 0
M  V30 2029 H 195.652 5.88676 -1.16536 0
M  V30 2030 H 196.722 4.55927 -1.65103 0
M  V30 2031 N 198.065 0.39524 1.52563 0
M  V30 2032 C 198.997 -0.472201 2.24283 0
M  V30 2033 C 200.01 -1.02178 1.26742 0
M  V30 2034 O 201.199 -0.923097 1.52778 0
M  V30 2035 C 198.299 -1.66775 2.95024 0
M  V30 2036 C 197.472 -1.2445 4.19322 0
M  V30 2037 C 196.531 -2.30539 4.7301 0
M  V30 2038 O 195.557 -1.91702 5.35947 0
M  V30 2039 N 196.759 -3.6253 4.53379 0
M  V30 2040 H 199.524 0.142282 2.99362 0
M  V30 2041 H 197.085 0.2219 1.60372 0
M  V30 2042 H 199.077 -2.37283 3.27839 0
M  V30 2043 H 197.647 -2.18845 2.23217 0
M  V30 2044 H 196.867 -0.368069 3.92478 0
M  V30 2045 H 198.155 -0.938457 5.0007 0
M  V30 2046 H 197.553 -3.96841 4.03154 0
M  V30 2047 H 196.11 -4.29055 4.90668 0
M  V30 2048 N 199.544 -1.57102 0.125237 0
M  V30 2049 C 200.474 -2.18659 -0.819174 0
M  V30 2050 C 201.455 -1.12843 -1.27281 0
M  V30 2051 O 202.64 -1.41104 -1.33429 0
M  V30 2052 C 199.77 -2.79096 -2.06695 0
M  V30 2053 C 198.724 -3.90548 -1.75088 0
M  V30 2054 C 198.05 -4.37821 -3.06948 0
M  V30 2055 C 199.35 -5.12356 -1.01435 0
M  V30 2056 H 201.044 -2.9783 -0.306202 0
M  V30 2057 H 198.59 -1.4326 -0.145839 0
M  V30 2058 H 200.543 -3.2082 -2.73226 0
M  V30 2059 H 199.267 -1.97223 -2.60328 0
M  V30 2060 H 197.926 -3.49409 -1.10944 0
M  V30 2061 H 197.574 -3.52799 -3.58527 0
M  V30 2062 H 197.274 -5.12982 -2.86571 0
M  V30 2063 H 198.798 -4.822 -3.74587 0
M  V30 2064 H 200.212 -5.5106 -1.58132 0
M  V30 2065 H 198.609 -5.9314 -0.911319 0
M  V30 2066 H 199.679 -4.849 -0.00218681 0
M  V30 2067 N 201.022 0.148545 -1.56898 0
M  V30 2068 C 202.25 0.876389 -1.87422 0
M  V30 2069 C 202.665 1.74809 -0.713256 0
M  V30 2070 O 202.022 1.79725 0.317025 0
M  V30 2071 C 202.073 1.73438 -3.17178 0
M  V30 2072 O 201.794 0.897809 -4.28802 0
M  V30 2073 C 203.295 2.56993 -3.61205 0
M  V30 2074 H 200.515 0.253489 -0.621277 0
M  V30 2075 H 203.059 0.141798 -2.04008 0
M  V30 2076 H 201.214 2.42205 -3.0235 0
M  V30 2077 H 201.628 1.48672 -5.02988 0
M  V30 2078 H 203.102 3.12773 -4.54838 0
M  V30 2079 H 203.579 3.32958 -2.86419 0
M  V30 2080 H 204.185 1.9352 -3.78722 0
M  V30 2081 N 202.5 1.5196 0.417844 0
M  V30 2082 C 203.728 1.69426 1.18753 0
M  V30 2083 C 204.143 0.399955 1.84515 0
M  V30 2084 O 203.5 -0.623288 1.71527 0
M  V30 2085 C 203.551 2.82375 2.25714 0
M  V30 2086 O 203.272 4.06793 1.62638 0
M  V30 2087 C 204.773 3.11277 3.15628 0
M  V30 2088 H 201.993 0.568031 0.357186 0
M  V30 2089 H 204.537 1.98475 0.49273 0
M  V30 2090 H 202.692 2.5587 2.90877 0
M  V30 2091 H 203.106 4.69667 2.3348 0
M  V30 2092 H 204.58 3.93843 3.86771 0
M  V30 2093 H 205.057 2.24473 3.77503 0
M  V30 2094 H 205.663 3.39515 2.56144 0
M  V30 2095 N 203.978 -0.674533 1.42435 0
M  V30 2096 C 205.226 -1.43175 1.42637 0
M  V30 2097 C 205.547 -1.94951 0.0438992 0
M  V30 2098 O 204.817 -1.7308 -0.917607 0
M  V30 2099 H 203.397 -0.531307 0.525092 0
M  V30 2100 H 206.059 -0.797006 1.77859 0
M  V30 2101 H 205.155 -2.28463 2.12629 0
M  V30 2102 N 205.456 -1.28612 -0.910864 0
M  V30 2103 C 206.404 -1.1265 -2.03501 0
M  V30 2104 C 207.398 -0.0450054 -1.6934 0
M  V30 2105 O 208.604 -0.203988 -1.7884 0
M  V30 2106 H 204.979 -0.347639 -0.666822 0
M  V30 2107 H 206.95 -2.07849 -2.14106 0
M  V30 2108 C 205.699 -0.808143 -3.38178 0
M  V30 2109 H 205.022 -1.63231 -3.6496 0
M  V30 2110 H 206.462 -0.736426 -4.17556 0
M  V30 2111 C 204.921 0.488226 -3.33344 0
M  V30 2112 O 205.451 1.51766 -3.71927 0
M  V30 2113 N 203.657 0.490009 -2.86439 0
M  V30 2114 H 203.204 -0.348161 -2.55236 0
M  V30 2115 H 203.162 1.35741 -2.83587 0
M  V30 2116 N 206.934 1.1197 -1.10907 0
M  V30 2117 C 208.182 1.83225 -0.852819 0
M  V30 2118 C 208.503 1.84769 0.623341 0
M  V30 2119 O 207.773 1.3143 1.45269 0
M  V30 2120 H 206.353 0.67849 -0.312507 0
M  V30 2121 H 209.015 1.3556 -1.40033 0
M  V30 2122 H 208.111 2.87265 -1.22005 0
M  V30 2123 N 208.412 0.89855 1.29475 0
M  V30 2124 C 209.342 0.39201 2.30186 0
M  V30 2125 C 210.323 -0.532359 1.61555 0
M  V30 2126 O 211.508 -0.443331 1.89072 0
M  V30 2127 C 208.638 -0.382353 3.45189 0
M  V30 2128 C 207.592 0.451483 4.25612 0
M  V30 2129 C 206.918 -0.450307 5.328 0
M  V30 2130 C 208.218 1.70079 4.93832 0
M  V30 2131 H 209.912 1.23362 2.72804 0
M  V30 2132 H 207.458 0.594638 1.31149 0
M  V30 2133 H 209.411 -0.747451 4.14718 0
M  V30 2134 H 208.135 -1.25774 3.01411 0
M  V30 2135 H 206.794 0.798897 3.57789 0
M  V30 2136 H 206.442 -1.32379 4.85268 0
M  V30 2137 H 206.142 0.103902 5.87508 0
M  V30 2138 H 207.666 -0.811623 6.05182 0
M  V30 2139 H 209.08 1.40549 5.55805 0
M  V30 2140 H 207.477 2.19623 5.58467 0
M  V30 2141 H 208.547 2.43744 4.19186 0
M  V30 2142 N 209.89 -1.43072 0.660911 0
M  V30 2143 C 211.137 -2.01721 0.177445 0
M  V30 2144 C 211.465 -1.5218 -1.21126 0
M  V30 2145 O 210.72 -0.708659 -1.82419 0
M  V30 2146 C 211.019 -3.57103 0.145563 0
M  V30 2147 C 210.685 -4.26021 1.47705 0
M  V30 2148 C 209.347 -4.44563 1.84165 0
M  V30 2149 C 211.699 -4.64983 2.35458 0
M  V30 2150 C 209.027 -4.99334 3.0803 0
M  V30 2151 C 211.379 -5.21127 3.58622 0
M  V30 2152 C 210.043 -5.37884 3.95268 0
M  V30 2153 H 209.313 -0.73815 0.0649317 0
M  V30 2154 H 211.96 -1.71446 0.853144 0
M  V30 2155 H 210.265 -3.86965 -0.61361 0
M  V30 2156 H 211.962 -4.00248 -0.2455 0
M  V30 2157 H 208.552 -4.11939 1.18339 0
M  V30 2158 H 212.736 -4.50343 2.08579 0
M  V30 2159 H 207.992 -5.10493 3.36462 0
M  V30 2160 H 212.166 -5.50262 4.26831 0
M  V30 2161 H 209.793 -5.80089 4.91325 0
M  V30 2162 N 211.368 -0.403325 -1.52352 0
M  V30 2163 C 212.298 0.416205 -2.29761 0
M  V30 2164 C 213.279 1.05123 -1.33728 0
M  V30 2165 O 214.464 1.06134 -1.62632 0
M  V30 2166 C 211.594 1.53624 -3.11475 0
M  V30 2167 C 210.548 1.02653 -4.15507 0
M  V30 2168 C 209.874 2.23971 -4.85532 0
M  V30 2169 C 211.174 0.08463 -5.22231 0
M  V30 2170 H 212.868 -0.229701 -2.98518 0
M  V30 2171 H 210.414 -0.111913 -1.43564 0
M  V30 2172 H 212.367 2.1165 -3.64393 0
M  V30 2173 H 211.091 2.20994 -2.40477 0
M  V30 2174 H 209.75 0.46871 -3.63591 0
M  V30 2175 H 209.398 2.89883 -4.11068 0
M  V30 2176 H 209.098 1.90521 -5.55856 0
M  V30 2177 H 210.622 2.82614 -5.41259 0
M  V30 2178 H 212.036 0.573509 -5.70424 0
M  V30 2179 H 210.433 -0.160783 -5.99885 0
M  V30 2180 H 211.503 -0.86237 -4.7717 0
M  V30 2181 N 212.846 1.57033 -0.133567 0
M  V30 2182 C 214.071 2.00475 0.531477 0
M  V30 2183 C 214.496 1.01291 1.58499 0
M  V30 2184 O 213.854 -0.0133279 1.81295 0
M  V30 2185 C 213.902 3.42729 1.12113 0
M  V30 2186 O 213.006 3.46498 2.23636 0
M  V30 2187 H 212.347 0.650876 0.131362 0
M  V30 2188 H 214.877 2.03344 -0.22634 0
M  V30 2189 H 214.887 3.81246 1.4531 0
M  V30 2190 H 213.562 4.14428 0.349557 0
M  V30 2191 H 212.139 3.19811 1.91769 0
M  V30 2192 N 214.325 -0.140222 1.56975 0
M  V30 2193 C 215.235 -1.19223 2.02047 0
M  V30 2194 C 216.251 -1.46612 0.937062 0
M  V30 2195 O 217.427 -1.58148 1.24704 0
M  V30 2196 C 214.492 -2.50414 2.39778 0
M  V30 2197 C 213.553 -2.30612 3.621 0
M  V30 2198 C 212.786 -3.55547 3.98023 0
M  V30 2199 O 213.009 -4.62004 3.34528 0
M  V30 2200 O 211.943 -3.47808 4.91237 0
M  V30 2201 H 215.769 -0.839559 2.91865 0
M  V30 2202 H 213.354 -0.349453 1.45256 0
M  V30 2203 H 215.236 -3.27747 2.64877 0
M  V30 2204 H 213.911 -2.85198 1.53114 0
M  V30 2205 H 212.818 -1.51207 3.4218 0
M  V30 2206 H 214.151 -2.00741 4.49404 0
M  V30 2207 N 215.803 -1.52179 -0.40978 0
M  V30 2208 C 217.051 -1.65878 -1.15451 0
M  V30 2209 C 217.372 -0.390771 -1.91044 0
M  V30 2210 O 216.642 0.594323 -1.86667 0
M  V30 2211 H 215.222 -0.611405 -0.429177 0
M  V30 2212 H 217.884 -1.89219 -0.467134 0
M  V30 2213 H 216.98 -2.49954 -1.86894 0
M  V30 2214 N 217.281 0.66697 -1.42791 0
M  V30 2215 C 218.211 1.79218 -1.49677 0
M  V30 2216 C 219.192 1.66405 -0.352623 0
M  V30 2217 O 220.377 1.85708 -0.567993 0
M  V30 2218 C 217.507 3.17565 -1.40605 0
M  V30 2219 C 216.461 3.45124 -2.53127 0
M  V30 2220 C 215.787 4.83127 -2.29112 0
M  V30 2221 C 217.087 3.41236 -3.95418 0
M  V30 2222 H 218.781 1.73713 -2.43853 0
M  V30 2223 H 216.327 0.83432 -1.17367 0
M  V30 2224 H 218.28 3.96022 -1.44029 0
M  V30 2225 H 217.004 3.23767 -0.429271 0
M  V30 2226 H 215.663 2.69031 -2.49034 0
M  V30 2227 H 215.311 4.85988 -1.29709 0
M  V30 2228 H 215.011 5.02528 -3.04531 0
M  V30 2229 H 216.535 5.63859 -2.34297 0
M  V30 2230 H 217.949 4.09651 -4.01073 0
M  V30 2231 H 216.346 3.72173 -4.70752 0
M  V30 2232 H 217.416 2.39665 -4.21532 0
M  V30 2233 N 218.759 1.29093 0.90403 0
M  V30 2234 C 219.706 1.13853 2.00764 0
M  V30 2235 C 220.676 0.0330084 1.66067 0
M  V30 2236 O 221.861 0.199733 1.89752 0
M  V30 2237 C 219.001 0.816537 3.35301 0
M  V30 2238 C 218.114 2.00206 3.82807 0
M  V30 2239 C 217.249 1.61983 5.059 0
M  V30 2240 C 216.288 2.77143 5.45764 0
M  V30 2241 N 215.425 2.39346 6.60044 0
M  V30 2242 H 220.265 2.08276 2.13132 0
M  V30 2243 H 217.802 1.03648 1.04381 0
M  V30 2244 H 219.76 0.610557 4.12708 0
M  V30 2245 H 218.39 -0.090779 3.22672 0
M  V30 2246 H 217.442 2.31988 3.01473 0
M  V30 2247 H 218.754 2.86512 4.08304 0
M  V30 2248 H 217.908 1.37649 5.90879 0
M  V30 2249 H 216.647 0.728202 4.82233 0
M  V30 2250 H 215.652 3.02165 4.59322 0
M  V30 2251 H 216.877 3.66964 5.71414 0
M  V30 2252 H 214.823 1.52665 6.37989 0
M  V30 2253 H 214.74 3.19185 6.85315 0
M  V30 2254 H 216.008 2.1832 7.48303 0
M  V30 2255 N 220.237 -1.11381 1.11499 0
M  V30 2256 C 221.167 -2.19509 0.796125 0
M  V30 2257 C 222.148 -1.68458 -0.235796 0
M  V30 2258 O 223.333 -1.93947 -0.0991344 0
M  V30 2259 C 220.463 -3.46475 0.239205 0
M  V30 2260 C 219.417 -4.10744 1.20307 0
M  V30 2261 C 218.743 -5.32293 0.50683 0
M  V30 2262 C 220.043 -4.55597 2.55399 0
M  V30 2263 H 221.737 -2.46439 1.70024 0
M  V30 2264 H 219.283 -1.18446 0.818935 0
M  V30 2265 H 221.236 -4.214 0.00392006 0
M  V30 2266 H 219.96 -3.19006 -0.700206 0
M  V30 2267 H 218.619 -3.37813 1.42399 0
M  V30 2268 H 218.267 -5.01095 -0.437408 0
M  V30 2269 H 217.967 -5.76243 1.1497 0
M  V30 2270 H 219.491 -6.09956 0.280351 0
M  V30 2271 H 220.905 -5.21841 2.37391 0
M  V30 2272 H 219.302 -5.10363 3.15673 0
M  V30 2273 H 220.372 -3.69013 3.14575 0
M  V30 2274 N 221.715 -0.905404 -1.28997 0
M  V30 2275 C 222.961 -0.535039 -1.95615 0
M  V30 2276 C 223.294 0.917404 -1.71165 0
M  V30 2277 O 222.569 1.65123 -1.02785 0
M  V30 2278 C 222.852 -0.834918 -3.50287 0
M  V30 2279 C 222.705 -2.33948 -3.84172 0
M  V30 2280 C 224.024 -0.325318 -4.38896 0
M  V30 2281 H 221.143 -0.195861 -0.710498 0
M  V30 2282 H 223.785 -1.13313 -1.52513 0
M  V30 2283 H 221.935 -0.325904 -3.87131 0
M  V30 2284 H 223.607 -2.91847 -3.57243 0
M  V30 2285 H 221.85 -2.79789 -3.31513 0
M  V30 2286 H 222.521 -2.49987 -4.92149 0
M  V30 2287 H 224.997 -0.761256 -4.09077 0
M  V30 2288 H 223.873 -0.564295 -5.45992 0
M  V30 2289 H 224.134 0.774144 -4.35269 0
M  V30 2290 N 223.193 1.4272 -0.668489 0
M  V30 2291 C 224.47 1.95248 -0.117373 0
M  V30 2292 C 224.85 1.60919 1.36632 0
M  V30 2293 O 224.198 0.902095 2.09939 0
M  V30 2294 C 224.408 3.46927 -0.379806 0
M  V30 2295 C 225.756 4.23588 -0.292923 0
M  V30 2296 O 226.78 3.5482 -0.313204 0
M  V30 2297 O 225.639 5.46017 -0.229697 0
M  V30 2298 H 222.733 0.827 0.00079152 0
M  V30 2299 H 225.279 1.52581 -0.742783 0
M  V30 2300 H 224.051 3.65096 -1.40786 0
M  V30 2301 H 223.674 3.96627 0.277923 0
M  V30 2302 N 224.671 0.411399 1.52136 0
M  V30 2303 C 225.618 -0.412975 2.27075 0
M  V30 2304 C 226.588 -1.03912 1.29582 0
M  V30 2305 O 227.773 -1.06296 1.58448 0
M  V30 2306 C 224.913 -1.52247 3.09701 0
M  V30 2307 C 224.026 -0.917021 4.22155 0
M  V30 2308 C 223.161 -1.9994 4.92135 0
M  V30 2309 C 222.2 -1.37101 5.96548 0
M  V30 2310 N 221.337 -2.39364 6.60038 0
M  V30 2311 H 226.177 0.232499 2.97092 0
M  V30 2312 H 223.714 0.126496 1.46555 0
M  V30 2313 H 225.672 -2.17674 3.55913 0
M  V30 2314 H 224.302 -2.13794 2.41851 0
M  V30 2315 H 223.354 -0.151742 3.80097 0
M  V30 2316 H 224.666 -0.418006 4.97045 0
M  V30 2317 H 223.82 -2.73088 5.41763 0
M  V30 2318 H 222.559 -2.53208 4.16818 0
M  V30 2319 H 221.564 -0.624873 5.46237 0
M  V30 2320 H 222.789 -0.845998 6.7381 0
M  V30 2321 H 220.735 -2.91759 5.87548 0
M  V30 2322 H 220.652 -1.9428 7.3061 0
M  V30 2323 H 221.92 -3.12074 7.14304 0
M  V30 2324 N 226.149 -1.5696 0.141893 0
M  V30 2325 C 227.396 -1.9596 -0.510492 0
M  V30 2326 C 227.724 -1.02648 -1.65208 0
M  V30 2327 O 226.979 -0.0546947 -1.95624 0
M  V30 2328 C 227.278 -3.41242 -1.06249 0
M  V30 2329 C 226.944 -4.50882 -0.0398791 0
M  V30 2330 C 225.606 -4.80595 0.241247 0
M  V30 2331 C 227.958 -5.17058 0.65578 0
M  V30 2332 C 225.286 -5.73792 1.22393 0
M  V30 2333 C 227.638 -6.11313 1.62724 0
M  V30 2334 C 226.302 -6.39407 1.91612 0
M  V30 2335 H 225.572 -0.717068 -0.186802 0
M  V30 2336 H 228.219 -1.90142 0.227643 0
M  V30 2337 H 226.524 -3.43866 -1.87785 0
M  V30 2338 H 228.221 -3.68742 -1.57576 0
M  V30 2339 H 224.811 -4.27754 -0.269174 0
M  V30 2340 H 228.995 -4.94239 0.451779 0
M  V30 2341 H 224.251 -5.93853 1.45424 0
M  V30 2342 H 228.425 -6.61668 2.17183 0
M  V30 2343 H 226.052 -7.11427 2.6791 0
M  V30 2344 N 227.627 0.131896 -1.57047 0
M  V30 2345 C 228.557 1.16384 -2.02428 0
M  V30 2346 C 229.538 1.43936 -0.90644 0
M  V30 2347 O 230.723 1.54599 -1.17528 0
M  V30 2348 C 227.853 2.49328 -2.4177 0
M  V30 2349 C 226.807 2.36266 -3.56879 0
M  V30 2350 C 226.133 3.74057 -3.8208 0
M  V30 2351 C 227.433 1.834 -4.89042 0
M  V30 2352 H 229.127 0.786433 -2.88887 0
M  V30 2353 H 226.673 0.376855 -1.38981 0
M  V30 2354 H 228.626 3.21759 -2.7212 0
M  V30 2355 H 227.35 2.88934 -1.52266 0
M  V30 2356 H 226.009 1.66286 -3.26718 0
M  V30 2357 H 225.657 4.11125 -2.89803 0
M  V30 2358 H 225.357 3.66174 -4.59554 0
M  V30 2359 H 226.881 4.48012 -4.1487 0
M  V30 2360 H 228.295 2.45636 -5.18011 0
M  V30 2361 H 226.692 1.8637 -5.70426 0
M  V30 2362 H 227.762 0.790662 -4.7841 0
M  V30 2363 N 229.106 1.52395 0.401703 0
M  V30 2364 C 230.016 1.7917 1.51444 0
M  V30 2365 C 231.032 0.677691 1.6026 0
M  V30 2366 O 232.208 0.963909 1.76835 0
M  V30 2367 C 229.273 1.94347 2.87107 0
M  V30 2368 C 228.334 3.18257 2.88116 0
M  V30 2369 C 227.567 3.32701 4.17308 0
M  V30 2370 O 227.79 2.52238 5.11598 0
M  V30 2371 O 226.724 4.25891 4.25324 0
M  V30 2372 H 230.55 2.73633 1.31752 0
M  V30 2373 H 228.135 1.3733 0.588296 0
M  V30 2374 H 230.017 2.06109 3.67555 0
M  V30 2375 H 228.692 1.03073 3.06851 0
M  V30 2376 H 227.599 3.11947 2.06494 0
M  V30 2377 H 228.932 4.09336 2.73322 0
M  V30 2378 N 230.584 -0.659388 1.43143 0
M  V30 2379 C 231.861 -1.41627 1.34912 0
M  V30 2380 C 232.241 -2.11099 -0.00607785 0
M  V30 2381 O 231.589 -2.04353 -1.02236 0
M  V30 2382 C 231.799 -2.40604 2.52805 0
M  V30 2383 C 233.147 -3.04789 2.95616 0
M  V30 2384 O 234.171 -2.50932 2.52807 0
M  V30 2385 O 233.03 -4.02421 3.69756 0
M  V30 2386 H 230.124 -0.63246 0.532844 0
M  V30 2387 H 232.67 -0.686814 1.5518 0
M  V30 2388 H 231.442 -1.88174 3.43083 0
M  V30 2389 H 231.065 -3.21009 2.34604 0
M  V30 2390 N 232.062 -1.29571 -0.897171 0
M  V30 2391 C 233.308 -1.17863 -1.65034 0
M  V30 2392 C 233.641 0.268729 -1.92332 0
M  V30 2393 O 232.916 1.19378 -1.53555 0
M  V30 2394 C 233.199 -1.995 -2.99786 0
M  V30 2395 C 233.052 -3.5239 -2.79538 0
M  V30 2396 C 234.371 -1.82335 -4.00552 0
M  V30 2397 H 231.49 -0.429528 -0.598895 0
M  V30 2398 H 234.132 -1.59072 -1.03905 0
M  V30 2399 H 232.282 -1.64485 -3.51962 0
M  V30 2400 H 233.954 -3.97401 -2.34244 0
M  V30 2401 H 232.197 -3.77187 -2.14273 0
M  V30 2402 H 232.868 -4.04787 -3.75302 0
M  V30 2403 H 235.344 -2.12924 -3.57495 0
M  V30 2404 H 234.22 -2.41801 -4.92771 0
M  V30 2405 H 234.481 -0.779209 -4.35179 0
M  V30 2406 N 233.54 1.10788 -1.12088 0
M  V30 2407 C 234.487 2.17025 -0.785407 0
M  V30 2408 C 235.457 1.64265 0.246191 0
M  V30 2409 O 236.642 1.90412 0.121584 0
M  V30 2410 C 233.782 3.44249 -0.242177 0
M  V30 2411 C 232.895 4.1098 -1.33115 0
M  V30 2412 C 232.03 5.25911 -0.747741 0
M  V30 2413 C 231.069 5.84538 -1.81609 0
M  V30 2414 N 230.206 6.90853 -1.25167 0
M  V30 2415 H 235.046 2.45066 -1.69548 0
M  V30 2416 H 232.583 1.20297 -0.846582 0
M  V30 2417 H 234.541 4.17101 0.0908026 0
M  V30 2418 H 233.171 3.16571 0.631072 0
M  V30 2419 H 232.223 3.36133 -1.78097 0
M  V30 2420 H 233.535 4.50601 -2.13917 0
M  V30 2421 H 232.689 6.056 -0.365216 0
M  V30 2422 H 231.428 4.87614 0.0915188 0
M  V30 2423 H 230.433 5.03522 -2.20785 0
M  V30 2424 H 231.658 6.249 -2.6585 0
M  V30 2425 H 229.604 6.54562 -0.434174 0
M  V30 2426 H 229.521 7.29166 -1.99633 0
M  V30 2427 H 230.789 7.7433 -0.896259 0
M  V30 2428 N 235.018 0.912232 1.28515 0
M  V30 2429 C 235.965 0.397954 2.27343 0
M  V30 2430 C 236.935 -0.526766 1.57526 0
M  V30 2431 O 238.12 -0.449292 1.85435 0
M  V30 2432 C 235.26 -0.357263 3.43246 0
M  V30 2433 C 234.373 0.599788 4.27816 0
M  V30 2434 C 233.508 -0.173725 5.30916 0
M  V30 2435 C 232.547 0.777039 6.07148 0
M  V30 2436 N 231.684 0.0371398 7.0209 0
M  V30 2437 H 236.524 1.24577 2.70711 0
M  V30 2438 H 234.061 0.625612 1.33133 0
M  V30 2439 H 236.019 -0.8113 4.09236 0
M  V30 2440 H 234.649 -1.16943 3.00872 0
M  V30 2441 H 233.701 1.17235 3.61884 0
M  V30 2442 H 235.013 1.32704 4.80823 0
M  V30 2443 H 234.167 -0.688394 6.02782 0
M  V30 2444 H 232.906 -0.934041 4.78672 0
M  V30 2445 H 231.911 1.3031 5.34134 0
M  V30 2446 H 233.136 1.53689 6.61481 0
M  V30 2447 H 231.082 -0.705213 6.52198 0
M  V30 2448 H 230.999 0.704249 7.52713 0
M  V30 2449 H 232.267 -0.457383 7.78157 0
M  V30 2450 N 236.496 -1.42363 0.676048 0
M  V30 2451 C 237.426 -2.33497 0.0124832 0
M  V30 2452 C 238.407 -1.50748 -0.787981 0
M  V30 2453 O 239.592 -1.79346 -0.744884 0
M  V30 2454 C 236.722 -3.34377 -0.938582 0
M  V30 2455 C 235.676 -4.27289 -0.246622 0
M  V30 2456 C 235.002 -5.18386 -1.31071 0
M  V30 2457 C 236.302 -5.14916 0.875125 0
M  V30 2458 H 237.996 -2.89233 0.773593 0
M  V30 2459 H 235.542 -1.39073 0.37346 0
M  V30 2460 H 237.495 -3.97044 -1.41188 0
M  V30 2461 H 236.219 -2.76947 -1.73113 0
M  V30 2462 H 234.878 -3.66018 0.206456 0
M  V30 2463 H 234.526 -4.57282 -2.09528 0
M  V30 2464 H 234.226 -5.81378 -0.852839 0
M  V30 2465 H 235.75 -5.83929 -1.78492 0
M  V30 2466 H 237.164 -5.71262 0.482983 0
M  V30 2467 H 235.561 -5.86747 1.25887 0
M  V30 2468 H 236.631 -4.53242 1.72335 0
M  V30 2469 N 237.974 -0.419461 -1.51915 0
M  V30 2470 C 239.204 0.151915 -2.06041 0
M  V30 2471 C 239.612 1.38539 -1.28855 0
M  V30 2472 O 238.955 1.80592 -0.336463 0
M  V30 2473 C 239.017 0.557119 -3.55157 0
M  V30 2474 C 238.681 -0.567054 -4.53468 0
M  V30 2475 C 239.678 -1.43379 -4.99738 0
M  V30 2476 C 237.363 -0.742693 -4.96779 0
M  V30 2477 C 239.357 -2.46102 -5.87973 0
M  V30 2478 C 237.044 -1.77322 -5.84808 0
M  V30 2479 C 238.042 -2.63078 -6.30301 0
M  V30 2480 O 237.73 -3.64364 -7.16585 0
M  V30 2481 H 237.462 0.0193293 -0.675724 0
M  V30 2482 H 240.016 -0.592073 -1.96682 0
M  V30 2483 H 238.246 1.35355 -3.62238 0
M  V30 2484 H 239.935 1.05759 -3.9188 0
M  V30 2485 H 240.701 -1.30954 -4.66986 0
M  V30 2486 H 236.58 -0.0848307 -4.60922 0
M  V30 2487 H 240.124 -3.13071 -6.23404 0
M  V30 2488 H 236.021 -1.89773 -6.16974 0
M  V30 2489 H 236.789 -3.60731 -7.34721 0
M  V30 2490 N 239.452 1.56882 -0.150215 0
M  V30 2491 C 240.402 2.13501 0.800071 0
M  V30 2492 C 241.386 1.06368 1.20726 0
M  V30 2493 O 242.578 1.32538 1.17314 0
M  V30 2494 C 239.707 2.76271 2.03787 0
M  V30 2495 C 238.793 3.90533 1.65364 0
M  V30 2496 N 239.184 4.96259 0.977794 0
M  V30 2497 C 237.482 4.013 1.94613 0
M  V30 2498 C 238.183 5.76286 0.791794 0
M  V30 2499 N 237.159 5.27163 1.32666 0
M  V30 2500 H 240.961 2.92615 0.274517 0
M  V30 2501 H 238.475 1.62319 0.0512144 0
M  V30 2502 H 240.472 3.15197 2.72867 0
M  V30 2503 H 239.132 1.98631 2.56857 0
M  V30 2504 H 240.143 5.13953 0.638193 0
M  V30 2505 H 236.82 3.3474 2.4951 0
M  V30 2506 H 238.21 6.71401 0.258894 0
M  V30 2507 N 240.93 -0.123565 1.57115 0
M  V30 2508 C 242.155 -0.850398 1.89164 0
M  V30 2509 C 242.58 -1.7286 0.741688 0
M  V30 2510 O 241.938 -1.78665 -0.307958 0
M  V30 2511 C 241.986 -1.66353 3.19936 0
M  V30 2512 O 241.09 -2.77004 3.0552 0
M  V30 2513 H 240.431 -0.235454 0.620852 0
M  V30 2514 H 242.961 -0.107335 2.04318 0
M  V30 2515 H 242.971 -2.05372 3.52543 0
M  V30 2516 H 241.646 -1.01881 4.03228 0
M  V30 2517 H 240.223 -2.41221 2.84371 0
M  V30 2518 N 242.408 -1.52605 -0.393616 0
M  V30 2519 C 243.318 -1.79971 -1.50492 0
M  V30 2520 C 244.334 -0.686181 -1.59899 0
M  V30 2521 O 245.51 -0.973274 -1.76322 0
M  V30 2522 C 242.575 -1.95867 -2.86072 0
M  V30 2523 C 241.636 -3.19781 -2.86424 0
M  V30 2524 C 240.869 -3.34909 -4.15538 0
M  V30 2525 O 241.092 -2.54948 -5.10253 0
M  V30 2526 O 240.026 -4.28141 -4.23059 0
M  V30 2527 H 243.852 -2.74328 -1.30299 0
M  V30 2528 H 241.437 -1.3764 -0.581005 0
M  V30 2529 H 243.319 -2.08056 -3.66457 0
M  V30 2530 H 241.994 -1.04699 -3.063 0
M  V30 2531 H 240.901 -3.13038 -2.04837 0
M  V30 2532 H 242.234 -4.1078 -2.71147 0
M  V30 2533 N 243.887 0.651787 -1.4349 0
M  V30 2534 C 244.85 1.74647 -1.48429 0
M  V30 2535 C 245.85 1.56513 -0.368817 0
M  V30 2536 O 247.04 1.62385 -0.630623 0
M  V30 2537 C 244.172 3.13533 -1.33827 0
M  V30 2538 H 245.365 1.71649 -2.4592 0
M  V30 2539 H 242.918 0.863573 -1.30277 0
M  V30 2540 H 243.653 3.22142 -0.37349 0
M  V30 2541 H 243.438 3.28101 -2.14691 0
M  V30 2542 H 244.928 3.93356 -1.40218 0
M  V30 2543 N 245.365 1.30045 0.890287 0
M  V30 2544 C 246.612 1.18561 1.64163 0
M  V30 2545 C 246.94 -0.260852 1.92743 0
M  V30 2546 O 246.195 -1.20376 1.54299 0
M  V30 2547 C 246.494 1.95409 2.99249 0
M  V30 2548 C 246.16 3.45066 2.90242 0
M  V30 2549 C 244.822 3.85878 2.87492 0
M  V30 2550 C 247.174 4.4039 2.78758 0
M  V30 2551 C 244.502 5.20314 2.7109 0
M  V30 2552 C 246.854 5.74928 2.63894 0
M  V30 2553 C 245.518 6.14986 2.59516 0
M  V30 2554 H 244.788 0.433846 0.600715 0
M  V30 2555 H 247.435 1.61088 1.03552 0
M  V30 2556 H 245.74 1.45501 3.63781 0
M  V30 2557 H 247.437 1.8392 3.56334 0
M  V30 2558 H 244.027 3.12631 2.93189 0
M  V30 2559 H 248.211 4.09806 2.79952 0
M  V30 2560 H 243.467 5.50449 2.66112 0
M  V30 2561 H 247.641 6.48434 2.53981 0
M  V30 2562 H 245.268 7.19104 2.46565 0
M  V30 2563 N 246.843 -1.10192 1.12674 0
M  V30 2564 C 248.071 -1.85983 0.906527 0
M  V30 2565 C 248.486 -1.80783 -0.544333 0
M  V30 2566 O 247.843 -1.19834 -1.37645 0
M  V30 2567 C 247.894 -3.34281 1.37618 0
M  V30 2568 O 247.615 -3.39401 2.77017 0
M  V30 2569 C 249.116 -4.26938 1.19325 0
M  V30 2570 H 246.336 -0.587716 0.323775 0
M  V30 2571 H 248.88 -1.39284 1.49734 0
M  V30 2572 H 247.035 -3.78436 0.828539 0
M  V30 2573 H 247.449 -4.31838 2.97684 0
M  V30 2574 H 248.923 -5.29181 1.57071 0
M  V30 2575 H 249.4 -4.38995 0.134097 0
M  V30 2576 H 250.006 -3.8859 1.72852 0
M  V30 2577 N 248.321 -0.919034 -1.28029 0
M  V30 2578 C 249.567 -0.555757 -1.95036 0
M  V30 2579 C 249.9 0.899198 -1.72128 0
M  V30 2580 O 249.175 1.64023 -1.04531 0
M  V30 2581 C 249.458 -0.872024 -3.49382 0
M  V30 2582 C 249.311 -2.3801 -3.81669 0
M  V30 2583 C 250.63 -0.37185 -4.38526 0
M  V30 2584 H 247.749 -0.203386 -0.708381 0
M  V30 2585 H 250.391 -1.14924 -1.51303 0
M  V30 2586 H 248.541 -0.366946 -3.86763 0
M  V30 2587 H 250.213 -2.9562 -3.54128 0
M  V30 2588 H 248.456 -2.83289 -3.28526 0
M  V30 2589 H 249.127 -2.55192 -4.8947 0
M  V30 2590 H 251.603 -0.804602 -4.08247 0
M  V30 2591 H 250.479 -0.622173 -5.45362 0
M  V30 2592 H 250.74 0.727934 -4.36066 0
M  V30 2593 N 249.799 1.42003 -0.683588 0
M  V30 2594 C 250.747 2.326 0.000815408 0
M  V30 2595 C 251.741 1.50308 0.781278 0
M  V30 2596 O 252.947 1.66322 0.688251 0
M  V30 2597 H 249.322 0.751758 0.0190616 0
M  V30 2598 H 251.293 2.88011 -0.780528 0
M  V30 2599 C 250.042 3.34978 0.93195 0
M  V30 2600 H 249.365 3.98345 0.340817 0
M  V30 2601 H 250.805 4.00936 1.37936 0
M  V30 2602 C 249.264 2.67925 2.04249 0
M  V30 2603 O 249.794 2.51788 3.12995 0
M  V30 2604 N 248 2.2681 1.81675 0
M  V30 2605 H 247.547 2.40135 0.932363 0
M  V30 2606 H 247.505 1.8228 2.56167 0
M  V30 2607 N 251.277 0.427512 1.51691 0
M  V30 2608 C 252.524 -0.142229 2.02 0
M  V30 2609 C 252.852 -1.43566 1.31221 0
M  V30 2610 O 252.107 -1.91298 0.412744 0
M  V30 2611 C 252.406 -0.418249 3.54944 0
M  V30 2612 C 252.072 0.788187 4.43958 0
M  V30 2613 C 250.734 1.11906 4.68007 0
M  V30 2614 C 253.086 1.59347 4.96244 0
M  V30 2615 C 250.414 2.25608 5.41588 0
M  V30 2616 C 252.766 2.7214 5.71072 0
M  V30 2617 C 251.43 3.05692 5.93387 0
M  V30 2618 H 250.7 -0.0520451 0.73917 0
M  V30 2619 H 253.347 0.572697 1.82736 0
M  V30 2620 H 251.652 -1.21496 3.72486 0
M  V30 2621 H 253.349 -0.872339 3.91397 0
M  V30 2622 H 249.939 0.520344 4.2543 0
M  V30 2623 H 254.123 1.35106 4.77556 0
M  V30 2624 H 249.379 2.51929 5.57083 0
M  V30 2625 H 253.553 3.34914 6.10578 0
M  V30 2626 H 251.18 3.9391 6.50184 0
M  V30 2627 N 252.755 -1.56801 0.158532 0
M  V30 2628 C 254.003 -1.96102 -0.488712 0
M  V30 2629 C 254.324 -1.04498 -1.64636 0
M  V30 2630 O 253.594 -0.108783 -1.95598 0
M  V30 2631 H 252.174 -0.724102 -0.183535 0
M  V30 2632 H 254.836 -1.93457 0.236728 0
M  V30 2633 H 253.932 -3.00097 -0.857219 0
M  V30 2634 N 254.233 0.115231 -1.57178 0
M  V30 2635 C 255.51 0.852873 -1.76027 0
M  V30 2636 C 255.89 1.97892 -0.73498 0
M  V30 2637 O 255.238 2.27232 0.24036 0
M  V30 2638 C 255.448 1.36608 -3.21153 0
M  V30 2639 C 256.796 1.81692 -3.83762 0
M  V30 2640 O 257.82 1.46278 -3.24779 0
M  V30 2641 O 256.679 2.47104 -4.87444 0
M  V30 2642 H 253.773 0.405296 -0.720877 0
M  V30 2643 H 256.319 0.0986785 -1.69413 0
M  V30 2644 H 255.091 0.558357 -3.87296 0
M  V30 2645 H 254.714 2.18287 -3.3232 0
M  V30 2646 N 255.711 1.52812 0.385517 0
M  V30 2647 C 256.939 1.71907 1.15133 0
M  V30 2648 C 257.354 0.439004 1.83625 0
M  V30 2649 O 256.711 -0.586765 1.7281 0
M  V30 2650 C 256.762 2.87099 2.19673 0
M  V30 2651 O 256.483 4.10151 1.53973 0
M  V30 2652 C 257.984 3.17902 3.08955 0
M  V30 2653 H 255.204 0.575479 0.345057 0
M  V30 2654 H 257.748 1.99476 0.45052 0
M  V30 2655 H 255.903 2.61982 2.85384 0
M  V30 2656 H 256.317 4.74514 2.23465 0
M  V30 2657 H 257.791 4.01959 3.7833 0
M  V30 2658 H 258.268 2.3243 3.72657 0
M  V30 2659 H 258.874 3.44871 2.48885 0
M  V30 2660 N 257.189 -0.644168 1.43834 0
M  V30 2661 C 258.099 -1.78563 1.52159 0
M  V30 2662 C 259.115 -1.69147 0.408069 0
M  V30 2663 O 260.291 -1.90156 0.663524 0
M  V30 2664 C 257.356 -3.14888 1.45073 0
M  V30 2665 C 256.417 -3.36034 2.6717 0
M  V30 2666 C 255.65 -4.65855 2.60413 0
M  V30 2667 O 255.873 -5.45805 1.65689 0
M  V30 2668 O 254.807 -4.88918 3.5106 0
M  V30 2669 H 258.633 -1.74494 2.48567 0
M  V30 2670 H 256.218 -0.80378 1.25935 0
M  V30 2671 H 258.1 -3.96179 1.43597 0
M  V30 2672 H 256.775 -3.19528 0.518037 0
M  V30 2673 H 255.682 -2.54472 2.74217 0
M  V30 2674 H 257.015 -3.36247 3.59442 0
M  V30 2675 N 258.668 -1.30515 -0.883378 0
M  V30 2676 C 259.578 -1.18959 -2.02203 0
M  V30 2677 C 260.594 -0.109172 -1.73657 0
M  V30 2678 O 261.77 -0.324413 -1.9877 0
M  V30 2679 C 258.835 -0.883871 -3.35244 0
M  V30 2680 C 257.896 -2.04982 -3.77201 0
M  V30 2681 C 257.129 -1.75859 -5.03894 0
M  V30 2682 O 257.352 -0.687276 -5.66244 0
M  V30 2683 O 256.286 -2.61146 -5.42297 0
M  V30 2684 H 260.112 -2.14616 -2.1488 0
M  V30 2685 H 257.697 -1.10124 -1.0096 0
M  V30 2686 H 259.579 -0.728644 -4.15053 0
M  V30 2687 H 258.254 0.0427798 -3.23672 0
M  V30 2688 H 257.161 -2.26038 -2.9809 0
M  V30 2689 H 258.494 -2.95825 -3.93381 0
M  V30 2690 N 260.146 1.09593 -1.13257 0
M  V30 2691 C 261.109 2.14359 -0.811358 0
M  V30 2692 C 262.109 1.59808 0.178377 0
M  V30 2693 O 263.299 1.74132 -0.0484911 0
M  V30 2694 C 260.431 3.40269 -0.207276 0
M  V30 2695 H 261.624 2.44284 -1.73969 0
M  V30 2696 H 259.177 1.25102 -0.936973 0
M  V30 2697 H 259.912 3.15969 0.73036 0
M  V30 2698 H 259.697 3.81154 -0.919992 0
M  V30 2699 H 261.187 4.176 0.000667944 0
M  V30 2700 N 261.624 0.925811 1.2754 0
M  V30 2701 C 262.571 0.422045 2.26908 0
M  V30 2702 C 263.541 -0.510029 1.58076 0
M  V30 2703 O 264.726 -0.429599 1.85901 0
M  V30 2704 C 261.866 -0.320837 3.43605 0
M  V30 2705 C 260.979 0.64513 4.27156 0
M  V30 2706 C 260.114 -0.117405 5.3107 0
M  V30 2707 C 259.153 0.841391 6.0629 0
M  V30 2708 N 258.29 0.111604 7.02011 0
M  V30 2709 H 263.13 1.27441 2.69375 0
M  V30 2710 H 260.667 0.639697 1.32462 0
M  V30 2711 H 262.625 -0.76785 4.10073 0
M  V30 2712 H 261.255 -1.13745 3.02096 0
M  V30 2713 H 260.307 1.21067 3.6062 0
M  V30 2714 H 261.619 1.37797 4.79389 0
M  V30 2715 H 260.773 -0.624422 6.03478 0
M  V30 2716 H 259.512 -0.883219 4.79636 0
M  V30 2717 H 258.517 1.35967 5.32722 0
M  V30 2718 H 259.742 1.60696 6.59813 0
M  V30 2719 H 257.688 -0.635999 6.5291 0
M  V30 2720 H 257.605 0.784044 7.51923 0
M  V30 2721 H 258.873 -0.374823 7.78598 0
M  V30 2722 N 263.102 -1.41638 0.69111 0
M  V30 2723 C 264.049 -2.30789 0.0229705 0
M  V30 2724 C 265.019 -1.46863 -0.775911 0
M  V30 2725 O 266.204 -1.75661 -0.74485 0
M  V30 2726 C 263.344 -3.32868 -0.910666 0
M  V30 2727 C 262.457 -4.31875 -0.103874 0
M  V30 2728 C 261.592 -5.21024 -1.03475 0
M  V30 2729 C 260.631 -6.11702 -0.220598 0
M  V30 2730 N 259.768 -6.93349 -1.10504 0
M  V30 2731 H 264.608 -2.87366 0.788978 0
M  V30 2732 H 262.145 -1.41535 0.400794 0
M  V30 2733 H 264.103 -3.90596 -1.46597 0
M  V30 2734 H 262.733 -2.77851 -1.64312 0
M  V30 2735 H 261.785 -3.76131 0.568285 0
M  V30 2736 H 263.097 -4.96003 0.527504 0
M  V30 2737 H 262.251 -5.83565 -1.65943 0
M  V30 2738 H 260.99 -4.57112 -1.69999 0
M  V30 2739 H 259.995 -5.48215 0.417187 0
M  V30 2740 H 261.22 -6.77668 0.440784 0
M  V30 2741 H 259.166 -6.3205 -1.75638 0
M  V30 2742 H 259.083 -7.54146 -0.529125 0
M  V30 2743 H 260.351 -7.60362 -1.71667 0
M  V30 2744 N 264.58 -0.43555 -1.51462 0
M  V30 2745 C 265.512 0.41257 -2.25456 0
M  V30 2746 C 266.525 0.987822 -1.29406 0
M  V30 2747 O 267.714 0.882266 -1.55172 0
M  V30 2748 C 264.814 1.58894 -2.99342 0
M  V30 2749 C 263.987 1.13288 -4.22474 0
M  V30 2750 C 263.046 2.17917 -4.78956 0
M  V30 2751 O 262.072 1.77425 -5.40841 0
M  V30 2752 N 263.274 3.50382 -4.62832 0
M  V30 2753 H 266.039 -0.221603 -2.9888 0
M  V30 2754 H 263.6 -0.264342 -1.59727 0
M  V30 2755 H 265.592 2.28508 -3.34015 0
M  V30 2756 H 264.162 2.12849 -2.28941 0
M  V30 2757 H 263.382 0.263881 -3.93316 0
M  V30 2758 H 264.67 0.805542 -5.02383 0
M  V30 2759 H 264.068 3.86013 -4.13534 0
M  V30 2760 H 262.625 4.15895 -5.01871 0
M  V30 2761 N 266.058 1.56714 -0.166846 0
M  V30 2762 C 267.307 1.95922 0.479318 0
M  V30 2763 C 267.62 1.05529 1.6469 0
M  V30 2764 O 268.826 1.34399 2.35901 0
M  V30 2765 C 267.282 3.48359 0.90412 0
M  V30 2766 C 266.89 4.47369 -0.237621 0
M  V30 2767 C 268.634 3.96394 1.51896 0
M  V30 2768 C 266.541 5.91039 0.206561 0
M  V30 2769 H 265.471 0.731495 0.18284 0
M  V30 2770 H 268.122 1.81728 -0.254363 0
M  V30 2771 H 266.504 3.57955 1.69365 0
M  V30 2772 H 267.678 4.49485 -1.01489 0
M  V30 2773 H 265.993 4.09366 -0.762128 0
M  V30 2774 H 268.59 5.01186 1.86325 0
M  V30 2775 H 268.933 3.39075 2.41524 0
M  V30 2776 H 269.466 3.89796 0.79395 0
M  V30 2777 H 266.205 6.52221 -0.654834 0
M  V30 2778 H 265.725 5.9224 0.949282 0
M  V30 2779 H 267.404 6.43707 0.651939 0
M  V30 2780 N 267.536 -0.106894 1.57237 0
M  V30 2781 C 268.484 -1.14944 2.02215 0
M  V30 2782 C 269.478 -1.42167 0.92114 0
M  V30 2783 O 270.684 -1.41987 1.10634 0
M  V30 2784 H 267.059 -0.387841 0.64427 0
M  V30 2785 H 269.03 -0.743683 2.88984 0
M  V30 2786 C 267.779 -2.4647 2.4525 0
M  V30 2787 H 267.102 -2.26363 3.29545 0
M  V30 2788 H 268.542 -3.17948 2.80508 0
M  V30 2789 C 267.001 -3.09921 1.321 0
M  V30 2790 O 267.531 -3.9651 0.643622 0
M  V30 2791 N 265.737 -2.69986 1.07497 0
M  V30 2792 H 265.284 -1.99667 1.62761 0
M  V30 2793 H 265.242 -3.12769 0.319876 0
M  V30 2794 N 269.014 -1.53014 -0.377408 0
M  V30 2795 C 270.291 -1.59215 -1.13622 0
M  V30 2796 C 270.671 -0.392407 -2.07421 0
M  V30 2797 O 270.019 0.618342 -2.19975 0
M  V30 2798 C 270.229 -2.93669 -1.88573 0
M  V30 2799 C 271.577 -3.47822 -2.43526 0
M  V30 2800 O 272.601 -2.9562 -1.98715 0
M  V30 2801 O 271.46 -4.39055 -3.25412 0
M  V30 2802 H 268.554 -0.642625 -0.52054 0
M  V30 2803 H 271.1 -1.65353 -0.381625 0
M  V30 2804 H 269.872 -3.7243 -1.20048 0
M  V30 2805 H 269.495 -2.90968 -2.70968 0
M  V30 2806 N 270.492 0.636531 -1.44174 0
M  V30 2807 C 271.722 1.42146 -1.49927 0
M  V30 2808 C 272.13 1.88812 -0.121063 0
M  V30 2809 O 271.473 1.61126 0.882267 0
M  V30 2810 C 271.535 2.67883 -2.39748 0
M  V30 2811 C 271.199 2.43048 -3.8701 0
M  V30 2812 C 272.196 2.05216 -4.77684 0
M  V30 2813 C 269.881 2.56856 -4.3166 0
M  V30 2814 C 271.875 1.81512 -6.11009 0
M  V30 2815 C 269.562 2.32766 -5.65034 0
M  V30 2816 C 270.56 1.95152 -6.54526 0
M  V30 2817 O 270.248 1.71326 -7.85431 0
M  V30 2818 H 269.98 0.442567 -0.51099 0
M  V30 2819 H 272.534 0.786158 -1.8976 0
M  V30 2820 H 270.764 3.34032 -1.94832 0
M  V30 2821 H 272.453 3.29874 -2.36513 0
M  V30 2822 H 273.219 1.94111 -4.44462 0
M  V30 2823 H 269.098 2.85104 -3.62266 0
M  V30 2824 H 272.642 1.52077 -6.80822 0
M  V30 2825 H 268.539 2.43479 -5.97819 0
M  V30 2826 H 269.307 1.85616 -7.97176 0
M  V30 2827 N 271.97 1.30982 0.876444 0
M  V30 2828 C 273.216 1.20474 1.63138 0
M  V30 2829 C 273.549 -0.238096 1.92735 0
M  V30 2830 O 272.824 -1.1692 1.55435 0
M  V30 2831 C 273.107 2.04244 2.96574 0
M  V30 2832 C 272.96 3.56793 2.73896 0
M  V30 2833 C 274.279 1.88684 3.97601 0
M  V30 2834 H 271.398 0.439001 0.591985 0
M  V30 2835 H 274.04 1.60704 1.01361 0
M  V30 2836 H 272.19 1.70063 3.493 0
M  V30 2837 H 273.862 4.01077 2.27892 0
M  V30 2838 H 272.105 3.80548 2.08245 0
M  V30 2839 H 272.776 4.10706 3.68815 0
M  V30 2840 H 275.252 2.18584 3.54062 0
M  V30 2841 H 274.128 2.4961 4.88862 0
M  V30 2842 H 274.389 0.848343 4.33884 0
M  V30 2843 N 273.449 -1.08991 1.13837 0
M  V30 2844 C 274.359 -2.19301 0.833333 0
M  V30 2845 C 275.375 -1.73026 -0.183847 0
M  V30 2846 O 276.551 -2.01395 -0.0138092 0
M  V30 2847 C 273.616 -3.45323 0.308651 0
M  V30 2848 C 272.677 -4.06255 1.38764 0
M  V30 2849 C 271.91 -5.26262 0.887896 0
M  V30 2850 O 272.133 -5.69747 -0.27287 0
M  V30 2851 O 271.067 -5.78435 1.66421 0
M  V30 2852 H 274.893 -2.47854 1.75506 0
M  V30 2853 H 272.478 -1.18012 0.916166 0
M  V30 2854 H 274.36 -4.21394 0.0216739 0
M  V30 2855 H 273.035 -3.18362 -0.585431 0
M  V30 2856 H 271.942 -3.318 1.72799 0
M  V30 2857 H 273.275 -4.37452 2.25602 0
M  V30 2858 N 274.927 -0.932562 -1.27047 0
M  V30 2859 C 275.874 -0.434072 -2.26681 0
M  V30 2860 C 276.844 0.501639 -1.58344 0
M  V30 2861 O 278.029 0.419734 -1.86126 0
M  V30 2862 C 275.169 0.30261 -3.43771 0
M  V30 2863 C 274.282 -0.667774 -4.26808 0
M  V30 2864 C 273.417 0.0892393 -5.31125 0
M  V30 2865 C 272.456 -0.873532 -6.05835 0
M  V30 2866 N 271.593 -0.148832 -7.01942 0
M  V30 2867 H 276.433 -1.28868 -2.68695 0
M  V30 2868 H 273.97 -0.646713 -1.32121 0
M  V30 2869 H 275.928 0.746092 -4.10474 0
M  V30 2870 H 274.558 1.12142 -3.02695 0
M  V30 2871 H 273.61 -1.22978 -3.59973 0
M  V30 2872 H 274.922 -1.40337 -4.78651 0
M  V30 2873 H 274.076 0.592409 -6.03801 0
M  V30 2874 H 272.815 0.85777 -4.80097 0
M  V30 2875 H 271.82 -1.38791 -5.31994 0
M  V30 2876 H 273.045 -1.64193 -6.58952 0
M  V30 2877 H 270.991 0.601365 -6.53238 0
M  V30 2878 H 270.908 -0.82391 -7.51497 0
M  V30 2879 H 272.176 0.333527 -7.78786 0
M  V30 2880 N 276.405 1.4127 -0.698611 0
M  V30 2881 C 277.653 2.00782 -0.230409 0
M  V30 2882 C 277.974 1.5562 1.17505 0
M  V30 2883 O 277.244 0.78815 1.79346 0
M  V30 2884 H 275.824 0.742464 -0.0821944 0
M  V30 2885 H 278.486 1.72852 -0.90045 0
M  V30 2886 H 277.582 3.11095 -0.25021 0
M  V30 2887 N 277.883 0.443576 1.51229 0
M  V30 2888 C 279.111 -0.11929 2.06556 0
M  V30 2889 C 279.526 -1.35921 1.31038 0
M  V30 2890 O 278.883 -1.78675 0.371704 0
M  V30 2891 C 278.934 -0.435228 3.5887 0
M  V30 2892 O 278.655 0.755486 4.31537 0
M  V30 2893 C 280.156 -1.04808 4.30732 0
M  V30 2894 H 277.376 -0.0051584 0.67098 0
M  V30 2895 H 279.92 0.624453 1.94733 0
M  V30 2896 H 278.075 -1.12887 3.70588 0
M  V30 2897 H 278.489 0.483491 5.22267 0
M  V30 2898 H 279.963 -1.2191 5.3837 0
M  V30 2899 H 280.44 -2.03081 3.89429 0
M  V30 2900 H 281.046 -0.393637 4.23474 0
M  V30 2901 N 279.361 -1.56624 0.175154 0
M  V30 2902 C 280.293 -2.15333 -0.785128 0
M  V30 2903 C 281.306 -1.1099 -1.19101 0
M  V30 2904 O 282.495 -1.38162 -1.13019 0
M  V30 2905 C 279.595 -2.68427 -2.06882 0
M  V30 2906 C 278.768 -3.97466 -1.8259 0
M  V30 2907 C 277.827 -4.35585 -2.95215 0
M  V30 2908 O 276.853 -5.03389 -2.65684 0
M  V30 2909 N 278.055 -3.97457 -4.23094 0
M  V30 2910 H 280.82 -2.98359 -0.283187 0
M  V30 2911 H 278.381 -1.61898 -0.00749817 0
M  V30 2912 H 280.373 -2.90924 -2.81328 0
M  V30 2913 H 278.943 -1.89968 -2.48256 0
M  V30 2914 H 278.163 -3.83307 -0.920287 0
M  V30 2915 H 279.451 -4.81736 -1.63733 0
M  V30 2916 H 278.849 -3.42878 -4.49945 0
M  V30 2917 H 277.406 -4.24947 -4.9423 0
M  V30 2918 N 280.839 0.0985539 -1.57292 0
M  V30 2919 C 282.087 0.801092 -1.85545 0
M  V30 2920 C 282.408 1.79438 -0.763353 0
M  V30 2921 O 281.678 1.94763 0.21073 0
M  V30 2922 H 280.258 0.29884 -0.684619 0
M  V30 2923 H 282.92 0.0810064 -1.94732 0
M  V30 2924 H 282.016 1.3338 -2.82163 0
M  V30 2925 N 282.317 1.53212 0.369288 0
M  V30 2926 C 283.264 1.79388 1.45219 0
M  V30 2927 C 284.234 0.638059 1.53356 0
M  V30 2928 O 285.419 0.879852 1.69302 0
M  V30 2929 C 282.559 1.98623 2.82211 0
M  V30 2930 C 281.672 3.26337 2.8307 0
M  V30 2931 C 280.807 3.35779 4.11614 0
M  V30 2932 C 279.846 4.5754 4.06601 0
M  V30 2933 N 278.983 4.64155 5.26787 0
M  V30 2934 H 283.823 2.71794 1.22198 0
M  V30 2935 H 281.36 1.34642 0.592444 0
M  V30 2936 H 283.318 2.07761 3.61789 0
M  V30 2937 H 281.948 1.09558 3.03639 0
M  V30 2938 H 281 3.26171 1.95747 0
M  V30 2939 H 282.312 4.15988 2.75237 0
M  V30 2940 H 281.466 3.44208 4.99606 0
M  V30 2941 H 280.205 2.44137 4.22195 0
M  V30 2942 H 279.21 4.49215 3.16996 0
M  V30 2943 H 280.435 5.50519 3.97625 0
M  V30 2944 H 278.381 3.75413 5.3796 0
M  V30 2945 H 278.298 5.47706 5.21109 0
M  V30 2946 H 279.566 4.76863 6.16621 0
M  V30 2947 N 283.795 -0.628877 1.44509 0
M  V30 2948 C 285.044 -1.38437 1.4669 0
M  V30 2949 C 285.357 -1.95322 0.104272 0
M  V30 2950 O 286.563 -2.715 0.00362163 0
M  V30 2951 C 285.019 -2.50659 2.5826 0
M  V30 2952 C 284.627 -2.00277 4.0074 0
M  V30 2953 C 286.371 -3.27844 2.69664 0
M  V30 2954 C 284.278 -3.09854 5.0373 0
M  V30 2955 H 283.208 -0.520245 0.545766 0
M  V30 2956 H 285.859 -0.676313 1.70582 0
M  V30 2957 H 284.241 -3.2405 2.27612 0
M  V30 2958 H 285.415 -1.33736 4.40966 0
M  V30 2959 H 283.73 -1.35901 3.93599 0
M  V30 2960 H 286.327 -4.09534 3.43781 0
M  V30 2961 H 286.67 -3.77471 1.75559 0
M  V30 2962 H 287.203 -2.61543 2.99733 0
M  V30 2963 H 283.942 -2.65168 5.99472 0
M  V30 2964 H 283.462 -3.7503 4.68095 0
M  V30 2965 H 285.141 -3.74592 5.27532 0
M  V30 2966 N 285.273 -1.31445 -0.869486 0
M  V30 2967 C 286.519 -1.21337 -1.62496 0
M  V30 2968 C 286.852 0.227872 -1.92858 0
M  V30 2969 O 286.127 1.16094 -1.56053 0
M  V30 2970 C 286.41 -2.05814 -2.95487 0
M  V30 2971 C 286.263 -3.5824 -2.72 0
M  V30 2972 C 287.582 -1.9079 -3.96594 0
M  V30 2973 H 284.701 -0.442135 -0.589649 0
M  V30 2974 H 287.343 -1.6124 -1.00507 0
M  V30 2975 H 285.493 -1.71913 -3.48394 0
M  V30 2976 H 287.165 -4.0228 -2.25762 0
M  V30 2977 H 285.408 -3.81647 -2.06224 0
M  V30 2978 H 286.079 -4.12657 -3.66631 0
M  V30 2979 H 288.555 -2.20459 -3.52898 0
M  V30 2980 H 287.431 -2.52199 -4.87531 0
M  V30 2981 H 287.692 -0.871341 -4.33428 0
M  V30 2982 N 286.751 1.08385 -1.14413 0
M  V30 2983 C 288.028 1.77429 -0.823297 0
M  V30 2984 C 288.408 1.9974 0.683163 0
M  V30 2985 O 287.756 1.60739 1.62405 0
M  V30 2986 C 287.966 3.09004 -1.62227 0
M  V30 2987 C 289.314 3.83532 -1.82177 0
M  V30 2988 O 290.338 3.18786 -1.58915 0
M  V30 2989 O 289.197 4.99792 -2.21067 0
M  V30 2990 H 286.291 0.769999 -0.301712 0
M  V30 2991 H 288.837 1.14846 -1.24934 0
M  V30 2992 H 287.609 2.88316 -2.64555 0
M  V30 2993 H 287.232 3.79316 -1.19187 0
M  V30 2994 N 288.23 0.939286 1.26551 0
M  V30 2995 C 289.16 0.465044 2.28822 0
M  V30 2996 C 290.141 -0.480692 1.63167 0
M  V30 2997 O 291.326 -0.382955 1.90387 0
M  V30 2998 C 288.456 -0.27234 3.46231 0
M  V30 2999 C 287.41 0.58666 4.2396 0
M  V30 3000 C 286.736 -0.280573 5.33963 0
M  V30 3001 C 288.036 1.85704 4.88171 0
M  V30 3002 H 289.73 1.31979 2.68741 0
M  V30 3003 H 287.276 0.636061 1.29191 0
M  V30 3004 H 289.229 -0.615133 4.16886 0
M  V30 3005 H 287.953 -1.16121 3.0526 0
M  V30 3006 H 286.612 0.91232 3.55067 0
M  V30 3007 H 286.26 -1.16874 4.89234 0
M  V30 3008 H 285.96 0.29076 5.8688 0
M  V30 3009 H 287.484 -0.618678 6.07458 0
M  V30 3010 H 288.898 1.58161 5.51052 0
M  V30 3011 H 287.295 2.37279 5.51197 0
M  V30 3012 H 288.365 2.56957 4.11219 0
M  V30 3013 N 289.708 -1.40897 0.706093 0
M  V30 3014 C 290.954 -2.01352 0.241889 0
M  V30 3015 C 291.287 -1.55832 -1.15888 0
M  V30 3016 O 290.562 -0.774145 -1.7843 0
M  V30 3017 C 290.845 -3.58752 0.311311 0
M  V30 3018 C 290.698 -4.1437 1.74978 0
M  V30 3019 C 292.017 -4.38914 -0.322922 0
M  V30 3020 H 289.136 -0.731562 0.0893687 0
M  V30 3021 H 291.778 -1.67504 0.896802 0
M  V30 3022 H 289.928 -3.87718 -0.246302 0
M  V30 3023 H 291.6 -3.96239 2.36205 0
M  V30 3024 H 289.843 -3.69016 2.28057 0
M  V30 3025 H 290.514 -5.23532 1.74981 0
M  V30 3026 H 292.99 -4.15822 0.152089 0
M  V30 3027 H 291.866 -5.48358 -0.243855 0
M  V30 3028 H 292.127 -4.19176 -1.40513 0
M  V30 3029 N 291.186 -0.45159 -1.50991 0
M  V30 3030 C 292.133 0.352625 -2.2809 0
M  V30 3031 C 293.103 1.0044 -1.32291 0
M  V30 3032 O 294.288 1.02058 -1.6121 0
M  V30 3033 C 291.428 1.43983 -3.13629 0
M  V30 3034 C 290.541 0.804772 -4.24438 0
M  V30 3035 C 289.676 1.86822 -4.97263 0
M  V30 3036 C 288.715 1.21236 -5.99973 0
M  V30 3037 N 287.852 2.2178 -6.66152 0
M  V30 3038 H 292.692 -0.311186 -2.96371 0
M  V30 3039 H 290.229 -0.165308 -1.46168 0
M  V30 3040 H 292.187 2.08161 -3.61559 0
M  V30 3041 H 290.817 2.07307 -2.47434 0
M  V30 3042 H 289.869 0.0509129 -3.80366 0
M  V30 3043 H 291.181 0.286076 -4.97979 0
M  V30 3044 H 290.335 2.58628 -5.48813 0
M  V30 3045 H 289.074 2.42068 -4.23385 0
M  V30 3046 H 288.079 0.479828 -5.47702 0
M  V30 3047 H 289.304 0.667051 -6.75816 0
M  V30 3048 H 287.25 2.76079 -5.95077 0
M  V30 3049 H 287.167 1.74841 -7.35504 0
M  V30 3050 H 288.435 2.93026 -7.22327 0
M  V30 3051 N 292.664 1.56529 -0.183458 0
M  V30 3052 C 293.574 2.22144 0.754272 0
M  V30 3053 C 294.59 1.21684 1.24374 0
M  V30 3054 O 295.766 1.54385 1.29333 0
M  V30 3055 C 292.831 2.85884 1.96141 0
M  V30 3056 C 291.892 4.01579 1.51765 0
M  V30 3057 C 291.125 4.6227 2.66725 0
M  V30 3058 O 291.348 4.21865 3.83909 0
M  V30 3059 O 290.282 5.51936 2.40104 0
M  V30 3060 H 294.108 3.02861 0.225527 0
M  V30 3061 H 291.693 1.49331 0.0453032 0
M  V30 3062 H 293.575 3.26253 2.66715 0
M  V30 3063 H 292.25 2.08154 2.47899 0
M  V30 3064 H 291.157 3.65856 0.781049 0
M  V30 3065 H 292.49 4.80938 1.04686 0
M  V30 3066 N 294.142 -0.090211 1.57342 0
M  V30 3067 C 295.072 -1.10976 2.05443 0
M  V30 3068 C 296.053 -1.41482 0.944284 0
M  V30 3069 O 297.238 -1.51428 1.21586 0
M  V30 3070 C 294.368 -2.42831 2.48295 0
M  V30 3071 C 293.322 -2.26721 3.63018 0
M  V30 3072 C 292.648 -3.63796 3.91863 0
M  V30 3073 C 293.948 -1.7037 4.93732 0
M  V30 3074 H 295.642 -0.709564 2.9087 0
M  V30 3075 H 293.188 -0.339874 1.39932 0
M  V30 3076 H 295.141 -3.14431 2.80555 0
M  V30 3077 H 293.865 -2.84795 1.59873 0
M  V30 3078 H 292.524 -1.57565 3.31012 0
M  V30 3079 H 292.172 -4.03297 3.00601 0
M  V30 3080 H 291.872 -3.53861 4.69101 0
M  V30 3081 H 293.396 -4.36855 4.26603 0
M  V30 3082 H 294.81 -2.31816 5.24342 0
M  V30 3083 H 293.207 -1.71181 5.75167 0
M  V30 3084 H 294.277 -0.663542 4.80339 0
M  V30 3085 N 295.62 -1.53406 -0.361157 0
M  V30 3086 C 296.897 -1.60411 -1.11927 0
M  V30 3087 C 297.277 -0.414385 -2.06993 0
M  V30 3088 O 296.625 0.594976 -2.20618 0
M  V30 3089 C 296.835 -2.95652 -1.85448 0
M  V30 3090 C 298.183 -3.50386 -2.39823 0
M  V30 3091 O 299.207 -2.97711 -1.95568 0
M  V30 3092 O 298.066 -4.42482 -3.20737 0
M  V30 3093 H 295.16 -0.64811 -0.513695 0
M  V30 3094 H 297.706 -1.65749 -0.364065 0
M  V30 3095 H 296.478 -3.73682 -1.16091 0
M  V30 3096 H 296.101 -2.93825 -2.67866 0
M  V30 3097 N 297.098 0.621204 -1.44841 0
M  V30 3098 C 298.514 0.94048 -1.28946 0
M  V30 3099 C 298.714 2.00154 -0.23249 0
M  V30 3100 O 297.77 2.49651 0.378237 0
M  V30 3101 C 299.083 1.39433 -2.66419 0
M  V30 3102 C 300.631 1.50927 -2.74208 0
M  V30 3103 C 301.106 1.99692 -4.12174 0
M  V30 3104 N 302.597 2.06947 -4.144 0
M  V30 3105 C 303.332 2.45871 -5.1801 0
M  V30 3106 N 302.828 2.83862 -6.31977 0
M  V30 3107 N 304.621 2.46092 -5.05366 0
M  V30 3108 H 296.772 -0.0803548 -2.12248 0
M  V30 3109 H 299.035 0.0266913 -0.947624 0
M  V30 3110 H 298.741 0.688925 -3.44887 0
M  V30 3111 H 298.615 2.36347 -2.93973 0
M  V30 3112 H 301.002 2.20561 -1.96053 0
M  V30 3113 H 301.083 0.523627 -2.50383 0
M  V30 3114 H 300.727 1.30649 -4.90809 0
M  V30 3115 H 300.657 2.99146 -4.33381 0
M  V30 3116 H 303.148 1.80232 -3.32152 0
M  V30 3117 H 303.461 3.12405 -7.0684 0
M  V30 3118 H 301.806 2.8159 -6.35399 0
M  V30 3119 H 304.997 2.1581 -4.15384 0
M  V30 3120 H 305.17 2.76102 -5.86235 0
M  V30 3121 N 298.576 1.31904 0.862503 0
M  V30 3122 C 299.853 1.12644 1.59908 0
M  V30 3123 C 300.233 -0.316104 2.0872 0
M  V30 3124 O 299.581 -1.31145 1.87118 0
M  V30 3125 C 299.791 2.1472 2.7513 0
M  V30 3126 C 301.139 2.47637 3.44907 0
M  V30 3127 O 302.163 2.13205 2.85346 0
M  V30 3128 O 301.022 3.06632 4.52371 0
M  V30 3129 H 298.116 0.43416 0.703871 0
M  V30 3130 H 300.662 1.43408 0.907314 0
M  V30 3131 H 299.434 3.1172 2.3653 0
M  V30 3132 H 299.057 1.84905 3.51989 0
M  V30 3133 N 300.054 -1.07777 1.14986 0
M  V30 3134 C 301.282 -1.84018 0.945773 0
M  V30 3135 C 301.697 -1.81897 -0.505863 0
M  V30 3136 O 301.054 -1.22726 -1.35072 0
M  V30 3137 C 301.105 -3.31287 1.44677 0
M  V30 3138 O 300.826 -3.33449 2.84154 0
M  V30 3139 C 302.327 -4.24311 1.28355 0
M  V30 3140 H 299.547 -0.580716 0.336169 0
M  V30 3141 H 302.091 -1.36077 1.52654 0
M  V30 3142 H 300.246 -3.76594 0.908625 0
M  V30 3143 H 300.66 -4.25427 3.06777 0
M  V30 3144 H 302.134 -5.2573 1.68261 0
M  V30 3145 H 302.611 -4.38612 0.227184 0
M  V30 3146 H 303.217 -3.84836 1.81056 0
M  V30 3147 N 301.532 -0.945985 -1.26051 0
M  V30 3148 C 302.778 -0.597002 -1.93814 0
M  V30 3149 C 303.111 0.862484 -1.73997 0
M  V30 3150 O 302.386 1.61769 -1.07986 0
M  V30 3151 C 302.669 -0.945937 -3.47454 0
M  V30 3152 C 302.522 -2.46052 -3.76535 0
M  V30 3153 C 303.841 -0.464785 -4.37639 0
M  V30 3154 H 300.96 -0.218366 -0.703907 0
M  V30 3155 H 303.602 -1.18107 -1.48831 0
M  V30 3156 H 301.752 -0.448902 -3.85898 0
M  V30 3157 H 303.424 -3.03065 -3.47778 0
M  V30 3158 H 301.667 -2.90194 -3.22444 0
M  V30 3159 H 302.338 -2.65517 -4.83947 0
M  V30 3160 H 304.814 -0.891016 -4.06448 0
M  V30 3161 H 303.69 -0.737712 -5.4392 0
M  V30 3162 H 303.951 0.635274 -4.37512 0
M  V30 3163 N 303.011 1.40521 -0.713556 0
M  V30 3164 C 304.258 2.00923 -0.25219 0
M  V30 3165 C 304.586 1.56571 1.15395 0
M  V30 3166 O 303.841 0.775874 1.79663 0
M  V30 3167 C 304.14 3.56317 -0.278 0
M  V30 3168 C 303.806 4.20246 -1.63415 0
M  V30 3169 C 302.468 4.37422 -2.00538 0
M  V30 3170 C 304.82 4.55923 -2.52554 0
M  V30 3171 C 302.148 4.87558 -3.2635 0
M  V30 3172 C 304.5 5.07458 -3.77716 0
M  V30 3173 C 303.164 5.22843 -4.14959 0
M  V30 3174 H 302.434 0.735231 -0.0922829 0
M  V30 3175 H 305.081 1.68161 -0.916188 0
M  V30 3176 H 303.386 3.88976 0.469567 0
M  V30 3177 H 305.083 4.00883 0.0967819 0
M  V30 3178 H 301.673 4.07263 -1.33546 0
M  V30 3179 H 305.857 4.42291 -2.25149 0
M  V30 3180 H 301.113 4.97654 -3.55176 0
M  V30 3181 H 305.287 5.34041 -4.4696 0
M  V30 3182 H 302.914 5.61454 -5.12516 0
M  V30 3183 N 304.489 0.459591 1.5075 0
M  V30 3184 C 305.452 -0.329093 2.26825 0
M  V30 3185 C 306.452 -0.930481 1.31144 0
M  V30 3186 O 307.642 -0.801453 1.54669 0
M  V30 3187 C 304.774 -1.46768 3.07688 0
M  V30 3188 H 305.967 0.337924 2.9799 0
M  V30 3189 H 303.52 0.213336 1.54837 0
M  V30 3190 H 304.255 -2.17009 2.40993 0
M  V30 3191 H 304.04 -1.04238 3.77991 0
M  V30 3192 H 305.53 -2.02433 3.65254 0
M  V30 3193 N 305.967 -1.56429 0.191757 0
M  V30 3194 C 306.897 -2.21937 -0.725696 0
M  V30 3195 C 307.878 -1.1814 -1.2238 0
M  V30 3196 O 309.063 -1.46636 -1.27325 0
M  V30 3197 C 306.193 -2.87611 -1.94672 0
M  V30 3198 C 305.147 -3.97623 -1.58366 0
M  V30 3199 C 304.473 -4.50446 -2.88102 0
M  V30 3200 C 305.773 -5.16197 -0.796133 0
M  V30 3201 H 307.467 -2.98861 -0.179606 0
M  V30 3202 H 305.013 -1.43749 -0.0849464 0
M  V30 3203 H 306.966 -3.3212 -2.59373 0
M  V30 3204 H 305.69 -2.08087 -2.51728 0
M  V30 3205 H 304.349 -3.53801 -0.960247 0
M  V30 3206 H 303.997 -3.67688 -3.43241 0
M  V30 3207 H 303.697 -5.24675 -2.64556 0
M  V30 3208 H 305.221 -4.97654 -3.53798 0
M  V30 3209 H 306.635 -5.57271 -1.34618 0
M  V30 3210 H 305.032 -5.96471 -0.658928 0
M  V30 3211 H 306.102 -4.84473 0.203478 0
M  V30 3212 N 307.445 0.0818655 -1.57387 0
M  V30 3213 C 308.691 0.784074 -1.8703 0
M  V30 3214 C 309.024 1.77729 -0.782689 0
M  V30 3215 O 308.299 1.93384 0.208051 0
M  V30 3216 C 308.582 1.50105 -3.27323 0
M  V30 3217 C 308.435 0.524925 -4.46727 0
M  V30 3218 C 309.754 2.44843 -3.65705 0
M  V30 3219 H 306.873 0.283582 -0.680257 0
M  V30 3220 H 309.515 0.0474352 -1.89941 0
M  V30 3221 H 307.665 2.12897 -3.24972 0
M  V30 3222 H 309.337 -0.0970111 -4.61198 0
M  V30 3223 H 307.58 -0.160606 -4.33503 0
M  V30 3224 H 308.251 1.064 -5.41648 0
M  V30 3225 H 310.727 1.92135 -3.69085 0
M  V30 3226 H 309.603 2.92018 -4.64776 0
M  V30 3227 H 309.864 3.29197 -2.95096 0
M  V30 3228 N 308.923 1.53595 0.353017 0
M  V30 3229 C 309.871 1.81605 1.45335 0
M  V30 3230 C 310.865 0.685923 1.54892 0
M  V30 3231 O 312.071 0.869095 1.57628 0
M  V30 3232 H 308.446 0.575204 0.484401 0
M  V30 3233 H 310.417 2.73679 1.18921 0
M  V30 3234 C 309.166 2.03406 2.81995 0
M  V30 3235 H 308.489 2.89814 2.75405 0
M  V30 3236 H 309.929 2.26975 3.58132 0
M  V30 3237 C 308.388 0.816794 3.26849 0
M  V30 3238 O 308.918 0.0115856 4.01698 0
M  V30 3239 N 307.124 0.636682 2.8354 0
M  V30 3240 H 306.671 1.2931 2.22793 0
M  V30 3241 H 306.629 -0.176336 3.13905 0
M  V30 3242 N 310.401 -0.613514 1.45168 0
M  V30 3243 C 311.631 -1.39743 1.52169 0
M  V30 3244 C 312.039 -1.88596 0.151086 0
M  V30 3245 O 311.382 -1.6251 -0.856521 0
M  V30 3246 C 311.444 -2.64035 2.43979 0
M  V30 3247 C 311.108 -2.36861 3.90827 0
M  V30 3248 C 312.105 -1.97591 4.80889 0
M  V30 3249 C 309.79 -2.49956 4.35692 0
M  V30 3250 C 311.784 -1.71768 6.1382 0
M  V30 3251 C 309.471 -2.23747 5.68665 0
M  V30 3252 C 310.469 -1.84714 6.57548 0
M  V30 3253 O 310.157 -1.58809 7.88058 0
M  V30 3254 H 309.889 -0.434382 0.517966 0
M  V30 3255 H 312.443 -0.75587 1.90986 0
M  V30 3256 H 310.673 -3.3089 2.00122 0
M  V30 3257 H 312.362 -3.26069 2.41731 0
M  V30 3258 H 313.128 -1.87015 4.47493 0
M  V30 3259 H 309.007 -2.79305 3.66756 0
M  V30 3260 H 312.551 -1.41227 6.83155 0
M  V30 3261 H 308.448 -2.33938 6.01617 0
M  V30 3262 H 309.216 -1.7291 8.00028 0
M  V30 3263 N 311.879 -1.3236 -0.855495 0
M  V30 3264 C 313.128 -1.22226 -1.60448 0
M  V30 3265 C 313.441 0.214733 -1.94418 0
M  V30 3266 O 314.647 0.437917 -2.67945 0
M  V30 3267 C 313.103 -2.14063 -2.89318 0
M  V30 3268 C 312.711 -3.62839 -2.62777 0
M  V30 3269 C 314.455 -2.12764 -3.67331 0
M  V30 3270 C 312.362 -4.4664 -3.87643 0
M  V30 3271 H 311.292 -0.453904 -0.602069 0
M  V30 3272 H 313.943 -1.57314 -0.944698 0
M  V30 3273 H 312.325 -1.71889 -3.5675 0
M  V30 3274 H 313.499 -4.1335 -2.03662 0
M  V30 3275 H 311.814 -3.66261 -1.98096 0
M  V30 3276 H 314.411 -2.72611 -4.59987 0
M  V30 3277 H 314.754 -1.11841 -4.00995 0
M  V30 3278 H 315.287 -2.53214 -3.06802 0
M  V30 3279 H 312.026 -5.48373 -3.5912 0
M  V30 3280 H 311.546 -4.0088 -4.46156 0
M  V30 3281 H 313.225 -4.59597 -4.55389 0
M  V30 3282 N 313.357 1.07166 -1.15556 0
M  V30 3283 C 314.604 1.79798 -0.931604 0
M  V30 3284 C 314.932 1.8682 0.54115 0
M  V30 3285 O 314.187 1.34942 1.41736 0
M  V30 3286 C 314.486 3.24707 -1.49332 0
M  V30 3287 C 314.152 3.37781 -2.98688 0
M  V30 3288 C 312.814 3.41057 -3.39461 0
M  V30 3289 C 315.166 3.40424 -3.94665 0
M  V30 3290 C 312.494 3.4458 -4.74849 0
M  V30 3291 C 314.846 3.45485 -5.29927 0
M  V30 3292 C 313.51 3.47039 -5.70193 0
M  V30 3293 H 312.78 0.657928 -0.340898 0
M  V30 3294 H 315.427 1.26091 -1.44129 0
M  V30 3295 H 313.732 3.81208 -0.904859 0
M  V30 3296 H 315.429 3.79486 -1.29582 0
M  V30 3297 H 312.019 3.35932 -2.66172 0
M  V30 3298 H 316.203 3.37113 -3.64237 0
M  V30 3299 H 311.459 3.44083 -5.05388 0
M  V30 3300 H 315.633 3.46476 -6.04092 0
M  V30 3301 H 313.26 3.49522 -6.75084 0
M  V30 3302 N 314.835 0.952656 1.25548 0
M  V30 3303 C 316.082 0.606373 1.93208 0
M  V30 3304 C 316.41 -0.85631 1.74636 0
M  V30 3305 O 315.665 -1.62951 1.08376 0
M  V30 3306 C 315.964 0.908818 3.45652 0
M  V30 3307 C 315.63 2.35722 3.84378 0
M  V30 3308 C 314.292 2.75312 3.9466 0
M  V30 3309 C 316.644 3.29793 4.03591 0
M  V30 3310 C 313.972 4.08047 4.21562 0
M  V30 3311 C 316.324 4.62138 4.31985 0
M  V30 3312 C 314.988 5.01528 4.40484 0
M  V30 3313 H 314.258 0.221888 0.706998 0
M  V30 3314 H 316.905 1.20132 1.49133 0
M  V30 3315 H 315.21 0.231456 3.91116 0
M  V30 3316 H 316.907 0.619498 3.96186 0
M  V30 3317 H 313.497 2.04017 3.76928 0
M  V30 3318 H 317.681 3.00397 3.95064 0
M  V30 3319 H 312.937 4.38212 4.26357 0
M  V30 3320 H 317.111 5.35012 4.45797 0
M  V30 3321 H 314.738 6.04406 4.61083 0
M  V30 3322 N 316.313 -1.40141 0.720998 0
M  V30 3323 C 317.26 -2.30688 0.071919 0
M  V30 3324 C 318.23 -1.48476 -0.744584 0
M  V30 3325 O 319.415 -1.77201 -0.707423 0
M  V30 3326 C 316.555 -3.34724 -0.839855 0
M  V30 3327 C 315.668 -4.31998 -0.0122438 0
M  V30 3328 C 314.803 -5.23102 -0.923995 0
M  V30 3329 C 313.842 -6.12033 -0.0907969 0
M  V30 3330 N 312.979 -6.95537 -0.957718 0
M  V30 3331 H 317.819 -2.85628 0.849755 0
M  V30 3332 H 315.356 -1.40653 0.430726 0
M  V30 3333 H 317.314 -3.93618 -1.38279 0
M  V30 3334 H 315.944 -2.81274 -1.58381 0
M  V30 3335 H 314.996 -3.74841 0.64794 0
M  V30 3336 H 316.308 -4.94772 0.632595 0
M  V30 3337 H 315.462 -5.86953 -1.53527 0
M  V30 3338 H 314.201 -4.60615 -1.60264 0
M  V30 3339 H 313.206 -5.47207 0.533377 0
M  V30 3340 H 314.431 -6.76581 0.584428 0
M  V30 3341 H 312.377 -6.35633 -1.62192 0
M  V30 3342 H 312.294 -7.55099 -0.36904 0
M  V30 3343 H 313.562 -7.63832 -1.555 0
M  V30 3344 N 317.792 -0.46758 -1.50504 0
M  V30 3345 C 319.04 0.0884469 -2.01906 0
M  V30 3346 C 319.361 1.40532 -1.35188 0
M  V30 3347 O 318.631 1.89515 -0.496079 0
M  V30 3348 H 317.211 0.0356765 -0.746148 0
M  V30 3349 H 319.873 -0.6172 -1.84869 0
M  V30 3350 H 318.969 0.2425 -3.11156 0
M  V30 3351 N 319.27 1.56325 -0.20005 0
M  V30 3352 C 320.217 2.1932 0.718833 0
M  V30 3353 C 321.187 1.14198 1.20615 0
M  V30 3354 O 322.372 1.42469 1.26914 0
M  V30 3355 C 319.512 2.86041 1.93066 0
M  V30 3356 C 318.625 4.05702 1.48425 0
M  V30 3357 C 317.76 4.60266 2.65196 0
M  V30 3358 C 316.799 5.72273 2.17185 0
M  V30 3359 N 315.936 6.21221 3.27152 0
M  V30 3360 H 320.776 2.97486 0.17489 0
M  V30 3361 H 318.313 1.46911 0.0745794 0
M  V30 3362 H 320.271 3.22897 2.64184 0
M  V30 3363 H 318.901 2.1043 2.44783 0
M  V30 3364 H 317.953 3.74475 0.668755 0
M  V30 3365 H 319.265 4.86699 1.09204 0
M  V30 3366 H 318.419 4.99453 3.4443 0
M  V30 3367 H 317.158 3.78386 3.07693 0
M  V30 3368 H 316.163 5.3261 1.36407 0
M  V30 3369 H 317.388 6.55974 1.75713 0
M  V30 3370 H 315.334 5.42263 3.69171 0
M  V30 3371 H 315.251 6.97284 2.92116 0
M  V30 3372 H 316.519 6.65063 4.06585 0
M  V30 3373 N 320.748 -0.0735177 1.57428 0
M  V30 3374 C 321.994 -0.768909 1.88307 0
M  V30 3375 C 322.349 -1.75273 0.793535 0
M  V30 3376 O 321.642 -1.90527 -0.202466 0
M  V30 3377 C 321.836 -1.51799 3.23561 0
M  V30 3378 C 321.665 -0.608217 4.45568 0
M  V30 3379 C 320.435 -0.245808 5.04702 0
M  V30 3380 C 322.633 0.0942904 5.14214 0
M  V30 3381 N 320.615 0.66987 6.10234 0
M  V30 3382 C 321.986 0.867222 6.13905 0
M  V30 3383 C 324.041 0.165943 4.97623 0
M  V30 3384 C 322.744 1.70515 6.98797 0
M  V30 3385 C 324.77 0.990837 5.83041 0
M  V30 3386 C 324.132 1.75182 6.82269 0
M  V30 3387 H 320.231 -0.25685 0.738615 0
M  V30 3388 H 322.815 -0.030499 1.94676 0
M  V30 3389 H 320.986 -2.22713 3.18203 0
M  V30 3390 H 322.718 -2.16226 3.42094 0
M  V30 3391 H 319.473 -0.598284 4.69806 0
M  V30 3392 H 319.897 1.1209 6.67656 0
M  V30 3393 H 324.539 -0.408064 4.20826 0
M  V30 3394 H 322.257 2.29013 7.7497 0
M  V30 3395 H 325.843 1.04923 5.72261 0
M  V30 3396 H 324.723 2.37983 7.47217 0
M  V30 3397 N 322.226 -1.5378 -0.344866 0
M  V30 3398 C 323.136 -1.84667 -1.4469 0
M  V30 3399 C 324.152 -0.736704 -1.57635 0
M  V30 3400 O 325.328 -1.02888 -1.73136 0
M  V30 3401 C 322.393 -2.04869 -2.79696 0
M  V30 3402 C 321.454 -3.28731 -2.76106 0
M  V30 3403 C 320.687 -3.4796 -4.04673 0
M  V30 3404 O 320.91 -2.71052 -5.01883 0
M  V30 3405 O 319.844 -4.41383 -4.09224 0
M  V30 3406 H 323.67 -2.78334 -1.21506 0
M  V30 3407 H 321.255 -1.39418 -0.536921 0
M  V30 3408 H 323.137 -2.19609 -3.59652 0
M  V30 3409 H 321.812 -1.14391 -3.02814 0
M  V30 3410 H 320.719 -3.19396 -1.94774 0
M  V30 3411 H 322.052 -4.19198 -2.57941 0
M  V30 3412 N 323.704 0.605807 -1.45491 0
M  V30 3413 C 325.12 0.926751 -1.29936 0
M  V30 3414 C 325.32 1.99896 -0.253706 0
M  V30 3415 O 324.376 2.50038 0.351737 0
M  V30 3416 C 325.689 1.36599 -2.67883 0
M  V30 3417 C 327.237 1.4801 -2.75793 0
M  V30 3418 C 327.712 1.95309 -4.14268 0
M  V30 3419 N 329.203 2.0254 -4.16571 0
M  V30 3420 C 329.938 2.40363 -5.20589 0
M  V30 3421 N 329.434 2.77143 -6.34952 0
M  V30 3422 N 331.227 2.40718 -5.07948 0
M  V30 3423 H 323.378 -0.102862 -2.12151 0
M  V30 3424 H 325.641 0.016639 -0.947854 0
M  V30 3425 H 325.347 0.652306 -3.45598 0
M  V30 3426 H 325.221 2.33215 -2.96463 0
M  V30 3427 H 327.608 2.1847 -1.98381 0
M  V30 3428 H 327.689 0.497041 -2.50925 0
M  V30 3429 H 327.333 1.25436 -4.92167 0
M  V30 3430 H 327.263 2.94532 -4.3653 0
M  V30 3431 H 329.754 1.76699 -3.34045 0
M  V30 3432 H 330.067 3.0489 -7.10114 0
M  V30 3433 H 328.412 2.74834 -6.3835 0
M  V30 3434 H 331.603 2.11392 -4.1765 0
M  V30 3435 H 331.776 2.69869 -5.89131 0
M  V30 3436 N 325.182 1.32811 0.848464 0
M  V30 3437 C 326.593 1.21315 1.41914 0
M  V30 3438 C 326.944 -0.171847 1.95446 0
M  V30 3439 O 326.069 -1.07093 1.88043 0
M  V30 3440 C 326.664 2.19631 2.57968 0
M  V30 3441 C 325.223 2.12003 3.11017 0
M  V30 3442 C 324.37 2.07651 1.83783 0
M  V30 3443 H 327.321 1.44549 0.655071 0
M  V30 3444 H 327.342 1.79845 3.35315 0
M  V30 3445 H 326.854 3.20423 2.18976 0
M  V30 3446 H 324.955 1.14481 3.54577 0
M  V30 3447 H 325.068 3.02111 3.71841 0
M  V30 3448 H 323.432 1.52983 2.03638 0
M  V30 3449 H 324.215 3.10235 1.47 0
M  V30 3450 N 326.66 -1.06551 1.16123 0
M  V30 3451 C 327.907 -1.79302 0.941126 0
M  V30 3452 C 328.235 -1.87105 -0.531235 0
M  V30 3453 O 327.49 -1.35692 -1.41018 0
M  V30 3454 C 327.789 -3.23911 1.51052 0
M  V30 3455 C 327.455 -3.36193 3.00475 0
M  V30 3456 C 326.117 -3.39252 3.41265 0
M  V30 3457 C 328.469 -3.38326 3.96465 0
M  V30 3458 C 325.797 -3.42057 4.76669 0
M  V30 3459 C 328.149 -3.4267 5.31752 0
M  V30 3460 C 326.813 -3.4401 5.72026 0
M  V30 3461 H 326.083 -0.656111 0.344382 0
M  V30 3462 H 328.73 -1.25325 1.44796 0
M  V30 3463 H 327.035 -3.80723 0.925063 0
M  V30 3464 H 328.732 -3.78793 1.31593 0
M  V30 3465 H 325.322 -3.34516 2.6795 0
M  V30 3466 H 329.506 -3.35176 3.6602 0
M  V30 3467 H 324.762 -3.41398 5.07206 0
M  V30 3468 H 328.936 -3.43268 6.05921 0
M  V30 3469 H 326.563 -3.45937 6.76928 0
M  V30 3470 N 328.138 -0.959301 -1.25041 0
M  V30 3471 C 329.048 -0.489994 -2.29426 0
M  V30 3472 C 330.064 0.444944 -1.68215 0
M  V30 3473 O 331.24 0.320046 -1.98841 0
M  V30 3474 C 328.305 0.220309 -3.45999 0
M  V30 3475 C 327.366 -0.753418 -4.22637 0
M  V30 3476 C 326.599 -0.076918 -5.33645 0
M  V30 3477 O 326.822 1.13649 -5.58963 0
M  V30 3478 O 325.756 -0.764824 -5.97021 0
M  V30 3479 H 329.582 -1.35755 -2.71669 0
M  V30 3480 H 327.167 -0.725961 -1.30576 0
M  V30 3481 H 329.049 0.619677 -4.16819 0
M  V30 3482 H 327.724 1.06296 -3.0575 0
M  V30 3483 H 326.631 -1.20308 -3.54227 0
M  V30 3484 H 327.964 -1.56423 -4.66683 0
M  V30 3485 N 329.616 1.39756 -0.72842 0
M  V30 3486 C 330.862 2.00942 -0.273892 0
M  V30 3487 C 331.195 1.57656 1.13394 0
M  V30 3488 O 330.47 0.802434 1.77176 0
M  V30 3489 C 330.753 3.58211 -0.368346 0
M  V30 3490 C 330.606 4.11534 -1.81548 0
M  V30 3491 C 331.925 4.39372 0.253054 0
M  V30 3492 H 329.044 0.730047 -0.100996 0
M  V30 3493 H 331.686 1.66056 -0.923337 0
M  V30 3494 H 329.836 3.88061 0.184588 0
M  V30 3495 H 331.508 3.92431 -2.42478 0
M  V30 3496 H 329.751 3.65341 -2.33898 0
M  V30 3497 H 330.422 5.20682 -1.83288 0
M  V30 3498 H 332.898 4.15527 -0.218224 0
M  V30 3499 H 331.774 5.48677 0.156585 0
M  V30 3500 H 332.035 4.21358 1.33826 0
M  V30 3501 N 331.094 0.475555 1.50254 0
M  V30 3502 C 332.041 -0.316293 2.28622 0
M  V30 3503 C 333.011 -0.983227 1.33873 0
M  V30 3504 O 334.196 -0.994805 1.62814 0
M  V30 3505 C 331.336 -1.38975 3.1588 0
M  V30 3506 C 330.449 -0.737146 4.25664 0
M  V30 3507 C 329.584 -1.78887 5.00173 0
M  V30 3508 C 328.623 -1.11676 6.01826 0
M  V30 3509 N 327.76 -2.11154 6.69596 0
M  V30 3510 H 332.6 0.358297 2.95838 0
M  V30 3511 H 330.137 0.188541 1.45887 0
M  V30 3512 H 332.095 -2.02383 3.64825 0
M  V30 3513 H 330.725 -2.03344 2.50701 0
M  V30 3514 H 329.777 0.0096065 3.80399 0
M  V30 3515 H 331.089 -0.206816 4.98371 0
M  V30 3516 H 330.243 -2.49865 5.52859 0
M  V30 3517 H 328.982 -2.35302 4.27182 0
M  V30 3518 H 327.987 -0.392633 5.48396 0
M  V30 3519 H 329.212 -0.55945 6.76792 0
M  V30 3520 H 327.158 -2.66577 5.99394 0
M  V30 3521 H 327.075 -1.63118 7.38193 0
M  V30 3522 H 328.343 -2.81497 7.26897 0
M  V30 3523 N 332.573 -1.56217 0.208337 0
M  V30 3524 C 333.85 -1.89739 -0.475234 0
M  V30 3525 C 334.23 -1.1238 -1.78701 0
M  V30 3526 O 333.578 -0.228979 -2.2735 0
M  V30 3527 C 333.788 -3.42289 -0.681101 0
M  V30 3528 C 335.136 -4.12789 -0.994507 0
M  V30 3529 O 336.16 -3.47814 -0.768357 0
M  V30 3530 O 335.019 -5.27649 -1.42299 0
M  V30 3531 H 332.113 -0.788478 -0.249461 0
M  V30 3532 H 334.659 -1.67855 0.249538 0
M  V30 3533 H 333.431 -3.90534 0.244722 0
M  V30 3534 H 333.054 -3.69909 -1.45785 0
M  V30 3535 N 334.051 0.0651679 -1.57465 0
M  V30 3536 C 335.279 0.775808 -1.91804 0
M  V30 3537 C 335.694 1.70782 -0.804916 0
M  V30 3538 O 335.051 1.81153 0.221311 0
M  V30 3539 C 335.102 1.56381 -3.25925 0
M  V30 3540 O 334.823 0.669248 -4.32958 0
M  V30 3541 C 336.324 2.37485 -3.7432 0
M  V30 3542 H 333.544 0.2202 -0.63384 0
M  V30 3543 H 336.088 0.0334587 -2.04473 0
M  V30 3544 H 334.243 2.25837 -3.14764 0
M  V30 3545 H 334.657 1.21801 -5.10162 0
M  V30 3546 H 336.131 2.88223 -4.70778 0
M  V30 3547 H 336.608 3.17307 -3.03666 0
M  V30 3548 H 337.214 1.73173 -3.88447 0
M  V30 3549 N 335.529 1.53961 0.336706 0
M  V30 3550 C 336.439 1.85432 1.43708 0
M  V30 3551 C 337.455 0.745053 1.57242 0
M  V30 3552 O 338.631 1.03804 1.72588 0
M  V30 3553 C 335.696 2.06349 2.78605 0
M  V30 3554 C 334.757 3.30191 2.74358 0
M  V30 3555 C 333.99 3.50101 4.02822 0
M  V30 3556 O 334.213 2.7371 5.00439 0
M  V30 3557 O 333.147 4.43547 4.06878 0
M  V30 3558 H 336.973 2.78975 1.20028 0
M  V30 3559 H 334.558 1.39701 0.52952 0
M  V30 3560 H 336.44 2.21513 3.58483 0
M  V30 3561 H 335.115 1.15995 3.02203 0
M  V30 3562 H 334.022 3.20425 1.93078 0
M  V30 3563 H 335.355 4.2056 2.55715 0
M  V30 3564 N 337.007 -0.598083 1.45811 0
M  V30 3565 C 337.917 -1.73632 1.57763 0
M  V30 3566 C 338.933 -1.67763 0.461676 0
M  V30 3567 O 340.109 -1.87949 0.723685 0
M  V30 3568 C 337.174 -3.10114 1.55018 0
M  V30 3569 C 336.235 -3.27364 2.77726 0
M  V30 3570 C 335.468 -4.57334 2.75102 0
M  V30 3571 O 335.691 -5.40258 1.8297 0
M  V30 3572 O 334.625 -4.77502 3.66437 0
M  V30 3573 H 338.451 -1.66498 2.53992 0
M  V30 3574 H 336.036 -0.763308 1.28429 0
M  V30 3575 H 337.918 -3.9141 1.56129 0
M  V30 3576 H 336.593 -3.17718 0.619431 0
M  V30 3577 H 335.5 -2.45619 2.82174 0
M  V30 3578 H 336.833 -3.24641 3.69958 0
M  V30 3579 N 338.485 -1.33259 -0.841409 0
M  V30 3580 C 339.395 -1.25332 -1.98316 0
M  V30 3581 C 340.411 -0.164364 -1.73222 0
M  V30 3582 O 341.587 -0.387486 -1.97637 0
M  V30 3583 C 338.652 -0.990078 -3.32262 0
M  V30 3584 C 337.713 -2.16879 -3.70489 0
M  V30 3585 C 336.946 -1.91801 -4.98044 0
M  V30 3586 O 337.169 -0.867075 -5.63771 0
M  V30 3587 O 336.103 -2.78267 -5.33714 0
M  V30 3588 H 339.929 -2.21344 -2.07944 0
M  V30 3589 H 337.514 -1.1328 -0.974058 0
M  V30 3590 H 339.396 -0.860321 -4.12524 0
M  V30 3591 H 338.071 -0.0602155 -3.23644 0
M  V30 3592 H 336.978 -2.35407 -2.90748 0
M  V30 3593 H 338.311 -3.0819 -3.8377 0
M  V30 3594 N 339.963 1.05934 -1.16686 0
M  V30 3595 C 341.24 1.75643 -0.860747 0
M  V30 3596 C 341.62 2.01144 0.640641 0
M  V30 3597 O 340.968 1.64147 1.58959 0
M  V30 3598 C 341.178 3.05493 -1.68745 0
M  V30 3599 C 342.526 3.79581 -1.90271 0
M  V30 3600 O 343.55 3.15344 -1.65641 0
M  V30 3601 O 342.409 4.9499 -2.31618 0
M  V30 3602 H 339.503 0.763426 -0.317977 0
M  V30 3603 H 342.049 1.1217 -1.27342 0
M  V30 3604 H 340.821 2.8264 -2.70611 0
M  V30 3605 H 340.444 3.76702 -1.27206 0
M  V30 3606 N 341.441 0.965919 1.2453 0
M  V30 3607 C 342.688 0.626831 1.92554 0
M  V30 3608 C 343.016 -0.837739 1.75534 0
M  V30 3609 O 342.271 -1.61793 1.10098 0
M  V30 3610 C 342.57 0.945428 3.44669 0
M  V30 3611 C 342.236 2.39785 3.81856 0
M  V30 3612 C 340.898 2.79483 3.91718 0
M  V30 3613 C 343.25 3.34055 4.00071 0
M  V30 3614 C 340.578 4.12496 4.1721 0
M  V30 3615 C 342.93 4.66694 4.27059 0
M  V30 3616 C 341.594 5.06172 4.3514 0
M  V30 3617 H 340.864 0.229374 0.704605 0
M  V30 3618 H 343.511 1.21707 1.4785 0
M  V30 3619 H 341.816 0.272926 3.90848 0
M  V30 3620 H 343.513 0.661484 3.95507 0
M  V30 3621 H 340.103 2.08003 3.74743 0
M  V30 3622 H 344.287 3.04571 3.91855 0
M  V30 3623 H 339.543 4.42709 4.21685 0
M  V30 3624 H 343.717 5.3971 4.40097 0
M  V30 3625 H 341.344 6.09262 4.54646 0
M  V30 3626 N 342.919 -1.39368 0.735821 0
M  V30 3627 C 343.869 -2.27885 0.0724287 0
M  V30 3628 C 344.853 -1.44301 -0.711756 0
M  V30 3629 O 346.045 -1.67206 -0.58063 0
M  V30 3630 C 343.174 -3.33029 -0.833454 0
M  V30 3631 C 342.26 -4.24078 -0.0433749 0
M  V30 3632 N 342.651 -4.96138 0.983903 0
M  V30 3633 C 340.949 -4.45164 -0.272905 0
M  V30 3634 C 341.65 -5.63069 1.4604 0
M  V30 3635 N 340.626 -5.37991 0.778857 0
M  V30 3636 H 344.428 -2.81052 0.859467 0
M  V30 3637 H 341.942 -1.5206 0.570227 0
M  V30 3638 H 343.939 -3.95311 -1.32419 0
M  V30 3639 H 342.599 -2.81421 -1.61964 0
M  V30 3640 H 343.61 -4.9958 1.36528 0
M  V30 3641 H 340.287 -4.04497 -1.03383 0
M  V30 3642 H 341.677 -6.30755 2.31511 0
M  V30 3643 N 344.397 -0.483516 -1.5 0
M  V30 3644 C 345.643 0.0672592 -2.02688 0
M  V30 3645 C 345.976 1.38247 -1.36387 0
M  V30 3646 O 345.251 1.88131 -0.493675 0
M  V30 3647 C 345.534 0.238109 -3.59312 0
M  V30 3648 C 345.387 -1.099 -4.36168 0
M  V30 3649 C 346.706 0.986916 -4.28892 0
M  V30 3650 H 343.825 0.0229696 -0.736642 0
M  V30 3651 H 346.467 -0.631527 -1.79197 0
M  V30 3652 H 344.617 0.8333 -3.79458 0
M  V30 3653 H 346.289 -1.73172 -4.27562 0
M  V30 3654 H 344.532 -1.69261 -3.99416 0
M  V30 3655 H 345.203 -0.932954 -5.44059 0
M  V30 3656 H 347.679 0.482302 -4.13295 0
M  V30 3657 H 346.555 1.07527 -5.38265 0
M  V30 3658 H 346.816 2.0265 -3.92919 0
M  V30 3659 N 345.875 1.56104 -0.216619 0
M  V30 3660 C 347.152 1.89988 0.465165 0
M  V30 3661 C 347.532 1.13326 1.78102 0
M  V30 3662 O 346.88 0.241033 2.27225 0
M  V30 3663 C 347.09 3.42646 0.662939 0
M  V30 3664 C 348.438 4.13311 0.972602 0
M  V30 3665 O 349.462 3.48217 0.749901 0
M  V30 3666 O 348.321 5.28396 1.39499 0
M  V30 3667 H 345.415 0.78979 0.245276 0
M  V30 3668 H 347.961 1.67721 -0.258436 0
M  V30 3669 H 346.733 3.90399 -0.26543 0
M  V30 3670 H 346.356 3.70677 1.43821 0
M  V30 3671 N 347.353 -0.0568162 1.57498 0
M  V30 3672 C 348.285 -1.09292 2.01464 0
M  V30 3673 C 349.298 -1.34112 0.922913 0
M  V30 3674 O 350.487 -1.32089 1.20062 0
M  V30 3675 C 347.587 -2.44068 2.35125 0
M  V30 3676 C 346.76 -2.38995 3.66333 0
M  V30 3677 C 345.819 -3.55997 3.87495 0
M  V30 3678 O 344.845 -3.36746 4.58901 0
M  V30 3679 N 346.047 -4.76888 3.30996 0
M  V30 3680 H 348.812 -0.718386 2.90963 0
M  V30 3681 H 346.373 -0.245235 1.60032 0
M  V30 3682 H 348.365 -3.21011 2.46443 0
M  V30 3683 H 346.935 -2.73468 1.5144 0
M  V30 3684 H 346.155 -1.47336 3.65631 0
M  V30 3685 H 347.443 -2.3272 4.52458 0
M  V30 3686 H 346.841 -4.95431 2.73065 0
M  V30 3687 H 345.398 -5.51291 3.47738 0
M  V30 3688 N 348.832 -1.54138 -0.328536 0
M  V30 3689 C 350.078 -1.7236 -1.06865 0
M  V30 3690 C 350.411 -0.493231 -1.87832 0
M  V30 3691 O 349.686 0.5098 -1.877 0
M  V30 3692 C 349.969 -2.99621 -1.99747 0
M  V30 3693 C 349.822 -4.32899 -1.22143 0
M  V30 3694 C 351.141 -3.22615 -2.99345 0
M  V30 3695 H 348.26 -0.627151 -0.387105 0
M  V30 3696 H 350.902 -1.86827 -0.345767 0
M  V30 3697 H 349.052 -2.87418 -2.61387 0
M  V30 3698 H 350.724 -4.56978 -0.630017 0
M  V30 3699 H 348.967 -4.30628 -0.523628 0
M  V30 3700 H 349.638 -5.18154 -1.90318 0
M  V30 3701 H 352.114 -3.34248 -2.47826 0
M  V30 3702 H 350.99 -4.13027 -3.61524 0
M  V30 3703 H 351.251 -2.3961 -3.71536 0
M  V30 3704 N 350.31 0.590341 -1.46126 0
M  V30 3705 C 351.538 1.37504 -1.54597 0
M  V30 3706 C 351.953 1.87897 -0.184447 0
M  V30 3707 O 351.31 1.63192 0.816984 0
M  V30 3708 C 351.361 2.56779 -2.54454 0
M  V30 3709 O 351.082 2.08476 -3.85317 0
M  V30 3710 C 352.583 3.49427 -2.72792 0
M  V30 3711 H 349.803 0.420325 -0.523037 0
M  V30 3712 H 352.347 0.718383 -1.91467 0
M  V30 3713 H 350.502 3.1845 -2.20609 0
M  V30 3714 H 350.916 2.86097 -4.396 0
M  V30 3715 H 352.39 4.29619 -3.466 0
M  V30 3716 H 352.867 4.00876 -1.79429 0
M  V30 3717 H 353.473 2.93598 -3.07702 0
M  V30 3718 N 351.788 1.33704 0.83433 0
M  V30 3719 C 353.016 1.28467 1.62185 0
M  V30 3720 C 353.431 -0.143526 1.88254 0
M  V30 3721 O 352.788 -1.08709 1.4659 0
M  V30 3722 C 352.839 2.06174 2.96942 0
M  V30 3723 O 352.56 3.43422 2.72016 0
M  V30 3724 C 354.061 2.08201 3.91366 0
M  V30 3725 H 351.281 0.4424 0.504503 0
M  V30 3726 H 353.825 1.76145 1.03891 0
M  V30 3727 H 351.98 1.62167 3.51825 0
M  V30 3728 H 352.394 3.83453 3.57861 0
M  V30 3729 H 353.868 2.67017 4.83121 0
M  V30 3730 H 354.345 1.07343 4.2588 0
M  V30 3731 H 354.951 2.52246 3.42421 0
M  V30 3732 N 353.266 -1.05314 1.17247 0
M  V30 3733 C 354.512 -1.78557 0.961513 0
M  V30 3734 C 354.845 -1.87419 -0.508697 0
M  V30 3735 O 354.12 -1.37307 -1.37757 0
M  V30 3736 C 354.403 -3.22514 1.60176 0
M  V30 3737 C 354.256 -3.21673 3.14399 0
M  V30 3738 C 355.575 -4.20318 1.30463 0
M  V30 3739 H 352.694 -0.6482 0.350723 0
M  V30 3740 H 355.336 -1.23102 1.44727 0
M  V30 3741 H 353.486 -3.69867 1.18871 0
M  V30 3742 H 355.158 -2.82405 3.64753 0
M  V30 3743 H 353.401 -2.60048 3.47214 0
M  V30 3744 H 354.072 -4.23271 3.54324 0
M  V30 3745 H 356.548 -3.81454 1.66229 0
M  V30 3746 H 355.424 -5.19289 1.77848 0
M  V30 3747 H 355.685 -4.41526 0.22521 0
M  V30 3748 N 354.744 -0.972509 -1.24016 0
M  V30 3749 C 355.691 -0.505969 -2.25186 0
M  V30 3750 C 356.661 0.451009 -1.5986 0
M  V30 3751 O 357.846 0.360307 -1.87367 0
M  V30 3752 C 354.986 0.193089 -3.44559 0
M  V30 3753 C 354.099 -0.803222 -4.24467 0
M  V30 3754 C 353.234 -0.0797793 -5.3114 0
M  V30 3755 C 352.273 -1.06583 -6.02749 0
M  V30 3756 N 351.41 -0.372074 -7.01113 0
M  V30 3757 H 356.25 -1.37351 -2.64459 0
M  V30 3758 H 353.787 -0.688419 -1.29997 0
M  V30 3759 H 355.745 0.615125 -4.1264 0
M  V30 3760 H 354.375 1.02455 -3.06109 0
M  V30 3761 H 353.427 -1.34368 -3.55878 0
M  V30 3762 H 354.739 -1.55494 -4.73944 0
M  V30 3763 H 353.893 0.400015 -6.0538 0
M  V30 3764 H 352.632 0.704597 -4.82583 0
M  V30 3765 H 351.637 -1.55645 -5.27309 0
M  V30 3766 H 352.862 -1.85074 -6.53395 0
M  V30 3767 H 350.808 0.393238 -6.5482 0
M  V30 3768 H 350.725 -1.06258 -7.48495 0
M  V30 3769 H 351.993 0.0855932 -7.79453 0
M  V30 3770 N 356.222 1.38976 -0.743202 0
M  V30 3771 C 357.468 2.0064 -0.295189 0
M  V30 3772 C 357.801 1.5885 1.11716 0
M  V30 3773 O 357.076 0.821181 1.76315 0
M  V30 3774 C 357.359 3.578 -0.406318 0
M  V30 3775 C 357.212 4.09586 -1.85903 0
M  V30 3776 C 358.531 4.39616 0.206439 0
M  V30 3777 H 355.65 0.728935 -0.108733 0
M  V30 3778 H 358.292 1.65067 -0.940897 0
M  V30 3779 H 356.442 3.88235 0.143419 0
M  V30 3780 H 358.114 3.89837 -2.46627 0
M  V30 3781 H 356.357 3.6284 -2.3776 0
M  V30 3782 H 357.028 5.18708 -1.888 0
M  V30 3783 H 359.504 4.15273 -0.262283 0
M  V30 3784 H 358.38 5.48812 0.0983819 0
M  V30 3785 H 358.641 4.22754 1.2935 0
M  V30 3786 N 357.7 0.491464 1.49741 0
M  V30 3787 C 359.111 0.0413169 1.86654 0
M  V30 3788 C 359.462 -1.36985 1.40462 0
M  V30 3789 O 358.587 -2.01917 0.778354 0
M  V30 3790 C 359.182 0.0682023 3.38731 0
M  V30 3791 C 357.741 -0.32656 3.74981 0
M  V30 3792 C 356.888 0.444888 2.73708 0
M  V30 3793 H 359.839 0.704733 1.42194 0
M  V30 3794 H 359.86 -0.729322 3.73445 0
M  V30 3795 H 359.372 1.09539 3.72321 0
M  V30 3796 H 357.473 -1.35734 3.46997 0
M  V30 3797 H 357.586 -0.013741 4.79098 0
M  V30 3798 H 355.95 -0.104062 2.54487 0
M  V30 3799 H 356.733 1.47197 3.10142 0
M  V30 3800 N 359.178 -1.55987 0.224894 0
M  V30 3801 C 360.111 -2.16413 -0.723929 0
M  V30 3802 C 361.089 -1.10952 -1.18863 0
M  V30 3803 O 362.273 -1.39225 -1.27077 0
M  V30 3804 C 359.4 -2.74711 -1.98121 0
M  V30 3805 C 358.446 -3.9303 -1.6562 0
M  V30 3806 S 359.279 -5.29817 -0.778058 0
M  V30 3807 C 360.435 -5.91555 -2.04483 0
M  V30 3808 H 360.668 -2.96555 -0.210347 0
M  V30 3809 H 358.201 -1.54397 0.00955457 0
M  V30 3810 H 360.159 -3.08938 -2.70311 0
M  V30 3811 H 358.82 -1.94555 -2.46591 0
M  V30 3812 H 358.013 -4.32334 -2.59043 0
M  V30 3813 H 357.615 -3.59966 -1.01491 0
M  V30 3814 H 359.907 -6.07732 -2.99446 0
M  V30 3815 H 360.85 -6.87498 -1.69563 0
M  V30 3816 H 361.258 -5.20419 -2.18688 0
M  V30 3817 N 360.656 0.0484629 -1.57525 0
M  V30 3818 C 361.589 1.08755 -2.00618 0
M  V30 3819 C 362.567 1.36272 -0.887058 0
M  V30 3820 O 363.751 1.49255 -1.15131 0
M  V30 3821 C 360.878 2.42675 -2.36277 0
M  V30 3822 C 359.924 2.31142 -3.58435 0
M  V30 3823 S 360.757 1.68326 -5.08357 0
M  V30 3824 C 361.913 3.03776 -5.47239 0
M  V30 3825 H 362.146 0.720415 -2.88439 0
M  V30 3826 H 359.679 0.257801 -1.52233 0
M  V30 3827 H 361.637 3.19699 -2.57494 0
M  V30 3828 H 360.298 2.76541 -1.48942 0
M  V30 3829 H 359.491 3.29957 -3.80978 0
M  V30 3830 H 359.093 1.62258 -3.36969 0
M  V30 3831 H 361.385 4.00106 -5.46737 0
M  V30 3832 H 362.328 2.85988 -6.47778 0
M  V30 3833 H 362.736 3.05456 -4.74718 0
M  V30 3834 N 362.134 1.5431 0.320358 0
M  V30 3835 C 363.081 1.83918 1.39438 0
M  V30 3836 C 364.051 0.686525 1.51248 0
M  V30 3837 O 365.236 0.933269 1.66417 0
M  V30 3838 C 362.376 2.075 2.75749 0
M  V30 3839 C 361.489 3.35177 2.72544 0
M  V30 3840 C 360.624 3.48704 4.00723 0
M  V30 3841 C 359.663 4.70244 3.91838 0
M  V30 3842 N 358.8 4.80679 5.11754 0
M  V30 3843 H 363.64 2.75544 1.13489 0
M  V30 3844 H 361.177 1.36459 0.549309 0
M  V30 3845 H 363.135 2.19166 3.54996 0
M  V30 3846 H 361.765 1.19163 3 0
M  V30 3847 H 360.817 3.32233 1.85271 0
M  V30 3848 H 362.129 4.24534 2.61863 0
M  V30 3849 H 361.283 3.59928 4.88402 0
M  V30 3850 H 360.022 2.57445 4.14214 0
M  V30 3851 H 359.027 4.59072 3.02544 0
M  V30 3852 H 360.252 5.6289 3.7991 0
M  V30 3853 H 358.198 3.92337 5.25745 0
M  V30 3854 H 358.115 5.64007 5.0342 0
M  V30 3855 H 359.383 4.96239 6.01138 0
M  V30 3856 N 363.613 -0.582584 1.46437 0
M  V30 3857 C 365.029 -0.905962 1.31394 0
M  V30 3858 C 365.229 -1.99468 0.285476 0
M  V30 3859 O 364.285 -2.50566 -0.311914 0
M  V30 3860 C 365.598 -1.3232 2.70022 0
M  V30 3861 C 367.146 -1.43604 2.78113 0
M  V30 3862 C 367.621 -1.88694 4.17323 0
M  V30 3863 N 369.112 -1.95887 4.19741 0
M  V30 3864 C 369.847 -2.32051 5.24347 0
M  V30 3865 N 369.343 -2.67006 6.39281 0
M  V30 3866 N 371.136 -2.32606 5.11713 0
M  V30 3867 H 363.287 0.1366 2.1196 0
M  V30 3868 H 365.55 -0.00155736 0.947999 0
M  V30 3869 H 365.256 -0.597242 3.46592 0
M  V30 3870 H 365.13 -2.28469 3.00136 0
M  V30 3871 H 367.517 -2.15286 2.01832 0
M  V30 3872 H 367.598 -0.457059 2.51684 0
M  V30 3873 H 367.242 -1.1759 4.941 0
M  V30 3874 H 367.172 -2.8755 4.4116 0
M  V30 3875 H 369.663 -1.71362 3.36814 0
M  V30 3876 H 369.976 -2.93554 7.14875 0
M  V30 3877 H 368.321 -2.64644 6.42642 0
M  V30 3878 H 371.512 -2.04721 4.2096 0
M  V30 3879 H 371.685 -2.60462 5.93349 0
M  V30 3880 N 365.091 -1.34144 -0.827227 0
M  V30 3881 C 366.021 -1.28005 -1.95287 0
M  V30 3882 C 367.002 -0.158321 -1.69362 0
M  V30 3883 O 368.187 -0.349987 -1.9102 0
M  V30 3884 C 365.317 -1.03036 -3.31664 0
M  V30 3885 C 364.271 -2.11628 -3.72019 0
M  V30 3886 C 363.597 -1.71854 -5.0633 0
M  V30 3887 C 364.897 -3.53417 -3.8457 0
M  V30 3888 H 366.591 -2.22187 -2.00682 0
M  V30 3889 H 364.137 -1.0696 -0.964135 0
M  V30 3890 H 366.09 -0.973863 -4.09993 0
M  V30 3891 H 364.814 -0.0529391 -3.26557 0
M  V30 3892 H 363.473 -2.16339 -2.95961 0
M  V30 3893 H 363.121 -0.727841 -4.97706 0
M  V30 3894 H 362.821 -2.44531 -5.34302 0
M  V30 3895 H 364.345 -1.67692 -5.87122 0
M  V30 3896 H 365.759 -3.51142 -4.5318 0
M  V30 3897 H 364.156 -4.24679 -4.2399 0
M  V30 3898 H 365.226 -3.91072 -2.86689 0
M  V30 3899 N 366.569 1.04691 -1.17803 0
M  V30 3900 C 367.817 1.7743 -0.967617 0
M  V30 3901 C 368.138 1.88359 0.504574 0
M  V30 3902 O 367.408 1.40402 1.36617 0
M  V30 3903 H 365.988 0.657242 -0.355024 0
M  V30 3904 H 368.65 1.2638 -1.48371 0
M  V30 3905 H 367.746 2.78924 -1.40027 0
M  V30 3906 N 368.047 0.979072 1.23499 0
M  V30 3907 C 368.98 0.463027 2.23453 0
M  V30 3908 C 369.958 -0.469128 1.55685 0
M  V30 3909 O 371.142 -0.397882 1.84253 0
M  V30 3910 C 368.269 -0.330308 3.37086 0
M  V30 3911 C 367.315 0.545795 4.22993 0
M  V30 3912 S 368.148 1.99285 4.97037 0
M  V30 3913 C 369.304 1.20862 6.1412 0
M  V30 3914 H 369.537 1.31005 2.6688 0
M  V30 3915 H 367.07 0.784965 1.32957 0
M  V30 3916 H 369.028 -0.782027 4.02982 0
M  V30 3917 H 367.689 -1.15244 2.92194 0
M  V30 3918 H 366.882 -0.0638928 5.03959 0
M  V30 3919 H 366.484 0.933705 3.62157 0
M  V30 3920 H 368.776 0.469284 6.75873 0
M  V30 3921 H 369.719 1.99307 6.79472 0
M  V30 3922 H 370.127 0.727992 5.59786 0
M  V30 3923 N 369.525 -1.3858 0.750561 0
M  V30 3924 C 370.772 -2.00184 0.305373 0
M  V30 3925 C 371.1 -1.59575 -1.11203 0
M  V30 3926 O 370.355 -0.823236 -1.77542 0
M  V30 3927 C 370.654 -3.55455 0.372373 0
M  V30 3928 C 370.32 -4.15765 1.745 0
M  V30 3929 C 368.982 -4.31951 2.12065 0
M  V30 3930 C 371.334 -4.49067 2.64553 0
M  V30 3931 C 368.662 -4.78734 3.39162 0
M  V30 3932 C 371.014 -4.97265 3.91038 0
M  V30 3933 C 369.678 -5.11658 4.28676 0
M  V30 3934 H 368.948 -0.732526 0.111744 0
M  V30 3935 H 371.595 -1.65673 0.960451 0
M  V30 3936 H 369.9 -3.90084 -0.366272 0
M  V30 3937 H 371.597 -4.00999 0.00953918 0
M  V30 3938 H 368.187 -4.03579 1.44297 0
M  V30 3939 H 372.371 -4.36166 2.36796 0
M  V30 3940 H 367.627 -4.88062 3.68246 0
M  V30 3941 H 371.801 -5.22003 4.60962 0
M  V30 3942 H 369.428 -5.47668 5.27222 0
M  V30 3943 N 371.003 -0.499398 -1.49478 0
M  V30 3944 C 371.951 0.293604 -2.3074 0
M  V30 3945 C 372.945 0.96427 -1.39277 0
M  V30 3946 O 374.151 0.892141 -1.56336 0
M  V30 3947 H 370.526 0.113541 -0.743379 0
M  V30 3948 H 372.497 -0.411772 -2.95545 0
M  V30 3949 C 371.246 1.3462 -3.20582 0
M  V30 3950 H 370.569 0.83954 -3.90886 0
M  V30 3951 H 372.009 1.87308 -3.80384 0
M  V30 3952 C 370.468 2.36351 -2.40083 0
M  V30 3953 O 370.998 3.422 -2.10385 0
M  V30 3954 N 369.204 2.0878 -2.02137 0
M  V30 3955 H 368.751 1.22723 -2.26488 0
M  V30 3956 H 368.709 2.77075 -1.48583 0
M  V30 3957 N 372.481 1.55866 -0.233164 0
M  V30 3958 C 373.73 1.97779 0.39579 0
M  V30 3959 C 374.043 1.12419 1.60066 0
M  V30 3960 O 375.249 1.44283 2.29988 0
M  V30 3961 C 373.705 3.5188 0.755556 0
M  V30 3962 C 373.313 4.45959 -0.427152 0
M  V30 3963 C 375.057 4.02479 1.34946 0
M  V30 3964 C 372.964 5.91383 -0.0443043 0
M  V30 3965 H 371.894 0.738592 0.15165 0
M  V30 3966 H 374.545 1.80486 -0.331212 0
M  V30 3967 H 372.927 3.64816 1.5403 0
M  V30 3968 H 374.101 4.44776 -1.20462 0
M  V30 3969 H 372.416 4.05765 -0.935068 0
M  V30 3970 H 375.013 5.08637 1.649 0
M  V30 3971 H 375.356 3.49014 2.26925 0
M  V30 3972 H 375.889 3.92813 0.62791 0
M  V30 3973 H 372.628 6.48857 -0.930874 0
M  V30 3974 H 372.148 5.95734 0.697238 0
M  V30 3975 H 373.827 6.45893 0.378334 0
M  V30 3976 N 373.959 -0.0401083 1.57549 0
M  V30 3977 C 374.891 -1.07149 2.02612 0
M  V30 3978 C 375.904 -1.33126 0.937085 0
M  V30 3979 O 377.093 -1.30808 1.21456 0
M  V30 3980 C 374.193 -2.41561 2.37701 0
M  V30 3981 C 373.366 -2.35096 3.68848 0
M  V30 3982 C 372.425 -3.51867 3.91249 0
M  V30 3983 O 371.451 -3.3186 4.62447 0
M  V30 3984 N 372.653 -4.73351 3.36035 0
M  V30 3985 H 375.418 -0.687485 2.91708 0
M  V30 3986 H 372.979 -0.228248 1.60283 0
M  V30 3987 H 374.971 -3.18379 2.49833 0
M  V30 3988 H 373.541 -2.71846 1.54332 0
M  V30 3989 H 372.761 -1.4345 3.67173 0
M  V30 3990 H 374.049 -2.27908 4.54901 0
M  V30 3991 H 373.447 -4.92507 2.78304 0
M  V30 3992 H 372.004 -5.47572 3.53565 0
M  V30 3993 N 375.437 -1.54477 -0.31217 0
M  V30 3994 C 376.387 -1.81037 -1.38598 0
M  V30 3995 C 377.371 -0.666941 -1.46426 0
M  V30 3996 O 378.563 -0.927269 -1.50767 0
M  V30 3997 C 375.692 -2.05127 -2.75277 0
M  V30 3998 C 374.778 -3.25624 -2.71716 0
M  V30 3999 N 375.169 -4.46428 -2.37773 0
M  V30 4000 C 373.467 -3.27427 -3.02833 0
M  V30 4001 C 374.168 -5.28406 -2.43232 0
M  V30 4002 N 373.144 -4.6586 -2.80135 0
M  V30 4003 H 376.946 -2.7201 -1.11301 0
M  V30 4004 H 374.46 -1.53826 -0.520705 0
M  V30 4005 H 376.457 -2.22299 -3.52688 0
M  V30 4006 H 375.117 -1.15416 -3.03495 0
M  V30 4007 H 376.128 -4.73227 -2.1042 0
M  V30 4008 H 372.805 -2.47786 -3.36018 0
M  V30 4009 H 374.195 -6.34903 -2.19882 0
M  V30 4010 N 376.915 0.57481 -1.46744 0
M  V30 4011 C 378.155 1.34369 -1.54027 0
M  V30 4012 C 378.519 1.91051 -0.190642 0
M  V30 4013 O 379.72 2.68444 -0.138255 0
M  V30 4014 C 377.991 2.43706 -2.61423 0
M  V30 4015 S 379.55 3.30915 -2.88167 0
M  V30 4016 H 376.368 0.45768 -0.544105 0
M  V30 4017 H 378.97 0.659959 -1.84024 0
M  V30 4018 H 377.674 2.0047 -3.58106 0
M  V30 4019 H 377.205 3.16842 -2.33184 0
M  V30 4020 H 379.22 4.42742 -2.24039 0
M  V30 4021 N 378.394 1.34581 0.820102 0
M  V30 4022 C 379.341 1.2639 1.93117 0
M  V30 4023 C 380.311 0.138554 1.65521 0
M  V30 4024 O 381.496 0.320004 1.88097 0
M  V30 4025 C 378.636 1.02812 3.29429 0
M  V30 4026 C 377.749 2.24146 3.693 0
M  V30 4027 C 376.884 1.93829 4.94574 0
M  V30 4028 C 375.923 3.1129 5.27034 0
M  V30 4029 N 375.06 2.80838 6.43486 0
M  V30 4030 H 379.9 2.21408 1.99455 0
M  V30 4031 H 377.437 1.10077 0.975784 0
M  V30 4032 H 379.395 0.871788 4.0799 0
M  V30 4033 H 378.025 0.114612 3.22596 0
M  V30 4034 H 377.077 2.50691 2.86109 0
M  V30 4035 H 378.389 3.11899 3.89257 0
M  V30 4036 H 377.543 1.74948 5.80929 0
M  V30 4037 H 376.282 1.03341 4.76626 0
M  V30 4038 H 375.287 3.30764 4.39175 0
M  V30 4039 H 376.512 4.02561 5.4692 0
M  V30 4040 H 374.458 1.92929 6.26988 0
M  V30 4041 H 374.375 3.62123 6.63629 0
M  V30 4042 H 375.643 2.65467 7.32903 0
M  V30 4043 N 379.872 -1.04064 1.18357 0
M  V30 4044 C 380.819 -2.12077 0.910603 0
M  V30 4045 C 381.789 -1.65421 -0.15 0
M  V30 4046 O 382.974 -1.90797 -0.0103614 0
M  V30 4047 C 380.114 -3.42252 0.442472 0
M  V30 4048 C 379.227 -4.0252 1.5685 0
M  V30 4049 C 378.362 -5.20657 1.05309 0
M  V30 4050 C 377.401 -5.72955 2.1538 0
M  V30 4051 N 376.538 -6.8238 1.65233 0
M  V30 4052 H 381.378 -2.34764 1.83548 0
M  V30 4053 H 378.915 -1.15157 0.915279 0
M  V30 4054 H 380.873 -4.16921 0.152534 0
M  V30 4055 H 379.503 -3.19712 -0.445428 0
M  V30 4056 H 378.555 -3.25178 1.97391 0
M  V30 4057 H 379.867 -4.37362 2.39824 0
M  V30 4058 H 379.021 -6.0244 0.717677 0
M  V30 4059 H 377.76 -4.87318 0.19293 0
M  V30 4060 H 376.765 -4.89793 2.49766 0
M  V30 4061 H 377.99 -6.08337 3.01832 0
M  V30 4062 H 375.936 -6.50917 0.815064 0
M  V30 4063 H 375.853 -7.16286 2.41805 0
M  V30 4064 H 377.121 -7.67788 1.34619 0
M  V30 4065 N 381.35 -0.985608 -1.22978 0
M  V30 4066 C 382.28 -0.549649 -2.26939 0
M  V30 4067 C 383.261 0.419803 -1.64838 0
M  V30 4068 O 384.446 0.31203 -1.91677 0
M  V30 4069 C 381.576 0.143652 -3.47003 0
M  V30 4070 C 380.53 -0.743606 -4.21491 0
M  V30 4071 C 379.856 0.0822027 -5.34637 0
M  V30 4072 C 381.156 -2.03694 -4.80943 0
M  V30 4073 H 382.85 -1.41862 -2.63658 0
M  V30 4074 H 380.396 -0.683571 -1.26741 0
M  V30 4075 H 382.349 0.459985 -4.18882 0
M  V30 4076 H 381.073 1.04711 -3.09359 0
M  V30 4077 H 379.732 -1.04347 -3.51436 0
M  V30 4078 H 379.38 0.986359 -4.93234 0
M  V30 4079 H 379.08 -0.508377 -5.85397 0
M  V30 4080 H 380.604 0.392797 -6.09335 0
M  V30 4081 H 382.018 -1.78504 -5.44802 0
M  V30 4082 H 380.415 -2.57573 -5.42011 0
M  V30 4083 H 381.485 -2.72042 -4.01399 0
M  V30 4084 N 382.828 1.3818 -0.7579 0
M  V30 4085 C 384.053 2.04827 -0.325679 0
M  V30 4086 C 384.478 1.56788 1.03919 0
M  V30 4087 O 383.836 0.721811 1.66312 0
M  V30 4088 C 383.884 3.58774 -0.362447 0
M  V30 4089 O 382.988 4.07372 0.642033 0
M  V30 4090 H 382.329 0.64833 -0.143402 0
M  V30 4091 H 384.859 1.7677 -1.03023 0
M  V30 4092 H 384.869 4.07434 -0.214844 0
M  V30 4093 H 383.544 3.93096 -1.35824 0
M  V30 4094 H 382.121 3.70068 0.458688 0
M  V30 4095 N 384.306 0.507319 1.49211 0
M  V30 4096 C 385.531 -0.033725 2.07373 0
M  V30 4097 C 385.956 -1.29485 1.36437 0
M  V30 4098 O 385.314 -1.76294 0.423087 0
M  V30 4099 C 385.362 -0.263945 3.59633 0
M  V30 4100 O 384.466 -1.33737 3.90113 0
M  V30 4101 H 383.807 0.0290331 0.663365 0
M  V30 4102 H 386.337 0.708749 1.91932 0
M  V30 4103 H 386.347 -0.493536 4.05004 0
M  V30 4104 H 385.022 0.657424 4.10671 0
M  V30 4105 H 383.599 -1.09224 3.56545 0
M  V30 4106 N 385.784 -1.5574 0.241426 0
M  V30 4107 C 387.03 -1.99846 -0.378555 0
M  V30 4108 C 387.385 -1.12665 -1.55963 0
M  V30 4109 O 386.678 -0.180966 -1.90743 0
M  V30 4110 C 386.872 -3.47308 -0.843317 0
M  V30 4111 C 386.701 -4.48756 0.291178 0
M  V30 4112 C 385.471 -4.9949 0.764077 0
M  V30 4113 C 387.669 -5.02039 1.11631 0
M  V30 4114 N 385.651 -5.84676 1.87156 0
M  V30 4115 C 387.022 -5.84343 2.07226 0
M  V30 4116 C 389.077 -4.84354 1.15349 0
M  V30 4117 C 387.78 -6.50851 3.06245 0
M  V30 4118 C 389.806 -5.51636 2.13195 0
M  V30 4119 C 389.168 -6.33724 3.07528 0
M  V30 4120 H 385.267 -0.774968 -0.104634 0
M  V30 4121 H 387.851 -1.91385 0.357751 0
M  V30 4122 H 386.022 -3.56178 -1.54893 0
M  V30 4123 H 387.754 -3.78299 -1.43779 0
M  V30 4124 H 384.509 -4.72311 0.349175 0
M  V30 4125 H 384.933 -6.31967 2.42789 0
M  V30 4126 H 389.575 -4.20525 0.438057 0
M  V30 4127 H 387.293 -7.1385 3.78739 0
M  V30 4128 H 390.879 -5.39909 2.16771 0
M  V30 4129 H 389.759 -6.84867 3.82003 0
M  V30 4130 N 387.262 0.0317525 -1.57568 0
M  V30 4131 C 388.508 0.724175 -1.8943 0
M  V30 4132 C 388.841 1.75149 -0.838836 0
M  V30 4133 O 388.116 1.93948 0.146422 0
M  V30 4134 C 388.399 1.39615 -3.31933 0
M  V30 4135 C 388.252 0.382537 -4.4817 0
M  V30 4136 C 389.571 2.33084 -3.73309 0
M  V30 4137 H 386.69 0.261797 -0.688935 0
M  V30 4138 H 389.332 -0.013017 -1.89996 0
M  V30 4139 H 387.482 2.02451 -3.31581 0
M  V30 4140 H 389.154 -0.243689 -4.60656 0
M  V30 4141 H 387.397 -0.29844 -4.32772 0
M  V30 4142 H 388.068 0.891145 -5.44759 0
M  V30 4143 H 390.544 1.80295 -3.7501 0
M  V30 4144 H 389.42 2.77084 -4.73831 0
M  V30 4145 H 389.681 3.19643 -3.05419 0
M  V30 4146 N 388.74 1.54641 0.303973 0
M  V30 4147 C 389.67 1.88386 1.3796 0
M  V30 4148 C 390.651 0.742485 1.5304 0
M  V30 4149 O 391.836 0.997959 1.66597 0
M  V30 4150 C 388.966 2.12854 2.74427 0
M  V30 4151 C 387.92 3.28702 2.74115 0
M  V30 4152 C 387.246 3.38582 4.13844 0
M  V30 4153 C 388.546 4.65881 2.3612 0
M  V30 4154 H 390.24 2.78474 1.09966 0
M  V30 4155 H 387.786 1.33988 0.527556 0
M  V30 4156 H 389.739 2.35047 3.49758 0
M  V30 4157 H 388.463 1.19535 3.03939 0
M  V30 4158 H 387.122 3.06428 2.0124 0
M  V30 4159 H 386.77 2.42784 4.40528 0
M  V30 4160 H 386.47 4.16453 4.14537 0
M  V30 4161 H 387.994 3.63031 4.90959 0
M  V30 4162 H 389.408 4.87823 3.01167 0
M  V30 4163 H 387.805 5.46444 2.48031 0
M  V30 4164 H 388.875 4.66799 1.3125 0
M  V30 4165 N 390.218 -0.567019 1.47046 0
M  V30 4166 C 391.148 -1.68482 1.61667 0
M  V30 4167 C 392.129 -1.6358 0.466418 0
M  V30 4168 O 393.314 -1.81354 0.694574 0
M  V30 4169 C 390.444 -3.07124 1.62148 0
M  V30 4170 C 389.398 -3.26867 2.76301 0
M  V30 4171 C 388.724 -4.66196 2.61849 0
M  V30 4172 C 390.024 -3.13186 4.17986 0
M  V30 4173 H 391.718 -1.56502 2.5524 0
M  V30 4174 H 389.264 -0.751486 1.22836 0
M  V30 4175 H 391.217 -3.8516 1.70968 0
M  V30 4176 H 389.941 -3.2004 0.651287 0
M  V30 4177 H 388.6 -2.51237 2.66975 0
M  V30 4178 H 388.248 -4.75898 1.62879 0
M  V30 4179 H 387.948 -4.80356 3.38425 0
M  V30 4180 H 389.472 -5.46379 2.72584 0
M  V30 4181 H 390.886 -3.81049 4.2834 0
M  V30 4182 H 389.283 -3.3886 4.95272 0
M  V30 4183 H 390.353 -2.10057 4.3704 0
M  V30 4184 N 391.696 -1.35014 -0.812953 0
M  V30 4185 C 392.629 -1.21761 -1.93001 0
M  V30 4186 C 393.607 -0.10694 -1.62248 0
M  V30 4187 O 394.791 -0.273891 -1.865 0
M  V30 4188 C 391.918 -0.873404 -3.27245 0
M  V30 4189 C 390.964 -1.99523 -3.76952 0
M  V30 4190 S 391.797 -3.61009 -3.95516 0
M  V30 4191 C 392.953 -3.28651 -5.32672 0
M  V30 4192 H 393.186 -2.16315 -2.03948 0
M  V30 4193 H 390.719 -1.20156 -0.969631 0
M  V30 4194 H 392.677 -0.68161 -4.04802 0
M  V30 4195 H 391.338 0.053971 -3.14054 0
M  V30 4196 H 390.531 -1.70838 -4.74163 0
M  V30 4197 H 390.133 -2.14503 -3.06373 0
M  V30 4198 H 392.425 -2.81085 -6.1644 0
M  V30 4199 H 393.368 -4.25039 -5.66346 0
M  V30 4200 H 393.776 -2.6458 -4.98656 0
M  V30 4201 N 393.175 1.03435 -1.18907 0
M  V30 4202 C 394.122 2.11591 -0.921837 0
M  V30 4203 C 395.092 1.65499 0.141226 0
M  V30 4204 O 396.277 1.908 0.000242829 0
M  V30 4205 C 393.417 3.42012 -0.460616 0
M  V30 4206 C 392.53 4.01682 -1.58982 0
M  V30 4207 C 391.665 5.20091 -1.08069 0
M  V30 4208 C 390.704 5.71805 -2.18416 0
M  V30 4209 N 389.841 6.81494 -1.68849 0
M  V30 4210 H 394.681 2.33787 -1.8479 0
M  V30 4211 H 392.218 1.1467 -0.921373 0
M  V30 4212 H 394.176 4.16834 -0.174642 0
M  V30 4213 H 392.806 3.19944 0.428467 0
M  V30 4214 H 391.858 3.24127 -1.99113 0
M  V30 4215 H 393.17 4.36084 -2.4214 0
M  V30 4216 H 392.324 6.02051 -0.749615 0
M  V30 4217 H 391.063 4.87209 -0.218771 0
M  V30 4218 H 390.068 4.88461 -2.5236 0
M  V30 4219 H 391.293 6.06728 -3.05054 0
M  V30 4220 H 389.239 6.50475 -0.849572 0
M  V30 4221 H 389.156 7.14994 -2.45601 0
M  V30 4222 H 390.424 7.67063 -1.38689 0
M  V30 4223 N 394.653 0.992116 1.22453 0
M  V30 4224 C 395.883 0.684949 1.94915 0
M  V30 4225 C 396.291 -0.754292 1.73514 0
M  V30 4226 O 395.634 -1.52056 1.03076 0
M  V30 4227 C 395.696 0.910054 3.47791 0
M  V30 4228 C 395.36 2.33363 3.92926 0
M  V30 4229 C 396.357 3.31308 4.00663 0
M  V30 4230 C 394.042 2.66785 4.25595 0
M  V30 4231 C 396.036 4.6075 4.40441 0
M  V30 4232 C 393.723 3.96446 4.65053 0
M  V30 4233 C 394.721 4.9324 4.72444 0
M  V30 4234 O 394.409 6.20584 5.1101 0
M  V30 4235 H 394.141 0.25258 0.62704 0
M  V30 4236 H 396.695 1.32939 1.56577 0
M  V30 4237 H 394.925 0.208443 3.86138 0
M  V30 4238 H 396.614 0.598257 4.01467 0
M  V30 4239 H 397.38 3.0682 3.75615 0
M  V30 4240 H 393.259 1.92148 4.19047 0
M  V30 4241 H 396.803 5.363 4.46126 0
M  V30 4242 H 392.7 4.20724 4.89552 0
M  V30 4243 H 393.468 6.24509 5.29085 0
M  V30 4244 N 396.131 -1.37776 0.765217 0
M  V30 4245 C 397.061 -2.32945 0.160953 0
M  V30 4246 C 398.042 -1.55454 -0.690516 0
M  V30 4247 O 399.227 -1.83721 -0.629318 0
M  V30 4248 C 396.357 -3.39669 -0.724031 0
M  V30 4249 C 395.311 -4.27992 0.0256173 0
M  V30 4250 C 394.637 -5.25673 -0.978383 0
M  V30 4251 C 395.937 -5.08309 1.20082 0
M  V30 4252 H 397.631 -2.83728 0.955969 0
M  V30 4253 H 395.177 -1.36416 0.461149 0
M  V30 4254 H 397.13 -4.05219 -1.15652 0
M  V30 4255 H 395.854 -2.87396 -1.5515 0
M  V30 4256 H 394.513 -3.63964 0.438812 0
M  V30 4257 H 394.161 -4.69682 -1.80022 0
M  V30 4258 H 393.861 -5.85625 -0.481378 0
M  V30 4259 H 395.385 -5.94098 -1.40995 0
M  V30 4260 H 396.799 -5.67034 0.845307 0
M  V30 4261 H 395.196 -5.77554 1.62947 0
M  V30 4262 H 396.266 -4.41365 2.00811 0
M  V30 4263 N 397.609 -0.515225 -1.4894 0
M  V30 4264 C 398.857 0.0241671 -2.02086 0
M  V30 4265 C 399.178 1.3616 -1.3959 0
M  V30 4266 O 398.448 1.87841 -0.556121 0
M  V30 4267 H 397.028 0.0119203 -0.746905 0
M  V30 4268 H 399.69 -0.675702 -1.82812 0
M  V30 4269 H 398.786 0.143385 -3.1177 0
M  V30 4270 N 399.087 1.5561 -0.249682 0
M  V30 4271 C 400.035 2.22894 0.664906 0
M  V30 4272 C 401.029 1.21743 1.17792 0
M  V30 4273 O 402.235 1.39748 1.13449 0
M  V30 4274 H 398.61 0.715022 0.232912 0
M  V30 4275 H 400.581 2.98307 0.0742998 0
M  V30 4276 C 399.33 2.94424 1.84959 0
M  V30 4277 H 398.653 3.72031 1.46399 0
M  V30 4278 H 400.093 3.44862 2.4667 0
M  V30 4279 C 398.552 1.98454 2.72245 0
M  V30 4280 O 399.082 1.51939 3.71857 0
M  V30 4281 N 397.288 1.65496 2.38871 0
M  V30 4282 H 396.835 2.03517 1.57919 0
M  V30 4283 H 396.793 1.0155 2.97548 0
M  V30 4284 N 400.565 -0.0233959 1.57583 0
M  V30 4285 C 401.528 -1.00693 2.05897 0
M  V30 4286 C 402.528 -1.28693 0.964092 0
M  V30 4287 O 403.718 -1.23602 1.22753 0
M  V30 4288 C 400.85 -2.33825 2.4807 0
M  V30 4289 H 402.043 -0.589476 2.9405 0
M  V30 4290 H 399.596 -0.270354 1.53944 0
M  V30 4291 H 400.331 -2.80307 1.6309 0
M  V30 4292 H 400.116 -2.1483 3.2801 0
M  V30 4293 H 401.606 -3.04426 2.85857 0
M  V30 4294 N 402.043 -1.548 -0.295768 0
M  V30 4295 C 403.271 -1.78327 -1.04914 0
M  V30 4296 C 403.686 -0.545316 -1.80753 0
M  V30 4297 O 403.043 0.485013 -1.75937 0
M  V30 4298 C 403.094 -2.99418 -2.02561 0
M  V30 4299 O 402.815 -4.18431 -1.29798 0
M  V30 4300 C 404.316 -3.35375 -2.89895 0
M  V30 4301 H 401.536 -0.594618 -0.310918 0
M  V30 4302 H 404.08 -2.01763 -0.333454 0
M  V30 4303 H 402.235 -2.78175 -2.69624 0
M  V30 4304 H 402.649 -4.86736 -1.95419 0
M  V30 4305 H 404.123 -4.23332 -3.54251 0
M  V30 4306 H 404.6 -2.53761 -3.58472 0
M  V30 4307 H 405.206 -3.58796 -2.28355 0
M  V30 4308 N 403.521 0.559213 -1.47345 0
M  V30 4309 C 404.484 1.64854 -1.59235 0
M  V30 4310 C 405.484 1.53851 -0.467607 0
M  V30 4311 O 406.674 1.58045 -0.732617 0
M  V30 4312 C 403.806 3.04388 -1.53496 0
M  V30 4313 H 404.999 1.55662 -2.56339 0
M  V30 4314 H 402.552 0.778973 -1.35505 0
M  V30 4315 H 403.287 3.19115 -0.577604 0
M  V30 4316 H 403.072 3.13783 -2.35123 0
M  V30 4317 H 404.562 3.83642 -1.6495 0
M  V30 4318 N 404.999 1.35443 0.805782 0
M  V30 4319 C 406.248 1.28097 1.55801 0
M  V30 4320 C 406.561 -0.142428 1.95081 0
M  V30 4321 O 407.767 -0.33817 2.69386 0
M  V30 4322 C 406.223 2.24653 2.81174 0
M  V30 4323 C 405.831 3.72342 2.49129 0
M  V30 4324 C 407.575 2.2625 3.59181 0
M  V30 4325 C 405.482 4.60719 3.70799 0
M  V30 4326 H 404.412 0.475937 0.584808 0
M  V30 4327 H 407.063 1.60712 0.885661 0
M  V30 4328 H 405.445 1.85011 3.50124 0
M  V30 4329 H 406.619 4.20624 1.88181 0
M  V30 4330 H 404.934 3.73361 1.84366 0
M  V30 4331 H 407.531 2.89495 4.49552 0
M  V30 4332 H 407.874 1.26647 3.96568 0
M  V30 4333 H 408.407 2.64426 2.97193 0
M  V30 4334 H 405.146 5.61324 3.3852 0
M  V30 4335 H 404.666 4.17163 4.3097 0
M  V30 4336 H 406.345 4.76182 4.38018 0
M  V30 4337 N 406.477 -1.02803 1.19454 0
M  V30 4338 C 407.724 -1.76217 0.997693 0
M  V30 4339 C 408.052 -1.887 -0.47144 0
M  V30 4340 O 407.307 -1.4011 -1.3663 0
M  V30 4341 C 407.606 -3.18941 1.6128 0
M  V30 4342 C 407.272 -3.26463 3.11019 0
M  V30 4343 C 405.934 -3.28223 3.51885 0
M  V30 4344 C 408.286 -3.25542 4.07028 0
M  V30 4345 C 405.614 -3.26719 4.8731 0
M  V30 4346 C 407.966 -3.25579 5.42385 0
M  V30 4347 C 406.63 -3.25637 5.82681 0
M  V30 4348 H 405.9 -0.644823 0.365082 0
M  V30 4349 H 408.547 -1.20655 1.4871 0
M  V30 4350 H 406.852 -3.77587 1.04572 0
M  V30 4351 H 408.549 -3.74415 1.43577 0
M  V30 4352 H 405.139 -3.25822 2.78457 0
M  V30 4353 H 409.323 -3.23362 3.76498 0
M  V30 4354 H 404.579 -3.25089 5.1781 0
M  V30 4355 H 408.753 -3.23817 6.16535 0
M  V30 4356 H 406.38 -3.24226 6.87591 0
M  V30 4357 N 407.956 -0.998596 -1.21925 0
M  V30 4358 C 409.203 -0.677663 -1.90824 0
M  V30 4359 C 409.531 0.790905 -1.77693 0
M  V30 4360 O 408.786 1.58817 -1.14349 0
M  V30 4361 C 409.085 -1.03648 -3.42041 0
M  V30 4362 C 408.751 -2.49825 -3.75364 0
M  V30 4363 C 407.413 -2.8977 -3.8417 0
M  V30 4364 C 409.765 -3.44545 -3.91073 0
M  V30 4365 C 407.093 -4.23412 -4.06127 0
M  V30 4366 C 409.445 -4.77853 -4.14535 0
M  V30 4367 C 408.109 -5.17531 -4.21566 0
M  V30 4368 H 407.379 -0.247975 -0.698276 0
M  V30 4369 H 410.026 -1.25584 -1.44571 0
M  V30 4370 H 408.331 -0.376457 -3.89987 0
M  V30 4371 H 410.028 -0.766113 -3.93614 0
M  V30 4372 H 406.618 -2.17866 -3.69097 0
M  V30 4373 H 410.802 -3.14853 -3.83642 0
M  V30 4374 H 406.058 -4.53734 -4.09799 0
M  V30 4375 H 410.232 -5.51189 -4.25633 0
M  V30 4376 H 407.859 -6.21102 -4.38333 0
M  V30 4377 N 409.434 1.37368 -0.772513 0
M  V30 4378 C 410.364 2.32856 -0.173304 0
M  V30 4379 C 411.345 1.55818 0.682262 0
M  V30 4380 O 412.53 1.84052 0.619566 0
M  V30 4381 C 409.66 3.40048 0.706007 0
M  V30 4382 C 408.614 4.27973 -0.0483144 0
M  V30 4383 C 407.94 5.26184 0.950491 0
M  V30 4384 C 409.24 5.07665 -1.22776 0
M  V30 4385 H 410.934 2.83217 -0.971002 0
M  V30 4386 H 408.48 1.3617 -0.468377 0
M  V30 4387 H 410.433 4.05827 1.13501 0
M  V30 4388 H 409.157 2.88214 1.53623 0
M  V30 4389 H 407.816 3.63726 -0.458107 0
M  V30 4390 H 407.464 4.7063 1.77529 0
M  V30 4391 H 407.164 5.85872 0.450314 0
M  V30 4392 H 408.688 5.94838 1.37842 0
M  V30 4393 H 410.102 5.66578 -0.875366 0
M  V30 4394 H 408.499 5.76681 -1.66007 0
M  V30 4395 H 409.569 4.40294 -2.03149 0
M  V30 4396 N 410.912 0.523116 1.48665 0
M  V30 4397 C 412.323 0.0808997 1.86525 0
M  V30 4398 C 412.674 -1.33975 1.43336 0
M  V30 4399 O 411.799 -2.00221 0.821009 0
M  V30 4400 C 412.394 0.140037 3.3851 0
M  V30 4401 C 410.953 -0.246948 3.75589 0
M  V30 4402 C 410.1 0.502845 2.72703 0
M  V30 4403 H 413.051 0.734736 1.40667 0
M  V30 4404 H 413.072 -0.649945 3.74908 0
M  V30 4405 H 412.584 1.17412 3.69914 0
M  V30 4406 H 410.685 -1.28343 3.49798 0
M  V30 4407 H 410.798 0.0878859 4.79019 0
M  V30 4408 H 409.162 -0.0500581 2.54651 0
M  V30 4409 H 409.945 1.53743 3.0695 0
M  V30 4410 N 412.39 -1.55475 0.257931 0
M  V30 4411 C 413.667 -1.91155 -0.414629 0
M  V30 4412 C 414.047 -1.18008 -1.75035 0
M  V30 4413 O 413.395 -0.301193 -2.26506 0
M  V30 4414 C 413.605 -3.44283 -0.571859 0
M  V30 4415 C 414.953 -4.15744 -0.862678 0
M  V30 4416 O 415.977 -3.50083 -0.657314 0
M  V30 4417 O 414.836 -5.31909 -1.2544 0
M  V30 4418 H 411.93 -0.796016 -0.22425 0
M  V30 4419 H 414.476 -1.66976 0.302814 0
M  V30 4420 H 413.248 -3.89558 0.368844 0
M  V30 4421 H 412.871 -3.7436 -1.33943 0
M  V30 4422 N 413.868 0.0150385 -1.57593 0
M  V30 4423 C 414.778 1.02791 -2.10882 0
M  V30 4424 C 415.794 1.38702 -1.0506 0
M  V30 4425 O 416.97 1.47739 -1.36877 0
M  V30 4426 C 414.035 2.30568 -2.58919 0
M  V30 4427 C 413.096 2.01108 -3.79281 0
M  V30 4428 C 412.329 3.22794 -4.25018 0
M  V30 4429 O 412.552 4.33959 -3.70183 0
M  V30 4430 O 411.486 3.07672 -5.17322 0
M  V30 4431 H 415.312 0.604973 -2.97613 0
M  V30 4432 H 412.897 0.23292 -1.47573 0
M  V30 4433 H 414.779 3.05662 -2.90084 0
M  V30 4434 H 413.454 2.72129 -1.75293 0
M  V30 4435 H 412.361 1.23537 -3.53114 0
M  V30 4436 H 413.694 1.64394 -4.63935 0
M  V30 4437 N 415.346 1.54954 0.287554 0
M  V30 4438 C 416.594 1.74528 1.01904 0
M  V30 4439 C 416.915 0.541349 1.87335 0
M  V30 4440 O 416.185 -0.444108 1.908 0
M  V30 4441 H 414.765 0.643576 0.379235 0
M  V30 4442 H 417.427 1.92333 0.315294 0
M  V30 4443 H 416.523 2.64015 1.6644 0
M  V30 4444 N 416.824 -0.551391 1.4764 0
M  V30 4445 C 417.771 -1.65796 1.60563 0
M  V30 4446 C 418.741 -1.59932 0.448428 0
M  V30 4447 O 419.926 -1.78679 0.669222 0
M  V30 4448 C 417.066 -3.04108 1.63133 0
M  V30 4449 C 416.179 -3.20365 2.89811 0
M  V30 4450 C 415.314 -4.49109 2.8368 0
M  V30 4451 C 414.353 -4.58819 4.05156 0
M  V30 4452 N 413.49 -5.78926 3.97227 0
M  V30 4453 H 418.33 -1.54088 2.5507 0
M  V30 4454 H 415.867 -0.75052 1.26513 0
M  V30 4455 H 417.825 -3.84207 1.62606 0
M  V30 4456 H 416.455 -3.14637 0.721341 0
M  V30 4457 H 415.507 -2.33659 3.00179 0
M  V30 4458 H 416.819 -3.23402 3.79753 0
M  V30 4459 H 415.973 -5.37475 2.81434 0
M  V30 4460 H 414.712 -4.4856 1.91431 0
M  V30 4461 H 413.717 -3.68864 4.077 0
M  V30 4462 H 414.942 -4.61124 4.98539 0
M  V30 4463 H 412.888 -5.79314 3.07785 0
M  V30 4464 H 412.805 -5.83367 4.80853 0
M  V30 4465 H 414.073 -6.69637 3.99007 0
M  V30 4466 N 418.302 -1.35869 -0.798587 0
M  V30 4467 C 419.232 -1.32118 -1.92528 0
M  V30 4468 C 420.213 -0.194209 -1.68988 0
M  V30 4469 O 421.398 -0.390426 -1.90235 0
M  V30 4470 C 418.528 -1.10047 -3.29404 0
M  V30 4471 C 417.482 -2.19471 -3.67446 0
M  V30 4472 C 416.808 -1.82555 -5.02571 0
M  V30 4473 C 418.108 -3.61495 -3.76987 0
M  V30 4474 H 419.802 -2.26394 -1.95924 0
M  V30 4475 H 417.348 -1.08981 -0.94123 0
M  V30 4476 H 419.301 -1.06061 -4.07835 0
M  V30 4477 H 418.025 -0.122195 -3.26371 0
M  V30 4478 H 416.684 -2.22568 -2.91306 0
M  V30 4479 H 416.332 -0.833249 -4.9605 0
M  V30 4480 H 416.032 -2.5581 -5.28995 0
M  V30 4481 H 417.556 -1.80108 -5.83432 0
M  V30 4482 H 418.97 -3.60676 -4.4563 0
M  V30 4483 H 417.367 -4.33577 -4.14887 0
M  V30 4484 H 418.437 -3.97065 -2.78329 0
M  V30 4485 N 419.78 1.02168 -1.19998 0
M  V30 4486 C 420.712 2.10705 -0.901994 0
M  V30 4487 C 421.725 1.6244 0.108216 0
M  V30 4488 O 422.914 1.78082 -0.12214 0
M  V30 4489 C 420.014 3.37291 -0.329834 0
M  V30 4490 C 419.187 4.14714 -1.39035 0
M  V30 4491 C 418.246 5.19606 -0.830432 0
M  V30 4492 O 417.272 5.48809 -1.50989 0
M  V30 4493 N 418.474 5.79366 0.362696 0
M  V30 4494 H 421.239 2.36856 -1.83628 0
M  V30 4495 H 418.8 1.18518 -1.10296 0
M  V30 4496 H 420.792 4.04657 0.0587633 0
M  V30 4497 H 419.362 3.0843 0.508891 0
M  V30 4498 H 418.582 3.42392 -1.9535 0
M  V30 4499 H 419.87 4.63226 -2.10474 0
M  V30 4500 H 419.268 5.57968 0.932081 0
M  V30 4501 H 417.825 6.48106 0.69299 0
M  V30 4502 N 421.258 1.00505 1.21394 0
M  V30 4503 C 422.208 0.536503 2.21598 0
M  V30 4504 C 423.192 -0.401914 1.55799 0
M  V30 4505 O 424.384 -0.226757 1.75541 0
M  V30 4506 C 421.513 -0.135446 3.43033 0
M  V30 4507 C 420.599 0.823992 4.16018 0
M  V30 4508 N 420.99 1.97683 4.6557 0
M  V30 4509 C 419.288 0.642387 4.4135 0
M  V30 4510 C 419.989 2.58003 5.21354 0
M  V30 4511 N 418.965 1.86162 5.1073 0
M  V30 4512 H 422.767 1.41557 2.57563 0
M  V30 4513 H 420.281 0.868878 1.37202 0
M  V30 4514 H 422.278 -0.488584 4.14027 0
M  V30 4515 H 420.938 -1.01049 3.08576 0
M  V30 4516 H 421.949 2.3572 4.61147 0
M  V30 4517 H 418.626 -0.185578 4.17087 0
M  V30 4518 H 420.016 3.555 5.70149 0
M  V30 4519 N 422.737 -1.36956 0.779787 0
M  V30 4520 C 423.667 -2.32761 0.185651 0
M  V30 4521 C 424.648 -1.56177 -0.673989 0
M  V30 4522 O 425.833 -1.84378 -0.609797 0
M  V30 4523 C 422.963 -3.40418 -0.687964 0
M  V30 4524 C 421.917 -4.27941 0.0710102 0
M  V30 4525 C 421.243 -5.26681 -0.922573 0
M  V30 4526 C 422.543 -5.07006 1.25467 0
M  V30 4527 H 424.237 -2.82698 0.986008 0
M  V30 4528 H 421.783 -1.3592 0.475592 0
M  V30 4529 H 423.736 -4.06423 -1.11348 0
M  V30 4530 H 422.46 -2.89025 -1.52093 0
M  V30 4531 H 421.119 -3.63478 0.47739 0
M  V30 4532 H 420.767 -4.71565 -1.7503 0
M  V30 4533 H 420.467 -5.86103 -0.419237 0
M  V30 4534 H 421.991 -5.9556 -1.34686 0
M  V30 4535 H 423.405 -5.66105 0.905401 0
M  V30 4536 H 421.802 -5.75793 1.69063 0
M  V30 4537 H 422.872 -4.3921 2.05481 0
M  V30 4538 N 424.215 -0.530993 -1.48385 0
M  V30 4539 C 425.125 0.23503 -2.3342 0
M  V30 4540 C 426.141 0.93801 -1.46552 0
M  V30 4541 O 427.317 0.912745 -1.7953 0
M  V30 4542 C 424.382 1.26778 -3.22689 0
M  V30 4543 C 423.443 0.575038 -4.25431 0
M  V30 4544 C 422.676 1.55858 -5.10435 0
M  V30 4545 O 422.899 2.79129 -4.97437 0
M  V30 4546 O 421.833 1.09742 -5.91811 0
M  V30 4547 H 425.659 -0.461794 -3.00169 0
M  V30 4548 H 423.244 -0.291903 -1.46521 0
M  V30 4549 H 425.126 1.86457 -3.77904 0
M  V30 4550 H 423.801 1.94699 -2.586 0
M  V30 4551 H 422.708 -0.0622782 -3.74048 0
M  V30 4552 H 424.041 -0.062253 -4.92161 0
M  V30 4553 N 425.693 1.55336 -0.266172 0
M  V30 4554 C 426.641 2.23587 0.641228 0
M  V30 4555 C 427.635 1.22986 1.16494 0
M  V30 4556 O 428.841 1.40943 1.1196 0
M  V30 4557 H 425.216 0.717452 0.225315 0
M  V30 4558 H 427.187 2.9837 0.0426561 0
M  V30 4559 C 425.936 2.96369 1.81826 0
M  V30 4560 H 425.259 3.73563 1.42445 0
M  V30 4561 H 426.699 3.47459 2.42998 0
M  V30 4562 C 425.158 2.0133 2.70125 0
M  V30 4563 O 425.688 1.55875 3.70224 0
M  V30 4564 N 423.894 1.6802 2.37102 0
M  V30 4565 H 423.441 2.05181 1.55751 0
M  V30 4566 H 423.399 1.047 2.96454 0
M  V30 4567 N 427.171 -0.0066808 1.57599 0
M  V30 4568 C 428.081 -1.01671 2.11424 0
M  V30 4569 C 429.097 -1.38143 1.05795 0
M  V30 4570 O 430.273 -1.47011 1.37658 0
M  V30 4571 C 427.338 -2.29192 2.60139 0
M  V30 4572 C 426.399 -1.99094 3.80342 0
M  V30 4573 C 425.632 -3.20535 4.26724 0
M  V30 4574 O 425.855 -4.3199 3.72479 0
M  V30 4575 O 424.789 -3.04924 5.18946 0
M  V30 4576 H 428.615 -0.589181 2.9793 0
M  V30 4577 H 426.2 -0.225091 1.47695 0
M  V30 4578 H 428.082 -3.0412 2.917 0
M  V30 4579 H 426.757 -2.71195 1.76733 0
M  V30 4580 H 425.664 -1.21663 3.53764 0
M  V30 4581 H 426.997 -1.61931 4.648 0
M  V30 4582 N 428.649 -1.55105 -0.279332 0
M  V30 4583 C 429.579 -1.90557 -1.34945 0
M  V30 4584 C 430.56 -0.766738 -1.51839 0
M  V30 4585 O 431.745 -1.02434 -1.64988 0
M  V30 4586 C 428.875 -2.17193 -2.71006 0
M  V30 4587 C 427.829 -3.33021 -2.68851 0
M  V30 4588 C 427.155 -3.45123 -4.08405 0
M  V30 4589 C 428.455 -4.69578 -2.28678 0
M  V30 4590 H 430.149 -2.80188 -1.05522 0
M  V30 4591 H 427.695 -1.34811 -0.506173 0
M  V30 4592 H 429.648 -2.40581 -3.45975 0
M  V30 4593 H 428.372 -1.24355 -3.01999 0
M  V30 4594 H 427.031 -3.0959 -1.9634 0
M  V30 4595 H 426.679 -2.49762 -4.3661 0
M  V30 4596 H 426.379 -4.22995 -4.07859 0
M  V30 4597 H 427.903 -3.70796 -4.85121 0
M  V30 4598 H 429.317 -4.92553 -2.93368 0
M  V30 4599 H 427.714 -5.5032 -2.39306 0
M  V30 4600 H 428.784 -4.68828 -1.23807 0
M  V30 4601 N 430.127 0.543554 -1.4793 0
M  V30 4602 C 431.355 1.32516 -1.58894 0
M  V30 4603 C 431.77 1.87215 -0.244131 0
M  V30 4604 O 431.127 1.65709 0.764652 0
M  V30 4605 C 431.178 2.48554 -2.62494 0
M  V30 4606 O 430.899 1.96112 -3.91755 0
M  V30 4607 C 432.4 3.40572 -2.8377 0
M  V30 4608 H 429.62 0.403472 -0.536145 0
M  V30 4609 H 432.164 0.657106 -1.93655 0
M  V30 4610 H 430.319 3.1127 -2.30629 0
M  V30 4611 H 430.733 2.71967 -4.4848 0
M  V30 4612 H 432.207 4.18375 -3.60093 0
M  V30 4613 H 432.684 3.94965 -1.92092 0
M  V30 4614 H 433.29 2.8366 -3.16887 0
M  V30 4615 N 431.605 1.3629 0.791371 0
M  V30 4616 C 432.555 1.26988 1.89362 0
M  V30 4617 C 433.539 0.161795 1.60084 0
M  V30 4618 O 434.731 0.394426 1.72549 0
M  V30 4619 C 431.86 1.05944 3.26544 0
M  V30 4620 C 430.946 2.21211 3.61838 0
M  V30 4621 N 431.337 3.46518 3.68455 0
M  V30 4622 C 429.635 2.12933 3.91887 0
M  V30 4623 C 430.336 4.2241 3.99931 0
M  V30 4624 N 429.312 3.51329 4.14812 0
M  V30 4625 H 433.114 2.21908 1.92702 0
M  V30 4626 H 430.628 1.28982 0.986787 0
M  V30 4627 H 432.625 0.973666 4.05371 0
M  V30 4628 H 431.285 0.119223 3.24481 0
M  V30 4629 H 432.296 3.80677 3.51148 0
M  V30 4630 H 428.973 1.26855 3.97761 0
M  V30 4631 H 430.363 5.30767 4.1199 0
M  V30 4632 N 433.083 -1.0153 1.20538 0
M  V30 4633 C 434.36 -1.72327 0.925343 0
M  V30 4634 C 434.74 -2.03383 -0.565547 0
M  V30 4635 O 434.088 -1.69934 -1.52757 0
M  V30 4636 C 434.298 -2.9902 1.79967 0
M  V30 4637 C 435.646 -3.72258 2.04228 0
M  V30 4638 O 436.67 -3.08979 1.77231 0
M  V30 4639 O 435.529 -4.86053 2.4983 0
M  V30 4640 H 432.623 -0.751099 0.346092 0
M  V30 4641 H 435.169 -1.07366 1.31417 0
M  V30 4642 H 433.941 -2.72402 2.80915 0
M  V30 4643 H 433.564 -3.71721 1.41099 0
M  V30 4644 N 434.561 -1.01147 -1.20859 0
M  V30 4645 C 435.81 -0.693214 -1.89413 0
M  V30 4646 C 436.123 0.779969 -1.79376 0
M  V30 4647 O 437.329 1.21057 -2.43017 0
M  V30 4648 C 435.785 -1.18949 -3.39675 0
M  V30 4649 C 435.393 -2.68921 -3.58309 0
M  V30 4650 C 437.137 -0.94642 -4.13815 0
M  V30 4651 C 435.044 -3.12056 -5.0237 0
M  V30 4652 H 433.974 -0.255595 -0.709357 0
M  V30 4653 H 436.625 -1.22349 -1.36759 0
M  V30 4654 H 435.007 -0.587228 -3.91622 0
M  V30 4655 H 436.181 -3.34652 -3.16772 0
M  V30 4656 H 434.496 -2.91314 -2.97532 0
M  V30 4657 H 437.093 -1.24417 -5.20023 0
M  V30 4658 H 437.436 0.117219 -4.16135 0
M  V30 4659 H 437.969 -1.5118 -3.67953 0
M  V30 4660 H 434.708 -4.17674 -5.05202 0
M  V30 4661 H 434.228 -2.51041 -5.44737 0
M  V30 4662 H 435.907 -3.04403 -5.70918 0
M  V30 4663 N 436.039 1.36541 -0.78704 0
M  V30 4664 C 437.288 1.98552 -0.35494 0
M  V30 4665 C 437.601 1.63171 1.07864 0
M  V30 4666 O 438.807 2.18399 1.61289 0
M  V30 4667 C 437.263 3.55136 -0.583671 0
M  V30 4668 C 436.871 3.99444 -2.02851 0
M  V30 4669 C 438.615 4.2395 -0.215957 0
M  V30 4670 C 436.522 5.48796 -2.20403 0
M  V30 4671 H 435.452 0.742888 -0.128972 0
M  V30 4672 H 438.103 1.5587 -0.968337 0
M  V30 4673 H 436.485 3.95875 0.0994046 0
M  V30 4674 H 437.659 3.6991 -2.74779 0
M  V30 4675 H 435.974 3.43459 -2.35425 0
M  V30 4676 H 438.571 5.33709 -0.325405 0
M  V30 4677 H 438.914 4.07827 0.835646 0
M  V30 4678 H 439.447 3.88565 -0.852175 0
M  V30 4679 H 436.186 5.69864 -3.23937 0
M  V30 4680 H 435.706 5.79964 -1.52977 0
M  V30 4681 H 437.385 6.14986 -2.01002 0
M  V30 4682 N 437.518 0.538854 1.48102 0
M  V30 4683 C 438.746 0.0123136 2.06896 0
M  V30 4684 C 439.161 -1.27312 1.39417 0
M  V30 4685 O 438.518 -1.75949 0.484582 0
M  V30 4686 C 438.569 -0.206118 3.60912 0
M  V30 4687 O 438.29 1.0284 4.25859 0
M  V30 4688 C 439.791 -0.772033 4.36526 0
M  V30 4689 H 437.011 0.0375239 0.66995 0
M  V30 4690 H 439.555 0.747032 1.90367 0
M  V30 4691 H 437.71 -0.89091 3.77017 0
M  V30 4692 H 438.124 0.814654 5.18135 0
M  V30 4693 H 439.598 -0.874251 5.45033 0
M  V30 4694 H 440.075 -1.77904 4.01555 0
M  V30 4695 H 440.681 -0.123526 4.25121 0
M  V30 4696 N 438.996 -1.55193 0.274407 0
M  V30 4697 C 439.943 -2.225 -0.613374 0
M  V30 4698 C 440.913 -1.19823 -1.15029 0
M  V30 4699 O 442.098 -1.48362 -1.19973 0
M  V30 4700 C 439.238 -2.94927 -1.79199 0
M  V30 4701 C 438.351 -4.12322 -1.28899 0
M  V30 4702 C 437.486 -4.72394 -2.42934 0
M  V30 4703 C 436.525 -5.81984 -1.89634 0
M  V30 4704 N 435.662 -6.36123 -2.9714 0
M  V30 4705 H 440.502 -2.97982 -0.032756 0
M  V30 4706 H 438.039 -1.47099 -0.00440146 0
M  V30 4707 H 439.997 -3.35134 -2.48478 0
M  V30 4708 H 438.627 -2.2187 -2.34465 0
M  V30 4709 H 437.679 -3.7724 -0.489327 0
M  V30 4710 H 438.991 -4.91355 -0.858587 0
M  V30 4711 H 438.145 -5.15317 -3.20208 0
M  V30 4712 H 436.884 -3.92636 -2.8929 0
M  V30 4713 H 435.889 -5.38511 -1.1084 0
M  V30 4714 H 437.114 -6.6361 -1.44215 0
M  V30 4715 H 435.06 -5.59259 -3.42878 0
M  V30 4716 H 434.977 -7.10427 -2.58515 0
M  V30 4717 H 436.245 -6.83704 -3.74391 0
M  V30 4718 N 440.474 -0.00167713 -1.576 0
M  V30 4719 C 441.721 0.68282 -1.90641 0
M  V30 4720 C 442.049 1.73686 -0.875415 0
M  V30 4721 O 441.304 1.95334 0.119575 0
M  V30 4722 C 441.603 1.36189 -3.30435 0
M  V30 4723 C 441.269 0.440887 -4.48739 0
M  V30 4724 C 439.931 0.187312 -4.80835 0
M  V30 4725 C 442.283 -0.193134 -5.20842 0
M  V30 4726 C 439.611 -0.70855 -5.82406 0
M  V30 4727 C 441.963 -1.07688 -6.23367 0
M  V30 4728 C 440.627 -1.33962 -6.53919 0
M  V30 4729 H 439.897 0.249862 -0.697603 0
M  V30 4730 H 442.544 -0.0575642 -1.91413 0
M  V30 4731 H 440.849 2.17636 -3.25794 0
M  V30 4732 H 442.546 1.89759 -3.5326 0
M  V30 4733 H 439.136 0.648694 -4.23663 0
M  V30 4734 H 443.32 -0.0102445 -4.96299 0
M  V30 4735 H 438.576 -0.920097 -6.04437 0
M  V30 4736 H 442.75 -1.57451 -6.78367 0
M  V30 4737 H 440.377 -2.03549 -7.32442 0
M  V30 4738 N 441.952 1.55251 0.271103 0
M  V30 4739 C 442.882 1.9127 1.33933 0
M  V30 4740 C 443.863 0.77478 1.5143 0
M  V30 4741 O 445.048 1.03307 1.64442 0
M  V30 4742 C 442.178 2.18627 2.69851 0
M  V30 4743 C 441.132 3.34442 2.67081 0
M  V30 4744 C 440.458 3.47284 4.06569 0
M  V30 4745 C 441.758 4.70784 2.26185 0
M  V30 4746 H 443.452 2.80744 1.04035 0
M  V30 4747 H 440.998 1.35077 0.499017 0
M  V30 4748 H 442.951 2.42413 3.44694 0
M  V30 4749 H 441.675 1.25955 3.01335 0
M  V30 4750 H 440.334 3.10627 1.94695 0
M  V30 4751 H 439.982 2.52074 4.35279 0
M  V30 4752 H 439.682 4.25152 4.0561 0
M  V30 4753 H 441.206 3.73363 4.83148 0
M  V30 4754 H 442.62 4.94102 2.90751 0
M  V30 4755 H 441.017 5.51582 2.36384 0
M  V30 4756 H 442.087 4.69478 1.21319 0
M  V30 4757 N 443.43 -0.535701 1.48216 0
M  V30 4758 C 444.34 -1.66785 1.64985 0
M  V30 4759 C 445.356 -1.65654 0.532414 0
M  V30 4760 O 446.532 -1.8471 0.80275 0
M  V30 4761 C 443.597 -3.0326 1.68031 0
M  V30 4762 C 442.658 -3.1529 2.9136 0
M  V30 4763 C 441.891 -4.45255 2.94252 0
M  V30 4764 O 442.114 -5.32011 2.05719 0
M  V30 4765 O 441.048 -4.6153 3.86359 0
M  V30 4766 H 444.874 -1.55576 2.60825 0
M  V30 4767 H 442.459 -0.70815 1.31551 0
M  V30 4768 H 444.341 -3.84436 1.72589 0
M  V30 4769 H 443.016 -3.14805 0.753628 0
M  V30 4770 H 441.923 -2.3343 2.92337 0
M  V30 4771 H 443.256 -3.08658 3.83394 0
M  V30 4772 N 444.908 -1.36708 -0.784132 0
M  V30 4773 C 445.856 -1.31533 -1.91838 0
M  V30 4774 C 446.85 -0.206205 -1.6814 0
M  V30 4775 O 448.056 -0.373519 -1.76082 0
M  V30 4776 H 444.431 -0.409613 -0.630651 0
M  V30 4777 H 446.402 -2.2731 -1.9332 0
M  V30 4778 C 445.151 -1.12679 -3.28936 0
M  V30 4779 H 444.474 -1.97274 -3.4774 0
M  V30 4780 H 445.914 -1.13106 -4.08636 0
M  V30 4781 C 444.373 0.168281 -3.36479 0
M  V30 4782 O 444.903 1.15625 -3.84699 0
M  V30 4783 N 443.109 0.214762 -2.89805 0
M  V30 4784 H 442.656 -0.589852 -2.50756 0
M  V30 4785 H 442.614 1.08094 -2.95234 0
M  V30 4786 N 446.386 1.0089 -1.21074 0
M  V30 4787 C 447.296 2.13039 -0.982425 0
M  V30 4788 C 448.312 1.73881 0.0642161 0
M  V30 4789 O 449.488 2.01012 -0.12496 0
M  V30 4790 C 446.553 3.42377 -0.545803 0
M  V30 4791 C 445.614 3.95731 -1.6642 0
M  V30 4792 C 444.847 5.18896 -1.24832 0
M  V30 4793 O 445.07 5.70273 -0.120265 0
M  V30 4794 O 444.004 5.65597 -2.05873 0
M  V30 4795 H 447.83 2.35175 -1.92163 0
M  V30 4796 H 445.415 1.1142 -0.995285 0
M  V30 4797 H 447.297 4.20244 -0.311912 0
M  V30 4798 H 445.972 3.21639 0.364727 0
M  V30 4799 H 444.879 3.19108 -1.95246 0
M  V30 4800 H 446.212 4.20872 -2.55201 0
M  V30 4801 N 447.864 1.01787 1.20321 0
M  V30 4802 C 449.141 0.622978 1.85414 0
M  V30 4803 C 449.521 -0.898887 1.91006 0
M  V30 4804 O 448.869 -1.79112 1.41884 0
M  V30 4805 C 449.079 1.27226 3.24984 0
M  V30 4806 C 450.427 1.3885 4.01255 0
M  V30 4807 O 451.451 1.22857 3.34342 0
M  V30 4808 O 450.31 1.64705 5.2109 0
M  V30 4809 H 447.404 0.215116 0.798533 0
M  V30 4810 H 449.95 1.11533 1.27901 0
M  V30 4811 H 448.722 2.31209 3.15687 0
M  V30 4812 H 448.345 0.767069 3.90131 0
M  V30 4813 N 449.342 -1.36122 0.79427 0
M  V30 4814 C 450.758 -1.5232 0.476525 0
M  V30 4815 C 450.958 -1.74685 -1.00436 0
M  V30 4816 O 450.014 -1.78115 -1.78973 0
M  V30 4817 C 451.327 -2.70607 1.31119 0
M  V30 4818 C 452.875 -2.8448 1.30537 0
M  V30 4819 C 453.35 -4.05778 2.12387 0
M  V30 4820 N 454.841 -4.12933 2.09859 0
M  V30 4821 C 455.576 -5.05876 2.69957 0
M  V30 4822 N 455.072 -6.04232 3.38934 0
M  V30 4823 N 456.865 -4.98528 2.59665 0
M  V30 4824 H 449.016 -1.1986 1.75349 0
M  V30 4825 H 451.279 -0.585418 0.745647 0
M  V30 4826 H 450.985 -2.60619 2.36158 0
M  V30 4827 H 450.859 -3.64888 0.955843 0
M  V30 4828 H 453.246 -2.93927 0.262876 0
M  V30 4829 H 453.327 -1.91093 1.70051 0
M  V30 4830 H 452.971 -3.97092 3.1667 0
M  V30 4831 H 452.901 -4.98323 1.70242 0
M  V30 4832 H 455.392 -3.42515 1.59662 0
M  V30 4833 H 455.705 -6.71724 3.82109 0
M  V30 4834 H 454.05 -6.04443 3.43036 0
M  V30 4835 H 457.241 -4.20641 2.05375 0
M  V30 4836 H 457.414 -5.70773 3.06793 0
M  V30 4837 N 450.82 -0.546701 -1.47814 0
M  V30 4838 C 452.236 -0.205717 -1.58269 0
M  V30 4839 C 452.436 1.29153 -1.54667 0
M  V30 4840 O 451.492 2.07098 -1.44453 0
M  V30 4841 C 452.805 -0.823065 -2.89216 0
M  V30 4842 C 454.353 -0.793328 -3.02779 0
M  V30 4843 C 454.828 -1.38955 -4.36412 0
M  V30 4844 N 456.319 -1.35227 -4.43021 0
M  V30 4845 C 457.054 -1.78333 -5.44963 0
M  V30 4846 N 456.55 -2.29246 -6.53772 0
M  V30 4847 N 458.343 -1.69467 -5.35945 0
M  V30 4848 H 450.494 -1.5196 -1.48398 0
M  V30 4849 H 452.757 -0.633078 -0.705632 0
M  V30 4850 H 452.463 -1.8749 -2.97558 0
M  V30 4851 H 452.337 -0.309915 -3.75925 0
M  V30 4852 H 454.724 0.249784 -2.94041 0
M  V30 4853 H 454.805 -1.34412 -2.17639 0
M  V30 4854 H 454.449 -2.43168 -4.45906 0
M  V30 4855 H 454.379 -0.814291 -5.20266 0
M  V30 4856 H 456.87 -0.979739 -3.64979 0
M  V30 4857 H 457.183 -2.60089 -7.27718 0
M  V30 4858 H 455.528 -2.3325 -6.5469 0
M  V30 4859 H 458.719 -1.29477 -4.49837 0
M  V30 4860 H 458.892 -2.03381 -6.15256 0
M  V30 4861 N 452.299 1.55045 -0.282633 0
M  V30 4862 C 453.524 2.04628 0.337977 0
M  V30 4863 C 453.949 1.15937 1.48123 0
M  V30 4864 O 453.307 0.159532 1.80597 0
M  V30 4865 C 453.355 3.51854 0.78936 0
M  V30 4866 O 452.459 3.66236 1.89592 0
M  V30 4867 H 451.8 0.660434 0.0687261 0
M  V30 4868 H 454.33 2.00261 -0.419124 0
M  V30 4869 H 454.34 3.93361 1.08311 0
M  V30 4870 H 453.015 4.15873 -0.0470419 0
M  V30 4871 H 451.592 3.36633 1.60413 0
M  V30 4872 N 453.777 0.010035 1.57597 0
M  V30 4873 C 454.74 -0.963029 2.07986 0
M  V30 4874 C 455.74 -1.26619 0.991173 0
M  V30 4875 O 456.93 -1.2097 1.25347 0
M  V30 4876 C 454.062 -2.2851 2.52974 0
M  V30 4877 H 455.255 -0.526971 2.95234 0
M  V30 4878 H 452.808 -0.237639 1.54483 0
M  V30 4879 H 453.543 -2.76784 1.69 0
M  V30 4880 H 453.328 -2.07824 3.32493 0
M  V30 4881 H 454.818 -2.98294 2.9225 0
M  V30 4882 N 455.255 -1.55392 -0.262866 0
M  V30 4883 C 456.48 -1.80847 -1.01533 0
M  V30 4884 C 456.905 -0.584946 -1.78774 0
M  V30 4885 O 456.263 0.465701 -1.75217 0
M  V30 4886 C 456.311 -3.03866 -1.94159 0
M  V30 4887 O 455.415 -2.79662 -3.03089 0
M  V30 4888 H 454.756 -0.597441 -0.289759 0
M  V30 4889 H 457.286 -2.02553 -0.288698 0
M  V30 4890 H 457.296 -3.32872 -2.35924 0
M  V30 4891 H 455.971 -3.92564 -1.37354 0
M  V30 4892 H 454.548 -2.61781 -2.65566 0
M  V30 4893 N 456.733 0.527833 -1.48498 0
M  V30 4894 C 457.663 1.64136 -1.66077 0
M  V30 4895 C 458.644 1.62286 -0.509625 0
M  V30 4896 O 459.829 1.79449 -0.742413 0
M  V30 4897 C 456.959 3.02717 -1.70234 0
M  V30 4898 C 455.913 3.19426 -2.8487 0
M  V30 4899 C 455.239 4.5909 -2.74118 0
M  V30 4900 C 456.539 3.01993 -4.26142 0
M  V30 4901 H 458.233 1.4968 -2.593 0
M  V30 4902 H 455.779 0.718654 -1.24785 0
M  V30 4903 H 457.732 3.80491 -1.8112 0
M  V30 4904 H 456.456 3.18201 -0.735911 0
M  V30 4905 H 455.115 2.4407 -2.73542 0
M  V30 4906 H 454.763 4.71413 -1.7544 0
M  V30 4907 H 454.463 4.71214 -3.51042 0
M  V30 4908 H 455.987 5.3896 -2.86974 0
M  V30 4909 H 457.401 3.69558 -4.38292 0
M  V30 4910 H 455.798 3.2561 -5.04082 0
M  V30 4911 H 456.868 1.98396 -4.42456 0
M  V30 4912 N 458.211 1.37122 0.776871 0
M  V30 4913 C 459.161 1.28989 1.88005 0
M  V30 4914 C 460.145 0.178765 1.59904 0
M  V30 4915 O 461.337 0.412705 1.72121 0
M  V30 4916 C 458.466 1.09402 3.25402 0
M  V30 4917 C 457.552 2.25036 3.59471 0
M  V30 4918 N 457.943 3.50407 3.64759 0
M  V30 4919 C 456.241 2.17078 3.89607 0
M  V30 4920 C 456.942 4.26628 3.95428 0
M  V30 4921 N 455.918 3.55709 4.11062 0
M  V30 4922 H 459.72 2.2394 1.90337 0
M  V30 4923 H 457.234 1.30021 0.973052 0
M  V30 4924 H 459.231 1.01661 4.04315 0
M  V30 4925 H 457.891 0.153632 3.24336 0
M  V30 4926 H 458.902 3.8438 3.47091 0
M  V30 4927 H 455.579 1.31067 3.96393 0
M  V30 4928 H 456.969 5.35107 4.06338 0
M  V30 4929 N 459.689 -1.00246 1.21608 0
M  V30 4930 C 460.619 -2.10921 1.00172 0
M  V30 4931 C 461.6 -1.69938 -0.0741587 0
M  V30 4932 O 462.785 -1.94009 0.0861753 0
M  V30 4933 C 459.915 -3.42618 0.568355 0
M  V30 4934 C 458.869 -3.97407 1.58909 0
M  V30 4935 C 458.195 -5.25038 1.01187 0
M  V30 4936 C 459.495 -4.2918 2.97661 0
M  V30 4937 H 461.189 -2.29112 1.92739 0
M  V30 4938 H 458.735 -1.10101 0.928102 0
M  V30 4939 H 460.688 -4.19444 0.405555 0
M  V30 4940 H 459.412 -3.24227 -0.392961 0
M  V30 4941 H 458.071 -3.22703 1.73949 0
M  V30 4942 H 457.719 -5.02982 0.0421965 0
M  V30 4943 H 457.419 -5.62661 1.6937 0
M  V30 4944 H 458.943 -6.04507 0.860448 0
M  V30 4945 H 460.357 -4.96839 2.86049 0
M  V30 4946 H 458.754 -4.77952 3.6288 0
M  V30 4947 H 459.824 -3.3735 3.48315 0
M  V30 4948 N 461.167 -1.02423 -1.1978 0
M  V30 4949 C 462.578 -0.748389 -1.71044 0
M  V30 4950 C 462.929 0.732398 -1.82017 0
M  V30 4951 O 462.054 1.57116 -1.48807 0
M  V30 4952 C 462.649 -1.35187 -3.1066 0
M  V30 4953 C 461.208 -1.12472 -3.59203 0
M  V30 4954 C 460.355 -1.45283 -2.36195 0
M  V30 4955 H 463.306 -1.19275 -1.04686 0
M  V30 4956 H 463.327 -0.746408 -3.73107 0
M  V30 4957 H 462.839 -2.4296 -3.02642 0
M  V30 4958 H 460.94 -0.0649983 -3.72543 0
M  V30 4959 H 461.053 -1.81016 -4.43588 0
M  V30 4960 H 459.417 -0.872034 -2.39307 0
M  V30 4961 H 460.2 -2.54129 -2.30811 0
M  V30 4962 N 462.645 1.35699 -0.801477 0
M  V30 4963 C 463.592 2.29876 -0.206294 0
M  V30 4964 C 464.562 1.52565 0.656752 0
M  V30 4965 O 465.747 1.81024 0.602906 0
M  V30 4966 C 462.887 3.39052 0.643272 0
M  V30 4967 C 462 4.31335 -0.239644 0
M  V30 4968 C 461.135 5.27599 0.61744 0
M  V30 4969 C 460.174 6.11521 -0.26619 0
M  V30 4970 N 459.311 6.99938 0.550571 0
M  V30 4971 H 464.151 2.80187 -1.01484 0
M  V30 4972 H 461.688 1.37902 -0.511997 0
M  V30 4973 H 463.646 4.0101 1.15094 0
M  V30 4974 H 462.276 2.9003 1.41713 0
M  V30 4975 H 461.328 3.70426 -0.865381 0
M  V30 4976 H 462.64 4.90243 -0.919985 0
M  V30 4977 H 461.794 5.94906 1.19045 0
M  V30 4978 H 460.533 4.69176 1.33137 0
M  V30 4979 H 459.538 5.43166 -0.851507 0
M  V30 4980 H 460.763 6.72022 -0.9779 0
M  V30 4981 H 458.709 6.44008 1.24856 0
M  V30 4982 H 458.626 7.55966 -0.071832 0
M  V30 4983 H 459.894 7.71599 1.10702 0
M  V30 4984 N 464.123 0.554532 1.47522 0
M  V30 4985 C 465.053 -0.182974 2.32782 0
M  V30 4986 C 466.034 -0.911377 1.43624 0
M  V30 4987 O 467.219 -0.892366 1.72483 0
M  V30 4988 C 464.349 -1.21513 3.25349 0
M  V30 4989 C 463.303 -0.603355 4.23726 0
M  V30 4990 C 462.629 -1.73995 5.05598 0
M  V30 4991 C 463.929 0.441121 5.20434 0
M  V30 4992 H 465.623 0.52882 2.94693 0
M  V30 4993 H 463.169 0.255759 1.41711 0
M  V30 4994 H 465.122 -1.73922 3.83835 0
M  V30 4995 H 463.846 -1.95683 2.61487 0
M  V30 4996 H 462.505 -0.10059 3.66462 0
M  V30 4997 H 462.153 -2.47063 4.38143 0
M  V30 4998 H 461.853 -1.3364 5.72201 0
M  V30 4999 H 463.377 -2.26735 5.66942 0
M  V30 5000 H 464.791 0.00319931 5.733 0
M  V30 5001 H 463.188 0.763402 5.95224 0
M  V30 5002 H 464.258 1.33799 4.66075 0
M  V30 5003 N 465.601 -1.54893 0.290851 0
M  V30 5004 C 466.826 -2.04804 -0.32712 0
M  V30 5005 C 467.251 -1.16721 -1.47506 0
M  V30 5006 O 466.609 -0.169107 -1.8051 0
M  V30 5007 C 466.657 -3.52268 -0.770689 0
M  V30 5008 O 465.761 -3.67236 -1.87647 0
M  V30 5009 H 465.102 -0.660789 -0.0652227 0
M  V30 5010 H 467.632 -2.00036 0.429739 0
M  V30 5011 H 467.642 -3.9393 -1.06223 0
M  V30 5012 H 466.317 -4.15843 0.069096 0
M  V30 5013 H 464.894 -3.37479 -1.58626 0
M  V30 5014 N 467.08 -0.0183926 -1.57589 0
M  V30 5015 C 468.329 0.66185 -1.90532 0
M  V30 5016 C 468.642 1.73904 -0.895366 0
M  V30 5017 O 469.848 2.47518 -1.11566 0
M  V30 5018 C 468.304 1.22844 -3.38286 0
M  V30 5019 C 467.912 0.185103 -4.47617 0
M  V30 5020 C 469.656 1.88581 -3.80312 0
M  V30 5021 C 467.563 0.762723 -5.86461 0
M  V30 5022 H 466.493 0.250972 -0.711006 0
M  V30 5023 H 469.144 -0.0819435 -1.83317 0
M  V30 5024 H 467.526 2.0235 -3.40398 0
M  V30 5025 H 468.7 -0.58671 -4.5705 0
M  V30 5026 H 467.015 -0.372889 -4.14727 0
M  V30 5027 H 469.612 2.32735 -4.81392 0
M  V30 5028 H 469.955 2.72408 -3.14801 0
M  V30 5029 H 470.488 1.15782 -3.80578 0
M  V30 5030 H 467.227 -0.0371713 -6.55489 0
M  V30 5031 H 466.747 1.50327 -5.80656 0
M  V30 5032 H 468.426 1.25576 -6.34697 0
M  V30 5033 N 468.558 1.5553 0.254621 0
M  V30 5034 C 469.786 1.81046 1.00149 0
M  V30 5035 C 470.201 0.593047 1.79244 0
M  V30 5036 O 469.558 -0.438196 1.77161 0
M  V30 5037 C 469.609 3.04684 1.94551 0
M  V30 5038 O 469.33 4.21725 1.18658 0
M  V30 5039 C 470.831 3.42943 2.80901 0
M  V30 5040 H 468.051 0.602653 0.295044 0
M  V30 5041 H 470.595 2.02576 0.279842 0
M  V30 5042 H 468.75 2.85226 2.62154 0
M  V30 5043 H 469.164 4.91746 1.82445 0
M  V30 5044 H 470.638 4.32576 3.42902 0
M  V30 5045 H 471.115 2.63176 3.51617 0
M  V30 5046 H 471.721 3.64724 2.18762 0
M  V30 5047 N 470.036 -0.519951 1.48776 0
M  V30 5048 C 471.284 -1.2727 1.56993 0
M  V30 5049 C 471.605 -1.9339 0.25004 0
M  V30 5050 O 470.875 -1.81822 -0.729216 0
M  V30 5051 H 469.455 -0.472732 0.578389 0
M  V30 5052 H 472.117 -0.604234 1.85297 0
M  V30 5053 H 471.213 -2.04669 2.3562 0
M  V30 5054 N 471.514 -1.37532 -0.769588 0
M  V30 5055 C 472.742 -1.36059 -1.55871 0
M  V30 5056 C 473.157 0.053544 -1.88724 0
M  V30 5057 O 472.514 1.01591 -1.5161 0
M  V30 5058 C 472.565 -2.20107 -2.86767 0
M  V30 5059 O 472.286 -3.56009 -2.55321 0
M  V30 5060 C 473.787 -2.26636 -3.80987 0
M  V30 5061 H 471.007 -0.465967 -0.482821 0
M  V30 5062 H 473.551 -1.80901 -0.953686 0
M  V30 5063 H 471.706 -1.78768 -3.43687 0
M  V30 5064 H 472.12 -4.0009 -3.39158 0
M  V30 5065 H 473.594 -2.89763 -4.69831 0
M  V30 5066 H 474.071 -1.2754 -4.20274 0
M  V30 5067 H 474.677 -2.68296 -3.29996 0
M  V30 5068 N 472.992 0.995999 -1.22138 0
M  V30 5069 C 474.222 1.76809 -1.06874 0
M  V30 5070 C 474.63 1.85265 0.383866 0
M  V30 5071 O 473.973 1.31969 1.27789 0
M  V30 5072 C 474.035 3.2186 -1.60144 0
M  V30 5073 C 473.699 3.36958 -3.0872 0
M  V30 5074 C 474.696 3.2452 -4.0618 0
M  V30 5075 C 472.381 3.62109 -3.48112 0
M  V30 5076 C 474.375 3.37013 -5.41019 0
M  V30 5077 C 472.062 3.74243 -4.831 0
M  V30 5078 C 473.06 3.61702 -5.79362 0
M  V30 5079 O 472.748 3.73436 -7.119 0
M  V30 5080 H 472.48 0.562207 -0.375365 0
M  V30 5081 H 475.034 1.26113 -1.62125 0
M  V30 5082 H 473.264 3.73734 -0.992981 0
M  V30 5083 H 474.953 3.80775 -1.40589 0
M  V30 5084 H 475.719 3.05004 -3.77091 0
M  V30 5085 H 471.598 3.70949 -2.73712 0
M  V30 5086 H 475.142 3.27141 -6.16137 0
M  V30 5087 H 471.039 3.93266 -5.11872 0
M  V30 5088 H 471.807 3.90328 -7.19435 0
M  V30 5089 N 474.47 1.03057 1.19235 0
M  V30 5090 C 475.747 0.642608 1.84743 0
M  V30 5091 C 476.127 -0.878577 1.91948 0
M  V30 5092 O 475.475 -1.77597 1.43776 0
M  V30 5093 C 475.685 1.30665 3.23616 0
M  V30 5094 C 477.033 1.43098 3.9976 0
M  V30 5095 O 478.057 1.26396 3.3302 0
M  V30 5096 O 476.916 1.70223 5.19313 0
M  V30 5097 H 474.01 0.223573 0.796206 0
M  V30 5098 H 476.556 1.12883 1.26711 0
M  V30 5099 H 475.328 2.34544 3.13217 0
M  V30 5100 H 474.951 0.808405 3.89295 0
M  V30 5101 N 475.948 -1.35272 0.808662 0
M  V30 5102 C 476.878 -2.32315 0.234981 0
M  V30 5103 C 477.859 -1.57572 -0.64071 0
M  V30 5104 O 479.044 -1.8563 -0.570551 0
M  V30 5105 C 476.174 -3.41801 -0.615601 0
M  V30 5106 C 475.128 -4.27694 0.161767 0
M  V30 5107 C 474.454 -5.28519 -0.810649 0
M  V30 5108 C 475.754 -5.04231 1.36193 0
M  V30 5109 H 477.448 -2.80543 1.04575 0
M  V30 5110 H 474.994 -1.3488 0.504315 0
M  V30 5111 H 476.947 -4.08693 -1.02702 0
M  V30 5112 H 475.671 -2.92186 -1.45928 0
M  V30 5113 H 474.33 -3.62384 0.554382 0
M  V30 5114 H 473.978 -4.75171 -1.64988 0
M  V30 5115 H 473.678 -5.8686 -0.294822 0
M  V30 5116 H 475.202 -5.98283 -1.22023 0
M  V30 5117 H 476.616 -5.64058 1.02528 0
M  V30 5118 H 475.013 -5.72077 1.81239 0
M  V30 5119 H 476.083 -4.34753 2.14751 0
M  V30 5120 N 477.426 -0.562348 -1.47226 0
M  V30 5121 C 478.373 0.182461 -2.30078 0
M  V30 5122 C 479.343 0.903503 -1.39377 0
M  V30 5123 O 480.528 0.898188 -1.68337 0
M  V30 5124 C 477.668 1.20322 -3.23445 0
M  V30 5125 C 476.781 0.487717 -4.29238 0
M  V30 5126 C 475.916 1.49422 -5.09752 0
M  V30 5127 C 474.955 0.763976 -6.07314 0
M  V30 5128 N 474.092 1.71755 -6.80768 0
M  V30 5129 H 478.932 -0.530169 -2.93246 0
M  V30 5130 H 476.469 -0.273276 -1.44539 0
M  V30 5131 H 478.427 1.80768 -3.76004 0
M  V30 5132 H 477.057 1.88382 -2.6213 0
M  V30 5133 H 476.109 -0.231374 -3.79696 0
M  V30 5134 H 477.421 -0.0841003 -4.98729 0
M  V30 5135 H 476.575 2.17206 -5.66486 0
M  V30 5136 H 475.314 2.09995 -4.40174 0
M  V30 5137 H 474.319 0.0722344 -5.49753 0
M  V30 5138 H 475.544 0.16391 -6.78902 0
M  V30 5139 H 473.49 2.31177 -6.13916 0
M  V30 5140 H 473.407 1.19802 -7.46447 0
M  V30 5141 H 474.675 2.38638 -7.42073 0
M  V30 5142 N 478.904 1.54736 -0.299062 0
M  V30 5143 C 480.129 2.04975 0.316254 0
M  V30 5144 C 480.554 1.17501 1.46885 0
M  V30 5145 O 479.912 0.178678 1.80417 0
M  V30 5146 C 479.96 3.52672 0.751997 0
M  V30 5147 O 479.064 3.68226 1.85697 0
M  V30 5148 H 478.405 0.661126 0.0617175 0
M  V30 5149 H 480.935 1.99805 -0.440341 0
M  V30 5150 H 480.945 3.94488 1.04133 0
M  V30 5151 H 479.62 4.158 -0.0911482 0
M  V30 5152 H 478.197 3.38316 1.56834 0
M  V30 5153 N 480.382 0.0267497 1.57577 0
M  V30 5154 C 481.628 -0.653371 1.91987 0
M  V30 5155 C 481.961 -1.71915 0.903263 0
M  V30 5156 O 481.236 -1.94358 -0.0743387 0
M  V30 5157 C 481.519 -1.272 3.36886 0
M  V30 5158 C 481.372 -0.215938 4.49281 0
M  V30 5159 C 482.691 -2.19069 3.81703 0
M  V30 5160 H 479.81 -0.236047 0.698177 0
M  V30 5161 H 482.452 0.0835236 1.89816 0
M  V30 5162 H 480.602 -1.90005 3.38866 0
M  V30 5163 H 482.274 0.41449 4.59434 0
M  V30 5164 H 480.517 0.458855 4.31366 0
M  V30 5165 H 481.188 -0.688347 5.47691 0
M  V30 5166 H 483.664 -1.66253 3.81444 0
M  V30 5167 H 482.54 -2.59307 4.83788 0
M  V30 5168 H 482.801 -3.08087 3.17072 0
M  V30 5169 N 481.861 -1.55662 -0.24637 0
M  V30 5170 C 482.791 -1.93377 -1.30873 0
M  V30 5171 C 483.772 -0.798773 -1.50179 0
M  V30 5172 O 484.957 -1.0591 -1.62778 0
M  V30 5173 C 482.087 -2.22893 -2.66338 0
M  V30 5174 C 481.041 -3.38649 -2.61727 0
M  V30 5175 C 480.367 -3.53708 -4.00992 0
M  V30 5176 C 481.667 -4.74323 -2.18666 0
M  V30 5177 H 483.361 -2.82363 -0.995552 0
M  V30 5178 H 480.907 -1.35854 -0.477464 0
M  V30 5179 H 482.86 -2.47866 -3.40794 0
M  V30 5180 H 481.584 -1.30733 -2.99293 0
M  V30 5181 H 480.243 -3.13685 -1.89729 0
M  V30 5182 H 479.891 -2.58967 -4.31214 0
M  V30 5183 H 479.591 -4.31551 -3.98795 0
M  V30 5184 H 481.115 -3.81003 -4.77147 0
M  V30 5185 H 482.529 -4.98665 -2.82854 0
M  V30 5186 H 480.926 -5.55273 -2.27579 0
M  V30 5187 H 481.996 -4.71349 -1.13834 0
M  V30 5188 N 483.339 0.512053 -1.4905 0
M  V30 5189 C 484.587 1.26436 -1.57665 0
M  V30 5190 C 484.908 1.93255 -0.260293 0
M  V30 5191 O 484.178 1.82206 0.719564 0
M  V30 5192 H 482.758 0.469658 -0.580888 0
M  V30 5193 H 485.42 0.594398 -1.85615 0
M  V30 5194 H 484.516 2.03417 -2.36702 0
M  V30 5195 N 484.817 1.37938 0.762283 0
M  V30 5196 C 485.749 1.30349 1.88525 0
M  V30 5197 C 486.762 0.217402 1.61342 0
M  V30 5198 O 487.951 0.474291 1.72084 0
M  V30 5199 C 485.051 0.994844 3.23969 0
M  V30 5200 C 484.224 2.18829 3.78725 0
M  V30 5201 C 483.283 1.84844 4.92665 0
M  V30 5202 O 482.309 2.57244 5.07754 0
M  V30 5203 N 483.511 0.798201 5.74986 0
M  V30 5204 H 486.276 2.27114 1.95549 0
M  V30 5205 H 483.837 1.31686 0.941825 0
M  V30 5206 H 485.829 0.748168 3.97724 0
M  V30 5207 H 484.399 0.115446 3.12387 0
M  V30 5208 H 483.619 2.59615 2.96637 0
M  V30 5209 H 484.907 2.98497 4.1204 0
M  V30 5210 H 484.305 0.197611 5.65355 0
M  V30 5211 H 482.862 0.611396 6.48926 0
M  V30 5212 N 486.295 -0.989507 1.22664 0
M  V30 5213 C 487.225 -2.09847 1.02404 0
M  V30 5214 C 488.206 -1.70007 -0.0561303 0
M  V30 5215 O 489.391 -1.93906 0.106748 0
M  V30 5216 C 486.521 -3.41996 0.604663 0
M  V30 5217 C 485.475 -3.95699 1.63115 0
M  V30 5218 C 484.801 -5.23936 1.0675 0
M  V30 5219 C 486.101 -4.25999 3.02196 0
M  V30 5220 H 487.795 -2.27054 1.95158 0
M  V30 5221 H 485.341 -1.09111 0.939727 0
M  V30 5222 H 487.294 -4.1899 0.45002 0
M  V30 5223 H 486.018 -3.24626 -0.35855 0
M  V30 5224 H 484.677 -3.2084 1.77362 0
M  V30 5225 H 484.325 -5.02909 0.0955422 0
M  V30 5226 H 484.025 -5.60833 1.75328 0
M  V30 5227 H 485.549 -6.0356 0.924516 0
M  V30 5228 H 486.963 -4.93777 2.91303 0
M  V30 5229 H 485.36 -4.74076 3.67929 0
M  V30 5230 H 486.43 -3.33636 3.51873 0
M  V30 5231 N 487.773 -1.03688 -1.18687 0
M  V30 5232 C 489.021 -0.736572 -1.88199 0
M  V30 5233 C 489.342 0.737665 -1.80509 0
M  V30 5234 O 488.612 1.53204 -1.22088 0
M  V30 5235 H 487.192 -0.269466 -0.696704 0
M  V30 5236 H 489.854 -1.31282 -1.44052 0
M  V30 5237 H 488.95 -1.03802 -2.94332 0
M  V30 5238 N 489.251 1.34841 -0.815825 0
M  V30 5239 C 490.5 1.97755 -0.396976 0
M  V30 5240 C 490.813 1.65422 1.04379 0
M  V30 5241 O 492.019 2.21771 1.5662 0
M  V30 5242 C 490.475 3.53818 -0.658869 0
M  V30 5243 C 490.083 3.95051 -2.11278 0
M  V30 5244 C 491.827 4.23397 -0.305834 0
M  V30 5245 C 489.734 5.43997 -2.31994 0
M  V30 5246 H 488.664 0.739985 -0.1447 0
M  V30 5247 H 491.315 1.53781 -1.00118 0
M  V30 5248 H 489.697 3.95997 0.0154112 0
M  V30 5249 H 490.871 3.63998 -2.82564 0
M  V30 5250 H 489.186 3.38388 -2.42657 0
M  V30 5251 H 491.783 5.32899 -0.43854 0
M  V30 5252 H 492.126 4.09508 0.748952 0
M  V30 5253 H 492.659 3.8667 -0.934403 0
M  V30 5254 H 489.398 5.62865 -3.35952 0
M  V30 5255 H 488.918 5.76589 -1.65244 0
M  V30 5256 H 490.597 6.10584 -2.14001 0
M  V30 5257 N 490.729 0.570148 1.46925 0
M  V30 5258 C 491.957 0.0561966 2.06824 0
M  V30 5259 C 492.372 -1.24326 1.42086 0
M  V30 5260 O 491.729 -1.74882 0.521794 0
M  V30 5261 C 491.78 -0.129517 3.61268 0
M  V30 5262 O 491.501 1.1185 4.23581 0
M  V30 5263 C 493.002 -0.679266 4.38065 0
M  V30 5264 H 490.222 0.0517261 0.669003 0
M  V30 5265 H 492.766 0.787243 1.8874 0
M  V30 5266 H 490.921 -0.810739 3.78822 0
M  V30 5267 H 491.335 0.924375 5.1629 0
M  V30 5268 H 492.809 -0.758445 5.46765 0
M  V30 5269 H 493.286 -1.69346 4.05239 0
M  V30 5270 H 493.892 -0.0333237 4.25287 0
M  V30 5271 N 492.207 -1.54576 0.307264 0
M  V30 5272 C 493.154 -2.23751 -0.56604 0
M  V30 5273 C 494.124 -1.22235 -1.12462 0
M  V30 5274 O 495.309 -1.50873 -1.16799 0
M  V30 5275 C 492.449 -2.98661 -1.72903 0
M  V30 5276 C 491.562 -4.14963 -1.20124 0
M  V30 5277 C 490.697 -4.77441 -2.3286 0
M  V30 5278 C 489.736 -5.85875 -1.77247 0
M  V30 5279 N 488.873 -6.42282 -2.8358 0
M  V30 5280 H 493.713 -2.97984 0.0304578 0
M  V30 5281 H 491.25 -1.47076 0.0268015 0
M  V30 5282 H 493.208 -3.40329 -2.41313 0
M  V30 5283 H 491.838 -2.26793 -2.29706 0
M  V30 5284 H 490.89 -3.78193 -0.409198 0
M  V30 5285 H 492.202 -4.93066 -0.754171 0
M  V30 5286 H 491.356 -5.21993 -3.09205 0
M  V30 5287 H 490.095 -3.98684 -2.80896 0
M  V30 5288 H 489.1 -5.40741 -0.993926 0
M  V30 5289 H 490.325 -6.6652 -1.30107 0
M  V30 5290 H 488.271 -5.66406 -3.30939 0
M  V30 5291 H 488.188 -7.1575 -2.43388 0
M  V30 5292 H 489.456 -6.91492 -3.59804 0
M  V30 5293 N 493.685 -0.035106 -1.57561 0
M  V30 5294 C 494.931 0.64318 -1.92331 0
M  V30 5295 C 495.264 1.71434 -0.912368 0
M  V30 5296 O 494.539 1.94395 0.0640303 0
M  V30 5297 C 494.822 1.25411 -3.37556 0
M  V30 5298 C 494.675 0.192109 -4.4939 0
M  V30 5299 C 495.994 2.17041 -3.82859 0
M  V30 5300 H 493.113 0.232341 -0.699419 0
M  V30 5301 H 495.755 -0.0935889 -1.89769 0
M  V30 5302 H 493.905 1.88205 -3.39869 0
M  V30 5303 H 495.577 -0.438849 -4.59208 0
M  V30 5304 H 493.82 -0.481725 -4.31117 0
M  V30 5305 H 494.491 0.659292 -5.48049 0
M  V30 5306 H 496.967 1.64228 -3.8232 0
M  V30 5307 H 495.843 2.56738 -4.85157 0
M  V30 5308 H 496.104 3.06401 -3.18702 0
M  V30 5309 N 495.163 1.55791 0.238111 0
M  V30 5310 C 496.41 1.78033 0.964907 0
M  V30 5311 C 496.738 0.600984 1.84982 0
M  V30 5312 O 495.993 -0.41536 1.91241 0
M  V30 5313 C 496.292 3.05869 1.84875 0
M  V30 5314 C 495.958 4.36808 1.11846 0
M  V30 5315 C 494.62 4.72388 0.916662 0
M  V30 5316 C 496.972 5.17717 0.60151 0
M  V30 5317 C 494.3 5.86406 0.185756 0
M  V30 5318 C 496.652 6.32494 -0.115972 0
M  V30 5319 C 495.316 6.66688 -0.329168 0
M  V30 5320 H 494.586 0.651469 0.353085 0
M  V30 5321 H 497.233 1.90061 0.234318 0
M  V30 5322 H 495.538 2.88891 2.64668 0
M  V30 5323 H 497.235 3.20278 2.41294 0
M  V30 5324 H 493.825 4.08862 1.28569 0
M  V30 5325 H 498.009 4.90678 0.744932 0
M  V30 5326 H 493.265 6.11399 0.0101886 0
M  V30 5327 H 497.439 6.94425 -0.524127 0
M  V30 5328 H 495.066 7.54884 -0.897474 0
M  V30 5329 N 496.642 -0.504142 1.49319 0
M  V30 5330 C 497.867 -1.28729 1.62615 0
M  V30 5331 C 498.292 -1.85752 0.296309 0
M  V30 5332 O 497.65 -1.65704 -0.735649 0
M  V30 5333 C 497.698 -2.39561 2.69524 0
M  V30 5334 O 496.802 -3.43324 2.28478 0
M  V30 5335 H 496.143 -0.380172 0.544395 0
M  V30 5336 H 498.673 -0.603872 1.95485 0
M  V30 5337 H 498.683 -2.8537 2.91595 0
M  V30 5338 H 497.358 -1.97423 3.66056 0
M  V30 5339 H 495.935 -3.03455 2.16725 0
M  V30 5340 N 498.12 -1.38341 -0.754957 0
M  V30 5341 C 499.068 -1.35573 -1.89005 0
M  V30 5342 C 500.062 -0.241824 -1.67665 0
M  V30 5343 O 501.268 -0.410785 -1.7525 0
M  V30 5344 H 497.643 -0.422898 -0.621821 0
M  V30 5345 H 499.614 -2.31359 -1.88455 0
M  V30 5346 C 498.363 -1.19631 -3.26471 0
M  V30 5347 H 497.686 -2.04605 -3.43477 0
M  V30 5348 H 499.126 -1.21748 -4.06144 0
M  V30 5349 C 497.585 0.0968705 -3.36761 0
M  V30 5350 O 498.115 1.07439 -3.87066 0
M  V30 5351 N 496.321 0.153242 -2.90196 0
M  V30 5352 H 495.868 -0.642908 -2.49448 0
M  V30 5353 H 495.826 1.01807 -2.9746 0
M  V30 5354 N 499.598 0.982988 -1.23187 0
M  V30 5355 C 500.846 1.72052 -1.06031 0
M  V30 5356 C 501.167 1.90769 0.404019 0
M  V30 5357 O 500.437 1.47446 1.28982 0
M  V30 5358 H 499.017 0.637499 -0.389363 0
M  V30 5359 H 501.679 1.18338 -1.54862 0
M  V30 5360 H 500.775 2.7111 -1.54615 0
M  V30 5361 N 501.076 1.04316 1.18135 0
M  V30 5362 C 502.039 0.640794 2.2006 0
M  V30 5363 C 503.039 -0.303124 1.57917 0
M  V30 5364 O 504.229 -0.0881855 1.73977 0
M  V30 5365 C 501.361 -0.060148 3.40847 0
M  V30 5366 H 502.554 1.54281 2.57172 0
M  V30 5367 H 500.107 0.836004 1.32063 0
M  V30 5368 H 500.842 -0.975845 3.0927 0
M  V30 5369 H 500.627 0.618319 3.87194 0
M  V30 5370 H 502.117 -0.328082 4.16309 0
M  V30 5371 N 502.554 -1.34406 0.822964 0
M  V30 5372 C 503.831 -1.92733 0.333641 0
M  V30 5373 C 504.211 -1.75107 -1.17901 0
M  V30 5374 O 503.559 -1.12983 -1.98613 0
M  V30 5375 C 503.769 -3.40557 0.763023 0
M  V30 5376 C 505.117 -4.17709 0.761879 0
M  V30 5377 O 506.141 -3.49141 0.705606 0
M  V30 5378 O 505 -5.40082 0.835109 0
M  V30 5379 H 502.094 -0.821964 0.0911249 0
M  V30 5380 H 504.64 -1.4338 0.907757 0
M  V30 5381 H 503.412 -3.47187 1.8049 0
M  V30 5382 H 503.035 -3.97259 0.164605 0
M  V30 5383 N 504.032 -0.577932 -1.46621 0
M  V30 5384 C 504.962 0.145917 -2.33044 0
M  V30 5385 C 505.943 0.888412 -1.45056 0
M  V30 5386 O 507.128 0.864812 -1.73881 0
M  V30 5387 C 504.258 1.16322 -3.27241 0
M  V30 5388 C 503.212 0.535868 -4.24632 0
M  V30 5389 C 502.538 1.65929 -5.08303 0
M  V30 5390 C 503.838 -0.523861 -5.19666 0
M  V30 5391 H 505.532 -0.575636 -2.93814 0
M  V30 5392 H 503.078 -0.278272 -1.41286 0
M  V30 5393 H 505.031 1.67793 -3.86553 0
M  V30 5394 H 503.755 1.91498 -2.64567 0
M  V30 5395 H 502.414 0.0422759 -3.66576 0
M  V30 5396 H 502.062 2.40061 -4.42018 0
M  V30 5397 H 501.762 1.2452 -5.74255 0
M  V30 5398 H 503.286 2.17686 -5.70478 0
M  V30 5399 H 504.7 -0.0944059 -5.73222 0
M  V30 5400 H 503.097 -0.858 -5.93935 0
M  V30 5401 H 504.167 -1.41197 -4.63887 0
M  V30 5402 N 505.51 1.54411 -0.315457 0
M  V30 5403 C 506.735 2.05299 0.294496 0
M  V30 5404 C 507.16 1.19052 1.4563 0
M  V30 5405 O 506.518 0.197804 1.80218 0
M  V30 5406 C 506.566 3.5345 0.714549 0
M  V30 5407 O 505.67 3.70175 1.81781 0
M  V30 5408 H 505.011 0.661743 0.0547019 0
M  V30 5409 H 507.541 1.99327 -0.461508 0
M  V30 5410 H 507.551 3.9557 0.999426 0
M  V30 5411 H 506.226 4.1568 -0.135244 0
M  V30 5412 H 504.803 3.3996 1.53236 0
M  V30 5413 N 506.988 0.0434614 1.5754 0
M  V30 5414 C 508.236 -0.630786 1.92004 0
M  V30 5415 C 508.557 -1.71836 0.921807 0
M  V30 5416 O 507.827 -1.9587 -0.034522 0
M  V30 5417 H 506.407 -0.235988 0.708745 0
M  V30 5418 H 509.069 0.0946462 1.9467 0
M  V30 5419 H 508.165 -1.07434 2.93026 0
M  V30 5420 N 508.466 -1.55915 -0.229846 0
M  V30 5421 C 509.712 -1.78807 -0.956868 0
M  V30 5422 C 510.045 -0.611687 -1.84315 0
M  V30 5423 O 509.32 0.389398 -1.90562 0
M  V30 5424 C 509.603 -3.11718 -1.80288 0
M  V30 5425 C 509.456 -4.3979 -0.943649 0
M  V30 5426 C 510.775 -3.40999 -2.78222 0
M  V30 5427 H 507.894 -0.6505 -0.346437 0
M  V30 5428 H 510.536 -1.88648 -0.226252 0
M  V30 5429 H 508.686 -3.03459 -2.42579 0
M  V30 5430 H 510.358 -4.60059 -0.338121 0
M  V30 5431 H 508.601 -4.33086 -0.248705 0
M  V30 5432 H 509.272 -5.29208 -1.5698 0
M  V30 5433 H 511.748 -3.49332 -2.26067 0
M  V30 5434 H 510.624 -4.35183 -3.34526 0
M  V30 5435 H 510.885 -2.62754 -3.55546 0
M  V30 5436 N 509.944 0.496216 -1.49584 0
M  V30 5437 C 511.172 1.27394 -1.63029 0
M  V30 5438 C 511.587 1.86344 -0.303569 0
M  V30 5439 O 510.944 1.68057 0.711547 0
M  V30 5440 C 510.995 2.40077 -2.70269 0
M  V30 5441 O 510.716 1.83549 -3.97796 0
M  V30 5442 C 512.217 3.31372 -2.94462 0
M  V30 5443 H 509.437 0.386211 -0.54871 0
M  V30 5444 H 511.981 0.595163 -1.95648 0
M  V30 5445 H 510.136 3.03775 -2.40415 0
M  V30 5446 H 510.55 2.57561 -4.56905 0
M  V30 5447 H 512.024 4.06707 -3.73221 0
M  V30 5448 H 512.501 3.88654 -2.0456 0
M  V30 5449 H 513.107 2.73435 -3.25751 0
M  V30 5450 N 511.423 1.38739 0.74761 0
M  V30 5451 C 512.333 1.38696 1.89211 0
M  V30 5452 C 513.349 0.283303 1.71678 0
M  V30 5453 O 514.525 0.522713 1.94498 0
M  V30 5454 C 511.59 1.21662 3.24653 0
M  V30 5455 C 510.651 2.41886 3.54669 0
M  V30 5456 C 509.884 2.25655 4.83648 0
M  V30 5457 O 510.107 1.25339 5.56459 0
M  V30 5458 O 509.041 3.14372 5.13277 0
M  V30 5459 H 512.867 2.35143 1.92202 0
M  V30 5460 H 510.452 1.19721 0.893708 0
M  V30 5461 H 512.334 1.14246 4.05618 0
M  V30 5462 H 511.009 0.283024 3.2246 0
M  V30 5463 H 509.916 2.54877 2.73841 0
M  V30 5464 H 511.249 3.33895 3.61628 0
M  V30 5465 N 512.901 -0.976442 1.23707 0
M  V30 5466 C 513.811 -2.10359 1.03856 0
M  V30 5467 C 514.827 -1.73991 -0.0180919 0
M  V30 5468 O 516.003 -2.0061 0.178211 0
M  V30 5469 C 513.068 -3.40809 0.636387 0
M  V30 5470 C 512.129 -3.91179 1.76854 0
M  V30 5471 C 511.362 -5.15404 1.38546 0
M  V30 5472 O 511.585 -5.69754 0.27142 0
M  V30 5473 O 510.519 -5.5994 2.20797 0
M  V30 5474 H 514.345 -2.29997 1.98331 0
M  V30 5475 H 511.93 -1.08742 1.02448 0
M  V30 5476 H 513.812 -4.19269 0.423223 0
M  V30 5477 H 512.487 -3.22493 -0.279322 0
M  V30 5478 H 511.394 -3.13819 2.03638 0
M  V30 5479 H 512.727 -4.13958 2.6627 0
M  V30 5480 N 514.379 -1.04941 -1.1758 0
M  V30 5481 C 515.342 -0.652456 -2.19717 0
M  V30 5482 C 516.342 0.294745 -1.58076 0
M  V30 5483 O 517.532 0.0789579 -1.74021 0
M  V30 5484 C 514.664 0.0420712 -3.40874 0
M  V30 5485 H 515.857 -1.55642 -2.5635 0
M  V30 5486 H 513.41 -0.842995 -1.31618 0
M  V30 5487 H 514.145 0.95943 -3.09783 0
M  V30 5488 H 513.93 -0.638844 -3.86861 0
M  V30 5489 H 515.42 0.306 -4.16477 0
M  V30 5490 N 515.857 1.33968 -0.830081 0
M  V30 5491 C 517.268 1.80439 -0.479455 0
M  V30 5492 C 517.619 1.68756 1.00079 0
M  V30 5493 O 516.744 1.23171 1.77927 0
M  V30 5494 C 517.339 3.27611 -0.863505 0
M  V30 5495 C 515.898 3.72133 -0.565145 0
M  V30 5496 C 515.045 2.55549 -1.07657 0
M  V30 5497 H 517.996 1.21614 -1.0196 0
M  V30 5498 H 518.017 3.8012 -0.170083 0
M  V30 5499 H 517.529 3.36082 -1.94089 0
M  V30 5500 H 515.63 3.69196 0.502536 0
M  V30 5501 H 515.743 4.65963 -1.11422 0
M  V30 5502 H 514.107 2.49788 -0.497807 0
M  V30 5503 H 514.89 2.66786 -2.16055 0
M  V30 5504 N 517.335 0.585699 1.46312 0
M  V30 5505 C 518.265 -0.133556 2.33118 0
M  V30 5506 C 519.246 -0.880707 1.45525 0
M  V30 5507 O 520.431 -0.855579 1.74337 0
M  V30 5508 C 517.561 -1.14585 3.27853 0
M  V30 5509 C 516.515 -0.513341 4.2491 0
M  V30 5510 C 515.841 -1.63231 5.09175 0
M  V30 5511 C 517.141 0.551413 5.19381 0
M  V30 5512 H 518.835 0.59121 2.93505 0
M  V30 5513 H 516.381 0.285761 1.41136 0
M  V30 5514 H 518.334 -1.65741 3.87438 0
M  V30 5515 H 517.058 -1.90093 2.65579 0
M  V30 5516 H 515.717 -0.0228349 3.66593 0
M  V30 5517 H 515.365 -2.37713 4.43285 0
M  V30 5518 H 515.065 -1.21473 5.74907 0
M  V30 5519 H 516.589 -2.14658 5.71624 0
M  V30 5520 H 518.003 0.124804 5.73164 0
M  V30 5521 H 516.4 0.889486 5.93471 0
M  V30 5522 H 517.47 1.43655 4.63132 0
M  V30 5523 N 518.813 -1.54241 0.323641 0
M  V30 5524 C 519.76 -2.24339 -0.542277 0
M  V30 5525 C 520.73 -1.23421 -1.11159 0
M  V30 5526 O 521.915 -1.52104 -1.15192 0
M  V30 5527 C 519.055 -3.00479 -1.69725 0
M  V30 5528 C 518.168 -4.16214 -1.15716 0
M  V30 5529 C 517.303 -4.79884 -2.27783 0
M  V30 5530 C 516.342 -5.87722 -1.71023 0
M  V30 5531 N 515.479 -6.45254 -2.76752 0
M  V30 5532 H 520.319 -2.97935 0.0620613 0
M  V30 5533 H 517.856 -1.47039 0.0423993 0
M  V30 5534 H 519.814 -3.42869 -2.3769 0
M  V30 5535 H 518.444 -2.29217 -2.27288 0
M  V30 5536 H 517.496 -3.78605 -0.369063 0
M  V30 5537 H 518.808 -4.93838 -0.701832 0
M  V30 5538 H 517.962 -5.25243 -3.03651 0
M  V30 5539 H 516.701 -4.01641 -2.76652 0
M  V30 5540 H 515.706 -5.41765 -0.936518 0
M  V30 5541 H 516.931 -6.67863 -1.2303 0
M  V30 5542 H 514.877 -5.69884 -3.24912 0
M  V30 5543 H 514.794 -7.18292 -2.35782 0
M  V30 5544 H 516.062 -6.95269 -3.5245 0
M  V30 5545 N 520.291 -0.0518155 -1.57515 0
M  V30 5546 C 521.221 0.920283 -2.146 0
M  V30 5547 C 522.202 1.32406 -1.06783 0
M  V30 5548 O 523.387 1.39866 -1.34726 0
M  V30 5549 C 520.517 2.1949 -2.6915 0
M  V30 5550 C 519.471 1.93116 -3.81956 0
M  V30 5551 C 518.797 3.27037 -4.23026 0
M  V30 5552 C 520.097 1.25225 -5.07066 0
M  V30 5553 H 521.791 0.444801 -2.96077 0
M  V30 5554 H 519.337 0.212508 -1.42423 0
M  V30 5555 H 521.29 2.87894 -3.07725 0
M  V30 5556 H 520.014 2.69244 -1.84865 0
M  V30 5557 H 518.673 1.27123 -3.43854 0
M  V30 5558 H 518.321 3.74595 -3.3569 0
M  V30 5559 H 518.021 3.10189 -4.99056 0
M  V30 5560 H 519.545 3.96673 -4.64202 0
M  V30 5561 H 520.959 1.83666 -5.43083 0
M  V30 5562 H 519.356 1.18702 -5.88243 0
M  V30 5563 H 520.426 0.228382 -4.84362 0
M  V30 5564 N 521.769 1.56035 0.221574 0
M  V30 5565 C 522.994 1.83476 0.967026 0
M  V30 5566 C 523.419 0.632139 1.7716 0
M  V30 5567 O 522.777 -0.419082 1.7639 0
M  V30 5568 C 522.825 3.08907 1.86034 0
M  V30 5569 O 521.929 2.876 2.95567 0
M  V30 5570 H 521.27 0.604913 0.273817 0
M  V30 5571 H 523.8 2.03247 0.234893 0
M  V30 5572 H 523.81 3.3901 2.27016 0
M  V30 5573 H 522.485 3.96068 1.26898 0
M  V30 5574 H 521.062 2.6873 2.58532 0
M  V30 5575 N 523.247 -0.488276 1.49845 0
M  V30 5576 C 524.194 -1.58836 1.67451 0
M  V30 5577 C 525.164 -1.57886 0.515857 0
M  V30 5578 O 526.349 -1.75679 0.744403 0
M  V30 5579 C 523.489 -2.96915 1.75885 0
M  V30 5580 C 522.602 -3.07784 3.03138 0
M  V30 5581 C 521.737 -4.36673 3.02473 0
M  V30 5582 C 520.776 -4.41222 4.24252 0
M  V30 5583 N 519.913 -5.61557 4.21424 0
M  V30 5584 H 524.753 -1.43131 2.61376 0
M  V30 5585 H 522.29 -0.696186 1.29583 0
M  V30 5586 H 524.248 -3.76965 1.78755 0
M  V30 5587 H 522.878 -3.11295 0.85414 0
M  V30 5588 H 521.93 -2.20717 3.09819 0
M  V30 5589 H 523.242 -3.07005 3.93128 0
M  V30 5590 H 522.396 -5.25055 3.03977 0
M  V30 5591 H 521.135 -4.40037 2.10283 0
M  V30 5592 H 520.14 -3.5124 4.22978 0
M  V30 5593 H 521.365 -4.39564 5.17649 0
M  V30 5594 H 519.311 -5.65738 3.32078 0
M  V30 5595 H 519.228 -5.62447 5.05163 0
M  V30 5596 H 520.496 -6.52111 4.2705 0
M  V30 5597 N 524.725 -1.39134 -0.740242 0
M  V30 5598 C 525.688 -1.37217 -1.83587 0
M  V30 5599 C 526.688 -0.270221 -1.58513 0
M  V30 5600 O 527.878 -0.527843 -1.6601 0
M  V30 5601 C 525.01 -1.13959 -3.21288 0
M  V30 5602 H 526.203 -2.34705 -1.86691 0
M  V30 5603 H 523.756 -1.24622 -0.94335 0
M  V30 5604 H 524.491 -0.17131 -3.23847 0
M  V30 5605 H 524.276 -1.93754 -3.40884 0
M  V30 5606 H 525.766 -1.15346 -4.01354 0
M  V30 5607 N 526.204 0.969867 -1.24223 0
M  V30 5608 C 527.45 1.7151 -1.08223 0
M  V30 5609 C 527.783 1.90478 0.37838 0
M  V30 5610 O 527.058 1.4647 1.27971 0
M  V30 5611 C 527.341 3.10714 -1.82013 0
M  V30 5612 C 527.194 2.9925 -3.35811 0
M  V30 5613 C 528.513 4.10332 -1.59108 0
M  V30 5614 H 525.632 0.622499 -0.394543 0
M  V30 5615 H 528.274 1.1284 -1.52863 0
M  V30 5616 H 526.424 3.608 -1.44068 0
M  V30 5617 H 528.096 2.56608 -3.83341 0
M  V30 5618 H 526.339 2.35512 -3.64303 0
M  V30 5619 H 527.01 3.97857 -3.82641 0
M  V30 5620 H 529.486 3.69097 -1.92111 0
M  V30 5621 H 528.362 5.05804 -2.13198 0
M  V30 5622 H 528.623 4.38926 -0.528832 0
M  V30 5623 N 527.682 1.05563 1.17022 0
M  V30 5624 C 528.632 0.630007 2.19123 0
M  V30 5625 C 529.616 -0.335472 1.57364 0
M  V30 5626 O 530.808 -0.1521 1.76345 0
M  V30 5627 C 527.937 0.0101676 3.43298 0
M  V30 5628 C 527.023 0.999698 4.12149 0
M  V30 5629 N 527.414 2.17251 4.56766 0
M  V30 5630 C 525.712 0.829 4.38228 0
M  V30 5631 C 526.413 2.79883 5.09942 0
M  V30 5632 N 525.389 2.07656 5.02374 0
M  V30 5633 H 529.191 1.52353 2.51328 0
M  V30 5634 H 526.705 0.926288 1.33393 0
M  V30 5635 H 528.702 -0.312541 4.15727 0
M  V30 5636 H 527.362 -0.878707 3.12584 0
M  V30 5637 H 528.373 2.55067 4.50734 0
M  V30 5638 H 525.05 -0.00850974 4.17499 0
M  V30 5639 H 526.44 3.79362 5.54558 0
M  V30 5640 N 529.16 -1.33526 0.837174 0
M  V30 5641 C 530.107 -2.29248 0.267169 0
M  V30 5642 C 531.077 -1.54252 -0.616071 0
M  V30 5643 O 532.262 -1.82559 -0.554699 0
M  V30 5644 C 529.402 -3.40638 -0.553152 0
M  V30 5645 C 528.515 -4.30548 0.353921 0
M  V30 5646 C 527.65 -5.29051 -0.477339 0
M  V30 5647 C 526.689 -6.106 0.42823 0
M  V30 5648 N 525.826 -7.01152 -0.364801 0
M  V30 5649 H 530.666 -2.77398 1.08877 0
M  V30 5650 H 528.203 -1.36496 0.54838 0
M  V30 5651 H 530.161 -4.03921 -1.04422 0
M  V30 5652 H 528.791 -2.93685 -1.33973 0
M  V30 5653 H 527.843 -3.68001 0.963289 0
M  V30 5654 H 529.155 -4.87631 1.04964 0
M  V30 5655 H 528.309 -5.97853 -1.0323 0
M  V30 5656 H 527.048 -4.72541 -1.2065 0
M  V30 5657 H 526.053 -5.40718 0.995219 0
M  V30 5658 H 527.278 -6.69193 1.15573 0
M  V30 5659 H 525.224 -6.47092 -1.07738 0
M  V30 5660 H 525.141 -7.5551 0.272238 0
M  V30 5661 H 526.409 -7.74263 -0.902054 0
M  V30 5662 N 530.638 -0.59345 -1.46 0
M  V30 5663 C 531.601 0.123538 -2.28867 0
M  V30 5664 C 532.601 0.808628 -1.38989 0
M  V30 5665 O 533.791 0.658945 -1.61256 0
M  V30 5666 C 530.923 1.1847 -3.19653 0
M  V30 5667 H 532.116 -0.604843 -2.93737 0
M  V30 5668 H 529.669 -0.351875 -1.52288 0
M  V30 5669 H 530.404 1.94431 -2.59552 0
M  V30 5670 H 530.189 0.69783 -3.8584 0
M  V30 5671 H 531.679 1.68726 -3.81997 0
M  V30 5672 N 532.116 1.54067 -0.331816 0
M  V30 5673 C 533.362 2.01012 0.268667 0
M  V30 5674 C 533.695 1.2195 1.51136 0
M  V30 5675 O 532.97 0.303972 1.9211 0
M  V30 5676 C 533.253 3.55158 0.59456 0
M  V30 5677 C 533.106 4.4494 -0.659409 0
M  V30 5678 C 534.425 4.16939 1.4089 0
M  V30 5679 H 531.544 0.730698 0.0961756 0
M  V30 5680 H 534.186 1.84593 -0.450031 0
M  V30 5681 H 532.336 3.6928 1.20685 0
M  V30 5682 H 534.008 4.42675 -1.29756 0
M  V30 5683 H 532.251 4.1428 -1.28665 0
M  V30 5684 H 532.922 5.50643 -0.386804 0
M  V30 5685 H 535.398 4.06443 0.891272 0
M  V30 5686 H 534.274 5.24889 1.60569 0
M  V30 5687 H 534.535 3.70798 2.40752 0
M  V30 5688 N 533.594 0.0601682 1.57485 0
M  V30 5689 C 534.524 -0.90889 2.15085 0
M  V30 5690 C 535.505 -1.31838 1.07484 0
M  V30 5691 O 536.69 -1.3915 1.35466 0
M  V30 5692 C 533.82 -2.18059 2.7031 0
M  V30 5693 C 532.774 -1.91088 3.82974 0
M  V30 5694 C 532.1 -3.24789 4.24754 0
M  V30 5695 C 533.4 -1.22535 5.07723 0
M  V30 5696 H 535.094 -0.429093 2.96309 0
M  V30 5697 H 532.64 -0.204952 1.42534 0
M  V30 5698 H 534.593 -2.86258 3.09248 0
M  V30 5699 H 533.317 -2.6826 1.8629 0
M  V30 5700 H 531.976 -1.25297 3.44523 0
M  V30 5701 H 531.624 -3.72809 3.37672 0
M  V30 5702 H 531.324 -3.07538 5.00694 0
M  V30 5703 H 532.848 -3.94205 4.66299 0
M  V30 5704 H 534.262 -1.80783 5.4405 0
M  V30 5705 H 532.659 -1.1558 5.88864 0
M  V30 5706 H 533.729 -0.202692 4.84476 0
M  V30 5707 N 535.072 -1.5615 -0.213296 0
M  V30 5708 C 536.3 -1.83638 -0.953139 0
M  V30 5709 C 536.715 -0.640362 -1.77609 0
M  V30 5710 O 536.072 0.391071 -1.78261 0
M  V30 5711 C 536.123 -3.09735 -1.86405 0
M  V30 5712 O 535.844 -4.24723 -1.07435 0
M  V30 5713 C 537.345 -3.5027 -2.71709 0
M  V30 5714 H 534.565 -0.610263 -0.278962 0
M  V30 5715 H 537.109 -2.03247 -0.226035 0
M  V30 5716 H 535.264 -2.92077 -2.545 0
M  V30 5717 H 535.678 -4.9641 -1.69343 0
M  V30 5718 H 537.152 -4.41515 -3.31313 0
M  V30 5719 H 537.629 -2.72406 -3.44516 0
M  V30 5720 H 538.235 -3.70396 -2.09015 0
M  V30 5721 N 536.55 0.480323 -1.50102 0
M  V30 5722 C 537.799 1.22979 -1.59872 0
M  V30 5723 C 538.112 1.93282 -0.30022 0
M  V30 5724 O 539.318 2.70086 -0.276709 0
M  V30 5725 C 537.774 2.23408 -2.82164 0
M  V30 5726 C 537.382 1.5895 -4.18854 0
M  V30 5727 C 539.126 2.99055 -3.01275 0
M  V30 5728 C 537.033 2.57611 -5.32344 0
M  V30 5729 H 535.963 0.462707 -0.59533 0
M  V30 5730 H 538.614 0.501291 -1.7652 0
M  V30 5731 H 536.996 2.99511 -2.59055 0
M  V30 5732 H 538.17 0.887 -4.52182 0
M  V30 5733 H 536.485 0.956191 -4.05273 0
M  V30 5734 H 539.082 3.72876 -3.83233 0
M  V30 5735 H 539.425 3.57897 -2.12639 0
M  V30 5736 H 539.958 2.30066 -3.24522 0
M  V30 5737 H 536.697 2.03521 -6.23105 0
M  V30 5738 H 536.217 3.26041 -5.03445 0
M  V30 5739 H 537.896 3.19627 -5.62537 0
M  V30 5740 N 538.028 1.39524 0.732853 0
M  V30 5741 C 539.305 1.27373 1.48444 0
M  V30 5742 C 539.685 -0.115725 2.10783 0
M  V30 5743 O 539.033 -1.12713 1.98766 0
M  V30 5744 C 539.243 2.39966 2.53412 0
M  V30 5745 C 540.591 2.79384 3.19733 0
M  V30 5746 O 541.615 2.39431 2.63725 0
M  V30 5747 O 540.474 3.48353 4.21085 0
M  V30 5748 H 537.568 0.499272 0.659285 0
M  V30 5749 H 540.114 1.51403 0.766496 0
M  V30 5750 H 538.886 3.32845 2.05742 0
M  V30 5751 H 538.509 2.17612 3.32762 0
M  V30 5752 N 539.506 -0.963266 1.24736 0
M  V30 5753 C 540.416 -2.09246 1.06082 0
M  V30 5754 C 541.432 -1.74 0.000363101 0
M  V30 5755 O 542.608 -2.0041 0.199479 0
M  V30 5756 C 539.673 -3.40115 0.672498 0
M  V30 5757 C 538.734 -3.89282 1.80993 0
M  V30 5758 C 537.967 -5.13905 1.44004 0
M  V30 5759 O 538.19 -5.69434 0.331835 0
M  V30 5760 O 537.124 -5.57566 2.26723 0
M  V30 5761 H 540.95 -2.27881 2.00759 0
M  V30 5762 H 538.535 -1.07649 1.03595 0
M  V30 5763 H 540.417 -4.18797 0.467668 0
M  V30 5764 H 539.092 -3.22771 -0.245102 0
M  V30 5765 H 537.999 -3.11642 2.06955 0
M  V30 5766 H 539.332 -4.1111 2.70646 0
M  V30 5767 N 540.985 -1.06182 -1.16461 0
M  V30 5768 C 541.932 -0.671613 -2.20812 0
M  V30 5769 C 542.902 0.331186 -1.62765 0
M  V30 5770 O 544.087 0.22033 -1.89524 0
M  V30 5771 C 541.227 -0.063029 -3.45042 0
M  V30 5772 C 540.34 -1.11587 -4.1734 0
M  V30 5773 C 539.475 -0.473546 -5.29085 0
M  V30 5774 C 538.514 -1.51 -5.93182 0
M  V30 5775 N 537.651 -0.891118 -6.96422 0
M  V30 5776 H 542.491 -1.56589 -2.53542 0
M  V30 5777 H 540.028 -0.782951 -1.24532 0
M  V30 5778 H 541.986 0.307344 -4.16066 0
M  V30 5779 H 540.616 0.794663 -3.12866 0
M  V30 5780 H 539.668 -1.60396 -3.44931 0
M  V30 5781 H 540.98 -1.90221 -4.61104 0
M  V30 5782 H 540.134 -0.0501432 -6.06679 0
M  V30 5783 H 538.873 0.344687 -4.8648 0
M  V30 5784 H 537.878 -1.94331 -5.14311 0
M  V30 5785 H 539.103 -2.33031 -6.37866 0
M  V30 5786 H 537.049 -0.0935753 -6.55933 0
M  V30 5787 H 536.966 -1.61486 -7.38551 0
M  V30 5788 H 538.234 -0.492822 -7.77941 0
M  V30 5789 N 542.463 1.3308 -0.844243 0
M  V30 5790 C 543.711 1.97215 -0.441676 0
M  V30 5791 C 544.032 1.67185 1.0037 0
M  V30 5792 O 543.302 0.973588 1.69994 0
M  V30 5793 H 541.882 0.72959 -0.160335 0
M  V30 5794 H 544.544 1.62348 -1.07838 0
M  V30 5795 H 543.64 3.06698 -0.57815 0
M  V30 5796 N 543.941 0.601185 1.45683 0
M  V30 5797 C 545.169 0.100054 2.06658 0
M  V30 5798 C 545.584 -1.21285 1.44691 0
M  V30 5799 O 544.941 -1.73735 0.558772 0
M  V30 5800 C 544.992 -0.0528579 3.61461 0
M  V30 5801 O 544.713 1.20809 4.21114 0
M  V30 5802 C 546.214 -0.586193 4.39407 0
M  V30 5803 H 543.434 0.065905 0.667756 0
M  V30 5804 H 545.978 0.827101 1.87028 0
M  V30 5805 H 544.133 -0.730203 3.80456 0
M  V30 5806 H 544.547 1.03368 5.14213 0
M  V30 5807 H 546.021 -0.642297 5.4825 0
M  V30 5808 H 546.498 -1.60713 4.0874 0
M  V30 5809 H 547.104 0.0568935 4.25262 0
M  V30 5810 N 545.419 -1.53889 0.339982 0
M  V30 5811 C 546.329 -2.28604 -0.526988 0
M  V30 5812 C 547.345 -1.33578 -1.11503 0
M  V30 5813 O 548.521 -1.66612 -1.13148 0
M  V30 5814 C 545.586 -3.04164 -1.66389 0
M  V30 5815 C 544.647 -4.14809 -1.10599 0
M  V30 5816 C 543.88 -4.86756 -2.18871 0
M  V30 5817 O 544.103 -4.58343 -3.39526 0
M  V30 5818 O 543.037 -5.73289 -1.83366 0
M  V30 5819 H 546.863 -3.03594 0.0802707 0
M  V30 5820 H 544.448 -1.4903 0.105141 0
M  V30 5821 H 546.33 -3.51427 -2.32544 0
M  V30 5822 H 545.005 -2.32035 -2.25703 0
M  V30 5823 H 543.912 -3.71857 -0.409067 0
M  V30 5824 H 545.245 -4.89029 -0.557771 0
M  V30 5825 N 546.897 -0.0685191 -1.57451 0
M  V30 5826 C 547.86 0.885173 -2.11417 0
M  V30 5827 C 548.86 1.22853 -1.03748 0
M  V30 5828 O 550.05 1.16235 -1.2975 0
M  V30 5829 C 547.182 2.18964 -2.61281 0
M  V30 5830 H 548.375 0.417034 -2.96986 0
M  V30 5831 H 545.928 0.18014 -1.55258 0
M  V30 5832 H 546.663 2.70321 -1.79156 0
M  V30 5833 H 546.448 1.9534 -3.39977 0
M  V30 5834 H 547.938 2.87242 -3.0312 0
M  V30 5835 N 548.375 1.56261 0.205012 0
M  V30 5836 C 549.338 1.92908 1.23771 0
M  V30 5837 C 550.338 0.809208 1.38955 0
M  V30 5838 O 551.528 1.07676 1.36936 0
M  V30 5839 C 548.66 2.19442 2.60879 0
M  V30 5840 H 549.853 2.85287 0.924728 0
M  V30 5841 H 547.406 1.49798 0.446125 0
M  V30 5842 H 548.141 1.29668 2.97248 0
M  V30 5843 H 547.926 3.0104 2.51232 0
M  V30 5844 H 549.416 2.48833 3.35368 0
M  V30 5845 N 549.853 -0.472356 1.50355 0
M  V30 5846 C 551.101 -1.22211 1.60962 0
M  V30 5847 C 551.422 -1.92497 0.311439 0
M  V30 5848 O 550.692 -1.8405 -0.671002 0
M  V30 5849 H 549.272 -0.454092 0.593135 0
M  V30 5850 H 551.934 -0.544977 1.87126 0
M  V30 5851 H 551.03 -1.9707 2.42012 0
M  V30 5852 N 551.331 -1.39911 -0.725443 0
M  V30 5853 C 552.294 -1.39156 -1.82121 0
M  V30 5854 C 553.294 -0.287018 -1.58218 0
M  V30 5855 O 554.484 -0.545421 -1.65441 0
M  V30 5856 C 551.616 -1.1736 -3.20062 0
M  V30 5857 H 552.809 -2.36672 -1.84191 0
M  V30 5858 H 550.362 -1.25615 -0.930079 0
M  V30 5859 H 551.097 -0.205648 -3.23647 0
M  V30 5860 H 550.882 -1.97358 -3.3881 0
M  V30 5861 H 552.372 -1.19596 -4.00108 0
M  V30 5862 N 552.809 0.956637 -1.25245 0
M  V30 5863 C 553.742 2.05232 -0.99775 0
M  V30 5864 C 554.72 1.62439 0.0723137 0
M  V30 5865 O 555.904 1.88381 -0.066926 0
M  V30 5866 C 553.031 3.34871 -0.507861 0
M  V30 5867 C 552.077 3.96625 -1.56815 0
M  V30 5868 S 552.91 4.32853 -3.15276 0
M  V30 5869 C 554.066 5.65613 -2.68017 0
M  V30 5870 H 554.299 2.26521 -1.9255 0
M  V30 5871 H 551.832 1.09601 -1.08752 0
M  V30 5872 H 553.79 4.09845 -0.231858 0
M  V30 5873 H 552.451 3.11551 0.399356 0
M  V30 5874 H 551.644 4.90087 -1.17604 0
M  V30 5875 H 551.246 3.28124 -1.79473 0
M  V30 5876 H 553.538 6.43635 -2.11518 0
M  V30 5877 H 554.481 6.09693 -3.60112 0
M  V30 5878 H 554.889 5.24751 -2.0808 0
M  V30 5879 N 554.287 1.06798 1.15896 0
M  V30 5880 C 555.534 0.787767 1.86549 0
M  V30 5881 C 555.862 -0.685959 1.82002 0
M  V30 5882 O 555.117 -1.5188 1.23414 0
M  V30 5883 C 555.416 1.23414 3.35416 0
M  V30 5884 C 555.082 2.71285 3.6016 0
M  V30 5885 C 553.744 3.11676 3.66622 0
M  V30 5886 C 556.096 3.6676 3.7032 0
M  V30 5887 C 553.424 4.4637 3.8075 0
M  V30 5888 C 555.776 5.01209 3.8597 0
M  V30 5889 C 554.44 5.41229 3.90676 0
M  V30 5890 H 553.71 0.288264 0.682631 0
M  V30 5891 H 556.357 1.338 1.37003 0
M  V30 5892 H 554.662 0.60319 3.87129 0
M  V30 5893 H 556.359 0.994298 3.88477 0
M  V30 5894 H 552.949 2.39015 3.55767 0
M  V30 5895 H 557.133 3.36685 3.64633 0
M  V30 5896 H 552.389 4.76855 3.82648 0
M  V30 5897 H 556.563 5.75067 3.92773 0
M  V30 5898 H 554.19 6.45602 4.01375 0
M  V30 5899 N 555.766 -1.3263 0.851289 0
M  V30 5900 C 556.696 -2.31449 0.308771 0
M  V30 5901 C 557.677 -1.59531 -0.590255 0
M  V30 5902 O 558.862 -1.87351 -0.511205 0
M  V30 5903 C 555.992 -3.43586 -0.506548 0
M  V30 5904 C 554.946 -4.26963 0.297753 0
M  V30 5905 C 554.272 -5.30831 -0.642094 0
M  V30 5906 C 555.572 -4.99643 1.52166 0
M  V30 5907 H 557.266 -2.77074 1.13447 0
M  V30 5908 H 554.812 -1.33207 0.546971 0
M  V30 5909 H 556.765 -4.11754 -0.896474 0
M  V30 5910 H 555.489 -2.96681 -1.36558 0
M  V30 5911 H 554.148 -3.60437 0.669391 0
M  V30 5912 H 553.796 -4.8018 -1.49788 0
M  V30 5913 H 553.496 -5.87501 -0.107968 0
M  V30 5914 H 555.02 -6.01862 -1.02927 0
M  V30 5915 H 556.434 -5.6051 1.20421 0
M  V30 5916 H 554.831 -5.66022 1.99347 0
M  V30 5917 H 555.901 -4.27701 2.28474 0
M  V30 5918 N 557.244 -0.608902 -1.45362 0
M  V30 5919 C 558.154 0.110969 -2.34337 0
M  V30 5920 C 559.17 0.859007 -1.51318 0
M  V30 5921 O 560.346 0.816296 -1.84116 0
M  V30 5922 C 557.411 1.09494 -3.28956 0
M  V30 5923 C 556.472 0.348718 -4.27881 0
M  V30 5924 C 555.705 1.28582 -5.17979 0
M  V30 5925 O 555.928 2.52369 -5.11533 0
M  V30 5926 O 554.862 0.782172 -5.96796 0
M  V30 5927 H 558.688 -0.620258 -2.97299 0
M  V30 5928 H 556.273 -0.36916 -1.44767 0
M  V30 5929 H 558.155 1.66163 -3.87257 0
M  V30 5930 H 556.83 1.80717 -2.68557 0
M  V30 5931 H 555.737 -0.260465 -3.73192 0
M  V30 5932 H 557.07 -0.323049 -4.91139 0
M  V30 5933 N 558.722 1.53707 -0.348139 0
M  V30 5934 C 559.685 2.23812 0.494058 0
M  V30 5935 C 560.685 1.23989 1.02388 0
M  V30 5936 O 561.875 1.48395 0.912396 0
M  V30 5937 C 559.007 2.96133 1.68872 0
M  V30 5938 H 560.2 2.99663 -0.119141 0
M  V30 5939 H 557.753 1.55983 -0.0995539 0
M  V30 5940 H 558.488 2.24481 2.34049 0
M  V30 5941 H 558.273 3.69357 1.31596 0
M  V30 5942 H 559.763 3.49475 2.28597 0
M  V30 5943 N 560.2 0.0768682 1.57412 0
M  V30 5944 C 561.449 -0.590679 1.92857 0
M  V30 5945 C 561.762 -1.70461 0.959293 0
M  V30 5946 O 562.968 -2.43207 1.20675 0
M  V30 5947 C 561.424 -1.10204 3.42612 0
M  V30 5948 C 561.032 -0.0188447 4.47996 0
M  V30 5949 C 562.776 -1.74336 3.87049 0
M  V30 5950 C 560.683 -0.544536 5.88888 0
M  V30 5951 H 559.613 -0.224411 0.71983 0
M  V30 5952 H 562.264 0.149924 1.82887 0
M  V30 5953 H 560.646 -1.89577 3.47673 0
M  V30 5954 H 561.82 0.755936 4.54557 0
M  V30 5955 H 560.135 0.526555 4.13057 0
M  V30 5956 H 562.732 -2.14708 4.89699 0
M  V30 5957 H 563.075 -2.60537 3.24694 0
M  V30 5958 H 563.608 -1.01577 3.84613 0
M  V30 5959 H 560.347 0.280426 6.549 0
M  V30 5960 H 559.867 -1.28673 5.85836 0
M  V30 5961 H 561.546 -1.01933 6.3892 0
M  V30 5962 N 561.678 -1.56367 -0.196722 0
M  V30 5963 C 563.089 -1.70462 -0.761545 0
M  V30 5964 C 563.44 -0.683161 -1.83922 0
M  V30 5965 O 562.565 0.160753 -2.15802 0
M  V30 5966 C 563.16 -3.09057 -1.38814 0
M  V30 5967 C 561.719 -3.24922 -1.90007 0
M  V30 5968 C 560.866 -2.66412 -0.769399 0
M  V30 5969 H 563.817 -1.58675 0.0283263 0
M  V30 5970 H 563.838 -3.06296 -2.2575 0
M  V30 5971 H 563.35 -3.83378 -0.603559 0
M  V30 5972 H 561.451 -2.55514 -2.71189 0
M  V30 5973 H 561.564 -4.3241 -2.06297 0
M  V30 5974 H 559.928 -2.25546 -1.18326 0
M  V30 5975 H 560.711 -3.433 0.00291773 0
M  V30 5976 N 563.156 0.464375 -1.50603 0
M  V30 5977 C 564.089 1.58052 -1.64605 0
M  V30 5978 C 565.067 1.54914 -0.494016 0
M  V30 5979 O 566.251 1.74438 -0.714393 0
M  V30 5980 C 563.378 2.96634 -1.63481 0
M  V30 5981 C 562.424 3.17901 -2.84325 0
M  V30 5982 S 563.257 2.97083 -4.45536 0
M  V30 5983 C 564.413 4.37994 -4.47115 0
M  V30 5984 H 564.646 1.45937 -2.59017 0
M  V30 5985 H 562.179 0.652189 -1.39949 0
M  V30 5986 H 564.137 3.76527 -1.63517 0
M  V30 5987 H 562.798 3.06134 -0.702928 0
M  V30 5988 H 561.991 4.19158 -2.79862 0
M  V30 5989 H 561.593 2.45792 -2.81891 0
M  V30 5990 H 563.885 5.30743 -4.21091 0
M  V30 5991 H 564.828 4.47499 -5.48772 0
M  V30 5992 H 565.236 4.20386 -3.76743 0
M  V30 5993 N 564.634 1.40294 0.718013 0
M  V30 5994 C 565.859 1.41941 1.5122 0
M  V30 5995 C 566.284 0.0202371 1.88089 0
M  V30 5996 O 565.642 -0.971078 1.53101 0
M  V30 5997 C 565.69 2.3141 2.76554 0
M  V30 5998 O 564.794 1.75567 3.73162 0
M  V30 5999 H 564.135 0.482644 0.456016 0
M  V30 6000 H 566.665 1.84494 0.884478 0
M  V30 6001 H 566.675 2.46513 3.25108 0
M  V30 6002 H 565.35 3.33085 2.49053 0
M  V30 6003 H 563.927 1.69798 3.31999 0
M  V30 6004 N 566.112 -0.949982 1.2575 0
M  V30 6005 C 567.361 -1.68956 1.10168 0
M  V30 6006 C 567.674 -1.92327 -0.356309 0
M  V30 6007 O 568.88 -2.64026 -0.632657 0
M  V30 6008 C 567.336 -3.04196 1.92336 0
M  V30 6009 C 566.944 -2.88603 3.42655 0
M  V30 6010 C 568.688 -3.81904 1.85336 0
M  V30 6011 C 566.595 -4.19262 4.17101 0
M  V30 6012 H 565.525 -0.633645 0.408668 0
M  V30 6013 H 568.176 -1.05719 1.49986 0
M  V30 6014 H 566.558 -3.68363 1.45344 0
M  V30 6015 H 567.732 -2.3334 3.97353 0
M  V30 6016 H 566.047 -2.24345 3.50796 0
M  V30 6017 H 568.644 -4.78688 2.38248 0
M  V30 6018 H 568.987 -4.08099 0.822226 0
M  V30 6019 H 569.52 -3.24495 2.30104 0
M  V30 6020 H 566.259 -3.98254 5.20648 0
M  V30 6021 H 565.779 -4.74273 3.67186 0
M  V30 6022 H 567.458 -4.87775 4.25071 0
M  V30 6023 N 567.59 -1.07411 -1.15328 0
M  V30 6024 C 569.001 -0.820261 -1.67716 0
M  V30 6025 C 569.352 0.654539 -1.8496 0
M  V30 6026 O 568.477 1.50664 -1.55337 0
M  V30 6027 C 569.072 -1.48242 -3.04647 0
M  V30 6028 C 567.631 -1.27606 -3.5411 0
M  V30 6029 C 566.778 -1.5517 -2.29821 0
M  V30 6030 H 569.729 -1.23608 -0.995332 0
M  V30 6031 H 569.75 -0.903984 -3.69606 0
M  V30 6032 H 569.262 -2.55578 -2.92064 0
M  V30 6033 H 567.363 -0.222948 -3.71932 0
M  V30 6034 H 567.476 -1.99667 -4.35511 0
M  V30 6035 H 565.84 -0.972747 -2.35393 0
M  V30 6036 H 566.623 -2.63689 -2.19824 0
M  V30 6037 N 569.068 1.32177 -0.85831 0
M  V30 6038 C 570.479 1.79381 -0.517621 0
M  V30 6039 C 570.83 1.70841 0.964769 0
M  V30 6040 O 569.955 1.26917 1.75274 0
M  V30 6041 C 570.55 3.25706 -0.932801 0
M  V30 6042 C 569.109 3.70851 -0.643953 0
M  V30 6043 C 568.256 2.53208 -1.13054 0
M  V30 6044 H 571.207 1.19424 -1.04516 0
M  V30 6045 H 571.228 3.79673 -0.250674 0
M  V30 6046 H 570.74 3.31889 -2.01174 0
M  V30 6047 H 568.841 3.70178 0.424112 0
M  V30 6048 H 568.954 4.63495 -1.21281 0
M  V30 6049 H 567.318 2.48676 -0.550679 0
M  V30 6050 H 568.101 2.62143 -2.21666 0
M  V30 6051 N 570.547 0.616602 1.45037 0
M  V30 6052 C 571.457 -0.0985401 2.34393 0
M  V30 6053 C 572.473 -0.850971 1.51771 0
M  V30 6054 O 573.649 -0.806521 1.84546 0
M  V30 6055 C 570.714 -1.07748 3.29532 0
M  V30 6056 C 569.775 -0.326022 4.2806 0
M  V30 6057 C 569.008 -1.25833 5.18654 0
M  V30 6058 O 569.231 -2.49652 5.12864 0
M  V30 6059 O 568.165 -0.750512 5.97203 0
M  V30 6060 H 571.991 0.636016 2.96966 0
M  V30 6061 H 569.576 0.376832 1.44569 0
M  V30 6062 H 571.458 -1.64107 3.88133 0
M  V30 6063 H 570.133 -1.79291 2.69512 0
M  V30 6064 H 569.04 0.280253 3.73049 0
M  V30 6065 H 570.373 0.349091 4.9096 0
M  V30 6066 N 572.025 -1.5352 0.356285 0
M  V30 6067 C 573.271 -2.01414 -0.236653 0
M  V30 6068 C 573.604 -1.24339 -1.49176 0
M  V30 6069 O 572.879 -0.334496 -1.91602 0
M  V30 6070 C 573.162 -3.56059 -0.537982 0
M  V30 6071 C 573.015 -4.43835 0.730112 0
M  V30 6072 C 574.334 -4.19127 -1.34239 0
M  V30 6073 H 571.453 -0.732135 -0.0845386 0
M  V30 6074 H 574.095 -1.83854 0.479341 0
M  V30 6075 H 572.245 -3.71153 -1.14795 0
M  V30 6076 H 573.917 -4.40555 1.36782 0
M  V30 6077 H 572.16 -4.1218 1.3524 0
M  V30 6078 H 572.831 -5.49958 0.474358 0
M  V30 6079 H 575.307 -4.07809 -0.826498 0
M  V30 6080 H 574.183 -5.27378 -1.52198 0
M  V30 6081 H 574.444 -3.74581 -2.34822 0
M  V30 6082 N 573.503 -0.0852151 -1.57369 0
M  V30 6083 C 574.45 0.877268 -2.13478 0
M  V30 6084 C 575.42 1.28642 -1.05073 0
M  V30 6085 O 576.605 1.36992 -1.32808 0
M  V30 6086 C 573.745 2.13464 -2.71159 0
M  V30 6087 C 572.858 1.77691 -3.93764 0
M  V30 6088 C 571.993 2.98139 -4.39643 0
M  V30 6089 C 571.032 2.58447 -5.54862 0
M  V30 6090 N 570.169 3.71698 -5.95639 0
M  V30 6091 H 575.009 0.391933 -2.95411 0
M  V30 6092 H 572.546 0.181796 -1.45972 0
M  V30 6093 H 574.504 2.87086 -3.02717 0
M  V30 6094 H 573.134 2.59514 -1.91969 0
M  V30 6095 H 572.186 0.940768 -3.68583 0
M  V30 6096 H 573.498 1.44497 -4.77412 0
M  V30 6097 H 572.652 3.80026 -4.72933 0
M  V30 6098 H 571.391 3.34536 -3.54876 0
M  V30 6099 H 570.396 1.74984 -5.21211 0
M  V30 6100 H 571.621 2.23205 -6.41371 0
M  V30 6101 H 569.567 4.07831 -5.13819 0
M  V30 6102 H 569.484 3.42317 -6.74059 0
M  V30 6103 H 570.752 4.54123 -6.33555 0
M  V30 6104 N 574.981 1.5647 0.188427 0
M  V30 6105 C 576.228 1.81013 0.907779 0
M  V30 6106 C 576.556 0.65953 1.82977 0
M  V30 6107 O 575.811 -0.354308 1.92466 0
M  V30 6108 C 576.11 3.11596 1.7505 0
M  V30 6109 C 575.776 4.40145 0.978922 0
M  V30 6110 C 574.438 4.75066 0.765912 0
M  V30 6111 C 576.79 5.19369 0.436498 0
M  V30 6112 C 574.118 5.867 -0.00089868 0
M  V30 6113 C 576.47 6.31805 -0.317136 0
M  V30 6114 C 575.134 6.65303 -0.541103 0
M  V30 6115 H 574.404 0.662373 0.33218 0
M  V30 6116 H 577.051 1.9071 0.173732 0
M  V30 6117 H 575.356 2.97165 2.55343 0
M  V30 6118 H 577.053 3.27793 2.30983 0
M  V30 6119 H 573.643 4.12745 1.15497 0
M  V30 6120 H 577.827 4.92799 0.588449 0
M  V30 6121 H 573.083 6.11122 -0.184329 0
M  V30 6122 H 577.257 6.92406 -0.744788 0
M  V30 6123 H 574.884 7.51646 -1.13718 0
M  V30 6124 N 576.459 -0.456382 1.50847 0
M  V30 6125 C 577.407 -1.57318 1.71329 0
M  V30 6126 C 578.401 -1.59187 0.579287 0
M  V30 6127 O 579.607 -1.6316 0.76018 0
M  V30 6128 H 575.982 -0.5223 0.541024 0
M  V30 6129 H 577.953 -1.3721 2.64983 0
M  V30 6130 C 576.702 -2.95142 1.83811 0
M  V30 6131 H 576.025 -2.94428 2.70467 0
M  V30 6132 H 577.465 -3.72702 2.02161 0
M  V30 6133 C 575.924 -3.31636 0.593224 0
M  V30 6134 O 576.454 -4.00852 -0.260898 0
M  V30 6135 N 574.66 -2.87205 0.442902 0
M  V30 6136 H 574.207 -2.31051 1.13901 0
M  V30 6137 H 574.165 -3.11986 -0.38884 0
M  V30 6138 N 577.937 -1.40673 -0.710563 0
M  V30 6139 C 578.884 -1.41336 -1.82463 0
M  V30 6140 C 579.854 -0.269648 -1.63897 0
M  V30 6141 O 581.039 -0.468463 -1.8496 0
M  V30 6142 C 578.179 -1.28665 -3.20218 0
M  V30 6143 C 577.292 -2.52784 -3.5032 0
M  V30 6144 C 576.427 -2.32517 -4.77608 0
M  V30 6145 C 575.466 -3.52187 -5.0063 0
M  V30 6146 N 574.603 -3.31084 -6.19135 0
M  V30 6147 H 579.443 -2.36558 -1.8123 0
M  V30 6148 H 576.98 -1.17483 -0.885226 0
M  V30 6149 H 578.938 -1.19324 -3.99772 0
M  V30 6150 H 577.568 -0.370602 -3.20666 0
M  V30 6151 H 576.62 -2.72634 -2.65283 0
M  V30 6152 H 577.932 -3.41845 -3.63241 0
M  V30 6153 H 577.086 -2.20558 -5.65189 0
M  V30 6154 H 575.825 -1.40889 -4.66906 0
M  V30 6155 H 574.83 -3.64617 -4.11502 0
M  V30 6156 H 576.055 -4.44749 -5.13201 0
M  V30 6157 H 574.001 -2.42143 -6.09674 0
M  V30 6158 H 573.918 -4.13713 -6.32754 0
M  V30 6159 H 575.186 -3.22868 -7.0949 0
M  V30 6160 N 579.415 0.9433 -1.26252 0
M  V30 6161 C 580.826 1.50404 -1.10614 0
M  V30 6162 C 581.177 1.93666 0.31429 0
M  V30 6163 O 580.302 1.79709 1.20555 0
M  V30 6164 C 580.897 2.73336 -2.00182 0
M  V30 6165 C 579.456 3.25686 -1.88695 0
M  V30 6166 C 578.603 1.98474 -1.93658 0
M  V30 6167 H 581.554 0.759006 -1.39373 0
M  V30 6168 H 581.575 3.47567 -1.54847 0
M  V30 6169 H 581.087 2.41818 -3.03555 0
M  V30 6170 H 579.188 3.61998 -0.882489 0
M  V30 6171 H 579.301 3.92935 -2.74115 0
M  V30 6172 H 577.665 2.14278 -1.37684 0
M  V30 6173 H 578.448 1.6929 -2.98657 0
M  V30 6174 N 580.893 1.08022 1.14757 0
M  V30 6175 C 582.14 0.807509 1.85703 0
M  V30 6176 C 582.468 -0.666617 1.8272 0
M  V30 6177 O 581.723 -1.50562 1.25018 0
M  V30 6178 C 582.022 1.26964 3.34088 0
M  V30 6179 C 581.688 2.7509 3.57262 0
M  V30 6180 C 580.35 3.15547 3.63296 0
M  V30 6181 C 582.702 3.70667 3.66409 0
M  V30 6182 C 580.03 4.50384 3.75994 0
M  V30 6183 C 582.382 5.05274 3.80632 0
M  V30 6184 C 581.046 5.45342 3.84913 0
M  V30 6185 H 580.316 0.295488 0.679535 0
M  V30 6186 H 582.963 1.35245 1.35577 0
M  V30 6187 H 581.268 0.644216 3.86467 0
M  V30 6188 H 582.965 1.03544 3.87401 0
M  V30 6189 H 579.555 2.42775 3.53212 0
M  V30 6190 H 583.739 3.40533 3.61041 0
M  V30 6191 H 578.995 4.80886 3.77569 0
M  V30 6192 H 583.169 5.79201 3.86652 0
M  V30 6193 H 580.796 6.49823 3.94505 0
M  V30 6194 N 582.371 -1.3172 0.865308 0
M  V30 6195 C 583.617 -1.97168 0.474633 0
M  V30 6196 C 583.95 -1.68263 -0.969604 0
M  V30 6197 O 583.225 -0.976588 -1.68205 0
M  V30 6198 C 583.508 -3.52689 0.726808 0
M  V30 6199 C 583.361 -3.91185 2.22024 0
M  V30 6200 C 584.68 -4.39689 0.190201 0
M  V30 6201 H 581.799 -0.716185 0.17392 0
M  V30 6202 H 584.441 -1.55925 1.08569 0
M  V30 6203 H 582.591 -3.8795 0.206705 0
M  V30 6204 H 584.263 -3.66049 2.80724 0
M  V30 6205 H 582.506 -3.3996 2.69462 0
M  V30 6206 H 583.177 -4.99604 2.34735 0
M  V30 6207 H 585.653 -4.11225 0.635103 0
M  V30 6208 H 584.529 -5.47469 0.396132 0
M  V30 6209 H 584.79 -4.32683 -0.907625 0
M  V30 6210 N 583.85 -0.624285 -1.44708 0
M  V30 6211 C 585.096 -0.126051 -2.02107 0
M  V30 6212 C 585.425 1.2496 -1.49048 0
M  V30 6213 O 584.68 1.84163 -0.662005 0
M  V30 6214 C 584.979 -0.0546353 -3.57358 0
M  V30 6215 C 584.644 -1.36815 -4.29642 0
M  V30 6216 C 583.307 -1.72792 -4.49106 0
M  V30 6217 C 585.659 -2.23549 -4.70824 0
M  V30 6218 C 582.986 -2.95222 -5.07012 0
M  V30 6219 C 585.339 -3.45243 -5.30085 0
M  V30 6220 C 584.003 -3.81452 -5.47769 0
M  V30 6221 H 583.273 -0.0461252 -0.739563 0
M  V30 6222 H 585.92 -0.809236 -1.73562 0
M  V30 6223 H 584.225 0.711891 -3.85278 0
M  V30 6224 H 585.922 0.347282 -3.99493 0
M  V30 6225 H 582.512 -1.07817 -4.14817 0
M  V30 6226 H 586.696 -1.9705 -4.55505 0
M  V30 6227 H 581.952 -3.23361 -5.18891 0
M  V30 6228 H 586.125 -4.12689 -5.60946 0
M  V30 6229 H 583.753 -4.76403 -5.92405 0
M  V30 6230 N 585.328 1.53329 -0.364422 0
M  V30 6231 C 586.258 2.28627 0.474543 0
M  V30 6232 C 587.239 1.31009 1.08492 0
M  V30 6233 O 588.424 1.59878 1.10239 0
M  V30 6234 C 585.554 3.07465 1.61501 0
M  V30 6235 C 584.508 4.1276 1.13194 0
M  V30 6236 C 583.834 4.79674 2.36255 0
M  V30 6237 C 585.134 5.21847 0.217507 0
M  V30 6238 H 586.828 2.99005 -0.153656 0
M  V30 6239 H 584.374 1.43803 -0.0753406 0
M  V30 6240 H 586.327 3.58889 2.20855 0
M  V30 6241 H 585.051 2.34775 2.27042 0
M  V30 6242 H 583.71 3.62281 0.56109 0
M  V30 6243 H 583.358 4.03557 3.00251 0
M  V30 6244 H 583.058 5.50827 2.04606 0
M  V30 6245 H 584.582 5.33892 2.96297 0
M  V30 6246 H 585.996 5.6878 0.718493 0
M  V30 6247 H 584.393 6.00099 -0.00806408 0
M  V30 6248 H 585.463 4.7921 -0.740653 0
M  V30 6249 N 586.806 0.0935595 1.57322 0
M  V30 6250 C 587.739 -0.902505 2.09595 0
M  V30 6251 C 588.717 -1.27732 1.00615 0
M  V30 6252 O 589.901 -1.38283 1.28102 0
M  V30 6253 C 587.028 -2.20416 2.57166 0
M  V30 6254 C 586.074 -1.97932 3.7779 0
M  V30 6255 S 586.907 -1.21873 5.21447 0
M  V30 6256 C 588.063 -2.53273 5.72367 0
M  V30 6257 H 588.296 -0.457797 2.93754 0
M  V30 6258 H 585.829 -0.119694 1.53935 0
M  V30 6259 H 587.787 -2.95217 2.85232 0
M  V30 6260 H 586.448 -2.62008 1.73235 0
M  V30 6261 H 585.641 -2.94316 4.09138 0
M  V30 6262 H 585.243 -1.3126 3.5021 0
M  V30 6263 H 587.535 -3.49256 5.8054 0
M  V30 6264 H 588.478 -2.26505 6.70896 0
M  V30 6265 H 588.886 -2.61475 5.00291 0
M  V30 6266 N 588.284 -1.56567 -0.180126 0
M  V30 6267 C 589.533 -1.80685 -0.896426 0
M  V30 6268 C 589.846 -0.669335 -1.83791 0
M  V30 6269 O 591.052 -0.795209 -2.59593 0
M  V30 6270 C 589.508 -3.20132 -1.6445 0
M  V30 6271 C 589.116 -4.41727 -0.747088 0
M  V30 6272 C 590.86 -3.53549 -2.34955 0
M  V30 6273 C 588.767 -5.72195 -1.49489 0
M  V30 6274 H 587.697 -0.673758 -0.338477 0
M  V30 6275 H 590.348 -1.8289 -0.149467 0
M  V30 6276 H 588.73 -3.12218 -2.43589 0
M  V30 6277 H 589.904 -4.608 0.00671129 0
M  V30 6278 H 588.219 -4.16122 -0.152134 0
M  V30 6279 H 590.816 -4.48267 -2.91481 0
M  V30 6280 H 591.159 -2.78006 -3.09868 0
M  V30 6281 H 591.692 -3.62976 -1.62768 0
M  V30 6282 H 588.431 -6.50743 -0.788251 0
M  V30 6283 H 587.951 -5.57115 -2.22224 0
M  V30 6284 H 589.63 -6.1384 -2.04472 0
M  V30 6285 N 589.762 0.448376 -1.51087 0
M  V30 6286 C 590.672 1.56882 -1.74428 0
M  V30 6287 C 591.688 1.62268 -0.62809 0
M  V30 6288 O 592.864 1.79716 -0.909075 0
M  V30 6289 C 589.929 2.92947 -1.85426 0
M  V30 6290 C 588.99 2.97766 -3.09247 0
M  V30 6291 C 588.223 4.27341 -3.19711 0
M  V30 6292 O 588.446 5.19112 -2.36387 0
M  V30 6293 O 587.38 4.38219 -4.12611 0
M  V30 6294 H 591.206 1.40104 -2.69452 0
M  V30 6295 H 588.791 0.630247 -1.35456 0
M  V30 6296 H 590.673 3.73719 -1.94709 0
M  V30 6297 H 589.348 3.09876 -0.935887 0
M  V30 6298 H 588.255 2.15989 -3.0545 0
M  V30 6299 H 589.588 2.8578 -4.00738 0
M  V30 6300 N 591.24 1.41047 0.703093 0
M  V30 6301 C 592.172 1.38228 1.82827 0
M  V30 6302 C 593.185 0.285637 1.60275 0
M  V30 6303 O 594.374 0.54685 1.69917 0
M  V30 6304 C 591.474 1.13136 3.19458 0
M  V30 6305 C 590.647 2.34695 3.69103 0
M  V30 6306 C 589.706 2.05574 4.84382 0
M  V30 6307 O 588.732 2.78549 4.96386 0
M  V30 6308 N 589.934 1.04135 5.71083 0
M  V30 6309 H 592.699 2.35203 1.85741 0
M  V30 6310 H 590.26 1.35562 0.885125 0
M  V30 6311 H 592.252 0.916183 3.94193 0
M  V30 6312 H 590.822 0.247836 3.11616 0
M  V30 6313 H 590.042 2.71963 2.85359 0
M  V30 6314 H 591.33 3.15705 3.99009 0
M  V30 6315 H 590.728 0.43722 5.64008 0
M  V30 6316 H 589.285 0.886078 6.45749 0
M  V30 6317 N 592.718 -0.936591 1.26751 0
M  V30 6318 C 593.666 -2.0573 1.08527 0
M  V30 6319 C 594.66 -1.69397 0.0108784 0
M  V30 6320 O 595.866 -1.79215 0.167915 0
M  V30 6321 H 592.241 -0.673691 0.334133 0
M  V30 6322 H 594.212 -2.1825 2.03493 0
M  V30 6323 C 592.961 -3.39738 0.739845 0
M  V30 6324 H 592.284 -3.68174 1.55845 0
M  V30 6325 H 593.724 -4.18955 0.652149 0
M  V30 6326 C 592.183 -3.32292 -0.555288 0
M  V30 6327 O 592.713 -3.68794 -1.59229 0
M  V30 6328 N 590.919 -2.85394 -0.54762 0
M  V30 6329 H 590.466 -2.55886 0.296667 0
M  V30 6330 H 590.424 -2.80795 -1.41427 0
M  V30 6331 N 594.196 -1.08629 -1.14182 0
M  V30 6332 C 595.424 -0.838889 -1.8913 0
M  V30 6333 C 595.839 0.609153 -1.78703 0
M  V30 6334 O 595.196 1.41876 -1.14794 0
M  V30 6335 C 595.247 -1.25477 -3.39025 0
M  V30 6336 O 594.968 -2.64601 -3.49167 0
M  V30 6337 C 596.469 -1.03856 -4.30963 0
M  V30 6338 H 593.689 -0.302377 -0.599007 0
M  V30 6339 H 596.233 -1.44615 -1.44592 0
M  V30 6340 H 594.388 -0.691571 -3.81177 0
M  V30 6341 H 594.802 -2.81922 -4.42289 0
M  V30 6342 H 596.276 -1.37892 -5.345 0
M  V30 6343 H 596.753 0.0242522 -4.39193 0
M  V30 6344 H 597.359 -1.58731 -3.94569 0
M  V30 6345 N 595.674 1.31259 -0.872281 0
M  V30 6346 C 596.621 2.28459 -0.327857 0
M  V30 6347 C 597.591 1.55831 0.574957 0
M  V30 6348 O 598.776 1.83965 0.506101 0
M  V30 6349 C 595.916 3.41985 0.462644 0
M  V30 6350 C 595.029 4.29458 -0.467949 0
M  V30 6351 C 594.164 5.30131 0.336903 0
M  V30 6352 C 593.203 6.0925 -0.58997 0
M  V30 6353 N 592.34 7.01872 0.178775 0
M  V30 6354 H 597.18 2.74414 -1.16193 0
M  V30 6355 H 594.717 1.34994 -0.584376 0
M  V30 6356 H 596.675 4.06547 0.936759 0
M  V30 6357 H 595.305 2.97134 1.2614 0
M  V30 6358 H 594.357 3.65318 -1.06052 0
M  V30 6359 H 595.669 4.84677 -1.17856 0
M  V30 6360 H 594.823 6.0038 0.873427 0
M  V30 6361 H 593.562 4.75573 1.08079 0
M  V30 6362 H 592.567 5.37889 -1.13823 0
M  V30 6363 H 593.792 6.65894 -1.33275 0
M  V30 6364 H 591.738 6.49721 0.905435 0
M  V30 6365 H 591.655 7.54522 -0.472452 0
M  V30 6366 H 592.923 7.76382 0.696454 0
M  V30 6367 N 597.152 0.631951 1.44375 0
M  V30 6368 C 598.377 0.142146 2.06912 0
M  V30 6369 C 598.802 -1.17456 1.4692 0
M  V30 6370 O 598.16 -1.72074 0.570975 0
M  V30 6371 C 598.208 0.0417952 3.60576 0
M  V30 6372 O 597.312 -1.00194 4.00044 0
M  V30 6373 H 596.653 0.0851491 0.658518 0
M  V30 6374 H 599.183 0.868863 1.85235 0
M  V30 6375 H 599.193 -0.148517 4.0773 0
M  V30 6376 H 597.868 1.0031 4.03622 0
M  V30 6377 H 596.445 -0.786131 3.64519 0
M  V30 6378 N 598.631 -1.53133 0.372548 0
M  V30 6379 C 600.042 -1.86404 -0.105155 0
M  V30 6380 C 600.393 -1.29289 -1.47576 0
M  V30 6381 O 599.518 -0.617646 -2.07398 0
M  V30 6382 C 600.113 -3.38223 -0.197588 0
M  V30 6383 C 598.672 -3.71266 -0.619556 0
M  V30 6384 C 597.819 -2.76353 0.228919 0
M  V30 6385 H 600.77 -1.47282 0.591077 0
M  V30 6386 H 600.791 -3.66577 -1.01987 0
M  V30 6387 H 600.303 -3.79763 0.800099 0
M  V30 6388 H 598.404 -3.35287 -1.62522 0
M  V30 6389 H 598.517 -4.77515 -0.389332 0
M  V30 6390 H 596.881 -2.52888 -0.303271 0
M  V30 6391 H 597.664 -3.20728 1.22428 0
M  V30 6392 N 600.109 -0.101901 -1.5727 0
M  V30 6393 C 601.039 0.851544 -2.17419 0
M  V30 6394 C 602.02 1.28942 -1.10941 0
M  V30 6395 O 603.205 1.35509 -1.39107 0
M  V30 6396 C 600.335 2.10816 -2.75996 0
M  V30 6397 C 599.289 1.80867 -3.87906 0
M  V30 6398 C 598.615 3.13413 -4.33216 0
M  V30 6399 C 599.915 1.0903 -5.10793 0
M  V30 6400 H 601.609 0.350381 -2.97343 0
M  V30 6401 H 599.155 0.16709 -1.43027 0
M  V30 6402 H 601.108 2.77959 -3.16729 0
M  V30 6403 H 599.832 2.63227 -1.93337 0
M  V30 6404 H 598.491 1.16119 -3.47724 0
M  V30 6405 H 598.139 3.63725 -3.47438 0
M  V30 6406 H 597.839 2.94155 -5.08671 0
M  V30 6407 H 599.363 3.81704 -4.76586 0
M  V30 6408 H 600.777 1.66295 -5.48652 0
M  V30 6409 H 599.174 0.99927 -5.91722 0
M  V30 6410 H 600.244 0.0741704 -4.84843 0
M  V30 6411 N 601.587 1.56661 0.17182 0
M  V30 6412 C 602.834 1.81965 0.888529 0
M  V30 6413 C 603.162 0.6789 1.82267 0
M  V30 6414 O 602.417 -0.333875 1.92831 0
M  V30 6415 C 602.716 3.13435 1.71736 0
M  V30 6416 C 602.382 4.41159 0.932184 0
M  V30 6417 C 601.044 4.75851 0.715481 0
M  V30 6418 C 603.396 5.19803 0.381387 0
M  V30 6419 C 600.724 5.86666 -0.063126 0
M  V30 6420 C 603.076 6.31433 -0.384129 0
M  V30 6421 C 601.74 6.64692 -0.611637 0
M  V30 6422 H 601.01 0.665859 0.325136 0
M  V30 6423 H 603.657 1.90884 0.153495 0
M  V30 6424 H 601.962 2.99857 2.52177 0
M  V30 6425 H 603.659 3.30224 2.27493 0
M  V30 6426 H 600.249 4.13947 1.11112 0
M  V30 6427 H 604.433 4.93396 0.536148 0
M  V30 6428 H 599.689 6.10892 -0.249136 0
M  V30 6429 H 603.863 6.91577 -0.818185 0
M  V30 6430 H 601.49 7.50398 -1.21684 0
M  V30 6431 N 603.065 -0.440357 1.51323 0
M  V30 6432 C 603.998 -1.55414 1.67098 0
M  V30 6433 C 604.976 -1.54108 0.518599 0
M  V30 6434 O 606.16 -1.7328 0.742054 0
M  V30 6435 C 603.287 -2.93996 1.68179 0
M  V30 6436 C 602.333 -3.13338 2.89347 0
M  V30 6437 S 603.166 -2.89957 4.50206 0
M  V30 6438 C 604.322 -4.30826 4.54027 0
M  V30 6439 H 604.555 -1.41798 2.61306 0
M  V30 6440 H 602.088 -0.629841 1.40969 0
M  V30 6441 H 604.046 -3.73878 1.69487 0
M  V30 6442 H 602.707 -3.04976 0.751542 0
M  V30 6443 H 601.9 -4.14652 2.86495 0
M  V30 6444 H 601.502 -2.41276 2.85766 0
M  V30 6445 H 603.794 -5.23977 4.29481 0
M  V30 6446 H 604.737 -4.38712 5.55822 0
M  V30 6447 H 605.145 -4.1434 3.83384 0
M  V30 6448 N 604.543 -1.41418 -0.695603 0
M  V30 6449 C 605.791 -1.40496 -1.45277 0
M  V30 6450 C 606.112 -0.0149538 -1.94994 0
M  V30 6451 O 605.382 0.9432 -1.71699 0
M  V30 6452 H 603.962 -0.517147 -0.539044 0
M  V30 6453 H 606.624 -1.76656 -0.823321 0
M  V30 6454 H 605.72 -2.09214 -2.31595 0
M  V30 6455 N 606.021 0.929856 -1.27246 0
M  V30 6456 C 606.968 2.03017 -1.09785 0
M  V30 6457 C 607.938 1.661 0.000456744 0
M  V30 6458 O 609.123 1.90116 -0.161462 0
M  V30 6459 C 606.263 3.36878 -0.748816 0
M  V30 6460 C 605.376 3.86763 -1.92453 0
M  V30 6461 C 604.511 5.09061 -1.51758 0
M  V30 6462 C 603.55 5.51237 -2.66091 0
M  V30 6463 N 602.687 6.64732 -2.25999 0
M  V30 6464 H 607.527 2.17285 -2.03939 0
M  V30 6465 H 605.064 1.06448 -1.01524 0
M  V30 6466 H 607.022 4.13855 -0.527283 0
M  V30 6467 H 605.652 3.22424 0.155771 0
M  V30 6468 H 604.704 3.06086 -2.25867 0
M  V30 6469 H 606.016 4.13994 -2.78227 0
M  V30 6470 H 605.17 5.93532 -1.25716 0
M  V30 6471 H 603.909 4.83602 -0.630896 0
M  V30 6472 H 602.914 4.65316 -2.92849 0
M  V30 6473 H 604.139 5.78692 -3.55377 0
M  V30 6474 H 602.085 6.40935 -1.3978 0
M  V30 6475 H 602.002 6.91607 -3.05313 0
M  V30 6476 H 603.27 7.52549 -2.03199 0
M  V30 6477 N 607.499 1.09233 1.13605 0
M  V30 6478 C 608.745 0.828385 1.8511 0
M  V30 6479 C 609.078 -0.64437 1.83198 0
M  V30 6480 O 608.353 -1.47428 1.26867 0
M  V30 6481 C 608.636 1.36167 3.33363 0
M  V30 6482 C 608.489 2.90038 3.438 0
M  V30 6483 C 609.808 0.993819 4.28732 0
M  V30 6484 H 606.927 0.30239 0.672108 0
M  V30 6485 H 609.569 1.35339 1.33355 0
M  V30 6486 H 607.719 0.9151 3.77569 0
M  V30 6487 H 609.391 3.43128 3.08319 0
M  V30 6488 H 607.634 3.27271 2.84739 0
M  V30 6489 H 608.305 3.22428 4.48045 0
M  V30 6490 H 610.781 1.37893 3.92587 0
M  V30 6491 H 609.657 1.39403 5.30903 0
M  V30 6492 H 609.918 -0.0982206 4.41991 0
M  V30 6493 N 608.977 -1.30795 0.87923 0
M  V30 6494 C 610.223 -1.96653 0.495519 0
M  V30 6495 C 610.556 -1.69282 -0.951703 0
M  V30 6496 O 609.831 -0.994374 -1.6716 0
M  V30 6497 C 610.114 -3.51898 0.764174 0
M  V30 6498 C 609.967 -3.88808 2.2616 0
M  V30 6499 C 611.286 -4.39462 0.236825 0
M  V30 6500 H 608.405 -0.7143 0.181507 0
M  V30 6501 H 611.047 -1.54765 1.10217 0
M  V30 6502 H 609.197 -3.87709 0.247841 0
M  V30 6503 H 610.869 -3.63051 2.8459 0
M  V30 6504 H 609.112 -3.37082 2.73053 0
M  V30 6505 H 609.783 -4.97086 2.4002 0
M  V30 6506 H 612.259 -4.10528 0.678683 0
M  V30 6507 H 611.135 -5.47018 0.454176 0
M  V30 6508 H 611.396 -4.33621 -0.861683 0
M  V30 6509 N 610.455 -0.639598 -1.44038 0
M  V30 6510 C 611.403 0.0723409 -2.32487 0
M  V30 6511 C 612.397 0.827129 -1.47834 0
M  V30 6512 O 613.603 0.73907 -1.64127 0
M  V30 6513 H 609.978 0.0421696 -0.750817 0
M  V30 6514 H 611.949 -0.691593 -2.90275 0
M  V30 6515 C 610.698 1.03452 -3.31953 0
M  V30 6516 H 610.021 0.46315 -3.97108 0
M  V30 6517 H 611.461 1.502 -3.96505 0
M  V30 6518 C 609.92 2.12392 -2.61518 0
M  V30 6519 O 610.45 3.2059 -2.42044 0
M  V30 6520 N 608.656 1.88563 -2.21116 0
M  V30 6521 H 608.203 1.00577 -2.37154 0
M  V30 6522 H 608.161 2.61651 -1.74316 0
M  V30 6523 N 611.933 1.52934 -0.380664 0
M  V30 6524 C 613.344 1.86457 0.0952684 0
M  V30 6525 C 613.695 1.3007 1.46889 0
M  V30 6526 O 612.82 0.628636 2.07068 0
M  V30 6527 C 613.415 3.38323 0.179648 0
M  V30 6528 C 611.974 3.71589 0.599858 0
M  V30 6529 C 611.121 2.76228 -0.243572 0
M  V30 6530 H 614.072 1.46966 -0.59888 0
M  V30 6531 H 614.093 3.67113 1.00042 0
M  V30 6532 H 613.605 3.79333 -0.820228 0
M  V30 6533 H 611.706 3.36144 1.60742 0
M  V30 6534 H 611.819 4.77715 0.364003 0
M  V30 6535 H 610.183 2.53045 0.289855 0
M  V30 6536 H 610.966 3.20074 -1.24127 0
M  V30 6537 N 613.412 0.11024 1.57214 0
M  V30 6538 C 614.64 -0.557834 1.99238 0
M  V30 6539 C 615.055 -1.60778 0.989734 0
M  V30 6540 O 614.412 -1.82491 -0.0186092 0
M  V30 6541 C 614.463 -1.19189 3.41286 0
M  V30 6542 O 614.184 -0.183919 4.37714 0
M  V30 6543 C 615.685 -1.94413 3.98395 0
M  V30 6544 H 612.905 -0.148392 0.654386 0
M  V30 6545 H 615.449 0.193996 2.03578 0
M  V30 6546 H 613.604 -1.89456 3.37913 0
M  V30 6547 H 614.018 -0.643475 5.20538 0
M  V30 6548 H 615.492 -2.34116 4.99894 0
M  V30 6549 H 615.969 -2.81592 3.3705 0
M  V30 6550 H 616.575 -1.28928 4.05287 0
M  V30 6551 N 614.89 -1.56749 -0.16351 0
M  V30 6552 C 615.822 -1.93587 -1.22705 0
M  V30 6553 C 616.835 -0.829824 -1.40063 0
M  V30 6554 O 618.024 -1.10826 -1.39928 0
M  V30 6555 C 615.124 -2.1803 -2.59454 0
M  V30 6556 C 614.297 -3.4928 -2.63292 0
M  V30 6557 C 613.356 -3.62457 -3.8146 0
M  V30 6558 O 612.382 -4.35004 -3.67096 0
M  V30 6559 N 613.584 -2.97888 -4.9824 0
M  V30 6560 H 616.349 -2.8542 -0.914081 0
M  V30 6561 H 613.91 -1.58 -0.353214 0
M  V30 6562 H 615.902 -2.24102 -3.36987 0
M  V30 6563 H 614.472 -1.32543 -2.8311 0
M  V30 6564 H 613.692 -3.54795 -1.71796 0
M  V30 6565 H 614.98 -4.35632 -2.62873 0
M  V30 6566 H 614.378 -2.38833 -5.12811 0
M  V30 6567 H 612.935 -3.09545 -5.73607 0
M  V30 6568 N 616.368 0.432326 -1.51554 0
M  V30 6569 C 617.315 1.52512 -1.7323 0
M  V30 6570 C 618.285 1.55863 -0.5741 0
M  V30 6571 O 619.47 1.72796 -0.809093 0
M  V30 6572 C 616.61 2.90183 -1.86783 0
M  V30 6573 C 615.723 2.96322 -3.14352 0
M  V30 6574 C 614.858 4.25147 -3.18471 0
M  V30 6575 C 613.897 4.25172 -4.40335 0
M  V30 6576 N 613.034 5.45529 -4.41975 0
M  V30 6577 H 617.874 1.33332 -2.66508 0
M  V30 6578 H 615.411 0.647613 -1.32077 0
M  V30 6579 H 617.369 3.70071 -1.92623 0
M  V30 6580 H 615.999 3.0791 -0.969087 0
M  V30 6581 H 615.051 2.09066 -3.17798 0
M  V30 6582 H 616.363 2.92203 -4.04251 0
M  V30 6583 H 615.517 5.13411 -3.23255 0
M  V30 6584 H 614.256 4.31929 -2.2647 0
M  V30 6585 H 613.261 3.353 -4.35723 0
M  V30 6586 H 614.486 4.20049 -5.33606 0
M  V30 6587 H 612.432 5.53024 -3.52847 0
M  V30 6588 H 612.349 5.43311 -5.25689 0
M  V30 6589 H 613.617 6.35812 -4.50958 0
M  V30 6590 O 617.885 1.50798 0.578109 0
M  V30 6591 H 618.576 1.4938 1.2331 0
M  V30 END ATOM
M  V30 BEGIN BOND
M  V30 END BOND
M  V30 END CTAB
M  END
$$$$
