drugbank_target|P01019 Angiotensinogen (DB01593; DB09130; DB12548; DB14487)
 OpenBabel12092119473D

  0  0  0     0  0            999 V3000
M  V30 BEGIN CTAB
M  V30 COUNTS 7513 7595 0 0 0
M  V30 BEGIN ATOM
M  V30 1 H -0.908 1.98254 -0.117106 0
M  V30 2 N 0 1.576 0 0
M  V30 3 C 0.933 2.03868 1.02534 0
M  V30 4 C 1.911 0.928543 1.3348 0
M  V30 5 O 3.095 1.19667 1.45644 0
M  V30 6 C 0.222 2.43627 2.35294 0
M  V30 7 C -0.732 3.65373 2.2001 0
M  V30 8 S 0.101 5.13292 1.52614 0
M  V30 9 C 1.257 5.56322 2.86805 0
M  V30 10 H 1.49 2.90518 0.631377 0
M  V30 11 H -0.977 1.52953 0.210867 0
M  V30 12 H 0.981 2.67203 3.11629 0
M  V30 13 H -0.358 1.57376 2.7183 0
M  V30 14 H -1.165 3.90944 3.18086 0
M  V30 15 H -1.563 3.418 1.51819 0
M  V30 16 H 0.729 5.58782 3.83104 0
M  V30 17 H 1.672 6.56266 2.65933 0
M  V30 18 H 2.08 4.83886 2.90714 0
M  V30 19 N 1.4781 -0.272755 1.55222 0
M  V30 20 C 2.8941 -0.619959 1.47067 0
M  V30 21 C 3.0941 -1.895 0.684978 0
M  V30 22 O 2.1501 -2.51675 0.203931 0
M  V30 23 C 3.4631 -0.746693 2.91282 0
M  V30 24 C 5.0111 -0.840731 3.01497 0
M  V30 25 C 5.4861 -0.99924 4.46967 0
M  V30 26 N 6.9771 -1.06476 4.50796 0
M  V30 27 C 7.7121 -1.20621 5.6057 0
M  V30 28 N 7.2081 -1.31483 6.80209 0
M  V30 29 N 9.0011 -1.23733 5.48312 0
M  V30 30 H 1.1521 0.564606 2.04758 0
M  V30 31 H 3.4151 0.191177 0.928523 0
M  V30 32 H 3.1211 0.119753 3.51496 0
M  V30 33 H 2.9951 -1.6269 3.40311 0
M  V30 34 H 5.3821 -1.69764 2.41379 0
M  V30 35 H 5.4631 0.0640874 2.5572 0
M  V30 36 H 5.1071 -0.146984 5.07687 0
M  V30 37 H 5.0371 -1.91871 4.90401 0
M  V30 38 H 7.5281 -0.993196 3.64615 0
M  V30 39 H 7.8411 -1.42111 7.59621 0
M  V30 40 H 6.1861 -1.28487 6.8302 0
M  V30 41 H 9.3771 -1.14877 4.53785 0
M  V30 42 H 9.5501 -1.34412 6.33906 0
M  V30 43 N 2.9562 -1.48159 -0.537278 0
M  V30 44 C 3.9032 -1.62138 -1.64256 0
M  V30 45 C 4.8732 -0.463668 -1.59497 0
M  V30 46 O 6.0582 -0.686241 -1.78032 0
M  V30 47 C 3.1982 -1.66028 -3.02537 0
M  V30 48 C 2.3112 -2.92855 -3.17585 0
M  V30 49 C 1.4462 -2.87952 -4.46382 0
M  V30 50 C 0.4852 -4.09516 -4.54932 0
M  V30 51 N -0.3778 -4.02733 -5.75109 0
M  V30 52 H 4.4622 -2.56529 -1.51647 0
M  V30 53 H 1.9992 -1.27224 -0.738414 0
M  V30 54 H 3.9572 -1.66265 -3.82638 0
M  V30 55 H 2.5872 -0.751331 -3.13934 0
M  V30 56 H 1.6392 -3.02395 -2.30784 0
M  V30 57 H 2.9512 -3.82822 -3.19764 0
M  V30 58 H 2.1052 -2.8655 -5.34765 0
M  V30 59 H 0.8442 -1.95702 -4.46712 0
M  V30 60 H -0.1508 -4.11201 -3.64957 0
M  V30 61 H 1.0742 -5.02917 -4.56346 0
M  V30 62 H -0.9798 -3.13299 -5.76351 0
M  V30 63 H -1.0628 -4.86397 -5.78752 0
M  V30 64 H 0.2052 -4.05379 -6.65799 0
M  V30 65 N 4.4343 0.785586 -1.36625 0
M  V30 66 C 5.8503 1.08419 -1.17122 0
M  V30 67 C 6.0503 2.015 0.00208491 0
M  V30 68 O 5.1063 2.43551 0.666278 0
M  V30 69 C 6.4193 1.69498 -2.48377 0
M  V30 70 C 7.9673 1.81821 -2.54775 0
M  V30 71 C 8.4423 2.46315 -3.86126 0
M  V30 72 N 9.9333 2.53779 -3.87492 0
M  V30 73 C 10.6683 3.045 -4.85868 0
M  V30 74 N 10.1643 3.55499 -5.94637 0
M  V30 75 N 11.9573 3.03247 -4.73284 0
M  V30 76 H 4.1083 0.167264 -2.1174 0
M  V30 77 H 6.3713 0.13682 -0.938075 0
M  V30 78 H 6.0773 1.08571 -3.34522 0
M  V30 79 H 5.9513 2.6896 -2.64462 0
M  V30 80 H 8.3383 2.41884 -1.69045 0
M  V30 81 H 8.4193 0.811532 -2.42586 0
M  V30 82 H 8.0633 1.86895 -4.72263 0
M  V30 83 H 7.9933 3.47561 -3.95612 0
M  V30 84 H 10.4843 2.17672 -3.08913 0
M  V30 85 H 10.7973 3.92562 -6.65669 0
M  V30 86 H 9.1423 3.5364 -5.98301 0
M  V30 87 H 12.3333 2.62696 -3.87438 0
M  V30 88 H 12.5063 3.42467 -5.50109 0
M  V30 89 N 5.9124 1.20967 1.01018 0
M  V30 90 C 6.8754 0.965918 2.07853 0
M  V30 91 C 7.8754 -0.0610545 1.60684 0
M  V30 92 O 9.0654 0.175681 1.73312 0
M  V30 93 C 6.1974 0.455513 3.37843 0
M  V30 94 H 7.3904 1.91365 2.3091 0
M  V30 95 H 4.9434 1.02594 1.17916 0
M  V30 96 H 5.6784 -0.497381 3.20463 0
M  V30 97 H 5.4634 1.19622 3.73407 0
M  V30 98 H 6.9534 0.304667 4.16487 0
M  V30 99 N 7.3905 -1.2043 1.01659 0
M  V30 100 C 8.8015 -1.71517 0.737482 0
M  V30 101 C 9.1525 -1.81547 -0.743973 0
M  V30 102 O 8.2775 -1.47803 -1.58061 0
M  V30 103 C 8.8725 -3.11515 1.33206 0
M  V30 104 C 7.4315 -3.59912 1.10183 0
M  V30 105 C 6.5785 -2.37116 1.43776 0
M  V30 106 H 9.5295 -1.05444 1.18606 0
M  V30 107 H 9.5505 -3.73575 0.722636 0
M  V30 108 H 9.0625 -3.04182 2.41028 0
M  V30 109 H 7.1635 -3.72577 0.0412756 0
M  V30 110 H 7.2765 -4.44731 1.78188 0
M  V30 111 H 5.6405 -2.39857 0.856778 0
M  V30 112 H 6.4235 -2.32424 2.52654 0
M  V30 113 N 8.8686 -0.792821 -1.36206 0
M  V30 114 C 9.8006 -0.151469 -2.28699 0
M  V30 115 C 10.8136 0.641262 -1.49638 0
M  V30 116 O 12.0026 0.475885 -1.72039 0
M  V30 117 C 9.1026 0.808424 -3.29117 0
M  V30 118 C 8.2756 0.0650202 -4.37352 0
M  V30 119 C 7.3346 0.941358 -5.17711 0
M  V30 120 O 6.3606 0.397352 -5.67811 0
M  V30 121 N 7.5626 2.2652 -5.3448 0
M  V30 122 H 10.3276 -0.945982 -2.84379 0
M  V30 123 H 7.8886 -0.647032 -1.48409 0
M  V30 124 H 9.8806 1.3986 -3.79765 0
M  V30 125 H 8.4506 1.5038 -2.74052 0
M  V30 126 H 7.6706 -0.706255 -3.87822 0
M  V30 127 H 8.9586 -0.447847 -5.06825 0
M  V30 128 H 8.3566 2.73128 -4.95396 0
M  V30 129 H 6.9136 2.80493 -5.88359 0
M  V30 130 N 10.3467 1.47872 -0.545128 0
M  V30 131 C 11.5717 2.07391 -0.0190611 0
M  V30 132 C 11.9967 1.39688 1.25971 0
M  V30 133 O 11.3547 0.467816 1.7516 0
M  V30 134 C 11.4027 3.60188 0.172335 0
M  V30 135 O 10.5067 3.9339 1.23766 0
M  V30 136 H 9.8477 0.662411 -0.0459059 0
M  V30 137 H 12.3777 1.90066 -0.757365 0
M  V30 138 H 12.3877 4.06129 0.390305 0
M  V30 139 H 11.0627 4.08865 -0.761725 0
M  V30 140 H 9.6397 3.5921 1.00114 0
M  V30 141 N 11.8248 0.280983 1.55075 0
M  V30 142 C 12.7348 -0.61388 2.26426 0
M  V30 143 C 13.7508 -1.16521 1.29224 0
M  V30 144 O 14.9268 -1.19426 1.62171 0
M  V30 145 C 11.9918 -1.7788 2.9759 0
M  V30 146 C 11.0528 -1.26355 4.10284 0
M  V30 147 C 10.2858 -2.37295 4.78045 0
M  V30 148 O 10.5088 -3.56777 4.45047 0
M  V30 149 O 9.4428 -2.05119 5.65871 0
M  V30 150 H 13.2688 -0.0356932 3.03679 0
M  V30 151 H 10.8538 0.0481686 1.49322 0
M  V30 152 H 12.7358 -2.45791 3.42293 0
M  V30 153 H 11.4108 -2.34397 2.23249 0
M  V30 154 H 10.3178 -0.550735 3.70024 0
M  V30 155 H 11.6508 -0.744065 4.86543 0
M  V30 156 N 13.3029 -1.57598 0.00835791 0
M  V30 157 C 14.2359 -2.04409 -1.01451 0
M  V30 158 C 15.2139 -0.935609 -1.32985 0
M  V30 159 O 16.3979 -1.20437 -1.45007 0
M  V30 160 C 13.5249 -2.44872 -2.33999 0
M  V30 161 C 12.5709 -3.66535 -2.18069 0
M  V30 162 S 13.4039 -5.14095 -1.4989 0
M  V30 163 C 14.5599 -5.57835 -2.8385 0
M  V30 164 H 14.7929 -2.90849 -0.615961 0
M  V30 165 H 12.3259 -1.53063 -0.202752 0
M  V30 166 H 14.2839 -2.68852 -3.10208 0
M  V30 167 H 12.9449 -1.58815 -2.70992 0
M  V30 168 H 12.1379 -3.92626 -3.16008 0
M  V30 169 H 11.7399 -3.426 -1.50004 0
M  V30 170 H 14.0319 -5.60806 -3.80136 0
M  V30 171 H 14.9749 -6.57667 -2.62449 0
M  V30 172 H 15.3829 -4.85421 -2.88144 0
M  V30 173 N 14.781 0.264519 -1.55364 0
M  V30 174 C 15.744 1.31046 -1.88042 0
M  V30 175 C 16.744 1.41943 -0.755569 0
M  V30 176 O 17.934 1.40947 -1.02369 0
M  V30 177 C 15.066 2.69067 -2.09323 0
M  V30 178 H 16.259 1.03297 -2.81549 0
M  V30 179 H 13.812 0.502989 -1.47986 0
M  V30 180 H 14.547 3.01982 -1.18226 0
M  V30 181 H 14.332 2.62542 -2.91229 0
M  V30 182 H 15.822 3.44623 -2.35848 0
M  V30 183 N 16.2591 1.48442 0.529413 0
M  V30 184 C 17.6701 1.5002 1.11134 0
M  V30 185 C 18.0211 0.27031 1.94329 0
M  V30 186 O 17.1461 -0.622507 2.07253 0
M  V30 187 C 17.7411 2.71834 2.02217 0
M  V30 188 C 16.3001 2.76283 2.55627 0
M  V30 189 C 15.4471 2.43542 1.326 0
M  V30 190 H 18.3981 1.5555 0.314641 0
M  V30 191 H 18.4191 2.50384 2.8651 0
M  V30 192 H 17.9311 3.61331 1.41639 0
M  V30 193 H 16.0321 1.90995 3.19924 0
M  V30 194 H 16.1451 3.77725 2.94721 0
M  V30 195 H 14.5091 1.94709 1.64196 0
M  V30 196 H 15.2921 3.3528 0.737734 0
M  V30 197 N 17.7372 -0.778329 1.37039 0
M  V30 198 C 18.7002 -1.87301 1.32102 0
M  V30 199 C 19.7002 -1.59198 0.226405 0
M  V30 200 O 20.8902 -1.67403 0.481861 0
M  V30 201 C 18.0222 -3.24309 1.05055 0
M  V30 202 H 19.2152 -1.93093 2.29467 0
M  V30 203 H 16.7682 -0.977358 1.21973 0
M  V30 204 H 17.5032 -3.24196 0.0819373 0
M  V30 205 H 17.2882 -3.46098 1.84279 0
M  V30 206 H 18.7782 -4.04382 1.04234 0
M  V30 207 N 19.2153 -1.21501 -1.00376 0
M  V30 208 C 20.4633 -1.03095 -1.73827 0
M  V30 209 C 20.7843 0.436341 -1.90055 0
M  V30 210 O 20.0543 1.31466 -1.45236 0
M  V30 211 H 18.6343 -0.378487 -0.644016 0
M  V30 212 H 21.2963 -1.52831 -1.20949 0
M  V30 213 H 20.3923 -1.49991 -2.73695 0
M  V30 214 N 20.6934 1.19889 -1.02296 0
M  V30 215 C 21.9394 1.89701 -0.717033 0
M  V30 216 C 22.2724 1.7905 0.751989 0
M  V30 217 O 21.5474 1.17891 1.547 0
M  V30 218 C 21.8304 3.40858 -1.16136 0
M  V30 219 C 21.6834 3.60411 -2.69117 0
M  V30 220 C 23.0024 4.33876 -0.737549 0
M  V30 221 H 20.1214 0.688874 -0.261957 0
M  V30 222 H 22.7634 1.41154 -1.27183 0
M  V30 223 H 20.9134 3.82335 -0.689342 0
M  V30 224 H 22.5854 3.28145 -3.2422 0
M  V30 225 H 20.8284 3.03665 -3.0979 0
M  V30 226 H 21.4994 4.66396 -2.95261 0
M  V30 227 H 23.9754 4.00081 -1.14344 0
M  V30 228 H 22.8514 5.38242 -1.0764 0
M  V30 229 H 23.1124 4.40628 0.360436 0
M  V30 230 N 22.1715 0.800033 1.35784 0
M  V30 231 C 23.3965 0.388511 2.03729 0
M  V30 232 C 23.8215 -0.990481 1.5991 0
M  V30 233 O 23.1795 -1.64013 0.772612 0
M  V30 234 C 23.2275 0.4726 3.5749 0
M  V30 235 O 22.3315 -0.51646 4.09153 0
M  V30 236 H 21.6725 0.163271 0.643614 0
M  V30 237 H 24.2025 1.0841 1.73518 0
M  V30 238 H 24.2125 0.34003 4.06581 0
M  V30 239 H 22.8875 1.47848 3.88734 0
M  V30 240 H 21.4645 -0.344673 3.71304 0
M  V30 241 N 23.6496 -1.47581 0.552962 0
M  V30 242 C 24.5796 -2.32762 -0.185451 0
M  V30 243 C 25.5606 -1.43527 -0.912905 0
M  V30 244 O 26.7456 -1.72388 -0.894201 0
M  V30 245 C 23.8756 -3.25219 -1.21859 0
M  V30 246 C 22.8296 -4.23661 -0.607864 0
M  V30 247 C 22.1556 -5.05413 -1.74533 0
M  V30 248 C 23.4556 -5.20481 0.435582 0
M  V30 249 H 25.1496 -2.94749 0.525684 0
M  V30 250 H 22.6956 -1.41738 0.254251 0
M  V30 251 H 24.6486 -3.8365 -1.7433 0
M  V30 252 H 23.3726 -2.61279 -1.95961 0
M  V30 253 H 22.0316 -3.66451 -0.104489 0
M  V30 254 H 21.6796 -4.3788 -2.47529 0
M  V30 255 H 21.3796 -5.72059 -1.34249 0
M  V30 256 H 22.9036 -5.66701 -2.27338 0
M  V30 257 H 24.3176 -5.733 -0.00290157 0
M  V30 258 H 22.7146 -5.95305 0.757067 0
M  V30 259 H 23.7846 -4.66217 1.33303 0
M  V30 260 N 25.1277 -0.289203 -1.54924 0
M  V30 261 C 26.5437 0.0645403 -1.59469 0
M  V30 262 C 26.7437 1.53419 -1.30632 0
M  V30 263 O 25.7997 2.2852 -1.074 0
M  V30 264 C 27.1127 -0.32278 -2.98963 0
M  V30 265 C 28.6607 -0.270564 -3.11828 0
M  V30 266 C 29.1357 -0.632532 -4.53611 0
M  V30 267 N 30.6267 -0.584617 -4.59496 0
M  V30 268 C 31.3617 -0.837314 -5.67254 0
M  V30 269 N 30.8577 -1.15536 -6.83098 0
M  V30 270 N 32.6507 -0.765166 -5.56868 0
M  V30 271 H 24.8017 -1.24714 -1.71931 0
M  V30 272 H 27.0647 -0.504809 -0.802416 0
M  V30 273 H 26.7707 -1.34541 -3.24948 0
M  V30 274 H 26.6447 0.32944 -3.75759 0
M  V30 275 H 29.0317 0.742805 -2.85598 0
M  V30 276 H 29.1127 -0.957242 -2.37214 0
M  V30 277 H 28.7567 -1.64365 -4.80569 0
M  V30 278 H 28.6867 0.07609 -5.26545 0
M  V30 279 H 31.1777 -0.349248 -3.76283 0
M  V30 280 H 31.4907 -1.33447 -7.61191 0
M  V30 281 H 29.8357 -1.19328 -6.84679 0
M  V30 282 H 33.0267 -0.516432 -4.65243 0
M  V30 283 H 33.1997 -0.965477 -6.40767 0
M  V30 284 N 26.6058 1.57591 -0.0167156 0
M  V30 285 C 27.5688 2.08393 0.954204 0
M  V30 286 C 28.5688 0.996531 1.26198 0
M  V30 287 O 29.7588 1.25858 1.20438 0
M  V30 288 C 26.8908 2.5394 2.27436 0
M  V30 289 H 28.0838 2.95455 0.514451 0
M  V30 290 H 25.6368 1.54582 0.231089 0
M  V30 291 H 26.3718 1.70171 2.76066 0
M  V30 292 H 26.1568 3.33371 2.06412 0
M  V30 293 H 27.6468 2.93512 2.97053 0
M  V30 294 N 28.0839 -0.256276 1.55502 0
M  V30 295 C 29.3119 -1.00342 1.8094 0
M  V30 296 C 29.7269 -1.79307 0.59114 0
M  V30 297 O 29.0839 -1.77114 -0.440081 0
M  V30 298 C 29.1349 -1.94875 3.04476 0
M  V30 299 O 28.8559 -1.19107 4.21598 0
M  V30 300 C 30.3569 -2.81266 3.42644 0
M  V30 301 H 27.5769 -0.295685 0.602338 0
M  V30 302 H 30.1209 -0.281998 2.02546 0
M  V30 303 H 28.2759 -2.62457 2.84947 0
M  V30 304 H 28.6899 -1.82969 4.91551 0
M  V30 305 H 30.1639 -3.43362 4.32211 0
M  V30 306 H 30.6409 -3.51897 2.62802 0
M  V30 307 H 31.2469 -2.1915 3.64491 0
M  V30 308 N 29.562 -1.4872 -0.521534 0
M  V30 309 C 30.811 -1.56419 -1.27341 0
M  V30 310 C 31.124 -0.246805 -1.94037 0
M  V30 311 O 32.33 -0.202122 -2.70747 0
M  V30 312 C 30.786 -2.75896 -2.31105 0
M  V30 313 C 30.394 -4.14311 -1.70441 0
M  V30 314 C 32.138 -2.92913 -3.07249 0
M  V30 315 C 30.045 -5.25038 -2.72194 0
M  V30 316 H 28.975 -0.582344 -0.478949 0
M  V30 317 H 31.626 -1.75071 -0.549779 0
M  V30 318 H 30.008 -2.50697 -3.06541 0
M  V30 319 H 31.182 -4.49564 -1.01136 0
M  V30 320 H 29.497 -4.02482 -1.06759 0
M  V30 321 H 32.094 -3.72805 -3.83302 0
M  V30 322 H 32.437 -2.02689 -3.63625 0
M  V30 323 H 32.97 -3.18054 -2.38928 0
M  V30 324 H 29.709 -6.17255 -2.20627 0
M  V30 325 H 29.229 -4.94263 -3.39801 0
M  V30 326 H 30.908 -5.53508 -3.35019 0
M  V30 327 N 31.0401 0.771051 -1.3745 0
M  V30 328 C 31.9701 1.89827 -1.3597 0
M  V30 329 C 32.9511 1.68562 -0.228216 0
M  V30 330 O 34.1361 1.8941 -0.428675 0
M  V30 331 C 31.2661 3.2712 -1.16662 0
M  V30 332 C 30.2201 3.6295 -2.2683 0
M  V30 333 C 29.5461 4.98791 -1.92644 0
M  V30 334 C 30.8461 3.69627 -3.69017 0
M  V30 335 H 32.5401 1.91323 -2.30295 0
M  V30 336 H 30.0861 0.919082 -1.10855 0
M  V30 337 H 32.0391 4.05615 -1.14256 0
M  V30 338 H 30.7631 3.26059 -0.187926 0
M  V30 339 H 29.4221 2.86763 -2.28392 0
M  V30 340 H 29.0701 4.94271 -0.933021 0
M  V30 341 H 28.7701 5.23733 -2.66416 0
M  V30 342 H 30.2941 5.79685 -1.91826 0
M  V30 343 H 31.7081 4.38273 -3.69581 0
M  V30 344 H 30.1051 4.06067 -4.41848 0
M  V30 345 H 31.1751 2.70273 -4.02592 0
M  V30 346 N 32.5182 1.22032 0.997298 0
M  V30 347 C 33.7582 1.05375 1.75144 0
M  V30 348 C 34.1222 -0.404696 1.87686 0
M  V30 349 O 35.3232 -0.691998 2.5974 0
M  V30 350 C 33.5942 1.74046 3.12158 0
M  V30 351 S 35.1532 1.72745 4.03366 0
M  V30 352 H 31.9712 0.377449 0.602539 0
M  V30 353 H 34.5732 1.54902 1.19272 0
M  V30 354 H 33.2772 2.79332 3.00669 0
M  V30 355 H 32.8082 1.24731 3.73103 0
M  V30 356 H 34.8232 0.774015 4.90126 0
M  V30 357 N 33.9963 -1.19345 1.0293 0
M  V30 358 C 34.9263 -2.2481 0.631105 0
M  V30 359 C 35.9073 -1.66245 -0.360104 0
M  V30 360 O 37.0923 -1.92677 -0.242726 0
M  V30 361 C 34.2223 -3.47295 -0.0184607 0
M  V30 362 C 33.1763 -4.18536 0.895073 0
M  V30 363 C 32.5023 -5.34586 0.110592 0
M  V30 364 C 33.8023 -4.73287 2.209 0
M  V30 365 H 35.4963 -2.58372 1.51275 0
M  V30 366 H 33.0423 -1.24194 0.728818 0
M  V30 367 H 34.9953 -4.20268 -0.308675 0
M  V30 368 H 33.7193 -3.12933 -0.934907 0
M  V30 369 H 32.3783 -3.47446 1.16949 0
M  V30 370 H 32.0263 -4.96469 -0.807902 0
M  V30 371 H 31.7263 -5.83183 0.719087 0
M  V30 372 H 33.2503 -6.10355 -0.172871 0
M  V30 373 H 34.6643 -5.38013 1.98028 0
M  V30 374 H 33.0613 -5.32373 2.76946 0
M  V30 375 H 34.1313 -3.91331 2.86336 0
M  V30 376 N 35.4744 -0.807222 -1.35358 0
M  V30 377 C 36.4044 -0.232509 -2.3234 0
M  V30 378 C 37.3854 0.642386 -1.57504 0
M  V30 379 O 38.5704 0.572526 -1.85569 0
M  V30 380 C 35.7004 0.619238 -3.41735 0
M  V30 381 C 34.6544 -0.157215 -4.27711 0
M  V30 382 C 33.9804 0.816273 -5.28433 0
M  V30 383 C 35.2804 -1.35656 -5.04376 0
M  V30 384 H 36.9744 -1.04276 -2.80654 0
M  V30 385 H 34.5204 -0.50288 -1.34934 0
M  V30 386 H 36.4734 1.03137 -4.08584 0
M  V30 387 H 35.1974 1.46239 -2.92031 0
M  V30 388 H 33.8564 -0.550525 -3.62443 0
M  V30 389 H 33.5044 1.65494 -4.74996 0
M  V30 390 H 33.2044 0.301067 -5.86828 0
M  V30 391 H 34.7284 1.22659 -5.98153 0
M  V30 392 H 36.1424 -1.01927 -5.64166 0
M  V30 393 H 34.5394 -1.8063 -5.7227 0
M  V30 394 H 35.6094 -2.14288 -4.34981 0
M  V30 395 N 36.9525 1.47285 -0.560781 0
M  V30 396 C 37.9155 2.28535 0.174488 0
M  V30 397 C 38.9155 1.37153 0.839388 0
M  V30 398 O 40.1055 1.59748 0.694702 0
M  V30 399 C 37.2375 3.16934 1.25561 0
M  V30 400 H 38.4305 2.95012 -0.539262 0
M  V30 401 H 35.9835 1.53034 -0.317865 0
M  V30 402 H 36.7185 2.55157 2.00164 0
M  V30 403 H 36.5035 3.8419 0.783604 0
M  V30 404 H 37.9935 3.78143 1.77193 0
M  V30 405 N 38.4306 0.297415 1.54768 0
M  V30 406 C 39.6766 -0.306263 2.01081 0
M  V30 407 C 40.0316 -1.518 1.18214 0
M  V30 408 O 39.3246 -1.89967 0.249613 0
M  V30 409 C 39.5186 -0.717561 3.50123 0
M  V30 410 C 39.3476 0.45277 4.47415 0
M  V30 411 C 38.1176 0.943651 4.9641 0
M  V30 412 C 40.3156 1.29657 4.97688 0
M  V30 413 N 38.2976 2.08112 5.77549 0
M  V30 414 C 39.6686 2.28158 5.76493 0
M  V30 415 C 41.7236 1.32735 4.79881 0
M  V30 416 C 40.4266 3.29509 6.39387 0
M  V30 417 C 42.4526 2.32943 5.43591 0
M  V30 418 C 41.8146 3.30174 6.22225 0
M  V30 419 H 37.9136 -0.0766274 0.778237 0
M  V30 420 H 40.4976 0.426515 1.89971 0
M  V30 421 H 38.6686 -1.41952 3.6153 0
M  V30 422 H 40.4006 -1.30047 3.83236 0
M  V30 423 H 37.1556 0.51922 4.70745 0
M  V30 424 H 37.5796 2.65414 6.22803 0
M  V30 425 H 42.2216 0.589375 4.18672 0
M  V30 426 H 39.9396 4.04228 6.99732 0
M  V30 427 H 43.5256 2.36094 5.31743 0
M  V30 428 H 42.4056 4.06445 6.7065 0
M  V30 429 N 39.9087 -1.5758 0.0250728 0
M  V30 430 C 40.8717 -2.08896 -0.943139 0
M  V30 431 C 41.8717 -1.00321 -1.25668 0
M  V30 432 O 43.0617 -1.26495 -1.19769 0
M  V30 433 C 40.1937 -2.55143 -2.26086 0
M  V30 434 H 41.3867 -2.95723 -0.498775 0
M  V30 435 H 38.9397 -1.54703 -0.222888 0
M  V30 436 H 39.6747 -1.71633 -2.75159 0
M  V30 437 H 39.4597 -3.34461 -2.04641 0
M  V30 438 H 40.9497 -2.95083 -2.95492 0
M  V30 439 N 41.3868 0.248026 -1.55636 0
M  V30 440 C 42.6348 0.974295 -1.77065 0
M  V30 441 C 42.9558 1.85897 -0.588849 0
M  V30 442 O 42.2258 1.91868 0.395407 0
M  V30 443 H 40.8058 0.362733 -0.653019 0
M  V30 444 H 43.4678 0.266244 -1.93073 0
M  V30 445 H 42.5638 1.59667 -2.68166 0
M  V30 446 N 42.8649 1.48995 0.513639 0
M  V30 447 C 43.7949 1.67636 1.62544 0
M  V30 448 C 44.7759 0.525087 1.61793 0
M  V30 449 O 45.9609 0.759502 1.78732 0
M  V30 450 C 43.0909 1.73114 3.01079 0
M  V30 451 C 42.0449 2.87905 3.16693 0
M  V30 452 C 41.3709 2.78486 4.56453 0
M  V30 453 C 42.6709 4.29005 2.97913 0
M  V30 454 H 44.3649 2.60716 1.47198 0
M  V30 455 H 41.9109 1.25465 0.706714 0
M  V30 456 H 43.8639 1.84742 3.78746 0
M  V30 457 H 42.5879 0.766241 3.17484 0
M  V30 458 H 41.2469 2.75859 2.41448 0
M  V30 459 H 40.8949 1.7993 4.69717 0
M  V30 460 H 40.5949 3.55523 4.67843 0
M  V30 461 H 42.1189 2.92104 5.36197 0
M  V30 462 H 43.5329 4.41798 3.65359 0
M  V30 463 H 41.9299 5.07166 3.20785 0
M  V30 464 H 42.9999 4.44329 1.94165 0
M  V30 465 N 44.343 -0.763751 1.37857 0
M  V30 466 C 45.306 -1.85889 1.34081 0
M  V30 467 C 46.306 -1.58949 0.243277 0
M  V30 468 O 47.496 -1.66882 0.499589 0
M  V30 469 C 44.628 -3.23176 1.08489 0
M  V30 470 H 45.821 -1.90648 2.31502 0
M  V30 471 H 43.374 -0.964367 1.23003 0
M  V30 472 H 44.109 -3.24091 0.116318 0
M  V30 473 H 43.894 -3.44124 1.8794 0
M  V30 474 H 45.384 -4.03254 1.08517 0
M  V30 475 N 45.8211 -1.22559 -0.990812 0
M  V30 476 C 46.7841 -0.998863 -2.0629 0
M  V30 477 C 47.7841 0.0354834 -1.60761 0
M  V30 478 O 48.9741 -0.203231 -1.7301 0
M  V30 479 C 46.1061 -0.509203 -3.37076 0
M  V30 480 H 47.2991 -1.95014 -2.27837 0
M  V30 481 H 44.8521 -1.04456 -1.16269 0
M  V30 482 H 45.5871 0.446335 -3.21214 0
M  V30 483 H 45.3721 -1.25547 -3.71457 0
M  V30 484 H 46.8621 -0.370888 -4.1595 0
M  V30 485 N 47.2992 1.18797 -1.03562 0
M  V30 486 C 48.5472 1.88278 -0.734569 0
M  V30 487 C 48.8682 1.8043 0.739586 0
M  V30 488 O 48.1382 1.21925 1.53333 0
M  V30 489 H 46.7182 0.696991 -0.268725 0
M  V30 490 H 49.3802 1.44192 -1.31129 0
M  V30 491 H 48.4762 2.94443 -1.03489 0
M  V30 492 N 48.7773 0.814389 1.34928 0
M  V30 493 C 50.0543 0.321363 1.92942 0
M  V30 494 C 50.4343 -1.19014 1.74353 0
M  V30 495 O 49.7823 -1.99328 1.11716 0
M  V30 496 C 49.9923 0.741323 3.41036 0
M  V30 497 C 51.3403 0.735266 4.18185 0
M  V30 498 O 52.3643 0.68336 3.49584 0
M  V30 499 O 51.2233 0.800703 5.40602 0
M  V30 500 H 48.3173 0.0858893 0.822528 0
M  V30 501 H 50.8633 0.898609 1.43955 0
M  V30 502 H 49.6353 1.78276 3.4833 0
M  V30 503 H 49.2583 0.139307 3.97356 0
M  V30 504 N 50.2554 -1.46986 0.568584 0
M  V30 505 C 51.6714 -1.57946 0.229189 0
M  V30 506 C 51.8714 -1.56567 -1.26843 0
M  V30 507 O 50.9274 -1.47511 -2.04931 0
M  V30 508 C 52.2404 -2.87963 0.865909 0
M  V30 509 C 53.7884 -3.01568 0.838188 0
M  V30 510 C 54.2634 -4.34301 1.45419 0
M  V30 511 N 55.7544 -4.40965 1.41788 0
M  V30 512 C 56.4894 -5.42256 1.86403 0
M  V30 513 N 55.9854 -6.50297 2.38926 0
M  V30 514 N 57.7784 -5.3337 1.77405 0
M  V30 515 H 49.9294 -1.46126 1.54146 0
M  V30 516 H 52.1924 -0.696156 0.643484 0
M  V30 517 H 51.8984 -2.94742 1.91886 0
M  V30 518 H 51.7724 -3.75423 0.365687 0
M  V30 519 H 54.1594 -2.94379 -0.206106 0
M  V30 520 H 54.2404 -2.1562 1.37629 0
M  V30 521 H 53.8844 -4.42247 2.49761 0
M  V30 522 H 53.8144 -5.19 0.891435 0
M  V30 523 H 56.3054 -3.63484 1.03381 0
M  V30 524 H 56.6184 -7.23777 2.70863 0
M  V30 525 H 54.9634 -6.51155 2.42944 0
M  V30 526 H 58.1544 -4.47865 1.3614 0
M  V30 527 H 58.3274 -6.12169 2.12492 0
M  V30 528 N 51.7335 -0.305618 -1.54608 0
M  V30 529 C 52.9795 0.302746 -2.00528 0
M  V30 530 C 53.3125 1.53184 -1.19367 0
M  V30 531 O 52.5875 1.92598 -0.271321 0
M  V30 532 C 52.8705 0.654756 -3.54097 0
M  V30 533 C 52.7235 -0.583793 -4.45995 0
M  V30 534 C 54.0425 1.47947 -4.14487 0
M  V30 535 H 51.1615 0.108564 -0.72896 0
M  V30 536 H 53.8035 -0.418634 -1.85331 0
M  V30 537 H 51.9535 1.26935 -3.67178 0
M  V30 538 H 53.6255 -1.22224 -4.44814 0
M  V30 539 H 51.8685 -1.21615 -4.16404 0
M  V30 540 H 52.5395 -0.293287 -5.5122 0
M  V30 541 H 55.0155 0.96013 -4.04871 0
M  V30 542 H 53.8915 1.69454 -5.22088 0
M  V30 543 H 54.1525 2.47011 -3.66658 0
M  V30 544 N 53.2116 1.57565 -0.0334293 0
M  V30 545 C 54.4416 1.95996 0.653398 0
M  V30 546 C 54.8496 0.908749 1.65947 0
M  V30 547 O 54.1926 -0.117471 1.83324 0
M  V30 548 C 54.2546 3.30589 1.41249 0
M  V30 549 C 53.9186 4.53503 0.564263 0
M  V30 550 C 54.9156 5.19647 -0.16225 0
M  V30 551 C 52.6006 4.99801 0.500398 0
M  V30 552 C 54.5946 6.30412 -0.941255 0
M  V30 553 C 52.2816 6.10448 -0.282308 0
M  V30 554 C 53.2796 6.75612 -1.00184 0
M  V30 555 O 52.9676 7.84134 -1.77171 0
M  V30 556 H 52.6996 0.65027 0.184728 0
M  V30 557 H 55.2536 2.05199 -0.0907841 0
M  V30 558 H 53.4836 3.17888 2.20191 0
M  V30 559 H 55.1726 3.53892 1.98784 0
M  V30 560 H 55.9386 4.84846 -0.12227 0
M  V30 561 H 51.8176 4.48883 1.05002 0
M  V30 562 H 55.3616 6.81208 -1.50339 0
M  V30 563 H 51.2586 6.44686 -0.323989 0
M  V30 564 H 52.0266 8.00822 -1.69194 0
M  V30 565 N 54.6897 -0.239769 1.55765 0
M  V30 566 C 55.9387 -0.964754 1.77131 0
M  V30 567 C 56.2517 -1.86213 0.59868 0
M  V30 568 O 57.4577 -2.6244 0.695522 0
M  V30 569 C 55.9137 -1.76552 3.1362 0
M  V30 570 C 55.5217 -0.915185 4.38553 0
M  V30 571 C 57.2657 -2.48281 3.44321 0
M  V30 572 C 55.1727 -1.71225 5.66071 0
M  V30 573 H 54.1027 -0.363953 0.660344 0
M  V30 574 H 56.7537 -0.219181 1.82186 0
M  V30 575 H 55.1357 -2.55331 3.02691 0
M  V30 576 H 56.3097 -0.169217 4.60489 0
M  V30 577 H 54.6247 -0.310889 4.15238 0
M  V30 578 H 57.2217 -3.08382 4.36812 0
M  V30 579 H 57.5647 -3.20256 2.65973 0
M  V30 580 H 58.0977 -1.76507 3.56497 0
M  V30 581 H 54.8367 -1.03612 6.4726 0
M  V30 582 H 54.3567 -2.43331 5.48224 0
M  V30 583 H 56.0357 -2.27758 6.05587 0
M  V30 584 N 56.1678 -1.49265 -0.50573 0
M  V30 585 C 57.1178 -1.6198 -1.60457 0
M  V30 586 C 58.1018 -0.47568 -1.53708 0
M  V30 587 O 59.2938 -0.728392 -1.61318 0
M  V30 588 C 56.4228 -1.68526 -2.99089 0
M  V30 589 C 55.5088 -2.885 -3.10852 0
M  V30 590 N 55.8998 -4.12635 -2.92517 0
M  V30 591 C 54.1978 -2.86338 -3.41945 0
M  V30 592 C 54.8988 -4.93258 -3.08337 0
M  V30 593 N 53.8748 -4.26533 -3.37003 0
M  V30 594 H 57.6768 -2.55681 -1.44928 0
M  V30 595 H 55.1908 -1.45972 -0.711752 0
M  V30 596 H 57.1878 -1.75732 -3.78053 0
M  V30 597 H 55.8478 -0.759584 -3.1569 0
M  V30 598 H 56.8588 -4.42689 -2.68787 0
M  V30 599 H 53.5358 -2.03129 -3.64753 0
M  V30 600 H 54.9258 -6.01856 -2.98695 0
M  V30 601 N 57.6459 0.756429 -1.3826 0
M  V30 602 C 59.0569 1.33359 -1.30661 0
M  V30 603 C 59.4079 1.96161 0.0388875 0
M  V30 604 O 58.5329 1.94874 0.940918 0
M  V30 605 C 59.1279 2.42477 -2.36622 0
M  V30 606 C 57.6869 2.95922 -2.3261 0
M  V30 607 C 56.8339 1.69275 -2.19639 0
M  V30 608 H 59.7849 0.55552 -1.4866 0
M  V30 609 H 59.8059 3.22345 -2.02174 0
M  V30 610 H 59.3179 1.96739 -3.34538 0
M  V30 611 H 57.4189 3.45996 -1.38267 0
M  V30 612 H 57.5319 3.50494 -3.26636 0
M  V30 613 H 55.8959 1.92793 -1.66442 0
M  V30 614 H 56.6789 1.25619 -3.19491 0
M  V30 615 N 59.124 1.23083 0.984299 0
M  V30 616 C 60.371 1.06057 1.72505 0
M  V30 617 C 60.699 -0.403105 1.90277 0
M  V30 618 O 59.954 -1.3149 1.44944 0
M  V30 619 C 60.253 1.72673 3.1292 0
M  V30 620 C 59.919 3.22586 3.15038 0
M  V30 621 C 58.581 3.63489 3.15324 0
M  V30 622 C 60.933 4.185 3.10657 0
M  V30 623 C 58.261 4.98772 3.08939 0
M  V30 624 C 60.613 5.53769 3.05814 0
M  V30 625 C 59.277 5.94041 3.04419 0
M  V30 626 H 58.547 0.388091 0.631242 0
M  V30 627 H 61.194 1.52963 1.15215 0
M  V30 628 H 59.499 1.18116 3.73572 0
M  V30 629 H 61.196 1.56982 3.68996 0
M  V30 630 H 57.786 2.90022 3.15571 0
M  V30 631 H 61.97 3.87911 3.09579 0
M  V30 632 H 57.226 5.29193 3.0621 0
M  V30 633 H 61.4 6.27808 3.0138 0
M  V30 634 H 59.027 6.98833 2.99227 0
M  V30 635 N 60.6021 -1.18246 1.0419 0
M  V30 636 C 61.5521 -2.19843 0.604392 0
M  V30 637 C 62.5361 -1.56962 -0.353814 0
M  V30 638 O 63.7281 -1.76156 -0.17267 0
M  V30 639 C 60.8571 -3.43287 -0.0298975 0
M  V30 640 C 59.9431 -4.13288 0.951531 0
M  V30 641 N 60.3341 -4.59271 2.11906 0
M  V30 642 C 58.6321 -4.39165 0.7778 0
M  V30 643 C 59.3331 -5.13173 2.73912 0
M  V30 644 N 58.3091 -5.04763 2.01779 0
M  V30 645 H 62.1111 -2.53089 1.4941 0
M  V30 646 H 59.6251 -1.34465 0.910658 0
M  V30 647 H 61.6221 -4.15334 -0.361037 0
M  V30 648 H 60.2821 -3.11537 -0.915127 0
M  V30 649 H 61.2931 -4.5368 2.49789 0
M  V30 650 H 57.9701 -4.17461 -0.0572331 0
M  V30 651 H 59.3601 -5.58947 3.72864 0
M  V30 652 N 62.0802 -0.821533 -1.34494 0
M  V30 653 C 63.0102 -0.257138 -2.3208 0
M  V30 654 C 63.9912 0.625645 -1.58176 0
M  V30 655 O 65.1762 0.552811 -1.86166 0
M  V30 656 C 62.3062 0.582958 -3.42372 0
M  V30 657 C 61.2602 -0.202571 -4.2752 0
M  V30 658 C 60.5862 0.760179 -5.29269 0
M  V30 659 C 61.8862 -1.40998 -5.02908 0
M  V30 660 H 63.5802 -1.07247 -2.79532 0
M  V30 661 H 61.1262 -0.517163 -1.34393 0
M  V30 662 H 63.0792 0.987972 -4.09655 0
M  V30 663 H 61.8032 1.43133 -2.93565 0
M  V30 664 H 60.4622 -0.588936 -3.61838 0
M  V30 665 H 60.1102 1.60447 -4.76724 0
M  V30 666 H 59.8102 0.238809 -5.87115 0
M  V30 667 H 61.3342 1.16308 -5.9942 0
M  V30 668 H 62.7482 -1.07905 -5.63054 0
M  V30 669 H 61.1452 -1.86689 -5.70322 0
M  V30 670 H 62.2152 -2.1889 -4.32684 0
M  V30 671 N 63.5583 1.46682 -0.576371 0
M  V30 672 C 64.8043 2.02712 -0.0596221 0
M  V30 673 C 65.1373 1.44765 1.29448 0
M  V30 674 O 64.4123 0.610355 1.84675 0
M  V30 675 C 64.6953 3.60098 0.0129503 0
M  V30 676 C 64.5483 4.28441 -1.3696 0
M  V30 677 C 65.8673 4.34224 0.71678 0
M  V30 678 H 62.9863 0.736637 -0.0231407 0
M  V30 679 H 65.6283 1.74898 -0.742351 0
M  V30 680 H 63.7783 3.83926 0.594378 0
M  V30 681 H 65.4503 4.15896 -1.9957 0
M  V30 682 H 63.6933 3.8805 -1.93907 0
M  V30 683 H 64.3643 5.3716 -1.27135 0
M  V30 684 H 66.8403 4.15503 0.222908 0
M  V30 685 H 65.7163 5.43936 0.73657 0
M  V30 686 H 65.9773 4.04823 1.77682 0
M  V30 687 N 65.0364 0.313813 1.54444 0
M  V30 688 C 66.2854 -0.292519 1.99568 0
M  V30 689 C 66.5984 -1.54011 1.20582 0
M  V30 690 O 67.8044 -2.22183 1.56035 0
M  V30 691 C 66.2604 -0.571752 3.55329 0
M  V30 692 C 65.8684 0.658229 4.43138 0
M  V30 693 C 67.6124 -1.13857 4.08946 0
M  V30 694 C 65.5194 0.351439 5.90355 0
M  V30 695 H 64.4494 -0.113079 0.745472 0
M  V30 696 H 67.1004 0.424518 1.78522 0
M  V30 697 H 65.4824 -1.34872 3.72325 0
M  V30 698 H 66.6564 1.43403 4.37918 0
M  V30 699 H 64.9714 1.14458 4.0036 0
M  V30 700 H 67.5684 -1.38257 5.16516 0
M  V30 701 H 67.9114 -2.08489 3.6033 0
M  V30 702 H 68.4444 -0.423015 3.95544 0
M  V30 703 H 65.1834 1.26667 6.43145 0
M  V30 704 H 64.7034 -0.386842 5.98551 0
M  V30 705 H 66.3824 -0.0423134 6.46986 0
M  V30 706 N 66.5145 -1.57545 0.0417849 0
M  V30 707 C 67.4645 -2.07483 -0.945247 0
M  V30 708 C 68.4485 -0.977983 -1.27767 0
M  V30 709 O 69.6405 -1.24142 -1.26166 0
M  V30 710 C 66.7695 -2.61576 -2.22335 0
M  V30 711 C 65.8555 -3.78213 -1.91874 0
M  V30 712 N 66.2465 -4.88344 -1.31733 0
M  V30 713 C 64.5445 -3.8694 -2.21796 0
M  V30 714 C 65.2455 -5.69462 -1.1869 0
M  V30 715 N 64.2215 -5.16771 -1.68666 0
M  V30 716 H 68.0235 -2.90029 -0.475441 0
M  V30 717 H 65.5375 -1.61581 -0.162911 0
M  V30 718 H 67.5345 -2.95651 -2.93932 0
M  V30 719 H 66.1945 -1.80465 -2.69931 0
M  V30 720 H 67.2055 -5.08335 -0.990729 0
M  V30 721 H 63.8825 -3.16757 -2.71977 0
M  V30 722 H 65.2725 -6.68023 -0.720793 0
M  V30 723 N 67.9926 0.231505 -1.5589 0
M  V30 724 C 68.9406 1.30649 -1.92441 0
M  V30 725 C 69.9346 1.49037 -0.805254 0
M  V30 726 O 71.1406 1.50329 -0.990007 0
M  V30 727 H 67.5156 0.437812 -0.611412 0
M  V30 728 H 69.4866 0.970973 -2.82161 0
M  V30 729 C 68.2356 2.65179 -2.24889 0
M  V30 730 H 67.5586 2.51835 -3.10514 0
M  V30 731 H 68.9986 3.39234 -2.54355 0
M  V30 732 C 67.4576 3.19439 -1.07054 0
M  V30 733 O 67.9876 4.00371 -0.326499 0
M  V30 734 N 66.1936 2.77675 -0.85703 0
M  V30 735 H 65.7406 2.11969 -1.46379 0
M  V30 736 H 65.6986 3.14321 -0.0703223 0
M  V30 737 N 69.4707 1.49531 0.497807 0
M  V30 738 C 70.3807 1.69176 1.62532 0
M  V30 739 C 71.3967 0.5744 1.64246 0
M  V30 740 O 72.5727 0.849497 1.82608 0
M  V30 741 C 69.6377 1.75695 2.98885 0
M  V30 742 C 68.6987 2.9929 3.07773 0
M  V30 743 C 67.9317 3.05488 4.37622 0
M  V30 744 O 68.1547 2.19192 5.26603 0
M  V30 745 O 67.0887 3.9798 4.51548 0
M  V30 746 H 70.9147 2.647 1.48887 0
M  V30 747 H 68.4997 1.3331 0.674441 0
M  V30 748 H 70.3817 1.82317 3.79919 0
M  V30 749 H 69.0567 0.8335 3.12785 0
M  V30 750 H 67.9637 2.98183 2.25915 0
M  V30 751 H 69.2967 3.91125 2.98801 0
M  V30 752 N 70.9488 -0.749086 1.3866 0
M  V30 753 C 72.1738 -1.54344 1.38538 0
M  V30 754 C 72.5988 -1.88088 -0.0216655 0
M  V30 755 O 71.9568 -1.50899 -1.00494 0
M  V30 756 C 72.0048 -2.8164 2.25192 0
M  V30 757 O 71.1088 -3.7698 1.67212 0
M  V30 758 H 70.4498 -0.466654 0.472367 0
M  V30 759 H 72.9798 -0.925355 1.82478 0
M  V30 760 H 72.9898 -3.30519 2.3921 0
M  V30 761 H 71.6648 -2.56411 3.27454 0
M  V30 762 H 70.2418 -3.35699 1.6236 0
M  V30 763 N 72.4269 -1.23603 -0.977757 0
M  V30 764 C 73.6549 -1.09646 -1.75458 0
M  V30 765 C 74.0699 0.351859 -1.85492 0
M  V30 766 O 73.4269 1.24327 -1.336 0
M  V30 767 C 73.4779 -1.71895 -3.18016 0
M  V30 768 O 73.1989 -3.11063 -3.08498 0
M  V30 769 C 74.6999 -1.63415 -4.12081 0
M  V30 770 H 71.9199 -0.38359 -0.550545 0
M  V30 771 H 74.4639 -1.63507 -1.22824 0
M  V30 772 H 72.6189 -1.22061 -3.67668 0
M  V30 773 H 73.0329 -3.41305 -3.9826 0
M  V30 774 H 74.5069 -2.11669 -5.09804 0
M  V30 775 H 74.9839 -0.593462 -4.35172 0
M  V30 776 H 75.5899 -2.12628 -3.68334 0
M  V30 777 N 73.905 1.17692 -1.04816 0
M  V30 778 C 75.145 1.89545 -0.764979 0
M  V30 779 C 75.509 1.78979 0.695028 0
M  V30 780 O 76.71 2.45613 1.09215 0
M  V30 781 C 74.981 3.35659 -1.22751 0
M  V30 782 S 76.54 4.25526 -1.07112 0
M  V30 783 H 73.358 0.654432 -0.27792 0
M  V30 784 H 75.96 1.42163 -1.34201 0
M  V30 785 H 74.664 3.40882 -2.28533 0
M  V30 786 H 74.195 3.88083 -0.644594 0
M  V30 787 H 76.21 4.962 0.00697508 0
M  V30 788 N 75.3831 0.828654 1.34056 0
M  V30 789 C 76.2931 0.256725 2.33191 0
M  V30 790 C 77.3091 -0.611898 1.62886 0
M  V30 791 O 78.4851 -0.51844 1.94613 0
M  V30 792 C 75.5501 -0.567238 3.42028 0
M  V30 793 C 74.6111 0.324458 4.28072 0
M  V30 794 C 73.8441 -0.460274 5.31712 0
M  V30 795 O 74.0671 -1.693 5.44696 0
M  V30 796 O 73.0011 0.160391 6.01686 0
M  V30 797 H 76.8271 1.07739 2.83947 0
M  V30 798 H 74.4121 0.59093 1.37217 0
M  V30 799 H 76.2941 -1.03582 4.08471 0
M  V30 800 H 74.9691 -1.36513 2.93506 0
M  V30 801 H 73.8761 0.840659 3.64532 0
M  V30 802 H 75.2091 1.08685 4.8005 0
M  V30 803 N 76.8612 -1.46375 0.584142 0
M  V30 804 C 77.7932 -2.28443 -0.186119 0
M  V30 805 C 78.8062 -1.38596 -0.854115 0
M  V30 806 O 79.9952 -1.63183 -0.723438 0
M  V30 807 C 77.0952 -3.13671 -1.28311 0
M  V30 808 C 76.2682 -4.31652 -0.706758 0
M  V30 809 C 75.3272 -4.98267 -1.69163 0
M  V30 810 O 74.3532 -5.55815 -1.22712 0
M  V30 811 N 75.5552 -4.95408 -3.02575 0
M  V30 812 H 78.3202 -2.9519 0.517986 0
M  V30 813 H 75.8812 -1.56303 0.42201 0
M  V30 814 H 77.8732 -3.55101 -1.94128 0
M  V30 815 H 76.4432 -2.48989 -1.89005 0
M  V30 816 H 75.6632 -3.93989 0.128908 0
M  V30 817 H 76.9512 -5.07906 -0.301506 0
M  V30 818 H 76.3492 -4.49902 -3.42936 0
M  V30 819 H 74.9062 -5.40774 -3.63877 0
M  V30 820 N 78.3393 -0.321999 -1.54275 0
M  V30 821 C 79.2693 0.537411 -2.27231 0
M  V30 822 C 80.2503 1.12064 -1.27968 0
M  V30 823 O 81.4353 1.14606 -1.56777 0
M  V30 824 C 78.5653 1.69919 -3.02894 0
M  V30 825 C 77.5193 1.24534 -4.09482 0
M  V30 826 C 76.8453 2.49394 -4.72977 0
M  V30 827 C 78.1453 0.361335 -5.21049 0
M  V30 828 H 79.8393 -0.0711406 -2.99315 0
M  V30 829 H 77.3853 -0.0356555 -1.43956 0
M  V30 830 H 79.3383 2.30668 -3.52662 0
M  V30 831 H 78.0623 2.33431 -2.28424 0
M  V30 832 H 76.7213 0.660782 -3.60596 0
M  V30 833 H 76.3693 3.11265 -3.95124 0
M  V30 834 H 76.0693 2.19718 -5.44975 0
M  V30 835 H 77.5933 3.10908 -5.25517 0
M  V30 836 H 79.0073 0.875072 -5.66582 0
M  V30 837 H 77.4043 0.157428 -5.99893 0
M  V30 838 H 78.4743 -0.60822 -4.8107 0
M  V30 839 N 79.8174 1.5752 -0.0501392 0
M  V30 840 C 80.7804 2.1037 0.909786 0
M  V30 841 C 81.7804 1.02308 1.24056 0
M  V30 842 O 82.9704 1.28385 1.17741 0
M  V30 843 C 80.1024 2.58708 2.21998 0
M  V30 844 H 81.2954 2.96479 0.451665 0
M  V30 845 H 78.8484 1.55038 0.198248 0
M  V30 846 H 79.5834 1.75989 2.72394 0
M  V30 847 H 79.3684 3.37675 1.99295 0
M  V30 848 H 80.8584 2.99747 2.9076 0
M  V30 849 N 81.2955 -0.223234 1.56011 0
M  V30 850 C 82.2425 -1.27664 1.92277 0
M  V30 851 C 83.2125 -1.46659 0.779763 0
M  V30 852 O 84.3975 -1.60256 1.03551 0
M  V30 853 C 81.5375 -2.62234 2.24338 0
M  V30 854 C 80.6505 -2.51051 3.51564 0
M  V30 855 C 79.7855 -3.78133 3.7308 0
M  V30 856 C 78.8245 -3.61665 4.93827 0
M  V30 857 N 77.9615 -4.80693 5.11741 0
M  V30 858 H 82.8015 -0.960358 2.82101 0
M  V30 859 H 80.3385 -0.462901 1.39627 0
M  V30 860 H 82.2965 -3.40596 2.40936 0
M  V30 861 H 80.9265 -2.91961 1.3769 0
M  V30 862 H 79.9785 -1.64132 3.43169 0
M  V30 863 H 81.2905 -2.34803 4.40079 0
M  V30 864 H 80.4445 -4.64938 3.89766 0
M  V30 865 H 79.1835 -3.97304 2.82844 0
M  V30 866 H 78.1885 -2.73244 4.77093 0
M  V30 867 H 79.4135 -3.43966 5.85546 0
M  V30 868 H 77.3595 -5.00181 4.24446 0
M  V30 869 H 77.2765 -4.67165 5.94384 0
M  V30 870 H 78.5445 -5.6893 5.3286 0
M  V30 871 N 82.7736 -1.49793 -0.48987 0
M  V30 872 C 83.7366 -1.66752 -1.57246 0
M  V30 873 C 84.7366 -0.538867 -1.51502 0
M  V30 874 O 85.9266 -0.805545 -1.54456 0
M  V30 875 C 83.0586 -1.67528 -2.96896 0
M  V30 876 H 84.2516 -2.63321 -1.43534 0
M  V30 877 H 81.8046 -1.38992 -0.714914 0
M  V30 878 H 82.5396 -0.725837 -3.16073 0
M  V30 879 H 82.3246 -2.49504 -3.02473 0
M  V30 880 H 83.8146 -1.82667 -3.7553 0
M  V30 881 N 84.2517 0.741722 -1.39055 0
M  V30 882 C 85.1997 1.87702 -1.3737 0
M  V30 883 C 86.1937 1.67427 -0.257812 0
M  V30 884 O 87.3997 1.7485 -0.427489 0
M  V30 885 H 83.7747 0.617757 -0.428812 0
M  V30 886 H 85.7457 1.86239 -2.33147 0
M  V30 887 C 84.4947 3.25315 -1.22741 0
M  V30 888 H 83.8177 3.41509 -2.07873 0
M  V30 889 H 85.2577 4.04964 -1.25618 0
M  V30 890 C 83.7167 3.36838 0.0647316 0
M  V30 891 O 84.2467 3.88073 1.03741 0
M  V30 892 N 82.4527 2.90329 0.125544 0
M  V30 893 H 81.9997 2.48823 -0.666682 0
M  V30 894 H 81.9577 2.98418 0.989639 0
M  V30 895 N 85.7298 1.2412 0.971189 0
M  V30 896 C 86.6928 1.03156 2.04674 0
M  V30 897 C 87.6928 -0.00990322 1.60797 0
M  V30 898 O 88.8828 0.230729 1.72665 0
M  V30 899 C 86.0148 0.562765 3.36223 0
M  V30 900 H 87.2078 1.98614 2.24705 0
M  V30 901 H 84.7608 1.06293 1.14593 0
M  V30 902 H 85.4958 -0.395176 3.21883 0
M  V30 903 H 85.2808 1.31441 3.69413 0
M  V30 904 H 86.7708 0.437015 4.15307 0
M  V30 905 N 87.2079 -1.17134 1.05439 0
M  V30 906 C 88.4559 -1.87085 0.764429 0
M  V30 907 C 88.7769 -1.81584 -0.710787 0
M  V30 908 O 88.0469 -1.24349 -1.51374 0
M  V30 909 H 86.6269 -0.692627 0.279779 0
M  V30 910 H 89.2889 -1.42087 1.33406 0
M  V30 911 H 88.3849 -2.92759 1.0816 0
M  V30 912 N 88.686 -0.835752 -1.33615 0
M  V30 913 C 89.633 -0.26473 -2.29277 0
M  V30 914 C 90.603 0.617712 -1.54187 0
M  V30 915 O 91.788 0.556641 -1.825 0
M  V30 916 C 88.928 0.556777 -3.40579 0
M  V30 917 C 88.041 -0.349339 -4.30585 0
M  V30 918 C 87.176 0.482969 -5.29 0
M  V30 919 C 86.215 -0.421732 -6.10645 0
M  V30 920 N 85.352 0.372262 -7.01112 0
M  V30 921 H 90.192 -1.08582 -2.77514 0
M  V30 922 H 87.729 -0.546927 -1.36554 0
M  V30 923 H 89.687 1.04852 -4.03809 0
M  V30 924 H 88.317 1.34286 -2.93542 0
M  V30 925 H 87.369 -0.959372 -3.68104 0
M  V30 926 H 88.681 -1.04445 -4.87742 0
M  V30 927 H 87.835 1.03866 -5.97743 0
M  V30 928 H 86.574 1.21153 -4.72412 0
M  V30 929 H 85.579 -0.989464 -5.40823 0
M  V30 930 H 86.804 -1.14861 -6.69316 0
M  V30 931 H 84.75 1.08426 -6.46977 0
M  V30 932 H 84.667 -0.264198 -7.55538 0
M  V30 933 H 85.935 0.910293 -7.74167 0
M  V30 934 N 90.1641 1.46063 -0.591896 0
M  V30 935 C 91.5751 1.85944 -0.167822 0
M  V30 936 C 91.9261 1.49429 1.27143 0
M  V30 937 O 91.0511 0.913515 1.96173 0
M  V30 938 C 91.6461 3.37489 -0.297794 0
M  V30 939 C 90.2051 3.76332 0.0714732 0
M  V30 940 C 89.3521 2.7006 -0.629509 0
M  V30 941 H 92.3031 1.37087 -0.799555 0
M  V30 942 H 92.3241 3.77532 0.474349 0
M  V30 943 H 91.8361 3.64034 -1.3454 0
M  V30 944 H 89.9371 3.55405 1.11886 0
M  V30 945 H 90.0501 4.78088 -0.311245 0
M  V30 946 H 88.4141 2.54607 -0.0687867 0
M  V30 947 H 89.1971 2.99444 -1.67894 0
M  V30 948 N 91.6422 0.330177 1.54103 0
M  V30 949 C 92.5892 -0.532762 2.24567 0
M  V30 950 C 93.5592 -1.10635 1.23892 0
M  V30 951 O 94.7442 -1.14546 1.5259 0
M  V30 952 C 91.8842 -1.6845 3.01195 0
M  V30 953 C 90.9972 -1.13951 4.167 0
M  V30 954 C 90.1322 -2.25746 4.80845 0
M  V30 955 C 89.1712 -1.6853 5.88442 0
M  V30 956 N 88.3082 -2.74014 6.46421 0
M  V30 957 H 93.1482 0.0746905 2.97906 0
M  V30 958 H 90.6852 0.048632 1.4702 0
M  V30 959 H 92.6432 -2.36234 3.43874 0
M  V30 960 H 91.2732 -2.26314 2.30178 0
M  V30 961 H 90.3252 -0.35301 3.78758 0
M  V30 962 H 91.6372 -0.680892 4.94131 0
M  V30 963 H 90.7912 -3.01422 5.26526 0
M  V30 964 H 89.5302 -2.74947 4.0281 0
M  V30 965 H 88.5352 -0.913543 5.42157 0
M  V30 966 H 89.7602 -1.20198 6.68378 0
M  V30 967 H 87.7062 -3.22494 5.71256 0
M  V30 968 H 87.6232 -2.32735 7.19285 0
M  V30 969 H 88.8912 -3.49499 6.96757 0
M  V30 970 N 93.1203 -1.57491 0.0584922 0
M  V30 971 C 94.3973 -1.84346 -0.653918 0
M  V30 972 C 94.7773 -0.948355 -1.88599 0
M  V30 973 O 94.1253 -0.0112403 -2.28497 0
M  V30 974 C 94.3353 -3.34239 -1.00425 0
M  V30 975 C 95.6833 -4.01431 -1.38342 0
M  V30 976 O 96.7073 -3.38907 -1.09637 0
M  V30 977 O 95.5663 -5.11683 -1.91943 0
M  V30 978 H 92.6603 -0.761112 -0.323478 0
M  V30 979 H 95.2063 -1.6947 0.0884125 0
M  V30 980 H 93.9783 -3.91089 -0.128625 0
M  V30 981 H 93.6013 -3.54329 -1.80378 0
M  V30 982 N 94.5984 0.214957 -1.56127 0
M  V30 983 C 96.0094 0.781386 -1.69562 0
M  V30 984 C 96.3604 1.84707 -0.66165 0
M  V30 985 O 95.4854 2.156 0.185927 0
M  V30 986 C 96.0804 1.42411 -3.07416 0
M  V30 987 C 94.6394 1.93786 -3.22683 0
M  V30 988 C 93.7864 0.800438 -2.65496 0
M  V30 989 H 96.7374 -0.00980633 -1.58697 0
M  V30 990 H 96.7584 2.29309 -3.0364 0
M  V30 991 H 96.2704 0.64826 -3.82648 0
M  V30 992 H 94.3714 2.74152 -2.52332 0
M  V30 993 H 94.4844 2.1133 -4.29973 0
M  V30 994 H 92.8484 1.2095 -2.2415 0
M  V30 995 H 93.6314 0.0371471 -3.4328 0
M  V30 996 N 96.0765 1.50051 0.48192 0
M  V30 997 C 97.3045 1.64237 1.25832 0
M  V30 998 C 97.7195 0.321336 1.86045 0
M  V30 999 O 97.0765 -0.695478 1.68729 0
M  V30 1000 C 97.1275 2.72548 2.37487 0
M  V30 1001 O 96.8485 3.99529 1.79745 0
M  V30 1002 C 98.3495 2.9761 3.28547 0
M  V30 1003 H 95.5695 0.55237 0.380957 0
M  V30 1004 H 98.1135 1.96207 0.576467 0
M  V30 1005 H 96.2685 2.43303 3.01467 0
M  V30 1006 H 96.6825 4.59342 2.5319 0
M  V30 1007 H 98.1565 3.77084 4.03127 0
M  V30 1008 H 98.6335 2.0826 3.86684 0
M  V30 1009 H 99.2395 3.28345 2.70314 0
M  V30 1010 N 97.5546 -0.734337 1.39446 0
M  V30 1011 C 98.8016 -1.49391 1.36706 0
M  V30 1012 C 99.1296 -1.94465 -0.0367813 0
M  V30 1013 O 98.3846 -1.67154 -1.01774 0
M  V30 1014 C 98.6836 -2.74711 2.28623 0
M  V30 1015 C 98.3496 -2.48501 3.76242 0
M  V30 1016 C 97.0116 -2.41062 4.16464 0
M  V30 1017 C 99.3636 -2.26098 4.69606 0
M  V30 1018 C 96.6916 -2.09262 5.48112 0
M  V30 1019 C 99.0436 -1.95814 6.01531 0
M  V30 1020 C 97.7076 -1.86845 6.40816 0
M  V30 1021 H 96.9776 -0.546661 0.500243 0
M  V30 1022 H 99.6246 -0.842788 1.71957 0
M  V30 1023 H 97.9296 -3.44569 1.86492 0
M  V30 1024 H 99.6266 -3.32741 2.23796 0
M  V30 1025 H 96.2166 -2.55169 3.44364 0
M  V30 1026 H 100.401 -2.30812 4.39363 0
M  V30 1027 H 95.6566 -2.00841 5.77471 0
M  V30 1028 H 99.8306 -1.77488 6.73403 0
M  V30 1029 H 97.4576 -1.6197 7.42745 0
M  V30 1030 N 99.0327 -1.24633 -0.964593 0
M  V30 1031 C 100.282 -1.08188 -1.7023 0
M  V30 1032 C 100.595 0.37873 -1.91898 0
M  V30 1033 O 101.801 0.663427 -2.6327 0
M  V30 1034 C 100.257 -1.88773 -3.06419 0
M  V30 1035 C 99.8647 -3.39263 -2.92582 0
M  V30 1036 C 101.609 -1.80867 -3.84041 0
M  V30 1037 C 99.5157 -4.1218 -4.24101 0
M  V30 1038 H 98.4457 -0.401245 -0.638372 0
M  V30 1039 H 101.097 -1.48742 -1.07462 0
M  V30 1040 H 99.4787 -1.41035 -3.70034 0
M  V30 1041 H 100.653 -3.94603 -2.37961 0
M  V30 1042 H 98.9677 -3.48154 -2.28424 0
M  V30 1043 H 101.565 -2.32646 -4.81435 0
M  V30 1044 H 101.908 -0.774543 -4.09031 0
M  V30 1045 H 102.441 -2.26301 -3.27159 0
M  V30 1046 H 99.1797 -5.15965 -4.04303 0
M  V30 1047 H 98.6997 -3.61626 -4.78526 0
M  V30 1048 H 100.379 -4.19349 -4.92702 0
M  V30 1049 N 100.511 1.16574 -1.06058 0
M  V30 1050 C 101.922 1.68662 -0.800632 0
M  V30 1051 C 102.273 1.84184 0.67608 0
M  V30 1052 O 101.398 1.53568 1.52466 0
M  V30 1053 C 101.993 3.06356 -1.44676 0
M  V30 1054 C 100.552 3.55575 -1.23465 0
M  V30 1055 C 99.6988 2.31616 -1.52477 0
M  V30 1056 H 102.65 1.00969 -1.22438 0
M  V30 1057 H 102.671 3.70636 -0.860788 0
M  V30 1058 H 102.183 2.95027 -2.52152 0
M  V30 1059 H 100.284 3.72167 -0.179527 0
M  V30 1060 H 100.397 4.37812 -1.94571 0
M  V30 1061 H 98.7608 2.36512 -0.945209 0
M  V30 1062 H 99.5438 2.22887 -2.61106 0
M  V30 1063 N 101.989 0.842826 1.3317 0
M  V30 1064 C 102.952 0.284065 2.27433 0
M  V30 1065 C 103.952 -0.54948 1.5112 0
M  V30 1066 O 105.142 -0.362699 1.70382 0
M  V30 1067 C 102.274 -0.599384 3.35589 0
M  V30 1068 H 103.467 1.11589 2.78366 0
M  V30 1069 H 101.02 0.616221 1.4364 0
M  V30 1070 H 101.755 -1.45349 2.89904 0
M  V30 1071 H 101.54 -0.00291266 3.921 0
M  V30 1072 H 103.03 -0.983488 4.05854 0
M  V30 1073 N 103.467 -1.45747 0.599634 0
M  V30 1074 C 104.878 -1.85853 0.177681 0
M  V30 1075 C 105.229 -1.50102 -1.26348 0
M  V30 1076 O 104.354 -0.923905 -1.95686 0
M  V30 1077 C 104.949 -3.37326 0.315688 0
M  V30 1078 C 103.508 -3.76365 -0.0515144 0
M  V30 1079 C 102.655 -2.69722 0.643822 0
M  V30 1080 H 105.606 -1.36661 0.806814 0
M  V30 1081 H 105.627 -3.77778 -0.454321 0
M  V30 1082 H 105.139 -3.63315 1.36468 0
M  V30 1083 H 103.24 -3.55993 -1.09999 0
M  V30 1084 H 103.353 -4.77916 0.336594 0
M  V30 1085 H 101.717 -2.54567 0.0822881 0
M  V30 1086 H 102.5 -2.98549 1.6948 0
M  V30 1087 N 104.945 -0.338344 -1.53925 0
M  V30 1088 C 106.194 0.260732 -2.00008 0
M  V30 1089 C 106.507 1.52073 -1.23017 0
M  V30 1090 O 107.713 2.19672 -1.5955 0
M  V30 1091 C 106.169 0.51515 -3.56194 0
M  V30 1092 C 105.777 -0.728645 -4.42035 0
M  V30 1093 C 107.521 1.07337 -4.10706 0
M  V30 1094 C 105.428 -0.445315 -5.89721 0
M  V30 1095 H 104.358 0.101205 -0.747177 0
M  V30 1096 H 107.009 -0.452866 -1.77824 0
M  V30 1097 H 105.391 1.28932 -3.74423 0
M  V30 1098 H 106.565 -1.50352 -4.35581 0
M  V30 1099 H 104.88 -1.20813 -3.98489 0
M  V30 1100 H 107.477 1.30022 -5.18651 0
M  V30 1101 H 107.82 2.0273 -3.63602 0
M  V30 1102 H 108.353 0.360034 -3.96167 0
M  V30 1103 H 105.092 -1.36883 -6.41049 0
M  V30 1104 H 104.612 0.291569 -5.99091 0
M  V30 1105 H 106.291 -0.0606218 -6.46972 0
M  V30 1106 N 106.423 1.57458 -0.0668435 0
M  V30 1107 C 107.355 2.09413 0.931601 0
M  V30 1108 C 108.368 1.02522 1.26464 0
M  V30 1109 O 109.557 1.30049 1.22269 0
M  V30 1110 C 106.657 2.53537 2.24882 0
M  V30 1111 C 105.83 3.83944 2.09537 0
M  V30 1112 C 104.889 4.14214 3.2452 0
M  V30 1113 O 103.915 4.83891 2.9973 0
M  V30 1114 N 105.117 3.67367 4.49469 0
M  V30 1115 H 107.882 2.95699 0.488048 0
M  V30 1116 H 105.443 1.61462 0.119009 0
M  V30 1117 H 107.435 2.70853 3.00701 0
M  V30 1118 H 106.005 1.72415 2.60753 0
M  V30 1119 H 105.225 3.76057 1.18215 0
M  V30 1120 H 106.513 4.69312 1.96529 0
M  V30 1121 H 105.911 3.11068 4.72497 0
M  V30 1122 H 104.468 3.89891 5.2233 0
M  V30 1123 N 107.901 -0.206675 1.56239 0
M  V30 1124 C 108.864 -1.23976 1.92776 0
M  V30 1125 C 109.864 -1.39041 0.807729 0
M  V30 1126 O 111.054 -1.37051 1.0753 0
M  V30 1127 C 108.186 -2.61112 2.19165 0
M  V30 1128 H 109.379 -0.927764 2.85189 0
M  V30 1129 H 106.932 -0.447718 1.4975 0
M  V30 1130 H 107.667 -2.97386 1.29352 0
M  V30 1131 H 107.452 -2.51552 3.00772 0
M  V30 1132 H 108.942 -3.35633 2.48476 0
M  V30 1133 N 109.379 -1.50304 -0.473955 0
M  V30 1134 C 110.326 -1.68959 -1.57231 0
M  V30 1135 C 111.296 -0.530899 -1.57387 0
M  V30 1136 O 112.481 -0.761133 -1.74961 0
M  V30 1137 C 109.621 -1.7871 -2.95223 0
M  V30 1138 C 108.734 -3.06061 -3.04878 0
M  V30 1139 C 107.869 -3.06626 -4.33767 0
M  V30 1140 C 106.908 -4.28443 -4.37154 0
M  V30 1141 N 106.045 -4.26763 -5.5751 0
M  V30 1142 H 110.885 -2.6273 -1.40631 0
M  V30 1143 H 108.422 -1.30241 -0.683789 0
M  V30 1144 H 110.38 -1.82344 -3.75242 0
M  V30 1145 H 109.01 -0.883806 -3.10465 0
M  V30 1146 H 108.062 -3.11911 -2.17751 0
M  V30 1147 H 109.374 -3.96039 -3.0324 0
M  V30 1148 H 108.528 -3.08973 -5.22131 0
M  V30 1149 H 107.267 -2.14473 -4.3801 0
M  V30 1150 H 106.272 -4.2631 -3.47188 0
M  V30 1151 H 107.497 -5.2182 -4.34605 0
M  V30 1152 H 105.443 -3.37462 -5.62544 0
M  V30 1153 H 105.36 -5.10507 -5.57601 0
M  V30 1154 H 106.628 -4.33253 -6.48006 0
M  V30 1155 N 110.857 0.726932 -1.39834 0
M  V30 1156 C 112.085 1.51613 -1.40787 0
M  V30 1157 C 112.5 1.88799 -0.00451505 0
M  V30 1158 O 111.857 1.54662 0.968809 0
M  V30 1159 C 111.908 2.79863 -2.28821 0
M  V30 1160 O 111.629 2.44253 -3.63692 0
M  V30 1161 C 113.13 3.73837 -2.38245 0
M  V30 1162 H 110.35 0.468264 -0.480593 0
M  V30 1163 H 112.894 0.897607 -1.83748 0
M  V30 1164 H 111.049 3.38027 -1.89252 0
M  V30 1165 H 111.463 3.26695 -4.1033 0
M  V30 1166 H 112.937 4.60699 -3.04073 0
M  V30 1167 H 113.414 4.16153 -1.40403 0
M  V30 1168 H 114.02 3.21589 -2.78317 0
M  V30 1169 N 112.336 1.25143 0.95797 0
M  V30 1170 C 113.561 1.12521 1.74223 0
M  V30 1171 C 113.986 -0.317402 1.85403 0
M  V30 1172 O 113.344 -1.2299 1.33204 0
M  V30 1173 C 113.392 1.78062 3.1357 0
M  V30 1174 O 112.496 1.058 3.98598 0
M  V30 1175 H 111.837 0.39304 0.535178 0
M  V30 1176 H 114.367 1.65641 1.201 0
M  V30 1177 H 114.377 1.84213 3.64046 0
M  V30 1178 H 113.052 2.83021 3.04749 0
M  V30 1179 H 111.629 1.07506 3.57067 0
M  V30 1180 N 113.814 -1.1601 1.06675 0
M  V30 1181 C 115.225 -1.68235 0.809565 0
M  V30 1182 C 115.576 -1.8454 -0.666303 0
M  V30 1183 O 114.701 -1.54374 -1.5165 0
M  V30 1184 C 115.296 -3.05585 1.46299 0
M  V30 1185 C 113.855 -3.54915 1.25349 0
M  V30 1186 C 113.002 -2.30804 1.53703 0
M  V30 1187 H 115.953 -1.00318 1.22971 0
M  V30 1188 H 115.974 -3.70174 0.880431 0
M  V30 1189 H 115.486 -2.93686 2.53713 0
M  V30 1190 H 113.587 -3.72067 0.199261 0
M  V30 1191 H 113.7 -4.36774 1.9689 0
M  V30 1192 H 112.064 -2.36007 0.957739 0
M  V30 1193 H 112.847 -2.21499 2.62284 0
M  V30 1194 N 115.292 -0.849877 -1.32721 0
M  V30 1195 C 116.538 -0.451591 -1.97708 0
M  V30 1196 C 116.871 0.989175 -1.6712 0
M  V30 1197 O 116.146 1.69334 -0.956891 0
M  V30 1198 C 116.429 -0.685598 -3.53513 0
M  V30 1199 C 116.282 -2.17444 -3.93749 0
M  V30 1200 C 117.601 -0.138874 -4.39881 0
M  V30 1201 H 114.72 -0.16555 -0.718166 0
M  V30 1202 H 117.362 -1.06742 -1.57182 0
M  V30 1203 H 115.512 -0.161416 -3.88165 0
M  V30 1204 H 117.184 -2.76433 -3.693 0
M  V30 1205 H 115.427 -2.65476 -3.43081 0
M  V30 1206 H 116.098 -2.28888 -5.02309 0
M  V30 1207 H 118.574 -0.587068 -4.11938 0
M  V30 1208 H 117.45 -0.332213 -5.47894 0
M  V30 1209 H 117.711 0.95806 -4.31594 0
M  V30 1210 N 116.77 1.45427 -0.607355 0
M  V30 1211 C 118.047 1.9557 -0.0344566 0
M  V30 1212 C 118.427 1.54979 1.43334 0
M  V30 1213 O 117.775 0.812241 2.13576 0
M  V30 1214 C 117.985 3.48226 -0.232321 0
M  V30 1215 C 119.333 4.2445 -0.113001 0
M  V30 1216 O 120.357 3.55829 -0.162431 0
M  V30 1217 O 119.216 5.465 0.00209442 0
M  V30 1218 H 116.31 0.826222 0.0358667 0
M  V30 1219 H 118.856 1.55594 -0.6774 0
M  V30 1220 H 117.628 3.70739 -1.25174 0
M  V30 1221 H 117.251 3.95092 0.445896 0
M  V30 1222 N 118.248 0.346503 1.53744 0
M  V30 1223 C 119.158 -0.517293 2.28826 0
M  V30 1224 C 120.174 -1.10935 1.3405 0
M  V30 1225 O 121.35 -1.1244 1.6709 0
M  V30 1226 C 118.415 -1.65098 3.04866 0
M  V30 1227 C 117.476 -1.0884 4.15274 0
M  V30 1228 C 116.709 -2.16806 4.87679 0
M  V30 1229 O 116.932 -3.3758 4.59778 0
M  V30 1230 O 115.866 -1.80934 5.74061 0
M  V30 1231 H 119.692 0.0931396 3.03557 0
M  V30 1232 H 117.277 0.111458 1.48984 0
M  V30 1233 H 119.159 -2.31053 3.5241 0
M  V30 1234 H 117.834 -2.24717 2.32989 0
M  V30 1235 H 116.741 -0.3933 3.72027 0
M  V30 1236 H 118.074 -0.537036 4.89261 0
M  V30 1237 N 119.726 -1.57421 0.075193 0
M  V30 1238 C 120.673 -2.12915 -0.890843 0
M  V30 1239 C 121.643 -1.04252 -1.29309 0
M  V30 1240 O 122.828 -1.31933 -1.37834 0
M  V30 1241 C 119.968 -2.69795 -2.15186 0
M  V30 1242 C 119.081 -3.92624 -1.80194 0
M  V30 1243 C 118.216 -4.37736 -3.00933 0
M  V30 1244 C 117.255 -5.53205 -2.61974 0
M  V30 1245 N 116.392 -5.9326 -3.75483 0
M  V30 1246 H 121.232 -2.95156 -0.410735 0
M  V30 1247 H 118.769 -1.45854 -0.191086 0
M  V30 1248 H 120.727 -3.00883 -2.89008 0
M  V30 1249 H 119.357 -1.90313 -2.60731 0
M  V30 1250 H 118.409 -3.67977 -0.964218 0
M  V30 1251 H 119.721 -4.76482 -1.47534 0
M  V30 1252 H 118.875 -4.70503 -3.8303 0
M  V30 1253 H 117.614 -3.52739 -3.36789 0
M  V30 1254 H 116.619 -5.20086 -1.783 0
M  V30 1255 H 117.844 -6.39936 -2.27284 0
M  V30 1256 H 115.79 -5.11212 -4.11094 0
M  V30 1257 H 115.707 -6.71865 -3.46602 0
M  V30 1258 H 116.975 -6.30651 -4.58148 0
M  V30 1259 N 121.204 0.198386 -1.56346 0
M  V30 1260 C 122.167 1.22952 -1.93431 0
M  V30 1261 C 123.167 1.38611 -0.815092 0
M  V30 1262 O 124.357 1.36479 -1.08255 0
M  V30 1263 C 121.489 2.59946 -2.20546 0
M  V30 1264 H 122.682 0.912626 -2.85677 0
M  V30 1265 H 120.235 0.43977 -1.49986 0
M  V30 1266 H 120.97 2.96696 -1.30927 0
M  V30 1267 H 120.755 2.49953 -3.02102 0
M  V30 1268 H 122.245 3.3431 -2.50253 0
M  V30 1269 N 122.682 1.50554 0.465978 0
M  V30 1270 C 123.612 1.72722 1.57128 0
M  V30 1271 C 124.593 0.576294 1.6004 0
M  V30 1272 O 125.778 0.81598 1.76225 0
M  V30 1273 C 122.908 1.82605 2.95419 0
M  V30 1274 C 121.862 2.97835 3.07373 0
M  V30 1275 C 121.188 2.92867 4.47363 0
M  V30 1276 C 122.488 4.38265 2.84114 0
M  V30 1277 H 124.182 2.65267 1.38829 0
M  V30 1278 H 121.728 1.2765 0.666441 0
M  V30 1279 H 123.681 1.96698 3.72677 0
M  V30 1280 H 122.405 0.866858 3.14886 0
M  V30 1281 H 121.064 2.83401 2.3255 0
M  V30 1282 H 120.712 1.94783 4.63755 0
M  V30 1283 H 120.412 3.70227 4.56296 0
M  V30 1284 H 121.936 3.09015 5.26633 0
M  V30 1285 H 123.35 4.53198 3.51118 0
M  V30 1286 H 121.747 5.17115 3.04487 0
M  V30 1287 H 122.817 4.50281 1.7993 0
M  V30 1288 N 124.16 -0.719506 1.40217 0
M  V30 1289 C 125.092 -1.84428 1.36084 0
M  V30 1290 C 126.105 -1.60597 0.266913 0
M  V30 1291 O 127.294 -1.70544 0.526983 0
M  V30 1292 C 124.394 -3.20757 1.094 0
M  V30 1293 C 123.567 -3.71817 2.30372 0
M  V30 1294 C 122.626 -4.86748 1.99907 0
M  V30 1295 O 121.652 -4.99603 2.72737 0
M  V30 1296 N 122.854 -5.7226 0.974635 0
M  V30 1297 H 125.619 -1.88473 2.33019 0
M  V30 1298 H 123.18 -0.900885 1.3452 0
M  V30 1299 H 125.172 -3.95235 0.870116 0
M  V30 1300 H 123.742 -3.11884 0.211452 0
M  V30 1301 H 122.962 -2.88514 2.68614 0
M  V30 1302 H 124.25 -4.02666 3.11026 0
M  V30 1303 H 123.648 -5.6448 0.371368 0
M  V30 1304 H 122.205 -6.46739 0.810656 0
M  V30 1305 N 125.638 -1.25649 -0.95132 0
M  V30 1306 C 126.915 -1.01361 -1.67288 0
M  V30 1307 C 127.295 0.459135 -2.06046 0
M  V30 1308 O 126.643 1.43723 -1.7764 0
M  V30 1309 C 126.853 -1.95256 -2.89268 0
M  V30 1310 C 128.201 -2.23289 -3.61147 0
M  V30 1311 O 129.225 -1.93041 -2.99355 0
M  V30 1312 O 128.084 -2.74741 -4.72419 0
M  V30 1313 H 125.178 -0.38464 -0.732107 0
M  V30 1314 H 127.724 -1.36817 -1.00395 0
M  V30 1315 H 126.496 -2.94685 -2.57442 0
M  V30 1316 H 126.119 -1.60218 -3.6389 0
M  V30 1317 N 127.117 1.15442 -1.07289 0
M  V30 1318 C 128.049 2.19773 -0.650585 0
M  V30 1319 C 129.062 1.60076 0.296572 0
M  V30 1320 O 130.251 1.78293 0.0859905 0
M  V30 1321 C 127.351 3.38838 0.0650398 0
M  V30 1322 C 126.524 4.2808 -0.898141 0
M  V30 1323 C 125.583 5.2574 -0.219926 0
M  V30 1324 O 124.609 5.62654 -0.860773 0
M  V30 1325 N 125.811 5.71205 1.03466 0
M  V30 1326 H 128.576 2.56622 -1.54808 0
M  V30 1327 H 126.137 1.30551 -0.957494 0
M  V30 1328 H 128.129 4.01222 0.529415 0
M  V30 1329 H 126.699 3.00409 0.864466 0
M  V30 1330 H 125.919 3.62804 -1.54165 0
M  V30 1331 H 127.207 4.84577 -1.5512 0
M  V30 1332 H 126.605 5.43325 1.57526 0
M  V30 1333 H 125.162 6.35633 1.44272 0
M  V30 1334 N 128.595 0.856903 1.32268 0
M  V30 1335 C 129.525 0.31858 2.31316 0
M  V30 1336 C 130.506 -0.583487 1.59779 0
M  V30 1337 O 131.691 -0.503259 1.87566 0
M  V30 1338 C 128.821 -0.491979 3.43798 0
M  V30 1339 C 127.775 0.315849 4.26833 0
M  V30 1340 C 127.101 -0.619586 5.31098 0
M  V30 1341 C 128.401 1.54282 4.98993 0
M  V30 1342 H 130.095 1.14621 2.76591 0
M  V30 1343 H 127.641 0.552613 1.32974 0
M  V30 1344 H 129.594 -0.879012 4.1213 0
M  V30 1345 H 128.318 -1.35299 2.97257 0
M  V30 1346 H 126.977 0.684664 3.6015 0
M  V30 1347 H 126.625 -1.47751 4.8081 0
M  V30 1348 H 126.325 -0.0830621 5.87541 0
M  V30 1349 H 127.849 -1.00375 6.02293 0
M  V30 1350 H 129.263 1.22796 5.59995 0
M  V30 1351 H 127.66 2.01745 5.65172 0
M  V30 1352 H 128.73 2.30285 4.26728 0
M  V30 1353 N 130.073 -1.45103 0.615059 0
M  V30 1354 C 131.319 -2.02483 0.113347 0
M  V30 1355 C 131.652 -1.48146 -1.25564 0
M  V30 1356 O 130.927 -0.659104 -1.82992 0
M  V30 1357 C 131.21 -3.60005 0.0825278 0
M  V30 1358 C 131.063 -4.2466 1.48271 0
M  V30 1359 C 132.382 -4.35972 -0.601401 0
M  V30 1360 H 129.501 -0.735764 0.0426632 0
M  V30 1361 H 132.143 -1.72868 0.788461 0
M  V30 1362 H 130.293 -3.85367 -0.492378 0
M  V30 1363 H 131.965 -4.10458 2.10527 0
M  V30 1364 H 130.208 -3.82772 2.04127 0
M  V30 1365 H 130.879 -5.336 1.41332 0
M  V30 1366 H 133.355 -4.15947 -0.112666 0
M  V30 1367 H 132.231 -5.45697 -0.592097 0
M  V30 1368 H 132.492 -4.09391 -1.66887 0
M  V30 1369 N 131.551 -0.354651 -1.53558 0
M  V30 1370 C 132.481 0.489091 -2.2832 0
M  V30 1371 C 133.462 1.09324 -1.30316 0
M  V30 1372 O 134.647 1.11255 -1.59173 0
M  V30 1373 C 131.777 1.63456 -3.0643 0
M  V30 1374 C 130.731 1.1582 -4.12031 0
M  V30 1375 C 130.057 2.39305 -4.7816 0
M  V30 1376 C 131.357 0.250731 -5.21698 0
M  V30 1377 H 133.051 -0.134614 -2.99097 0
M  V30 1378 H 130.597 -0.0661826 -1.43848 0
M  V30 1379 H 132.55 2.23136 -3.57475 0
M  V30 1380 H 131.274 2.28533 -2.33325 0
M  V30 1381 H 129.933 0.584146 -3.61916 0
M  V30 1382 H 129.581 3.02814 -4.01637 0
M  V30 1383 H 129.281 2.08109 -5.49513 0
M  V30 1384 H 130.805 2.99691 -5.31994 0
M  V30 1385 H 132.219 0.754695 -5.68311 0
M  V30 1386 H 130.616 0.0301468 -6.00092 0
M  V30 1387 H 131.686 -0.710125 -4.79672 0
M  V30 1388 N 133.029 1.57378 -0.0835403 0
M  V30 1389 C 134.275 1.94217 0.583733 0
M  V30 1390 C 134.608 0.964653 1.68547 0
M  V30 1391 O 133.883 -0.00422258 1.945 0
M  V30 1392 C 134.166 3.41253 1.14972 0
M  V30 1393 C 134.019 4.49768 0.0538277 0
M  V30 1394 C 135.338 3.89352 2.05166 0
M  V30 1395 H 132.457 0.706233 0.210724 0
M  V30 1396 H 135.099 1.89392 -0.1519 0
M  V30 1397 H 133.249 3.45496 1.77665 0
M  V30 1398 H 134.921 4.57641 -0.579851 0
M  V30 1399 H 133.164 4.29432 -0.614068 0
M  V30 1400 H 133.835 5.49817 0.490452 0
M  V30 1401 H 136.311 3.87189 1.52393 0
M  V30 1402 H 135.187 4.92822 2.41698 0
M  V30 1403 H 135.448 3.27973 2.96456 0
M  V30 1404 N 134.507 -0.190092 1.56449 0
M  V30 1405 C 135.47 -1.21925 1.9408 0
M  V30 1406 C 136.47 -1.38176 0.822431 0
M  V30 1407 O 137.66 -1.35903 1.08977 0
M  V30 1408 C 134.792 -2.58773 2.21922 0
M  V30 1409 H 135.985 -0.897464 2.86157 0
M  V30 1410 H 133.538 -0.43181 1.50217 0
M  V30 1411 H 134.273 -2.95998 1.32499 0
M  V30 1412 H 134.058 -2.48348 3.03424 0
M  V30 1413 H 135.548 -3.32978 2.52022 0
M  V30 1414 N 135.985 -1.50799 -0.457987 0
M  V30 1415 C 136.948 -1.7005 -1.53674 0
M  V30 1416 C 137.948 -0.570881 -1.50325 0
M  V30 1417 O 139.138 -0.838126 -1.52712 0
M  V30 1418 C 136.27 -1.73788 -2.93276 0
M  V30 1419 H 137.463 -2.66306 -1.37917 0
M  V30 1420 H 135.016 -1.40477 -0.685271 0
M  V30 1421 H 135.751 -0.792717 -3.14462 0
M  V30 1422 H 135.536 -2.55864 -2.97113 0
M  V30 1423 H 137.026 -1.90591 -3.71571 0
M  V30 1424 N 137.463 0.71206 -1.40597 0
M  V30 1425 C 138.41 1.82613 -1.41142 0
M  V30 1426 C 139.38 1.63925 -0.267903 0
M  V30 1427 O 140.565 1.85009 -0.466495 0
M  V30 1428 C 137.705 3.20354 -1.28324 0
M  V30 1429 C 136.818 3.50589 -2.52411 0
M  V30 1430 C 135.953 4.77855 -2.32009 0
M  V30 1431 C 134.992 5.01005 -3.51654 0
M  V30 1432 N 134.129 6.19487 -3.30425 0
M  V30 1433 H 138.969 1.81482 -2.36365 0
M  V30 1434 H 136.506 0.886475 -1.17388 0
M  V30 1435 H 138.464 3.99899 -1.18899 0
M  V30 1436 H 137.094 3.20705 -0.367189 0
M  V30 1437 H 136.146 2.65573 -2.72351 0
M  V30 1438 H 137.458 3.63604 -3.41458 0
M  V30 1439 H 136.612 5.65424 -2.19956 0
M  V30 1440 H 135.351 4.67056 -1.40392 0
M  V30 1441 H 134.356 4.1189 -3.64179 0
M  V30 1442 H 135.581 5.13674 -4.44202 0
M  V30 1443 H 133.527 6.09932 -2.41494 0
M  V30 1444 H 133.444 6.33194 -4.13039 0
M  V30 1445 H 134.712 7.09834 -3.22113 0
M  V30 1446 N 138.941 1.26152 0.944643 0
M  V30 1447 C 139.871 1.09902 2.06019 0
M  V30 1448 C 140.852 0.00519538 1.70099 0
M  V30 1449 O 142.037 0.176583 1.93396 0
M  V30 1450 C 139.167 0.727562 3.39594 0
M  V30 1451 C 138.121 1.77274 3.89561 0
M  V30 1452 C 137.447 1.25569 5.19747 0
M  V30 1453 C 138.747 3.17357 4.14827 0
M  V30 1454 H 140.441 2.03217 2.19871 0
M  V30 1455 H 137.987 0.978452 1.05652 0
M  V30 1456 H 139.94 0.600777 4.17095 0
M  V30 1457 H 138.664 -0.241287 3.25707 0
M  V30 1458 H 137.323 1.88814 3.14237 0
M  V30 1459 H 136.971 0.276783 5.02238 0
M  V30 1460 H 136.671 1.95433 5.54148 0
M  V30 1461 H 138.195 1.1415 5.99835 0
M  V30 1462 H 139.609 3.08914 4.82954 0
M  V30 1463 H 138.006 3.84781 4.60504 0
M  V30 1464 H 139.076 3.63673 3.20734 0
M  V30 1465 N 140.419 -1.14872 1.07899 0
M  V30 1466 C 141.696 -1.81928 0.71845 0
M  V30 1467 C 142.076 -1.95417 -0.798455 0
M  V30 1468 O 141.424 -1.50997 -1.715 0
M  V30 1469 C 141.634 -3.17937 1.43935 0
M  V30 1470 C 142.982 -3.93501 1.59506 0
M  V30 1471 O 144.006 -3.27509 1.40058 0
M  V30 1472 O 142.865 -5.1183 1.91551 0
M  V30 1473 H 139.959 -0.78628 0.256305 0
M  V30 1474 H 142.505 -1.21934 1.18026 0
M  V30 1475 H 141.277 -3.0325 2.47295 0
M  V30 1476 H 140.9 -3.85619 0.968687 0
M  V30 1477 N 141.898 -0.863906 -1.31812 0
M  V30 1478 C 143.126 -0.486111 -2.01108 0
M  V30 1479 C 143.541 0.919755 -1.64882 0
M  V30 1480 O 142.898 1.60162 -0.874893 0
M  V30 1481 C 142.949 -0.626435 -3.56031 0
M  V30 1482 O 142.67 -1.97693 -3.90959 0
M  V30 1483 C 144.171 -0.248857 -4.42601 0
M  V30 1484 H 141.391 -0.190052 -0.643523 0
M  V30 1485 H 143.935 -1.1634 -1.68182 0
M  V30 1486 H 142.09 0.00322717 -3.874 0
M  V30 1487 H 142.504 -1.98034 -4.85678 0
M  V30 1488 H 143.978 -0.398016 -5.50563 0
M  V30 1489 H 144.455 0.811489 -4.31638 0
M  V30 1490 H 145.061 -0.853971 -4.16638 0
M  V30 1491 N 143.376 1.44774 -0.622745 0
M  V30 1492 C 144.286 2.34433 0.0886031 0
M  V30 1493 C 145.302 1.52131 0.844529 0
M  V30 1494 O 146.478 1.84886 0.798691 0
M  V30 1495 C 143.543 3.29986 1.0635 0
M  V30 1496 C 142.604 4.28195 0.307873 0
M  V30 1497 C 141.837 5.19183 1.23633 0
M  V30 1498 O 142.06 5.13918 2.47476 0
M  V30 1499 O 140.994 5.97515 0.725189 0
M  V30 1500 H 144.82 2.96693 -0.648599 0
M  V30 1501 H 142.405 1.44408 -0.382957 0
M  V30 1502 H 144.287 3.88825 1.6246 0
M  V30 1503 H 142.962 2.70269 1.78146 0
M  V30 1504 H 141.869 3.72927 -0.296064 0
M  V30 1505 H 143.202 4.90808 -0.3699 0
M  V30 1506 N 144.854 0.36279 1.53368 0
M  V30 1507 C 146.131 -0.284021 1.93527 0
M  V30 1508 C 146.511 -1.66628 1.29608 0
M  V30 1509 O 145.859 -2.23942 0.45413 0
M  V30 1510 C 146.069 -0.337028 3.47369 0
M  V30 1511 C 147.417 -0.578708 4.20638 0
M  V30 1512 O 148.441 -0.418352 3.53735 0
M  V30 1513 O 147.3 -0.89074 5.39192 0
M  V30 1514 H 144.394 -0.169743 0.809393 0
M  V30 1515 H 146.94 0.41537 1.64538 0
M  V30 1516 H 145.712 0.632217 3.86159 0
M  V30 1517 H 145.335 -1.08243 3.82582 0
M  V30 1518 N 146.332 -1.57332 0.0918853 0
M  V30 1519 C 147.279 -2.13847 -0.868211 0
M  V30 1520 C 148.249 -1.05618 -1.28196 0
M  V30 1521 O 149.434 -1.33387 -1.36427 0
M  V30 1522 C 146.574 -2.72062 -2.12312 0
M  V30 1523 C 145.687 -3.94514 -1.7602 0
M  V30 1524 C 144.822 -4.40903 -2.96273 0
M  V30 1525 C 143.861 -5.55953 -2.56092 0
M  V30 1526 N 142.998 -5.97209 -3.69169 0
M  V30 1527 H 147.838 -2.95575 -0.379406 0
M  V30 1528 H 145.375 -1.46048 -0.175606 0
M  V30 1529 H 147.333 -3.03931 -2.858 0
M  V30 1530 H 145.963 -1.93068 -2.58698 0
M  V30 1531 H 145.015 -3.68979 -0.925135 0
M  V30 1532 H 146.327 -4.7802 -1.42472 0
M  V30 1533 H 145.481 -4.74539 -3.78018 0
M  V30 1534 H 144.22 -3.56291 -3.33029 0
M  V30 1535 H 143.225 -5.21948 -1.72773 0
M  V30 1536 H 144.45 -6.42311 -2.20484 0
M  V30 1537 H 142.396 -5.15543 -4.05649 0
M  V30 1538 H 142.313 -6.75504 -3.39456 0
M  V30 1539 H 143.581 -6.35475 -4.51434 0
M  V30 1540 N 147.81 0.181792 -1.56548 0
M  V30 1541 C 148.74 1.22765 -1.98623 0
M  V30 1542 C 149.721 1.46747 -0.860189 0
M  V30 1543 O 150.906 1.58259 -1.12551 0
M  V30 1544 C 148.036 2.56894 -2.33715 0
M  V30 1545 C 146.99 2.475 -3.49182 0
M  V30 1546 C 146.316 3.86023 -3.69986 0
M  V30 1547 C 147.616 1.98866 -4.82959 0
M  V30 1548 H 149.31 0.877942 -2.86239 0
M  V30 1549 H 146.856 0.42088 -1.37712 0
M  V30 1550 H 148.809 3.30253 -2.61746 0
M  V30 1551 H 147.533 2.93632 -1.42997 0
M  V30 1552 H 146.192 1.76596 -3.21262 0
M  V30 1553 H 145.84 4.20136 -2.76576 0
M  V30 1554 H 145.54 3.80609 -4.47672 0
M  V30 1555 H 147.064 4.60984 -4.00407 0
M  V30 1556 H 148.478 2.61992 -5.09934 0
M  V30 1557 H 146.875 2.04424 -5.64208 0
M  V30 1558 H 147.945 0.942465 -4.75653 0
M  V30 1559 N 149.288 1.51039 0.449983 0
M  V30 1560 C 150.704 1.38934 0.785462 0
M  V30 1561 C 150.904 0.461817 1.96136 0
M  V30 1562 O 149.96 -0.0877389 2.52348 0
M  V30 1563 C 151.273 2.80724 1.0777 0
M  V30 1564 C 152.821 2.89787 1.1829 0
M  V30 1565 C 153.296 4.32457 1.50815 0
M  V30 1566 N 154.787 4.35505 1.57764 0
M  V30 1567 C 155.522 5.42914 1.84477 0
M  V30 1568 N 155.018 6.60502 2.09068 0
M  V30 1569 N 156.811 5.3038 1.86155 0
M  V30 1570 H 148.962 2.09904 -0.324647 0
M  V30 1571 H 151.225 0.944378 -0.0827957 0
M  V30 1572 H 150.931 3.50531 0.286498 0
M  V30 1573 H 150.805 3.19273 2.00859 0
M  V30 1574 H 153.192 2.20186 1.96474 0
M  V30 1575 H 153.273 2.54752 0.231314 0
M  V30 1576 H 152.917 5.02603 0.731622 0
M  V30 1577 H 152.847 4.64995 2.47158 0
M  V30 1578 H 155.338 3.50724 1.40715 0
M  V30 1579 H 155.651 7.38158 2.28785 0
M  V30 1580 H 153.996 6.63639 2.06416 0
M  V30 1581 H 157.187 4.37505 1.66454 0
M  V30 1582 H 157.36 6.1417 2.06637 0
M  V30 1583 N 150.766 -0.704594 1.40972 0
M  V30 1584 C 151.729 -1.80035 1.41845 0
M  V30 1585 C 152.729 -1.57774 0.310474 0
M  V30 1586 O 153.919 -1.64613 0.56992 0
M  V30 1587 C 151.051 -3.18284 1.22098 0
M  V30 1588 H 152.244 -1.80658 2.3938 0
M  V30 1589 H 149.797 -0.911329 1.26982 0
M  V30 1590 H 150.532 -3.23306 0.253672 0
M  V30 1591 H 150.317 -3.35843 2.02366 0
M  V30 1592 H 151.807 -3.98289 1.25522 0
M  V30 1593 N 152.244 -1.26651 -0.937939 0
M  V30 1594 C 153.207 -1.08546 -2.01867 0
M  V30 1595 C 154.207 -0.0327327 -1.60767 0
M  V30 1596 O 155.397 -0.276427 -1.71993 0
M  V30 1597 C 152.529 -0.651711 -3.34613 0
M  V30 1598 H 153.722 -2.04502 -2.1936 0
M  V30 1599 H 151.275 -1.09294 -1.11734 0
M  V30 1600 H 152.01 0.309696 -3.22818 0
M  V30 1601 H 151.795 -1.41189 -3.65798 0
M  V30 1602 H 153.285 -0.546973 -4.14002 0
M  V30 1603 N 153.722 1.14298 -1.08507 0
M  V30 1604 C 154.655 2.18447 -0.660004 0
M  V30 1605 C 155.633 1.59242 0.328749 0
M  V30 1606 O 156.817 1.87062 0.232367 0
M  V30 1607 C 153.944 3.38688 0.0290807 0
M  V30 1608 C 152.99 4.1646 -0.919982 0
M  V30 1609 S 153.823 4.77334 -2.42718 0
M  V30 1610 C 154.979 6.00931 -1.75024 0
M  V30 1611 H 155.212 2.54166 -1.54231 0
M  V30 1612 H 152.745 1.25446 -0.900149 0
M  V30 1613 H 154.703 4.08342 0.420378 0
M  V30 1614 H 153.364 3.01289 0.887895 0
M  V30 1615 H 152.557 5.02529 -0.384751 0
M  V30 1616 H 152.159 3.52414 -1.25223 0
M  V30 1617 H 154.451 6.69017 -1.06877 0
M  V30 1618 H 155.394 6.59044 -2.58971 0
M  V30 1619 H 155.802 5.51089 -1.22317 0
M  V30 1620 N 155.201 0.870884 1.31352 0
M  V30 1621 C 156.447 0.482987 1.96965 0
M  V30 1622 C 156.78 -0.962462 1.68672 0
M  V30 1623 O 156.055 -1.6779 0.98371 0
M  V30 1624 C 156.338 0.741752 3.52378 0
M  V30 1625 C 156.191 2.2368 3.9024 0
M  V30 1626 C 157.51 0.208838 4.39604 0
M  V30 1627 H 154.629 0.176955 0.715441 0
M  V30 1628 H 157.271 1.09229 1.55464 0
M  V30 1629 H 155.421 0.223149 3.87859 0
M  V30 1630 H 157.093 2.82273 3.64856 0
M  V30 1631 H 155.336 2.70901 3.38814 0
M  V30 1632 H 156.007 2.3685 4.98604 0
M  V30 1633 H 158.483 0.652529 4.10952 0
M  V30 1634 H 157.359 0.419336 5.47296 0
M  V30 1635 H 157.62 -0.889275 4.33064 0
M  V30 1636 N 156.679 -1.44442 0.630414 0
M  V30 1637 C 157.927 -2.01653 0.134351 0
M  V30 1638 C 158.248 -1.49836 -1.24796 0
M  V30 1639 O 157.518 -0.701684 -1.82902 0
M  V30 1640 H 156.098 -0.74554 0.0466769 0
M  V30 1641 H 158.76 -1.76952 0.816955 0
M  V30 1642 H 157.856 -3.11935 0.101498 0
M  V30 1643 N 158.157 -0.370918 -1.53173 0
M  V30 1644 C 159.09 0.516727 -2.22273 0
M  V30 1645 C 160.068 1.07877 -1.21661 0
M  V30 1646 O 161.252 1.13389 -1.50583 0
M  V30 1647 C 158.379 1.71346 -2.92161 0
M  V30 1648 C 157.425 1.27838 -4.0689 0
M  V30 1649 S 158.258 0.275217 -5.34792 0
M  V30 1650 C 159.414 1.47816 -6.08195 0
M  V30 1651 H 159.647 -0.0701054 -2.97217 0
M  V30 1652 H 157.18 -0.155038 -1.5362 0
M  V30 1653 H 159.138 2.39988 -3.3304 0
M  V30 1654 H 157.799 2.27156 -2.16931 0
M  V30 1655 H 156.992 2.17141 -4.54825 0
M  V30 1656 H 156.594 0.671105 -3.6793 0
M  V30 1657 H 158.886 2.40831 -6.33251 0
M  V30 1658 H 159.829 1.04008 -7.0042 0
M  V30 1659 H 160.237 1.68663 -5.38714 0
M  V30 1660 N 159.635 1.57281 -0.100228 0
M  V30 1661 C 160.565 2.17328 0.853857 0
M  V30 1662 C 161.546 1.10804 1.2906 0
M  V30 1663 O 162.731 1.38963 1.35657 0
M  V30 1664 C 159.861 2.75772 2.11109 0
M  V30 1665 C 158.815 3.87713 1.81279 0
M  V30 1666 C 158.141 4.32882 3.13874 0
M  V30 1667 C 159.441 5.10677 1.09574 0
M  V30 1668 H 161.135 2.97305 0.353545 0
M  V30 1669 H 158.681 1.43009 0.168612 0
M  V30 1670 H 160.634 3.16433 2.78296 0
M  V30 1671 H 159.358 1.93057 2.63432 0
M  V30 1672 H 158.017 3.476 1.16489 0
M  V30 1673 H 157.665 3.47051 3.64095 0
M  V30 1674 H 157.365 5.08358 2.94696 0
M  V30 1675 H 158.889 4.7618 3.82211 0
M  V30 1676 H 160.303 5.48474 1.66879 0
M  V30 1677 H 158.7 5.91615 1.00557 0
M  V30 1678 H 159.77 4.84835 0.0793299 0
M  V30 1679 N 161.113 -0.173488 1.56642 0
M  V30 1680 C 162.076 -1.19859 1.95362 0
M  V30 1681 C 163.076 -1.37296 0.83704 0
M  V30 1682 O 164.266 -1.34739 1.10413 0
M  V30 1683 C 161.398 -2.56405 2.24654 0
M  V30 1684 H 162.591 -0.867062 2.87092 0
M  V30 1685 H 160.144 -0.415853 1.50666 0
M  V30 1686 H 160.879 -2.94576 1.35631 0
M  V30 1687 H 160.664 -2.45115 3.06041 0
M  V30 1688 H 162.154 -3.30287 2.5554 0
M  V30 1689 N 162.591 -1.51276 -0.441967 0
M  V30 1690 C 163.539 -1.72823 -1.55676 0
M  V30 1691 C 164.533 -0.59445 -1.58627 0
M  V30 1692 O 165.739 -0.775715 -1.62427 0
M  V30 1693 H 162.114 -0.545983 -0.517113 0
M  V30 1694 H 164.085 -2.6628 -1.34675 0
M  V30 1695 C 162.834 -1.86619 -2.93375 0
M  V30 1696 H 162.157 -2.73264 -2.91834 0
M  V30 1697 H 163.597 -2.05709 -3.70756 0
M  V30 1698 C 162.056 -0.624842 -3.31055 0
M  V30 1699 O 162.586 0.222636 -4.01083 0
M  V30 1700 N 160.792 -0.470288 -2.86769 0
M  V30 1701 H 160.339 -1.161 -2.29953 0
M  V30 1702 H 160.297 0.359051 -3.12343 0
M  V30 1703 N 164.069 0.697108 -1.41344 0
M  V30 1704 C 165.316 1.45714 -1.40619 0
M  V30 1705 C 165.644 1.94494 -0.0147907 0
M  V30 1706 O 164.899 1.69794 0.973066 0
M  V30 1707 C 165.198 2.68553 -2.35826 0
M  V30 1708 C 164.864 2.38438 -3.82698 0
M  V30 1709 C 163.526 2.29936 -4.22709 0
M  V30 1710 C 165.878 2.13567 -4.75435 0
M  V30 1711 C 163.206 1.94656 -5.53467 0
M  V30 1712 C 165.558 1.79797 -6.06511 0
M  V30 1713 C 164.222 1.69789 -6.45545 0
M  V30 1714 H 163.492 0.533206 -0.51456 0
M  V30 1715 H 166.139 0.796901 -1.74131 0
M  V30 1716 H 164.444 3.39503 -1.95563 0
M  V30 1717 H 166.141 3.2669 -2.32539 0
M  V30 1718 H 162.731 2.4595 -3.51008 0
M  V30 1719 H 166.915 2.19082 -4.45328 0
M  V30 1720 H 162.171 1.8546 -5.82593 0
M  V30 1721 H 166.345 1.59572 -6.77872 0
M  V30 1722 H 163.972 1.4222 -7.46778 0
M  V30 1723 N 165.547 1.27147 0.931209 0
M  V30 1724 C 166.477 1.12081 2.04842 0
M  V30 1725 C 167.458 0.0232364 1.70084 0
M  V30 1726 O 168.643 0.197085 1.93197 0
M  V30 1727 C 165.773 0.76354 3.38803 0
M  V30 1728 C 164.727 1.81396 3.87659 0
M  V30 1729 C 164.053 1.31075 5.18385 0
M  V30 1730 C 165.353 3.21739 4.11438 0
M  V30 1731 H 167.047 2.05537 2.17703 0
M  V30 1732 H 164.593 0.989603 1.04608 0
M  V30 1733 H 166.546 0.644982 4.16435 0
M  V30 1734 H 165.27 -0.206727 3.25945 0
M  V30 1735 H 163.929 1.92136 3.12217 0
M  V30 1736 H 163.577 0.330037 5.01916 0
M  V30 1737 H 163.277 2.013 5.52044 0
M  V30 1738 H 164.801 1.20506 5.98591 0
M  V30 1739 H 166.215 3.14019 4.79651 0
M  V30 1740 H 164.612 3.89644 4.56397 0
M  V30 1741 H 165.682 3.67054 3.16859 0
M  V30 1742 N 167.025 -1.13721 1.09112 0
M  V30 1743 C 168.273 -1.84559 0.823562 0
M  V30 1744 C 168.594 -1.83754 -0.652658 0
M  V30 1745 O 167.864 -1.29102 -1.47342 0
M  V30 1746 H 166.444 -0.683376 0.301673 0
M  V30 1747 H 169.106 -1.37771 1.37859 0
M  V30 1748 H 168.202 -2.8917 1.17419 0
M  V30 1749 N 168.503 -0.877838 -1.30888 0
M  V30 1750 C 169.75 -0.492696 -1.96415 0
M  V30 1751 C 170.078 0.956671 -1.69346 0
M  V30 1752 O 169.333 1.68993 -0.986913 0
M  V30 1753 C 169.632 -0.705748 -3.50363 0
M  V30 1754 C 169.298 -2.1291 -3.97467 0
M  V30 1755 C 167.96 -2.51834 -4.1004 0
M  V30 1756 C 170.312 -3.05702 -4.22132 0
M  V30 1757 C 167.64 -3.82775 -4.44635 0
M  V30 1758 C 169.992 -4.36166 -4.58194 0
M  V30 1759 C 168.656 -4.74993 -4.68975 0
M  V30 1760 H 167.926 -0.18029 -0.718733 0
M  V30 1761 H 170.573 -1.11233 -1.55883 0
M  V30 1762 H 168.878 -0.00303058 -3.918 0
M  V30 1763 H 170.575 -0.387456 -3.99124 0
M  V30 1764 H 167.165 -1.81694 -3.88182 0
M  V30 1765 H 171.349 -2.76853 -4.11906 0
M  V30 1766 H 166.605 -4.12609 -4.51181 0
M  V30 1767 H 170.779 -5.08111 -4.76231 0
M  V30 1768 H 168.406 -5.76495 -4.95537 0
M  V30 1769 N 169.982 1.44106 -0.638065 0
M  V30 1770 C 171.398 1.56672 -0.304286 0
M  V30 1771 C 171.598 1.6244 1.19228 0
M  V30 1772 O 170.654 1.57121 1.9766 0
M  V30 1773 C 171.967 2.83503 -1.00231 0
M  V30 1774 C 173.515 2.97226 -0.981116 0
M  V30 1775 C 173.99 4.26868 -1.65974 0
M  V30 1776 N 175.481 4.33698 -1.62666 0
M  V30 1777 C 176.216 5.32745 -2.12063 0
M  V30 1778 N 175.712 6.38157 -2.6968 0
M  V30 1779 N 177.505 5.24299 -2.02651 0
M  V30 1780 H 169.656 1.38605 -1.60942 0
M  V30 1781 H 171.919 0.664661 -0.675965 0
M  V30 1782 H 171.625 2.85251 -2.0573 0
M  V30 1783 H 171.499 3.73251 -0.54439 0
M  V30 1784 H 173.886 2.95027 0.0654188 0
M  V30 1785 H 173.967 2.08808 -1.47759 0
M  V30 1786 H 173.611 4.29826 -2.70576 0
M  V30 1787 H 173.541 5.14156 -1.13804 0
M  V30 1788 H 176.032 3.58138 -1.20606 0
M  V30 1789 H 176.345 7.10029 -3.05087 0
M  V30 1790 H 174.69 6.38823 -2.73734 0
M  V30 1791 H 177.881 4.4086 -1.57353 0
M  V30 1792 H 178.054 6.01334 -2.41457 0
M  V30 1793 N 171.46 0.379036 1.52974 0
M  V30 1794 C 172.709 -0.207612 2.00629 0
M  V30 1795 C 173.022 -1.48758 1.27006 0
M  V30 1796 O 174.228 -2.15365 1.65318 0
M  V30 1797 C 172.684 -0.42053 3.57435 0
M  V30 1798 C 172.292 0.845587 4.39948 0
M  V30 1799 C 174.036 -0.964102 4.13407 0
M  V30 1800 C 171.943 0.601513 5.88333 0
M  V30 1801 H 170.873 -0.0813591 0.749598 0
M  V30 1802 H 173.524 0.499853 1.76561 0
M  V30 1803 H 171.906 -1.18959 3.7771 0
M  V30 1804 H 173.08 1.61848 4.31442 0
M  V30 1805 H 171.395 1.31336 3.95145 0
M  V30 1806 H 173.992 -1.16225 5.21916 0
M  V30 1807 H 174.335 -1.93019 3.68849 0
M  V30 1808 H 174.868 -0.25487 3.96983 0
M  V30 1809 H 171.607 1.53831 6.37194 0
M  V30 1810 H 171.127 -0.132628 5.99653 0
M  V30 1811 H 172.806 0.232134 6.46583 0
M  V30 1812 N 172.938 -1.57226 0.108567 0
M  V30 1813 C 174.168 -1.9889 -0.559142 0
M  V30 1814 C 174.576 -0.986889 -1.61422 0
M  V30 1815 O 173.919 0.0298705 -1.83676 0
M  V30 1816 C 173.981 -3.36952 -1.25315 0
M  V30 1817 C 173.645 -4.55679 -0.347248 0
M  V30 1818 C 174.642 -5.18281 0.409996 0
M  V30 1819 C 172.327 -5.0162 -0.261367 0
M  V30 1820 C 174.321 -6.25203 1.24096 0
M  V30 1821 C 172.008 -6.08405 0.573238 0
M  V30 1822 C 173.006 -6.70063 1.32304 0
M  V30 1823 O 172.694 -7.74788 2.14381 0
M  V30 1824 H 172.426 -0.658343 -0.153492 0
M  V30 1825 H 174.98 -2.04532 0.188584 0
M  V30 1826 H 173.21 -3.28032 -2.04773 0
M  V30 1827 H 174.899 -3.62974 -1.81673 0
M  V30 1828 H 175.665 -4.8371 0.353457 0
M  V30 1829 H 171.544 -4.53381 -0.834656 0
M  V30 1830 H 175.088 -6.73259 1.82669 0
M  V30 1831 H 170.985 -6.42406 0.631208 0
M  V30 1832 H 171.753 -7.91837 2.07209 0
M  V30 1833 N 174.416 0.165178 -1.56732 0
M  V30 1834 C 175.664 0.879068 -1.8198 0
M  V30 1835 C 175.985 1.82514 -0.686561 0
M  V30 1836 O 175.255 1.93694 0.293146 0
M  V30 1837 H 173.835 0.327608 -0.671329 0
M  V30 1838 H 176.497 0.163526 -1.94213 0
M  V30 1839 H 175.593 1.45228 -2.76252 0
M  V30 1840 N 175.894 1.51508 0.433938 0
M  V30 1841 C 176.827 1.67756 1.54704 0
M  V30 1842 C 177.805 0.525127 1.53887 0
M  V30 1843 O 178.989 0.749393 1.72963 0
M  V30 1844 C 176.116 1.69424 2.9328 0
M  V30 1845 C 175.162 2.90673 3.12108 0
M  V30 1846 S 175.995 4.51431 2.88046 0
M  V30 1847 C 177.151 4.55849 4.28897 0
M  V30 1848 H 177.384 2.61904 1.40689 0
M  V30 1849 H 174.917 1.41235 0.62386 0
M  V30 1850 H 176.875 1.7107 3.73156 0
M  V30 1851 H 175.536 0.764464 3.04655 0
M  V30 1852 H 174.729 2.88251 4.13434 0
M  V30 1853 H 174.331 2.86786 2.40062 0
M  V30 1854 H 176.623 4.31699 5.22152 0
M  V30 1855 H 177.566 5.57676 4.36351 0
M  V30 1856 H 177.974 3.85137 4.12711 0
M  V30 1857 N 177.372 -0.689602 1.41712 0
M  V30 1858 C 178.322 -1.79571 1.40493 0
M  V30 1859 C 179.306 -1.58473 0.278409 0
M  V30 1860 O 180.498 -1.69204 0.519532 0
M  V30 1861 C 177.627 -3.17923 1.29536 0
M  V30 1862 C 176.713 -3.44695 2.47075 0
M  V30 1863 N 177.104 -3.42132 3.72531 0
M  V30 1864 C 175.402 -3.75269 2.41017 0
M  V30 1865 C 176.103 -3.67976 4.50521 0
M  V30 1866 N 175.079 -3.88014 3.80718 0
M  V30 1867 H 178.881 -1.75961 2.35404 0
M  V30 1868 H 176.395 -0.889839 1.35851 0
M  V30 1869 H 178.392 -3.97167 1.26745 0
M  V30 1870 H 177.052 -3.22741 0.356153 0
M  V30 1871 H 178.063 -3.22375 4.05333 0
M  V30 1872 H 174.74 -3.87421 1.55599 0
M  V30 1873 H 176.13 -3.7208 5.59469 0
M  V30 1874 N 178.85 -1.27639 -0.924453 0
M  V30 1875 C 180.075 -1.17101 -1.71179 0
M  V30 1876 C 180.5 0.268134 -1.86179 0
M  V30 1877 O 179.858 1.19415 -1.36418 0
M  V30 1878 C 179.906 -1.86313 -3.08739 0
M  V30 1879 O 179.01 -1.16331 -3.95652 0
M  V30 1880 H 178.351 -0.407091 -0.524569 0
M  V30 1881 H 180.881 -1.68767 -1.15666 0
M  V30 1882 H 180.891 -1.938 -3.59034 0
M  V30 1883 H 179.566 -2.91001 -2.97138 0
M  V30 1884 H 178.143 -1.16935 -3.54091 0
M  V30 1885 N 180.328 1.1314 -1.09713 0
M  V30 1886 C 181.238 2.22242 -0.751367 0
M  V30 1887 C 182.254 1.72224 0.247938 0
M  V30 1888 O 183.43 2.01205 0.0885463 0
M  V30 1889 C 180.495 3.46231 -0.180274 0
M  V30 1890 C 179.556 4.11125 -1.2359 0
M  V30 1891 C 178.789 5.29195 -0.691966 0
M  V30 1892 O 179.012 5.68342 0.48414 0
M  V30 1893 O 177.946 5.84214 -1.44838 0
M  V30 1894 H 181.772 2.54197 -1.66186 0
M  V30 1895 H 179.357 1.21331 -0.871735 0
M  V30 1896 H 181.239 4.21185 0.134739 0
M  V30 1897 H 179.914 3.1597 0.703185 0
M  V30 1898 H 178.821 3.37985 -1.60366 0
M  V30 1899 H 180.154 4.45524 -2.09211 0
M  V30 1900 N 181.806 0.884767 1.30421 0
M  V30 1901 C 182.736 0.367574 2.30589 0
M  V30 1902 C 183.717 -0.549464 1.60981 0
M  V30 1903 O 184.902 -0.46336 1.88591 0
M  V30 1904 C 182.032 -0.418944 3.44764 0
M  V30 1905 C 180.986 0.406316 4.26067 0
M  V30 1906 C 180.312 -0.506793 5.32293 0
M  V30 1907 C 181.612 1.64832 4.95608 0
M  V30 1908 H 183.306 1.20462 2.74097 0
M  V30 1909 H 180.852 0.580695 1.31772 0
M  V30 1910 H 182.805 -0.791395 4.13902 0
M  V30 1911 H 181.529 -1.28964 3.0006 0
M  V30 1912 H 180.188 0.760903 3.58617 0
M  V30 1913 H 179.836 -1.37519 4.83836 0
M  V30 1914 H 179.536 0.0415828 5.87585 0
M  V30 1915 H 181.06 -0.875764 6.04287 0
M  V30 1916 H 182.474 1.34646 5.57264 0
M  V30 1917 H 180.871 2.13688 5.60765 0
M  V30 1918 H 181.941 2.39284 4.21748 0
M  V30 1919 N 183.284 -1.43765 0.645699 0
M  V30 1920 C 184.53 -2.02731 0.164844 0
M  V30 1921 C 184.885 -1.49983 -1.2051 0
M  V30 1922 O 184.178 -0.680208 -1.79119 0
M  V30 1923 C 184.372 -3.57238 0.107679 0
M  V30 1924 C 184.201 -4.24977 1.47054 0
M  V30 1925 C 182.971 -4.61356 2.06103 0
M  V30 1926 C 185.169 -4.54476 2.40741 0
M  V30 1927 N 183.151 -5.14132 3.35473 0
M  V30 1928 C 184.522 -5.08489 3.54737 0
M  V30 1929 C 186.577 -4.36438 2.39637 0
M  V30 1930 C 185.28 -5.46364 4.67845 0
M  V30 1931 C 187.306 -4.7537 3.5182 0
M  V30 1932 C 186.668 -5.2951 4.64541 0
M  V30 1933 H 182.767 -0.774976 0.104578 0
M  V30 1934 H 185.351 -1.75051 0.852367 0
M  V30 1935 H 183.522 -3.84498 -0.549165 0
M  V30 1936 H 185.254 -4.0288 -0.383351 0
M  V30 1937 H 182.009 -4.46151 1.58892 0
M  V30 1938 H 182.433 -5.4498 4.01654 0
M  V30 1939 H 187.075 -3.93861 1.53731 0
M  V30 1940 H 184.793 -5.87888 5.54448 0
M  V30 1941 H 188.379 -4.63115 3.52159 0
M  V30 1942 H 187.259 -5.59077 5.49911 0
M  V30 1943 N 184.763 -0.387143 -1.52771 0
M  V30 1944 C 186.011 0.195349 -2.01154 0
M  V30 1945 C 186.332 1.475 -1.27549 0
M  V30 1946 O 185.602 1.91878 -0.394924 0
M  V30 1947 H 184.182 0.075178 -0.743207 0
M  V30 1948 H 186.844 -0.518337 -1.87881 0
M  V30 1949 H 185.94 0.407096 -3.09434 0
M  V30 1950 N 186.241 1.57166 -0.116904 0
M  V30 1951 C 187.487 1.95412 0.542405 0
M  V30 1952 C 187.82 1.00019 1.66463 0
M  V30 1953 O 187.095 0.0370346 1.94465 0
M  V30 1954 C 187.378 3.43615 1.07708 0
M  V30 1955 C 187.231 4.49781 -0.0415868 0
M  V30 1956 C 188.55 3.93616 1.96861 0
M  V30 1957 H 185.669 0.710543 0.195696 0
M  V30 1958 H 188.311 1.89027 -0.192038 0
M  V30 1959 H 186.461 3.49187 1.70296 0
M  V30 1960 H 188.133 4.56308 -0.676793 0
M  V30 1961 H 186.376 4.28033 -0.705019 0
M  V30 1962 H 187.047 5.50733 0.373717 0
M  V30 1963 H 189.523 3.90335 1.44146 0
M  V30 1964 H 188.399 4.97838 2.3119 0
M  V30 1965 H 188.66 3.34188 2.89432 0
M  V30 1966 N 187.719 -0.156864 1.56817 0
M  V30 1967 C 188.965 -0.872416 1.83076 0
M  V30 1968 C 189.298 -1.81261 0.697001 0
M  V30 1969 O 188.573 -1.92171 -0.30008 0
M  V30 1970 C 188.856 -1.65551 3.19789 0
M  V30 1971 C 188.709 -0.737467 4.43713 0
M  V30 1972 C 190.028 -2.62012 3.53606 0
M  V30 1973 H 187.147 -0.315715 0.665953 0
M  V30 1974 H 189.789 -0.138004 1.89498 0
M  V30 1975 H 187.939 -2.28159 3.14445 0
M  V30 1976 H 189.611 -0.123143 4.61136 0
M  V30 1977 H 187.854 -0.0464067 4.33775 0
M  V30 1978 H 188.525 -1.32122 5.35955 0
M  V30 1979 H 191.001 -2.09525 3.59497 0
M  V30 1980 H 189.877 -3.13861 4.50314 0
M  V30 1981 H 190.138 -3.42902 2.79053 0
M  V30 1982 N 189.197 -1.51736 -0.425897 0
M  V30 1983 C 190.147 -1.70258 -1.51645 0
M  V30 1984 C 191.131 -0.556488 -1.5097 0
M  V30 1985 O 192.323 -0.812879 -1.5723 0
M  V30 1986 C 189.452 -1.84143 -2.89735 0
M  V30 1987 C 188.538 -3.04572 -2.95122 0
M  V30 1988 N 188.929 -4.2756 -2.70233 0
M  V30 1989 C 187.227 -3.04061 -3.26286 0
M  V30 1990 C 187.928 -5.08908 -2.81757 0
M  V30 1991 N 186.904 -4.43797 -3.13919 0
M  V30 1992 H 190.706 -2.63004 -1.31172 0
M  V30 1993 H 188.22 -1.4954 -0.633375 0
M  V30 1994 H 190.217 -1.95525 -3.68206 0
M  V30 1995 H 188.877 -0.925857 -3.1122 0
M  V30 1996 H 189.888 -4.56315 -2.44943 0
M  V30 1997 H 186.565 -2.22179 -3.53473 0
M  V30 1998 H 187.955 -6.16843 -2.66372 0
M  V30 1999 N 190.675 0.682077 -1.42076 0
M  V30 2000 C 191.923 1.4393 -1.41876 0
M  V30 2001 C 192.244 1.94971 -0.0335599 0
M  V30 2002 O 191.514 1.72591 0.926773 0
M  V30 2003 H 190.094 0.534085 -0.522267 0
M  V30 2004 H 192.756 0.806427 -1.77434 0
M  V30 2005 H 191.852 2.29588 -2.11414 0
M  V30 2006 N 192.153 1.28127 0.917671 0
M  V30 2007 C 193.116 1.11744 2.00115 0
M  V30 2008 C 194.116 0.0583052 1.60694 0
M  V30 2009 O 195.306 0.303755 1.71531 0
M  V30 2010 C 192.438 0.704862 3.33533 0
M  V30 2011 H 193.631 2.07966 2.16079 0
M  V30 2012 H 191.184 1.11058 1.09981 0
M  V30 2013 H 191.919 -0.258299 3.2327 0
M  V30 2014 H 191.704 1.4699 3.63505 0
M  V30 2015 H 193.194 0.612768 4.1308 0
M  V30 2016 N 193.631 -1.12557 1.10312 0
M  V30 2017 C 194.859 -1.87864 0.866873 0
M  V30 2018 C 195.274 -1.79588 -0.582557 0
M  V30 2019 O 194.631 -1.16887 -1.40156 0
M  V30 2020 C 194.682 -3.37125 1.30496 0
M  V30 2021 O 194.403 -3.45201 2.69755 0
M  V30 2022 C 195.904 -4.29373 1.10243 0
M  V30 2023 H 193.124 -0.594452 0.311236 0
M  V30 2024 H 195.668 -1.42429 1.46745 0
M  V30 2025 H 193.823 -3.80109 0.748081 0
M  V30 2026 H 194.237 -4.38056 2.88457 0
M  V30 2027 H 195.711 -5.32394 1.45811 0
M  V30 2028 H 196.188 -4.39181 0.0409492 0
M  V30 2029 H 196.794 -3.92169 1.64571 0
M  V30 2030 N 195.109 -0.891671 -1.2995 0
M  V30 2031 C 196.355 -0.514261 -1.96171 0
M  V30 2032 C 196.688 0.935506 -1.70182 0
M  V30 2033 O 195.963 1.66204 -1.01028 0
M  V30 2034 C 196.246 -0.797719 -3.51153 0
M  V30 2035 C 196.099 -2.2986 -3.86632 0
M  V30 2036 C 197.418 -0.278749 -4.39216 0
M  V30 2037 H 194.537 -0.188314 -0.712535 0
M  V30 2038 H 197.179 -1.11689 -1.53706 0
M  V30 2039 H 195.329 -0.284826 -3.87455 0
M  V30 2040 H 197.001 -2.88042 -3.60319 0
M  V30 2041 H 195.244 -2.76257 -3.34462 0
M  V30 2042 H 195.915 -2.44753 -4.94773 0
M  V30 2043 H 198.391 -0.717825 -4.09862 0
M  V30 2044 H 197.267 -0.506353 -5.46559 0
M  V30 2045 H 197.528 0.820266 -4.34424 0
M  V30 2046 N 196.587 1.43421 -0.653314 0
M  V30 2047 C 197.517 2.33487 0.0246656 0
M  V30 2048 C 198.498 1.49475 0.811863 0
M  V30 2049 O 199.683 1.78139 0.773322 0
M  V30 2050 C 196.813 3.32841 0.99166 0
M  V30 2051 C 195.767 4.26842 0.314568 0
M  V30 2052 C 195.093 5.16236 1.39302 0
M  V30 2053 C 196.393 5.16243 -0.793095 0
M  V30 2054 H 198.087 2.90427 -0.727481 0
M  V30 2055 H 195.633 1.39649 -0.351287 0
M  V30 2056 H 197.586 3.94747 1.47487 0
M  V30 2057 H 196.31 2.74158 1.77497 0
M  V30 2058 H 194.969 3.663 -0.148199 0
M  V30 2059 H 194.617 4.53891 2.16776 0
M  V30 2060 H 194.317 5.79948 0.945223 0
M  V30 2061 H 195.841 5.81015 1.87759 0
M  V30 2062 H 197.255 5.71958 -0.392039 0
M  V30 2063 H 195.652 5.88676 -1.16536 0
M  V30 2064 H 196.722 4.55927 -1.65103 0
M  V30 2065 N 198.065 0.39524 1.52563 0
M  V30 2066 C 199.29 -0.187456 2.06551 0
M  V30 2067 C 199.715 -1.39249 1.26457 0
M  V30 2068 O 199.073 -1.78947 0.291151 0
M  V30 2069 C 199.121 -0.529985 3.56684 0
M  V30 2070 O 198.225 -1.62307 3.79118 0
M  V30 2071 H 197.566 -0.0202537 0.663691 0
M  V30 2072 H 200.096 0.564426 1.96661 0
M  V30 2073 H 200.106 -0.792598 4.00227 0
M  V30 2074 H 198.781 0.350987 4.14416 0
M  V30 2075 H 197.358 -1.3537 3.47461 0
M  V30 2076 N 199.544 -1.57102 0.125237 0
M  V30 2077 C 200.955 -1.82384 -0.399142 0
M  V30 2078 C 201.306 -1.04276 -1.66195 0
M  V30 2079 O 200.431 -0.281269 -2.14564 0
M  V30 2080 C 201.026 -3.30821 -0.730932 0
M  V30 2081 C 199.585 -3.56762 -1.19992 0
M  V30 2082 C 198.732 -2.7649 -0.211792 0
M  V30 2083 H 201.683 -1.54786 0.350277 0
M  V30 2084 H 201.704 -3.4579 -1.58775 0
M  V30 2085 H 201.216 -3.87643 0.188345 0
M  V30 2086 H 199.317 -3.05305 -2.13588 0
M  V30 2087 H 199.43 -4.65317 -1.14093 0
M  V30 2088 H 197.794 -2.4489 -0.700085 0
M  V30 2089 H 198.577 -3.36073 0.700691 0
M  V30 2090 N 201.022 0.148545 -1.56898 0
M  V30 2091 C 202.25 0.876389 -1.87422 0
M  V30 2092 C 202.665 1.74809 -0.713256 0
M  V30 2093 O 202.022 1.79725 0.317025 0
M  V30 2094 C 202.073 1.73438 -3.17178 0
M  V30 2095 O 201.794 0.897809 -4.28802 0
M  V30 2096 C 203.295 2.56993 -3.61205 0
M  V30 2097 H 200.515 0.253489 -0.621277 0
M  V30 2098 H 203.059 0.141798 -2.04008 0
M  V30 2099 H 201.214 2.42205 -3.0235 0
M  V30 2100 H 201.628 1.48672 -5.02988 0
M  V30 2101 H 203.102 3.12773 -4.54838 0
M  V30 2102 H 203.579 3.32958 -2.86419 0
M  V30 2103 H 204.185 1.9352 -3.78722 0
M  V30 2104 N 202.5 1.5196 0.417844 0
M  V30 2105 C 203.463 1.74065 1.49111 0
M  V30 2106 C 204.463 0.610537 1.48758 0
M  V30 2107 O 205.653 0.87832 1.50437 0
M  V30 2108 C 202.785 1.81502 2.88565 0
M  V30 2109 H 203.978 2.69869 1.30807 0
M  V30 2110 H 201.531 1.42244 0.647785 0
M  V30 2111 H 202.266 0.875813 3.1225 0
M  V30 2112 H 202.051 2.63651 2.90225 0
M  V30 2113 H 203.541 2.00376 3.66387 0
M  V30 2114 N 203.978 -0.674533 1.42435 0
M  V30 2115 C 205.224 -1.43671 1.43131 0
M  V30 2116 C 205.557 -1.94142 0.0476021 0
M  V30 2117 O 204.832 -1.70924 -0.928188 0
M  V30 2118 C 205.115 -2.63355 2.45594 0
M  V30 2119 C 204.968 -2.18514 3.93156 0
M  V30 2120 C 206.287 -3.65571 2.45043 0
M  V30 2121 H 203.406 -0.521077 0.521198 0
M  V30 2122 H 206.048 -0.766551 1.7385 0
M  V30 2123 H 204.198 -3.2053 2.19528 0
M  V30 2124 H 205.87 -1.66504 4.30202 0
M  V30 2125 H 204.113 -1.50086 4.07009 0
M  V30 2126 H 204.784 -3.04484 4.60428 0
M  V30 2127 H 207.26 -3.18113 2.68223 0
M  V30 2128 H 206.136 -4.46893 3.18713 0
M  V30 2129 H 206.397 -4.16716 1.47649 0
M  V30 2130 N 205.456 -1.28612 -0.910864 0
M  V30 2131 C 206.703 -1.15934 -1.66029 0
M  V30 2132 C 207.031 0.291483 -1.92303 0
M  V30 2133 O 206.286 1.22816 -1.52364 0
M  V30 2134 C 206.585 -1.90624 -3.0232 0
M  V30 2135 C 206.251 -3.40405 -2.95695 0
M  V30 2136 C 204.913 -3.81255 -2.93595 0
M  V30 2137 C 207.265 -4.359 -2.85728 0
M  V30 2138 C 204.593 -5.15936 -2.79334 0
M  V30 2139 C 206.945 -5.70657 -2.73007 0
M  V30 2140 C 205.609 -6.10779 -2.69267 0
M  V30 2141 H 204.879 -0.424234 -0.607541 0
M  V30 2142 H 207.526 -1.5942 -1.06101 0
M  V30 2143 H 205.831 -1.39696 -3.6605 0
M  V30 2144 H 207.528 -1.78228 -3.59215 0
M  V30 2145 H 204.118 -3.07927 -2.98125 0
M  V30 2146 H 208.302 -4.053 -2.86436 0
M  V30 2147 H 203.558 -5.46146 -2.74835 0
M  V30 2148 H 207.732 -6.44311 -2.64264 0
M  V30 2149 H 205.359 -7.1509 -2.57974 0
M  V30 2150 N 206.934 1.1197 -1.10907 0
M  V30 2151 C 208.182 1.83225 -0.852819 0
M  V30 2152 C 208.503 1.84769 0.623341 0
M  V30 2153 O 207.773 1.3143 1.45269 0
M  V30 2154 H 206.353 0.67849 -0.312507 0
M  V30 2155 H 209.015 1.3556 -1.40033 0
M  V30 2156 H 208.111 2.87265 -1.22005 0
M  V30 2157 N 208.412 0.89855 1.29475 0
M  V30 2158 C 209.64 0.539261 1.99749 0
M  V30 2159 C 210.055 -0.875716 1.67262 0
M  V30 2160 O 209.412 -1.57786 0.917049 0
M  V30 2161 C 209.463 0.72061 3.54245 0
M  V30 2162 O 209.184 2.07989 3.8558 0
M  V30 2163 C 210.685 0.366118 4.41786 0
M  V30 2164 H 207.905 0.207047 0.638258 0
M  V30 2165 H 210.449 1.20758 1.65039 0
M  V30 2166 H 208.604 0.0994862 3.87272 0
M  V30 2167 H 209.018 2.10841 4.80257 0
M  V30 2168 H 210.492 0.543848 5.49314 0
M  V30 2169 H 210.969 -0.696763 4.33638 0
M  V30 2170 H 211.575 0.964135 4.14228 0
M  V30 2171 N 209.89 -1.43072 0.660911 0
M  V30 2172 C 210.82 -2.33497 -0.0122829 0
M  V30 2173 C 211.801 -1.49903 -0.803925 0
M  V30 2174 O 212.986 -1.78546 -0.763864 0
M  V30 2175 C 210.116 -3.33363 -0.973994 0
M  V30 2176 C 209.07 -4.27003 -0.291928 0
M  V30 2177 C 208.396 -5.16967 -1.36562 0
M  V30 2178 C 209.696 -5.15816 0.820462 0
M  V30 2179 H 211.39 -2.90038 0.742873 0
M  V30 2180 H 208.936 -1.39461 0.358688 0
M  V30 2181 H 210.889 -3.95524 -1.45392 0
M  V30 2182 H 209.613 -2.75095 -1.7604 0
M  V30 2183 H 208.272 -3.66217 0.167623 0
M  V30 2184 H 207.92 -4.55034 -2.14366 0
M  V30 2185 H 207.62 -5.80441 -0.914454 0
M  V30 2186 H 209.144 -5.82003 -1.84675 0
M  V30 2187 H 210.558 -5.71742 0.422366 0
M  V30 2188 H 208.955 -5.8805 1.19656 0
M  V30 2189 H 210.025 -4.55045 1.67518 0
M  V30 2190 N 211.368 -0.403325 -1.52352 0
M  V30 2191 C 212.331 0.413051 -2.25447 0
M  V30 2192 C 213.331 0.978513 -1.276 0
M  V30 2193 O 214.521 0.858305 -1.51587 0
M  V30 2194 C 211.653 1.58087 -3.02029 0
M  V30 2195 H 212.846 -0.227094 -2.99039 0
M  V30 2196 H 210.399 -0.155722 -1.55522 0
M  V30 2197 H 211.134 2.25804 -2.32772 0
M  V30 2198 H 210.919 1.18195 -3.73861 0
M  V30 2199 H 212.409 2.1585 -3.57489 0
M  V30 2200 N 212.846 1.57033 -0.133567 0
M  V30 2201 C 214.071 2.00475 0.531477 0
M  V30 2202 C 214.496 1.01291 1.58499 0
M  V30 2203 O 213.854 -0.0133279 1.81295 0
M  V30 2204 C 213.902 3.42729 1.12113 0
M  V30 2205 O 213.006 3.46498 2.23636 0
M  V30 2206 H 212.347 0.650876 0.131362 0
M  V30 2207 H 214.877 2.03344 -0.22634 0
M  V30 2208 H 214.887 3.81246 1.4531 0
M  V30 2209 H 213.562 4.14428 0.349557 0
M  V30 2210 H 212.139 3.19811 1.91769 0
M  V30 2211 N 214.325 -0.140222 1.56975 0
M  V30 2212 C 215.255 -1.17456 2.01808 0
M  V30 2213 C 216.236 -1.44415 0.898794 0
M  V30 2214 O 217.421 -1.5522 1.16707 0
M  V30 2215 C 214.551 -2.50607 2.40444 0
M  V30 2216 C 213.505 -2.38155 3.55621 0
M  V30 2217 C 212.831 -3.76078 3.80091 0
M  V30 2218 C 214.131 -1.85991 4.88062 0
M  V30 2219 H 215.825 -0.801743 2.88466 0
M  V30 2220 H 213.371 -0.38422 1.38779 0
M  V30 2221 H 215.324 -3.23197 2.7041 0
M  V30 2222 H 214.048 -2.89737 1.50732 0
M  V30 2223 H 212.707 -1.68016 3.25832 0
M  V30 2224 H 212.355 -4.12656 2.87618 0
M  V30 2225 H 212.055 -3.68606 4.57606 0
M  V30 2226 H 213.579 -4.50206 4.12488 0
M  V30 2227 H 214.993 -2.4838 5.16701 0
M  V30 2228 H 213.39 -1.89393 5.6943 0
M  V30 2229 H 214.46 -0.816023 4.77984 0
M  V30 2230 N 215.803 -1.52179 -0.40978 0
M  V30 2231 C 217.033 -1.69807 -1.17682 0
M  V30 2232 C 217.441 -0.406908 -1.84773 0
M  V30 2233 O 216.784 0.626863 -1.72673 0
M  V30 2234 C 216.846 -2.77712 -2.2829 0
M  V30 2235 C 216.51 -4.19481 -1.81341 0
M  V30 2236 C 217.507 -5.03345 -1.30154 0
M  V30 2237 C 215.192 -4.65713 -1.88194 0
M  V30 2238 C 217.186 -6.31511 -0.864416 0
M  V30 2239 C 214.873 -5.93869 -1.44093 0
M  V30 2240 C 215.871 -6.76597 -0.933023 0
M  V30 2241 O 215.559 -8.02354 -0.49838 0
M  V30 2242 H 215.291 -0.572372 -0.359675 0
M  V30 2243 H 217.845 -1.99511 -0.488311 0
M  V30 2244 H 216.075 -2.43383 -3.00502 0
M  V30 2245 H 217.764 -2.83946 -2.90051 0
M  V30 2246 H 218.53 -4.68819 -1.24232 0
M  V30 2247 H 214.409 -4.01424 -2.26671 0
M  V30 2248 H 217.953 -6.96033 -0.467286 0
M  V30 2249 H 213.85 -6.27903 -1.49694 0
M  V30 2250 H 214.618 -8.16135 -0.621747 0
M  V30 2251 N 217.281 0.66697 -1.42791 0
M  V30 2252 C 218.211 1.79218 -1.49677 0
M  V30 2253 C 219.192 1.66405 -0.352623 0
M  V30 2254 O 220.377 1.85708 -0.567993 0
M  V30 2255 C 217.507 3.17565 -1.40605 0
M  V30 2256 C 216.461 3.45124 -2.53127 0
M  V30 2257 C 215.787 4.83127 -2.29112 0
M  V30 2258 C 217.087 3.41236 -3.95418 0
M  V30 2259 H 218.781 1.73713 -2.43853 0
M  V30 2260 H 216.327 0.83432 -1.17367 0
M  V30 2261 H 218.28 3.96022 -1.44029 0
M  V30 2262 H 217.004 3.23767 -0.429271 0
M  V30 2263 H 215.663 2.69031 -2.49034 0
M  V30 2264 H 215.311 4.85988 -1.29709 0
M  V30 2265 H 215.011 5.02528 -3.04531 0
M  V30 2266 H 216.535 5.63859 -2.34297 0
M  V30 2267 H 217.949 4.09651 -4.01073 0
M  V30 2268 H 216.346 3.72173 -4.70752 0
M  V30 2269 H 217.416 2.39665 -4.21532 0
M  V30 2270 N 218.759 1.29093 0.90403 0
M  V30 2271 C 220.007 1.16583 1.65085 0
M  V30 2272 C 220.328 -0.283933 1.92922 0
M  V30 2273 O 219.598 -1.19509 1.55224 0
M  V30 2274 H 218.178 0.428467 0.611903 0
M  V30 2275 H 220.84 1.61959 1.08422 0
M  V30 2276 H 219.936 1.71266 2.6091 0
M  V30 2277 N 220.237 -1.11381 1.11499 0
M  V30 2278 C 221.2 -2.15622 0.777153 0
M  V30 2279 C 222.2 -1.59504 -0.203779 0
M  V30 2280 O 223.39 -1.74188 0.020782 0
M  V30 2281 C 220.522 -3.40556 0.153116 0
M  V30 2282 H 221.715 -2.47021 1.70061 0
M  V30 2283 H 219.268 -1.26577 0.916952 0
M  V30 2284 H 220.003 -3.14767 -0.780536 0
M  V30 2285 H 219.788 -3.8257 0.859238 0
M  V30 2286 H 221.278 -4.17546 -0.0671044 0
M  V30 2287 N 221.715 -0.905404 -1.28997 0
M  V30 2288 C 222.645 -0.404212 -2.29975 0
M  V30 2289 C 223.626 0.523784 -1.61835 0
M  V30 2290 O 224.811 0.433298 -1.89304 0
M  V30 2291 C 221.941 0.364042 -3.45387 0
M  V30 2292 C 220.895 -0.474048 -4.25367 0
M  V30 2293 C 220.221 0.422045 -5.33032 0
M  V30 2294 C 221.521 -1.72696 -4.92923 0
M  V30 2295 H 223.215 -1.24807 -2.72146 0
M  V30 2296 H 220.761 -0.601585 -1.30832 0
M  V30 2297 H 222.714 0.725447 -4.15109 0
M  V30 2298 H 221.438 1.24174 -3.02074 0
M  V30 2299 H 220.097 -0.81786 -3.57361 0
M  V30 2300 H 219.745 1.29804 -4.85963 0
M  V30 2301 H 219.445 -0.135057 -5.87445 0
M  V30 2302 H 220.969 0.779517 -6.05604 0
M  V30 2303 H 222.383 -1.43495 -5.55051 0
M  V30 2304 H 220.78 -2.22582 -5.57295 0
M  V30 2305 H 221.85 -2.45964 -4.17887 0
M  V30 2306 N 223.193 1.4272 -0.668489 0
M  V30 2307 C 224.47 1.95248 -0.117373 0
M  V30 2308 C 224.85 1.60919 1.36632 0
M  V30 2309 O 224.198 0.902095 2.09939 0
M  V30 2310 C 224.408 3.46927 -0.379806 0
M  V30 2311 C 225.756 4.23588 -0.292923 0
M  V30 2312 O 226.78 3.5482 -0.313204 0
M  V30 2313 O 225.639 5.46017 -0.229697 0
M  V30 2314 H 222.733 0.827 0.00079152 0
M  V30 2315 H 225.279 1.52581 -0.742783 0
M  V30 2316 H 224.051 3.65096 -1.40786 0
M  V30 2317 H 223.674 3.96627 0.277923 0
M  V30 2318 N 224.671 0.411399 1.52136 0
M  V30 2319 C 225.621 -0.430376 2.23901 0
M  V30 2320 C 226.605 -1.0116 1.25121 0
M  V30 2321 O 227.797 -0.934044 1.50348 0
M  V30 2322 C 224.926 -1.54527 3.06556 0
M  V30 2323 C 224.012 -0.9747 4.12747 0
M  V30 2324 N 224.403 -0.130991 5.0563 0
M  V30 2325 C 222.701 -1.24497 4.28271 0
M  V30 2326 C 223.402 0.186689 5.814 0
M  V30 2327 N 222.378 -0.42304 5.41951 0
M  V30 2328 H 226.18 0.220509 2.93072 0
M  V30 2329 H 223.694 0.221952 1.60876 0
M  V30 2330 H 225.691 -2.16093 3.56524 0
M  V30 2331 H 224.351 -2.19875 2.38925 0
M  V30 2332 H 225.362 0.23349 5.17373 0
M  V30 2333 H 222.039 -1.89787 3.7187 0
M  V30 2334 H 223.429 0.871673 6.66222 0
M  V30 2335 N 226.149 -1.5696 0.141893 0
M  V30 2336 C 227.377 -2.00322 -0.517579 0
M  V30 2337 C 227.792 -1.02193 -1.58752 0
M  V30 2338 O 227.149 -0.0181619 -1.82491 0
M  V30 2339 C 227.2 -3.43618 -1.12289 0
M  V30 2340 O 226.921 -4.37995 -0.0956929 0
M  V30 2341 C 228.422 -4.02231 -1.86347 0
M  V30 2342 H 225.642 -0.657243 -0.135177 0
M  V30 2343 H 228.186 -2.03146 0.234973 0
M  V30 2344 H 226.341 -3.41662 -1.82609 0
M  V30 2345 H 226.755 -5.21729 -0.538469 0
M  V30 2346 H 228.229 -5.04509 -2.23997 0
M  V30 2347 H 228.706 -3.42655 -2.74744 0
M  V30 2348 H 229.312 -4.07802 -1.20737 0
M  V30 2349 N 227.627 0.131896 -1.57047 0
M  V30 2350 C 228.59 1.14638 -1.98471 0
M  V30 2351 C 229.59 1.35029 -0.873148 0
M  V30 2352 O 230.78 1.31764 -1.13946 0
M  V30 2353 C 227.912 2.50358 -2.31373 0
M  V30 2354 H 229.105 0.79064 -2.8929 0
M  V30 2355 H 226.658 0.375761 -1.51716 0
M  V30 2356 H 227.393 2.90876 -1.43393 0
M  V30 2357 H 227.178 2.36915 -3.12432 0
M  V30 2358 H 228.668 3.23395 -2.64207 0
M  V30 2359 N 229.106 1.52395 0.401703 0
M  V30 2360 C 230.383 1.57387 1.16141 0
M  V30 2361 C 230.763 0.359359 2.08019 0
M  V30 2362 O 230.111 -0.65326 2.18963 0
M  V30 2363 C 230.321 2.90631 1.93221 0
M  V30 2364 C 231.669 3.43904 2.49028 0
M  V30 2365 O 232.693 2.92421 2.03393 0
M  V30 2366 O 231.552 4.33823 3.32356 0
M  V30 2367 H 228.646 0.634262 0.530698 0
M  V30 2368 H 231.192 1.64725 0.407883 0
M  V30 2369 H 229.964 3.70473 1.25958 0
M  V30 2370 H 229.587 2.8662 2.75563 0
M  V30 2371 N 230.584 -0.659388 1.43143 0
M  V30 2372 C 232 -0.974337 1.26407 0
M  V30 2373 C 232.2 -2.007 0.179341 0
M  V30 2374 O 231.256 -2.4856 -0.444295 0
M  V30 2375 C 232.569 -1.46447 2.62628 0
M  V30 2376 C 234.117 -1.58144 2.7011 0
M  V30 2377 C 234.592 -2.1055 4.06734 0
M  V30 2378 N 236.083 -2.17861 4.08767 0
M  V30 2379 C 236.818 -2.59519 5.1131 0
M  V30 2380 N 236.314 -3.00518 6.24228 0
M  V30 2381 N 238.107 -2.59404 4.98664 0
M  V30 2382 H 230.258 0.0240528 2.12386 0
M  V30 2383 H 232.521 -0.0518065 0.946583 0
M  V30 2384 H 232.227 -0.780123 3.42939 0
M  V30 2385 H 232.101 -2.44058 2.87603 0
M  V30 2386 H 234.488 -2.25682 1.90136 0
M  V30 2387 H 234.569 -0.589828 2.48907 0
M  V30 2388 H 234.213 -1.43616 4.87172 0
M  V30 2389 H 234.143 -3.10531 4.25298 0
M  V30 2390 H 236.634 -1.88975 3.27257 0
M  V30 2391 H 236.947 -3.31036 6.98309 0
M  V30 2392 H 235.292 -2.98337 6.2771 0
M  V30 2393 H 238.483 -2.26747 4.09516 0
M  V30 2394 H 238.656 -2.91548 5.78709 0
M  V30 2395 N 232.062 -1.29571 -0.897171 0
M  V30 2396 C 232.992 -1.17473 -2.01798 0
M  V30 2397 C 233.973 -0.068323 -1.69963 0
M  V30 2398 O 235.158 -0.248239 -1.92607 0
M  V30 2399 C 232.288 -0.853099 -3.36659 0
M  V30 2400 C 231.242 -1.9161 -3.82713 0
M  V30 2401 C 230.568 -1.44773 -5.14728 0
M  V30 2402 C 231.868 -3.32535 -4.02763 0
M  V30 2403 H 233.562 -2.11237 -2.12177 0
M  V30 2404 H 231.108 -1.01699 -1.01948 0
M  V30 2405 H 233.061 -0.755165 -4.14578 0
M  V30 2406 H 231.785 0.120236 -3.26379 0
M  V30 2407 H 230.444 -2.00346 -3.07013 0
M  V30 2408 H 230.092 -0.462995 -5.00865 0
M  V30 2409 H 229.792 -2.15865 -5.46513 0
M  V30 2410 H 231.316 -1.36334 -5.95185 0
M  V30 2411 H 232.73 -3.26626 -4.71156 0
M  V30 2412 H 231.127 -4.01607 -4.45905 0
M  V30 2413 H 232.197 -3.75326 -3.07016 0
M  V30 2414 N 233.54 1.10788 -1.12088 0
M  V30 2415 C 234.472 2.16816 -0.743213 0
M  V30 2416 C 235.485 1.6119 0.228412 0
M  V30 2417 O 236.674 1.78497 0.0102931 0
M  V30 2418 C 233.774 3.38809 -0.0787313 0
M  V30 2419 C 232.947 4.23885 -1.0789 0
M  V30 2420 C 232.006 5.24334 -0.442713 0
M  V30 2421 O 231.032 5.58497 -1.09864 0
M  V30 2422 N 232.234 5.75079 0.791457 0
M  V30 2423 H 234.999 2.49825 -1.65552 0
M  V30 2424 H 232.56 1.26373 -1.012 0
M  V30 2425 H 234.552 4.03107 0.358766 0
M  V30 2426 H 233.122 3.03805 0.736275 0
M  V30 2427 H 232.342 3.55939 -1.69414 0
M  V30 2428 H 233.63 4.77562 -1.75533 0
M  V30 2429 H 233.028 5.49517 1.3434 0
M  V30 2430 H 231.585 6.4118 1.17183 0
M  V30 2431 N 235.018 0.912232 1.28515 0
M  V30 2432 C 235.981 0.404223 2.25607 0
M  V30 2433 C 236.981 -0.468602 1.53821 0
M  V30 2434 O 238.171 -0.271873 1.72065 0
M  V30 2435 C 235.303 -0.420653 3.38295 0
M  V30 2436 H 236.496 1.26188 2.7206 0
M  V30 2437 H 234.049 0.691495 1.40171 0
M  V30 2438 H 234.784 -1.29777 2.97201 0
M  V30 2439 H 234.569 0.204935 3.91564 0
M  V30 2440 H 236.059 -0.766971 4.10496 0
M  V30 2441 N 236.496 -1.42363 0.676048 0
M  V30 2442 C 237.745 -2.00745 0.196037 0
M  V30 2443 C 238.058 -1.54083 -1.20489 0
M  V30 2444 O 239.264 -2.04891 -1.78134 0
M  V30 2445 C 237.72 -3.58651 0.299616 0
M  V30 2446 C 237.328 -4.143 1.70468 0
M  V30 2447 C 239.072 -4.24326 -0.121619 0
M  V30 2448 C 236.979 -5.64574 1.76096 0
M  V30 2449 H 235.909 -0.750787 0.0695301 0
M  V30 2450 H 238.56 -1.63072 0.841412 0
M  V30 2451 H 236.942 -3.93833 -0.413673 0
M  V30 2452 H 238.116 -3.90575 2.44515 0
M  V30 2453 H 236.431 -3.61081 2.07387 0
M  V30 2454 H 239.028 -5.34607 -0.0997362 0
M  V30 2455 H 239.371 -3.99897 -1.15708 0
M  V30 2456 H 239.904 -3.94108 0.540706 0
M  V30 2457 H 236.643 -5.93804 2.77628 0
M  V30 2458 H 236.163 -5.90286 1.06406 0
M  V30 2459 H 237.842 -6.29013 1.51496 0
M  V30 2460 N 237.974 -0.419461 -1.51915 0
M  V30 2461 C 238.904 0.391813 -2.30189 0
M  V30 2462 C 239.885 1.03699 -1.34836 0
M  V30 2463 O 241.07 1.04403 -1.63748 0
M  V30 2464 C 238.2 1.50312 -3.13087 0
M  V30 2465 C 237.154 0.9824 -4.16573 0
M  V30 2466 C 236.48 2.18809 -4.8788 0
M  V30 2467 C 237.78 0.0292356 -5.22292 0
M  V30 2468 H 239.474 -0.26135 -2.98257 0
M  V30 2469 H 237.02 -0.127134 -1.43438 0
M  V30 2470 H 238.973 2.07773 -3.66617 0
M  V30 2471 H 237.697 2.18431 -2.42807 0
M  V30 2472 H 236.356 0.430119 -3.64068 0
M  V30 2473 H 236.004 2.85507 -4.14119 0
M  V30 2474 H 235.704 1.84615 -5.57845 0
M  V30 2475 H 237.228 2.76858 -5.44226 0
M  V30 2476 H 238.642 0.512976 -5.71 0
M  V30 2477 H 237.039 -0.2244 -5.9968 0
M  V30 2478 H 238.109 -0.912931 -4.76228 0
M  V30 2479 N 239.452 1.56882 -0.150215 0
M  V30 2480 C 240.7 1.9584 0.499105 0
M  V30 2481 C 241.021 1.03623 1.65188 0
M  V30 2482 O 240.291 0.0984084 1.95653 0
M  V30 2483 H 238.871 0.723119 0.187373 0
M  V30 2484 H 241.533 1.9358 -0.226466 0
M  V30 2485 H 240.629 2.99638 0.873122 0
M  V30 2486 N 240.93 -0.123565 1.57115 0
M  V30 2487 C 242.176 -0.833386 1.84885 0
M  V30 2488 C 242.509 -1.79742 0.735292 0
M  V30 2489 O 241.784 -1.92764 -0.25925 0
M  V30 2490 C 242.067 -1.5873 3.23228 0
M  V30 2491 C 241.92 -0.643183 4.45178 0
M  V30 2492 C 243.239 -2.54453 3.59085 0
M  V30 2493 H 240.358 -0.301518 0.6725 0
M  V30 2494 H 243 -0.097778 1.89748 0
M  V30 2495 H 241.15 -2.21438 3.19214 0
M  V30 2496 H 242.822 -0.0253015 4.61293 0
M  V30 2497 H 241.065 0.0456139 4.33776 0
M  V30 2498 H 241.736 -1.20724 5.38637 0
M  V30 2499 H 244.212 -2.01853 3.63861 0
M  V30 2500 H 243.088 -3.04238 4.5687 0
M  V30 2501 H 243.349 -3.36906 2.86264 0
M  V30 2502 N 242.408 -1.52605 -0.393616 0
M  V30 2503 C 243.819 -1.59417 -0.971761 0
M  V30 2504 C 244.17 -0.444173 -1.91106 0
M  V30 2505 O 243.295 0.433382 -2.12016 0
M  V30 2506 C 243.89 -2.88936 -1.76921 0
M  V30 2507 C 242.449 -2.98175 -2.29714 0
M  V30 2508 C 241.596 -2.54491 -1.10135 0
M  V30 2509 H 244.547 -1.57751 -0.173317 0
M  V30 2510 H 244.568 -2.75163 -2.62804 0
M  V30 2511 H 244.08 -3.72616 -1.08532 0
M  V30 2512 H 242.181 -2.19024 -3.01429 0
M  V30 2513 H 242.294 -4.02726 -2.59517 0
M  V30 2514 H 240.658 -2.08702 -1.45999 0
M  V30 2515 H 241.441 -3.4056 -0.432874 0
M  V30 2516 N 243.887 0.651787 -1.4349 0
M  V30 2517 C 245.133 1.4121 -1.46395 0
M  V30 2518 C 245.488 1.92202 -0.087366 0
M  V30 2519 O 244.781 1.69452 0.894231 0
M  V30 2520 C 244.975 2.60914 -2.44251 0
M  V30 2521 C 244.804 2.21639 -3.91288 0
M  V30 2522 C 243.574 2.09897 -4.59643 0
M  V30 2523 C 245.772 1.81835 -4.81083 0
M  V30 2524 N 243.754 1.63967 -5.91598 0
M  V30 2525 C 245.125 1.46998 -6.02322 0
M  V30 2526 C 247.18 1.69031 -4.6833 0
M  V30 2527 C 245.883 1.00638 -7.12225 0
M  V30 2528 C 247.909 1.24077 -5.78238 0
M  V30 2529 C 247.271 0.901772 -6.98604 0
M  V30 2530 H 243.37 0.512322 -0.590805 0
M  V30 2531 H 245.954 0.74989 -1.7968 0
M  V30 2532 H 244.125 3.24792 -2.1299 0
M  V30 2533 H 245.857 3.27622 -2.37584 0
M  V30 2534 H 242.612 2.297 -4.14168 0
M  V30 2535 H 243.036 1.43359 -6.61647 0
M  V30 2536 H 247.678 1.93878 -3.75727 0
M  V30 2537 H 245.396 0.745399 -8.04655 0
M  V30 2538 H 248.982 1.14657 -5.7039 0
M  V30 2539 H 247.862 0.559226 -7.82203 0
M  V30 2540 N 245.365 1.30045 0.890287 0
M  V30 2541 C 246.312 1.15976 1.99545 0
M  V30 2542 C 247.282 0.0506202 1.66023 0
M  V30 2543 O 248.467 0.219847 1.89529 0
M  V30 2544 C 245.607 0.852054 3.34416 0
M  V30 2545 C 244.72 2.04255 3.80662 0
M  V30 2546 C 243.855 1.6734 5.04154 0
M  V30 2547 C 242.894 2.82916 5.42794 0
M  V30 2548 N 242.031 2.46333 6.57468 0
M  V30 2549 H 246.871 2.10524 2.10911 0
M  V30 2550 H 244.408 1.04749 1.03276 0
M  V30 2551 H 246.366 0.654296 4.12037 0
M  V30 2552 H 244.996 -0.0565502 3.2275 0
M  V30 2553 H 244.048 2.35172 2.98995 0
M  V30 2554 H 245.36 2.90826 4.05242 0
M  V30 2555 H 244.514 1.43908 5.89386 0
M  V30 2556 H 243.253 0.779308 4.81433 0
M  V30 2557 H 242.258 3.0702 4.56091 0
M  V30 2558 H 243.483 3.73004 5.6749 0
M  V30 2559 H 241.429 1.59423 6.36334 0
M  V30 2560 H 241.346 3.26436 6.81891 0
M  V30 2561 H 242.614 2.26244 7.45945 0
M  V30 2562 N 246.843 -1.10192 1.12674 0
M  V30 2563 C 248.12 -1.78717 0.794965 0
M  V30 2564 C 248.5 -1.98628 -0.714853 0
M  V30 2565 O 247.848 -1.58135 -1.64941 0
M  V30 2566 C 248.058 -3.11546 1.5729 0
M  V30 2567 C 249.406 -3.86382 1.76052 0
M  V30 2568 O 250.43 -3.21274 1.53823 0
M  V30 2569 O 249.289 -5.03246 2.13087 0
M  V30 2570 H 246.383 -0.774702 0.289423 0
M  V30 2571 H 248.929 -1.16819 1.23091 0
M  V30 2572 H 247.701 -2.92489 2.59935 0
M  V30 2573 H 247.324 -3.81164 1.13137 0
M  V30 2574 N 248.321 -0.919034 -1.28029 0
M  V30 2575 C 249.268 -0.410005 -2.27129 0
M  V30 2576 C 250.238 0.518405 -1.57803 0
M  V30 2577 O 251.423 0.439451 -1.8567 0
M  V30 2578 C 248.563 0.339054 -3.4343 0
M  V30 2579 C 247.676 -0.622468 -4.27492 0
M  V30 2580 C 246.811 0.145567 -5.31001 0
M  V30 2581 C 245.85 -0.809226 -6.06727 0
M  V30 2582 N 244.987 -0.0743728 -7.02061 0
M  V30 2583 H 249.827 -1.26011 -2.70047 0
M  V30 2584 H 247.364 -0.632663 -1.328 0
M  V30 2585 H 249.322 0.789586 -4.0966 0
M  V30 2586 H 247.952 1.15346 -3.01488 0
M  V30 2587 H 247.004 -1.19153 -3.61257 0
M  V30 2588 H 248.316 -1.35252 -4.80113 0
M  V30 2589 H 247.47 0.656417 -6.03139 0
M  V30 2590 H 246.209 0.908643 -4.79161 0
M  V30 2591 H 245.214 -1.3314 -5.33436 0
M  V30 2592 H 246.439 -1.57194 -6.60656 0
M  V30 2593 H 244.385 0.670616 -6.52563 0
M  V30 2594 H 244.302 -0.744157 -7.52329 0
M  V30 2595 H 245.57 0.416109 -7.78389 0
M  V30 2596 N 249.799 1.42003 -0.683588 0
M  V30 2597 C 250.747 2.326 0.000815408 0
M  V30 2598 C 251.741 1.50308 0.781278 0
M  V30 2599 O 252.947 1.66322 0.688251 0
M  V30 2600 H 249.322 0.751758 0.0190616 0
M  V30 2601 H 251.293 2.88011 -0.780528 0
M  V30 2602 C 250.042 3.34978 0.93195 0
M  V30 2603 H 249.365 3.98345 0.340817 0
M  V30 2604 H 250.805 4.00936 1.37936 0
M  V30 2605 C 249.264 2.67925 2.04249 0
M  V30 2606 O 249.794 2.51788 3.12995 0
M  V30 2607 N 248 2.2681 1.81675 0
M  V30 2608 H 247.547 2.40135 0.932363 0
M  V30 2609 H 247.505 1.8228 2.56167 0
M  V30 2610 N 251.277 0.427512 1.51691 0
M  V30 2611 C 252.517 -0.141524 2.03909 0
M  V30 2612 C 252.881 -1.40811 1.30523 0
M  V30 2613 O 254.082 -2.05676 1.73063 0
M  V30 2614 C 252.353 -0.364962 3.55532 0
M  V30 2615 S 253.912 -0.898812 4.29496 0
M  V30 2616 H 250.73 -0.0364542 0.710065 0
M  V30 2617 H 253.332 0.584659 1.86553 0
M  V30 2618 H 252.036 0.56336 4.06515 0
M  V30 2619 H 251.567 -1.1185 3.77164 0
M  V30 2620 H 253.582 -2.17747 4.45871 0
M  V30 2621 N 252.755 -1.56801 0.158532 0
M  V30 2622 C 253.983 -2.00859 -0.496303 0
M  V30 2623 C 254.398 -1.03871 -1.57659 0
M  V30 2624 O 253.755 -0.0375165 -1.82461 0
M  V30 2625 C 253.806 -3.4479 -1.08638 0
M  V30 2626 O 253.527 -4.38072 -0.0492322 0
M  V30 2627 C 255.028 -4.04185 -1.8207 0
M  V30 2628 H 252.248 -0.65864 -0.128199 0
M  V30 2629 H 254.792 -2.02885 0.256506 0
M  V30 2630 H 252.947 -3.43579 -1.78975 0
M  V30 2631 H 253.361 -5.2227 -0.483102 0
M  V30 2632 H 254.835 -5.06857 -2.18633 0
M  V30 2633 H 255.312 -3.45549 -2.71095 0
M  V30 2634 H 255.918 -4.0906 -1.16405 0
M  V30 2635 N 254.233 0.115231 -1.57178 0
M  V30 2636 C 255.458 0.840354 -1.89612 0
M  V30 2637 C 255.883 1.72464 -0.750845 0
M  V30 2638 O 255.241 1.78826 0.298478 0
M  V30 2639 C 255.289 1.64654 -3.20814 0
M  V30 2640 O 254.393 2.7538 -3.06985 0
M  V30 2641 H 253.734 0.232158 -0.622092 0
M  V30 2642 H 256.264 0.0964977 -2.04372 0
M  V30 2643 H 256.274 2.03499 -3.53627 0
M  V30 2644 H 254.949 0.997416 -4.03763 0
M  V30 2645 H 253.526 2.3971 -2.85646 0
M  V30 2646 N 255.711 1.52812 0.385517 0
M  V30 2647 C 257.127 1.4214 0.725829 0
M  V30 2648 C 257.327 0.544589 1.94001 0
M  V30 2649 O 256.383 0.0193693 2.52493 0
M  V30 2650 C 257.696 2.85042 0.957668 0
M  V30 2651 C 259.244 2.94543 1.05892 0
M  V30 2652 C 259.719 4.38464 1.32337 0
M  V30 2653 N 261.21 4.41804 1.39151 0
M  V30 2654 C 261.945 5.5025 1.61285 0
M  V30 2655 N 261.441 6.68775 1.80866 0
M  V30 2656 N 263.234 5.37798 1.63492 0
M  V30 2657 H 255.385 2.08338 -0.413383 0
M  V30 2658 H 257.648 0.940016 -0.122775 0
M  V30 2659 H 257.354 3.51431 0.137568 0
M  V30 2660 H 257.228 3.27505 1.87137 0
M  V30 2661 H 259.615 2.28321 1.86959 0
M  V30 2662 H 259.696 2.55504 0.123057 0
M  V30 2663 H 259.34 5.05254 0.517793 0
M  V30 2664 H 259.27 4.75059 2.27214 0
M  V30 2665 H 261.761 3.56377 1.25713 0
M  V30 2666 H 262.074 7.47197 1.97271 0
M  V30 2667 H 260.419 6.71797 1.78083 0
M  V30 2668 H 263.61 4.44171 1.47749 0
M  V30 2669 H 263.783 6.22382 1.80402 0
M  V30 2670 N 257.189 -0.644168 1.43834 0
M  V30 2671 C 258.119 -1.76814 1.52509 0
M  V30 2672 C 259.1 -1.65823 0.379052 0
M  V30 2673 O 260.285 -1.84781 0.597466 0
M  V30 2674 C 257.415 -3.15288 1.4564 0
M  V30 2675 C 256.369 -3.41053 2.58586 0
M  V30 2676 C 255.695 -4.79421 2.36769 0
M  V30 2677 C 256.995 -3.34902 4.00797 0
M  V30 2678 H 258.689 -1.69812 2.46586 0
M  V30 2679 H 256.235 -0.815542 1.1868 0
M  V30 2680 H 258.188 -3.93681 1.50311 0
M  V30 2681 H 256.912 -3.23043 0.480725 0
M  V30 2682 H 255.571 -2.65035 2.53282 0
M  V30 2683 H 255.219 -4.83863 1.37424 0
M  V30 2684 H 254.919 -4.9762 3.12487 0
M  V30 2685 H 256.443 -5.6006 2.43238 0
M  V30 2686 H 257.857 -4.03218 4.07539 0
M  V30 2687 H 256.254 -3.64637 4.76613 0
M  V30 2688 H 257.324 -2.32928 4.25291 0
M  V30 2689 N 258.668 -1.30515 -0.883378 0
M  V30 2690 C 259.945 -1.10086 -1.6168 0
M  V30 2691 C 260.325 0.349269 -2.08191 0
M  V30 2692 O 259.673 1.34105 -1.85008 0
M  V30 2693 C 259.883 -2.10315 -2.78511 0
M  V30 2694 C 261.231 -2.42119 -3.48803 0
M  V30 2695 O 262.255 -2.08638 -2.88702 0
M  V30 2696 O 261.114 -2.99396 -4.57192 0
M  V30 2697 H 258.208 -0.422907 -0.710689 0
M  V30 2698 H 260.754 -1.41947 -0.930015 0
M  V30 2699 H 259.526 -3.07917 -2.41459 0
M  V30 2700 H 259.149 -1.79282 -3.54886 0
M  V30 2701 N 260.146 1.09593 -1.13257 0
M  V30 2702 C 261.109 2.14359 -0.811358 0
M  V30 2703 C 262.109 1.59808 0.178377 0
M  V30 2704 O 263.299 1.74132 -0.0484911 0
M  V30 2705 C 260.431 3.40269 -0.207276 0
M  V30 2706 H 261.624 2.44284 -1.73969 0
M  V30 2707 H 259.177 1.25102 -0.936973 0
M  V30 2708 H 259.912 3.15969 0.73036 0
M  V30 2709 H 259.697 3.81154 -0.919992 0
M  V30 2710 H 261.187 4.176 0.000667944 0
M  V30 2711 N 261.624 0.925811 1.2754 0
M  V30 2712 C 262.574 0.394488 2.24561 0
M  V30 2713 C 263.558 -0.500183 1.52928 0
M  V30 2714 O 264.75 -0.337936 1.73744 0
M  V30 2715 C 261.879 -0.353328 3.41477 0
M  V30 2716 C 260.965 0.557752 4.20416 0
M  V30 2717 N 261.356 1.67674 4.77199 0
M  V30 2718 C 259.654 0.360404 4.44541 0
M  V30 2719 C 260.355 2.24324 5.36706 0
M  V30 2720 N 259.331 1.53305 5.21535 0
M  V30 2721 H 263.133 1.2489 2.66045 0
M  V30 2722 H 260.647 0.779864 1.4245 0
M  V30 2723 H 262.644 -0.7509 4.10082 0
M  V30 2724 H 261.304 -1.20469 3.01525 0
M  V30 2725 H 262.315 2.05915 4.75204 0
M  V30 2726 H 258.992 -0.450454 4.15063 0
M  V30 2727 H 260.382 3.18521 5.91603 0
M  V30 2728 N 263.102 -1.41638 0.69111 0
M  V30 2729 C 264.049 -2.30789 0.0229705 0
M  V30 2730 C 265.019 -1.46863 -0.775911 0
M  V30 2731 O 266.204 -1.75661 -0.74485 0
M  V30 2732 C 263.344 -3.32868 -0.910666 0
M  V30 2733 C 262.457 -4.31875 -0.103874 0
M  V30 2734 C 261.592 -5.21024 -1.03475 0
M  V30 2735 C 260.631 -6.11702 -0.220598 0
M  V30 2736 N 259.768 -6.93349 -1.10504 0
M  V30 2737 H 264.608 -2.87366 0.788978 0
M  V30 2738 H 262.145 -1.41535 0.400794 0
M  V30 2739 H 264.103 -3.90596 -1.46597 0
M  V30 2740 H 262.733 -2.77851 -1.64312 0
M  V30 2741 H 261.785 -3.76131 0.568285 0
M  V30 2742 H 263.097 -4.96003 0.527504 0
M  V30 2743 H 262.251 -5.83565 -1.65943 0
M  V30 2744 H 260.99 -4.57112 -1.69999 0
M  V30 2745 H 259.995 -5.48215 0.417187 0
M  V30 2746 H 261.22 -6.77668 0.440784 0
M  V30 2747 H 259.166 -6.3205 -1.75638 0
M  V30 2748 H 259.083 -7.54146 -0.529125 0
M  V30 2749 H 260.351 -7.60362 -1.71667 0
M  V30 2750 N 264.58 -0.43555 -1.51462 0
M  V30 2751 C 265.826 0.131709 -2.02372 0
M  V30 2752 C 266.159 1.42516 -1.3192 0
M  V30 2753 O 265.434 1.89606 -0.433573 0
M  V30 2754 C 265.717 0.352301 -3.58373 0
M  V30 2755 C 265.57 -0.959676 -4.39443 0
M  V30 2756 C 266.889 1.12286 -4.25535 0
M  V30 2757 H 264.008 0.0463936 -0.735538 0
M  V30 2758 H 266.65 -0.574197 -1.81116 0
M  V30 2759 H 264.8 0.9536 -3.76615 0
M  V30 2760 H 266.472 -1.59482 -4.32855 0
M  V30 2761 H 264.715 -1.56468 -4.04599 0
M  V30 2762 H 265.386 -0.759394 -5.46752 0
M  V30 2763 H 267.862 0.613545 -4.11552 0
M  V30 2764 H 266.738 1.24598 -5.34571 0
M  V30 2765 H 266.999 2.15048 -3.86273 0
M  V30 2766 N 266.058 1.56714 -0.166846 0
M  V30 2767 C 266.988 2.20754 0.760913 0
M  V30 2768 C 267.969 1.16178 1.24244 0
M  V30 2769 O 269.154 1.44592 1.29641 0
M  V30 2770 C 266.284 2.84478 1.99223 0
M  V30 2771 C 265.238 3.95053 1.64672 0
M  V30 2772 C 264.564 4.45805 2.95232 0
M  V30 2773 C 265.864 5.14865 0.878155 0
M  V30 2774 H 267.558 2.98537 0.22713 0
M  V30 2775 H 265.104 1.43596 0.107805 0
M  V30 2776 H 267.057 3.27951 2.64624 0
M  V30 2777 H 265.781 2.04056 2.55007 0
M  V30 2778 H 264.44 3.52228 1.01641 0
M  V30 2779 H 264.088 3.62181 3.49047 0
M  V30 2780 H 263.788 5.204 2.7287 0
M  V30 2781 H 265.312 4.91962 3.6167 0
M  V30 2782 H 266.726 5.55059 1.43466 0
M  V30 2783 H 265.123 5.95348 0.753738 0
M  V30 2784 H 266.193 4.84735 -0.126377 0
M  V30 2785 N 267.536 -0.106894 1.57237 0
M  V30 2786 C 268.761 -0.830287 1.90055 0
M  V30 2787 C 269.186 -1.72064 0.75998 0
M  V30 2788 O 268.544 -1.78982 -0.288991 0
M  V30 2789 C 268.592 -1.6295 3.21683 0
M  V30 2790 O 267.696 -2.73748 3.08441 0
M  V30 2791 H 267.037 -0.228855 0.623315 0
M  V30 2792 H 269.567 -0.085658 2.04421 0
M  V30 2793 H 269.577 -2.01621 3.54701 0
M  V30 2794 H 268.252 -0.975989 4.04286 0
M  V30 2795 H 266.829 -2.38192 2.86913 0
M  V30 2796 N 269.014 -1.53014 -0.377408 0
M  V30 2797 C 269.977 -1.77957 -1.44444 0
M  V30 2798 C 270.977 -0.649763 -1.47087 0
M  V30 2799 O 272.167 -0.917897 -1.48055 0
M  V30 2800 C 269.299 -1.89089 -2.83651 0
M  V30 2801 H 270.492 -2.73243 -1.23606 0
M  V30 2802 H 268.045 -1.43912 -0.609844 0
M  V30 2803 H 268.78 -0.958293 -3.09818 0
M  V30 2804 H 268.565 -2.71254 -2.83132 0
M  V30 2805 H 270.055 -2.1002 -3.60945 0
M  V30 2806 N 270.492 0.636531 -1.44174 0
M  V30 2807 C 271.422 1.76003 -1.53444 0
M  V30 2808 C 272.403 1.65619 -0.387841 0
M  V30 2809 O 273.588 1.84461 -0.607257 0
M  V30 2810 C 270.718 3.14511 -1.4731 0
M  V30 2811 C 269.672 3.39677 -2.60391 0
M  V30 2812 C 268.998 4.78159 -2.39308 0
M  V30 2813 C 270.298 3.32772 -4.02567 0
M  V30 2814 H 271.992 1.68501 -2.47483 0
M  V30 2815 H 269.538 0.809237 -1.19111 0
M  V30 2816 H 271.491 3.92878 -1.52397 0
M  V30 2817 H 270.215 3.22783 -0.49785 0
M  V30 2818 H 268.874 2.63688 -2.54684 0
M  V30 2819 H 268.522 4.83128 -1.39988 0
M  V30 2820 H 268.222 4.95956 -3.15122 0
M  V30 2821 H 269.746 5.58762 -2.46205 0
M  V30 2822 H 271.16 4.01051 -4.09672 0
M  V30 2823 H 269.557 3.62104 -4.7854 0
M  V30 2824 H 270.627 2.30669 -4.2652 0
M  V30 2825 N 271.97 1.30982 0.876444 0
M  V30 2826 C 272.902 1.13902 1.98894 0
M  V30 2827 C 273.915 0.0798815 1.62604 0
M  V30 2828 O 275.104 0.326743 1.75484 0
M  V30 2829 C 272.204 0.716699 3.31235 0
M  V30 2830 C 271.377 1.85945 3.95908 0
M  V30 2831 C 270.436 1.42426 5.06558 0
M  V30 2832 O 269.462 2.13287 5.27729 0
M  V30 2833 N 270.664 0.308025 5.79682 0
M  V30 2834 H 273.429 2.09724 2.14094 0
M  V30 2835 H 270.99 1.2323 1.05004 0
M  V30 2836 H 272.982 0.408403 4.02634 0
M  V30 2837 H 271.552 -0.149719 3.12241 0
M  V30 2838 H 270.772 2.33541 3.17573 0
M  V30 2839 H 272.06 2.62503 4.35855 0
M  V30 2840 H 271.458 -0.282241 5.64995 0
M  V30 2841 H 270.015 0.0592282 6.51773 0
M  V30 2842 N 273.449 -1.08991 1.13837 0
M  V30 2843 C 274.412 -2.13925 0.822715 0
M  V30 2844 C 275.412 -1.599 -0.1699 0
M  V30 2845 O 276.602 -1.74104 0.0577251 0
M  V30 2846 C 273.734 -3.40155 0.225318 0
M  V30 2847 H 274.927 -2.43358 1.75262 0
M  V30 2848 H 272.48 -1.24603 0.943594 0
M  V30 2849 H 273.215 -3.16352 -0.713594 0
M  V30 2850 H 273 -3.80661 0.940193 0
M  V30 2851 H 274.49 -4.17594 0.0214784 0
M  V30 2852 N 274.927 -0.932562 -1.27047 0
M  V30 2853 C 276.173 -0.576412 -1.94436 0
M  V30 2854 C 276.506 0.880891 -1.73072 0
M  V30 2855 O 275.781 1.62905 -1.06264 0
M  V30 2856 C 276.064 -0.909031 -3.48437 0
M  V30 2857 C 275.917 -2.42044 -3.79123 0
M  V30 2858 C 277.236 -0.418341 -4.38107 0
M  V30 2859 H 274.355 -0.210888 -0.706184 0
M  V30 2860 H 276.997 -1.16522 -1.50075 0
M  V30 2861 H 275.147 -0.407947 -3.86352 0
M  V30 2862 H 276.819 -2.99359 -3.50973 0
M  V30 2863 H 275.062 -2.86758 -3.25503 0
M  V30 2864 H 275.733 -2.6037 -4.86736 0
M  V30 2865 H 278.209 -0.847856 -4.0737 0
M  V30 2866 H 277.085 -0.679981 -5.44672 0
M  V30 2867 H 277.346 0.681642 -4.36814 0
M  V30 2868 N 276.405 1.4127 -0.698611 0
M  V30 2869 C 277.337 2.292 0.00399731 0
M  V30 2870 C 278.35 1.44944 0.741279 0
M  V30 2871 O 279.539 1.68416 0.591477 0
M  V30 2872 C 276.639 3.22875 1.02979 0
M  V30 2873 C 275.812 4.35904 0.36151 0
M  V30 2874 C 274.871 5.10134 1.29033 0
M  V30 2875 O 273.897 5.63809 0.781562 0
M  V30 2876 N 275.099 5.17885 2.6225 0
M  V30 2877 H 277.864 2.9014 -0.750921 0
M  V30 2878 H 275.425 1.52455 -0.544882 0
M  V30 2879 H 277.417 3.69404 1.65296 0
M  V30 2880 H 275.987 2.63221 1.68622 0
M  V30 2881 H 275.207 3.91719 -0.441584 0
M  V30 2882 H 276.495 5.08696 -0.103055 0
M  V30 2883 H 275.893 4.7573 3.061 0
M  V30 2884 H 274.45 5.6798 3.19754 0
M  V30 2885 N 277.883 0.443576 1.51229 0
M  V30 2886 C 279.131 -0.120557 2.0174 0
M  V30 2887 C 279.452 -1.42665 1.32935 0
M  V30 2888 O 278.722 -1.9028 0.465866 0
M  V30 2889 H 277.302 -0.0475426 0.745486 0
M  V30 2890 H 279.964 0.587711 1.85828 0
M  V30 2891 H 279.06 -0.291972 3.10731 0
M  V30 2892 N 279.361 -1.56624 0.175154 0
M  V30 2893 C 280.291 -2.21155 -0.749195 0
M  V30 2894 C 281.272 -1.16836 -1.23626 0
M  V30 2895 O 282.457 -1.45277 -1.28873 0
M  V30 2896 C 279.587 -2.8553 -1.97711 0
M  V30 2897 C 278.541 -3.95921 -1.62575 0
M  V30 2898 C 277.867 -4.47365 -2.92864 0
M  V30 2899 C 279.167 -5.15323 -0.850838 0
M  V30 2900 H 280.861 -2.98653 -0.211295 0
M  V30 2901 H 278.407 -1.43651 -0.100188 0
M  V30 2902 H 280.36 -3.2935 -2.62881 0
M  V30 2903 H 279.084 -2.05406 -2.53921 0
M  V30 2904 H 277.743 -3.52762 -0.997719 0
M  V30 2905 H 277.391 -3.64027 -3.47122 0
M  V30 2906 H 277.091 -5.21839 -2.70106 0
M  V30 2907 H 278.615 -4.93873 -3.59056 0
M  V30 2908 H 280.029 -5.55812 -1.40521 0
M  V30 2909 H 278.426 -5.95739 -0.722154 0
M  V30 2910 H 279.496 -4.84661 0.152082 0
M  V30 2911 N 280.839 0.0985539 -1.57292 0
M  V30 2912 C 281.769 1.12064 -2.04851 0
M  V30 2913 C 282.75 1.41981 -0.936767 0
M  V30 2914 O 283.935 1.52071 -1.20781 0
M  V30 2915 C 281.065 2.44144 -2.47004 0
M  V30 2916 C 280.019 2.28643 -3.6181 0
M  V30 2917 C 279.345 3.65869 -3.89929 0
M  V30 2918 C 280.645 1.72986 -4.92822 0
M  V30 2919 H 282.339 0.724979 -2.9049 0
M  V30 2920 H 279.885 0.34729 -1.39749 0
M  V30 2921 H 281.838 3.15914 -2.78884 0
M  V30 2922 H 280.562 2.85639 -1.5836 0
M  V30 2923 H 279.221 1.59318 -3.30172 0
M  V30 2924 H 278.869 4.04885 -2.98458 0
M  V30 2925 H 278.569 3.56344 -4.67218 0
M  V30 2926 H 280.093 4.39112 -4.2428 0
M  V30 2927 H 281.507 2.34593 -5.23105 0
M  V30 2928 H 279.904 1.74229 -5.74251 0
M  V30 2929 H 280.974 0.689007 -4.7998 0
M  V30 2930 N 282.317 1.53212 0.369288 0
M  V30 2931 C 283.563 1.69466 1.11397 0
M  V30 2932 C 283.896 0.443257 1.89074 0
M  V30 2933 O 283.171 -0.559386 1.86282 0
M  V30 2934 C 283.454 2.9422 2.07621 0
M  V30 2935 C 283.307 4.29508 1.33577 0
M  V30 2936 C 284.626 3.14565 3.07794 0
M  V30 2937 H 281.745 0.616667 0.403597 0
M  V30 2938 H 284.387 1.85845 0.395179 0
M  V30 2939 H 282.537 2.80387 2.68916 0
M  V30 2940 H 284.209 4.55147 0.750955 0
M  V30 2941 H 282.452 4.29088 0.637618 0
M  V30 2942 H 283.123 5.12926 2.03989 0
M  V30 2943 H 285.599 3.2756 2.56601 0
M  V30 2944 H 284.475 4.03297 3.72348 0
M  V30 2945 H 284.736 2.29675 3.77759 0
M  V30 2946 N 283.795 -0.628877 1.44509 0
M  V30 2947 C 284.758 -1.72263 1.51188 0
M  V30 2948 C 285.758 -1.55907 0.39367 0
M  V30 2949 O 286.948 -1.61361 0.656377 0
M  V30 2950 C 284.08 -3.11365 1.38798 0
M  V30 2951 H 285.273 -1.67714 2.4862 0
M  V30 2952 H 282.826 -0.842737 1.31634 0
M  V30 2953 H 283.561 -3.21507 0.424693 0
M  V30 2954 H 283.346 -3.24644 2.19884 0
M  V30 2955 H 284.836 -3.91075 1.46458 0
M  V30 2956 N 285.273 -1.31445 -0.869486 0
M  V30 2957 C 286.205 -1.14955 -1.98287 0
M  V30 2958 C 287.218 -0.0885037 -1.62559 0
M  V30 2959 O 288.407 -0.336044 -1.75308 0
M  V30 2960 C 285.507 -0.734255 -3.3085 0
M  V30 2961 C 284.68 -1.88042 -3.94917 0
M  V30 2962 C 283.739 -1.4511 -5.05796 0
M  V30 2963 O 282.765 -2.16082 -5.2659 0
M  V30 2964 N 283.967 -0.338763 -5.79511 0
M  V30 2965 H 286.732 -2.10856 -2.12979 0
M  V30 2966 H 284.293 -1.23786 -1.04349 0
M  V30 2967 H 286.285 -0.42975 -4.02412 0
M  V30 2968 H 284.855 0.133158 -3.12316 0
M  V30 2969 H 284.075 -2.35222 -3.1633 0
M  V30 2970 H 285.363 -2.6481 -4.34457 0
M  V30 2971 H 284.761 0.252274 -5.65137 0
M  V30 2972 H 283.318 -0.0937925 -6.51733 0
M  V30 2973 N 286.751 1.08385 -1.14413 0
M  V30 2974 C 287.999 1.80419 -0.910679 0
M  V30 2975 C 288.32 1.86658 0.564243 0
M  V30 2976 O 287.59 1.35985 1.41014 0
M  V30 2977 H 286.17 0.668204 -0.333934 0
M  V30 2978 H 288.832 1.31037 -1.44275 0
M  V30 2979 H 287.928 2.83238 -1.31082 0
M  V30 2980 N 288.23 0.939286 1.26551 0
M  V30 2981 C 289.646 0.641304 1.46149 0
M  V30 2982 C 289.846 -0.805964 1.84679 0
M  V30 2983 O 288.902 -1.58278 1.96734 0
M  V30 2984 C 290.215 1.6011 2.54529 0
M  V30 2985 C 291.763 1.6106 2.68382 0
M  V30 2986 C 292.238 2.55765 3.79932 0
M  V30 2987 N 293.729 2.5404 3.87322 0
M  V30 2988 C 294.464 3.24004 4.73085 0
M  V30 2989 N 293.96 4.03388 5.63249 0
M  V30 2990 N 295.753 3.12965 4.66914 0
M  V30 2991 H 287.904 1.87478 0.998285 0
M  V30 2992 H 290.167 0.805559 0.499779 0
M  V30 2993 H 289.873 2.63412 2.33039 0
M  V30 2994 H 289.747 1.35171 3.52149 0
M  V30 2995 H 292.134 0.584835 2.89247 0
M  V30 2996 H 292.215 1.90053 1.71212 0
M  V30 2997 H 291.859 3.58458 3.5982 0
M  V30 2998 H 291.789 2.24063 4.76554 0
M  V30 2999 H 294.28 1.96396 3.22858 0
M  V30 3000 H 294.593 4.5373 6.25579 0
M  V30 3001 H 292.938 4.07489 5.63008 0
M  V30 3002 H 296.129 2.50432 3.95476 0
M  V30 3003 H 296.302 3.67759 5.33533 0
M  V30 3004 N 289.708 -1.40897 0.706093 0
M  V30 3005 C 290.671 -2.29131 0.0562841 0
M  V30 3006 C 291.671 -1.44901 -0.697166 0
M  V30 3007 O 292.861 -1.65926 -0.530484 0
M  V30 3008 C 289.993 -3.27957 -0.93043 0
M  V30 3009 H 291.186 -2.88091 0.833284 0
M  V30 3010 H 288.739 -1.4906 0.470192 0
M  V30 3011 H 289.474 -2.73997 -1.73482 0
M  V30 3012 H 289.259 -3.90124 -0.393166 0
M  V30 3013 H 290.749 -3.94049 -1.38256 0
M  V30 3014 N 291.186 -0.45159 -1.50991 0
M  V30 3015 C 292.463 0.170707 -1.94854 0
M  V30 3016 C 292.843 1.58788 -1.39103 0
M  V30 3017 O 292.191 2.20913 -0.583921 0
M  V30 3018 C 292.401 0.133929 -3.48743 0
M  V30 3019 C 293.749 0.33248 -4.23296 0
M  V30 3020 O 294.773 0.211403 -3.55572 0
M  V30 3021 O 293.632 0.57486 -5.43468 0
M  V30 3022 H 290.726 0.122264 -0.817912 0
M  V30 3023 H 293.272 -0.510594 -1.61836 0
M  V30 3024 H 292.044 -0.856283 -3.81816 0
M  V30 3025 H 291.667 0.857529 -3.88242 0
M  V30 3026 N 292.664 1.56529 -0.183458 0
M  V30 3027 C 293.889 2.02064 0.467428 0
M  V30 3028 C 294.314 1.06282 1.55196 0
M  V30 3029 O 293.672 0.0443565 1.81246 0
M  V30 3030 C 293.72 3.46122 1.01153 0
M  V30 3031 O 292.824 3.53437 2.12499 0
M  V30 3032 H 292.165 0.654726 0.110588 0
M  V30 3033 H 294.695 2.02521 -0.290917 0
M  V30 3034 H 294.705 3.85676 1.33108 0
M  V30 3035 H 293.38 4.15331 0.217533 0
M  V30 3036 H 291.957 3.2575 1.81497 0
M  V30 3037 N 294.142 -0.090211 1.57342 0
M  V30 3038 C 295.074 -1.13541 1.99101 0
M  V30 3039 C 296.087 -1.3604 0.894258 0
M  V30 3040 O 297.276 -1.34606 1.17233 0
M  V30 3041 C 294.376 -2.49001 2.29895 0
M  V30 3042 C 293.549 -2.46712 3.61182 0
M  V30 3043 C 292.608 -3.64136 3.79857 0
M  V30 3044 O 291.634 -3.46405 4.51655 0
M  V30 3045 N 292.836 -4.83802 3.20806 0
M  V30 3046 H 295.601 -0.779942 2.89373 0
M  V30 3047 H 293.162 -0.279125 1.59476 0
M  V30 3048 H 295.154 -3.26166 2.39578 0
M  V30 3049 H 293.724 -2.76619 1.45605 0
M  V30 3050 H 292.944 -1.55058 3.62423 0
M  V30 3051 H 294.232 -2.42265 4.4742 0
M  V30 3052 H 293.63 -5.01112 2.62494 0
M  V30 3053 H 292.187 -5.58543 3.35966 0
M  V30 3054 N 295.62 -1.53406 -0.361157 0
M  V30 3055 C 296.583 -1.79479 -1.42548 0
M  V30 3056 C 297.583 -0.665327 -1.4639 0
M  V30 3057 O 298.773 -0.933549 -1.47073 0
M  V30 3058 C 295.905 -1.92087 -2.8163 0
M  V30 3059 H 297.098 -2.74538 -1.20701 0
M  V30 3060 H 294.651 -1.4455 -0.594546 0
M  V30 3061 H 295.386 -0.991099 -3.08784 0
M  V30 3062 H 295.171 -2.74241 -2.80239 0
M  V30 3063 H 296.661 -2.13836 -3.58697 0
M  V30 3064 N 297.098 0.621204 -1.44841 0
M  V30 3065 C 298.03 1.74615 -1.48466 0
M  V30 3066 C 299.043 1.58377 -0.37691 0
M  V30 3067 O 300.232 1.66508 -0.643215 0
M  V30 3068 C 297.332 3.12459 -1.31236 0
M  V30 3069 C 296.505 3.55064 -2.55438 0
M  V30 3070 C 295.564 4.71821 -2.32963 0
M  V30 3071 O 294.59 4.79628 -3.06505 0
M  V30 3072 N 295.792 5.64186 -1.36654 0
M  V30 3073 H 298.557 1.71973 -2.45449 0
M  V30 3074 H 296.118 0.806077 -1.40407 0
M  V30 3075 H 298.11 3.88302 -1.14032 0
M  V30 3076 H 296.68 3.09686 -0.4258 0
M  V30 3077 H 295.9 2.69324 -2.87851 0
M  V30 3078 H 297.188 3.80284 -3.38026 0
M  V30 3079 H 296.586 5.6058 -0.759344 0
M  V30 3080 H 295.143 6.39618 -1.25425 0
M  V30 3081 N 298.576 1.31904 0.862503 0
M  V30 3082 C 299.506 1.22782 1.98612 0
M  V30 3083 C 300.487 0.113362 1.69722 0
M  V30 3084 O 301.672 0.299218 1.91881 0
M  V30 3085 C 298.802 0.942058 3.34279 0
M  V30 3086 C 297.756 2.0169 3.77499 0
M  V30 3087 C 297.082 1.58369 5.10709 0
M  V30 3088 C 298.382 3.43096 3.93805 0
M  V30 3089 H 300.076 2.16788 2.06502 0
M  V30 3090 H 297.622 1.04366 0.992154 0
M  V30 3091 H 299.575 0.864818 4.1243 0
M  V30 3092 H 298.299 -0.0336603 3.26583 0
M  V30 3093 H 296.958 2.08416 3.01593 0
M  V30 3094 H 296.606 0.595628 4.99461 0
M  V30 3095 H 296.306 2.30279 5.40597 0
M  V30 3096 H 297.83 1.52067 5.91361 0
M  V30 3097 H 299.244 3.39003 4.62331 0
M  V30 3098 H 297.641 4.13288 4.35101 0
M  V30 3099 H 298.711 3.83334 2.96957 0
M  V30 3100 N 300.054 -1.07777 1.14986 0
M  V30 3101 C 300.984 -2.16865 0.865557 0
M  V30 3102 C 301.965 -1.69123 -0.182083 0
M  V30 3103 O 303.15 -1.94164 -0.0373815 0
M  V30 3104 C 300.28 -3.45539 0.349313 0
M  V30 3105 C 299.234 -4.06708 1.33313 0
M  V30 3106 C 298.56 -5.30411 0.675918 0
M  V30 3107 C 299.86 -4.47241 2.69764 0
M  V30 3108 H 301.554 -2.40905 1.77778 0
M  V30 3109 H 299.1 -1.15781 0.856203 0
M  V30 3110 H 301.053 -4.21174 0.137983 0
M  V30 3111 H 299.777 -3.21072 -0.598362 0
M  V30 3112 H 298.436 -3.33112 1.53075 0
M  V30 3113 H 298.084 -5.02232 -0.277767 0
M  V30 3114 H 297.784 -5.72293 1.33244 0
M  V30 3115 H 299.308 -6.08755 0.474262 0
M  V30 3116 H 300.722 -5.14025 2.53873 0
M  V30 3117 H 299.119 -5.00062 3.3175 0
M  V30 3118 H 300.189 -3.58818 3.26156 0
M  V30 3119 N 301.532 -0.945985 -1.26051 0
M  V30 3120 C 302.462 -0.477172 -2.28572 0
M  V30 3121 C 303.443 0.472032 -1.63419 0
M  V30 3122 O 304.628 0.372853 -1.90587 0
M  V30 3123 C 301.758 0.253975 -3.4637 0
M  V30 3124 C 300.712 -0.609135 -4.23643 0
M  V30 3125 C 300.038 0.252252 -5.34105 0
M  V30 3126 C 301.338 -1.8829 -4.8718 0
M  V30 3127 H 303.032 -1.33402 -2.68038 0
M  V30 3128 H 300.578 -0.642904 -1.28852 0
M  V30 3129 H 302.531 0.593016 -4.17207 0
M  V30 3130 H 301.255 1.145 -3.05871 0
M  V30 3131 H 299.914 -0.931138 -3.54578 0
M  V30 3132 H 299.562 1.14278 -4.89846 0
M  V30 3133 H 299.262 -0.32188 -5.86718 0
M  V30 3134 H 300.786 0.586454 -6.07777 0
M  V30 3135 H 302.2 -1.61081 -5.50205 0
M  V30 3136 H 300.597 -2.40199 -5.49931 0
M  V30 3137 H 301.667 -2.59134 -4.09851 0
M  V30 3138 N 303.011 1.40521 -0.713556 0
M  V30 3139 C 304.236 2.05759 -0.26035 0
M  V30 3140 C 304.661 1.53403 1.08854 0
M  V30 3141 O 304.019 0.668535 1.68524 0
M  V30 3142 C 304.067 3.59745 -0.248122 0
M  V30 3143 O 303.171 4.05123 0.77131 0
M  V30 3144 H 302.512 0.652564 -0.122703 0
M  V30 3145 H 305.042 1.79958 -0.973467 0
M  V30 3146 H 305.052 4.07911 -0.0851129 0
M  V30 3147 H 303.727 3.97218 -1.2325 0
M  V30 3148 H 302.304 3.68422 0.57619 0
M  V30 3149 N 304.489 0.459591 1.5075 0
M  V30 3150 C 305.717 -0.0973749 2.06671 0
M  V30 3151 C 306.132 -1.34524 1.32472 0
M  V30 3152 O 305.489 -1.7827 0.390634 0
M  V30 3153 C 305.54 -0.39714 3.59312 0
M  V30 3154 O 305.261 0.801214 4.30711 0
M  V30 3155 C 306.762 -1.00234 4.31819 0
M  V30 3156 H 303.982 0.00195854 0.670997 0
M  V30 3157 H 306.526 0.645072 1.94059 0
M  V30 3158 H 304.681 -1.08951 3.71764 0
M  V30 3159 H 305.095 0.538857 5.21725 0
M  V30 3160 H 306.569 -1.16193 5.39632 0
M  V30 3161 H 307.046 -1.98939 3.91561 0
M  V30 3162 H 307.652 -0.348699 4.23868 0
M  V30 3163 N 305.967 -1.56429 0.191757 0
M  V30 3164 C 307.213 -1.97777 -0.448554 0
M  V30 3165 C 307.546 -1.07847 -1.61501 0
M  V30 3166 O 306.821 -0.129774 -1.94067 0
M  V30 3167 C 307.104 -3.48362 -0.911906 0
M  V30 3168 C 306.957 -4.4907 0.256136 0
M  V30 3169 C 308.276 -4.02561 -1.77857 0
M  V30 3170 H 305.395 -0.719071 -0.161572 0
M  V30 3171 H 308.037 -1.87896 0.282007 0
M  V30 3172 H 306.187 -3.56914 -1.53442 0
M  V30 3173 H 307.859 -4.5256 0.893733 0
M  V30 3174 H 306.102 -4.24181 0.908436 0
M  V30 3175 H 306.773 -5.51889 -0.11053 0
M  V30 3176 H 309.249 -3.96767 -1.25359 0
M  V30 3177 H 308.125 -5.08301 -2.07174 0
M  V30 3178 H 308.386 -3.47616 -2.73158 0
M  V30 3179 N 307.445 0.0818655 -1.57387 0
M  V30 3180 C 308.691 0.784074 -1.8703 0
M  V30 3181 C 309.024 1.77729 -0.782689 0
M  V30 3182 O 308.299 1.93384 0.208051 0
M  V30 3183 C 308.582 1.50105 -3.27323 0
M  V30 3184 C 308.435 0.524925 -4.46727 0
M  V30 3185 C 309.754 2.44843 -3.65705 0
M  V30 3186 H 306.873 0.283582 -0.680257 0
M  V30 3187 H 309.515 0.0474352 -1.89941 0
M  V30 3188 H 307.665 2.12897 -3.24972 0
M  V30 3189 H 309.337 -0.0970111 -4.61198 0
M  V30 3190 H 307.58 -0.160606 -4.33503 0
M  V30 3191 H 308.251 1.064 -5.41648 0
M  V30 3192 H 310.727 1.92135 -3.69085 0
M  V30 3193 H 309.603 2.92018 -4.64776 0
M  V30 3194 H 309.864 3.29197 -2.95096 0
M  V30 3195 N 308.923 1.53595 0.353017 0
M  V30 3196 C 310.171 1.70049 1.09215 0
M  V30 3197 C 310.492 0.461406 1.89463 0
M  V30 3198 O 309.762 -0.524633 1.88744 0
M  V30 3199 H 308.342 0.626912 0.40619 0
M  V30 3200 H 311.004 1.90822 0.396585 0
M  V30 3201 H 310.1 2.56718 1.77488 0
M  V30 3202 N 310.401 -0.613514 1.45168 0
M  V30 3203 C 311.647 -1.37471 1.49096 0
M  V30 3204 C 311.98 -1.93765 0.129901 0
M  V30 3205 O 311.255 -1.74707 -0.854858 0
M  V30 3206 C 311.538 -2.52701 2.56542 0
M  V30 3207 C 311.391 -2.01643 4.0207 0
M  V30 3208 C 312.71 -3.54849 2.60327 0
M  V30 3209 H 309.829 -0.498502 0.54283 0
M  V30 3210 H 312.471 -0.692125 1.76945 0
M  V30 3211 H 310.621 -3.10931 2.32926 0
M  V30 3212 H 312.293 -1.48108 4.36877 0
M  V30 3213 H 310.536 -1.32688 4.13009 0
M  V30 3214 H 311.207 -2.84681 4.72928 0
M  V30 3215 H 313.683 -3.0645 2.81474 0
M  V30 3216 H 312.559 -4.32973 3.37381 0
M  V30 3217 H 312.82 -4.10079 1.6519 0
M  V30 3218 N 311.879 -1.3236 -0.855495 0
M  V30 3219 C 313.126 -1.22872 -1.60962 0
M  V30 3220 C 313.454 0.209658 -1.93367 0
M  V30 3221 O 312.709 1.16243 -1.57436 0
M  V30 3222 C 313.008 -2.03275 -2.93963 0
M  V30 3223 C 312.674 -3.5264 -2.80991 0
M  V30 3224 C 311.336 -3.93364 -2.7716 0
M  V30 3225 C 313.688 -4.47626 -2.66983 0
M  V30 3226 C 311.016 -5.27319 -2.572 0
M  V30 3227 C 313.368 -5.81723 -2.48558 0
M  V30 3228 C 312.032 -6.2165 -2.4312 0
M  V30 3229 H 311.302 -0.44962 -0.589001 0
M  V30 3230 H 313.949 -1.63777 -0.992442 0
M  V30 3231 H 312.254 -1.55095 -3.59795 0
M  V30 3232 H 313.951 -1.93303 -3.51333 0
M  V30 3233 H 310.541 -3.20295 -2.84797 0
M  V30 3234 H 314.725 -4.17084 -2.68988 0
M  V30 3235 H 309.981 -5.57311 -2.51424 0
M  V30 3236 H 314.155 -6.5494 -2.36699 0
M  V30 3237 H 311.782 -7.25388 -2.27412 0
M  V30 3238 N 313.357 1.07166 -1.15556 0
M  V30 3239 C 314.585 1.83514 -0.955519 0
M  V30 3240 C 315 1.82163 0.49621 0
M  V30 3241 O 314.357 1.23441 1.34419 0
M  V30 3242 C 314.408 3.30515 -1.46432 0
M  V30 3243 O 314.129 3.31937 -2.85918 0
M  V30 3244 C 315.63 4.23625 -1.30603 0
M  V30 3245 H 312.85 0.578926 -0.339244 0
M  V30 3246 H 315.394 1.35265 -1.53374 0
M  V30 3247 H 313.549 3.76106 -0.928584 0
M  V30 3248 H 313.963 4.23794 -3.09029 0
M  V30 3249 H 315.437 5.24831 -1.71047 0
M  V30 3250 H 315.914 4.38485 -0.250441 0
M  V30 3251 H 316.52 3.83871 -1.83094 0
M  V30 3252 N 314.835 0.952656 1.25548 0
M  V30 3253 C 315.798 0.475794 2.24207 0
M  V30 3254 C 316.798 -0.419428 1.55234 0
M  V30 3255 O 317.988 -0.216994 1.72843 0
M  V30 3256 C 315.12 -0.312814 3.39462 0
M  V30 3257 H 316.313 1.34779 2.67908 0
M  V30 3258 H 313.866 0.735739 1.37901 0
M  V30 3259 H 314.601 -1.20257 3.01179 0
M  V30 3260 H 314.386 0.329404 3.90714 0
M  V30 3261 H 315.876 -0.635986 4.12729 0
M  V30 3262 N 316.313 -1.40141 0.720998 0
M  V30 3263 C 317.724 -1.83678 0.334553 0
M  V30 3264 C 318.075 -1.6027 -1.13173 0
M  V30 3265 O 317.2 -1.08643 -1.87152 0
M  V30 3266 C 317.795 -3.33437 0.600437 0
M  V30 3267 C 316.354 -3.75447 0.267642 0
M  V30 3268 C 315.501 -2.63296 0.870097 0
M  V30 3269 H 318.452 -1.29331 0.919732 0
M  V30 3270 H 318.473 -3.80269 -0.132517 0
M  V30 3271 H 317.985 -3.50442 1.66768 0
M  V30 3272 H 316.086 -3.64035 -0.794329 0
M  V30 3273 H 316.199 -4.73344 0.74042 0
M  V30 3274 H 314.563 -2.52954 0.297739 0
M  V30 3275 H 315.346 -2.83112 1.94172 0
M  V30 3276 N 317.792 -0.46758 -1.50504 0
M  V30 3277 C 319.04 0.0884469 -2.01906 0
M  V30 3278 C 319.361 1.40532 -1.35188 0
M  V30 3279 O 318.631 1.89515 -0.496079 0
M  V30 3280 H 317.211 0.0356765 -0.746148 0
M  V30 3281 H 319.873 -0.6172 -1.84869 0
M  V30 3282 H 318.969 0.2425 -3.11156 0
M  V30 3283 N 319.27 1.56325 -0.20005 0
M  V30 3284 C 320.2 2.22318 0.713916 0
M  V30 3285 C 321.181 1.18788 1.21752 0
M  V30 3286 O 322.366 1.47309 1.26545 0
M  V30 3287 C 319.496 2.88639 1.93144 0
M  V30 3288 C 318.45 3.98457 1.56255 0
M  V30 3289 C 317.776 4.51967 2.85709 0
M  V30 3290 C 319.076 5.16612 0.768747 0
M  V30 3291 H 320.77 2.98952 0.163755 0
M  V30 3292 H 318.316 1.43792 0.0773219 0
M  V30 3293 H 320.269 3.33491 2.57608 0
M  V30 3294 H 318.993 2.09419 2.50621 0
M  V30 3295 H 317.652 3.54305 0.941471 0
M  V30 3296 H 317.3 3.69503 3.41287 0
M  V30 3297 H 317 5.26071 2.6177 0
M  V30 3298 H 318.524 4.99523 3.51154 0
M  V30 3299 H 319.938 5.57977 1.3166 0
M  V30 3300 H 318.335 5.96812 0.627286 0
M  V30 3301 H 319.405 4.84358 -0.229168 0
M  V30 3302 N 320.748 -0.0735177 1.57428 0
M  V30 3303 C 321.698 -1.09442 2.00016 0
M  V30 3304 C 322.682 -1.34575 0.881947 0
M  V30 3305 O 323.874 -1.34905 1.14585 0
M  V30 3306 C 321.003 -2.40865 2.4462 0
M  V30 3307 C 320.089 -2.19014 3.63172 0
M  V30 3308 N 320.48 -1.67087 4.77405 0
M  V30 3309 C 318.778 -2.49494 3.69688 0
M  V30 3310 C 319.479 -1.6001 5.5926 0
M  V30 3311 N 318.455 -2.05999 5.03056 0
M  V30 3312 H 322.257 -0.686227 2.85776 0
M  V30 3313 H 319.771 -0.280617 1.59957 0
M  V30 3314 H 321.768 -3.14763 2.73368 0
M  V30 3315 H 320.428 -2.82403 1.60246 0
M  V30 3316 H 321.439 -1.35975 4.99731 0
M  V30 3317 H 318.116 -2.94409 2.96023 0
M  V30 3318 H 319.506 -1.2073 6.60964 0
M  V30 3319 N 322.226 -1.5378 -0.344866 0
M  V30 3320 C 323.156 -1.84662 -1.42906 0
M  V30 3321 C 324.137 -0.701648 -1.54955 0
M  V30 3322 O 325.322 -0.953438 -1.69184 0
M  V30 3323 C 322.452 -2.05503 -2.79974 0
M  V30 3324 C 321.406 -3.21318 -2.82734 0
M  V30 3325 C 320.732 -3.2749 -4.22675 0
M  V30 3326 C 322.032 -4.59456 -2.48389 0
M  V30 3327 H 323.726 -2.75461 -1.17311 0
M  V30 3328 H 321.272 -1.32542 -0.562896 0
M  V30 3329 H 323.225 -2.25691 -3.55867 0
M  V30 3330 H 321.949 -1.11434 -3.07002 0
M  V30 3331 H 320.608 -3.00984 -2.09294 0
M  V30 3332 H 320.256 -2.31019 -4.4681 0
M  V30 3333 H 319.956 -4.05316 -4.25433 0
M  V30 3334 H 321.48 -3.49887 -5.00412 0
M  V30 3335 H 322.894 -4.79667 -3.13995 0
M  V30 3336 H 321.291 -5.39675 -2.62432 0
M  V30 3337 H 322.361 -4.63155 -1.4358 0
M  V30 3338 N 323.704 0.605807 -1.45491 0
M  V30 3339 C 324.651 1.7164 -1.54299 0
M  V30 3340 C 325.621 1.61486 -0.388761 0
M  V30 3341 O 326.806 1.81039 -0.602445 0
M  V30 3342 C 323.946 3.09953 -1.51734 0
M  V30 3343 C 323.059 3.309 -2.77721 0
M  V30 3344 C 322.194 4.59329 -2.66816 0
M  V30 3345 C 321.233 4.7354 -3.87848 0
M  V30 3346 N 320.37 5.9327 -3.75467 0
M  V30 3347 H 325.21 1.63449 -2.49176 0
M  V30 3348 H 322.747 0.796957 -1.23641 0
M  V30 3349 H 324.705 3.89977 -1.48235 0
M  V30 3350 H 323.335 3.17098 -0.604068 0
M  V30 3351 H 322.387 2.44639 -2.913 0
M  V30 3352 H 323.699 3.37274 -3.67488 0
M  V30 3353 H 322.853 5.4755 -2.61292 0
M  V30 3354 H 321.592 4.55355 -1.74651 0
M  V30 3355 H 320.597 3.83741 -3.93729 0
M  V30 3356 H 321.822 4.79309 -4.81082 0
M  V30 3357 H 319.768 5.90338 -2.86072 0
M  V30 3358 H 319.685 6.00811 -4.5887 0
M  V30 3359 H 320.953 6.83984 -3.73879 0
M  V30 3360 N 325.182 1.32811 0.848464 0
M  V30 3361 C 326.114 1.18095 1.96433 0
M  V30 3362 C 327.127 0.114354 1.62398 0
M  V30 3363 O 328.316 0.363892 1.74751 0
M  V30 3364 C 325.416 0.786798 3.2964 0
M  V30 3365 C 324.589 1.943 3.91875 0
M  V30 3366 C 323.648 1.53138 5.03423 0
M  V30 3367 O 322.674 2.24432 5.23086 0
M  V30 3368 N 323.876 0.430915 5.78898 0
M  V30 3369 H 326.641 2.14218 2.09597 0
M  V30 3370 H 324.202 1.2543 1.02367 0
M  V30 3371 H 326.194 0.493715 4.01677 0
M  V30 3372 H 324.764 -0.0834541 3.12489 0
M  V30 3373 H 323.984 2.40224 3.12547 0
M  V30 3374 H 325.272 2.71689 4.30189 0
M  V30 3375 H 324.67 -0.162333 5.65467 0
M  V30 3376 H 323.227 0.197466 6.51501 0
M  V30 3377 N 326.66 -1.06551 1.16123 0
M  V30 3378 C 328.071 -1.60768 0.949232 0
M  V30 3379 C 328.422 -1.89523 -0.507508 0
M  V30 3380 O 327.547 -1.66671 -1.38021 0
M  V30 3381 C 328.142 -2.92086 1.71671 0
M  V30 3382 C 326.701 -3.43015 1.54977 0
M  V30 3383 C 325.848 -2.16947 1.72711 0
M  V30 3384 H 328.799 -0.895354 1.31031 0
M  V30 3385 H 328.82 -3.6138 1.19099 0
M  V30 3386 H 328.332 -2.71127 2.7769 0
M  V30 3387 H 326.433 -3.69039 0.513873 0
M  V30 3388 H 326.546 -4.18516 2.33198 0
M  V30 3389 H 324.91 -2.27041 1.15431 0
M  V30 3390 H 325.693 -1.98473 2.80113 0
M  V30 3391 N 328.138 -0.959301 -1.25041 0
M  V30 3392 C 329.385 -0.616611 -1.92884 0
M  V30 3393 C 329.713 0.847036 -1.75087 0
M  V30 3394 O 328.968 1.62374 -1.09239 0
M  V30 3395 C 329.267 -0.927136 -3.45165 0
M  V30 3396 C 328.933 -2.37757 -3.83122 0
M  V30 3397 C 327.595 -2.77402 -3.93194 0
M  V30 3398 C 329.947 -3.31929 -4.01836 0
M  V30 3399 C 327.275 -4.10277 -4.19392 0
M  V30 3400 C 329.627 -4.64423 -4.29528 0
M  V30 3401 C 328.291 -5.03857 -4.37818 0
M  V30 3402 H 327.561 -0.225634 -0.705812 0
M  V30 3403 H 330.208 -1.20921 -1.48493 0
M  V30 3404 H 328.513 -0.252195 -3.90987 0
M  V30 3405 H 330.21 -0.6405 -3.95852 0
M  V30 3406 H 326.8 -2.06013 -3.75841 0
M  V30 3407 H 330.984 -3.02488 -3.93465 0
M  V30 3408 H 326.24 -4.40467 -4.24027 0
M  V30 3409 H 330.414 -5.37369 -4.42953 0
M  V30 3410 H 328.041 -6.06843 -4.57871 0
M  V30 3411 N 329.616 1.39756 -0.72842 0
M  V30 3412 C 330.862 2.00942 -0.273892 0
M  V30 3413 C 331.195 1.57656 1.13394 0
M  V30 3414 O 330.47 0.802434 1.77176 0
M  V30 3415 C 330.753 3.58211 -0.368346 0
M  V30 3416 C 330.606 4.11534 -1.81548 0
M  V30 3417 C 331.925 4.39372 0.253054 0
M  V30 3418 H 329.044 0.730047 -0.100996 0
M  V30 3419 H 331.686 1.66056 -0.923337 0
M  V30 3420 H 329.836 3.88061 0.184588 0
M  V30 3421 H 331.508 3.92431 -2.42478 0
M  V30 3422 H 329.751 3.65341 -2.33898 0
M  V30 3423 H 330.422 5.20682 -1.83288 0
M  V30 3424 H 332.898 4.15527 -0.218224 0
M  V30 3425 H 331.774 5.48677 0.156585 0
M  V30 3426 H 332.035 4.21358 1.33826 0
M  V30 3427 N 331.094 0.475555 1.50254 0
M  V30 3428 C 332.026 -0.352649 2.26471 0
M  V30 3429 C 333.039 -0.953165 1.3198 0
M  V30 3430 O 334.228 -0.840815 1.57457 0
M  V30 3431 C 331.328 -1.50902 3.0345 0
M  V30 3432 C 330.501 -1.02047 4.25329 0
M  V30 3433 C 329.56 -2.05142 4.84565 0
M  V30 3434 O 328.586 -1.63023 5.45355 0
M  V30 3435 N 329.788 -3.37987 4.71959 0
M  V30 3436 H 332.553 0.300767 2.98187 0
M  V30 3437 H 330.114 0.306598 1.5897 0
M  V30 3438 H 332.106 -2.19572 3.39956 0
M  V30 3439 H 330.676 -2.06705 2.34504 0
M  V30 3440 H 329.896 -0.159507 3.93877 0
M  V30 3441 H 331.184 -0.672061 5.04342 0
M  V30 3442 H 330.582 -3.74913 4.23623 0
M  V30 3443 H 329.139 -4.02443 5.12721 0
M  V30 3444 N 332.573 -1.56217 0.208337 0
M  V30 3445 C 333.821 -1.97558 -0.426076 0
M  V30 3446 C 334.142 -1.09683 -1.61229 0
M  V30 3447 O 333.412 -0.170956 -1.95153 0
M  V30 3448 H 331.992 -0.729575 -0.160405 0
M  V30 3449 H 334.654 -1.92606 0.298155 0
M  V30 3450 H 333.75 -3.02672 -0.761312 0
M  V30 3451 N 334.051 0.0651679 -1.57465 0
M  V30 3452 C 334.981 1.07693 -2.07182 0
M  V30 3453 C 335.962 1.39962 -0.966673 0
M  V30 3454 O 337.147 1.49475 -1.2398 0
M  V30 3455 C 334.277 2.3885 -2.52127 0
M  V30 3456 C 333.231 2.20917 -3.66579 0
M  V30 3457 C 332.557 3.57515 -3.97601 0
M  V30 3458 C 333.857 1.62493 -4.9638 0
M  V30 3459 H 335.551 0.663199 -2.91962 0
M  V30 3460 H 333.097 0.317569 -1.40455 0
M  V30 3461 H 335.05 3.09928 -2.85522 0
M  V30 3462 H 333.774 2.82215 -1.64384 0
M  V30 3463 H 332.433 1.52279 -3.33477 0
M  V30 3464 H 332.081 3.98463 -3.06979 0
M  V30 3465 H 331.781 3.46353 -4.74672 0
M  V30 3466 H 333.305 4.30013 -4.33499 0
M  V30 3467 H 334.719 2.23445 -5.27963 0
M  V30 3468 H 333.116 1.62009 -5.77818 0
M  V30 3469 H 334.186 0.587041 -4.81333 0
M  V30 3470 N 335.529 1.53961 0.336706 0
M  V30 3471 C 336.492 1.81724 1.39675 0
M  V30 3472 C 337.492 0.688532 1.45313 0
M  V30 3473 O 338.682 0.956829 1.45569 0
M  V30 3474 C 335.814 1.96543 2.78538 0
M  V30 3475 H 337.007 2.76424 1.16318 0
M  V30 3476 H 334.56 1.45478 0.571474 0
M  V30 3477 H 335.295 1.0401 3.07168 0
M  V30 3478 H 335.08 2.78665 2.75841 0
M  V30 3479 H 336.57 2.19516 3.5525 0
M  V30 3480 N 337.007 -0.598083 1.45811 0
M  V30 3481 C 337.937 -1.71873 1.58057 0
M  V30 3482 C 338.918 -1.64533 0.431615 0
M  V30 3483 O 340.103 -1.82787 0.65595 0
M  V30 3484 C 337.233 -3.10495 1.55597 0
M  V30 3485 C 336.187 -3.32654 2.69305 0
M  V30 3486 C 335.513 -4.71646 2.51902 0
M  V30 3487 C 336.813 -3.21981 4.11248 0
M  V30 3488 H 338.507 -1.61881 2.51863 0
M  V30 3489 H 336.053 -0.777372 1.21214 0
M  V30 3490 H 338.006 -3.88699 1.6276 0
M  V30 3491 H 336.73 -3.2135 0.583255 0
M  V30 3492 H 335.389 -2.56843 2.61586 0
M  V30 3493 H 335.037 -4.79246 1.52748 0
M  V30 3494 H 334.737 -4.87426 3.2816 0
M  V30 3495 H 336.261 -5.52038 2.60933 0
M  V30 3496 H 337.675 -3.90049 4.20161 0
M  V30 3497 H 336.072 -3.49289 4.87972 0
M  V30 3498 H 337.142 -2.1928 4.32486 0
M  V30 3499 N 338.485 -1.33259 -0.841409 0
M  V30 3500 C 339.715 -1.2742 -1.62628 0
M  V30 3501 C 340.123 0.157604 -1.88542 0
M  V30 3502 O 339.466 1.10938 -1.46419 0
M  V30 3503 C 339.528 -1.97797 -3.00194 0
M  V30 3504 C 339.192 -3.47109 -2.97261 0
M  V30 3505 C 340.189 -4.42358 -2.73159 0
M  V30 3506 C 337.874 -3.89247 -3.17478 0
M  V30 3507 C 339.868 -5.77718 -2.69296 0
M  V30 3508 C 337.555 -5.24713 -3.13241 0
M  V30 3509 C 338.553 -6.1876 -2.89181 0
M  V30 3510 O 338.241 -7.51745 -2.84843 0
M  V30 3511 H 337.973 -0.440436 -0.512827 0
M  V30 3512 H 340.527 -1.76153 -1.05638 0
M  V30 3513 H 338.757 -1.43652 -3.59028 0
M  V30 3514 H 340.446 -1.8549 -3.61038 0
M  V30 3515 H 341.212 -4.11127 -2.57294 0
M  V30 3516 H 337.091 -3.16456 -3.35226 0
M  V30 3517 H 340.635 -6.51097 -2.50436 0
M  V30 3518 H 336.532 -5.55569 -3.28654 0
M  V30 3519 H 337.3 -7.61262 -3.00702 0
M  V30 3520 N 339.963 1.05934 -1.16686 0
M  V30 3521 C 341.191 1.8249 -0.974929 0
M  V30 3522 C 341.606 1.82679 0.476861 0
M  V30 3523 O 340.963 1.2486 1.33103 0
M  V30 3524 C 341.014 3.28943 -1.49929 0
M  V30 3525 O 340.735 3.28886 -2.89423 0
M  V30 3526 C 342.236 4.22215 -1.35089 0
M  V30 3527 H 339.456 0.575295 -0.345365 0
M  V30 3528 H 342 1.33631 -1.548 0
M  V30 3529 H 340.155 3.751 -0.968423 0
M  V30 3530 H 340.569 4.20493 -3.13506 0
M  V30 3531 H 342.043 5.22987 -1.76603 0
M  V30 3532 H 342.52 4.38195 -0.296935 0
M  V30 3533 H 343.126 3.81907 -1.87155 0
M  V30 3534 N 341.441 0.965919 1.2453 0
M  V30 3535 C 342.852 0.665929 1.7442 0
M  V30 3536 C 343.203 -0.818407 1.78316 0
M  V30 3537 O 342.328 -1.64037 1.41141 0
M  V30 3538 C 342.923 1.20211 3.16757 0
M  V30 3539 C 341.482 0.952059 3.6416 0
M  V30 3540 C 340.629 1.33848 2.42858 0
M  V30 3541 H 343.58 1.14144 1.10258 0
M  V30 3542 H 343.601 0.567544 3.76244 0
M  V30 3543 H 343.113 2.28244 3.13889 0
M  V30 3544 H 341.214 -0.112821 3.72429 0
M  V30 3545 H 341.327 1.59645 4.51719 0
M  V30 3546 H 339.691 0.756864 2.43195 0
M  V30 3547 H 340.474 2.42827 2.42673 0
M  V30 3548 N 342.919 -1.39368 0.735821 0
M  V30 3549 C 344.165 -2.00794 0.284544 0
M  V30 3550 C 344.498 -1.58255 -1.12557 0
M  V30 3551 O 343.773 -0.811819 -1.76748 0
M  V30 3552 C 344.056 -3.58011 0.387337 0
M  V30 3553 C 343.909 -4.10566 1.83728 0
M  V30 3554 C 345.228 -4.395 -0.22975 0
M  V30 3555 H 342.347 -0.729501 0.104866 0
M  V30 3556 H 344.989 -1.65564 0.93213 0
M  V30 3557 H 343.139 -3.88154 -0.164006 0
M  V30 3558 H 344.811 -3.91139 2.44556 0
M  V30 3559 H 343.054 -3.64095 2.35833 0
M  V30 3560 H 343.725 -5.19702 1.86047 0
M  V30 3561 H 346.201 -4.15406 0.240257 0
M  V30 3562 H 345.077 -5.48752 -0.127485 0
M  V30 3563 H 345.338 -4.22062 -1.3159 0
M  V30 3564 N 344.397 -0.483516 -1.5 0
M  V30 3565 C 345.643 0.0672592 -2.02688 0
M  V30 3566 C 345.976 1.38247 -1.36387 0
M  V30 3567 O 345.251 1.88131 -0.493675 0
M  V30 3568 C 345.534 0.238109 -3.59312 0
M  V30 3569 C 345.387 -1.099 -4.36168 0
M  V30 3570 C 346.706 0.986916 -4.28892 0
M  V30 3571 H 343.825 0.0229696 -0.736642 0
M  V30 3572 H 346.467 -0.631527 -1.79197 0
M  V30 3573 H 344.617 0.8333 -3.79458 0
M  V30 3574 H 346.289 -1.73172 -4.27562 0
M  V30 3575 H 344.532 -1.69261 -3.99416 0
M  V30 3576 H 345.203 -0.932954 -5.44059 0
M  V30 3577 H 347.679 0.482302 -4.13295 0
M  V30 3578 H 346.555 1.07527 -5.38265 0
M  V30 3579 H 346.816 2.0265 -3.92919 0
M  V30 3580 N 345.875 1.56104 -0.216619 0
M  V30 3581 C 346.805 2.23063 0.690296 0
M  V30 3582 C 347.786 1.20072 1.20485 0
M  V30 3583 O 348.971 1.48643 1.24976 0
M  V30 3584 C 346.101 2.90672 1.90072 0
M  V30 3585 C 345.055 4.00092 1.5202 0
M  V30 3586 C 344.381 4.54972 2.80899 0
M  V30 3587 C 345.681 5.17398 0.71391 0
M  V30 3588 H 347.375 2.99109 0.132038 0
M  V30 3589 H 344.921 1.43866 0.0620664 0
M  V30 3590 H 346.874 3.36204 2.54057 0
M  V30 3591 H 345.598 2.12066 2.48386 0
M  V30 3592 H 344.257 3.55283 0.903839 0
M  V30 3593 H 343.905 3.73102 3.37348 0
M  V30 3594 H 343.605 5.28817 2.56176 0
M  V30 3595 H 345.129 5.0322 3.45836 0
M  V30 3596 H 346.543 5.59342 1.25735 0
M  V30 3597 H 344.94 5.97444 0.563951 0
M  V30 3598 H 346.01 4.84088 -0.280527 0
M  V30 3599 N 347.353 -0.0568162 1.57498 0
M  V30 3600 C 348.764 -0.606858 1.76562 0
M  V30 3601 C 349.115 -1.77114 0.844094 0
M  V30 3602 O 348.24 -2.16376 0.0318911 0
M  V30 3603 C 348.835 -1.10766 3.20182 0
M  V30 3604 C 347.394 -1.60344 3.40539 0
M  V30 3605 C 346.541 -0.529311 2.72201 0
M  V30 3606 H 349.492 0.169393 1.57793 0
M  V30 3607 H 349.513 -1.97602 3.25167 0
M  V30 3608 H 349.025 -0.26006 3.87228 0
M  V30 3609 H 347.126 -2.47379 2.78629 0
M  V30 3610 H 347.239 -1.67006 4.4905 0
M  V30 3611 H 345.603 -0.977893 2.35179 0
M  V30 3612 H 346.386 0.308352 3.41912 0
M  V30 3613 N 348.832 -1.54138 -0.328536 0
M  V30 3614 C 350.248 -1.44736 -0.672574 0
M  V30 3615 C 350.448 -0.616217 -1.91846 0
M  V30 3616 O 349.504 -0.113067 -2.52247 0
M  V30 3617 C 350.817 -2.884 -0.851217 0
M  V30 3618 C 352.365 -2.98271 -0.948877 0
M  V30 3619 C 352.84 -4.43074 -1.15973 0
M  V30 3620 N 354.331 -4.46665 -1.22658 0
M  V30 3621 C 355.066 -5.55857 -1.40751 0
M  V30 3622 N 354.562 -6.75026 -1.5592 0
M  V30 3623 N 356.355 -5.43495 -1.4342 0
M  V30 3624 H 348.506 -2.06661 0.490421 0
M  V30 3625 H 350.769 -0.934812 0.157579 0
M  V30 3626 H 350.475 -3.51699 -0.00704236 0
M  V30 3627 H 350.349 -3.34225 -1.74853 0
M  V30 3628 H 352.736 -2.35102 -1.78356 0
M  V30 3629 H 352.817 -2.55785 -0.0281435 0
M  V30 3630 H 352.461 -5.06827 -0.329915 0
M  V30 3631 H 352.391 -4.83165 -2.09426 0
M  V30 3632 H 354.882 -3.60797 -1.124 0
M  V30 3633 H 355.195 -7.54004 -1.69404 0
M  V30 3634 H 353.54 -6.77944 -1.53027 0
M  V30 3635 H 356.731 -4.49349 -1.31162 0
M  V30 3636 H 356.904 -6.28649 -1.57178 0
M  V30 3637 N 350.31 0.590341 -1.46126 0
M  V30 3638 C 351.535 1.37991 -1.54833 0
M  V30 3639 C 351.96 1.87163 -0.187506 0
M  V30 3640 O 351.318 1.61133 0.831008 0
M  V30 3641 C 351.366 2.54867 -2.55098 0
M  V30 3642 O 350.47 3.56061 -2.08073 0
M  V30 3643 H 349.811 0.411265 -0.521303 0
M  V30 3644 H 352.341 0.716819 -1.91632 0
M  V30 3645 H 352.351 3.01886 -2.74461 0
M  V30 3646 H 351.026 2.18429 -3.53923 0
M  V30 3647 H 349.603 3.15574 -1.98664 0
M  V30 3648 N 351.788 1.33704 0.83433 0
M  V30 3649 C 352.718 1.26967 1.95963 0
M  V30 3650 C 353.699 0.149337 1.69443 0
M  V30 3651 O 354.884 0.339852 1.91203 0
M  V30 3652 C 352.014 1.01275 3.32206 0
M  V30 3653 C 350.968 2.09652 3.73136 0
M  V30 3654 C 350.294 1.69166 5.07235 0
M  V30 3655 C 351.594 3.51372 3.86439 0
M  V30 3656 H 353.288 2.2112 2.01857 0
M  V30 3657 H 350.834 1.06447 0.969793 0
M  V30 3658 H 352.787 0.952106 4.10503 0
M  V30 3659 H 351.511 0.0356203 3.26581 0
M  V30 3660 H 350.17 2.14766 2.97104 0
M  V30 3661 H 349.818 0.701437 4.98085 0
M  V30 3662 H 349.518 2.41694 5.35591 0
M  V30 3663 H 351.042 1.64576 5.88003 0
M  V30 3664 H 352.456 3.48734 4.55036 0
M  V30 3665 H 350.853 4.22425 4.26236 0
M  V30 3666 H 351.923 3.89546 2.88759 0
M  V30 3667 N 353.266 -1.05314 1.17247 0
M  V30 3668 C 354.543 -1.75184 0.87005 0
M  V30 3669 C 354.923 -2.01481 -0.629965 0
M  V30 3670 O 354.271 -1.64988 -1.58086 0
M  V30 3671 C 354.481 -3.04594 1.70363 0
M  V30 3672 C 355.829 -3.78567 1.92281 0
M  V30 3673 O 356.853 -3.14461 1.67311 0
M  V30 3674 O 355.712 -4.93755 2.3424 0
M  V30 3675 H 352.806 -0.761729 0.322021 0
M  V30 3676 H 355.352 -1.11493 1.27935 0
M  V30 3677 H 354.124 -2.81201 2.72106 0
M  V30 3678 H 353.747 -3.76022 1.29202 0
M  V30 3679 N 354.744 -0.972509 -1.24016 0
M  V30 3680 C 355.991 -0.637034 -1.92219 0
M  V30 3681 C 356.319 0.828418 -1.75976 0
M  V30 3682 O 355.574 1.61206 -1.10955 0
M  V30 3683 C 355.873 -0.963694 -3.44162 0
M  V30 3684 C 355.539 -2.41807 -3.80579 0
M  V30 3685 C 354.201 -2.81556 -3.9023 0
M  V30 3686 C 356.553 -3.36172 -3.98293 0
M  V30 3687 C 353.881 -4.14702 -4.15017 0
M  V30 3688 C 356.233 -4.68952 -4.24578 0
M  V30 3689 C 354.897 -5.08472 -4.32449 0
M  V30 3690 H 354.167 -0.233107 -0.703379 0
M  V30 3691 H 356.814 -1.2249 -1.47202 0
M  V30 3692 H 355.119 -0.29365 -3.90698 0
M  V30 3693 H 356.816 -0.682449 -3.9515 0
M  V30 3694 H 353.406 -2.09988 -3.73635 0
M  V30 3695 H 357.59 -3.06644 -3.90234 0
M  V30 3696 H 352.846 -4.4494 -4.19331 0
M  V30 3697 H 357.02 -5.42037 -4.37229 0
M  V30 3698 H 354.647 -6.11665 -4.51409 0
M  V30 3699 N 356.222 1.38976 -0.743202 0
M  V30 3700 C 357.45 2.04636 -0.30525 0
M  V30 3701 C 357.865 1.56044 1.06281 0
M  V30 3702 O 357.222 0.728921 1.67311 0
M  V30 3703 C 357.273 3.60193 -0.307177 0
M  V30 3704 O 356.994 4.06998 -1.62124 0
M  V30 3705 C 358.495 4.4306 0.145928 0
M  V30 3706 H 355.715 0.65788 -0.132041 0
M  V30 3707 H 358.259 1.77866 -1.00915 0
M  V30 3708 H 356.414 3.85835 0.347898 0
M  V30 3709 H 356.828 5.01371 -1.54036 0
M  V30 3710 H 358.302 5.51921 0.0934183 0
M  V30 3711 H 358.779 4.22706 1.19231 0
M  V30 3712 H 359.385 4.22584 -0.479886 0
M  V30 3713 N 357.7 0.491464 1.49741 0
M  V30 3714 C 358.61 -0.296835 2.32715 0
M  V30 3715 C 359.626 -0.976536 1.44013 0
M  V30 3716 O 360.802 -0.960023 1.77047 0
M  V30 3717 C 357.867 -1.35288 3.19215 0
M  V30 3718 C 356.928 -0.687632 4.23757 0
M  V30 3719 C 356.161 -1.69336 5.06123 0
M  V30 3720 O 356.384 -2.92219 4.89861 0
M  V30 3721 O 355.318 -1.25394 5.88693 0
M  V30 3722 H 359.144 0.382048 3.01287 0
M  V30 3723 H 356.729 0.252953 1.47243 0
M  V30 3724 H 358.611 -1.96411 3.72828 0
M  V30 3725 H 357.286 -2.01487 2.53347 0
M  V30 3726 H 356.193 -0.0369159 3.74082 0
M  V30 3727 H 357.526 -0.0682566 4.92153 0
M  V30 3728 N 359.178 -1.55987 0.224894 0
M  V30 3729 C 360.108 -2.23426 -0.678457 0
M  V30 3730 C 361.089 -1.20709 -1.19847 0
M  V30 3731 O 362.274 -1.49304 -1.24186 0
M  V30 3732 C 359.404 -2.91676 -1.88527 0
M  V30 3733 C 358.358 -4.00893 -1.49896 0
M  V30 3734 C 357.684 -4.56455 -2.78483 0
M  V30 3735 C 358.984 -5.17769 -0.686461 0
M  V30 3736 H 360.678 -2.99175 -0.116173 0
M  V30 3737 H 358.224 -1.43897 -0.054436 0
M  V30 3738 H 360.177 -3.37547 -2.5227 0
M  V30 3739 H 358.901 -2.1338 -2.47258 0
M  V30 3740 H 357.56 -3.55758 -0.884985 0
M  V30 3741 H 357.208 -3.74886 -3.35365 0
M  V30 3742 H 356.908 -5.30169 -2.53368 0
M  V30 3743 H 358.432 -5.05047 -3.43162 0
M  V30 3744 H 359.846 -5.60001 -1.22767 0
M  V30 3745 H 358.243 -5.97735 -0.532259 0
M  V30 3746 H 359.313 -4.83932 0.306196 0
M  V30 3747 N 360.656 0.0484629 -1.57525 0
M  V30 3748 C 361.933 0.777447 -1.79486 0
M  V30 3749 C 362.313 1.94597 -0.818251 0
M  V30 3750 O 361.661 2.28047 0.143767 0
M  V30 3751 C 361.871 1.22864 -3.26658 0
M  V30 3752 C 363.219 1.65251 -3.91123 0
M  V30 3753 O 364.243 1.32372 -3.3069 0
M  V30 3754 O 363.102 2.26207 -4.97486 0
M  V30 3755 H 360.196 0.374357 -0.737419 0
M  V30 3756 H 362.742 0.0267359 -1.69679 0
M  V30 3757 H 361.514 0.393589 -3.89316 0
M  V30 3758 H 361.137 2.03996 -3.41279 0
M  V30 3759 N 362.134 1.5431 0.320358 0
M  V30 3760 C 363.38 1.72924 1.05949 0
M  V30 3761 C 363.713 0.503185 1.87568 0
M  V30 3762 O 362.988 -0.499839 1.87968 0
M  V30 3763 C 363.271 3.00676 1.98156 0
M  V30 3764 C 363.124 4.3354 1.19845 0
M  V30 3765 C 364.443 3.24198 2.9763 0
M  V30 3766 H 361.562 0.629195 0.383774 0
M  V30 3767 H 364.204 1.87008 0.335854 0
M  V30 3768 H 362.354 2.888 2.59859 0
M  V30 3769 H 364.026 4.57305 0.605773 0
M  V30 3770 H 362.269 4.309 0.500784 0
M  V30 3771 H 362.94 5.19156 1.87567 0
M  V30 3772 H 365.416 3.35557 2.4605 0
M  V30 3773 H 364.292 4.14938 3.59329 0
M  V30 3774 H 364.553 2.41577 3.7026 0
M  V30 3775 N 363.613 -0.582584 1.46437 0
M  V30 3776 C 364.576 -1.67366 1.56592 0
M  V30 3777 C 365.576 -1.54575 0.443072 0
M  V30 3778 O 366.766 -1.59191 0.707381 0
M  V30 3779 C 363.898 -3.06791 1.48634 0
M  V30 3780 H 365.091 -1.5972 2.5383 0
M  V30 3781 H 362.644 -0.800432 1.34249 0
M  V30 3782 H 363.379 -3.19993 0.526763 0
M  V30 3783 H 363.164 -3.17484 2.30101 0
M  V30 3784 H 364.654 -3.86218 1.58826 0
M  V30 3785 N 365.091 -1.34144 -0.827227 0
M  V30 3786 C 366.054 -1.25264 -1.91942 0
M  V30 3787 C 367.054 -0.168866 -1.59911 0
M  V30 3788 O 368.244 -0.421198 -1.69031 0
M  V30 3789 C 365.376 -0.932952 -3.27885 0
M  V30 3790 H 366.569 -2.22357 -2.0124 0
M  V30 3791 H 364.122 -1.1837 -1.0207 0
M  V30 3792 H 364.857 0.0349917 -3.24281 0
M  V30 3793 H 364.642 -1.71682 -3.52516 0
M  V30 3794 H 366.132 -0.895874 -4.07877 0
M  V30 3795 N 366.569 1.04691 -1.17803 0
M  V30 3796 C 367.479 2.16057 -0.914151 0
M  V30 3797 C 368.495 1.73589 0.119503 0
M  V30 3798 O 369.671 2.01308 -0.0609468 0
M  V30 3799 C 366.736 3.4394 -0.436603 0
M  V30 3800 C 365.797 4.00825 -1.53746 0
M  V30 3801 C 365.03 5.22604 -1.0826 0
M  V30 3802 O 365.253 5.70367 0.0612244 0
M  V30 3803 O 364.187 5.7186 -1.87775 0
M  V30 3804 H 368.013 2.41169 -1.84584 0
M  V30 3805 H 365.598 1.1453 -0.959334 0
M  V30 3806 H 367.48 4.21024 -0.178057 0
M  V30 3807 H 366.155 3.20316 0.466869 0
M  V30 3808 H 365.062 3.25158 -1.84995 0
M  V30 3809 H 366.395 4.28778 -2.41683 0
M  V30 3810 N 368.047 0.979072 1.23499 0
M  V30 3811 C 368.994 0.517904 2.24914 0
M  V30 3812 C 369.964 -0.442525 1.60097 0
M  V30 3813 O 371.149 -0.350365 1.87556 0
M  V30 3814 C 368.289 -0.174813 3.44657 0
M  V30 3815 C 367.402 0.825721 4.24035 0
M  V30 3816 C 366.537 0.107946 5.3109 0
M  V30 3817 C 365.576 1.09778 6.02175 0
M  V30 3818 N 364.713 0.40925 7.00906 0
M  V30 3819 H 369.553 1.38751 2.63727 0
M  V30 3820 H 367.09 0.695303 1.2963 0
M  V30 3821 H 369.048 -0.593233 4.12961 0
M  V30 3822 H 367.678 -1.0083 3.06648 0
M  V30 3823 H 366.73 1.36253 3.55161 0
M  V30 3824 H 368.042 1.58005 4.73113 0
M  V30 3825 H 367.196 -0.367904 6.05583 0
M  V30 3826 H 365.935 -0.678994 4.8295 0
M  V30 3827 H 364.94 1.5844 5.26476 0
M  V30 3828 H 366.165 1.88536 6.52404 0
M  V30 3829 H 364.111 -0.358506 6.5502 0
M  V30 3830 H 364.028 1.10226 7.47921 0
M  V30 3831 H 365.296 -0.0442557 7.79487 0
M  V30 3832 N 369.525 -1.3858 0.750561 0
M  V30 3833 C 370.774 -1.99424 0.302172 0
M  V30 3834 C 371.087 -1.60254 -1.12152 0
M  V30 3835 O 372.293 -2.14046 -1.67023 0
M  V30 3836 C 370.749 -3.56558 0.489307 0
M  V30 3837 C 370.357 -4.04682 1.92189 0
M  V30 3838 C 372.101 -4.24374 0.103478 0
M  V30 3839 C 370.008 -5.54446 2.05775 0
M  V30 3840 H 368.938 -0.746046 0.10923 0
M  V30 3841 H 371.589 -1.58383 0.92667 0
M  V30 3842 H 369.971 -3.95472 -0.204329 0
M  V30 3843 H 371.145 -3.77065 2.64875 0
M  V30 3844 H 369.46 -3.4958 2.26236 0
M  V30 3845 H 372.057 -5.34384 0.183787 0
M  V30 3846 H 372.4 -4.05468 -0.943481 0
M  V30 3847 H 372.933 -3.90688 0.748854 0
M  V30 3848 H 369.672 -5.78252 3.08714 0
M  V30 3849 H 369.192 -5.83816 1.37546 0
M  V30 3850 H 370.871 -6.20099 1.84626 0
M  V30 3851 N 371.003 -0.499398 -1.49478 0
M  V30 3852 C 372.28 0.108629 -1.95298 0
M  V30 3853 C 372.66 1.54282 -1.44084 0
M  V30 3854 O 372.008 2.18944 -0.653908 0
M  V30 3855 C 372.218 0.0229111 -3.48992 0
M  V30 3856 C 373.566 0.197643 -4.2414 0
M  V30 3857 O 374.59 0.0981735 -3.56065 0
M  V30 3858 O 373.449 0.401669 -5.45022 0
M  V30 3859 H 370.543 0.096181 -0.821388 0
M  V30 3860 H 373.089 -0.561822 -1.6013 0
M  V30 3861 H 371.861 -0.977321 -3.78899 0
M  V30 3862 H 371.484 0.733579 -3.90774 0
M  V30 3863 N 372.481 1.55866 -0.233164 0
M  V30 3864 C 373.897 1.59133 0.121988 0
M  V30 3865 C 374.097 1.25016 1.58029 0
M  V30 3866 O 373.153 0.990922 2.32243 0
M  V30 3867 C 374.466 2.99932 -0.214792 0
M  V30 3868 C 376.014 3.12601 -0.157971 0
M  V30 3869 C 376.489 4.55597 -0.46859 0
M  V30 3870 N 377.98 4.61305 -0.418585 0
M  V30 3871 C 378.715 5.69903 -0.63227 0
M  V30 3872 N 378.211 6.86819 -0.90835 0
M  V30 3873 N 380.004 5.59264 -0.563913 0
M  V30 3874 H 372.155 1.76315 -1.18434 0
M  V30 3875 H 374.418 0.820093 -0.475553 0
M  V30 3876 H 374.124 3.29588 -1.22739 0
M  V30 3877 H 373.998 3.74327 0.464691 0
M  V30 3878 H 376.385 2.82735 0.845283 0
M  V30 3879 H 376.466 2.40511 -0.871102 0
M  V30 3880 H 376.11 4.86182 -1.46934 0
M  V30 3881 H 376.04 5.25928 0.265865 0
M  V30 3882 H 378.531 3.77297 -0.213368 0
M  V30 3883 H 378.844 7.65507 -1.05919 0
M  V30 3884 H 377.189 6.88536 -0.945673 0
M  V30 3885 H 380.38 4.66802 -0.348372 0
M  V30 3886 H 380.553 6.43831 -0.733847 0
M  V30 3887 N 373.959 -0.0401083 1.57549 0
M  V30 3888 C 375.206 -0.733125 1.88763 0
M  V30 3889 C 375.534 -1.75946 0.829058 0
M  V30 3890 O 374.789 -1.94949 -0.171323 0
M  V30 3891 C 375.088 -1.44902 3.26708 0
M  V30 3892 C 374.754 -0.559707 4.47413 0
M  V30 3893 C 373.416 -0.314731 4.8017 0
M  V30 3894 C 375.768 0.0549743 5.21171 0
M  V30 3895 C 373.096 0.553886 5.8408 0
M  V30 3896 C 375.448 0.911229 6.26003 0
M  V30 3897 C 374.112 1.16577 6.57241 0
M  V30 3898 H 373.382 -0.268269 0.690733 0
M  V30 3899 H 376.029 0.00679408 1.91499 0
M  V30 3900 H 374.334 -2.26197 3.1991 0
M  V30 3901 H 376.031 -1.99058 3.48105 0
M  V30 3902 H 372.621 -0.760793 4.21794 0
M  V30 3903 H 376.805 -0.121344 4.96152 0
M  V30 3904 H 372.061 0.759518 6.06664 0
M  V30 3905 H 376.235 1.3941 6.82303 0
M  V30 3906 H 373.862 1.84058 7.37582 0
M  V30 3907 N 375.437 -1.54477 -0.31217 0
M  V30 3908 C 376.37 -1.79519 -1.40884 0
M  V30 3909 C 377.348 -0.645753 -1.49227 0
M  V30 3910 O 378.532 -0.884468 -1.66461 0
M  V30 3911 C 375.659 -1.92194 -2.78889 0
M  V30 3912 C 374.705 -3.14555 -2.88023 0
M  V30 3913 S 375.538 -4.72893 -2.51262 0
M  V30 3914 C 376.694 -4.8849 -3.91317 0
M  V30 3915 H 376.927 -2.72256 -1.19432 0
M  V30 3916 H 374.46 -1.45746 -0.509654 0
M  V30 3917 H 376.418 -2.00182 -3.58382 0
M  V30 3918 H 375.079 -1.00414 -2.97617 0
M  V30 3919 H 374.272 -3.20193 -3.89221 0
M  V30 3920 H 373.874 -3.04955 -2.16514 0
M  V30 3921 H 376.166 -4.71826 -4.86196 0
M  V30 3922 H 377.109 -5.90588 -3.90656 0
M  V30 3923 H 377.517 -4.16715 -3.80801 0
M  V30 3924 N 376.915 0.57481 -1.46744 0
M  V30 3925 C 377.847 1.69804 -1.53946 0
M  V30 3926 C 378.86 1.57098 -0.427106 0
M  V30 3927 O 380.049 1.64378 -0.695863 0
M  V30 3928 C 377.149 3.08125 -1.4111 0
M  V30 3929 C 376.322 3.46757 -2.66605 0
M  V30 3930 C 375.381 4.6417 -2.47855 0
M  V30 3931 O 374.407 4.69634 -3.21609 0
M  V30 3932 N 375.609 5.59553 -1.54534 0
M  V30 3933 H 378.374 1.64077 -2.50796 0
M  V30 3934 H 375.935 0.761 -1.429 0
M  V30 3935 H 377.927 3.84478 -1.26328 0
M  V30 3936 H 376.497 3.08175 -0.524109 0
M  V30 3937 H 375.717 2.6003 -2.96274 0
M  V30 3938 H 377.005 3.69337 -3.49954 0
M  V30 3939 H 376.403 5.57881 -0.937304 0
M  V30 3940 H 374.96 6.35304 -1.45711 0
M  V30 3941 N 378.394 1.34581 0.820102 0
M  V30 3942 C 379.357 1.2628 1.91275 0
M  V30 3943 C 380.357 0.177344 1.59819 0
M  V30 3944 O 381.547 0.430156 1.68806 0
M  V30 3945 C 378.679 0.950327 3.27386 0
M  V30 3946 H 379.872 2.23421 2.00057 0
M  V30 3947 H 377.425 1.1891 1.0144 0
M  V30 3948 H 378.16 -0.0177938 3.24295 0
M  V30 3949 H 377.945 1.73549 3.51601 0
M  V30 3950 H 379.435 0.917492 4.07396 0
M  V30 3951 N 379.872 -1.04064 1.18357 0
M  V30 3952 C 381.118 -1.77528 0.980397 0
M  V30 3953 C 381.451 -1.87948 -0.48879 0
M  V30 3954 O 380.726 -1.3876 -1.36293 0
M  V30 3955 C 381.009 -3.20797 1.63588 0
M  V30 3956 C 380.862 -3.1832 3.17793 0
M  V30 3957 C 382.181 -4.18911 1.34914 0
M  V30 3958 H 379.3 -0.644443 0.357578 0
M  V30 3959 H 381.942 -1.2156 1.46024 0
M  V30 3960 H 380.092 -3.68586 1.22788 0
M  V30 3961 H 381.764 -2.78521 3.67728 0
M  V30 3962 H 380.007 -2.56351 3.49952 0
M  V30 3963 H 380.678 -4.19489 3.58794 0
M  V30 3964 H 383.154 -3.7967 1.70265 0
M  V30 3965 H 382.03 -5.17374 1.83346 0
M  V30 3966 H 382.291 -4.41262 0.272027 0
M  V30 3967 N 381.35 -0.985608 -1.22978 0
M  V30 3968 C 382.578 -0.675582 -1.95559 0
M  V30 3969 C 382.993 0.758413 -1.72897 0
M  V30 3970 O 382.35 1.51094 -1.02357 0
M  V30 3971 C 382.401 -0.96293 -3.48439 0
M  V30 3972 O 382.122 -2.34057 -3.70336 0
M  V30 3973 C 383.623 -0.669585 -4.38214 0
M  V30 3974 H 380.843 -0.250523 -0.622478 0
M  V30 3975 H 383.387 -1.3184 -1.56328 0
M  V30 3976 H 381.542 -0.366033 -3.85667 0
M  V30 3977 H 381.956 -2.43424 -4.64591 0
M  V30 3978 H 383.43 -0.920967 -5.44263 0
M  V30 3979 H 383.907 0.396383 -4.37408 0
M  V30 3980 H 384.513 -1.2472 -4.06602 0
M  V30 3981 N 382.828 1.3818 -0.7579 0
M  V30 3982 C 384.076 1.99624 -0.315361 0
M  V30 3983 C 384.397 1.60464 1.10799 0
M  V30 3984 O 383.667 0.863507 1.75842 0
M  V30 3985 H 382.247 0.73831 -0.113611 0
M  V30 3986 H 384.909 1.68878 -0.972952 0
M  V30 3987 H 384.005 3.09754 -0.381931 0
M  V30 3988 N 384.306 0.507319 1.49211 0
M  V30 3989 C 385.552 -0.0269732 2.03382 0
M  V30 3990 C 385.907 -1.34111 1.37957 0
M  V30 3991 O 385.2 -1.84733 0.508351 0
M  V30 3992 C 385.394 -0.229513 3.56662 0
M  V30 3993 C 385.223 1.06344 4.36945 0
M  V30 3994 C 383.993 1.617 4.78729 0
M  V30 3995 C 386.191 1.96833 4.75143 0
M  V30 3996 N 384.173 2.8552 5.43463 0
M  V30 3997 C 385.544 3.0523 5.39661 0
M  V30 3998 C 387.599 1.97434 4.57082 0
M  V30 3999 C 386.302 4.14265 5.88028 0
M  V30 4000 C 388.328 3.05448 5.06414 0
M  V30 4001 C 387.69 4.12564 5.70938 0
M  V30 4002 H 383.789 0.0310673 0.781383 0
M  V30 4003 H 386.373 0.683579 1.82305 0
M  V30 4004 H 384.544 -0.909127 3.7761 0
M  V30 4005 H 386.276 -0.761377 3.97473 0
M  V30 4006 H 383.031 1.16132 4.59141 0
M  V30 4007 H 383.455 3.48499 5.80412 0
M  V30 4008 H 388.097 1.15924 4.06597 0
M  V30 4009 H 385.815 4.96569 6.3753 0
M  V30 4010 H 389.401 3.06941 4.94246 0
M  V30 4011 H 388.281 4.94767 6.0842 0
M  V30 4012 N 385.784 -1.5574 0.241426 0
M  V30 4013 C 386.731 -2.21149 -0.660432 0
M  V30 4014 C 387.701 -1.17356 -1.17545 0
M  V30 4015 O 388.886 -1.45784 -1.23093 0
M  V30 4016 C 386.026 -2.91059 -1.85414 0
M  V30 4017 C 385.139 -4.09495 -1.37616 0
M  V30 4018 C 384.274 -4.67135 -2.529 0
M  V30 4019 C 383.313 -5.77831 -2.01936 0
M  V30 4020 N 382.45 -6.29677 -3.10566 0
M  V30 4021 H 387.29 -2.97845 -0.095955 0
M  V30 4022 H 384.827 -1.47057 -0.0356024 0
M  V30 4023 H 386.785 -3.29788 -2.5553 0
M  V30 4024 H 385.415 -2.16846 -2.39118 0
M  V30 4025 H 384.467 -3.76117 -0.569235 0
M  V30 4026 H 385.779 -4.89423 -0.962618 0
M  V30 4027 H 384.933 -5.08409 -3.31067 0
M  V30 4028 H 383.672 -3.86411 -2.97553 0
M  V30 4029 H 382.677 -5.36039 -1.22238 0
M  V30 4030 H 383.902 -6.60402 -1.58259 0
M  V30 4031 H 381.848 -5.5186 -3.54664 0
M  V30 4032 H 381.765 -7.04783 -2.73526 0
M  V30 4033 H 383.033 -6.75609 -3.88809 0
M  V30 4034 N 387.262 0.0317525 -1.57568 0
M  V30 4035 C 388.49 0.734949 -1.93407 0
M  V30 4036 C 388.905 1.69036 -0.84096 0
M  V30 4037 O 388.262 1.81582 0.182836 0
M  V30 4038 C 388.313 1.49432 -3.29169 0
M  V30 4039 O 388.034 0.577261 -4.3428 0
M  V30 4040 C 389.535 2.29492 -3.79273 0
M  V30 4041 H 386.755 0.206706 -0.638368 0
M  V30 4042 H 389.299 -0.00992046 -2.04498 0
M  V30 4043 H 387.454 2.1911 -3.19483 0
M  V30 4044 H 387.868 1.10952 -5.1263 0
M  V30 4045 H 389.342 2.78172 -4.76785 0
M  V30 4046 H 389.819 3.10794 -3.10328 0
M  V30 4047 H 390.425 1.64894 -3.92033 0
M  V30 4048 N 388.74 1.54641 0.303973 0
M  V30 4049 C 389.988 1.73437 1.0375 0
M  V30 4050 C 390.309 0.521449 1.87899 0
M  V30 4051 O 389.579 -0.46432 1.90318 0
M  V30 4052 H 388.159 0.639518 0.386039 0
M  V30 4053 H 390.821 1.91988 0.335675 0
M  V30 4054 H 389.917 2.62235 1.69231 0
M  V30 4055 N 390.218 -0.567019 1.47046 0
M  V30 4056 C 391.458 -1.3355 1.54738 0
M  V30 4057 C 391.822 -1.90947 0.200772 0
M  V30 4058 O 393.023 -2.68367 0.152489 0
M  V30 4059 C 391.294 -2.42317 2.62712 0
M  V30 4060 S 392.853 -3.29383 2.89918 0
M  V30 4061 H 389.671 -0.454788 0.546525 0
M  V30 4062 H 392.273 -0.650191 1.84371 0
M  V30 4063 H 390.977 -1.98568 3.59164 0
M  V30 4064 H 390.508 -3.15601 2.34861 0
M  V30 4065 H 392.523 -4.41548 2.26384 0
M  V30 4066 N 391.696 -1.35014 -0.812953 0
M  V30 4067 C 392.921 -1.31187 -1.60639 0
M  V30 4068 C 393.346 0.109382 -1.87782 0
M  V30 4069 O 392.704 1.07424 -1.46047 0
M  V30 4070 C 392.752 -2.11809 -2.91838 0
M  V30 4071 O 391.856 -1.49444 -3.8437 0
M  V30 4072 H 391.197 -0.450084 -0.488181 0
M  V30 4073 H 393.727 -1.77963 -1.00947 0
M  V30 4074 H 393.737 -2.23531 -3.41318 0
M  V30 4075 H 392.412 -3.15137 -2.71407 0
M  V30 4076 H 390.989 -1.46524 -3.42907 0
M  V30 4077 N 393.175 1.03435 -1.18907 0
M  V30 4078 C 394.105 2.13503 -0.945448 0
M  V30 4079 C 395.086 1.69682 0.119189 0
M  V30 4080 O 396.271 1.94169 -0.034707 0
M  V30 4081 C 393.401 3.44004 -0.477316 0
M  V30 4082 C 392.355 4.0148 -1.48316 0
M  V30 4083 C 391.681 5.27537 -0.872311 0
M  V30 4084 C 392.981 4.36921 -2.86177 0
M  V30 4085 H 394.675 2.34141 -1.86597 0
M  V30 4086 H 392.221 1.12523 -0.898584 0
M  V30 4087 H 394.174 4.20372 -0.294204 0
M  V30 4088 H 392.898 3.23072 0.478786 0
M  V30 4089 H 391.557 3.27201 -1.65332 0
M  V30 4090 H 391.205 5.02917 0.0911752 0
M  V30 4091 H 390.905 5.66954 -1.54393 0
M  V30 4092 H 392.429 6.06576 -0.699871 0
M  V30 4093 H 393.843 5.04248 -2.72776 0
M  V30 4094 H 392.24 4.87405 -3.50081 0
M  V30 4095 H 393.31 3.46466 -3.39248 0
M  V30 4096 N 394.653 0.992116 1.22453 0
M  V30 4097 C 395.586 0.486701 2.22949 0
M  V30 4098 C 396.564 -0.45259 1.56174 0
M  V30 4099 O 397.748 -0.378317 1.84665 0
M  V30 4100 C 394.875 -0.294537 3.37417 0
M  V30 4101 C 393.921 0.590628 4.22391 0
M  V30 4102 S 394.754 2.04546 4.94895 0
M  V30 4103 C 395.91 1.27369 6.12803 0
M  V30 4104 H 396.143 1.33828 2.65475 0
M  V30 4105 H 393.676 0.799023 1.32117 0
M  V30 4106 H 395.634 -0.739241 4.03789 0
M  V30 4107 H 394.295 -1.12139 2.934 0
M  V30 4108 H 393.488 -0.0104375 5.03999 0
M  V30 4109 H 393.09 0.972064 3.61147 0
M  V30 4110 H 395.382 0.540943 6.75337 0
M  V30 4111 H 396.325 2.06502 6.7732 0
M  V30 4112 H 396.733 0.787324 5.58983 0
M  V30 4113 N 396.131 -1.37776 0.765217 0
M  V30 4114 C 397.379 -1.99454 0.325943 0
M  V30 4115 C 397.7 -1.61049 -1.09947 0
M  V30 4116 O 396.97 -0.872821 -1.75381 0
M  V30 4117 H 395.55 -0.737697 0.117525 0
M  V30 4118 H 398.212 -1.68359 0.981895 0
M  V30 4119 H 397.308 -3.09547 0.398353 0
M  V30 4120 N 397.609 -0.515225 -1.4894 0
M  V30 4121 C 398.572 0.244681 -2.2789 0
M  V30 4122 C 399.572 0.881166 -1.34507 0
M  V30 4123 O 400.762 0.743497 -1.57537 0
M  V30 4124 C 397.894 1.35247 -3.12923 0
M  V30 4125 H 399.087 -0.448289 -2.96531 0
M  V30 4126 H 396.64 -0.270656 -1.53939 0
M  V30 4127 H 397.375 2.07916 -2.48881 0
M  V30 4128 H 397.16 0.901374 -3.81599 0
M  V30 4129 H 398.65 1.88737 -3.72516 0
M  V30 4130 N 399.087 1.5561 -0.249682 0
M  V30 4131 C 400.312 2.03865 0.381305 0
M  V30 4132 C 400.737 1.12769 1.50548 0
M  V30 4133 O 400.095 0.121189 1.80895 0
M  V30 4134 C 400.143 3.50101 0.863816 0
M  V30 4135 O 399.247 3.62132 1.97318 0
M  V30 4136 H 398.588 0.658827 0.0827194 0
M  V30 4137 H 401.118 2.01105 -0.376552 0
M  V30 4138 H 401.128 3.90975 1.1663 0
M  V30 4139 H 399.803 4.1588 0.0411816 0
M  V30 4140 H 398.38 3.33155 1.67517 0
M  V30 4141 N 400.565 -0.0233959 1.57583 0
M  V30 4142 C 401.811 -0.714119 1.89811 0
M  V30 4143 C 402.144 -1.74702 0.848113 0
M  V30 4144 O 401.419 -1.94023 -0.136135 0
M  V30 4145 C 401.702 -1.37853 3.32669 0
M  V30 4146 C 401.555 -0.358764 4.48367 0
M  V30 4147 C 402.874 -2.31101 3.7454 0
M  V30 4148 H 399.993 -0.25814 0.690314 0
M  V30 4149 H 402.635 0.0230927 1.89986 0
M  V30 4150 H 400.785 -2.00689 3.3265 0
M  V30 4151 H 402.457 0.268115 4.6052 0
M  V30 4152 H 400.7 0.321387 4.32608 0
M  V30 4153 H 401.371 -0.862242 5.45224 0
M  V30 4154 H 403.847 -1.78304 3.75961 0
M  V30 4155 H 402.723 -2.74567 4.75294 0
M  V30 4156 H 402.984 -3.18018 3.0711 0
M  V30 4157 N 402.043 -1.548 -0.295768 0
M  V30 4158 C 403.32 -1.65014 -1.05023 0
M  V30 4159 C 403.7 -0.501805 -2.05049 0
M  V30 4160 O 403.048 0.500869 -2.22943 0
M  V30 4161 C 403.258 -3.03252 -1.72741 0
M  V30 4162 C 404.606 -3.60242 -2.24746 0
M  V30 4163 O 405.63 -3.05737 -1.82765 0
M  V30 4164 O 404.489 -4.55687 -3.01681 0
M  V30 4165 H 401.583 -0.669314 -0.485744 0
M  V30 4166 H 404.129 -1.67144 -0.293438 0
M  V30 4167 H 402.901 -3.7827 -1.00138 0
M  V30 4168 H 402.524 -3.04922 -2.55163 0
M  V30 4169 N 403.521 0.559213 -1.47345 0
M  V30 4170 C 404.746 1.34676 -1.57725 0
M  V30 4171 C 405.171 1.86723 -0.227164 0
M  V30 4172 O 404.529 1.6286 0.796642 0
M  V30 4173 C 404.577 2.49399 -2.60447 0
M  V30 4174 O 403.681 3.51567 -2.15578 0
M  V30 4175 H 403.022 0.400115 -0.52991 0
M  V30 4176 H 405.552 0.676009 -1.93109 0
M  V30 4177 H 405.562 2.95996 -2.80803 0
M  V30 4178 H 404.237 2.10873 -3.58477 0
M  V30 4179 H 402.814 3.11289 -2.05313 0
M  V30 4180 N 404.999 1.35443 0.805782 0
M  V30 4181 C 406.227 1.31878 1.59423 0
M  V30 4182 C 406.642 -0.103562 1.88516 0
M  V30 4183 O 405.999 -1.05575 1.48863 0
M  V30 4184 C 406.05 2.12426 2.92502 0
M  V30 4185 O 405.771 3.49115 2.6467 0
M  V30 4186 C 407.272 2.16455 3.86862 0
M  V30 4187 H 404.492 0.453002 0.495005 0
M  V30 4188 H 407.036 1.78309 1.00131 0
M  V30 4189 H 405.191 1.69593 3.48306 0
M  V30 4190 H 405.605 3.90957 3.49647 0
M  V30 4191 H 407.079 2.77204 4.77349 0
M  V30 4192 H 407.556 1.16352 4.23508 0
M  V30 4193 H 408.162 2.59453 3.36993 0
M  V30 4194 N 406.477 -1.02803 1.19454 0
M  V30 4195 C 407.407 -2.12999 0.956758 0
M  V30 4196 C 408.388 -1.69743 -0.110188 0
M  V30 4197 O 409.573 -1.94148 0.0450038 0
M  V30 4198 C 406.703 -3.43746 0.495553 0
M  V30 4199 C 405.657 -4.00688 1.50443 0
M  V30 4200 C 404.983 -5.27067 0.900275 0
M  V30 4201 C 406.283 -4.35397 2.8849 0
M  V30 4202 H 407.977 -2.33148 1.87836 0
M  V30 4203 H 405.523 -1.12045 0.904539 0
M  V30 4204 H 407.476 -4.2021 0.316493 0
M  V30 4205 H 406.2 -3.23321 -0.461646 0
M  V30 4206 H 404.859 -3.2632 1.67065 0
M  V30 4207 H 404.507 -5.02959 -0.064503 0
M  V30 4208 H 404.207 -5.66127 1.57397 0
M  V30 4209 H 405.731 -6.06196 0.73203 0
M  V30 4210 H 407.145 -5.02795 2.75446 0
M  V30 4211 H 405.542 -4.85541 3.52661 0
M  V30 4212 H 406.612 -3.44662 3.41081 0
M  V30 4213 N 407.956 -0.998596 -1.21925 0
M  V30 4214 C 408.919 -0.558679 -2.22287 0
M  V30 4215 C 409.919 0.361525 -1.56683 0
M  V30 4216 O 411.109 0.152695 -1.73529 0
M  V30 4217 C 408.241 0.18661 -3.40389 0
M  V30 4218 H 409.434 -1.4463 -2.62721 0
M  V30 4219 H 406.987 -0.786413 -1.35075 0
M  V30 4220 H 407.722 1.08996 -3.05435 0
M  V30 4221 H 407.507 -0.474188 -3.89222 0
M  V30 4222 H 408.997 0.482367 -4.14805 0
M  V30 4223 N 409.434 1.37368 -0.772513 0
M  V30 4224 C 410.681 1.99673 -0.337182 0
M  V30 4225 C 411.009 1.61324 1.0865 0
M  V30 4226 O 410.264 0.851377 1.7621 0
M  V30 4227 C 410.563 3.54817 -0.428876 0
M  V30 4228 C 410.229 4.12936 -1.81092 0
M  V30 4229 C 408.891 4.28523 -2.1891 0
M  V30 4230 C 411.243 4.44801 -2.71664 0
M  V30 4231 C 408.571 4.73277 -3.46735 0
M  V30 4232 C 410.923 4.90981 -3.98899 0
M  V30 4233 C 409.587 5.04773 -4.36761 0
M  V30 4234 H 408.857 0.730656 -0.123384 0
M  V30 4235 H 411.504 1.64124 -0.986686 0
M  V30 4236 H 409.809 3.90618 0.304167 0
M  V30 4237 H 411.506 4.00933 -0.0733334 0
M  V30 4238 H 408.096 4.01233 -1.50699 0
M  V30 4239 H 412.28 4.32344 -2.43706 0
M  V30 4240 H 407.536 4.82142 -3.75964 0
M  V30 4241 H 411.71 5.14603 -4.69208 0
M  V30 4242 H 409.337 5.39211 -5.35868 0
M  V30 4243 N 410.912 0.523116 1.48665 0
M  V30 4244 C 411.86 -0.256859 2.31177 0
M  V30 4245 C 412.854 -0.94199 1.40794 0
M  V30 4246 O 414.06 -0.867157 1.57735 0
M  V30 4247 H 410.435 -0.1017 0.745091 0
M  V30 4248 H 412.406 0.458739 2.94853 0
M  V30 4249 C 411.155 -1.29503 3.22683 0
M  V30 4250 H 410.478 -0.777248 3.92172 0
M  V30 4251 H 411.918 -1.81233 3.83315 0
M  V30 4252 C 410.377 -2.32501 2.43813 0
M  V30 4253 O 410.907 -3.3881 2.15803 0
M  V30 4254 N 409.113 -2.05538 2.05432 0
M  V30 4255 H 408.66 -1.19104 2.28412 0
M  V30 4256 H 408.618 -2.74676 1.52973 0
M  V30 4257 N 412.39 -1.55475 0.257931 0
M  V30 4258 C 413.618 -2.03609 -0.367559 0
M  V30 4259 C 414.033 -1.13687 -1.50734 0
M  V30 4260 O 413.39 -0.153479 -1.81853 0
M  V30 4261 C 413.441 -3.51001 -0.864908 0
M  V30 4262 O 413.162 -4.37499 0.229465 0
M  V30 4263 C 414.663 -4.14946 -1.55997 0
M  V30 4264 H 411.883 -0.665459 -0.0860521 0
M  V30 4265 H 414.427 -2.00843 0.385014 0
M  V30 4266 H 412.582 -3.54266 -1.56762 0
M  V30 4267 H 412.996 -5.24286 -0.14998 0
M  V30 4268 H 414.47 -5.19735 -1.85956 0
M  V30 4269 H 414.947 -3.6209 -2.4857 0
M  V30 4270 H 415.553 -4.15635 -0.901543 0
M  V30 4271 N 413.868 0.0150385 -1.57593 0
M  V30 4272 C 415.098 0.713359 -1.93894 0
M  V30 4273 C 415.506 1.68663 -0.857289 0
M  V30 4274 O 414.849 1.82876 0.173788 0
M  V30 4275 C 414.911 1.51348 -3.26089 0
M  V30 4276 C 414.575 0.703451 -4.51554 0
M  V30 4277 C 415.572 -0.00237924 -5.199 0
M  V30 4278 C 413.257 0.653854 -4.98026 0
M  V30 4279 C 415.251 -0.746955 -6.33008 0
M  V30 4280 C 412.938 -0.0944578 -6.11027 0
M  V30 4281 C 413.936 -0.793609 -6.78374 0
M  V30 4282 O 413.624 -1.52974 -7.89211 0
M  V30 4283 H 413.356 0.204637 -0.644282 0
M  V30 4284 H 415.91 -0.0276411 -2.05381 0
M  V30 4285 H 414.14 2.29862 -3.10967 0
M  V30 4286 H 415.829 2.09572 -3.47612 0
M  V30 4287 H 416.595 0.0268803 -4.84993 0
M  V30 4288 H 412.474 1.18756 -4.45441 0
M  V30 4289 H 416.018 -1.2932 -6.85509 0
M  V30 4290 H 411.915 -0.125591 -6.45378 0
M  V30 4291 H 412.683 -1.44488 -8.05646 0
M  V30 4292 N 415.346 1.54954 0.287554 0
M  V30 4293 C 416.592 1.75132 1.02257 0
M  V30 4294 C 416.925 0.542858 1.86458 0
M  V30 4295 O 416.2 -0.459856 1.88986 0
M  V30 4296 C 416.483 3.04812 1.91733 0
M  V30 4297 C 416.336 4.35985 1.10622 0
M  V30 4298 C 417.655 3.30438 2.90687 0
M  V30 4299 H 414.774 0.637194 0.370341 0
M  V30 4300 H 417.416 1.87678 0.296111 0
M  V30 4301 H 415.566 2.94247 2.53675 0
M  V30 4302 H 417.238 4.58487 0.508636 0
M  V30 4303 H 415.481 4.31865 0.409271 0
M  V30 4304 H 416.152 5.23017 1.76513 0
M  V30 4305 H 418.628 3.40701 2.38877 0
M  V30 4306 H 417.504 4.22467 3.50447 0
M  V30 4307 H 417.765 2.49377 3.65053 0
M  V30 4308 N 416.824 -0.551391 1.4764 0
M  V30 4309 C 417.774 -1.65362 1.56969 0
M  V30 4310 C 418.758 -1.55098 0.428189 0
M  V30 4311 O 419.95 -1.63481 0.678441 0
M  V30 4312 C 417.079 -3.04129 1.59249 0
M  V30 4313 C 416.165 -3.19576 2.78804 0
M  V30 4314 N 416.556 -3.05067 4.03445 0
M  V30 4315 C 414.854 -3.50588 2.75688 0
M  V30 4316 C 415.555 -3.2336 4.83543 0
M  V30 4317 N 414.531 -3.4996 4.15968 0
M  V30 4318 H 418.333 -1.52722 2.51104 0
M  V30 4319 H 415.847 -0.756303 1.43714 0
M  V30 4320 H 417.844 -3.83278 1.64024 0
M  V30 4321 H 416.504 -3.17877 0.662148 0
M  V30 4322 H 417.515 -2.82273 4.34215 0
M  V30 4323 H 414.192 -3.70827 1.91817 0
M  V30 4324 H 415.582 -3.17061 5.92387 0
M  V30 4325 N 418.302 -1.35869 -0.798587 0
M  V30 4326 C 419.549 -1.29588 -1.55606 0
M  V30 4327 C 419.877 0.127456 -1.94082 0
M  V30 4328 O 419.132 1.09461 -1.62225 0
M  V30 4329 C 419.431 -2.1556 -2.85077 0
M  V30 4330 C 419.097 -3.6424 -2.65781 0
M  V30 4331 C 417.759 -4.04766 -2.60227 0
M  V30 4332 C 420.111 -4.58547 -2.47758 0
M  V30 4333 C 417.439 -5.37753 -2.34603 0
M  V30 4334 C 419.791 -5.91742 -2.23662 0
M  V30 4335 C 418.455 -6.31402 -2.16534 0
M  V30 4336 H 417.725 -0.474197 -0.569402 0
M  V30 4337 H 420.372 -1.67839 -0.922086 0
M  V30 4338 H 418.677 -1.70216 -3.52893 0
M  V30 4339 H 420.374 -2.08031 -3.42818 0
M  V30 4340 H 416.964 -3.32086 -2.70956 0
M  V30 4341 H 421.148 -4.28117 -2.51056 0
M  V30 4342 H 416.404 -5.67474 -2.2756 0
M  V30 4343 H 420.578 -6.6439 -2.08708 0
M  V30 4344 H 418.205 -7.34381 -1.96441 0
M  V30 4345 N 419.78 1.02168 -1.19998 0
M  V30 4346 C 420.712 2.10705 -0.901994 0
M  V30 4347 C 421.725 1.6244 0.108216 0
M  V30 4348 O 422.914 1.78082 -0.12214 0
M  V30 4349 C 420.014 3.37291 -0.329834 0
M  V30 4350 C 419.187 4.14714 -1.39035 0
M  V30 4351 C 418.246 5.19606 -0.830432 0
M  V30 4352 O 417.272 5.48809 -1.50989 0
M  V30 4353 N 418.474 5.79366 0.362696 0
M  V30 4354 H 421.239 2.36856 -1.83628 0
M  V30 4355 H 418.8 1.18518 -1.10296 0
M  V30 4356 H 420.792 4.04657 0.0587633 0
M  V30 4357 H 419.362 3.0843 0.508891 0
M  V30 4358 H 418.582 3.42392 -1.9535 0
M  V30 4359 H 419.87 4.63226 -2.10474 0
M  V30 4360 H 419.268 5.57968 0.932081 0
M  V30 4361 H 417.825 6.48106 0.69299 0
M  V30 4362 N 421.258 1.00505 1.21394 0
M  V30 4363 C 422.506 0.686415 1.90086 0
M  V30 4364 C 422.827 -0.785264 1.7849 0
M  V30 4365 O 422.097 -1.56387 1.17983 0
M  V30 4366 H 420.677 0.2509 0.703604 0
M  V30 4367 H 423.339 1.27417 1.47482 0
M  V30 4368 H 422.435 0.959621 2.96981 0
M  V30 4369 N 422.737 -1.36956 0.779787 0
M  V30 4370 C 423.684 -2.30175 0.169697 0
M  V30 4371 C 424.654 -1.51501 -0.68094 0
M  V30 4372 O 425.839 -1.80042 -0.631629 0
M  V30 4373 C 422.979 -3.37985 -0.697131 0
M  V30 4374 C 422.092 -4.31661 0.170992 0
M  V30 4375 C 421.227 -5.2655 -0.701298 0
M  V30 4376 C 420.266 -6.11867 0.168869 0
M  V30 4377 N 419.403 -6.98973 -0.661855 0
M  V30 4378 H 424.243 -2.81767 0.970135 0
M  V30 4379 H 421.78 -1.38699 0.489994 0
M  V30 4380 H 423.738 -3.99128 -1.2146 0
M  V30 4381 H 422.368 -2.87739 -1.46309 0
M  V30 4382 H 421.42 -3.71756 0.80634 0
M  V30 4383 H 422.732 -4.91644 0.841875 0
M  V30 4384 H 421.886 -5.92937 -1.28494 0
M  V30 4385 H 420.625 -4.66998 -1.40584 0
M  V30 4386 H 419.63 -5.44452 0.764986 0
M  V30 4387 H 420.855 -6.73493 0.870863 0
M  V30 4388 H 418.801 -6.41941 -1.35086 0
M  V30 4389 H 418.718 -7.55984 -0.0484447 0
M  V30 4390 H 419.986 -7.6974 -1.22963 0
M  V30 4391 N 424.215 -0.530993 -1.48385 0
M  V30 4392 C 425.148 0.278511 -2.26494 0
M  V30 4393 C 426.126 0.943905 -1.32398 0
M  V30 4394 O 427.31 0.968098 -1.61741 0
M  V30 4395 C 424.437 1.39453 -3.08659 0
M  V30 4396 C 423.483 0.840434 -4.18137 0
M  V30 4397 S 424.316 -0.292496 -5.34701 0
M  V30 4398 C 425.472 0.825973 -6.20426 0
M  V30 4399 H 425.705 -0.384365 -2.94805 0
M  V30 4400 H 423.238 -0.316799 -1.51115 0
M  V30 4401 H 425.196 2.03382 -3.56575 0
M  V30 4402 H 423.857 2.02913 -2.3976 0
M  V30 4403 H 423.05 1.67769 -4.75257 0
M  V30 4404 H 422.652 0.277819 -3.72967 0
M  V30 4405 H 424.944 1.72438 -6.55188 0
M  V30 4406 H 425.887 0.292728 -7.07495 0
M  V30 4407 H 426.295 1.10683 -5.53543 0
M  V30 4408 N 425.693 1.55336 -0.266172 0
M  V30 4409 C 426.64 2.22172 0.625165 0
M  V30 4410 C 427.61 1.19211 1.15663 0
M  V30 4411 O 428.795 1.47723 1.20758 0
M  V30 4412 C 425.935 2.93972 1.8076 0
M  V30 4413 C 425.048 4.11632 1.31084 0
M  V30 4414 C 424.183 4.71099 2.45436 0
M  V30 4415 C 423.222 5.8097 1.92718 0
M  V30 4416 N 422.359 6.34538 3.00509 0
M  V30 4417 H 427.199 2.9796 0.0485582 0
M  V30 4418 H 424.736 1.47095 0.0122024 0
M  V30 4419 H 426.694 3.33811 2.50251 0
M  V30 4420 H 425.324 2.20623 2.35638 0
M  V30 4421 H 424.376 3.76975 0.509326 0
M  V30 4422 H 425.688 4.90893 0.884633 0
M  V30 4423 H 424.842 5.13612 3.22936 0
M  V30 4424 H 423.581 3.91096 2.91368 0
M  V30 4425 H 422.586 5.37916 1.13695 0
M  V30 4426 H 423.811 6.62836 1.47733 0
M  V30 4427 H 421.757 5.57433 3.45839 0
M  V30 4428 H 421.674 7.09046 2.62279 0
M  V30 4429 H 422.942 6.81709 3.78011 0
M  V30 4430 N 427.171 -0.0066808 1.57599 0
M  V30 4431 C 428.419 -0.691552 1.899 0
M  V30 4432 C 428.74 -1.74682 0.866672 0
M  V30 4433 O 428.01 -1.95661 -0.0968189 0
M  V30 4434 H 426.59 -0.258416 0.700878 0
M  V30 4435 H 429.252 0.0326655 1.94873 0
M  V30 4436 H 428.348 -1.16702 2.8946 0
M  V30 4437 N 428.649 -1.55105 -0.279332 0
M  V30 4438 C 429.896 -1.75412 -1.01177 0
M  V30 4439 C 430.224 -0.551728 -1.86511 0
M  V30 4440 O 429.479 0.465919 -1.90073 0
M  V30 4441 C 429.778 -3.0086 -1.92919 0
M  V30 4442 C 429.444 -4.33689 -1.23387 0
M  V30 4443 C 428.106 -4.69792 -1.04159 0
M  V30 4444 C 430.458 -5.15941 -0.738562 0
M  V30 4445 C 427.786 -5.85707 -0.341166 0
M  V30 4446 C 430.138 -6.32579 -0.0517636 0
M  V30 4447 C 428.802 -6.67326 0.152292 0
M  V30 4448 H 428.072 -0.641879 -0.370233 0
M  V30 4449 H 430.719 -1.89373 -0.284627 0
M  V30 4450 H 429.024 -2.81773 -2.72234 0
M  V30 4451 H 430.721 -3.13768 -2.49701 0
M  V30 4452 H 427.311 -4.05309 -1.39364 0
M  V30 4453 H 431.495 -4.8853 -0.874764 0
M  V30 4454 H 426.751 -6.11157 -0.172287 0
M  V30 4455 H 430.925 -6.9557 0.339828 0
M  V30 4456 H 428.552 -7.56998 0.697014 0
M  V30 4457 N 430.127 0.543554 -1.4793 0
M  V30 4458 C 431.352 1.32995 -1.59145 0
M  V30 4459 C 431.777 1.86472 -0.246956 0
M  V30 4460 O 431.135 1.63696 0.779324 0
M  V30 4461 C 431.183 2.46623 -2.63077 0
M  V30 4462 O 430.287 3.49261 -2.19295 0
M  V30 4463 H 429.628 0.394472 -0.534124 0
M  V30 4464 H 432.158 0.655489 -1.93816 0
M  V30 4465 H 432.168 2.93001 -2.83926 0
M  V30 4466 H 430.843 2.07059 -3.60693 0
M  V30 4467 H 429.42 3.09094 -2.08603 0
M  V30 4468 N 431.605 1.3629 0.791371 0
M  V30 4469 C 432.535 1.33137 1.91825 0
M  V30 4470 C 433.516 0.203168 1.68882 0
M  V30 4471 O 434.701 0.400509 1.90025 0
M  V30 4472 C 431.831 1.11793 3.28816 0
M  V30 4473 C 430.785 2.21417 3.66277 0
M  V30 4474 C 430.111 1.85218 5.01596 0
M  V30 4475 C 431.411 3.63489 3.75064 0
M  V30 4476 H 433.105 2.2743 1.9472 0
M  V30 4477 H 430.651 1.09479 0.935437 0
M  V30 4478 H 432.604 1.08222 4.07266 0
M  V30 4479 H 431.328 0.139501 3.26302 0
M  V30 4480 H 429.987 2.2411 2.90121 0
M  V30 4481 H 429.635 0.859544 4.95602 0
M  V30 4482 H 429.335 2.58611 5.27631 0
M  V30 4483 H 430.859 1.832 5.82469 0
M  V30 4484 H 432.273 3.63034 4.43711 0
M  V30 4485 H 430.67 4.35771 4.12582 0
M  V30 4486 H 431.74 3.98536 2.76219 0
M  V30 4487 N 433.083 -1.0153 1.20538 0
M  V30 4488 C 434.013 -2.11972 0.979295 0
M  V30 4489 C 434.994 -1.6985 -0.0921787 0
M  V30 4490 O 436.179 -1.94089 0.0655932 0
M  V30 4491 C 433.309 -3.43201 0.531984 0
M  V30 4492 C 432.263 -3.9907 1.54685 0
M  V30 4493 C 431.589 -5.26082 0.956127 0
M  V30 4494 C 432.889 -4.32313 2.93092 0
M  V30 4495 H 434.583 -2.31143 1.90298 0
M  V30 4496 H 432.129 -1.11079 0.916372 0
M  V30 4497 H 434.082 -4.1985 0.361044 0
M  V30 4498 H 432.806 -3.23792 -0.427327 0
M  V30 4499 H 431.465 -3.2453 1.70517 0
M  V30 4500 H 431.113 -5.02999 -0.0111538 0
M  V30 4501 H 430.813 -5.64426 1.63393 0
M  V30 4502 H 432.337 -6.05386 0.796284 0
M  V30 4503 H 433.751 -4.99845 2.80763 0
M  V30 4504 H 432.148 -4.81774 3.57791 0
M  V30 4505 H 433.218 -3.41025 3.44717 0
M  V30 4506 N 434.561 -1.01147 -1.20859 0
M  V30 4507 C 435.524 -0.582224 -2.21682 0
M  V30 4508 C 436.524 0.344887 -1.57058 0
M  V30 4509 O 437.714 0.134281 -1.73682 0
M  V30 4510 C 434.846 0.150496 -3.40568 0
M  V30 4511 H 436.039 -1.47408 -2.61172 0
M  V30 4512 H 433.592 -0.800695 -1.34233 0
M  V30 4513 H 434.327 1.0575 -3.06574 0
M  V30 4514 H 434.112 -0.515444 -3.88697 0
M  V30 4515 H 435.602 0.438344 -4.15293 0
M  V30 4516 N 436.039 1.36541 -0.78704 0
M  V30 4517 C 436.949 2.3387 -0.184896 0
M  V30 4518 C 437.965 1.60927 0.661697 0
M  V30 4519 O 439.141 1.92927 0.57804 0
M  V30 4520 C 436.206 3.40122 0.672145 0
M  V30 4521 C 435.267 4.28867 -0.19267 0
M  V30 4522 C 434.5 5.30045 0.623561 0
M  V30 4523 O 434.723 5.39232 1.8597 0
M  V30 4524 O 433.657 6.01895 0.0247068 0
M  V30 4525 H 437.483 2.87126 -0.989562 0
M  V30 4526 H 435.068 1.38969 -0.548455 0
M  V30 4527 H 436.95 4.05093 1.16094 0
M  V30 4528 H 435.625 2.89169 1.45474 0
M  V30 4529 H 434.532 3.66945 -0.728166 0
M  V30 4530 H 435.865 4.83165 -0.938722 0
M  V30 4531 N 437.518 0.538854 1.48102 0
M  V30 4532 C 438.929 0.100679 1.86428 0
M  V30 4533 C 439.28 -1.32447 1.44749 0
M  V30 4534 O 438.405 -1.99339 0.842199 0
M  V30 4535 C 439 0.175933 3.38343 0
M  V30 4536 C 437.559 -0.207098 3.7583 0
M  V30 4537 C 436.706 0.531741 2.72154 0
M  V30 4538 H 439.657 0.749614 1.3988 0
M  V30 4539 H 439.678 -0.610144 3.75576 0
M  V30 4540 H 439.19 1.21328 3.68648 0
M  V30 4541 H 437.291 -1.24626 3.5114 0
M  V30 4542 H 437.404 0.138687 4.78899 0
M  V30 4543 H 435.768 -0.0230462 2.5469 0
M  V30 4544 H 436.551 1.56989 3.05302 0
M  V30 4545 N 438.996 -1.55193 0.274407 0
M  V30 4546 C 439.928 -2.1989 -0.646595 0
M  V30 4547 C 440.941 -1.1834 -1.11801 0
M  V30 4548 O 442.13 -1.4507 -1.04004 0
M  V30 4549 C 439.23 -2.8104 -1.89393 0
M  V30 4550 C 438.403 -4.08274 -1.56943 0
M  V30 4551 C 437.462 -4.53478 -2.66916 0
M  V30 4552 O 436.488 -5.19267 -2.33132 0
M  V30 4553 N 437.69 -4.2356 -3.9696 0
M  V30 4554 H 440.455 -2.99556 -0.0928686 0
M  V30 4555 H 438.016 -1.61618 0.0954783 0
M  V30 4556 H 440.008 -3.08226 -2.62257 0
M  V30 4557 H 438.578 -2.05372 -2.35672 0
M  V30 4558 H 437.798 -3.88384 -0.674655 0
M  V30 4559 H 439.086 -4.91173 -1.32764 0
M  V30 4560 H 438.484 -3.70799 -4.27229 0
M  V30 4561 H 437.041 -4.55518 -4.66205 0
M  V30 4562 N 440.474 -0.00167713 -1.576 0
M  V30 4563 C 441.384 1.00548 -2.1196 0
M  V30 4564 C 442.4 1.3758 -1.06526 0
M  V30 4565 O 443.576 1.46278 -1.38436 0
M  V30 4566 C 440.641 2.27809 -2.6135 0
M  V30 4567 C 439.702 1.97074 -3.81393 0
M  V30 4568 C 438.935 3.18267 -4.28417 0
M  V30 4569 O 439.158 4.30009 -3.74765 0
M  V30 4570 O 438.092 3.02167 -5.20556 0
M  V30 4571 H 441.918 0.573373 -2.98238 0
M  V30 4572 H 439.503 0.217255 -1.47812 0
M  V30 4573 H 441.385 3.02568 -2.93309 0
M  V30 4574 H 440.06 2.70254 -1.78169 0
M  V30 4575 H 438.967 1.19785 -3.54404 0
M  V30 4576 H 440.3 1.59464 -4.65652 0
M  V30 4577 N 441.952 1.55251 0.271103 0
M  V30 4578 C 443.199 1.75946 1.00245 0
M  V30 4579 C 443.527 0.561611 1.86215 0
M  V30 4580 O 442.782 -0.455832 1.90317 0
M  V30 4581 C 443.081 3.01879 1.91321 0
M  V30 4582 C 442.747 4.34337 1.21086 0
M  V30 4583 C 441.409 4.70338 1.01666 0
M  V30 4584 C 443.761 5.16325 0.71119 0
M  V30 4585 C 441.089 5.8588 0.310099 0
M  V30 4586 C 443.441 6.32597 0.0182157 0
M  V30 4587 C 442.105 6.67236 -0.18768 0
M  V30 4588 H 441.375 0.643833 0.366824 0
M  V30 4589 H 444.022 1.89521 0.27458 0
M  V30 4590 H 442.327 2.83212 2.70736 0
M  V30 4591 H 444.024 3.15088 2.48033 0
M  V30 4592 H 440.614 4.06043 1.37213 0
M  V30 4593 H 444.798 4.88987 0.848844 0
M  V30 4594 H 440.054 6.1124 0.139873 0
M  V30 4595 H 444.228 6.9538 -0.376711 0
M  V30 4596 H 441.855 7.56618 -0.73715 0
M  V30 4597 N 443.43 -0.535701 1.48216 0
M  V30 4598 C 444.676 -1.2913 1.57153 0
M  V30 4599 C 445.031 -1.90899 0.239823 0
M  V30 4600 O 444.324 -1.76022 -0.756748 0
M  V30 4601 C 444.518 -2.4068 2.64212 0
M  V30 4602 C 444.347 -1.89844 4.07663 0
M  V30 4603 C 443.117 -1.72708 4.74869 0
M  V30 4604 C 445.315 -1.43031 4.94011 0
M  V30 4605 N 443.297 -1.16437 6.02757 0
M  V30 4606 C 444.668 -0.986691 6.12098 0
M  V30 4607 C 446.723 -1.3128 4.80281 0
M  V30 4608 C 445.426 -0.437231 7.1797 0
M  V30 4609 C 447.452 -0.777346 5.86269 0
M  V30 4610 C 446.814 -0.343774 7.03561 0
M  V30 4611 H 442.913 -0.463753 0.629648 0
M  V30 4612 H 445.497 -0.604736 1.8507 0
M  V30 4613 H 443.668 -3.06839 2.38126 0
M  V30 4614 H 445.4 -3.07706 2.62867 0
M  V30 4615 H 442.155 -1.96061 4.31111 0
M  V30 4616 H 442.579 -0.903281 6.70947 0
M  V30 4617 H 447.221 -1.63408 3.89946 0
M  V30 4618 H 444.939 -0.103621 8.08034 0
M  V30 4619 H 448.525 -0.689688 5.77698 0
M  V30 4620 H 447.405 0.0641219 7.84174 0
M  V30 4621 N 444.908 -1.36708 -0.784132 0
M  V30 4622 C 446.154 -1.31426 -1.54451 0
M  V30 4623 C 446.487 0.10476 -1.93917 0
M  V30 4624 O 445.762 1.05934 -1.6312 0
M  V30 4625 C 446.045 -2.24189 -2.818 0
M  V30 4626 C 445.898 -3.74813 -2.48667 0
M  V30 4627 C 447.217 -2.15626 -3.83658 0
M  V30 4628 H 444.336 -0.478739 -0.560337 0
M  V30 4629 H 446.978 -1.67305 -0.900498 0
M  V30 4630 H 445.128 -1.93722 -3.36755 0
M  V30 4631 H 446.8 -4.15823 -1.99722 0
M  V30 4632 H 445.043 -3.93989 -1.81535 0
M  V30 4633 H 445.714 -4.35138 -3.39646 0
M  V30 4634 H 448.19 -2.42456 -3.38163 0
M  V30 4635 H 447.066 -2.82694 -4.70506 0
M  V30 4636 H 447.327 -1.14522 -4.27009 0
M  V30 4637 N 446.386 1.0089 -1.21074 0
M  V30 4638 C 447.663 1.71834 -0.934469 0
M  V30 4639 C 448.043 2.0368 0.554753 0
M  V30 4640 O 447.391 1.70742 1.51854 0
M  V30 4641 C 447.601 2.98061 -1.8155 0
M  V30 4642 C 448.949 3.7117 -2.06199 0
M  V30 4643 O 449.973 3.08034 -1.78867 0
M  V30 4644 O 448.832 4.84721 -2.52404 0
M  V30 4645 H 445.926 0.749253 -0.35007 0
M  V30 4646 H 448.472 1.06668 -1.31985 0
M  V30 4647 H 447.244 2.70908 -2.82355 0
M  V30 4648 H 446.867 3.70968 -1.43068 0
M  V30 4649 N 447.864 1.01787 1.20321 0
M  V30 4650 C 448.812 0.58254 2.25187 0
M  V30 4651 C 449.806 -0.379359 1.65098 0
M  V30 4652 O 451.012 -0.249142 1.78267 0
M  V30 4653 H 447.387 0.170078 0.732514 0
M  V30 4654 H 449.358 1.47788 2.59232 0
M  V30 4655 C 448.107 -0.0620885 3.47645 0
M  V30 4656 H 447.43 0.669069 3.94162 0
M  V30 4657 H 448.87 -0.329784 4.22716 0
M  V30 4658 C 447.329 -1.3053 3.10586 0
M  V30 4659 O 447.859 -2.39848 3.22236 0
M  V30 4660 N 446.065 -1.18988 2.65123 0
M  V30 4661 H 445.612 -0.300341 2.55843 0
M  V30 4662 H 445.57 -2.02267 2.40698 0
M  V30 4663 N 449.342 -1.36122 0.79427 0
M  V30 4664 C 450.567 -2.03891 0.379871 0
M  V30 4665 C 450.992 -1.59488 -0.997251 0
M  V30 4666 O 450.35 -0.765652 -1.64339 0
M  V30 4667 C 450.398 -3.57687 0.457442 0
M  V30 4668 O 449.502 -4.08931 -0.5338 0
M  V30 4669 H 448.843 -0.6443 0.160541 0
M  V30 4670 H 451.373 -1.73976 1.07673 0
M  V30 4671 H 451.383 -4.06721 0.322792 0
M  V30 4672 H 450.058 -3.89357 1.46199 0
M  V30 4673 H 448.635 -3.71154 -0.360409 0
M  V30 4674 N 450.82 -0.546701 -1.47814 0
M  V30 4675 C 452.048 -0.0232857 -2.06887 0
M  V30 4676 C 452.463 1.26571 -1.4009 0
M  V30 4677 O 451.82 1.7569 -0.493906 0
M  V30 4678 C 451.871 0.186975 -3.61016 0
M  V30 4679 O 451.592 -1.05097 -4.25307 0
M  V30 4680 C 453.093 0.748872 -4.36929 0
M  V30 4681 H 450.313 -0.0410763 -0.669742 0
M  V30 4682 H 452.857 -0.757117 -1.89968 0
M  V30 4683 H 451.012 0.870903 -3.77484 0
M  V30 4684 H 451.426 -0.842121 -5.17695 0
M  V30 4685 H 452.9 0.845334 -5.45489 0
M  V30 4686 H 453.377 1.75772 -4.02493 0
M  V30 4687 H 453.983 0.100979 -4.2518 0
M  V30 4688 N 452.299 1.55045 -0.282633 0
M  V30 4689 C 453.524 2.04628 0.337977 0
M  V30 4690 C 453.949 1.15937 1.48123 0
M  V30 4691 O 453.307 0.159532 1.80597 0
M  V30 4692 C 453.355 3.51854 0.78936 0
M  V30 4693 O 452.459 3.66236 1.89592 0
M  V30 4694 H 451.8 0.660434 0.0687261 0
M  V30 4695 H 454.33 2.00261 -0.419124 0
M  V30 4696 H 454.34 3.93361 1.08311 0
M  V30 4697 H 453.015 4.15873 -0.0470419 0
M  V30 4698 H 451.592 3.36633 1.60413 0
M  V30 4699 N 453.777 0.010035 1.57597 0
M  V30 4700 C 455.023 -0.673697 1.91283 0
M  V30 4701 C 455.356 -1.72863 0.884979 0
M  V30 4702 O 454.631 -1.94268 -0.0949487 0
M  V30 4703 C 454.914 -1.30766 3.35518 0
M  V30 4704 C 454.767 -0.263578 4.49027 0
M  V30 4705 C 456.086 -2.23105 3.79358 0
M  V30 4706 H 453.205 -0.243439 0.695634 0
M  V30 4707 H 455.847 0.0633864 1.89894 0
M  V30 4708 H 453.997 -1.93588 3.36832 0
M  V30 4709 H 455.669 0.365738 4.59848 0
M  V30 4710 H 453.912 0.413077 4.31829 0
M  V30 4711 H 454.583 -0.746398 5.4693 0
M  V30 4712 H 457.059 -1.70289 3.79659 0
M  V30 4713 H 455.935 -2.64424 4.81011 0
M  V30 4714 H 456.196 -3.11433 3.13787 0
M  V30 4715 N 455.255 -1.55392 -0.262866 0
M  V30 4716 C 456.48 -1.80847 -1.01533 0
M  V30 4717 C 456.905 -0.584946 -1.78774 0
M  V30 4718 O 456.263 0.465701 -1.75217 0
M  V30 4719 C 456.311 -3.03866 -1.94159 0
M  V30 4720 O 455.415 -2.79662 -3.03089 0
M  V30 4721 H 454.756 -0.597441 -0.289759 0
M  V30 4722 H 457.286 -2.02553 -0.288698 0
M  V30 4723 H 457.296 -3.32872 -2.35924 0
M  V30 4724 H 455.971 -3.92564 -1.37354 0
M  V30 4725 H 454.548 -2.61781 -2.65566 0
M  V30 4726 N 456.733 0.527833 -1.48498 0
M  V30 4727 C 457.979 1.28545 -1.56857 0
M  V30 4728 C 458.312 1.92678 -0.242651 0
M  V30 4729 O 457.587 1.79394 0.751545 0
M  V30 4730 C 457.87 2.37314 -2.70839 0
M  V30 4731 C 457.723 1.77858 -4.13142 0
M  V30 4732 C 459.042 3.39068 -2.80573 0
M  V30 4733 H 456.161 0.466006 -0.570971 0
M  V30 4734 H 458.803 0.587784 -1.8068 0
M  V30 4735 H 456.953 2.96821 -2.50658 0
M  V30 4736 H 458.625 1.22385 -4.44769 0
M  V30 4737 H 456.868 1.08383 -4.20042 0
M  V30 4738 H 457.539 2.56624 -4.88721 0
M  V30 4739 H 460.015 2.89518 -2.98862 0
M  V30 4740 H 458.891 4.12566 -3.6205 0
M  V30 4741 H 459.152 3.9975 -1.88818 0
M  V30 4742 N 458.211 1.37122 0.776871 0
M  V30 4743 C 459.622 1.28667 1.35284 0
M  V30 4744 C 459.973 -0.0680035 1.96082 0
M  V30 4745 O 459.098 -0.969743 1.93455 0
M  V30 4746 C 459.693 2.32997 2.45963 0
M  V30 4747 C 458.252 2.28191 2.99342 0
M  V30 4748 C 457.399 2.17101 1.72517 0
M  V30 4749 H 460.35 1.47819 0.577527 0
M  V30 4750 H 460.371 1.97366 3.2531 0
M  V30 4751 H 459.883 3.3158 2.01684 0
M  V30 4752 H 457.984 1.33115 3.4801 0
M  V30 4753 H 458.097 3.21397 3.55304 0
M  V30 4754 H 456.461 1.63562 1.95242 0
M  V30 4755 H 457.244 3.17591 1.30348 0
M  V30 4756 N 459.689 -1.00246 1.21608 0
M  V30 4757 C 460.622 -2.08794 0.920892 0
M  V30 4758 C 461.6 -1.62059 -0.132552 0
M  V30 4759 O 462.784 -1.885 -0.0030366 0
M  V30 4760 C 459.911 -3.36525 0.383226 0
M  V30 4761 C 458.957 -4.02172 1.41987 0
M  V30 4762 S 459.79 -4.44256 2.98994 0
M  V30 4763 C 460.946 -5.7517 2.4684 0
M  V30 4764 H 461.179 -2.33511 1.8401 0
M  V30 4765 H 458.712 -1.13562 1.04609 0
M  V30 4766 H 460.67 -4.10423 0.0795871 0
M  V30 4767 H 459.331 -3.09854 -0.514711 0
M  V30 4768 H 458.524 -4.94114 0.993335 0
M  V30 4769 H 458.126 -3.34559 1.67171 0
M  V30 4770 H 460.418 -6.51042 1.87484 0
M  V30 4771 H 461.361 -6.22638 3.37235 0
M  V30 4772 H 461.769 -5.32112 1.88461 0
M  V30 4773 N 461.167 -1.02423 -1.1978 0
M  V30 4774 C 462.097 -0.62157 -2.25075 0
M  V30 4775 C 463.078 0.367148 -1.6609 0
M  V30 4776 O 464.263 0.250892 -1.92573 0
M  V30 4777 C 461.393 0.0331826 -3.47284 0
M  V30 4778 C 460.347 -0.877323 -4.18912 0
M  V30 4779 C 459.673 -0.0879296 -5.34628 0
M  V30 4780 C 460.973 -2.18892 -4.74219 0
M  V30 4781 H 462.667 -1.50179 -2.59011 0
M  V30 4782 H 460.213 -0.723547 -1.24502 0
M  V30 4783 H 462.166 0.326488 -4.20133 0
M  V30 4784 H 460.89 0.948164 -3.12534 0
M  V30 4785 H 459.549 -1.15475 -3.47938 0
M  V30 4786 H 459.197 0.828941 -4.96123 0
M  V30 4787 H 458.897 -0.694359 -5.83483 0
M  V30 4788 H 460.421 0.198743 -6.10276 0
M  V30 4789 H 461.835 -1.95746 -5.38847 0
M  V30 4790 H 460.232 -2.74686 -5.33542 0
M  V30 4791 H 461.302 -2.84674 -3.92541 0
M  V30 4792 N 462.645 1.35699 -0.801477 0
M  V30 4793 C 463.87 2.03687 -0.390678 0
M  V30 4794 C 464.295 1.60015 0.988778 0
M  V30 4795 O 463.653 0.774357 1.63931 0
M  V30 4796 C 463.701 3.57439 -0.476404 0
M  V30 4797 O 462.805 4.09208 0.512106 0
M  V30 4798 H 462.146 0.64344 -0.163956 0
M  V30 4799 H 464.676 1.73403 -1.08594 0
M  V30 4800 H 464.686 4.06544 -0.344357 0
M  V30 4801 H 463.361 3.88576 -1.48262 0
M  V30 4802 H 461.938 3.7134 0.340721 0
M  V30 4803 N 464.123 0.554532 1.47522 0
M  V30 4804 C 465.371 0.0294208 2.02079 0
M  V30 4805 C 465.692 -1.32411 1.43151 0
M  V30 4806 O 464.962 -1.863 0.605728 0
M  V30 4807 H 463.542 0.00788672 0.746958 0
M  V30 4808 H 466.204 0.723934 1.80956 0
M  V30 4809 H 465.3 -0.0606745 3.12041 0
M  V30 4810 N 465.601 -1.54893 0.290851 0
M  V30 4811 C 466.534 -2.19289 -0.631489 0
M  V30 4812 C 467.512 -1.15893 -1.14051 0
M  V30 4813 O 468.696 -1.4449 -1.21058 0
M  V30 4814 C 465.823 -2.82866 -1.86291 0
M  V30 4815 C 464.869 -3.997 -1.48801 0
M  V30 4816 S 465.702 -5.32641 -0.552644 0
M  V30 4817 C 466.858 -5.99696 -1.79209 0
M  V30 4818 H 467.091 -2.9718 -0.0843791 0
M  V30 4819 H 464.624 -1.54218 0.075031 0
M  V30 4820 H 466.582 -3.20124 -2.56964 0
M  V30 4821 H 465.243 -2.04839 -2.38117 0
M  V30 4822 H 464.436 -4.42932 -2.40473 0
M  V30 4823 H 464.038 -3.63947 -0.861321 0
M  V30 4824 H 466.33 -6.19886 -2.734 0
M  V30 4825 H 467.273 -6.94071 -1.40251 0
M  V30 4826 H 467.681 -5.29226 -1.96419 0
M  V30 4827 N 467.08 -0.0183926 -1.57589 0
M  V30 4828 C 468.328 0.661253 -1.90976 0
M  V30 4829 C 468.649 1.73281 -0.894353 0
M  V30 4830 O 467.919 1.9579 0.0656788 0
M  V30 4831 H 466.499 0.247233 -0.704901 0
M  V30 4832 H 469.161 -0.0636639 -1.94796 0
M  V30 4833 H 468.257 1.12083 -2.9128 0
M  V30 4834 N 468.558 1.5553 0.254621 0
M  V30 4835 C 469.786 1.81046 1.00149 0
M  V30 4836 C 470.201 0.593047 1.79244 0
M  V30 4837 O 469.558 -0.438196 1.77161 0
M  V30 4838 C 469.609 3.04684 1.94551 0
M  V30 4839 O 469.33 4.21725 1.18658 0
M  V30 4840 C 470.831 3.42943 2.80901 0
M  V30 4841 H 468.051 0.602653 0.295044 0
M  V30 4842 H 470.595 2.02576 0.279842 0
M  V30 4843 H 468.75 2.85226 2.62154 0
M  V30 4844 H 469.164 4.91746 1.82445 0
M  V30 4845 H 470.638 4.32576 3.42902 0
M  V30 4846 H 471.115 2.63176 3.51617 0
M  V30 4847 H 471.721 3.64724 2.18762 0
M  V30 4848 N 470.036 -0.519951 1.48776 0
M  V30 4849 C 471.283 -1.27522 1.57303 0
M  V30 4850 C 471.611 -1.92869 0.251328 0
M  V30 4851 O 470.866 -1.80372 -0.759243 0
M  V30 4852 C 471.165 -2.37864 2.6675 0
M  V30 4853 C 470.831 -1.90103 4.08867 0
M  V30 4854 C 469.493 -1.76795 4.47546 0
M  V30 4855 C 471.845 -1.54133 4.97888 0
M  V30 4856 C 469.173 -1.25868 5.73039 0
M  V30 4857 C 471.525 -1.04665 6.23881 0
M  V30 4858 C 470.189 -0.899823 6.61407 0
M  V30 4859 H 469.459 -0.466636 0.575614 0
M  V30 4860 H 472.106 -0.579109 1.82534 0
M  V30 4861 H 470.411 -3.13186 2.35418 0
M  V30 4862 H 472.108 -2.95969 2.70561 0
M  V30 4863 H 468.698 -2.01414 3.78326 0
M  V30 4864 H 472.882 -1.6327 4.68675 0
M  V30 4865 H 468.138 -1.13196 6.0083 0
M  V30 4866 H 472.312 -0.759074 6.92251 0
M  V30 4867 H 469.939 -0.503011 7.58534 0
M  V30 4868 N 471.514 -1.37532 -0.769588 0
M  V30 4869 C 472.446 -1.29347 -1.89214 0
M  V30 4870 C 473.459 -0.208842 -1.61455 0
M  V30 4871 O 474.648 -0.465158 -1.72333 0
M  V30 4872 C 471.748 -0.977649 -3.24492 0
M  V30 4873 C 470.921 -2.16817 -3.7988 0
M  V30 4874 C 469.98 -1.82229 -4.93639 0
M  V30 4875 O 469.006 -2.54548 -5.09111 0
M  V30 4876 N 470.208 -0.767696 -5.75401 0
M  V30 4877 H 472.973 -2.26073 -1.96751 0
M  V30 4878 H 470.534 -1.31185 -0.948795 0
M  V30 4879 H 472.526 -0.727065 -3.98115 0
M  V30 4880 H 471.096 -0.0988777 -3.12444 0
M  V30 4881 H 470.316 -2.58038 -2.9801 0
M  V30 4882 H 471.604 -2.96308 -4.13617 0
M  V30 4883 H 471.002 -0.167626 -5.65452 0
M  V30 4884 H 469.559 -0.576973 -6.49241 0
M  V30 4885 N 472.992 0.995999 -1.22138 0
M  V30 4886 C 473.942 2.06988 -0.956042 0
M  V30 4887 C 474.926 1.60636 0.0921576 0
M  V30 4888 O 476.118 1.76607 -0.117958 0
M  V30 4889 C 473.247 3.39148 -0.532335 0
M  V30 4890 C 472.333 3.92142 -1.61509 0
M  V30 4891 N 472.724 4.18397 -2.84214 0
M  V30 4892 C 471.022 4.20514 -1.48606 0
M  V30 4893 C 471.723 4.61425 -3.54206 0
M  V30 4894 N 470.699 4.64934 -2.81669 0
M  V30 4895 H 474.501 2.25223 -1.88816 0
M  V30 4896 H 472.015 1.17748 -1.11845 0
M  V30 4897 H 474.012 4.15642 -0.323574 0
M  V30 4898 H 472.672 3.22314 0.392921 0
M  V30 4899 H 473.683 4.06682 -3.20671 0
M  V30 4900 H 470.36 4.12769 -0.626762 0
M  V30 4901 H 471.75 4.90387 -4.59315 0
M  V30 4902 N 474.47 1.03057 1.19235 0
M  V30 4903 C 475.716 0.738841 1.89506 0
M  V30 4904 C 476.071 -0.724807 1.78225 0
M  V30 4905 O 475.364 -1.52118 1.16494 0
M  V30 4906 C 475.558 1.1268 3.39172 0
M  V30 4907 C 475.387 2.62662 3.65019 0
M  V30 4908 C 474.157 3.29658 3.82954 0
M  V30 4909 C 476.355 3.60873 3.66436 0
M  V30 4910 N 474.337 4.68726 3.96446 0
M  V30 4911 C 475.708 4.85566 3.8552 0
M  V30 4912 C 477.763 3.54647 3.49471 0
M  V30 4913 C 476.466 6.04783 3.89397 0
M  V30 4914 C 478.492 4.73281 3.54625 0
M  V30 4915 C 477.854 5.96789 3.74196 0
M  V30 4916 H 473.953 0.322256 0.712513 0
M  V30 4917 H 476.537 1.31822 1.43287 0
M  V30 4918 H 474.708 0.575612 3.84111 0
M  V30 4919 H 476.44 0.787145 3.96971 0
M  V30 4920 H 473.195 2.8007 3.81913 0
M  V30 4921 H 473.619 5.40971 4.07037 0
M  V30 4922 H 478.261 2.60143 3.33295 0
M  V30 4923 H 475.979 6.99654 4.04364 0
M  V30 4924 H 479.565 4.70094 3.42787 0
M  V30 4925 H 478.445 6.87051 3.78061 0
M  V30 4926 N 475.948 -1.35272 0.808662 0
M  V30 4927 C 477.173 -2.03477 0.401475 0
M  V30 4928 C 477.598 -1.60537 -0.980279 0
M  V30 4929 O 476.956 -0.78304 -1.63518 0
M  V30 4930 C 477.004 -3.57181 0.495354 0
M  V30 4931 O 476.108 -4.09474 -0.490397 0
M  V30 4932 H 475.449 -0.642561 0.167366 0
M  V30 4933 H 477.979 -1.72824 1.09512 0
M  V30 4934 H 477.989 -4.06356 0.365912 0
M  V30 4935 H 476.664 -3.87784 1.5032 0
M  V30 4936 H 475.241 -3.71516 -0.321023 0
M  V30 4937 N 477.426 -0.562348 -1.47226 0
M  V30 4938 C 478.703 0.0256985 -1.95583 0
M  V30 4939 C 479.083 1.48032 -1.50498 0
M  V30 4940 O 478.431 2.15973 -0.746181 0
M  V30 4941 C 478.641 -0.125129 -3.48776 0
M  V30 4942 C 479.989 0.0175728 -4.24596 0
M  V30 4943 O 481.013 -0.0529341 -3.56161 0
M  V30 4944 O 479.872 0.170145 -5.46235 0
M  V30 4945 H 476.966 0.0612565 -0.824728 0
M  V30 4946 H 479.512 -0.629233 -1.57603 0
M  V30 4947 H 478.284 -1.13715 -3.74412 0
M  V30 4948 H 477.907 0.567178 -3.93534 0
M  V30 4949 N 478.904 1.54736 -0.299062 0
M  V30 4950 C 480.153 1.99279 0.311549 0
M  V30 4951 C 480.466 1.19107 1.55154 0
M  V30 4952 O 481.672 1.53908 2.23662 0
M  V30 4953 C 480.128 3.54768 0.605632 0
M  V30 4954 C 479.736 4.43746 -0.615914 0
M  V30 4955 C 481.48 4.07841 1.17754 0
M  V30 4956 C 479.387 5.90663 -0.29509 0
M  V30 4957 H 478.317 0.744359 0.120187 0
M  V30 4958 H 480.968 1.78919 -0.407464 0
M  V30 4959 H 479.35 3.71021 1.38419 0
M  V30 4960 H 480.524 4.39267 -1.39218 0
M  V30 4961 H 478.839 4.01434 -1.10633 0
M  V30 4962 H 481.436 5.15174 1.43179 0
M  V30 4963 H 481.779 3.58324 2.11918 0
M  V30 4964 H 482.312 3.95123 0.460739 0
M  V30 4965 H 479.051 6.44325 -1.20524 0
M  V30 4966 H 478.571 5.98155 0.44394 0
M  V30 4967 H 480.25 6.46916 0.104048 0
M  V30 4968 N 480.382 0.0267497 1.57577 0
M  V30 4969 C 481.314 -0.984594 2.06974 0
M  V30 4970 C 482.327 -1.29032 0.992705 0
M  V30 4971 O 483.516 -1.25539 1.26895 0
M  V30 4972 C 480.616 -2.31262 2.47732 0
M  V30 4973 C 479.789 -2.1924 3.78487 0
M  V30 4974 C 478.848 -3.34956 4.05821 0
M  V30 4975 O 477.874 -3.11948 4.76106 0
M  V30 4976 N 479.076 -4.58672 3.55809 0
M  V30 4977 H 481.841 -0.563143 2.94362 0
M  V30 4978 H 479.402 -0.160061 1.61107 0
M  V30 4979 H 481.394 -3.07496 2.63112 0
M  V30 4980 H 479.964 -2.65056 1.65723 0
M  V30 4981 H 479.184 -1.27747 3.72927 0
M  V30 4982 H 480.472 -2.08409 4.64158 0
M  V30 4983 H 479.87 -4.8026 2.98942 0
M  V30 4984 H 478.427 -5.32083 3.76472 0
M  V30 4985 N 481.861 -1.55662 -0.24637 0
M  V30 4986 C 483.138 -1.68272 -0.997198 0
M  V30 4987 C 483.518 -0.566785 -2.03349 0
M  V30 4988 O 482.866 0.429688 -2.24424 0
M  V30 4989 C 483.076 -3.08594 -1.63006 0
M  V30 4990 C 484.424 -3.6721 -2.13171 0
M  V30 4991 O 485.448 -3.11397 -1.72946 0
M  V30 4992 O 484.307 -4.65054 -2.87031 0
M  V30 4993 H 481.401 -0.684429 -0.464205 0
M  V30 4994 H 483.947 -1.67993 -0.240114 0
M  V30 4995 H 482.719 -3.81264 -0.880527 0
M  V30 4996 H 482.342 -3.12886 -2.45333 0
M  V30 4997 N 483.339 0.512053 -1.4905 0
M  V30 4998 C 484.287 1.63568 -1.65373 0
M  V30 4999 C 485.281 1.61228 -0.519806 0
M  V30 5000 O 486.487 1.65869 -0.699101 0
M  V30 5001 H 482.862 0.542019 -0.521267 0
M  V30 5002 H 484.833 1.4695 -2.59708 0
M  V30 5003 C 483.582 3.01761 -1.7273 0
M  V30 5004 H 482.905 3.04263 -2.59353 0
M  V30 5005 H 484.345 3.79948 -1.8819 0
M  V30 5006 C 482.804 3.33609 -0.46973 0
M  V30 5007 O 483.334 3.99607 0.409492 0
M  V30 5008 N 481.54 2.88651 -0.336003 0
M  V30 5009 H 481.087 2.35119 -1.05247 0
M  V30 5010 H 481.045 3.10328 0.504363 0
M  V30 5011 N 484.817 1.37938 0.762283 0
M  V30 5012 C 486.064 1.33668 1.52115 0
M  V30 5013 C 486.392 -0.0759538 1.94352 0
M  V30 5014 O 485.647 -1.05121 1.6507 0
M  V30 5015 C 485.946 2.23042 2.79261 0
M  V30 5016 C 485.612 3.71159 2.56031 0
M  V30 5017 C 484.274 4.11523 2.49404 0
M  V30 5018 C 486.626 4.64955 2.35513 0
M  V30 5019 C 483.954 5.43784 2.20263 0
M  V30 5020 C 486.306 5.97464 2.07894 0
M  V30 5021 C 484.97 6.36922 1.99718 0
M  V30 5022 H 484.24 0.489127 0.556629 0
M  V30 5023 H 486.887 1.70224 0.877262 0
M  V30 5024 H 485.192 1.79512 3.48256 0
M  V30 5025 H 486.889 2.17047 3.37182 0
M  V30 5026 H 483.479 3.39153 2.62056 0
M  V30 5027 H 487.663 4.34623 2.39617 0
M  V30 5028 H 482.919 5.73307 2.12435 0
M  V30 5029 H 487.093 6.6969 1.91019 0
M  V30 5030 H 484.72 7.39331 1.76902 0
M  V30 5031 N 486.295 -0.989507 1.22664 0
M  V30 5032 C 487.52 -1.77031 1.08051 0
M  V30 5033 C 487.945 -1.84535 -0.364483 0
M  V30 5034 O 487.303 -1.3003 -1.2634 0
M  V30 5035 C 487.351 -3.18 1.70024 0
M  V30 5036 O 486.455 -4.01161 0.956216 0
M  V30 5037 H 485.796 -0.545008 0.379292 0
M  V30 5038 H 488.326 -1.24277 1.62531 0
M  V30 5039 H 488.336 -3.68616 1.74888 0
M  V30 5040 H 487.011 -3.11853 2.75174 0
M  V30 5041 H 485.588 -3.59687 0.98384 0
M  V30 5042 N 487.773 -1.03688 -1.18687 0
M  V30 5043 C 489.019 -0.739123 -1.88851 0
M  V30 5044 C 489.352 0.731042 -1.79915 0
M  V30 5045 O 488.627 1.53313 -1.19688 0
M  V30 5046 C 488.91 -1.20106 -3.3948 0
M  V30 5047 C 488.763 -2.73304 -3.57246 0
M  V30 5048 C 490.082 -0.788134 -4.32986 0
M  V30 5049 H 487.201 -0.269978 -0.68577 0
M  V30 5050 H 489.843 -1.28822 -1.3966 0
M  V30 5051 H 487.993 -0.733915 -3.81505 0
M  V30 5052 H 489.665 -3.28027 -3.24339 0
M  V30 5053 H 487.908 -3.13313 -3.00029 0
M  V30 5054 H 488.579 -3.00684 -4.62918 0
M  V30 5055 H 491.055 -1.19005 -3.98719 0
M  V30 5056 H 489.931 -1.13915 -5.36949 0
M  V30 5057 H 490.192 0.308988 -4.41019 0
M  V30 5058 N 489.251 1.34841 -0.815825 0
M  V30 5059 C 490.479 2.0273 -0.413294 0
M  V30 5060 C 490.894 1.61459 0.978599 0
M  V30 5061 O 490.251 0.816584 1.63212 0
M  V30 5062 C 490.302 3.58058 -0.497676 0
M  V30 5063 O 490.023 3.97832 -1.8347 0
M  V30 5064 C 491.524 4.4321 -0.0891339 0
M  V30 5065 H 488.744 0.649956 -0.166728 0
M  V30 5066 H 491.288 1.72267 -1.10201 0
M  V30 5067 H 489.443 3.87136 0.142886 0
M  V30 5068 H 489.857 4.92501 -1.80396 0
M  V30 5069 H 491.331 5.5164 -0.199274 0
M  V30 5070 H 491.808 4.28432 0.966571 0
M  V30 5071 H 492.414 4.19446 -0.703214 0
M  V30 5072 N 490.729 0.570148 1.46925 0
M  V30 5073 C 491.661 -0.207909 2.28255 0
M  V30 5074 C 492.674 -0.867301 1.37774 0
M  V30 5075 O 493.863 -0.738976 1.62485 0
M  V30 5076 C 490.963 -1.31298 3.12433 0
M  V30 5077 C 490.136 -0.747915 4.30958 0
M  V30 5078 C 489.195 -1.7391 4.9663 0
M  V30 5079 O 488.221 -1.2801 5.54619 0
M  V30 5080 N 489.423 -3.07288 4.92498 0
M  V30 5081 H 492.188 0.489794 2.95671 0
M  V30 5082 H 489.749 0.407076 1.56699 0
M  V30 5083 H 491.741 -1.97507 3.53232 0
M  V30 5084 H 490.311 -1.91373 2.47175 0
M  V30 5085 H 489.531 0.0913066 3.94094 0
M  V30 5086 H 490.819 -0.349958 5.07595 0
M  V30 5087 H 490.217 -3.47213 4.46609 0
M  V30 5088 H 488.774 -3.69021 5.37277 0
M  V30 5089 N 492.207 -1.54576 0.307264 0
M  V30 5090 C 493.453 -2.0056 -0.300612 0
M  V30 5091 C 493.786 -1.1953 -1.53057 0
M  V30 5092 O 493.061 -0.27337 -1.92569 0
M  V30 5093 C 493.344 -3.54167 -0.650987 0
M  V30 5094 C 493.197 -4.45933 0.588539 0
M  V30 5095 C 494.516 -4.14645 -1.47506 0
M  V30 5096 H 491.635 -0.729075 -0.107788 0
M  V30 5097 H 494.277 -1.85286 0.420606 0
M  V30 5098 H 492.427 -3.67313 -1.26544 0
M  V30 5099 H 494.099 -4.44683 1.22697 0
M  V30 5100 H 492.342 -4.16274 1.22058 0
M  V30 5101 H 493.013 -5.51189 0.299153 0
M  V30 5102 H 495.489 -4.04973 -0.955821 0
M  V30 5103 H 494.365 -5.22269 -1.68899 0
M  V30 5104 H 494.626 -3.66921 -2.4662 0
M  V30 5105 N 493.685 -0.035106 -1.57561 0
M  V30 5106 C 495.096 0.502885 -1.798 0
M  V30 5107 C 495.447 1.71892 -0.945921 0
M  V30 5108 O 494.572 2.15822 -0.157991 0
M  V30 5109 C 495.167 0.919097 -3.26095 0
M  V30 5110 C 493.726 1.40216 -3.49308 0
M  V30 5111 C 492.873 0.369709 -2.74824 0
M  V30 5112 H 495.824 -0.261102 -1.56537 0
M  V30 5113 H 495.845 1.78308 -3.36135 0
M  V30 5114 H 495.357 0.0338526 -3.88085 0
M  V30 5115 H 493.458 2.30714 -2.92578 0
M  V30 5116 H 493.571 1.40541 -4.58023 0
M  V30 5117 H 491.935 0.839113 -2.40481 0
M  V30 5118 H 492.718 -0.507173 -3.39533 0
M  V30 5119 N 495.163 1.55791 0.238111 0
M  V30 5120 C 496.41 1.78033 0.964907 0
M  V30 5121 C 496.738 0.600984 1.84982 0
M  V30 5122 O 495.993 -0.41536 1.91241 0
M  V30 5123 C 496.292 3.05869 1.84875 0
M  V30 5124 C 495.958 4.36808 1.11846 0
M  V30 5125 C 494.62 4.72388 0.916662 0
M  V30 5126 C 496.972 5.17717 0.60151 0
M  V30 5127 C 494.3 5.86406 0.185756 0
M  V30 5128 C 496.652 6.32494 -0.115972 0
M  V30 5129 C 495.316 6.66688 -0.329168 0
M  V30 5130 H 494.586 0.651469 0.353085 0
M  V30 5131 H 497.233 1.90061 0.234318 0
M  V30 5132 H 495.538 2.88891 2.64668 0
M  V30 5133 H 497.235 3.20278 2.41294 0
M  V30 5134 H 493.825 4.08862 1.28569 0
M  V30 5135 H 498.009 4.90678 0.744932 0
M  V30 5136 H 493.265 6.11399 0.0101886 0
M  V30 5137 H 497.439 6.94425 -0.524127 0
M  V30 5138 H 495.066 7.54884 -0.897474 0
M  V30 5139 N 496.642 -0.504142 1.49319 0
M  V30 5140 C 497.87 -1.28256 1.62351 0
M  V30 5141 C 498.285 -1.86502 0.293682 0
M  V30 5142 O 497.642 -1.67678 -0.720449 0
M  V30 5143 C 497.693 -2.41507 2.68992 0
M  V30 5144 O 497.414 -1.85656 3.96817 0
M  V30 5145 C 498.915 -3.32929 2.927 0
M  V30 5146 H 496.135 -0.389115 0.546654 0
M  V30 5147 H 498.679 -0.605531 1.95329 0
M  V30 5148 H 496.834 -3.05046 2.38801 0
M  V30 5149 H 497.248 -2.59981 4.55533 0
M  V30 5150 H 498.722 -4.0868 3.71058 0
M  V30 5151 H 499.199 -3.89733 2.02496 0
M  V30 5152 H 499.805 -2.75158 3.24296 0
M  V30 5153 N 498.12 -1.38341 -0.754957 0
M  V30 5154 C 499.03 -1.3769 -1.89944 0
M  V30 5155 C 500.046 -0.274194 -1.71826 0
M  V30 5156 O 501.222 -0.512391 -1.94773 0
M  V30 5157 C 498.287 -1.19938 -3.25293 0
M  V30 5158 C 497.348 -2.40001 -3.55946 0
M  V30 5159 C 496.581 -2.23087 -4.84838 0
M  V30 5160 O 496.804 -1.22386 -5.57116 0
M  V30 5161 O 495.738 -3.11646 -5.14937 0
M  V30 5162 H 499.564 -2.3412 -1.93446 0
M  V30 5163 H 497.149 -1.19246 -0.900044 0
M  V30 5164 H 499.031 -1.12093 -4.06218 0
M  V30 5165 H 497.706 -0.265919 -3.22606 0
M  V30 5166 H 496.613 -2.53421 -2.75188 0
M  V30 5167 H 497.946 -3.31973 -3.63394 0
M  V30 5168 N 499.598 0.982988 -1.23187 0
M  V30 5169 C 500.823 1.76455 -1.08988 0
M  V30 5170 C 501.248 1.84726 0.354691 0
M  V30 5171 O 500.606 1.30699 1.25649 0
M  V30 5172 C 500.654 3.17094 -1.71708 0
M  V30 5173 O 499.758 4.00648 -0.977477 0
M  V30 5174 H 499.099 0.542988 -0.382177 0
M  V30 5175 H 501.629 1.23413 -1.63188 0
M  V30 5176 H 501.639 3.67684 -1.76841 0
M  V30 5177 H 500.314 3.10389 -2.76823 0
M  V30 5178 H 498.891 3.59161 -1.0029 0
M  V30 5179 N 501.076 1.04316 1.18135 0
M  V30 5180 C 502.039 0.640794 2.2006 0
M  V30 5181 C 503.039 -0.303124 1.57917 0
M  V30 5182 O 504.229 -0.0881855 1.73977 0
M  V30 5183 C 501.361 -0.060148 3.40847 0
M  V30 5184 H 502.554 1.54281 2.57172 0
M  V30 5185 H 500.107 0.836004 1.32063 0
M  V30 5186 H 500.842 -0.975845 3.0927 0
M  V30 5187 H 500.627 0.618319 3.87194 0
M  V30 5188 H 502.117 -0.328082 4.16309 0
M  V30 5189 N 502.554 -1.34406 0.822964 0
M  V30 5190 C 503.794 -2.00103 0.416915 0
M  V30 5191 C 504.158 -1.63826 -1.00125 0
M  V30 5192 O 505.359 -2.22367 -1.51018 0
M  V30 5193 C 503.63 -3.52101 0.613151 0
M  V30 5194 S 505.189 -4.37774 0.299956 0
M  V30 5195 H 502.007 -0.69333 0.157527 0
M  V30 5196 H 504.609 -1.63698 1.06879 0
M  V30 5197 H 503.313 -3.75991 1.64496 0
M  V30 5198 H 502.844 -3.93364 -0.0534554 0
M  V30 5199 H 504.859 -4.8822 -0.886336 0
M  V30 5200 N 504.032 -0.577932 -1.46621 0
M  V30 5201 C 504.962 0.145917 -2.33044 0
M  V30 5202 C 505.943 0.888412 -1.45056 0
M  V30 5203 O 507.128 0.864812 -1.73881 0
M  V30 5204 C 504.258 1.16322 -3.27241 0
M  V30 5205 C 503.212 0.535868 -4.24632 0
M  V30 5206 C 502.538 1.65929 -5.08303 0
M  V30 5207 C 503.838 -0.523861 -5.19666 0
M  V30 5208 H 505.532 -0.575636 -2.93814 0
M  V30 5209 H 503.078 -0.278272 -1.41286 0
M  V30 5210 H 505.031 1.67793 -3.86553 0
M  V30 5211 H 503.755 1.91498 -2.64567 0
M  V30 5212 H 502.414 0.0422759 -3.66576 0
M  V30 5213 H 502.062 2.40061 -4.42018 0
M  V30 5214 H 501.762 1.2452 -5.74255 0
M  V30 5215 H 503.286 2.17686 -5.70478 0
M  V30 5216 H 504.7 -0.0944059 -5.73222 0
M  V30 5217 H 503.097 -0.858 -5.93935 0
M  V30 5218 H 504.167 -1.41197 -4.63887 0
M  V30 5219 N 505.51 1.54411 -0.315457 0
M  V30 5220 C 506.44 2.27002 0.547039 0
M  V30 5221 C 507.421 1.27492 1.12605 0
M  V30 5222 O 508.606 1.5629 1.15269 0
M  V30 5223 C 505.736 3.02171 1.71201 0
M  V30 5224 C 504.69 4.0895 1.26268 0
M  V30 5225 C 504.016 4.71915 2.51396 0
M  V30 5226 C 505.316 5.20891 0.383419 0
M  V30 5227 H 507.01 2.99343 -0.0584517 0
M  V30 5228 H 504.556 1.4397 -0.0295527 0
M  V30 5229 H 506.509 3.51681 2.32161 0
M  V30 5230 H 505.233 2.27433 2.34397 0
M  V30 5231 H 503.892 3.60312 0.676062 0
M  V30 5232 H 503.54 3.93801 3.12937 0
M  V30 5233 H 503.24 5.44039 2.22026 0
M  V30 5234 H 504.764 5.24195 3.13133 0
M  V30 5235 H 506.178 5.66206 0.899082 0
M  V30 5236 H 504.575 5.99821 0.182857 0
M  V30 5237 H 505.645 4.81324 -0.587821 0
M  V30 5238 N 506.988 0.0434614 1.5754 0
M  V30 5239 C 507.918 -0.931651 2.14109 0
M  V30 5240 C 508.899 -1.32971 1.06079 0
M  V30 5241 O 510.084 -1.40579 1.33982 0
M  V30 5242 C 507.214 -2.20914 2.67982 0
M  V30 5243 C 506.168 -1.95139 3.80926 0
M  V30 5244 C 505.494 -3.29276 4.21285 0
M  V30 5245 C 506.794 -1.27913 5.06395 0
M  V30 5246 H 508.488 -0.460497 2.95837 0
M  V30 5247 H 506.034 -0.220058 1.42309 0
M  V30 5248 H 507.987 -2.89522 3.06194 0
M  V30 5249 H 506.711 -2.70221 1.83434 0
M  V30 5250 H 505.37 -1.28945 3.43175 0
M  V30 5251 H 505.018 -3.76369 3.33699 0
M  V30 5252 H 504.718 -3.12831 4.97404 0
M  V30 5253 H 506.242 -3.99129 4.62091 0
M  V30 5254 H 507.656 -1.86544 5.42102 0
M  V30 5255 H 506.053 -1.2182 5.87605 0
M  V30 5256 H 507.123 -0.254066 4.84234 0
M  V30 5257 N 508.466 -1.55915 -0.229846 0
M  V30 5258 C 509.715 -1.77742 -0.953455 0
M  V30 5259 C 510.028 -0.610524 -1.85828 0
M  V30 5260 O 511.234 -0.712219 -2.61992 0
M  V30 5261 C 509.69 -3.14738 -1.74551 0
M  V30 5262 C 509.298 -4.39126 -0.887242 0
M  V30 5263 C 511.042 -3.45895 -2.46084 0
M  V30 5264 C 508.949 -5.67149 -1.67617 0
M  V30 5265 H 507.879 -0.662648 -0.359741 0
M  V30 5266 H 510.53 -1.82322 -0.207576 0
M  V30 5267 H 508.912 -3.04311 -2.53399 0
M  V30 5268 H 510.086 -4.60588 -0.139892 0
M  V30 5269 H 508.401 -4.15427 -0.284443 0
M  V30 5270 H 510.998 -4.38767 -3.05594 0
M  V30 5271 H 511.341 -2.68007 -3.18556 0
M  V30 5272 H 511.874 -3.57614 -1.74233 0
M  V30 5273 H 508.613 -6.47906 -0.994881 0
M  V30 5274 H 508.133 -5.49763 -2.39836 0
M  V30 5275 H 509.812 -6.07025 -2.23898 0
M  V30 5276 N 509.944 0.496216 -1.49584 0
M  V30 5277 C 510.876 1.61404 -1.62731 0
M  V30 5278 C 511.889 1.54613 -0.50978 0
M  V30 5279 O 513.078 1.60458 -0.782017 0
M  V30 5280 C 510.178 3.00212 -1.57245 0
M  V30 5281 C 509.351 3.32138 -2.84611 0
M  V30 5282 C 508.41 4.5038 -2.72112 0
M  V30 5283 O 507.436 4.51926 -3.46051 0
M  V30 5284 N 508.638 5.50575 -1.83977 0
M  V30 5285 H 511.403 1.50552 -2.59141 0
M  V30 5286 H 508.964 0.684182 -1.46733 0
M  V30 5287 H 510.956 3.77241 -1.4653 0
M  V30 5288 H 509.526 3.04964 -0.686729 0
M  V30 5289 H 508.746 2.4396 -3.09641 0
M  V30 5290 H 510.034 3.50268 -3.69039 0
M  V30 5291 H 509.432 5.52128 -1.23171 0
M  V30 5292 H 507.989 6.26687 -1.79182 0
M  V30 5293 N 511.423 1.38739 0.74761 0
M  V30 5294 C 512.834 1.31507 1.32524 0
M  V30 5295 C 513.185 -0.0263963 1.96182 0
M  V30 5296 O 512.31 -0.92849 1.95469 0
M  V30 5297 C 512.905 2.38162 2.40966 0
M  V30 5298 C 511.464 2.34489 2.94434 0
M  V30 5299 C 510.611 2.20712 1.67873 0
M  V30 5300 H 513.562 1.4901 0.546043 0
M  V30 5301 H 513.583 2.04222 3.21051 0
M  V30 5302 H 513.095 3.35783 1.94605 0
M  V30 5303 H 511.196 1.40467 3.45108 0
M  V30 5304 H 511.309 3.28861 3.48407 0
M  V30 5305 H 509.673 1.67667 1.91729 0
M  V30 5306 H 510.456 3.20285 1.23582 0
M  V30 5307 N 512.901 -0.976442 1.23707 0
M  V30 5308 C 513.851 -2.0544 0.988851 0
M  V30 5309 C 514.835 -1.60762 -0.0665901 0
M  V30 5310 O 516.027 -1.76396 0.14604 0
M  V30 5311 C 513.156 -3.38258 0.586223 0
M  V30 5312 C 512.242 -3.89523 1.67728 0
M  V30 5313 N 512.633 -4.13823 2.90834 0
M  V30 5314 C 510.931 -4.18097 1.55277 0
M  V30 5315 C 511.632 -4.55731 3.61502 0
M  V30 5316 N 510.608 -4.60394 2.8903 0
M  V30 5317 H 514.41 -2.22191 1.92376 0
M  V30 5318 H 511.924 -1.15954 1.13704 0
M  V30 5319 H 513.921 -4.15075 0.389658 0
M  V30 5320 H 512.581 -3.22898 -0.341594 0
M  V30 5321 H 513.592 -4.01529 3.271 0
M  V30 5322 H 510.269 -4.11719 0.692351 0
M  V30 5323 H 511.659 -4.83018 4.67059 0
M  V30 5324 N 514.379 -1.04941 -1.1758 0
M  V30 5325 C 515.609 -0.777166 -1.91425 0
M  V30 5326 C 516.017 0.670647 -1.76915 0
M  V30 5327 O 515.36 1.46965 -1.10213 0
M  V30 5328 C 515.422 -1.07495 -3.43052 0
M  V30 5329 C 515.086 -2.51844 -3.81345 0
M  V30 5330 C 516.083 -3.50047 -3.844 0
M  V30 5331 C 513.768 -2.86787 -4.12382 0
M  V30 5332 C 515.762 -4.81239 -4.17957 0
M  V30 5333 C 513.449 -4.18182 -4.45608 0
M  V30 5334 C 514.447 -5.15219 -4.48373 0
M  V30 5335 O 514.135 -6.44258 -4.80819 0
M  V30 5336 H 513.867 -0.282209 -0.614275 0
M  V30 5337 H 516.421 -1.40258 -1.50056 0
M  V30 5338 H 514.651 -0.392437 -3.84704 0
M  V30 5339 H 516.34 -0.78912 -3.98155 0
M  V30 5340 H 517.106 -3.24391 -3.60548 0
M  V30 5341 H 512.985 -2.11922 -4.09402 0
M  V30 5342 H 516.529 -5.56974 -4.2003 0
M  V30 5343 H 512.426 -4.43602 -4.68922 0
M  V30 5344 H 513.194 -6.49041 -4.98686 0
M  V30 5345 N 515.857 1.33968 -0.830081 0
M  V30 5346 C 516.82 2.27694 -0.26235 0
M  V30 5347 C 517.82 1.50589 0.563876 0
M  V30 5348 O 519.01 1.70028 0.378941 0
M  V30 5349 C 516.142 3.35002 0.63138 0
M  V30 5350 H 517.335 2.79419 -1.08928 0
M  V30 5351 H 514.888 1.44221 -0.602486 0
M  V30 5352 H 515.623 2.88504 1.48109 0
M  V30 5353 H 515.408 3.92079 0.0403276 0
M  V30 5354 H 516.898 4.04897 1.02217 0
M  V30 5355 N 517.335 0.585699 1.46312 0
M  V30 5356 C 518.56 0.0762461 2.0726 0
M  V30 5357 C 518.985 -1.22071 1.43109 0
M  V30 5358 O 518.343 -1.73804 0.515942 0
M  V30 5359 C 518.391 -0.0729404 3.60526 0
M  V30 5360 O 517.495 -1.1287 3.96654 0
M  V30 5361 H 516.836 0.0641558 0.660893 0
M  V30 5362 H 519.366 0.809492 1.87905 0
M  V30 5363 H 519.376 -0.278158 4.07051 0
M  V30 5364 H 518.051 0.874188 4.06609 0
M  V30 5365 H 516.628 -0.901703 3.61834 0
M  V30 5366 N 518.813 -1.54241 0.323641 0
M  V30 5367 C 520.09 -1.92741 -0.333181 0
M  V30 5368 C 520.47 -1.25326 -1.69872 0
M  V30 5369 O 519.818 -0.396991 -2.25025 0
M  V30 5370 C 520.028 -3.46399 -0.425322 0
M  V30 5371 C 521.376 -4.19029 -0.68557 0
M  V30 5372 O 522.4 -3.52555 -0.50824 0
M  V30 5373 O 521.259 -5.36751 -1.02767 0
M  V30 5374 H 518.353 -0.804811 -0.190286 0
M  V30 5375 H 520.899 -1.65542 0.373361 0
M  V30 5376 H 519.671 -3.87643 0.533737 0
M  V30 5377 H 519.294 -3.79704 -1.17944 0
M  V30 5378 N 520.291 -0.0518155 -1.57515 0
M  V30 5379 C 521.221 0.920283 -2.146 0
M  V30 5380 C 522.202 1.32406 -1.06783 0
M  V30 5381 O 523.387 1.39866 -1.34726 0
M  V30 5382 C 520.517 2.1949 -2.6915 0
M  V30 5383 C 519.471 1.93116 -3.81956 0
M  V30 5384 C 518.797 3.27037 -4.23026 0
M  V30 5385 C 520.097 1.25225 -5.07066 0
M  V30 5386 H 521.791 0.444801 -2.96077 0
M  V30 5387 H 519.337 0.212508 -1.42423 0
M  V30 5388 H 521.29 2.87894 -3.07725 0
M  V30 5389 H 520.014 2.69244 -1.84865 0
M  V30 5390 H 518.673 1.27123 -3.43854 0
M  V30 5391 H 518.321 3.74595 -3.3569 0
M  V30 5392 H 518.021 3.10189 -4.99056 0
M  V30 5393 H 519.545 3.96673 -4.64202 0
M  V30 5394 H 520.959 1.83666 -5.43083 0
M  V30 5395 H 519.356 1.18702 -5.88243 0
M  V30 5396 H 520.426 0.228382 -4.84362 0
M  V30 5397 N 521.769 1.56035 0.221574 0
M  V30 5398 C 523.046 1.69837 0.970301 0
M  V30 5399 C 523.426 0.599065 2.02421 0
M  V30 5400 O 522.774 -0.393929 2.25079 0
M  V30 5401 C 522.984 3.11148 1.58076 0
M  V30 5402 C 524.332 3.70555 2.07302 0
M  V30 5403 O 525.356 3.14109 1.6797 0
M  V30 5404 O 524.215 4.69562 2.79596 0
M  V30 5405 H 521.309 0.691727 0.453257 0
M  V30 5406 H 523.855 1.68353 0.213358 0
M  V30 5407 H 522.627 3.82617 0.819759 0
M  V30 5408 H 522.25 3.16749 2.40324 0
M  V30 5409 N 523.247 -0.488276 1.49845 0
M  V30 5410 C 524.194 -1.58836 1.67451 0
M  V30 5411 C 525.164 -1.57886 0.515857 0
M  V30 5412 O 526.349 -1.75679 0.744403 0
M  V30 5413 C 523.489 -2.96915 1.75885 0
M  V30 5414 C 522.602 -3.07784 3.03138 0
M  V30 5415 C 521.737 -4.36673 3.02473 0
M  V30 5416 C 520.776 -4.41222 4.24252 0
M  V30 5417 N 519.913 -5.61557 4.21424 0
M  V30 5418 H 524.753 -1.43131 2.61376 0
M  V30 5419 H 522.29 -0.696186 1.29583 0
M  V30 5420 H 524.248 -3.76965 1.78755 0
M  V30 5421 H 522.878 -3.11295 0.85414 0
M  V30 5422 H 521.93 -2.20717 3.09819 0
M  V30 5423 H 523.242 -3.07005 3.93128 0
M  V30 5424 H 522.396 -5.25055 3.03977 0
M  V30 5425 H 521.135 -4.40037 2.10283 0
M  V30 5426 H 520.14 -3.5124 4.22978 0
M  V30 5427 H 521.365 -4.39564 5.17649 0
M  V30 5428 H 519.311 -5.65738 3.32078 0
M  V30 5429 H 519.228 -5.62447 5.05163 0
M  V30 5430 H 520.496 -6.52111 4.2705 0
M  V30 5431 N 524.725 -1.39134 -0.740242 0
M  V30 5432 C 525.971 -1.36273 -1.50192 0
M  V30 5433 C 526.304 0.0430136 -1.94152 0
M  V30 5434 O 525.579 1.00691 -1.66408 0
M  V30 5435 C 525.862 -2.33041 -2.74525 0
M  V30 5436 C 525.715 -3.82535 -2.36617 0
M  V30 5437 C 527.034 -2.27723 -3.76604 0
M  V30 5438 H 524.153 -0.496323 -0.544823 0
M  V30 5439 H 526.795 -1.70085 -0.846815 0
M  V30 5440 H 524.945 -2.04337 -3.30422 0
M  V30 5441 H 526.617 -4.21967 -1.86391 0
M  V30 5442 H 524.86 -3.99565 -1.68909 0
M  V30 5443 H 525.531 -4.45723 -3.2563 0
M  V30 5444 H 528.007 -2.53091 -3.30279 0
M  V30 5445 H 526.883 -2.97519 -4.61274 0
M  V30 5446 H 527.144 -1.28049 -4.2315 0
M  V30 5447 N 526.204 0.969867 -1.24223 0
M  V30 5448 C 527.114 2.09806 -1.0497 0
M  V30 5449 C 528.13 1.73998 0.00886455 0
M  V30 5450 O 529.306 2.00513 -0.188848 0
M  V30 5451 C 526.371 3.40467 -0.654452 0
M  V30 5452 C 525.432 3.90236 -1.78926 0
M  V30 5453 C 524.665 5.14662 -1.41277 0
M  V30 5454 O 524.888 5.69602 -0.301632 0
M  V30 5455 O 523.822 5.58761 -2.23763 0
M  V30 5456 H 527.648 2.28942 -1.99548 0
M  V30 5457 H 525.233 1.08197 -1.03023 0
M  V30 5458 H 527.115 4.19039 -0.445452 0
M  V30 5459 H 525.79 3.22636 0.262216 0
M  V30 5460 H 524.697 3.12735 -2.05299 0
M  V30 5461 H 526.03 4.1254 -2.68462 0
M  V30 5462 N 527.682 1.05563 1.17022 0
M  V30 5463 C 528.93 0.76642 1.87004 0
M  V30 5464 C 529.251 -0.708854 1.8166 0
M  V30 5465 O 528.521 -1.51242 1.2451 0
M  V30 5466 H 527.101 0.280516 0.692329 0
M  V30 5467 H 529.763 1.33557 1.41945 0
M  V30 5468 H 528.859 1.08472 2.92644 0
M  V30 5469 N 529.16 -1.33526 0.837174 0
M  V30 5470 C 530.09 -2.31764 0.284206 0
M  V30 5471 C 531.071 -1.58896 -0.607142 0
M  V30 5472 O 532.256 -1.86798 -0.531047 0
M  V30 5473 C 529.386 -3.43029 -0.542962 0
M  V30 5474 C 528.34 -4.27255 0.252451 0
M  V30 5475 C 527.666 -5.3012 -0.69836 0
M  V30 5476 C 528.966 -5.01229 1.46858 0
M  V30 5477 H 530.66 -2.78262 1.10502 0
M  V30 5478 H 528.206 -1.3378 0.532812 0
M  V30 5479 H 530.159 -4.1078 -0.940096 0
M  V30 5480 H 528.883 -2.95216 -1.39697 0
M  V30 5481 H 527.542 -3.61127 0.631124 0
M  V30 5482 H 527.19 -4.78564 -1.54872 0
M  V30 5483 H 526.89 -5.87353 -0.170274 0
M  V30 5484 H 528.414 -6.00737 -1.09305 0
M  V30 5485 H 529.828 -5.61756 1.14469 0
M  V30 5486 H 528.225 -5.68104 1.93333 0
M  V30 5487 H 529.295 -4.301 2.23924 0
M  V30 5488 N 530.638 -0.59345 -1.46 0
M  V30 5489 C 531.866 -0.0890934 -2.06708 0
M  V30 5490 C 532.281 1.2205 -1.44046 0
M  V30 5491 O 531.638 1.74029 -0.549551 0
M  V30 5492 C 531.689 0.0720263 -3.61428 0
M  V30 5493 O 531.41 -1.18574 -4.21748 0
M  V30 5494 C 532.911 0.609487 -4.3909 0
M  V30 5495 H 530.131 -0.0623628 -0.668096 0
M  V30 5496 H 532.675 -0.817171 -1.87464 0
M  V30 5497 H 530.83 0.750369 -3.80063 0
M  V30 5498 H 531.244 -1.0064 -5.14754 0
M  V30 5499 H 532.718 0.671363 -5.47902 0
M  V30 5500 H 533.195 1.62878 -4.07882 0
M  V30 5501 H 533.801 -0.03434 -4.25286 0
M  V30 5502 N 532.116 1.54067 -0.331816 0
M  V30 5503 C 533.363 2.00715 0.268269 0
M  V30 5504 C 533.691 1.21986 1.51491 0
M  V30 5505 O 532.946 0.292309 1.93505 0
M  V30 5506 C 533.245 3.51634 0.639392 0
M  V30 5507 C 532.911 4.48018 -0.509019 0
M  V30 5508 C 531.573 4.74089 -0.824209 0
M  V30 5509 C 533.925 5.05237 -1.28003 0
M  V30 5510 C 531.253 5.54637 -1.91298 0
M  V30 5511 C 533.605 5.86972 -2.35895 0
M  V30 5512 C 532.269 6.11342 -2.67987 0
M  V30 5513 H 531.539 0.734469 0.0981667 0
M  V30 5514 H 534.186 1.8596 -0.457304 0
M  V30 5515 H 532.491 3.6416 1.44551 0
M  V30 5516 H 534.188 3.85175 1.11539 0
M  V30 5517 H 530.778 4.27851 -0.253287 0
M  V30 5518 H 534.962 4.8507 -1.04978 0
M  V30 5519 H 530.218 5.71747 -2.16599 0
M  V30 5520 H 534.392 6.30327 -2.96076 0
M  V30 5521 H 532.019 6.73544 -3.5248 0
M  V30 5522 N 533.594 0.0601682 1.57485 0
M  V30 5523 C 534.526 -0.94047 2.09016 0
M  V30 5524 C 535.539 -1.26897 1.01985 0
M  V30 5525 O 536.728 -1.22819 1.29529 0
M  V30 5526 C 533.828 -2.25955 2.52582 0
M  V30 5527 C 533.001 -2.11163 3.83052 0
M  V30 5528 C 532.06 -3.26273 4.12835 0
M  V30 5529 O 531.086 -3.01779 4.82616 0
M  V30 5530 N 532.288 -4.51022 3.65458 0
M  V30 5531 H 535.053 -0.500578 2.9549 0
M  V30 5532 H 532.614 -0.125852 1.6141 0
M  V30 5533 H 534.606 -3.01846 2.69575 0
M  V30 5534 H 533.176 -2.61481 1.71308 0
M  V30 5535 H 532.396 -1.19808 3.75552 0
M  V30 5536 H 533.684 -1.98517 4.68475 0
M  V30 5537 H 533.082 -4.73811 3.09062 0
M  V30 5538 H 531.639 -5.23978 3.87673 0
M  V30 5539 N 535.072 -1.5615 -0.213296 0
M  V30 5540 C 536.004 -1.89586 -1.28802 0
M  V30 5541 C 537.017 -0.784844 -1.42633 0
M  V30 5542 O 538.206 -1.06319 -1.43383 0
M  V30 5543 C 535.306 -2.09665 -2.66259 0
M  V30 5544 C 534.479 -3.40726 -2.7427 0
M  V30 5545 C 533.538 -3.50137 -3.92798 0
M  V30 5546 O 532.564 -4.23105 -3.8075 0
M  V30 5547 N 533.766 -2.81886 -5.07465 0
M  V30 5548 H 536.531 -2.82368 -1.00442 0
M  V30 5549 H 534.092 -1.56796 -0.403302 0
M  V30 5550 H 536.084 -2.13268 -3.43946 0
M  V30 5551 H 534.654 -1.23469 -2.87183 0
M  V30 5552 H 533.874 -3.4915 -1.82997 0
M  V30 5553 H 535.162 -4.27048 -2.76599 0
M  V30 5554 H 534.56 -2.22397 -5.2015 0
M  V30 5555 H 533.117 -2.91139 -5.83165 0
M  V30 5556 N 536.55 0.480323 -1.50102 0
M  V30 5557 C 537.498 1.60024 -1.68805 0
M  V30 5558 C 538.492 1.60089 -0.553888 0
M  V30 5559 O 539.698 1.64349 -0.734127 0
M  V30 5560 H 536.073 0.530841 -0.532646 0
M  V30 5561 H 538.044 1.41408 -2.62767 0
M  V30 5562 C 536.793 2.98029 -1.79092 0
M  V30 5563 H 536.116 2.98694 -2.65748 0
M  V30 5564 H 537.556 3.75871 -1.96206 0
M  V30 5565 C 536.015 3.32538 -0.540388 0
M  V30 5566 O 536.545 4.00386 0.324637 0
M  V30 5567 N 534.751 2.87873 -0.397154 0
M  V30 5568 H 534.298 2.32834 -1.1021 0
M  V30 5569 H 534.256 3.11328 0.438425 0
M  V30 5570 N 538.028 1.39524 0.732853 0
M  V30 5571 C 539.253 1.40329 1.52717 0
M  V30 5572 C 539.678 0.000286574 1.881 0
M  V30 5573 O 539.036 -0.987262 1.52062 0
M  V30 5574 C 539.084 2.28464 2.78992 0
M  V30 5575 O 538.188 1.716 3.75003 0
M  V30 5576 H 537.529 0.47778 0.461109 0
M  V30 5577 H 540.059 1.83546 0.903996 0
M  V30 5578 H 540.069 2.43051 3.27705 0
M  V30 5579 H 538.744 3.30425 2.52572 0
M  V30 5580 H 537.321 1.66267 3.33781 0
M  V30 5581 N 539.506 -0.963266 1.24736 0
M  V30 5582 C 540.436 -2.07628 1.06832 0
M  V30 5583 C 541.417 -1.70088 -0.0200566 0
M  V30 5584 O 542.602 -1.93636 0.147854 0
M  V30 5585 C 539.732 -3.40636 0.677069 0
M  V30 5586 C 538.686 -3.9215 1.71471 0
M  V30 5587 C 538.012 -5.21553 1.1784 0
M  V30 5588 C 539.312 -4.19493 3.11164 0
M  V30 5589 H 541.006 -2.22864 1.9993 0
M  V30 5590 H 538.552 -1.07093 0.96266 0
M  V30 5591 H 540.505 -4.17941 0.538792 0
M  V30 5592 H 539.229 -3.25313 -0.289612 0
M  V30 5593 H 537.888 -3.17005 1.84128 0
M  V30 5594 H 537.536 -5.02593 0.202195 0
M  V30 5595 H 537.236 -5.56988 1.87185 0
M  V30 5596 H 538.76 -6.01463 1.05233 0
M  V30 5597 H 540.174 -4.87487 3.01711 0
M  V30 5598 H 538.571 -4.66165 3.77902 0
M  V30 5599 H 539.641 -3.26097 3.58871 0
M  V30 5600 N 540.985 -1.06182 -1.16461 0
M  V30 5601 C 541.933 -0.665716 -2.2287 0
M  V30 5602 C 542.927 0.317822 -1.66392 0
M  V30 5603 O 544.133 0.182807 -1.79069 0
M  V30 5604 H 540.508 -0.197148 -0.725697 0
M  V30 5605 H 542.479 -1.57307 -2.53569 0
M  V30 5606 C 541.228 -0.0669803 -3.47635 0
M  V30 5607 H 540.551 -0.814899 -3.91407 0
M  V30 5608 H 541.991 0.172669 -4.23648 0
M  V30 5609 C 540.45 1.18913 -3.15216 0
M  V30 5610 O 540.98 2.27723 -3.30916 0
M  V30 5611 N 539.186 1.09066 -2.69357 0
M  V30 5612 H 538.733 0.20518 -2.56782 0
M  V30 5613 H 538.691 1.93195 -2.48039 0
M  V30 5614 N 542.463 1.3308 -0.844243 0
M  V30 5615 C 543.709 1.98304 -0.452453 0
M  V30 5616 C 544.064 1.65645 0.978746 0
M  V30 5617 O 543.357 0.928849 1.6758 0
M  V30 5618 C 543.551 3.52045 -0.616354 0
M  V30 5619 C 543.38 3.99643 -2.06193 0
M  V30 5620 C 542.15 4.27224 -2.69829 0
M  V30 5621 C 544.348 4.15471 -3.03131 0
M  V30 5622 N 542.33 4.60998 -4.05406 0
M  V30 5623 C 543.701 4.52665 -4.23668 0
M  V30 5624 C 545.756 3.97776 -2.99465 0
M  V30 5625 C 544.459 4.74011 -5.41023 0
M  V30 5626 C 546.485 4.20301 -4.16055 0
M  V30 5627 C 545.847 4.57801 -5.35348 0
M  V30 5628 H 541.946 0.752122 -0.214096 0
M  V30 5629 H 544.53 1.61096 -1.09344 0
M  V30 5630 H 542.701 3.884 -0.00513205 0
M  V30 5631 H 544.433 4.04228 -0.19548 0
M  V30 5632 H 541.188 4.18911 -2.20931 0
M  V30 5633 H 541.612 4.82087 -4.75312 0
M  V30 5634 H 546.254 3.67893 -2.08362 0
M  V30 5635 H 543.972 5.02753 -6.32665 0
M  V30 5636 H 547.558 4.08122 -4.14641 0
M  V30 5637 H 546.438 4.74884 -6.24063 0
M  V30 5638 N 543.941 0.601185 1.45683 0
M  V30 5639 C 544.874 -0.17013 2.27565 0
M  V30 5640 C 545.852 -0.879661 1.36751 0
M  V30 5641 O 547.036 -0.889827 1.66176 0
M  V30 5642 C 544.163 -1.24568 3.14961 0
M  V30 5643 C 543.209 -0.639978 4.21671 0
M  V30 5644 S 544.042 0.547275 5.32696 0
M  V30 5645 C 545.198 -0.529019 6.2366 0
M  V30 5646 H 545.431 0.524583 2.92635 0
M  V30 5647 H 542.964 0.388537 1.49431 0
M  V30 5648 H 544.922 -1.86138 3.65873 0
M  V30 5649 H 543.583 -1.91243 2.49169 0
M  V30 5650 H 542.776 -1.44903 4.8272 0
M  V30 5651 H 542.378 -0.0995558 3.73867 0
M  V30 5652 H 544.67 -1.40981 6.62669 0
M  V30 5653 H 545.613 0.0451599 7.08086 0
M  V30 5654 H 546.021 -0.84147 5.58193 0
M  V30 5655 N 545.419 -1.53889 0.339982 0
M  V30 5656 C 546.366 -2.24902 -0.518452 0
M  V30 5657 C 547.336 -1.24593 -1.09844 0
M  V30 5658 O 548.521 -1.53317 -1.13572 0
M  V30 5659 C 545.661 -3.02262 -1.66529 0
M  V30 5660 C 544.774 -4.17418 -1.11295 0
M  V30 5661 C 543.909 -4.82273 -2.2268 0
M  V30 5662 C 542.948 -5.89503 -1.6478 0
M  V30 5663 N 542.085 -6.48153 -2.69893 0
M  V30 5664 H 546.925 -2.97853 0.0936579 0
M  V30 5665 H 544.462 -1.46986 0.0579924 0
M  V30 5666 H 546.42 -3.45371 -2.3404 0
M  V30 5667 H 545.05 -2.31614 -2.24844 0
M  V30 5668 H 544.102 -3.78976 -0.328886 0
M  V30 5669 H 545.414 -4.94554 -0.649414 0
M  V30 5670 H 544.568 -5.28435 -2.98063 0
M  V30 5671 H 543.307 -4.04552 -2.72376 0
M  V30 5672 H 542.312 -5.42728 -0.879004 0
M  V30 5673 H 543.537 -6.6913 -1.1594 0
M  V30 5674 H 541.483 -5.73298 -3.1885 0
M  V30 5675 H 541.4 -7.20752 -2.28151 0
M  V30 5676 H 542.668 -6.98968 -3.45056 0
M  V30 5677 N 546.897 -0.0685191 -1.57451 0
M  V30 5678 C 547.844 0.899861 -2.12535 0
M  V30 5679 C 548.814 1.29749 -1.03703 0
M  V30 5680 O 549.999 1.38392 -1.31348 0
M  V30 5681 C 547.139 2.16328 -2.6888 0
M  V30 5682 C 546.252 1.81857 -3.91857 0
M  V30 5683 C 545.387 3.02786 -4.36457 0
M  V30 5684 C 544.426 2.64317 -5.5209 0
M  V30 5685 N 543.563 3.77994 -5.91663 0
M  V30 5686 H 548.403 0.423243 -2.94979 0
M  V30 5687 H 545.94 0.197268 -1.45771 0
M  V30 5688 H 547.898 2.90281 -2.99655 0
M  V30 5689 H 546.528 2.61536 -1.89206 0
M  V30 5690 H 545.58 0.979808 -3.67565 0
M  V30 5691 H 546.892 1.49553 -4.75852 0
M  V30 5692 H 546.046 3.85021 -4.68875 0
M  V30 5693 H 544.785 3.38281 -3.51308 0
M  V30 5694 H 543.79 1.80503 -5.19325 0
M  V30 5695 H 545.015 2.29995 -6.38967 0
M  V30 5696 H 542.961 4.13258 -5.09464 0
M  V30 5697 H 542.878 3.49447 -6.7039 0
M  V30 5698 H 544.146 4.60818 -6.28703 0
M  V30 5699 N 548.375 1.56261 0.205012 0
M  V30 5700 C 549.305 1.96779 1.257 0
M  V30 5701 C 550.286 0.838309 1.48008 0
M  V30 5702 O 551.471 1.10189 1.59913 0
M  V30 5703 C 548.601 2.29876 2.60335 0
M  V30 5704 C 547.555 3.45469 2.52656 0
M  V30 5705 C 546.881 3.64215 3.91473 0
M  V30 5706 C 548.181 4.79954 2.06014 0
M  V30 5707 H 549.875 2.84904 0.920338 0
M  V30 5708 H 547.421 1.37072 0.441277 0
M  V30 5709 H 549.374 2.56814 3.34102 0
M  V30 5710 H 548.098 1.38622 2.95722 0
M  V30 5711 H 546.757 3.18605 1.81345 0
M  V30 5712 H 546.405 2.70309 4.24196 0
M  V30 5713 H 546.105 4.41973 3.87213 0
M  V30 5714 H 547.629 3.93519 4.66878 0
M  V30 5715 H 549.043 5.05989 2.69533 0
M  V30 5716 H 547.44 5.61111 2.12777 0
M  V30 5717 H 548.51 4.74201 1.01297 0
M  V30 5718 N 549.853 -0.472356 1.50355 0
M  V30 5719 C 551.078 -1.25251 1.65309 0
M  V30 5720 C 551.503 -1.85081 0.335643 0
M  V30 5721 O 550.861 -1.67227 -0.700335 0
M  V30 5722 C 550.909 -2.3379 2.74544 0
M  V30 5723 O 550.013 -3.38401 2.35709 0
M  V30 5724 H 549.354 -0.368539 0.552336 0
M  V30 5725 H 551.884 -0.562271 1.96722 0
M  V30 5726 H 551.894 -2.79121 2.97583 0
M  V30 5727 H 550.569 -1.89614 3.70161 0
M  V30 5728 H 549.146 -2.9879 2.23112 0
M  V30 5729 N 551.331 -1.39911 -0.725443 0
M  V30 5730 C 552.742 -1.33599 -1.30415 0
M  V30 5731 C 553.093 -0.00481792 -1.96199 0
M  V30 5732 O 552.218 0.897275 -1.96921 0
M  V30 5733 C 552.813 -2.41965 -2.37146 0
M  V30 5734 C 551.372 -2.39144 -2.90667 0
M  V30 5735 C 550.519 -2.23355 -1.64341 0
M  V30 5736 H 553.47 -1.4986 -0.522267 0
M  V30 5737 H 553.491 -2.09304 -3.17761 0
M  V30 5738 H 553.003 -3.38837 -1.89238 0
M  V30 5739 H 551.104 -1.4594 -3.4283 0
M  V30 5740 H 551.217 -3.34362 -3.43131 0
M  V30 5741 H 549.581 -1.70696 -1.89037 0
M  V30 5742 H 550.364 -3.2221 -1.18471 0
M  V30 5743 N 552.809 0.956637 -1.25245 0
M  V30 5744 C 554.225 1.22733 -1.02023 0
M  V30 5745 C 554.425 1.99761 0.264186 0
M  V30 5746 O 553.481 2.32814 0.977436 0
M  V30 5747 C 554.794 2.00367 -2.24217 0
M  V30 5748 C 556.342 2.13418 -2.28958 0
M  V30 5749 C 556.817 2.9445 -3.50803 0
M  V30 5750 N 558.308 3.02029 -3.51187 0
M  V30 5751 C 559.043 3.65116 -4.42129 0
M  V30 5752 N 558.539 4.2983 -5.43339 0
M  V30 5753 N 560.332 3.62237 -4.29815 0
M  V30 5754 H 552.483 0.441282 -2.07765 0
M  V30 5755 H 554.746 0.257686 -0.912306 0
M  V30 5756 H 554.452 1.51165 -3.17556 0
M  V30 5757 H 554.326 3.01077 -2.27228 0
M  V30 5758 H 556.713 2.61819 -1.36143 0
M  V30 5759 H 556.794 1.1202 -2.29968 0
M  V30 5760 H 556.438 2.46741 -4.43939 0
M  V30 5761 H 556.368 3.9607 -3.47039 0
M  V30 5762 H 558.859 2.56007 -2.77973 0
M  V30 5763 H 559.172 4.75819 -6.08947 0
M  V30 5764 H 557.517 4.28465 -5.47214 0
M  V30 5765 H 560.708 3.10863 -3.49974 0
M  V30 5766 H 560.881 4.11117 -5.00886 0
M  V30 5767 N 554.287 1.06798 1.15896 0
M  V30 5768 C 555.515 0.808694 1.90441 0
M  V30 5769 C 555.93 -0.637506 1.77711 0
M  V30 5770 O 555.287 -1.43684 1.12522 0
M  V30 5771 C 555.338 1.20068 3.40978 0
M  V30 5772 O 555.059 2.59013 3.53333 0
M  V30 5773 C 556.56 0.96987 4.3256 0
M  V30 5774 H 553.78 0.292809 0.603742 0
M  V30 5775 H 556.324 1.42296 1.46874 0
M  V30 5776 H 554.479 0.630842 3.82229 0
M  V30 5777 H 554.893 2.7485 4.46719 0
M  V30 5778 H 556.367 1.29371 5.36626 0
M  V30 5779 H 556.844 -0.0941209 4.39099 0
M  V30 5780 H 557.45 1.52433 3.97044 0
M  V30 5781 N 555.766 -1.3263 0.851289 0
M  V30 5782 C 557.015 -1.96633 0.449267 0
M  V30 5783 C 557.328 -1.68131 -0.999562 0
M  V30 5784 O 558.534 -2.25845 -1.50685 0
M  V30 5785 C 556.99 -3.51946 0.752446 0
M  V30 5786 C 556.598 -3.89311 2.21678 0
M  V30 5787 C 558.342 -4.22437 0.417983 0
M  V30 5788 C 556.249 -5.37655 2.46336 0
M  V30 5789 H 555.179 -0.735888 0.164269 0
M  V30 5790 H 557.83 -1.51073 1.0416 0
M  V30 5791 H 556.212 -3.95899 0.0895858 0
M  V30 5792 H 557.386 -3.56378 2.92115 0
M  V30 5793 H 555.701 -3.31836 2.51543 0
M  V30 5794 H 558.298 -5.31549 0.579674 0
M  V30 5795 H 558.641 -4.11349 -0.640115 0
M  V30 5796 H 559.174 -3.84057 1.03659 0
M  V30 5797 H 555.913 -5.5376 3.50757 0
M  V30 5798 H 555.433 -5.72005 1.80473 0
M  V30 5799 H 557.112 -6.04695 2.30115 0
M  V30 5800 N 557.244 -0.608902 -1.45362 0
M  V30 5801 C 558.194 0.130616 -2.27626 0
M  V30 5802 C 559.178 0.837323 -1.37396 0
M  V30 5803 O 560.37 0.727096 -1.61376 0
M  V30 5804 C 557.499 1.12646 -3.24293 0
M  V30 5805 C 556.585 0.42052 -4.2201 0
M  V30 5806 N 556.976 -0.538569 -5.02925 0
M  V30 5807 C 555.274 0.667901 -4.40971 0
M  V30 5808 C 555.975 -0.953625 -5.7383 0
M  V30 5809 N 554.951 -0.297097 -5.42788 0
M  V30 5810 H 558.753 -0.605996 -2.87585 0
M  V30 5811 H 556.267 -0.432672 -1.5653 0
M  V30 5812 H 558.264 1.67066 -3.81961 0
M  V30 5813 H 556.924 1.86361 -2.65894 0
M  V30 5814 H 557.935 -0.915375 -5.09746 0
M  V30 5815 H 554.612 1.38963 -3.93695 0
M  V30 5816 H 556.002 -1.74473 -6.48852 0
M  V30 5817 N 558.722 1.53707 -0.348139 0
M  V30 5818 C 559.652 2.28111 0.498766 0
M  V30 5819 C 560.633 1.29851 1.09876 0
M  V30 5820 O 561.818 1.587 1.11928 0
M  V30 5821 C 558.948 3.05735 1.64753 0
M  V30 5822 C 557.902 4.11537 1.17565 0
M  V30 5823 C 557.228 4.77142 2.4133 0
M  V30 5824 C 558.528 5.21587 0.272844 0
M  V30 5825 H 560.222 2.99152 -0.121934 0
M  V30 5826 H 557.768 1.43875 -0.0600842 0
M  V30 5827 H 559.721 3.56526 2.24649 0
M  V30 5828 H 558.445 2.32354 2.2952 0
M  V30 5829 H 557.104 3.61665 0.599483 0
M  V30 5830 H 556.752 4.0035 3.04514 0
M  V30 5831 H 556.452 5.48626 2.10436 0
M  V30 5832 H 557.976 5.30719 3.01943 0
M  V30 5833 H 559.39 5.67986 0.778779 0
M  V30 5834 H 557.787 6.00074 0.0555849 0
M  V30 5835 H 558.857 4.79969 -0.689785 0
M  V30 5836 N 560.2 0.0768682 1.57412 0
M  V30 5837 C 561.428 -0.59997 1.9801 0
M  V30 5838 C 561.843 -1.62842 0.955408 0
M  V30 5839 O 561.2 -1.8241 -0.057314 0
M  V30 5840 C 561.251 -1.26401 3.38681 0
M  V30 5841 O 560.972 -0.276723 4.37225 0
M  V30 5842 C 562.473 -2.0282 3.94182 0
M  V30 5843 H 559.693 -0.162239 0.651091 0
M  V30 5844 H 562.237 0.150771 2.03943 0
M  V30 5845 H 560.392 -1.96581 3.33819 0
M  V30 5846 H 560.806 -0.753744 5.19056 0
M  V30 5847 H 562.28 -2.44667 4.94815 0
M  V30 5848 H 562.757 -2.88678 3.31001 0
M  V30 5849 H 563.363 -1.37496 4.02461 0
M  V30 5850 N 561.678 -1.56367 -0.196722 0
M  V30 5851 C 562.611 -1.89475 -1.2718 0
M  V30 5852 C 563.589 -0.754667 -1.44026 0
M  V30 5853 O 564.773 -1.00551 -1.59442 0
M  V30 5854 C 561.9 -2.12352 -2.63864 0
M  V30 5855 C 560.946 -3.35053 -2.63897 0
M  V30 5856 S 561.779 -4.90228 -2.15492 0
M  V30 5857 C 562.935 -5.16171 -3.54004 0
M  V30 5858 H 563.168 -2.80365 -0.989075 0
M  V30 5859 H 560.701 -1.49125 -0.40014 0
M  V30 5860 H 562.659 -2.26214 -3.42545 0
M  V30 5861 H 561.32 -1.22214 -2.89349 0
M  V30 5862 H 560.513 -3.48182 -3.64397 0
M  V30 5863 H 560.115 -3.20176 -1.93296 0
M  V30 5864 H 562.407 -5.06591 -4.49857 0
M  V30 5865 H 563.35 -6.17938 -3.45771 0
M  V30 5866 H 563.758 -4.43814 -3.48841 0
M  V30 5867 N 563.156 0.464375 -1.50603 0
M  V30 5868 C 564.567 1.04507 -1.5471 0
M  V30 5869 C 564.918 1.9297 -0.354542 0
M  V30 5870 O 564.043 2.09763 0.531812 0
M  V30 5871 C 564.638 1.90207 -2.80369 0
M  V30 5872 C 563.197 2.43373 -2.87135 0
M  V30 5873 C 562.344 1.21886 -2.49076 0
M  V30 5874 H 565.295 0.246716 -1.56771 0
M  V30 5875 H 565.316 2.75353 -2.62604 0
M  V30 5876 H 564.828 1.25796 -3.67147 0
M  V30 5877 H 562.929 3.11318 -2.04724 0
M  V30 5878 H 563.042 2.7802 -3.90181 0
M  V30 5879 H 561.406 1.55575 -2.01664 0
M  V30 5880 H 562.189 0.591268 -3.3817 0
M  V30 5881 N 564.634 1.40294 0.718013 0
M  V30 5882 C 565.566 1.36281 1.84283 0
M  V30 5883 C 566.579 0.268621 1.60569 0
M  V30 5884 O 567.768 0.528798 1.70487 0
M  V30 5885 C 564.868 1.09741 3.2064 0
M  V30 5886 C 564.041 2.30767 3.71571 0
M  V30 5887 C 563.1 2.00424 4.86535 0
M  V30 5888 O 562.126 2.73268 4.99313 0
M  V30 5889 N 563.328 0.980724 5.72156 0
M  V30 5890 H 566.093 2.3322 1.88225 0
M  V30 5891 H 563.654 1.34616 0.899453 0
M  V30 5892 H 565.646 0.874322 3.95143 0
M  V30 5893 H 564.216 0.214771 3.11861 0
M  V30 5894 H 563.436 2.68921 2.88228 0
M  V30 5895 H 564.724 3.11455 4.02335 0
M  V30 5896 H 564.122 0.377375 5.6444 0
M  V30 5897 H 562.679 0.817538 6.46653 0
M  V30 5898 N 566.112 -0.949982 1.2575 0
M  V30 5899 C 567.042 -2.06483 1.09028 0
M  V30 5900 C 568.023 -1.701 -0.00201532 0
M  V30 5901 O 569.208 -1.93469 0.168383 0
M  V30 5902 C 566.338 -3.39899 0.71316 0
M  V30 5903 C 565.292 -3.90309 1.75621 0
M  V30 5904 C 564.618 -5.20274 1.23365 0
M  V30 5905 C 565.918 -4.16169 3.15596 0
M  V30 5906 H 567.612 -2.20731 2.02283 0
M  V30 5907 H 565.158 -1.06066 0.973964 0
M  V30 5908 H 567.111 -4.17346 0.58309 0
M  V30 5909 H 565.835 -3.25602 -0.255091 0
M  V30 5910 H 564.494 -3.15035 1.8748 0
M  V30 5911 H 564.142 -5.02351 0.255491 0
M  V30 5912 H 563.842 -5.54971 1.93082 0
M  V30 5913 H 565.366 -6.00314 1.11607 0
M  V30 5914 H 566.78 -4.84259 3.06864 0
M  V30 5915 H 565.177 -4.62131 3.82825 0
M  V30 5916 H 566.247 -3.22273 3.6231 0
M  V30 5917 N 567.59 -1.07411 -1.15328 0
M  V30 5918 C 568.836 -0.798831 -1.86404 0
M  V30 5919 C 569.169 0.673433 -1.8215 0
M  V30 5920 O 568.444 1.49428 -1.24505 0
M  V30 5921 C 568.727 -1.30846 -3.35487 0
M  V30 5922 C 568.58 -2.84532 -3.4837 0
M  V30 5923 C 569.899 -0.925486 -4.30259 0
M  V30 5924 H 567.018 -0.291659 -0.676834 0
M  V30 5925 H 569.66 -1.332 -1.35491 0
M  V30 5926 H 567.81 -0.854916 -3.78977 0
M  V30 5927 H 569.482 -3.3818 -3.13739 0
M  V30 5928 H 567.725 -3.22699 -2.8991 0
M  V30 5929 H 568.396 -3.15259 -4.53118 0
M  V30 5930 H 570.872 -1.3163 -3.94731 0
M  V30 5931 H 569.748 -1.3094 -5.33053 0
M  V30 5932 H 570.009 0.168525 -4.41779 0
M  V30 5933 N 569.068 1.32177 -0.85831 0
M  V30 5934 C 569.998 2.31282 -0.321041 0
M  V30 5935 C 570.979 1.59841 0.581786 0
M  V30 5936 O 572.164 1.87619 0.501262 0
M  V30 5937 C 569.294 3.4385 0.48832 0
M  V30 5938 C 568.248 4.26799 -0.320391 0
M  V30 5939 C 567.574 5.31164 0.613934 0
M  V30 5940 C 568.874 4.98829 -1.54813 0
M  V30 5941 H 570.568 2.76469 -1.14915 0
M  V30 5942 H 568.114 1.32916 -0.554028 0
M  V30 5943 H 570.067 4.12224 0.874626 0
M  V30 5944 H 568.791 2.97401 1.34983 0
M  V30 5945 H 567.45 3.60077 -0.688497 0
M  V30 5946 H 567.098 4.80967 1.47239 0
M  V30 5947 H 566.798 5.8755 0.0768097 0
M  V30 5948 H 568.322 6.024 0.997336 0
M  V30 5949 H 569.736 5.59864 -1.23392 0
M  V30 5950 H 568.133 5.64957 -2.02346 0
M  V30 5951 H 569.203 4.26483 -2.30739 0
M  V30 5952 N 570.547 0.616602 1.45037 0
M  V30 5953 C 571.479 -0.135186 2.28801 0
M  V30 5954 C 572.492 -0.82303 1.40464 0
M  V30 5955 O 573.681 -0.686909 1.64754 0
M  V30 5956 C 570.781 -1.21292 3.16451 0
M  V30 5957 C 569.954 -0.61043 4.3312 0
M  V30 5958 C 569.013 -1.58022 5.01912 0
M  V30 5959 O 568.039 -1.10301 5.58411 0
M  V30 5960 N 569.241 -2.91464 5.02025 0
M  V30 5961 H 572.006 0.583612 2.93963 0
M  V30 5962 H 569.567 0.456723 1.55324 0
M  V30 5963 H 571.559 -1.86169 3.59337 0
M  V30 5964 H 570.129 -1.83412 2.53138 0
M  V30 5965 H 569.349 0.216638 3.93604 0
M  V30 5966 H 570.637 -0.188293 5.08451 0
M  V30 5967 H 570.035 -3.32829 4.57429 0
M  V30 5968 H 568.592 -3.51741 5.48745 0
M  V30 5969 N 572.025 -1.5352 0.356285 0
M  V30 5970 C 573.273 -2.00719 -0.235837 0
M  V30 5971 C 573.594 -1.24551 -1.5004 0
M  V30 5972 O 572.864 -0.356185 -1.92635 0
M  V30 5973 H 571.444 -0.741542 -0.0901366 0
M  V30 5974 H 574.106 -1.88887 0.480378 0
M  V30 5975 H 573.202 -3.08551 -0.469357 0
M  V30 5976 N 573.503 -0.0852151 -1.57369 0
M  V30 5977 C 574.728 0.592872 -1.98746 0
M  V30 5978 C 575.153 1.61538 -0.963689 0
M  V30 5979 O 574.511 1.81168 0.069071 0
M  V30 5980 C 574.559 1.22599 -3.39119 0
M  V30 5981 O 573.663 2.34185 -3.39457 0
M  V30 5982 H 573.004 0.151314 -0.646529 0
M  V30 5983 H 575.534 -0.163703 -2.03944 0
M  V30 5984 H 575.544 1.56965 -3.76598 0
M  V30 5985 H 574.219 0.476831 -4.13158 0
M  V30 5986 H 572.796 2.01512 -3.13763 0
M  V30 5987 N 574.981 1.5647 0.188427 0
M  V30 5988 C 576.211 1.84863 0.922463 0
M  V30 5989 C 576.619 0.666413 1.77075 0
M  V30 5990 O 575.962 -0.374044 1.79852 0
M  V30 5991 C 576.024 3.07447 1.86324 0
M  V30 5992 C 575.688 4.41066 1.19625 0
M  V30 5993 C 576.685 5.16767 0.569946 0
M  V30 5994 C 574.37 4.87802 1.19811 0
M  V30 5995 C 576.364 6.37384 -0.045594 0
M  V30 5996 C 574.051 6.08353 0.57874 0
M  V30 5997 C 575.049 6.82987 -0.0420259 0
M  V30 5998 O 574.737 8.01254 -0.651675 0
M  V30 5999 H 574.469 0.61784 0.274316 0
M  V30 6000 H 577.023 2.04437 0.198613 0
M  V30 6001 H 575.253 2.83774 2.62696 0
M  V30 6002 H 576.942 3.2243 2.46564 0
M  V30 6003 H 577.708 4.81749 0.560601 0
M  V30 6004 H 573.587 4.29662 1.67069 0
M  V30 6005 H 577.131 6.95578 -0.530731 0
M  V30 6006 H 573.028 6.42838 0.58561 0
M  V30 6007 H 573.796 8.16655 -0.549236 0
M  V30 6008 N 576.459 -0.456382 1.50847 0
M  V30 6009 C 577.736 -1.21739 1.53098 0
M  V30 6010 C 578.116 -2.09179 0.284132 0
M  V30 6011 O 577.464 -2.16466 -0.731773 0
M  V30 6012 C 577.674 -2.03573 2.83477 0
M  V30 6013 C 579.022 -2.61264 3.34703 0
M  V30 6014 O 580.046 -2.13802 2.84898 0
M  V30 6015 O 578.905 -3.47779 4.21559 0
M  V30 6016 H 575.999 -0.553219 0.614718 0
M  V30 6017 H 578.545 -0.467003 1.63148 0
M  V30 6018 H 577.317 -1.39232 3.65691 0
M  V30 6019 H 576.94 -2.85716 2.76499 0
M  V30 6020 N 577.937 -1.40673 -0.710563 0
M  V30 6021 C 578.867 -1.44095 -1.83736 0
M  V30 6022 C 579.848 -0.301286 -1.67411 0
M  V30 6023 O 581.033 -0.510618 -1.87367 0
M  V30 6024 C 578.163 -1.30773 -3.21738 0
M  V30 6025 C 577.117 -2.42395 -3.52745 0
M  V30 6026 C 576.443 -2.14147 -4.89944 0
M  V30 6027 C 577.743 -3.84738 -3.53234 0
M  V30 6028 H 579.437 -2.38396 -1.81129 0
M  V30 6029 H 576.983 -1.14746 -0.870017 0
M  V30 6030 H 578.936 -1.31783 -4.00264 0
M  V30 6031 H 577.66 -0.329507 -3.24934 0
M  V30 6032 H 576.319 -2.40643 -2.76562 0
M  V30 6033 H 575.967 -1.14703 -4.89747 0
M  V30 6034 H 575.667 -2.88934 -5.11655 0
M  V30 6035 H 577.191 -2.16848 -5.70797 0
M  V30 6036 H 578.605 -3.88286 -4.2179 0
M  V30 6037 H 577.002 -4.59085 -3.86473 0
M  V30 6038 H 578.072 -4.13962 -2.52514 0
M  V30 6039 N 579.415 0.9433 -1.26252 0
M  V30 6040 C 580.347 2.04542 -1.03417 0
M  V30 6041 C 581.36 1.62799 0.0046911 0
M  V30 6042 O 582.549 1.76944 -0.235146 0
M  V30 6043 C 579.649 3.34511 -0.543671 0
M  V30 6044 C 578.822 4.05033 -1.65128 0
M  V30 6045 C 577.881 5.13273 -1.1592 0
M  V30 6046 O 576.907 5.38095 -1.85586 0
M  V30 6047 N 578.109 5.805 -0.00649279 0
M  V30 6048 H 580.874 2.24699 -1.98319 0
M  V30 6049 H 578.435 1.11264 -1.1761 0
M  V30 6050 H 580.427 4.04212 -0.198703 0
M  V30 6051 H 578.997 3.11042 0.311711 0
M  V30 6052 H 578.217 3.29275 -2.16729 0
M  V30 6053 H 579.505 4.48903 -2.39508 0
M  V30 6054 H 578.903 5.62767 0.575347 0
M  V30 6055 H 577.46 6.51201 0.279416 0
M  V30 6056 N 580.893 1.08022 1.14757 0
M  V30 6057 C 582.17 0.720386 1.81851 0
M  V30 6058 C 582.55 -0.796375 1.95502 0
M  V30 6059 O 581.898 -1.71339 1.51179 0
M  V30 6060 C 582.108 1.44273 3.17783 0
M  V30 6061 C 583.456 1.59925 3.93331 0
M  V30 6062 O 584.48 1.40407 3.2736 0
M  V30 6063 O 583.339 1.92096 5.11626 0
M  V30 6064 H 580.433 0.257142 0.786007 0
M  V30 6065 H 582.979 1.18155 1.21809 0
M  V30 6066 H 581.751 2.47618 3.02987 0
M  V30 6067 H 581.374 0.97279 3.85516 0
M  V30 6068 N 582.371 -1.3172 0.865308 0
M  V30 6069 C 583.301 -2.31109 0.333302 0
M  V30 6070 C 584.282 -1.60148 -0.573301 0
M  V30 6071 O 585.467 -1.87882 -0.491305 0
M  V30 6072 C 582.597 -3.44104 -0.470078 0
M  V30 6073 C 581.551 -4.26623 0.343021 0
M  V30 6074 C 580.877 -5.31482 -0.585756 0
M  V30 6075 C 582.177 -4.98001 1.57456 0
M  V30 6076 H 583.871 -2.75855 1.1638 0
M  V30 6077 H 581.417 -1.3262 0.561069 0
M  V30 6078 H 583.37 -4.12682 -0.852752 0
M  V30 6079 H 582.094 -2.98112 -1.33404 0
M  V30 6080 H 580.753 -3.59707 0.707583 0
M  V30 6081 H 580.401 -4.81741 -1.44686 0
M  V30 6082 H 580.101 -5.87582 -0.0456494 0
M  V30 6083 H 581.625 -6.0292 -0.965375 0
M  V30 6084 H 583.039 -5.59201 1.26359 0
M  V30 6085 H 581.436 -5.63876 2.05339 0
M  V30 6086 H 582.506 -4.25253 2.32997 0
M  V30 6087 N 583.85 -0.624285 -1.44708 0
M  V30 6088 C 584.779 0.0717025 -2.3339 0
M  V30 6089 C 585.76 0.841814 -1.47809 0
M  V30 6090 O 586.946 0.809056 -1.76544 0
M  V30 6091 C 584.076 1.05852 -3.30776 0
M  V30 6092 C 583.029 0.400503 -4.26122 0
M  V30 6093 C 582.356 1.49674 -5.13324 0
M  V30 6094 C 583.656 -0.688924 -5.17737 0
M  V30 6095 H 585.35 -0.668819 -2.91834 0
M  V30 6096 H 582.896 -0.32308 -1.40329 0
M  V30 6097 H 584.849 1.5541 -3.91696 0
M  V30 6098 H 583.572 1.82984 -2.70526 0
M  V30 6099 H 582.231 -0.0743687 -3.66525 0
M  V30 6100 H 581.88 2.25877 -4.49431 0
M  V30 6101 H 581.58 1.06188 -5.77926 0
M  V30 6102 H 583.104 1.99427 -5.77115 0
M  V30 6103 H 584.518 -0.276724 -5.72632 0
M  V30 6104 H 582.915 -1.04652 -5.90904 0
M  V30 6105 H 583.985 -1.55884 -4.5916 0
M  V30 6106 N 585.328 1.53329 -0.364422 0
M  V30 6107 C 586.291 2.24323 0.470292 0
M  V30 6108 C 587.291 1.25068 1.01067 0
M  V30 6109 O 588.481 1.49354 0.896605 0
M  V30 6110 C 585.613 2.97908 1.65722 0
M  V30 6111 H 586.806 2.9952 -0.150917 0
M  V30 6112 H 584.359 1.55868 -0.116092 0
M  V30 6113 H 585.094 2.2695 2.31655 0
M  V30 6114 H 584.879 3.70732 1.27671 0
M  V30 6115 H 586.369 3.5188 2.24878 0
M  V30 6116 N 586.806 0.0935595 1.57322 0
M  V30 6117 C 587.738 -0.895923 2.10964 0
M  V30 6118 C 588.751 -1.24705 1.04654 0
M  V30 6119 O 589.94 -1.20044 1.32105 0
M  V30 6120 C 587.04 -2.20546 2.57318 0
M  V30 6121 C 586.213 -2.0299 3.87445 0
M  V30 6122 C 585.272 -3.17443 4.19662 0
M  V30 6123 O 584.298 -2.91474 4.88909 0
M  V30 6124 N 585.5 -4.43168 3.74943 0
M  V30 6125 H 588.265 -0.437788 2.96485 0
M  V30 6126 H 585.826 -0.0915863 1.61641 0
M  V30 6127 H 587.818 -2.9606 2.75917 0
M  V30 6128 H 586.388 -2.57789 1.76816 0
M  V30 6129 H 585.608 -1.11815 3.78009 0
M  V30 6130 H 586.896 -1.88535 4.7258 0
M  V30 6131 H 586.294 -4.67149 3.19043 0
M  V30 6132 H 584.851 -5.15637 3.987 0
M  V30 6133 N 588.284 -1.56567 -0.180126 0
M  V30 6134 C 589.247 -1.94852 -1.20686 0
M  V30 6135 C 590.247 -0.831212 -1.3765 0
M  V30 6136 O 591.437 -1.09841 -1.35206 0
M  V30 6137 C 588.569 -2.23565 -2.57355 0
M  V30 6138 H 589.762 -2.86722 -0.879225 0
M  V30 6139 H 587.315 -1.50489 -0.422237 0
M  V30 6140 H 588.05 -1.34381 -2.95148 0
M  V30 6141 H 587.835 -3.04999 -2.46411 0
M  V30 6142 H 589.325 -2.54137 -3.31367 0
M  V30 6143 N 589.762 0.448376 -1.51087 0
M  V30 6144 C 590.672 1.56882 -1.74428 0
M  V30 6145 C 591.688 1.62268 -0.62809 0
M  V30 6146 O 592.864 1.79716 -0.909075 0
M  V30 6147 C 589.929 2.92947 -1.85426 0
M  V30 6148 C 588.99 2.97766 -3.09247 0
M  V30 6149 C 588.223 4.27341 -3.19711 0
M  V30 6150 O 588.446 5.19112 -2.36387 0
M  V30 6151 O 587.38 4.38219 -4.12611 0
M  V30 6152 H 591.206 1.40104 -2.69452 0
M  V30 6153 H 588.791 0.630247 -1.35456 0
M  V30 6154 H 590.673 3.73719 -1.94709 0
M  V30 6155 H 589.348 3.09876 -0.935887 0
M  V30 6156 H 588.255 2.15989 -3.0545 0
M  V30 6157 H 589.588 2.8578 -4.00738 0
M  V30 6158 N 591.24 1.41047 0.703093 0
M  V30 6159 C 592.17 1.45067 1.82969 0
M  V30 6160 C 593.151 0.31016 1.67248 0
M  V30 6161 O 594.336 0.520548 1.87093 0
M  V30 6162 C 591.466 1.32478 3.2104 0
M  V30 6163 C 590.42 2.44262 3.51454 0
M  V30 6164 C 589.746 2.16742 4.88801 0
M  V30 6165 C 591.046 3.86606 3.51189 0
M  V30 6166 H 592.74 2.39353 1.79863 0
M  V30 6167 H 590.286 1.15206 0.863919 0
M  V30 6168 H 592.239 1.33904 3.99559 0
M  V30 6169 H 590.963 0.346735 3.24754 0
M  V30 6170 H 589.622 2.42107 2.75282 0
M  V30 6171 H 589.27 1.17299 4.89132 0
M  V30 6172 H 588.97 2.91643 5.10116 0
M  V30 6173 H 590.494 2.19872 5.69639 0
M  V30 6174 H 591.908 3.90517 4.19725 0
M  V30 6175 H 590.305 4.61128 3.84033 0
M  V30 6176 H 591.375 4.15296 2.50315 0
M  V30 6177 N 592.718 -0.936591 1.26751 0
M  V30 6178 C 594.129 -1.49816 1.1141 0
M  V30 6179 C 594.48 -1.9383 -0.304015 0
M  V30 6180 O 593.605 -1.80346 -1.196 0
M  V30 6181 C 594.2 -2.72271 2.01629 0
M  V30 6182 C 592.759 -3.2468 1.9042 0
M  V30 6183 C 591.906 -1.97444 1.94708 0
M  V30 6184 H 594.857 -0.751604 1.39773 0
M  V30 6185 H 594.878 -3.46741 1.56688 0
M  V30 6186 H 594.39 -2.40205 3.04833 0
M  V30 6187 H 592.491 -3.61525 0.901674 0
M  V30 6188 H 592.604 -3.91476 2.76195 0
M  V30 6189 H 590.968 -2.13545 1.38818 0
M  V30 6190 H 591.751 -1.67703 2.9955 0
M  V30 6191 N 594.196 -1.08629 -1.14182 0
M  V30 6192 C 595.159 -0.722027 -2.1753 0
M  V30 6193 C 596.159 0.244305 -1.58933 0
M  V30 6194 O 597.349 0.0235545 -1.74184 0
M  V30 6195 C 594.481 -0.0663966 -3.40835 0
M  V30 6196 H 595.674 -1.63719 -2.51269 0
M  V30 6197 H 593.227 -0.884442 -1.28869 0
M  V30 6198 H 593.962 0.860389 -3.12678 0
M  V30 6199 H 593.747 -0.761598 -3.84632 0
M  V30 6200 H 595.237 0.173346 -4.1724 0
M  V30 6201 N 595.674 1.31259 -0.872281 0
M  V30 6202 C 596.923 1.95893 -0.480493 0
M  V30 6203 C 597.236 1.697 0.972688 0
M  V30 6204 O 598.442 2.28214 1.47073 0
M  V30 6205 C 596.898 3.50705 -0.808342 0
M  V30 6206 C 596.506 3.85735 -2.27844 0
M  V30 6207 C 598.25 4.21719 -0.485136 0
M  V30 6208 C 596.157 5.33668 -2.54858 0
M  V30 6209 H 595.087 0.733182 -0.175955 0
M  V30 6210 H 597.738 1.49396 -1.0655 0
M  V30 6211 H 596.12 3.95706 -0.152558 0
M  V30 6212 H 597.294 3.51686 -2.97748 0
M  V30 6213 H 595.609 3.27792 -2.56791 0
M  V30 6214 H 598.206 5.30559 -0.664166 0
M  V30 6215 H 598.549 4.12316 0.574592 0
M  V30 6216 H 599.082 3.82359 -1.09756 0
M  V30 6217 H 595.821 5.48109 -3.59523 0
M  V30 6218 H 595.341 5.69061 -1.8955 0
M  V30 6219 H 597.02 6.00958 -2.39706 0
M  V30 6220 N 597.152 0.631951 1.44375 0
M  V30 6221 C 598.082 -0.0593243 2.33425 0
M  V30 6222 C 599.063 -0.833964 1.48253 0
M  V30 6223 O 600.248 -0.799682 1.76971 0
M  V30 6224 C 597.378 -1.04096 3.31333 0
M  V30 6225 C 596.332 -0.377899 4.26328 0
M  V30 6226 C 595.658 -1.4695 5.14111 0
M  V30 6227 C 596.958 0.716371 5.17364 0
M  V30 6228 H 598.652 0.684287 2.91475 0
M  V30 6229 H 596.198 0.330518 1.40156 0
M  V30 6230 H 598.151 -1.53331 3.92514 0
M  V30 6231 H 596.875 -1.81547 2.71493 0
M  V30 6232 H 595.534 0.0938054 3.6648 0
M  V30 6233 H 595.182 -2.2349 4.50623 0
M  V30 6234 H 594.882 -1.03121 5.78481 0
M  V30 6235 H 596.406 -1.96363 5.78164 0
M  V30 6236 H 597.82 0.307089 5.72477 0
M  V30 6237 H 596.217 1.07784 5.90341 0
M  V30 6238 H 597.287 1.58316 4.58327 0
M  V30 6239 N 598.631 -1.53133 0.372548 0
M  V30 6240 C 599.581 -2.22733 -0.487218 0
M  V30 6241 C 600.565 -1.22506 -1.04312 0
M  V30 6242 O 601.757 -1.47923 -0.972005 0
M  V30 6243 C 598.886 -3.02524 -1.62278 0
M  V30 6244 C 597.972 -4.10133 -1.07943 0
M  V30 6245 N 598.363 -5.05133 -0.259629 0
M  V30 6246 C 596.661 -4.24964 -1.35356 0
M  V30 6247 C 597.362 -5.81687 0.0386656 0
M  V30 6248 N 596.338 -5.40699 -0.560827 0
M  V30 6249 H 600.14 -2.93538 0.145853 0
M  V30 6250 H 597.654 -1.61389 0.180938 0
M  V30 6251 H 599.651 -3.50909 -2.25096 0
M  V30 6252 H 598.311 -2.33252 -2.25884 0
M  V30 6253 H 599.322 -5.178 0.101746 0
M  V30 6254 H 595.999 -3.66919 -1.9919 0
M  V30 6255 H 597.389 -6.68224 0.701841 0
M  V30 6256 N 600.109 -0.101901 -1.5727 0
M  V30 6257 C 601.337 0.568392 -1.98939 0
M  V30 6258 C 601.752 1.61301 -0.981194 0
M  V30 6259 O 601.109 1.82478 0.0282869 0
M  V30 6260 C 601.16 1.20997 -3.40649 0
M  V30 6261 O 600.881 0.207129 -4.3761 0
M  V30 6262 C 602.382 1.96523 -3.97358 0
M  V30 6263 H 599.602 0.15186 -0.65359 0
M  V30 6264 H 602.146 -0.183198 -2.03678 0
M  V30 6265 H 600.301 1.91245 -3.36904 0
M  V30 6266 H 600.715 0.671071 -5.20189 0
M  V30 6267 H 602.189 2.36764 -4.98645 0
M  V30 6268 H 602.666 2.83376 -3.35552 0
M  V30 6269 H 603.272 1.31076 -4.04598 0
M  V30 6270 N 601.587 1.56661 0.17182 0
M  V30 6271 C 602.497 1.99604 1.2327 0
M  V30 6272 C 603.513 0.907333 1.4847 0
M  V30 6273 O 604.689 1.21492 1.60629 0
M  V30 6274 C 601.754 2.34685 2.55194 0
M  V30 6275 C 600.815 3.57381 2.3786 0
M  V30 6276 C 600.048 3.90779 3.63494 0
M  V30 6277 O 600.271 3.25152 4.6865 0
M  V30 6278 O 599.205 4.84129 3.57634 0
M  V30 6279 H 603.031 2.90114 0.898192 0
M  V30 6280 H 600.616 1.44522 0.378647 0
M  V30 6281 H 602.498 2.5822 3.33017 0
M  V30 6282 H 601.173 1.47336 2.88225 0
M  V30 6283 H 600.08 3.39064 1.5807 0
M  V30 6284 H 601.413 4.45268 2.09754 0
M  V30 6285 N 603.065 -0.440357 1.51323 0
M  V30 6286 C 603.995 -1.54174 1.75364 0
M  V30 6287 C 604.976 -1.59039 0.603375 0
M  V30 6288 O 606.161 -1.74815 0.845774 0
M  V30 6289 C 603.291 -2.92277 1.87593 0
M  V30 6290 C 602.245 -3.02274 3.03009 0
M  V30 6291 C 601.571 -4.42327 3.00418 0
M  V30 6292 C 602.871 -2.76634 4.43024 0
M  V30 6293 H 604.565 -1.34307 2.67585 0
M  V30 6294 H 602.111 -0.644678 1.28763 0
M  V30 6295 H 604.064 -3.69284 2.02995 0
M  V30 6296 H 602.788 -3.13369 0.920179 0
M  V30 6297 H 601.447 -2.27706 2.87307 0
M  V30 6298 H 601.095 -4.60382 2.02626 0
M  V30 6299 H 600.795 -4.49946 3.77918 0
M  V30 6300 H 602.319 -5.21312 3.17909 0
M  V30 6301 H 603.733 -3.43376 4.59093 0
M  V30 6302 H 602.13 -2.95666 5.22208 0
M  V30 6303 H 603.2 -1.72262 4.5327 0
M  V30 6304 N 604.543 -1.41418 -0.695603 0
M  V30 6305 C 605.491 -1.43467 -1.83084 0
M  V30 6306 C 606.485 -0.312719 -1.66489 0
M  V30 6307 O 607.691 -0.484744 -1.7335 0
M  V30 6308 H 604.066 -0.448891 -0.603325 0
M  V30 6309 H 606.037 -2.39144 -1.78473 0
M  V30 6310 C 604.786 -1.3337 -3.21104 0
M  V30 6311 H 604.109 -2.18989 -3.3449 0
M  V30 6312 H 605.549 -1.38865 -4.00615 0
M  V30 6313 C 604.008 -0.0460484 -3.36869 0
M  V30 6314 O 604.538 0.909258 -3.91274 0
M  V30 6315 N 602.744 0.0300222 -2.90584 0
M  V30 6316 H 602.291 -0.748129 -2.46497 0
M  V30 6317 H 602.249 0.890991 -3.01511 0
M  V30 6318 N 606.021 0.929856 -1.27246 0
M  V30 6319 C 606.951 2.04722 -1.12299 0
M  V30 6320 C 607.932 1.70082 -0.0250464 0
M  V30 6321 O 609.117 1.93176 -0.199141 0
M  V30 6322 C 606.247 3.38721 -0.767145 0
M  V30 6323 C 605.201 3.87466 -1.81808 0
M  V30 6324 C 604.527 5.18246 -1.31626 0
M  V30 6325 C 605.827 4.11095 -3.22177 0
M  V30 6326 H 607.521 2.17485 -2.05769 0
M  V30 6327 H 605.067 1.04503 -0.990715 0
M  V30 6328 H 607.02 4.16366 -0.649413 0
M  V30 6329 H 605.744 3.25967 0.203259 0
M  V30 6330 H 604.403 3.12012 -1.92468 0
M  V30 6331 H 604.051 5.01881 -0.335378 0
M  V30 6332 H 603.751 5.51829 -2.01887 0
M  V30 6333 H 605.275 5.98462 -1.21143 0
M  V30 6334 H 606.689 4.79316 -3.1453 0
M  V30 6335 H 605.086 4.55982 -3.90129 0
M  V30 6336 H 606.156 3.16468 -3.67391 0
M  V30 6337 N 607.499 1.09233 1.13605 0
M  V30 6338 C 608.431 0.687794 2.18637 0
M  V30 6339 C 609.444 -0.26936 1.60556 0
M  V30 6340 O 610.633 -0.0557162 1.78413 0
M  V30 6341 C 607.733 -0.00751901 3.38899 0
M  V30 6342 C 606.906 0.97067 4.26494 0
M  V30 6343 C 605.965 0.309129 5.25291 0
M  V30 6344 O 604.991 0.956149 5.61112 0
M  V30 6345 N 606.193 -0.937555 5.72879 0
M  V30 6346 H 608.958 1.59141 2.53957 0
M  V30 6347 H 606.519 0.979515 1.28907 0
M  V30 6348 H 608.511 -0.461238 4.02063 0
M  V30 6349 H 607.081 -0.813353 3.01833 0
M  V30 6350 H 606.301 1.603 3.60135 0
M  V30 6351 H 607.589 1.63323 4.81875 0
M  V30 6352 H 606.987 -1.48281 5.4592 0
M  V30 6353 H 605.544 -1.33463 6.3799 0
M  V30 6354 N 608.977 -1.30795 0.87923 0
M  V30 6355 C 609.924 -2.28282 0.339968 0
M  V30 6356 C 610.894 -1.56134 -0.566685 0
M  V30 6357 O 612.079 -1.84231 -0.496338 0
M  V30 6358 C 609.219 -3.42225 -0.444501 0
M  V30 6359 C 608.332 -4.29204 0.490717 0
M  V30 6360 C 607.467 -5.30302 -0.308784 0
M  V30 6361 C 606.506 -6.08929 0.622272 0
M  V30 6362 N 605.643 -7.01957 -0.14155 0
M  V30 6363 H 610.483 -2.73794 1.17647 0
M  V30 6364 H 608.02 -1.34682 0.591527 0
M  V30 6365 H 609.978 -4.07038 -0.915186 0
M  V30 6366 H 608.608 -2.97799 -1.24562 0
M  V30 6367 H 607.66 -3.6475 1.07988 0
M  V30 6368 H 608.972 -4.84045 1.20425 0
M  V30 6369 H 608.126 -6.00835 -0.841575 0
M  V30 6370 H 606.865 -4.7614 -1.05556 0
M  V30 6371 H 605.87 -5.37278 1.16674 0
M  V30 6372 H 607.095 -6.65178 1.36804 0
M  V30 6373 H 605.041 -6.50192 -0.870966 0
M  V30 6374 H 604.958 -7.54261 0.51246 0
M  V30 6375 H 606.226 -7.76741 -0.655271 0
M  V30 6376 N 610.455 -0.639598 -1.44038 0
M  V30 6377 C 611.385 0.0469443 -2.33453 0
M  V30 6378 C 612.366 0.82609 -1.48694 0
M  V30 6379 O 613.551 0.790285 -1.77393 0
M  V30 6380 C 610.681 1.02338 -3.3188 0
M  V30 6381 C 609.635 0.355284 -4.26523 0
M  V30 6382 C 608.961 1.44221 -5.14883 0
M  V30 6383 C 610.261 -0.743798 -5.16977 0
M  V30 6384 H 611.955 -0.699735 -2.91108 0
M  V30 6385 H 609.501 -0.337946 -1.39978 0
M  V30 6386 H 611.454 1.51247 -3.93322 0
M  V30 6387 H 610.178 1.80105 -2.72451 0
M  V30 6388 H 608.837 -0.113239 -3.66425 0
M  V30 6389 H 608.485 2.21097 -4.51802 0
M  V30 6390 H 608.185 1.00052 -5.79019 0
M  V30 6391 H 609.709 1.93295 -5.79197 0
M  V30 6392 H 611.123 -0.337444 -5.72306 0
M  V30 6393 H 609.52 -1.10914 -5.89761 0
M  V30 6394 H 610.59 -1.60745 -4.57481 0
M  V30 6395 N 611.933 1.52934 -0.380664 0
M  V30 6396 C 613.158 2.06363 0.207157 0
M  V30 6397 C 613.583 1.25122 1.4045 0
M  V30 6398 O 612.941 0.274062 1.79217 0
M  V30 6399 C 612.989 3.56162 0.563996 0
M  V30 6400 O 612.093 3.77552 1.65917 0
M  V30 6401 H 611.434 0.663468 0.0265859 0
M  V30 6402 H 613.964 1.9719 -0.545635 0
M  V30 6403 H 613.974 3.99453 0.830752 0
M  V30 6404 H 612.649 4.14732 -0.311427 0
M  V30 6405 H 611.226 3.46154 1.3868 0
M  V30 6406 N 613.412 0.11024 1.57214 0
M  V30 6407 C 614.36 -0.860586 2.16094 0
M  V30 6408 C 615.354 -1.28156 1.1078 0
M  V30 6409 O 616.56 -1.25433 1.29099 0
M  V30 6410 H 612.935 -0.295606 0.691463 0
M  V30 6411 H 614.906 -0.33942 2.96463 0
M  V30 6412 C 613.655 -2.10421 2.768 0
M  V30 6413 H 612.978 -1.7892 3.5753 0
M  V30 6414 H 614.418 -2.76375 3.21547 0
M  V30 6415 C 612.877 -2.88823 1.73444 0
M  V30 6416 O 613.407 -3.839 1.18251 0
M  V30 6417 N 611.613 -2.52649 1.43586 0
M  V30 6418 H 611.16 -1.754 1.8866 0
M  V30 6419 H 611.118 -3.05403 0.746735 0
M  V30 6420 N 614.89 -1.56749 -0.16351 0
M  V30 6421 C 616.167 -1.73321 -0.906599 0
M  V30 6422 C 616.547 -0.673779 -2.00059 0
M  V30 6423 O 615.895 0.310121 -2.26386 0
M  V30 6424 C 616.105 -3.168 -1.46419 0
M  V30 6425 C 617.453 -3.77993 -1.93407 0
M  V30 6426 O 618.477 -3.20127 -1.56196 0
M  V30 6427 O 617.336 -4.79615 -2.61976 0
M  V30 6428 H 614.43 -0.708073 -0.427272 0
M  V30 6429 H 616.976 -1.69029 -0.150727 0
M  V30 6430 H 615.748 -3.85396 -0.677189 0
M  V30 6431 H 615.371 -3.2545 -2.28403 0
M  V30 6432 N 616.368 0.432326 -1.51554 0
M  V30 6433 C 617.784 0.769195 -1.39841 0
M  V30 6434 C 617.984 1.95584 -0.484675 0
M  V30 6435 O 617.04 2.52433 0.0582829 0
M  V30 6436 C 618.353 1.04487 -2.81963 0
M  V30 6437 C 619.901 1.149 -2.91148 0
M  V30 6438 C 620.376 1.45758 -4.34187 0
M  V30 6439 N 621.867 1.52671 -4.37317 0
M  V30 6440 C 622.602 1.78129 -5.4503 0
M  V30 6441 N 622.098 2.01345 -6.62897 0
M  V30 6442 N 623.891 1.79953 -5.32516 0
M  V30 6443 H 616.042 -0.349122 -2.09511 0
M  V30 6444 H 618.305 -0.0938113 -0.943347 0
M  V30 6445 H 618.011 0.24557 -3.50842 0
M  V30 6446 H 617.885 1.97119 -3.21596 0
M  V30 6447 H 620.272 1.93891 -2.22464 0
M  V30 6448 H 620.353 0.201568 -2.55005 0
M  V30 6449 H 619.997 0.672917 -5.03423 0
M  V30 6450 H 619.927 2.41715 -4.67848 0
M  V30 6451 H 622.418 1.36612 -3.52343 0
M  V30 6452 H 622.731 2.20155 -7.40778 0
M  V30 6453 H 621.076 1.98657 -6.66003 0
M  V30 6454 H 624.267 1.61337 -4.39418 0
M  V30 6455 H 624.44 1.99455 -6.1654 0
M  V30 6456 N 617.846 1.41785 0.688094 0
M  V30 6457 C 619.095 1.4084 1.44385 0
M  V30 6458 C 619.408 0.0234166 1.95586 0
M  V30 6459 O 620.614 -0.108647 2.71283 0
M  V30 6460 C 619.07 2.47675 2.61123 0
M  V30 6461 C 618.678 3.92116 2.16677 0
M  V30 6462 C 620.422 2.55877 3.38714 0
M  V30 6463 C 618.329 4.90487 3.30419 0
M  V30 6464 H 617.259 0.523787 0.542368 0
M  V30 6465 H 619.91 1.6764 0.74627 0
M  V30 6466 H 618.292 2.14018 3.33185 0
M  V30 6467 H 619.466 4.35059 1.51856 0
M  V30 6468 H 617.781 3.87642 1.5206 0
M  V30 6469 H 620.378 3.26553 4.234 0
M  V30 6470 H 620.721 1.59801 3.84408 0
M  V30 6471 H 621.254 2.88662 2.73714 0
M  V30 6472 H 617.993 5.87994 2.89729 0
M  V30 6473 H 617.513 4.52187 3.94065 0
M  V30 6474 H 619.192 5.11591 3.96085 0
M  V30 6475 N 619.324 -0.923095 1.27737 0
M  V30 6476 C 620.74 -1.19985 1.05241 0
M  V30 6477 C 620.94 -2.00391 -0.21113 0
M  V30 6478 O 619.996 -2.35324 -0.915366 0
M  V30 6479 C 621.309 -1.94352 2.29451 0
M  V30 6480 C 622.857 -2.07273 2.34536 0
M  V30 6481 C 623.332 -2.85046 3.58487 0
M  V30 6482 N 624.823 -2.92612 3.59072 0
M  V30 6483 C 625.558 -3.53266 4.51654 0
M  V30 6484 N 625.054 -4.15274 5.54545 0
M  V30 6485 N 626.847 -3.50714 4.39268 0
M  V30 6486 H 618.998 -0.386042 2.08862 0
M  V30 6487 H 621.261 -0.233407 0.918817 0
M  V30 6488 H 620.967 -1.42692 3.21453 0
M  V30 6489 H 620.841 -2.94947 2.3513 0
M  V30 6490 H 623.228 -2.58117 1.43037 0
M  V30 6491 H 623.309 -1.05884 2.32857 0
M  V30 6492 H 622.953 -2.34884 4.50324 0
M  V30 6493 H 622.883 -3.8673 3.57418 0
M  V30 6494 H 625.374 -2.48547 2.84663 0
M  V30 6495 H 625.687 -4.59507 6.21348 0
M  V30 6496 H 624.032 -4.13806 5.58382 0
M  V30 6497 H 627.223 -3.01475 3.58093 0
M  V30 6498 H 627.396 -3.97693 5.1161 0
M  V30 6499 N 620.802 -1.09834 -1.13024 0
M  V30 6500 C 622.048 -0.83819 -1.84668 0
M  V30 6501 C 622.381 0.634645 -1.83537 0
M  V30 6502 O 621.656 1.46753 -1.27647 0
M  V30 6503 C 621.939 -1.37933 -3.32636 0
M  V30 6504 C 621.792 -2.91857 -3.42257 0
M  V30 6505 C 623.111 -1.01654 -4.28199 0
M  V30 6506 H 620.23 -0.30595 -0.670495 0
M  V30 6507 H 622.872 -1.36044 -1.32635 0
M  V30 6508 H 621.022 -0.935111 -3.77078 0
M  V30 6509 H 622.694 -3.44759 -3.06495 0
M  V30 6510 H 620.937 -3.28776 -2.83 0
M  V30 6511 H 621.608 -3.24799 -4.46329 0
M  V30 6512 H 624.084 -1.39973 -3.9185 0
M  V30 6513 H 622.96 -1.42217 -5.30156 0
M  V30 6514 H 623.221 0.0747794 -4.42037 0
M  V30 6515 N 622.28 1.30327 -0.886154 0
M  V30 6516 C 623.528 1.9571 -0.504195 0
M  V30 6517 C 623.849 1.70294 0.950003 0
M  V30 6518 O 623.119 1.02718 1.66811 0
M  V30 6519 H 621.699 0.72412 -0.183465 0
M  V30 6520 H 624.361 1.58835 -1.12949 0
M  V30 6521 H 623.457 3.04704 -0.675431 0
M  V30 6522 N 623.758 0.647228 1.43697 0
M  V30 6523 C 624.668 -0.0487997 2.34549 0
M  V30 6524 C 625.684 -0.818586 1.53542 0
M  V30 6525 O 626.86 -0.767195 1.86215 0
M  V30 6526 C 623.925 -1.00734 3.31743 0
M  V30 6527 C 622.986 -0.23515 4.28655 0
M  V30 6528 C 622.219 -1.14803 5.21206 0
M  V30 6529 O 622.442 -2.38717 5.18045 0
M  V30 6530 O 621.376 -0.623667 5.9866 0
M  V30 6531 H 625.202 0.698863 2.9555 0
M  V30 6532 H 622.787 0.407412 1.43738 0
M  V30 6533 H 624.669 -1.55837 3.91526 0
M  V30 6534 H 623.344 -1.73534 2.73254 0
M  V30 6535 H 622.251 0.359319 3.7237 0
M  V30 6536 H 623.584 0.453152 4.9011 0
M  V30 6537 N 625.236 -1.5273 0.388769 0
M  V30 6538 C 626.482 -2.01871 -0.193877 0
M  V30 6539 C 626.815 -1.27475 -1.46505 0
M  V30 6540 O 626.09 -0.375063 -1.90849 0
M  V30 6541 C 626.373 -3.5712 -0.462336 0
M  V30 6542 C 626.226 -4.42186 0.824091 0
M  V30 6543 C 627.545 -4.21881 -1.25319 0
M  V30 6544 H 624.664 -0.733764 -0.0689899 0
M  V30 6545 H 627.306 -1.82796 0.518231 0
M  V30 6546 H 625.456 -3.73504 -1.06896 0
M  V30 6547 H 627.128 -4.37554 1.46096 0
M  V30 6548 H 625.371 -4.09219 1.43952 0
M  V30 6549 H 626.042 -5.48828 0.590905 0
M  V30 6550 H 628.518 -4.0947 -0.73981 0
M  V30 6551 H 627.394 -5.30487 -1.40977 0
M  V30 6552 H 627.655 -3.79478 -2.26824 0
M  V30 6553 N 626.714 -0.118576 -1.57153 0
M  V30 6554 C 627.644 0.828436 -2.1831 0
M  V30 6555 C 628.625 1.27758 -1.12303 0
M  V30 6556 O 629.81 1.34026 -1.40537 0
M  V30 6557 C 626.94 2.07876 -2.78217 0
M  V30 6558 C 625.894 1.76742 -3.89803 0
M  V30 6559 C 625.22 3.08801 -4.36516 0
M  V30 6560 C 626.52 1.03606 -5.11921 0
M  V30 6561 H 628.214 0.318824 -2.97698 0
M  V30 6562 H 625.76 0.151911 -1.43196 0
M  V30 6563 H 627.713 2.74584 -3.19659 0
M  V30 6564 H 626.437 2.61161 -1.96118 0
M  V30 6565 H 625.096 1.12424 -3.48936 0
M  V30 6566 H 624.744 3.6002 -3.51276 0
M  V30 6567 H 624.444 2.88743 -5.11763 0
M  V30 6568 H 625.968 3.76627 -4.80608 0
M  V30 6569 H 627.382 1.60467 -5.50385 0
M  V30 6570 H 625.779 0.936454 -5.92748 0
M  V30 6571 H 626.849 0.0227421 -4.84895 0
M  V30 6572 N 628.193 1.56834 0.155195 0
M  V30 6573 C 629.141 1.98584 1.21107 0
M  V30 6574 C 630.135 0.876987 1.44932 0
M  V30 6575 O 631.341 1.06215 1.45322 0
M  V30 6576 H 627.716 0.632039 0.407469 0
M  V30 6577 H 629.687 2.86561 0.832195 0
M  V30 6578 C 628.436 2.37555 2.53895 0
M  V30 6579 H 627.759 3.22428 2.3639 0
M  V30 6580 H 629.199 2.70598 3.26424 0
M  V30 6581 C 627.658 1.22507 3.13837 0
M  V30 6582 O 628.188 0.521388 3.98302 0
M  V30 6583 N 626.394 0.991444 2.73164 0
M  V30 6584 H 625.941 1.56544 2.04577 0
M  V30 6585 H 625.899 0.223546 3.13604 0
M  V30 6586 N 629.671 -0.424282 1.51781 0
M  V30 6587 C 630.896 -1.19928 1.6921 0
M  V30 6588 C 631.321 -1.8392 0.394355 0
M  V30 6589 O 630.679 -1.69371 -0.646778 0
M  V30 6590 C 630.727 -2.24937 2.81843 0
M  V30 6591 O 629.831 -3.3073 2.46356 0
M  V30 6592 H 629.172 -0.35078 0.563781 0
M  V30 6593 H 631.702 -0.499401 1.98412 0
M  V30 6594 H 631.712 -2.69512 3.06312 0
M  V30 6595 H 630.387 -1.77742 3.76006 0
M  V30 6596 H 628.964 -2.9154 2.32505 0
M  V30 6597 N 631.149 -1.42148 -0.680565 0
M  V30 6598 C 632.398 -1.41604 -1.43636 0
M  V30 6599 C 632.711 -0.0337887 -1.95571 0
M  V30 6600 O 633.917 0.0942588 -2.71336 0
M  V30 6601 C 632.373 -2.49056 -2.59806 0
M  V30 6602 C 631.981 -3.9326 -2.14594 0
M  V30 6603 C 633.725 -2.5767 -3.37352 0
M  V30 6604 C 631.632 -4.92232 -3.27813 0
M  V30 6605 H 630.562 -0.526656 -0.539583 0
M  V30 6606 H 633.213 -1.68033 -0.737369 0
M  V30 6607 H 631.595 -2.15782 -3.32045 0
M  V30 6608 H 632.769 -4.35858 -1.49546 0
M  V30 6609 H 631.084 -3.88443 -1.50002 0
M  V30 6610 H 633.681 -3.28794 -4.21662 0
M  V30 6611 H 634.024 -1.61837 -3.83555 0
M  V30 6612 H 634.557 -2.90109 -2.72179 0
M  V30 6613 H 631.296 -5.89522 -2.86607 0
M  V30 6614 H 630.816 -4.5427 -3.91661 0
M  V30 6615 H 632.495 -5.13684 -3.93367 0
M  V30 6616 N 632.627 0.916307 -1.28225 0
M  V30 6617 C 633.874 1.66518 -1.1523 0
M  V30 6618 C 634.202 1.92178 0.299632 0
M  V30 6619 O 633.457 1.51842 1.2346 0
M  V30 6620 C 633.756 3.03125 -1.8934 0
M  V30 6621 C 633.422 2.97135 -3.39148 0
M  V30 6622 C 632.084 2.95208 -3.80007 0
M  V30 6623 C 634.436 2.87574 -4.34685 0
M  V30 6624 C 631.764 2.81518 -5.14747 0
M  V30 6625 C 634.116 2.75424 -5.69495 0
M  V30 6626 C 632.78 2.71854 -6.09632 0
M  V30 6627 H 632.05 0.609334 -0.421655 0
M  V30 6628 H 634.697 1.06776 -1.58969 0
M  V30 6629 H 633.002 3.66639 -1.38143 0
M  V30 6630 H 634.699 3.59968 -1.76704 0
M  V30 6631 H 631.289 2.99428 -3.06661 0
M  V30 6632 H 635.473 2.88152 -4.04082 0
M  V30 6633 H 630.729 2.77148 -5.44976 0
M  V30 6634 H 634.903 2.66993 -6.43185 0
M  V30 6635 H 632.53 2.61003 -7.1399 0
M  V30 6636 N 634.105 1.10431 1.1244 0
M  V30 6637 C 635.352 0.846717 1.83948 0
M  V30 6638 C 635.68 -0.627709 1.84093 0
M  V30 6639 O 634.935 -1.47876 1.28184 0
M  V30 6640 C 635.234 1.34022 3.3132 0
M  V30 6641 C 634.9 2.82606 3.51347 0
M  V30 6642 C 633.562 3.23182 3.56521 0
M  V30 6643 C 635.914 3.78356 3.58464 0
M  V30 6644 C 633.242 4.58258 3.66356 0
M  V30 6645 C 635.594 5.13234 3.69829 0
M  V30 6646 C 634.258 5.53384 3.73259 0
M  V30 6647 H 633.528 0.309836 0.673114 0
M  V30 6648 H 636.175 1.38091 1.32677 0
M  V30 6649 H 634.48 0.726047 3.85014 0
M  V30 6650 H 636.177 1.11739 3.85118 0
M  V30 6651 H 632.767 2.50212 3.47983 0
M  V30 6652 H 636.951 3.48115 3.53737 0
M  V30 6653 H 632.207 4.88787 3.67284 0
M  V30 6654 H 636.381 5.87272 3.74279 0
M  V30 6655 H 634.008 6.58045 3.80633 0
M  V30 6656 N 635.583 -1.29855 0.893053 0
M  V30 6657 C 636.493 -2.31661 0.370157 0
M  V30 6658 C 637.509 -1.65677 -0.531723 0
M  V30 6659 O 638.685 -1.9691 -0.422902 0
M  V30 6660 C 635.75 -3.44388 -0.399741 0
M  V30 6661 C 634.811 -4.2598 0.532861 0
M  V30 6662 C 634.044 -5.33324 -0.200388 0
M  V30 6663 O 634.267 -5.52305 -1.42531 0
M  V30 6664 O 633.201 -6.00188 0.453668 0
M  V30 6665 H 637.027 -2.78354 1.2146 0
M  V30 6666 H 634.612 -1.34171 0.657153 0
M  V30 6667 H 636.494 -4.13037 -0.835358 0
M  V30 6668 H 635.169 -2.99815 -1.22035 0
M  V30 6669 H 634.076 -3.59998 1.01746 0
M  V30 6670 H 635.409 -4.74178 1.3197 0
M  V30 6671 N 637.061 -0.65484 -1.43351 0
M  V30 6672 C 637.991 0.0221809 -2.33489 0
M  V30 6673 C 638.972 0.810272 -1.49561 0
M  V30 6674 O 640.157 0.771426 -1.78221 0
M  V30 6675 C 637.287 0.988117 -3.32947 0
M  V30 6676 C 636.241 0.310026 -4.26876 0
M  V30 6677 C 635.567 1.38752 -5.16384 0
M  V30 6678 C 636.867 -0.798589 -5.16159 0
M  V30 6679 H 638.561 -0.730571 -2.9035 0
M  V30 6680 H 636.107 -0.352773 -1.39612 0
M  V30 6681 H 638.06 1.47067 -3.94904 0
M  V30 6682 H 636.784 1.77205 -2.74346 0
M  V30 6683 H 635.443 -0.152097 -3.66284 0
M  V30 6684 H 635.091 2.16293 -4.54121 0
M  V30 6685 H 634.791 0.939051 -5.80048 0
M  V30 6686 H 636.315 1.87141 -5.81215 0
M  V30 6687 H 637.729 -0.398126 -5.71916 0
M  V30 6688 H 636.126 -1.17163 -5.88552 0
M  V30 6689 H 637.196 -1.65588 -4.55751 0
M  V30 6690 N 638.539 1.52521 -0.396863 0
M  V30 6691 C 639.449 2.30403 0.44178 0
M  V30 6692 C 640.465 1.37625 1.06468 0
M  V30 6693 O 641.641 1.70697 1.06886 0
M  V30 6694 C 638.706 3.1013 1.54986 0
M  V30 6695 C 637.767 4.18628 0.951279 0
M  V30 6696 C 637 4.94543 2.00655 0
M  V30 6697 O 637.223 4.70629 3.22281 0
M  V30 6698 O 636.157 5.797 1.61962 0
M  V30 6699 H 639.983 3.03087 -0.192892 0
M  V30 6700 H 637.568 1.48537 -0.16038 0
M  V30 6701 H 639.45 3.59816 2.19341 0
M  V30 6702 H 638.125 2.40251 2.16935 0
M  V30 6703 H 637.032 3.73119 0.270773 0
M  V30 6704 H 638.365 4.90763 0.375887 0
M  V30 6705 N 640.017 0.126909 1.57088 0
M  V30 6706 C 640.98 -0.806097 2.14557 0
M  V30 6707 C 641.98 -1.18918 1.08236 0
M  V30 6708 O 643.17 -1.11339 1.33975 0
M  V30 6709 C 640.302 -2.09116 2.69227 0
M  V30 6710 H 641.495 -0.306522 2.98329 0
M  V30 6711 H 639.048 -0.122393 1.5582 0
M  V30 6712 H 639.783 -2.63486 1.89065 0
M  V30 6713 H 639.568 -1.82588 3.46993 0
M  V30 6714 H 641.058 -2.75794 3.13572 0
M  V30 6715 N 641.495 -1.56914 -0.146875 0
M  V30 6716 C 642.772 -1.74273 -0.888165 0
M  V30 6717 C 643.152 -0.69496 -1.99333 0
M  V30 6718 O 642.5 0.286093 -2.26702 0
M  V30 6719 C 642.71 -3.18336 -1.43051 0
M  V30 6720 C 644.058 -3.80024 -1.89387 0
M  V30 6721 O 645.082 -3.21765 -1.52792 0
M  V30 6722 O 643.941 -4.82367 -2.56874 0
M  V30 6723 H 641.035 -0.712565 -0.419738 0
M  V30 6724 H 643.581 -1.6918 -0.132791 0
M  V30 6725 H 642.353 -3.86092 -0.636274 0
M  V30 6726 H 641.976 -3.27854 -2.24938 0
M  V30 6727 N 642.974 0.416227 -1.52004 0
M  V30 6728 C 643.884 1.53147 -1.77717 0
M  V30 6729 C 644.9 1.609 -0.662368 0
M  V30 6730 O 646.076 1.77747 -0.946991 0
M  V30 6731 C 643.141 2.88948 -1.91598 0
M  V30 6732 C 642.202 2.9114 -3.15493 0
M  V30 6733 C 641.435 4.20464 -3.28703 0
M  V30 6734 O 641.658 5.13981 -2.47345 0
M  V30 6735 O 640.592 4.29368 -4.21813 0
M  V30 6736 H 644.418 1.34357 -2.72363 0
M  V30 6737 H 642.003 0.601373 -1.36762 0
M  V30 6738 H 643.885 3.69505 -2.02593 0
M  V30 6739 H 642.56 3.07821 -1.00141 0
M  V30 6740 H 641.467 2.09461 -3.09962 0
M  V30 6741 H 642.8 2.77216 -4.06709 0
M  V30 6742 N 644.452 1.42507 0.673017 0
M  V30 6743 C 645.868 1.25472 0.986355 0
M  V30 6744 C 646.068 0.160181 2.00862 0
M  V30 6745 O 645.124 -0.467993 2.48125 0
M  V30 6746 C 646.437 2.61219 1.48947 0
M  V30 6747 C 647.985 2.68589 1.60715 0
M  V30 6748 C 648.46 4.04707 2.14422 0
M  V30 6749 N 649.951 4.0667 2.21752 0
M  V30 6750 C 650.686 5.0881 2.64386 0
M  V30 6751 N 650.182 6.21332 3.0646 0
M  V30 6752 N 651.975 4.96166 2.64151 0
M  V30 6753 H 644.126 2.124 -0.00378532 0
M  V30 6754 H 646.389 0.946046 0.0608367 0
M  V30 6755 H 646.095 3.42179 0.812812 0
M  V30 6756 H 645.969 2.85261 2.46791 0
M  V30 6757 H 648.356 1.87974 2.27486 0
M  V30 6758 H 648.437 2.48333 0.613552 0
M  V30 6759 H 648.081 4.8578 1.48258 0
M  V30 6760 H 648.011 4.22315 3.14575 0
M  V30 6761 H 650.502 3.25438 1.92089 0
M  V30 6762 H 650.815 6.95118 3.37684 0
M  V30 6763 H 649.16 6.24835 3.04313 0
M  V30 6764 H 652.351 4.07334 2.30644 0
M  V30 6765 H 652.524 5.759 2.97057 0
M  V30 6766 N 645.93 -0.909495 1.28709 0
M  V30 6767 C 646.84 -2.04558 1.14861 0
M  V30 6768 C 647.856 -1.73842 0.0741621 0
M  V30 6769 O 649.032 -1.99383 0.2843 0
M  V30 6770 C 646.097 -3.36957 0.816148 0
M  V30 6771 C 645.158 -3.81255 1.97341 0
M  V30 6772 C 644.391 -5.07335 1.65671 0
M  V30 6773 O 644.614 -5.67514 0.573053 0
M  V30 6774 O 643.548 -5.47449 2.50167 0
M  V30 6775 H 647.374 -2.19161 2.10243 0
M  V30 6776 H 644.959 -1.03159 1.08068 0
M  V30 6777 H 646.841 -4.16436 0.644873 0
M  V30 6778 H 645.516 -3.2352 -0.107983 0
M  V30 6779 H 644.423 -3.02584 2.19986 0
M  V30 6780 H 645.756 -3.99261 2.87839 0
M  V30 6781 N 647.408 -1.11026 -1.11852 0
M  V30 6782 C 648.819 -0.873203 -1.65021 0
M  V30 6783 C 649.17 0.595364 -1.86949 0
M  V30 6784 O 648.295 1.45645 -1.60051 0
M  V30 6785 C 648.89 -1.57859 -2.99777 0
M  V30 6786 C 647.449 -1.38807 -3.49871 0
M  V30 6787 C 646.596 -1.62403 -2.24768 0
M  V30 6788 H 649.547 -1.26712 -0.955503 0
M  V30 6789 H 649.568 -1.02111 -3.66543 0
M  V30 6790 H 649.08 -2.6474 -2.83786 0
M  V30 6791 H 647.181 -0.341163 -3.71035 0
M  V30 6792 H 647.294 -2.13421 -4.28938 0
M  V30 6793 H 645.658 -1.04714 -2.32179 0
M  V30 6794 H 646.441 -2.70549 -2.11324 0
M  V30 6795 N 648.886 1.2938 -0.899927 0
M  V30 6796 C 650.114 1.99691 -0.541386 0
M  V30 6797 C 650.529 1.67355 0.873936 0
M  V30 6798 O 649.886 0.918728 1.57688 0
M  V30 6799 C 649.937 3.54168 -0.72438 0
M  V30 6800 O 649.658 3.85359 -2.08399 0
M  V30 6801 C 651.159 4.41746 -0.370819 0
M  V30 6802 H 648.379 0.638037 -0.207726 0
M  V30 6803 H 650.923 1.6491 -1.20934 0
M  V30 6804 H 649.078 3.87261 -0.103607 0
M  V30 6805 H 649.492 4.80032 -2.11352 0
M  V30 6806 H 650.966 5.49256 -0.549693 0
M  V30 6807 H 651.443 4.33712 0.692148 0
M  V30 6808 H 652.049 4.14125 -0.968543 0
M  V30 6809 N 650.364 0.662433 1.43002 0
M  V30 6810 C 651.274 -0.0239199 2.34588 0
M  V30 6811 C 652.29 -0.802255 1.54402 0
M  V30 6812 O 653.466 -0.747401 1.87018 0
M  V30 6813 C 650.531 -0.972098 3.32793 0
M  V30 6814 C 649.592 -0.189673 4.28881 0
M  V30 6815 C 648.825 -1.09269 5.22395 0
M  V30 6816 O 649.048 -2.33209 5.20547 0
M  V30 6817 O 647.982 -0.560136 5.99288 0
M  V30 6818 H 651.808 0.730171 2.94792 0
M  V30 6819 H 649.393 0.422635 1.43297 0
M  V30 6820 H 651.275 -1.51676 3.93157 0
M  V30 6821 H 649.95 -1.70626 2.75079 0
M  V30 6822 H 648.857 0.398794 3.71968 0
M  V30 6823 H 650.19 0.50511 4.89601 0
M  V30 6824 N 651.842 -1.52309 0.404946 0
M  V30 6825 C 653.067 -2.06666 -0.1743 0
M  V30 6826 C 653.492 -1.27341 -1.38441 0
M  V30 6827 O 652.85 -0.302539 -1.78758 0
M  V30 6828 C 652.898 -3.57014 -0.507262 0
M  V30 6829 O 652.002 -3.80144 -1.59889 0
M  V30 6830 H 651.343 -0.663807 -0.0160273 0
M  V30 6831 H 653.873 -1.96297 0.576937 0
M  V30 6832 H 653.883 -4.00724 -0.767098 0
M  V30 6833 H 652.558 -4.14184 0.377368 0
M  V30 6834 H 651.135 -3.48316 -1.33155 0
M  V30 6835 N 653.32 -0.135238 -1.57019 0
M  V30 6836 C 654.548 0.526066 -2.001 0
M  V30 6837 C 654.963 1.59184 -1.01519 0
M  V30 6838 O 654.32 1.82497 -0.0104258 0
M  V30 6839 C 654.371 1.13744 -3.43139 0
M  V30 6840 O 654.092 0.114259 -4.37951 0
M  V30 6841 C 655.593 1.8805 -4.01438 0
M  V30 6842 H 652.813 0.137962 -0.656664 0
M  V30 6843 H 655.357 -0.226359 -2.03243 0
M  V30 6844 H 653.512 1.84056 -3.40885 0
M  V30 6845 H 653.926 0.56058 -5.21496 0
M  V30 6846 H 655.4 2.26133 -5.03555 0
M  V30 6847 H 655.877 2.76194 -3.41487 0
M  V30 6848 H 656.483 1.22464 -4.07287 0
M  V30 6849 N 654.798 1.5699 0.138552 0
M  V30 6850 C 655.73 1.95515 1.1961 0
M  V30 6851 C 656.743 0.852002 1.38726 0
M  V30 6852 O 657.932 1.13038 1.38147 0
M  V30 6853 C 655.032 2.2213 2.55952 0
M  V30 6854 C 654.205 3.53424 2.57702 0
M  V30 6855 C 653.264 3.6848 3.75645 0
M  V30 6856 O 652.29 4.4079 3.60129 0
M  V30 6857 N 653.492 3.05777 4.93438 0
M  V30 6858 H 656.257 2.86838 0.868557 0
M  V30 6859 H 653.818 1.58542 0.328033 0
M  V30 6860 H 655.81 2.29435 3.33379 0
M  V30 6861 H 654.38 1.3703 2.80965 0
M  V30 6862 H 653.6 3.57484 1.6613 0
M  V30 6863 H 654.888 4.39759 2.55909 0
M  V30 6864 H 654.286 2.46961 5.08947 0
M  V30 6865 H 652.843 3.18631 5.6861 0
M  V30 6866 N 656.276 -0.40816 1.52223 0
M  V30 6867 C 657.208 -1.51642 1.71864 0
M  V30 6868 C 658.221 -1.51378 0.599056 0
M  V30 6869 O 659.41 -1.55626 0.874239 0
M  V30 6870 C 656.51 -2.90534 1.74481 0
M  V30 6871 C 655.683 -3.14979 3.03491 0
M  V30 6872 C 654.742 -4.33749 2.97907 0
M  V30 6873 O 653.768 -4.30982 3.71811 0
M  V30 6874 N 654.97 -5.38912 2.15764 0
M  V30 6875 H 657.735 -1.35188 2.67478 0
M  V30 6876 H 655.296 -0.597468 1.50472 0
M  V30 6877 H 657.288 -3.68056 1.68275 0
M  V30 6878 H 655.858 -3.00441 0.863363 0
M  V30 6879 H 655.078 -2.25492 3.23337 0
M  V30 6880 H 656.366 -3.28156 3.88833 0
M  V30 6881 H 655.764 -5.44008 1.55152 0
M  V30 6882 H 654.321 -6.15174 2.15415 0
M  V30 6883 N 657.755 -1.42862 -0.66545 0
M  V30 6884 C 658.685 -1.49867 -1.79059 0
M  V30 6885 C 659.666 -0.354394 -1.66367 0
M  V30 6886 O 660.851 -0.569969 -1.85647 0
M  V30 6887 C 657.981 -1.40943 -3.17415 0
M  V30 6888 C 656.935 -2.53495 -3.44854 0
M  V30 6889 C 656.261 -2.29626 -4.82883 0
M  V30 6890 C 657.561 -3.95781 -3.40815 0
M  V30 6891 H 659.255 -2.44037 -1.73453 0
M  V30 6892 H 656.801 -1.17456 -0.833071 0
M  V30 6893 H 658.754 -1.4445 -3.95869 0
M  V30 6894 H 657.478 -0.432716 -3.23721 0
M  V30 6895 H 656.137 -2.4932 -2.68766 0
M  V30 6896 H 655.785 -1.30226 -4.8585 0
M  V30 6897 H 655.485 -3.05065 -5.02204 0
M  V30 6898 H 657.009 -2.34897 -5.63609 0
M  V30 6899 H 658.423 -4.01508 -4.09224 0
M  V30 6900 H 656.82 -4.71148 -3.71672 0
M  V30 6901 H 657.89 -4.21786 -2.39216 0
M  V30 6902 N 659.233 0.902656 -1.29189 0
M  V30 6903 C 660.181 2.0278 -1.13943 0
M  V30 6904 C 661.175 1.69308 -0.055787 0
M  V30 6905 O 662.381 1.78707 -0.215371 0
M  V30 6906 H 658.756 0.664595 -0.351877 0
M  V30 6907 H 660.727 2.12778 -2.09208 0
M  V30 6908 C 659.476 3.37657 -0.82966 0
M  V30 6909 H 658.799 3.63913 -1.65551 0
M  V30 6910 H 660.239 4.17078 -0.762998 0
M  V30 6911 C 658.698 3.33648 0.466991 0
M  V30 6912 O 659.228 3.72886 1.49395 0
M  V30 6913 N 657.434 2.86745 0.471761 0
M  V30 6914 H 656.981 2.55009 -0.364406 0
M  V30 6915 H 656.939 2.84446 1.33933 0
M  V30 6916 N 660.711 1.11618 1.11262 0
M  V30 6917 C 661.658 0.7762 2.17356 0
M  V30 6918 C 662.628 -0.253152 1.6416 0
M  V30 6919 O 663.813 -0.129655 1.90359 0
M  V30 6920 C 660.953 0.227581 3.44349 0
M  V30 6921 C 660.066 1.31372 4.1154 0
M  V30 6922 C 659.201 0.72544 5.26223 0
M  V30 6923 C 658.24 1.7913 5.85302 0
M  V30 6924 N 657.377 1.22237 6.91377 0
M  V30 6925 H 662.217 1.68508 2.45783 0
M  V30 6926 H 659.754 0.841475 1.20655 0
M  V30 6927 H 661.712 -0.108483 4.17059 0
M  V30 6928 H 660.342 -0.644486 3.16301 0
M  V30 6929 H 659.394 1.7667 3.36885 0
M  V30 6930 H 660.706 2.12005 4.51504 0
M  V30 6931 H 659.86 0.339541 6.05749 0
M  V30 6932 H 658.599 -0.112188 4.87571 0
M  V30 6933 H 657.604 2.18648 5.04453 0
M  V30 6934 H 658.829 2.63199 6.26022 0
M  V30 6935 H 656.775 0.406423 6.5474 0
M  V30 6936 H 656.692 1.9654 7.30006 0
M  V30 6937 H 657.96 0.863426 7.74703 0
M  V30 6938 N 662.189 -1.289 0.906776 0
M  V30 6939 C 663.6 -1.77336 0.58384 0
M  V30 6940 C 663.951 -1.74304 -0.900697 0
M  V30 6941 O 663.076 -1.33335 -1.70443 0
M  V30 6942 C 663.671 -3.22019 1.05304 0
M  V30 6943 C 662.23 -3.68205 0.781148 0
M  V30 6944 C 661.377 -2.48837 1.22373 0
M  V30 6945 H 664.328 -1.15462 1.08877 0
M  V30 6946 H 664.349 -3.78481 0.391414 0
M  V30 6947 H 663.861 -3.24194 2.13353 0
M  V30 6948 H 661.962 -3.71497 -0.28643 0
M  V30 6949 H 662.075 -4.58675 1.384 0
M  V30 6950 H 660.439 -2.46461 0.642594 0
M  V30 6951 H 661.222 -2.53736 2.31242 0
M  V30 6952 N 663.667 -0.670007 -1.42649 0
M  V30 6953 C 664.577 0.0114788 -2.34597 0
M  V30 6954 C 665.593 0.794055 -1.54825 0
M  V30 6955 O 666.769 0.737472 -1.87412 0
M  V30 6956 C 663.834 0.954436 -3.33304 0
M  V30 6957 C 662.895 0.166925 -4.28975 0
M  V30 6958 C 662.128 1.06497 -5.22967 0
M  V30 6959 O 662.351 2.30446 -5.21777 0
M  V30 6960 O 661.285 0.528347 -5.99577 0
M  V30 6961 H 665.111 -0.745794 -2.944 0
M  V30 6962 H 662.696 -0.430228 -1.43071 0
M  V30 6963 H 664.578 1.49589 -3.93956 0
M  V30 6964 H 663.253 1.69164 -2.7598 0
M  V30 6965 H 662.16 -0.418515 -3.71752 0
M  V30 6966 H 663.493 -0.531067 -4.89327 0
M  V30 6967 N 665.145 1.52092 -0.413018 0
M  V30 6968 C 666.391 2.02154 0.161737 0
M  V30 6969 C 666.724 1.29789 1.44459 0
M  V30 6970 O 665.999 0.405378 1.90229 0
M  V30 6971 C 666.282 3.5781 0.405463 0
M  V30 6972 C 666.135 4.40819 -0.894335 0
M  V30 6973 C 667.454 4.23821 1.18591 0
M  V30 6974 H 664.573 0.734769 0.0573077 0
M  V30 6975 H 667.215 1.81948 -0.547247 0
M  V30 6976 H 665.365 3.75158 1.0094 0
M  V30 6977 H 667.037 4.35175 -1.53039 0
M  V30 6978 H 665.28 4.06877 -1.50444 0
M  V30 6979 H 665.951 5.47819 -0.678144 0
M  V30 6980 H 668.427 4.10596 0.674573 0
M  V30 6981 H 667.303 5.32663 1.3252 0
M  V30 6982 H 667.564 3.83038 2.20758 0
M  V30 6983 N 666.623 0.143563 1.56945 0
M  V30 6984 C 667.553 -0.7936 2.196 0
M  V30 6985 C 668.534 -1.25955 1.14321 0
M  V30 6986 O 669.719 -1.31773 1.42651 0
M  V30 6987 C 666.849 -2.03424 2.81489 0
M  V30 6988 C 665.803 -1.70519 3.92565 0
M  V30 6989 C 665.129 -3.01817 4.41373 0
M  V30 6990 C 666.429 -0.95449 5.13504 0
M  V30 6991 H 668.123 -0.271423 2.98167 0
M  V30 6992 H 665.669 -0.12911 1.4342 0
M  V30 6993 H 667.622 -2.69463 3.23987 0
M  V30 6994 H 666.346 -2.58008 2.00248 0
M  V30 6995 H 665.005 -1.06859 3.5068 0
M  V30 6996 H 664.653 -3.54386 3.56959 0
M  V30 6997 H 664.353 -2.80565 5.16292 0
M  V30 6998 H 665.877 -3.68934 4.86539 0
M  V30 6999 H 667.291 -1.5169 5.52868 0
M  V30 7000 H 665.688 -0.842035 5.94163 0
M  V30 7001 H 666.758 0.0544033 4.84869 0
M  V30 7002 N 668.101 -1.57061 -0.130224 0
M  V30 7003 C 669.011 -2.02802 -1.17934 0
M  V30 7004 C 670.027 -0.946378 -1.46013 0
M  V30 7005 O 671.203 -1.25708 -1.57351 0
M  V30 7006 C 668.268 -2.41368 -2.48882 0
M  V30 7007 C 667.329 -3.63561 -2.28301 0
M  V30 7008 C 666.562 -4.00279 -3.53005 0
M  V30 7009 O 666.785 -3.37463 -4.59864 0
M  V30 7010 O 665.719 -4.93441 -3.44673 0
M  V30 7011 H 669.545 -2.92394 -0.820958 0
M  V30 7012 H 667.13 -1.45475 -0.340197 0
M  V30 7013 H 669.012 -2.66958 -3.26054 0
M  V30 7014 H 667.687 -1.54926 -2.84217 0
M  V30 7015 H 666.594 -3.43136 -1.49025 0
M  V30 7016 H 667.927 -4.50673 -1.97875 0
M  V30 7017 N 669.579 0.400081 -1.52437 0
M  V30 7018 C 670.825 1.14788 -1.67187 0
M  V30 7019 C 671.158 1.89928 -0.405074 0
M  V30 7020 O 670.433 1.85118 0.596804 0
M  V30 7021 C 670.716 2.13507 -2.89977 0
M  V30 7022 C 670.569 1.42204 -4.2673 0
M  V30 7023 C 671.888 3.14069 -3.083 0
M  V30 7024 H 669.007 0.415939 -0.608411 0
M  V30 7025 H 671.649 0.432542 -1.85011 0
M  V30 7026 H 669.799 2.7451 -2.74912 0
M  V30 7027 H 671.471 0.842503 -4.53541 0
M  V30 7028 H 669.714 0.723939 -4.27717 0
M  V30 7029 H 670.385 2.14281 -5.08712 0
M  V30 7030 H 672.861 2.63148 -3.22323 0
M  V30 7031 H 671.737 3.80398 -3.95713 0
M  V30 7032 H 671.998 3.82309 -2.22018 0
M  V30 7033 N 671.057 1.43213 0.657864 0
M  V30 7034 C 672.285 1.48015 1.44566 0
M  V30 7035 C 672.7 0.0965951 1.88553 0
M  V30 7036 O 672.057 -0.892221 1.59203 0
M  V30 7037 C 672.108 2.42199 2.68369 0
M  V30 7038 O 671.829 3.75173 2.26223 0
M  V30 7039 C 673.33 2.56195 3.61772 0
M  V30 7040 H 670.55 0.502861 0.444266 0
M  V30 7041 H 673.094 1.87907 0.806917 0
M  V30 7042 H 671.249 2.05514 3.28394 0
M  V30 7043 H 671.663 4.25776 3.06293 0
M  V30 7044 H 673.137 3.26182 4.4532 0
M  V30 7045 H 673.614 1.60534 4.0881 0
M  V30 7046 H 674.22 2.93671 3.07632 0
M  V30 7047 N 672.536 -0.895792 1.29666 0
M  V30 7048 C 673.466 -2.01673 1.17688 0
M  V30 7049 C 674.447 -1.69955 0.0701317 0
M  V30 7050 O 675.632 -1.9258 0.250289 0
M  V30 7051 C 672.762 -3.36568 0.856681 0
M  V30 7052 C 671.716 -3.82509 1.92017 0
M  V30 7053 C 671.042 -5.14574 1.4532 0
M  V30 7054 C 672.342 -4.02409 3.32963 0
M  V30 7055 H 674.036 -2.11953 2.11463 0
M  V30 7056 H 671.582 -1.01839 1.01807 0
M  V30 7057 H 673.535 -4.14498 0.759577 0
M  V30 7058 H 672.259 -3.26391 -0.116763 0
M  V30 7059 H 670.918 -3.068 2.00673 0
M  V30 7060 H 670.566 -5.00815 0.468325 0
M  V30 7061 H 670.266 -5.46283 2.16447 0
M  V30 7062 H 671.79 -5.9504 1.36968 0
M  V30 7063 H 673.204 -4.70808 3.27127 0
M  V30 7064 H 671.601 -4.45478 4.02082 0
M  V30 7065 H 672.671 -3.06616 3.75652 0
M  V30 7066 N 674.014 -1.12206 -1.10668 0
M  V30 7067 C 674.962 -0.782918 -2.19028 0
M  V30 7068 C 675.956 0.229175 -1.67843 0
M  V30 7069 O 677.162 0.0876295 -1.79787 0
M  V30 7070 H 673.537 -0.235339 -0.714227 0
M  V30 7071 H 675.508 -1.70527 -2.44874 0
M  V30 7072 C 674.257 -0.25116 -3.46792 0
M  V30 7073 H 673.58 -1.02123 -3.86537 0
M  V30 7074 H 675.02 -0.0521409 -4.23968 0
M  V30 7075 C 673.479 1.02037 -3.21076 0
M  V30 7076 O 674.009 2.09862 -3.42522 0
M  V30 7077 N 672.215 0.946348 -2.74759 0
M  V30 7078 H 671.762 0.068777 -2.57508 0
M  V30 7079 H 671.72 1.79775 -2.57931 0
M  V30 7080 N 675.492 1.28418 -0.913599 0
M  V30 7081 C 676.908 1.47411 -0.611728 0
M  V30 7082 C 677.108 1.83018 0.843008 0
M  V30 7083 O 676.164 1.93505 1.6221 0
M  V30 7084 C 677.477 2.57703 -1.5495 0
M  V30 7085 C 679.025 2.71572 -1.5562 0
M  V30 7086 C 679.5 3.85008 -2.48058 0
M  V30 7087 N 680.991 3.92361 -2.46184 0
M  V30 7088 C 681.726 4.79516 -3.14407 0
M  V30 7089 N 681.222 5.71262 -3.91958 0
M  V30 7090 N 683.015 4.73125 -3.03495 0
M  V30 7091 H 675.166 1.03585 -1.85429 0
M  V30 7092 H 677.429 0.515907 -0.795326 0
M  V30 7093 H 677.135 2.38298 -2.58663 0
M  V30 7094 H 677.009 3.54801 -1.28048 0
M  V30 7095 H 679.396 2.90366 -0.526441 0
M  V30 7096 H 679.477 1.75006 -1.86565 0
M  V30 7097 H 679.121 3.66969 -3.51136 0
M  V30 7098 H 679.051 4.80971 -2.14416 0
M  V30 7099 H 681.542 3.26749 -1.89851 0
M  V30 7100 H 681.855 6.34593 -4.41034 0
M  V30 7101 H 680.2 5.71103 -3.96063 0
M  V30 7102 H 683.391 4.00442 -2.42413 0
M  V30 7103 H 683.564 5.40834 -3.56935 0
M  V30 7104 N 676.97 0.677563 1.42291 0
M  V30 7105 C 678.381 0.277912 1.8462 0
M  V30 7106 C 678.732 -1.18048 1.56714 0
M  V30 7107 O 677.857 -1.90404 1.02836 0
M  V30 7108 C 678.452 0.497619 3.35126 0
M  V30 7109 C 677.011 0.152063 3.76093 0
M  V30 7110 C 676.158 0.78872 2.65847 0
M  V30 7111 H 679.109 0.879527 1.32098 0
M  V30 7112 H 679.13 -0.24939 3.79682 0
M  V30 7113 H 678.642 1.55913 3.55405 0
M  V30 7114 H 676.743 -0.905896 3.6142 0
M  V30 7115 H 676.856 0.594514 4.75397 0
M  V30 7116 H 675.22 0.219813 2.5375 0
M  V30 7117 H 676.003 1.85374 2.88949 0
M  V30 7118 N 678.448 -1.51871 0.421078 0
M  V30 7119 C 679.695 -2.01938 -0.15079 0
M  V30 7120 C 680.023 -1.30611 -1.44121 0
M  V30 7121 O 679.278 -0.404631 -1.91471 0
M  V30 7122 C 679.577 -3.54764 -0.433292 0
M  V30 7123 C 679.243 -4.44288 0.76936 0
M  V30 7124 C 677.905 -4.68477 1.09921 0
M  V30 7125 C 680.257 -4.96915 1.57242 0
M  V30 7126 C 677.585 -5.4254 2.2331 0
M  V30 7127 C 679.937 -5.7222 2.69716 0
M  V30 7128 C 678.601 -5.94678 3.03174 0
M  V30 7129 H 677.871 -0.738943 -0.0551781 0
M  V30 7130 H 680.518 -1.82977 0.564945 0
M  V30 7131 H 678.823 -3.71968 -1.23074 0
M  V30 7132 H 680.52 -3.91023 -0.888922 0
M  V30 7133 H 677.11 -4.25646 0.502305 0
M  V30 7134 H 681.294 -4.78125 1.3308 0
M  V30 7135 H 676.55 -5.58146 2.49565 0
M  V30 7136 H 680.724 -6.11992 3.32323 0
M  V30 7137 H 678.351 -6.51848 3.9115 0
M  V30 7138 N 679.926 -0.151884 -1.56866 0
M  V30 7139 C 680.856 0.781943 -2.20018 0
M  V30 7140 C 681.837 1.25347 -1.14987 0
M  V30 7141 O 683.022 1.31015 -1.43348 0
M  V30 7142 C 680.152 2.01928 -2.82564 0
M  V30 7143 C 679.106 1.68434 -3.93464 0
M  V30 7144 C 678.432 2.99472 -4.42968 0
M  V30 7145 C 679.732 0.927244 -5.14003 0
M  V30 7146 H 681.426 0.255607 -2.98307 0
M  V30 7147 H 678.972 0.121502 -1.43486 0
M  V30 7148 H 680.925 2.67741 -3.25411 0
M  V30 7149 H 679.649 2.56943 -2.01614 0
M  V30 7150 H 678.308 1.04998 -3.51242 0
M  V30 7151 H 677.956 3.52488 -3.58834 0
M  V30 7152 H 677.656 2.77823 -5.17772 0
M  V30 7153 H 679.18 3.66348 -4.88489 0
M  V30 7154 H 680.594 1.48756 -5.53665 0
M  V30 7155 H 678.991 0.810513 -5.94601 0
M  V30 7156 H 680.061 -0.0801163 -4.84834 0
M  V30 7157 N 681.404 1.57128 0.121893 0
M  V30 7158 C 682.651 1.847 0.830188 0
M  V30 7159 C 682.979 0.736543 1.80015 0
M  V30 7160 O 682.234 -0.272358 1.93796 0
M  V30 7161 C 682.533 3.1874 1.61677 0
M  V30 7162 C 682.199 4.43901 0.791361 0
M  V30 7163 C 680.861 4.77887 0.563731 0
M  V30 7164 C 683.213 5.20753 0.215823 0
M  V30 7165 C 680.541 5.86168 -0.249737 0
M  V30 7166 C 682.893 6.29891 -0.584821 0
M  V30 7167 C 681.557 6.6241 -0.822794 0
M  V30 7168 H 680.827 0.675866 0.303787 0
M  V30 7169 H 683.474 1.91276 0.0926894 0
M  V30 7170 H 681.779 3.07728 2.42509 0
M  V30 7171 H 683.476 3.37295 2.16872 0
M  V30 7172 H 680.066 4.17272 0.978867 0
M  V30 7173 H 684.25 4.94851 0.378907 0
M  V30 7174 H 679.506 6.0979 -0.44336 0
M  V30 7175 H 683.68 6.88624 -1.03779 0
M  V30 7176 H 681.307 7.46147 -1.45496 0
M  V30 7177 N 682.882 -0.391992 1.52647 0
M  V30 7178 C 683.845 -1.46135 1.7657 0
M  V30 7179 C 684.845 -1.47701 0.635698 0
M  V30 7180 O 686.035 -1.48924 0.903728 0
M  V30 7181 C 683.167 -2.85443 1.86374 0
M  V30 7182 H 684.36 -1.26208 2.72051 0
M  V30 7183 H 681.913 -0.623549 1.43323 0
M  V30 7184 H 682.648 -3.10718 0.928685 0
M  V30 7185 H 682.433 -2.85708 2.68539 0
M  V30 7186 H 683.923 -3.62933 2.06566 0
M  V30 7187 N 684.36 -1.4356 -0.65026 0
M  V30 7188 C 685.606 -1.45549 -1.41221 0
M  V30 7189 C 685.939 -0.0805472 -1.94033 0
M  V30 7190 O 685.214 0.899043 -1.72475 0
M  V30 7191 C 685.497 -2.50028 -2.59148 0
M  V30 7192 C 685.35 -3.96808 -2.1181 0
M  V30 7193 C 686.669 -2.51212 -3.61359 0
M  V30 7194 H 683.788 -0.529967 -0.512156 0
M  V30 7195 H 686.43 -1.75127 -0.736933 0
M  V30 7196 H 684.58 -2.24937 -3.16758 0
M  V30 7197 H 686.252 -4.32966 -1.59178 0
M  V30 7198 H 684.495 -4.09498 -1.43156 0
M  V30 7199 H 685.166 -4.6553 -2.96625 0
M  V30 7200 H 687.642 -2.73583 -3.13515 0
M  V30 7201 H 686.518 -3.26252 -4.41419 0
M  V30 7202 H 686.779 -1.54701 -4.1415 0
M  V30 7203 N 685.838 0.888903 -1.30139 0
M  V30 7204 C 687.068 1.67115 -1.21474 0
M  V30 7205 C 687.476 1.87852 0.225472 0
M  V30 7206 O 686.819 1.42324 1.16145 0
M  V30 7207 C 686.881 3.0713 -1.86846 0
M  V30 7208 C 686.545 3.09582 -3.36167 0
M  V30 7209 C 687.542 2.88929 -4.32222 0
M  V30 7210 C 685.227 3.31304 -3.77549 0
M  V30 7211 C 687.221 2.89949 -5.67634 0
M  V30 7212 C 684.908 3.31954 -5.13079 0
M  V30 7213 C 685.906 3.113 -6.07932 0
M  V30 7214 O 685.594 3.11758 -7.40987 0
M  V30 7215 H 685.326 0.528372 -0.421662 0
M  V30 7216 H 687.88 1.11919 -1.7223 0
M  V30 7217 H 686.11 3.63973 -1.30615 0
M  V30 7218 H 687.799 3.6749 -1.72354 0
M  V30 7219 H 688.565 2.71948 -4.01584 0
M  V30 7220 H 684.444 3.46417 -3.04165 0
M  V30 7221 H 687.988 2.73746 -6.41645 0
M  V30 7222 H 683.885 3.48469 -5.43359 0
M  V30 7223 H 684.653 3.27951 -7.49927 0
M  V30 7224 N 687.317 1.12792 1.10072 0
M  V30 7225 C 688.594 0.796867 1.78632 0
M  V30 7226 C 688.974 -0.712739 1.98704 0
M  V30 7227 O 688.322 -1.64773 1.5831 0
M  V30 7228 C 688.532 1.57622 3.11378 0
M  V30 7229 C 689.88 1.76463 3.86194 0
M  V30 7230 O 690.904 1.54165 3.2111 0
M  V30 7231 O 689.763 2.13623 5.03018 0
M  V30 7232 H 686.857 0.290248 0.774394 0
M  V30 7233 H 689.403 1.23215 1.16688 0
M  V30 7234 H 688.175 2.60246 2.92212 0
M  V30 7235 H 687.798 1.13543 3.81043 0
M  V30 7236 N 688.795 -1.27931 0.920396 0
M  V30 7237 C 689.727 -2.26175 0.371169 0
M  V30 7238 C 690.74 -1.55122 -0.494065 0
M  V30 7239 O 691.929 -1.75825 -0.30787 0
M  V30 7240 C 689.029 -3.35376 -0.487481 0
M  V30 7241 C 688.202 -4.35943 0.356772 0
M  V30 7242 C 687.261 -5.24374 -0.438042 0
M  V30 7243 O 686.287 -5.68998 0.151715 0
M  V30 7244 N 687.489 -5.53823 -1.73956 0
M  V30 7245 H 690.254 -2.73938 1.21564 0
M  V30 7246 H 687.815 -1.41482 0.787047 0
M  V30 7247 H 689.807 -3.91476 -1.02609 0
M  V30 7248 H 688.377 -2.87269 -1.23269 0
M  V30 7249 H 687.597 -3.7921 1.07672 0
M  V30 7250 H 688.885 -5.0015 0.934206 0
M  V30 7251 H 688.283 -5.19413 -2.24114 0
M  V30 7252 H 686.84 -6.12653 -2.22486 0
M  V30 7253 N 690.273 -0.685099 -1.4193 0
M  V30 7254 C 691.498 -0.218842 -2.06242 0
M  V30 7255 C 691.923 1.11923 -1.51178 0
M  V30 7256 O 691.281 1.69837 -0.634446 0
M  V30 7257 C 691.329 -0.175592 -3.60172 0
M  V30 7258 O 690.433 0.852776 -4.03487 0
M  V30 7259 H 689.774 -0.109531 -0.654904 0
M  V30 7260 H 692.304 -0.937013 -1.81882 0
M  V30 7261 H 692.314 -0.00291151 -4.08 0
M  V30 7262 H 690.989 -1.15222 -3.99621 0
M  V30 7263 H 689.566 0.650301 -3.67186 0
M  V30 7264 N 691.751 1.51645 -0.429126 0
M  V30 7265 C 692.714 2.26116 0.374726 0
M  V30 7266 C 693.714 1.29242 0.956714 0
M  V30 7267 O 694.904 1.53022 0.832452 0
M  V30 7268 C 692.036 3.04669 1.52937 0
M  V30 7269 H 693.229 2.9861 -0.277818 0
M  V30 7270 H 690.782 1.55236 -0.182097 0
M  V30 7271 H 691.517 2.36571 2.21821 0
M  V30 7272 H 691.302 3.75814 1.11833 0
M  V30 7273 H 692.792 3.61102 2.09751 0
M  V30 7274 N 693.229 0.160201 1.56784 0
M  V30 7275 C 694.457 -0.494165 2.00912 0
M  V30 7276 C 694.872 -1.57548 1.04038 0
M  V30 7277 O 694.229 -1.82457 0.0394581 0
M  V30 7278 C 694.28 -1.08271 3.44905 0
M  V30 7279 O 694.001 -0.0445704 4.38077 0
M  V30 7280 C 695.502 -1.8164 4.04378 0
M  V30 7281 H 692.722 -0.127498 0.658776 0
M  V30 7282 H 695.266 0.258665 2.02858 0
M  V30 7283 H 693.421 -1.78609 3.4377 0
M  V30 7284 H 693.835 -0.477544 5.22322 0
M  V30 7285 H 695.309 -2.18094 5.07089 0
M  V30 7286 H 695.786 -2.70727 3.45838 0
M  V30 7287 H 696.392 -1.15969 4.09184 0
M  V30 7288 N 694.707 -1.5719 -0.113559 0
M  V30 7289 C 695.67 -1.99796 -1.12314 0
M  V30 7290 C 696.67 -0.888847 -1.34001 0
M  V30 7291 O 697.86 -1.15476 -1.30426 0
M  V30 7292 C 694.992 -2.34279 -2.47641 0
M  V30 7293 H 696.185 -2.90193 -0.756825 0
M  V30 7294 H 693.738 -1.52144 -0.358029 0
M  V30 7295 H 694.473 -1.46778 -2.89183 0
M  V30 7296 H 694.258 -3.15175 -2.33253 0
M  V30 7297 H 695.748 -2.67963 -3.2029 0
M  V30 7298 N 696.185 0.383891 -1.52853 0
M  V30 7299 C 697.115 1.47559 -1.80965 0
M  V30 7300 C 698.096 1.5669 -0.661986 0
M  V30 7301 O 699.281 1.71556 -0.910072 0
M  V30 7302 C 696.411 2.85114 -1.98312 0
M  V30 7303 C 695.365 2.9082 -3.14019 0
M  V30 7304 C 694.691 4.30873 -3.16627 0
M  V30 7305 C 695.991 2.60001 -4.52986 0
M  V30 7306 H 697.685 1.24283 -2.72386 0
M  V30 7307 H 695.231 0.596445 -1.31067 0
M  V30 7308 H 697.184 3.61496 -2.16561 0
M  V30 7309 H 695.908 3.09738 -1.03585 0
M  V30 7310 H 694.567 2.16886 -2.9556 0
M  V30 7311 H 694.215 4.52545 -2.19573 0
M  V30 7312 H 693.915 4.3561 -3.94357 0
M  V30 7313 H 695.439 5.09154 -3.37038 0
M  V30 7314 H 696.853 3.261 -4.71521 0
M  V30 7315 H 695.25 2.76081 -5.32822 0
M  V30 7316 H 696.32 1.5532 -4.59351 0
M  V30 7317 N 697.663 1.43903 0.642637 0
M  V30 7318 C 698.613 1.46321 1.74854 0
M  V30 7319 C 699.597 0.330361 1.57472 0
M  V30 7320 O 700.789 0.574881 1.67404 0
M  V30 7321 C 697.918 1.39919 3.13493 0
M  V30 7322 C 697.004 2.58274 3.36385 0
M  V30 7323 N 697.395 3.83578 3.29699 0
M  V30 7324 C 695.693 2.53224 3.67142 0
M  V30 7325 C 696.394 4.62375 3.52965 0
M  V30 7326 N 695.37 3.93269 3.75287 0
M  V30 7327 H 699.172 2.41062 1.68126 0
M  V30 7328 H 696.686 1.38704 0.844693 0
M  V30 7329 H 698.683 1.39735 3.92785 0
M  V30 7330 H 697.343 0.46207 3.21395 0
M  V30 7331 H 698.354 4.15713 3.08874 0
M  V30 7332 H 695.031 1.68252 3.82096 0
M  V30 7333 H 696.421 5.714 3.53485 0
M  V30 7334 N 699.141 -0.881989 1.30609 0
M  V30 7335 C 700.388 -1.63405 1.19604 0
M  V30 7336 C 700.716 -1.92905 -0.248574 0
M  V30 7337 O 699.971 -1.55062 -1.19391 0
M  V30 7338 C 700.27 -2.97999 1.97311 0
M  V30 7339 C 699.936 -2.88039 3.46907 0
M  V30 7340 C 698.598 -2.85029 3.877 0
M  V30 7341 C 700.95 -2.75948 4.42156 0
M  V30 7342 C 698.278 -2.67772 5.2203 0
M  V30 7343 C 700.63 -2.60228 5.76597 0
M  V30 7344 C 699.294 -2.55595 6.16626 0
M  V30 7345 H 698.564 -0.597941 0.437662 0
M  V30 7346 H 701.211 -1.02524 1.61744 0
M  V30 7347 H 699.516 -3.62847 1.47815 0
M  V30 7348 H 701.213 -3.55156 1.86186 0
M  V30 7349 H 697.803 -2.91192 3.14492 0
M  V30 7350 H 701.987 -2.77337 4.1158 0
M  V30 7351 H 697.243 -2.62601 5.52133 0
M  V30 7352 H 701.417 -2.49847 6.50038 0
M  V30 7353 H 699.044 -2.41981 7.20659 0
M  V30 7354 N 700.619 -1.13374 -1.09472 0
M  V30 7355 C 701.549 -0.833268 -2.18126 0
M  V30 7356 C 702.53 0.207169 -1.68834 0
M  V30 7357 O 703.715 0.0662012 -1.94087 0
M  V30 7358 C 700.845 -0.297979 -3.46019 0
M  V30 7359 C 699.799 -1.27261 -4.08642 0
M  V30 7360 C 699.125 -0.597104 -5.31356 0
M  V30 7361 C 700.425 -2.63095 -4.51197 0
M  V30 7362 H 702.119 -1.74182 -2.43518 0
M  V30 7363 H 699.665 -0.838921 -1.17039 0
M  V30 7364 H 701.618 -0.0754444 -4.21332 0
M  V30 7365 H 700.342 0.645959 -3.20148 0
M  V30 7366 H 699.001 -1.48113 -3.35348 0
M  V30 7367 H 698.649 0.352293 -5.01765 0
M  V30 7368 H 698.349 -1.24734 -5.74208 0
M  V30 7369 H 699.873 -0.38384 -6.09392 0
M  V30 7370 H 701.287 -2.46214 -5.17737 0
M  V30 7371 H 699.684 -3.2429 -5.04932 0
M  V30 7372 H 700.754 -3.20793 -3.6362 0
M  V30 7373 N 702.098 1.27442 -0.927168 0
M  V30 7374 C 703.346 1.94007 -0.566203 0
M  V30 7375 C 703.667 1.7323 0.895345 0
M  V30 7376 O 702.937 1.07973 1.63459 0
M  V30 7377 H 701.517 0.717917 -0.206409 0
M  V30 7378 H 704.179 1.55161 -1.17945 0
M  V30 7379 H 703.275 3.02401 -0.772028 0
M  V30 7380 N 703.576 0.692616 1.41565 0
M  V30 7381 C 704.992 0.363878 1.55397 0
M  V30 7382 C 705.192 -1.1294 1.66874 0
M  V30 7383 O 704.248 -1.91517 1.64552 0
M  V30 7384 C 705.561 1.10982 2.7947 0
M  V30 7385 C 707.109 1.09387 2.93263 0
M  V30 7386 C 707.584 1.8215 4.20221 0
M  V30 7387 N 709.075 1.79105 4.27172 0
M  V30 7388 C 709.81 2.32247 5.2426 0
M  V30 7389 N 709.306 2.93847 6.27396 0
M  V30 7390 N 711.099 2.22519 5.1618 0
M  V30 7391 H 703.25 1.66116 1.3236 0
M  V30 7392 H 705.513 0.700848 0.63837 0
M  V30 7393 H 705.219 2.1647 2.77188 0
M  V30 7394 H 705.093 0.686492 3.709 0
M  V30 7395 H 707.48 0.0472638 2.95062 0
M  V30 7396 H 707.561 1.55623 2.03015 0
M  V30 7397 H 707.205 2.86789 4.19183 0
M  V30 7398 H 707.135 1.33351 5.09436 0
M  V30 7399 H 709.626 1.34191 3.53272 0
M  V30 7400 H 709.939 3.31972 6.97864 0
M  V30 7401 H 708.284 2.97924 6.27906 0
M  V30 7402 H 711.475 1.7407 4.34531 0
M  V30 7403 H 711.648 2.64239 5.91677 0
M  V30 7404 N 705.054 -1.51416 0.437162 0
M  V30 7405 C 706.3 -2.02386 -0.129555 0
M  V30 7406 C 706.633 -1.32071 -1.42376 0
M  V30 7407 O 705.908 -0.43559 -1.8956 0
M  V30 7408 C 706.191 -3.5841 -0.348487 0
M  V30 7409 C 706.044 -4.39341 0.964352 0
M  V30 7410 C 707.363 -4.25654 -1.11834 0
M  V30 7411 H 704.482 -0.735587 -0.0456109 0
M  V30 7412 H 707.124 -1.81055 0.576124 0
M  V30 7413 H 705.274 -3.76716 -0.949592 0
M  V30 7414 H 706.946 -4.32685 1.59942 0
M  V30 7415 H 705.189 -4.04432 1.56898 0
M  V30 7416 H 705.86 -5.4667 0.765212 0
M  V30 7417 H 708.336 -4.11617 -0.609165 0
M  V30 7418 H 707.212 -5.34704 -1.24029 0
M  V30 7419 H 707.473 -3.86502 -2.14636 0
M  V30 7420 N 706.532 -0.168513 -1.56696 0
M  V30 7421 C 707.495 0.748928 -2.16619 0
M  V30 7422 C 708.495 1.16007 -1.11351 0
M  V30 7423 O 709.685 1.07748 -1.3688 0
M  V30 7424 C 706.817 2.01904 -2.74677 0
M  V30 7425 H 708.01 0.227317 -2.99037 0
M  V30 7426 H 705.563 0.0810372 -1.5609 0
M  V30 7427 H 706.298 2.58381 -1.95985 0
M  V30 7428 H 706.083 1.73323 -3.51712 0
M  V30 7429 H 707.573 2.67383 -3.20774 0
M  V30 7430 N 708.01 1.57248 0.105221 0
M  V30 7431 C 708.958 2.02337 1.14728 0
M  V30 7432 C 709.952 0.922652 1.42069 0
M  V30 7433 O 711.158 1.10785 1.41869 0
M  V30 7434 H 707.533 0.644682 0.387155 0
M  V30 7435 H 709.504 2.89063 0.740607 0
M  V30 7436 C 708.253 2.45513 2.46209 0
M  V30 7437 H 707.576 3.29785 2.26013 0
M  V30 7438 H 709.016 2.80846 3.1765 0
M  V30 7439 C 707.475 1.3243 3.09781 0
M  V30 7440 O 708.005 0.647841 3.96442 0
M  V30 7441 N 706.211 1.07785 2.69872 0
M  V30 7442 H 705.758 1.62973 1.99493 0
M  V30 7443 H 705.716 0.323204 3.12734 0
M  V30 7444 N 709.488 -0.375779 1.53054 0
M  V30 7445 C 710.899 -0.95309 1.6054 0
M  V30 7446 C 711.25 -1.90575 0.466446 0
M  V30 7447 O 710.375 -2.12507 -0.408609 0
M  V30 7448 C 710.97 -1.73537 2.90982 0
M  V30 7449 C 709.529 -2.26218 3.00836 0
M  V30 7450 C 708.676 -1.07157 2.55759 0
M  V30 7451 H 711.627 -0.154895 1.57942 0
M  V30 7452 H 711.648 -2.59574 2.78211 0
M  V30 7453 H 711.16 -1.04176 3.73857 0
M  V30 7454 H 709.261 -2.98852 2.22527 0
M  V30 7455 H 709.374 -2.54799 4.05727 0
M  V30 7456 H 707.738 -1.43553 2.10391 0
M  V30 7457 H 708.521 -0.393099 3.41042 0
M  V30 7458 N 710.966 -1.44241 -0.634997 0
M  V30 7459 C 711.896 -1.53632 -1.7584 0
M  V30 7460 C 712.877 -0.389603 -1.65578 0
M  V30 7461 O 714.062 -0.609219 -1.84397 0
M  V30 7462 C 711.192 -1.47644 -3.14354 0
M  V30 7463 C 710.146 -2.60752 -3.394 0
M  V30 7464 C 709.472 -2.39817 -4.77904 0
M  V30 7465 C 710.772 -4.02921 -3.32343 0
M  V30 7466 H 712.466 -2.47662 -1.68238 0
M  V30 7467 H 710.012 -1.19197 -0.807969 0
M  V30 7468 H 711.965 -1.52815 -3.92716 0
M  V30 7469 H 710.689 -0.501284 -3.2273 0
M  V30 7470 H 709.348 -2.54965 -2.63417 0
M  V30 7471 H 708.996 -1.40502 -4.82978 0
M  V30 7472 H 708.696 -3.15649 -4.9562 0
M  V30 7473 H 710.22 -2.46799 -5.585 0
M  V30 7474 H 711.634 -4.10098 -4.00615 0
M  V30 7475 H 710.031 -4.78925 -3.61595 0
M  V30 7476 H 711.101 -4.26766 -2.30215 0
M  V30 7477 N 712.444 0.87505 -1.31075 0
M  V30 7478 C 713.669 1.66583 -1.23551 0
M  V30 7479 C 714.094 1.87067 0.19686 0
M  V30 7480 O 713.452 1.40877 1.1412 0
M  V30 7481 C 713.5 3.01401 -1.97965 0
M  V30 7482 O 712.604 3.90923 -1.31351 0
M  V30 7483 H 711.945 0.508645 -0.426821 0
M  V30 7484 H 714.475 1.09139 -1.7306 0
M  V30 7485 H 714.485 3.51374 -2.07366 0
M  V30 7486 H 713.16 2.85812 -3.02133 0
M  V30 7487 H 711.737 3.49369 -1.30368 0
M  V30 7488 N 713.922 1.13953 1.08869 0
M  V30 7489 C 715.15 0.92817 1.84912 0
M  V30 7490 C 715.565 -0.523197 1.81406 0
M  V30 7491 O 714.922 -1.36237 1.21432 0
M  V30 7492 C 714.973 1.41509 3.32652 0
M  V30 7493 O 714.694 2.80959 3.36145 0
M  V30 7494 C 716.195 1.243 4.25517 0
M  V30 7495 H 713.415 0.330612 0.583898 0
M  V30 7496 H 715.959 1.51349 1.37527 0
M  V30 7497 H 714.114 0.872648 3.77444 0
M  V30 7498 H 714.528 3.02704 4.28335 0
M  V30 7499 H 716.002 1.63237 5.27312 0
M  V30 7500 H 716.479 0.18532 4.38809 0
M  V30 7501 H 717.085 1.77375 3.86546 0
M  V30 7502 N 715.4 -1.26948 0.933913 0
M  V30 7503 C 716.363 -2.24889 0.442457 0
M  V30 7504 C 717.363 -1.54594 -0.442426 0
M  V30 7505 O 718.553 -1.72502 -0.242629 0
M  V30 7506 C 715.685 -3.3896 -0.363173 0
M  V30 7507 H 716.878 -2.69879 1.30787 0
M  V30 7508 H 714.431 -1.38978 0.715187 0
M  V30 7509 H 715.166 -2.99361 -1.24714 0
M  V30 7510 H 714.951 -3.9116 0.271366 0
M  V30 7511 H 716.441 -4.11739 -0.697186 0
M  V30 7512 O 716.917 -0.838709 -1.38014 0
M  V30 7513 H 717.608 -0.426604 -1.88944 0
M  V30 END ATOM
M  V30 BEGIN BOND
M  V30 END BOND
M  V30 END CTAB
M  END
$$$$
