drugbank_target|P01042 Kininogen-1 (DB01593; DB09130; DB14487; DB14533; DB14548)
 OpenBabel12092119453D

  0  0  0     0  0            999 V3000
M  V30 BEGIN CTAB
M  V30 COUNTS 9931 10055 0 0 0
M  V30 BEGIN ATOM
M  V30 1 H -0.908 1.98254 -0.117106 0
M  V30 2 N 0 1.576 0 0
M  V30 3 C 0.933 2.03868 1.02534 0
M  V30 4 C 1.911 0.928543 1.3348 0
M  V30 5 O 3.095 1.19667 1.45644 0
M  V30 6 C 0.222 2.43627 2.35294 0
M  V30 7 C -0.732 3.65373 2.2001 0
M  V30 8 S 0.101 5.13292 1.52614 0
M  V30 9 C 1.257 5.56322 2.86805 0
M  V30 10 H 1.49 2.90518 0.631377 0
M  V30 11 H -0.977 1.52953 0.210867 0
M  V30 12 H 0.981 2.67203 3.11629 0
M  V30 13 H -0.358 1.57376 2.7183 0
M  V30 14 H -1.165 3.90944 3.18086 0
M  V30 15 H -1.563 3.418 1.51819 0
M  V30 16 H 0.729 5.58782 3.83104 0
M  V30 17 H 1.672 6.56266 2.65933 0
M  V30 18 H 2.08 4.83886 2.90714 0
M  V30 19 N 1.4781 -0.272755 1.55222 0
M  V30 20 C 2.4251 -1.33716 1.88119 0
M  V30 21 C 3.3951 -1.49066 0.73271 0
M  V30 22 O 4.5801 -1.63469 0.984002 0
M  V30 23 C 1.7201 -2.69238 2.15882 0
M  V30 24 C 0.8331 -2.62108 3.43399 0
M  V30 25 C -0.0319 -3.89811 3.60861 0
M  V30 26 C -0.9929 -3.77193 4.8207 0
M  V30 27 N -1.8559 -4.9673 4.96189 0
M  V30 28 H 2.9841 -1.04962 2.78903 0
M  V30 29 H 0.5211 -0.507088 1.38083 0
M  V30 30 H 2.4791 -3.48089 2.29978 0
M  V30 31 H 1.1091 -2.96194 1.28331 0
M  V30 32 H 0.1611 -1.74967 3.37773 0
M  V30 33 H 1.4731 -2.48685 4.32386 0
M  V30 34 H 0.6271 -4.77103 3.74777 0
M  V30 35 H -0.6339 -4.06102 2.7006 0
M  V30 36 H -1.6289 -2.88284 4.68159 0
M  V30 37 H -0.4039 -3.62421 5.74307 0
M  V30 38 H -2.4579 -5.13431 4.08319 0
M  V30 39 H -2.5409 -4.85839 5.79221 0
M  V30 40 H -1.2729 -5.85594 5.1449 0
M  V30 41 N 2.9562 -1.48159 -0.537278 0
M  V30 42 C 3.8862 -1.65029 -1.6519 0
M  V30 43 C 4.8672 -0.499281 -1.62607 0
M  V30 44 O 6.0522 -0.730972 -1.79918 0
M  V30 45 C 3.1822 -1.68303 -3.03795 0
M  V30 46 C 2.1362 -2.8283 -3.21234 0
M  V30 47 C 1.4622 -2.71189 -4.60826 0
M  V30 48 C 2.7622 -4.24211 -3.04701 0
M  V30 49 H 4.4562 -2.58341 -1.51328 0
M  V30 50 H 2.0022 -1.24325 -0.726585 0
M  V30 51 H 3.9552 -1.78693 -3.81637 0
M  V30 52 H 2.6792 -0.715635 -3.18663 0
M  V30 53 H 1.3382 -2.71983 -2.45807 0
M  V30 54 H 0.9862 -1.72435 -4.7252 0
M  V30 55 H 0.6862 -3.48035 -4.7344 0
M  V30 56 H 2.2102 -2.83537 -5.40777 0
M  V30 57 H 3.6242 -4.3593 -3.72341 0
M  V30 58 H 2.0212 -5.01998 -3.28813 0
M  V30 59 H 3.0912 -4.41184 -2.01209 0
M  V30 60 N 4.4343 0.785586 -1.36625 0
M  V30 61 C 5.6833 1.53883 -1.30396 0
M  V30 62 C 5.9963 1.95271 0.113452 0
M  V30 63 O 7.2023 2.69858 0.298142 0
M  V30 64 C 5.6583 2.77808 -2.28802 0
M  V30 65 C 5.2663 2.43574 -3.75999 0
M  V30 66 C 7.0103 3.55783 -2.31558 0
M  V30 67 C 4.9173 3.63919 -4.66173 0
M  V30 68 H 3.8473 0.577678 -0.484566 0
M  V30 69 H 6.4983 0.861705 -1.62009 0
M  V30 70 H 4.8803 3.47339 -1.90188 0
M  V30 71 H 6.0543 1.81916 -4.23371 0
M  V30 72 H 4.3693 1.78803 -3.76056 0
M  V30 73 H 6.9663 4.45205 -2.96137 0
M  V30 74 H 7.3093 3.94644 -1.3252 0
M  V30 75 H 7.8423 2.93235 -2.68809 0
M  V30 76 H 4.5813 3.3015 -5.66287 0
M  V30 77 H 4.1013 4.2473 -4.23515 0
M  V30 78 H 5.7803 4.30901 -4.82632 0
M  V30 79 N 5.9124 1.20967 1.01018 0
M  V30 80 C 7.1404 1.04956 1.78303 0
M  V30 81 C 7.5554 -0.400915 1.84494 0
M  V30 82 O 6.9124 -1.27826 1.30257 0
M  V30 83 C 6.9634 1.63403 3.22462 0
M  V30 84 O 6.6844 3.02775 3.16637 0
M  V30 85 C 8.1854 1.52432 4.16268 0
M  V30 86 H 5.4054 0.368858 0.560522 0
M  V30 87 H 7.9494 1.60193 1.27116 0
M  V30 88 H 6.1044 1.1227 3.70775 0
M  V30 89 H 6.5184 3.30626 4.07169 0
M  V30 90 H 7.9924 1.98078 5.15237 0
M  V30 91 H 8.4694 0.477875 4.36592 0
M  V30 92 H 9.0754 2.02787 3.73841 0
M  V30 93 N 7.3905 -1.2043 1.01659 0
M  V30 94 C 8.6395 -1.89118 0.701237 0
M  V30 95 C 8.9525 -1.79705 -0.772358 0
M  V30 96 O 10.1585 -2.43528 -1.20026 0
M  V30 97 C 8.6145 -3.39168 1.20388 0
M  V30 98 C 8.2225 -3.57166 2.70438 0
M  V30 99 C 9.9665 -4.1341 0.963953 0
M  V30 100 C 7.8735 -5.01042 3.14183 0
M  V30 101 H 6.8035 -0.708267 0.2586 0
M  V30 102 H 9.4545 -1.36239 1.22927 0
M  V30 103 H 7.8365 -3.91369 0.603824 0
M  V30 104 H 9.0105 -3.15351 3.35992 0
M  V30 105 H 7.3255 -2.96294 2.92572 0
M  V30 106 H 9.9225 -5.19491 1.26621 0
M  V30 107 H 10.2655 -4.16181 -0.099578 0
M  V30 108 H 10.7985 -3.67309 1.52738 0
M  V30 109 H 7.5375 -5.03426 4.19812 0
M  V30 110 H 7.0575 -5.43668 2.53348 0
M  V30 111 H 8.7365 -5.69623 3.0682 0
M  V30 112 N 8.8686 -0.792821 -1.36206 0
M  V30 113 C 9.7986 -0.207853 -2.32573 0
M  V30 114 C 10.7796 0.659055 -1.56813 0
M  V30 115 O 11.9646 0.592176 -1.84951 0
M  V30 116 C 9.0946 0.655449 -3.41059 0
M  V30 117 C 8.0486 -0.111842 -4.27854 0
M  V30 118 C 7.3746 0.872274 -5.27537 0
M  V30 119 C 8.6746 -1.30299 -5.05786 0
M  V30 120 H 10.3686 -1.01294 -2.81744 0
M  V30 121 H 7.9146 -0.48854 -1.3546 0
M  V30 122 H 9.8676 1.07464 -4.07467 0
M  V30 123 H 8.5916 1.49328 -2.90463 0
M  V30 124 H 7.2506 -0.512053 -3.63006 0
M  V30 125 H 6.8986 1.70523 -4.73214 0
M  V30 126 H 6.5986 0.363291 -5.86476 0
M  V30 127 H 8.1226 1.28996 -5.96818 0
M  V30 128 H 9.5366 -0.959379 -5.65216 0
M  V30 129 H 7.9336 -1.7455 -5.74154 0
M  V30 130 H 9.0036 -2.09663 -4.37229 0
M  V30 131 N 10.3467 1.47872 -0.545128 0
M  V30 132 C 11.5937 2.02493 -0.0165858 0
M  V30 133 C 11.9217 1.42073 1.32836 0
M  V30 134 O 11.1767 0.561459 1.87473 0
M  V30 135 C 11.4757 3.57131 0.13867 0
M  V30 136 C 11.1417 4.36411 -1.13384 0
M  V30 137 C 9.8037 4.57792 -1.48256 0
M  V30 138 C 12.1557 4.82223 -1.97764 0
M  V30 139 C 9.4837 5.22233 -2.67376 0
M  V30 140 C 11.8357 5.47977 -3.16076 0
M  V30 141 C 10.4997 5.67593 -3.51275 0
M  V30 142 H 9.7697 0.740975 -0.00606918 0
M  V30 143 H 12.4167 1.77683 -0.714207 0
M  V30 144 H 10.7217 3.80865 0.919172 0
M  V30 145 H 12.4187 3.97031 0.562782 0
M  V30 146 H 9.0087 4.2004 -0.852297 0
M  V30 147 H 13.1927 4.65493 -1.72132 0
M  V30 148 H 8.4487 5.35616 -2.94831 0
M  V30 149 H 12.6227 5.8244 -3.81755 0
M  V30 150 H 10.2497 6.17298 -4.43675 0
M  V30 151 N 11.8248 0.280983 1.55075 0
M  V30 152 C 12.7548 -0.597469 2.25727 0
M  V30 153 C 13.7358 -1.15417 1.24952 0
M  V30 154 O 14.9208 -1.18722 1.53684 0
M  V30 155 C 12.0508 -1.7789 2.98283 0
M  V30 156 C 11.0048 -1.35347 4.06036 0
M  V30 157 C 10.3308 -2.61846 4.66198 0
M  V30 158 C 11.6308 -0.499354 5.19907 0
M  V30 159 H 13.3248 -0.00824265 2.99399 0
M  V30 160 H 10.8708 -0.0025244 1.44 0
M  V30 161 H 12.8238 -2.39937 3.46422 0
M  V30 162 H 11.5478 -2.39405 2.22155 0
M  V30 163 H 10.2068 -0.756156 3.58717 0
M  V30 164 H 9.8548 -3.21632 3.86732 0
M  V30 165 H 9.5548 -2.3409 5.38958 0
M  V30 166 H 11.0788 -3.24732 5.1709 0
M  V30 167 H 12.4928 -1.02498 5.64063 0
M  V30 168 H 10.8898 -0.316424 5.99265 0
M  V30 169 H 11.9598 0.480459 4.82514 0
M  V30 170 N 13.3029 -1.57598 0.00835791 0
M  V30 171 C 14.5429 -1.92788 -0.679136 0
M  V30 172 C 14.9069 -0.883378 -1.70471 0
M  V30 173 O 16.1079 -1.12079 -2.44319 0
M  V30 174 C 14.3789 -3.32994 -1.29807 0
M  V30 175 S 15.9379 -3.90082 -2.00952 0
M  V30 176 H 12.7559 -0.67475 -0.224127 0
M  V30 177 H 15.3579 -1.95385 0.0670497 0
M  V30 178 H 14.0619 -4.06846 -0.538922 0
M  V30 179 H 13.5929 -3.33791 -2.082 0
M  V30 180 H 15.6079 -3.71834 -3.28563 0
M  V30 181 N 14.781 0.264519 -1.55364 0
M  V30 182 C 16.006 1.01726 -1.80739 0
M  V30 183 C 16.431 1.78836 -0.583044 0
M  V30 184 O 15.789 1.75167 0.467566 0
M  V30 185 C 15.837 1.94482 -3.03659 0
M  V30 186 O 14.941 3.03386 -2.7934 0
M  V30 187 H 14.282 0.290395 -0.597132 0
M  V30 188 H 16.812 0.290854 -2.02522 0
M  V30 189 H 16.822 2.36278 -3.32621 0
M  V30 190 H 15.497 1.37772 -3.92418 0
M  V30 191 H 14.074 2.65844 -2.61498 0
M  V30 192 N 16.2591 1.48442 0.529413 0
M  V30 193 C 17.6751 1.34575 0.858004 0
M  V30 194 C 17.8751 0.3572 1.98309 0
M  V30 195 O 16.9311 -0.221379 2.51528 0
M  V30 196 C 18.2441 2.74617 1.22499 0
M  V30 197 C 19.7921 2.83109 1.33484 0
M  V30 198 C 20.2671 4.23854 1.73526 0
M  V30 199 N 21.7581 4.2653 1.80628 0
M  V30 200 C 22.4931 5.32372 2.12997 0
M  V30 201 N 21.9891 6.48491 2.43786 0
M  V30 202 N 23.7821 5.19766 2.14008 0
M  V30 203 H 15.9331 2.1133 -0.212925 0
M  V30 204 H 18.1961 0.947439 -0.0326199 0
M  V30 205 H 17.9021 3.4852 0.471905 0
M  V30 206 H 17.7761 3.08177 2.17501 0
M  V30 207 H 20.1631 2.09462 2.0787 0
M  V30 208 H 20.2441 2.53168 0.366027 0
M  V30 209 H 19.8881 4.98018 0.997013 0
M  V30 210 H 19.8181 4.5124 2.71459 0
M  V30 211 H 22.3091 3.42772 1.59108 0
M  V30 212 H 22.6221 7.24993 2.67592 0
M  V30 213 H 20.9671 6.51765 2.41304 0
M  V30 214 H 24.1581 4.28066 1.89412 0
M  V30 215 H 24.3311 6.02354 2.38902 0
M  V30 216 N 17.7372 -0.778329 1.37039 0
M  V30 217 C 18.6672 -1.90546 1.34962 0
M  V30 218 C 19.6482 -1.68681 0.219274 0
M  V30 219 O 20.8332 -1.89634 0.418624 0
M  V30 220 C 17.9632 -3.27734 1.14925 0
M  V30 221 C 16.9172 -3.64147 2.24902 0
M  V30 222 C 16.2432 -4.99806 1.89996 0
M  V30 223 C 17.5432 -3.71579 3.67051 0
M  V30 224 H 19.2372 -1.92541 2.29277 0
M  V30 225 H 16.7832 -0.924948 1.10366 0
M  V30 226 H 18.7362 -4.06215 1.12104 0
M  V30 227 H 17.4602 -3.26154 0.170631 0
M  V30 228 H 16.1192 -2.8797 2.26868 0
M  V30 229 H 15.7672 -4.94759 0.906796 0
M  V30 230 H 15.4672 -5.25139 2.63634 0
M  V30 231 H 16.9912 -5.80694 1.88749 0
M  V30 232 H 18.4052 -4.40227 3.67251 0
M  V30 233 H 16.8022 -4.08405 4.39688 0
M  V30 234 H 17.8722 -2.72404 4.01154 0
M  V30 235 N 19.2153 -1.21501 -1.00376 0
M  V30 236 C 20.1453 -0.999478 -2.11028 0
M  V30 237 C 21.1263 0.0759671 -1.6993 0
M  V30 238 O 22.3113 -0.0841106 -1.94018 0
M  V30 239 C 19.4413 -0.564709 -3.42678 0
M  V30 240 C 18.3953 -1.58486 -3.97576 0
M  V30 241 C 17.7213 -1.00628 -5.25146 0
M  V30 242 C 19.0213 -2.97204 -4.29496 0
M  V30 243 H 20.7153 -1.92495 -2.29317 0
M  V30 244 H 18.2613 -0.92693 -1.102 0
M  V30 245 H 20.2143 -0.401091 -4.19487 0
M  V30 246 H 18.9383 0.396411 -3.24185 0
M  V30 247 H 17.5973 -1.73606 -3.22888 0
M  V30 248 H 17.2453 -0.0368439 -5.02987 0
M  V30 249 H 16.9453 -1.68771 -5.62841 0
M  V30 250 H 18.4693 -0.854015 -6.04598 0
M  V30 251 H 19.8833 -2.8552 -4.97143 0
M  V30 252 H 18.2803 -3.62372 -4.78338 0
M  V30 253 H 19.3503 -3.47956 -3.3772 0
M  V30 254 N 20.6934 1.19889 -1.02296 0
M  V30 255 C 21.6234 2.25141 -0.619174 0
M  V30 256 C 22.6044 1.66051 0.368915 0
M  V30 257 O 23.7894 1.92546 0.252941 0
M  V30 258 C 20.9194 3.4728 0.0368783 0
M  V30 259 C 19.8734 4.19005 -0.872865 0
M  V30 260 C 19.1994 5.34637 -0.0822402 0
M  V30 261 C 20.4994 4.74452 -2.18387 0
M  V30 262 H 22.1934 2.59171 -1.49903 0
M  V30 263 H 19.7394 1.24579 -0.722222 0
M  V30 264 H 21.6924 4.20098 0.330958 0
M  V30 265 H 20.4164 3.12433 0.95149 0
M  V30 266 H 19.0754 3.48061 -1.15105 0
M  V30 267 H 18.7234 4.96034 0.83422 0
M  V30 268 H 18.4234 5.83557 -0.688149 0
M  V30 269 H 19.9474 6.10255 0.205238 0
M  V30 270 H 21.3614 5.39055 -1.95172 0
M  V30 271 H 19.7584 5.33834 -2.74119 0
M  V30 272 H 20.8284 3.92844 -2.84257 0
M  V30 273 N 22.1715 0.800033 1.35784 0
M  V30 274 C 23.3965 0.388511 2.03729 0
M  V30 275 C 23.8215 -0.990481 1.5991 0
M  V30 276 O 23.1795 -1.64013 0.772612 0
M  V30 277 C 23.2275 0.4726 3.5749 0
M  V30 278 O 22.3315 -0.51646 4.09153 0
M  V30 279 H 21.6725 0.163271 0.643614 0
M  V30 280 H 24.2025 1.0841 1.73518 0
M  V30 281 H 24.2125 0.34003 4.06581 0
M  V30 282 H 22.8875 1.47848 3.88734 0
M  V30 283 H 21.4645 -0.344673 3.71304 0
M  V30 284 N 23.6496 -1.47581 0.552962 0
M  V30 285 C 24.5796 -2.32762 -0.185451 0
M  V30 286 C 25.5606 -1.43527 -0.912905 0
M  V30 287 O 26.7456 -1.72388 -0.894201 0
M  V30 288 C 23.8756 -3.25219 -1.21859 0
M  V30 289 C 22.8296 -4.23661 -0.607864 0
M  V30 290 C 22.1556 -5.05413 -1.74533 0
M  V30 291 C 23.4556 -5.20481 0.435582 0
M  V30 292 H 25.1496 -2.94749 0.525684 0
M  V30 293 H 22.6956 -1.41738 0.254251 0
M  V30 294 H 24.6486 -3.8365 -1.7433 0
M  V30 295 H 23.3726 -2.61279 -1.95961 0
M  V30 296 H 22.0316 -3.66451 -0.104489 0
M  V30 297 H 21.6796 -4.3788 -2.47529 0
M  V30 298 H 21.3796 -5.72059 -1.34249 0
M  V30 299 H 22.9036 -5.66701 -2.27338 0
M  V30 300 H 24.3176 -5.733 -0.00290157 0
M  V30 301 H 22.7146 -5.95305 0.757067 0
M  V30 302 H 23.7846 -4.66217 1.33303 0
M  V30 303 N 25.1277 -0.289203 -1.54924 0
M  V30 304 C 26.3557 0.326463 -2.04308 0
M  V30 305 C 26.7707 1.48413 -1.16701 0
M  V30 306 O 26.1277 1.81507 -0.190087 0
M  V30 307 C 26.1787 0.794014 -3.52672 0
M  V30 308 O 25.8997 -0.317564 -4.36948 0
M  V30 309 C 27.4007 1.47605 -4.18004 0
M  V30 310 H 24.6207 0.0726272 -0.667058 0
M  V30 311 H 27.1647 -0.425401 -2.00026 0
M  V30 312 H 25.3197 1.49593 -3.57352 0
M  V30 313 H 25.7337 0.0443186 -5.24481 0
M  V30 314 H 27.2077 1.75447 -5.23376 0
M  V30 315 H 27.6847 2.41224 -3.67025 0
M  V30 316 H 28.2907 0.81762 -4.17367 0
M  V30 317 N 26.6058 1.57591 -0.0167156 0
M  V30 318 C 27.5378 2.06343 0.997753 0
M  V30 319 C 28.5508 0.984469 1.29661 0
M  V30 320 O 29.7398 1.26093 1.26344 0
M  V30 321 C 26.8398 2.46255 2.32834 0
M  V30 322 C 26.0128 3.77083 2.21646 0
M  V30 323 C 25.0718 4.0368 3.37534 0
M  V30 324 O 24.0978 4.7411 3.14973 0
M  V30 325 N 25.2998 3.52881 4.60929 0
M  V30 326 H 28.0648 2.93997 0.581875 0
M  V30 327 H 25.6258 1.61002 0.170316 0
M  V30 328 H 27.6178 2.61149 3.09166 0
M  V30 329 H 26.1878 1.64032 2.66106 0
M  V30 330 H 25.4078 3.72106 1.30119 0
M  V30 331 H 26.6958 4.62822 2.11361 0
M  V30 332 H 26.0938 2.95878 4.82154 0
M  V30 333 H 24.6508 3.73076 5.34469 0
M  V30 334 N 28.0839 -0.256276 1.55502 0
M  V30 335 C 28.9939 -1.33882 1.92647 0
M  V30 336 C 30.0099 -1.53159 0.825727 0
M  V30 337 O 31.1859 -1.66963 1.12629 0
M  V30 338 C 28.2509 -2.6751 2.20543 0
M  V30 339 C 27.3119 -2.56836 3.43997 0
M  V30 340 C 26.5449 -3.84092 3.70553 0
M  V30 341 O 26.7679 -4.85545 2.99336 0
M  V30 342 O 25.7019 -3.83288 4.64084 0
M  V30 343 H 29.5279 -1.05374 2.84833 0
M  V30 344 H 27.1129 -0.456237 1.42263 0
M  V30 345 H 28.9949 -3.46492 2.39835 0
M  V30 346 H 27.6699 -2.9577 1.31536 0
M  V30 347 H 26.5769 -1.76172 3.30021 0
M  V30 348 H 27.9099 -2.33523 4.33275 0
M  V30 349 N 29.562 -1.4872 -0.521534 0
M  V30 350 C 30.787 -1.61101 -1.30618 0
M  V30 351 C 31.212 -0.274611 -1.86085 0
M  V30 352 O 30.57 0.754937 -1.64834 0
M  V30 353 C 30.618 -2.66709 -2.4269 0
M  V30 354 O 29.722 -2.24456 -3.45967 0
M  V30 355 H 29.063 -0.539921 -0.386499 0
M  V30 356 H 31.593 -1.94767 -0.626645 0
M  V30 357 H 31.603 -2.88245 -2.88754 0
M  V30 358 H 30.278 -3.63727 -2.01682 0
M  V30 359 H 28.855 -2.13168 -3.05964 0
M  V30 360 N 31.0401 0.771051 -1.3745 0
M  V30 361 C 31.9721 1.89352 -1.29146 0
M  V30 362 C 32.9851 1.61477 -0.207124 0
M  V30 363 O 34.1741 1.72382 -0.463324 0
M  V30 364 C 31.2741 3.24596 -0.974195 0
M  V30 365 C 30.4471 3.80111 -2.16413 0
M  V30 366 C 29.5061 4.93832 -1.81703 0
M  V30 367 O 28.5321 5.09382 -2.54006 0
M  V30 368 N 29.7341 5.75483 -0.761573 0
M  V30 369 H 32.4991 1.96991 -2.25864 0
M  V30 370 H 30.0601 0.950191 -1.31084 0
M  V30 371 H 32.0521 3.98193 -0.722828 0
M  V30 372 H 30.6221 3.12454 -0.0955527 0
M  V30 373 H 29.8421 2.98284 -2.57721 0
M  V30 374 H 31.1301 4.13932 -2.95867 0
M  V30 375 H 30.5281 5.65469 -0.161609 0
M  V30 376 H 29.0851 6.49302 -0.570064 0
M  V30 377 N 32.5182 1.22032 0.997298 0
M  V30 378 C 33.7432 1.06921 1.77715 0
M  V30 379 C 34.1682 -0.376226 1.84299 0
M  V30 380 O 33.5262 -1.27165 1.29223 0
M  V30 381 C 33.5742 1.67996 3.19076 0
M  V30 382 O 32.6782 0.930653 4.01762 0
M  V30 383 H 32.0192 0.375814 0.547412 0
M  V30 384 H 34.5492 1.61737 1.25309 0
M  V30 385 H 34.5592 1.72538 3.69723 0
M  V30 386 H 33.2342 2.73182 3.13599 0
M  V30 387 H 31.8112 0.960917 3.60307 0
M  V30 388 N 33.9963 -1.19345 1.0293 0
M  V30 389 C 34.9063 -2.26245 0.620515 0
M  V30 390 C 35.9223 -1.70486 -0.347928 0
M  V30 391 O 37.0983 -2.00347 -0.205704 0
M  V30 392 C 34.1633 -3.46693 -0.0218957 0
M  V30 393 C 33.2243 -4.17632 0.994102 0
M  V30 394 C 32.4573 -5.32329 0.382253 0
M  V30 395 O 32.6803 -5.64552 -0.814676 0
M  V30 396 O 31.6143 -5.91664 1.10531 0
M  V30 397 H 35.4403 -2.63453 1.51083 0
M  V30 398 H 33.0253 -1.26207 0.799513 0
M  V30 399 H 34.9073 -4.19683 -0.380072 0
M  V30 400 H 33.5823 -3.11333 -0.886209 0
M  V30 401 H 32.4893 -3.4676 1.40387 0
M  V30 402 H 33.8223 -4.56964 1.8288 0
M  V30 403 N 35.4744 -0.807222 -1.35358 0
M  V30 404 C 36.3844 -0.219594 -2.3357 0
M  V30 405 C 37.4004 0.637734 -1.61892 0
M  V30 406 O 38.5764 0.549336 -1.93763 0
M  V30 407 C 35.6414 0.62158 -3.41083 0
M  V30 408 C 34.7024 -0.256315 -4.28534 0
M  V30 409 C 33.9354 0.544807 -5.30912 0
M  V30 410 O 34.1584 1.77944 -5.41934 0
M  V30 411 O 33.0924 -0.0646478 -6.01865 0
M  V30 412 H 36.9184 -1.03208 -2.85625 0
M  V30 413 H 34.5034 -0.569025 -1.38139 0
M  V30 414 H 36.3854 1.10067 -4.06772 0
M  V30 415 H 35.0604 1.41165 -2.91297 0
M  V30 416 H 33.9674 -0.782559 -3.65823 0
M  V30 417 H 35.3004 -1.01034 -4.81719 0
M  V30 418 N 36.9525 1.47285 -0.560781 0
M  V30 419 C 38.2015 2.01668 -0.035895 0
M  V30 420 C 38.5145 1.44021 1.32353 0
M  V30 421 O 39.7205 1.90088 1.93853 0
M  V30 422 C 38.1765 3.59897 -0.0136659 0
M  V30 423 C 37.7845 4.26536 -1.37006 0
M  V30 424 C 39.5285 4.22017 0.458425 0
M  V30 425 C 37.4355 5.76782 -1.30675 0
M  V30 426 H 36.3655 0.753938 -0.00964879 0
M  V30 427 H 39.0165 1.69243 -0.709166 0
M  V30 428 H 37.3985 3.89301 0.725325 0
M  V30 429 H 38.5725 4.0877 -2.12705 0
M  V30 430 H 36.8875 3.76419 -1.78038 0
M  V30 431 H 39.4845 5.32124 0.524247 0
M  V30 432 H 39.8275 3.89437 1.4712 0
M  V30 433 H 40.3605 3.97159 -0.225818 0
M  V30 434 H 37.0995 6.13988 -2.29564 0
M  V30 435 H 36.6195 5.96875 -0.591622 0
M  V30 436 H 38.2985 6.39063 -1.01033 0
M  V30 437 N 38.4306 0.297415 1.54768 0
M  V30 438 C 39.7076 -0.365847 1.92148 0
M  V30 439 C 40.0876 -1.71975 1.22424 0
M  V30 440 O 39.4356 -2.25666 0.358739 0
M  V30 441 C 39.6456 -0.484056 3.45627 0
M  V30 442 C 40.9936 -0.756594 4.17805 0
M  V30 443 O 42.0176 -0.568007 3.51642 0
M  V30 444 O 40.8766 -1.11863 5.34929 0
M  V30 445 H 37.9706 -0.203919 0.801465 0
M  V30 446 H 40.5166 0.34521 1.66152 0
M  V30 447 H 39.2886 0.467865 3.88493 0
M  V30 448 H 38.9116 -1.24372 3.77647 0
M  V30 449 N 39.9087 -1.5758 0.0250728 0
M  V30 450 C 41.1487 -1.93497 -0.65865 0
M  V30 451 C 41.5127 -0.901409 -1.69525 0
M  V30 452 O 42.7137 -1.14664 -2.43116 0
M  V30 453 C 40.9847 -3.34352 -1.26267 0
M  V30 454 S 42.5437 -3.92191 -1.96803 0
M  V30 455 H 39.3617 -0.67709 -0.216958 0
M  V30 456 H 41.9637 -1.95303 0.0877692 0
M  V30 457 H 40.6677 -4.07395 -0.495741 0
M  V30 458 H 40.1987 -3.3598 -2.04648 0
M  V30 459 H 42.2137 -3.75298 -3.24601 0
M  V30 460 N 41.3868 0.248026 -1.55636 0
M  V30 461 C 42.3348 1.32683 -1.91045 0
M  V30 462 C 43.3288 1.49883 -0.789401 0
M  V30 463 O 44.5348 1.51371 -0.974007 0
M  V30 464 H 40.9098 0.444272 -0.606734 0
M  V30 465 H 42.8808 1.00085 -2.81115 0
M  V30 466 C 41.6298 2.6755 -2.22064 0
M  V30 467 H 40.9528 2.55114 -3.07826 0
M  V30 468 H 42.3928 3.41912 -2.50743 0
M  V30 469 C 40.8518 3.20556 -1.0366 0
M  V30 470 O 41.3818 4.00695 -0.284016 0
M  V30 471 N 39.5878 2.78568 -0.82753 0
M  V30 472 H 39.1348 2.1351 -1.44123 0
M  V30 473 H 39.0928 3.14378 -0.0369803 0
M  V30 474 N 42.8649 1.48995 0.513639 0
M  V30 475 C 44.1419 1.48338 1.27495 0
M  V30 476 C 44.5219 0.204065 2.10111 0
M  V30 477 O 43.8699 -0.813881 2.13514 0
M  V30 478 C 44.0799 2.75498 2.14247 0
M  V30 479 C 45.4279 3.24484 2.73852 0
M  V30 480 O 46.4519 2.76528 2.24523 0
M  V30 481 O 45.3109 4.07974 3.6362 0
M  V30 482 H 42.4049 0.593149 0.576284 0
M  V30 483 H 44.9509 1.61246 0.528948 0
M  V30 484 H 43.7229 3.60109 1.53092 0
M  V30 485 H 43.3459 2.6539 2.96064 0
M  V30 486 N 44.343 -0.763751 1.37857 0
M  V30 487 C 45.29 -1.87726 1.34267 0
M  V30 488 C 46.26 -1.64807 0.206879 0
M  V30 489 O 47.445 -1.86613 0.397508 0
M  V30 490 C 44.585 -3.24896 1.16346 0
M  V30 491 C 43.698 -3.59716 2.39225 0
M  V30 492 C 42.833 -4.86137 2.14114 0
M  V30 493 C 41.872 -5.13711 3.32817 0
M  V30 494 N 41.009 -6.31323 3.07206 0
M  V30 495 H 45.849 -1.90129 2.29466 0
M  V30 496 H 43.386 -0.929433 1.14017 0
M  V30 497 H 45.344 -4.04036 1.03975 0
M  V30 498 H 43.974 -3.21847 0.247909 0
M  V30 499 H 43.026 -2.75498 2.62307 0
M  V30 500 H 44.338 -3.76027 3.27728 0
M  V30 501 H 43.492 -5.73198 1.9882 0
M  V30 502 H 42.231 -4.71945 1.22961 0
M  V30 503 H 41.236 -4.25123 3.48641 0
M  V30 504 H 42.461 -5.29807 4.24832 0
M  V30 505 H 40.407 -6.18474 2.1869 0
M  V30 506 H 40.324 -6.48087 3.89254 0
M  V30 507 H 41.592 -7.213 2.95546 0
M  V30 508 N 45.8211 -1.22559 -0.990812 0
M  V30 509 C 47.0981 -0.959875 -1.70428 0
M  V30 510 C 47.4781 0.524455 -2.04481 0
M  V30 511 O 46.8261 1.49302 -1.72977 0
M  V30 512 C 47.0361 -1.85955 -2.95333 0
M  V30 513 C 48.3841 -2.11687 -3.68068 0
M  V30 514 O 49.4081 -1.8342 -3.05345 0
M  V30 515 O 48.2671 -2.59572 -4.80921 0
M  V30 516 H 45.3611 -0.361154 -0.743974 0
M  V30 517 H 47.9071 -1.33554 -1.04697 0
M  V30 518 H 46.6791 -2.86346 -2.66687 0
M  V30 519 H 46.3021 -1.4856 -3.68803 0
M  V30 520 N 47.2992 1.18797 -1.03562 0
M  V30 521 C 48.2292 2.24472 -0.643019 0
M  V30 522 C 49.2102 1.66433 0.351283 0
M  V30 523 O 50.3952 1.92803 0.232505 0
M  V30 524 C 47.5252 3.473 4.24935e-05 0
M  V30 525 C 46.4792 4.18055 -0.917257 0
M  V30 526 C 45.8052 5.34519 -0.138941 0
M  V30 527 C 47.1052 4.72109 -2.23407 0
M  V30 528 H 48.7992 2.57566 -1.52643 0
M  V30 529 H 46.3452 1.23806 -0.735394 0
M  V30 530 H 48.2982 4.20426 0.286383 0
M  V30 531 H 47.0222 3.13424 0.918299 0
M  V30 532 H 45.6812 3.46821 -1.1879 0
M  V30 533 H 45.3292 4.96891 0.781562 0
M  V30 534 H 45.0292 5.82794 -0.750005 0
M  V30 535 H 46.5532 6.10438 0.1405 0
M  V30 536 H 47.9672 5.36955 -2.00879 0
M  V30 537 H 46.3642 5.30897 -2.79765 0
M  V30 538 H 47.4342 3.89807 -2.88407 0
M  V30 539 N 48.7773 0.814389 1.34928 0
M  V30 540 C 50.0243 0.398423 1.98542 0
M  V30 541 C 50.3523 -1.03638 1.64589 0
M  V30 542 O 49.6073 -1.73509 0.90516 0
M  V30 543 C 49.9063 0.537781 3.53331 0
M  V30 544 C 49.5723 1.93704 4.07172 0
M  V30 545 C 48.2343 2.31984 4.21589 0
M  V30 546 C 50.5863 2.85213 4.36237 0
M  V30 547 C 47.9143 3.61125 4.62391 0
M  V30 548 C 50.2663 4.13809 4.78482 0
M  V30 549 C 48.9303 4.52077 4.91104 0
M  V30 550 H 48.2003 0.145793 0.726516 0
M  V30 551 H 50.8473 1.03669 1.61012 0
M  V30 552 H 49.1523 -0.183906 3.91368 0
M  V30 553 H 50.8493 0.196588 4.00518 0
M  V30 554 H 47.4393 1.62966 3.96409 0
M  V30 555 H 51.6233 2.56885 4.24645 0
M  V30 556 H 46.8793 3.90612 4.70353 0
M  V30 557 H 51.0533 4.84811 4.99932 0
M  V30 558 H 48.6803 5.52196 5.22478 0
M  V30 559 N 50.2554 -1.46986 0.568584 0
M  V30 560 C 51.2024 -2.30153 -0.172707 0
M  V30 561 C 52.1724 -1.39759 -0.897586 0
M  V30 562 O 53.3574 -1.68716 -0.891044 0
M  V30 563 C 50.4974 -3.23952 -1.1895 0
M  V30 564 C 49.6104 -4.29441 -0.469517 0
M  V30 565 C 48.7454 -5.1038 -1.47259 0
M  V30 566 C 47.7844 -6.07632 -0.738225 0
M  V30 567 N 46.9214 -6.8149 -1.68868 0
M  V30 568 H 51.7614 -2.93019 0.542596 0
M  V30 569 H 49.2984 -1.44422 0.279401 0
M  V30 570 H 51.2564 -3.76767 -1.79173 0
M  V30 571 H 49.8864 -2.62926 -1.87269 0
M  V30 572 H 48.9384 -3.79594 0.247467 0
M  V30 573 H 50.2504 -4.98689 0.105241 0
M  V30 574 H 49.4044 -5.67402 -2.14803 0
M  V30 575 H 48.1434 -4.4106 -2.08128 0
M  V30 576 H 47.1484 -5.49778 -0.0489293 0
M  V30 577 H 48.3734 -6.78966 -0.135129 0
M  V30 578 H 46.3194 -6.14891 -2.28573 0
M  V30 579 H 46.2364 -7.46948 -1.16636 0
M  V30 580 H 47.5044 -7.43078 -2.3549 0
M  V30 581 N 51.7335 -0.305618 -1.54608 0
M  V30 582 C 52.6965 0.555591 -2.22364 0
M  V30 583 C 53.6965 1.05768 -1.21119 0
M  V30 584 O 54.8865 0.952972 -1.45822 0
M  V30 585 C 52.0185 1.76974 -2.91364 0
M  V30 586 H 53.2115 -0.0364572 -2.99878 0
M  V30 587 H 50.7645 -0.0565007 -1.56198 0
M  V30 588 H 51.4995 2.40151 -2.17941 0
M  V30 589 H 51.2845 1.41732 -3.65588 0
M  V30 590 H 52.7745 2.38148 -3.43038 0
M  V30 591 N 53.2116 1.57565 -0.0334293 0
M  V30 592 C 54.4576 1.92262 0.645226 0
M  V30 593 C 54.7906 0.910543 1.71531 0
M  V30 594 O 54.0656 -0.066099 1.94388 0
M  V30 595 C 54.3486 3.37422 1.2577 0
M  V30 596 C 54.2016 4.49369 0.196891 0
M  V30 597 C 55.5206 3.82628 2.17449 0
M  V30 598 H 52.6396 0.699171 0.233085 0
M  V30 599 H 55.2816 1.89779 -0.0915694 0
M  V30 600 H 53.4316 3.39669 1.88566 0
M  V30 601 H 55.1036 4.59254 -0.433962 0
M  V30 602 H 53.3466 4.31168 -0.477137 0
M  V30 603 H 54.0176 5.47978 0.665124 0
M  V30 604 H 56.4936 3.82145 1.64634 0
M  V30 605 H 55.3696 4.84883 2.57254 0
M  V30 606 H 55.6306 3.18376 3.0674 0
M  V30 607 N 54.6897 -0.239769 1.55765 0
M  V30 608 C 55.9667 -0.990056 1.68693 0
M  V30 609 C 56.3467 -2.03107 0.5754 0
M  V30 610 O 55.6947 -2.24604 -0.42017 0
M  V30 611 C 55.9047 -1.61696 3.09282 0
M  V30 612 C 57.2527 -2.11613 3.6811 0
M  V30 613 O 58.2767 -1.71624 3.12127 0
M  V30 614 O 57.1357 -2.85057 4.66267 0
M  V30 615 H 54.2297 -0.461299 0.686391 0
M  V30 616 H 56.7757 -0.232991 1.68093 0
M  V30 617 H 55.5477 -0.864357 3.81634 0
M  V30 618 H 55.1707 -2.44005 3.13923 0
M  V30 619 N 56.1678 -1.49265 -0.50573 0
M  V30 620 C 57.1308 -1.65075 -1.59006 0
M  V30 621 C 58.1308 -0.522768 -1.52065 0
M  V30 622 O 59.3208 -0.789117 -1.55302 0
M  V30 623 C 56.4528 -1.64369 -2.98656 0
M  V30 624 H 57.6458 -2.61784 -1.46319 0
M  V30 625 H 55.1988 -1.38226 -0.729616 0
M  V30 626 H 55.9338 -0.692272 -3.16825 0
M  V30 627 H 55.7188 -2.46282 -3.05103 0
M  V30 628 H 57.2088 -1.78674 -3.77446 0
M  V30 629 N 57.6459 0.756429 -1.3826 0
M  V30 630 C 58.6089 1.85176 -1.35065 0
M  V30 631 C 59.6089 1.58818 -0.251703 0
M  V30 632 O 60.7989 1.66615 -0.508433 0
M  V30 633 C 57.9309 3.22596 -1.10201 0
M  V30 634 H 59.1239 1.89417 -2.3251 0
M  V30 635 H 56.6769 0.95783 -1.23512 0
M  V30 636 H 57.4119 3.24025 -0.133504 0
M  V30 637 H 57.1969 3.43122 -1.89762 0
M  V30 638 H 58.6869 4.02673 -1.10654 0
M  V30 639 N 59.124 1.23083 0.984299 0
M  V30 640 C 60.054 1.03292 2.09411 0
M  V30 641 C 61.035 -0.048923 1.7003 0
M  V30 642 O 62.22 0.114967 1.93859 0
M  V30 643 C 59.35 0.619155 3.41736 0
M  V30 644 C 58.304 1.64791 3.95004 0
M  V30 645 C 57.63 1.0897 5.23478 0
M  V30 646 C 58.93 3.03999 4.24714 0
M  V30 647 H 60.624 1.96119 2.26225 0
M  V30 648 H 58.17 0.944344 1.08711 0
M  V30 649 H 60.123 0.467777 4.18796 0
M  V30 650 H 58.847 -0.344786 3.24775 0
M  V30 651 H 57.506 1.78721 3.20085 0
M  V30 652 H 57.154 0.11686 5.02864 0
M  V30 653 H 56.854 1.77704 5.60085 0
M  V30 654 H 58.378 0.950093 6.03163 0
M  V30 655 H 59.792 2.93393 4.92538 0
M  V30 656 H 58.189 3.69936 4.72512 0
M  V30 657 H 59.259 3.53285 3.32142 0
M  V30 658 N 60.6021 -1.18246 1.0419 0
M  V30 659 C 61.5491 -2.2192 0.634037 0
M  V30 660 C 62.5191 -1.62179 -0.358765 0
M  V30 661 O 63.7041 -1.89122 -0.252466 0
M  V30 662 C 60.8441 -3.451 0.00445535 0
M  V30 663 C 59.9571 -4.19174 1.04487 0
M  V30 664 C 59.0921 -5.29813 0.383676 0
M  V30 665 C 58.1311 -5.9566 1.4091 0
M  V30 666 N 57.2681 -6.97834 0.772784 0
M  V30 667 H 62.1081 -2.56164 1.52263 0
M  V30 668 H 59.6451 -1.25843 0.761701 0
M  V30 669 H 61.6031 -4.15485 -0.377919 0
M  V30 670 H 60.2331 -3.11472 -0.847652 0
M  V30 671 H 59.2851 -3.47604 1.54518 0
M  V30 672 H 60.5971 -4.64267 1.82368 0
M  V30 673 H 59.7511 -6.06677 -0.0528366 0
M  V30 674 H 58.4901 -4.85825 -0.427208 0
M  V30 675 H 57.4951 -5.17535 1.85574 0
M  V30 676 H 58.7201 -6.4173 2.22171 0
M  V30 677 H 56.6661 -6.55998 -0.0177708 0
M  V30 678 H 56.5831 -7.41186 1.48928 0
M  V30 679 H 57.8511 -7.78665 0.36071 0
M  V30 680 N 62.0802 -0.821533 -1.34494 0
M  V30 681 C 63.0272 -0.240397 -2.29545 0
M  V30 682 C 63.9972 0.634031 -1.53523 0
M  V30 683 O 65.1822 0.575966 -1.81899 0
M  V30 684 C 62.3222 0.592869 -3.39969 0
M  V30 685 C 61.4352 -0.30365 -4.30932 0
M  V30 686 C 60.5702 0.539049 -5.28458 0
M  V30 687 C 59.6092 -0.356942 -6.11058 0
M  V30 688 N 58.7462 0.446603 -7.00678 0
M  V30 689 H 63.5862 -1.05632 -2.7865 0
M  V30 690 H 61.1232 -0.532413 -1.37127 0
M  V30 691 H 63.0812 1.09129 -4.02675 0
M  V30 692 H 61.7112 1.37392 -2.92102 0
M  V30 693 H 60.7632 -0.920276 -3.691 0
M  V30 694 H 62.0752 -0.992661 -4.88823 0
M  V30 695 H 61.2292 1.102 -5.96608 0
M  V30 696 H 59.9682 1.26157 -4.71101 0
M  V30 697 H 58.9732 -0.932047 -5.41842 0
M  V30 698 H 60.1982 -1.07755 -6.70497 0
M  V30 699 H 58.1442 1.15282 -6.45791 0
M  V30 700 H 58.0612 -0.184048 -7.55776 0
M  V30 701 H 59.3292 0.992352 -7.73158 0
M  V30 702 N 63.5583 1.46682 -0.576371 0
M  V30 703 C 64.7883 2.06498 -0.0648694 0
M  V30 704 C 65.1963 1.42665 1.24271 0
M  V30 705 O 64.5393 0.523886 1.76071 0
M  V30 706 C 64.6013 3.5904 0.181816 0
M  V30 707 C 64.2653 4.45028 -1.0392 0
M  V30 708 C 65.2623 4.81959 -1.94966 0
M  V30 709 C 62.9473 4.86259 -1.25927 0
M  V30 710 C 64.9413 5.58942 -3.06371 0
M  V30 711 C 62.6283 5.63002 -2.37638 0
M  V30 712 C 63.6263 5.99257 -3.2769 0
M  V30 713 O 63.3143 6.7445 -4.37461 0
M  V30 714 H 63.0463 0.674028 -0.0515987 0
M  V30 715 H 65.6003 1.89393 -0.794951 0
M  V30 716 H 63.8303 3.74429 0.966436 0
M  V30 717 H 65.5193 4.00806 0.641047 0
M  V30 718 H 66.2853 4.50689 -1.79177 0
M  V30 719 H 62.1643 4.57494 -0.567448 0
M  V30 720 H 65.7083 5.87158 -3.76684 0
M  V30 721 H 61.6053 5.93686 -2.53392 0
M  V30 722 H 62.3733 6.92867 -4.35749 0
M  V30 723 N 65.0364 0.313813 1.54444 0
M  V30 724 C 65.9844 -0.572171 2.25453 0
M  V30 725 C 66.9784 -1.12657 1.2651 0
M  V30 726 O 68.1844 -1.07573 1.44319 0
M  V30 727 H 64.5594 -0.203146 0.724041 0
M  V30 728 H 66.5304 0.0491145 2.9836 0
M  V30 729 C 65.2794 -1.72626 3.0182 0
M  V30 730 H 64.6024 -1.30891 3.77767 0
M  V30 731 H 66.0424 -2.32199 3.54767 0
M  V30 732 C 64.5014 -2.63806 2.09542 0
M  V30 733 O 65.0314 -3.65256 1.67185 0
M  V30 734 N 63.2374 -2.31824 1.75232 0
M  V30 735 H 62.7844 -1.49368 2.09873 0
M  V30 736 H 62.7424 -2.93095 1.13767 0
M  V30 737 N 66.5145 -1.57545 0.0417849 0
M  V30 738 C 67.7395 -1.97035 -0.647455 0
M  V30 739 C 68.1645 -0.918775 -1.64135 0
M  V30 740 O 67.5225 0.119006 -1.80909 0
M  V30 741 C 67.5705 -3.35609 -1.31905 0
M  V30 742 O 66.6745 -3.3287 -2.43457 0
M  V30 743 H 66.0155 -0.64211 -0.169086 0
M  V30 744 H 68.5455 -2.04318 0.107399 0
M  V30 745 H 68.5555 -3.72126 -1.67291 0
M  V30 746 H 67.2305 -4.11685 -0.590586 0
M  V30 747 H 65.8075 -3.08087 -2.10088 0
M  V30 748 N 67.9926 0.231505 -1.5589 0
M  V30 749 C 68.9246 1.31006 -1.8807 0
M  V30 750 C 69.9376 1.43539 -0.768145 0
M  V30 751 O 71.1266 1.44614 -1.04638 0
M  V30 752 C 68.2266 2.68688 -2.06543 0
M  V30 753 C 67.3996 2.78228 -3.37502 0
M  V30 754 C 66.4586 3.96857 -3.4553 0
M  V30 755 O 65.4846 3.85662 -4.18633 0
M  V30 756 N 66.6866 5.1072 -2.75944 0
M  V30 757 H 69.4516 1.03731 -2.81176 0
M  V30 758 H 67.0126 0.421573 -1.56315 0
M  V30 759 H 69.0046 3.46412 -2.09239 0
M  V30 760 H 67.5746 2.88605 -1.20109 0
M  V30 761 H 66.7946 1.87059 -3.46991 0
M  V30 762 H 68.0826 2.81564 -4.23791 0
M  V30 763 H 67.4806 5.2271 -2.16311 0
M  V30 764 H 66.0376 5.86523 -2.84314 0
M  V30 765 N 69.4707 1.49531 0.497807 0
M  V30 766 C 70.4187 1.66926 1.61983 0
M  V30 767 C 71.4127 0.535167 1.60724 0
M  V30 768 O 72.6187 0.714896 1.65195 0
M  V30 769 H 68.9937 0.526415 0.537021 0
M  V30 770 H 70.9647 2.61098 1.44465 0
M  V30 771 C 69.7137 1.75602 3.00099 0
M  V30 772 H 69.0367 2.62244 3.01775 0
M  V30 773 H 70.4767 1.91807 3.78135 0
M  V30 774 C 68.9357 0.501543 3.33146 0
M  V30 775 O 69.4657 -0.371342 3.9998 0
M  V30 776 N 67.6717 0.363531 2.88317 0
M  V30 777 H 67.2187 1.07485 2.34104 0
M  V30 778 H 67.1767 -0.474728 3.10795 0
M  V30 779 N 70.9488 -0.749086 1.3866 0
M  V30 780 C 71.8808 -1.87273 1.32142 0
M  V30 781 C 72.8938 -1.61127 0.232787 0
M  V30 782 O 74.0828 -1.71623 0.49069 0
M  V30 783 C 71.1828 -3.23005 1.02571 0
M  V30 784 C 70.3558 -3.7662 2.22433 0
M  V30 785 C 69.4148 -4.90879 1.89537 0
M  V30 786 O 68.4408 -5.05276 2.62078 0
M  V30 787 N 69.6428 -5.74198 0.853031 0
M  V30 788 H 72.4078 -1.93373 2.28969 0
M  V30 789 H 69.9688 -0.929216 1.32579 0
M  V30 790 H 71.9608 -3.96992 0.786085 0
M  V30 791 H 70.5308 -3.12262 0.145249 0
M  V30 792 H 69.7508 -2.94147 2.62434 0
M  V30 793 H 71.0388 -4.09173 3.02415 0
M  V30 794 H 70.4368 -5.6514 0.25155 0
M  V30 795 H 68.9938 -6.48313 0.67329 0
M  V30 796 N 72.4269 -1.23603 -0.977757 0
M  V30 797 C 73.6519 -1.09735 -1.75991 0
M  V30 798 C 74.0769 0.346858 -1.84874 0
M  V30 799 O 73.4349 1.25093 -1.3123 0
M  V30 800 C 73.4829 -1.73051 -3.16363 0
M  V30 801 O 72.5869 -0.994452 -4.0023 0
M  V30 802 H 71.9279 -0.384476 -0.541364 0
M  V30 803 H 74.4579 -1.6371 -1.2272 0
M  V30 804 H 74.4679 -1.78398 -3.66931 0
M  V30 805 H 73.1429 -2.78137 -3.09213 0
M  V30 806 H 71.7199 -1.01812 -3.58732 0
M  V30 807 N 73.905 1.17692 -1.04816 0
M  V30 808 C 74.853 2.23632 -0.63966 0
M  V30 809 C 75.847 1.6601 0.337219 0
M  V30 810 O 77.053 1.78844 0.203693 0
M  V30 811 H 73.428 0.727949 -0.188665 0
M  V30 812 H 75.399 2.55387 -1.54337 0
M  V30 813 C 74.148 3.4769 -0.0264051 0
M  V30 814 H 73.471 3.92331 -0.769164 0
M  V30 815 H 74.911 4.23418 0.222098 0
M  V30 816 C 73.37 3.13807 1.22584 0
M  V30 817 O 73.9 3.28236 2.31569 0
M  V30 818 N 72.106 2.68065 1.12202 0
M  V30 819 H 71.653 2.56525 0.235133 0
M  V30 820 H 71.611 2.45767 1.96076 0
M  V30 821 N 75.3831 0.828654 1.34056 0
M  V30 822 C 76.3311 0.242973 2.31327 0
M  V30 823 C 77.3251 -0.61944 1.57668 0
M  V30 824 O 78.5311 -0.51014 1.7262 0
M  V30 825 H 74.9061 0.059834 0.749616 0
M  V30 826 H 76.8771 1.07809 2.78244 0
M  V30 827 C 75.6261 -0.575733 3.429 0
M  V30 828 H 74.9491 0.0785582 3.99723 0
M  V30 829 H 76.3891 -0.951547 4.13185 0
M  V30 830 C 74.8481 -1.75044 2.87856 0
M  V30 831 O 75.3781 -2.84882 2.83205 0
M  V30 832 N 73.5841 -1.56903 2.44602 0
M  V30 833 H 73.1311 -0.675547 2.48584 0
M  V30 834 H 73.0891 -2.35652 2.08124 0
M  V30 835 N 76.8612 -1.46375 0.584142 0
M  V30 836 C 77.7932 -2.28443 -0.186119 0
M  V30 837 C 78.8062 -1.38596 -0.854115 0
M  V30 838 O 79.9952 -1.63183 -0.723438 0
M  V30 839 C 77.0952 -3.13671 -1.28311 0
M  V30 840 C 76.2682 -4.31652 -0.706758 0
M  V30 841 C 75.3272 -4.98267 -1.69163 0
M  V30 842 O 74.3532 -5.55815 -1.22712 0
M  V30 843 N 75.5552 -4.95408 -3.02575 0
M  V30 844 H 78.3202 -2.9519 0.517986 0
M  V30 845 H 75.8812 -1.56303 0.42201 0
M  V30 846 H 77.8732 -3.55101 -1.94128 0
M  V30 847 H 76.4432 -2.48989 -1.89005 0
M  V30 848 H 75.6632 -3.93989 0.128908 0
M  V30 849 H 76.9512 -5.07906 -0.301506 0
M  V30 850 H 76.3492 -4.49902 -3.42936 0
M  V30 851 H 74.9062 -5.40774 -3.63877 0
M  V30 852 N 78.3393 -0.321999 -1.54275 0
M  V30 853 C 79.5863 0.281044 -2.0054 0
M  V30 854 C 79.9143 1.52265 -1.21019 0
M  V30 855 O 79.1693 1.93687 -0.279982 0
M  V30 856 C 79.4683 0.661769 -3.5122 0
M  V30 857 C 79.1343 -0.480482 -4.48333 0
M  V30 858 C 77.7963 -0.794005 -4.74604 0
M  V30 859 C 80.1483 -1.24783 -5.06042 0
M  V30 860 C 77.4763 -1.87763 -5.55844 0
M  V30 861 C 79.8283 -2.32153 -5.88462 0
M  V30 862 C 78.4923 -2.64089 -6.13036 0
M  V30 863 H 77.7623 0.102841 -0.733829 0
M  V30 864 H 80.4093 -0.445453 -1.86247 0
M  V30 865 H 78.7143 1.46867 -3.63232 0
M  V30 866 H 80.4113 1.13989 -3.84457 0
M  V30 867 H 77.0013 -0.226039 -4.28004 0
M  V30 868 H 81.1853 -1.01887 -4.85729 0
M  V30 869 H 76.4413 -2.12954 -5.73115 0
M  V30 870 H 80.6153 -2.92057 -6.32199 0
M  V30 871 H 78.2423 -3.48185 -6.75775 0
M  V30 872 N 79.8174 1.5752 -0.0501392 0
M  V30 873 C 81.0634 1.92936 0.624798 0
M  V30 874 C 81.3964 0.928685 1.70555 0
M  V30 875 O 80.6714 -0.0454779 1.94447 0
M  V30 876 C 80.9544 3.38737 1.22185 0
M  V30 877 C 80.8074 4.49552 0.149218 0
M  V30 878 C 82.1264 3.84913 2.13378 0
M  V30 879 H 79.2454 0.701604 0.225657 0
M  V30 880 H 81.8874 1.89671 -0.111693 0
M  V30 881 H 80.0374 3.4165 1.84953 0
M  V30 882 H 81.7094 4.58768 -0.482648 0
M  V30 883 H 79.9524 4.30638 -0.522841 0
M  V30 884 H 80.6234 5.48653 0.606966 0
M  V30 885 H 83.0994 3.8387 1.60572 0
M  V30 886 H 81.9754 4.87584 2.52097 0
M  V30 887 H 82.2364 3.21611 3.03346 0
M  V30 888 N 81.2955 -0.223234 1.56011 0
M  V30 889 C 82.2255 -1.27988 1.95298 0
M  V30 890 C 83.2065 -1.48976 0.820979 0
M  V30 891 O 84.3915 -1.61188 1.08315 0
M  V30 892 C 81.5215 -2.63 2.26822 0
M  V30 893 C 80.4755 -2.56671 3.42497 0
M  V30 894 C 79.8015 -3.95697 3.59622 0
M  V30 895 C 81.1015 -2.11601 4.77517 0
M  V30 896 H 82.7955 -0.953525 2.8381 0
M  V30 897 H 80.3415 -0.457244 1.36548 0
M  V30 898 H 82.2945 -3.37077 2.52898 0
M  V30 899 H 81.0185 -2.9732 1.35161 0
M  V30 900 H 79.6775 -1.85051 3.16467 0
M  V30 901 H 79.3255 -4.27322 2.6534 0
M  V30 902 H 79.0255 -3.92345 4.37424 0
M  V30 903 H 80.5495 -4.71438 3.88044 0
M  V30 904 H 81.9635 -2.7542 5.02809 0
M  V30 905 H 80.3605 -2.19311 5.5859 0
M  V30 906 H 81.4305 -1.06824 4.72987 0
M  V30 907 N 82.7736 -1.49793 -0.48987 0
M  V30 908 C 84.0036 -1.6333 -1.26518 0
M  V30 909 C 84.4116 -0.308392 -1.8667 0
M  V30 910 O 83.7546 0.717512 -1.69108 0
M  V30 911 C 83.8166 -2.6522 -2.4269 0
M  V30 912 C 83.4806 -4.09279 -2.03321 0
M  V30 913 C 84.4776 -4.95738 -1.56652 0
M  V30 914 C 82.1626 -4.55082 -2.12616 0
M  V30 915 C 84.1566 -6.26041 -1.19795 0
M  V30 916 C 81.8436 -5.85396 -1.75371 0
M  V30 917 C 82.8416 -6.707 -1.29036 0
M  V30 918 O 82.5296 -7.98584 -0.92299 0
M  V30 919 H 82.2616 -0.552502 -0.389509 0
M  V30 920 H 84.8156 -1.96642 -0.593381 0
M  V30 921 H 83.0456 -2.27112 -3.12981 0
M  V30 922 H 84.7346 -2.68171 -3.04695 0
M  V30 923 H 85.5006 -4.61575 -1.48908 0
M  V30 924 H 81.3796 -3.88844 -2.47631 0
M  V30 925 H 84.9236 -6.92578 -0.835582 0
M  V30 926 H 80.8206 -6.19085 -1.82768 0
M  V30 927 H 81.5886 -8.11692 -1.05349 0
M  V30 928 N 84.2517 0.741722 -1.39055 0
M  V30 929 C 85.6677 1.04638 -1.20512 0
M  V30 930 C 85.8677 2.01405 -0.0620218 0
M  V30 931 O 84.9237 2.45547 0.588457 0
M  V30 932 C 86.2367 1.6151 -2.53643 0
M  V30 933 C 87.7847 1.73623 -2.6043 0
M  V30 934 C 88.2597 2.33906 -3.93767 0
M  V30 935 N 89.7507 2.41323 -3.9537 0
M  V30 936 C 90.4857 2.88888 -4.95309 0
M  V30 937 N 89.9817 3.36401 -6.05645 0
M  V30 938 N 91.7747 2.88037 -4.82692 0
M  V30 939 H 83.9257 0.0998155 -2.12165 0
M  V30 940 H 86.1887 0.106907 -0.941953 0
M  V30 941 H 85.8947 0.978739 -3.37807 0
M  V30 942 H 85.7687 2.60411 -2.72885 0
M  V30 943 H 88.1557 2.36384 -1.76655 0
M  V30 944 H 88.2367 0.733945 -2.45045 0
M  V30 945 H 87.8807 1.71776 -4.7797 0
M  V30 946 H 87.8107 3.34799 -4.06469 0
M  V30 947 H 90.3017 2.07734 -3.15682 0
M  V30 948 H 90.6147 3.71186 -6.77821 0
M  V30 949 H 88.9597 3.34427 -6.09248 0
M  V30 950 H 92.1507 2.50237 -3.95599 0
M  V30 951 H 92.3237 3.24792 -5.60726 0
M  V30 952 N 85.7298 1.2412 0.971189 0
M  V30 953 C 86.9788 1.07284 1.70801 0
M  V30 954 C 87.2918 -0.388902 1.91695 0
M  V30 955 O 88.4978 -0.677379 2.62914 0
M  V30 956 C 86.9538 1.87145 3.07416 0
M  V30 957 C 86.5618 3.37707 2.94377 0
M  V30 958 C 88.3058 1.78828 3.84995 0
M  V30 959 C 86.2128 4.09925 4.26281 0
M  V30 960 H 85.1428 0.397854 0.64049 0
M  V30 961 H 87.7938 1.4817 1.0825 0
M  V30 962 H 86.1758 1.39071 3.70777 0
M  V30 963 H 87.3498 3.93335 2.4005 0
M  V30 964 H 85.6648 3.46938 2.30267 0
M  V30 965 H 88.2618 2.30089 4.82662 0
M  V30 966 H 88.6048 0.75284 4.09436 0
M  V30 967 H 89.1378 2.24563 3.28354 0
M  V30 968 H 85.8768 5.13813 4.07033 0
M  V30 969 H 85.3968 3.59083 4.80437 0
M  V30 970 H 87.0758 4.1673 4.94919 0
M  V30 971 N 87.2079 -1.17134 1.05439 0
M  V30 972 C 88.4359 -1.91372 0.786414 0
M  V30 973 C 88.8509 -1.76955 -0.658202 0
M  V30 974 O 88.2079 -1.10838 -1.44987 0
M  V30 975 C 88.2589 -3.42356 1.1608 0
M  V30 976 O 87.9799 -3.56332 2.54871 0
M  V30 977 C 89.4809 -4.33663 0.919322 0
M  V30 978 H 86.7009 -0.607118 0.285743 0
M  V30 979 H 89.2449 -1.48525 1.40572 0
M  V30 980 H 87.3999 -3.82939 0.586191 0
M  V30 981 H 87.8139 -4.49896 2.69618 0
M  V30 982 H 89.2879 -5.38099 1.231 0
M  V30 983 H 89.7649 -4.38959 -0.145359 0
M  V30 984 H 90.3709 -3.98796 1.47789 0
M  V30 985 N 88.686 -0.835752 -1.33615 0
M  V30 986 C 89.596 -0.269088 -2.33052 0
M  V30 987 C 90.612 0.603251 -1.63208 0
M  V30 988 O 91.788 0.508112 -1.94885 0
M  V30 989 C 88.853 0.549091 -3.42324 0
M  V30 990 C 87.914 -0.347156 -4.27894 0
M  V30 991 C 87.147 0.43207 -5.31948 0
M  V30 992 O 87.37 1.66409 -5.45586 0
M  V30 993 O 86.304 -0.192298 -6.01593 0
M  V30 994 H 90.13 -1.09243 -2.83372 0
M  V30 995 H 87.715 -0.598198 -1.36901 0
M  V30 996 H 89.597 1.01414 -4.09015 0
M  V30 997 H 88.272 1.34955 -2.94226 0
M  V30 998 H 87.179 -0.859979 -3.64081 0
M  V30 999 H 88.512 -1.1123 -4.79467 0
M  V30 1000 N 90.1641 1.46063 -0.591896 0
M  V30 1001 C 91.1271 2.28854 0.125973 0
M  V30 1002 C 92.1271 1.38903 0.810107 0
M  V30 1003 O 93.3171 1.61186 0.66066 0
M  V30 1004 C 90.4491 3.19526 1.1881 0
M  V30 1005 H 91.6421 2.93802 -0.601717 0
M  V30 1006 H 89.1951 1.52325 -0.350254 0
M  V30 1007 H 89.9301 2.59345 1.94707 0
M  V30 1008 H 89.7151 3.85766 0.701936 0
M  V30 1009 H 91.2051 3.81817 1.69132 0
M  V30 1010 N 91.6422 0.330177 1.54103 0
M  V30 1011 C 92.8702 -0.272179 2.05102 0
M  V30 1012 C 93.2852 -1.45267 1.20595 0
M  V30 1013 O 92.6422 -1.8094 0.238144 0
M  V30 1014 C 92.6932 -0.70023 3.54653 0
M  V30 1015 O 92.4142 0.433301 4.35952 0
M  V30 1016 C 93.9152 -1.3647 4.21771 0
M  V30 1017 H 91.1352 -0.0549159 0.668749 0
M  V30 1018 H 93.6792 0.478285 1.98828 0
M  V30 1019 H 91.8342 -1.40066 3.61193 0
M  V30 1020 H 92.2482 0.0947539 5.24414 0
M  V30 1021 H 93.7222 -1.61509 5.27843 0
M  V30 1022 H 94.1992 -2.31409 3.73292 0
M  V30 1023 H 94.8052 -0.706675 4.19388 0
M  V30 1024 N 93.1203 -1.57491 0.0584922 0
M  V30 1025 C 94.0673 -2.11958 -0.913376 0
M  V30 1026 C 95.0373 -1.02875 -1.30407 0
M  V30 1027 O 96.2223 -1.30464 -1.39226 0
M  V30 1028 C 93.3623 -2.67497 -2.18035 0
M  V30 1029 C 92.4753 -3.90691 -1.84349 0
M  V30 1030 C 91.6103 -4.3452 -3.05559 0
M  V30 1031 C 90.6493 -5.50395 -2.67827 0
M  V30 1032 N 89.7863 -5.89244 -3.81754 0
M  V30 1033 H 94.6263 -2.94704 -0.442017 0
M  V30 1034 H 92.1633 -1.45643 -0.206545 0
M  V30 1035 H 94.1213 -2.978 -2.92183 0
M  V30 1036 H 92.7513 -1.87537 -2.62735 0
M  V30 1037 H 91.8033 -3.66934 -1.00319 0
M  V30 1038 H 93.1153 -4.7489 -1.5258 0
M  V30 1039 H 92.2693 -4.66414 -3.87998 0
M  V30 1040 H 91.0083 -3.49147 -3.40511 0
M  V30 1041 H 90.0133 -5.18165 -1.83806 0
M  V30 1042 H 91.2383 -6.3749 -2.34059 0
M  V30 1043 H 89.1843 -5.06823 -4.16493 0
M  V30 1044 H 89.1013 -6.68151 -3.53708 0
M  V30 1045 H 90.3693 -6.25756 -4.64811 0
M  V30 1046 N 94.5984 0.214957 -1.56127 0
M  V30 1047 C 95.8264 0.955092 -1.83536 0
M  V30 1048 C 96.2414 1.77677 -0.638472 0
M  V30 1049 O 95.5984 1.78219 0.392968 0
M  V30 1050 C 95.6494 1.86734 -3.09536 0
M  V30 1051 O 95.3704 1.07887 -4.24608 0
M  V30 1052 C 96.8714 2.72082 -3.4998 0
M  V30 1053 H 94.0914 0.279611 -0.609966 0
M  V30 1054 H 96.6354 0.228197 -2.03223 0
M  V30 1055 H 94.7904 2.5481 -2.91806 0
M  V30 1056 H 95.2044 1.69872 -4.9623 0
M  V30 1057 H 96.6784 3.31782 -4.41163 0
M  V30 1058 H 97.1554 3.44806 -2.7204 0
M  V30 1059 H 97.7614 2.09409 -3.70173 0
M  V30 1060 N 96.0765 1.50051 0.48192 0
M  V30 1061 C 97.3225 1.60736 1.2366 0
M  V30 1062 C 97.6555 0.301786 1.91841 0
M  V30 1063 O 96.9305 -0.696025 1.8162 0
M  V30 1064 C 97.2135 2.78009 2.28874 0
M  V30 1065 C 97.0665 4.18416 1.65069 0
M  V30 1066 C 98.3855 2.90867 3.30279 0
M  V30 1067 H 95.5045 0.585031 0.448228 0
M  V30 1068 H 98.1465 1.82402 0.531946 0
M  V30 1069 H 96.2965 2.59667 2.88973 0
M  V30 1070 H 97.9685 4.48322 1.0865 0
M  V30 1071 H 96.2115 4.23177 0.954148 0
M  V30 1072 H 96.8825 4.96381 2.41474 0
M  V30 1073 H 99.3585 3.07623 2.80191 0
M  V30 1074 H 98.2345 3.74566 4.01238 0
M  V30 1075 H 98.4955 2.01021 3.93755 0
M  V30 1076 N 97.5546 -0.734337 1.39446 0
M  V30 1077 C 98.8026 -1.49096 1.36436 0
M  V30 1078 C 99.1236 -1.94961 -0.0388255 0
M  V30 1079 O 98.3936 -1.69033 -0.990191 0
M  V30 1080 H 96.9736 -0.5531 0.502085 0
M  V30 1081 H 99.6356 -0.871725 1.74319 0
M  V30 1082 H 98.7316 -2.37276 2.02747 0
M  V30 1083 N 99.0327 -1.24633 -0.964593 0
M  V30 1084 C 100.258 -1.11596 -1.74818 0
M  V30 1085 C 100.683 0.32723 -1.85232 0
M  V30 1086 O 100.041 1.23695 -1.32549 0
M  V30 1087 C 100.089 -1.76397 -3.1451 0
M  V30 1088 O 99.1927 -1.03685 -3.99153 0
M  V30 1089 H 98.5337 -0.390196 -0.537255 0
M  V30 1090 H 101.064 -1.65002 -1.20977 0
M  V30 1091 H 101.074 -1.8228 -3.65018 0
M  V30 1092 H 99.7487 -2.81401 -3.06246 0
M  V30 1093 H 98.3257 -1.05611 -3.57632 0
M  V30 1094 N 100.511 1.16574 -1.06058 0
M  V30 1095 C 101.788 1.83048 -0.689416 0
M  V30 1096 C 102.168 1.94122 0.829443 0
M  V30 1097 O 101.516 1.48249 1.7388 0
M  V30 1098 C 101.726 3.20186 -1.38859 0
M  V30 1099 C 103.074 3.95989 -1.53226 0
M  V30 1100 O 104.098 3.29696 -1.3483 0
M  V30 1101 O 102.957 5.14813 -1.83384 0
M  V30 1102 H 100.051 0.790258 -0.243764 0
M  V30 1103 H 102.597 1.23797 -1.16071 0
M  V30 1104 H 101.369 3.07146 -2.4244 0
M  V30 1105 H 100.992 3.87112 -0.907216 0
M  V30 1106 N 101.989 0.842826 1.3317 0
M  V30 1107 C 103.217 0.454055 2.01856 0
M  V30 1108 C 103.632 -0.94587 1.63397 0
M  V30 1109 O 102.989 -1.61534 0.849302 0
M  V30 1110 C 103.04 0.569715 3.56982 0
M  V30 1111 O 102.761 1.91448 3.94055 0
M  V30 1112 C 104.262 0.178412 4.42941 0
M  V30 1113 H 101.482 0.17979 0.646465 0
M  V30 1114 H 104.026 1.1365 1.70012 0
M  V30 1115 H 102.181 -0.0648587 3.87346 0
M  V30 1116 H 102.595 1.90282 4.88767 0
M  V30 1117 H 104.069 0.310376 5.51127 0
M  V30 1118 H 104.546 -0.880056 4.30293 0
M  V30 1119 H 105.152 0.787579 4.17944 0
M  V30 1120 N 103.467 -1.45747 0.599634 0
M  V30 1121 C 104.714 -2.02292 0.0917284 0
M  V30 1122 C 105.042 -1.46906 -1.27472 0
M  V30 1123 O 104.297 -0.630652 -1.8526 0
M  V30 1124 C 104.596 -3.57399 -0.00602758 0
M  V30 1125 C 104.262 -4.31902 1.29503 0
M  V30 1126 C 102.924 -4.51974 1.65144 0
M  V30 1127 C 105.276 -4.74551 2.15525 0
M  V30 1128 C 102.604 -5.11949 2.86574 0
M  V30 1129 C 104.956 -5.35868 3.36196 0
M  V30 1130 C 103.62 -5.54165 3.72099 0
M  V30 1131 H 102.89 -0.740239 0.0335658 0
M  V30 1132 H 105.537 -1.7491 0.779661 0
M  V30 1133 H 103.842 -3.84014 -0.777183 0
M  V30 1134 H 105.539 -3.98846 -0.415038 0
M  V30 1135 H 102.129 -4.16588 1.00761 0
M  V30 1136 H 106.313 -4.58784 1.8929 0
M  V30 1137 H 101.569 -5.24305 3.14507 0
M  V30 1138 H 105.743 -5.6787 4.03109 0
M  V30 1139 H 103.37 -6.00406 4.6628 0
M  V30 1140 N 104.945 -0.338344 -1.53925 0
M  V30 1141 C 106.175 0.260919 -2.04946 0
M  V30 1142 C 106.583 1.45174 -1.2133 0
M  V30 1143 O 105.926 1.82122 -0.240262 0
M  V30 1144 C 105.988 0.744596 -3.51704 0
M  V30 1145 C 105.652 -0.325883 -4.55837 0
M  V30 1146 C 106.649 -1.16687 -5.06636 0
M  V30 1147 C 104.334 -0.478317 -5.00017 0
M  V30 1148 C 106.328 -2.14588 -6.00192 0
M  V30 1149 C 104.015 -1.46073 -5.93385 0
M  V30 1150 C 105.013 -2.29297 -6.4336 0
M  V30 1151 O 104.701 -3.25867 -7.34892 0
M  V30 1152 H 104.433 0.0551207 -0.673749 0
M  V30 1153 H 106.987 -0.486984 -1.99544 0
M  V30 1154 H 105.217 1.54366 -3.54553 0
M  V30 1155 H 106.906 1.26383 -3.85723 0
M  V30 1156 H 107.672 -1.06016 -4.73271 0
M  V30 1157 H 103.551 0.159613 -4.60724 0
M  V30 1158 H 107.095 -2.79585 -6.39123 0
M  V30 1159 H 102.992 -1.56802 -6.26166 0
M  V30 1160 H 103.76 -3.21278 -7.5281 0
M  V30 1161 N 106.423 1.57458 -0.0668435 0
M  V30 1162 C 107.648 1.9804 0.616027 0
M  V30 1163 C 108.073 0.944771 1.62652 0
M  V30 1164 O 107.431 -0.0902094 1.81075 0
M  V30 1165 C 107.479 3.37665 1.26549 0
M  V30 1166 O 106.583 3.36701 2.38131 0
M  V30 1167 H 105.924 0.644719 0.158849 0
M  V30 1168 H 108.454 2.04121 -0.139891 0
M  V30 1169 H 108.464 3.7474 1.6135 0
M  V30 1170 H 107.139 4.12573 0.525016 0
M  V30 1171 H 105.716 3.1139 2.0516 0
M  V30 1172 N 107.901 -0.206675 1.56239 0
M  V30 1173 C 109.148 -0.928842 1.79941 0
M  V30 1174 C 109.476 -1.83734 0.638131 0
M  V30 1175 O 108.731 -1.92039 -0.376746 0
M  V30 1176 C 109.03 -1.78675 3.09532 0
M  V30 1177 C 108.696 -1.03022 4.38973 0
M  V30 1178 C 107.358 -0.821302 4.74139 0
M  V30 1179 C 109.71 -0.497081 5.18824 0
M  V30 1180 C 107.038 -0.0675719 5.86661 0
M  V30 1181 C 109.39 0.24338 6.32132 0
M  V30 1182 C 108.054 0.463422 6.65889 0
M  V30 1183 H 107.324 -0.339887 0.658451 0
M  V30 1184 H 109.971 -0.195977 1.90495 0
M  V30 1185 H 108.276 -2.58794 2.94165 0
M  V30 1186 H 109.973 -2.34792 3.25075 0
M  V30 1187 H 106.563 -1.20306 4.11369 0
M  V30 1188 H 110.747 -0.645921 4.92079 0
M  V30 1189 H 106.003 0.112995 6.11296 0
M  V30 1190 H 110.177 0.66393 6.93228 0
M  V30 1191 H 107.804 1.04938 7.52922 0
M  V30 1192 N 109.379 -1.50304 -0.473955 0
M  V30 1193 C 110.326 -1.68959 -1.57231 0
M  V30 1194 C 111.296 -0.530899 -1.57387 0
M  V30 1195 O 112.481 -0.761133 -1.74961 0
M  V30 1196 C 109.621 -1.7871 -2.95223 0
M  V30 1197 C 108.734 -3.06061 -3.04878 0
M  V30 1198 C 107.869 -3.06626 -4.33767 0
M  V30 1199 C 106.908 -4.28443 -4.37154 0
M  V30 1200 N 106.045 -4.26763 -5.5751 0
M  V30 1201 H 110.885 -2.6273 -1.40631 0
M  V30 1202 H 108.422 -1.30241 -0.683789 0
M  V30 1203 H 110.38 -1.82344 -3.75242 0
M  V30 1204 H 109.01 -0.883806 -3.10465 0
M  V30 1205 H 108.062 -3.11911 -2.17751 0
M  V30 1206 H 109.374 -3.96039 -3.0324 0
M  V30 1207 H 108.528 -3.08973 -5.22131 0
M  V30 1208 H 107.267 -2.14473 -4.3801 0
M  V30 1209 H 106.272 -4.2631 -3.47188 0
M  V30 1210 H 107.497 -5.2182 -4.34605 0
M  V30 1211 H 105.443 -3.37462 -5.62544 0
M  V30 1212 H 105.36 -5.10507 -5.57601 0
M  V30 1213 H 106.628 -4.33253 -6.48006 0
M  V30 1214 N 110.857 0.726932 -1.39834 0
M  V30 1215 C 112.087 1.51393 -1.40583 0
M  V30 1216 C 112.495 1.892 -0.000740625 0
M  V30 1217 O 111.838 1.55189 0.982951 0
M  V30 1218 C 111.9 2.82588 -2.22226 0
M  V30 1219 C 111.564 2.67169 -3.70769 0
M  V30 1220 C 112.561 2.3518 -4.63666 0
M  V30 1221 C 110.246 2.83788 -4.14451 0
M  V30 1222 C 112.24 2.20002 -5.98229 0
M  V30 1223 C 109.927 2.68229 -5.49087 0
M  V30 1224 C 110.925 2.36382 -6.4079 0
M  V30 1225 O 110.613 2.2093 -7.72946 0
M  V30 1226 H 110.345 0.474168 -0.48181 0
M  V30 1227 H 112.899 0.905247 -1.84376 0
M  V30 1228 H 111.129 3.45746 -1.73195 0
M  V30 1229 H 112.818 3.44247 -2.15055 0
M  V30 1230 H 113.584 2.21984 -4.31217 0
M  V30 1231 H 109.463 3.07566 -3.43401 0
M  V30 1232 H 113.007 1.95067 -6.69772 0
M  V30 1233 H 108.904 2.81006 -5.81125 0
M  V30 1234 H 109.672 2.35937 -7.83757 0
M  V30 1235 N 112.336 1.25143 0.95797 0
M  V30 1236 C 113.246 1.06968 2.08794 0
M  V30 1237 C 114.262 0.00773911 1.73998 0
M  V30 1238 O 115.438 0.207972 2.00323 0
M  V30 1239 C 112.503 0.68691 3.39827 0
M  V30 1240 C 111.564 1.82641 3.88511 0
M  V30 1241 C 110.797 1.46181 5.1329 0
M  V30 1242 O 111.02 0.355971 5.69288 0
M  V30 1243 O 109.954 2.29085 5.566 0
M  V30 1244 H 113.78 2.01723 2.27027 0
M  V30 1245 H 111.365 1.04051 1.07209 0
M  V30 1246 H 113.247 0.485417 4.18595 0
M  V30 1247 H 111.922 -0.231417 3.22872 0
M  V30 1248 H 110.829 2.08274 3.10762 0
M  V30 1249 H 112.162 2.72386 4.09959 0
M  V30 1250 N 113.814 -1.1601 1.06675 0
M  V30 1251 C 115.063 -1.85973 0.780818 0
M  V30 1252 C 115.376 -1.82819 -0.695444 0
M  V30 1253 O 116.582 -2.484 -1.09589 0
M  V30 1254 C 115.038 -3.33757 1.34665 0
M  V30 1255 C 114.646 -3.45374 2.85343 0
M  V30 1256 C 116.39 -4.0895 1.13843 0
M  V30 1257 C 114.297 -4.87266 3.35151 0
M  V30 1258 H 113.227 -0.696661 0.288407 0
M  V30 1259 H 115.878 -1.30903 1.28595 0
M  V30 1260 H 114.26 -3.88456 0.769274 0
M  V30 1261 H 115.434 -3.00816 3.49065 0
M  V30 1262 H 113.749 -2.83619 3.04876 0
M  V30 1263 H 116.346 -5.13654 1.4854 0
M  V30 1264 H 116.689 -4.16229 0.0770282 0
M  V30 1265 H 117.222 -3.605 1.68179 0
M  V30 1266 H 113.961 -4.85168 4.40786 0
M  V30 1267 H 113.481 -5.32433 2.76179 0
M  V30 1268 H 115.16 -5.56097 3.30704 0
M  V30 1269 N 115.292 -0.849877 -1.32721 0
M  V30 1270 C 116.239 -0.289033 -2.28983 0
M  V30 1271 C 117.209 0.601324 -1.54833 0
M  V30 1272 O 118.394 0.537253 -1.8308 0
M  V30 1273 C 115.534 0.520623 -3.4115 0
M  V30 1274 C 114.647 -0.394989 -4.3019 0
M  V30 1275 C 113.782 0.426834 -5.29482 0
M  V30 1276 C 112.821 -0.486476 -6.10164 0
M  V30 1277 N 111.958 0.297879 -7.01468 0
M  V30 1278 H 116.798 -1.11519 -2.76347 0
M  V30 1279 H 114.335 -0.56138 -1.35967 0
M  V30 1280 H 116.293 1.00563 -4.04899 0
M  V30 1281 H 114.923 1.31165 -2.9495 0
M  V30 1282 H 113.975 -0.99836 -3.67065 0
M  V30 1283 H 115.287 -1.09612 -4.86607 0
M  V30 1284 H 114.441 0.975205 -5.98811 0
M  V30 1285 H 113.18 1.16136 -4.73671 0
M  V30 1286 H 112.185 -1.04677 -5.39743 0
M  V30 1287 H 113.41 -1.21953 -6.6806 0
M  V30 1288 H 111.356 1.01558 -6.48091 0
M  V30 1289 H 111.273 -0.344318 -7.55216 0
M  V30 1290 H 112.541 0.828131 -7.75089 0
M  V30 1291 N 116.77 1.45427 -0.607355 0
M  V30 1292 C 117.68 2.34325 0.113463 0
M  V30 1293 C 118.696 1.51226 0.860617 0
M  V30 1294 O 119.872 1.84029 0.818255 0
M  V30 1295 C 116.937 3.28839 1.09844 0
M  V30 1296 C 115.998 4.27844 0.353271 0
M  V30 1297 C 115.231 5.17842 1.29133 0
M  V30 1298 O 115.454 5.11264 2.52913 0
M  V30 1299 O 114.388 5.96713 0.788523 0
M  V30 1300 H 118.214 2.97364 -0.617094 0
M  V30 1301 H 115.799 1.44807 -0.367619 0
M  V30 1302 H 117.681 3.8708 1.66575 0
M  V30 1303 H 116.356 2.68365 1.81003 0
M  V30 1304 H 115.263 3.7322 -0.256494 0
M  V30 1305 H 116.596 4.91173 -0.317822 0
M  V30 1306 N 118.248 0.346503 1.53744 0
M  V30 1307 C 119.496 -0.248612 2.00565 0
M  V30 1308 C 119.817 -1.5083 1.23593 0
M  V30 1309 O 119.087 -1.92858 0.343912 0
M  V30 1310 H 117.667 -0.0948564 0.740953 0
M  V30 1311 H 120.329 0.468341 1.89189 0
M  V30 1312 H 119.425 -0.488994 3.08245 0
M  V30 1313 N 119.726 -1.57421 0.075193 0
M  V30 1314 C 121.003 -1.85029 -0.634329 0
M  V30 1315 C 121.383 -0.968305 -1.87582 0
M  V30 1316 O 120.731 -0.0354749 -2.28472 0
M  V30 1317 C 120.941 -3.35286 -0.968742 0
M  V30 1318 C 122.289 -4.02875 -1.34077 0
M  V30 1319 O 123.313 -3.40051 -1.06037 0
M  V30 1320 O 122.172 -5.13691 -1.86506 0
M  V30 1321 H 119.266 -0.7645 -0.315387 0
M  V30 1322 H 121.812 -1.69366 0.106382 0
M  V30 1323 H 120.584 -3.91203 -0.0871376 0
M  V30 1324 H 120.207 -3.56223 -1.7661 0
M  V30 1325 N 121.204 0.198386 -1.56346 0
M  V30 1326 C 122.444 0.92609 -1.82217 0
M  V30 1327 C 122.808 1.80584 -0.652195 0
M  V30 1328 O 124.009 2.56907 -0.790716 0
M  V30 1329 C 122.28 1.72354 -3.13096 0
M  V30 1330 S 123.839 2.50371 -3.6036 0
M  V30 1331 H 120.657 0.310677 -0.639532 0
M  V30 1332 H 123.259 0.189755 -1.94577 0
M  V30 1333 H 121.963 1.0678 -3.96265 0
M  V30 1334 H 121.494 2.50175 -3.03605 0
M  V30 1335 H 123.509 3.74488 -3.25535 0
M  V30 1336 N 122.682 1.50554 0.465978 0
M  V30 1337 C 124.093 1.54599 1.04671 0
M  V30 1338 C 124.444 0.352488 1.93008 0
M  V30 1339 O 123.569 -0.534044 2.09707 0
M  V30 1340 C 124.164 2.80166 1.90505 0
M  V30 1341 C 122.723 2.86876 2.43678 0
M  V30 1342 C 121.87 2.48947 1.22151 0
M  V30 1343 H 124.821 1.56744 0.248384 0
M  V30 1344 H 124.842 2.62311 2.75633 0
M  V30 1345 H 124.354 3.67013 1.26186 0
M  V30 1346 H 122.455 2.04393 3.11536 0
M  V30 1347 H 122.568 3.89885 2.78436 0
M  V30 1348 H 120.932 2.01498 1.5579 0
M  V30 1349 H 121.715 3.38107 0.594866 0
M  V30 1350 N 124.16 -0.719506 1.40217 0
M  V30 1351 C 125.406 -1.48152 1.38488 0
M  V30 1352 C 125.739 -1.94195 -0.0141867 0
M  V30 1353 O 125.014 -1.67884 -0.982096 0
M  V30 1354 C 125.297 -2.71035 2.37091 0
M  V30 1355 C 125.15 -2.30912 3.86005 0
M  V30 1356 C 126.469 -3.73182 2.33288 0
M  V30 1357 H 123.588 -0.537395 0.504357 0
M  V30 1358 H 126.23 -0.821472 1.71324 0
M  V30 1359 H 124.38 -3.27352 2.0922 0
M  V30 1360 H 126.052 -1.80107 4.24687 0
M  V30 1361 H 124.295 -1.62958 4.02029 0
M  V30 1362 H 124.966 -3.18978 4.50508 0
M  V30 1363 H 127.442 -3.26485 2.57966 0
M  V30 1364 H 126.318 -4.56806 3.04334 0
M  V30 1365 H 126.579 -4.21202 1.34317 0
M  V30 1366 N 125.638 -1.25649 -0.95132 0
M  V30 1367 C 126.57 -1.02112 -2.05197 0
M  V30 1368 C 127.583 0.0150571 -1.62793 0
M  V30 1369 O 128.772 -0.223874 -1.77091 0
M  V30 1370 C 125.872 -0.522361 -3.3485 0
M  V30 1371 C 125.045 -1.62546 -4.06076 0
M  V30 1372 C 124.104 -1.12649 -5.14001 0
M  V30 1373 O 123.13 -1.82156 -5.39266 0
M  V30 1374 N 124.332 0.03047 -5.80492 0
M  V30 1375 H 127.097 -1.96885 -2.25957 0
M  V30 1376 H 124.658 -1.16899 -1.1201 0
M  V30 1377 H 126.65 -0.172961 -4.0433 0
M  V30 1378 H 125.22 0.33151 -3.10837 0
M  V30 1379 H 124.44 -2.14628 -3.30649 0
M  V30 1380 H 125.728 -2.36644 -4.50419 0
M  V30 1381 H 125.126 0.611169 -5.62389 0
M  V30 1382 H 123.683 0.320875 -6.5101 0
M  V30 1383 N 127.117 1.15442 -1.07289 0
M  V30 1384 C 128.342 1.90638 -0.816828 0
M  V30 1385 C 128.767 1.77445 0.624083 0
M  V30 1386 O 128.125 1.10671 1.43602 0
M  V30 1387 C 128.173 3.39008 -1.22906 0
M  V30 1388 O 127.277 4.10701 -0.373975 0
M  V30 1389 H 126.618 0.593555 -0.297638 0
M  V30 1390 H 129.148 1.46198 -1.43134 0
M  V30 1391 H 129.158 3.89801 -1.20497 0
M  V30 1392 H 127.833 3.47929 -2.27856 0
M  V30 1393 H 126.41 3.70046 -0.460499 0
M  V30 1394 N 128.595 0.856903 1.32268 0
M  V30 1395 C 129.843 0.460474 1.96784 0
M  V30 1396 C 130.164 -0.987701 1.68135 0
M  V30 1397 O 129.434 -1.69058 0.989765 0
M  V30 1398 H 128.014 0.167289 0.728027 0
M  V30 1399 H 130.676 1.09383 1.61312 0
M  V30 1400 H 129.772 0.60739 3.06133 0
M  V30 1401 N 130.073 -1.45103 0.615059 0
M  V30 1402 C 131.02 -2.30586 -0.0993978 0
M  V30 1403 C 131.99 -1.42544 -0.852669 0
M  V30 1404 O 133.175 -1.71465 -0.836917 0
M  V30 1405 C 130.315 -3.27572 -1.08583 0
M  V30 1406 C 129.428 -4.30717 -0.332656 0
M  V30 1407 C 128.563 -5.14807 -1.30947 0
M  V30 1408 C 127.602 -6.09673 -0.544538 0
M  V30 1409 N 126.739 -6.86517 -1.47101 0
M  V30 1410 H 131.579 -2.91144 0.635542 0
M  V30 1411 H 129.116 -1.4346 0.325206 0
M  V30 1412 H 131.074 -3.82276 -1.67095 0
M  V30 1413 H 129.704 -2.68751 -1.78809 0
M  V30 1414 H 128.756 -3.78615 0.368107 0
M  V30 1415 H 130.068 -4.98102 0.263842 0
M  V30 1416 H 129.222 -5.73948 -1.96643 0
M  V30 1417 H 127.961 -4.47458 -1.9399 0
M  V30 1418 H 126.966 -5.49656 0.126003 0
M  V30 1419 H 128.191 -6.79052 0.080947 0
M  V30 1420 H 126.137 -6.21851 -2.08895 0
M  V30 1421 H 126.054 -7.50281 -0.928137 0
M  V30 1422 H 127.322 -7.50194 -2.11731 0
M  V30 1423 N 131.551 -0.354651 -1.53558 0
M  V30 1424 C 132.779 0.239515 -2.05509 0
M  V30 1425 C 133.194 1.4333 -1.2289 0
M  V30 1426 O 132.551 1.80538 -0.266899 0
M  V30 1427 C 132.602 0.643719 -3.55723 0
M  V30 1428 O 132.323 -0.502602 -4.35207 0
M  V30 1429 C 133.824 1.29743 -4.23889 0
M  V30 1430 H 131.044 0.0442697 -0.669538 0
M  V30 1431 H 133.588 -0.509856 -1.98042 0
M  V30 1432 H 131.743 1.34302 -3.63376 0
M  V30 1433 H 132.157 -0.178172 -5.24197 0
M  V30 1434 H 133.631 1.53091 -5.30346 0
M  V30 1435 H 134.108 2.25441 -3.76926 0
M  V30 1436 H 134.714 0.639865 -4.20459 0
M  V30 1437 N 133.029 1.57378 -0.0835403 0
M  V30 1438 C 134.275 1.95025 0.577664 0
M  V30 1439 C 134.63 0.964049 1.66505 0
M  V30 1440 O 133.923 -0.0118235 1.91596 0
M  V30 1441 C 134.117 3.37063 1.1884 0
M  V30 1442 C 133.946 4.49409 0.16171 0
M  V30 1443 C 132.716 5.04642 -0.257756 0
M  V30 1444 C 134.914 5.10722 -0.605634 0
M  V30 1445 N 132.896 6.00537 -1.27393 0
M  V30 1446 C 134.267 6.02225 -1.47395 0
M  V30 1447 C 136.322 4.93501 -0.660418 0
M  V30 1448 C 135.025 6.78355 -2.39221 0
M  V30 1449 C 137.051 5.70283 -1.56623 0
M  V30 1450 C 136.413 6.61444 -2.4222 0
M  V30 1451 H 132.512 0.760512 0.182058 0
M  V30 1452 H 135.096 1.94013 -0.163419 0
M  V30 1453 H 133.267 3.3879 1.89936 0
M  V30 1454 H 134.999 3.61917 1.81103 0
M  V30 1455 H 131.754 4.73428 0.127702 0
M  V30 1456 H 132.178 6.53184 -1.77987 0
M  V30 1457 H 136.82 4.22798 -0.0128221 0
M  V30 1458 H 134.538 7.48327 -3.05011 0
M  V30 1459 H 138.124 5.58976 -1.61361 0
M  V30 1460 H 137.004 7.1982 -3.11174 0
M  V30 1461 N 134.507 -0.190092 1.56449 0
M  V30 1462 C 135.439 -1.25973 1.91477 0
M  V30 1463 C 136.452 -1.41452 0.805931 0
M  V30 1464 O 137.641 -1.41789 1.08435 0
M  V30 1465 C 134.741 -2.63117 2.13594 0
M  V30 1466 C 133.914 -2.69182 3.4476 0
M  V30 1467 C 132.973 -3.87557 3.5593 0
M  V30 1468 O 131.999 -3.74427 4.28711 0
M  V30 1469 N 133.201 -5.03224 2.89388 0
M  V30 1470 H 135.966 -0.962394 2.83828 0
M  V30 1471 H 133.527 -0.379981 1.57378 0
M  V30 1472 H 135.519 -3.40742 2.1835 0
M  V30 1473 H 134.089 -2.85319 1.27719 0
M  V30 1474 H 133.309 -1.77793 3.51828 0
M  V30 1475 H 134.597 -2.70229 4.31107 0
M  V30 1476 H 133.995 -5.16791 2.30094 0
M  V30 1477 H 132.552 -5.78778 2.99764 0
M  V30 1478 N 135.985 -1.50799 -0.457987 0
M  V30 1479 C 137.262 -1.52968 -1.21902 0
M  V30 1480 C 137.642 -0.281906 -2.09209 0
M  V30 1481 O 136.99 0.734076 -2.16388 0
M  V30 1482 C 137.2 -2.8326 -2.03875 0
M  V30 1483 C 138.548 -3.34425 -2.6162 0
M  V30 1484 O 139.572 -2.8467 -2.14106 0
M  V30 1485 O 138.431 -4.21188 -3.48228 0
M  V30 1486 H 135.525 -0.614129 -0.553873 0
M  V30 1487 H 138.071 -1.63098 -0.468739 0
M  V30 1488 H 136.843 -3.65543 -1.39621 0
M  V30 1489 H 136.466 -2.76195 -2.8601 0
M  V30 1490 N 137.463 0.71206 -1.40597 0
M  V30 1491 C 138.703 1.48438 -1.40519 0
M  V30 1492 C 139.067 1.91998 -0.00767611 0
M  V30 1493 O 140.268 2.6854 0.118239 0
M  V30 1494 C 138.539 2.67514 -2.37004 0
M  V30 1495 S 140.098 3.56875 -2.55315 0
M  V30 1496 H 136.916 0.507457 -0.498005 0
M  V30 1497 H 139.518 0.832355 -1.76896 0
M  V30 1498 H 138.222 2.33689 -3.37368 0
M  V30 1499 H 137.753 3.37625 -2.01923 0
M  V30 1500 H 139.768 4.62081 -1.8082 0
M  V30 1501 N 138.941 1.26152 0.944643 0
M  V30 1502 C 139.851 1.09176 2.07648 0
M  V30 1503 C 140.867 0.0261935 1.7398 0
M  V30 1504 O 142.043 0.229208 2.00091 0
M  V30 1505 C 139.108 0.722915 3.39079 0
M  V30 1506 C 138.169 1.86752 3.86552 0
M  V30 1507 C 137.402 1.51617 5.11711 0
M  V30 1508 O 137.625 0.416331 5.68879 0
M  V30 1509 O 136.559 2.34975 5.54139 0
M  V30 1510 H 140.385 2.0412 2.24875 0
M  V30 1511 H 137.97 1.05182 1.061 0
M  V30 1512 H 139.852 0.529787 4.18056 0
M  V30 1513 H 138.527 -0.197159 3.23099 0
M  V30 1514 H 137.434 2.11558 3.08535 0
M  V30 1515 H 138.767 2.76719 4.07047 0
M  V30 1516 N 140.419 -1.14872 1.07899 0
M  V30 1517 C 141.649 -1.89386 0.825631 0
M  V30 1518 C 142.057 -1.78565 -0.625406 0
M  V30 1519 O 141.4 -1.13918 -1.44113 0
M  V30 1520 C 141.462 -3.40206 1.16191 0
M  V30 1521 C 141.126 -3.74812 2.61467 0
M  V30 1522 C 142.123 -3.75367 3.59716 0
M  V30 1523 C 139.808 -4.0495 2.97189 0
M  V30 1524 C 141.802 -4.05574 4.9172 0
M  V30 1525 C 139.489 -4.34821 4.29388 0
M  V30 1526 C 140.487 -4.35116 5.26463 0
M  V30 1527 O 140.175 -4.64267 6.56286 0
M  V30 1528 H 139.907 -0.606894 0.297751 0
M  V30 1529 H 142.461 -1.46438 1.44031 0
M  V30 1530 H 140.691 -3.8358 0.490214 0
M  V30 1531 H 142.38 -3.96018 0.890193 0
M  V30 1532 H 143.146 -3.52176 3.33462 0
M  V30 1533 H 139.025 -4.03876 2.22273 0
M  V30 1534 H 142.569 -4.05719 5.67484 0
M  V30 1535 H 138.466 -4.5748 4.55392 0
M  V30 1536 H 139.234 -4.82007 6.61522 0
M  V30 1537 N 141.898 -0.863906 -1.31812 0
M  V30 1538 C 142.845 -0.313303 -2.28664 0
M  V30 1539 C 143.815 0.584868 -1.55462 0
M  V30 1540 O 145 0.517805 -1.83639 0
M  V30 1541 C 142.14 0.48441 -3.41683 0
M  V30 1542 C 141.253 -0.440594 -4.29747 0
M  V30 1543 C 140.388 0.370652 -5.29905 0
M  V30 1544 C 139.427 -0.551164 -6.09613 0
M  V30 1545 N 138.564 0.223462 -7.01744 0
M  V30 1546 H 143.404 -1.14444 -2.75148 0
M  V30 1547 H 140.941 -0.575769 -1.35364 0
M  V30 1548 H 142.899 0.962627 -4.05943 0
M  V30 1549 H 141.529 1.28029 -2.96325 0
M  V30 1550 H 140.581 -1.03724 -3.65986 0
M  V30 1551 H 141.893 -1.14767 -4.85417 0
M  V30 1552 H 141.047 0.911638 -5.99812 0
M  V30 1553 H 139.786 1.11105 -4.74876 0
M  V30 1554 H 138.791 -1.10396 -5.38603 0
M  V30 1555 H 140.016 -1.29032 -6.66729 0
M  V30 1556 H 137.962 0.946787 -6.49132 0
M  V30 1557 H 137.879 -0.424399 -7.54808 0
M  V30 1558 H 139.147 0.745876 -7.75923 0
M  V30 1559 N 143.376 1.44774 -0.622745 0
M  V30 1560 C 144.653 1.95522 -0.0551974 0
M  V30 1561 C 145.033 1.5649 1.41683 0
M  V30 1562 O 144.381 0.834848 2.12703 0
M  V30 1563 C 144.591 3.4796 -0.269242 0
M  V30 1564 C 145.939 4.24306 -0.158014 0
M  V30 1565 O 146.963 3.55637 -0.200162 0
M  V30 1566 O 145.822 5.46471 -0.0558693 0
M  V30 1567 H 142.916 0.826556 0.0271015 0
M  V30 1568 H 145.462 1.54866 -0.693864 0
M  V30 1569 H 144.234 3.6939 -1.29099 0
M  V30 1570 H 143.857 3.95543 0.403966 0
M  V30 1571 N 144.854 0.36279 1.53368 0
M  V30 1572 C 145.817 -0.472679 2.24273 0
M  V30 1573 C 146.817 -1.012 1.24961 0
M  V30 1574 O 148.007 -0.898194 1.49259 0
M  V30 1575 C 145.139 -1.66039 2.97731 0
M  V30 1576 H 146.332 0.14773 2.99536 0
M  V30 1577 H 143.885 0.114434 1.55881 0
M  V30 1578 H 144.62 -2.31896 2.26704 0
M  V30 1579 H 144.405 -1.28066 3.70596 0
M  V30 1580 H 145.895 -2.25252 3.51641 0
M  V30 1581 N 146.332 -1.57332 0.0918853 0
M  V30 1582 C 147.295 -2.12708 -0.85369 0
M  V30 1583 C 148.295 -1.05561 -1.213 0
M  V30 1584 O 149.485 -1.31461 -1.14296 0
M  V30 1585 C 146.617 -2.64503 -2.15061 0
M  V30 1586 H 147.81 -2.97573 -0.3729 0
M  V30 1587 H 145.363 -1.55509 -0.157072 0
M  V30 1588 H 146.098 -1.83149 -2.67632 0
M  V30 1589 H 145.883 -3.4284 -1.90272 0
M  V30 1590 H 147.373 -3.07351 -2.82711 0
M  V30 1591 N 147.81 0.181792 -1.56548 0
M  V30 1592 C 148.757 1.22521 -1.95595 0
M  V30 1593 C 149.727 1.4454 -0.818373 0
M  V30 1594 O 150.912 1.57454 -1.07763 0
M  V30 1595 C 148.052 2.56193 -2.31212 0
M  V30 1596 C 147.165 2.41641 -3.58097 0
M  V30 1597 C 146.3 3.68108 -3.82975 0
M  V30 1598 C 145.339 3.48445 -5.03242 0
M  V30 1599 N 144.476 4.66956 -5.24306 0
M  V30 1600 H 149.316 0.885226 -2.84548 0
M  V30 1601 H 146.853 0.425718 -1.40805 0
M  V30 1602 H 148.811 3.34088 -2.49882 0
M  V30 1603 H 147.441 2.88208 -1.45382 0
M  V30 1604 H 146.493 1.54976 -3.474 0
M  V30 1605 H 147.805 2.23052 -4.46149 0
M  V30 1606 H 146.959 4.54441 -4.01956 0
M  V30 1607 H 145.698 3.89666 -2.93278 0
M  V30 1608 H 144.703 2.60499 -4.8417 0
M  V30 1609 H 145.928 3.2832 -5.9446 0
M  V30 1610 H 143.874 4.88752 -4.37559 0
M  V30 1611 H 143.791 4.51242 -6.06561 0
M  V30 1612 H 145.059 5.54602 -5.47756 0
M  V30 1613 N 149.288 1.51039 0.449983 0
M  V30 1614 C 150.251 1.70863 1.5277 0
M  V30 1615 C 151.251 0.578846 1.5002 0
M  V30 1616 O 152.441 0.846213 1.52266 0
M  V30 1617 C 149.573 1.75341 2.9235 0
M  V30 1618 H 150.766 2.67034 1.36502 0
M  V30 1619 H 148.319 1.40838 0.677812 0
M  V30 1620 H 149.054 0.809383 3.14037 0
M  V30 1621 H 148.839 2.57436 2.95752 0
M  V30 1622 H 150.329 1.92559 3.70555 0
M  V30 1623 N 150.766 -0.704594 1.40972 0
M  V30 1624 C 151.729 -1.80035 1.41845 0
M  V30 1625 C 152.729 -1.57774 0.310474 0
M  V30 1626 O 153.919 -1.64613 0.56992 0
M  V30 1627 C 151.051 -3.18284 1.22098 0
M  V30 1628 H 152.244 -1.80658 2.3938 0
M  V30 1629 H 149.797 -0.911329 1.26982 0
M  V30 1630 H 150.532 -3.23306 0.253672 0
M  V30 1631 H 150.317 -3.35843 2.02366 0
M  V30 1632 H 151.807 -3.98289 1.25522 0
M  V30 1633 N 152.244 -1.26651 -0.937939 0
M  V30 1634 C 153.472 -1.15173 -1.7188 0
M  V30 1635 C 153.887 0.292668 -1.86518 0
M  V30 1636 O 153.244 1.20014 -1.37488 0
M  V30 1637 C 153.295 -1.81925 -3.12387 0
M  V30 1638 O 153.016 -3.2072 -2.98446 0
M  V30 1639 C 154.517 -1.76442 -4.06673 0
M  V30 1640 H 151.737 -0.400911 -0.538063 0
M  V30 1641 H 154.281 -1.67332 -1.1756 0
M  V30 1642 H 152.436 -1.33696 -3.63599 0
M  V30 1643 H 152.85 -3.53802 -3.872 0
M  V30 1644 H 154.324 -2.27781 -5.02812 0
M  V30 1645 H 154.801 -0.731608 -4.33064 0
M  V30 1646 H 155.407 -2.24238 -3.61382 0
M  V30 1647 N 153.722 1.14298 -1.08507 0
M  V30 1648 C 154.97 1.84993 -0.813763 0
M  V30 1649 C 155.291 1.83405 0.662393 0
M  V30 1650 O 154.561 1.28319 1.48024 0
M  V30 1651 H 153.141 0.684966 -0.298045 0
M  V30 1652 H 155.803 1.385 -1.37126 0
M  V30 1653 H 154.899 2.89788 -1.15884 0
M  V30 1654 N 155.201 0.870884 1.31352 0
M  V30 1655 C 156.111 0.330783 2.32256 0
M  V30 1656 C 157.127 -0.559767 1.6475 0
M  V30 1657 O 158.303 -0.456263 1.96164 0
M  V30 1658 C 155.368 -0.458137 3.4366 0
M  V30 1659 C 154.429 0.460482 4.26823 0
M  V30 1660 C 153.662 -0.290881 5.32907 0
M  V30 1661 O 153.885 -1.51885 5.49806 0
M  V30 1662 O 152.819 0.351732 6.00871 0
M  V30 1663 H 156.645 1.16718 2.80376 0
M  V30 1664 H 154.23 0.634285 1.35267 0
M  V30 1665 H 156.112 -0.905343 4.1156 0
M  V30 1666 H 154.787 -1.27106 2.97701 0
M  V30 1667 H 153.694 0.956207 3.61673 0
M  V30 1668 H 155.027 1.23903 4.7635 0
M  V30 1669 N 156.679 -1.44442 0.630414 0
M  V30 1670 C 157.919 -2.03934 0.137919 0
M  V30 1671 C 158.283 -1.48509 -1.21692 0
M  V30 1672 O 159.484 -1.99499 -1.80149 0
M  V30 1673 C 157.755 -3.57187 0.123373 0
M  V30 1674 S 159.314 -4.37741 -0.304604 0
M  V30 1675 H 156.132 -0.708401 0.0607353 0
M  V30 1676 H 158.734 -1.76835 0.833643 0
M  V30 1677 H 157.438 -3.95032 1.11256 0
M  V30 1678 H 156.969 -3.88895 -0.59362 0
M  V30 1679 H 158.984 -4.71403 -1.54897 0
M  V30 1680 N 158.157 -0.370918 -1.53173 0
M  V30 1681 C 159.385 0.217704 -2.05751 0
M  V30 1682 C 159.8 1.42018 -1.24404 0
M  V30 1683 O 159.157 1.80245 -0.286033 0
M  V30 1684 C 159.208 0.605954 -3.56385 0
M  V30 1685 O 158.929 -0.548734 -4.3465 0
M  V30 1686 C 160.43 1.2524 -4.25241 0
M  V30 1687 H 157.65 0.0371659 -0.66997 0
M  V30 1688 H 160.194 -0.530832 -1.9749 0
M  V30 1689 H 158.349 1.3044 -3.6478 0
M  V30 1690 H 158.763 -0.23376 -5.23979 0
M  V30 1691 H 160.237 1.47458 -5.3194 0
M  V30 1692 H 160.714 2.2143 -3.79296 0
M  V30 1693 H 161.32 0.595233 -4.21114 0
M  V30 1694 N 159.635 1.57281 -0.100228 0
M  V30 1695 C 160.598 2.13158 0.842398 0
M  V30 1696 C 161.598 1.06202 1.20738 0
M  V30 1697 O 162.788 1.32066 1.13597 0
M  V30 1698 C 159.92 2.65639 2.13655 0
M  V30 1699 H 161.113 2.97766 0.357114 0
M  V30 1700 H 158.666 1.5559 0.148823 0
M  V30 1701 H 159.401 1.84566 2.66657 0
M  V30 1702 H 159.186 3.43844 1.88451 0
M  V30 1703 H 160.676 3.08846 2.81077 0
M  V30 1704 N 161.113 -0.173488 1.56642 0
M  V30 1705 C 162.341 -0.906095 1.86004 0
M  V30 1706 C 162.756 -1.75921 0.685355 0
M  V30 1707 O 162.113 -1.79198 -0.345578 0
M  V30 1708 C 162.164 -1.78462 3.14378 0
M  V30 1709 O 161.885 -0.965914 4.27319 0
M  V30 1710 C 163.386 -2.62707 3.57071 0
M  V30 1711 H 160.606 -0.263341 0.617165 0
M  V30 1712 H 163.15 -0.174236 2.03756 0
M  V30 1713 H 161.305 -2.46984 2.98459 0
M  V30 1714 H 161.719 -1.56655 5.00559 0
M  V30 1715 H 163.193 -3.19969 4.49804 0
M  V30 1716 H 163.67 -3.37472 2.81086 0
M  V30 1717 H 164.276 -1.99521 3.75595 0
M  V30 1718 N 162.591 -1.51276 -0.441967 0
M  V30 1719 C 163.837 -1.63958 -1.19355 0
M  V30 1720 C 164.17 -0.352543 -1.90973 0
M  V30 1721 O 163.445 0.647627 -1.83401 0
M  V30 1722 C 163.728 -2.83979 -2.21422 0
M  V30 1723 C 163.581 -4.22646 -1.53918 0
M  V30 1724 C 164.9 -2.99521 -3.22451 0
M  V30 1725 H 162.019 -0.596709 -0.432559 0
M  V30 1726 H 164.661 -1.83748 -0.483398 0
M  V30 1727 H 162.811 -2.67237 -2.81987 0
M  V30 1728 H 164.483 -4.51045 -0.967256 0
M  V30 1729 H 162.726 -4.25558 -0.841615 0
M  V30 1730 H 163.397 -5.02609 -2.28229 0
M  V30 1731 H 165.873 -3.14944 -2.71937 0
M  V30 1732 H 164.749 -3.85072 -3.91166 0
M  V30 1733 H 165.01 -2.11391 -3.88287 0
M  V30 1734 N 164.069 0.697108 -1.41344 0
M  V30 1735 C 165.317 1.45426 -1.40341 0
M  V30 1736 C 165.638 1.94996 -0.0128787 0
M  V30 1737 O 164.908 1.71599 0.945027 0
M  V30 1738 H 163.488 0.539594 -0.516573 0
M  V30 1739 H 166.15 0.825201 -1.76569 0
M  V30 1740 H 165.246 2.31817 -2.08967 0
M  V30 1741 N 165.547 1.27147 0.931209 0
M  V30 1742 C 166.494 1.09568 2.03134 0
M  V30 1743 C 167.464 -0.00222433 1.661 0
M  V30 1744 O 168.649 0.159439 1.90133 0
M  V30 1745 C 165.789 0.745231 3.36957 0
M  V30 1746 C 164.902 1.92041 3.86968 0
M  V30 1747 C 164.037 1.51216 5.09222 0
M  V30 1748 C 163.076 2.65504 5.5152 0
M  V30 1749 N 162.213 2.25291 6.64972 0
M  V30 1750 H 167.053 2.03708 2.17502 0
M  V30 1751 H 164.59 1.01411 1.06556 0
M  V30 1752 H 166.548 0.522878 4.1391 0
M  V30 1753 H 165.178 -0.159202 3.22407 0
M  V30 1754 H 164.23 2.25541 3.06326 0
M  V30 1755 H 165.542 2.77787 4.1429 0
M  V30 1756 H 164.696 1.25084 5.93666 0
M  V30 1757 H 163.435 0.625749 4.83669 0
M  V30 1758 H 162.44 2.92354 4.65628 0
M  V30 1759 H 163.665 3.54761 5.7907 0
M  V30 1760 H 161.611 1.39098 6.41083 0
M  V30 1761 H 161.528 3.04577 6.91931 0
M  V30 1762 H 162.796 2.02398 7.52765 0
M  V30 1763 N 167.025 -1.13721 1.09112 0
M  V30 1764 C 168.441 -1.36914 0.820174 0
M  V30 1765 C 168.641 -1.93356 -0.567079 0
M  V30 1766 O 167.697 -2.15093 -1.32255 0
M  V30 1767 C 169.01 -2.3235 1.90877 0
M  V30 1768 C 170.558 -2.45973 1.93562 0
M  V30 1769 C 171.033 -3.44714 3.01556 0
M  V30 1770 N 172.524 -3.52263 3.00775 0
M  V30 1771 C 173.259 -4.28536 3.80978 0
M  V30 1772 N 172.755 -5.07991 4.71081 0
M  V30 1773 N 174.548 -4.23804 3.69251 0
M  V30 1774 H 166.699 -0.754348 1.98553 0
M  V30 1775 H 168.962 -0.3944 0.862063 0
M  V30 1776 H 168.668 -1.98027 2.90651 0
M  V30 1777 H 168.542 -3.32332 1.78424 0
M  V30 1778 H 170.929 -2.79584 0.944286 0
M  V30 1779 H 171.01 -1.45926 2.10093 0
M  V30 1780 H 170.654 -3.11835 4.00901 0
M  V30 1781 H 170.584 -4.44558 2.82269 0
M  V30 1782 H 173.075 -2.95567 2.35475 0
M  V30 1783 H 173.388 -5.63487 5.28869 0
M  V30 1784 H 171.733 -5.07235 4.75119 0
M  V30 1785 H 174.924 -3.60806 2.98222 0
M  V30 1786 H 175.097 -4.82995 4.31995 0
M  V30 1787 N 168.503 -0.877838 -1.30888 0
M  V30 1788 C 169.728 -0.506629 -2.01117 0
M  V30 1789 C 170.153 0.895564 -1.65412 0
M  V30 1790 O 169.511 1.5923 -0.866922 0
M  V30 1791 C 169.559 -0.680223 -3.54126 0
M  V30 1792 O 168.663 0.277033 -4.11468 0
M  V30 1793 H 168.004 -0.200518 -0.633 0
M  V30 1794 H 170.534 -1.18342 -1.66902 0
M  V30 1795 H 170.544 -0.5765 -4.03907 0
M  V30 1796 H 169.219 -1.70261 -3.79452 0
M  V30 1797 H 167.796 0.127606 -3.72682 0
M  V30 1798 N 169.982 1.44106 -0.638065 0
M  V30 1799 C 171.207 2.0685 -0.150916 0
M  V30 1800 C 171.632 1.47417 1.16833 0
M  V30 1801 O 170.99 0.578264 1.71831 0
M  V30 1802 C 171.038 3.60555 -0.05708 0
M  V30 1803 O 170.142 4.00465 0.984972 0
M  V30 1804 H 169.483 0.658151 -0.0879399 0
M  V30 1805 H 172.013 1.84865 -0.876707 0
M  V30 1806 H 172.023 4.07789 0.131232 0
M  V30 1807 H 170.698 4.03193 -1.02021 0
M  V30 1808 H 169.275 3.64849 0.770672 0
M  V30 1809 N 171.46 0.379036 1.52974 0
M  V30 1810 C 172.688 -0.20679 2.05864 0
M  V30 1811 C 173.103 -1.41356 1.25155 0
M  V30 1812 O 172.46 -1.8009 0.295588 0
M  V30 1813 C 172.511 -0.587045 3.56702 0
M  V30 1814 O 172.232 0.571776 4.34353 0
M  V30 1815 C 173.733 -1.22983 4.25899 0
M  V30 1816 H 170.953 -0.0336123 0.670158 0
M  V30 1817 H 173.497 0.541298 1.97206 0
M  V30 1818 H 171.652 -1.28504 3.65466 0
M  V30 1819 H 172.066 0.261544 5.23847 0
M  V30 1820 H 173.54 -1.44635 5.32715 0
M  V30 1821 H 174.017 -2.19416 3.80465 0
M  V30 1822 H 174.623 -0.572892 4.21424 0
M  V30 1823 N 172.938 -1.57226 0.108567 0
M  V30 1824 C 173.885 -2.14756 -0.845481 0
M  V30 1825 C 174.855 -1.06971 -1.27068 0
M  V30 1826 O 176.04 -1.34827 -1.35005 0
M  V30 1827 C 173.18 -2.74298 -2.09415 0
M  V30 1828 C 172.293 -3.96358 -1.71826 0
M  V30 1829 C 171.428 -4.44021 -2.9158 0
M  V30 1830 C 170.467 -5.58637 -2.50181 0
M  V30 1831 N 169.604 -6.01091 -3.62814 0
M  V30 1832 H 174.444 -2.95961 -0.348035 0
M  V30 1833 H 171.981 -1.46226 -0.160106 0
M  V30 1834 H 173.939 -3.06945 -2.82561 0
M  V30 1835 H 172.569 -1.95801 -2.56636 0
M  V30 1836 H 171.621 -3.69939 -0.885947 0
M  V30 1837 H 172.933 -4.79504 -1.37394 0
M  V30 1838 H 172.087 -4.78522 -3.72963 0
M  V30 1839 H 170.826 -3.59803 -3.29231 0
M  V30 1840 H 169.831 -5.23751 -1.67228 0
M  V30 1841 H 171.056 -6.44613 -2.13659 0
M  V30 1842 H 169.002 -5.19817 -4.00158 0
M  V30 1843 H 168.919 -6.79066 -3.32273 0
M  V30 1844 H 170.187 -6.40227 -4.44668 0
M  V30 1845 N 174.416 0.165178 -1.56732 0
M  V30 1846 C 175.663 0.880807 -1.8234 0
M  V30 1847 C 175.991 1.81977 -0.686621 0
M  V30 1848 O 175.246 1.92971 0.325697 0
M  V30 1849 C 175.545 1.70405 -3.1416 0
M  V30 1850 C 175.211 0.913475 -4.4155 0
M  V30 1851 C 173.873 0.695303 -4.7615 0
M  V30 1852 C 176.225 0.359349 -5.1996 0
M  V30 1853 C 173.553 -0.0879947 -5.86634 0
M  V30 1854 C 175.905 -0.410893 -6.31264 0
M  V30 1855 C 174.569 -0.639808 -6.64427 0
M  V30 1856 H 173.839 0.32231 -0.667231 0
M  V30 1857 H 176.486 0.145402 -1.90947 0
M  V30 1858 H 174.791 2.50903 -3.00923 0
M  V30 1859 H 176.488 2.26091 -3.31186 0
M  V30 1860 H 173.078 1.09357 -4.14414 0
M  V30 1861 H 177.262 0.515228 -4.93618 0
M  V30 1862 H 172.518 -0.27503 -6.10781 0
M  V30 1863 H 176.692 -0.847494 -6.91224 0
M  V30 1864 H 174.319 -1.24864 -7.49875 0
M  V30 1865 N 175.894 1.51508 0.433938 0
M  V30 1866 C 177.119 1.68443 1.21003 0
M  V30 1867 C 177.544 0.382636 1.84167 0
M  V30 1868 O 176.902 -0.65755 1.68956 0
M  V30 1869 C 176.95 2.80405 2.26727 0
M  V30 1870 O 176.054 2.44245 3.32292 0
M  V30 1871 H 175.395 0.561536 0.354363 0
M  V30 1872 H 177.925 1.9809 0.512024 0
M  V30 1873 H 177.935 3.0459 2.71457 0
M  V30 1874 H 176.61 3.74867 1.80132 0
M  V30 1875 H 175.187 2.30644 2.93015 0
M  V30 1876 N 177.372 -0.689602 1.41712 0
M  V30 1877 C 178.618 -1.45181 1.41599 0
M  V30 1878 C 178.951 -1.94181 0.0270081 0
M  V30 1879 O 178.226 -1.6993 -0.946265 0
M  V30 1880 C 178.509 -2.65945 2.42787 0
M  V30 1881 C 178.362 -2.22672 3.90816 0
M  V30 1882 C 179.681 -3.68149 2.41151 0
M  V30 1883 H 176.8 -0.526576 0.515642 0
M  V30 1884 H 179.442 -0.784947 1.73028 0
M  V30 1885 H 177.592 -3.2284 2.16116 0
M  V30 1886 H 179.264 -1.71058 4.28412 0
M  V30 1887 H 177.507 -1.54394 4.05395 0
M  V30 1888 H 178.178 -3.0935 4.57172 0
M  V30 1889 H 180.654 -3.2094 2.64834 0
M  V30 1890 H 179.53 -4.50248 3.13955 0
M  V30 1891 H 179.791 -4.18259 1.43221 0
M  V30 1892 N 178.85 -1.27639 -0.924453 0
M  V30 1893 C 179.813 -1.10681 -2.00705 0
M  V30 1894 C 180.813 -0.0497823 -1.60723 0
M  V30 1895 O 182.003 -0.294654 -1.7169 0
M  V30 1896 C 179.135 -0.687164 -3.33902 0
M  V30 1897 H 180.328 -2.06817 -2.17179 0
M  V30 1898 H 177.881 -1.10473 -1.10569 0
M  V30 1899 H 178.616 0.275439 -3.23128 0
M  V30 1900 H 178.401 -1.45061 -3.6428 0
M  V30 1901 H 179.891 -0.590853 -4.13399 0
M  V30 1902 N 180.328 1.1314 -1.09713 0
M  V30 1903 C 181.556 1.88321 -0.856898 0
M  V30 1904 C 181.971 1.79276 0.592073 0
M  V30 1905 O 181.328 1.16142 1.40774 0
M  V30 1906 C 181.379 3.37812 -1.28706 0
M  V30 1907 O 181.1 3.46627 -2.67921 0
M  V30 1908 C 182.601 4.29952 -1.07964 0
M  V30 1909 H 179.821 0.596094 -0.308079 0
M  V30 1910 H 182.365 1.43205 -1.45988 0
M  V30 1911 H 180.52 3.805 -0.727912 0
M  V30 1912 H 180.934 4.39579 -2.8613 0
M  V30 1913 H 182.408 5.33159 -1.42986 0
M  V30 1914 H 182.885 4.39196 -0.0176577 0
M  V30 1915 H 183.491 3.93036 -1.62489 0
M  V30 1916 N 181.806 0.884767 1.30421 0
M  V30 1917 C 182.738 0.308655 2.27112 0
M  V30 1918 C 183.751 -0.536655 1.53701 0
M  V30 1919 O 184.94 -0.35624 1.74909 0
M  V30 1920 C 182.04 -0.579782 3.33904 0
M  V30 1921 C 181.213 0.236417 4.36761 0
M  V30 1922 C 180.272 -0.582482 5.22966 0
M  V30 1923 O 179.298 -0.00525502 5.692 0
M  V30 1924 N 180.5 -1.89163 5.48815 0
M  V30 1925 H 183.265 1.13964 2.77186 0
M  V30 1926 H 180.826 0.747731 1.43599 0
M  V30 1927 H 182.818 -1.13366 3.88497 0
M  V30 1928 H 181.388 -1.31144 2.83761 0
M  V30 1929 H 180.608 0.97174 3.82035 0
M  V30 1930 H 181.896 0.795924 5.02536 0
M  V30 1931 H 181.294 -2.38352 5.13035 0
M  V30 1932 H 179.851 -2.39296 6.06284 0
M  V30 1933 N 183.284 -1.43765 0.645699 0
M  V30 1934 C 184.512 -2.06253 0.163556 0
M  V30 1935 C 184.927 -1.48352 -1.16778 0
M  V30 1936 O 184.284 -0.611932 -1.71935 0
M  V30 1937 C 184.335 -3.61453 0.0583186 0
M  V30 1938 O 184.056 -4.172 1.33702 0
M  V30 1939 C 185.557 -4.41002 -0.450795 0
M  V30 1940 H 182.777 -0.665413 0.0864077 0
M  V30 1941 H 185.321 -1.84396 0.884222 0
M  V30 1942 H 183.476 -3.82522 -0.612865 0
M  V30 1943 H 183.89 -5.10791 1.19131 0
M  V30 1944 H 185.364 -5.49966 -0.473403 0
M  V30 1945 H 185.841 -4.13488 -1.48068 0
M  V30 1946 H 186.447 -4.24886 0.187637 0
M  V30 1947 N 184.763 -0.387143 -1.52771 0
M  V30 1948 C 186.003 0.195537 -2.03463 0
M  V30 1949 C 186.367 1.44222 -1.26744 0
M  V30 1950 O 187.568 2.10192 -1.67549 0
M  V30 1951 C 185.839 0.459097 -3.54439 0
M  V30 1952 S 187.398 1.01237 -4.26962 0
M  V30 1953 H 184.216 0.0552675 -0.708849 0
M  V30 1954 H 186.818 -0.534992 -1.88037 0
M  V30 1955 H 185.522 -0.455382 -4.07866 0
M  V30 1956 H 185.053 1.21811 -3.74066 0
M  V30 1957 H 187.068 2.29492 -4.39941 0
M  V30 1958 N 186.241 1.57166 -0.116904 0
M  V30 1959 C 187.173 2.12271 0.864507 0
M  V30 1960 C 188.186 1.06494 1.23138 0
M  V30 1961 O 189.375 1.33873 1.18069 0
M  V30 1962 C 186.475 2.60564 2.16702 0
M  V30 1963 C 185.648 3.90416 1.97216 0
M  V30 1964 C 184.707 4.24329 3.11178 0
M  V30 1965 O 183.733 4.93182 2.84184 0
M  V30 1966 N 184.935 3.8148 4.37554 0
M  V30 1967 H 187.7 2.97102 0.393726 0
M  V30 1968 H 185.261 1.61759 0.0675805 0
M  V30 1969 H 187.253 2.80282 2.91932 0
M  V30 1970 H 185.823 1.80623 2.55135 0
M  V30 1971 H 185.043 3.79627 1.06192 0
M  V30 1972 H 186.331 4.75327 1.81499 0
M  V30 1973 H 185.729 3.25943 4.62361 0
M  V30 1974 H 184.286 4.06311 5.09661 0
M  V30 1975 N 187.719 -0.156864 1.56817 0
M  V30 1976 C 188.968 -0.869504 1.81996 0
M  V30 1977 C 189.281 -1.82777 0.696545 0
M  V30 1978 O 190.487 -2.58384 0.833658 0
M  V30 1979 C 188.943 -1.59679 3.22538 0
M  V30 1980 C 188.551 -0.681431 4.42787 0
M  V30 1981 C 190.295 -2.2968 3.56997 0
M  V30 1982 C 188.202 -1.40978 5.74351 0
M  V30 1983 H 187.132 -0.328438 0.678708 0
M  V30 1984 H 189.783 -0.1223 1.83092 0
M  V30 1985 H 188.165 -2.38927 3.158 0
M  V30 1986 H 189.339 0.0751166 4.60739 0
M  V30 1987 H 187.654 -0.0903431 4.16302 0
M  V30 1988 H 190.251 -2.84794 4.52544 0
M  V30 1989 H 190.594 -3.05707 2.82576 0
M  V30 1990 H 191.127 -1.57361 3.65352 0
M  V30 1991 H 187.866 -0.691561 6.51842 0
M  V30 1992 H 187.386 -2.13929 5.60352 0
M  V30 1993 H 189.065 -1.95337 6.16808 0
M  V30 1994 N 189.197 -1.51736 -0.425897 0
M  V30 1995 C 190.425 -1.68794 -1.1965 0
M  V30 1996 C 190.84 -0.390164 -1.84725 0
M  V30 1997 O 190.197 0.632376 -1.71194 0
M  V30 1998 C 190.248 -2.81174 -2.27208 0
M  V30 1999 O 189.969 -4.05925 -1.64793 0
M  V30 2000 C 191.47 -3.09599 -3.17275 0
M  V30 2001 H 188.69 -0.566128 -0.360194 0
M  V30 2002 H 191.234 -1.98211 -0.503249 0
M  V30 2003 H 189.389 -2.54324 -2.9223 0
M  V30 2004 H 189.803 -4.68423 -2.35967 0
M  V30 2005 H 191.277 -3.91786 -3.88854 0
M  V30 2006 H 191.754 -2.22468 -3.78688 0
M  V30 2007 H 192.36 -3.38151 -2.57941 0
M  V30 2008 N 190.675 0.682077 -1.42076 0
M  V30 2009 C 192.086 1.26246 -1.37546 0
M  V30 2010 C 192.437 1.96092 -0.0651481 0
M  V30 2011 O 191.562 1.99587 0.836297 0
M  V30 2012 C 192.157 2.29594 -2.49143 0
M  V30 2013 C 190.716 2.83175 -2.47969 0
M  V30 2014 C 189.863 1.57395 -2.28303 0
M  V30 2015 H 192.814 0.475937 -1.51395 0
M  V30 2016 H 192.835 3.11175 -2.18976 0
M  V30 2017 H 192.347 1.78729 -3.44496 0
M  V30 2018 H 190.448 3.3818 -1.56413 0
M  V30 2019 H 190.561 3.32687 -3.44755 0
M  V30 2020 H 188.925 1.83699 -1.76428 0
M  V30 2021 H 189.708 1.08507 -3.25701 0
M  V30 2022 N 192.153 1.28127 0.917671 0
M  V30 2023 C 193.116 1.11744 2.00115 0
M  V30 2024 C 194.116 0.0583052 1.60694 0
M  V30 2025 O 195.306 0.303755 1.71531 0
M  V30 2026 C 192.438 0.704862 3.33533 0
M  V30 2027 H 193.631 2.07966 2.16079 0
M  V30 2028 H 191.184 1.11058 1.09981 0
M  V30 2029 H 191.919 -0.258299 3.2327 0
M  V30 2030 H 191.704 1.4699 3.63505 0
M  V30 2031 H 193.194 0.612768 4.1308 0
M  V30 2032 N 193.631 -1.12557 1.10312 0
M  V30 2033 C 194.541 -2.21841 0.763142 0
M  V30 2034 C 195.557 -1.72354 -0.238801 0
M  V30 2035 O 196.733 -2.01249 -0.0778746 0
M  V30 2036 C 193.798 -3.46131 0.198632 0
M  V30 2037 C 192.859 -4.10464 1.25769 0
M  V30 2038 C 192.092 -5.28821 0.72002 0
M  V30 2039 O 192.315 -5.6859 -0.453993 0
M  V30 2040 O 191.249 -5.83437 1.47935 0
M  V30 2041 H 195.075 -2.53312 1.67532 0
M  V30 2042 H 192.66 -1.20867 0.878157 0
M  V30 2043 H 194.542 -4.2125 -0.112401 0
M  V30 2044 H 193.217 -3.16338 -0.686419 0
M  V30 2045 H 192.124 -3.3713 1.62156 0
M  V30 2046 H 193.457 -4.44408 2.11571 0
M  V30 2047 N 195.109 -0.891671 -1.2995 0
M  V30 2048 C 196.357 -0.512486 -1.95494 0
M  V30 2049 C 196.678 0.942776 -1.70695 0
M  V30 2050 O 195.948 1.66374 -1.03424 0
M  V30 2051 H 194.528 -0.186533 -0.723336 0
M  V30 2052 H 197.19 -1.13621 -1.58355 0
M  V30 2053 H 196.286 -0.688342 -3.04415 0
M  V30 2054 N 196.587 1.43421 -0.653314 0
M  V30 2055 C 197.998 1.85065 -0.246537 0
M  V30 2056 C 198.349 1.54688 1.2069 0
M  V30 2057 O 197.474 0.995896 1.92122 0
M  V30 2058 C 198.069 3.35922 -0.440666 0
M  V30 2059 C 196.628 3.76297 -0.0882064 0
M  V30 2060 C 195.775 2.67147 -0.743484 0
M  V30 2061 H 198.726 1.33572 -0.856979 0
M  V30 2062 H 198.747 3.79204 0.313798 0
M  V30 2063 H 198.259 3.58 -1.49858 0
M  V30 2064 H 196.36 3.5983 0.96711 0
M  V30 2065 H 196.473 4.76338 -0.513738 0
M  V30 2066 H 194.837 2.54086 -0.176712 0
M  V30 2067 H 195.62 2.92053 -1.80443 0
M  V30 2068 N 198.065 0.39524 1.52563 0
M  V30 2069 C 199.311 -0.185318 2.01952 0
M  V30 2070 C 199.644 -1.45964 1.28095 0
M  V30 2071 O 198.919 -1.90689 0.38315 0
M  V30 2072 C 199.202 -0.447193 3.57312 0
M  V30 2073 C 199.055 0.842828 4.41833 0
M  V30 2074 C 200.374 -1.23529 4.22408 0
M  V30 2075 H 197.493 -0.0658788 0.73405 0
M  V30 2076 H 200.135 0.525975 1.82575 0
M  V30 2077 H 198.285 -1.05312 3.73954 0
M  V30 2078 H 199.957 1.4795 4.36931 0
M  V30 2079 H 198.2 1.45686 4.08605 0
M  V30 2080 H 198.871 0.614165 5.48573 0
M  V30 2081 H 201.347 -0.722445 4.0978 0
M  V30 2082 H 200.223 -1.38727 5.3108 0
M  V30 2083 H 200.484 -2.25213 3.80436 0
M  V30 2084 N 199.544 -1.57102 0.125237 0
M  V30 2085 C 200.79 -1.95697 -0.532035 0
M  V30 2086 C 201.123 -1.009 -1.6593 0
M  V30 2087 O 200.398 -0.047347 -1.94442 0
M  V30 2088 C 200.681 -3.44181 -1.05884 0
M  V30 2089 C 200.534 -4.49752 0.0654392 0
M  V30 2090 C 201.853 -3.94655 -1.9477 0
M  V30 2091 H 198.972 -0.711571 -0.191925 0
M  V30 2092 H 201.614 -1.88923 0.20206 0
M  V30 2093 H 199.764 -3.50085 -1.68442 0
M  V30 2094 H 201.436 -4.55943 0.700982 0
M  V30 2095 H 199.679 -4.27653 0.727709 0
M  V30 2096 H 200.35 -5.50924 -0.344505 0
M  V30 2097 H 202.826 -3.91094 -1.42074 0
M  V30 2098 H 201.702 -4.99057 -2.28546 0
M  V30 2099 H 201.963 -3.35718 -2.87656 0
M  V30 2100 N 201.022 0.148545 -1.56898 0
M  V30 2101 C 202.25 0.876389 -1.87422 0
M  V30 2102 C 202.665 1.74809 -0.713256 0
M  V30 2103 O 202.022 1.79725 0.317025 0
M  V30 2104 C 202.073 1.73438 -3.17178 0
M  V30 2105 O 201.794 0.897809 -4.28802 0
M  V30 2106 C 203.295 2.56993 -3.61205 0
M  V30 2107 H 200.515 0.253489 -0.621277 0
M  V30 2108 H 203.059 0.141798 -2.04008 0
M  V30 2109 H 201.214 2.42205 -3.0235 0
M  V30 2110 H 201.628 1.48672 -5.02988 0
M  V30 2111 H 203.102 3.12773 -4.54838 0
M  V30 2112 H 203.579 3.32958 -2.86419 0
M  V30 2113 H 204.185 1.9352 -3.78722 0
M  V30 2114 N 202.5 1.5196 0.417844 0
M  V30 2115 C 203.463 1.74065 1.49111 0
M  V30 2116 C 204.463 0.610537 1.48758 0
M  V30 2117 O 205.653 0.87832 1.50437 0
M  V30 2118 C 202.785 1.81502 2.88565 0
M  V30 2119 H 203.978 2.69869 1.30807 0
M  V30 2120 H 201.531 1.42244 0.647785 0
M  V30 2121 H 202.266 0.875813 3.1225 0
M  V30 2122 H 202.051 2.63651 2.90225 0
M  V30 2123 H 203.541 2.00376 3.66387 0
M  V30 2124 N 203.978 -0.674533 1.42435 0
M  V30 2125 C 204.91 -1.80005 1.41883 0
M  V30 2126 C 205.923 -1.59667 0.31787 0
M  V30 2127 O 207.112 -1.68781 0.580973 0
M  V30 2128 C 204.212 -3.17114 1.19549 0
M  V30 2129 C 203.385 -3.64299 2.42084 0
M  V30 2130 C 202.444 -4.80142 2.15291 0
M  V30 2131 O 201.47 -4.90673 2.88493 0
M  V30 2132 N 202.672 -5.68869 1.1562 0
M  V30 2133 H 205.437 -1.80964 2.38898 0
M  V30 2134 H 202.998 -0.857633 1.37318 0
M  V30 2135 H 204.99 -3.92267 0.995417 0
M  V30 2136 H 203.56 -3.11053 0.310569 0
M  V30 2137 H 202.78 -2.79822 2.77657 0
M  V30 2138 H 204.068 -3.92567 3.23679 0
M  V30 2139 H 203.466 -5.63012 0.550765 0
M  V30 2140 H 202.023 -6.43833 1.016 0
M  V30 2141 N 205.456 -1.28612 -0.910864 0
M  V30 2142 C 206.686 -1.1862 -1.69153 0
M  V30 2143 C 207.094 0.257324 -1.87442 0
M  V30 2144 O 206.437 1.18543 -1.40332 0
M  V30 2145 C 206.499 -1.81606 -3.10257 0
M  V30 2146 C 206.163 -3.30864 -3.15243 0
M  V30 2147 C 207.16 -4.27256 -2.96223 0
M  V30 2148 C 204.845 -3.71871 -3.37664 0
M  V30 2149 C 206.839 -5.62631 -2.99541 0
M  V30 2150 C 204.526 -5.07371 -3.40614 0
M  V30 2151 C 205.524 -6.02561 -3.21573 0
M  V30 2152 O 205.212 -7.35589 -3.2429 0
M  V30 2153 H 204.944 -0.412633 -0.535453 0
M  V30 2154 H 207.498 -1.70306 -1.14827 0
M  V30 2155 H 205.728 -1.24418 -3.66138 0
M  V30 2156 H 207.417 -1.66092 -3.70362 0
M  V30 2157 H 208.183 -3.9691 -2.78725 0
M  V30 2158 H 204.062 -2.98241 -3.5153 0
M  V30 2159 H 207.606 -6.36907 -2.84597 0
M  V30 2160 H 203.503 -5.37366 -3.57642 0
M  V30 2161 H 204.271 -7.44252 -3.40633 0
M  V30 2162 N 206.934 1.1197 -1.10907 0
M  V30 2163 C 208.211 1.79959 -0.766432 0
M  V30 2164 C 208.591 1.97466 0.746363 0
M  V30 2165 O 207.939 1.55491 1.67436 0
M  V30 2166 C 208.149 3.14009 -1.52314 0
M  V30 2167 C 209.497 3.89134 -1.69883 0
M  V30 2168 O 210.521 3.2368 -1.48692 0
M  V30 2169 O 209.38 5.06572 -2.05054 0
M  V30 2170 H 206.474 0.779208 -0.277062 0
M  V30 2171 H 209.02 1.18762 -1.21217 0
M  V30 2172 H 207.792 2.96587 -2.55249 0
M  V30 2173 H 207.415 3.82915 -1.07059 0
M  V30 2174 N 208.412 0.89855 1.29475 0
M  V30 2175 C 209.652 0.530771 1.97388 0
M  V30 2176 C 210.016 -0.905832 1.69289 0
M  V30 2177 O 211.217 -1.38042 2.30646 0
M  V30 2178 C 209.488 0.81369 3.48014 0
M  V30 2179 S 211.047 0.550048 4.35339 0
M  V30 2180 H 207.865 0.196956 0.683176 0
M  V30 2181 H 210.467 1.16074 1.57312 0
M  V30 2182 H 209.171 1.85749 3.65958 0
M  V30 2183 H 208.702 0.171795 3.93025 0
M  V30 2184 H 210.717 -0.605423 4.92493 0
M  V30 2185 N 209.89 -1.43072 0.660911 0
M  V30 2186 C 210.82 -2.33497 -0.0122829 0
M  V30 2187 C 211.801 -1.49903 -0.803925 0
M  V30 2188 O 212.986 -1.78546 -0.763864 0
M  V30 2189 C 210.116 -3.33363 -0.973994 0
M  V30 2190 C 209.07 -4.27003 -0.291928 0
M  V30 2191 C 208.396 -5.16967 -1.36562 0
M  V30 2192 C 209.696 -5.15816 0.820462 0
M  V30 2193 H 211.39 -2.90038 0.742873 0
M  V30 2194 H 208.936 -1.39461 0.358688 0
M  V30 2195 H 210.889 -3.95524 -1.45392 0
M  V30 2196 H 209.613 -2.75095 -1.7604 0
M  V30 2197 H 208.272 -3.66217 0.167623 0
M  V30 2198 H 207.92 -4.55034 -2.14366 0
M  V30 2199 H 207.62 -5.80441 -0.914454 0
M  V30 2200 H 209.144 -5.82003 -1.84675 0
M  V30 2201 H 210.558 -5.71742 0.422366 0
M  V30 2202 H 208.955 -5.8805 1.19656 0
M  V30 2203 H 210.025 -4.55045 1.67518 0
M  V30 2204 N 211.368 -0.403325 -1.52352 0
M  V30 2205 C 212.616 0.174003 -2.0135 0
M  V30 2206 C 212.937 1.46139 -1.29106 0
M  V30 2207 O 212.207 1.91448 -0.415253 0
M  V30 2208 H 210.787 0.0672911 -0.743963 0
M  V30 2209 H 213.449 -0.538235 -1.87321 0
M  V30 2210 H 212.545 0.374254 -3.09848 0
M  V30 2211 N 212.846 1.57033 -0.133567 0
M  V30 2212 C 214.086 1.97575 0.523789 0
M  V30 2213 C 214.45 1.01605 1.62912 0
M  V30 2214 O 215.651 1.3114 2.3464 0
M  V30 2215 C 213.922 3.42256 1.02935 0
M  V30 2216 S 215.481 4.04817 1.69319 0
M  V30 2217 H 212.299 0.690427 0.169799 0
M  V30 2218 H 214.901 1.94234 -0.222101 0
M  V30 2219 H 213.605 4.09842 0.213917 0
M  V30 2220 H 213.136 3.4928 1.81017 0
M  V30 2221 H 215.151 3.96767 2.97977 0
M  V30 2222 N 214.325 -0.140222 1.56975 0
M  V30 2223 C 215.571 -0.852949 1.83991 0
M  V30 2224 C 215.904 -1.80512 0.716187 0
M  V30 2225 O 215.179 -1.92479 -0.279681 0
M  V30 2226 C 215.462 -1.6215 3.21527 0
M  V30 2227 C 215.315 -0.690363 4.4447 0
M  V30 2228 C 216.634 -2.58247 3.56366 0
M  V30 2229 H 213.753 -0.308634 0.669264 0
M  V30 2230 H 216.395 -0.117898 1.89634 0
M  V30 2231 H 214.545 -2.24812 3.16847 0
M  V30 2232 H 216.217 -0.0742264 4.6124 0
M  V30 2233 H 214.46 -0.000396433 4.338 0
M  V30 2234 H 215.131 -1.2643 5.37326 0
M  V30 2235 H 217.607 -2.05701 3.61699 0
M  V30 2236 H 216.483 -3.09067 4.53617 0
M  V30 2237 H 216.744 -3.39923 2.82674 0
M  V30 2238 N 215.803 -1.52179 -0.40978 0
M  V30 2239 C 216.753 -1.71857 -1.49831 0
M  V30 2240 C 217.737 -0.572469 -1.50372 0
M  V30 2241 O 218.929 -0.829509 -1.56359 0
M  V30 2242 C 216.058 -1.87206 -2.87765 0
M  V30 2243 C 215.144 -3.07685 -2.91875 0
M  V30 2244 N 215.535 -4.30403 -2.65683 0
M  V30 2245 C 213.833 -3.07505 -3.23043 0
M  V30 2246 C 214.534 -5.11868 -2.76344 0
M  V30 2247 N 213.51 -4.47101 -3.09195 0
M  V30 2248 H 217.312 -2.64381 -1.28375 0
M  V30 2249 H 214.826 -1.50203 -0.617479 0
M  V30 2250 H 216.823 -1.99419 -3.66111 0
M  V30 2251 H 215.483 -0.958814 -3.10221 0
M  V30 2252 H 216.494 -4.58887 -2.4009 0
M  V30 2253 H 213.171 -2.25915 -3.51096 0
M  V30 2254 H 214.561 -6.19634 -2.59814 0
M  V30 2255 N 217.281 0.66697 -1.42791 0
M  V30 2256 C 218.692 1.2478 -1.38877 0
M  V30 2257 C 219.043 1.96012 -0.0859426 0
M  V30 2258 O 218.168 2.00463 0.815081 0
M  V30 2259 C 218.763 2.26938 -2.51564 0
M  V30 2260 C 217.322 2.80529 -2.50959 0
M  V30 2261 C 216.469 1.54965 -2.29959 0
M  V30 2262 H 219.42 0.459853 -1.51892 0
M  V30 2263 H 219.441 3.08834 -2.22265 0
M  V30 2264 H 218.953 1.75065 -3.46372 0
M  V30 2265 H 217.054 3.36502 -1.59991 0
M  V30 2266 H 217.167 3.29012 -3.48265 0
M  V30 2267 H 215.531 1.81817 -1.78366 0
M  V30 2268 H 216.314 1.05047 -3.26833 0
M  V30 2269 N 218.759 1.29093 0.90403 0
M  V30 2270 C 220.008 1.16187 1.64874 0
M  V30 2271 C 220.321 -0.286742 1.93487 0
M  V30 2272 O 221.527 -0.537062 2.66135 0
M  V30 2273 C 219.983 2.03177 2.97064 0
M  V30 2274 C 219.591 3.52836 2.76062 0
M  V30 2275 C 221.335 1.98984 3.74974 0
M  V30 2276 C 219.242 4.31945 4.03952 0
M  V30 2277 H 218.172 0.431246 0.618501 0
M  V30 2278 H 220.823 1.53699 1.00243 0
M  V30 2279 H 219.205 1.5853 3.62883 0
M  V30 2280 H 220.379 4.05507 2.18863 0
M  V30 2281 H 218.694 3.58656 2.11553 0
M  V30 2282 H 221.291 2.55351 4.69787 0
M  V30 2283 H 221.634 0.968815 4.0487 0
M  V30 2284 H 222.167 2.41652 3.15989 0
M  V30 2285 H 218.906 5.34667 3.79225 0
M  V30 2286 H 218.426 3.84045 4.60727 0
M  V30 2287 H 220.105 4.42379 4.72133 0
M  V30 2288 N 220.237 -1.11381 1.11499 0
M  V30 2289 C 221.462 -1.87475 0.887019 0
M  V30 2290 C 221.887 -1.79639 -0.557796 0
M  V30 2291 O 221.245 -1.15924 -1.39396 0
M  V30 2292 C 221.293 -3.34213 1.35403 0
M  V30 2293 O 220.397 -4.0903 0.526146 0
M  V30 2294 H 219.738 -0.582099 0.319463 0
M  V30 2295 H 222.268 -1.40785 1.48461 0
M  V30 2296 H 222.278 -3.8506 1.34881 0
M  V30 2297 H 220.953 -3.39232 2.40612 0
M  V30 2298 H 219.53 -3.68082 0.597522 0
M  V30 2299 N 221.715 -0.905404 -1.28997 0
M  V30 2300 C 222.943 -0.549846 -1.9946 0
M  V30 2301 C 223.358 0.866834 -1.67724 0
M  V30 2302 O 222.715 1.57298 -0.925404 0
M  V30 2303 C 222.766 -0.739387 -3.53858 0
M  V30 2304 O 222.487 -2.10031 -3.84472 0
M  V30 2305 C 223.988 -0.389541 -4.41585 0
M  V30 2306 H 221.208 -0.210429 -0.637151 0
M  V30 2307 H 223.752 -1.21632 -1.64396 0
M  V30 2308 H 221.907 -0.120023 -3.87214 0
M  V30 2309 H 222.321 -2.13385 -4.79132 0
M  V30 2310 H 223.795 -0.572972 -5.49018 0
M  V30 2311 H 224.272 0.673756 -4.34001 0
M  V30 2312 H 224.878 -0.986089 -4.1371 0
M  V30 2313 N 223.193 1.4272 -0.668489 0
M  V30 2314 C 224.125 2.2914 0.052613 0
M  V30 2315 C 225.138 1.43339 0.771857 0
M  V30 2316 O 226.327 1.67123 0.627067 0
M  V30 2317 C 223.427 3.20618 1.09804 0
M  V30 2318 C 222.6 4.35039 0.45389 0
M  V30 2319 C 221.659 5.07282 1.39825 0
M  V30 2320 O 220.685 5.62024 0.900978 0
M  V30 2321 N 221.887 5.12206 2.73176 0
M  V30 2322 H 224.652 2.91668 -0.689209 0
M  V30 2323 H 222.213 1.53577 -0.512422 0
M  V30 2324 H 224.205 3.65815 1.73094 0
M  V30 2325 H 222.775 2.59585 1.74167 0
M  V30 2326 H 221.995 3.92567 -0.358396 0
M  V30 2327 H 223.283 5.088 0.00486972 0
M  V30 2328 H 222.681 4.6913 3.16122 0
M  V30 2329 H 221.238 5.61069 3.31729 0
M  V30 2330 N 224.671 0.411399 1.52136 0
M  V30 2331 C 225.896 -0.165538 2.06738 0
M  V30 2332 C 226.321 -1.379 1.27926 0
M  V30 2333 O 225.679 -1.78628 0.310114 0
M  V30 2334 C 225.727 -0.492124 3.57226 0
M  V30 2335 O 224.831 -1.58276 3.80818 0
M  V30 2336 H 224.172 -0.0132132 0.663869 0
M  V30 2337 H 226.702 0.585253 1.96051 0
M  V30 2338 H 226.712 -0.750104 4.01045 0
M  V30 2339 H 225.387 0.394922 4.14021 0
M  V30 2340 H 223.964 -1.31677 3.48877 0
M  V30 2341 N 226.149 -1.5696 0.141893 0
M  V30 2342 C 227.56 -1.82797 -0.379776 0
M  V30 2343 C 227.911 -1.06033 -1.6508 0
M  V30 2344 O 227.036 -0.304011 -2.14254 0
M  V30 2345 C 227.631 -3.31578 -0.695802 0
M  V30 2346 C 226.19 -3.58014 -1.16201 0
M  V30 2347 C 225.337 -2.76699 -0.182455 0
M  V30 2348 H 228.288 -1.54406 0.366675 0
M  V30 2349 H 228.309 -3.47454 -1.55099 0
M  V30 2350 H 227.821 -3.87421 0.229449 0
M  V30 2351 H 225.922 -3.07553 -2.10338 0
M  V30 2352 H 226.035 -4.66501 -1.09151 0
M  V30 2353 H 224.399 -2.45618 -0.674072 0
M  V30 2354 H 225.182 -3.35311 0.736297 0
M  V30 2355 N 227.627 0.131896 -1.57047 0
M  V30 2356 C 228.904 0.871495 -1.75112 0
M  V30 2357 C 229.284 1.9866 -0.713949 0
M  V30 2358 O 228.632 2.26965 0.264447 0
M  V30 2359 C 228.842 1.40007 -3.19686 0
M  V30 2360 C 230.19 1.85752 -3.81813 0
M  V30 2361 O 231.214 1.49715 -3.23209 0
M  V30 2362 O 230.073 2.5226 -4.84796 0
M  V30 2363 H 227.167 0.412919 -0.716538 0
M  V30 2364 H 229.713 0.116641 -1.69299 0
M  V30 2365 H 228.485 0.599404 -3.86682 0
M  V30 2366 H 228.108 2.218 -3.29986 0
M  V30 2367 N 229.106 1.52395 0.401703 0
M  V30 2368 C 230.036 1.79231 1.49661 0
M  V30 2369 C 231.017 0.643654 1.57452 0
M  V30 2370 O 232.202 0.889989 1.72606 0
M  V30 2371 C 229.332 1.94971 2.87409 0
M  V30 2372 C 228.286 3.10604 2.94465 0
M  V30 2373 C 227.612 3.11577 4.34538 0
M  V30 2374 C 228.912 4.49921 2.6527 0
M  V30 2375 H 230.606 2.70917 1.27454 0
M  V30 2376 H 228.152 1.30362 0.6117 0
M  V30 2377 H 230.105 2.12328 3.63999 0
M  V30 2378 H 228.829 0.999632 3.10926 0
M  V30 2379 H 227.488 2.93009 2.20321 0
M  V30 2380 H 227.136 2.14277 4.55076 0
M  V30 2381 H 226.836 3.89247 4.40183 0
M  V30 2382 H 228.36 3.31073 5.13053 0
M  V30 2383 H 229.774 4.67683 3.31581 0
M  V30 2384 H 228.171 5.29564 2.82281 0
M  V30 2385 H 229.241 4.57507 1.60671 0
M  V30 2386 N 230.584 -0.659388 1.43143 0
M  V30 2387 C 231.494 -1.80167 1.50256 0
M  V30 2388 C 232.51 -1.69571 0.390106 0
M  V30 2389 O 233.686 -1.90849 0.643319 0
M  V30 2390 C 230.751 -3.16409 1.41725 0
M  V30 2391 C 229.812 -3.38848 2.63591 0
M  V30 2392 C 229.045 -4.68591 2.55458 0
M  V30 2393 O 229.268 -5.47532 1.59891 0
M  V30 2394 O 228.202 -4.92614 3.45854 0
M  V30 2395 H 232.028 -1.77121 2.46702 0
M  V30 2396 H 229.613 -0.817092 1.25076 0
M  V30 2397 H 231.495 -3.9768 1.39387 0
M  V30 2398 H 230.17 -3.20059 0.484118 0
M  V30 2399 H 229.077 -2.57366 2.71502 0
M  V30 2400 H 230.41 -3.4004 3.55856 0
M  V30 2401 N 232.062 -1.29571 -0.897171 0
M  V30 2402 C 233.473 -1.15964 -1.46319 0
M  V30 2403 C 233.824 0.244267 -1.94674 0
M  V30 2404 O 232.949 1.13998 -1.83939 0
M  V30 2405 C 233.544 -2.09906 -2.65942 0
M  V30 2406 C 232.103 -2.00314 -3.18671 0
M  V30 2407 C 231.25 -2.00687 -1.91363 0
M  V30 2408 H 234.201 -1.42019 -0.708268 0
M  V30 2409 H 234.222 -1.67276 -3.41759 0
M  V30 2410 H 233.734 -3.12075 -2.30718 0
M  V30 2411 H 231.835 -1.01242 -3.58582 0
M  V30 2412 H 231.948 -2.88102 -3.82798 0
M  V30 2413 H 230.312 -1.45319 -2.09175 0
M  V30 2414 H 231.095 -3.04566 -1.58413 0
M  V30 2415 N 233.54 1.10788 -1.12088 0
M  V30 2416 C 234.789 1.82036 -0.868659 0
M  V30 2417 C 235.102 1.85929 0.607426 0
M  V30 2418 O 236.308 2.53346 0.97613 0
M  V30 2419 C 234.764 3.26951 -1.50435 0
M  V30 2420 C 234.372 3.31367 -3.01496 0
M  V30 2421 C 236.116 4.03053 -1.33225 0
M  V30 2422 C 234.023 4.7072 -3.58017 0
M  V30 2423 H 232.953 0.682108 -0.321318 0
M  V30 2424 H 235.604 1.24618 -1.34694 0
M  V30 2425 H 233.986 3.84343 -0.953735 0
M  V30 2426 H 235.16 2.83819 -3.6302 0
M  V30 2427 H 233.475 2.6875 -3.18061 0
M  V30 2428 H 236.072 5.05981 -1.72878 0
M  V30 2429 H 236.415 4.15387 -0.275529 0
M  V30 2430 H 236.948 3.52066 -1.85188 0
M  V30 2431 H 233.687 4.63585 -4.63432 0
M  V30 2432 H 233.207 5.1865 -3.01268 0
M  V30 2433 H 234.886 5.39685 -3.56859 0
M  V30 2434 N 235.018 0.912232 1.28515 0
M  V30 2435 C 235.948 0.416403 2.29757 0
M  V30 2436 C 236.929 -0.515194 1.6211 0
M  V30 2437 O 238.114 -0.423253 1.89532 0
M  V30 2438 C 235.244 -0.34572 3.45575 0
M  V30 2439 C 234.198 0.496599 4.25109 0
M  V30 2440 C 233.524 -0.393771 5.33248 0
M  V30 2441 C 234.824 1.75307 4.92001 0
M  V30 2442 H 236.518 1.26249 2.7148 0
M  V30 2443 H 234.064 0.608515 1.30511 0
M  V30 2444 H 236.017 -0.703422 4.15488 0
M  V30 2445 H 234.741 -1.2257 3.02728 0
M  V30 2446 H 233.4 0.8368 3.56922 0
M  V30 2447 H 233.048 -1.27225 4.86644 0
M  V30 2448 H 232.748 0.166209 5.87365 0
M  V30 2449 H 234.272 -0.747389 6.06009 0
M  V30 2450 H 235.686 1.46437 5.54283 0
M  V30 2451 H 234.083 2.25534 5.56106 0
M  V30 2452 H 235.153 2.48176 4.16577 0
M  V30 2453 N 236.496 -1.42363 0.676048 0
M  V30 2454 C 237.912 -1.55811 0.345718 0
M  V30 2455 C 238.112 -1.65544 -1.14879 0
M  V30 2456 O 237.168 -1.62306 -1.93424 0
M  V30 2457 C 238.481 -2.80746 1.07713 0
M  V30 2458 C 240.029 -2.9452 1.05958 0
M  V30 2459 C 240.504 -4.22318 1.77233 0
M  V30 2460 N 241.995 -4.29233 1.74108 0
M  V30 2461 C 242.73 -5.26935 2.26113 0
M  V30 2462 N 242.226 -6.30783 2.86505 0
M  V30 2463 N 244.019 -5.18741 2.1648 0
M  V30 2464 H 236.17 -1.34289 1.6456 0
M  V30 2465 H 238.433 -0.646506 0.69335 0
M  V30 2466 H 238.139 -2.79696 2.13221 0
M  V30 2467 H 238.013 -3.71676 0.64316 0
M  V30 2468 H 240.4 -2.95097 0.0128255 0
M  V30 2469 H 240.481 -2.04817 1.53244 0
M  V30 2470 H 240.125 -4.22502 2.81877 0
M  V30 2471 H 240.055 -5.10958 1.27396 0
M  V30 2472 H 242.546 -3.54814 1.30059 0
M  V30 2473 H 242.859 -7.01691 3.23805 0
M  V30 2474 H 241.204 -6.31341 2.90575 0
M  V30 2475 H 244.395 -4.36533 1.68987 0
M  V30 2476 H 244.568 -5.94721 2.57316 0
M  V30 2477 N 237.974 -0.419461 -1.51915 0
M  V30 2478 C 238.924 0.418496 -2.24126 0
M  V30 2479 C 239.908 1.00495 -1.25656 0
M  V30 2480 O 241.1 0.926058 -1.50842 0
M  V30 2481 C 238.229 1.52899 -3.07371 0
M  V30 2482 C 237.315 0.952797 -4.13258 0
M  V30 2483 N 237.706 0.104175 -5.05693 0
M  V30 2484 C 236.004 1.22224 -4.28926 0
M  V30 2485 C 236.705 -0.21752 -5.81293 0
M  V30 2486 N 235.681 0.394293 -5.42168 0
M  V30 2487 H 239.483 -0.236048 -2.92951 0
M  V30 2488 H 236.997 -0.230481 -1.60756 0
M  V30 2489 H 238.994 2.14199 -3.57665 0
M  V30 2490 H 237.654 2.18605 -2.40088 0
M  V30 2491 H 238.665 -0.260924 -5.17242 0
M  V30 2492 H 235.342 1.87812 -3.72871 0
M  V30 2493 H 236.732 -0.906992 -6.6575 0
M  V30 2494 N 239.452 1.56882 -0.150215 0
M  V30 2495 C 240.7 1.9584 0.499105 0
M  V30 2496 C 241.021 1.03623 1.65188 0
M  V30 2497 O 240.291 0.0984084 1.95653 0
M  V30 2498 H 238.871 0.723119 0.187373 0
M  V30 2499 H 241.533 1.9358 -0.226466 0
M  V30 2500 H 240.629 2.99638 0.873122 0
M  V30 2501 N 240.93 -0.123565 1.57115 0
M  V30 2502 C 242.179 -0.830704 1.83799 0
M  V30 2503 C 242.492 -1.81259 0.735158 0
M  V30 2504 O 243.698 -2.56558 0.888278 0
M  V30 2505 C 242.154 -1.52802 3.25852 0
M  V30 2506 C 241.762 -0.587356 4.44133 0
M  V30 2507 C 243.506 -2.22056 3.61789 0
M  V30 2508 C 241.413 -1.28764 5.77212 0
M  V30 2509 H 240.343 -0.313967 0.685522 0
M  V30 2510 H 242.994 -0.0834359 1.8331 0
M  V30 2511 H 241.376 -2.32175 3.20797 0
M  V30 2512 H 242.55 0.172829 4.60476 0
M  V30 2513 H 240.865 -0.00201892 4.164 0
M  V30 2514 H 243.462 -2.75131 4.58483 0
M  V30 2515 H 243.805 -2.99644 2.88997 0
M  V30 2516 H 244.338 -1.49576 3.68608 0
M  V30 2517 H 241.077 -0.55314 6.53162 0
M  V30 2518 H 240.597 -2.01995 5.64764 0
M  V30 2519 H 242.276 -1.8221 6.20813 0
M  V30 2520 N 242.408 -1.52605 -0.393616 0
M  V30 2521 C 243.34 -1.73303 -1.49995 0
M  V30 2522 C 244.353 -0.613473 -1.50799 0
M  V30 2523 O 245.542 -0.889049 -1.54784 0
M  V30 2524 C 242.642 -1.77245 -2.88855 0
M  V30 2525 C 241.815 -3.06483 -3.12069 0
M  V30 2526 C 240.874 -3.02033 -4.30886 0
M  V30 2527 O 239.9 -3.75907 -4.27414 0
M  V30 2528 N 241.102 -2.20897 -5.36828 0
M  V30 2529 H 243.867 -2.68756 -1.32629 0
M  V30 2530 H 241.428 -1.51036 -0.583083 0
M  V30 2531 H 243.42 -1.7178 -3.66434 0
M  V30 2532 H 241.99 -0.891993 -2.99603 0
M  V30 2533 H 241.21 -3.25474 -2.22396 0
M  V30 2534 H 242.498 -3.91947 -3.2443 0
M  V30 2535 H 241.896 -1.60336 -5.42502 0
M  V30 2536 H 240.453 -2.21275 -6.13091 0
M  V30 2537 N 243.887 0.651787 -1.4349 0
M  V30 2538 C 245.117 1.43728 -1.48411 0
M  V30 2539 C 245.525 1.8893 -0.10103 0
M  V30 2540 O 244.868 1.60182 0.899307 0
M  V30 2541 C 244.93 2.70411 -2.36893 0
M  V30 2542 C 244.594 2.4714 -3.8441 0
M  V30 2543 C 245.591 2.10271 -4.75481 0
M  V30 2544 C 243.276 2.6142 -4.28912 0
M  V30 2545 C 245.27 1.87982 -6.0905 0
M  V30 2546 C 242.957 2.38746 -5.62533 0
M  V30 2547 C 243.955 2.02083 -6.5242 0
M  V30 2548 O 243.643 1.79647 -7.8357 0
M  V30 2549 H 243.375 0.447962 -0.506267 0
M  V30 2550 H 245.929 0.80624 -1.88915 0
M  V30 2551 H 244.159 3.36079 -1.91278 0
M  V30 2552 H 245.848 3.32364 -2.33 0
M  V30 2553 H 246.614 1.98814 -4.42378 0
M  V30 2554 H 242.493 2.88931 -3.59222 0
M  V30 2555 H 246.037 1.5929 -6.7917 0
M  V30 2556 H 241.934 2.49806 -5.95203 0
M  V30 2557 H 242.702 1.9406 -7.95162 0
M  V30 2558 N 245.365 1.30045 0.890287 0
M  V30 2559 C 246.612 1.18561 1.64163 0
M  V30 2560 C 246.94 -0.260852 1.92743 0
M  V30 2561 O 246.195 -1.20376 1.54299 0
M  V30 2562 C 246.494 1.95409 2.99249 0
M  V30 2563 C 246.16 3.45066 2.90242 0
M  V30 2564 C 244.822 3.85878 2.87492 0
M  V30 2565 C 247.174 4.4039 2.78758 0
M  V30 2566 C 244.502 5.20314 2.7109 0
M  V30 2567 C 246.854 5.74928 2.63894 0
M  V30 2568 C 245.518 6.14986 2.59516 0
M  V30 2569 H 244.788 0.433846 0.600715 0
M  V30 2570 H 247.435 1.61088 1.03552 0
M  V30 2571 H 245.74 1.45501 3.63781 0
M  V30 2572 H 247.437 1.8392 3.56334 0
M  V30 2573 H 244.027 3.12631 2.93189 0
M  V30 2574 H 248.211 4.09806 2.79952 0
M  V30 2575 H 243.467 5.50449 2.66112 0
M  V30 2576 H 247.641 6.48434 2.53981 0
M  V30 2577 H 245.268 7.19104 2.46565 0
M  V30 2578 N 246.843 -1.10192 1.12674 0
M  V30 2579 C 247.791 -2.18694 0.792196 0
M  V30 2580 C 248.785 -1.67938 -0.222058 0
M  V30 2581 O 249.991 -1.79822 -0.0800074 0
M  V30 2582 H 246.366 -0.713223 0.238364 0
M  V30 2583 H 248.337 -2.44149 1.71564 0
M  V30 2584 C 247.086 -3.46682 0.265859 0
M  V30 2585 H 246.409 -3.86101 1.03761 0
M  V30 2586 H 247.849 -4.23942 0.0701128 0
M  V30 2587 C 246.308 -3.21506 -1.00675 0
M  V30 2588 O 246.838 -3.43408 -2.08408 0
M  V30 2589 N 245.044 -2.75158 -0.934692 0
M  V30 2590 H 244.591 -2.57535 -0.0578604 0
M  V30 2591 H 244.549 -2.58691 -1.7868 0
M  V30 2592 N 248.321 -0.919034 -1.28029 0
M  V30 2593 C 249.269 -0.401753 -2.29104 0
M  V30 2594 C 250.263 0.509354 -1.61561 0
M  V30 2595 O 251.469 0.390014 -1.75724 0
M  V30 2596 H 247.844 -0.111331 -0.743713 0
M  V30 2597 H 249.815 -1.2672 -2.70156 0
M  V30 2598 C 248.564 0.338148 -3.46052 0
M  V30 2599 H 247.887 -0.353732 -3.98232 0
M  V30 2600 H 249.327 0.664653 -4.18758 0
M  V30 2601 C 247.786 1.54798 -2.99231 0
M  V30 2602 O 248.316 2.64696 -3.02157 0
M  V30 2603 N 246.522 1.3968 -2.54829 0
M  V30 2604 H 246.069 0.502698 -2.52647 0
M  V30 2605 H 246.027 2.20755 -2.23863 0
M  V30 2606 N 249.799 1.42003 -0.683588 0
M  V30 2607 C 250.747 2.326 0.000815408 0
M  V30 2608 C 251.741 1.50308 0.781278 0
M  V30 2609 O 252.947 1.66322 0.688251 0
M  V30 2610 H 249.322 0.751758 0.0190616 0
M  V30 2611 H 251.293 2.88011 -0.780528 0
M  V30 2612 C 250.042 3.34978 0.93195 0
M  V30 2613 H 249.365 3.98345 0.340817 0
M  V30 2614 H 250.805 4.00936 1.37936 0
M  V30 2615 C 249.264 2.67925 2.04249 0
M  V30 2616 O 249.794 2.51788 3.12995 0
M  V30 2617 N 248 2.2681 1.81675 0
M  V30 2618 H 247.547 2.40135 0.932363 0
M  V30 2619 H 247.505 1.8228 2.56167 0
M  V30 2620 N 251.277 0.427512 1.51691 0
M  V30 2621 C 252.505 -0.141191 2.06418 0
M  V30 2622 C 252.92 -1.37303 1.29589 0
M  V30 2623 O 252.277 -1.79059 0.352732 0
M  V30 2624 C 252.328 -0.473266 3.58389 0
M  V30 2625 O 252.049 0.709673 4.32314 0
M  V30 2626 C 253.55 -1.09371 4.29596 0
M  V30 2627 H 250.77 -0.0122747 0.670888 0
M  V30 2628 H 253.314 0.603764 1.95384 0
M  V30 2629 H 251.469 -1.16812 3.69369 0
M  V30 2630 H 251.883 0.42807 5.2275 0
M  V30 2631 H 253.357 -1.27613 5.37046 0
M  V30 2632 H 253.834 -2.072 3.87253 0
M  V30 2633 H 254.44 -0.43853 4.23033 0
M  V30 2634 N 252.755 -1.56801 0.158532 0
M  V30 2635 C 253.687 -2.14488 -0.807923 0
M  V30 2636 C 254.7 -1.09721 -1.20271 0
M  V30 2637 O 255.889 -1.36956 -1.14478 0
M  V30 2638 C 252.989 -2.66217 -2.09718 0
M  V30 2639 C 252.162 -3.95507 -1.86796 0
M  V30 2640 C 251.221 -4.3243 -2.99818 0
M  V30 2641 O 250.247 -5.00543 -2.71008 0
M  V30 2642 N 251.449 -3.92947 -4.27285 0
M  V30 2643 H 254.214 -2.98042 -0.314816 0
M  V30 2644 H 251.775 -1.61881 -0.0246692 0
M  V30 2645 H 253.767 -2.87924 -2.84398 0
M  V30 2646 H 252.337 -1.87324 -2.50257 0
M  V30 2647 H 251.557 -3.82309 -0.96089 0
M  V30 2648 H 252.845 -4.79972 -1.68833 0
M  V30 2649 H 252.243 -3.38087 -4.53557 0
M  V30 2650 H 250.8 -4.19681 -4.9871 0
M  V30 2651 N 254.233 0.115231 -1.57178 0
M  V30 2652 C 255.183 1.14707 -1.97044 0
M  V30 2653 C 256.167 1.36866 -0.845957 0
M  V30 2654 O 257.359 1.37895 -1.10968 0
M  V30 2655 C 254.488 2.47266 -2.38148 0
M  V30 2656 C 253.574 2.28566 -3.57237 0
M  V30 2657 N 253.965 1.79685 -4.72807 0
M  V30 2658 C 252.263 2.59208 -3.62943 0
M  V30 2659 C 252.964 1.74781 -5.54821 0
M  V30 2660 N 251.94 2.19264 -4.97417 0
M  V30 2661 H 255.742 0.761754 -2.83857 0
M  V30 2662 H 253.256 0.322928 -1.59157 0
M  V30 2663 H 255.253 3.219 -2.64927 0
M  V30 2664 H 253.913 2.86552 -1.52702 0
M  V30 2665 H 254.924 1.49177 -4.9595 0
M  V30 2666 H 251.601 3.02154 -2.88113 0
M  V30 2667 H 252.991 1.38212 -6.57531 0
M  V30 2668 N 255.711 1.52812 0.385517 0
M  V30 2669 C 256.936 1.72207 1.15583 0
M  V30 2670 C 257.361 0.441034 1.82857 0
M  V30 2671 O 256.719 -0.603465 1.70962 0
M  V30 2672 C 256.767 2.87476 2.17692 0
M  V30 2673 O 255.871 2.54693 3.24354 0
M  V30 2674 H 255.212 0.572526 0.336319 0
M  V30 2675 H 257.742 1.99618 0.448744 0
M  V30 2676 H 257.752 3.13072 2.6163 0
M  V30 2677 H 256.427 3.80408 1.68115 0
M  V30 2678 H 255.004 2.3985 2.85529 0
M  V30 2679 N 257.189 -0.644168 1.43834 0
M  V30 2680 C 258.414 -1.43642 1.49605 0
M  V30 2681 C 258.839 -1.8773 0.117913 0
M  V30 2682 O 258.197 -1.57938 -0.890239 0
M  V30 2683 C 258.245 -2.6416 2.45463 0
M  V30 2684 O 257.349 -3.63538 1.94714 0
M  V30 2685 H 256.69 -0.430329 0.50568 0
M  V30 2686 H 259.22 -0.787448 1.8884 0
M  V30 2687 H 259.23 -3.11864 2.63068 0
M  V30 2688 H 257.905 -2.31414 3.45572 0
M  V30 2689 H 256.482 -3.2273 1.86814 0
M  V30 2690 N 258.668 -1.30515 -0.883378 0
M  V30 2691 C 259.598 -1.19607 -2.00541 0
M  V30 2692 C 260.579 -0.086346 -1.69881 0
M  V30 2693 O 261.764 -0.268654 -1.92333 0
M  V30 2694 C 258.894 -0.888758 -3.35736 0
M  V30 2695 C 257.848 -1.95659 -3.8066 0
M  V30 2696 C 257.174 -1.50224 -5.13164 0
M  V30 2697 C 258.474 -3.36788 -3.99213 0
M  V30 2698 H 260.168 -2.13476 -2.09925 0
M  V30 2699 H 257.714 -1.02775 -1.00863 0
M  V30 2700 H 259.667 -0.799094 -4.13754 0
M  V30 2701 H 258.391 0.0856125 -3.26488 0
M  V30 2702 H 257.05 -2.03591 -3.04871 0
M  V30 2703 H 256.698 -0.516092 -5.00345 0
M  V30 2704 H 256.398 -2.2165 -5.44192 0
M  V30 2705 H 257.922 -1.42639 -5.93706 0
M  V30 2706 H 259.336 -3.31605 -4.67665 0
M  V30 2707 H 257.733 -4.06314 -4.41621 0
M  V30 2708 H 258.803 -3.78561 -3.03017 0
M  V30 2709 N 260.146 1.09593 -1.13257 0
M  V30 2710 C 261.393 1.81734 -0.893257 0
M  V30 2711 C 261.721 1.8563 0.580656 0
M  V30 2712 O 260.976 1.31906 1.44566 0
M  V30 2713 C 261.275 3.27802 -1.42411 0
M  V30 2714 C 260.941 3.44041 -2.91456 0
M  V30 2715 C 259.603 3.48181 -3.3215 0
M  V30 2716 C 261.955 3.48719 -3.87356 0
M  V30 2717 C 259.283 3.54575 -4.67433 0
M  V30 2718 C 261.635 3.56648 -5.2248 0
M  V30 2719 C 260.299 3.59055 -5.62704 0
M  V30 2720 H 259.569 0.665011 -0.326866 0
M  V30 2721 H 262.216 1.2912 -1.41422 0
M  V30 2722 H 260.521 3.83042 -0.823795 0
M  V30 2723 H 262.218 3.82149 -1.21503 0
M  V30 2724 H 258.808 3.41502 -2.58987 0
M  V30 2725 H 262.992 3.44763 -3.57004 0
M  V30 2726 H 258.248 3.54725 -4.97976 0
M  V30 2727 H 262.422 3.59212 -5.96607 0
M  V30 2728 H 260.049 3.63763 -6.67518 0
M  V30 2729 N 261.624 0.925811 1.2754 0
M  V30 2730 C 262.557 0.367836 2.25216 0
M  V30 2731 C 263.535 -0.534738 1.53556 0
M  V30 2732 O 264.719 -0.475672 1.824 0
M  V30 2733 C 261.846 -0.47298 3.35381 0
M  V30 2734 C 260.892 0.365898 4.24928 0
M  V30 2735 S 261.725 1.78025 5.05042 0
M  V30 2736 C 262.881 0.947068 6.18693 0
M  V30 2737 H 263.114 1.19568 2.72196 0
M  V30 2738 H 260.647 0.727867 1.36167 0
M  V30 2739 H 262.605 -0.952242 3.99303 0
M  V30 2740 H 261.266 -1.27533 2.87044 0
M  V30 2741 H 260.459 -0.277582 5.03235 0
M  V30 2742 H 260.061 0.779261 3.65792 0
M  V30 2743 H 262.353 0.182201 6.77255 0
M  V30 2744 H 263.296 1.70309 6.87314 0
M  V30 2745 H 263.704 0.489913 5.6237 0
M  V30 2746 N 263.102 -1.41638 0.69111 0
M  V30 2747 C 264.032 -2.3347 0.037248 0
M  V30 2748 C 265.013 -1.51575 -0.771947 0
M  V30 2749 O 266.198 -1.80126 -0.72582 0
M  V30 2750 C 263.328 -3.35354 -0.903064 0
M  V30 2751 C 262.282 -4.27526 -0.201288 0
M  V30 2752 C 261.608 -5.19747 -1.25565 0
M  V30 2753 C 262.908 -5.13959 0.929689 0
M  V30 2754 H 264.602 -2.88397 0.804227 0
M  V30 2755 H 262.148 -1.38669 0.388189 0
M  V30 2756 H 264.101 -3.98519 -1.36969 0
M  V30 2757 H 262.825 -2.78767 -1.70166 0
M  V30 2758 H 261.484 -3.65779 0.245265 0
M  V30 2759 H 261.132 -4.59479 -2.04666 0
M  V30 2760 H 260.832 -5.8225 -0.791128 0
M  V30 2761 H 262.356 -5.85789 -1.72288 0
M  V30 2762 H 263.77 -5.70718 0.543546 0
M  V30 2763 H 262.167 -5.85379 1.32103 0
M  V30 2764 H 263.237 -4.51389 1.77133 0
M  V30 2765 N 264.58 -0.43555 -1.51462 0
M  V30 2766 C 265.528 0.391205 -2.29287 0
M  V30 2767 C 266.522 1.02247 -1.35062 0
M  V30 2768 O 267.728 0.957646 -1.52411 0
M  V30 2769 H 264.103 0.144968 -0.737895 0
M  V30 2770 H 266.074 -0.286051 -2.97026 0
M  V30 2771 C 264.823 1.48096 -3.14583 0
M  V30 2772 H 264.146 1.00457 -3.86973 0
M  V30 2773 H 265.586 2.03273 -3.72097 0
M  V30 2774 C 264.045 2.46321 -2.29843 0
M  V30 2775 O 264.575 3.50815 -1.95682 0
M  V30 2776 N 262.781 2.17166 -1.931 0
M  V30 2777 H 262.328 1.32218 -2.21079 0
M  V30 2778 H 262.286 2.83127 -1.36698 0
M  V30 2779 N 266.058 1.56714 -0.166846 0
M  V30 2780 C 266.968 2.21331 0.777791 0
M  V30 2781 C 267.984 1.20358 1.25658 0
M  V30 2782 O 269.16 1.53005 1.30964 0
M  V30 2783 C 266.225 2.83787 1.99163 0
M  V30 2784 C 265.286 3.99947 1.56016 0
M  V30 2785 C 264.519 4.59415 2.71613 0
M  V30 2786 O 264.742 4.17769 3.88362 0
M  V30 2787 O 263.676 5.49359 2.45945 0
M  V30 2788 H 267.502 3.02605 0.257636 0
M  V30 2789 H 265.087 1.49275 0.0611393 0
M  V30 2790 H 266.969 3.23405 2.70161 0
M  V30 2791 H 265.644 2.05513 2.50092 0
M  V30 2792 H 264.551 3.65007 0.819809 0
M  V30 2793 H 265.884 4.79801 1.09782 0
M  V30 2794 N 267.536 -0.106894 1.57237 0
M  V30 2795 C 268.782 -0.81373 1.85759 0
M  V30 2796 C 269.115 -1.78952 0.754315 0
M  V30 2797 O 268.39 -1.93029 -0.23879 0
M  V30 2798 C 268.673 -1.55293 3.24894 0
M  V30 2799 C 268.526 -0.595929 4.45835 0
M  V30 2800 C 269.845 -2.5063 3.61763 0
M  V30 2801 H 266.964 -0.294369 0.67566 0
M  V30 2802 H 269.606 -0.0776472 1.89841 0
M  V30 2803 H 267.756 -2.1804 3.21544 0
M  V30 2804 H 269.428 0.0236262 4.61294 0
M  V30 2805 H 267.671 0.0916191 4.33703 0
M  V30 2806 H 268.342 -1.15004 5.39887 0
M  V30 2807 H 270.818 -1.97982 3.65981 0
M  V30 2808 H 269.694 -2.99376 4.60071 0
M  V30 2809 H 269.955 -3.3385 2.89821 0
M  V30 2810 N 269.014 -1.53014 -0.377408 0
M  V30 2811 C 269.961 -1.78616 -1.46168 0
M  V30 2812 C 270.931 -0.629917 -1.53692 0
M  V30 2813 O 272.116 -0.870861 -1.69766 0
M  V30 2814 C 269.256 -1.97123 -2.8326 0
M  V30 2815 C 268.369 -3.24831 -2.84796 0
M  V30 2816 C 267.504 -3.33591 -4.13389 0
M  V30 2817 C 266.543 -4.55377 -4.09021 0
M  V30 2818 N 265.68 -4.61355 -5.29241 0
M  V30 2819 H 270.52 -2.71142 -1.23637 0
M  V30 2820 H 268.057 -1.34326 -0.599577 0
M  V30 2821 H 270.015 -2.05839 -3.62886 0
M  V30 2822 H 268.645 -1.07946 -3.04216 0
M  V30 2823 H 267.697 -3.25128 -1.97474 0
M  V30 2824 H 269.009 -4.14523 -2.77439 0
M  V30 2825 H 268.163 -3.41554 -5.01424 0
M  V30 2826 H 266.902 -2.41894 -4.23484 0
M  V30 2827 H 265.907 -4.47527 -3.19373 0
M  V30 2828 H 267.132 -5.48402 -4.00539 0
M  V30 2829 H 265.078 -3.72554 -5.39944 0
M  V30 2830 H 264.995 -5.44935 -5.24006 0
M  V30 2831 H 266.263 -4.73586 -6.19141 0
M  V30 2832 N 270.492 0.636531 -1.44174 0
M  V30 2833 C 271.908 0.954104 -1.27941 0
M  V30 2834 C 272.108 2.0039 -0.211248 0
M  V30 2835 O 271.164 2.49236 0.404695 0
M  V30 2836 C 272.477 1.4225 -2.64925 0
M  V30 2837 C 274.025 1.53827 -2.72592 0
M  V30 2838 C 274.5 2.04053 -4.10032 0
M  V30 2839 N 275.991 2.11331 -4.12182 0
M  V30 2840 C 276.726 2.51352 -5.15374 0
M  V30 2841 N 276.222 2.90549 -6.2893 0
M  V30 2842 N 278.015 2.51438 -5.02728 0
M  V30 2843 H 270.166 -0.0578386 -2.12321 0
M  V30 2844 H 272.429 0.0367406 -0.947288 0
M  V30 2845 H 272.135 0.725466 -3.44136 0
M  V30 2846 H 272.009 2.39451 -2.9145 0
M  V30 2847 H 274.396 2.22628 -1.93702 0
M  V30 2848 H 274.477 0.550154 -2.49814 0
M  V30 2849 H 274.121 1.35848 -4.89395 0
M  V30 2850 H 274.051 3.03726 -4.30184 0
M  V30 2851 H 276.542 1.83745 -3.30222 0
M  V30 2852 H 276.855 3.19884 -7.03487 0
M  V30 2853 H 275.2 2.88313 -6.32377 0
M  V30 2854 H 278.391 2.20203 -4.13072 0
M  V30 2855 H 278.564 2.82304 -5.83274 0
M  V30 2856 N 271.97 1.30982 0.876444 0
M  V30 2857 C 272.933 1.18054 1.96459 0
M  V30 2858 C 273.933 0.109399 1.60427 0
M  V30 2859 O 275.123 0.358173 1.70478 0
M  V30 2860 C 272.255 0.810616 3.31122 0
M  V30 2861 H 273.448 2.14735 2.09354 0
M  V30 2862 H 271.001 1.145 1.06392 0
M  V30 2863 H 271.736 -0.155322 3.23928 0
M  V30 2864 H 271.521 1.58481 3.58645 0
M  V30 2865 H 273.011 0.743876 4.10921 0
M  V30 2866 N 273.449 -1.08991 1.13837 0
M  V30 2867 C 274.381 -2.15606 0.777612 0
M  V30 2868 C 275.394 -1.61533 -0.202739 0
M  V30 2869 O 276.583 -1.78491 0.0181055 0
M  V30 2870 C 273.683 -3.3864 0.132623 0
M  V30 2871 C 272.856 -4.22115 1.1462 0
M  V30 2872 C 271.915 -5.23564 0.526074 0
M  V30 2873 O 270.941 -5.56678 1.18735 0
M  V30 2874 N 272.143 -5.76266 -0.699866 0
M  V30 2875 H 274.908 -2.47159 1.69506 0
M  V30 2876 H 272.469 -1.24747 1.03198 0
M  V30 2877 H 274.461 -4.03626 -0.29459 0
M  V30 2878 H 273.031 -3.04938 -0.687849 0
M  V30 2879 H 272.251 -3.53199 1.75055 0
M  V30 2880 H 273.539 -4.74709 1.83109 0
M  V30 2881 H 272.937 -5.51585 -1.25581 0
M  V30 2882 H 271.494 -6.42963 -1.06968 0
M  V30 2883 N 274.927 -0.932562 -1.27047 0
M  V30 2884 C 276.343 -0.633544 -1.46487 0
M  V30 2885 C 276.543 0.815746 -1.84249 0
M  V30 2886 O 275.599 1.59319 -1.95892 0
M  V30 2887 C 276.912 -1.58758 -2.55375 0
M  V30 2888 C 278.46 -1.59634 -2.69232 0
M  V30 2889 C 278.935 -2.53747 -3.81283 0
M  V30 2890 N 280.426 -2.51982 -3.88664 0
M  V30 2891 C 281.161 -3.21491 -4.74796 0
M  V30 2892 N 280.657 -4.00395 -5.65381 0
M  V30 2893 N 282.45 -3.10485 -4.68568 0
M  V30 2894 H 274.601 -1.86946 -1.00821 0
M  V30 2895 H 276.864 -0.802897 -0.504044 0
M  V30 2896 H 276.57 -2.62172 -2.34432 0
M  V30 2897 H 276.444 -1.33301 -3.52861 0
M  V30 2898 H 278.831 -0.569488 -2.89553 0
M  V30 2899 H 278.912 -1.89142 -1.72218 0
M  V30 2900 H 278.556 -3.56545 -3.61715 0
M  V30 2901 H 278.486 -2.21532 -4.77735 0
M  V30 2902 H 280.977 -1.94681 -3.23895 0
M  V30 2903 H 281.29 -4.50406 -6.27976 0
M  V30 2904 H 279.635 -4.04498 -5.65161 0
M  V30 2905 H 282.826 -2.48331 -3.96799 0
M  V30 2906 H 282.999 -3.64925 -5.35475 0
M  V30 2907 N 276.405 1.4127 -0.698611 0
M  V30 2908 C 277.337 2.292 0.00399731 0
M  V30 2909 C 278.35 1.44944 0.741279 0
M  V30 2910 O 279.539 1.68416 0.591477 0
M  V30 2911 C 276.639 3.22875 1.02979 0
M  V30 2912 C 275.812 4.35904 0.36151 0
M  V30 2913 C 274.871 5.10134 1.29033 0
M  V30 2914 O 273.897 5.63809 0.781562 0
M  V30 2915 N 275.099 5.17885 2.6225 0
M  V30 2916 H 277.864 2.9014 -0.750921 0
M  V30 2917 H 275.425 1.52455 -0.544882 0
M  V30 2918 H 277.417 3.69404 1.65296 0
M  V30 2919 H 275.987 2.63221 1.68622 0
M  V30 2920 H 275.207 3.91719 -0.441584 0
M  V30 2921 H 276.495 5.08696 -0.103055 0
M  V30 2922 H 275.893 4.7573 3.061 0
M  V30 2923 H 274.45 5.6798 3.19754 0
M  V30 2924 N 277.883 0.443576 1.51229 0
M  V30 2925 C 279.129 -0.120975 2.02439 0
M  V30 2926 C 279.462 -1.41815 1.32674 0
M  V30 2927 O 278.737 -1.89373 0.443622 0
M  V30 2928 C 279.02 -0.333291 3.58554 0
M  V30 2929 C 278.873 0.982968 4.38928 0
M  V30 2930 C 280.192 -1.10028 4.26124 0
M  V30 2931 H 277.311 -0.0424923 0.735774 0
M  V30 2932 H 279.953 0.583794 1.80809 0
M  V30 2933 H 278.103 -0.933614 3.77115 0
M  V30 2934 H 279.775 1.61775 4.32003 0
M  V30 2935 H 278.018 1.58611 4.03763 0
M  V30 2936 H 278.689 0.788379 5.46341 0
M  V30 2937 H 281.165 -0.591711 4.11871 0
M  V30 2938 H 280.041 -1.21761 5.35225 0
M  V30 2939 H 280.302 -2.12996 3.87408 0
M  V30 2940 N 279.361 -1.56624 0.175154 0
M  V30 2941 C 280.607 -1.9729 -0.469506 0
M  V30 2942 C 280.94 -1.06128 -1.62636 0
M  V30 2943 O 280.215 -0.109183 -1.94193 0
M  V30 2944 C 280.498 -3.47375 -0.948804 0
M  V30 2945 C 280.351 -4.49317 0.208491 0
M  V30 2946 C 281.67 -4.00652 -1.82116 0
M  V30 2947 H 278.789 -0.717317 -0.16919 0
M  V30 2948 H 281.431 -1.88184 0.262062 0
M  V30 2949 H 279.581 -3.55267 -1.57219 0
M  V30 2950 H 281.253 -4.53482 0.845682 0
M  V30 2951 H 279.496 -4.25121 0.863395 0
M  V30 2952 H 280.167 -5.51741 -0.169059 0
M  V30 2953 H 282.643 -3.95416 -1.2956 0
M  V30 2954 H 281.519 -5.06075 -2.12554 0
M  V30 2955 H 281.78 -3.44699 -2.7683 0
M  V30 2956 N 280.839 0.0985539 -1.57292 0
M  V30 2957 C 281.802 1.10402 -2.00858 0
M  V30 2958 C 282.802 1.33146 -0.901593 0
M  V30 2959 O 283.992 1.29318 -1.16716 0
M  V30 2960 C 281.124 2.45394 -2.36632 0
M  V30 2961 H 282.317 0.729099 -2.90902 0
M  V30 2962 H 279.87 0.343495 -1.52479 0
M  V30 2963 H 280.605 2.87769 -1.49531 0
M  V30 2964 H 280.39 2.30235 -3.17387 0
M  V30 2965 H 281.88 3.17718 -2.71007 0
M  V30 2966 N 282.317 1.53212 0.369288 0
M  V30 2967 C 283.565 1.68881 1.11012 0
M  V30 2968 C 283.886 0.441285 1.89941 0
M  V30 2969 O 283.156 -0.544623 1.88177 0
M  V30 2970 H 281.736 0.622569 0.412816 0
M  V30 2971 H 284.398 1.90391 0.416802 0
M  V30 2972 H 283.494 2.54822 1.80201 0
M  V30 2973 N 283.795 -0.628877 1.44509 0
M  V30 2974 C 284.725 -1.75187 1.54376 0
M  V30 2975 C 285.706 -1.65411 0.396618 0
M  V30 2976 O 286.891 -1.84137 0.617031 0
M  V30 2977 C 284.021 -3.13725 1.48976 0
M  V30 2978 C 282.975 -3.38291 2.62189 0
M  V30 2979 C 282.301 -4.76883 2.41841 0
M  V30 2980 C 283.601 -3.30632 4.04326 0
M  V30 2981 H 285.295 -1.67187 2.48373 0
M  V30 2982 H 282.841 -0.802909 1.19538 0
M  V30 2983 H 284.794 -3.92064 1.54478 0
M  V30 2984 H 283.518 -3.22515 0.514961 0
M  V30 2985 H 282.177 -2.62334 2.56079 0
M  V30 2986 H 281.825 -4.82378 1.42548 0
M  V30 2987 H 281.525 -4.94278 3.17747 0
M  V30 2988 H 283.049 -5.57449 2.49165 0
M  V30 2989 H 284.463 -3.98873 4.11793 0
M  V30 2990 H 282.86 -3.59561 4.80454 0
M  V30 2991 H 283.93 -2.28404 4.27738 0
M  V30 2992 N 285.273 -1.31445 -0.869486 0
M  V30 2993 C 286.221 -1.19067 -1.99814 0
M  V30 2994 C 287.215 -0.0988569 -1.69111 0
M  V30 2995 O 288.421 -0.260781 -1.78101 0
M  V30 2996 H 284.796 -0.368677 -0.655425 0
M  V30 2997 H 286.767 -2.14555 -2.07385 0
M  V30 2998 C 285.516 -0.915323 -3.35436 0
M  V30 2999 H 284.839 -1.74759 -3.59582 0
M  V30 3000 H 286.279 -0.868895 -4.15001 0
M  V30 3001 C 284.738 0.381928 -3.34728 0
M  V30 3002 O 285.268 1.39857 -3.76567 0
M  V30 3003 N 283.474 0.398633 -2.87853 0
M  V30 3004 H 283.021 -0.429186 -2.54 0
M  V30 3005 H 282.979 1.26651 -2.87762 0
M  V30 3006 N 286.751 1.08385 -1.14413 0
M  V30 3007 C 287.998 1.80776 -0.912482 0
M  V30 3008 C 288.326 1.86236 0.560934 0
M  V30 3009 O 287.581 1.33431 1.43159 0
M  V30 3010 C 287.88 3.26273 -1.45879 0
M  V30 3011 C 287.546 3.4093 -2.95089 0
M  V30 3012 C 286.208 3.44638 -3.35824 0
M  V30 3013 C 288.56 3.44591 -3.91033 0
M  V30 3014 C 285.888 3.49597 -4.71167 0
M  V30 3015 C 288.24 3.51086 -5.26233 0
M  V30 3016 C 286.904 3.53067 -5.6648 0
M  V30 3017 H 286.174 0.661507 -0.333901 0
M  V30 3018 H 288.821 1.27613 -1.42784 0
M  V30 3019 H 287.126 3.82146 -0.864376 0
M  V30 3020 H 288.823 3.80839 -1.2555 0
M  V30 3021 H 285.413 3.38736 -2.62594 0
M  V30 3022 H 289.597 3.40957 -3.60641 0
M  V30 3023 H 284.853 3.49424 -5.0171 0
M  V30 3024 H 289.027 3.52864 -6.00383 0
M  V30 3025 H 286.654 3.56662 -6.71339 0
M  V30 3026 N 288.23 0.939286 1.26551 0
M  V30 3027 C 289.646 0.641304 1.46149 0
M  V30 3028 C 289.846 -0.805964 1.84679 0
M  V30 3029 O 288.902 -1.58278 1.96734 0
M  V30 3030 C 290.215 1.6011 2.54529 0
M  V30 3031 C 291.763 1.6106 2.68382 0
M  V30 3032 C 292.238 2.55765 3.79932 0
M  V30 3033 N 293.729 2.5404 3.87322 0
M  V30 3034 C 294.464 3.24004 4.73085 0
M  V30 3035 N 293.96 4.03388 5.63249 0
M  V30 3036 N 295.753 3.12965 4.66914 0
M  V30 3037 H 287.904 1.87478 0.998285 0
M  V30 3038 H 290.167 0.805559 0.499779 0
M  V30 3039 H 289.873 2.63412 2.33039 0
M  V30 3040 H 289.747 1.35171 3.52149 0
M  V30 3041 H 292.134 0.584835 2.89247 0
M  V30 3042 H 292.215 1.90053 1.71212 0
M  V30 3043 H 291.859 3.58458 3.5982 0
M  V30 3044 H 291.789 2.24063 4.76554 0
M  V30 3045 H 294.28 1.96396 3.22858 0
M  V30 3046 H 294.593 4.5373 6.25579 0
M  V30 3047 H 292.938 4.07489 5.63008 0
M  V30 3048 H 296.129 2.50432 3.95476 0
M  V30 3049 H 296.302 3.67759 5.33533 0
M  V30 3050 N 289.708 -1.40897 0.706093 0
M  V30 3051 C 290.957 -2.00284 0.238574 0
M  V30 3052 C 291.27 -1.56604 -1.17194 0
M  V30 3053 O 292.476 -2.08624 -1.73748 0
M  V30 3054 C 290.932 -3.57934 0.375623 0
M  V30 3055 C 290.54 -4.10591 1.79217 0
M  V30 3056 C 292.284 -4.24488 -0.0315857 0
M  V30 3057 C 290.191 -5.60712 1.88032 0
M  V30 3058 H 289.121 -0.749144 0.0854398 0
M  V30 3059 H 291.772 -1.61251 0.875813 0
M  V30 3060 H 290.154 -3.94622 -0.330042 0
M  V30 3061 H 291.328 -3.85301 2.52745 0
M  V30 3062 H 289.643 -3.56601 2.15 0
M  V30 3063 H 292.24 -5.34698 0.0136842 0
M  V30 3064 H 292.583 -4.02261 -1.072 0
M  V30 3065 H 293.116 -3.92873 0.624181 0
M  V30 3066 H 289.855 -5.87781 2.90161 0
M  V30 3067 H 289.375 -5.87896 1.18903 0
M  V30 3068 H 291.054 -6.25658 1.64805 0
M  V30 3069 N 291.186 -0.45159 -1.50991 0
M  V30 3070 C 292.414 0.108334 -2.06616 0
M  V30 3071 C 292.829 1.35224 -1.31757 0
M  V30 3072 O 292.186 1.78475 -0.381174 0
M  V30 3073 C 292.237 0.41619 -3.59096 0
M  V30 3074 O 291.958 -0.778361 -4.3113 0
M  V30 3075 C 293.459 1.02523 -4.31282 0
M  V30 3076 H 290.679 0.00159995 -0.670998 0
M  V30 3077 H 293.223 -0.634771 -1.94399 0
M  V30 3078 H 291.378 1.10921 -3.71181 0
M  V30 3079 H 291.792 -0.511181 -5.22003 0
M  V30 3080 H 293.266 1.19053 -5.39009 0
M  V30 3081 H 293.743 2.01013 -3.905 0
M  V30 3082 H 294.349 0.371173 -4.23677 0
M  V30 3083 N 292.664 1.56529 -0.183458 0
M  V30 3084 C 293.894 2.01331 0.463612 0
M  V30 3085 C 294.302 1.06278 1.5653 0
M  V30 3086 O 293.645 0.0577976 1.83609 0
M  V30 3087 C 293.707 3.42547 1.09096 0
M  V30 3088 C 293.371 4.56817 0.129442 0
M  V30 3089 C 294.368 5.15734 -0.656807 0
M  V30 3090 C 292.053 5.02295 0.02174 0
M  V30 3091 C 294.047 6.1857 -1.53784 0
M  V30 3092 C 291.734 6.04978 -0.862864 0
M  V30 3093 C 292.732 6.62988 -1.64123 0
M  V30 3094 O 292.42 7.63677 -2.51103 0
M  V30 3095 H 292.152 0.664917 0.121907 0
M  V30 3096 H 294.706 2.034 -0.285954 0
M  V30 3097 H 292.936 3.37428 1.88889 0
M  V30 3098 H 294.625 3.71228 1.64148 0
M  V30 3099 H 295.391 4.81473 -0.583839 0
M  V30 3100 H 291.27 4.56847 0.617392 0
M  V30 3101 H 294.814 6.63777 -2.14583 0
M  V30 3102 H 290.711 6.38663 -0.93699 0
M  V30 3103 H 291.479 7.81049 -2.44753 0
M  V30 3104 N 294.142 -0.090211 1.57342 0
M  V30 3105 C 295.367 -0.810082 1.90925 0
M  V30 3106 C 295.792 -1.71248 0.778187 0
M  V30 3107 O 295.15 -1.79278 -0.269991 0
M  V30 3108 C 295.198 -1.59529 3.23393 0
M  V30 3109 O 294.302 -2.70461 3.11327 0
M  V30 3110 H 293.643 -0.222231 0.625707 0
M  V30 3111 H 296.173 -0.0639716 2.045 0
M  V30 3112 H 296.183 -1.97847 3.5682 0
M  V30 3113 H 294.858 -0.933055 4.05299 0
M  V30 3114 H 293.435 -2.35135 2.89423 0
M  V30 3115 N 295.62 -1.53406 -0.361157 0
M  V30 3116 C 296.869 -1.69022 -1.10066 0
M  V30 3117 C 297.182 -0.450838 -1.90333 0
M  V30 3118 O 298.388 -0.487617 -2.67085 0
M  V30 3119 C 296.844 -2.98812 -2.00598 0
M  V30 3120 C 296.452 -4.30027 -1.25621 0
M  V30 3121 C 298.196 -3.23795 -2.74513 0
M  V30 3122 C 296.103 -5.50903 -2.1508 0
M  V30 3123 H 295.033 -0.629776 -0.414606 0
M  V30 3124 H 297.684 -1.79907 -0.361348 0
M  V30 3125 H 296.066 -2.8174 -2.78278 0
M  V30 3126 H 297.24 -4.57745 -0.529739 0
M  V30 3127 H 295.555 -4.11522 -0.635496 0
M  V30 3128 H 298.152 -4.11289 -3.41681 0
M  V30 3129 H 298.495 -2.40045 -3.40123 0
M  V30 3130 H 299.028 -3.41561 -2.03914 0
M  V30 3131 H 295.767 -6.37143 -1.54041 0
M  V30 3132 H 295.287 -5.27459 -2.85565 0
M  V30 3133 H 296.966 -5.85865 -2.74538 0
M  V30 3134 N 297.098 0.621204 -1.44841 0
M  V30 3135 C 298.344 1.3826 -1.48365 0
M  V30 3136 C 298.677 1.93831 -0.119624 0
M  V30 3137 O 297.952 1.74251 0.864111 0
M  V30 3138 C 298.235 2.54058 -2.55199 0
M  V30 3139 C 298.088 2.03772 -4.00995 0
M  V30 3140 C 299.407 3.56225 -2.58442 0
M  V30 3141 H 296.526 0.501374 -0.540179 0
M  V30 3142 H 299.168 0.7015 -1.76576 0
M  V30 3143 H 297.318 3.12162 -2.31274 0
M  V30 3144 H 298.99 1.50423 -4.36086 0
M  V30 3145 H 297.233 1.34876 -4.12299 0
M  V30 3146 H 297.904 2.87185 -4.71411 0
M  V30 3147 H 300.38 3.07939 -2.79844 0
M  V30 3148 H 299.256 4.34756 -3.3508 0
M  V30 3149 H 299.517 4.10949 -1.63013 0
M  V30 3150 N 298.576 1.31904 0.862503 0
M  V30 3151 C 299.508 1.16005 1.97675 0
M  V30 3152 C 300.521 0.0971234 1.6251 0
M  V30 3153 O 301.71 0.345337 1.75128 0
M  V30 3154 C 298.81 0.751791 3.30456 0
M  V30 3155 C 297.983 1.90133 3.93914 0
M  V30 3156 C 297.042 1.4779 5.05019 0
M  V30 3157 O 296.068 2.18872 5.25437 0
M  V30 3158 N 297.27 0.369491 5.79323 0
M  V30 3159 H 300.035 2.11982 2.11857 0
M  V30 3160 H 297.596 1.24337 1.03691 0
M  V30 3161 H 299.588 0.451084 4.02178 0
M  V30 3162 H 298.158 -0.116593 3.12382 0
M  V30 3163 H 297.378 2.36896 3.15078 0
M  V30 3164 H 298.666 2.67111 4.33047 0
M  V30 3165 H 298.064 -0.222299 5.65263 0
M  V30 3166 H 296.621 0.128354 6.51674 0
M  V30 3167 N 300.054 -1.07777 1.14986 0
M  V30 3168 C 301.282 -1.84018 0.945773 0
M  V30 3169 C 301.697 -1.81897 -0.505863 0
M  V30 3170 O 301.054 -1.22726 -1.35072 0
M  V30 3171 C 301.105 -3.31287 1.44677 0
M  V30 3172 O 300.826 -3.33449 2.84154 0
M  V30 3173 C 302.327 -4.24311 1.28355 0
M  V30 3174 H 299.547 -0.580716 0.336169 0
M  V30 3175 H 302.091 -1.36077 1.52654 0
M  V30 3176 H 300.246 -3.76594 0.908625 0
M  V30 3177 H 300.66 -4.25427 3.06777 0
M  V30 3178 H 302.134 -5.2573 1.68261 0
M  V30 3179 H 302.611 -4.38612 0.227184 0
M  V30 3180 H 303.217 -3.84836 1.81056 0
M  V30 3181 N 301.532 -0.945985 -1.26051 0
M  V30 3182 C 302.48 -0.450259 -2.282 0
M  V30 3183 C 303.474 0.47497 -1.62605 0
M  V30 3184 O 304.68 0.352653 -1.76512 0
M  V30 3185 H 301.055 -0.127081 -0.741184 0
M  V30 3186 H 303.026 -1.32422 -2.67408 0
M  V30 3187 C 301.775 0.26467 -3.46691 0
M  V30 3188 H 301.098 -0.438123 -3.97392 0
M  V30 3189 H 302.538 0.575678 -4.20074 0
M  V30 3190 C 300.997 1.48416 -3.02447 0
M  V30 3191 O 301.527 2.58227 -3.07704 0
M  V30 3192 N 299.733 1.34243 -2.57735 0
M  V30 3193 H 299.28 0.448994 -2.53657 0
M  V30 3194 H 299.238 2.15957 -2.28495 0
M  V30 3195 N 303.011 1.40521 -0.713556 0
M  V30 3196 C 304.251 2.02783 -0.256584 0
M  V30 3197 C 304.615 1.55352 1.12827 0
M  V30 3198 O 305.816 2.09663 1.68211 0
M  V30 3199 C 304.087 3.5586 -0.331414 0
M  V30 3200 S 305.646 4.38773 0.0488703 0
M  V30 3201 H 302.464 0.703655 -0.101934 0
M  V30 3202 H 305.066 1.71674 -0.935325 0
M  V30 3203 H 303.77 3.87874 -1.34098 0
M  V30 3204 H 303.301 3.91695 0.365873 0
M  V30 3205 H 305.316 4.79633 1.2715 0
M  V30 3206 N 304.489 0.459591 1.5075 0
M  V30 3207 C 305.714 -0.0996819 2.0716 0
M  V30 3208 C 306.139 -1.33761 1.32249 0
M  V30 3209 O 305.497 -1.77551 0.366786 0
M  V30 3210 C 305.545 -0.378226 3.58611 0
M  V30 3211 O 304.649 -1.46081 3.85661 0
M  V30 3212 H 303.99 0.00791392 0.663953 0
M  V30 3213 H 306.52 0.647329 1.9409 0
M  V30 3214 H 306.53 -0.622135 4.03229 0
M  V30 3215 H 305.205 0.526439 4.12555 0
M  V30 3216 H 303.782 -1.20511 3.5289 0
M  V30 3217 N 305.967 -1.56429 0.191757 0
M  V30 3218 C 306.914 -2.18936 -0.730454 0
M  V30 3219 C 307.884 -1.13557 -1.21219 0
M  V30 3220 O 309.069 -1.41794 -1.27668 0
M  V30 3221 C 306.209 -2.85013 -1.9458 0
M  V30 3222 C 305.322 -4.04909 -1.50574 0
M  V30 3223 C 304.457 -4.58853 -2.67634 0
M  V30 3224 C 303.496 -5.71114 -2.20217 0
M  V30 3225 N 302.633 -6.19478 -3.30442 0
M  V30 3226 H 307.473 -2.97389 -0.190664 0
M  V30 3227 H 305.01 -1.46869 -0.0823694 0
M  V30 3228 H 306.968 -3.21492 -2.65893 0
M  V30 3229 H 305.598 -2.09129 -2.45896 0
M  V30 3230 H 304.65 -3.74115 -0.688605 0
M  V30 3231 H 305.962 -4.86113 -1.11784 0
M  V30 3232 H 305.116 -4.97619 -3.47074 0
M  V30 3233 H 303.855 -3.76749 -3.09696 0
M  V30 3234 H 302.86 -5.31879 -1.3923 0
M  V30 3235 H 304.085 -6.55033 -1.79189 0
M  V30 3236 H 302.031 -5.40297 -3.72041 0
M  V30 3237 H 301.948 -6.95725 -2.9581 0
M  V30 3238 H 303.216 -6.62898 -4.10106 0
M  V30 3239 N 307.445 0.0818655 -1.57387 0
M  V30 3240 C 308.355 1.11642 -2.06333 0
M  V30 3241 C 309.371 1.43033 -0.99083 0
M  V30 3242 O 310.547 1.53411 -1.30488 0
M  V30 3243 C 307.612 2.41342 -2.48907 0
M  V30 3244 C 306.673 2.17014 -3.7041 0
M  V30 3245 C 305.906 3.4053 -4.10944 0
M  V30 3246 O 306.129 4.4927 -3.51444 0
M  V30 3247 O 305.063 3.29336 -5.03807 0
M  V30 3248 H 308.889 0.730657 -2.9478 0
M  V30 3249 H 306.474 0.295301 -1.46452 0
M  V30 3250 H 308.356 3.17691 -2.76858 0
M  V30 3251 H 307.031 2.79319 -1.63593 0
M  V30 3252 H 305.938 1.38403 -3.47556 0
M  V30 3253 H 307.271 1.83923 -4.56545 0
M  V30 3254 N 308.923 1.53595 0.353017 0
M  V30 3255 C 309.871 1.81605 1.45335 0
M  V30 3256 C 310.865 0.685923 1.54892 0
M  V30 3257 O 312.071 0.869095 1.57628 0
M  V30 3258 H 308.446 0.575204 0.484401 0
M  V30 3259 H 310.417 2.73679 1.18921 0
M  V30 3260 C 309.166 2.03406 2.81995 0
M  V30 3261 H 308.489 2.89814 2.75405 0
M  V30 3262 H 309.929 2.26975 3.58132 0
M  V30 3263 C 308.388 0.816794 3.26849 0
M  V30 3264 O 308.918 0.0115856 4.01698 0
M  V30 3265 N 307.124 0.636682 2.8354 0
M  V30 3266 H 306.671 1.2931 2.22793 0
M  V30 3267 H 306.629 -0.176336 3.13905 0
M  V30 3268 N 310.401 -0.613514 1.45168 0
M  V30 3269 C 311.648 -1.37268 1.48875 0
M  V30 3270 C 311.976 -1.94077 0.128161 0
M  V30 3271 O 311.231 -1.75178 -0.872416 0
M  V30 3272 C 311.53 -2.54347 2.51083 0
M  V30 3273 C 311.196 -2.1572 3.95949 0
M  V30 3274 C 309.858 -2.04899 4.35396 0
M  V30 3275 C 312.21 -1.85485 4.87078 0
M  V30 3276 C 309.538 -1.62057 5.63875 0
M  V30 3277 C 311.89 -1.4413 6.15962 0
M  V30 3278 C 310.554 -1.31863 6.54346 0
M  V30 3279 H 309.824 -0.502299 0.544773 0
M  V30 3280 H 312.471 -0.694021 1.78481 0
M  V30 3281 H 310.776 -3.27524 2.15024 0
M  V30 3282 H 312.473 -3.12577 2.51191 0
M  V30 3283 H 309.063 -2.25066 3.64751 0
M  V30 3284 H 313.247 -1.92745 4.57343 0
M  V30 3285 H 308.503 -1.51177 5.92415 0
M  V30 3286 H 312.677 -1.19778 6.86022 0
M  V30 3287 H 310.304 -0.984392 7.538 0
M  V30 3288 N 311.879 -1.3236 -0.855495 0
M  V30 3289 C 312.809 -1.23833 -1.97958 0
M  V30 3290 C 313.79 -0.122361 -1.69659 0
M  V30 3291 O 314.975 -0.30939 -1.9172 0
M  V30 3292 C 312.105 -0.959772 -3.33775 0
M  V30 3293 C 311.059 -2.03689 -3.76424 0
M  V30 3294 C 310.385 -1.61075 -5.09862 0
M  V30 3295 C 311.685 -3.4518 -3.9198 0
M  V30 3296 H 313.379 -2.1788 -2.0535 0
M  V30 3297 H 310.925 -1.04891 -0.986605 0
M  V30 3298 H 312.878 -0.886678 -4.11966 0
M  V30 3299 H 311.602 0.0163404 -3.26596 0
M  V30 3300 H 310.261 -2.10012 -3.00484 0
M  V30 3301 H 309.909 -0.622107 -4.99138 0
M  V30 3302 H 309.609 -2.33143 -5.39368 0
M  V30 3303 H 311.133 -1.55201 -5.90546 0
M  V30 3304 H 312.547 -3.4145 -4.60526 0
M  V30 3305 H 310.944 -4.1559 -4.32903 0
M  V30 3306 H 312.014 -3.84903 -2.94919 0
M  V30 3307 N 313.357 1.07166 -1.15556 0
M  V30 3308 C 314.604 1.79798 -0.931604 0
M  V30 3309 C 314.932 1.8682 0.54115 0
M  V30 3310 O 314.187 1.34942 1.41736 0
M  V30 3311 C 314.486 3.24707 -1.49332 0
M  V30 3312 C 314.152 3.37781 -2.98688 0
M  V30 3313 C 312.814 3.41057 -3.39461 0
M  V30 3314 C 315.166 3.40424 -3.94665 0
M  V30 3315 C 312.494 3.4458 -4.74849 0
M  V30 3316 C 314.846 3.45485 -5.29927 0
M  V30 3317 C 313.51 3.47039 -5.70193 0
M  V30 3318 H 312.78 0.657928 -0.340898 0
M  V30 3319 H 315.427 1.26091 -1.44129 0
M  V30 3320 H 313.732 3.81208 -0.904859 0
M  V30 3321 H 315.429 3.79486 -1.29582 0
M  V30 3322 H 312.019 3.35932 -2.66172 0
M  V30 3323 H 316.203 3.37113 -3.64237 0
M  V30 3324 H 311.459 3.44083 -5.05388 0
M  V30 3325 H 315.633 3.46476 -6.04092 0
M  V30 3326 H 313.26 3.49522 -6.75084 0
M  V30 3327 N 314.835 0.952656 1.25548 0
M  V30 3328 C 315.765 0.489287 2.28316 0
M  V30 3329 C 316.746 -0.463359 1.63667 0
M  V30 3330 O 317.931 -0.36274 1.90782 0
M  V30 3331 C 315.061 -0.235603 3.465 0
M  V30 3332 C 314.015 0.631593 4.23314 0
M  V30 3333 C 313.341 -0.223923 5.34231 0
M  V30 3334 C 314.641 1.90871 4.86174 0
M  V30 3335 H 316.335 1.34822 2.67326 0
M  V30 3336 H 313.881 0.649728 1.28509 0
M  V30 3337 H 315.834 -0.570882 4.17515 0
M  V30 3338 H 314.558 -1.12877 3.06474 0
M  V30 3339 H 313.217 0.949929 3.54079 0
M  V30 3340 H 312.865 -1.11678 4.90446 0
M  V30 3341 H 312.565 0.35299 5.86539 0
M  V30 3342 H 314.089 -0.554214 6.0808 0
M  V30 3343 H 315.503 1.63997 5.49343 0
M  V30 3344 H 313.9 2.43112 5.4865 0
M  V30 3345 H 314.97 2.61304 4.08471 0
M  V30 3346 N 316.313 -1.40141 0.720998 0
M  V30 3347 C 317.541 -2.05096 0.272656 0
M  V30 3348 C 317.956 -1.54334 -1.0875 0
M  V30 3349 O 317.313 -0.702211 -1.6845 0
M  V30 3350 C 317.364 -3.60636 0.249835 0
M  V30 3351 O 317.085 -4.09526 1.55629 0
M  V30 3352 C 318.586 -4.42772 -0.216396 0
M  V30 3353 H 315.806 -0.659897 0.121558 0
M  V30 3354 H 318.35 -1.79449 0.980723 0
M  V30 3355 H 316.505 -3.85232 -0.409237 0
M  V30 3356 H 316.919 -5.03758 1.4604 0
M  V30 3357 H 318.393 -5.51702 -0.181212 0
M  V30 3358 H 318.87 -4.20756 -1.25941 0
M  V30 3359 H 319.476 -4.23294 0.412596 0
M  V30 3360 N 317.792 -0.46758 -1.50504 0
M  V30 3361 C 319.203 -0.0116166 -1.86696 0
M  V30 3362 C 319.554 1.39202 -1.38265 0
M  V30 3363 O 318.679 2.0313 -0.746132 0
M  V30 3364 C 319.274 -0.0143044 -3.38797 0
M  V30 3365 C 317.833 0.386175 -3.74414 0
M  V30 3366 C 316.98 -0.401287 -2.74381 0
M  V30 3367 H 319.931 -0.682022 -1.43297 0
M  V30 3368 H 319.952 0.788641 -3.72237 0
M  V30 3369 H 319.464 -1.03602 -3.74016 0
M  V30 3370 H 317.565 1.41237 -3.44794 0
M  V30 3371 H 317.678 0.0899596 -4.79016 0
M  V30 3372 H 316.042 0.144536 -2.5429 0
M  V30 3373 H 316.825 -1.42244 -3.12444 0
M  V30 3374 N 319.27 1.56325 -0.20005 0
M  V30 3375 C 320.547 1.89484 0.48529 0
M  V30 3376 C 320.927 1.1143 1.79294 0
M  V30 3377 O 320.275 0.216919 2.27468 0
M  V30 3378 C 320.485 3.41923 0.699243 0
M  V30 3379 C 321.833 4.12256 1.01638 0
M  V30 3380 O 322.857 3.47402 0.786792 0
M  V30 3381 O 321.716 5.26887 1.45095 0
M  V30 3382 H 318.81 0.787144 0.253639 0
M  V30 3383 H 321.356 1.67985 -0.240633 0
M  V30 3384 H 320.128 3.90658 -0.224008 0
M  V30 3385 H 319.751 3.69131 1.47744 0
M  V30 3386 N 320.748 -0.0735177 1.57428 0
M  V30 3387 C 321.988 -0.778363 1.89 0
M  V30 3388 C 322.352 -1.7483 0.793634 0
M  V30 3389 O 323.553 -2.49811 0.992367 0
M  V30 3390 C 321.824 -1.46929 3.25802 0
M  V30 3391 S 323.383 -2.20943 3.79117 0
M  V30 3392 H 320.201 -0.258874 0.662197 0
M  V30 3393 H 322.803 -0.0345338 1.95469 0
M  V30 3394 H 321.507 -0.749532 4.03497 0
M  V30 3395 H 321.038 -2.25258 3.22525 0
M  V30 3396 H 323.053 -3.47435 3.54265 0
M  V30 3397 N 322.226 -1.5378 -0.344866 0
M  V30 3398 C 323.173 -1.81676 -1.42346 0
M  V30 3399 C 324.143 -0.662376 -1.52321 0
M  V30 3400 O 325.328 -0.906675 -1.67881 0
M  V30 3401 C 322.468 -2.03087 -2.79015 0
M  V30 3402 C 321.581 -3.30799 -2.77842 0
M  V30 3403 C 320.716 -3.42285 -4.0622 0
M  V30 3404 C 319.755 -4.6395 -3.9927 0
M  V30 3405 N 318.892 -4.72477 -5.19336 0
M  V30 3406 H 323.732 -2.73703 -1.17858 0
M  V30 3407 H 321.269 -1.35568 -0.570949 0
M  V30 3408 H 323.227 -2.1349 -3.58438 0
M  V30 3409 H 321.857 -1.14375 -3.01858 0
M  V30 3410 H 320.909 -3.29244 -1.90533 0
M  V30 3411 H 322.221 -4.20314 -2.68584 0
M  V30 3412 H 321.375 -3.52113 -4.94066 0
M  V30 3413 H 320.114 -2.50823 -4.18258 0
M  V30 3414 H 319.119 -4.54201 -3.09809 0
M  V30 3415 H 320.344 -5.56775 -3.88817 0
M  V30 3416 H 318.29 -3.83924 -5.3192 0
M  V30 3417 H 318.207 -5.55927 -5.12329 0
M  V30 3418 H 319.475 -4.86613 -6.08957 0
M  V30 3419 N 323.704 0.605807 -1.45491 0
M  V30 3420 C 324.929 1.39625 -1.53361 0
M  V30 3421 C 325.354 1.87351 -0.167645 0
M  V30 3422 O 324.712 1.60243 0.848051 0
M  V30 3423 C 324.76 2.57559 -2.5238 0
M  V30 3424 O 323.864 3.58248 -2.04285 0
M  V30 3425 H 323.205 0.416771 -0.516912 0
M  V30 3426 H 325.735 0.737103 -1.90861 0
M  V30 3427 H 325.745 3.0478 -2.71244 0
M  V30 3428 H 324.42 2.22171 -3.51586 0
M  V30 3429 H 322.997 3.17664 -1.95305 0
M  V30 3430 N 325.182 1.32811 0.848464 0
M  V30 3431 C 326.112 1.24882 1.97299 0
M  V30 3432 C 327.093 0.131357 1.69592 0
M  V30 3433 O 328.278 0.319553 1.91553 0
M  V30 3434 C 325.408 0.97746 3.33261 0
M  V30 3435 C 324.362 2.05682 3.75338 0
M  V30 3436 C 323.688 1.63777 5.09 0
M  V30 3437 C 324.988 3.47254 3.90144 0
M  V30 3438 H 326.682 2.18966 2.04191 0
M  V30 3439 H 324.228 1.05413 0.981029 0
M  V30 3440 H 326.181 0.908513 4.1149 0
M  V30 3441 H 324.905 0.000980011 3.266 0
M  V30 3442 H 323.564 2.11603 2.99366 0
M  V30 3443 H 323.212 0.648569 4.98801 0
M  V30 3444 H 322.912 2.36 5.38124 0
M  V30 3445 H 324.436 1.5833 5.89715 0
M  V30 3446 H 325.85 3.43888 4.58709 0
M  V30 3447 H 324.247 4.1788 4.30693 0
M  V30 3448 H 325.317 3.86462 2.92874 0
M  V30 3449 N 326.66 -1.06551 1.16123 0
M  V30 3450 C 327.906 -1.79719 0.952505 0
M  V30 3451 C 328.261 -1.85396 -0.514385 0
M  V30 3452 O 327.554 -1.33263 -1.37665 0
M  V30 3453 C 327.748 -3.23911 1.51052 0
M  V30 3454 C 327.577 -3.32284 3.03013 0
M  V30 3455 C 326.347 -3.42371 3.71632 0
M  V30 3456 C 328.545 -3.22363 4.00732 0
M  V30 3457 N 326.527 -3.39732 5.11327 0
M  V30 3458 C 327.898 -3.26937 5.26794 0
M  V30 3459 C 329.953 -3.0623 3.92591 0
M  V30 3460 C 328.656 -3.17035 6.45663 0
M  V30 3461 C 330.682 -2.97665 5.11028 0
M  V30 3462 C 330.044 -3.02858 6.35969 0
M  V30 3463 H 326.143 -0.670585 0.402293 0
M  V30 3464 H 328.727 -1.27125 1.4747 0
M  V30 3465 H 326.898 -3.74907 1.01484 0
M  V30 3466 H 328.63 -3.85242 1.2398 0
M  V30 3467 H 325.385 -3.47058 3.22254 0
M  V30 3468 H 325.809 -3.41919 5.84312 0
M  V30 3469 H 330.451 -3.01063 2.96852 0
M  V30 3470 H 328.169 -3.2096 7.41627 0
M  V30 3471 H 331.755 -2.86273 5.06497 0
M  V30 3472 H 330.635 -2.96286 7.26075 0
M  V30 3473 N 328.138 -0.959301 -1.25041 0
M  V30 3474 C 329.086 -0.474437 -2.2771 0
M  V30 3475 C 330.08 0.457697 -1.631 0
M  V30 3476 O 331.286 0.333912 -1.76876 0
M  V30 3477 H 327.661 -0.134936 -0.739795 0
M  V30 3478 H 329.632 -1.35251 -2.65988 0
M  V30 3479 C 328.381 0.227884 -3.46952 0
M  V30 3480 H 327.704 -0.480248 -3.96905 0
M  V30 3481 H 329.144 0.531091 -4.20661 0
M  V30 3482 C 327.603 1.452 -3.04004 0
M  V30 3483 O 328.133 2.54949 -3.10426 0
M  V30 3484 N 326.339 1.31502 -2.59144 0
M  V30 3485 H 325.886 0.422065 -2.54119 0
M  V30 3486 H 325.844 2.13521 -2.30773 0
M  V30 3487 N 329.616 1.39756 -0.72842 0
M  V30 3488 C 330.864 2.00248 -0.272946 0
M  V30 3489 C 331.185 1.58077 1.14178 0
M  V30 3490 O 330.455 0.826014 1.77634 0
M  V30 3491 H 329.035 0.740554 -0.0979247 0
M  V30 3492 H 331.697 1.70903 -0.936912 0
M  V30 3493 H 330.793 3.10495 -0.316142 0
M  V30 3494 N 331.094 0.475555 1.50254 0
M  V30 3495 C 332.371 -0.139685 1.95101 0
M  V30 3496 C 332.751 -1.56555 1.41611 0
M  V30 3497 O 332.099 -2.19956 0.618993 0
M  V30 3498 C 332.309 -0.0784298 3.48912 0
M  V30 3499 C 333.657 -0.265095 4.23772 0
M  V30 3500 O 334.681 -0.154808 3.55863 0
M  V30 3501 O 333.54 -0.488327 5.44314 0
M  V30 3502 H 330.634 -0.109236 0.819754 0
M  V30 3503 H 333.18 0.536276 1.61004 0
M  V30 3504 H 331.952 0.916918 3.80405 0
M  V30 3505 H 331.575 -0.795655 3.89558 0
M  V30 3506 N 332.573 -1.56217 0.208337 0
M  V30 3507 C 333.801 -2.02337 -0.43215 0
M  V30 3508 C 334.216 -1.08834 -1.54275 0
M  V30 3509 O 333.573 -0.0955462 -1.8225 0
M  V30 3510 C 333.624 -3.48072 -0.976138 0
M  V30 3511 O 333.345 -4.38007 0.0901621 0
M  V30 3512 C 334.846 -4.09773 -1.69119 0
M  V30 3513 H 332.066 -0.662385 -0.10718 0
M  V30 3514 H 334.61 -2.01966 0.320923 0
M  V30 3515 H 332.765 -3.49099 -1.67954 0
M  V30 3516 H 333.179 -5.23543 -0.316701 0
M  V30 3517 H 334.653 -5.13556 -2.02397 0
M  V30 3518 H 335.13 -3.53999 -2.59964 0
M  V30 3519 H 335.736 -4.12556 -1.03332 0
M  V30 3520 N 334.051 0.0651679 -1.57465 0
M  V30 3521 C 335.299 0.761555 -1.87202 0
M  V30 3522 C 335.62 1.77778 -0.801243 0
M  V30 3523 O 334.89 1.95166 0.16937 0
M  V30 3524 H 333.47 0.284251 -0.690804 0
M  V30 3525 H 336.132 0.0396827 -1.9486 0
M  V30 3526 H 335.228 1.27365 -2.84929 0
M  V30 3527 N 335.529 1.53961 0.336706 0
M  V30 3528 C 336.439 1.85432 1.43708 0
M  V30 3529 C 337.455 0.745053 1.57242 0
M  V30 3530 O 338.631 1.03804 1.72588 0
M  V30 3531 C 335.696 2.06349 2.78605 0
M  V30 3532 C 334.757 3.30191 2.74358 0
M  V30 3533 C 333.99 3.50101 4.02822 0
M  V30 3534 O 334.213 2.7371 5.00439 0
M  V30 3535 O 333.147 4.43547 4.06878 0
M  V30 3536 H 336.973 2.78975 1.20028 0
M  V30 3537 H 334.558 1.39701 0.52952 0
M  V30 3538 H 336.44 2.21513 3.58483 0
M  V30 3539 H 335.115 1.15995 3.02203 0
M  V30 3540 H 334.022 3.20425 1.93078 0
M  V30 3541 H 335.355 4.2056 2.55715 0
M  V30 3542 N 337.007 -0.598083 1.45811 0
M  V30 3543 C 338.247 -1.36802 1.5187 0
M  V30 3544 C 338.611 -1.9133 0.160224 0
M  V30 3545 O 339.812 -2.6863 0.0955302 0
M  V30 3546 C 338.083 -2.47835 2.57513 0
M  V30 3547 S 339.642 -3.35458 2.82866 0
M  V30 3548 H 336.46 -0.466278 0.536755 0
M  V30 3549 H 339.062 -0.689152 1.82951 0
M  V30 3550 H 337.766 -2.06141 3.54872 0
M  V30 3551 H 337.297 -3.20512 2.28114 0
M  V30 3552 H 339.312 -4.46251 2.16967 0
M  V30 3553 N 338.485 -1.33259 -0.841409 0
M  V30 3554 C 339.713 -1.27605 -1.62864 0
M  V30 3555 C 340.128 0.153507 -1.88175 0
M  V30 3556 O 339.485 1.09485 -1.46011 0
M  V30 3557 C 339.536 -2.04596 -2.98031 0
M  V30 3558 O 339.257 -3.41975 -2.73834 0
M  V30 3559 C 340.758 -2.06122 -3.92465 0
M  V30 3560 H 337.978 -0.439718 -0.506842 0
M  V30 3561 H 340.522 -1.75591 -1.04824 0
M  V30 3562 H 338.677 -1.60299 -3.5268 0
M  V30 3563 H 339.091 -3.81549 -3.59889 0
M  V30 3564 H 340.565 -2.64451 -4.84531 0
M  V30 3565 H 341.042 -1.05083 -4.26444 0
M  V30 3566 H 341.648 -2.50427 -3.43753 0
M  V30 3567 N 339.963 1.05934 -1.16686 0
M  V30 3568 C 341.24 1.75643 -0.860747 0
M  V30 3569 C 341.62 2.01144 0.640641 0
M  V30 3570 O 340.968 1.64147 1.58959 0
M  V30 3571 C 341.178 3.05493 -1.68745 0
M  V30 3572 C 342.526 3.79581 -1.90271 0
M  V30 3573 O 343.55 3.15344 -1.65641 0
M  V30 3574 O 342.409 4.9499 -2.31618 0
M  V30 3575 H 339.503 0.763426 -0.317977 0
M  V30 3576 H 342.049 1.1217 -1.27342 0
M  V30 3577 H 340.821 2.8264 -2.70611 0
M  V30 3578 H 340.444 3.76702 -1.27206 0
M  V30 3579 N 341.441 0.965919 1.2453 0
M  V30 3580 C 342.389 0.486506 2.27455 0
M  V30 3581 C 343.383 -0.449041 1.6334 0
M  V30 3582 O 344.589 -0.324527 1.7705 0
M  V30 3583 H 340.964 0.138857 0.739069 0
M  V30 3584 H 342.935 1.3666 2.65267 0
M  V30 3585 C 341.684 -0.209481 3.47068 0
M  V30 3586 H 341.007 0.50129 3.96645 0
M  V30 3587 H 342.447 -0.508775 4.20936 0
M  V30 3588 C 340.906 -1.43586 3.0477 0
M  V30 3589 O 341.436 -2.53299 3.11773 0
M  V30 3590 N 339.642 -1.30126 2.59838 0
M  V30 3591 H 339.189 -0.408583 2.54339 0
M  V30 3592 H 339.147 -2.12294 2.31902 0
M  V30 3593 N 342.919 -1.39368 0.735821 0
M  V30 3594 C 343.882 -2.2896 0.104874 0
M  V30 3595 C 344.882 -1.46347 -0.666274 0
M  V30 3596 O 346.072 -1.67014 -0.49517 0
M  V30 3597 C 343.204 -3.29857 -0.860656 0
M  V30 3598 H 344.397 -2.86259 0.894205 0
M  V30 3599 H 341.95 -1.48029 0.501704 0
M  V30 3600 H 342.685 -2.77615 -1.67631 0
M  V30 3601 H 342.47 -3.9087 -0.310327 0
M  V30 3602 H 343.96 -3.96893 -1.29867 0
M  V30 3603 N 344.397 -0.483516 -1.5 0
M  V30 3604 C 345.627 0.0643896 -2.065 0
M  V30 3605 C 346.035 1.32949 -1.34615 0
M  V30 3606 O 345.378 1.79003 -0.412756 0
M  V30 3607 C 345.44 0.405983 -3.572 0
M  V30 3608 C 345.104 -0.758875 -4.50655 0
M  V30 3609 C 346.101 -1.64445 -4.93208 0
M  V30 3610 C 343.786 -0.952725 -4.93182 0
M  V30 3611 C 345.78 -2.70818 -5.77006 0
M  V30 3612 C 343.467 -2.01966 -5.76761 0
M  V30 3613 C 344.465 -2.89574 -6.18576 0
M  V30 3614 O 344.153 -3.94429 -7.00486 0
M  V30 3615 H 343.885 -0.00934786 -0.675935 0
M  V30 3616 H 346.439 -0.674959 -1.93993 0
M  V30 3617 H 344.669 1.19869 -3.67652 0
M  V30 3618 H 346.358 0.890433 -3.96013 0
M  V30 3619 H 347.124 -1.50643 -4.61012 0
M  V30 3620 H 343.003 -0.280247 -4.60147 0
M  V30 3621 H 346.547 -3.3923 -6.09565 0
M  V30 3622 H 342.444 -2.1577 -6.0837 0
M  V30 3623 H 343.212 -3.91568 -7.1876 0
M  V30 3624 N 345.875 1.56104 -0.216619 0
M  V30 3625 C 347.124 1.97348 0.416744 0
M  V30 3626 C 347.437 1.10715 1.6125 0
M  V30 3627 O 348.643 1.41836 2.31506 0
M  V30 3628 C 347.099 3.51059 0.792835 0
M  V30 3629 C 346.707 4.46387 -0.379828 0
M  V30 3630 C 348.451 4.01026 1.39208 0
M  V30 3631 C 346.358 5.91397 0.0184223 0
M  V30 3632 H 345.288 0.736942 0.159475 0
M  V30 3633 H 347.939 1.80827 -0.31205 0
M  V30 3634 H 346.321 3.63162 1.57891 0
M  V30 3635 H 347.495 4.46029 -1.15737 0
M  V30 3636 H 345.81 4.06734 -0.891979 0
M  V30 3637 H 348.407 5.0686 1.70286 0
M  V30 3638 H 348.75 3.46587 2.30614 0
M  V30 3639 H 349.283 3.92125 0.669537 0
M  V30 3640 H 346.022 6.49807 -0.862002 0
M  V30 3641 H 345.542 5.94961 0.760384 0
M  V30 3642 H 347.221 6.45455 0.446818 0
M  V30 3643 N 347.353 -0.0568162 1.57498 0
M  V30 3644 C 348.63 -0.786954 1.79071 0
M  V30 3645 C 349.01 -1.95028 0.80792 0
M  V30 3646 O 348.358 -2.27968 -0.155858 0
M  V30 3647 C 348.568 -1.24594 3.26002 0
M  V30 3648 C 349.916 -1.67323 3.90241 0
M  V30 3649 O 350.94 -1.34124 3.29984 0
M  V30 3650 O 349.799 -2.28842 4.9628 0
M  V30 3651 H 346.893 -0.378262 0.735423 0
M  V30 3652 H 349.439 -0.035734 1.69662 0
M  V30 3653 H 348.211 -0.41423 3.89101 0
M  V30 3654 H 347.834 -2.05803 3.40192 0
M  V30 3655 N 348.832 -1.54138 -0.328536 0
M  V30 3656 C 350.081 -1.71318 -1.06456 0
M  V30 3657 C 350.394 -0.491109 -1.89334 0
M  V30 3658 O 351.6 -0.54416 -2.65991 0
M  V30 3659 C 350.056 -3.03 -1.94214 0
M  V30 3660 C 349.664 -4.32595 -1.16471 0
M  V30 3661 C 351.408 -3.29544 -2.67583 0
M  V30 3662 C 349.315 -5.55341 -2.03347 0
M  V30 3663 H 348.245 -0.638429 -0.401155 0
M  V30 3664 H 350.896 -1.80633 -0.323106 0
M  V30 3665 H 349.278 -2.87579 -2.72239 0
M  V30 3666 H 350.452 -4.58766 -0.432525 0
M  V30 3667 H 348.767 -4.12777 -0.548063 0
M  V30 3668 H 351.364 -4.18444 -3.3288 0
M  V30 3669 H 351.707 -2.47206 -3.34955 0
M  V30 3670 H 352.24 -3.45809 -1.96623 0
M  V30 3671 H 348.979 -6.40268 -1.40491 0
M  V30 3672 H 348.499 -5.33397 -2.74313 0
M  V30 3673 H 350.178 -5.91557 -2.62049 0
M  V30 3674 N 350.31 0.590341 -1.46126 0
M  V30 3675 C 351.242 1.71427 -1.52136 0
M  V30 3676 C 352.255 1.57542 -0.41042 0
M  V30 3677 O 353.444 1.65106 -0.678389 0
M  V30 3678 C 350.544 3.09605 -1.37834 0
M  V30 3679 C 349.717 3.49566 -2.62912 0
M  V30 3680 C 348.776 4.66773 -2.42918 0
M  V30 3681 O 347.802 4.73019 -3.1661 0
M  V30 3682 N 349.004 5.61161 -1.4859 0
M  V30 3683 H 351.769 1.66728 -2.49042 0
M  V30 3684 H 349.33 0.776113 -1.42085 0
M  V30 3685 H 351.322 3.85796 -1.22243 0
M  V30 3686 H 349.892 3.08714 -0.491393 0
M  V30 3687 H 349.112 2.63158 -2.93499 0
M  V30 3688 H 350.4 3.73028 -3.46017 0
M  V30 3689 H 349.798 5.58844 -0.87808 0
M  V30 3690 H 348.355 6.36814 -1.38965 0
M  V30 3691 N 351.788 1.33704 0.83433 0
M  V30 3692 C 352.718 1.26967 1.95963 0
M  V30 3693 C 353.699 0.149337 1.69443 0
M  V30 3694 O 354.884 0.339852 1.91203 0
M  V30 3695 C 352.014 1.01275 3.32206 0
M  V30 3696 C 350.968 2.09652 3.73136 0
M  V30 3697 C 350.294 1.69166 5.07235 0
M  V30 3698 C 351.594 3.51372 3.86439 0
M  V30 3699 H 353.288 2.2112 2.01857 0
M  V30 3700 H 350.834 1.06447 0.969793 0
M  V30 3701 H 352.787 0.952106 4.10503 0
M  V30 3702 H 351.511 0.0356203 3.26581 0
M  V30 3703 H 350.17 2.14766 2.97104 0
M  V30 3704 H 349.818 0.701437 4.98085 0
M  V30 3705 H 349.518 2.41694 5.35591 0
M  V30 3706 H 351.042 1.64576 5.88003 0
M  V30 3707 H 352.456 3.48734 4.55036 0
M  V30 3708 H 350.853 4.22425 4.26236 0
M  V30 3709 H 351.923 3.89546 2.88759 0
M  V30 3710 N 353.266 -1.05314 1.17247 0
M  V30 3711 C 354.682 -1.30452 0.919473 0
M  V30 3712 C 354.882 -1.9703 -0.42209 0
M  V30 3713 O 353.938 -2.24311 -1.15935 0
M  V30 3714 C 355.251 -2.17551 2.07586 0
M  V30 3715 C 356.799 -2.30937 2.11275 0
M  V30 3716 C 357.274 -3.21396 3.26296 0
M  V30 3717 N 358.765 -3.28981 3.26076 0
M  V30 3718 C 359.5 -3.99095 4.11716 0
M  V30 3719 N 358.996 -4.71648 5.07465 0
M  V30 3720 N 360.789 -3.95247 3.9967 0
M  V30 3721 H 352.94 -0.604988 2.03602 0
M  V30 3722 H 355.203 -0.329368 0.888944 0
M  V30 3723 H 354.909 -1.75921 3.0454 0
M  V30 3724 H 354.783 -3.18182 2.02584 0
M  V30 3725 H 357.17 -2.71809 1.14907 0
M  V30 3726 H 357.251 -1.2994 2.20339 0
M  V30 3727 H 356.895 -2.81238 4.22927 0
M  V30 3728 H 356.825 -4.22395 3.14467 0
M  V30 3729 H 359.316 -2.77286 2.5675 0
M  V30 3730 H 359.629 -5.22705 5.6921 0
M  V30 3731 H 357.974 -4.70594 5.11435 0
M  V30 3732 H 361.165 -3.37691 3.24164 0
M  V30 3733 H 361.338 -4.4962 4.66632 0
M  V30 3734 N 354.744 -0.972509 -1.24016 0
M  V30 3735 C 355.993 -0.632603 -1.91523 0
M  V30 3736 C 356.306 0.836641 -1.76804 0
M  V30 3737 O 357.512 1.28728 -2.39043 0
M  V30 3738 C 355.968 -1.08082 -3.43287 0
M  V30 3739 C 355.576 -2.57386 -3.66683 0
M  V30 3740 C 357.32 -0.814288 -4.16617 0
M  V30 3741 C 355.227 -2.95915 -5.12043 0
M  V30 3742 H 354.157 -0.232898 -0.717129 0
M  V30 3743 H 356.808 -1.17936 -1.40582 0
M  V30 3744 H 355.19 -0.462339 -3.93292 0
M  V30 3745 H 356.364 -3.24405 -3.27258 0
M  V30 3746 H 354.679 -2.81701 -3.06649 0
M  V30 3747 H 357.276 -1.0781 -5.23718 0
M  V30 3748 H 357.619 0.24955 -4.15551 0
M  V30 3749 H 358.152 -1.39397 -3.72577 0
M  V30 3750 H 354.891 -4.0139 -5.18234 0
M  V30 3751 H 354.411 -2.33584 -5.52448 0
M  V30 3752 H 356.09 -2.86086 -5.80314 0
M  V30 3753 N 356.222 1.38976 -0.743202 0
M  V30 3754 C 357.185 2.28901 -0.117014 0
M  V30 3755 C 358.185 1.46698 0.658503 0
M  V30 3756 O 359.375 1.67274 0.486305 0
M  V30 3757 C 356.507 3.30309 0.84315 0
M  V30 3758 H 357.7 2.8578 -0.909373 0
M  V30 3759 H 355.253 1.47761 -0.509547 0
M  V30 3760 H 355.988 2.785 1.66157 0
M  V30 3761 H 355.773 3.91029 0.289594 0
M  V30 3762 H 357.263 3.97577 1.2776 0
M  V30 3763 N 357.7 0.491464 1.49741 0
M  V30 3764 C 358.925 -0.0557177 2.07325 0
M  V30 3765 C 359.35 -1.30925 1.35056 0
M  V30 3766 O 358.708 -1.76733 0.404365 0
M  V30 3767 C 358.756 -0.302074 3.59333 0
M  V30 3768 O 357.86 -1.37868 3.88672 0
M  V30 3769 H 357.201 0.0219956 0.663636 0
M  V30 3770 H 359.731 0.688352 1.92673 0
M  V30 3771 H 359.741 -0.536464 4.04458 0
M  V30 3772 H 358.416 0.61383 4.11345 0
M  V30 3773 H 356.993 -1.12999 3.55367 0
M  V30 3774 N 359.178 -1.55987 0.224894 0
M  V30 3775 C 360.425 -1.9839 -0.4059 0
M  V30 3776 C 360.753 -1.11261 -1.59535 0
M  V30 3777 O 360.008 -0.158314 -1.95059 0
M  V30 3778 C 360.307 -3.46394 -0.880106 0
M  V30 3779 C 359.973 -4.5046 0.19918 0
M  V30 3780 C 358.635 -4.7864 0.495661 0
M  V30 3781 C 360.987 -5.12855 0.928939 0
M  V30 3782 C 358.315 -5.66497 1.52636 0
M  V30 3783 C 360.667 -6.01828 1.949 0
M  V30 3784 C 359.331 -6.28351 2.25236 0
M  V30 3785 H 358.601 -0.725961 -0.148529 0
M  V30 3786 H 361.248 -1.88668 0.328113 0
M  V30 3787 H 359.553 -3.53337 -1.69294 0
M  V30 3788 H 361.25 -3.76577 -1.37808 0
M  V30 3789 H 357.84 -4.28579 -0.0420526 0
M  V30 3790 H 362.024 -4.9115 0.713129 0
M  V30 3791 H 357.28 -5.8531 1.76698 0
M  V30 3792 H 361.454 -6.49225 2.51951 0
M  V30 3793 H 359.081 -6.96226 3.05244 0
M  V30 3794 N 360.656 0.0484629 -1.57525 0
M  V30 3795 C 361.881 0.759177 -1.93006 0
M  V30 3796 C 362.306 1.69125 -0.823317 0
M  V30 3797 O 361.664 1.79931 0.222364 0
M  V30 3798 C 361.712 1.50899 -3.27509 0
M  V30 3799 O 360.816 2.62112 -3.18388 0
M  V30 3800 H 360.157 0.205564 -0.631379 0
M  V30 3801 H 362.687 0.00972959 -2.04598 0
M  V30 3802 H 362.697 1.88317 -3.6194 0
M  V30 3803 H 361.372 0.825269 -4.0763 0
M  V30 3804 H 359.949 2.27379 -2.95556 0
M  V30 3805 N 362.134 1.5431 0.320358 0
M  V30 3806 C 363.066 1.80262 1.41556 0
M  V30 3807 C 364.079 0.684723 1.477 0
M  V30 3808 O 365.268 0.961886 1.50366 0
M  V30 3809 C 362.368 1.90825 2.8007 0
M  V30 3810 C 361.541 3.21023 2.97091 0
M  V30 3811 C 360.6 3.22247 4.15985 0
M  V30 3812 O 359.626 3.95871 4.08992 0
M  V30 3813 N 360.828 2.46258 5.25678 0
M  V30 3814 H 363.593 2.74778 1.19655 0
M  V30 3815 H 361.154 1.53646 0.510358 0
M  V30 3816 H 363.146 1.89067 3.57821 0
M  V30 3817 H 361.716 1.03392 2.95006 0
M  V30 3818 H 360.936 3.35715 2.06614 0
M  V30 3819 H 362.224 4.0698 3.05361 0
M  V30 3820 H 361.622 1.86037 5.34235 0
M  V30 3821 H 360.179 2.50275 6.01835 0
M  V30 3822 N 363.613 -0.582584 1.46437 0
M  V30 3823 C 364.561 -1.71272 1.5738 0
M  V30 3824 C 365.555 -1.63524 0.44229 0
M  V30 3825 O 366.761 -1.69016 0.619166 0
M  V30 3826 H 363.136 -0.566273 0.494813 0
M  V30 3827 H 365.107 -1.59174 2.52401 0
M  V30 3828 C 363.856 -3.09658 1.58136 0
M  V30 3829 H 363.179 -3.16291 2.44541 0
M  V30 3830 H 364.619 -3.88494 1.69847 0
M  V30 3831 C 363.078 -3.3547 0.310026 0
M  V30 3832 O 363.608 -3.97199 -0.599683 0
M  V30 3833 N 361.814 -2.89925 0.197901 0
M  V30 3834 H 361.361 -2.39873 0.93909 0
M  V30 3835 H 361.319 -3.07568 -0.65185 0
M  V30 3836 N 365.091 -1.34144 -0.827227 0
M  V30 3837 C 366.331 -1.27603 -1.59677 0
M  V30 3838 C 366.695 0.153035 -1.91389 0
M  V30 3839 O 367.896 0.342566 -2.66608 0
M  V30 3840 C 366.167 -2.13784 -2.86411 0
M  V30 3841 S 367.726 -2.24552 -3.76991 0
M  V30 3842 H 364.544 -0.453789 -0.547354 0
M  V30 3843 H 367.146 -1.69309 -0.977479 0
M  V30 3844 H 365.85 -3.16627 -2.61104 0
M  V30 3845 H 365.381 -1.72959 -3.5334 0
M  V30 3846 H 367.396 -1.41514 -4.75593 0
M  V30 3847 N 366.569 1.04691 -1.17803 0
M  V30 3848 C 367.846 1.7472 -0.879328 0
M  V30 3849 C 368.226 2.01812 0.619271 0
M  V30 3850 O 367.574 1.65824 1.57209 0
M  V30 3851 C 367.784 3.03686 -1.71976 0
M  V30 3852 C 369.132 3.77542 -1.94286 0
M  V30 3853 O 370.156 3.13569 -1.68976 0
M  V30 3854 O 369.015 4.92506 -2.36855 0
M  V30 3855 H 366.109 0.760011 -0.326056 0
M  V30 3856 H 368.655 1.10813 -1.28525 0
M  V30 3857 H 367.427 2.79754 -2.73594 0
M  V30 3858 H 367.05 3.75332 -1.31194 0
M  V30 3859 N 368.047 0.979072 1.23499 0
M  V30 3860 C 369.296 0.642751 1.91185 0
M  V30 3861 C 369.609 -0.827253 1.77245 0
M  V30 3862 O 370.815 -1.27458 2.39722 0
M  V30 3863 C 369.271 1.09901 3.42709 0
M  V30 3864 C 368.879 2.59327 3.65313 0
M  V30 3865 C 370.623 0.836371 4.16179 0
M  V30 3866 C 368.53 2.98627 5.10467 0
M  V30 3867 H 367.46 0.236698 0.715884 0
M  V30 3868 H 370.111 1.1868 1.39955 0
M  V30 3869 H 368.493 0.48319 3.93041 0
M  V30 3870 H 369.667 3.26136 3.25533 0
M  V30 3871 H 367.982 2.83323 3.05151 0
M  V30 3872 H 370.579 1.10586 5.23139 0
M  V30 3873 H 370.922 -0.227509 4.15678 0
M  V30 3874 H 371.455 1.41371 3.71832 0
M  V30 3875 H 368.194 4.04133 5.16098 0
M  V30 3876 H 367.714 2.3651 5.51201 0
M  V30 3877 H 369.393 2.89159 5.78788 0
M  V30 3878 N 369.525 -1.3858 0.750561 0
M  V30 3879 C 370.755 -2.04175 0.31564 0
M  V30 3880 C 371.163 -1.56726 -1.05989 0
M  V30 3881 O 370.506 -0.734225 -1.68389 0
M  V30 3882 C 370.568 -3.58585 0.256389 0
M  V30 3883 C 370.232 -4.29077 1.57296 0
M  V30 3884 C 371.229 -4.54656 2.52159 0
M  V30 3885 C 368.914 -4.67324 1.84156 0
M  V30 3886 C 370.908 -5.17512 3.72103 0
M  V30 3887 C 368.595 -5.29905 3.04374 0
M  V30 3888 C 369.593 -5.54933 3.98168 0
M  V30 3889 O 369.281 -6.16212 5.16273 0
M  V30 3890 H 369.013 -0.662742 0.133226 0
M  V30 3891 H 371.567 -1.78313 1.01948 0
M  V30 3892 H 369.797 -3.83406 -0.503677 0
M  V30 3893 H 371.486 -4.05628 -0.148612 0
M  V30 3894 H 372.252 -4.25539 2.32683 0
M  V30 3895 H 368.131 -4.47191 1.11988 0
M  V30 3896 H 371.675 -5.36963 4.45327 0
M  V30 3897 H 367.572 -5.58444 3.23745 0
M  V30 3898 H 368.34 -6.34701 5.16815 0
M  V30 3899 N 371.003 -0.499398 -1.49478 0
M  V30 3900 C 372.414 -0.051215 -1.8663 0
M  V30 3901 C 372.765 1.36238 -1.41186 0
M  V30 3902 O 371.89 2.01502 -0.789051 0
M  V30 3903 C 372.485 -0.0861651 -3.3869 0
M  V30 3904 C 371.044 0.30667 -3.75149 0
M  V30 3905 C 370.191 -0.459397 -2.73468 0
M  V30 3906 H 373.142 -0.712264 -1.41818 0
M  V30 3907 H 373.163 0.709507 -3.73826 0
M  V30 3908 H 372.675 -1.11512 -3.71735 0
M  V30 3909 H 370.776 1.33892 -3.47712 0
M  V30 3910 H 370.889 -0.0116669 -4.79099 0
M  V30 3911 H 369.253 0.0905645 -2.54539 0
M  V30 3912 H 370.036 -1.4884 -3.09357 0
M  V30 3913 N 372.481 1.55866 -0.233164 0
M  V30 3914 C 373.729 1.9821 0.394593 0
M  V30 3915 C 374.05 1.12234 1.59463 0
M  V30 3916 O 373.32 0.201981 1.94856 0
M  V30 3917 H 371.9 0.732034 0.148778 0
M  V30 3918 H 374.562 1.92107 -0.32876 0
M  V30 3919 H 373.658 3.03845 0.713063 0
M  V30 3920 N 373.959 -0.0401083 1.57549 0
M  V30 3921 C 374.906 -1.04413 2.05831 0
M  V30 3922 C 375.876 -1.36585 0.945184 0
M  V30 3923 O 377.061 -1.47112 1.21502 0
M  V30 3924 C 374.201 -2.34336 2.53339 0
M  V30 3925 C 373.314 -2.08419 3.78398 0
M  V30 3926 C 372.449 -3.32133 4.14561 0
M  V30 3927 C 371.488 -3.01721 5.3257 0
M  V30 3928 N 370.625 -4.17855 5.64218 0
M  V30 3929 H 375.465 -0.625442 2.91363 0
M  V30 3930 H 373.002 -0.297218 1.44066 0
M  V30 3931 H 374.96 -3.10234 2.78946 0
M  V30 3932 H 373.59 -2.73948 1.7074 0
M  V30 3933 H 372.642 -1.23069 3.59942 0
M  V30 3934 H 373.954 -1.81978 4.64419 0
M  V30 3935 H 373.108 -4.16406 4.41238 0
M  V30 3936 H 371.847 -3.61678 3.2717 0
M  V30 3937 H 370.852 -2.15849 5.05657 0
M  V30 3938 H 372.077 -2.73466 6.21605 0
M  V30 3939 H 370.023 -4.47372 4.79786 0
M  V30 3940 H 369.94 -3.94798 6.44725 0
M  V30 3941 H 371.208 -5.03033 5.95465 0
M  V30 3942 N 375.437 -1.54477 -0.31217 0
M  V30 3943 C 376.714 -1.63891 -1.06767 0
M  V30 3944 C 377.094 -0.480028 -2.0557 0
M  V30 3945 O 376.442 0.524487 -2.22399 0
M  V30 3946 C 376.652 -3.01402 -1.75948 0
M  V30 3947 C 378 -3.57838 -2.28554 0
M  V30 3948 O 379.024 -3.03782 -1.85998 0
M  V30 3949 O 377.883 -4.52462 -3.06497 0
M  V30 3950 H 374.977 -0.664125 -0.492816 0
M  V30 3951 H 377.523 -1.66823 -0.311149 0
M  V30 3952 H 376.295 -3.77187 -1.04144 0
M  V30 3953 H 375.918 -3.02199 -2.58383 0
M  V30 3954 N 376.915 0.57481 -1.46744 0
M  V30 3955 C 378.162 1.33272 -1.52462 0
M  V30 3956 C 378.49 1.93669 -0.179572 0
M  V30 3957 O 377.745 1.7743 0.825664 0
M  V30 3958 C 378.044 2.476 -2.57738 0
M  V30 3959 C 377.71 2.05146 -4.01529 0
M  V30 3960 C 376.372 1.93284 -4.40676 0
M  V30 3961 C 378.724 1.72506 -4.91824 0
M  V30 3962 C 376.052 1.47049 -5.67973 0
M  V30 3963 C 378.404 1.27748 -6.19567 0
M  V30 3964 C 377.068 1.14468 -6.57612 0
M  V30 3965 H 376.338 0.487678 -0.557899 0
M  V30 3966 H 378.985 0.646456 -1.80259 0
M  V30 3967 H 377.29 3.21708 -2.23632 0
M  V30 3968 H 378.987 3.05807 -2.5939 0
M  V30 3969 H 375.577 2.15316 -3.7059 0
M  V30 3970 H 379.761 1.80552 -4.62293 0
M  V30 3971 H 375.017 1.35417 -5.96215 0
M  V30 3972 H 379.191 1.01547 -6.88957 0
M  V30 3973 H 376.818 0.78419 -7.56145 0
M  V30 3974 N 378.394 1.34581 0.820102 0
M  V30 3975 C 379.64 1.27285 1.57881 0
M  V30 3976 C 379.973 -0.156137 1.93571 0
M  V30 3977 O 379.248 -1.10222 1.60254 0
M  V30 3978 C 379.531 2.16639 2.87645 0
M  V30 3979 C 379.384 3.68088 2.58517 0
M  V30 3980 C 380.703 2.05378 3.8924 0
M  V30 3981 H 377.822 0.463714 0.572833 0
M  V30 3982 H 380.464 1.64859 0.944539 0
M  V30 3983 H 378.614 1.84725 3.41773 0
M  V30 3984 H 380.286 4.10382 2.10676 0
M  V30 3985 H 378.529 3.89038 1.91917 0
M  V30 3986 H 379.2 4.2598 3.51063 0
M  V30 3987 H 381.676 2.33404 3.44473 0
M  V30 3988 H 380.552 2.7012 4.77835 0
M  V30 3989 H 380.813 1.0316 4.29896 0
M  V30 3990 N 379.872 -1.04064 1.18357 0
M  V30 3991 C 380.804 -2.12114 0.868358 0
M  V30 3992 C 381.817 -1.62247 -0.134045 0
M  V30 3993 O 383.006 -1.78253 0.0937933 0
M  V30 3994 C 380.106 -3.37773 0.276132 0
M  V30 3995 C 379.279 -4.16874 1.3242 0
M  V30 3996 C 378.338 -5.20861 0.747662 0
M  V30 3997 O 377.364 -5.51141 1.42239 0
M  V30 3998 N 378.566 -5.78715 -0.454823 0
M  V30 3999 H 381.331 -2.39748 1.79836 0
M  V30 4000 H 378.892 -1.20258 1.08396 0
M  V30 4001 H 380.884 -4.04513 -0.123133 0
M  V30 4002 H 379.454 -3.07581 -0.557895 0
M  V30 4003 H 378.674 -3.45456 1.89878 0
M  V30 4004 H 379.962 -4.66516 2.03078 0
M  V30 4005 H 379.36 -5.56415 -1.02073 0
M  V30 4006 H 377.917 -6.46921 -0.79601 0
M  V30 4007 N 381.35 -0.985608 -1.22978 0
M  V30 4008 C 382.761 -0.693593 -1.73338 0
M  V30 4009 C 383.112 0.789935 -1.79595 0
M  V30 4010 O 382.237 1.61771 -1.43733 0
M  V30 4011 C 382.832 -1.25235 -3.14804 0
M  V30 4012 C 381.391 -1.00987 -3.626 0
M  V30 4013 C 380.538 -1.37695 -2.40698 0
M  V30 4014 H 383.489 -1.15884 -1.08428 0
M  V30 4015 H 383.51 -0.627329 -3.75293 0
M  V30 4016 H 383.022 -2.33209 -3.10218 0
M  V30 4017 H 381.123 0.0535565 -3.72562 0
M  V30 4018 H 381.236 -1.66812 -4.49122 0
M  V30 4019 H 379.6 -0.795459 -2.4196 0
M  V30 4020 H 380.383 -2.46657 -2.38779 0
M  V30 4021 N 382.828 1.3818 -0.7579 0
M  V30 4022 C 384.239 1.82726 -0.383134 0
M  V30 4023 C 384.59 1.63214 1.08884 0
M  V30 4024 O 383.715 1.13566 1.84205 0
M  V30 4025 C 384.31 3.31728 -0.688631 0
M  V30 4026 C 382.869 3.74606 -0.367091 0
M  V30 4027 C 382.016 2.60896 -0.939599 0
M  V30 4028 H 384.967 1.26847 -0.953699 0
M  V30 4029 H 384.988 3.80487 0.0316492 0
M  V30 4030 H 384.5 3.45898 -1.76001 0
M  V30 4031 H 382.601 3.66013 0.697532 0
M  V30 4032 H 382.714 4.71215 -0.865658 0
M  V30 4033 H 381.078 2.52075 -0.3647 0
M  V30 4034 H 381.861 2.77864 -2.0161 0
M  V30 4035 N 384.306 0.507319 1.49211 0
M  V30 4036 C 385.534 -0.0315749 2.06876 0
M  V30 4037 C 385.949 -1.30241 1.36685 0
M  V30 4038 O 385.306 -1.76937 0.447152 0
M  V30 4039 C 385.357 -0.282627 3.60393 0
M  V30 4040 O 385.078 0.937835 4.27944 0
M  V30 4041 C 386.579 -0.864453 4.3479 0
M  V30 4042 H 383.799 0.0233048 0.670595 0
M  V30 4043 H 386.343 0.706484 1.91909 0
M  V30 4044 H 384.498 -0.97068 3.75042 0
M  V30 4045 H 384.912 0.704567 5.19746 0
M  V30 4046 H 386.386 -0.989664 5.43056 0
M  V30 4047 H 386.863 -1.86382 3.97692 0
M  V30 4048 H 387.469 -0.213672 4.24763 0
M  V30 4049 N 385.784 -1.5574 0.241426 0
M  V30 4050 C 386.731 -2.21149 -0.660432 0
M  V30 4051 C 387.701 -1.17356 -1.17545 0
M  V30 4052 O 388.886 -1.45784 -1.23093 0
M  V30 4053 C 386.026 -2.91059 -1.85414 0
M  V30 4054 C 385.139 -4.09495 -1.37616 0
M  V30 4055 C 384.274 -4.67135 -2.529 0
M  V30 4056 C 383.313 -5.77831 -2.01936 0
M  V30 4057 N 382.45 -6.29677 -3.10566 0
M  V30 4058 H 387.29 -2.97845 -0.095955 0
M  V30 4059 H 384.827 -1.47057 -0.0356024 0
M  V30 4060 H 386.785 -3.29788 -2.5553 0
M  V30 4061 H 385.415 -2.16846 -2.39118 0
M  V30 4062 H 384.467 -3.76117 -0.569235 0
M  V30 4063 H 385.779 -4.89423 -0.962618 0
M  V30 4064 H 384.933 -5.08409 -3.31067 0
M  V30 4065 H 383.672 -3.86411 -2.97553 0
M  V30 4066 H 382.677 -5.36039 -1.22238 0
M  V30 4067 H 383.902 -6.60402 -1.58259 0
M  V30 4068 H 381.848 -5.5186 -3.54664 0
M  V30 4069 H 381.765 -7.04783 -2.73526 0
M  V30 4070 H 383.033 -6.75609 -3.88809 0
M  V30 4071 N 387.262 0.0317525 -1.57568 0
M  V30 4072 C 388.511 0.722131 -1.8833 0
M  V30 4073 C 388.824 1.76664 -0.839587 0
M  V30 4074 O 390.03 2.50942 -1.03635 0
M  V30 4075 C 388.486 1.33544 -3.34207 0
M  V30 4076 C 388.094 0.327415 -4.46802 0
M  V30 4077 C 389.838 2.00585 -3.7412 0
M  V30 4078 C 387.745 0.948915 -5.83738 0
M  V30 4079 H 386.675 0.273466 -0.702661 0
M  V30 4080 H 389.326 -0.0235811 -1.83485 0
M  V30 4081 H 387.708 2.13077 -3.33788 0
M  V30 4082 H 388.882 -0.441006 -4.58685 0
M  V30 4083 H 387.197 -0.240758 -4.15703 0
M  V30 4084 H 389.794 2.47932 -4.73744 0
M  V30 4085 H 390.137 2.82285 -3.05975 0
M  V30 4086 H 390.67 1.27831 -3.76702 0
M  V30 4087 H 387.409 0.171387 -6.55276 0
M  V30 4088 H 386.929 1.68724 -5.7558 0
M  V30 4089 H 388.608 1.45705 -6.3038 0
M  V30 4090 N 388.74 1.54641 0.303973 0
M  V30 4091 C 389.98 1.75516 1.04755 0
M  V30 4092 C 390.344 0.528211 1.84591 0
M  V30 4093 O 391.545 0.614645 2.61678 0
M  V30 4094 C 389.816 3.00685 1.93193 0
M  V30 4095 S 391.375 3.42549 2.74237 0
M  V30 4096 H 388.193 0.616987 0.353339 0
M  V30 4097 H 390.795 1.92842 0.321292 0
M  V30 4098 H 389.499 3.8811 1.33411 0
M  V30 4099 H 389.03 2.85937 2.70191 0
M  V30 4100 H 391.045 2.99386 3.95705 0
M  V30 4101 N 390.218 -0.567019 1.47046 0
M  V30 4102 C 391.464 -1.32658 1.53394 0
M  V30 4103 C 391.797 -1.93254 0.19148 0
M  V30 4104 O 391.072 -1.77338 -0.798844 0
M  V30 4105 C 391.355 -2.44412 2.64452 0
M  V30 4106 C 391.208 -1.88749 4.08282 0
M  V30 4107 C 392.527 -3.46387 2.71485 0
M  V30 4108 H 389.646 -0.48098 0.558415 0
M  V30 4109 H 392.288 -0.635481 1.79058 0
M  V30 4110 H 390.438 -3.03363 2.427 0
M  V30 4111 H 392.11 -1.34134 4.41368 0
M  V30 4112 H 390.353 -1.19481 4.17021 0
M  V30 4113 H 391.024 -2.69491 4.81745 0
M  V30 4114 H 393.5 -2.9734 2.91081 0
M  V30 4115 H 392.376 -4.2202 3.50985 0
M  V30 4116 H 392.637 -4.04616 1.78153 0
M  V30 4117 N 391.696 -1.35014 -0.812953 0
M  V30 4118 C 392.944 -1.27678 -1.56661 0
M  V30 4119 C 393.265 0.150359 -1.94419 0
M  V30 4120 O 392.535 1.08532 -1.63088 0
M  V30 4121 H 391.115 -0.469602 -0.580933 0
M  V30 4122 H 393.777 -1.69043 -0.970076 0
M  V30 4123 H 392.873 -1.88833 -2.48492 0
M  V30 4124 N 393.175 1.03435 -1.18907 0
M  V30 4125 C 394.415 1.78302 -0.999391 0
M  V30 4126 C 394.779 1.86353 0.462219 0
M  V30 4127 O 395.98 2.57489 0.771543 0
M  V30 4128 C 394.251 3.17362 -1.64365 0
M  V30 4129 S 395.81 4.08488 -1.6026 0
M  V30 4130 H 392.628 0.613861 -0.358742 0
M  V30 4131 H 395.23 1.23979 -1.51161 0
M  V30 4132 H 393.934 3.09116 -2.69955 0
M  V30 4133 H 393.465 3.76762 -1.13199 0
M  V30 4134 H 395.48 4.92274 -0.622932 0
M  V30 4135 N 394.653 0.992116 1.22453 0
M  V30 4136 C 396.064 0.702776 1.72968 0
M  V30 4137 C 396.415 -0.780399 1.80012 0
M  V30 4138 O 395.54 -1.61007 1.44589 0
M  V30 4139 C 396.135 1.26903 3.14135 0
M  V30 4140 C 394.694 1.02909 3.62059 0
M  V30 4141 C 393.841 1.38969 2.39964 0
M  V30 4142 H 396.792 1.16457 1.07812 0
M  V30 4143 H 396.813 0.647223 3.74955 0
M  V30 4144 H 396.325 2.34851 3.08977 0
M  V30 4145 H 394.426 -0.0337979 3.72585 0
M  V30 4146 H 394.539 1.69191 4.48231 0
M  V30 4147 H 392.903 0.808279 2.41535 0
M  V30 4148 H 393.686 2.4792 2.37467 0
M  V30 4149 N 396.131 -1.37776 0.765217 0
M  V30 4150 C 397.547 -1.53297 0.444108 0
M  V30 4151 C 397.747 -1.72515 -1.04119 0
M  V30 4152 O 396.803 -1.74278 -1.82711 0
M  V30 4153 C 398.116 -2.73328 1.25349 0
M  V30 4154 C 399.664 -2.87185 1.24473 0
M  V30 4155 C 400.139 -4.10191 2.03733 0
M  V30 4156 N 401.63 -4.17291 2.01053 0
M  V30 4157 C 402.365 -5.11488 2.59166 0
M  V30 4158 N 401.861 -6.11285 3.26041 0
M  V30 4159 N 403.654 -5.03924 2.49032 0
M  V30 4160 H 395.805 -1.23552 1.72768 0
M  V30 4161 H 398.068 -0.601103 0.733062 0
M  V30 4162 H 397.774 -2.6557 2.30577 0
M  V30 4163 H 397.648 -3.66834 0.87823 0
M  V30 4164 H 400.035 -2.94418 0.20047 0
M  V30 4165 H 400.116 -1.94657 1.65959 0
M  V30 4166 H 399.76 -4.0372 3.08176 0
M  V30 4167 H 399.69 -5.01821 1.59633 0
M  V30 4168 H 402.181 -3.45825 1.5236 0
M  V30 4169 H 402.494 -6.79678 3.67774 0
M  V30 4170 H 400.839 -6.11583 3.30138 0
M  V30 4171 H 404.03 -4.24902 1.96407 0
M  V30 4172 H 404.203 -5.77152 2.94617 0
M  V30 4173 N 397.609 -0.515225 -1.4894 0
M  V30 4174 C 398.886 0.0879088 -1.95402 0
M  V30 4175 C 399.266 1.52745 -1.45712 0
M  V30 4176 O 398.614 2.18238 -0.677093 0
M  V30 4177 C 398.824 -0.0141055 -3.48997 0
M  V30 4178 C 400.172 0.152646 -4.24326 0
M  V30 4179 O 401.196 0.0604025 -3.56149 0
M  V30 4180 O 400.055 0.34384 -5.45417 0
M  V30 4181 H 397.149 0.0874636 -0.822362 0
M  V30 4182 H 399.695 -0.578775 -1.59525 0
M  V30 4183 H 398.467 -1.01745 -3.77841 0
M  V30 4184 H 398.09 0.692091 -3.9153 0
M  V30 4185 N 399.087 1.5561 -0.249682 0
M  V30 4186 C 400.336 1.98187 0.37479 0
M  V30 4187 C 400.649 1.14111 1.58865 0
M  V30 4188 O 401.855 1.46714 2.28445 0
M  V30 4189 C 400.311 3.52661 0.718192 0
M  V30 4190 C 399.919 4.45481 -0.474428 0
M  V30 4191 C 401.663 4.03888 1.3067 0
M  V30 4192 C 399.57 5.91303 -0.107026 0
M  V30 4193 H 398.5 0.740159 0.143808 0
M  V30 4194 H 401.151 1.80125 -0.350336 0
M  V30 4195 H 399.533 3.66429 1.50152 0
M  V30 4196 H 400.707 4.43473 -1.25172 0
M  V30 4197 H 399.022 4.04751 -0.978052 0
M  V30 4198 H 401.619 5.10358 1.59496 0
M  V30 4199 H 401.962 3.51401 2.23211 0
M  V30 4200 H 402.495 3.93457 0.586211 0
M  V30 4201 H 399.234 6.47833 -0.999642 0
M  V30 4202 H 398.754 5.9644 0.634013 0
M  V30 4203 H 400.433 6.46258 0.309807 0
M  V30 4204 N 400.565 -0.0233959 1.57583 0
M  V30 4205 C 401.976 -0.56927 1.77809 0
M  V30 4206 C 402.327 -1.75284 0.881472 0
M  V30 4207 O 401.452 -2.1626 0.0777805 0
M  V30 4208 C 402.047 -1.03949 3.22459 0
M  V30 4209 C 400.606 -1.53084 3.43864 0
M  V30 4210 C 399.753 -0.471454 2.73263 0
M  V30 4211 H 402.704 0.202825 1.57399 0
M  V30 4212 H 402.725 -1.90661 3.29285 0
M  V30 4213 H 402.237 -0.177865 3.87692 0
M  V30 4214 H 400.338 -2.41414 2.83814 0
M  V30 4215 H 400.451 -1.57443 4.52491 0
M  V30 4216 H 398.815 -0.927788 2.37201 0
M  V30 4217 H 399.598 0.380808 3.41181 0
M  V30 4218 N 402.043 -1.548 -0.295768 0
M  V30 4219 C 403.271 -1.78327 -1.04914 0
M  V30 4220 C 403.686 -0.545316 -1.80753 0
M  V30 4221 O 403.043 0.485013 -1.75937 0
M  V30 4222 C 403.094 -2.99418 -2.02561 0
M  V30 4223 O 402.815 -4.18431 -1.29798 0
M  V30 4224 C 404.316 -3.35375 -2.89895 0
M  V30 4225 H 401.536 -0.594618 -0.310918 0
M  V30 4226 H 404.08 -2.01763 -0.333454 0
M  V30 4227 H 402.235 -2.78175 -2.69624 0
M  V30 4228 H 402.649 -4.86736 -1.95419 0
M  V30 4229 H 404.123 -4.23332 -3.54251 0
M  V30 4230 H 404.6 -2.53761 -3.58472 0
M  V30 4231 H 405.206 -3.58796 -2.28355 0
M  V30 4232 N 403.521 0.559213 -1.47345 0
M  V30 4233 C 404.469 1.68747 -1.60085 0
M  V30 4234 C 405.463 1.628 -0.46825 0
M  V30 4235 O 406.669 1.68009 -0.645977 0
M  V30 4236 H 403.044 0.558329 -0.503759 0
M  V30 4237 H 405.015 1.55138 -2.54902 0
M  V30 4238 C 403.764 3.07103 -1.63042 0
M  V30 4239 H 403.087 3.12361 -2.49541 0
M  V30 4240 H 404.527 3.85743 -1.76006 0
M  V30 4241 C 402.986 3.34935 -0.363357 0
M  V30 4242 O 403.516 3.98102 0.536416 0
M  V30 4243 N 401.722 2.89574 -0.244 0
M  V30 4244 H 401.269 2.38348 -0.977133 0
M  V30 4245 H 401.227 3.08566 0.602836 0
M  V30 4246 N 404.999 1.35443 0.805782 0
M  V30 4247 C 406.224 1.32037 1.59941 0
M  V30 4248 C 406.649 -0.0994215 1.87837 0
M  V30 4249 O 406.007 -1.06648 1.46615 0
M  V30 4250 C 406.055 2.13354 2.90711 0
M  V30 4251 O 405.159 1.5148 3.83572 0
M  V30 4252 H 404.5 0.452666 0.485787 0
M  V30 4253 H 407.03 1.78496 1.00002 0
M  V30 4254 H 407.04 2.25338 3.40128 0
M  V30 4255 H 405.715 3.16572 2.69732 0
M  V30 4256 H 404.292 1.4834 3.42125 0
M  V30 4257 N 406.477 -1.02803 1.19454 0
M  V30 4258 C 407.888 -1.57667 0.999899 0
M  V30 4259 C 408.239 -1.91041 -0.446956 0
M  V30 4260 O 407.364 -1.70978 -1.32648 0
M  V30 4261 C 407.959 -2.86477 1.80877 0
M  V30 4262 C 406.518 -3.37911 1.65811 0
M  V30 4263 C 405.665 -2.11343 1.79526 0
M  V30 4264 H 408.616 -0.853214 1.33813 0
M  V30 4265 H 408.637 -3.57408 1.30536 0
M  V30 4266 H 408.149 -2.62155 2.86175 0
M  V30 4267 H 406.25 -3.67218 0.63102 0
M  V30 4268 H 406.363 -4.10885 2.46395 0
M  V30 4269 H 404.727 -2.23254 1.22596 0
M  V30 4270 H 405.51 -1.89461 2.86285 0
M  V30 4271 N 407.956 -0.998596 -1.21925 0
M  V30 4272 C 408.866 -0.562736 -2.27751 0
M  V30 4273 C 409.882 0.391203 -1.69545 0
M  V30 4274 O 411.058 0.256625 -1.99758 0
M  V30 4275 C 408.123 0.11012 -3.46525 0
M  V30 4276 C 407.184 -0.887495 -4.20026 0
M  V30 4277 C 406.417 -0.246654 -5.3313 0
M  V30 4278 O 406.64 0.958088 -5.62296 0
M  V30 4279 O 405.574 -0.954374 -5.94286 0
M  V30 4280 H 409.4 -1.44329 -2.67213 0
M  V30 4281 H 406.985 -0.767135 -1.28201 0
M  V30 4282 H 408.867 0.486756 -4.18579 0
M  V30 4283 H 407.542 0.965154 -3.08976 0
M  V30 4284 H 406.449 -1.31517 -3.5022 0
M  V30 4285 H 407.782 -1.71191 -4.6147 0
M  V30 4286 N 409.434 1.37368 -0.772513 0
M  V30 4287 C 410.364 2.32856 -0.173304 0
M  V30 4288 C 411.345 1.55818 0.682262 0
M  V30 4289 O 412.53 1.84052 0.619566 0
M  V30 4290 C 409.66 3.40048 0.706007 0
M  V30 4291 C 408.614 4.27973 -0.0483144 0
M  V30 4292 C 407.94 5.26184 0.950491 0
M  V30 4293 C 409.24 5.07665 -1.22776 0
M  V30 4294 H 410.934 2.83217 -0.971002 0
M  V30 4295 H 408.48 1.3617 -0.468377 0
M  V30 4296 H 410.433 4.05827 1.13501 0
M  V30 4297 H 409.157 2.88214 1.53623 0
M  V30 4298 H 407.816 3.63726 -0.458107 0
M  V30 4299 H 407.464 4.7063 1.77529 0
M  V30 4300 H 407.164 5.85872 0.450314 0
M  V30 4301 H 408.688 5.94838 1.37842 0
M  V30 4302 H 410.102 5.66578 -0.875366 0
M  V30 4303 H 408.499 5.76681 -1.66007 0
M  V30 4304 H 409.569 4.40294 -2.03149 0
M  V30 4305 N 410.912 0.523116 1.48665 0
M  V30 4306 C 411.822 -0.247406 2.33292 0
M  V30 4307 C 412.838 -0.945769 1.46052 0
M  V30 4308 O 414.014 -0.922253 1.79043 0
M  V30 4309 C 411.079 -1.28487 3.22012 0
M  V30 4310 C 410.14 -0.597592 4.2512 0
M  V30 4311 C 409.373 -1.58563 5.09601 0
M  V30 4312 O 409.596 -2.81763 4.95949 0
M  V30 4313 O 408.53 -1.12879 5.91221 0
M  V30 4314 H 412.356 0.445869 3.00409 0
M  V30 4315 H 409.941 0.284128 1.46673 0
M  V30 4316 H 411.823 -1.88459 3.7691 0
M  V30 4317 H 410.498 -1.96068 2.57564 0
M  V30 4318 H 409.405 0.0424407 3.74076 0
M  V30 4319 H 410.738 0.0361517 4.92187 0
M  V30 4320 N 412.39 -1.55475 0.257931 0
M  V30 4321 C 413.3 -2.2549 -0.647425 0
M  V30 4322 C 414.316 -1.2748 -1.18427 0
M  V30 4323 O 415.492 -1.6038 -1.2182 0
M  V30 4324 C 412.557 -2.94916 -1.82278 0
M  V30 4325 C 411.618 -4.08363 -1.32432 0
M  V30 4326 C 410.851 -4.74469 -2.44366 0
M  V30 4327 O 411.074 -4.39701 -3.63344 0
M  V30 4328 O 410.008 -5.62763 -2.13497 0
M  V30 4329 H 413.834 -3.03593 -0.0807707 0
M  V30 4330 H 411.419 -1.49377 0.0259962 0
M  V30 4331 H 413.301 -3.38606 -2.50846 0
M  V30 4332 H 411.976 -2.19744 -2.37685 0
M  V30 4333 H 410.883 -3.69166 -0.605605 0
M  V30 4334 H 412.216 -4.85385 -0.816211 0
M  V30 4335 N 413.868 0.0150385 -1.57593 0
M  V30 4336 C 415.096 0.714395 -1.94175 0
M  V30 4337 C 415.511 1.68135 -0.858841 0
M  V30 4338 O 414.868 1.81766 0.163567 0
M  V30 4339 C 414.919 1.45933 -3.30735 0
M  V30 4340 O 414.64 0.531167 -4.34868 0
M  V30 4341 C 416.141 2.25456 -3.81686 0
M  V30 4342 H 413.361 0.199923 -0.640525 0
M  V30 4343 H 415.905 -0.0316096 -2.04476 0
M  V30 4344 H 414.06 2.15709 -3.21789 0
M  V30 4345 H 414.474 1.05509 -5.13778 0
M  V30 4346 H 415.948 2.731 -4.79709 0
M  V30 4347 H 416.425 3.07485 -3.13607 0
M  V30 4348 H 417.031 1.60727 -3.9376 0
M  V30 4349 N 415.346 1.54954 0.287554 0
M  V30 4350 C 416.276 1.89839 1.35954 0
M  V30 4351 C 417.257 0.758675 1.52244 0
M  V30 4352 O 418.442 1.01557 1.65529 0
M  V30 4353 C 415.572 2.15753 2.72154 0
M  V30 4354 C 414.526 3.3159 2.70614 0
M  V30 4355 C 413.852 3.42952 4.10229 0
M  V30 4356 C 415.152 4.68359 2.31165 0
M  V30 4357 H 416.846 2.79625 1.07007 0
M  V30 4358 H 414.392 1.3454 0.513316 0
M  V30 4359 H 416.345 2.38743 3.47246 0
M  V30 4360 H 415.069 1.22752 3.02654 0
M  V30 4361 H 413.728 3.08545 1.97979 0
M  V30 4362 H 413.376 2.47443 4.37928 0
M  V30 4363 H 413.076 4.20826 4.10097 0
M  V30 4364 H 414.6 3.68218 4.87081 0
M  V30 4365 H 416.014 4.9099 2.95976 0
M  V30 4366 H 414.411 5.49044 2.42221 0
M  V30 4367 H 415.481 4.68165 1.26291 0
M  V30 4368 N 416.824 -0.551391 1.4764 0
M  V30 4369 C 418.052 -1.33357 1.58189 0
M  V30 4370 C 418.467 -1.87342 0.234199 0
M  V30 4371 O 417.824 -1.65301 -0.77343 0
M  V30 4372 C 417.875 -2.49942 2.61173 0
M  V30 4373 O 417.596 -1.98187 3.90709 0
M  V30 4374 C 419.097 -3.42072 2.8196 0
M  V30 4375 H 416.317 -0.40631 0.533998 0
M  V30 4376 H 418.861 -0.667367 1.93304 0
M  V30 4377 H 417.016 -3.12489 2.28975 0
M  V30 4378 H 417.43 -2.74342 4.47031 0
M  V30 4379 H 418.904 -4.20278 3.57869 0
M  V30 4380 H 419.381 -3.95978 1.89995 0
M  V30 4381 H 419.987 -2.85336 3.15378 0
M  V30 4382 N 418.302 -1.35869 -0.798587 0
M  V30 4383 C 419.252 -1.25982 -1.90033 0
M  V30 4384 C 420.236 -0.153303 -1.60168 0
M  V30 4385 O 421.428 -0.38527 -1.72756 0
M  V30 4386 C 418.557 -1.04211 -3.27101 0
M  V30 4387 C 417.643 -2.19289 -3.63006 0
M  V30 4388 N 418.034 -3.44559 -3.70287 0
M  V30 4389 C 416.332 -2.10852 -3.93011 0
M  V30 4390 C 417.033 -4.20283 -4.02166 0
M  V30 4391 N 416.009 -3.49124 -4.16669 0
M  V30 4392 H 419.811 -2.20883 -1.93876 0
M  V30 4393 H 417.325 -1.28457 -0.993614 0
M  V30 4394 H 419.322 -0.952155 -4.05881 0
M  V30 4395 H 417.982 -0.102013 -3.2454 0
M  V30 4396 H 418.993 -3.7881 -3.53162 0
M  V30 4397 H 415.67 -1.24744 -3.98428 0
M  V30 4398 H 417.06 -5.28575 -4.14799 0
M  V30 4399 N 419.78 1.02168 -1.19998 0
M  V30 4400 C 421.008 1.79296 -1.03249 0
M  V30 4401 C 421.423 1.84103 0.418502 0
M  V30 4402 O 420.78 1.29031 1.29063 0
M  V30 4403 C 420.831 3.24007 -1.60319 0
M  V30 4404 O 420.552 3.19512 -2.99739 0
M  V30 4405 C 422.053 4.17704 -1.48453 0
M  V30 4406 H 419.273 0.564016 -0.363493 0
M  V30 4407 H 421.817 1.28639 -1.58973 0
M  V30 4408 H 419.972 3.7183 -1.08727 0
M  V30 4409 H 420.386 4.10306 -3.26725 0
M  V30 4410 H 421.86 5.17104 -1.93153 0
M  V30 4411 H 422.337 4.37029 -0.436193 0
M  V30 4412 H 422.943 3.7576 -1.99211 0
M  V30 4413 N 421.258 1.00505 1.21394 0
M  V30 4414 C 422.507 0.683159 1.89778 0
M  V30 4415 C 422.82 -0.789471 1.7896 0
M  V30 4416 O 424.026 -1.22344 2.42372 0
M  V30 4417 C 422.482 1.17146 3.40301 0
M  V30 4418 C 422.09 2.67017 3.5973 0
M  V30 4419 C 423.834 0.924461 4.14311 0
M  V30 4420 C 421.741 3.09387 5.04017 0
M  V30 4421 H 420.671 0.25183 0.710702 0
M  V30 4422 H 423.322 1.21622 1.37406 0
M  V30 4423 H 421.704 0.566451 3.91928 0
M  V30 4424 H 422.878 3.32968 3.18542 0
M  V30 4425 H 421.193 2.89732 2.99073 0
M  V30 4426 H 423.79 1.21658 5.20676 0
M  V30 4427 H 424.133 -0.139286 4.16067 0
M  V30 4428 H 424.666 1.49226 3.6875 0
M  V30 4429 H 421.405 4.14989 5.07409 0
M  V30 4430 H 420.925 2.48149 5.46061 0
M  V30 4431 H 422.604 3.01371 5.72525 0
M  V30 4432 N 422.737 -1.36956 0.779787 0
M  V30 4433 C 423.965 -2.03755 0.359398 0
M  V30 4434 C 424.38 -1.58807 -1.02106 0
M  V30 4435 O 423.737 -0.773024 -1.6532 0
M  V30 4436 C 423.788 -3.59251 0.402568 0
M  V30 4437 O 423.509 -4.02557 1.72858 0
M  V30 4438 C 425.01 -4.43291 -0.0284068 0
M  V30 4439 H 422.23 -0.654148 0.149437 0
M  V30 4440 H 424.774 -1.75128 1.05595 0
M  V30 4441 H 422.929 -3.86621 -0.245478 0
M  V30 4442 H 423.343 -4.97111 1.67275 0
M  V30 4443 H 424.817 -5.51975 0.0529466 0
M  V30 4444 H 425.294 -4.25719 -1.07982 0
M  V30 4445 H 425.9 -4.21163 0.591758 0
M  V30 4446 N 424.215 -0.530993 -1.48385 0
M  V30 4447 C 425.162 0.231223 -2.29639 0
M  V30 4448 C 426.132 0.932864 -1.37429 0
M  V30 4449 O 427.317 0.933692 -1.66394 0
M  V30 4450 C 424.457 1.27155 -3.2082 0
M  V30 4451 C 423.57 0.578655 -4.28107 0
M  V30 4452 C 422.705 1.602 -5.06467 0
M  V30 4453 C 421.744 0.892625 -6.05556 0
M  V30 4454 N 420.881 1.86157 -6.76971 0
M  V30 4455 H 425.721 -0.467848 -2.94305 0
M  V30 4456 H 423.258 -0.242556 -1.45086 0
M  V30 4457 H 425.216 1.88703 -3.72085 0
M  V30 4458 H 423.846 1.939 -2.58075 0
M  V30 4459 H 422.898 -0.150782 -3.80101 0
M  V30 4460 H 424.21 0.0217065 -4.98795 0
M  V30 4461 H 423.364 2.29173 -5.61751 0
M  V30 4462 H 422.103 2.19285 -4.35621 0
M  V30 4463 H 421.108 0.188829 -5.49476 0
M  V30 4464 H 422.333 0.307878 -6.78402 0
M  V30 4465 H 420.279 2.44147 -6.08875 0
M  V30 4466 H 420.196 1.35608 -7.43738 0
M  V30 4467 H 421.464 2.54325 -7.36844 0
M  V30 4468 N 425.693 1.55336 -0.266172 0
M  V30 4469 C 426.623 2.25146 0.618981 0
M  V30 4470 C 427.604 1.23845 1.16604 0
M  V30 4471 O 428.789 1.52544 1.20183 0
M  V30 4472 C 425.919 2.96572 1.80728 0
M  V30 4473 C 424.873 4.04726 1.39215 0
M  V30 4474 C 424.199 4.63678 2.66283 0
M  V30 4475 C 425.499 5.19407 0.548942 0
M  V30 4476 H 427.193 2.99377 0.0368116 0
M  V30 4477 H 424.739 1.43991 0.0162651 0
M  V30 4478 H 426.692 3.44116 2.43232 0
M  V30 4479 H 425.416 2.19861 2.41514 0
M  V30 4480 H 424.075 3.57979 0.790351 0
M  V30 4481 H 423.723 3.83646 3.25308 0
M  V30 4482 H 423.423 5.367 2.39222 0
M  V30 4483 H 424.947 5.13967 3.29651 0
M  V30 4484 H 426.361 5.63059 1.07876 0
M  V30 4485 H 424.758 5.98936 0.373593 0
M  V30 4486 H 425.828 4.8295 -0.434394 0
M  V30 4487 N 427.171 -0.0066808 1.57599 0
M  V30 4488 C 428.119 -1.01851 2.09115 0
M  V30 4489 C 429.113 -1.36021 1.00969 0
M  V30 4490 O 430.319 -1.34663 1.19439 0
M  V30 4491 H 426.694 -0.346083 0.667631 0
M  V30 4492 H 428.665 -0.558394 2.93129 0
M  V30 4493 C 427.414 -2.30374 2.60429 0
M  V30 4494 H 426.737 -2.04947 3.43273 0
M  V30 4495 H 428.177 -2.99466 3.00161 0
M  V30 4496 C 426.636 -3.00893 1.51542 0
M  V30 4497 O 427.166 -3.91614 0.894484 0
M  V30 4498 N 425.372 -2.62603 1.2445 0
M  V30 4499 H 424.919 -1.88911 1.75129 0
M  V30 4500 H 424.877 -3.10101 0.518137 0
M  V30 4501 N 428.649 -1.55105 -0.279332 0
M  V30 4502 C 429.612 -1.86783 -1.32834 0
M  V30 4503 C 430.612 -0.74199 -1.42657 0
M  V30 4504 O 431.802 -1.0102 -1.41918 0
M  V30 4505 C 428.934 -2.06746 -2.71052 0
M  V30 4506 H 430.127 -2.8055 -1.05979 0
M  V30 4507 H 427.68 -1.47499 -0.517087 0
M  V30 4508 H 428.415 -1.15339 -3.03097 0
M  V30 4509 H 428.2 -2.88711 -2.65309 0
M  V30 4510 H 429.69 -2.32549 -3.46858 0
M  V30 4511 N 430.127 0.543554 -1.4793 0
M  V30 4512 C 431.037 1.67657 -1.64098 0
M  V30 4513 C 432.053 1.65934 -0.523622 0
M  V30 4514 O 433.229 1.85133 -0.792943 0
M  V30 4515 C 430.294 3.04146 -1.66421 0
M  V30 4516 C 429.355 3.16831 -2.89684 0
M  V30 4517 C 428.588 4.46809 -2.91886 0
M  V30 4518 O 428.811 5.33095 -2.02895 0
M  V30 4519 O 427.745 4.63573 -3.83906 0
M  V30 4520 H 431.571 1.56957 -2.59997 0
M  V30 4521 H 429.156 0.715116 -1.31173 0
M  V30 4522 H 431.038 3.85346 -1.70548 0
M  V30 4523 H 429.713 3.152 -0.736923 0
M  V30 4524 H 428.62 2.34977 -2.91095 0
M  V30 4525 H 429.953 3.10687 -3.81752 0
M  V30 4526 N 431.605 1.3629 0.791371 0
M  V30 4527 C 432.553 1.30514 1.92533 0
M  V30 4528 C 433.547 0.197285 1.68247 0
M  V30 4529 O 434.753 0.364176 1.76278 0
M  V30 4530 H 431.128 0.406263 0.632815 0
M  V30 4531 H 433.099 2.26282 1.94523 0
M  V30 4532 C 431.848 1.10933 3.29529 0
M  V30 4533 H 431.171 1.95427 3.48781 0
M  V30 4534 H 432.611 1.10937 4.0923 0
M  V30 4535 C 431.07 -0.186123 3.36385 0
M  V30 4536 O 431.6 -1.17664 3.84081 0
M  V30 4537 N 429.806 -0.230128 2.89687 0
M  V30 4538 H 429.353 0.576545 2.51065 0
M  V30 4539 H 429.311 -1.09658 2.94657 0
M  V30 4540 N 433.083 -1.0153 1.20538 0
M  V30 4541 C 434.031 -2.12215 0.952235 0
M  V30 4542 C 435.025 -1.69123 -0.0968735 0
M  V30 4543 O 436.231 -1.7992 0.0536006 0
M  V30 4544 H 432.606 -0.693576 0.290613 0
M  V30 4545 H 434.577 -2.3075 1.89201 0
M  V30 4546 C 433.326 -3.43755 0.522287 0
M  V30 4547 H 432.649 -3.7734 1.32115 0
M  V30 4548 H 434.089 -4.22254 0.384389 0
M  V30 4549 C 432.548 -3.28088 -0.765489 0
M  V30 4550 O 433.078 -3.57921 -1.8236 0
M  V30 4551 N 431.284 -2.81333 -0.728011 0
M  V30 4552 H 430.831 -2.57255 0.133332 0
M  V30 4553 H 430.789 -2.71232 -1.58999 0
M  V30 4554 N 434.561 -1.01147 -1.20859 0
M  V30 4555 C 435.524 -0.582224 -2.21682 0
M  V30 4556 C 436.524 0.344887 -1.57058 0
M  V30 4557 O 437.714 0.134281 -1.73682 0
M  V30 4558 C 434.846 0.150496 -3.40568 0
M  V30 4559 H 436.039 -1.47408 -2.61172 0
M  V30 4560 H 433.592 -0.800695 -1.34233 0
M  V30 4561 H 434.327 1.0575 -3.06574 0
M  V30 4562 H 434.112 -0.515444 -3.88697 0
M  V30 4563 H 435.602 0.438344 -4.15293 0
M  V30 4564 N 436.039 1.36541 -0.78704 0
M  V30 4565 C 437.267 2.03561 -0.370199 0
M  V30 4566 C 437.682 1.59347 1.01263 0
M  V30 4567 O 437.039 0.781781 1.64907 0
M  V30 4568 C 437.09 3.59033 -0.421614 0
M  V30 4569 O 436.811 4.01634 -1.7499 0
M  V30 4570 C 438.312 4.433 0.00489763 0
M  V30 4571 H 435.532 0.653346 -0.152904 0
M  V30 4572 H 438.076 1.74566 -1.06522 0
M  V30 4573 H 436.231 3.86746 0.224971 0
M  V30 4574 H 436.645 4.96217 -1.69909 0
M  V30 4575 H 438.119 5.51939 -0.0822184 0
M  V30 4576 H 438.596 4.26285 1.05723 0
M  V30 4577 H 439.202 4.20843 -0.614085 0
M  V30 4578 N 437.518 0.538854 1.48102 0
M  V30 4579 C 438.765 0.0080018 2.02498 0
M  V30 4580 C 439.093 -1.33437 1.41509 0
M  V30 4581 O 438.348 -1.87709 0.553507 0
M  V30 4582 C 438.647 -0.153808 3.57069 0
M  V30 4583 C 438.313 1.11533 4.36888 0
M  V30 4584 C 436.975 1.46314 4.58417 0
M  V30 4585 C 439.327 1.95718 4.83057 0
M  V30 4586 C 436.655 2.6516 5.23361 0
M  V30 4587 C 439.007 3.13751 5.49312 0
M  V30 4588 C 437.671 3.48866 5.69077 0
M  V30 4589 H 436.941 0.00292807 0.740994 0
M  V30 4590 H 439.588 0.706668 1.77984 0
M  V30 4591 H 437.893 -0.935309 3.80472 0
M  V30 4592 H 439.59 -0.579607 3.96789 0
M  V30 4593 H 436.18 0.834484 4.20398 0
M  V30 4594 H 440.364 1.70158 4.66219 0
M  V30 4595 H 435.62 2.92558 5.36861 0
M  V30 4596 H 439.794 3.79282 5.84053 0
M  V30 4597 H 437.421 4.41054 6.19173 0
M  V30 4598 N 438.996 -1.55193 0.274407 0
M  V30 4599 C 440.226 -2.03692 -0.345442 0
M  V30 4600 C 440.634 -1.15224 -1.50067 0
M  V30 4601 O 439.977 -0.164749 -1.8296 0
M  V30 4602 C 440.039 -3.48325 -0.88939 0
M  V30 4603 C 439.703 -4.56794 0.137115 0
M  V30 4604 C 440.7 -5.11028 0.956378 0
M  V30 4605 C 438.385 -5.01568 0.27115 0
M  V30 4606 C 440.379 -6.08552 1.89587 0
M  V30 4607 C 438.066 -5.98918 1.21412 0
M  V30 4608 C 439.064 -6.52291 2.02498 0
M  V30 4609 O 438.752 -7.47738 2.952 0
M  V30 4610 H 438.484 -0.670893 -0.0829332 0
M  V30 4611 H 441.038 -2.01387 0.404056 0
M  V30 4612 H 439.268 -3.47867 -1.68895 0
M  V30 4613 H 440.957 -3.80167 -1.42225 0
M  V30 4614 H 441.723 -4.7725 0.863559 0
M  V30 4615 H 437.602 -4.5967 -0.349987 0
M  V30 4616 H 441.146 -6.50137 2.52918 0
M  V30 4617 H 437.043 -6.32114 1.30776 0
M  V30 4618 H 437.811 -7.65451 2.89874 0
M  V30 4619 N 440.474 -0.00167713 -1.576 0
M  V30 4620 C 441.721 0.68282 -1.90641 0
M  V30 4621 C 442.049 1.73686 -0.875415 0
M  V30 4622 O 441.304 1.95334 0.119575 0
M  V30 4623 C 441.603 1.36189 -3.30435 0
M  V30 4624 C 441.269 0.440887 -4.48739 0
M  V30 4625 C 439.931 0.187312 -4.80835 0
M  V30 4626 C 442.283 -0.193134 -5.20842 0
M  V30 4627 C 439.611 -0.70855 -5.82406 0
M  V30 4628 C 441.963 -1.07688 -6.23367 0
M  V30 4629 C 440.627 -1.33962 -6.53919 0
M  V30 4630 H 439.897 0.249862 -0.697603 0
M  V30 4631 H 442.544 -0.0575642 -1.91413 0
M  V30 4632 H 440.849 2.17636 -3.25794 0
M  V30 4633 H 442.546 1.89759 -3.5326 0
M  V30 4634 H 439.136 0.648694 -4.23663 0
M  V30 4635 H 443.32 -0.0102445 -4.96299 0
M  V30 4636 H 438.576 -0.920097 -6.04437 0
M  V30 4637 H 442.75 -1.57451 -6.78367 0
M  V30 4638 H 440.377 -2.03549 -7.32442 0
M  V30 4639 N 441.952 1.55251 0.271103 0
M  V30 4640 C 442.899 1.88261 1.33516 0
M  V30 4641 C 443.869 0.734296 1.48988 0
M  V30 4642 O 445.054 0.985741 1.63364 0
M  V30 4643 C 442.194 2.16168 2.69008 0
M  V30 4644 C 441.307 3.43678 2.61743 0
M  V30 4645 C 440.442 3.61276 3.89427 0
M  V30 4646 C 439.481 4.82472 3.7668 0
M  V30 4647 N 438.618 4.96717 4.96202 0
M  V30 4648 H 443.458 2.79015 1.04665 0
M  V30 4649 H 440.995 1.38137 0.505618 0
M  V30 4650 H 442.953 2.30349 3.47844 0
M  V30 4651 H 441.583 1.28646 2.96057 0
M  V30 4652 H 440.635 3.37959 1.74607 0
M  V30 4653 H 441.947 4.3265 2.48224 0
M  V30 4654 H 441.101 3.75284 4.76704 0
M  V30 4655 H 439.84 2.70492 4.05814 0
M  V30 4656 H 438.845 4.68465 2.87786 0
M  V30 4657 H 440.07 5.74692 3.61809 0
M  V30 4658 H 438.016 4.08865 5.12997 0
M  V30 4659 H 437.933 5.79738 4.85222 0
M  V30 4660 H 439.201 5.15113 5.85046 0
M  V30 4661 N 443.43 -0.535701 1.48216 0
M  V30 4662 C 444.679 -1.28828 1.55197 0
M  V30 4663 C 444.992 -1.94263 0.228278 0
M  V30 4664 O 446.198 -2.70927 0.176278 0
M  V30 4665 C 444.654 -2.33727 2.73678 0
M  V30 4666 C 444.262 -1.74386 4.12666 0
M  V30 4667 C 446.006 -3.1003 2.89968 0
M  V30 4668 C 443.913 -2.77192 5.22416 0
M  V30 4669 H 442.843 -0.484484 0.577747 0
M  V30 4670 H 445.494 -0.56646 1.74538 0
M  V30 4671 H 443.876 -3.08919 2.4776 0
M  V30 4672 H 445.05 -1.05421 4.48579 0
M  V30 4673 H 443.365 -1.10595 4.01445 0
M  V30 4674 H 445.962 -3.86842 3.6913 0
M  V30 4675 H 446.305 -3.65542 1.9921 0
M  V30 4676 H 446.838 -2.41952 3.15759 0
M  V30 4677 H 443.577 -2.26507 6.15122 0
M  V30 4678 H 443.097 -3.44502 4.90998 0
M  V30 4679 H 444.776 -3.40285 5.50286 0
M  V30 4680 N 444.908 -1.36708 -0.784132 0
M  V30 4681 C 446.185 -1.21776 -1.53069 0
M  V30 4682 C 446.565 0.193876 -2.10208 0
M  V30 4683 O 445.913 1.20012 -1.94446 0
M  V30 4684 C 446.123 -2.30395 -2.62143 0
M  V30 4685 C 447.471 -2.67325 -3.29882 0
M  V30 4686 O 448.495 -2.29478 -2.7243 0
M  V30 4687 O 447.354 -3.32485 -4.33724 0
M  V30 4688 H 444.448 -0.474459 -0.677361 0
M  V30 4689 H 446.994 -1.48454 -0.82216 0
M  V30 4690 H 445.766 -3.2498 -2.17953 0
M  V30 4691 H 445.389 -2.05112 -3.40609 0
M  V30 4692 N 446.386 1.0089 -1.21074 0
M  V30 4693 C 447.334 2.11707 -0.963476 0
M  V30 4694 C 448.328 1.69172 0.0879032 0
M  V30 4695 O 449.534 1.79889 -0.0631415 0
M  V30 4696 H 445.909 0.692026 -0.294287 0
M  V30 4697 H 447.88 2.29743 -1.90422 0
M  V30 4698 C 446.629 3.43473 -0.540509 0
M  V30 4699 H 445.952 3.76634 -1.34114 0
M  V30 4700 H 447.392 4.22044 -0.406777 0
M  V30 4701 C 445.851 3.2849 0.748079 0
M  V30 4702 O 446.381 3.58883 1.8046 0
M  V30 4703 N 444.587 2.81715 0.713081 0
M  V30 4704 H 444.134 2.5718 -0.146973 0
M  V30 4705 H 444.092 2.72071 1.57558 0
M  V30 4706 N 447.864 1.01787 1.20321 0
M  V30 4707 C 449.11 0.708985 1.90003 0
M  V30 4708 C 449.443 -0.759572 1.78729 0
M  V30 4709 O 448.718 -1.55198 1.17234 0
M  V30 4710 C 449.001 1.1469 3.41348 0
M  V30 4711 C 448.854 2.67586 3.61549 0
M  V30 4712 C 450.173 0.71915 4.34185 0
M  V30 4713 H 447.292 0.259034 0.689978 0
M  V30 4714 H 449.934 1.26584 1.41692 0
M  V30 4715 H 448.084 0.673128 3.82624 0
M  V30 4716 H 449.756 3.22826 3.29517 0
M  V30 4717 H 447.999 3.085 3.04976 0
M  V30 4718 H 448.67 2.93281 4.67643 0
M  V30 4719 H 451.146 1.12647 4.00562 0
M  V30 4720 H 450.022 1.05358 5.38694 0
M  V30 4721 H 450.283 -0.379111 4.40472 0
M  V30 4722 N 449.342 -1.36122 0.79427 0
M  V30 4723 C 450.289 -2.29982 0.194101 0
M  V30 4724 C 451.259 -1.52214 -0.664833 0
M  V30 4725 O 452.444 -1.80702 -0.612498 0
M  V30 4726 C 449.584 -3.38706 -0.661244 0
M  V30 4727 C 448.697 -4.31456 0.216766 0
M  V30 4728 C 447.832 -5.27265 -0.645411 0
M  V30 4729 C 446.871 -6.11653 0.233756 0
M  V30 4730 N 446.008 -6.99636 -0.587682 0
M  V30 4731 H 450.848 -2.80722 0.999965 0
M  V30 4732 H 448.385 -1.38172 0.504677 0
M  V30 4733 H 450.343 -4.00394 -1.17219 0
M  V30 4734 H 448.973 -2.89274 -1.43249 0
M  V30 4735 H 448.025 -3.7088 0.845724 0
M  V30 4736 H 449.337 -4.90724 0.893973 0
M  V30 4737 H 448.491 -5.94266 -1.22198 0
M  V30 4738 H 447.23 -4.68463 -1.35623 0
M  V30 4739 H 446.235 -5.4361 0.82269 0
M  V30 4740 H 447.46 -6.72531 0.942247 0
M  V30 4741 H 445.406 -6.43337 -1.2827 0
M  V30 4742 H 445.323 -7.55993 0.0317402 0
M  V30 4743 H 446.591 -7.71001 -1.14792 0
M  V30 4744 N 450.82 -0.546701 -1.47814 0
M  V30 4745 C 451.767 0.206854 -2.29871 0
M  V30 4746 C 452.737 0.918235 -1.38411 0
M  V30 4747 O 453.922 0.915991 -1.67375 0
M  V30 4748 C 451.062 1.23746 -3.22151 0
M  V30 4749 C 450.175 0.533216 -4.28697 0
M  V30 4750 C 449.31 1.5482 -5.08138 0
M  V30 4751 C 448.349 0.828347 -6.06469 0
M  V30 4752 N 447.486 1.78966 -6.78908 0
M  V30 4753 H 452.326 -0.499037 -2.93792 0
M  V30 4754 H 449.863 -0.25793 -1.44821 0
M  V30 4755 H 451.821 1.84746 -3.74065 0
M  V30 4756 H 450.451 1.91151 -2.60117 0
M  V30 4757 H 449.503 -0.191089 -3.7992 0
M  V30 4758 H 450.815 -0.0311987 -4.9879 0
M  V30 4759 H 449.969 2.23202 -5.6415 0
M  V30 4760 H 448.708 2.14652 -4.37922 0
M  V30 4761 H 447.713 0.130539 -5.49645 0
M  V30 4762 H 448.938 0.235907 -6.7869 0
M  V30 4763 H 446.884 2.37675 -6.1143 0
M  V30 4764 H 446.801 1.27712 -7.45135 0
M  V30 4765 H 448.069 2.46496 -7.395 0
M  V30 4766 N 452.299 1.55045 -0.282633 0
M  V30 4767 C 453.262 2.21515 0.588539 0
M  V30 4768 C 454.262 1.19535 1.07554 0
M  V30 4769 O 455.452 1.44391 0.974514 0
M  V30 4770 C 452.584 2.88704 1.8128 0
M  V30 4771 H 453.777 2.99899 0.00806397 0
M  V30 4772 H 451.33 1.56265 -0.0333067 0
M  V30 4773 H 452.065 2.14352 2.43359 0
M  V30 4774 H 451.85 3.63443 1.47144 0
M  V30 4775 H 453.34 3.39465 2.43214 0
M  V30 4776 N 453.777 0.010035 1.57597 0
M  V30 4777 C 455.193 -0.346164 1.55801 0
M  V30 4778 C 455.393 -1.74144 1.01371 0
M  V30 4779 O 454.449 -2.43938 0.651968 0
M  V30 4780 C 455.762 -0.212216 2.9995 0
M  V30 4781 C 457.31 -0.286409 3.11687 0
M  V30 4782 C 457.785 -0.18147 4.5764 0
M  V30 4783 N 459.276 -0.239056 4.62583 0
M  V30 4784 C 460.011 -0.181351 5.73113 0
M  V30 4785 N 459.507 -0.073661 6.92761 0
M  V30 4786 N 461.3 -0.233949 5.61613 0
M  V30 4787 H 453.451 0.922657 1.91313 0
M  V30 4788 H 455.714 0.354595 0.879185 0
M  V30 4789 H 455.42 0.748169 3.4365 0
M  V30 4790 H 455.294 -0.990224 3.6397 0
M  V30 4791 H 457.681 -1.23724 2.67911 0
M  V30 4792 H 457.762 0.521645 2.50425 0
M  V30 4793 H 457.406 0.765863 5.02093 0
M  V30 4794 H 457.336 -1.00814 5.1686 0
M  V30 4795 H 459.827 -0.32321 3.76515 0
M  V30 4796 H 460.14 -0.0358003 7.72792 0
M  V30 4797 H 458.485 -0.0391461 6.94989 0
M  V30 4798 H 461.676 -0.316347 4.6703 0
M  V30 4799 H 461.849 -0.185514 6.47734 0
M  V30 4800 N 455.255 -1.55392 -0.262866 0
M  V30 4801 C 456.501 -1.76737 -0.99458 0
M  V30 4802 C 456.834 -0.572453 -1.85571 0
M  V30 4803 O 456.109 0.429732 -1.89693 0
M  V30 4804 C 456.392 -3.07824 -1.8686 0
M  V30 4805 C 456.245 -4.3769 -1.03672 0
M  V30 4806 C 457.564 -3.35021 -2.85393 0
M  V30 4807 H 454.683 -0.643005 -0.360157 0
M  V30 4808 H 457.325 -1.88126 -0.266216 0
M  V30 4809 H 455.475 -2.98245 -2.48962 0
M  V30 4810 H 457.147 -4.59238 -0.43563 0
M  V30 4811 H 455.39 -4.32461 -0.340513 0
M  V30 4812 H 456.061 -5.25759 -1.6817 0
M  V30 4813 H 458.537 -3.44458 -2.33426 0
M  V30 4814 H 457.413 -4.27989 -3.43681 0
M  V30 4815 H 457.674 -2.55153 -3.61039 0
M  V30 4816 N 456.733 0.527833 -1.48498 0
M  V30 4817 C 457.665 1.6482 -1.5927 0
M  V30 4818 C 458.678 1.55659 -0.476869 0
M  V30 4819 O 459.867 1.62081 -0.747806 0
M  V30 4820 C 456.967 3.0348 -1.50842 0
M  V30 4821 C 456.14 3.381 -2.77502 0
M  V30 4822 C 455.199 4.5605 -2.62497 0
M  V30 4823 O 454.225 4.59165 -3.36387 0
M  V30 4824 N 455.427 5.54353 -1.72257 0
M  V30 4825 H 458.192 1.56015 -2.55889 0
M  V30 4826 H 455.753 0.715152 -1.45249 0
M  V30 4827 H 457.745 3.80264 -1.38496 0
M  V30 4828 H 456.315 3.06352 -0.621887 0
M  V30 4829 H 455.535 2.50473 -3.04396 0
M  V30 4830 H 456.823 3.58017 -3.61527 0
M  V30 4831 H 456.221 5.54617 -1.11431 0
M  V30 4832 H 454.778 6.30347 -1.65849 0
M  V30 4833 N 458.211 1.37122 0.776871 0
M  V30 4834 C 459.457 1.32243 1.53752 0
M  V30 4835 C 459.79 -0.0944745 1.9397 0
M  V30 4836 O 459.065 -1.05068 1.6368 0
M  V30 4837 C 459.348 2.25681 2.80607 0
M  V30 4838 C 459.201 3.76127 2.46676 0
M  V30 4839 C 460.52 2.17657 3.82509 0
M  V30 4840 H 457.639 0.481704 0.557791 0
M  V30 4841 H 460.281 1.6778 0.891612 0
M  V30 4842 H 458.431 1.95505 3.35723 0
M  V30 4843 H 460.103 4.16877 1.97513 0
M  V30 4844 H 458.346 3.94946 1.79443 0
M  V30 4845 H 459.017 4.36933 3.37333 0
M  V30 4846 H 461.493 2.44245 3.36873 0
M  V30 4847 H 460.369 2.85185 4.69 0
M  V30 4848 H 460.63 1.16785 4.26396 0
M  V30 4849 N 459.689 -1.00246 1.21608 0
M  V30 4850 C 460.935 -1.74319 1.03638 0
M  V30 4851 C 461.268 -1.89408 -0.428749 0
M  V30 4852 O 460.543 -1.43026 -1.3181 0
M  V30 4853 C 460.826 -3.15431 1.73711 0
M  V30 4854 C 460.679 -3.08049 3.27759 0
M  V30 4855 C 461.998 -4.14407 1.48173 0
M  V30 4856 H 459.117 -0.632741 0.377899 0
M  V30 4857 H 461.759 -1.16853 1.49818 0
M  V30 4858 H 459.909 -3.64493 1.34452 0
M  V30 4859 H 461.581 -2.66681 3.76403 0
M  V30 4860 H 459.824 -2.45088 3.57931 0
M  V30 4861 H 460.495 -4.07862 3.71958 0
M  V30 4862 H 462.971 -3.74061 1.82258 0
M  V30 4863 H 461.847 -5.11279 1.99713 0
M  V30 4864 H 462.108 -4.40174 0.412273 0
M  V30 4865 N 461.167 -1.02423 -1.1978 0
M  V30 4866 C 462.13 -0.605703 -2.21052 0
M  V30 4867 C 463.13 0.328209 -1.57415 0
M  V30 4868 O 464.32 0.115853 -1.73814 0
M  V30 4869 C 461.452 0.114366 -3.40708 0
M  V30 4870 H 462.645 -1.5017 -2.59594 0
M  V30 4871 H 460.198 -0.814888 -1.33376 0
M  V30 4872 H 460.933 1.02492 -3.07678 0
M  V30 4873 H 460.718 -0.556641 -3.88129 0
M  V30 4874 H 462.208 0.394272 -4.15735 0
M  V30 4875 N 462.645 1.35699 -0.801477 0
M  V30 4876 C 463.893 1.9852 -0.37871 0
M  V30 4877 C 464.214 1.63907 1.05638 0
M  V30 4878 O 463.484 0.919013 1.73006 0
M  V30 4879 H 462.064 0.734322 -0.137042 0
M  V30 4880 H 464.726 1.65697 -1.02619 0
M  V30 4881 H 463.822 3.08382 -0.480284 0
M  V30 4882 N 464.123 0.554532 1.47522 0
M  V30 4883 C 465.07 -0.19466 2.29978 0
M  V30 4884 C 466.04 -0.910882 1.38896 0
M  V30 4885 O 467.225 -0.907102 1.67858 0
M  V30 4886 C 464.365 -1.22035 3.22802 0
M  V30 4887 C 463.478 -0.510474 4.28973 0
M  V30 4888 C 462.613 -1.52123 5.08952 0
M  V30 4889 C 461.652 -0.796173 6.069 0
M  V30 4890 N 460.789 -1.75363 6.79847 0
M  V30 4891 H 465.629 0.51461 2.93523 0
M  V30 4892 H 463.166 0.265607 1.44682 0
M  V30 4893 H 465.124 -1.8276 3.7504 0
M  V30 4894 H 463.754 -1.89769 2.61127 0
M  V30 4895 H 462.806 0.211234 3.79813 0
M  V30 4896 H 464.118 0.0576503 4.98767 0
M  V30 4897 H 463.272 -2.20207 5.65326 0
M  V30 4898 H 462.011 -2.12327 4.39054 0
M  V30 4899 H 461.016 -0.101388 5.49707 0
M  V30 4900 H 462.241 -0.199911 6.78806 0
M  V30 4901 H 460.187 -2.3443 6.12682 0
M  V30 4902 H 460.104 -1.23759 7.45801 0
M  V30 4903 H 461.372 -2.4257 7.40797 0
M  V30 4904 N 465.601 -1.54893 0.290851 0
M  V30 4905 C 466.548 -2.23138 -0.58974 0
M  V30 4906 C 467.518 -1.21036 -1.13752 0
M  V30 4907 O 468.703 -1.49626 -1.18392 0
M  V30 4908 C 465.843 -2.96811 -1.76061 0
M  V30 4909 C 464.956 -4.13665 -1.24519 0
M  V30 4910 C 464.091 -4.74944 -2.3791 0
M  V30 4911 C 463.13 -5.83963 -1.83451 0
M  V30 4912 N 462.267 -6.39239 -2.90376 0
M  V30 4913 H 467.107 -2.98 -0.00114915 0
M  V30 4914 H 464.644 -1.47096 0.0112006 0
M  V30 4915 H 466.602 -3.37751 -2.44909 0
M  V30 4916 H 465.232 -2.24344 -2.32098 0
M  V30 4917 H 464.284 -3.77737 -0.449288 0
M  V30 4918 H 465.596 -4.92238 -0.806424 0
M  V30 4919 H 464.75 -5.18684 -3.14724 0
M  V30 4920 H 463.489 -3.95682 -2.85109 0
M  V30 4921 H 462.494 -5.39657 -1.05122 0
M  V30 4922 H 463.719 -6.65103 -1.37169 0
M  V30 4923 H 461.665 -5.62864 -3.36927 0
M  V30 4924 H 461.582 -7.13129 -2.50965 0
M  V30 4925 H 462.85 -6.87637 -3.67118 0
M  V30 4926 N 467.08 -0.0183926 -1.57589 0
M  V30 4927 C 468.31 0.67207 -1.95363 0
M  V30 4928 C 468.718 1.66807 -0.892872 0
M  V30 4929 O 468.061 1.83204 0.134958 0
M  V30 4930 C 468.123 1.44397 -3.29226 0
M  V30 4931 C 467.787 0.607511 -4.52944 0
M  V30 4932 C 468.784 -0.112657 -5.19778 0
M  V30 4933 C 466.469 0.548068 -4.99301 0
M  V30 4934 C 468.463 -0.881057 -6.31281 0
M  V30 4935 C 466.15 -0.224044 -6.10689 0
M  V30 4936 C 467.148 -0.937323 -6.76538 0
M  V30 4937 O 466.836 -1.6968 -7.85789 0
M  V30 4938 H 466.568 0.190925 -0.648478 0
M  V30 4939 H 469.122 -0.0711994 -2.05277 0
M  V30 4940 H 467.352 2.23214 -3.15773 0
M  V30 4941 H 469.041 2.02152 -3.51979 0
M  V30 4942 H 469.807 -0.0759998 -4.8494 0
M  V30 4943 H 465.686 1.09281 -4.4786 0
M  V30 4944 H 469.23 -1.43832 -6.82611 0
M  V30 4945 H 465.127 -0.262457 -6.44966 0
M  V30 4946 H 465.895 -1.61544 -8.024 0
M  V30 4947 N 468.558 1.5553 0.254621 0
M  V30 4948 C 469.805 1.77 0.983736 0
M  V30 4949 C 470.133 0.58133 1.85609 0
M  V30 4950 O 469.388 -0.435621 1.9079 0
M  V30 4951 C 469.687 3.03891 1.88109 0
M  V30 4952 C 469.353 4.35597 1.16472 0
M  V30 4953 C 468.015 4.7139 0.966714 0
M  V30 4954 C 470.367 5.1705 0.656387 0
M  V30 4955 C 467.695 5.86176 0.247942 0
M  V30 4956 C 470.047 6.32581 -0.0488807 0
M  V30 4957 C 468.711 6.67 -0.258438 0
M  V30 4958 H 467.981 0.647688 0.359974 0
M  V30 4959 H 470.628 1.89802 0.254463 0
M  V30 4960 H 468.933 2.86068 2.67717 0
M  V30 4961 H 470.63 3.17701 2.44677 0
M  V30 4962 H 467.22 4.07475 1.32899 0
M  V30 4963 H 471.404 4.8986 0.796933 0
M  V30 4964 H 466.66 6.11354 0.075035 0
M  V30 4965 H 470.834 6.94942 -0.450444 0
M  V30 4966 H 468.461 7.55793 -0.817358 0
M  V30 4967 N 470.036 -0.519951 1.48776 0
M  V30 4968 C 471.285 -1.27175 1.56555 0
M  V30 4969 C 471.598 -1.9401 0.248869 0
M  V30 4970 O 472.804 -2.70725 0.205004 0
M  V30 4971 C 471.26 -2.30811 2.76142 0
M  V30 4972 C 470.868 -1.7 4.14493 0
M  V30 4973 C 472.612 -3.06937 2.9324 0
M  V30 4974 C 470.519 -2.71635 5.25327 0
M  V30 4975 H 469.449 -0.478329 0.582853 0
M  V30 4976 H 472.1 -0.547916 1.75129 0
M  V30 4977 H 470.482 -3.06274 2.51023 0
M  V30 4978 H 471.656 -1.00658 4.49672 0
M  V30 4979 H 469.971 -1.06331 4.02595 0
M  V30 4980 H 472.568 -3.82905 3.73213 0
M  V30 4981 H 472.911 -3.63409 2.03075 0
M  V30 4982 H 473.444 -2.38589 3.18308 0
M  V30 4983 H 470.183 -2.1997 6.1749 0
M  V30 4984 H 469.703 -3.39275 4.94624 0
M  V30 4985 H 471.382 -3.34429 5.53865 0
M  V30 4986 N 471.514 -1.37532 -0.769588 0
M  V30 4987 C 472.791 -1.23392 -1.51768 0
M  V30 4988 C 473.171 0.17157 -2.10402 0
M  V30 4989 O 472.519 1.17943 -1.95708 0
M  V30 4990 C 472.729 -2.33163 -2.59685 0
M  V30 4991 C 474.077 -2.70809 -3.27028 0
M  V30 4992 O 475.101 -2.32355 -2.69981 0
M  V30 4993 O 473.96 -3.37066 -4.30173 0
M  V30 4994 H 471.054 -0.481617 -0.67229 0
M  V30 4995 H 473.6 -1.49318 -0.806368 0
M  V30 4996 H 472.372 -3.27273 -2.14494 0
M  V30 4997 H 471.995 -2.08713 -3.38415 0
M  V30 4998 N 472.992 0.995999 -1.22138 0
M  V30 4999 C 474.239 1.7351 -1.04406 0
M  V30 5000 C 474.567 1.89884 0.421244 0
M  V30 5001 O 473.822 1.43683 1.32867 0
M  V30 5002 C 474.121 3.14553 -1.6968 0
M  V30 5003 C 473.787 3.18102 -3.19565 0
M  V30 5004 C 472.449 3.18778 -3.60464 0
M  V30 5005 C 474.801 3.14636 -4.15516 0
M  V30 5006 C 472.129 3.13684 -4.95801 0
M  V30 5007 C 474.481 3.11084 -5.50826 0
M  V30 5008 C 473.145 3.10074 -5.91109 0
M  V30 5009 H 472.415 0.634916 -0.38205 0
M  V30 5010 H 475.062 1.1667 -1.51857 0
M  V30 5011 H 473.367 3.74682 -1.14546 0
M  V30 5012 H 475.064 3.70477 -1.53454 0
M  V30 5013 H 471.654 3.18324 -2.86998 0
M  V30 5014 H 475.838 3.13266 -3.84939 0
M  V30 5015 H 471.094 3.11245 -5.26247 0
M  V30 5016 H 475.268 3.07357 -6.24904 0
M  V30 5017 H 472.895 3.05882 -6.95946 0
M  V30 5018 N 474.47 1.03057 1.19235 0
M  V30 5019 C 475.716 0.729098 1.89241 0
M  V30 5020 C 476.049 -0.740573 1.79525 0
M  V30 5021 O 475.324 -1.53946 1.18874 0
M  V30 5022 C 475.607 1.18304 3.40112 0
M  V30 5023 C 475.46 2.71406 3.5869 0
M  V30 5024 C 476.779 0.765161 4.33397 0
M  V30 5025 H 473.898 0.266338 0.687192 0
M  V30 5026 H 476.54 1.28079 1.40341 0
M  V30 5027 H 474.69 0.713672 3.81889 0
M  V30 5028 H 476.362 3.26303 3.26074 0
M  V30 5029 H 474.605 3.11717 3.01687 0
M  V30 5030 H 475.276 2.98225 4.64506 0
M  V30 5031 H 477.752 1.16889 3.99345 0
M  V30 5032 H 476.628 1.11065 5.37546 0
M  V30 5033 H 476.889 -0.332372 4.40849 0
M  V30 5034 N 475.948 -1.35272 0.808662 0
M  V30 5035 C 476.911 -2.28082 0.226093 0
M  V30 5036 C 477.911 -1.49673 -0.587762 0
M  V30 5037 O 479.101 -1.69404 -0.405943 0
M  V30 5038 C 476.233 -3.33955 -0.684596 0
M  V30 5039 H 477.426 -2.81116 1.04469 0
M  V30 5040 H 474.979 -1.45162 0.579466 0
M  V30 5041 H 475.714 -2.86111 -1.5268 0
M  V30 5042 H 475.499 -3.91965 -0.102699 0
M  V30 5043 H 476.989 -4.03219 -1.08646 0
M  V30 5044 N 477.426 -0.562348 -1.47226 0
M  V30 5045 C 478.842 -0.222492 -1.58042 0
M  V30 5046 C 479.042 1.27505 -1.56028 0
M  V30 5047 O 478.098 2.05555 -1.46641 0
M  V30 5048 C 479.411 -0.853694 -2.88327 0
M  V30 5049 C 480.959 -0.825397 -3.01921 0
M  V30 5050 C 481.434 -1.43576 -4.34914 0
M  V30 5051 N 482.925 -1.39918 -4.41562 0
M  V30 5052 C 483.66 -1.84103 -5.43041 0
M  V30 5053 N 483.156 -2.36167 -6.51304 0
M  V30 5054 N 484.949 -1.75142 -5.34118 0
M  V30 5055 H 477.1 -1.53525 -1.46778 0
M  V30 5056 H 479.363 -0.640527 -0.698877 0
M  V30 5057 H 479.069 -1.90635 -2.95552 0
M  V30 5058 H 478.943 -0.34977 -3.75575 0
M  V30 5059 H 481.33 0.218583 -2.94289 0
M  V30 5060 H 481.411 -1.36713 -2.16202 0
M  V30 5061 H 481.055 -2.47884 -4.43301 0
M  V30 5062 H 480.985 -0.869427 -5.19373 0
M  V30 5063 H 483.476 -1.0184 -3.63919 0
M  V30 5064 H 483.789 -2.67793 -7.24919 0
M  V30 5065 H 482.134 -2.40181 -6.52179 0
M  V30 5066 H 485.325 -1.34241 -4.48439 0
M  V30 5067 H 485.498 -2.09895 -6.13065 0
M  V30 5068 N 478.904 1.54736 -0.299062 0
M  V30 5069 C 479.814 2.27127 0.587413 0
M  V30 5070 C 480.83 1.30575 1.15005 0
M  V30 5071 O 482.006 1.63554 1.17525 0
M  V30 5072 C 479.071 2.99645 1.74395 0
M  V30 5073 C 478.132 4.11731 1.21559 0
M  V30 5074 C 477.365 4.80781 2.317 0
M  V30 5075 O 477.588 4.4918 3.51558 0
M  V30 5076 O 476.522 5.68226 1.98501 0
M  V30 5077 H 480.348 3.037 0.000250109 0
M  V30 5078 H 477.933 1.49256 -0.0655919 0
M  V30 5079 H 479.815 3.45138 2.4178 0
M  V30 5080 H 478.49 2.25969 2.31775 0
M  V30 5081 H 477.397 3.70641 0.507514 0
M  V30 5082 H 478.73 4.87379 0.687233 0
M  V30 5083 N 480.382 0.0267497 1.57577 0
M  V30 5084 C 481.61 -0.662661 1.96001 0
M  V30 5085 C 482.025 -1.65799 0.903117 0
M  V30 5086 O 481.382 -1.82135 -0.115317 0
M  V30 5087 C 481.433 -1.37112 3.34488 0
M  V30 5088 O 481.154 -0.415683 4.36123 0
M  V30 5089 C 482.655 -2.15257 3.8753 0
M  V30 5090 H 479.875 -0.18287 0.6456 0
M  V30 5091 H 482.419 0.0858116 2.0432 0
M  V30 5092 H 480.574 -2.07101 3.27395 0
M  V30 5093 H 480.988 -0.918496 5.16395 0
M  V30 5094 H 482.462 -2.60285 4.86781 0
M  V30 5095 H 482.939 -2.99063 3.21649 0
M  V30 5096 H 483.545 -1.50231 3.97883 0
M  V30 5097 N 481.861 -1.55662 -0.24637 0
M  V30 5098 C 483.089 -1.81575 -0.991876 0
M  V30 5099 C 483.504 -0.602545 -1.78927 0
M  V30 5100 O 482.861 0.428795 -1.77391 0
M  V30 5101 C 482.912 -3.05711 -1.92933 0
M  V30 5102 O 482.633 -4.22348 -1.1642 0
M  V30 5103 C 484.134 -3.44428 -2.79078 0
M  V30 5104 H 481.354 -0.604209 -0.291844 0
M  V30 5105 H 483.898 -2.02722 -0.269095 0
M  V30 5106 H 482.053 -2.86612 -2.60638 0
M  V30 5107 H 482.467 -4.92706 -1.79835 0
M  V30 5108 H 483.941 -4.34388 -3.40603 0
M  V30 5109 H 484.418 -2.65037 -3.50217 0
M  V30 5110 H 485.024 -3.65879 -2.16824 0
M  V30 5111 N 483.339 0.512053 -1.4905 0
M  V30 5112 C 484.579 1.27715 -1.59588 0
M  V30 5113 C 484.943 1.90071 -0.271502 0
M  V30 5114 O 486.144 2.67616 -0.251987 0
M  V30 5115 C 484.415 2.32399 -2.71524 0
M  V30 5116 S 485.974 3.18396 -3.01943 0
M  V30 5117 H 482.792 0.43419 -0.563027 0
M  V30 5118 H 485.394 0.581315 -1.86657 0
M  V30 5119 H 484.098 1.85101 -3.66287 0
M  V30 5120 H 483.629 3.06667 -2.46412 0
M  V30 5121 H 485.644 4.32842 -2.42616 0
M  V30 5122 N 484.817 1.37938 0.762283 0
M  V30 5123 C 486.042 1.37059 1.55659 0
M  V30 5124 C 486.467 -0.0396123 1.88058 0
M  V30 5125 O 485.825 -1.01929 1.49934 0
M  V30 5126 C 485.873 2.22494 2.83776 0
M  V30 5127 O 484.977 1.63607 3.78559 0
M  V30 5128 H 484.318 0.467892 0.47114 0
M  V30 5129 H 486.848 1.81587 0.942725 0
M  V30 5130 H 486.858 2.36045 3.32786 0
M  V30 5131 H 485.533 3.24993 2.59524 0
M  V30 5132 H 484.11 1.5915 3.37233 0
M  V30 5133 N 486.295 -0.989507 1.22664 0
M  V30 5134 C 487.242 -2.08024 0.999733 0
M  V30 5135 C 488.212 -1.65909 -0.0797047 0
M  V30 5136 O 489.397 -1.90669 0.0705715 0
M  V30 5137 C 486.537 -3.40067 0.587234 0
M  V30 5138 C 485.65 -3.95505 1.73781 0
M  V30 5139 C 484.785 -5.15722 1.27297 0
M  V30 5140 C 483.824 -5.63305 2.39488 0
M  V30 5141 N 482.961 -6.74758 1.94026 0
M  V30 5142 H 487.801 -2.26768 1.9334 0
M  V30 5143 H 485.338 -1.11171 0.963297 0
M  V30 5144 H 487.296 -4.15899 0.329227 0
M  V30 5145 H 485.926 -3.21314 -0.309426 0
M  V30 5146 H 484.978 -3.16513 2.11006 0
M  V30 5147 H 486.29 -4.26797 2.58158 0
M  V30 5148 H 485.444 -5.98854 0.972546 0
M  V30 5149 H 484.183 -4.86061 0.399445 0
M  V30 5150 H 483.188 -4.78759 2.70315 0
M  V30 5151 H 484.413 -5.94988 3.27362 0
M  V30 5152 H 482.359 -6.46874 1.09041 0
M  V30 5153 H 482.276 -7.05386 2.71968 0
M  V30 5154 H 483.544 -7.61387 1.67062 0
M  V30 5155 N 487.773 -1.03688 -1.18687 0
M  V30 5156 C 488.683 -0.634908 -2.25845 0
M  V30 5157 C 489.699 0.337065 -1.70704 0
M  V30 5158 O 490.875 0.192943 -2.00474 0
M  V30 5159 C 487.94 -0.000180054 -3.467 0
M  V30 5160 C 487.001 -1.02067 -4.1699 0
M  V30 5161 C 486.234 -0.41614 -5.32075 0
M  V30 5162 O 486.457 0.778712 -5.65059 0
M  V30 5163 O 485.391 -1.14296 -5.90948 0
M  V30 5164 H 489.217 -1.52757 -2.62486 0
M  V30 5165 H 486.802 -0.807533 -1.25695 0
M  V30 5166 H 488.684 0.353342 -4.19916 0
M  V30 5167 H 487.359 0.866367 -3.11891 0
M  V30 5168 H 486.266 -1.42592 -3.45859 0
M  V30 5169 H 487.599 -1.85786 -4.5579 0
M  V30 5170 N 489.251 1.34841 -0.815825 0
M  V30 5171 C 490.476 2.03261 -0.41226 0
M  V30 5172 C 490.901 1.61055 0.971751 0
M  V30 5173 O 490.259 0.7917 1.63101 0
M  V30 5174 C 490.307 3.56914 -0.514289 0
M  V30 5175 O 489.411 4.09728 0.468675 0
M  V30 5176 H 488.752 0.641664 -0.170771 0
M  V30 5177 H 491.282 1.72241 -1.10427 0
M  V30 5178 H 491.292 4.06156 -0.387457 0
M  V30 5179 H 489.967 3.86982 -1.52375 0
M  V30 5180 H 488.544 3.71681 0.301316 0
M  V30 5181 N 490.729 0.570148 1.46925 0
M  V30 5182 C 491.677 -0.183181 2.31878 0
M  V30 5183 C 492.671 -0.896721 1.43719 0
M  V30 5184 O 493.877 -0.816536 1.60414 0
M  V30 5185 H 490.252 -0.077944 0.74795 0
M  V30 5186 H 492.223 0.552312 2.93244 0
M  V30 5187 C 490.972 -1.19172 3.2664 0
M  V30 5188 H 490.295 -0.652088 3.94446 0
M  V30 5189 H 491.735 -1.68946 3.88887 0
M  V30 5190 C 490.194 -2.24627 2.51086 0
M  V30 5191 O 490.724 -3.31773 2.26472 0
M  V30 5192 N 488.93 -1.98898 2.11867 0
M  V30 5193 H 488.477 -1.11777 2.32086 0
M  V30 5194 H 488.435 -2.6967 1.61634 0
M  V30 5195 N 492.207 -1.54576 0.307264 0
M  V30 5196 C 493.117 -2.27435 -0.57536 0
M  V30 5197 C 494.133 -1.31183 -1.14311 0
M  V30 5198 O 495.309 -1.64175 -1.16656 0
M  V30 5199 C 492.374 -3.00566 -1.72803 0
M  V30 5200 C 491.435 -4.12369 -1.19373 0
M  V30 5201 C 490.668 -4.82003 -2.29147 0
M  V30 5202 O 490.891 -4.51038 -3.49171 0
M  V30 5203 O 489.825 -5.69271 -1.95485 0
M  V30 5204 H 493.651 -3.03696 0.0158558 0
M  V30 5205 H 491.236 -1.49219 0.0735064 0
M  V30 5206 H 493.118 -3.46416 -2.39946 0
M  V30 5207 H 491.793 -2.27195 -2.30574 0
M  V30 5208 H 490.7 -3.70905 -0.487851 0
M  V30 5209 H 492.033 -4.87736 -0.661376 0
M  V30 5210 N 493.685 -0.035106 -1.57561 0
M  V30 5211 C 494.595 0.960295 -2.14046 0
M  V30 5212 C 495.611 1.3529 -1.0942 0
M  V30 5213 O 496.787 1.43309 -1.41508 0
M  V30 5214 C 493.852 2.22214 -2.66124 0
M  V30 5215 C 492.913 1.8894 -3.85487 0
M  V30 5216 C 492.146 3.09109 -4.35072 0
M  V30 5217 O 492.369 4.21963 -3.83802 0
M  V30 5218 O 491.303 2.91058 -5.26848 0
M  V30 5219 H 495.129 0.509983 -2.99387 0
M  V30 5220 H 492.714 0.185853 -1.48239 0
M  V30 5221 H 494.596 2.96279 -2.99661 0
M  V30 5222 H 493.271 2.66414 -1.83862 0
M  V30 5223 H 492.178 1.12241 -3.56865 0
M  V30 5224 H 493.511 1.49551 -4.6893 0
M  V30 5225 N 495.163 1.55791 0.238111 0
M  V30 5226 C 496.093 1.94068 1.29846 0
M  V30 5227 C 497.074 0.806726 1.49753 0
M  V30 5228 O 498.259 1.06772 1.62214 0
M  V30 5229 C 495.389 2.24302 2.65153 0
M  V30 5230 C 494.343 3.40032 2.59927 0
M  V30 5231 C 493.669 3.55829 3.99111 0
M  V30 5232 C 494.969 4.75476 2.16148 0
M  V30 5233 H 496.663 2.82887 0.980563 0
M  V30 5234 H 494.209 1.36105 0.470253 0
M  V30 5235 H 496.162 2.4967 3.39475 0
M  V30 5236 H 494.886 1.32318 2.98596 0
M  V30 5237 H 493.545 3.14687 1.88063 0
M  V30 5238 H 493.193 2.6125 4.29834 0
M  V30 5239 H 492.893 4.3366 3.96501 0
M  V30 5240 H 494.417 3.83528 4.7512 0
M  V30 5241 H 495.831 5.00158 2.80205 0
M  V30 5242 H 494.228 5.56472 2.24631 0
M  V30 5243 H 495.298 4.71946 1.11333 0
M  V30 5244 N 496.642 -0.504142 1.49319 0
M  V30 5245 C 497.87 -1.28256 1.62351 0
M  V30 5246 C 498.285 -1.86502 0.293682 0
M  V30 5247 O 497.642 -1.67678 -0.720449 0
M  V30 5248 C 497.693 -2.41507 2.68992 0
M  V30 5249 O 497.414 -1.85656 3.96817 0
M  V30 5250 C 498.915 -3.32929 2.927 0
M  V30 5251 H 496.135 -0.389115 0.546654 0
M  V30 5252 H 498.679 -0.605531 1.95329 0
M  V30 5253 H 496.834 -3.05046 2.38801 0
M  V30 5254 H 497.248 -2.59981 4.55533 0
M  V30 5255 H 498.722 -4.0868 3.71058 0
M  V30 5256 H 499.199 -3.89733 2.02496 0
M  V30 5257 H 499.805 -2.75158 3.24296 0
M  V30 5258 N 498.12 -1.38341 -0.754957 0
M  V30 5259 C 499.03 -1.3769 -1.89944 0
M  V30 5260 C 500.046 -0.274194 -1.71826 0
M  V30 5261 O 501.222 -0.512391 -1.94773 0
M  V30 5262 C 498.287 -1.19938 -3.25293 0
M  V30 5263 C 497.348 -2.40001 -3.55946 0
M  V30 5264 C 496.581 -2.23087 -4.84838 0
M  V30 5265 O 496.804 -1.22386 -5.57116 0
M  V30 5266 O 495.738 -3.11646 -5.14937 0
M  V30 5267 H 499.564 -2.3412 -1.93446 0
M  V30 5268 H 497.149 -1.19246 -0.900044 0
M  V30 5269 H 499.031 -1.12093 -4.06218 0
M  V30 5270 H 497.706 -0.265919 -3.22606 0
M  V30 5271 H 496.613 -2.53421 -2.75188 0
M  V30 5272 H 497.946 -3.31973 -3.63394 0
M  V30 5273 N 499.598 0.982988 -1.23187 0
M  V30 5274 C 500.823 1.76455 -1.08988 0
M  V30 5275 C 501.248 1.84726 0.354691 0
M  V30 5276 O 500.606 1.30699 1.25649 0
M  V30 5277 C 500.654 3.17094 -1.71708 0
M  V30 5278 O 499.758 4.00648 -0.977477 0
M  V30 5279 H 499.099 0.542988 -0.382177 0
M  V30 5280 H 501.629 1.23413 -1.63188 0
M  V30 5281 H 501.639 3.67684 -1.76841 0
M  V30 5282 H 500.314 3.10389 -2.76823 0
M  V30 5283 H 498.891 3.59161 -1.0029 0
M  V30 5284 N 501.076 1.04316 1.18135 0
M  V30 5285 C 502.316 0.756937 1.89868 0
M  V30 5286 C 502.68 -0.702609 1.78682 0
M  V30 5287 O 503.881 -1.10255 2.45148 0
M  V30 5288 C 502.152 1.21327 3.36176 0
M  V30 5289 S 503.711 1.05307 4.25976 0
M  V30 5290 H 500.529 0.275143 0.655604 0
M  V30 5291 H 503.131 1.33597 1.42731 0
M  V30 5292 H 501.835 2.27086 3.41848 0
M  V30 5293 H 501.366 0.628137 3.88353 0
M  V30 5294 H 503.381 -0.0280093 4.96192 0
M  V30 5295 N 502.554 -1.34406 0.822964 0
M  V30 5296 C 503.464 -2.33298 0.246838 0
M  V30 5297 C 504.48 -1.62625 -0.618797 0
M  V30 5298 O 505.656 -1.94391 -0.526685 0
M  V30 5299 C 502.721 -3.41785 -0.581731 0
M  V30 5300 C 501.782 -4.28206 0.306309 0
M  V30 5301 C 501.015 -5.31512 -0.48281 0
M  V30 5302 O 501.238 -5.43973 -1.71607 0
M  V30 5303 O 500.172 -6.01749 0.134884 0
M  V30 5304 H 503.998 -2.84401 1.06534 0
M  V30 5305 H 501.583 -1.37466 0.585108 0
M  V30 5306 H 503.465 -4.08028 -1.05313 0
M  V30 5307 H 502.14 -2.92925 -1.37756 0
M  V30 5308 H 501.047 -3.64885 0.825199 0
M  V30 5309 H 502.38 -4.80507 1.06649 0
M  V30 5310 N 504.032 -0.577932 -1.46621 0
M  V30 5311 C 505.26 -0.0671642 -2.06791 0
M  V30 5312 C 505.675 1.23571 -1.42743 0
M  V30 5313 O 505.032 1.74602 -0.531062 0
M  V30 5314 C 505.083 0.110357 -3.61332 0
M  V30 5315 O 504.804 -1.14095 -4.22982 0
M  V30 5316 C 506.305 0.656025 -4.38419 0
M  V30 5317 H 503.525 -0.0552732 -0.66872 0
M  V30 5318 H 506.069 -0.797242 -1.8832 0
M  V30 5319 H 504.224 0.790637 -3.79246 0
M  V30 5320 H 504.638 -0.951742 -5.15793 0
M  V30 5321 H 506.112 0.729438 -5.47159 0
M  V30 5322 H 506.589 1.67195 -4.06131 0
M  V30 5323 H 507.195 0.0107692 -4.25299 0
M  V30 5324 N 505.51 1.54411 -0.315457 0
M  V30 5325 C 506.457 2.24048 0.554166 0
M  V30 5326 C 507.427 1.2283 1.11812 0
M  V30 5327 O 508.612 1.51491 1.15997 0
M  V30 5328 C 505.752 2.99574 1.71316 0
M  V30 5329 C 504.865 4.15594 1.17922 0
M  V30 5330 C 504 4.78669 2.30324 0
M  V30 5331 C 503.039 5.86807 1.74137 0
M  V30 5332 N 502.176 6.43777 2.8017 0
M  V30 5333 H 507.016 2.97964 -0.0462602 0
M  V30 5334 H 504.553 1.47059 -0.0346009 0
M  V30 5335 H 506.511 3.41604 2.39505 0
M  V30 5336 H 505.141 2.28008 2.285 0
M  V30 5337 H 504.193 3.78404 0.389136 0
M  V30 5338 H 505.505 4.93459 0.728012 0
M  V30 5339 H 504.659 5.23626 3.06433 0
M  V30 5340 H 503.398 4.00168 2.78778 0
M  V30 5341 H 502.403 5.41261 0.965236 0
M  V30 5342 H 503.628 6.67201 1.2657 0
M  V30 5343 H 501.574 5.68153 3.2793 0
M  V30 5344 H 501.491 7.17031 2.39588 0
M  V30 5345 H 502.759 6.9339 3.56132 0
M  V30 5346 N 506.988 0.0434614 1.5754 0
M  V30 5347 C 507.935 -0.93356 2.11077 0
M  V30 5348 C 508.905 -1.31383 1.01626 0
M  V30 5349 O 510.09 -1.40465 1.29129 0
M  V30 5350 C 507.23 -2.20578 2.65404 0
M  V30 5351 C 506.343 -1.88068 3.88914 0
M  V30 5352 C 505.478 -3.09691 4.31584 0
M  V30 5353 C 504.517 -2.73067 5.47815 0
M  V30 5354 N 503.654 -3.87359 5.85574 0
M  V30 5355 H 508.494 -0.470118 2.94268 0
M  V30 5356 H 506.031 -0.220434 1.45439 0
M  V30 5357 H 507.989 -2.95011 2.94999 0
M  V30 5358 H 506.619 -2.64513 1.85021 0
M  V30 5359 H 505.671 -1.03816 3.6596 0
M  V30 5360 H 506.983 -1.57104 4.73413 0
M  V30 5361 H 506.137 -3.92431 4.62691 0
M  V30 5362 H 504.876 -3.43827 3.45882 0
M  V30 5363 H 503.881 -1.88742 5.16388 0
M  V30 5364 H 505.106 -2.40131 6.35227 0
M  V30 5365 H 503.052 -4.21311 5.02825 0
M  V30 5366 H 502.969 -3.60068 6.64746 0
M  V30 5367 H 504.237 -4.70761 6.21292 0
M  V30 5368 N 508.466 -1.55915 -0.229846 0
M  V30 5369 C 509.396 -1.94754 -1.28815 0
M  V30 5370 C 510.377 -0.814657 -1.49323 0
M  V30 5371 O 511.562 -1.07631 -1.61645 0
M  V30 5372 C 508.692 -2.25705 -2.63959 0
M  V30 5373 C 507.646 -3.41406 -2.5812 0
M  V30 5374 C 506.972 -3.57941 -3.97218 0
M  V30 5375 C 508.272 -4.76616 -2.13623 0
M  V30 5376 H 509.966 -2.83404 -0.965547 0
M  V30 5377 H 507.512 -1.36353 -0.463028 0
M  V30 5378 H 509.465 -2.51467 -3.38146 0
M  V30 5379 H 508.189 -1.339 -2.9789 0
M  V30 5380 H 506.848 -3.1568 -1.86391 0
M  V30 5381 H 506.496 -2.63526 -4.28443 0
M  V30 5382 H 506.196 -4.35757 -3.94195 0
M  V30 5383 H 507.72 -3.86042 -4.73079 0
M  V30 5384 H 509.134 -5.01637 -2.77549 0
M  V30 5385 H 507.531 -5.57655 -2.21677 0
M  V30 5386 H 508.601 -4.7253 -1.08829 0
M  V30 5387 N 509.944 0.496216 -1.49584 0
M  V30 5388 C 511.192 1.24756 -1.58998 0
M  V30 5389 C 511.513 1.92968 -0.280775 0
M  V30 5390 O 510.783 1.82959 0.700198 0
M  V30 5391 H 509.363 0.463471 -0.585836 0
M  V30 5392 H 512.025 0.574678 -1.86235 0
M  V30 5393 H 511.121 2.00895 -2.38847 0
M  V30 5394 N 511.423 1.38739 0.74761 0
M  V30 5395 C 512.355 1.32341 1.87132 0
M  V30 5396 C 513.368 0.234502 1.61102 0
M  V30 5397 O 514.557 0.492516 1.71571 0
M  V30 5398 C 511.657 1.02915 3.22896 0
M  V30 5399 C 510.83 2.22834 3.76383 0
M  V30 5400 C 509.889 1.90059 4.90677 0
M  V30 5401 O 508.915 2.62615 5.04997 0
M  V30 5402 N 510.117 0.859141 5.74107 0
M  V30 5403 H 512.882 2.29175 1.93129 0
M  V30 5404 H 510.443 1.32678 0.927805 0
M  V30 5405 H 512.435 0.79031 3.96908 0
M  V30 5406 H 511.005 0.148572 3.12247 0
M  V30 5407 H 510.225 2.62747 2.93867 0
M  V30 5408 H 511.513 3.02851 4.08851 0
M  V30 5409 H 510.911 0.257564 5.65113 0
M  V30 5410 H 509.468 0.680189 6.48241 0
M  V30 5411 N 512.901 -0.976442 1.23707 0
M  V30 5412 C 514.126 -1.75875 1.09922 0
M  V30 5413 C 514.551 -1.84911 -0.34489 0
M  V30 5414 O 513.909 -1.31363 -1.24954 0
M  V30 5415 C 513.957 -3.16179 1.73388 0
M  V30 5416 O 513.061 -4.00124 0.99871 0
M  V30 5417 H 512.402 -0.540954 0.385052 0
M  V30 5418 H 514.932 -1.22546 1.6384 0
M  V30 5419 H 514.942 -3.66741 1.78788 0
M  V30 5420 H 513.617 -3.08917 2.78466 0
M  V30 5421 H 512.194 -3.58624 1.02193 0
M  V30 5422 N 514.379 -1.04941 -1.1758 0
M  V30 5423 C 515.309 -0.669172 -2.23706 0
M  V30 5424 C 516.29 0.331835 -1.66832 0
M  V30 5425 O 517.475 0.209988 -1.93061 0
M  V30 5426 C 514.605 -0.0404889 -3.47276 0
M  V30 5427 C 513.559 -0.965983 -4.16957 0
M  V30 5428 C 512.885 -0.201312 -5.34321 0
M  V30 5429 C 514.185 -2.28902 -4.69469 0
M  V30 5430 H 515.879 -1.55639 -2.55767 0
M  V30 5431 H 513.425 -0.749793 -1.22939 0
M  V30 5432 H 515.378 0.237298 -4.20731 0
M  V30 5433 H 514.102 0.881658 -3.14475 0
M  V30 5434 H 512.761 -1.22829 -3.45411 0
M  V30 5435 H 512.409 0.723519 -4.97769 0
M  V30 5436 H 512.109 -0.817968 -5.81879 0
M  V30 5437 H 513.633 0.0692499 -6.10561 0
M  V30 5438 H 515.047 -2.07132 -5.34574 0
M  V30 5439 H 513.444 -2.85942 -5.27596 0
M  V30 5440 H 514.514 -2.92937 -3.86414 0
M  V30 5441 N 515.857 1.33968 -0.830081 0
M  V30 5442 C 517.134 1.92554 -0.343858 0
M  V30 5443 C 517.514 1.7573 1.16971 0
M  V30 5444 O 516.862 1.14035 1.98011 0
M  V30 5445 C 517.072 3.40147 -0.781073 0
M  V30 5446 C 518.42 4.17299 -0.78402 0
M  V30 5447 O 519.444 3.48762 -0.724112 0
M  V30 5448 O 518.303 5.39631 -0.863739 0
M  V30 5449 H 515.397 0.821469 -0.0954827 0
M  V30 5450 H 517.943 1.42897 -0.915348 0
M  V30 5451 H 516.715 3.46225 -1.82329 0
M  V30 5452 H 516.338 3.97166 -0.18567 0
M  V30 5453 N 517.335 0.585699 1.46312 0
M  V30 5454 C 518.575 0.0751432 2.04262 0
M  V30 5455 C 518.939 -1.26201 1.44697 0
M  V30 5456 O 520.14 -1.86198 1.93865 0
M  V30 5457 C 518.411 0.013478 3.57397 0
M  V30 5458 S 519.97 -0.439068 4.36598 0
M  V30 5459 H 516.788 0.0389228 0.709934 0
M  V30 5460 H 519.39 0.778871 1.79315 0
M  V30 5461 H 518.094 0.990558 3.98266 0
M  V30 5462 H 517.625 -0.712927 3.86886 0
M  V30 5463 H 519.64 -1.6932 4.66417 0
M  V30 5464 N 518.813 -1.54241 0.323641 0
M  V30 5465 C 519.761 -2.25813 -0.557804 0
M  V30 5466 C 520.755 -1.27225 -1.11849 0
M  V30 5467 O 521.961 -1.45001 -1.06652 0
M  V30 5468 H 518.336 -0.72532 -0.198532 0
M  V30 5469 H 520.307 -2.98322 0.0681112 0
M  V30 5470 C 519.056 -3.02913 -1.70701 0
M  V30 5471 H 518.379 -3.78593 -1.28482 0
M  V30 5472 H 519.819 -3.56238 -2.29935 0
M  V30 5473 C 518.278 -2.11217 -2.62467 0
M  V30 5474 O 518.808 -1.69508 -3.64184 0
M  V30 5475 N 517.014 -1.76704 -2.30703 0
M  V30 5476 H 516.561 -2.1082 -1.48029 0
M  V30 5477 H 516.519 -1.15631 -2.92364 0
M  V30 5478 N 520.291 -0.0518155 -1.57515 0
M  V30 5479 C 521.254 0.907547 -2.10467 0
M  V30 5480 C 522.254 1.23947 -1.02439 0
M  V30 5481 O 523.444 1.17604 -1.2851 0
M  V30 5482 C 520.576 2.21723 -2.58944 0
M  V30 5483 H 521.769 0.44851 -2.96527 0
M  V30 5484 H 519.322 0.196598 -1.55059 0
M  V30 5485 H 520.057 2.72206 -1.76279 0
M  V30 5486 H 519.842 1.98935 -3.37886 0
M  V30 5487 H 521.332 2.90441 -3.00056 0
M  V30 5488 N 521.769 1.56035 0.221574 0
M  V30 5489 C 522.679 1.95581 1.29558 0
M  V30 5490 C 523.695 0.859639 1.51282 0
M  V30 5491 O 524.871 1.16321 1.64413 0
M  V30 5492 C 521.936 2.26447 2.62531 0
M  V30 5493 C 520.997 3.49632 2.4911 0
M  V30 5494 C 520.23 3.79017 3.75742 0
M  V30 5495 O 520.453 3.10077 4.78757 0
M  V30 5496 O 519.387 4.72507 3.72855 0
M  V30 5497 H 523.213 2.8711 0.990035 0
M  V30 5498 H 520.798 1.43244 0.424434 0
M  V30 5499 H 522.68 2.47494 3.41064 0
M  V30 5500 H 521.355 1.38092 2.92766 0
M  V30 5501 H 520.262 3.33864 1.68777 0
M  V30 5502 H 521.595 4.3837 2.23814 0
M  V30 5503 N 523.247 -0.488276 1.49845 0
M  V30 5504 C 524.493 -1.24341 1.6021 0
M  V30 5505 C 524.826 -1.91967 0.293651 0
M  V30 5506 O 524.101 -1.81323 -0.703718 0
M  V30 5507 C 524.384 -2.3005 2.77036 0
M  V30 5508 C 524.237 -1.66842 4.17713 0
M  V30 5509 C 525.556 -3.31509 2.89464 0
M  V30 5510 H 522.675 -0.450704 0.583125 0
M  V30 5511 H 525.317 -0.539673 1.82174 0
M  V30 5512 H 523.467 -2.90071 2.58439 0
M  V30 5513 H 525.139 -1.1055 4.47858 0
M  V30 5514 H 523.382 -0.972079 4.22768 0
M  V30 5515 H 524.053 -2.43576 4.95353 0
M  V30 5516 H 526.529 -2.81493 3.06433 0
M  V30 5517 H 525.405 -4.02822 3.72861 0
M  V30 5518 H 525.666 -3.94603 1.99351 0
M  V30 5519 N 524.725 -1.39134 -0.740242 0
M  V30 5520 C 525.955 -1.39132 -1.52728 0
M  V30 5521 C 526.363 0.0173133 -1.89192 0
M  V30 5522 O 525.706 0.997715 -1.54244 0
M  V30 5523 C 525.768 -2.1952 -2.84695 0
M  V30 5524 C 525.432 -3.68203 -2.70695 0
M  V30 5525 C 526.429 -4.61401 -2.39593 0
M  V30 5526 C 524.114 -4.11724 -2.8773 0
M  V30 5527 C 526.108 -5.96102 -2.25701 0
M  V30 5528 C 523.795 -5.46503 -2.73456 0
M  V30 5529 C 524.793 -6.38506 -2.42486 0
M  V30 5530 O 524.481 -7.70803 -2.28295 0
M  V30 5531 H 524.213 -0.477263 -0.478744 0
M  V30 5532 H 526.767 -1.83504 -0.922799 0
M  V30 5533 H 524.997 -1.69888 -3.47383 0
M  V30 5534 H 526.686 -2.1176 -3.46284 0
M  V30 5535 H 527.452 -4.29079 -2.26088 0
M  V30 5536 H 523.331 -3.4045 -3.10829 0
M  V30 5537 H 526.875 -6.6788 -2.0145 0
M  V30 5538 H 522.772 -5.78417 -2.86538 0
M  V30 5539 H 523.54 -7.8147 -2.43405 0
M  V30 5540 N 526.204 0.969867 -1.24223 0
M  V30 5541 C 527.45 1.7151 -1.08223 0
M  V30 5542 C 527.783 1.90478 0.37838 0
M  V30 5543 O 527.058 1.4647 1.27971 0
M  V30 5544 C 527.341 3.10714 -1.82013 0
M  V30 5545 C 527.194 2.9925 -3.35811 0
M  V30 5546 C 528.513 4.10332 -1.59108 0
M  V30 5547 H 525.632 0.622499 -0.394543 0
M  V30 5548 H 528.274 1.1284 -1.52863 0
M  V30 5549 H 526.424 3.608 -1.44068 0
M  V30 5550 H 528.096 2.56608 -3.83341 0
M  V30 5551 H 526.339 2.35512 -3.64303 0
M  V30 5552 H 527.01 3.97857 -3.82641 0
M  V30 5553 H 529.486 3.69097 -1.92111 0
M  V30 5554 H 528.362 5.05804 -2.13198 0
M  V30 5555 H 528.623 4.38926 -0.528832 0
M  V30 5556 N 527.682 1.05563 1.17022 0
M  V30 5557 C 528.928 0.769074 1.87652 0
M  V30 5558 C 529.261 -0.702326 1.81055 0
M  V30 5559 O 528.536 -1.5139 1.22112 0
M  V30 5560 C 528.819 1.25492 3.37526 0
M  V30 5561 C 528.672 2.78953 3.52853 0
M  V30 5562 C 529.991 0.856919 4.31677 0
M  V30 5563 H 527.11 0.280854 0.681388 0
M  V30 5564 H 529.752 1.31027 1.37593 0
M  V30 5565 H 527.902 0.794516 3.80289 0
M  V30 5566 H 529.574 3.33146 3.19079 0
M  V30 5567 H 527.817 3.18046 2.95007 0
M  V30 5568 H 528.488 3.08011 4.58076 0
M  V30 5569 H 530.964 1.25334 3.96775 0
M  V30 5570 H 529.84 1.22443 5.35069 0
M  V30 5571 H 530.101 -0.238787 4.41455 0
M  V30 5572 N 529.16 -1.33526 0.837174 0
M  V30 5573 C 530.571 -1.80182 0.489017 0
M  V30 5574 C 530.922 -1.69285 -0.991826 0
M  V30 5575 O 530.047 -1.24113 -1.77271 0
M  V30 5576 C 530.642 -3.27149 0.880866 0
M  V30 5577 C 529.201 -3.71828 0.584872 0
M  V30 5578 C 528.348 -2.54974 1.09011 0
M  V30 5579 H 531.299 -1.21071 1.02603 0
M  V30 5580 H 531.32 -3.80024 0.190239 0
M  V30 5581 H 530.832 -3.35048 1.95869 0
M  V30 5582 H 528.933 -3.69457 -0.48295 0
M  V30 5583 H 529.046 -4.65366 1.13892 0
M  V30 5584 H 527.41 -2.4952 0.511047 0
M  V30 5585 H 528.193 -2.65637 2.17467 0
M  V30 5586 N 530.638 -0.59345 -1.46 0
M  V30 5587 C 531.884 -0.0916503 -2.03193 0
M  V30 5588 C 532.239 1.25839 -1.45541 0
M  V30 5589 O 531.532 1.81455 -0.615191 0
M  V30 5590 C 531.726 0.021178 -3.57394 0
M  V30 5591 C 531.555 -1.31638 -4.30002 0
M  V30 5592 C 530.325 -1.89336 -4.68487 0
M  V30 5593 C 532.523 -2.242 -4.62859 0
M  V30 5594 N 530.505 -3.1672 -5.25891 0
M  V30 5595 C 531.876 -3.36175 -5.20948 0
M  V30 5596 C 533.931 -2.23748 -4.44794 0
M  V30 5597 C 532.634 -4.47844 -5.62875 0
M  V30 5598 C 534.66 -3.34454 -4.87744 0
M  V30 5599 C 534.022 -4.4515 -5.45913 0
M  V30 5600 H 530.121 -0.0765713 -0.778242 0
M  V30 5601 H 532.705 -0.788705 -1.7801 0
M  V30 5602 H 530.876 0.687423 -3.82268 0
M  V30 5603 H 532.608 0.528343 -4.01236 0
M  V30 5604 H 529.363 -1.42704 -4.51589 0
M  V30 5605 H 529.787 -3.81746 -5.59106 0
M  V30 5606 H 534.429 -1.39433 -3.99147 0
M  V30 5607 H 532.147 -5.32894 -6.07495 0
M  V30 5608 H 535.733 -3.35234 -4.75509 0
M  V30 5609 H 534.613 -5.29398 -5.78539 0
M  V30 5610 N 532.116 1.54067 -0.331816 0
M  V30 5611 C 533.026 2.28322 0.539104 0
M  V30 5612 C 534.042 1.32985 1.1221 0
M  V30 5613 O 535.218 1.6601 1.1403 0
M  V30 5614 C 532.283 3.03277 1.68 0
M  V30 5615 C 531.344 4.14216 1.12798 0
M  V30 5616 C 530.577 4.85588 2.2145 0
M  V30 5617 O 530.8 4.56536 3.41952 0
M  V30 5618 O 529.734 5.72309 1.86404 0
M  V30 5619 H 533.56 3.03632 -0.0641692 0
M  V30 5620 H 531.145 1.49083 -0.0972365 0
M  V30 5621 H 533.027 3.50189 2.34405 0
M  V30 5622 H 531.702 2.30834 2.2693 0
M  V30 5623 H 530.609 3.71635 0.428782 0
M  V30 5624 H 531.942 4.88727 0.583698 0
M  V30 5625 N 533.594 0.0601682 1.57485 0
M  V30 5626 C 534.541 -0.91112 2.12055 0
M  V30 5627 C 535.511 -1.30298 1.03013 0
M  V30 5628 O 536.696 -1.39087 1.30612 0
M  V30 5629 C 533.836 -2.1775 2.67729 0
M  V30 5630 C 532.949 -1.83933 3.90887 0
M  V30 5631 C 532.084 -3.05096 4.34845 0
M  V30 5632 C 531.123 -2.67241 5.5068 0
M  V30 5633 N 530.26 -3.81127 5.8965 0
M  V30 5634 H 535.1 -0.43888 2.9475 0
M  V30 5635 H 532.637 -0.204995 1.45665 0
M  V30 5636 H 534.595 -2.91866 2.98111 0
M  V30 5637 H 533.225 -2.62535 1.87816 0
M  V30 5638 H 532.277 -0.999287 3.6704 0
M  V30 5639 H 533.589 -1.52074 4.75052 0
M  V30 5640 H 532.743 -3.87502 4.66827 0
M  V30 5641 H 531.482 -3.40139 3.49509 0
M  V30 5642 H 530.487 -1.83254 5.18361 0
M  V30 5643 H 531.712 -2.3338 6.37738 0
M  V30 5644 H 529.658 -4.15954 5.07266 0
M  V30 5645 H 529.575 -3.52997 6.68528 0
M  V30 5646 H 530.843 -4.64145 6.2625 0
M  V30 5647 N 535.072 -1.5615 -0.213296 0
M  V30 5648 C 536.019 -1.93086 -1.26437 0
M  V30 5649 C 536.989 -0.789086 -1.4616 0
M  V30 5650 O 538.174 -1.04569 -1.59593 0
M  V30 5651 C 535.314 -2.26003 -2.608 0
M  V30 5652 C 534.427 -3.53156 -2.48807 0
M  V30 5653 C 533.562 -3.7548 -3.7575 0
M  V30 5654 C 532.601 -4.96119 -3.58514 0
M  V30 5655 N 531.738 -5.14791 -4.77425 0
M  V30 5656 H 536.578 -2.82707 -0.942376 0
M  V30 5657 H 534.115 -1.39919 -0.454001 0
M  V30 5658 H 536.073 -2.431 -3.39055 0
M  V30 5659 H 534.703 -1.39546 -2.91079 0
M  V30 5660 H 533.755 -3.44207 -1.61944 0
M  V30 5661 H 535.067 -4.41565 -2.31996 0
M  V30 5662 H 534.221 -3.92718 -4.62447 0
M  V30 5663 H 532.96 -2.85368 -3.95495 0
M  V30 5664 H 531.965 -4.78823 -2.70201 0
M  V30 5665 H 533.19 -5.87724 -3.40231 0
M  V30 5666 H 531.136 -4.27623 -4.97468 0
M  V30 5667 H 531.053 -5.97347 -4.63371 0
M  V30 5668 H 532.321 -5.36471 -5.65525 0
M  V30 5669 N 536.55 0.480323 -1.50102 0
M  V30 5670 C 537.799 1.22979 -1.59872 0
M  V30 5671 C 538.112 1.93282 -0.30022 0
M  V30 5672 O 539.318 2.70086 -0.276709 0
M  V30 5673 C 537.774 2.23408 -2.82164 0
M  V30 5674 C 537.382 1.5895 -4.18854 0
M  V30 5675 C 539.126 2.99055 -3.01275 0
M  V30 5676 C 537.033 2.57611 -5.32344 0
M  V30 5677 H 535.963 0.462707 -0.59533 0
M  V30 5678 H 538.614 0.501291 -1.7652 0
M  V30 5679 H 536.996 2.99511 -2.59055 0
M  V30 5680 H 538.17 0.887 -4.52182 0
M  V30 5681 H 536.485 0.956191 -4.05273 0
M  V30 5682 H 539.082 3.72876 -3.83233 0
M  V30 5683 H 539.425 3.57897 -2.12639 0
M  V30 5684 H 539.958 2.30066 -3.24522 0
M  V30 5685 H 536.697 2.03521 -6.23105 0
M  V30 5686 H 536.217 3.26041 -5.03445 0
M  V30 5687 H 537.896 3.19627 -5.62537 0
M  V30 5688 N 538.028 1.39524 0.732853 0
M  V30 5689 C 539.258 1.3994 1.51988 0
M  V30 5690 C 539.666 -0.00727973 1.89199 0
M  V30 5691 O 539.009 -0.989521 1.54771 0
M  V30 5692 C 539.071 2.21026 2.83527 0
M  V30 5693 C 538.735 3.69633 2.68738 0
M  V30 5694 C 539.732 4.62665 2.37143 0
M  V30 5695 C 537.417 4.13244 2.85542 0
M  V30 5696 C 539.411 5.97291 2.22536 0
M  V30 5697 C 537.098 5.47945 2.70554 0
M  V30 5698 C 538.096 6.39783 2.39097 0
M  V30 5699 O 537.784 7.72002 2.24204 0
M  V30 5700 H 537.516 0.479795 0.476206 0
M  V30 5701 H 540.07 1.8399 0.913054 0
M  V30 5702 H 538.3 1.71728 3.46477 0
M  V30 5703 H 539.989 2.13594 3.45156 0
M  V30 5704 H 540.755 4.30272 2.2381 0
M  V30 5705 H 536.634 3.42094 3.09019 0
M  V30 5706 H 540.178 6.68939 1.97905 0
M  V30 5707 H 536.075 5.79928 2.83466 0
M  V30 5708 H 536.843 7.8275 2.39258 0
M  V30 5709 N 539.506 -0.963266 1.24736 0
M  V30 5710 C 540.917 -1.52145 1.08207 0
M  V30 5711 C 541.268 -1.93142 -0.345061 0
M  V30 5712 O 540.393 -1.77769 -1.23399 0
M  V30 5713 C 540.988 -2.76486 1.95808 0
M  V30 5714 C 539.547 -3.28646 1.8349 0
M  V30 5715 C 538.694 -2.01529 1.90476 0
M  V30 5716 H 541.645 -0.781083 1.38148 0
M  V30 5717 H 541.666 -3.49986 1.49297 0
M  V30 5718 H 541.178 -2.46617 2.99669 0
M  V30 5719 H 539.279 -3.63357 0.824787 0
M  V30 5720 H 539.392 -3.97246 2.67829 0
M  V30 5721 H 537.756 -2.16442 1.34258 0
M  V30 5722 H 538.539 -1.7402 2.95926 0
M  V30 5723 N 540.985 -1.06182 -1.16461 0
M  V30 5724 C 542.213 -0.798583 -1.90867 0
M  V30 5725 C 542.628 0.646921 -1.77371 0
M  V30 5726 O 541.985 1.44279 -1.11758 0
M  V30 5727 C 542.036 -1.18258 -3.4161 0
M  V30 5728 O 541.757 -2.57135 -3.54701 0
M  V30 5729 C 543.258 -0.946917 -4.33069 0
M  V30 5730 H 540.478 -0.289603 -0.605286 0
M  V30 5731 H 543.022 -1.41515 -1.47627 0
M  V30 5732 H 541.177 -0.610562 -3.82558 0
M  V30 5733 H 541.591 -2.72477 -4.4817 0
M  V30 5734 H 543.065 -1.26523 -5.37304 0
M  V30 5735 H 543.542 0.117406 -4.39043 0
M  V30 5736 H 544.148 -1.50326 -3.97847 0
M  V30 5737 N 542.463 1.3308 -0.844243 0
M  V30 5738 C 543.709 1.97898 -0.443206 0
M  V30 5739 C 544.042 1.66699 0.99625 0
M  V30 5740 O 543.317 0.949704 1.69738 0
M  V30 5741 C 543.6 3.53801 -0.670606 0
M  V30 5742 C 543.453 3.94667 -2.15772 0
M  V30 5743 C 544.772 4.39936 -0.120226 0
M  V30 5744 H 541.891 0.718861 -0.162504 0
M  V30 5745 H 544.533 1.57633 -1.06075 0
M  V30 5746 H 542.683 3.88229 -0.14496 0
M  V30 5747 H 544.355 3.70469 -2.74865 0
M  V30 5748 H 542.598 3.44203 -2.6402 0
M  V30 5749 H 543.269 5.03275 -2.26757 0
M  V30 5750 H 545.745 4.12183 -0.5696 0
M  V30 5751 H 544.621 5.4803 -0.308984 0
M  V30 5752 H 544.882 4.31184 0.976347 0
M  V30 5753 N 543.941 0.601185 1.45683 0
M  V30 5754 C 544.889 -0.133955 2.32214 0
M  V30 5755 C 545.883 -0.866034 1.45589 0
M  V30 5756 O 547.089 -0.782326 1.6211 0
M  V30 5757 H 543.464 -0.0620613 0.749435 0
M  V30 5758 H 545.435 0.614389 2.92007 0
M  V30 5759 C 544.184 -1.12216 3.29094 0
M  V30 5760 H 543.507 -0.568273 3.95741 0
M  V30 5761 H 544.947 -1.60659 3.92383 0
M  V30 5762 C 543.406 -2.19251 2.55794 0
M  V30 5763 O 543.936 -3.26894 2.33459 0
M  V30 5764 N 542.142 -1.9436 2.16039 0
M  V30 5765 H 541.689 -1.06829 2.34404 0
M  V30 5766 H 541.647 -2.66181 1.67318 0
M  V30 5767 N 545.419 -1.53889 0.339982 0
M  V30 5768 C 546.659 -2.02765 -0.258011 0
M  V30 5769 C 547.023 -1.22249 -1.48051 0
M  V30 5770 O 548.224 -1.61007 -2.15245 0
M  V30 5771 C 546.495 -3.5286 -0.567872 0
M  V30 5772 S 548.054 -4.23647 -1.14318 0
M  V30 5773 H 544.872 -0.706814 -0.0770389 0
M  V30 5774 H 547.474 -1.89594 0.476917 0
M  V30 5775 H 546.178 -4.09073 0.329745 0
M  V30 5776 H 545.709 -3.70144 -1.33256 0
M  V30 5777 H 547.724 -4.32676 -2.42911 0
M  V30 5778 N 546.897 -0.0685191 -1.57451 0
M  V30 5779 C 547.829 0.929372 -2.09512 0
M  V30 5780 C 548.842 1.26354 -1.02657 0
M  V30 5781 O 550.031 1.2213 -1.30179 0
M  V30 5782 C 547.131 2.24612 -2.53777 0
M  V30 5783 C 546.304 2.09128 -3.84167 0
M  V30 5784 C 545.363 3.24079 -4.14559 0
M  V30 5785 O 544.389 2.99215 -4.8421 0
M  V30 5786 N 545.591 4.49077 -3.67845 0
M  V30 5787 H 548.356 0.484901 -2.95751 0
M  V30 5788 H 545.917 0.11729 -1.61475 0
M  V30 5789 H 547.909 3.00412 -2.71172 0
M  V30 5790 H 546.479 2.60569 -1.72692 0
M  V30 5791 H 545.699 1.17815 -3.76182 0
M  V30 5792 H 546.987 1.9603 -4.69521 0
M  V30 5793 H 546.385 4.72165 -3.11571 0
M  V30 5794 H 544.942 5.21915 -3.90446 0
M  V30 5795 N 548.375 1.56261 0.205012 0
M  V30 5796 C 549.786 1.70056 0.770574 0
M  V30 5797 C 550.137 0.673398 1.84282 0
M  V30 5798 O 549.262 -0.172196 2.15714 0
M  V30 5799 C 549.857 3.08316 1.40451 0
M  V30 5800 C 548.416 3.2391 1.91727 0
M  V30 5801 C 547.563 2.66001 0.783516 0
M  V30 5802 H 550.514 1.58688 -0.019911 0
M  V30 5803 H 550.535 3.05094 2.27371 0
M  V30 5804 H 550.047 3.83053 0.623882 0
M  V30 5805 H 548.148 2.54072 2.7254 0
M  V30 5806 H 548.261 4.3131 2.08588 0
M  V30 5807 H 546.625 2.24915 1.19521 0
M  V30 5808 H 547.408 3.43297 0.0152883 0
M  V30 5809 N 549.853 -0.472356 1.50355 0
M  V30 5810 C 550.783 -1.57859 1.72055 0
M  V30 5811 C 551.764 -1.60283 0.569505 0
M  V30 5812 O 552.949 -1.7657 0.808503 0
M  V30 5813 C 550.079 -2.96191 1.81351 0
M  V30 5814 C 549.033 -3.08633 2.96529 0
M  V30 5815 C 548.359 -4.486 2.90968 0
M  V30 5816 C 549.659 -2.85969 4.37057 0
M  V30 5817 H 551.353 -1.39953 2.64676 0
M  V30 5818 H 548.899 -0.671846 1.27367 0
M  V30 5819 H 550.852 -3.73507 1.95117 0
M  V30 5820 H 549.576 -3.15251 0.853502 0
M  V30 5821 H 548.235 -2.33749 2.82413 0
M  V30 5822 H 547.883 -4.64577 1.92815 0
M  V30 5823 H 547.583 -4.57861 3.68289 0
M  V30 5824 H 549.107 -5.27938 3.0678 0
M  V30 5825 H 550.521 -3.53036 4.51706 0
M  V30 5826 H 548.918 -3.06677 5.15819 0
M  V30 5827 H 549.988 -1.81838 4.49514 0
M  V30 5828 N 551.331 -1.39911 -0.725443 0
M  V30 5829 C 552.579 -1.37382 -1.48224 0
M  V30 5830 C 552.9 0.0264107 -1.94982 0
M  V30 5831 O 552.17 0.979408 -1.6966 0
M  V30 5832 H 550.75 -0.505596 -0.549892 0
M  V30 5833 H 553.412 -1.7487 -0.860608 0
M  V30 5834 H 552.508 -2.04254 -2.3598 0
M  V30 5835 N 552.809 0.956637 -1.25245 0
M  V30 5836 C 553.742 2.05232 -0.99775 0
M  V30 5837 C 554.72 1.62439 0.0723137 0
M  V30 5838 O 555.904 1.88381 -0.066926 0
M  V30 5839 C 553.031 3.34871 -0.507861 0
M  V30 5840 C 552.077 3.96625 -1.56815 0
M  V30 5841 S 552.91 4.32853 -3.15276 0
M  V30 5842 C 554.066 5.65613 -2.68017 0
M  V30 5843 H 554.299 2.26521 -1.9255 0
M  V30 5844 H 551.832 1.09601 -1.08752 0
M  V30 5845 H 553.79 4.09845 -0.231858 0
M  V30 5846 H 552.451 3.11551 0.399356 0
M  V30 5847 H 551.644 4.90087 -1.17604 0
M  V30 5848 H 551.246 3.28124 -1.79473 0
M  V30 5849 H 553.538 6.43635 -2.11518 0
M  V30 5850 H 554.481 6.09693 -3.60112 0
M  V30 5851 H 554.889 5.24751 -2.0808 0
M  V30 5852 N 554.287 1.06798 1.15896 0
M  V30 5853 C 555.536 0.782796 1.8589 0
M  V30 5854 C 555.849 -0.693498 1.82893 0
M  V30 5855 O 557.055 -1.09325 2.48516 0
M  V30 5856 C 555.511 1.3502 3.33613 0
M  V30 5857 C 555.119 2.8571 3.45071 0
M  V30 5858 C 556.863 1.14278 4.08829 0
M  V30 5859 C 554.77 3.35669 4.86909 0
M  V30 5860 H 553.7 0.289149 0.696354 0
M  V30 5861 H 556.351 1.28734 1.30766 0
M  V30 5862 H 554.733 0.773407 3.88374 0
M  V30 5863 H 555.907 3.49385 3.00445 0
M  V30 5864 H 554.222 3.05178 2.83294 0
M  V30 5865 H 556.819 1.49087 5.13495 0
M  V30 5866 H 557.162 0.0814575 4.1622 0
M  V30 5867 H 557.695 1.68563 3.60321 0
M  V30 5868 H 554.434 4.41302 4.84698 0
M  V30 5869 H 553.954 2.76745 5.32139 0
M  V30 5870 H 555.633 3.31296 5.55745 0
M  V30 5871 N 555.766 -1.3263 0.851289 0
M  V30 5872 C 556.991 -2.02097 0.466006 0
M  V30 5873 C 557.416 -1.63574 -0.928709 0
M  V30 5874 O 556.774 -0.834665 -1.60944 0
M  V30 5875 C 556.822 -3.55425 0.608737 0
M  V30 5876 O 555.926 -4.10827 -0.359878 0
M  V30 5877 H 555.267 -0.636911 0.187724 0
M  V30 5878 H 557.797 -1.69253 1.14955 0
M  V30 5879 H 557.807 -4.04986 0.495006 0
M  V30 5880 H 556.482 -3.82806 1.62581 0
M  V30 5881 H 555.059 -3.72349 -0.202666 0
M  V30 5882 N 557.244 -0.608902 -1.45362 0
M  V30 5883 C 558.174 0.0964526 -2.33301 0
M  V30 5884 C 559.155 0.857444 -1.46908 0
M  V30 5885 O 560.34 0.827735 -1.75676 0
M  V30 5886 C 557.47 1.09354 -3.29635 0
M  V30 5887 C 556.424 0.445676 -4.25673 0
M  V30 5888 C 555.75 1.5511 -5.11708 0
M  V30 5889 C 557.05 -0.633972 -5.18438 0
M  V30 5890 H 558.744 -0.637829 -2.92527 0
M  V30 5891 H 556.29 -0.308178 -1.40664 0
M  V30 5892 H 558.243 1.59556 -3.90025 0
M  V30 5893 H 556.967 1.85843 -2.6857 0
M  V30 5894 H 555.626 -0.0354897 -3.66583 0
M  V30 5895 H 555.274 2.30631 -4.4701 0
M  V30 5896 H 554.974 1.12311 -5.76767 0
M  V30 5897 H 556.498 2.05537 -5.74967 0
M  V30 5898 H 557.912 -0.215974 -5.72893 0
M  V30 5899 H 556.309 -0.983789 -5.91981 0
M  V30 5900 H 557.379 -1.51005 -4.60788 0
M  V30 5901 N 558.722 1.53707 -0.348139 0
M  V30 5902 C 559.655 2.21481 0.549667 0
M  V30 5903 C 560.633 1.20046 1.09671 0
M  V30 5904 O 561.817 1.48883 1.15612 0
M  V30 5905 C 558.944 2.89585 1.75664 0
M  V30 5906 C 557.99 4.04948 1.33864 0
M  V30 5907 S 558.823 5.34325 0.354577 0
M  V30 5908 C 559.979 6.05934 1.56828 0
M  V30 5909 H 560.212 2.97289 -0.0259755 0
M  V30 5910 H 557.745 1.53833 -0.132216 0
M  V30 5911 H 559.703 3.29441 2.44906 0
M  V30 5912 H 558.364 2.13535 2.30351 0
M  V30 5913 H 557.557 4.51552 2.23868 0
M  V30 5914 H 557.159 3.66893 0.725651 0
M  V30 5915 H 559.451 6.29606 2.50205 0
M  V30 5916 H 560.394 6.98799 1.14395 0
M  V30 5917 H 560.802 5.36151 1.76642 0
M  V30 5918 N 560.2 0.0768682 1.57412 0
M  V30 5919 C 561.147 -0.888577 2.13009 0
M  V30 5920 C 562.117 -1.29198 1.0439 0
M  V30 5921 O 563.302 -1.37694 1.3208 0
M  V30 5922 C 560.442 -2.14899 2.70023 0
M  V30 5923 C 559.555 -1.79777 3.92816 0
M  V30 5924 C 558.69 -3.00467 4.38056 0
M  V30 5925 C 557.729 -2.61385 5.53484 0
M  V30 5926 N 556.866 -3.74851 5.93659 0
M  V30 5927 H 561.706 -0.407593 2.95199 0
M  V30 5928 H 559.243 -0.189534 1.45874 0
M  V30 5929 H 561.201 -2.88688 3.0119 0
M  V30 5930 H 559.831 -2.60529 1.9059 0
M  V30 5931 H 558.883 -0.960301 3.68079 0
M  V30 5932 H 560.195 -1.47027 4.76639 0
M  V30 5933 H 559.349 -3.82529 4.7091 0
M  V30 5934 H 558.088 -3.36413 3.53097 0
M  V30 5935 H 557.093 -1.77746 5.20275 0
M  V30 5936 H 558.318 -2.26603 6.40178 0
M  V30 5937 H 556.264 -4.1055 5.11649 0
M  V30 5938 H 556.181 -3.45887 6.72234 0
M  V30 5939 H 557.449 -4.57477 6.31138 0
M  V30 5940 N 561.678 -1.56367 -0.196722 0
M  V30 5941 C 563.094 -1.49916 -0.54749 0
M  V30 5942 C 563.294 -0.77659 -1.85934 0
M  V30 5943 O 562.35 -0.32644 -2.50381 0
M  V30 5944 C 563.663 -2.94577 -0.603734 0
M  V30 5945 C 565.211 -3.05239 -0.692677 0
M  V30 5946 C 565.686 -4.51308 -0.780046 0
M  V30 5947 N 567.177 -4.55453 -0.843616 0
M  V30 5948 C 567.912 -5.65786 -0.931358 0
M  V30 5949 N 567.408 -6.85812 -0.981503 0
M  V30 5950 N 569.201 -5.53695 -0.968421 0
M  V30 5951 H 561.352 -2.01761 0.663803 0
M  V30 5952 H 563.615 -0.918094 0.236238 0
M  V30 5953 H 563.321 -3.50494 0.29105 0
M  V30 5954 H 563.195 -3.47841 -1.45898 0
M  V30 5955 H 565.582 -2.49372 -1.57789 0
M  V30 5956 H 565.663 -2.55103 0.188736 0
M  V30 5957 H 565.307 -5.078 0.100811 0
M  V30 5958 H 565.237 -4.99176 -1.67724 0
M  V30 5959 H 567.728 -3.69025 -0.814176 0
M  V30 5960 H 568.041 -7.65648 -1.04892 0
M  V30 5961 H 566.386 -6.88474 -0.950208 0
M  V30 5962 H 569.577 -4.58848 -0.926072 0
M  V30 5963 H 569.75 -6.39708 -1.03334 0
M  V30 5964 N 563.156 0.464375 -1.50603 0
M  V30 5965 C 564.567 1.04507 -1.5471 0
M  V30 5966 C 564.918 1.9297 -0.354542 0
M  V30 5967 O 564.043 2.09763 0.531812 0
M  V30 5968 C 564.638 1.90207 -2.80369 0
M  V30 5969 C 563.197 2.43373 -2.87135 0
M  V30 5970 C 562.344 1.21886 -2.49076 0
M  V30 5971 H 565.295 0.246716 -1.56771 0
M  V30 5972 H 565.316 2.75353 -2.62604 0
M  V30 5973 H 564.828 1.25796 -3.67147 0
M  V30 5974 H 562.929 3.11318 -2.04724 0
M  V30 5975 H 563.042 2.7802 -3.90181 0
M  V30 5976 H 561.406 1.55575 -2.01664 0
M  V30 5977 H 562.189 0.591268 -3.3817 0
M  V30 5978 N 564.634 1.40294 0.718013 0
M  V30 5979 C 566.045 1.34289 1.29705 0
M  V30 5980 C 566.396 0.0152228 1.96194 0
M  V30 5981 O 565.521 -0.88682 1.97394 0
M  V30 5982 C 566.116 2.43219 2.3586 0
M  V30 5983 C 564.675 2.40682 2.89394 0
M  V30 5984 C 563.822 2.24223 1.63154 0
M  V30 5985 H 566.773 1.50135 0.514312 0
M  V30 5986 H 566.794 2.10986 3.16647 0
M  V30 5987 H 566.306 3.39836 1.87439 0
M  V30 5988 H 564.407 1.47756 3.42051 0
M  V30 5989 H 564.52 3.36177 3.41353 0
M  V30 5990 H 562.884 1.71696 1.88129 0
M  V30 5991 H 563.667 3.22834 1.16761 0
M  V30 5992 N 566.112 -0.949982 1.2575 0
M  V30 5993 C 567.36 -1.6918 1.10555 0
M  V30 5994 C 567.681 -1.91773 -0.353298 0
M  V30 5995 O 566.951 -1.50814 -1.25027 0
M  V30 5996 H 565.531 -0.626952 0.406129 0
M  V30 5997 H 568.193 -1.1419 1.57945 0
M  V30 5998 H 567.289 -2.66915 1.61749 0
M  V30 5999 N 567.59 -1.07411 -1.15328 0
M  V30 6000 C 568.837 -0.797649 -1.86128 0
M  V30 6001 C 569.165 0.676298 -1.82364 0
M  V30 6002 O 568.42 1.51223 -1.24218 0
M  V30 6003 C 568.719 -1.25191 -3.34757 0
M  V30 6004 C 568.385 -2.73191 -3.58716 0
M  V30 6005 C 567.047 -3.13616 -3.64964 0
M  V30 6006 C 569.399 -3.68718 -3.6837 0
M  V30 6007 C 566.727 -4.48383 -3.78377 0
M  V30 6008 C 569.079 -5.03248 -3.83306 0
M  V30 6009 C 567.743 -5.43293 -3.878 0
M  V30 6010 H 567.013 -0.29188 -0.681092 0
M  V30 6011 H 569.66 -1.34524 -1.36292 0
M  V30 6012 H 567.965 -0.623712 -3.86804 0
M  V30 6013 H 569.662 -1.01489 -3.87945 0
M  V30 6014 H 566.252 -2.40898 -3.54494 0
M  V30 6015 H 570.436 -3.38614 -3.62842 0
M  V30 6016 H 565.692 -4.78877 -3.80114 0
M  V30 6017 H 569.866 -5.77142 -3.89718 0
M  V30 6018 H 567.493 -6.47721 -3.97946 0
M  V30 6019 N 569.068 1.32177 -0.85831 0
M  V30 6020 C 570.293 2.01847 -0.476718 0
M  V30 6021 C 570.718 1.64065 0.920021 0
M  V30 6022 O 570.076 0.843189 1.60499 0
M  V30 6023 C 570.124 3.55097 -0.627578 0
M  V30 6024 O 569.228 4.11012 0.338086 0
M  V30 6025 H 568.569 0.635907 -0.191099 0
M  V30 6026 H 571.099 1.68641 -1.15851 0
M  V30 6027 H 571.109 4.04718 -0.516476 0
M  V30 6028 H 569.784 3.81938 -1.64609 0
M  V30 6029 H 568.361 3.72451 0.182917 0
M  V30 6030 N 570.547 0.616602 1.45037 0
M  V30 6031 C 571.958 0.199359 1.85633 0
M  V30 6032 C 572.309 -1.24588 1.51566 0
M  V30 6033 O 571.434 -1.94594 0.94668 0
M  V30 6034 C 572.029 0.355033 3.36935 0
M  V30 6035 C 570.588 -0.00758748 3.76399 0
M  V30 6036 C 569.735 0.675256 2.68953 0
M  V30 6037 H 572.686 0.822708 1.3571 0
M  V30 6038 H 572.707 -0.410201 3.78282 0
M  V30 6039 H 572.219 1.40699 3.61698 0
M  V30 6040 H 570.32 -1.05837 3.57252 0
M  V30 6041 H 570.433 0.392346 4.77491 0
M  V30 6042 H 568.797 0.111992 2.54454 0
M  V30 6043 H 569.58 1.72952 2.96551 0
M  V30 6044 N 572.025 -1.5352 0.356285 0
M  V30 6045 C 573.272 -2.01117 -0.236303 0
M  V30 6046 C 573.6 -1.24381 -1.49531 0
M  V30 6047 O 572.855 -0.323057 -1.93015 0
M  V30 6048 C 573.154 -3.52607 -0.583369 0
M  V30 6049 C 572.82 -4.47151 0.58023 0
M  V30 6050 C 571.482 -4.72718 0.899528 0
M  V30 6051 C 573.834 -5.03137 1.36024 0
M  V30 6052 C 571.162 -5.51523 2.00098 0
M  V30 6053 C 573.514 -5.83145 2.45204 0
M  V30 6054 C 572.178 -6.07001 2.77679 0
M  V30 6055 H 571.448 -0.735938 -0.0864695 0
M  V30 6056 H 574.095 -1.85209 0.48683 0
M  V30 6057 H 572.4 -3.66413 -1.38739 0
M  V30 6058 H 574.097 -3.86901 -1.05397 0
M  V30 6059 H 570.687 -4.27394 0.321322 0
M  V30 6060 H 574.871 -4.83339 1.12682 0
M  V30 6061 H 570.127 -5.68229 2.25668 0
M  V30 6062 H 574.301 -6.25537 3.06067 0
M  V30 6063 H 571.928 -6.67851 3.63151 0
M  V30 6064 N 573.503 -0.0852151 -1.57369 0
M  V30 6065 C 574.919 0.271436 -1.57275 0
M  V30 6066 C 575.119 1.69109 -1.09565 0
M  V30 6067 O 574.175 2.40549 -0.767611 0
M  V30 6068 C 575.488 0.0688638 -3.00621 0
M  V30 6069 C 577.036 0.137373 -3.12698 0
M  V30 6070 C 577.511 -0.0370832 -4.57985 0
M  V30 6071 N 579.002 0.0180794 -4.63196 0
M  V30 6072 C 579.737 -0.0922953 -5.73326 0
M  V30 6073 N 579.233 -0.256948 -6.92323 0
M  V30 6074 N 581.026 -0.0342702 -5.6209 0
M  V30 6075 H 573.177 -1.01288 -1.86693 0
M  V30 6076 H 575.44 -0.396138 -0.861266 0
M  V30 6077 H 575.146 -0.911277 -3.39689 0
M  V30 6078 H 575.02 0.815442 -3.6828 0
M  V30 6079 H 577.407 1.10801 -2.73509 0
M  V30 6080 H 577.488 -0.640532 -2.47651 0
M  V30 6081 H 577.132 -1.00455 -4.97867 0
M  V30 6082 H 577.062 0.760392 -5.21081 0
M  V30 6083 H 579.553 0.143202 -3.77629 0
M  V30 6084 H 579.866 -0.332949 -7.72082 0
M  V30 6085 H 578.211 -0.292487 -6.94384 0
M  V30 6086 H 581.402 0.0931605 -4.68007 0
M  V30 6087 H 581.575 -0.12374 -6.47882 0
M  V30 6088 N 574.981 1.5647 0.188427 0
M  V30 6089 C 576.206 1.85486 0.927891 0
M  V30 6090 C 576.631 0.669575 1.75779 0
M  V30 6091 O 575.989 -0.381573 1.77239 0
M  V30 6092 C 576.037 3.12784 1.7944 0
M  V30 6093 O 575.141 2.93805 2.894 0
M  V30 6094 H 574.482 0.610585 0.260925 0
M  V30 6095 H 577.012 2.037 0.191729 0
M  V30 6096 H 577.022 3.43749 2.19774 0
M  V30 6097 H 575.697 3.98671 1.18468 0
M  V30 6098 H 574.274 2.74153 2.52774 0
M  V30 6099 N 576.459 -0.456382 1.50847 0
M  V30 6100 C 577.684 -1.2349 1.66628 0
M  V30 6101 C 578.109 -1.84715 0.355254 0
M  V30 6102 O 577.467 -1.67961 -0.682559 0
M  V30 6103 C 577.515 -2.30865 2.77009 0
M  V30 6104 O 576.619 -3.35882 2.39285 0
M  V30 6105 H 575.96 -0.36266 0.556214 0
M  V30 6106 H 578.49 -0.541374 1.97308 0
M  V30 6107 H 578.5 -2.75949 3.00526 0
M  V30 6108 H 577.175 -1.85677 3.72152 0
M  V30 6109 H 575.752 -2.96406 2.26269 0
M  V30 6110 N 577.937 -1.40673 -0.710563 0
M  V30 6111 C 579.353 -1.22813 -1.01928 0
M  V30 6112 C 579.553 -0.10687 -2.01216 0
M  V30 6113 O 578.609 0.533614 -2.46797 0
M  V30 6114 C 579.922 -2.57178 -1.5582 0
M  V30 6115 C 581.47 -2.64233 -1.67779 0
M  V30 6116 C 581.945 -3.98879 -2.25076 0
M  V30 6117 N 583.436 -4.00647 -2.32456 0
M  V30 6118 C 584.171 -5.01621 -2.77784 0
M  V30 6119 N 583.667 -6.12989 -3.22826 0
M  V30 6120 N 585.46 -4.88988 -2.77213 0
M  V30 6121 H 577.611 -2.12335 -0.05253 0
M  V30 6122 H 579.874 -0.9441 -0.085898 0
M  V30 6123 H 579.58 -3.39903 -0.903249 0
M  V30 6124 H 579.454 -2.78618 -2.54267 0
M  V30 6125 H 581.841 -1.81876 -2.3239 0
M  V30 6126 H 581.922 -2.46619 -0.679178 0
M  V30 6127 H 581.566 -4.81678 -1.61086 0
M  V30 6128 H 581.496 -4.13826 -3.25661 0
M  V30 6129 H 583.987 -3.20231 -2.0065 0
M  V30 6130 H 584.3 -6.85921 -3.55995 0
M  V30 6131 H 582.645 -6.16547 -3.20773 0
M  V30 6132 H 585.836 -4.01075 -2.41363 0
M  V30 6133 H 586.009 -5.67822 -3.12221 0
M  V30 6134 N 579.415 0.9433 -1.26252 0
M  V30 6135 C 580.664 1.68369 -1.11062 0
M  V30 6136 C 580.977 1.92514 0.346104 0
M  V30 6137 O 582.183 2.64358 0.618646 0
M  V30 6138 C 580.639 3.03171 -1.93946 0
M  V30 6139 C 580.247 2.86782 -3.4418 0
M  V30 6140 C 581.991 3.80916 -1.87359 0
M  V30 6141 C 579.898 4.17044 -4.19319 0
M  V30 6142 H 578.828 0.631469 -0.412023 0
M  V30 6143 H 581.479 1.04922 -1.50544 0
M  V30 6144 H 579.861 3.67587 -1.47296 0
M  V30 6145 H 581.035 2.31229 -3.98585 0
M  V30 6146 H 579.35 2.22482 -3.51981 0
M  V30 6147 H 581.947 4.77417 -2.40784 0
M  V30 6148 H 582.29 4.07658 -0.843857 0
M  V30 6149 H 582.823 3.2327 -2.31821 0
M  V30 6150 H 579.562 3.95487 -5.22753 0
M  V30 6151 H 579.082 4.72319 -3.69696 0
M  V30 6152 H 580.761 4.85513 -4.27651 0
M  V30 6153 N 580.893 1.08022 1.14757 0
M  V30 6154 C 582.141 0.805913 1.85336 0
M  V30 6155 C 582.462 -0.670162 1.83122 0
M  V30 6156 O 581.732 -1.48567 1.2769 0
M  V30 6157 H 580.312 0.295138 0.686223 0
M  V30 6158 H 582.974 1.36538 1.3908 0
M  V30 6159 H 582.07 1.14655 2.90277 0
M  V30 6160 N 582.371 -1.3172 0.865308 0
M  V30 6161 C 583.281 -2.32394 0.320935 0
M  V30 6162 C 584.297 -1.64511 -0.566746 0
M  V30 6163 O 585.473 -1.95969 -0.464575 0
M  V30 6164 C 582.538 -3.43462 -0.472701 0
M  V30 6165 C 581.599 -4.27015 0.442385 0
M  V30 6166 C 580.832 -5.32779 -0.313469 0
M  V30 6167 O 581.055 -5.49158 -1.54214 0
M  V30 6168 O 579.989 -6.01015 0.326257 0
M  V30 6169 H 583.815 -2.80868 1.15528 0
M  V30 6170 H 581.4 -1.35535 0.628545 0
M  V30 6171 H 583.282 -4.11172 -0.922781 0
M  V30 6172 H 581.957 -2.97159 -1.28367 0
M  V30 6173 H 580.864 -3.62075 0.940866 0
M  V30 6174 H 582.197 -4.76871 1.21882 0
M  V30 6175 N 583.85 -0.624285 -1.44708 0
M  V30 6176 C 585.099 -0.123539 -2.01321 0
M  V30 6177 C 585.412 1.25966 -1.49639 0
M  V30 6178 O 586.618 1.85405 -1.98336 0
M  V30 6179 C 585.074 -0.170124 -3.59498 0
M  V30 6180 C 584.682 -1.55421 -4.20176 0
M  V30 6181 C 586.426 0.274513 -4.23611 0
M  V30 6182 C 584.332 -1.55628 -5.70556 0
M  V30 6183 H 583.263 -0.0424183 -0.752806 0
M  V30 6184 H 585.913 -0.782076 -1.65999 0
M  V30 6185 H 584.296 0.555385 -3.92086 0
M  V30 6186 H 585.47 -2.30276 -3.99136 0
M  V30 6187 H 583.784 -1.94235 -3.68323 0
M  V30 6188 H 586.382 0.292402 -5.339 0
M  V30 6189 H 586.725 1.3005 -3.95465 0
M  V30 6190 H 587.258 -0.398275 -3.95801 0
M  V30 6191 H 583.997 -2.56041 -6.03426 0
M  V30 6192 H 583.517 -0.850563 -5.93739 0
M  V30 6193 H 585.196 -1.28721 -6.34066 0
M  V30 6194 N 585.328 1.53329 -0.364422 0
M  V30 6195 C 586.275 2.25698 0.482607 0
M  V30 6196 C 587.245 1.26325 1.07848 0
M  V30 6197 O 588.43 1.55104 1.11119 0
M  V30 6198 C 585.57 3.04873 1.61699 0
M  V30 6199 C 584.683 4.19135 1.0464 0
M  V30 6200 C 583.818 4.85754 2.14979 0
M  V30 6201 C 582.857 5.9205 1.5538 0
M  V30 6202 N 581.994 6.52365 2.59547 0
M  V30 6203 H 586.834 2.97666 -0.141032 0
M  V30 6204 H 584.371 1.46875 -0.0813692 0
M  V30 6205 H 586.329 3.49051 2.28516 0
M  V30 6206 H 584.959 2.35162 2.2113 0
M  V30 6207 H 584.011 3.79451 0.268553 0
M  V30 6208 H 585.323 4.95525 0.570653 0
M  V30 6209 H 584.477 5.3311 2.89619 0
M  V30 6210 H 583.216 4.08834 2.65906 0
M  V30 6211 H 582.221 5.44058 0.792549 0
M  V30 6212 H 583.446 6.7089 1.0528 0
M  V30 6213 H 581.392 5.78298 3.09689 0
M  V30 6214 H 581.309 7.2429 2.16655 0
M  V30 6215 H 582.577 7.0437 3.33892 0
M  V30 6216 N 586.806 0.0935595 1.57322 0
M  V30 6217 C 587.716 -0.880192 2.17462 0
M  V30 6218 C 588.732 -1.31135 1.14366 0
M  V30 6219 O 589.908 -1.37958 1.46729 0
M  V30 6220 C 586.973 -2.12184 2.74188 0
M  V30 6221 C 586.034 -1.74503 3.92234 0
M  V30 6222 C 585.267 -2.92748 4.46245 0
M  V30 6223 O 585.49 -4.07427 3.99198 0
M  V30 6224 O 584.424 -2.71303 5.37288 0
M  V30 6225 H 588.25 -0.398516 3.01074 0
M  V30 6226 H 585.835 -0.130707 1.48827 0
M  V30 6227 H 587.717 -2.84953 3.10451 0
M  V30 6228 H 586.392 -2.59407 1.93623 0
M  V30 6229 H 585.299 -0.989186 3.60785 0
M  V30 6230 H 586.632 -1.32044 4.74157 0
M  V30 6231 N 588.284 -1.56567 -0.180126 0
M  V30 6232 C 589.194 -1.98947 -1.24327 0
M  V30 6233 C 590.21 -0.899446 -1.4895 0
M  V30 6234 O 591.386 -1.20639 -1.61271 0
M  V30 6235 C 588.451 -2.33328 -2.56435 0
M  V30 6236 C 587.512 -3.56114 -2.39752 0
M  V30 6237 C 586.745 -3.88845 -3.65561 0
M  V30 6238 O 586.968 -3.22662 -4.70368 0
M  V30 6239 O 585.902 -4.82226 -3.60197 0
M  V30 6240 H 589.728 -2.89634 -0.913565 0
M  V30 6241 H 587.313 -1.44319 -0.386306 0
M  V30 6242 H 589.195 -2.5645 -3.34382 0
M  V30 6243 H 587.87 -1.45806 -2.89002 0
M  V30 6244 H 586.777 -3.38221 -1.59866 0
M  V30 6245 H 588.11 -4.4415 -2.12113 0
M  V30 6246 N 589.762 0.448376 -1.51087 0
M  V30 6247 C 590.99 1.22143 -1.66999 0
M  V30 6248 C 591.405 1.85283 -0.362699 0
M  V30 6249 O 590.762 1.70236 0.65772 0
M  V30 6250 C 590.813 2.31357 -2.7777 0
M  V30 6251 O 590.534 1.70801 -4.03434 0
M  V30 6252 C 592.035 3.21836 -3.04855 0
M  V30 6253 H 589.255 0.368558 -0.560719 0
M  V30 6254 H 591.799 0.532618 -1.97442 0
M  V30 6255 H 589.954 2.95973 -2.49958 0
M  V30 6256 H 590.368 2.42895 -4.64868 0
M  V30 6257 H 591.842 3.94627 -3.85971 0
M  V30 6258 H 592.319 3.81949 -2.16821 0
M  V30 6259 H 592.925 2.62933 -3.34285 0
M  V30 6260 N 591.24 1.41047 0.703093 0
M  V30 6261 C 592.468 1.4334 1.49202 0
M  V30 6262 C 592.883 0.0365596 1.88765 0
M  V30 6263 O 592.24 -0.942419 1.56284 0
M  V30 6264 C 592.291 2.33538 2.75939 0
M  V30 6265 O 592.012 3.67786 2.38045 0
M  V30 6266 C 593.513 2.44555 3.6974 0
M  V30 6267 H 590.733 0.488472 0.460039 0
M  V30 6268 H 593.277 1.85245 0.86629 0
M  V30 6269 H 591.432 1.94962 3.34766 0
M  V30 6270 H 591.846 4.15816 3.19683 0
M  V30 6271 H 593.32 3.11849 4.55471 0
M  V30 6272 H 593.797 1.47447 4.1371 0
M  V30 6273 H 594.403 2.83735 3.16819 0
M  V30 6274 N 592.718 -0.936591 1.26751 0
M  V30 6275 C 593.964 -1.6858 1.12733 0
M  V30 6276 C 594.297 -1.91414 -0.327745 0
M  V30 6277 O 593.572 -1.49812 -1.24043 0
M  V30 6278 C 593.855 -3.05779 1.90187 0
M  V30 6279 C 593.708 -2.90242 3.43627 0
M  V30 6280 C 595.027 -4.0597 1.69931 0
M  V30 6281 H 592.146 -0.61182 0.410908 0
M  V30 6282 H 594.788 -1.08747 1.55801 0
M  V30 6283 H 592.938 -3.56853 1.53584 0
M  V30 6284 H 594.61 -2.46354 3.9001 0
M  V30 6285 H 592.853 -2.2577 3.70419 0
M  V30 6286 H 593.524 -3.87572 3.93055 0
M  V30 6287 H 596 -3.63874 2.0183 0
M  V30 6288 H 594.876 -4.99974 2.26534 0
M  V30 6289 H 595.137 -4.37369 0.64502 0
M  V30 6290 N 594.196 -1.08629 -1.14182 0
M  V30 6291 C 595.421 -0.83902 -1.89671 0
M  V30 6292 C 595.846 0.603332 -1.78161 0
M  V30 6293 O 595.204 1.42301 -1.12339 0
M  V30 6294 C 595.252 -1.26854 -3.37551 0
M  V30 6295 O 594.356 -0.42188 -4.10236 0
M  V30 6296 H 593.697 -0.304545 -0.590041 0
M  V30 6297 H 596.227 -1.4483 -1.44518 0
M  V30 6298 H 596.237 -1.25038 -3.88368 0
M  V30 6299 H 594.912 -2.31901 -3.45246 0
M  V30 6300 H 593.489 -0.503654 -3.69483 0
M  V30 6301 N 595.674 1.31259 -0.872281 0
M  V30 6302 C 597.085 1.78822 -0.536617 0
M  V30 6303 C 597.436 1.71855 0.946594 0
M  V30 6304 O 596.561 1.28769 1.73918 0
M  V30 6305 C 597.156 3.24698 -0.967294 0
M  V30 6306 C 595.715 3.70147 -0.683251 0
M  V30 6307 C 594.862 2.51994 -1.15733 0
M  V30 6308 H 597.813 1.18308 -1.05777 0
M  V30 6309 H 597.834 3.79386 -0.290929 0
M  V30 6310 H 597.346 3.29737 -2.04683 0
M  V30 6311 H 595.447 3.70607 0.384825 0
M  V30 6312 H 595.56 4.62183 -1.2619 0
M  V30 6313 H 593.924 2.48078 -0.577024 0
M  V30 6314 H 594.707 2.59778 -2.24434 0
M  V30 6315 N 597.152 0.631951 1.44375 0
M  V30 6316 C 598.563 0.219036 1.85411 0
M  V30 6317 C 598.914 -1.22974 1.52879 0
M  V30 6318 O 598.039 -1.93579 0.967266 0
M  V30 6319 C 598.634 0.39075 3.36539 0
M  V30 6320 C 597.193 0.0323351 3.76386 0
M  V30 6321 C 596.34 0.703744 2.68221 0
M  V30 6322 H 599.291 0.837056 1.3483 0
M  V30 6323 H 599.312 -0.370056 3.78696 0
M  V30 6324 H 598.824 1.44527 3.60185 0
M  V30 6325 H 596.925 -1.02042 3.58355 0
M  V30 6326 H 597.038 0.442969 4.77048 0
M  V30 6327 H 595.402 0.138974 2.54321 0
M  V30 6328 H 596.185 1.76088 2.947 0
M  V30 6329 N 598.631 -1.53133 0.372548 0
M  V30 6330 C 599.581 -2.22733 -0.487218 0
M  V30 6331 C 600.565 -1.22506 -1.04312 0
M  V30 6332 O 601.757 -1.47923 -0.972005 0
M  V30 6333 C 598.886 -3.02524 -1.62278 0
M  V30 6334 C 597.972 -4.10133 -1.07943 0
M  V30 6335 N 598.363 -5.05133 -0.259629 0
M  V30 6336 C 596.661 -4.24964 -1.35356 0
M  V30 6337 C 597.362 -5.81687 0.0386656 0
M  V30 6338 N 596.338 -5.40699 -0.560827 0
M  V30 6339 H 600.14 -2.93538 0.145853 0
M  V30 6340 H 597.654 -1.61389 0.180938 0
M  V30 6341 H 599.651 -3.50909 -2.25096 0
M  V30 6342 H 598.311 -2.33252 -2.25884 0
M  V30 6343 H 599.322 -5.178 0.101746 0
M  V30 6344 H 595.999 -3.66919 -1.9919 0
M  V30 6345 H 597.389 -6.68224 0.701841 0
M  V30 6346 N 600.109 -0.101901 -1.5727 0
M  V30 6347 C 601.337 0.568392 -1.98939 0
M  V30 6348 C 601.752 1.61301 -0.981194 0
M  V30 6349 O 601.109 1.82478 0.0282869 0
M  V30 6350 C 601.16 1.20997 -3.40649 0
M  V30 6351 O 600.881 0.207129 -4.3761 0
M  V30 6352 C 602.382 1.96523 -3.97358 0
M  V30 6353 H 599.602 0.15186 -0.65359 0
M  V30 6354 H 602.146 -0.183198 -2.03678 0
M  V30 6355 H 600.301 1.91245 -3.36904 0
M  V30 6356 H 600.715 0.671071 -5.20189 0
M  V30 6357 H 602.189 2.36764 -4.98645 0
M  V30 6358 H 602.666 2.83376 -3.35552 0
M  V30 6359 H 603.272 1.31076 -4.04598 0
M  V30 6360 N 601.587 1.56661 0.17182 0
M  V30 6361 C 602.812 1.86459 0.908165 0
M  V30 6362 C 603.237 0.688181 1.75059 0
M  V30 6363 O 602.595 -0.362753 1.77634 0
M  V30 6364 C 602.643 3.14669 1.76112 0
M  V30 6365 O 601.747 2.96858 2.86268 0
M  V30 6366 H 601.088 0.613318 0.254434 0
M  V30 6367 H 603.618 2.03892 0.170113 0
M  V30 6368 H 603.628 3.46061 2.16115 0
M  V30 6369 H 602.303 3.99905 1.14233 0
M  V30 6370 H 600.88 2.76819 2.49852 0
M  V30 6371 N 603.065 -0.440357 1.51323 0
M  V30 6372 C 603.998 -1.55414 1.67098 0
M  V30 6373 C 604.976 -1.54108 0.518599 0
M  V30 6374 O 606.16 -1.7328 0.742054 0
M  V30 6375 C 603.287 -2.93996 1.68179 0
M  V30 6376 C 602.333 -3.13338 2.89347 0
M  V30 6377 S 603.166 -2.89957 4.50206 0
M  V30 6378 C 604.322 -4.30826 4.54027 0
M  V30 6379 H 604.555 -1.41798 2.61306 0
M  V30 6380 H 602.088 -0.629841 1.40969 0
M  V30 6381 H 604.046 -3.73878 1.69487 0
M  V30 6382 H 602.707 -3.04976 0.751542 0
M  V30 6383 H 601.9 -4.14652 2.86495 0
M  V30 6384 H 601.502 -2.41276 2.85766 0
M  V30 6385 H 603.794 -5.23977 4.29481 0
M  V30 6386 H 604.737 -4.38712 5.55822 0
M  V30 6387 H 605.145 -4.1434 3.83384 0
M  V30 6388 N 604.543 -1.41418 -0.695603 0
M  V30 6389 C 605.506 -1.42988 -1.79129 0
M  V30 6390 C 606.506 -0.320514 -1.57573 0
M  V30 6391 O 607.696 -0.58039 -1.64247 0
M  V30 6392 C 604.828 -1.24122 -3.175 0
M  V30 6393 H 606.021 -2.40526 -1.7913 0
M  V30 6394 H 603.574 -1.2756 -0.903225 0
M  V30 6395 H 604.309 -0.274253 -3.23138 0
M  V30 6396 H 604.094 -2.045 -3.34547 0
M  V30 6397 H 605.584 -1.28056 -3.97481 0
M  V30 6398 N 606.021 0.929856 -1.27246 0
M  V30 6399 C 607.432 1.49223 -1.12203 0
M  V30 6400 C 607.783 1.93989 0.293731 0
M  V30 6401 O 606.908 1.80978 1.18642 0
M  V30 6402 C 607.503 2.71198 -2.0307 0
M  V30 6403 C 606.062 3.23666 -1.92139 0
M  V30 6404 C 605.209 1.96409 -1.95752 0
M  V30 6405 H 608.16 0.744181 -1.4017 0
M  V30 6406 H 608.181 3.45905 -1.58524 0
M  V30 6407 H 607.693 2.38585 -3.06102 0
M  V30 6408 H 605.794 3.61042 -0.920834 0
M  V30 6409 H 605.907 3.90006 -2.78267 0
M  V30 6410 H 604.271 2.12806 -1.39949 0
M  V30 6411 H 605.054 1.66113 -3.00436 0
M  V30 6412 N 607.499 1.09233 1.13605 0
M  V30 6413 C 608.462 0.733553 2.17144 0
M  V30 6414 C 609.462 -0.235873 1.59061 0
M  V30 6415 O 610.652 -0.0143167 1.74194 0
M  V30 6416 C 607.784 0.084471 3.40795 0
M  V30 6417 H 608.977 1.65049 2.50397 0
M  V30 6418 H 606.53 0.891264 1.28399 0
M  V30 6419 H 607.265 -0.843795 3.1313 0
M  V30 6420 H 607.05 0.781985 3.84223 0
M  V30 6421 H 608.54 -0.151216 4.17326 0
M  V30 6422 N 608.977 -1.30795 0.87923 0
M  V30 6423 C 609.909 -2.27241 0.299025 0
M  V30 6424 C 610.922 -1.53472 -0.543166 0
M  V30 6425 O 612.111 -1.74756 -0.363651 0
M  V30 6426 C 609.211 -3.33655 -0.593931 0
M  V30 6427 C 608.384 -4.36857 0.2179 0
M  V30 6428 C 607.443 -5.22715 -0.604646 0
M  V30 6429 O 606.469 -5.69192 -0.0293838 0
M  V30 6430 N 607.671 -5.48008 -1.91488 0
M  V30 6431 H 610.436 -2.77667 1.12788 0
M  V30 6432 H 607.997 -1.43914 0.741637 0
M  V30 6433 H 609.989 -3.88013 -1.15012 0
M  V30 6434 H 608.559 -2.83202 -1.32346 0
M  V30 6435 H 607.779 -3.82444 0.955536 0
M  V30 6436 H 609.067 -5.02869 0.774614 0
M  V30 6437 H 608.465 -5.1202 -2.40525 0
M  V30 6438 H 607.022 -6.05264 -2.41864 0
M  V30 6439 N 610.455 -0.639598 -1.44038 0
M  V30 6440 C 611.732 -0.078012 -1.95444 0
M  V30 6441 C 612.112 1.39847 -1.58133 0
M  V30 6442 O 611.46 2.11714 -0.859614 0
M  V30 6443 C 611.67 -0.309832 -3.47622 0
M  V30 6444 C 613.018 -0.207521 -4.24093 0
M  V30 6445 O 614.042 -0.241653 -3.55379 0
M  V30 6446 O 612.901 -0.119641 -5.46369 0
M  V30 6447 H 609.995 0.0174534 -0.826816 0
M  V30 6448 H 612.541 -0.711891 -1.54046 0
M  V30 6449 H 611.313 -1.33401 -3.67858 0
M  V30 6450 H 610.936 0.357777 -3.95987 0
M  V30 6451 N 611.933 1.52934 -0.380664 0
M  V30 6452 C 612.843 2.29921 0.466192 0
M  V30 6453 C 613.859 1.36488 1.07922 0
M  V30 6454 O 615.035 1.69553 1.0869 0
M  V30 6455 C 612.1 3.08468 1.58266 0
M  V30 6456 C 611.161 4.17595 0.995627 0
M  V30 6457 C 610.394 4.92387 2.05889 0
M  V30 6458 O 610.617 4.67184 3.27254 0
M  V30 6459 O 609.551 5.77949 1.68102 0
M  V30 6460 H 613.377 3.03274 -0.160735 0
M  V30 6461 H 610.962 1.48698 -0.144617 0
M  V30 6462 H 612.844 3.57469 2.23145 0
M  V30 6463 H 611.519 2.37937 2.19471 0
M  V30 6464 H 610.426 3.72811 0.310332 0
M  V30 6465 H 611.759 4.90336 0.427918 0
M  V30 6466 N 613.412 0.11024 1.57214 0
M  V30 6467 C 614.322 -0.857077 2.18383 0
M  V30 6468 C 615.338 -1.29915 1.1575 0
M  V30 6469 O 616.514 -1.36394 1.48184 0
M  V30 6470 C 613.579 -2.09264 2.76423 0
M  V30 6471 C 612.64 -1.70333 3.94063 0
M  V30 6472 C 611.873 -2.87999 4.49324 0
M  V30 6473 O 612.096 -4.0317 4.03497 0
M  V30 6474 O 611.03 -2.6559 5.40135 0
M  V30 6475 H 614.856 -0.366561 3.0148 0
M  V30 6476 H 612.441 -0.114914 1.48957 0
M  V30 6477 H 614.323 -2.81644 3.13456 0
M  V30 6478 H 612.998 -2.57339 1.96363 0
M  V30 6479 H 611.905 -0.950864 3.61814 0
M  V30 6480 H 613.238 -1.27007 4.75531 0
M  V30 6481 N 614.89 -1.56749 -0.16351 0
M  V30 6482 C 616.306 -1.51043 -0.515567 0
M  V30 6483 C 616.506 -0.815855 -1.84245 0
M  V30 6484 O 615.562 -0.379477 -2.49632 0
M  V30 6485 C 616.875 -2.95791 -0.541114 0
M  V30 6486 C 618.423 -3.0664 -0.627776 0
M  V30 6487 C 618.898 -4.52861 -0.684141 0
M  V30 6488 N 620.389 -4.5714 -0.746818 0
M  V30 6489 C 621.124 -5.67634 -0.811137 0
M  V30 6490 N 620.62 -6.8774 -0.835811 0
M  V30 6491 N 622.413 -5.55624 -0.850756 0
M  V30 6492 H 614.564 -2.00307 0.70645 0
M  V30 6493 H 616.827 -0.912876 0.255659 0
M  V30 6494 H 616.533 -3.49797 0.365329 0
M  V30 6495 H 616.407 -3.50858 -1.38487 0
M  V30 6496 H 618.794 -2.52663 -1.52464 0
M  V30 6497 H 618.875 -2.54645 0.242805 0
M  V30 6498 H 618.519 -5.07472 0.2085 0
M  V30 6499 H 618.449 -5.02621 -1.57098 0
M  V30 6500 H 620.94 -3.70669 -0.735717 0
M  V30 6501 H 621.253 -7.67701 -0.886279 0
M  V30 6502 H 619.598 -6.90334 -0.803958 0
M  V30 6503 H 622.789 -4.60709 -0.828535 0
M  V30 6504 H 622.962 -6.41756 -0.897418 0
M  V30 6505 N 616.368 0.432326 -1.51554 0
M  V30 6506 C 617.645 1.19288 -1.55015 0
M  V30 6507 C 618.025 2.08701 -0.317375 0
M  V30 6508 O 617.373 2.17602 0.697243 0
M  V30 6509 C 617.583 1.99037 -2.86679 0
M  V30 6510 C 618.931 2.55907 -3.38817 0
M  V30 6511 O 619.955 2.09243 -2.88263 0
M  V30 6512 O 618.814 3.41029 -4.27038 0
M  V30 6513 H 615.908 0.543369 -0.623441 0
M  V30 6514 H 618.454 0.440988 -1.6387 0
M  V30 6515 H 617.226 1.33397 -3.6786 0
M  V30 6516 H 616.849 2.81281 -2.8101 0
M  V30 6517 N 617.846 1.41785 0.688094 0
M  V30 6518 C 619.071 1.45117 1.48175 0
M  V30 6519 C 619.496 0.060129 1.88004 0
M  V30 6520 O 618.854 -0.938385 1.55126 0
M  V30 6521 C 618.902 2.37224 2.71583 0
M  V30 6522 O 618.006 1.83443 3.69354 0
M  V30 6523 H 617.347 0.492208 0.445676 0
M  V30 6524 H 619.877 1.86329 0.845145 0
M  V30 6525 H 619.887 2.53353 3.19806 0
M  V30 6526 H 618.562 3.38293 2.41931 0
M  V30 6527 H 617.139 1.76802 3.28322 0
M  V30 6528 N 619.324 -0.923095 1.27737 0
M  V30 6529 C 620.572 -1.66797 1.14119 0
M  V30 6530 C 620.893 -1.92479 -0.312541 0
M  V30 6531 O 620.163 -1.53432 -1.218 0
M  V30 6532 H 618.743 -0.618196 0.419336 0
M  V30 6533 H 621.405 -1.10815 1.60331 0
M  V30 6534 H 620.501 -2.63424 1.67374 0
M  V30 6535 N 620.802 -1.09834 -1.13024 0
M  V30 6536 C 621.749 -0.741522 -2.18564 0
M  V30 6537 C 622.719 0.279236 -1.63736 0
M  V30 6538 O 623.904 0.159923 -1.90129 0
M  V30 6539 C 621.044 -0.17277 -3.44667 0
M  V30 6540 C 620.157 -1.24808 -4.13578 0
M  V30 6541 C 619.292 -0.641631 -5.27311 0
M  V30 6542 C 618.331 -1.69795 -5.88078 0
M  V30 6543 N 617.468 -1.11223 -6.93234 0
M  V30 6544 H 622.308 -1.64576 -2.48432 0
M  V30 6545 H 619.845 -0.822174 -1.21978 0
M  V30 6546 H 621.803 0.17482 -4.16834 0
M  V30 6547 H 620.433 0.694725 -3.15235 0
M  V30 6548 H 619.485 -1.71288 -3.39653 0
M  V30 6549 H 620.797 -2.04795 -4.54819 0
M  V30 6550 H 619.951 -0.243128 -6.06213 0
M  V30 6551 H 618.69 0.189742 -4.87331 0
M  V30 6552 H 617.695 -2.10595 -5.07868 0
M  V30 6553 H 618.92 -2.53206 -6.3013 0
M  V30 6554 H 616.866 -0.302208 -6.55304 0
M  V30 6555 H 616.783 -1.84901 -7.3304 0
M  V30 6556 H 618.051 -0.740068 -7.75979 0
M  V30 6557 N 622.28 1.30327 -0.886154 0
M  V30 6558 C 623.19 2.31854 -0.357866 0
M  V30 6559 C 624.206 1.65392 0.540502 0
M  V30 6560 O 625.382 1.96683 0.433339 0
M  V30 6561 C 622.447 3.44171 0.417999 0
M  V30 6562 C 621.508 4.26257 -0.510263 0
M  V30 6563 C 620.741 5.3321 0.228669 0
M  V30 6564 O 620.964 5.51542 1.45458 0
M  V30 6565 O 619.898 6.0042 -0.421832 0
M  V30 6566 H 623.724 2.78995 -1.19982 0
M  V30 6567 H 621.309 1.34518 -0.650028 0
M  V30 6568 H 623.191 4.12588 0.857251 0
M  V30 6569 H 621.866 2.99164 1.23623 0
M  V30 6570 H 620.773 3.60533 -0.99835 0
M  V30 6571 H 622.106 4.74871 -1.29454 0
M  V30 6572 N 623.758 0.647228 1.43697 0
M  V30 6573 C 624.69 -0.0866232 2.29036 0
M  V30 6574 C 625.703 -0.793051 1.42178 0
M  V30 6575 O 626.892 -0.651807 1.66174 0
M  V30 6576 C 623.992 -1.14552 3.18953 0
M  V30 6577 C 623.165 -0.518422 4.34317 0
M  V30 6578 C 622.224 -1.4734 5.05151 0
M  V30 6579 O 621.25 -0.984312 5.60625 0
M  V30 6580 N 622.452 -2.8075 5.08094 0
M  V30 6581 H 625.217 0.645834 2.92659 0
M  V30 6582 H 622.778 0.489567 1.54321 0
M  V30 6583 H 624.77 -1.78505 3.63205 0
M  V30 6584 H 623.34 -1.78001 2.56971 0
M  V30 6585 H 622.56 0.300079 3.93056 0
M  V30 6586 H 623.848 -0.080401 5.08736 0
M  V30 6587 H 623.246 -3.23052 4.64386 0
M  V30 6588 H 621.803 -3.40022 5.56083 0
M  V30 6589 N 625.236 -1.5273 0.388769 0
M  V30 6590 C 626.484 -2.01174 -0.193208 0
M  V30 6591 C 626.805 -1.27705 -1.47365 0
M  V30 6592 O 626.075 -0.396966 -1.91836 0
M  V30 6593 H 624.655 -0.743287 -0.0743871 0
M  V30 6594 H 627.317 -1.87826 0.520336 0
M  V30 6595 H 626.413 -3.09477 -0.403803 0
M  V30 6596 N 626.714 -0.118576 -1.57153 0
M  V30 6597 C 627.664 0.842924 -2.11846 0
M  V30 6598 C 628.648 1.22845 -1.03914 0
M  V30 6599 O 629.84 1.19961 -1.30148 0
M  V30 6600 C 626.969 2.09312 -2.72109 0
M  V30 6601 C 626.055 1.73198 -3.87122 0
M  V30 6602 N 626.446 1.07758 -4.94188 0
M  V30 6603 C 624.744 2.02659 -3.97298 0
M  V30 6604 C 625.445 0.907741 -5.74574 0
M  V30 6605 N 624.421 1.4326 -5.24383 0
M  V30 6606 H 628.223 0.333416 -2.92003 0
M  V30 6607 H 625.737 0.0839073 -1.62183 0
M  V30 6608 H 627.734 2.79162 -3.09635 0
M  V30 6609 H 626.394 2.60807 -1.93416 0
M  V30 6610 H 627.405 0.741613 -5.12563 0
M  V30 6611 H 624.082 2.56204 -3.29645 0
M  V30 6612 H 625.472 0.394112 -6.70743 0
M  V30 6613 N 628.193 1.56834 0.155195 0
M  V30 6614 C 629.421 1.87049 0.884326 0
M  V30 6615 C 629.836 0.705839 1.7511 0
M  V30 6616 O 629.193 -0.324641 1.79589 0
M  V30 6617 C 629.244 3.1644 1.74781 0
M  V30 6618 O 628.965 4.28417 0.915978 0
M  V30 6619 C 630.466 3.60113 2.58522 0
M  V30 6620 H 627.686 0.620196 0.25612 0
M  V30 6621 H 630.23 2.03946 0.150445 0
M  V30 6622 H 628.385 3.01321 2.43484 0
M  V30 6623 H 628.799 5.02353 1.50803 0
M  V30 6624 H 630.273 4.53508 3.14698 0
M  V30 6625 H 630.75 2.85005 3.34169 0
M  V30 6626 H 631.356 3.77898 1.95124 0
M  V30 6627 N 629.671 -0.424282 1.51781 0
M  V30 6628 C 631.087 -0.761768 1.40247 0
M  V30 6629 C 631.287 -1.95324 0.495041 0
M  V30 6630 O 630.343 -2.5246 -0.0448949 0
M  V30 6631 C 631.656 -1.0299 2.82513 0
M  V30 6632 C 633.204 -1.13354 2.91753 0
M  V30 6633 C 633.679 -1.43453 4.34954 0
M  V30 6634 N 635.17 -1.5035 4.3812 0
M  V30 6635 C 635.905 -1.75236 5.45967 0
M  V30 6636 N 635.401 -1.97827 6.63955 0
M  V30 6637 N 637.194 -1.77126 5.33463 0
M  V30 6638 H 629.345 0.360228 2.09323 0
M  V30 6639 H 631.608 0.0988128 0.942836 0
M  V30 6640 H 631.314 -0.226961 3.50967 0
M  V30 6641 H 631.188 -1.95411 3.22637 0
M  V30 6642 H 633.575 -1.92709 2.23489 0
M  V30 6643 H 633.656 -0.188041 2.55108 0
M  V30 6644 H 633.3 -0.646209 5.03772 0
M  V30 6645 H 633.23 -2.3923 4.69123 0
M  V30 6646 H 635.721 -1.34742 3.53062 0
M  V30 6647 H 636.034 -2.16223 7.41935 0
M  V30 6648 H 634.379 -1.95123 6.67047 0
M  V30 6649 H 637.57 -1.59005 4.40267 0
M  V30 6650 H 637.743 -1.96182 6.17589 0
M  V30 6651 N 631.149 -1.42148 -0.680565 0
M  V30 6652 C 632.565 -1.24947 -0.992995 0
M  V30 6653 C 632.765 -0.149527 -2.00944 0
M  V30 6654 O 631.821 0.481145 -2.47873 0
M  V30 6655 C 633.134 -2.60426 -1.5033 0
M  V30 6656 C 634.682 -2.67733 -1.62137 0
M  V30 6657 C 635.157 -4.03564 -2.16565 0
M  V30 6658 N 636.648 -4.05488 -2.23905 0
M  V30 6659 C 637.383 -5.07401 -2.67081 0
M  V30 6660 N 636.879 -6.19698 -3.09751 0
M  V30 6661 N 638.672 -4.94758 -2.66778 0
M  V30 6662 H 630.823 -2.12399 -0.0074788 0
M  V30 6663 H 633.086 -0.94571 -0.0658529 0
M  V30 6664 H 632.792 -3.41743 -0.830947 0
M  V30 6665 H 632.666 -2.83949 -2.483 0
M  V30 6666 H 635.053 -1.86765 -2.2848 0
M  V30 6667 H 635.134 -2.48004 -0.626713 0
M  V30 6668 H 634.778 -4.84987 -1.50833 0
M  V30 6669 H 634.708 -4.20641 -3.1681 0
M  V30 6670 H 637.199 -3.24415 -1.93812 0
M  V30 6671 H 637.512 -6.93318 -3.41365 0
M  V30 6672 H 635.857 -6.23212 -3.07623 0
M  V30 6673 H 639.048 -4.06105 -2.32801 0
M  V30 6674 H 639.221 -5.74317 -3.00107 0
M  V30 6675 N 632.627 0.916307 -1.28225 0
M  V30 6676 C 633.577 2.00488 -1.08574 0
M  V30 6677 C 634.561 1.60897 -0.0101874 0
M  V30 6678 O 635.753 1.75499 -0.230034 0
M  V30 6679 C 632.882 3.35076 -0.746943 0
M  V30 6680 C 631.968 3.81077 -1.86121 0
M  V30 6681 N 632.359 3.99475 -3.10247 0
M  V30 6682 C 630.657 4.10212 -1.75048 0
M  V30 6683 C 631.358 4.37965 -3.82834 0
M  V30 6684 N 630.334 4.4608 -3.10667 0
M  V30 6685 H 634.136 2.1276 -2.02757 0
M  V30 6686 H 631.65 1.10397 -1.19107 0
M  V30 6687 H 633.647 4.12743 -0.587252 0
M  V30 6688 H 632.307 3.2416 0.187146 0
M  V30 6689 H 633.318 3.85466 -3.45885 0
M  V30 6690 H 629.995 4.07947 -0.887999 0
M  V30 6691 H 631.385 4.60183 -4.89572 0
M  V30 6692 N 634.105 1.10431 1.1244 0
M  V30 6693 C 635.382 0.758797 1.80282 0
M  V30 6694 C 635.762 -0.754727 1.97147 0
M  V30 6695 O 635.11 -1.68094 1.54779 0
M  V30 6696 C 635.32 1.50982 3.14651 0
M  V30 6697 C 636.668 1.68232 3.8985 0
M  V30 6698 O 637.692 1.47319 3.24308 0
M  V30 6699 O 636.551 2.02905 5.07437 0
M  V30 6700 H 633.645 0.273756 0.780376 0
M  V30 6701 H 636.191 1.20713 1.19275 0
M  V30 6702 H 634.963 2.53989 2.97666 0
M  V30 6703 H 634.586 1.05435 3.83366 0
M  V30 6704 N 635.583 -1.29855 0.893053 0
M  V30 6705 C 636.829 -1.96488 0.52574 0
M  V30 6706 C 637.184 -1.69164 -0.916594 0
M  V30 6707 O 636.477 -0.990405 -1.64017 0
M  V30 6708 C 636.671 -3.49515 0.746588 0
M  V30 6709 C 636.5 -3.91715 2.20884 0
M  V30 6710 C 635.27 -4.16915 2.85499 0
M  V30 6711 C 637.468 -4.03934 3.18342 0
M  V30 6712 N 635.45 -4.45634 4.22236 0
M  V30 6713 C 636.821 -4.36629 4.40176 0
M  V30 6714 C 638.876 -3.86387 3.14021 0
M  V30 6715 C 637.579 -4.53605 5.58243 0
M  V30 6716 C 639.605 -4.04569 4.31367 0
M  V30 6717 C 638.967 -4.37617 5.5197 0
M  V30 6718 H 635.066 -0.743657 0.241863 0
M  V30 6719 H 637.65 -1.56927 1.15248 0
M  V30 6720 H 635.821 -3.88113 0.149281 0
M  V30 6721 H 637.553 -4.03224 0.345372 0
M  V30 6722 H 634.308 -4.10423 2.36326 0
M  V30 6723 H 634.732 -4.64114 4.92876 0
M  V30 6724 H 639.374 -3.59906 2.21873 0
M  V30 6725 H 637.092 -4.78925 6.50889 0
M  V30 6726 H 640.678 -3.92452 4.29503 0
M  V30 6727 H 639.558 -4.51395 6.41258 0
M  V30 6728 N 637.061 -0.65484 -1.43351 0
M  V30 6729 C 638.309 -0.168559 -2.01396 0
M  V30 6730 C 638.63 1.22235 -1.51933 0
M  V30 6731 O 637.9 1.81685 -0.732627 0
M  V30 6732 H 636.48 -0.0593244 -0.744641 0
M  V30 6733 H 639.142 -0.846871 -1.75539 0
M  V30 6734 H 638.238 -0.154428 -3.11718 0
M  V30 6735 N 638.539 1.52521 -0.396863 0
M  V30 6736 C 639.489 2.2348 0.451722 0
M  V30 6737 C 640.473 1.2415 1.0235 0
M  V30 6738 O 641.665 1.4945 0.948348 0
M  V30 6739 C 638.794 3.05067 1.57445 0
M  V30 6740 C 637.88 4.11799 1.01404 0
M  V30 6741 N 638.271 5.05482 0.179234 0
M  V30 6742 C 636.569 4.27064 1.28578 0
M  V30 6743 C 637.27 5.81552 -0.131202 0
M  V30 6744 N 636.246 5.41523 0.474735 0
M  V30 6745 H 640.048 2.93269 -0.192534 0
M  V30 6746 H 637.562 1.61081 -0.206591 0
M  V30 6747 H 639.559 3.54446 2.19485 0
M  V30 6748 H 638.219 2.36816 2.22145 0
M  V30 6749 H 639.23 5.17573 -0.18411 0
M  V30 6750 H 635.907 3.70042 1.93327 0
M  V30 6751 H 637.297 6.67023 -0.808061 0
M  V30 6752 N 640.017 0.126909 1.57088 0
M  V30 6753 C 640.927 -0.833867 2.1928 0
M  V30 6754 C 641.943 -1.2868 1.17122 0
M  V30 6755 O 643.119 -1.34815 1.49622 0
M  V30 6756 C 640.184 -2.0632 2.78627 0
M  V30 6757 C 639.245 -1.66143 3.95847 0
M  V30 6758 C 638.478 -2.83217 4.52354 0
M  V30 6759 O 638.701 -3.98868 4.0775 0
M  V30 6760 O 637.635 -2.59846 5.42922 0
M  V30 6761 H 641.461 -0.334564 3.01852 0
M  V30 6762 H 639.046 -0.0991091 1.49071 0
M  V30 6763 H 640.928 -2.78304 3.16425 0
M  V30 6764 H 639.603 -2.55242 1.99082 0
M  V30 6765 H 638.51 -0.912435 3.62802 0
M  V30 6766 H 639.843 -1.21957 4.76852 0
M  V30 6767 N 641.495 -1.56914 -0.146875 0
M  V30 6768 C 642.442 -1.98275 -1.18134 0
M  V30 6769 C 643.412 -0.850367 -1.42681 0
M  V30 6770 O 644.597 -1.11244 -1.55014 0
M  V30 6771 C 641.737 -2.36861 -2.5098 0
M  V30 6772 C 640.85 -3.63391 -2.33605 0
M  V30 6773 C 639.985 -3.91079 -3.59486 0
M  V30 6774 C 639.024 -5.10879 -3.37149 0
M  V30 6775 N 638.161 -5.34577 -4.55161 0
M  V30 6776 H 643.001 -2.8645 -0.821622 0
M  V30 6777 H 640.538 -1.41718 -0.394248 0
M  V30 6778 H 642.496 -2.57262 -3.28439 0
M  V30 6779 H 641.126 -1.51766 -2.84898 0
M  V30 6780 H 640.178 -3.50766 -1.47199 0
M  V30 6781 H 641.49 -4.51007 -2.13059 0
M  V30 6782 H 640.644 -4.11979 -4.45374 0
M  V30 6783 H 639.383 -3.01885 -3.83036 0
M  V30 6784 H 638.388 -4.89853 -2.49649 0
M  V30 6785 H 639.613 -6.01626 -3.14997 0
M  V30 6786 H 637.559 -4.48337 -4.78884 0
M  V30 6787 H 637.476 -6.16463 -4.37618 0
M  V30 6788 H 638.744 -5.59975 -5.42263 0
M  V30 6789 N 642.974 0.416227 -1.52004 0
M  V30 6790 C 643.906 1.52552 -1.71058 0
M  V30 6791 C 644.919 1.51693 -0.59102 0
M  V30 6792 O 646.108 1.56087 -0.865973 0
M  V30 6793 C 643.208 2.91455 -1.72937 0
M  V30 6794 C 642.381 3.16584 -3.01816 0
M  V30 6795 C 641.44 4.35322 -2.95603 0
M  V30 6796 O 640.466 4.32947 -3.6952 0
M  V30 6797 N 641.668 5.40049 -2.12903 0
M  V30 6798 H 644.433 1.36604 -2.66757 0
M  V30 6799 H 641.994 0.60544 -1.50153 0
M  V30 6800 H 643.986 3.68944 -1.66321 0
M  V30 6801 H 642.556 3.00895 -0.847418 0
M  V30 6802 H 641.776 2.27203 -3.22137 0
M  V30 6803 H 643.064 3.30213 -3.87088 0
M  V30 6804 H 642.462 5.44823 -1.52265 0
M  V30 6805 H 641.019 6.16308 -2.1215 0
M  V30 6806 N 644.452 1.42507 0.673017 0
M  V30 6807 C 645.868 1.25472 0.986355 0
M  V30 6808 C 646.068 0.160181 2.00862 0
M  V30 6809 O 645.124 -0.467993 2.48125 0
M  V30 6810 C 646.437 2.61219 1.48947 0
M  V30 6811 C 647.985 2.68589 1.60715 0
M  V30 6812 C 648.46 4.04707 2.14422 0
M  V30 6813 N 649.951 4.0667 2.21752 0
M  V30 6814 C 650.686 5.0881 2.64386 0
M  V30 6815 N 650.182 6.21332 3.0646 0
M  V30 6816 N 651.975 4.96166 2.64151 0
M  V30 6817 H 644.126 2.124 -0.00378532 0
M  V30 6818 H 646.389 0.946046 0.0608367 0
M  V30 6819 H 646.095 3.42179 0.812812 0
M  V30 6820 H 645.969 2.85261 2.46791 0
M  V30 6821 H 648.356 1.87974 2.27486 0
M  V30 6822 H 648.437 2.48333 0.613552 0
M  V30 6823 H 648.081 4.8578 1.48258 0
M  V30 6824 H 648.011 4.22315 3.14575 0
M  V30 6825 H 650.502 3.25438 1.92089 0
M  V30 6826 H 650.815 6.95118 3.37684 0
M  V30 6827 H 649.16 6.24835 3.04313 0
M  V30 6828 H 652.351 4.07334 2.30644 0
M  V30 6829 H 652.524 5.759 2.97057 0
M  V30 6830 N 645.93 -0.909495 1.28709 0
M  V30 6831 C 646.877 -2.01245 1.13 0
M  V30 6832 C 647.847 -1.6608 0.0259684 0
M  V30 6833 O 649.032 -1.89835 0.191687 0
M  V30 6834 C 646.172 -3.35644 0.802315 0
M  V30 6835 C 645.285 -3.83653 1.98582 0
M  V30 6836 C 644.42 -5.06582 1.59837 0
M  V30 6837 C 643.459 -5.46934 2.74827 0
M  V30 6838 N 642.596 -6.61053 2.36546 0
M  V30 6839 H 647.436 -2.14013 2.0737 0
M  V30 6840 H 644.973 -1.0482 1.03205 0
M  V30 6841 H 646.931 -4.12963 0.593057 0
M  V30 6842 H 645.561 -3.22631 -0.104457 0
M  V30 6843 H 644.613 -3.02454 2.30708 0
M  V30 6844 H 645.925 -4.09515 2.84779 0
M  V30 6845 H 645.079 -5.91457 1.35143 0
M  V30 6846 H 643.818 -4.82537 0.707753 0
M  V30 6847 H 642.823 -4.60599 3.00215 0
M  V30 6848 H 644.048 -5.72965 3.64538 0
M  V30 6849 H 641.994 -6.3863 1.49959 0
M  V30 6850 H 641.911 -6.86662 3.16277 0
M  V30 6851 H 643.179 -7.49221 2.15146 0
M  V30 6852 N 647.408 -1.11026 -1.11852 0
M  V30 6853 C 648.358 -0.733836 -2.15868 0
M  V30 6854 C 649.342 0.26001 -1.58785 0
M  V30 6855 O 650.534 0.0677901 -1.7687 0
M  V30 6856 C 647.663 -0.173948 -3.42859 0
M  V30 6857 C 646.749 -1.1952 -4.0691 0
M  V30 6858 N 647.14 -2.38797 -4.45881 0
M  V30 6859 C 645.438 -1.03714 -4.33773 0
M  V30 6860 C 646.139 -3.03894 -4.96007 0
M  V30 6861 N 645.115 -2.31389 -4.91894 0
M  V30 6862 H 648.917 -1.64171 -2.43773 0
M  V30 6863 H 646.431 -0.988877 -1.28822 0
M  V30 6864 H 648.428 0.113836 -4.16745 0
M  V30 6865 H 647.088 0.728568 -3.16421 0
M  V30 6866 H 648.099 -2.76281 -4.38051 0
M  V30 6867 H 644.776 -0.190694 -4.17064 0
M  V30 6868 H 646.166 -4.05389 -5.35826 0
M  V30 6869 N 648.886 1.2938 -0.899927 0
M  V30 6870 C 649.834 2.29675 -0.367698 0
M  V30 6871 C 650.828 1.60787 0.533282 0
M  V30 6872 O 652.034 1.75126 0.416058 0
M  V30 6873 H 648.409 0.745284 -0.100279 0
M  V30 6874 H 650.38 2.72008 -1.22696 0
M  V30 6875 C 649.129 3.45512 0.389483 0
M  V30 6876 H 648.452 3.98713 -0.294575 0
M  V30 6877 H 649.892 4.17725 0.726744 0
M  V30 6878 C 648.351 2.969 1.59223 0
M  V30 6879 O 648.881 2.98195 2.69152 0
M  V30 6880 N 647.087 2.52728 1.43447 0
M  V30 6881 H 646.634 2.51873 0.540148 0
M  V30 6882 H 646.592 2.20561 2.24054 0
M  V30 6883 N 650.364 0.662433 1.43002 0
M  V30 6884 C 651.294 -0.00979809 2.33498 0
M  V30 6885 C 652.275 -0.802329 1.49989 0
M  V30 6886 O 653.46 -0.761964 1.78627 0
M  V30 6887 C 650.59 -0.970446 3.33466 0
M  V30 6888 C 649.544 -0.287383 4.27034 0
M  V30 6889 C 648.87 -1.36012 5.17112 0
M  V30 6890 C 650.17 0.82595 5.15728 0
M  V30 6891 H 651.864 0.745959 2.89958 0
M  V30 6892 H 649.41 0.360172 1.39423 0
M  V30 6893 H 651.363 -1.44971 3.95679 0
M  V30 6894 H 650.087 -1.75748 2.75282 0
M  V30 6895 H 648.746 0.17152 3.66199 0
M  V30 6896 H 648.394 -2.13882 4.55262 0
M  V30 6897 H 648.094 -0.908276 5.80538 0
M  V30 6898 H 649.618 -1.84056 5.82199 0
M  V30 6899 H 651.032 0.42845 5.71697 0
M  V30 6900 H 649.429 1.20282 5.87922 0
M  V30 6901 H 650.499 1.68003 4.54866 0
M  V30 6902 N 651.842 -1.52309 0.404946 0
M  V30 6903 C 653.09 -2.01368 -0.17186 0
M  V30 6904 C 653.411 -1.29261 -1.46002 0
M  V30 6905 O 652.681 -0.41729 -1.91404 0
M  V30 6906 H 651.261 -0.744034 -0.0664993 0
M  V30 6907 H 653.923 -1.87263 0.540228 0
M  V30 6908 H 653.019 -3.09888 -0.370957 0
M  V30 6909 N 653.32 -0.135238 -1.57019 0
M  V30 6910 C 654.27 0.820408 -2.12728 0
M  V30 6911 C 655.254 1.21735 -1.05211 0
M  V30 6912 O 656.446 1.18574 -1.31413 0
M  V30 6913 C 653.575 2.06414 -2.74314 0
M  V30 6914 C 652.661 1.69083 -3.88937 0
M  V30 6915 N 653.052 1.0251 -4.95303 0
M  V30 6916 C 651.35 1.98434 -3.99425 0
M  V30 6917 C 652.051 0.846749 -5.75504 0
M  V30 6918 N 651.027 1.3769 -5.25873 0
M  V30 6919 H 654.829 0.302426 -2.9234 0
M  V30 6920 H 652.343 0.0667009 -1.62263 0
M  V30 6921 H 654.34 2.75863 -3.12579 0
M  V30 6922 H 653 2.58741 -1.96171 0
M  V30 6923 H 654.011 0.687207 -5.1332 0
M  V30 6924 H 650.688 2.52693 -3.32344 0
M  V30 6925 H 652.078 0.322949 -6.71123 0
M  V30 6926 N 654.798 1.5699 0.138552 0
M  V30 6927 C 656.046 1.83446 0.848053 0
M  V30 6928 C 656.367 0.71744 1.81322 0
M  V30 6929 O 655.637 -0.260228 1.94164 0
M  V30 6930 H 654.217 0.676792 0.316166 0
M  V30 6931 H 656.879 1.94462 0.130538 0
M  V30 6932 H 655.975 2.78677 1.40518 0
M  V30 6933 N 656.276 -0.40816 1.52223 0
M  V30 6934 C 657.226 -1.49648 1.72016 0
M  V30 6935 C 658.21 -1.50311 0.574069 0
M  V30 6936 O 659.402 -1.56271 0.831173 0
M  V30 6937 C 656.531 -2.87566 1.87512 0
M  V30 6938 C 655.617 -2.91547 3.07995 0
M  V30 6939 N 656.008 -2.65225 4.30685 0
M  V30 6940 C 654.306 -3.22715 3.07849 0
M  V30 6941 C 655.007 -2.75799 5.12162 0
M  V30 6942 N 653.983 -3.08719 4.4743 0
M  V30 6943 H 657.785 -1.28093 2.64517 0
M  V30 6944 H 655.299 -0.61588 1.50269 0
M  V30 6945 H 657.296 -3.65899 1.99809 0
M  V30 6946 H 655.956 -3.10118 0.962114 0
M  V30 6947 H 656.967 -2.39601 4.59142 0
M  V30 6948 H 653.644 -3.50856 2.26289 0
M  V30 6949 H 655.034 -2.59155 6.1991 0
M  V30 6950 N 657.755 -1.42862 -0.66545 0
M  V30 6951 C 658.702 -1.4707 -1.77874 0
M  V30 6952 C 659.672 -0.321654 -1.62956 0
M  V30 6953 O 660.857 -0.52707 -1.83376 0
M  V30 6954 C 657.997 -1.38788 -3.15962 0
M  V30 6955 C 657.11 -2.63801 -3.42101 0
M  V30 6956 C 656.245 -2.47594 -4.69969 0
M  V30 6957 C 655.284 -3.67936 -4.89172 0
M  V30 6958 N 654.421 -3.50614 -6.08288 0
M  V30 6959 H 659.261 -2.42204 -1.73613 0
M  V30 6960 H 656.798 -1.20239 -0.847401 0
M  V30 6961 H 658.756 -1.31982 -3.95773 0
M  V30 6962 H 657.386 -0.472431 -3.19324 0
M  V30 6963 H 656.438 -2.80935 -2.56475 0
M  V30 6964 H 657.75 -3.53228 -3.52181 0
M  V30 6965 H 656.904 -2.38427 -5.57886 0
M  V30 6966 H 655.643 -1.55672 -4.62188 0
M  V30 6967 H 654.648 -3.77525 -3.99694 0
M  V30 6968 H 655.873 -4.60851 -4.98792 0
M  V30 6969 H 653.819 -2.61417 -6.01662 0
M  V30 6970 H 653.736 -4.33634 -6.19272 0
M  V30 6971 H 655.004 -3.45276 -6.98859 0
M  V30 6972 N 659.233 0.902656 -1.29189 0
M  V30 6973 C 660.183 1.99326 -1.10695 0
M  V30 6974 C 661.167 1.60877 -0.0272521 0
M  V30 6975 O 662.359 1.75245 -0.248635 0
M  V30 6976 C 659.488 3.34265 -0.78244 0
M  V30 6977 C 658.574 3.79081 -1.90153 0
M  V30 6978 N 658.965 3.96162 -3.14466 0
M  V30 6979 C 657.263 4.08333 -1.79389 0
M  V30 6980 C 657.964 4.3388 -3.87458 0
M  V30 6981 N 656.94 4.42759 -3.15381 0
M  V30 6982 H 660.742 2.10597 -2.05003 0
M  V30 6983 H 658.256 1.09127 -1.20271 0
M  V30 6984 H 660.253 4.12097 -0.630996 0
M  V30 6985 H 658.913 3.2434 0.152754 0
M  V30 6986 H 659.924 3.81775 -3.49954 0
M  V30 6987 H 656.601 4.06982 -0.931217 0
M  V30 6988 H 657.991 4.54965 -4.94425 0
M  V30 6989 N 660.711 1.11618 1.11262 0
M  V30 6990 C 661.621 0.78898 2.20935 0
M  V30 6991 C 662.637 -0.21867 1.7262 0
M  V30 6992 O 663.813 -0.0543826 2.01327 0
M  V30 6993 C 660.878 0.239014 3.45875 0
M  V30 6994 C 659.939 1.3055 4.08968 0
M  V30 6995 C 659.172 0.781687 5.27944 0
M  V30 6996 O 659.395 -0.387605 5.69082 0
M  V30 6997 O 658.329 1.54734 5.81671 0
M  V30 6998 H 662.155 1.70477 2.51339 0
M  V30 6999 H 659.74 0.892203 1.19834 0
M  V30 7000 H 661.622 -0.0632312 4.21353 0
M  V30 7001 H 660.297 -0.649454 3.17118 0
M  V30 7002 H 659.204 1.66079 3.35214 0
M  V30 7003 H 660.537 2.16743 4.41909 0
M  V30 7004 N 662.189 -1.289 0.906776 0
M  V30 7005 C 663.605 -1.47733 0.603902 0
M  V30 7006 C 663.805 -1.82568 -0.852702 0
M  V30 7007 O 662.861 -1.92642 -1.63234 0
M  V30 7008 C 664.174 -2.58522 1.53581 0
M  V30 7009 C 665.722 -2.72394 1.54177 0
M  V30 7010 C 666.197 -3.86318 2.46013 0
M  V30 7011 N 667.688 -3.93661 2.441 0
M  V30 7012 C 668.423 -4.81177 3.11859 0
M  V30 7013 N 667.919 -5.73333 3.88923 0
M  V30 7014 N 669.712 -4.74728 3.00981 0
M  V30 7015 H 661.863 -1.04567 1.84877 0
M  V30 7016 H 664.126 -0.520118 0.792579 0
M  V30 7017 H 663.832 -2.39667 2.57396 0
M  V30 7018 H 663.706 -3.55475 1.26165 0
M  V30 7019 H 666.093 -2.90641 0.511034 0
M  V30 7020 H 666.174 -1.75993 1.85634 0
M  V30 7021 H 665.818 -3.68826 3.49185 0
M  V30 7022 H 665.748 -4.82102 2.11862 0
M  V30 7023 H 668.239 -3.27751 1.88115 0
M  V30 7024 H 668.552 -6.36923 4.37663 0
M  V30 7025 H 666.897 -5.73196 3.93029 0
M  V30 7026 H 670.088 -4.01722 2.40286 0
M  V30 7027 H 670.261 -5.42719 3.54062 0
M  V30 7028 N 663.667 -0.670007 -1.42649 0
M  V30 7029 C 664.944 -0.119451 -1.95235 0
M  V30 7030 C 665.324 1.36461 -1.61064 0
M  V30 7031 O 664.672 2.09843 -0.904329 0
M  V30 7032 C 664.882 -0.383498 -3.46887 0
M  V30 7033 C 666.23 -0.297431 -4.23557 0
M  V30 7034 O 667.254 -0.31698 -3.54787 0
M  V30 7035 O 666.113 -0.235507 -5.45992 0
M  V30 7036 H 663.207 -8.85474e-05 -0.827 0
M  V30 7037 H 665.753 -0.744406 -1.52501 0
M  V30 7038 H 664.525 -1.41174 -3.64946 0
M  V30 7039 H 664.148 0.273702 -3.96657 0
M  V30 7040 N 665.145 1.52092 -0.413018 0
M  V30 7041 C 666.077 2.24819 0.445994 0
M  V30 7042 C 667.09 1.27925 1.00692 0
M  V30 7043 O 668.279 1.53845 0.905204 0
M  V30 7044 C 665.379 2.96951 1.6332 0
M  V30 7045 C 664.552 4.20746 1.19548 0
M  V30 7046 C 663.611 4.75668 2.25003 0
M  V30 7047 O 662.637 5.38148 1.85434 0
M  V30 7048 N 663.839 4.57579 3.57214 0
M  V30 7049 H 666.604 2.99176 -0.177209 0
M  V30 7050 H 664.165 1.60102 -0.240601 0
M  V30 7051 H 666.157 3.30586 2.33441 0
M  V30 7052 H 664.727 2.25756 2.16225 0
M  V30 7053 H 663.947 3.92881 0.32224 0
M  V30 7054 H 665.235 5.01132 0.880033 0
M  V30 7055 H 664.633 4.07758 3.92109 0
M  V30 7056 H 663.19 4.95642 4.23299 0
M  V30 7057 N 666.623 0.143563 1.56945 0
M  V30 7058 C 667.871 -0.507402 1.95627 0
M  V30 7059 C 668.192 -1.65626 1.02922 0
M  V30 7060 O 667.462 -1.95693 0.0901136 0
M  V30 7061 H 666.042 -0.190436 0.722318 0
M  V30 7062 H 668.704 0.218257 1.93674 0
M  V30 7063 H 667.8 -0.885816 2.99265 0
M  V30 7064 N 668.101 -1.57061 -0.130224 0
M  V30 7065 C 669.051 -1.95941 -1.16582 0
M  V30 7066 C 670.035 -0.832858 -1.37667 0
M  V30 7067 O 671.227 -1.09647 -1.38948 0
M  V30 7068 C 668.356 -2.35777 -2.49528 0
M  V30 7069 C 667.442 -3.5504 -2.31964 0
M  V30 7070 N 667.833 -4.71071 -1.84189 0
M  V30 7071 C 666.131 -3.60453 -2.62659 0
M  V30 7072 C 666.832 -5.53128 -1.80068 0
M  V30 7073 N 665.808 -4.95303 -2.24001 0
M  V30 7074 H 669.61 -2.83117 -0.788806 0
M  V30 7075 H 667.124 -1.58842 -0.3381 0
M  V30 7076 H 669.121 -2.61843 -3.24413 0
M  V30 7077 H 667.781 -1.49961 -2.87996 0
M  V30 7078 H 668.792 -4.94504 -1.53903 0
M  V30 7079 H 665.469 -2.85217 -3.0489 0
M  V30 7080 H 666.859 -6.56182 -1.4448 0
M  V30 7081 N 669.579 0.400081 -1.52437 0
M  V30 7082 C 670.827 1.14392 -1.6661 0
M  V30 7083 C 671.148 1.90792 -0.402927 0
M  V30 7084 O 670.418 1.87042 0.582425 0
M  V30 7085 H 668.998 0.425275 -0.614125 0
M  V30 7086 H 671.66 0.455076 -1.89513 0
M  V30 7087 H 670.756 1.85298 -2.51139 0
M  V30 7088 N 671.057 1.43213 0.657864 0
M  V30 7089 C 672.007 1.44459 1.76396 0
M  V30 7090 C 672.991 0.313641 1.57814 0
M  V30 7091 O 674.183 0.557094 1.68004 0
M  V30 7092 C 671.312 1.36586 3.14959 0
M  V30 7093 C 670.398 2.54692 3.39106 0
M  V30 7094 N 670.789 3.80059 3.33749 0
M  V30 7095 C 669.087 2.49316 3.69807 0
M  V30 7096 C 669.788 4.58606 3.57849 0
M  V30 7097 N 668.764 3.89267 3.79437 0
M  V30 7098 H 672.566 2.39265 1.70673 0
M  V30 7099 H 670.08 1.378 0.859357 0
M  V30 7100 H 672.077 1.35561 3.94245 0
M  V30 7101 H 670.737 0.427956 3.21867 0
M  V30 7102 H 671.748 4.12414 3.13266 0
M  V30 7103 H 668.425 1.6419 3.83859 0
M  V30 7104 H 669.815 5.67619 3.59525 0
M  V30 7105 N 672.536 -0.895792 1.29666 0
M  V30 7106 C 673.468 -2.00563 1.10937 0
M  V30 7107 C 674.481 -1.62705 0.055734 0
M  V30 7108 O 675.67 -1.7595 0.300656 0
M  V30 7109 C 672.77 -3.32262 0.667448 0
M  V30 7110 C 671.943 -3.98625 1.80047 0
M  V30 7111 C 671.002 -5.08617 1.3489 0
M  V30 7112 O 670.028 -5.30837 2.05429 0
M  V30 7113 N 671.23 -5.80076 0.221937 0
M  V30 7114 H 673.995 -2.17184 2.06522 0
M  V30 7115 H 671.556 -1.06822 1.21658 0
M  V30 7116 H 673.548 -4.03196 0.348586 0
M  V30 7117 H 672.118 -3.11985 -0.196055 0
M  V30 7118 H 671.338 -3.21005 2.28801 0
M  V30 7119 H 672.626 -4.39704 2.56003 0
M  V30 7120 H 672.024 -5.64514 -0.366084 0
M  V30 7121 H 670.581 -6.51789 -0.0375346 0
M  V30 7122 N 674.014 -1.12206 -1.10668 0
M  V30 7123 C 675.43 -0.857619 -1.346 0
M  V30 7124 C 675.63 0.513542 -1.94846 0
M  V30 7125 O 674.686 1.26273 -2.18658 0
M  V30 7126 C 675.999 -1.97212 -2.26998 0
M  V30 7127 C 677.547 -2.00272 -2.40542 0
M  V30 7128 C 678.022 -3.10948 -3.36267 0
M  V30 7129 N 679.513 -3.10375 -3.43834 0
M  V30 7130 C 680.248 -3.92651 -4.17867 0
M  V30 7131 N 679.744 -4.84911 -4.94807 0
M  V30 7132 N 681.537 -3.80798 -4.1346 0
M  V30 7133 H 673.688 -2.00558 -0.699306 0
M  V30 7134 H 675.951 -0.872612 -0.370477 0
M  V30 7135 H 675.657 -2.96002 -1.89936 0
M  V30 7136 H 675.531 -1.87521 -3.27286 0
M  V30 7137 H 677.918 -1.02103 -2.76874 0
M  V30 7138 H 677.999 -2.14037 -1.40077 0
M  V30 7139 H 677.643 -4.09348 -3.00661 0
M  V30 7140 H 677.573 -2.94421 -4.36605 0
M  V30 7141 H 680.064 -2.43536 -2.88961 0
M  V30 7142 H 680.377 -5.44207 -5.48688 0
M  V30 7143 H 678.722 -4.88926 -4.93939 0
M  V30 7144 H 681.913 -3.08058 -3.52445 0
M  V30 7145 H 682.086 -4.4515 -4.70898 0
M  V30 7146 N 675.492 1.28418 -0.913599 0
M  V30 7147 C 676.74 1.94596 -0.545594 0
M  V30 7148 C 677.061 1.7227 0.913668 0
M  V30 7149 O 676.331 1.06233 1.64595 0
M  V30 7150 H 674.911 0.720065 -0.198783 0
M  V30 7151 H 677.573 1.56404 -1.16292 0
M  V30 7152 H 676.669 3.03202 -0.739911 0
M  V30 7153 N 676.97 0.677563 1.42291 0
M  V30 7154 C 677.92 -0.0218641 2.2799 0
M  V30 7155 C 678.904 -0.770816 1.41235 0
M  V30 7156 O 680.096 -0.649273 1.64662 0
M  V30 7157 C 677.225 -0.970449 3.29298 0
M  V30 7158 C 676.311 -0.218695 4.23536 0
M  V30 7159 N 676.702 0.777908 4.99782 0
M  V30 7160 C 675 -0.456748 4.43655 0
M  V30 7161 C 675.701 1.22632 5.68627 0
M  V30 7162 N 674.677 0.55573 5.40752 0
M  V30 7163 H 678.479 0.742516 2.84366 0
M  V30 7164 H 675.993 0.506862 1.54288 0
M  V30 7165 H 677.99 -1.48652 3.89497 0
M  V30 7166 H 676.65 -1.73463 2.74483 0
M  V30 7167 H 677.661 1.15754 5.04798 0
M  V30 7168 H 674.338 -1.20021 3.99877 0
M  V30 7169 H 675.728 2.05231 6.39789 0
M  V30 7170 N 678.448 -1.51871 0.421078 0
M  V30 7171 C 679.696 -2.01539 -0.150492 0
M  V30 7172 C 680.017 -1.30803 -1.44623 0
M  V30 7173 O 679.287 -0.437568 -1.90951 0
M  V30 7174 H 677.867 -0.744698 -0.0586041 0
M  V30 7175 H 680.529 -1.8668 0.560059 0
M  V30 7176 H 679.625 -3.10264 -0.338068 0
M  V30 7177 N 679.926 -0.151884 -1.56866 0
M  V30 7178 C 680.856 0.781943 -2.20018 0
M  V30 7179 C 681.837 1.25347 -1.14987 0
M  V30 7180 O 683.022 1.31015 -1.43348 0
M  V30 7181 C 680.152 2.01928 -2.82564 0
M  V30 7182 C 679.106 1.68434 -3.93464 0
M  V30 7183 C 678.432 2.99472 -4.42968 0
M  V30 7184 C 679.732 0.927244 -5.14003 0
M  V30 7185 H 681.426 0.255607 -2.98307 0
M  V30 7186 H 678.972 0.121502 -1.43486 0
M  V30 7187 H 680.925 2.67741 -3.25411 0
M  V30 7188 H 679.649 2.56943 -2.01614 0
M  V30 7189 H 678.308 1.04998 -3.51242 0
M  V30 7190 H 677.956 3.52488 -3.58834 0
M  V30 7191 H 677.656 2.77823 -5.17772 0
M  V30 7192 H 679.18 3.66348 -4.88489 0
M  V30 7193 H 680.594 1.48756 -5.53665 0
M  V30 7194 H 678.991 0.810513 -5.94601 0
M  V30 7195 H 680.061 -0.0801163 -4.84834 0
M  V30 7196 N 681.404 1.57128 0.121893 0
M  V30 7197 C 682.652 1.84335 0.828548 0
M  V30 7198 C 682.973 0.736632 1.80551 0
M  V30 7199 O 682.243 -0.23962 1.94429 0
M  V30 7200 H 680.823 0.680108 0.30897 0
M  V30 7201 H 683.485 1.9459 0.109906 0
M  V30 7202 H 682.581 2.80152 1.37554 0
M  V30 7203 N 682.882 -0.391992 1.52647 0
M  V30 7204 C 683.832 -1.47815 1.73594 0
M  V30 7205 C 684.816 -1.49693 0.589979 0
M  V30 7206 O 686.008 -1.5538 0.847701 0
M  V30 7207 C 683.137 -2.85561 1.90551 0
M  V30 7208 C 682.223 -2.88264 3.1107 0
M  V30 7209 N 682.614 -2.60642 4.33474 0
M  V30 7210 C 680.912 -3.19432 3.11254 0
M  V30 7211 C 681.613 -2.70351 5.15058 0
M  V30 7212 N 680.589 -3.03956 4.50679 0
M  V30 7213 H 684.391 -1.2528 2.65861 0
M  V30 7214 H 681.905 -0.599907 1.50913 0
M  V30 7215 H 683.902 -3.63759 2.03678 0
M  V30 7216 H 682.562 -3.09081 0.994952 0
M  V30 7217 H 683.573 -2.34718 4.61658 0
M  V30 7218 H 680.25 -3.48436 2.29997 0
M  V30 7219 H 681.64 -2.52565 6.22624 0
M  V30 7220 N 684.36 -1.4356 -0.65026 0
M  V30 7221 C 685.608 -1.45046 -1.40734 0
M  V30 7222 C 685.929 -0.0769822 -1.94848 0
M  V30 7223 O 685.199 0.888098 -1.74613 0
M  V30 7224 H 683.779 -0.534034 -0.522318 0
M  V30 7225 H 686.441 -1.79186 -0.766703 0
M  V30 7226 H 685.537 -2.16476 -2.24822 0
M  V30 7227 N 685.838 0.888903 -1.30139 0
M  V30 7228 C 686.788 1.9814 -1.12803 0
M  V30 7229 C 687.772 1.60839 -0.0443137 0
M  V30 7230 O 688.964 1.74971 -0.267208 0
M  V30 7231 C 686.093 3.33416 -0.817849 0
M  V30 7232 C 685.179 3.77043 -1.94163 0
M  V30 7233 N 685.57 3.92805 -3.18651 0
M  V30 7234 C 683.868 4.06407 -1.8371 0
M  V30 7235 C 684.569 4.29746 -3.92038 0
M  V30 7236 N 683.545 4.3939 -3.20059 0
M  V30 7237 H 687.347 2.08411 -2.07225 0
M  V30 7238 H 684.861 1.07845 -1.21421 0
M  V30 7239 H 686.858 4.11405 -0.674668 0
M  V30 7240 H 685.518 3.24484 0.118344 0
M  V30 7241 H 686.529 3.78042 -3.53984 0
M  V30 7242 H 683.206 4.05972 -0.974331 0
M  V30 7243 H 684.596 4.49695 -4.99223 0
M  V30 7244 N 687.317 1.12792 1.10072 0
M  V30 7245 C 688.227 0.812369 2.20086 0
M  V30 7246 C 689.243 -0.200349 1.72843 0
M  V30 7247 O 690.419 -0.0330262 2.01373 0
M  V30 7248 C 687.484 0.275685 3.45602 0
M  V30 7249 C 686.545 1.34881 4.07561 0
M  V30 7250 C 685.778 0.837639 5.27086 0
M  V30 7251 O 686.001 -0.327224 5.69461 0
M  V30 7252 O 684.935 1.60894 5.79997 0
M  V30 7253 H 688.761 1.73133 2.49517 0
M  V30 7254 H 686.346 0.904863 1.18881 0
M  V30 7255 H 688.228 -0.0185375 4.21396 0
M  V30 7256 H 686.903 -0.615783 3.17789 0
M  V30 7257 H 685.81 1.69625 3.33434 0
M  V30 7258 H 687.143 2.21418 4.39585 0
M  V30 7259 N 688.795 -1.27931 0.920396 0
M  V30 7260 C 689.727 -2.26175 0.371169 0
M  V30 7261 C 690.74 -1.55122 -0.494065 0
M  V30 7262 O 691.929 -1.75825 -0.30787 0
M  V30 7263 C 689.029 -3.35376 -0.487481 0
M  V30 7264 C 688.202 -4.35943 0.356772 0
M  V30 7265 C 687.261 -5.24374 -0.438042 0
M  V30 7266 O 686.287 -5.68998 0.151715 0
M  V30 7267 N 687.489 -5.53823 -1.73956 0
M  V30 7268 H 690.254 -2.73938 1.21564 0
M  V30 7269 H 687.815 -1.41482 0.787047 0
M  V30 7270 H 689.807 -3.91476 -1.02609 0
M  V30 7271 H 688.377 -2.87269 -1.23269 0
M  V30 7272 H 687.597 -3.7921 1.07672 0
M  V30 7273 H 688.885 -5.0015 0.934206 0
M  V30 7274 H 688.283 -5.19413 -2.24114 0
M  V30 7275 H 686.84 -6.12653 -2.22486 0
M  V30 7276 N 690.273 -0.685099 -1.4193 0
M  V30 7277 C 691.205 0.0258679 -2.29185 0
M  V30 7278 C 692.218 0.755076 -1.44231 0
M  V30 7279 O 693.407 0.60752 -1.67844 0
M  V30 7280 C 690.507 1.06055 -3.21878 0
M  V30 7281 C 689.68 0.403088 -4.35539 0
M  V30 7282 C 688.739 1.33895 -5.0888 0
M  V30 7283 O 687.765 0.835326 -5.63037 0
M  V30 7284 N 688.967 2.6718 -5.15359 0
M  V30 7285 H 691.732 -0.723201 -2.90843 0
M  V30 7286 H 689.293 -0.53031 -1.52968 0
M  V30 7287 H 691.285 1.68813 -3.6781 0
M  V30 7288 H 689.855 1.71126 -2.616 0
M  V30 7289 H 689.075 -0.404185 -3.92122 0
M  V30 7290 H 690.363 -0.0545098 -5.08771 0
M  V30 7291 H 689.761 3.10626 -4.72788 0
M  V30 7292 H 688.318 3.25159 -5.64903 0
M  V30 7293 N 691.751 1.51645 -0.429126 0
M  V30 7294 C 692.701 2.24388 0.404217 0
M  V30 7295 C 693.685 1.26294 0.996933 0
M  V30 7296 O 694.877 1.51428 0.916434 0
M  V30 7297 C 692.006 3.08338 1.50938 0
M  V30 7298 C 691.092 4.13857 0.926464 0
M  V30 7299 N 691.483 5.05749 0.0719732 0
M  V30 7300 C 689.781 4.29695 1.19491 0
M  V30 7301 C 690.482 5.81143 -0.254528 0
M  V30 7302 N 689.458 5.42408 0.359763 0
M  V30 7303 H 693.26 2.92794 -0.254697 0
M  V30 7304 H 690.774 1.60606 -0.240712 0
M  V30 7305 H 692.771 3.59022 2.11918 0
M  V30 7306 H 691.431 2.41475 2.17072 0
M  V30 7307 H 692.442 5.17066 -0.293854 0
M  V30 7308 H 689.119 3.74059 1.85434 0
M  V30 7309 H 690.509 6.65159 -0.949365 0
M  V30 7310 N 693.229 0.160201 1.56784 0
M  V30 7311 C 694.477 -0.486625 1.96154 0
M  V30 7312 C 694.798 -1.64525 1.04673 0
M  V30 7313 O 694.068 -1.95586 0.110864 0
M  V30 7314 H 692.648 -0.182764 0.724297 0
M  V30 7315 H 695.31 0.238787 1.93432 0
M  V30 7316 H 694.406 -0.854025 3.00188 0
M  V30 7317 N 694.707 -1.5719 -0.113559 0
M  V30 7318 C 695.637 -2.03772 -1.14013 0
M  V30 7319 C 696.618 -0.923176 -1.42869 0
M  V30 7320 O 697.803 -1.19325 -1.53216 0
M  V30 7321 C 694.933 -2.44663 -2.4649 0
M  V30 7322 C 693.887 -3.59612 -2.32085 0
M  V30 7323 C 693.213 -3.8642 -3.69573 0
M  V30 7324 C 694.513 -4.91149 -1.7768 0
M  V30 7325 H 696.207 -2.89785 -0.752665 0
M  V30 7326 H 693.753 -1.39412 -0.360609 0
M  V30 7327 H 695.706 -2.75857 -3.18561 0
M  V30 7328 H 694.43 -1.55628 -2.87137 0
M  V30 7329 H 693.089 -3.28636 -1.62461 0
M  V30 7330 H 692.737 -2.94581 -4.07715 0
M  V30 7331 H 692.437 -4.63797 -3.60786 0
M  V30 7332 H 693.961 -4.2007 -4.4314 0
M  V30 7333 H 695.375 -5.20843 -2.39574 0
M  V30 7334 H 693.772 -5.72562 -1.79701 0
M  V30 7335 H 694.842 -4.79301 -0.734776 0
M  V30 7336 N 696.185 0.383891 -1.52853 0
M  V30 7337 C 697.433 1.12619 -1.67814 0
M  V30 7338 C 697.754 1.90354 -0.423141 0
M  V30 7339 O 697.024 1.87649 0.562554 0
M  V30 7340 H 695.604 0.418738 -0.618601 0
M  V30 7341 H 698.266 0.43495 -1.89985 0
M  V30 7342 H 697.362 1.82624 -2.5309 0
M  V30 7343 N 697.663 1.43903 0.642637 0
M  V30 7344 C 698.613 1.46321 1.74854 0
M  V30 7345 C 699.597 0.330361 1.57472 0
M  V30 7346 O 700.789 0.574881 1.67404 0
M  V30 7347 C 697.918 1.39919 3.13493 0
M  V30 7348 C 697.004 2.58274 3.36385 0
M  V30 7349 N 697.395 3.83578 3.29699 0
M  V30 7350 C 695.693 2.53224 3.67142 0
M  V30 7351 C 696.394 4.62375 3.52965 0
M  V30 7352 N 695.37 3.93269 3.75287 0
M  V30 7353 H 699.172 2.41062 1.68126 0
M  V30 7354 H 696.686 1.38704 0.844693 0
M  V30 7355 H 698.683 1.39735 3.92785 0
M  V30 7356 H 697.343 0.46207 3.21395 0
M  V30 7357 H 698.354 4.15713 3.08874 0
M  V30 7358 H 695.031 1.68252 3.82096 0
M  V30 7359 H 696.421 5.714 3.53485 0
M  V30 7360 N 699.141 -0.881989 1.30609 0
M  V30 7361 C 700.389 -1.63082 1.19368 0
M  V30 7362 C 700.71 -1.93376 -0.251147 0
M  V30 7363 O 699.98 -1.5723 -1.16857 0
M  V30 7364 H 698.56 -0.604542 0.438791 0
M  V30 7365 H 701.222 -1.05658 1.63776 0
M  V30 7366 H 700.318 -2.57966 1.7567 0
M  V30 7367 N 700.619 -1.13374 -1.09472 0
M  V30 7368 C 701.569 -0.77946 -2.14263 0
M  V30 7369 C 702.553 0.226271 -1.59301 0
M  V30 7370 O 703.745 0.0302581 -1.76974 0
M  V30 7371 C 700.874 -0.246635 -3.42413 0
M  V30 7372 C 699.96 -1.28124 -4.04283 0
M  V30 7373 N 700.351 -2.48201 -4.40715 0
M  V30 7374 C 698.649 -1.12892 -4.31476 0
M  V30 7375 C 699.35 -3.14347 -4.8945 0
M  V30 7376 N 698.326 -2.41771 -4.86876 0
M  V30 7377 H 702.128 -1.69305 -2.40235 0
M  V30 7378 H 699.642 -1.01598 -1.26695 0
M  V30 7379 H 701.639 0.0254131 -4.16892 0
M  V30 7380 H 700.299 0.661287 -3.17895 0
M  V30 7381 H 701.31 -2.85511 -4.32093 0
M  V30 7382 H 697.987 -0.279117 -4.16566 0
M  V30 7383 H 699.377 -4.16663 -5.27107 0
M  V30 7384 N 702.098 1.27442 -0.927168 0
M  V30 7385 C 703.045 2.26863 -0.424459 0
M  V30 7386 C 704.015 1.5813 0.508346 0
M  V30 7387 O 705.2 1.85946 0.42762 0
M  V30 7388 C 702.34 3.43639 0.31718 0
M  V30 7389 C 701.453 4.27087 -0.649675 0
M  V30 7390 C 700.588 5.31082 0.111753 0
M  V30 7391 C 699.627 6.062 -0.847843 0
M  V30 7392 N 698.764 7.01999 -0.119074 0
M  V30 7393 H 703.604 2.69239 -1.27728 0
M  V30 7394 H 701.141 1.32394 -0.641106 0
M  V30 7395 H 703.099 4.10155 0.763486 0
M  V30 7396 H 701.729 3.02217 1.13424 0
M  V30 7397 H 700.781 3.60491 -1.21451 0
M  V30 7398 H 702.093 4.79242 -1.38307 0
M  V30 7399 H 701.247 6.03544 0.618 0
M  V30 7400 H 699.986 4.7973 0.878114 0
M  V30 7401 H 698.991 5.32577 -1.36534 0
M  V30 7402 H 700.216 6.59642 -1.61398 0
M  V30 7403 H 698.162 6.52977 0.629051 0
M  V30 7404 H 698.079 7.5184 -0.792046 0
M  V30 7405 H 699.347 7.78638 0.366537 0
M  V30 7406 N 703.576 0.692616 1.41565 0
M  V30 7407 C 704.823 0.222335 2.01276 0
M  V30 7408 C 705.151 -1.17706 1.5484 0
M  V30 7409 O 704.406 -1.80795 0.749118 0
M  V30 7410 C 704.705 0.225073 3.56691 0
M  V30 7411 C 704.371 1.57158 4.22625 0
M  V30 7412 C 703.033 1.94022 4.40351 0
M  V30 7413 C 705.385 2.45758 4.59622 0
M  V30 7414 C 702.713 3.19076 4.92349 0
M  V30 7415 C 705.065 3.70141 5.13009 0
M  V30 7416 C 703.729 4.07152 5.28946 0
M  V30 7417 H 702.999 0.0813581 0.73652 0
M  V30 7418 H 705.646 0.891123 1.69503 0
M  V30 7419 H 703.951 -0.527259 3.88236 0
M  V30 7420 H 705.648 -0.156283 4.00695 0
M  V30 7421 H 702.238 1.27486 4.09201 0
M  V30 7422 H 706.422 2.18558 4.45585 0
M  V30 7423 H 701.678 3.4775 5.02872 0
M  V30 7424 H 705.852 4.38983 5.40617 0
M  V30 7425 H 703.479 5.04125 5.69001 0
M  V30 7426 N 705.054 -1.51416 0.437162 0
M  V30 7427 C 706.001 -2.27743 -0.374374 0
M  V30 7428 C 706.971 -1.31327 -1.01698 0
M  V30 7429 O 708.156 -1.60229 -1.03592 0
M  V30 7430 C 705.296 -3.12241 -1.46969 0
M  V30 7431 C 704.409 -4.23651 -0.845236 0
M  V30 7432 C 703.544 -4.95458 -1.91559 0
M  V30 7433 C 702.583 -5.98789 -1.26956 0
M  V30 7434 N 701.72 -6.64005 -2.28126 0
M  V30 7435 H 706.56 -2.96654 0.282892 0
M  V30 7436 H 704.097 -1.46319 0.151352 0
M  V30 7437 H 706.055 -3.59556 -2.11602 0
M  V30 7438 H 704.685 -2.45445 -2.09659 0
M  V30 7439 H 703.737 -3.803 -0.0872059 0
M  V30 7440 H 705.049 -4.97683 -0.333582 0
M  V30 7441 H 704.203 -5.46321 -2.63854 0
M  V30 7442 H 702.942 -4.21055 -2.46097 0
M  V30 7443 H 701.947 -5.47219 -0.53207 0
M  V30 7444 H 703.172 -6.75149 -0.731509 0
M  V30 7445 H 701.118 -5.92415 -2.81745 0
M  V30 7446 H 701.035 -7.33802 -1.81852 0
M  V30 7447 H 702.303 -7.19498 -2.99905 0
M  V30 7448 N 706.532 -0.168513 -1.56696 0
M  V30 7449 C 707.462 0.758563 -2.20835 0
M  V30 7450 C 708.443 1.24121 -1.1631 0
M  V30 7451 O 709.628 1.29487 -1.4473 0
M  V30 7452 C 706.758 1.9892 -2.8469 0
M  V30 7453 C 705.712 1.64252 -3.95228 0
M  V30 7454 C 705.038 2.94757 -4.46119 0
M  V30 7455 C 706.338 0.872675 -5.14958 0
M  V30 7456 H 708.032 0.223953 -2.98561 0
M  V30 7457 H 705.578 0.106277 -1.43607 0
M  V30 7458 H 707.531 2.64275 -3.28233 0
M  V30 7459 H 706.255 2.5479 -2.04327 0
M  V30 7460 H 704.914 1.01266 -3.52336 0
M  V30 7461 H 704.562 3.48662 -3.62552 0
M  V30 7462 H 704.262 2.72316 -5.2069 0
M  V30 7463 H 705.786 3.61147 -4.92347 0
M  V30 7464 H 707.2 1.42875 -5.55211 0
M  V30 7465 H 705.597 0.747402 -5.95428 0
M  V30 7466 H 706.667 -0.131535 -4.84722 0
M  V30 7467 N 708.01 1.57248 0.105221 0
M  V30 7468 C 709.287 1.76566 0.841647 0
M  V30 7469 C 709.667 0.747566 1.9742 0
M  V30 7470 O 709.015 -0.225886 2.27381 0
M  V30 7471 C 709.225 3.22016 1.3456 0
M  V30 7472 C 710.573 3.84911 1.79244 0
M  V30 7473 O 711.597 3.25703 1.44207 0
M  V30 7474 O 710.456 4.89008 2.43995 0
M  V30 7475 H 707.55 0.723443 0.400698 0
M  V30 7476 H 710.096 1.69472 0.0878893 0
M  V30 7477 H 708.868 3.87644 0.533685 0
M  V30 7478 H 708.491 3.33703 2.16167 0
M  V30 7479 N 709.488 -0.375779 1.53054 0
M  V30 7480 C 710.765 -1.13453 1.59336 0
M  V30 7481 C 711.145 -2.07379 0.394614 0
M  V30 7482 O 710.493 -2.2004 -0.616 0
M  V30 7483 C 710.703 -1.8826 2.93869 0
M  V30 7484 C 712.051 -2.43155 3.48081 0
M  V30 7485 O 713.075 -1.984 2.95831 0
M  V30 7486 O 711.934 -3.24944 4.39401 0
M  V30 7487 H 709.028 -0.519856 0.643179 0
M  V30 7488 H 711.574 -0.379865 1.65394 0
M  V30 7489 H 710.346 -1.19652 3.72558 0
M  V30 7490 H 709.969 -2.70658 2.91256 0
M  V30 7491 N 710.966 -1.44241 -0.634997 0
M  V30 7492 C 712.243 -1.37296 -1.39317 0
M  V30 7493 C 712.623 -0.0297532 -2.11079 0
M  V30 7494 O 711.971 0.987524 -2.06059 0
M  V30 7495 C 712.181 -2.56853 -2.36279 0
M  V30 7496 C 713.529 -3.00747 -2.99728 0
M  V30 7497 O 714.553 -2.5703 -2.46605 0
M  V30 7498 O 713.412 -3.76533 -3.96087 0
M  V30 7499 H 710.506 -0.543503 -0.623325 0
M  V30 7500 H 713.052 -1.56324 -0.660376 0
M  V30 7501 H 711.824 -3.46228 -1.82324 0
M  V30 7502 H 711.447 -2.40019 -3.16981 0
M  V30 7503 N 712.444 0.87505 -1.31075 0
M  V30 7504 C 713.374 1.99775 -1.20881 0
M  V30 7505 C 714.355 1.69822 -0.0971612 0
M  V30 7506 O 715.54 1.92158 -0.280895 0
M  V30 7507 C 712.67 3.35163 -0.910118 0
M  V30 7508 C 711.624 3.79406 -1.98078 0
M  V30 7509 C 710.95 5.12197 -1.53488 0
M  V30 7510 C 712.25 3.97061 -3.39323 0
M  V30 7511 H 713.944 2.08562 -2.14808 0
M  V30 7512 H 711.49 1.00207 -1.03415 0
M  V30 7513 H 713.443 4.13237 -0.825423 0
M  V30 7514 H 712.167 3.26536 0.064822 0
M  V30 7515 H 710.826 3.03568 -2.05528 0
M  V30 7516 H 710.474 5.00007 -0.547941 0
M  V30 7517 H 710.174 5.4277 -2.2511 0
M  V30 7518 H 711.698 5.92785 -1.46417 0
M  V30 7519 H 713.112 4.65545 -3.34576 0
M  V30 7520 H 711.509 4.39025 -4.09118 0
M  V30 7521 H 712.579 3.00601 -3.80483 0
M  V30 7522 N 713.922 1.13953 1.08869 0
M  V30 7523 C 714.832 0.835666 2.19212 0
M  V30 7524 C 715.848 -0.182005 1.73045 0
M  V30 7525 O 717.024 -0.0116661 2.01397 0
M  V30 7526 C 714.089 0.312325 3.4529 0
M  V30 7527 C 713.15 1.39196 4.06107 0
M  V30 7528 C 712.383 0.893496 5.26168 0
M  V30 7529 O 712.606 -0.266807 5.69776 0
M  V30 7530 O 711.54 1.67037 5.78258 0
M  V30 7531 H 715.366 1.75769 2.47667 0
M  V30 7532 H 712.951 0.917421 1.17914 0
M  V30 7533 H 714.833 0.0261582 4.21392 0
M  V30 7534 H 713.508 -0.582042 3.18424 0
M  V30 7535 H 712.415 1.73152 3.31616 0
M  V30 7536 H 713.748 2.26068 4.37212 0
M  V30 7537 N 715.4 -1.26948 0.933913 0
M  V30 7538 C 716.35 -2.24306 0.408779 0
M  V30 7539 C 717.334 -1.53243 -0.490435 0
M  V30 7540 O 718.526 -1.73956 -0.326866 0
M  V30 7541 C 715.655 -3.41695 -0.331578 0
M  V30 7542 C 714.741 -4.20053 0.58451 0
M  V30 7543 N 715.132 -4.76122 1.70709 0
M  V30 7544 C 713.43 -4.44303 0.388703 0
M  V30 7545 C 714.131 -5.35267 2.27737 0
M  V30 7546 N 713.107 -5.20548 1.56622 0
M  V30 7547 H 716.909 -2.65244 1.26582 0
M  V30 7548 H 714.423 -1.4195 0.788919 0
M  V30 7549 H 716.42 -4.10552 -0.724774 0
M  V30 7550 H 715.08 -3.02286 -1.18547 0
M  V30 7551 H 716.091 -4.73884 2.08937 0
M  V30 7552 H 712.768 -4.15341 -0.424016 0
M  V30 7553 H 714.158 -5.89563 3.22282 0
M  V30 7554 N 716.879 -0.700114 -1.41195 0
M  V30 7555 C 717.811 0.00155823 -2.292 0
M  V30 7556 C 718.824 0.739736 -1.45023 0
M  V30 7557 O 720.013 0.589684 -1.68478 0
M  V30 7558 C 717.113 1.02635 -3.22985 0
M  V30 7559 C 716.286 0.356871 -4.35942 0
M  V30 7560 C 715.345 1.28491 -5.10271 0
M  V30 7561 O 714.371 0.775562 -5.63892 0
M  V30 7562 N 715.573 2.61699 -5.18164 0
M  V30 7563 H 718.338 -0.754008 -2.9006 0
M  V30 7564 H 715.899 -0.546504 -1.52397 0
M  V30 7565 H 717.891 1.64902 -3.6958 0
M  V30 7566 H 716.461 1.68341 -2.63401 0
M  V30 7567 H 715.681 -0.445753 -3.91672 0
M  V30 7568 H 716.969 -0.108469 -5.08684 0
M  V30 7569 H 716.367 3.05594 -4.76056 0
M  V30 7570 H 714.924 3.19149 -5.6832 0
M  V30 7571 N 718.357 1.51182 -0.445186 0
M  V30 7572 C 719.605 2.01753 0.11841 0
M  V30 7573 C 719.926 1.33087 1.42523 0
M  V30 7574 O 719.196 0.467891 1.9023 0
M  V30 7575 H 717.776 0.745536 0.0467492 0
M  V30 7576 H 720.438 1.85765 -0.589688 0
M  V30 7577 H 719.534 3.10762 0.288665 0
M  V30 7578 N 719.835 0.176821 1.56605 0
M  V30 7579 C 721.083 -0.465793 1.96659 0
M  V30 7580 C 721.404 -1.63406 1.06412 0
M  V30 7581 O 720.674 -1.95457 0.131603 0
M  V30 7582 H 719.254 -0.175072 0.726195 0
M  V30 7583 H 721.916 0.25929 1.93168 0
M  V30 7584 H 721.012 -0.822138 3.01077 0
M  V30 7585 N 721.313 -1.57302 -0.09688 0
M  V30 7586 C 722.263 -1.98369 -1.12399 0
M  V30 7587 C 723.247 -0.861872 -1.3587 0
M  V30 7588 O 724.439 -1.1257 -1.36591 0
M  V30 7589 C 721.568 -2.41017 -2.4447 0
M  V30 7590 C 720.654 -3.59881 -2.24381 0
M  V30 7591 N 721.045 -4.74872 -1.74155 0
M  V30 7592 C 719.343 -3.65943 -2.54954 0
M  V30 7593 C 720.044 -5.56823 -1.68294 0
M  V30 7594 N 719.02 -4.99942 -2.13444 0
M  V30 7595 H 722.822 -2.84726 -0.728575 0
M  V30 7596 H 720.336 -1.59523 -0.304332 0
M  V30 7597 H 722.333 -2.68665 -3.18786 0
M  V30 7598 H 720.993 -1.56036 -2.84751 0
M  V30 7599 H 722.004 -4.97657 -1.43379 0
M  V30 7600 H 718.681 -2.9162 -2.98771 0
M  V30 7601 H 720.071 -6.59099 -1.30528 0
M  V30 7602 N 722.791 0.367657 -1.53252 0
M  V30 7603 C 724.037 1.11216 -1.69584 0
M  V30 7604 C 724.37 1.89026 -0.445269 0
M  V30 7605 O 723.645 1.86342 0.557404 0
M  V30 7606 C 723.928 2.07308 -2.94441 0
M  V30 7607 C 723.781 1.3312 -4.2965 0
M  V30 7608 C 725.1 3.07459 -3.14892 0
M  V30 7609 H 722.219 0.40294 -0.617096 0
M  V30 7610 H 724.861 0.393201 -1.85887 0
M  V30 7611 H 723.011 2.68617 -2.80673 0
M  V30 7612 H 724.683 0.746111 -4.55226 0
M  V30 7613 H 722.926 0.633051 -4.29156 0
M  V30 7614 H 723.597 2.03443 -5.13142 0
M  V30 7615 H 726.073 2.56252 -3.27832 0
M  V30 7616 H 724.949 3.71919 -4.03693 0
M  V30 7617 H 725.21 3.77514 -2.30077 0
M  V30 7618 N 724.269 1.44576 0.627338 0
M  V30 7619 C 725.199 1.54562 1.75022 0
M  V30 7620 C 726.18 0.398378 1.65369 0
M  V30 7621 O 727.365 0.61899 1.84071 0
M  V30 7622 C 724.495 1.49309 3.13567 0
M  V30 7623 C 723.449 2.62549 3.38012 0
M  V30 7624 C 722.775 2.42348 4.76625 0
M  V30 7625 C 724.075 4.04678 3.30202 0
M  V30 7626 H 725.769 2.4855 1.66922 0
M  V30 7627 H 723.315 1.19624 0.801636 0
M  V30 7628 H 725.268 1.54895 3.919 0
M  V30 7629 H 723.992 0.518392 3.2246 0
M  V30 7630 H 722.651 2.56358 2.62061 0
M  V30 7631 H 722.299 1.43062 4.82226 0
M  V30 7632 H 721.999 3.18273 4.93939 0
M  V30 7633 H 723.523 2.49758 5.57183 0
M  V30 7634 H 724.937 4.12217 3.98435 0
M  V30 7635 H 723.334 4.80836 3.5905 0
M  V30 7636 H 724.404 4.2798 2.27949 0
M  V30 7637 N 725.747 -0.868086 1.31537 0
M  V30 7638 C 727.024 -1.60384 1.11965 0
M  V30 7639 C 727.404 -2.08584 -0.324949 0
M  V30 7640 O 726.752 -1.86561 -1.31937 0
M  V30 7641 C 726.962 -2.76038 2.13551 0
M  V30 7642 C 728.31 -3.45954 2.46173 0
M  V30 7643 O 729.334 -2.86247 2.11993 0
M  V30 7644 O 728.193 -4.53666 3.04711 0
M  V30 7645 H 725.287 -0.705705 0.431172 0
M  V30 7646 H 727.833 -0.913385 1.43022 0
M  V30 7647 H 726.605 -2.37849 3.10714 0
M  V30 7648 H 726.228 -3.52769 1.83411 0
M  V30 7649 N 727.225 -1.14528 -1.08264 0
M  V30 7650 C 728.175 -0.802141 -2.13424 0
M  V30 7651 C 729.159 0.209362 -1.59532 0
M  V30 7652 O 730.351 0.0114859 -1.76996 0
M  V30 7653 C 727.48 -0.282938 -3.42132 0
M  V30 7654 C 726.566 -1.32405 -4.02902 0
M  V30 7655 N 726.957 -2.52861 -4.38058 0
M  V30 7656 C 725.255 -1.17462 -4.30254 0
M  V30 7657 C 725.956 -3.1952 -4.86088 0
M  V30 7658 N 724.932 -2.46921 -4.84284 0
M  V30 7659 H 728.734 -1.71843 -2.38426 0
M  V30 7660 H 726.248 -1.02936 -1.2561 0
M  V30 7661 H 728.245 -0.0188053 -4.16896 0
M  V30 7662 H 726.905 0.627533 -3.18578 0
M  V30 7663 H 727.916 -2.90078 -4.2904 0
M  V30 7664 H 724.593 -0.323283 -4.16246 0
M  V30 7665 H 725.983 -4.2223 -5.22658 0
M  V30 7666 N 728.703 1.26451 -0.940633 0
M  V30 7667 C 729.951 1.93395 -0.586748 0
M  V30 7668 C 730.272 1.7417 0.876921 0
M  V30 7669 O 729.542 1.097 1.62304 0
M  V30 7670 H 728.122 0.715687 -0.214012 0
M  V30 7671 H 730.784 1.53902 -1.19584 0
M  V30 7672 H 729.88 3.01565 -0.804059 0
M  V30 7673 N 730.181 0.707592 1.40822 0
M  V30 7674 C 731.131 0.0265008 2.27985 0
M  V30 7675 C 732.115 -0.740685 1.42838 0
M  V30 7676 O 733.307 -0.6142 1.66002 0
M  V30 7677 C 730.436 -0.900382 3.31282 0
M  V30 7678 C 729.522 -0.128807 4.23904 0
M  V30 7679 N 729.913 0.883744 4.9802 0
M  V30 7680 C 728.211 -0.362539 4.44524 0
M  V30 7681 C 728.912 1.34666 5.65898 0
M  V30 7682 N 727.888 0.670306 5.39451 0
M  V30 7683 H 731.69 0.802667 2.82727 0
M  V30 7684 H 729.204 0.539475 1.53178 0
M  V30 7685 H 731.201 -1.40357 3.92563 0
M  V30 7686 H 729.861 -1.67601 2.781 0
M  V30 7687 H 730.872 1.26435 5.0223 0
M  V30 7688 H 727.549 -1.11512 4.02332 0
M  V30 7689 H 728.939 2.18756 6.35292 0
M  V30 7690 N 731.66 -1.50943 0.453197 0
M  V30 7691 C 732.607 -2.28128 -0.350197 0
M  V30 7692 C 733.577 -1.32398 -1.00299 0
M  V30 7693 O 734.762 -1.61319 -1.01887 0
M  V30 7694 C 731.902 -3.13782 -1.43649 0
M  V30 7695 C 731.015 -4.24523 -0.800255 0
M  V30 7696 C 730.15 -4.97462 -1.86293 0
M  V30 7697 C 729.189 -6.00102 -1.20598 0
M  V30 7698 N 728.326 -6.66387 -2.21071 0
M  V30 7699 H 733.166 -2.96337 0.31434 0
M  V30 7700 H 730.703 -1.46151 0.166863 0
M  V30 7701 H 732.661 -3.6178 -2.07776 0
M  V30 7702 H 731.291 -2.47655 -2.07044 0
M  V30 7703 H 730.343 -3.80371 -0.0468651 0
M  V30 7704 H 731.655 -4.98009 -0.280777 0
M  V30 7705 H 730.809 -5.49088 -2.58044 0
M  V30 7706 H 729.548 -4.23642 -2.41617 0
M  V30 7707 H 728.553 -5.47753 -0.474 0
M  V30 7708 H 729.778 -6.75887 -0.659859 0
M  V30 7709 H 727.724 -5.9537 -2.75446 0
M  V30 7710 H 727.641 -7.3569 -1.74058 0
M  V30 7711 H 728.909 -7.22638 -2.92257 0
M  V30 7712 N 733.138 -0.185124 -1.56509 0
M  V30 7713 C 734.088 0.752315 -2.15231 0
M  V30 7714 C 735.072 1.18327 -1.0903 0
M  V30 7715 O 736.264 1.14333 -1.35119 0
M  V30 7716 C 733.393 1.97583 -2.80742 0
M  V30 7717 C 732.479 1.56623 -3.94119 0
M  V30 7718 N 732.87 0.867008 -4.98314 0
M  V30 7719 C 731.168 1.85626 -4.05535 0
M  V30 7720 C 731.869 0.663228 -5.77907 0
M  V30 7721 N 730.845 1.20891 -5.29987 0
M  V30 7722 H 734.647 0.209267 -2.93154 0
M  V30 7723 H 732.161 0.0150444 -1.62393 0
M  V30 7724 H 734.158 2.65779 -3.21197 0
M  V30 7725 H 732.818 2.52369 -2.04303 0
M  V30 7726 H 733.829 0.52355 -5.15247 0
M  V30 7727 H 730.506 2.41992 -3.40215 0
M  V30 7728 H 731.896 0.109273 -6.71811 0
M  V30 7729 N 734.616 1.57351 0.0885366 0
M  V30 7730 C 735.563 2.02523 1.10693 0
M  V30 7731 C 736.533 0.902736 1.39427 0
M  V30 7732 O 737.718 1.16921 1.50779 0
M  V30 7733 C 734.858 2.46013 2.42016 0
M  V30 7734 C 733.971 3.7181 2.19957 0
M  V30 7735 C 733.106 4.04152 3.44724 0
M  V30 7736 C 732.145 5.2304 3.17956 0
M  V30 7737 N 731.282 5.51102 4.35007 0
M  V30 7738 H 736.122 2.89302 0.714742 0
M  V30 7739 H 733.659 1.43084 0.341378 0
M  V30 7740 H 735.617 2.69274 3.18665 0
M  V30 7741 H 734.247 1.62235 2.79069 0
M  V30 7742 H 733.299 3.55987 1.34079 0
M  V30 7743 H 734.611 4.58604 1.96173 0
M  V30 7744 H 733.765 4.28225 4.29777 0
M  V30 7745 H 732.504 3.15893 3.71568 0
M  V30 7746 H 731.509 4.98781 2.31296 0
M  V30 7747 H 732.734 6.12902 2.92451 0
M  V30 7748 H 730.68 4.65802 4.61914 0
M  V30 7749 H 730.597 6.3228 4.14437 0
M  V30 7750 H 731.865 5.79714 5.21106 0
M  V30 7751 N 736.094 -0.359525 1.53444 0
M  V30 7752 C 737.044 -1.441 1.7669 0
M  V30 7753 C 738.028 -1.48408 0.621599 0
M  V30 7754 O 739.22 -1.53547 0.880468 0
M  V30 7755 C 736.349 -2.81455 1.96566 0
M  V30 7756 C 735.435 -2.81601 3.17115 0
M  V30 7757 N 735.826 -2.51388 4.38905 0
M  V30 7758 C 734.124 -3.12758 3.1796 0
M  V30 7759 C 734.825 -2.59365 5.20677 0
M  V30 7760 N 733.801 -2.94328 4.57025 0
M  V30 7761 H 737.603 -1.19613 2.68458 0
M  V30 7762 H 735.117 -0.567761 1.52152 0
M  V30 7763 H 737.114 -3.59357 2.11348 0
M  V30 7764 H 735.774 -3.06901 1.06029 0
M  V30 7765 H 736.785 -2.24873 4.66533 0
M  V30 7766 H 733.462 -3.43479 2.37336 0
M  V30 7767 H 734.852 -2.39301 6.27841 0
M  V30 7768 N 737.572 -1.44907 -0.619662 0
M  V30 7769 C 738.82 -1.47999 -1.37625 0
M  V30 7770 C 739.141 -0.118295 -1.94641 0
M  V30 7771 O 738.411 0.85086 -1.76457 0
M  V30 7772 H 736.991 -0.544993 -0.510873 0
M  V30 7773 H 739.653 -1.80772 -0.728522 0
M  V30 7774 H 738.749 -2.21196 -2.20179 0
M  V30 7775 N 739.05 0.861098 -1.31996 0
M  V30 7776 C 740 1.95703 -1.1698 0
M  V30 7777 C 740.984 1.60709 -0.0784201 0
M  V30 7778 O 742.176 1.74365 -0.304262 0
M  V30 7779 C 739.305 3.31606 -0.888388 0
M  V30 7780 C 738.391 3.7284 -2.02117 0
M  V30 7781 N 738.782 3.85957 -3.26911 0
M  V30 7782 C 737.08 4.02419 -1.92289 0
M  V30 7783 C 737.781 4.21333 -4.01065 0
M  V30 7784 N 736.757 4.32502 -3.29307 0
M  V30 7785 H 740.559 2.03968 -2.11599 0
M  V30 7786 H 738.073 1.05245 -1.23682 0
M  V30 7787 H 740.07 4.09881 -0.761782 0
M  V30 7788 H 738.73 3.24662 0.0494898 0
M  V30 7789 H 739.741 3.70449 -3.61923 0
M  V30 7790 H 736.418 4.03814 -1.06022 0
M  V30 7791 H 737.808 4.39005 -5.08649 0
M  V30 7792 N 740.528 1.15101 1.07655 0
M  V30 7793 C 741.776 0.922149 1.79836 0
M  V30 7794 C 742.097 -0.552346 1.87014 0
M  V30 7795 O 741.367 -1.40145 1.3688 0
M  V30 7796 H 739.947 0.338182 0.666064 0
M  V30 7797 H 742.609 1.45107 1.30115 0
M  V30 7798 H 741.705 1.32883 2.82398 0
M  V30 7799 N 742.006 -1.2595 0.947325 0
M  V30 7800 C 742.956 -2.23859 0.432547 0
M  V30 7801 C 743.94 -1.53755 -0.474154 0
M  V30 7802 O 745.132 -1.74293 -0.308397 0
M  V30 7803 C 742.261 -3.42027 -0.295318 0
M  V30 7804 C 741.347 -4.19409 0.62903 0
M  V30 7805 N 741.738 -4.74284 1.7575 0
M  V30 7806 C 740.036 -4.43866 0.435805 0
M  V30 7807 C 740.737 -5.32821 2.33401 0
M  V30 7808 N 739.713 -5.18858 1.62135 0
M  V30 7809 H 743.515 -2.63886 1.29388 0
M  V30 7810 H 741.029 -1.41105 0.80393 0
M  V30 7811 H 743.026 -4.11297 -0.681188 0
M  V30 7812 H 741.686 -3.03526 -1.15334 0
M  V30 7813 H 742.697 -4.71641 2.13952 0
M  V30 7814 H 739.374 -4.15768 -0.37994 0
M  V30 7815 H 740.764 -5.86111 3.28517 0
M  V30 7816 N 743.484 -0.715051 -1.40445 0
M  V30 7817 C 744.732 -0.253826 -2.005 0
M  V30 7818 C 745.053 1.15681 -1.5698 0
M  V30 7819 O 744.323 1.78414 -0.809027 0
M  V30 7820 H 742.903 -0.0908537 -0.741454 0
M  V30 7821 H 745.565 -0.920561 -1.7179 0
M  V30 7822 H 744.661 -0.286499 -3.10782 0
M  V30 7823 N 744.962 1.50701 -0.461195 0
M  V30 7824 C 745.909 2.2831 0.338094 0
M  V30 7825 C 746.879 1.32928 0.995957 0
M  V30 7826 O 748.064 1.61857 1.0103 0
M  V30 7827 C 745.204 3.14539 1.41983 0
M  V30 7828 C 744.317 4.24942 0.77773 0
M  V30 7829 C 743.452 4.98443 1.83652 0
M  V30 7830 C 742.491 6.00733 1.17413 0
M  V30 7831 N 741.628 6.6755 2.17533 0
M  V30 7832 H 746.468 2.96167 -0.330051 0
M  V30 7833 H 744.005 1.4606 -0.174611 0
M  V30 7834 H 745.963 3.62877 2.05855 0
M  V30 7835 H 744.593 2.48749 2.05727 0
M  V30 7836 H 743.645 3.80391 0.0266924 0
M  V30 7837 H 744.957 4.98151 0.254362 0
M  V30 7838 H 744.111 5.50449 2.55129 0
M  V30 7839 H 742.85 4.24917 2.39367 0
M  V30 7840 H 741.855 5.47997 0.444944 0
M  V30 7841 H 743.08 6.76227 0.624006 0
M  V30 7842 H 741.026 5.96823 2.72284 0
M  V30 7843 H 740.943 7.36603 1.70154 0
M  V30 7844 H 742.211 7.24178 2.88421 0
M  V30 7845 N 746.441 0.193421 1.56409 0
M  V30 7846 C 747.391 -0.74089 2.15627 0
M  V30 7847 C 748.375 -1.17747 1.09656 0
M  V30 7848 O 749.567 -1.13615 1.35723 0
M  V30 7849 C 746.696 -1.96091 2.81786 0
M  V30 7850 C 745.782 -1.54531 3.94944 0
M  V30 7851 N 746.173 -0.840569 4.98767 0
M  V30 7852 C 744.471 -1.83473 4.06514 0
M  V30 7853 C 745.172 -0.632571 5.7825 0
M  V30 7854 N 744.148 -1.18078 5.30621 0
M  V30 7855 H 747.95 -0.193718 2.93261 0
M  V30 7856 H 745.464 -0.00643211 1.62399 0
M  V30 7857 H 747.461 -2.64071 3.22602 0
M  V30 7858 H 746.121 -2.51282 2.05639 0
M  V30 7859 H 747.132 -0.496218 5.15517 0
M  V30 7860 H 743.809 -2.40184 3.41493 0
M  V30 7861 H 745.199 -0.0736433 6.7186 0
M  V30 7862 N 747.919 -1.57396 -0.0801906 0
M  V30 7863 C 748.866 -2.03107 -1.09618 0
M  V30 7864 C 749.836 -0.910118 -1.38946 0
M  V30 7865 O 751.021 -1.17719 -1.50156 0
M  V30 7866 C 748.161 -2.47293 -2.40708 0
M  V30 7867 C 747.274 -3.72972 -2.17982 0
M  V30 7868 C 746.409 -4.05975 -3.42576 0
M  V30 7869 C 745.448 -5.24719 -3.15177 0
M  V30 7870 N 744.585 -5.53401 -4.32078 0
M  V30 7871 H 749.425 -2.89677 -0.69939 0
M  V30 7872 H 746.962 -1.43263 -0.333785 0
M  V30 7873 H 748.92 -2.7096 -3.17232 0
M  V30 7874 H 747.55 -1.63713 -2.78205 0
M  V30 7875 H 746.602 -3.56693 -1.32189 0
M  V30 7876 H 747.914 -4.59638 -1.93738 0
M  V30 7877 H 747.068 -4.30498 -4.275 0
M  V30 7878 H 745.807 -3.17859 -3.69887 0
M  V30 7879 H 744.812 -5 -2.28648 0
M  V30 7880 H 746.037 -6.14445 -2.89197 0
M  V30 7881 H 743.983 -4.68245 -4.59437 0
M  V30 7882 H 743.9 -6.34469 -4.11078 0
M  V30 7883 H 745.168 -5.8247 -5.18024 0
M  V30 7884 N 749.397 0.351382 -1.53633 0
M  V30 7885 C 750.345 1.45142 -1.8176 0
M  V30 7886 C 751.339 1.54819 -0.687571 0
M  V30 7887 O 752.545 1.57536 -0.870772 0
M  V30 7888 H 748.92 0.483789 -0.575719 0
M  V30 7889 H 750.891 1.1863 -2.73806 0
M  V30 7890 C 749.64 2.81779 -2.03706 0
M  V30 7891 H 748.963 2.75097 -2.90107 0
M  V30 7892 H 750.403 3.5789 -2.27356 0
M  V30 7893 C 748.862 3.26762 -0.820271 0
M  V30 7894 O 749.392 4.01697 -0.0158603 0
M  V30 7895 N 747.598 2.83472 -0.639699 0
M  V30 7896 H 747.145 2.22655 -1.29547 0
M  V30 7897 H 747.103 3.13924 0.172995 0
M  V30 7898 N 750.875 1.45233 0.611969 0
M  V30 7899 C 751.822 1.5357 1.72293 0
M  V30 7900 C 752.792 0.381912 1.6165 0
M  V30 7901 O 753.977 0.594765 1.81293 0
M  V30 7902 C 751.117 1.50419 3.10593 0
M  V30 7903 C 750.23 2.76316 3.32074 0
M  V30 7904 C 749.365 2.64866 4.60456 0
M  V30 7905 C 748.404 3.85838 4.7518 0
M  V30 7906 N 747.541 3.72949 5.94856 0
M  V30 7907 H 752.381 2.4848 1.64504 0
M  V30 7908 H 749.918 1.23302 0.802191 0
M  V30 7909 H 751.876 1.4658 3.90602 0
M  V30 7910 H 750.506 0.590621 3.17351 0
M  V30 7911 H 749.558 2.90261 2.45872 0
M  V30 7912 H 750.87 3.66055 3.38829 0
M  V30 7913 H 750.024 2.58969 5.48653 0
M  V30 7914 H 748.763 1.72719 4.56092 0
M  V30 7915 H 747.768 3.92099 3.85407 0
M  V30 7916 H 748.993 4.79045 4.81344 0
M  V30 7917 H 746.939 2.83567 5.91545 0
M  V30 7918 H 746.856 4.56319 6.02751 0
M  V30 7919 H 748.124 3.70976 6.85563 0
M  V30 7920 N 752.353 -0.854086 1.3245 0
M  V30 7921 C 753.601 -1.60513 1.228 0
M  V30 7922 C 753.922 -1.93865 -0.210073 0
M  V30 7923 O 753.192 -1.59673 -1.13496 0
M  V30 7924 H 751.772 -0.595099 0.451516 0
M  V30 7925 H 754.434 -1.0216 1.6598 0
M  V30 7926 H 753.53 -2.54182 1.81102 0
M  V30 7927 N 753.831 -1.1567 -1.07043 0
M  V30 7928 C 754.778 -0.856336 -2.14326 0
M  V30 7929 C 755.748 0.192051 -1.64986 0
M  V30 7930 O 756.933 0.0589148 -1.90709 0
M  V30 7931 C 754.073 -0.355227 -3.43267 0
M  V30 7932 C 753.186 -1.46555 -4.06381 0
M  V30 7933 C 752.321 -0.920245 -5.23168 0
M  V30 7934 C 751.36 -2.00729 -5.78251 0
M  V30 7935 N 750.497 -1.47813 -6.86364 0
M  V30 7936 H 755.337 -1.77514 -2.39359 0
M  V30 7937 H 752.874 -0.885676 -1.17449 0
M  V30 7938 H 754.832 -0.0463804 -4.17174 0
M  V30 7939 H 753.462 0.526649 -3.18475 0
M  V30 7940 H 752.514 -1.89052 -3.30096 0
M  V30 7941 H 753.826 -2.28616 -4.43324 0
M  V30 7942 H 752.98 -0.564127 -6.04072 0
M  V30 7943 H 751.719 -0.0688477 -4.87651 0
M  V30 7944 H 750.724 -2.3722 -4.95991 0
M  V30 7945 H 751.949 -2.86252 -6.15822 0
M  V30 7946 H 749.895 -0.649145 -6.5278 0
M  V30 7947 H 749.812 -2.23498 -7.22208 0
M  V30 7948 H 751.08 -1.15036 -7.70965 0
M  V30 7949 N 755.309 1.25446 -0.953992 0
M  V30 7950 C 756.256 2.25912 -0.472485 0
M  V30 7951 C 757.226 1.59173 0.47469 0
M  V30 7952 O 758.411 1.86812 0.388082 0
M  V30 7953 C 755.551 3.44235 0.244218 0
M  V30 7954 C 754.664 4.25613 -0.740121 0
M  V30 7955 C 753.799 5.312 -0.000922267 0
M  V30 7956 C 752.838 6.04265 -0.976236 0
M  V30 7957 N 751.975 7.01589 -0.267952 0
M  V30 7958 H 756.815 2.66469 -1.3341 0
M  V30 7959 H 754.352 1.31005 -0.669045 0
M  V30 7960 H 756.31 4.11682 0.676314 0
M  V30 7961 H 754.94 3.04554 1.06988 0
M  V30 7962 H 753.992 3.57834 -1.2907 0
M  V30 7963 H 755.304 4.762 -1.48441 0
M  V30 7964 H 754.458 6.04719 0.48984 0
M  V30 7965 H 753.197 4.81484 0.776159 0
M  V30 7966 H 752.202 5.29561 -1.478 0
M  V30 7967 H 753.427 6.5607 -1.75354 0
M  V30 7968 H 751.373 6.54164 0.490403 0
M  V30 7969 H 751.29 7.4999 -0.951344 0
M  V30 7970 H 752.558 7.7924 0.201294 0
M  V30 7971 N 756.787 0.722489 1.40064 0
M  V30 7972 C 757.735 0.063329 2.32514 0
M  V30 7973 C 758.729 -0.73953 1.52405 0
M  V30 7974 O 759.935 -0.642122 1.68157 0
M  V30 7975 H 756.31 0.00167692 0.751998 0
M  V30 7976 H 758.281 0.859656 2.85749 0
M  V30 7977 C 757.03 -0.839219 3.3742 0
M  V30 7978 H 756.353 -0.230836 3.99133 0
M  V30 7979 H 757.793 -1.26827 4.04587 0
M  V30 7980 C 756.252 -1.96783 2.73456 0
M  V30 7981 O 756.782 -3.05933 2.60323 0
M  V30 7982 N 754.988 -1.75351 2.31734 0
M  V30 7983 H 754.535 -0.865787 2.42615 0
M  V30 7984 H 754.493 -2.51043 1.89275 0
M  V30 7985 N 758.265 -1.50454 0.469181 0
M  V30 7986 C 759.513 -2.01916 -0.0862982 0
M  V30 7987 C 759.834 -1.35337 -1.40388 0
M  V30 7988 O 759.104 -0.498096 -1.89462 0
M  V30 7989 H 757.684 -0.746185 -0.0348825 0
M  V30 7990 H 760.346 -1.84804 0.619167 0
M  V30 7991 H 759.442 -3.11182 -0.239189 0
M  V30 7992 N 759.743 -0.201713 -1.56304 0
M  V30 7993 C 760.69 0.716499 -2.19397 0
M  V30 7994 C 761.66 1.20494 -1.14326 0
M  V30 7995 O 762.845 1.26763 -1.42604 0
M  V30 7996 C 759.985 1.92762 -2.86246 0
M  V30 7997 C 759.098 1.47993 -4.0586 0
M  V30 7998 C 758.233 2.64706 -4.60547 0
M  V30 7999 C 757.272 2.16576 -5.72504 0
M  V30 8000 N 756.409 3.26491 -6.21569 0
M  V30 8001 H 761.249 0.171724 -2.97505 0
M  V30 8002 H 758.786 0.073016 -1.46919 0
M  V30 8003 H 760.744 2.6384 -3.23178 0
M  V30 8004 H 759.374 2.44559 -2.10691 0
M  V30 8005 H 758.426 0.66477 -3.74546 0
M  V30 8006 H 759.738 1.08686 -4.86815 0
M  V30 8007 H 758.892 3.43898 -4.99819 0
M  V30 8008 H 757.631 3.0729 -3.78713 0
M  V30 8009 H 756.636 1.3584 -5.32755 0
M  V30 8010 H 757.861 1.75015 -6.56161 0
M  V30 8011 H 755.807 3.68594 -5.42655 0
M  V30 8012 H 755.724 2.91374 -6.97594 0
M  V30 8013 H 756.992 4.05877 -6.65495 0
M  V30 8014 N 761.222 1.57436 0.0718424 0
M  V30 8015 C 762.172 2.00132 1.09229 0
M  V30 8016 C 763.156 0.883379 1.34481 0
M  V30 8017 O 764.348 1.14728 1.34783 0
M  V30 8018 C 761.477 2.44876 2.40605 0
M  V30 8019 C 760.563 3.63405 2.18627 0
M  V30 8020 N 760.954 4.77583 1.66579 0
M  V30 8021 C 759.252 3.69953 2.491 0
M  V30 8022 C 759.953 5.5943 1.59415 0
M  V30 8023 N 758.929 5.03275 2.05464 0
M  V30 8024 H 762.731 2.85849 0.683185 0
M  V30 8025 H 760.245 1.59987 0.278914 0
M  V30 8026 H 762.242 2.73703 3.14471 0
M  V30 8027 H 760.902 1.60546 2.82232 0
M  V30 8028 H 761.913 4.99875 1.35443 0
M  V30 8029 H 758.59 2.96336 2.94094 0
M  V30 8030 H 759.98 6.61093 1.20026 0
M  V30 8031 N 762.7 -0.34323 1.53817 0
M  V30 8032 C 763.648 -1.44176 1.82527 0
M  V30 8033 C 764.642 -1.54452 0.695772 0
M  V30 8034 O 765.848 -1.57072 0.879114 0
M  V30 8035 H 762.223 -0.480729 0.578277 0
M  V30 8036 H 764.194 -1.17176 2.74431 0
M  V30 8037 C 762.943 -2.80695 2.05197 0
M  V30 8038 H 762.266 -2.73554 2.91561 0
M  V30 8039 H 763.706 -3.56679 2.29251 0
M  V30 8040 C 762.165 -3.26322 0.837589 0
M  V30 8041 O 762.695 -4.01683 0.0371631 0
M  V30 8042 N 760.901 -2.83128 0.654724 0
M  V30 8043 H 760.448 -2.21965 1.30725 0
M  V30 8044 H 760.406 -3.14011 -0.156345 0
M  V30 8045 N 764.178 -1.45556 -0.604258 0
M  V30 8046 C 765.426 -1.4945 -1.36048 0
M  V30 8047 C 765.747 -0.138933 -1.94504 0
M  V30 8048 O 765.017 0.832097 -1.7735 0
M  V30 8049 H 763.597 -0.550381 -0.505064 0
M  V30 8050 H 766.259 -1.81535 -0.709308 0
M  V30 8051 H 765.355 -2.23519 -2.17821 0
M  V30 8052 N 765.656 0.84705 -1.32902 0
M  V30 8053 C 766.902 1.60389 -1.25088 0
M  V30 8054 C 767.257 1.91521 0.183723 0
M  V30 8055 O 766.55 1.55197 1.12359 0
M  V30 8056 C 766.744 2.92663 -2.05142 0
M  V30 8057 C 766.573 2.74449 -3.56241 0
M  V30 8058 C 765.343 2.72434 -4.25567 0
M  V30 8059 C 767.541 2.47666 -4.5074 0
M  V30 8060 N 765.523 2.45512 -5.62669 0
M  V30 8061 C 766.894 2.30219 -5.75673 0
M  V30 8062 C 768.949 2.33196 -4.39914 0
M  V30 8063 C 767.652 1.99772 -6.91002 0
M  V30 8064 C 769.678 2.0414 -5.5505 0
M  V30 8065 C 769.04 1.875 -6.78987 0
M  V30 8066 H 765.139 0.590296 -0.512908 0
M  V30 8067 H 767.723 0.995058 -1.67352 0
M  V30 8068 H 765.894 3.51511 -1.65211 0
M  V30 8069 H 767.626 3.5777 -1.89163 0
M  V30 8070 H 764.381 2.85647 -3.7776 0
M  V30 8071 H 764.805 2.34958 -6.3492 0
M  V30 8072 H 769.447 2.44777 -3.44738 0
M  V30 8073 H 767.165 1.86928 -7.86183 0
M  V30 8074 H 770.751 1.93711 -5.48605 0
M  V30 8075 H 769.631 1.65339 -7.66572 0
M  V30 8076 N 767.134 1.16236 1.06428 0
M  V30 8077 C 768.081 0.86769 2.13869 0
M  V30 8078 C 769.051 -0.183298 1.65086 0
M  V30 8079 O 770.236 -0.0488002 1.90738 0
M  V30 8080 C 767.376 0.373427 3.43074 0
M  V30 8081 C 766.489 1.48708 4.05598 0
M  V30 8082 C 765.624 0.947977 5.22673 0
M  V30 8083 C 764.663 2.03793 5.77178 0
M  V30 8084 N 763.8 1.51451 6.85571 0
M  V30 8085 H 768.64 1.78781 2.38414 0
M  V30 8086 H 766.177 0.891892 1.16977 0
M  V30 8087 H 768.135 0.0685035 4.17144 0
M  V30 8088 H 766.765 -0.509752 3.1875 0
M  V30 8089 H 765.817 1.908 3.29089 0
M  V30 8090 H 767.129 2.30964 4.42105 0
M  V30 8091 H 766.283 0.596154 6.03764 0
M  V30 8092 H 765.022 0.0947081 4.87608 0
M  V30 8093 H 764.027 2.39847 4.94726 0
M  V30 8094 H 765.252 2.89514 6.14295 0
M  V30 8095 H 763.198 0.683755 6.52427 0
M  V30 8096 H 763.115 2.27325 7.21013 0
M  V30 8097 H 764.383 1.19123 7.70344 0
M  V30 8098 N 768.612 -1.24939 0.960631 0
M  V30 8099 C 769.84 -1.96881 0.636045 0
M  V30 8100 C 770.255 -1.71334 -0.793093 0
M  V30 8101 O 769.612 -0.992917 -1.53125 0
M  V30 8102 C 769.663 -3.50309 0.892533 0
M  V30 8103 O 769.384 -3.74977 2.26548 0
M  V30 8104 C 770.885 -4.39474 0.581159 0
M  V30 8105 H 768.105 -0.627399 0.237931 0
M  V30 8106 H 770.649 -1.58952 1.28664 0
M  V30 8107 H 768.804 -3.86326 0.288257 0
M  V30 8108 H 769.218 -4.69401 2.34014 0
M  V30 8109 H 770.692 -5.46008 0.811125 0
M  V30 8110 H 771.169 -4.3652 -0.48443 0
M  V30 8111 H 771.775 -4.09032 1.16502 0
M  V30 8112 N 770.09 -0.729906 -1.39679 0
M  V30 8113 C 771 -0.0880322 -2.34435 0
M  V30 8114 C 772.016 0.727674 -1.58053 0
M  V30 8115 O 773.192 0.657321 -1.90371 0
M  V30 8116 C 770.257 0.812211 -3.37052 0
M  V30 8117 C 769.318 -0.0151681 -4.29297 0
M  V30 8118 C 768.551 0.842202 -5.27013 0
M  V30 8119 O 768.774 2.08108 -5.31081 0
M  V30 8120 O 767.708 0.27357 -6.01278 0
M  V30 8121 H 771.534 -0.869989 -2.90972 0
M  V30 8122 H 769.119 -0.490522 -1.41118 0
M  V30 8123 H 771.001 1.32745 -3.99946 0
M  V30 8124 H 769.676 1.57307 -2.82907 0
M  V30 8125 H 768.583 -0.575811 -3.69642 0
M  V30 8126 H 769.916 -0.738129 -4.86634 0
M  V30 8127 N 771.568 1.50203 -0.477153 0
M  V30 8128 C 772.518 2.25561 0.332625 0
M  V30 8129 C 773.502 1.29401 0.956249 0
M  V30 8130 O 774.694 1.54267 0.867795 0
M  V30 8131 C 771.823 3.12984 1.41052 0
M  V30 8132 C 770.909 4.16595 0.79433 0
M  V30 8133 N 771.3 5.05722 -0.0889633 0
M  V30 8134 C 769.598 4.33279 1.0576 0
M  V30 8135 C 770.299 5.80039 -0.439286 0
M  V30 8136 N 769.275 5.43278 0.187018 0
M  V30 8137 H 773.077 2.91836 -0.347718 0
M  V30 8138 H 770.591 1.59759 -0.291686 0
M  V30 8139 H 772.588 3.65582 2.00388 0
M  V30 8140 H 771.248 2.48258 2.09279 0
M  V30 8141 H 772.259 5.15869 -0.458205 0
M  V30 8142 H 768.936 3.79769 1.7344 0
M  V30 8143 H 770.326 6.61802 -1.1605 0
M  V30 8144 N 773.046 0.209999 1.56195 0
M  V30 8145 C 773.976 -0.699746 2.22769 0
M  V30 8146 C 774.957 -1.20993 1.1956 0
M  V30 8147 O 776.142 -1.25605 1.48112 0
M  V30 8148 C 773.272 -1.91302 2.89863 0
M  V30 8149 C 772.226 -1.53715 3.99444 0
M  V30 8150 C 771.552 -2.82826 4.53777 0
M  V30 8151 C 772.852 -0.735836 5.17091 0
M  V30 8152 H 774.546 -0.144716 2.9905 0
M  V30 8153 H 772.092 -0.0681645 1.43839 0
M  V30 8154 H 774.045 -2.5548 3.35124 0
M  V30 8155 H 772.769 -2.49283 2.11011 0
M  V30 8156 H 771.428 -0.918892 3.54897 0
M  V30 8157 H 771.076 -3.38927 3.71669 0
M  V30 8158 H 770.776 -2.58415 5.27727 0
M  V30 8159 H 772.3 -3.47966 5.01749 0
M  V30 8160 H 773.714 -1.28105 5.58804 0
M  V30 8161 H 772.111 -0.589272 5.972 0
M  V30 8162 H 773.181 0.260004 4.84202 0
M  V30 8163 N 774.524 -1.57472 -0.0634922 0
M  V30 8164 C 775.487 -2.03268 -1.059 0
M  V30 8165 C 776.487 -0.931028 -1.31105 0
M  V30 8166 O 777.677 -1.19567 -1.26686 0
M  V30 8167 C 774.809 -2.42039 -2.40062 0
M  V30 8168 H 776.002 -2.92454 -0.664119 0
M  V30 8169 H 773.555 -1.53206 -0.309444 0
M  V30 8170 H 774.29 -1.55904 -2.84367 0
M  V30 8171 H 774.075 -3.22437 -2.23108 0
M  V30 8172 H 775.565 -2.78017 -3.11603 0
M  V30 8173 N 776.003 0.335068 -1.53997 0
M  V30 8174 C 777.228 1.09859 -1.75914 0
M  V30 8175 C 777.653 1.81308 -0.500915 0
M  V30 8176 O 777.011 1.72854 0.54693 0
M  V30 8177 C 777.059 2.08122 -2.94478 0
M  V30 8178 O 776.163 3.15805 -2.65219 0
M  V30 8179 H 775.504 0.317313 -0.583274 0
M  V30 8180 H 778.034 0.382872 -2.00986 0
M  V30 8181 H 778.044 2.51195 -3.21504 0
M  V30 8182 H 776.719 1.55517 -3.8573 0
M  V30 8183 H 775.296 2.77489 -2.49107 0
M  V30 8184 N 777.481 1.45874 0.596531 0
M  V30 8185 C 778.706 1.54247 1.38646 0
M  V30 8186 C 779.131 0.179571 1.87241 0
M  V30 8187 O 778.489 -0.837831 1.6078 0
M  V30 8188 C 778.537 2.54015 2.55946 0
M  V30 8189 O 777.641 2.06561 3.5694 0
M  V30 8190 H 776.982 0.519555 0.413471 0
M  V30 8191 H 779.512 1.91327 0.724936 0
M  V30 8192 H 779.522 2.73179 3.03047 0
M  V30 8193 H 778.197 3.52994 2.19928 0
M  V30 8194 H 776.774 1.97324 3.16414 0
M  V30 8195 N 778.959 -0.83999 1.33349 0
M  V30 8196 C 780.184 -1.63249 1.27924 0
M  V30 8197 C 780.609 -1.87523 -0.147193 0
M  V30 8198 O 779.967 -1.43853 -1.10345 0
M  V30 8199 C 780.015 -2.96046 2.05886 0
M  V30 8200 O 779.119 -3.87303 1.4167 0
M  V30 8201 H 778.46 -0.49715 0.440157 0
M  V30 8202 H 780.99 -1.04512 1.75893 0
M  V30 8203 H 781 -3.45752 2.16609 0
M  V30 8204 H 779.675 -2.77701 3.09605 0
M  V30 8205 H 778.252 -3.45789 1.39585 0
M  V30 8206 N 780.437 -1.16799 -1.0581 0
M  V30 8207 C 781.347 -0.893492 -2.16919 0
M  V30 8208 C 782.363 0.136061 -1.73467 0
M  V30 8209 O 783.539 -0.0417348 -2.01357 0
M  V30 8210 C 780.604 -0.403763 -3.44341 0
M  V30 8211 C 779.665 -1.49914 -4.02274 0
M  V30 8212 C 778.898 -1.03269 -5.23614 0
M  V30 8213 O 779.121 0.115647 -5.70283 0
M  V30 8214 O 778.055 -1.8231 -5.73626 0
M  V30 8215 H 781.881 -1.82274 -2.42919 0
M  V30 8216 H 779.466 -0.948361 -1.1544 0
M  V30 8217 H 781.348 -0.137874 -4.21174 0
M  V30 8218 H 780.023 0.497413 -3.19855 0
M  V30 8219 H 778.93 -1.81883 -3.26909 0
M  V30 8220 H 780.263 -2.3758 -4.31064 0
M  V30 8221 N 781.915 1.24427 -0.967243 0
M  V30 8222 C 783.192 1.87831 -0.545776 0
M  V30 8223 C 783.572 1.87126 0.977099 0
M  V30 8224 O 782.92 1.34357 1.84826 0
M  V30 8225 C 783.13 3.29967 -1.13679 0
M  V30 8226 C 784.478 4.06654 -1.22139 0
M  V30 8227 O 785.502 3.39136 -1.08926 0
M  V30 8228 O 784.361 5.27455 -1.43017 0
M  V30 8229 H 781.455 0.806745 -0.181912 0
M  V30 8230 H 784.001 1.32403 -1.06148 0
M  V30 8231 H 782.773 3.24977 -2.17958 0
M  V30 8232 H 782.396 3.92969 -0.605093 0
M  V30 8233 N 783.393 0.737304 1.3929 0
M  V30 8234 C 784.618 0.295237 2.05288 0
M  V30 8235 C 785.043 -1.06235 1.55228 0
M  V30 8236 O 784.401 -1.67365 0.697043 0
M  V30 8237 C 784.449 0.309146 3.59272 0
M  V30 8238 O 783.553 -0.702437 4.06374 0
M  V30 8239 H 782.894 0.133762 0.650387 0
M  V30 8240 H 785.424 1.00387 1.78279 0
M  V30 8241 H 785.434 0.154336 4.07708 0
M  V30 8242 H 784.109 1.29974 3.95069 0
M  V30 8243 H 782.686 -0.513574 3.69346 0
M  V30 8244 N 784.871 -1.49948 0.485112 0
M  V30 8245 C 786.099 -2.06806 -0.0622824 0
M  V30 8246 C 786.514 -1.34736 -1.32256 0
M  V30 8247 O 785.871 -0.420836 -1.77582 0
M  V30 8248 C 785.922 -3.59934 -0.336096 0
M  V30 8249 O 785.643 -4.29289 0.874203 0
M  V30 8250 C 787.144 -4.33459 -0.928903 0
M  V30 8251 H 784.364 -0.670867 0.0133472 0
M  V30 8252 H 786.908 -1.92937 0.677917 0
M  V30 8253 H 785.063 -3.7356 -1.02625 0
M  V30 8254 H 785.477 -5.20735 0.627332 0
M  V30 8255 H 786.951 -5.41527 -1.07017 0
M  V30 8256 H 787.428 -3.94881 -1.92265 0
M  V30 8257 H 788.034 -4.24399 -0.276705 0
M  V30 8258 N 786.349 -0.21828 -1.56081 0
M  V30 8259 C 787.577 0.419258 -2.02608 0
M  V30 8260 C 787.992 1.53578 -1.09814 0
M  V30 8261 O 787.349 1.82185 -0.107149 0
M  V30 8262 C 787.4 0.953955 -3.48686 0
M  V30 8263 O 787.121 -0.11805 -4.37941 0
M  V30 8264 C 788.622 1.66506 -4.10841 0
M  V30 8265 H 785.842 0.10296 -0.663054 0
M  V30 8266 H 788.386 -0.333776 -2.01758 0
M  V30 8267 H 786.541 1.65727 -3.50162 0
M  V30 8268 H 786.955 0.283359 -5.23734 0
M  V30 8269 H 788.429 1.99123 -5.14834 0
M  V30 8270 H 788.906 2.57705 -3.55647 0
M  V30 8271 H 789.512 1.00703 -4.13206 0
M  V30 8272 N 787.827 1.57504 0.0551401 0
M  V30 8273 C 789.238 1.76626 0.604979 0
M  V30 8274 C 789.589 0.845978 1.77024 0
M  V30 8275 O 788.714 0.0341936 2.16373 0
M  V30 8276 C 789.309 3.203 1.10425 0
M  V30 8277 C 787.868 3.4071 1.59981 0
M  V30 8278 C 787.015 2.72258 0.526414 0
M  V30 8279 H 789.966 1.57775 -0.171072 0
M  V30 8280 H 789.987 3.25377 1.97256 0
M  V30 8281 H 789.499 3.87255 0.255939 0
M  V30 8282 H 787.6 2.78892 2.47083 0
M  V30 8283 H 787.713 4.49227 1.66528 0
M  V30 8284 H 786.077 2.35283 0.97539 0
M  V30 8285 H 786.86 3.41879 -0.311991 0
M  V30 8286 N 789.305 -0.326896 1.54172 0
M  V30 8287 C 790.53 -1.08924 1.76494 0
M  V30 8288 C 790.955 -1.81039 0.510523 0
M  V30 8289 O 790.313 -1.73141 -0.537756 0
M  V30 8290 C 790.361 -2.06558 2.95578 0
M  V30 8291 O 789.465 -3.14394 2.6689 0
M  V30 8292 H 788.806 -0.314216 0.584948 0
M  V30 8293 H 791.336 -0.372207 2.01186 0
M  V30 8294 H 791.346 -2.49487 3.22832 0
M  V30 8295 H 790.021 -1.53469 3.86549 0
M  V30 8296 H 788.598 -2.76164 2.50576 0
M  V30 8297 N 790.784 -1.46188 -0.588786 0
M  V30 8298 C 791.747 -1.55882 -1.68029 0
M  V30 8299 C 792.747 -0.436515 -1.54762 0
M  V30 8300 O 793.937 -0.700626 -1.59489 0
M  V30 8301 C 791.069 -1.47332 -3.07418 0
M  V30 8302 H 792.262 -2.5315 -1.60795 0
M  V30 8303 H 789.815 -1.33908 -0.806116 0
M  V30 8304 H 790.55 -0.513193 -3.20214 0
M  V30 8305 H 790.335 -2.28753 -3.18456 0
M  V30 8306 H 791.825 -1.57187 -3.86887 0
M  V30 8307 N 792.262 0.832906 -1.33792 0
M  V30 8308 C 793.194 1.95042 -1.2038 0
M  V30 8309 C 794.207 1.62253 -0.133299 0
M  V30 8310 O 795.396 1.74315 -0.384261 0
M  V30 8311 C 792.496 3.287 -0.825215 0
M  V30 8312 C 791.669 3.89581 -1.98861 0
M  V30 8313 C 790.728 5.01602 -1.59003 0
M  V30 8314 O 789.754 5.20431 -2.30522 0
M  V30 8315 N 790.956 5.78356 -0.498446 0
M  V30 8316 H 793.721 2.07083 -2.16649 0
M  V30 8317 H 791.282 1.00896 -1.26616 0
M  V30 8318 H 793.274 4.01074 -0.540559 0
M  V30 8319 H 791.844 3.12565 0.0469796 0
M  V30 8320 H 791.064 3.09723 -2.43856 0
M  V30 8321 H 792.352 4.26989 -2.76691 0
M  V30 8322 H 791.75 5.65618 0.0963297 0
M  V30 8323 H 790.307 6.51226 -0.273485 0
M  V30 8324 N 793.74 1.17359 1.05189 0
M  V30 8325 C 794.968 0.986529 1.81866 0
M  V30 8326 C 795.383 -0.46522 1.82979 0
M  V30 8327 O 794.74 -1.32305 1.25705 0
M  V30 8328 C 794.791 1.52021 3.27982 0
M  V30 8329 O 794.512 2.91511 3.27037 0
M  V30 8330 C 796.013 1.37774 4.21347 0
M  V30 8331 H 793.233 0.349021 0.573084 0
M  V30 8332 H 795.777 1.55648 1.32643 0
M  V30 8333 H 793.932 0.992287 3.74476 0
M  V30 8334 H 794.346 3.16178 4.18488 0
M  V30 8335 H 795.82 1.7993 5.21852 0
M  V30 8336 H 796.297 0.32483 4.37997 0
M  V30 8337 H 796.903 1.89583 3.80708 0
M  V30 8338 N 795.218 -1.23913 0.973828 0
M  V30 8339 C 796.15 -2.24397 0.466763 0
M  V30 8340 C 797.163 -1.57078 -0.427828 0
M  V30 8341 O 798.352 -1.76973 -0.233019 0
M  V30 8342 C 795.452 -3.37141 -0.344798 0
M  V30 8343 C 794.625 -4.34037 0.541349 0
M  V30 8344 C 793.684 -5.2576 -0.215243 0
M  V30 8345 O 792.71 -5.67842 0.39291 0
M  V30 8346 N 793.912 -5.60702 -1.5031 0
M  V30 8347 H 796.677 -2.68536 1.33074 0
M  V30 8348 H 794.238 -1.38017 0.846346 0
M  V30 8349 H 796.23 -3.95476 -0.859133 0
M  V30 8350 H 794.8 -2.92239 -1.10974 0
M  V30 8351 H 794.02 -3.74302 1.23659 0
M  V30 8352 H 795.308 -4.95738 1.1455 0
M  V30 8353 H 794.706 -5.28451 -2.01882 0
M  V30 8354 H 793.263 -6.21538 -1.96301 0
M  V30 8355 N 796.696 -0.74468 -1.38897 0
M  V30 8356 C 797.606 -0.112892 -2.34328 0
M  V30 8357 C 798.622 0.71087 -1.58816 0
M  V30 8358 O 799.798 0.637092 -1.91058 0
M  V30 8359 C 796.863 0.776417 -3.37894 0
M  V30 8360 C 795.924 -0.0606999 -4.29257 0
M  V30 8361 C 795.157 0.786258 -5.27877 0
M  V30 8362 O 795.38 2.02463 -5.33259 0
M  V30 8363 O 794.314 0.209781 -6.01534 0
M  V30 8364 H 798.14 -0.900801 -2.90033 0
M  V30 8365 H 795.725 -0.505462 -1.4059 0
M  V30 8366 H 797.607 1.28496 -4.01331 0
M  V30 8367 H 796.282 1.54297 -2.84559 0
M  V30 8368 H 795.189 -0.614984 -3.69011 0
M  V30 8369 H 796.522 -0.789702 -4.85824 0
M  V30 8370 N 798.174 1.49689 -0.493057 0
M  V30 8371 C 799.121 2.28976 0.28959 0
M  V30 8372 C 800.091 1.35011 0.967536 0
M  V30 8373 O 801.276 1.63964 0.975736 0
M  V30 8374 C 798.416 3.1748 1.35279 0
M  V30 8375 C 797.529 4.26496 0.687418 0
M  V30 8376 C 796.664 5.02226 1.73038 0
M  V30 8377 C 795.703 6.03089 1.04645 0
M  V30 8378 N 794.84 6.72014 2.03325 0
M  V30 8379 H 799.68 2.954 -0.392798 0
M  V30 8380 H 797.217 1.45657 -0.205554 0
M  V30 8381 H 799.175 3.67162 1.98111 0
M  V30 8382 H 797.805 2.53057 2.00405 0
M  V30 8383 H 796.857 3.80362 -0.0540001 0
M  V30 8384 H 798.169 4.98578 0.14864 0
M  V30 8385 H 797.323 5.55737 2.43395 0
M  V30 8386 H 796.062 4.29899 2.303 0
M  V30 8387 H 795.067 5.48817 0.328606 0
M  V30 8388 H 796.292 6.77398 0.480428 0
M  V30 8389 H 794.238 6.02464 2.59564 0
M  V30 8390 H 794.155 7.40046 1.54492 0
M  V30 8391 H 795.423 7.30133 2.72995 0
M  V30 8392 N 799.652 0.226554 1.55963 0
M  V30 8393 C 800.88 -0.408507 2.02827 0
M  V30 8394 C 801.295 -1.52994 1.10627 0
M  V30 8395 O 800.652 -1.82126 0.116809 0
M  V30 8396 C 800.703 -0.93545 3.49187 0
M  V30 8397 O 800.424 0.141273 4.37872 0
M  V30 8398 C 801.925 -1.64325 4.11719 0
M  V30 8399 H 799.145 -0.099442 0.66359 0
M  V30 8400 H 801.689 0.344471 2.01578 0
M  V30 8401 H 799.844 -1.63868 3.51036 0
M  V30 8402 H 800.258 -0.25558 5.23877 0
M  V30 8403 H 801.732 -1.9639 5.15883 0
M  V30 8404 H 802.209 -2.55815 3.57009 0
M  V30 8405 H 802.815 -0.9851 4.13734 0
M  V30 8406 N 801.13 -1.57531 -0.0467866 0
M  V30 8407 C 802.04 -2.08768 -1.07018 0
M  V30 8408 C 803.056 -1.02245 -1.40791 0
M  V30 8409 O 804.232 -1.33873 -1.50466 0
M  V30 8410 C 801.297 -2.54221 -2.35738 0
M  V30 8411 C 800.358 -3.75152 -2.08709 0
M  V30 8412 C 799.591 -4.18428 -3.31291 0
M  V30 8413 O 799.814 -3.61365 -4.4133 0
M  V30 8414 O 798.748 -5.11018 -3.18032 0
M  V30 8415 H 802.574 -2.96334 -0.664812 0
M  V30 8416 H 800.159 -1.47074 -0.262605 0
M  V30 8417 H 802.041 -2.83866 -3.11445 0
M  V30 8418 H 800.716 -1.69774 -2.75605 0
M  V30 8419 H 799.623 -3.50553 -1.30627 0
M  V30 8420 H 800.956 -4.60528 -1.73708 0
M  V30 8421 N 802.608 0.318715 -1.54344 0
M  V30 8422 C 803.856 1.054 -1.72439 0
M  V30 8423 C 804.177 1.88388 -0.503495 0
M  V30 8424 O 803.447 1.89866 0.48246 0
M  V30 8425 H 802.027 0.392124 -0.635805 0
M  V30 8426 H 804.689 0.35398 -1.91659 0
M  V30 8427 H 803.785 1.71726 -2.60608 0
M  V30 8428 N 804.086 1.46499 0.581025 0
M  V30 8429 C 805.497 1.4604 1.16315 0
M  V30 8430 C 805.848 0.202154 1.95156 0
M  V30 8431 O 804.973 -0.694638 2.04948 0
M  V30 8432 C 805.568 2.64593 2.11604 0
M  V30 8433 C 804.127 2.6717 2.65136 0
M  V30 8434 C 803.274 2.38753 1.4104 0
M  V30 8435 H 806.225 1.54354 0.368871 0
M  V30 8436 H 806.246 2.40207 2.95095 0
M  V30 8437 H 805.758 3.56154 1.54194 0
M  V30 8438 H 803.859 1.79685 3.26411 0
M  V30 8439 H 803.972 3.67182 3.07757 0
M  V30 8440 H 802.336 1.88845 1.70908 0
M  V30 8441 H 803.119 3.32493 0.854588 0
M  V30 8442 N 805.565 -0.825799 1.34232 0
M  V30 8443 C 806.793 -1.61363 1.29497 0
M  V30 8444 C 807.208 -1.88341 -0.131536 0
M  V30 8445 O 806.565 -1.47279 -1.07773 0
M  V30 8446 C 806.616 -2.95623 2.08061 0
M  V30 8447 O 806.337 -2.69824 3.45147 0
M  V30 8448 C 807.838 -3.90032 2.10688 0
M  V30 8449 H 805.058 -0.501676 0.445603 0
M  V30 8450 H 807.602 -1.02767 1.76803 0
M  V30 8451 H 805.757 -3.50785 1.64404 0
M  V30 8452 H 806.171 -3.55412 3.85723 0
M  V30 8453 H 807.645 -4.81411 2.70087 0
M  V30 8454 H 808.122 -4.25188 1.10052 0
M  V30 8455 H 808.728 -3.40807 2.54422 0
M  V30 8456 N 807.043 -1.17915 -1.04565 0
M  V30 8457 C 808.454 -0.976383 -1.59134 0
M  V30 8458 C 808.805 0.475267 -1.90357 0
M  V30 8459 O 807.93 1.35172 -1.6899 0
M  V30 8460 C 808.525 -1.76604 -2.89131 0
M  V30 8461 C 807.084 -1.60777 -3.40335 0
M  V30 8462 C 806.231 -1.76369 -2.13985 0
M  V30 8463 H 809.182 -1.32532 -0.872985 0
M  V30 8464 H 809.203 -1.25215 -3.59307 0
M  V30 8465 H 808.715 -2.82252 -2.66375 0
M  V30 8466 H 806.816 -0.576436 -3.68114 0
M  V30 8467 H 806.929 -2.40268 -4.14497 0
M  V30 8468 H 805.293 -1.19268 -2.25049 0
M  V30 8469 H 806.076 -2.83441 -1.9369 0
M  V30 8470 N 808.521 1.23394 -0.980386 0
M  V30 8471 C 809.77 1.91116 -0.644785 0
M  V30 8472 C 810.083 1.77333 0.825367 0
M  V30 8473 O 811.289 2.39858 1.27203 0
M  V30 8474 C 809.745 3.42592 -1.10266 0
M  V30 8475 C 809.353 3.65037 -2.59715 0
M  V30 8476 C 811.097 4.1609 -0.8408 0
M  V30 8477 C 809.004 5.10148 -2.9917 0
M  V30 8478 H 807.934 0.715632 -0.23746 0
M  V30 8479 H 810.585 1.39829 -1.18828 0
M  V30 8480 H 808.967 3.92989 -0.487372 0
M  V30 8481 H 810.141 3.25186 -3.26482 0
M  V30 8482 H 808.456 3.04849 -2.83647 0
M  V30 8483 H 811.053 5.23021 -1.11143 0
M  V30 8484 H 811.396 4.15702 0.223085 0
M  V30 8485 H 811.929 3.71681 -1.41767 0
M  V30 8486 H 808.668 5.15668 -4.04682 0
M  V30 8487 H 808.188 5.50949 -2.37097 0
M  V30 8488 H 809.867 5.7848 -2.89775 0
M  V30 8489 N 809.999 0.752036 1.385 0
M  V30 8490 C 811.41 0.375385 1.82887 0
M  V30 8491 C 811.761 -1.09575 1.62751 0
M  V30 8492 O 810.886 -1.84685 1.12785 0
M  V30 8493 C 811.481 0.674563 3.32017 0
M  V30 8494 C 810.04 0.351208 3.74758 0
M  V30 8495 C 809.187 0.928531 2.61292 0
M  V30 8496 H 812.138 0.948313 1.27251 0
M  V30 8497 H 812.159 -0.0477781 3.8047 0
M  V30 8498 H 811.671 1.74533 3.46641 0
M  V30 8499 H 809.772 -0.713042 3.65714 0
M  V30 8500 H 809.885 0.845675 4.71577 0
M  V30 8501 H 808.249 0.354012 2.52228 0
M  V30 8502 H 809.032 2.0043 2.78716 0
M  V30 8503 N 811.477 -1.49425 0.500989 0
M  V30 8504 C 812.702 -2.07356 -0.0425154 0
M  V30 8505 C 813.127 -1.35887 -1.30063 0
M  V30 8506 O 812.485 -0.41561 -1.76472 0
M  V30 8507 C 812.533 -3.59518 -0.279188 0
M  V30 8508 O 811.637 -3.89542 -1.3539 0
M  V30 8509 H 810.978 -0.663482 0.0262207 0
M  V30 8510 H 813.508 -1.92231 0.700607 0
M  V30 8511 H 813.518 -4.04791 -0.5107 0
M  V30 8512 H 812.193 -4.10946 0.640009 0
M  V30 8513 H 810.77 -3.56079 -1.10734 0
M  V30 8514 N 812.955 -0.234822 -1.55841 0
M  V30 8515 C 813.885 0.664217 -2.23854 0
M  V30 8516 C 814.866 1.19076 -1.2147 0
M  V30 8517 O 816.051 1.23232 -1.50091 0
M  V30 8518 C 813.181 1.86666 -2.9287 0
M  V30 8519 C 812.135 1.47341 -4.01839 0
M  V30 8520 C 811.461 2.75571 -4.58219 0
M  V30 8521 C 812.761 0.653479 -5.18196 0
M  V30 8522 H 814.455 0.0971213 -2.99242 0
M  V30 8523 H 812.001 0.0452724 -1.43929 0
M  V30 8524 H 813.954 2.50116 -3.39146 0
M  V30 8525 H 812.678 2.45894 -2.1495 0
M  V30 8526 H 811.337 0.862314 -3.56314 0
M  V30 8527 H 810.985 3.32971 -3.77014 0
M  V30 8528 H 810.685 2.49987 -5.31771 0
M  V30 8529 H 812.209 3.39939 -5.07221 0
M  V30 8530 H 813.623 1.19198 -5.60771 0
M  V30 8531 H 812.02 0.494188 -5.98062 0
M  V30 8532 H 813.09 -0.337004 -4.83728 0
M  V30 8533 N 814.433 1.57553 0.0384317 0
M  V30 8534 C 815.396 2.04927 1.02653 0
M  V30 8535 C 816.396 0.951768 1.29607 0
M  V30 8536 O 817.586 1.21568 1.24768 0
M  V30 8537 C 814.718 2.45828 2.36181 0
M  V30 8538 H 815.911 2.93474 0.617508 0
M  V30 8539 H 813.464 1.53679 0.285031 0
M  V30 8540 H 814.199 1.60408 2.8185 0
M  V30 8541 H 813.984 3.25945 2.1795 0
M  V30 8542 H 815.474 2.82939 3.0714 0
M  V30 8543 N 815.911 -0.310526 1.54511 0
M  V30 8544 C 816.858 -1.38264 1.84802 0
M  V30 8545 C 817.828 -1.50808 0.696141 0
M  V30 8546 O 819.013 -1.6582 0.943846 0
M  V30 8547 C 816.153 -2.74422 2.09252 0
M  V30 8548 C 815.266 -2.70405 3.36906 0
M  V30 8549 C 814.401 -3.98495 3.51248 0
M  V30 8550 C 813.44 -3.88836 4.72729 0
M  V30 8551 N 812.577 -5.08683 4.83928 0
M  V30 8552 H 817.417 -1.11732 2.76261 0
M  V30 8553 H 814.954 -0.540609 1.36806 0
M  V30 8554 H 816.912 -3.53593 2.21422 0
M  V30 8555 H 815.542 -2.99235 1.2107 0
M  V30 8556 H 814.594 -1.83151 3.33406 0
M  V30 8557 H 815.906 -2.59155 4.26193 0
M  V30 8558 H 815.06 -4.861 3.63031 0
M  V30 8559 H 813.799 -4.12567 2.60077 0
M  V30 8560 H 812.804 -2.99615 4.60989 0
M  V30 8561 H 814.029 -3.76318 5.65298 0
M  V30 8562 H 811.975 -5.23236 3.95677 0
M  V30 8563 H 811.892 -4.99819 5.67201 0
M  V30 8564 H 813.16 -5.97966 5.00057 0
M  V30 8565 N 817.389 -1.46805 -0.573248 0
M  V30 8566 C 818.8 -1.46655 -1.15539 0
M  V30 8567 C 819.151 -0.2125 -1.95046 0
M  V30 8568 O 818.276 0.683759 -2.05314 0
M  V30 8569 C 818.871 -2.65711 -2.10198 0
M  V30 8570 C 817.43 -2.68572 -2.63716 0
M  V30 8571 C 816.577 -2.39498 -1.39772 0
M  V30 8572 H 819.528 -1.54547 -0.36068 0
M  V30 8573 H 819.549 -2.41768 -2.93817 0
M  V30 8574 H 819.061 -3.56967 -1.52303 0
M  V30 8575 H 817.162 -1.81414 -3.25453 0
M  V30 8576 H 817.275 -3.68809 -3.05805 0
M  V30 8577 H 815.639 -1.89749 -1.69904 0
M  V30 8578 H 816.422 -3.32942 -0.836943 0
M  V30 8579 N 818.867 0.818669 -1.34668 0
M  V30 8580 C 820.115 1.57201 -1.27013 0
M  V30 8581 C 820.436 1.94354 0.158599 0
M  V30 8582 O 819.706 1.62626 1.09223 0
M  V30 8583 H 818.286 0.582919 -0.467135 0
M  V30 8584 H 820.948 0.977234 -1.6863 0
M  V30 8585 H 820.044 2.49291 -1.87778 0
M  V30 8586 N 820.346 1.18468 1.03938 0
M  V30 8587 C 821.592 0.982286 1.77423 0
M  V30 8588 C 821.925 -0.48679 1.88 0
M  V30 8589 O 821.2 -1.36146 1.38905 0
M  V30 8590 C 821.483 1.63929 3.20623 0
M  V30 8591 C 821.336 3.18132 3.17982 0
M  V30 8592 C 822.655 1.3536 4.18767 0
M  V30 8593 H 819.774 0.358264 0.644062 0
M  V30 8594 H 822.416 1.46154 1.21405 0
M  V30 8595 H 820.566 1.2318 3.68455 0
M  V30 8596 H 822.238 3.68024 2.78129 0
M  V30 8597 H 820.481 3.50225 2.55978 0
M  V30 8598 H 821.152 3.5924 4.19107 0
M  V30 8599 H 823.628 1.70669 3.79488 0
M  V30 8600 H 822.504 1.83896 5.17178 0
M  V30 8601 H 822.765 0.276722 4.41233 0
M  V30 8602 N 821.824 -1.22873 0.986916 0
M  V30 8603 C 823.052 -1.95487 0.677663 0
M  V30 8604 C 823.467 -1.72978 -0.756572 0
M  V30 8605 O 822.824 -1.02517 -1.50985 0
M  V30 8606 C 822.875 -3.48337 0.966638 0
M  V30 8607 O 822.596 -3.70087 2.34451 0
M  V30 8608 C 824.097 -4.38142 0.674248 0
M  V30 8609 H 821.317 -0.622211 0.251185 0
M  V30 8610 H 823.861 -1.56187 1.32007 0
M  V30 8611 H 822.016 -3.85628 0.370137 0
M  V30 8612 H 822.43 -4.64332 2.43918 0
M  V30 8613 H 823.904 -5.44165 0.926759 0
M  V30 8614 H 824.381 -4.3745 -0.391728 0
M  V30 8615 H 824.987 -4.06469 1.25152 0
M  V30 8616 N 823.302 -0.75937 -1.38099 0
M  V30 8617 C 824.548 -0.318584 -2.00282 0
M  V30 8618 C 824.881 1.09854 -1.60143 0
M  V30 8619 O 824.156 1.75344 -0.841702 0
M  V30 8620 C 824.439 -0.448047 -3.57302 0
M  V30 8621 C 824.292 -1.9067 -4.07388 0
M  V30 8622 C 825.611 0.155119 -4.39827 0
M  V30 8623 H 822.73 -0.117233 -0.727616 0
M  V30 8624 H 825.372 -0.960097 -1.63958 0
M  V30 8625 H 823.522 0.0981003 -3.88376 0
M  V30 8626 H 825.194 -2.5116 -3.86932 0
M  V30 8627 H 823.437 -2.41979 -3.6004 0
M  V30 8628 H 824.108 -1.94841 -5.1647 0
M  V30 8629 H 826.584 -0.31073 -4.14938 0
M  V30 8630 H 825.46 0.0343264 -5.48889 0
M  V30 8631 H 825.721 1.24407 -4.24235 0
M  V30 8632 N 824.78 1.49157 -0.508906 0
M  V30 8633 C 826.008 2.06879 0.0293734 0
M  V30 8634 C 826.423 1.36823 1.30095 0
M  V30 8635 O 825.78 0.449034 1.7689 0
M  V30 8636 C 825.831 3.60423 0.278791 0
M  V30 8637 O 825.552 4.27844 -0.942389 0
M  V30 8638 C 827.053 4.34881 0.859825 0
M  V30 8639 H 824.273 0.67057 -0.0240184 0
M  V30 8640 H 826.817 1.91834 -0.708526 0
M  V30 8641 H 824.972 3.75145 0.966689 0
M  V30 8642 H 825.386 5.19671 -0.710097 0
M  V30 8643 H 826.86 5.43161 0.983884 0
M  V30 8644 H 827.337 3.9789 1.85958 0
M  V30 8645 H 827.943 4.24785 0.209152 0
M  V30 8646 N 826.258 0.243083 1.55714 0
M  V30 8647 C 827.505 -0.38272 1.9885 0
M  V30 8648 C 827.833 -1.58225 1.13115 0
M  V30 8649 O 827.088 -1.94861 0.181067 0
M  V30 8650 C 827.387 -0.839621 3.47398 0
M  V30 8651 C 827.053 0.251737 4.50197 0
M  V30 8652 C 825.715 0.551487 4.78029 0
M  V30 8653 C 828.067 0.988728 5.11736 0
M  V30 8654 C 825.395 1.59237 5.64677 0
M  V30 8655 C 827.747 2.0191 5.99512 0
M  V30 8656 C 826.411 2.32554 6.2568 0
M  V30 8657 H 825.681 -0.140047 0.727645 0
M  V30 8658 H 828.328 0.35011 1.88272 0
M  V30 8659 H 826.633 -1.65159 3.55288 0
M  V30 8660 H 828.33 -1.33404 3.78159 0
M  V30 8661 H 824.92 0.00796741 4.28599 0
M  V30 8662 H 829.104 0.7704 4.90284 0
M  V30 8663 H 824.36 1.83517 5.83208 0
M  V30 8664 H 828.534 2.59511 6.46241 0
M  V30 8665 H 826.161 3.13349 6.92616 0
M  V30 8666 N 827.736 -1.57571 -0.0300757 0
M  V30 8667 C 828.961 -1.93879 -0.736601 0
M  V30 8668 C 829.386 -0.842998 -1.68152 0
M  V30 8669 O 828.744 0.20135 -1.80178 0
M  V30 8670 C 828.792 -3.29247 -1.47066 0
M  V30 8671 O 827.896 -3.21426 -2.58378 0
M  V30 8672 H 827.237 -0.633735 -0.198181 0
M  V30 8673 H 829.767 -2.04595 0.0141485 0
M  V30 8674 H 829.777 -3.64113 -1.84081 0
M  V30 8675 H 828.452 -4.08565 -0.77764 0
M  V30 8676 H 827.029 -2.98189 -2.23914 0
M  V30 8677 N 829.214 0.302327 -1.54673 0
M  V30 8678 C 830.491 1.05721 -1.64567 0
M  V30 8679 C 830.871 2.0526 -0.493108 0
M  V30 8680 O 830.219 2.22729 0.510315 0
M  V30 8681 C 830.429 1.74025 -3.02517 0
M  V30 8682 C 831.777 2.26271 -3.59286 0
M  V30 8683 O 832.801 1.8406 -3.0496 0
M  V30 8684 O 831.66 3.0361 -4.54404 0
M  V30 8685 H 828.754 0.488577 -0.667249 0
M  V30 8686 H 831.3 0.300521 -1.67018 0
M  V30 8687 H 830.072 1.0174 -3.77842 0
M  V30 8688 H 829.695 2.56454 -3.03838 0
M  V30 8689 N 830.692 1.47107 0.565454 0
M  V30 8690 C 831.939 1.53308 1.32299 0
M  V30 8691 C 832.267 0.1919 1.93551 0
M  V30 8692 O 831.522 -0.81435 1.77952 0
M  V30 8693 C 831.821 2.59309 2.45954 0
M  V30 8694 C 831.487 4.02827 2.02586 0
M  V30 8695 C 830.149 4.41897 1.90474 0
M  V30 8696 C 832.501 4.92913 1.6937 0
M  V30 8697 C 829.829 5.68898 1.4343 0
M  V30 8698 C 832.181 6.20368 1.238 0
M  V30 8699 C 830.845 6.58327 1.10278 0
M  V30 8700 H 830.115 0.560993 0.484116 0
M  V30 8701 H 832.762 1.80667 0.634965 0
M  V30 8702 H 831.067 2.25676 3.20277 0
M  V30 8703 H 832.764 2.61332 3.04149 0
M  V30 8704 H 829.354 3.71953 2.12952 0
M  V30 8705 H 833.538 4.63433 1.77605 0
M  V30 8706 H 828.794 5.97065 1.31618 0
M  V30 8707 H 832.968 6.89589 0.971586 0
M  V30 8708 H 830.595 7.56628 0.736027 0
M  V30 8709 N 832.17 -0.811516 1.35101 0
M  V30 8710 C 833.102 -1.93102 1.23468 0
M  V30 8711 C 834.115 -1.62021 0.159095 0
M  V30 8712 O 835.304 -1.73682 0.411945 0
M  V30 8713 C 832.404 -3.27345 0.877404 0
M  V30 8714 C 831.577 -3.86368 2.05033 0
M  V30 8715 C 830.636 -4.99009 1.66963 0
M  V30 8716 O 829.662 -5.16698 2.38772 0
M  V30 8717 N 830.864 -5.7749 0.590394 0
M  V30 8718 H 833.629 -2.0361 2.19916 0
M  V30 8719 H 831.19 -0.988687 1.28205 0
M  V30 8720 H 833.182 -4.00163 0.604298 0
M  V30 8721 H 831.752 -3.126 0.00275267 0
M  V30 8722 H 830.972 -3.05804 2.48752 0
M  V30 8723 H 832.26 -4.22533 2.83449 0
M  V30 8724 H 831.658 -5.657 -0.00633259 0
M  V30 8725 H 830.215 -6.50708 0.377055 0
M  V30 8726 N 833.648 -1.19017 -1.03309 0
M  V30 8727 C 834.925 -0.899659 -1.73682 0
M  V30 8728 C 835.305 0.595677 -2.02521 0
M  V30 8729 O 834.653 1.55263 -1.67648 0
M  V30 8730 C 834.863 -1.75508 -3.01659 0
M  V30 8731 C 836.211 -1.98679 -3.75249 0
M  V30 8732 O 837.235 -1.72624 -3.11576 0
M  V30 8733 O 836.094 -2.42587 -4.89708 0
M  V30 8734 H 833.188 -0.334903 -0.756154 0
M  V30 8735 H 835.734 -1.29809 -1.09305 0
M  V30 8736 H 834.506 -2.7684 -2.76542 0
M  V30 8737 H 834.129 -1.35565 -3.73775 0
M  V30 8738 N 835.127 1.22348 -0.993418 0
M  V30 8739 C 836.352 1.95666 -0.687727 0
M  V30 8740 C 836.777 1.72883 0.741161 0
M  V30 8741 O 836.135 1.00837 1.50671 0
M  V30 8742 C 836.183 3.46457 -0.99998 0
M  V30 8743 O 835.287 4.12281 -0.0989386 0
M  V30 8744 H 834.628 0.612102 -0.257346 0
M  V30 8745 H 837.158 1.55428 -1.33054 0
M  V30 8746 H 837.168 3.96976 -0.942035 0
M  V30 8747 H 835.843 3.62365 -2.04118 0
M  V30 8748 H 834.42 3.72295 -0.212413 0
M  V30 8749 N 836.605 0.766683 1.37694 0
M  V30 8750 C 837.882 0.25366 1.93948 0
M  V30 8751 C 838.262 -1.25041 1.70082 0
M  V30 8752 O 837.61 -2.03115 1.04674 0
M  V30 8753 C 837.82 0.621549 3.43421 0
M  V30 8754 C 839.168 0.588504 4.20502 0
M  V30 8755 O 840.192 0.560632 3.5176 0
M  V30 8756 O 839.051 0.61107 5.43073 0
M  V30 8757 H 836.145 0.0570586 0.825029 0
M  V30 8758 H 838.691 0.847693 1.47011 0
M  V30 8759 H 837.463 1.65979 3.54354 0
M  V30 8760 H 837.086 0.000197027 3.976 0
M  V30 8761 N 838.083 -1.48885 0.516809 0
M  V30 8762 C 839.013 -2.32241 -0.242157 0
M  V30 8763 C 839.994 -1.41258 -0.947633 0
M  V30 8764 O 841.179 -1.70156 -0.935973 0
M  V30 8765 C 838.309 -3.22151 -1.29754 0
M  V30 8766 C 837.263 -4.22053 -0.710995 0
M  V30 8767 C 836.589 -5.01007 -1.86806 0
M  V30 8768 C 837.889 -5.21388 0.30853 0
M  V30 8769 H 839.583 -2.95943 0.453651 0
M  V30 8770 H 837.129 -1.42316 0.219612 0
M  V30 8771 H 839.082 -3.79284 -1.83634 0
M  V30 8772 H 837.806 -2.56423 -2.02274 0
M  V30 8773 H 836.465 -3.66087 -0.193819 0
M  V30 8774 H 836.113 -4.31713 -2.58133 0
M  V30 8775 H 835.813 -5.68615 -1.48159 0
M  V30 8776 H 837.337 -5.60989 -2.4109 0
M  V30 8777 H 838.751 -5.73122 -0.142703 0
M  V30 8778 H 837.148 -5.96975 0.611673 0
M  V30 8779 H 838.218 -4.69329 1.21894 0
M  V30 8780 N 839.561 -0.251338 -1.55583 0
M  V30 8781 C 840.81 0.372681 -1.98227 0
M  V30 8782 C 841.123 1.58743 -1.1428 0
M  V30 8783 O 842.329 2.28289 -1.46957 0
M  V30 8784 C 840.785 0.714439 -3.52738 0
M  V30 8785 C 840.393 -0.479168 -4.4543 0
M  V30 8786 C 842.137 1.3024 -4.04027 0
M  V30 8787 C 840.044 -0.113318 -5.91291 0
M  V30 8788 H 838.974 0.14302 -0.740312 0
M  V30 8789 H 841.625 -0.352253 -1.80087 0
M  V30 8790 H 840.007 1.49762 -3.66589 0
M  V30 8791 H 841.181 -1.25644 -4.4334 0
M  V30 8792 H 839.496 -0.982359 -4.04646 0
M  V30 8793 H 842.093 1.58953 -5.10527 0
M  V30 8794 H 842.436 2.22837 -3.51638 0
M  V30 8795 H 842.969 0.582024 -3.93519 0
M  V30 8796 H 839.708 -1.00654 -6.47726 0
M  V30 8797 H 839.228 0.627666 -5.96507 0
M  V30 8798 H 840.907 0.30293 -6.4629 0
M  V30 8799 N 841.039 1.57585 0.0217189 0
M  V30 8800 C 842.002 2.06004 1.00474 0
M  V30 8801 C 843.002 0.965461 1.2859 0
M  V30 8802 O 844.192 1.22884 1.23471 0
M  V30 8803 C 841.324 2.48319 2.33561 0
M  V30 8804 H 842.517 2.94112 0.586346 0
M  V30 8805 H 840.07 1.53973 0.268716 0
M  V30 8806 H 840.805 1.63389 2.80133 0
M  V30 8807 H 840.59 3.28239 2.1448 0
M  V30 8808 H 842.08 2.86181 3.04122 0
M  V30 8809 N 842.517 -0.29412 1.54831 0
M  V30 8810 C 843.745 -1.04724 1.78439 0
M  V30 8811 C 844.16 -1.80695 0.547239 0
M  V30 8812 O 843.517 -1.75989 -0.483141 0
M  V30 8813 C 843.568 -2.02242 2.99634 0
M  V30 8814 O 843.289 -1.29352 4.18568 0
M  V30 8815 C 844.79 -2.89537 3.35683 0
M  V30 8816 H 842.01 -0.310285 0.594949 0
M  V30 8817 H 844.554 -0.331306 2.01798 0
M  V30 8818 H 842.709 -2.69328 2.78462 0
M  V30 8819 H 843.123 -1.94901 4.86943 0
M  V30 8820 H 844.597 -3.538 4.23709 0
M  V30 8821 H 845.074 -3.58201 2.54143 0
M  V30 8822 H 845.68 -2.27973 3.59038 0
M  V30 8823 N 843.995 -1.47404 -0.557645 0
M  V30 8824 C 844.928 -1.54399 -1.68036 0
M  V30 8825 C 845.906 -0.396175 -1.577 0
M  V30 8826 O 847.09 -0.603911 -1.78564 0
M  V30 8827 C 844.217 -1.44611 -3.06277 0
M  V30 8828 C 843.263 -2.63889 -3.35059 0
M  V30 8829 S 844.096 -4.26086 -3.24362 0
M  V30 8830 C 845.252 -4.1885 -4.65097 0
M  V30 8831 H 845.485 -2.49384 -1.61849 0
M  V30 8832 H 843.018 -1.35597 -0.738429 0
M  V30 8833 H 844.976 -1.39651 -3.86015 0
M  V30 8834 H 843.637 -0.510114 -3.0993 0
M  V30 8835 H 842.83 -2.53103 -4.35838 0
M  V30 8836 H 842.432 -2.65969 -2.62938 0
M  V30 8837 H 844.724 -3.87077 -5.56037 0
M  V30 8838 H 845.667 -5.19714 -4.8094 0
M  V30 8839 H 846.075 -3.49717 -4.43123 0
M  V30 8840 N 845.473 0.80434 -1.35529 0
M  V30 8841 C 846.406 1.92222 -1.22987 0
M  V30 8842 C 847.384 1.62177 -0.117269 0
M  V30 8843 O 848.568 1.86321 -0.285761 0
M  V30 8844 C 845.695 3.26682 -0.894223 0
M  V30 8845 C 844.741 3.75674 -2.01919 0
M  V30 8846 S 845.574 3.93209 -3.6352 0
M  V30 8847 C 846.73 5.30568 -3.32037 0
M  V30 8848 H 846.963 2.02567 -2.1761 0
M  V30 8849 H 844.496 0.961961 -1.20771 0
M  V30 8850 H 846.454 4.04359 -0.707371 0
M  V30 8851 H 845.115 3.14082 0.0339729 0
M  V30 8852 H 844.308 4.73065 -1.73854 0
M  V30 8853 H 843.91 3.05001 -2.16449 0
M  V30 8854 H 846.202 6.14637 -2.85004 0
M  V30 8855 H 847.145 5.63628 -4.28636 0
M  V30 8856 H 847.553 4.96961 -2.6775 0
M  V30 8857 N 846.951 1.19563 1.02676 0
M  V30 8858 C 848.362 1.00158 1.57561 0
M  V30 8859 C 848.713 -0.444922 1.91089 0
M  V30 8860 O 847.838 -1.32466 1.71119 0
M  V30 8861 C 848.433 1.81181 2.86284 0
M  V30 8862 C 846.992 1.66171 3.37734 0
M  V30 8863 C 846.139 1.7975 2.11152 0
M  V30 8864 H 849.09 1.33904 0.85179 0
M  V30 8865 H 849.111 1.30916 3.57269 0
M  V30 8866 H 848.623 2.86454 2.6185 0
M  V30 8867 H 846.724 0.634927 3.6715 0
M  V30 8868 H 846.837 2.46832 4.10622 0
M  V30 8869 H 845.201 1.22833 2.23123 0
M  V30 8870 H 845.984 2.86487 1.89157 0
M  V30 8871 N 848.429 -1.21819 0.999893 0
M  V30 8872 C 849.84 -1.72517 0.713775 0
M  V30 8873 C 850.191 -1.80505 -0.768922 0
M  V30 8874 O 849.316 -1.45611 -1.60083 0
M  V30 8875 C 849.911 -3.13321 1.28901 0
M  V30 8876 C 848.47 -3.61396 1.05212 0
M  V30 8877 C 847.617 -2.39074 1.40494 0
M  V30 8878 H 850.568 -1.07068 1.17141 0
M  V30 8879 H 850.589 -3.74535 0.671084 0
M  V30 8880 H 850.101 -3.07475 2.36814 0
M  V30 8881 H 848.202 -3.72599 -0.0100732 0
M  V30 8882 H 848.315 -4.47145 1.72042 0
M  V30 8883 H 846.679 -2.41015 0.823642 0
M  V30 8884 H 847.462 -2.35884 2.49427 0
M  V30 8885 N 849.908 -0.773975 -1.37286 0
M  V30 8886 C 851.157 -0.335977 -1.98882 0
M  V30 8887 C 851.47 1.09416 -1.62134 0
M  V30 8888 O 852.676 1.63366 -2.1685 0
M  V30 8889 C 851.132 -0.549756 -3.55676 0
M  V30 8890 C 850.74 -1.9903 -4.01361 0
M  V30 8891 C 852.484 -0.175493 -4.24137 0
M  V30 8892 C 850.391 -2.15156 -5.50874 0
M  V30 8893 H 849.321 -0.121877 -0.744085 0
M  V30 8894 H 851.972 -0.953419 -1.56787 0
M  V30 8895 H 850.354 0.137175 -3.95762 0
M  V30 8896 H 851.528 -2.71237 -3.72515 0
M  V30 8897 H 849.843 -2.32137 -3.4569 0
M  V30 8898 H 852.44 -0.274463 -5.33995 0
M  V30 8899 H 852.783 0.874524 -4.07011 0
M  V30 8900 H 853.316 -0.815058 -3.89361 0
M  V30 8901 H 850.055 -3.18485 -5.72929 0
M  V30 8902 H 849.575 -1.47435 -5.81397 0
M  V30 8903 H 851.254 -1.95124 -6.16876 0
M  V30 8904 N 851.386 1.48609 -0.524698 0
M  V30 8905 C 852.611 2.07398 0.00952139 0
M  V30 8906 C 853.036 1.37939 1.27884 0
M  V30 8907 O 852.394 0.443633 1.75788 0
M  V30 8908 C 852.442 3.59916 0.221956 0
M  V30 8909 O 851.546 3.91647 1.29175 0
M  V30 8910 H 850.887 0.662981 -0.0367729 0
M  V30 8911 H 853.417 1.91092 -0.7311 0
M  V30 8912 H 853.427 4.05552 0.446236 0
M  V30 8913 H 852.102 4.09876 -0.705306 0
M  V30 8914 H 850.679 3.57796 1.05055 0
M  V30 8915 N 852.864 0.259585 1.55447 0
M  V30 8916 C 854.275 -0.241165 1.85136 0
M  V30 8917 C 854.626 -1.56634 1.18153 0
M  V30 8918 O 853.751 -2.11359 0.464351 0
M  V30 8919 C 854.346 -0.444355 3.35873 0
M  V30 8920 C 852.905 -0.889354 3.65742 0
M  V30 8921 C 852.052 0.0262474 2.77288 0
M  V30 8922 H 855.003 0.481808 1.51209 0
M  V30 8923 H 855.024 -1.28517 3.58139 0
M  V30 8924 H 854.536 0.520289 3.84597 0
M  V30 8925 H 852.637 -1.86602 3.22507 0
M  V30 8926 H 852.75 -0.737432 4.73391 0
M  V30 8927 H 851.114 -0.487361 2.49994 0
M  V30 8928 H 851.897 0.986494 3.28821 0
M  V30 8929 N 854.342 -1.57594 -0.0133615 0
M  V30 8930 C 855.305 -2.06534 -0.993799 0
M  V30 8931 C 856.305 -0.972267 -1.28077 0
M  V30 8932 O 857.495 -1.23537 -1.22818 0
M  V30 8933 C 854.627 -2.49554 -2.3224 0
M  V30 8934 H 855.82 -2.94419 -0.570741 0
M  V30 8935 H 853.373 -1.54113 -0.260546 0
M  V30 8936 H 854.108 -1.64872 -2.79263 0
M  V30 8937 H 853.893 -3.29371 -2.12737 0
M  V30 8938 H 855.383 -2.8779 -3.026 0
M  V30 8939 N 855.82 0.285905 -1.54985 0
M  V30 8940 C 857.231 0.857869 -1.65824 0
M  V30 8941 C 857.582 1.87531 -0.576763 0
M  V30 8942 O 856.707 2.14528 0.284016 0
M  V30 8943 C 857.302 1.56277 -3.00604 0
M  V30 8944 C 855.861 2.08294 -3.13513 0
M  V30 8945 C 855.008 0.920633 -2.61571 0
M  V30 8946 H 857.959 0.0625463 -1.58577 0
M  V30 8947 H 857.98 2.42912 -2.92872 0
M  V30 8948 H 857.492 0.822017 -3.79295 0
M  V30 8949 H 855.593 2.8537 -2.39572 0
M  V30 8950 H 855.706 2.3071 -4.19892 0
M  V30 8951 H 854.07 1.31043 -2.18403 0
M  V30 8952 H 854.853 0.193594 -3.42754 0
M  V30 8953 N 857.298 1.47698 0.54982 0
M  V30 8954 C 858.547 1.53961 1.30303 0
M  V30 8955 C 858.86 0.209731 1.94472 0
M  V30 8956 O 860.066 0.150418 2.71083 0
M  V30 8957 C 858.522 2.71436 2.36328 0
M  V30 8958 C 858.13 4.10983 1.78316 0
M  V30 8959 C 859.874 2.86996 3.12783 0
M  V30 8960 C 857.781 5.19747 2.82164 0
M  V30 8961 H 856.711 0.573098 0.489975 0
M  V30 8962 H 859.362 1.73989 0.583089 0
M  V30 8963 H 857.744 2.44801 3.11269 0
M  V30 8964 H 858.918 4.47552 1.09697 0
M  V30 8965 H 857.233 4.00371 1.1442 0
M  V30 8966 H 859.83 3.65422 3.90347 0
M  V30 8967 H 860.173 1.95712 3.67427 0
M  V30 8968 H 860.706 3.13436 2.44954 0
M  V30 8969 H 857.445 6.12932 2.32366 0
M  V30 8970 H 856.965 4.87688 3.49171 0
M  V30 8971 H 858.644 5.47014 3.4552 0
M  V30 8972 N 858.776 -0.797141 1.35954 0
M  V30 8973 C 859.708 -1.91782 1.25509 0
M  V30 8974 C 860.721 -1.61843 0.176271 0
M  V30 8975 O 861.91 -1.73235 0.430343 0
M  V30 8976 C 859.01 -3.26396 0.912073 0
M  V30 8977 C 858.183 -3.84171 2.0912 0
M  V30 8978 C 857.242 -4.9721 1.72246 0
M  V30 8979 O 856.268 -5.14136 2.44239 0
M  V30 8980 N 857.47 -5.76831 0.651611 0
M  V30 8981 H 860.235 -2.01266 2.22063 0
M  V30 8982 H 857.796 -0.975033 1.29247 0
M  V30 8983 H 859.788 -3.99499 0.646707 0
M  V30 8984 H 858.358 -3.12579 0.0359079 0
M  V30 8985 H 857.578 -3.03148 2.51982 0
M  V30 8986 H 858.866 -4.19503 2.87914 0
M  V30 8987 H 858.264 -5.65675 0.0536678 0
M  V30 8988 H 856.821 -6.50272 0.44605 0
M  V30 8989 N 860.254 -1.20106 -1.0204 0
M  V30 8990 C 861.479 -1.0351 -1.79723 0
M  V30 8991 C 861.904 0.411328 -1.83548 0
M  V30 8992 O 861.262 1.29608 -1.26773 0
M  V30 8993 C 861.31 -1.61876 -3.22224 0
M  V30 8994 O 860.414 -0.853813 -4.03465 0
M  V30 8995 H 859.755 -0.365299 -0.554484 0
M  V30 8996 H 862.285 -1.59316 -1.28373 0
M  V30 8997 H 862.295 -1.65451 -3.72948 0
M  V30 8998 H 860.97 -2.67148 -3.18755 0
M  V30 8999 H 859.547 -0.891983 -3.62075 0
M  V30 9000 N 861.732 1.21287 -1.00634 0
M  V30 9001 C 863.009 1.86 -0.605257 0
M  V30 9002 C 863.389 1.90139 0.917072 0
M  V30 9003 O 862.737 1.40169 1.80458 0
M  V30 9004 C 862.947 3.26183 -1.24119 0
M  V30 9005 C 864.295 4.02562 -1.35015 0
M  V30 9006 O 865.319 3.35499 -1.19661 0
M  V30 9007 O 864.178 5.22638 -1.59726 0
M  V30 9008 H 861.272 0.800549 -0.207486 0
M  V30 9009 H 863.818 1.28959 -1.10307 0
M  V30 9010 H 862.59 3.17878 -2.28186 0
M  V30 9011 H 862.213 3.90845 -0.729807 0
M  V30 9012 N 863.21 0.781244 1.36873 0
M  V30 9013 C 864.487 0.274217 1.93668 0
M  V30 9014 C 864.867 -1.2323 1.71399 0
M  V30 9015 O 864.215 -2.01993 1.06822 0
M  V30 9016 C 864.425 0.657939 3.42742 0
M  V30 9017 C 865.773 0.63307 4.19854 0
M  V30 9018 O 866.797 0.597909 3.51146 0
M  V30 9019 O 865.656 0.668636 5.42394 0
M  V30 9020 H 862.75 0.0658059 0.824378 0
M  V30 9021 H 865.296 0.863238 1.46104 0
M  V30 9022 H 864.068 1.69728 3.52573 0
M  V30 9023 H 863.691 0.0423678 3.97577 0
M  V30 9024 N 864.689 -1.48329 0.532571 0
M  V30 9025 C 865.966 -1.95492 -0.0650985 0
M  V30 9026 C 866.346 -1.47485 -1.51034 0
M  V30 9027 O 865.694 -0.702516 -2.17433 0
M  V30 9028 C 865.904 -3.48957 0.0548341 0
M  V30 9029 C 867.252 -4.24475 -0.103115 0
M  V30 9030 O 868.276 -3.56195 -0.0188343 0
M  V30 9031 O 867.135 -5.45781 -0.280164 0
M  V30 9032 H 864.229 -0.823327 -0.0778603 0
M  V30 9033 H 866.775 -1.58839 0.597353 0
M  V30 9034 H 865.547 -3.76628 1.06148 0
M  V30 9035 H 865.17 -3.92311 -0.64635 0
M  V30 9036 N 866.167 -0.267825 -1.55308 0
M  V30 9037 C 867.413 0.34458 -2.0046 0
M  V30 9038 C 867.768 1.54028 -1.15296 0
M  V30 9039 O 867.061 1.90409 -0.213316 0
M  V30 9040 C 867.255 0.784247 -3.48689 0
M  V30 9041 C 867.084 -0.367304 -4.48197 0
M  V30 9042 C 865.854 -0.848746 -4.98121 0
M  V30 9043 C 868.052 -1.20136 -5.00072 0
M  V30 9044 N 866.034 -1.97052 -5.81415 0
M  V30 9045 C 867.405 -2.17115 -5.80742 0
M  V30 9046 C 869.46 -1.23553 -4.82327 0
M  V30 9047 C 868.163 -3.17248 -6.45559 0
M  V30 9048 C 870.189 -2.22527 -5.47938 0
M  V30 9049 C 869.551 -3.1824 -6.28413 0
M  V30 9050 H 865.65 0.091465 -0.776633 0
M  V30 9051 H 868.234 -0.390184 -1.9075 0
M  V30 9052 H 866.405 1.48825 -3.58756 0
M  V30 9053 H 868.137 1.37337 -3.80684 0
M  V30 9054 H 864.892 -0.429291 -4.7165 0
M  V30 9055 H 865.316 -2.53481 -6.27755 0
M  V30 9056 H 869.958 -0.50937 -4.1972 0
M  V30 9057 H 867.676 -3.90801 -7.07319 0
M  V30 9058 H 871.262 -2.25904 -5.36152 0
M  V30 9059 H 870.142 -3.93573 -6.78285 0
M  V30 9060 N 867.645 1.57599 0.00500368 0
M  V30 9061 C 868.894 1.89528 0.690061 0
M  V30 9062 C 869.207 0.869451 1.75214 0
M  V30 9063 O 870.413 1.07879 2.49147 0
M  V30 9064 C 868.869 3.36425 1.27852 0
M  V30 9065 C 868.477 4.47293 0.251531 0
M  V30 9066 C 870.221 3.77471 1.94206 0
M  V30 9067 C 868.128 5.85264 0.8497 0
M  V30 9068 H 867.058 0.707201 0.2615 0
M  V30 9069 H 869.709 1.83418 -0.0547209 0
M  V30 9070 H 868.091 3.37356 2.07381 0
M  V30 9071 H 869.265 4.5787 -0.518796 0
M  V30 9072 H 867.58 4.15235 -0.311281 0
M  V30 9073 H 870.177 4.77884 2.39855 0
M  V30 9074 H 870.52 3.10722 2.77051 0
M  V30 9075 H 871.053 3.78817 1.21419 0
M  V30 9076 H 867.792 6.55472 0.0601408 0
M  V30 9077 H 867.312 5.78361 1.5893 0
M  V30 9078 H 868.991 6.32762 1.34984 0
M  V30 9079 N 869.123 -0.277682 1.55134 0
M  V30 9080 C 870.534 -0.849063 1.66276 0
M  V30 9081 C 870.885 -1.87223 0.5867 0
M  V30 9082 O 870.01 -2.14676 -0.272635 0
M  V30 9083 C 870.605 -1.54681 3.01429 0
M  V30 9084 C 869.164 -2.06628 3.14614 0
M  V30 9085 C 868.311 -0.906748 2.62056 0
M  V30 9086 H 871.262 -0.0541357 1.58608 0
M  V30 9087 H 871.283 -2.41356 2.94156 0
M  V30 9088 H 870.795 -0.80189 3.79725 0
M  V30 9089 H 868.896 -2.84095 2.41082 0
M  V30 9090 H 869.009 -2.2848 4.2111 0
M  V30 9091 H 867.373 -1.29882 2.19095 0
M  V30 9092 H 868.156 -0.175414 3.42852 0
M  V30 9093 N 870.601 -1.47988 -0.541979 0
M  V30 9094 C 871.878 -1.45878 -1.30303 0
M  V30 9095 C 872.258 -0.163931 -2.10463 0
M  V30 9096 O 871.606 0.854479 -2.11922 0
M  V30 9097 C 871.816 -2.71359 -2.19466 0
M  V30 9098 C 873.164 -3.19199 -2.79995 0
M  V30 9099 O 874.188 -2.72193 -2.2976 0
M  V30 9100 O 873.047 -4.00961 -3.71339 0
M  V30 9101 H 870.141 -0.582043 -0.587498 0
M  V30 9102 H 872.687 -1.60207 -0.559623 0
M  V30 9103 H 871.459 -3.57122 -1.59936 0
M  V30 9104 H 871.082 -2.59692 -3.01075 0
M  V30 9105 N 872.079 0.78992 -1.36375 0
M  V30 9106 C 873.328 1.54296 -1.29906 0
M  V30 9107 C 873.641 1.95234 0.119651 0
M  V30 9108 O 874.847 2.69762 0.306708 0
M  V30 9109 C 873.303 2.78533 -2.27919 0
M  V30 9110 C 872.911 2.44767 -3.75224 0
M  V30 9111 C 874.655 3.56516 -2.30427 0
M  V30 9112 C 872.562 3.65397 -4.65015 0
M  V30 9113 H 871.492 0.579214 -0.482729 0
M  V30 9114 H 874.143 0.866845 -1.61735 0
M  V30 9115 H 872.525 3.47941 -1.89084 0
M  V30 9116 H 873.699 1.83259 -4.22792 0
M  V30 9117 H 872.014 1.79996 -3.75487 0
M  V30 9118 H 874.611 4.46143 -2.94722 0
M  V30 9119 H 874.954 3.95063 -1.31266 0
M  V30 9120 H 875.487 2.94087 -2.67876 0
M  V30 9121 H 872.226 3.31946 -5.65236 0
M  V30 9122 H 871.746 4.26072 -4.22164 0
M  V30 9123 H 873.425 4.32431 -4.81261 0
M  V30 9124 N 873.557 1.20646 1.01402 0
M  V30 9125 C 874.489 0.915392 2.10127 0
M  V30 9126 C 875.502 -0.0978705 1.62506 0
M  V30 9127 O 876.691 0.133477 1.78 0
M  V30 9128 C 873.791 0.351304 3.37074 0
M  V30 9129 C 872.964 1.41673 4.13821 0
M  V30 9130 C 872.023 0.8635 5.19067 0
M  V30 9131 O 871.049 1.54481 5.47836 0
M  V30 9132 N 872.251 -0.325799 5.79585 0
M  V30 9133 H 875.016 1.85132 2.35682 0
M  V30 9134 H 872.577 1.11048 1.17813 0
M  V30 9135 H 874.569 -0.032996 4.04687 0
M  V30 9136 H 873.139 -0.489242 3.08748 0
M  V30 9137 H 872.359 1.97526 3.41141 0
M  V30 9138 H 873.647 2.1342 4.61876 0
M  V30 9139 H 873.045 -0.896534 5.58551 0
M  V30 9140 H 871.602 -0.651708 6.48534 0
M  V30 9141 N 875.035 -1.20752 1.01276 0
M  V30 9142 C 876.284 -1.8934 0.695229 0
M  V30 9143 C 876.597 -1.79459 -0.77806 0
M  V30 9144 O 877.803 -2.43146 -1.20799 0
M  V30 9145 C 876.259 -3.39548 1.1931 0
M  V30 9146 C 875.867 -3.58023 2.69302 0
M  V30 9147 C 877.611 -4.13714 0.950823 0
M  V30 9148 C 875.518 -5.02037 3.1259 0
M  V30 9149 H 874.448 -0.709084 0.25635 0
M  V30 9150 H 877.099 -1.36629 1.22494 0
M  V30 9151 H 875.481 -3.91559 0.591395 0
M  V30 9152 H 876.655 -3.16416 3.34989 0
M  V30 9153 H 874.97 -2.97222 2.9163 0
M  V30 9154 H 877.567 -5.19891 1.24971 0
M  V30 9155 H 877.91 -4.16147 -0.112791 0
M  V30 9156 H 878.443 -3.67792 1.51571 0
M  V30 9157 H 875.182 -5.04757 4.18211 0
M  V30 9158 H 874.702 -5.44469 2.51621 0
M  V30 9159 H 876.381 -5.70594 3.0501 0
M  V30 9160 N 876.513 -0.788492 -1.36457 0
M  V30 9161 C 877.79 -0.284484 -1.9352 0
M  V30 9162 C 878.17 1.2232 -1.7205 0
M  V30 9163 O 877.518 2.01424 -1.07892 0
M  V30 9164 C 877.728 -0.676106 -3.42388 0
M  V30 9165 C 879.076 -0.655327 -4.19512 0
M  V30 9166 O 880.1 -0.616523 -3.50824 0
M  V30 9167 O 878.959 -0.697391 -5.42032 0
M  V30 9168 H 876.053 -0.0701769 -0.824017 0
M  V30 9169 H 878.599 -0.870974 -1.45644 0
M  V30 9170 H 877.371 -1.71596 -3.51668 0
M  V30 9171 H 876.994 -0.0634517 -3.97549 0
M  V30 9172 N 877.991 1.48044 -0.54043 0
M  V30 9173 C 879.402 1.86418 -0.102662 0
M  V30 9174 C 879.753 1.4489 1.32293 0
M  V30 9175 O 878.878 0.844319 1.99249 0
M  V30 9176 C 879.473 3.38324 -0.179533 0
M  V30 9177 C 878.032 3.75852 0.203098 0
M  V30 9178 C 877.179 2.72097 -0.534637 0
M  V30 9179 H 880.13 1.398 -0.751103 0
M  V30 9180 H 880.151 3.75641 0.606147 0
M  V30 9181 H 879.663 3.68518 -1.21721 0
M  V30 9182 H 877.764 3.51272 1.24252 0
M  V30 9183 H 877.877 4.78884 -0.143784 0
M  V30 9184 H 876.241 2.54692 0.0203358 0
M  V30 9185 H 877.024 3.05135 -1.57314 0
M  V30 9186 N 879.47 0.276058 1.55163 0
M  V30 9187 C 880.418 -0.626978 2.2399 0
M  V30 9188 C 881.412 -1.15708 1.23725 0
M  V30 9189 O 882.618 -1.1106 1.41653 0
M  V30 9190 H 878.993 -0.220742 0.718872 0
M  V30 9191 H 880.964 -0.0236569 2.98391 0
M  V30 9192 C 879.713 -1.79935 2.97521 0
M  V30 9193 H 879.036 -1.40064 3.74463 0
M  V30 9194 H 880.476 -2.40781 3.48999 0
M  V30 9195 C 878.935 -2.68838 2.03046 0
M  V30 9196 O 879.465 -3.69224 1.58229 0
M  V30 9197 N 877.671 -2.36028 1.69527 0
M  V30 9198 H 877.218 -1.54442 2.06169 0
M  V30 9199 H 877.176 -2.95782 1.06586 0
M  V30 9200 N 880.948 -1.576 0.00335426 0
M  V30 9201 C 882.196 -1.90336 -0.679446 0
M  V30 9202 C 882.517 -0.877777 -1.74127 0
M  V30 9203 O 881.787 0.0843585 -1.95718 0
M  V30 9204 H 880.367 -0.702509 -0.253948 0
M  V30 9205 H 883.029 -1.94848 0.0450731 0
M  V30 9206 H 882.125 -2.90197 -1.14857 0
M  V30 9207 N 882.426 0.269451 -1.5528 0
M  V30 9208 C 883.356 1.33729 -1.91413 0
M  V30 9209 C 884.337 1.51348 -0.776391 0
M  V30 9210 O 885.522 1.64332 -1.03482 0
M  V30 9211 C 882.652 2.69618 -2.18914 0
M  V30 9212 C 881.606 2.66725 -3.34726 0
M  V30 9213 C 880.932 4.06199 -3.47716 0
M  V30 9214 C 882.232 2.25684 -4.71025 0
M  V30 9215 H 883.926 1.03736 -2.80854 0
M  V30 9216 H 881.472 0.497579 -1.3513 0
M  V30 9217 H 883.425 3.44436 -2.42779 0
M  V30 9218 H 882.149 3.01201 -1.26275 0
M  V30 9219 H 880.808 1.94365 -3.10834 0
M  V30 9220 H 880.456 4.3501 -2.52537 0
M  V30 9221 H 880.156 4.05157 -4.25583 0
M  V30 9222 H 881.68 4.8275 -3.73877 0
M  V30 9223 H 883.094 2.90225 -4.94411 0
M  V30 9224 H 881.491 2.35797 -5.51833 0
M  V30 9225 H 882.561 1.20819 -4.69607 0
M  V30 9226 N 883.904 1.48273 0.534124 0
M  V30 9227 C 885.129 1.59988 1.31979 0
M  V30 9228 C 885.554 0.258824 1.86311 0
M  V30 9229 O 884.912 -0.768885 1.64188 0
M  V30 9230 C 884.96 2.64642 2.44943 0
M  V30 9231 O 884.064 2.21515 3.47858 0
M  V30 9232 H 883.405 0.536625 0.391063 0
M  V30 9233 H 885.935 1.94229 0.643135 0
M  V30 9234 H 885.945 2.85786 2.91187 0
M  V30 9235 H 884.62 3.62004 2.04758 0
M  V30 9236 H 883.197 2.10567 3.0776 0
M  V30 9237 N 885.382 -0.782676 1.36792 0
M  V30 9238 C 886.629 -1.54083 1.31395 0
M  V30 9239 C 886.957 -1.94217 -0.104797 0
M  V30 9240 O 886.212 -1.63491 -1.0756 0
M  V30 9241 C 886.511 -2.82542 2.18872 0
M  V30 9242 C 886.177 -2.61512 3.67317 0
M  V30 9243 C 884.839 -2.55486 4.07775 0
M  V30 9244 C 887.191 -2.42389 4.61407 0
M  V30 9245 C 884.519 -2.28311 5.40454 0
M  V30 9246 C 886.871 -2.1674 5.94312 0
M  V30 9247 C 885.535 -2.09151 6.33887 0
M  V30 9248 H 884.805 -0.563829 0.48081 0
M  V30 9249 H 887.452 -0.902436 1.68903 0
M  V30 9250 H 885.757 -3.50883 1.74323 0
M  V30 9251 H 887.454 -3.40367 2.12017 0
M  V30 9252 H 884.044 -2.67062 3.35225 0
M  V30 9253 H 888.228 -2.46043 4.31018 0
M  V30 9254 H 883.484 -2.20922 5.70091 0
M  V30 9255 H 887.658 -2.0094 6.6678 0
M  V30 9256 H 885.285 -1.87857 7.36623 0
M  V30 9257 N 886.86 -1.21182 -1.00761 0
M  V30 9258 C 887.808 -0.965728 -2.11604 0
M  V30 9259 C 888.802 0.0861028 -1.69181 0
M  V30 9260 O 890.008 -0.0650558 -1.79882 0
M  V30 9261 H 886.383 -0.295023 -0.691712 0
M  V30 9262 H 888.354 -1.90667 -2.2954 0
M  V30 9263 C 887.103 -0.544164 -3.43415 0
M  V30 9264 H 886.426 -1.34515 -3.76491 0
M  V30 9265 H 887.866 -0.411268 -4.22001 0
M  V30 9266 C 886.325 0.744583 -3.28569 0
M  V30 9267 O 886.855 1.80078 -3.59075 0
M  V30 9268 N 885.061 0.710083 -2.81791 0
M  V30 9269 H 884.608 -0.14971 -2.57165 0
M  V30 9270 H 884.566 1.57268 -2.72239 0
M  V30 9271 N 888.338 1.20213 -1.01915 0
M  V30 9272 C 889.749 1.7136 -0.741131 0
M  V30 9273 C 890.1 1.81705 0.740107 0
M  V30 9274 O 889.225 1.48139 1.57746 0
M  V30 9275 C 889.82 3.11231 -1.33869 0
M  V30 9276 C 888.379 3.59677 -1.10948 0
M  V30 9277 C 887.526 2.36809 -1.4428 0
M  V30 9278 H 890.477 1.05191 -1.1883 0
M  V30 9279 H 890.498 3.7342 -0.730585 0
M  V30 9280 H 890.01 3.03669 -2.41675 0
M  V30 9281 H 888.111 3.72568 -0.0492052 0
M  V30 9282 H 888.224 4.44351 -1.79134 0
M  V30 9283 H 886.588 2.39674 -0.861881 0
M  V30 9284 H 887.371 2.31886 -2.53148 0
M  V30 9285 N 889.816 0.795718 1.36037 0
M  V30 9286 C 891.065 0.367575 1.98322 0
M  V30 9287 C 891.378 -1.06823 1.63854 0
M  V30 9288 O 892.584 -1.59895 2.19421 0
M  V30 9289 C 891.04 0.606272 3.54757 0
M  V30 9290 C 890.648 2.0539 3.98144 0
M  V30 9291 C 892.392 0.242947 4.23804 0
M  V30 9292 C 890.299 2.23893 5.47381 0
M  V30 9293 H 889.229 0.133699 0.742052 0
M  V30 9294 H 891.88 0.978242 1.5525 0
M  V30 9295 H 890.262 -0.0741957 3.9593 0
M  V30 9296 H 891.436 2.77129 3.68152 0
M  V30 9297 H 889.751 2.37607 3.41953 0
M  V30 9298 H 892.348 0.359382 5.33491 0
M  V30 9299 H 892.691 -0.809661 4.08351 0
M  V30 9300 H 893.224 0.876899 3.88015 0
M  V30 9301 H 889.963 3.27559 5.6779 0
M  V30 9302 H 889.483 1.56666 5.78978 0
M  V30 9303 H 891.162 2.04914 6.13693 0
M  V30 9304 N 891.294 -1.47756 0.548274 0
M  V30 9305 C 892.519 -2.07387 0.023475 0
M  V30 9306 C 892.944 -1.39956 -1.25674 0
M  V30 9307 O 892.302 -0.471543 -1.7506 0
M  V30 9308 C 892.35 -3.60224 -0.164669 0
M  V30 9309 O 891.454 -3.93653 -1.22928 0
M  V30 9310 H 890.795 -0.662312 0.0473156 0
M  V30 9311 H 893.325 -1.89905 0.761409 0
M  V30 9312 H 893.335 -4.06211 -0.38166 0
M  V30 9313 H 892.01 -4.08702 0.770425 0
M  V30 9314 H 890.587 -3.59422 -0.993495 0
M  V30 9315 N 892.772 -0.284283 -1.55015 0
M  V30 9316 C 894.049 0.382125 -1.91831 0
M  V30 9317 C 894.429 1.73007 -1.20962 0
M  V30 9318 O 893.777 2.25962 -0.339594 0
M  V30 9319 C 893.987 0.513341 -3.45204 0
M  V30 9320 C 895.335 0.791989 -4.17148 0
M  V30 9321 O 896.359 0.597799 -3.51148 0
M  V30 9322 O 895.218 1.16394 -5.33961 0
M  V30 9323 H 892.312 0.210707 -0.799707 0
M  V30 9324 H 894.858 -0.331111 -1.66438 0
M  V30 9325 H 893.63 -0.434911 -3.88876 0
M  V30 9326 H 893.253 1.27569 -3.76579 0
M  V30 9327 N 894.251 1.57596 -0.0117121 0
M  V30 9328 C 895.498 1.91071 0.670667 0
M  V30 9329 C 895.826 0.886457 1.73125 0
M  V30 9330 O 895.081 -0.107135 1.95407 0
M  V30 9331 C 895.38 3.31296 1.34082 0
M  V30 9332 C 895.046 4.49011 0.412305 0
M  V30 9333 C 893.708 4.80945 0.156691 0
M  V30 9334 C 896.06 5.20709 -0.226294 0
M  V30 9335 C 893.388 5.81943 -0.745619 0
M  V30 9336 C 895.74 6.22668 -1.11655 0
M  V30 9337 C 894.404 6.53053 -1.38123 0
M  V30 9338 H 893.674 0.69918 0.245415 0
M  V30 9339 H 896.321 1.91373 -0.0697511 0
M  V30 9340 H 894.626 3.27174 2.15557 0
M  V30 9341 H 896.323 3.54461 1.87506 0
M  V30 9342 H 892.913 4.24067 0.621705 0
M  V30 9343 H 897.097 4.96282 -0.0418456 0
M  V30 9344 H 892.353 6.03839 -0.958566 0
M  V30 9345 H 896.527 6.77351 -1.61767 0
M  V30 9346 H 894.154 7.31132 -2.08208 0
M  V30 9347 N 895.729 -0.261212 1.5542 0
M  V30 9348 C 897.14 -0.83138 1.67167 0
M  V30 9349 C 897.491 -1.8659 0.606525 0
M  V30 9350 O 896.616 -2.14953 -0.24985 0
M  V30 9351 C 897.211 -1.51475 3.03052 0
M  V30 9352 C 895.77 -2.0328 3.16787 0
M  V30 9353 C 894.917 -0.878903 2.63003 0
M  V30 9354 H 897.868 -0.0373102 1.58656 0
M  V30 9355 H 897.889 -2.38222 2.96699 0
M  V30 9356 H 897.401 -0.76157 3.80554 0
M  V30 9357 H 895.502 -2.81523 2.44082 0
M  V30 9358 H 895.615 -2.24001 4.2351 0
M  V30 9359 H 893.979 -1.27551 2.2046 0
M  V30 9360 H 894.762 -0.13904 3.43018 0
M  V30 9361 N 897.207 -1.48554 -0.526253 0
M  V30 9362 C 898.484 -1.47252 -1.28748 0
M  V30 9363 C 898.864 -0.186245 -2.10277 0
M  V30 9364 O 898.212 0.831954 -2.12816 0
M  V30 9365 C 898.422 -2.73672 -2.16575 0
M  V30 9366 C 899.77 -3.22151 -2.76593 0
M  V30 9367 O 900.794 -2.74614 -2.2686 0
M  V30 9368 O 899.653 -4.04877 -3.67066 0
M  V30 9369 H 896.747 -0.588242 -0.581292 0
M  V30 9370 H 899.293 -1.60792 -0.5426 0
M  V30 9371 H 898.065 -3.58798 -1.56139 0
M  V30 9372 H 897.688 -2.6287 -2.98304 0
M  V30 9373 N 898.685 0.775411 -1.37205 0
M  V30 9374 C 899.913 1.56446 -1.35397 0
M  V30 9375 C 900.328 1.887 0.0615437 0
M  V30 9376 O 899.685 1.51178 1.02233 0
M  V30 9377 C 899.736 2.87697 -2.18889 0
M  V30 9378 O 899.457 2.56828 -3.54924 0
M  V30 9379 C 900.958 3.81944 -2.25019 0
M  V30 9380 H 898.178 0.484792 -0.463916 0
M  V30 9381 H 900.722 0.961346 -1.80495 0
M  V30 9382 H 898.877 3.44442 -1.7731 0
M  V30 9383 H 899.291 3.40851 -3.98649 0
M  V30 9384 H 900.765 4.71055 -2.87769 0
M  V30 9385 H 901.242 4.20811 -1.25757 0
M  V30 9386 H 901.848 3.3113 -2.66895 0
M  V30 9387 N 900.163 1.21714 1.00117 0
M  V30 9388 C 901.391 1.06278 1.77518 0
M  V30 9389 C 901.806 -0.387193 1.84787 0
M  V30 9390 O 901.163 -1.26854 1.31203 0
M  V30 9391 C 901.214 1.65795 3.21239 0
M  V30 9392 O 900.935 3.05119 3.14378 0
M  V30 9393 C 902.436 1.55521 4.15124 0
M  V30 9394 H 899.656 0.373013 0.557765 0
M  V30 9395 H 902.2 1.61133 1.25922 0
M  V30 9396 H 900.355 1.15022 3.69931 0
M  V30 9397 H 900.769 3.33643 4.04701 0
M  V30 9398 H 902.243 2.01902 5.13751 0
M  V30 9399 H 902.72 0.510307 4.36225 0
M  V30 9400 H 903.326 2.0556 3.72324 0
M  V30 9401 N 901.641 -1.19671 1.02551 0
M  V30 9402 C 902.866 -1.93774 0.739363 0
M  V30 9403 C 903.291 -1.74787 -0.695064 0
M  V30 9404 O 902.649 -1.04796 -1.47944 0
M  V30 9405 C 902.697 -3.43684 1.09149 0
M  V30 9406 O 901.801 -4.11874 0.208213 0
M  V30 9407 H 901.142 -0.605064 0.273484 0
M  V30 9408 H 903.672 -1.51846 1.37128 0
M  V30 9409 H 903.682 -3.94339 1.04695 0
M  V30 9410 H 902.357 -3.56826 2.13654 0
M  V30 9411 H 900.934 -3.716 0.311045 0
M  V30 9412 N 903.119 -0.802921 -1.35613 0
M  V30 9413 C 904.53 -0.443004 -1.81368 0
M  V30 9414 C 904.881 1.03459 -1.66706 0
M  V30 9415 O 904.006 1.80372 -1.19561 0
M  V30 9416 C 904.601 -0.797324 -3.29284 0
M  V30 9417 C 903.16 -0.490055 -3.73196 0
M  V30 9418 C 902.307 -1.02487 -2.57666 0
M  V30 9419 H 905.258 -0.994888 -1.23643 0
M  V30 9420 H 905.279 -0.0934638 -3.80385 0
M  V30 9421 H 904.791 -1.87278 -3.39924 0
M  V30 9422 H 902.892 0.576818 -3.68108 0
M  V30 9423 H 903.005 -1.02012 -4.68114 0
M  V30 9424 H 901.369 -0.44738 -2.5074 0
M  V30 9425 H 902.152 -2.10636 -2.71085 0
M  V30 9426 N 904.597 1.47463 -0.556102 0
M  V30 9427 C 905.544 2.29998 0.192213 0
M  V30 9428 C 906.514 1.38993 0.909403 0
M  V30 9429 O 907.699 1.67954 0.905316 0
M  V30 9430 C 904.839 3.22932 1.21692 0
M  V30 9431 C 903.952 4.29027 0.505908 0
M  V30 9432 C 903.087 5.09114 1.51581 0
M  V30 9433 C 902.126 6.06984 0.789714 0
M  V30 9434 N 901.263 6.80033 1.74639 0
M  V30 9435 H 906.103 2.93468 -0.517734 0
M  V30 9436 H 903.64 1.44654 -0.267147 0
M  V30 9437 H 905.598 3.75234 1.8236 0
M  V30 9438 H 904.228 2.61329 1.89491 0
M  V30 9439 H 903.28 3.7979 -0.215276 0
M  V30 9440 H 904.592 4.9876 -0.062958 0
M  V30 9441 H 903.746 5.6556 2.19606 0
M  V30 9442 H 902.485 4.3928 2.11859 0
M  V30 9443 H 901.49 5.49717 0.0955382 0
M  V30 9444 H 902.715 6.78827 0.192688 0
M  V30 9445 H 900.661 6.12931 2.33777 0
M  V30 9446 H 900.578 7.45933 1.22965 0
M  V30 9447 H 901.846 7.41054 2.41782 0
M  V30 9448 N 906.075 0.2925 1.54862 0
M  V30 9449 C 907.315 -0.32024 2.01876 0
M  V30 9450 C 907.679 -1.5174 1.17639 0
M  V30 9451 O 908.88 -2.20094 1.54312 0
M  V30 9452 C 907.151 -0.67611 3.50947 0
M  V30 9453 S 908.71 -1.27292 4.19931 0
M  V30 9454 H 905.528 -0.0987374 0.704111 0
M  V30 9455 H 908.13 0.41839 1.90971 0
M  V30 9456 H 906.834 0.203797 4.09894 0
M  V30 9457 H 906.365 -1.44575 3.65871 0
M  V30 9458 H 908.38 -2.56102 4.25002 0
M  V30 9459 N 907.553 -1.57587 0.0200696 0
M  V30 9460 C 908.964 -1.79312 -0.520019 0
M  V30 9461 C 909.315 -0.929475 -1.72787 0
M  V30 9462 O 908.44 -0.137389 -2.15963 0
M  V30 9463 C 909.035 -3.25203 -0.950172 0
M  V30 9464 C 907.594 -3.47954 -1.43543 0
M  V30 9465 C 906.741 -2.74459 -0.395917 0
M  V30 9466 H 909.692 -1.56779 0.246153 0
M  V30 9467 H 909.713 -3.34418 -1.81508 0
M  V30 9468 H 909.225 -3.88035 -0.070883 0
M  V30 9469 H 907.326 -2.90363 -2.33495 0
M  V30 9470 H 907.439 -4.56661 -1.44905 0
M  V30 9471 H 905.803 -2.39669 -0.862022 0
M  V30 9472 H 906.586 -3.40001 0.47475 0
M  V30 9473 N 909.032 0.252966 -1.55557 0
M  V30 9474 C 910.28 0.979912 -1.76754 0
M  V30 9475 C 910.601 1.86083 -0.582944 0
M  V30 9476 O 909.871 1.91742 0.401497 0
M  V30 9477 H 908.451 0.364805 -0.651864 0
M  V30 9478 H 911.113 0.272372 -1.92987 0
M  V30 9479 H 910.209 1.60518 -2.67657 0
M  V30 9480 N 910.51 1.48831 0.518367 0
M  V30 9481 C 911.926 1.35209 0.847979 0
M  V30 9482 C 912.126 0.371927 1.98038 0
M  V30 9483 O 911.182 -0.202681 2.51685 0
M  V30 9484 C 912.495 2.7552 1.20455 0
M  V30 9485 C 914.043 2.84094 1.31377 0
M  V30 9486 C 914.518 4.25132 1.70372 0
M  V30 9487 N 916.009 4.27861 1.77453 0
M  V30 9488 C 916.744 5.3394 2.09035 0
M  V30 9489 N 916.24 6.50285 2.3896 0
M  V30 9490 N 918.033 5.21343 2.10139 0
M  V30 9491 H 910.184 2.11166 -0.228624 0
M  V30 9492 H 912.447 0.94717 -0.0396599 0
M  V30 9493 H 912.153 3.48861 0.445991 0
M  V30 9494 H 912.027 3.09785 2.15204 0
M  V30 9495 H 914.414 2.11001 2.06307 0
M  V30 9496 H 914.495 2.53433 0.347203 0
M  V30 9497 H 914.139 4.98745 0.959975 0
M  V30 9498 H 914.069 4.53245 2.68098 0
M  V30 9499 H 916.56 3.43945 1.56557 0
M  V30 9500 H 916.873 7.26961 2.62196 0
M  V30 9501 H 915.218 6.5354 2.36454 0
M  V30 9502 H 918.409 4.29462 1.86225 0
M  V30 9503 H 918.582 6.04112 2.34419 0
M  V30 9504 N 911.988 -0.768124 1.37614 0
M  V30 9505 C 913.399 -1.34462 1.29525 0
M  V30 9506 C 913.75 -1.96121 -0.0555168 0
M  V30 9507 O 912.875 -1.94069 -0.957406 0
M  V30 9508 C 913.47 -2.44475 2.34558 0
M  V30 9509 C 912.029 -2.97883 2.30093 0
M  V30 9510 C 911.176 -1.71131 2.18196 0
M  V30 9511 H 914.127 -0.568103 1.48183 0
M  V30 9512 H 914.148 -3.24047 1.99434 0
M  V30 9513 H 913.66 -1.99568 3.32858 0
M  V30 9514 H 911.761 -3.47156 1.35328 0
M  V30 9515 H 911.874 -3.53251 3.23652 0
M  V30 9516 H 910.238 -1.94197 1.64802 0
M  V30 9517 H 911.021 -1.28323 3.18415 0
M  V30 9518 N 913.466 -1.22244 -0.994698 0
M  V30 9519 C 914.712 -1.05752 -1.73747 0
M  V30 9520 C 915.067 0.403416 -1.88123 0
M  V30 9521 O 914.36 1.29511 -1.412 0
M  V30 9522 C 914.554 -1.70014 -3.14372 0
M  V30 9523 C 914.383 -3.22205 -3.1371 0
M  V30 9524 C 913.153 -3.91301 -3.19705 0
M  V30 9525 C 915.351 -4.19163 -2.98005 0
M  V30 9526 N 913.333 -5.30594 -3.08778 0
M  V30 9527 C 914.704 -5.45274 -2.95087 0
M  V30 9528 C 916.759 -4.10078 -2.82383 0
M  V30 9529 C 915.462 -6.63345 -2.78146 0
M  V30 9530 C 917.488 -5.27797 -2.66803 0
M  V30 9531 C 916.85 -6.52826 -2.6457 0
M  V30 9532 H 912.949 -0.441393 -0.64552 0
M  V30 9533 H 915.533 -1.54757 -1.18146 0
M  V30 9534 H 913.704 -1.23562 -3.68221 0
M  V30 9535 H 915.436 -1.46631 -3.77202 0
M  V30 9536 H 912.191 -3.42289 -3.27315 0
M  V30 9537 H 912.615 -6.0358 -3.06628 0
M  V30 9538 H 917.257 -3.14201 -2.82909 0
M  V30 9539 H 914.975 -7.59373 -2.76367 0
M  V30 9540 H 918.561 -5.22598 -2.557 0
M  V30 9541 H 917.441 -7.42383 -2.5266 0
M  V30 9542 N 914.944 1.19125 -1.03184 0
M  V30 9543 C 915.891 2.2245 -0.6152 0
M  V30 9544 C 916.861 1.61869 0.372502 0
M  V30 9545 O 918.046 1.88901 0.268491 0
M  V30 9546 C 915.186 3.45091 0.0248027 0
M  V30 9547 C 914.299 4.20044 -1.0093 0
M  V30 9548 C 913.434 5.30119 -0.338744 0
M  V30 9549 C 912.473 5.96833 -1.35855 0
M  V30 9550 N 911.61 6.98464 -0.713594 0
M  V30 9551 H 916.45 2.57445 -1.50086 0
M  V30 9552 H 913.987 1.26485 -0.751005 0
M  V30 9553 H 915.945 4.15149 0.413131 0
M  V30 9554 H 914.575 3.10742 0.874028 0
M  V30 9555 H 913.627 3.48901 -1.51566 0
M  V30 9556 H 914.939 4.65796 -1.78425 0
M  V30 9557 H 914.093 6.0661 0.104269 0
M  V30 9558 H 912.832 4.85446 0.468382 0
M  V30 9559 H 911.837 5.1909 -1.81179 0
M  V30 9560 H 913.062 6.4359 -2.16722 0
M  V30 9561 H 911.008 6.55959 0.0733863 0
M  V30 9562 H 910.925 7.42422 -1.42638 0
M  V30 9563 H 912.193 7.78943 -0.294681 0
M  V30 9564 N 916.422 0.810101 1.35185 0
M  V30 9565 C 917.647 0.40364 2.03434 0
M  V30 9566 C 918.072 -0.97857 1.60641 0
M  V30 9567 O 917.43 -1.63435 0.784779 0
M  V30 9568 C 917.478 0.499154 3.57129 0
M  V30 9569 O 916.582 -0.486039 4.09526 0
M  V30 9570 H 915.923 0.168049 0.642383 0
M  V30 9571 H 918.453 1.09696 1.72708 0
M  V30 9572 H 918.463 0.370236 4.06317 0
M  V30 9573 H 917.138 1.50733 3.87624 0
M  V30 9574 H 915.715 -0.31707 3.7155 0
M  V30 9575 N 917.9 -1.47166 0.563914 0
M  V30 9576 C 919.146 -2.02756 0.0424338 0
M  V30 9577 C 919.479 -1.43662 -1.3067 0
M  V30 9578 O 918.754 -0.594676 -1.85186 0
M  V30 9579 C 919.037 -3.60074 -0.0434793 0
M  V30 9580 C 918.89 -4.29587 1.33323 0
M  V30 9581 C 920.209 -4.336 -0.753568 0
M  V30 9582 H 917.328 -0.736806 0.0168946 0
M  V30 9583 H 919.97 -1.75521 0.727496 0
M  V30 9584 H 918.12 -3.83409 -0.626906 0
M  V30 9585 H 919.792 -4.17573 1.96037 0
M  V30 9586 H 918.035 -3.8968 1.9061 0
M  V30 9587 H 918.706 -5.38218 1.22576 0
M  V30 9588 H 921.182 -4.15299 -0.258126 0
M  V30 9589 H 920.058 -5.43291 -0.782659 0
M  V30 9590 H 920.319 -4.03302 -1.81108 0
M  V30 9591 N 919.378 -0.300708 -1.54705 0
M  V30 9592 C 920.603 0.314073 -2.05008 0
M  V30 9593 C 921.028 1.46759 -1.17657 0
M  V30 9594 O 920.386 1.80398 -0.180598 0
M  V30 9595 C 920.434 0.748243 -3.52752 0
M  V30 9596 O 919.538 1.85305 -3.68424 0
M  V30 9597 H 918.879 0.0610139 -0.661191 0
M  V30 9598 H 921.409 -0.442467 -1.99758 0
M  V30 9599 H 921.419 1.03713 -3.94598 0
M  V30 9600 H 920.094 -0.095573 -4.1579 0
M  V30 9601 H 918.671 1.56473 -3.38483 0
M  V30 9602 N 920.856 1.57574 -0.0284266 0
M  V30 9603 C 921.766 2.13637 0.96936 0
M  V30 9604 C 922.782 1.08845 1.35752 0
M  V30 9605 O 923.958 1.40899 1.43908 0
M  V30 9606 C 921.023 2.65179 2.2334 0
M  V30 9607 C 920.084 3.84683 1.90572 0
M  V30 9608 C 919.317 4.33758 3.1095 0
M  V30 9609 O 919.54 3.82009 4.23586 0
M  V30 9610 O 918.474 5.2561 2.93288 0
M  V30 9611 H 922.3 2.99169 0.52267 0
M  V30 9612 H 919.885 1.48159 0.192135 0
M  V30 9613 H 921.767 2.98402 2.97547 0
M  V30 9614 H 920.442 1.82731 2.67191 0
M  V30 9615 H 919.349 3.56386 1.13753 0
M  V30 9616 H 920.682 4.68292 1.51538 0
M  V30 9617 N 922.334 -0.244713 1.55689 0
M  V30 9618 C 923.583 -0.970373 1.76824 0
M  V30 9619 C 923.896 -1.86402 0.592764 0
M  V30 9620 O 925.102 -2.62659 0.687186 0
M  V30 9621 C 923.558 -1.77547 3.13058 0
M  V30 9622 C 923.166 -0.929104 4.3826 0
M  V30 9623 C 924.91 -2.49373 3.43531 0
M  V30 9624 C 922.817 -1.73021 5.65524 0
M  V30 9625 H 921.747 -0.366048 0.659185 0
M  V30 9626 H 924.398 -0.224964 1.82116 0
M  V30 9627 H 922.78 -2.56291 3.01879 0
M  V30 9628 H 923.954 -0.183836 4.60433 0
M  V30 9629 H 922.269 -0.324071 4.15137 0
M  V30 9630 H 924.866 -3.09767 4.35831 0
M  V30 9631 H 925.209 -3.21099 2.64955 0
M  V30 9632 H 925.742 -1.77637 3.55935 0
M  V30 9633 H 922.481 -1.05666 6.46927 0
M  V30 9634 H 922.001 -2.45071 5.47449 0
M  V30 9635 H 923.68 -2.2968 6.0486 0
M  V30 9636 N 923.813 -1.49104 -0.510467 0
M  V30 9637 C 924.761 -1.65547 -1.63392 0
M  V30 9638 C 925.755 -0.521522 -1.61172 0
M  V30 9639 O 926.961 -0.700865 -1.65795 0
M  V30 9640 H 923.336 -0.521843 -0.541464 0
M  V30 9641 H 925.307 -2.59864 -1.46673 0
M  V30 9642 C 924.056 -1.73051 -3.01577 0
M  V30 9643 H 923.379 -2.59676 -3.03987 0
M  V30 9644 H 924.819 -1.88594 -3.79748 0
M  V30 9645 C 923.278 -0.47328 -3.33559 0
M  V30 9646 O 923.808 0.405239 -3.99651 0
M  V30 9647 N 922.014 -0.339074 -2.88615 0
M  V30 9648 H 921.561 -1.05497 -2.35007 0
M  V30 9649 H 921.519 0.501061 -3.10382 0
M  V30 9650 N 925.291 0.760815 -1.38019 0
M  V30 9651 C 926.702 1.33773 -1.30237 0
M  V30 9652 C 927.053 1.96148 0.0451153 0
M  V30 9653 O 926.178 1.94574 0.9471 0
M  V30 9654 C 926.773 2.43227 -2.35851 0
M  V30 9655 C 925.332 2.96659 -2.31669 0
M  V30 9656 C 924.479 1.69972 -2.191 0
M  V30 9657 H 927.43 0.560237 -1.48482 0
M  V30 9658 H 927.451 3.22985 -2.01149 0
M  V30 9659 H 926.963 1.978 -3.33911 0
M  V30 9660 H 925.064 3.46433 -1.37167 0
M  V30 9661 H 925.177 3.51529 -3.25521 0
M  V30 9662 H 923.541 1.9332 -1.65829 0
M  V30 9663 H 924.324 1.26633 -3.19091 0
M  V30 9664 N 926.769 1.22769 0.988202 0
M  V30 9665 C 927.997 1.08155 1.76381 0
M  V30 9666 C 928.412 -0.367573 1.85187 0
M  V30 9667 O 927.769 -1.25455 1.32541 0
M  V30 9668 C 927.82 1.69193 3.19462 0
M  V30 9669 O 927.541 3.08437 3.11125 0
M  V30 9670 C 929.042 1.59915 4.13451 0
M  V30 9671 H 926.262 0.378908 0.553778 0
M  V30 9672 H 928.806 1.6246 1.24206 0
M  V30 9673 H 926.961 1.18939 3.6869 0
M  V30 9674 H 927.375 3.37916 4.0114 0
M  V30 9675 H 928.849 2.07339 5.1158 0
M  V30 9676 H 929.326 0.556546 4.3566 0
M  V30 9677 H 929.932 2.09497 3.70123 0
M  V30 9678 N 928.247 -1.18576 1.03814 0
M  V30 9679 C 929.475 -1.92437 0.759966 0
M  V30 9680 C 929.89 -1.76031 -0.682526 0
M  V30 9681 O 929.247 -1.08829 -1.46501 0
M  V30 9682 C 929.298 -3.43923 1.11351 0
M  V30 9683 O 929.019 -3.5981 2.49937 0
M  V30 9684 C 930.52 -4.34888 0.859472 0
M  V30 9685 H 927.74 -0.610998 0.277349 0
M  V30 9686 H 930.284 -1.50448 1.38512 0
M  V30 9687 H 928.439 -3.83711 0.533362 0
M  V30 9688 H 928.853 -4.53569 2.63393 0
M  V30 9689 H 930.327 -5.39744 1.15672 0
M  V30 9690 H 930.804 -4.38717 -0.205839 0
M  V30 9691 H 931.41 -4.00795 1.42279 0
M  V30 9692 N 929.725 -0.817259 -1.34754 0
M  V30 9693 C 930.657 -0.192695 -2.28389 0
M  V30 9694 C 931.67 0.614167 -1.50771 0
M  V30 9695 O 932.859 0.444776 -1.7287 0
M  V30 9696 C 929.959 0.748929 -3.30521 0
M  V30 9697 C 929.132 -0.0138762 -4.37398 0
M  V30 9698 C 928.191 0.847825 -5.19325 0
M  V30 9699 O 927.217 0.29487 -5.68436 0
M  V30 9700 N 928.419 2.16843 -5.38479 0
M  V30 9701 H 931.184 -0.997122 -2.82626 0
M  V30 9702 H 928.745 -0.673696 -1.47217 0
M  V30 9703 H 930.737 1.32987 -3.82226 0
M  V30 9704 H 929.307 1.45412 -2.7672 0
M  V30 9705 H 928.527 -0.776093 -3.86485 0
M  V30 9706 H 929.815 -0.539191 -5.05935 0
M  V30 9707 H 929.213 2.64148 -5.00242 0
M  V30 9708 H 927.77 2.69835 -5.93323 0
M  V30 9709 N 931.203 1.46865 -0.571711 0
M  V30 9710 C 932.136 2.27176 0.215944 0
M  V30 9711 C 933.114 1.34951 0.907035 0
M  V30 9712 O 934.298 1.64349 0.923127 0
M  V30 9713 C 931.425 3.12388 1.30888 0
M  V30 9714 C 930.471 4.20296 0.724804 0
M  V30 9715 S 931.304 5.33691 -0.439839 0
M  V30 9716 C 932.46 6.22468 0.654564 0
M  V30 9717 H 932.693 2.93633 -0.465518 0
M  V30 9718 H 930.226 1.50184 -0.358351 0
M  V30 9719 H 932.184 3.62049 1.93471 0
M  V30 9720 H 930.845 2.45265 1.96224 0
M  V30 9721 H 930.038 4.79703 1.54599 0
M  V30 9722 H 929.64 3.73591 0.174861 0
M  V30 9723 H 931.932 6.59694 1.54304 0
M  V30 9724 H 932.875 7.08033 0.0975111 0
M  V30 9725 H 933.283 5.56384 0.953762 0
M  V30 9726 N 932.681 0.308908 1.54543 0
M  V30 9727 C 933.628 -0.563659 2.23811 0
M  V30 9728 C 934.598 -1.12332 1.22355 0
M  V30 9729 O 935.783 -1.16638 1.50997 0
M  V30 9730 C 932.923 -1.72585 2.98845 0
M  V30 9731 C 932.036 -1.19682 4.1509 0
M  V30 9732 C 931.171 -2.32351 4.77688 0
M  V30 9733 C 930.21 -1.76623 5.86064 0
M  V30 9734 N 929.347 -2.82896 6.42584 0
M  V30 9735 H 934.187 0.0336288 2.97981 0
M  V30 9736 H 931.724 0.0283666 1.47073 0
M  V30 9737 H 933.682 -2.40951 3.40586 0
M  V30 9738 H 932.312 -2.29464 2.27037 0
M  V30 9739 H 931.364 -0.405173 3.78236 0
M  V30 9740 H 932.676 -0.748923 4.93146 0
M  V30 9741 H 931.83 -3.0865 5.22322 0
M  V30 9742 H 930.569 -2.80472 3.98982 0
M  V30 9743 H 929.574 -0.988171 5.40847 0
M  V30 9744 H 930.799 -1.29398 6.66658 0
M  V30 9745 H 928.745 -3.30336 5.66758 0
M  V30 9746 H 928.662 -2.42626 7.16009 0
M  V30 9747 H 929.93 -3.59068 6.91875 0
M  V30 9748 N 934.159 -1.57557 0.0367827 0
M  V30 9749 C 935.069 -2.14148 -0.958017 0
M  V30 9750 C 936.085 -1.09564 -1.35173 0
M  V30 9751 O 937.261 -1.4166 -1.43158 0
M  V30 9752 C 934.326 -2.6636 -2.21931 0
M  V30 9753 C 933.387 -3.85688 -1.8853 0
M  V30 9754 C 932.62 -4.35401 -3.08645 0
M  V30 9755 O 932.843 -3.8425 -4.21554 0
M  V30 9756 O 931.777 -5.27158 -2.90497 0
M  V30 9757 H 935.603 -2.99442 -0.506797 0
M  V30 9758 H 933.188 -1.48259 -0.184275 0
M  V30 9759 H 935.07 -2.99976 -2.9596 0
M  V30 9760 H 933.745 -1.84145 -2.66219 0
M  V30 9761 H 932.652 -3.56985 -1.11861 0
M  V30 9762 H 933.985 -4.69089 -1.49052 0
M  V30 9763 N 935.637 0.236453 -1.55816 0
M  V30 9764 C 936.862 0.98449 -1.82545 0
M  V30 9765 C 937.287 1.77755 -0.615206 0
M  V30 9766 O 936.645 1.75982 0.435895 0
M  V30 9767 C 936.693 1.88973 -3.07118 0
M  V30 9768 O 935.797 2.98298 -2.84766 0
M  V30 9769 H 935.138 0.279577 -0.602273 0
M  V30 9770 H 937.668 0.254277 -2.03014 0
M  V30 9771 H 937.678 2.3024 -3.36829 0
M  V30 9772 H 936.353 1.30671 -3.94839 0
M  V30 9773 H 934.93 2.61085 -2.6625 0
M  V30 9774 N 937.115 1.49373 0.502552 0
M  V30 9775 C 938.345 1.62252 1.27898 0
M  V30 9776 C 938.753 0.292555 1.86924 0
M  V30 9777 O 938.096 -0.731823 1.68493 0
M  V30 9778 C 938.158 2.63153 2.4493 0
M  V30 9779 C 937.822 4.07541 2.06784 0
M  V30 9780 C 938.819 4.94392 1.60849 0
M  V30 9781 C 936.504 4.53263 2.16466 0
M  V30 9782 C 938.498 6.25003 1.25098 0
M  V30 9783 C 936.185 5.83888 1.80327 0
M  V30 9784 C 937.183 6.69582 1.34718 0
M  V30 9785 O 936.871 7.97773 0.990661 0
M  V30 9786 H 936.603 0.54918 0.394179 0
M  V30 9787 H 939.157 1.96132 0.610031 0
M  V30 9788 H 937.387 2.2445 3.14895 0
M  V30 9789 H 939.076 2.65578 3.06957 0
M  V30 9790 H 939.842 4.60296 1.52816 0
M  V30 9791 H 935.721 3.86731 2.50919 0
M  V30 9792 H 939.265 6.91844 0.894269 0
M  V30 9793 H 935.162 6.17513 1.8801 0
M  V30 9794 H 935.93 8.1077 1.12227 0
M  V30 9795 N 938.594 -0.753485 1.38421 0
M  V30 9796 C 939.824 -1.54049 1.37669 0
M  V30 9797 C 940.232 -1.89167 -0.0353656 0
M  V30 9798 O 939.575 -1.53285 -1.01239 0
M  V30 9799 C 939.637 -2.86777 2.16793 0
M  V30 9800 C 939.301 -2.74196 3.65603 0
M  V30 9801 C 940.298 -2.43985 4.59094 0
M  V30 9802 C 937.983 -2.91645 4.0896 0
M  V30 9803 C 939.977 -2.31379 5.93921 0
M  V30 9804 C 937.664 -2.78658 5.43868 0
M  V30 9805 C 938.662 -2.48568 6.36163 0
M  V30 9806 O 938.35 -2.3564 7.68589 0
M  V30 9807 H 938.082 -0.483276 0.472673 0
M  V30 9808 H 940.636 -0.940267 1.82615 0
M  V30 9809 H 938.866 -3.48988 1.66565 0
M  V30 9810 H 940.555 -3.48289 2.08446 0
M  V30 9811 H 941.321 -2.30172 4.26902 0
M  V30 9812 H 937.2 -3.14063 3.37469 0
M  V30 9813 H 940.744 -2.07813 6.65927 0
M  V30 9814 H 936.641 -2.92044 5.75656 0
M  V30 9815 H 937.409 -2.50851 7.79112 0
M  V30 9816 N 940.072 -1.23292 -0.981677 0
M  V30 9817 C 941.319 -1.06424 -1.72279 0
M  V30 9818 C 941.647 0.399055 -1.90362 0
M  V30 9819 O 940.902 1.31181 -1.45224 0
M  V30 9820 C 941.201 -1.73339 -3.12551 0
M  V30 9821 C 940.867 -3.23256 -3.14351 0
M  V30 9822 C 939.529 -3.64159 -3.14549 0
M  V30 9823 C 941.881 -4.1916 -3.09765 0
M  V30 9824 C 939.209 -4.99428 -3.07877 0
M  V30 9825 C 941.561 -5.54419 -3.04635 0
M  V30 9826 C 940.225 -5.94688 -3.03154 0
M  V30 9827 H 939.495 -0.389434 -0.630415 0
M  V30 9828 H 942.142 -1.53208 -1.1489 0
M  V30 9829 H 940.447 -1.18911 -3.73319 0
M  V30 9830 H 942.144 -1.57767 -3.68661 0
M  V30 9831 H 938.734 -2.90693 -3.14953 0
M  V30 9832 H 942.918 -3.88569 -3.08753 0
M  V30 9833 H 938.174 -5.29844 -3.05083 0
M  V30 9834 H 942.348 -6.28448 -3.00043 0
M  V30 9835 H 939.975 -6.99468 -2.97739 0
M  V30 9836 N 941.55 1.18024 -1.04442 0
M  V30 9837 C 942.827 1.8398 -0.664125 0
M  V30 9838 C 943.207 1.92961 0.856116 0
M  V30 9839 O 942.555 1.45839 1.75907 0
M  V30 9840 C 942.765 3.22069 -1.34433 0
M  V30 9841 C 944.113 3.98063 -1.47754 0
M  V30 9842 O 945.137 3.31523 -1.30274 0
M  V30 9843 O 943.996 5.17291 -1.76272 0
M  V30 9844 H 941.09 0.793543 -0.23285 0
M  V30 9845 H 943.636 1.25385 -1.14354 0
M  V30 9846 H 942.408 3.10458 -2.38184 0
M  V30 9847 H 942.031 3.88325 -0.853782 0
M  V30 9848 N 943.028 0.824394 1.34319 0
M  V30 9849 C 943.958 0.262077 2.32025 0
M  V30 9850 C 944.939 -0.622277 1.58309 0
M  V30 9851 O 946.124 -0.548848 1.86283 0
M  V30 9852 C 943.254 -0.57567 3.42496 0
M  V30 9853 C 942.208 0.21167 4.27476 0
M  V30 9854 C 941.534 -0.748913 5.29429 0
M  V30 9855 C 942.834 1.42068 5.02607 0
M  V30 9856 H 944.528 1.07842 2.79304 0
M  V30 9857 H 942.074 0.520022 1.34282 0
M  V30 9858 H 944.027 -0.979251 4.09864 0
M  V30 9859 H 942.751 -1.42508 2.93869 0
M  V30 9860 H 941.41 0.596636 3.61712 0
M  V30 9861 H 941.058 -1.59432 4.77064 0
M  V30 9862 H 940.758 -0.226313 5.87164 0
M  V30 9863 H 942.282 -1.15032 5.99667 0
M  V30 9864 H 943.696 1.09103 5.62823 0
M  V30 9865 H 942.093 1.87903 5.69923 0
M  V30 9866 H 943.163 2.1981 4.32217 0
M  V30 9867 N 944.506 -1.46559 0.579492 0
M  V30 9868 C 945.734 -2.06784 0.0693648 0
M  V30 9869 C 946.149 -1.42875 -1.23419 0
M  V30 9870 O 945.506 -0.532919 -1.74546 0
M  V30 9871 C 945.557 -3.61343 -0.106511 0
M  V30 9872 O 945.278 -4.22861 1.14545 0
M  V30 9873 C 946.779 -4.38489 -0.651359 0
M  V30 9874 H 943.999 -0.66866 0.0559848 0
M  V30 9875 H 946.543 -1.88235 0.799245 0
M  V30 9876 H 944.698 -3.7933 -0.786601 0
M  V30 9877 H 945.112 -5.15691 0.95723 0
M  V30 9878 H 946.586 -5.47237 -0.723615 0
M  V30 9879 H 947.063 -4.06309 -1.66763 0
M  V30 9880 H 947.669 -4.253 -0.0062433 0
M  V30 9881 N 945.984 -0.3171 -1.54377 0
M  V30 9882 C 947.261 0.341348 -1.92598 0
M  V30 9883 C 947.641 1.70402 -1.24605 0
M  V30 9884 O 946.989 2.25191 -0.387448 0
M  V30 9885 C 947.199 0.440003 -3.46215 0
M  V30 9886 C 948.547 0.703327 -4.18734 0
M  V30 9887 O 949.571 0.523181 -3.52337 0
M  V30 9888 O 948.43 1.05042 -5.3631 0
M  V30 9889 H 945.524 0.193696 -0.803997 0
M  V30 9890 H 948.07 -0.366341 -1.65699 0
M  V30 9891 H 946.842 -0.517299 -3.87866 0
M  V30 9892 H 946.465 1.19553 -3.792 0
M  V30 9893 N 947.462 1.57535 -0.0451378 0
M  V30 9894 C 948.71 1.92071 0.628743 0
M  V30 9895 C 949.031 0.923635 1.71738 0
M  V30 9896 O 948.301 -0.0324376 1.95873 0
M  V30 9897 H 946.881 0.708995 0.235233 0
M  V30 9898 H 949.543 1.9466 -0.0967177 0
M  V30 9899 H 948.639 2.9314 1.07123 0
M  V30 9900 N 948.94 -0.228186 1.55939 0
M  V30 9901 C 949.87 -1.28607 1.94891 0
M  V30 9902 C 950.851 -1.49236 0.816245 0
M  V30 9903 O 952.036 -1.61531 1.07803 0
M  V30 9904 C 949.166 -2.63719 2.25986 0
M  V30 9905 C 948.12 -2.57757 3.4168 0
M  V30 9906 C 947.446 -3.96837 3.58364 0
M  V30 9907 C 948.746 -2.13116 4.76843 0
M  V30 9908 H 950.44 -0.962531 2.83506 0
M  V30 9909 H 947.986 -0.461577 1.36402 0
M  V30 9910 H 949.939 -3.37878 2.51826 0
M  V30 9911 H 948.663 -2.97747 1.34217 0
M  V30 9912 H 947.322 -1.86055 3.15878 0
M  V30 9913 H 946.97 -4.28162 2.63982 0
M  V30 9914 H 946.67 -3.93731 4.36176 0
M  V30 9915 H 948.194 -4.72668 3.86545 0
M  V30 9916 H 949.608 -2.77015 5.01932 0
M  V30 9917 H 948.005 -2.21083 5.57891 0
M  V30 9918 H 949.075 -1.08326 4.72645 0
M  V30 9919 N 950.418 -1.49637 -0.494624 0
M  V30 9920 C 951.643 -1.63431 -1.27691 0
M  V30 9921 C 952.068 -0.30813 -1.85559 0
M  V30 9922 O 951.426 0.725083 -1.66169 0
M  V30 9923 C 951.474 -2.71043 -2.3784 0
M  V30 9924 O 950.578 -2.3066 -3.41862 0
M  V30 9925 H 949.919 -0.546804 -0.376698 0
M  V30 9926 H 952.449 -1.95866 -0.591413 0
M  V30 9927 H 952.459 -2.93406 -2.83508 0
M  V30 9928 H 951.134 -3.67306 -1.95088 0
M  V30 9929 H 949.711 -2.18652 -3.02069 0
M  V30 9930 O 951.935 0.63997 -1.48279 0
M  V30 9931 H 952.626 1.29381 -1.44153 0
M  V30 END ATOM
M  V30 BEGIN BOND
M  V30 END BOND
M  V30 END CTAB
M  END
$$$$
