drugbank_target|P01133 Pro-epidermal growth factor (DB00364; DB04454; DB08862; DB11973)
 OpenBabel12092119443D

  0  0  0     0  0            999 V3000
M  V30 BEGIN CTAB
M  V30 COUNTS 18428 18647 0 0 0
M  V30 BEGIN ATOM
M  V30 1 H -0.908 1.98254 -0.117106 0
M  V30 2 N 0 1.576 0 0
M  V30 3 C 0.933 2.03868 1.02534 0
M  V30 4 C 1.911 0.928543 1.3348 0
M  V30 5 O 3.095 1.19667 1.45644 0
M  V30 6 C 0.222 2.43627 2.35294 0
M  V30 7 C -0.732 3.65373 2.2001 0
M  V30 8 S 0.101 5.13292 1.52614 0
M  V30 9 C 1.257 5.56322 2.86805 0
M  V30 10 H 1.49 2.90518 0.631377 0
M  V30 11 H -0.977 1.52953 0.210867 0
M  V30 12 H 0.981 2.67203 3.11629 0
M  V30 13 H -0.358 1.57376 2.7183 0
M  V30 14 H -1.165 3.90944 3.18086 0
M  V30 15 H -1.563 3.418 1.51819 0
M  V30 16 H 0.729 5.58782 3.83104 0
M  V30 17 H 1.672 6.56266 2.65933 0
M  V30 18 H 2.08 4.83886 2.90714 0
M  V30 19 N 1.4781 -0.272755 1.55222 0
M  V30 20 C 2.4081 -1.34136 1.91127 0
M  V30 21 C 3.3891 -1.51513 0.773168 0
M  V30 22 O 4.5741 -1.64552 1.03132 0
M  V30 23 C 1.7041 -2.70083 2.1834 0
M  V30 24 C 0.6581 -2.67437 3.34158 0
M  V30 25 C -0.0159 -4.06938 3.46851 0
M  V30 26 C 1.2841 -2.26686 4.70543 0
M  V30 27 H 2.9781 -1.04333 2.80633 0
M  V30 28 H 0.5241 -0.500454 1.35024 0
M  V30 29 H 2.4771 -3.44952 2.42046 0
M  V30 30 H 1.2011 -3.01469 1.25634 0
M  V30 31 H -0.1399 -1.95026 3.1042 0
M  V30 32 H -0.4919 -4.35547 2.51611 0
M  V30 33 H -0.7919 -4.06062 4.2472 0
M  V30 34 H 0.7321 -4.83545 3.72849 0
M  V30 35 H 2.1461 -2.91277 4.93792 0
M  V30 36 H 0.5431 -2.36971 5.5133 0
M  V30 37 H 1.6131 -1.21818 4.69349 0
M  V30 38 N 2.9562 -1.48159 -0.537278 0
M  V30 39 C 3.8862 -1.65029 -1.6519 0
M  V30 40 C 4.8672 -0.499281 -1.62607 0
M  V30 41 O 6.0522 -0.730972 -1.79918 0
M  V30 42 C 3.1822 -1.68303 -3.03795 0
M  V30 43 C 2.1362 -2.8283 -3.21234 0
M  V30 44 C 1.4622 -2.71189 -4.60826 0
M  V30 45 C 2.7622 -4.24211 -3.04701 0
M  V30 46 H 4.4562 -2.58341 -1.51328 0
M  V30 47 H 2.0022 -1.24325 -0.726585 0
M  V30 48 H 3.9552 -1.78693 -3.81637 0
M  V30 49 H 2.6792 -0.715635 -3.18663 0
M  V30 50 H 1.3382 -2.71983 -2.45807 0
M  V30 51 H 0.9862 -1.72435 -4.7252 0
M  V30 52 H 0.6862 -3.48035 -4.7344 0
M  V30 53 H 2.2102 -2.83537 -5.40777 0
M  V30 54 H 3.6242 -4.3593 -3.72341 0
M  V30 55 H 2.0212 -5.01998 -3.28813 0
M  V30 56 H 3.0912 -4.41184 -2.01209 0
M  V30 57 N 4.4343 0.785586 -1.36625 0
M  V30 58 C 5.6623 1.57448 -1.3423 0
M  V30 59 C 6.0773 1.88649 0.0755653 0
M  V30 60 O 5.4343 1.50414 1.03354 0
M  V30 61 C 5.4853 2.89316 -2.16745 0
M  V30 62 O 5.2063 2.59459 -3.53005 0
M  V30 63 C 6.7073 3.83606 -2.22174 0
M  V30 64 H 3.9273 0.488226 -0.4603 0
M  V30 65 H 6.4713 0.974733 -1.79775 0
M  V30 66 H 4.6263 3.4575 -1.74745 0
M  V30 67 H 5.0403 3.43804 -3.96105 0
M  V30 68 H 6.5143 4.73181 -2.8426 0
M  V30 69 H 6.9913 4.21734 -1.22627 0
M  V30 70 H 7.5973 3.33104 -2.64427 0
M  V30 71 N 5.9124 1.20967 1.01018 0
M  V30 72 C 6.8424 0.988272 2.11555 0
M  V30 73 C 7.8234 -0.0849778 1.69888 0
M  V30 74 O 9.0084 0.0738202 1.9406 0
M  V30 75 C 6.1384 0.546528 3.42973 0
M  V30 76 C 5.0924 1.56375 3.9841 0
M  V30 77 C 4.4184 0.97842 5.25672 0
M  V30 78 C 5.7184 2.94922 4.31066 0
M  V30 79 H 7.4124 1.91276 2.30334 0
M  V30 80 H 4.9584 0.921073 1.1069 0
M  V30 81 H 6.9114 0.378839 4.19694 0
M  V30 82 H 5.6354 -0.413598 3.23971 0
M  V30 83 H 4.2944 1.71891 3.23804 0
M  V30 84 H 3.9424 0.0101688 5.02999 0
M  V30 85 H 3.6424 1.65784 5.63728 0
M  V30 86 H 5.1664 0.821939 6.05043 0
M  V30 87 H 6.5804 2.8288 4.9865 0
M  V30 88 H 4.9774 3.5983 4.80253 0
M  V30 89 H 6.0474 3.4616 3.39561 0
M  V30 90 N 7.3905 -1.2043 1.01659 0
M  V30 91 C 8.6395 -1.89118 0.701237 0
M  V30 92 C 8.9525 -1.79705 -0.772358 0
M  V30 93 O 10.1585 -2.43528 -1.20026 0
M  V30 94 C 8.6145 -3.39168 1.20388 0
M  V30 95 C 8.2225 -3.57166 2.70438 0
M  V30 96 C 9.9665 -4.1341 0.963953 0
M  V30 97 C 7.8735 -5.01042 3.14183 0
M  V30 98 H 6.8035 -0.708267 0.2586 0
M  V30 99 H 9.4545 -1.36239 1.22927 0
M  V30 100 H 7.8365 -3.91369 0.603824 0
M  V30 101 H 9.0105 -3.15351 3.35992 0
M  V30 102 H 7.3255 -2.96294 2.92572 0
M  V30 103 H 9.9225 -5.19491 1.26621 0
M  V30 104 H 10.2655 -4.16181 -0.099578 0
M  V30 105 H 10.7985 -3.67309 1.52738 0
M  V30 106 H 7.5375 -5.03426 4.19812 0
M  V30 107 H 7.0575 -5.43668 2.53348 0
M  V30 108 H 8.7365 -5.69623 3.0682 0
M  V30 109 N 8.8686 -0.792821 -1.36206 0
M  V30 110 C 10.1176 -0.363353 -1.984 0
M  V30 111 C 10.4306 1.07172 -1.63626 0
M  V30 112 O 11.6366 1.60362 -2.19081 0
M  V30 113 C 10.0926 -0.59872 -3.54885 0
M  V30 114 C 9.7006 -2.04543 -3.9858 0
M  V30 115 C 11.4446 -0.233926 -4.23855 0
M  V30 116 C 9.3516 -2.22727 -5.47856 0
M  V30 117 H 8.2816 -0.13212 -0.742334 0
M  V30 118 H 10.9326 -0.974935 -1.55458 0
M  V30 119 H 9.3146 0.0826222 -3.95914 0
M  V30 120 H 10.4886 -2.76345 -3.68741 0
M  V30 121 H 8.8036 -2.36879 -3.42458 0
M  V30 122 H 11.4006 -0.348027 -5.33566 0
M  V30 123 H 11.7436 0.818351 -4.08177 0
M  V30 124 H 12.2766 -0.868639 -3.882 0
M  V30 125 H 9.0156 -3.2635 -5.68486 0
M  V30 126 H 8.5356 -1.55434 -5.7931 0
M  V30 127 H 10.2146 -2.03607 -6.14128 0
M  V30 128 N 10.3467 1.47872 -0.545128 0
M  V30 129 C 11.2767 2.32661 0.197793 0
M  V30 130 C 12.2577 1.43041 0.920504 0
M  V30 131 O 13.4427 1.71912 0.90333 0
M  V30 132 C 10.5727 3.24569 1.23582 0
M  V30 133 C 9.5267 4.23333 0.630323 0
M  V30 134 C 8.8527 5.0448 1.77211 0
M  V30 135 C 10.1527 5.20704 -0.407974 0
M  V30 136 H 11.8467 2.95024 -0.510045 0
M  V30 137 H 9.3927 1.4187 -0.246731 0
M  V30 138 H 11.3457 3.8272 1.76362 0
M  V30 139 H 10.0697 2.60236 1.97344 0
M  V30 140 H 8.7287 3.6639 0.123922 0
M  V30 141 H 8.3767 4.36561 2.49847 0
M  V30 142 H 8.0767 5.71339 1.37281 0
M  V30 143 H 9.6007 5.65487 2.3034 0
M  V30 144 H 11.0147 5.7329 0.033305 0
M  V30 145 H 9.4117 5.95699 -0.725486 0
M  V30 146 H 10.4817 4.66917 -1.30828 0
M  V30 147 N 11.8248 0.280983 1.55075 0
M  V30 148 C 12.7548 -0.597469 2.25727 0
M  V30 149 C 13.7358 -1.15417 1.24952 0
M  V30 150 O 14.9208 -1.18722 1.53684 0
M  V30 151 C 12.0508 -1.7789 2.98283 0
M  V30 152 C 11.0048 -1.35347 4.06036 0
M  V30 153 C 10.3308 -2.61846 4.66198 0
M  V30 154 C 11.6308 -0.499354 5.19907 0
M  V30 155 H 13.3248 -0.00824265 2.99399 0
M  V30 156 H 10.8708 -0.0025244 1.44 0
M  V30 157 H 12.8238 -2.39937 3.46422 0
M  V30 158 H 11.5478 -2.39405 2.22155 0
M  V30 159 H 10.2068 -0.756156 3.58717 0
M  V30 160 H 9.8548 -3.21632 3.86732 0
M  V30 161 H 9.5548 -2.3409 5.38958 0
M  V30 162 H 11.0788 -3.24732 5.1709 0
M  V30 163 H 12.4928 -1.02498 5.64063 0
M  V30 164 H 10.8898 -0.316424 5.99265 0
M  V30 165 H 11.9598 0.480459 4.82514 0
M  V30 166 N 13.3029 -1.57598 0.00835791 0
M  V30 167 C 14.7139 -1.7892 -0.53333 0
M  V30 168 C 15.0649 -0.916609 -1.73473 0
M  V30 169 O 14.1899 -0.121336 -2.1606 0
M  V30 170 C 14.7849 -3.24488 -0.974313 0
M  V30 171 C 13.3439 -3.46878 -1.46125 0
M  V30 172 C 12.4909 -2.74157 -0.416302 0
M  V30 173 H 15.4419 -1.56958 0.234495 0
M  V30 174 H 15.4629 -3.3306 -1.83988 0
M  V30 175 H 14.9749 -3.87972 -0.099718 0
M  V30 176 H 13.0759 -2.8862 -2.35646 0
M  V30 177 H 13.1889 -4.55572 -1.48295 0
M  V30 178 H 11.5529 -2.39022 -0.87981 0
M  V30 179 H 12.3359 -3.40345 0.44947 0
M  V30 180 N 14.781 0.264519 -1.55364 0
M  V30 181 C 16.027 0.99646 -1.76631 0
M  V30 182 C 16.36 1.85632 -0.570478 0
M  V30 183 O 15.635 1.89647 0.43175 0
M  V30 184 C 15.918 1.87187 -3.07625 0
M  V30 185 C 15.771 1.04138 -4.37579 0
M  V30 186 C 17.09 2.85749 -3.34717 0
M  V30 187 H 14.209 0.360841 -0.642622 0
M  V30 188 H 16.851 0.268218 -1.88097 0
M  V30 189 H 15.001 2.49279 -2.9798 0
M  V30 190 H 16.673 0.440517 -4.59192 0
M  V30 191 H 14.916 0.345115 -4.32425 0
M  V30 192 H 15.587 1.68729 -5.2558 0
M  V30 193 H 18.063 2.33793 -3.4421 0
M  V30 194 H 16.939 3.44136 -4.27623 0
M  V30 195 H 17.2 3.61311 -2.54768 0
M  V30 196 N 16.2591 1.48442 0.529413 0
M  V30 197 C 17.5051 1.5672 1.28711 0
M  V30 198 C 17.8381 0.2406 1.92704 0
M  V30 199 O 17.1131 -0.753454 1.79313 0
M  V30 200 C 17.3961 2.70587 2.37603 0
M  V30 201 C 17.2491 4.12953 1.78297 0
M  V30 202 C 18.5681 2.80212 3.39366 0
M  V30 203 H 15.6871 0.570474 0.466613 0
M  V30 204 H 18.3291 1.80617 0.589706 0
M  V30 205 H 16.4791 2.50342 2.97088 0
M  V30 206 H 18.1511 4.44639 1.22858 0
M  V30 207 H 16.3941 4.19927 1.0883 0
M  V30 208 H 17.0651 4.88448 2.57144 0
M  V30 209 H 19.5411 2.98553 2.89836 0
M  V30 210 H 18.4171 3.61611 4.12951 0
M  V30 211 H 18.6781 1.88393 3.99951 0
M  V30 212 N 17.7372 -0.778329 1.37039 0
M  V30 213 C 18.9622 -1.57248 1.35233 0
M  V30 214 C 19.3872 -1.87999 -0.0615568 0
M  V30 215 O 18.7452 -1.48734 -1.03672 0
M  V30 216 C 18.7932 -2.86353 2.19167 0
M  V30 217 O 17.8972 -3.80442 1.59178 0
M  V30 218 H 17.2382 -0.476569 0.462362 0
M  V30 219 H 19.7682 -0.963853 1.80474 0
M  V30 220 H 19.7782 -3.35519 2.32145 0
M  V30 221 H 18.4532 -2.63299 3.21942 0
M  V30 222 H 17.0302 -3.39067 1.55203 0
M  V30 223 N 19.2153 -1.21501 -1.00376 0
M  V30 224 C 20.1623 -0.975387 -2.09177 0
M  V30 225 C 21.1323 0.0990615 -1.65804 0
M  V30 226 O 22.3173 -0.0483147 -1.90739 0
M  V30 227 C 19.4573 -0.547507 -3.40729 0
M  V30 228 C 18.5703 -1.69153 -3.97506 0
M  V30 229 C 17.7053 -1.2127 -5.17172 0
M  V30 230 C 16.7443 -2.32897 -5.66061 0
M  V30 231 N 15.8813 -1.86138 -6.76976 0
M  V30 232 H 20.7213 -1.9068 -2.29009 0
M  V30 233 H 18.2583 -0.950257 -1.12288 0
M  V30 234 H 20.2163 -0.280667 -4.16255 0
M  V30 235 H 18.8463 0.346904 -3.20931 0
M  V30 236 H 17.8983 -2.07298 -3.18954 0
M  V30 237 H 19.2103 -2.5316 -4.29781 0
M  V30 238 H 18.3643 -0.902591 -5.99948 0
M  V30 239 H 17.1033 -0.342692 -4.86495 0
M  V30 240 H 16.1083 -2.64709 -4.81881 0
M  V30 241 H 17.3333 -3.20396 -5.98768 0
M  V30 242 H 15.2793 -1.01484 -6.48103 0
M  V30 243 H 15.1963 -2.63717 -7.08512 0
M  V30 244 H 16.4643 -1.58165 -7.63285 0
M  V30 245 N 20.6934 1.19889 -1.02296 0
M  V30 246 C 21.9404 1.8942 -0.715972 0
M  V30 247 C 22.2684 1.79251 0.754944 0
M  V30 248 O 21.5234 1.17526 1.56481 0
M  V30 249 C 21.8224 3.39883 -1.10518 0
M  V30 250 C 21.4884 3.70254 -2.57337 0
M  V30 251 C 20.1504 3.78254 -2.97452 0
M  V30 252 C 22.5024 3.84052 -3.52354 0
M  V30 253 C 19.8304 3.97514 -4.31509 0
M  V30 254 C 22.1824 4.04824 -4.86108 0
M  V30 255 C 20.8464 4.11054 -5.25919 0
M  V30 256 H 20.1164 0.693138 -0.261993 0
M  V30 257 H 22.7634 1.42012 -1.28472 0
M  V30 258 H 21.0684 3.8915 -0.454953 0
M  V30 259 H 22.7654 3.9199 -0.845261 0
M  V30 260 H 19.3554 3.64632 -2.25258 0
M  V30 261 H 23.5394 3.77221 -3.22518 0
M  V30 262 H 18.7954 4.00574 -4.61898 0
M  V30 263 H 22.9694 4.14442 -5.59653 0
M  V30 264 H 20.5964 4.2573 -6.29808 0
M  V30 265 N 22.1715 0.800033 1.35784 0
M  V30 266 C 23.3965 0.388511 2.03729 0
M  V30 267 C 23.8215 -0.990481 1.5991 0
M  V30 268 O 23.1795 -1.64013 0.772612 0
M  V30 269 C 23.2275 0.4726 3.5749 0
M  V30 270 O 22.3315 -0.51646 4.09153 0
M  V30 271 H 21.6725 0.163271 0.643614 0
M  V30 272 H 24.2025 1.0841 1.73518 0
M  V30 273 H 24.2125 0.34003 4.06581 0
M  V30 274 H 22.8875 1.47848 3.88734 0
M  V30 275 H 21.4645 -0.344673 3.71304 0
M  V30 276 N 23.6496 -1.47581 0.552962 0
M  V30 277 C 24.8966 -2.02482 0.0273243 0
M  V30 278 C 25.2246 -1.42776 -1.32081 0
M  V30 279 O 24.4796 -0.571393 -1.87173 0
M  V30 280 C 24.7786 -3.57199 -0.119728 0
M  V30 281 C 24.4446 -4.35804 1.15697 0
M  V30 282 C 23.1066 -4.57 1.50681 0
M  V30 283 C 25.4586 -4.81167 2.00319 0
M  V30 284 C 22.7866 -5.20807 2.70142 0
M  V30 285 C 25.1386 -5.46293 3.18978 0
M  V30 286 C 23.8026 -5.65722 3.54281 0
M  V30 287 H 23.0726 -0.740933 0.00999866 0
M  V30 288 H 25.7196 -1.77302 0.72362 0
M  V30 289 H 24.0246 -3.81348 -0.89896 0
M  V30 290 H 25.7216 -3.97324 -0.541718 0
M  V30 291 H 22.3116 -4.19582 0.874561 0
M  V30 292 H 26.4956 -4.64574 1.74599 0
M  V30 293 H 21.7516 -5.34045 2.97668 0
M  V30 294 H 25.9256 -5.80407 3.84838 0
M  V30 295 H 23.5526 -6.14936 4.46942 0
M  V30 296 N 25.1277 -0.289203 -1.54924 0
M  V30 297 C 26.3737 0.323998 -2.00195 0
M  V30 298 C 26.7067 1.54441 -1.17735 0
M  V30 299 O 25.9817 1.92875 -0.250878 0
M  V30 300 C 26.2647 0.692276 -3.53383 0
M  V30 301 C 26.1177 -0.536457 -4.46589 0
M  V30 302 C 27.4367 1.52335 -4.12895 0
M  V30 303 H 24.5557 0.116289 -0.727768 0
M  V30 304 H 27.1977 -0.398954 -1.85764 0
M  V30 305 H 25.3477 1.30822 -3.65811 0
M  V30 306 H 27.0197 -1.17499 -4.46085 0
M  V30 307 H 25.2627 -1.17192 -4.1767 0
M  V30 308 H 25.9337 -0.234806 -5.515 0
M  V30 309 H 28.4097 1.00302 -4.0383 0
M  V30 310 H 27.2857 1.74982 -5.20262 0
M  V30 311 H 27.5467 2.50886 -3.64018 0
M  V30 312 N 26.6058 1.57591 -0.0167156 0
M  V30 313 C 27.8308 1.9598 0.67872 0
M  V30 314 C 28.2558 0.892546 1.65575 0
M  V30 315 O 27.6138 -0.147772 1.80697 0
M  V30 316 C 27.6618 3.33468 1.37227 0
M  V30 317 O 26.7658 3.28954 2.48722 0
M  V30 318 H 26.1068 0.639339 0.17928 0
M  V30 319 H 28.6368 2.04463 -0.0748802 0
M  V30 320 H 28.6468 3.69417 1.7319 0
M  V30 321 H 27.3218 4.10694 0.656007 0
M  V30 322 H 25.8988 3.04705 2.14963 0
M  V30 323 N 28.0839 -0.256276 1.55502 0
M  V30 324 C 29.0139 -1.32102 1.92539 0
M  V30 325 C 29.9949 -1.50684 0.789194 0
M  V30 326 O 31.1799 -1.63449 1.04872 0
M  V30 327 C 28.3099 -2.67752 2.21192 0
M  V30 328 C 27.2639 -2.63878 3.36975 0
M  V30 329 C 26.5899 -4.03236 3.51147 0
M  V30 330 C 27.8899 -2.21682 4.72921 0
M  V30 331 H 29.5839 -1.01351 2.81724 0
M  V30 332 H 27.1299 -0.486105 1.35547 0
M  V30 333 H 29.0829 -3.42365 2.45691 0
M  V30 334 H 27.8069 -3.0012 1.28824 0
M  V30 335 H 26.4659 -1.91722 3.12471 0
M  V30 336 H 26.1139 -4.32854 2.56216 0
M  V30 337 H 25.8139 -4.01535 4.29003 0
M  V30 338 H 27.3379 -4.79563 3.77957 0
M  V30 339 H 28.7519 -2.86023 4.96854 0
M  V30 340 H 27.1489 -2.3111 5.53812 0
M  V30 341 H 28.2189 -1.16833 4.70615 0
M  V30 342 N 29.562 -1.4872 -0.521534 0
M  V30 343 C 30.787 -1.61101 -1.30618 0
M  V30 344 C 31.212 -0.274611 -1.86085 0
M  V30 345 O 30.57 0.754937 -1.64834 0
M  V30 346 C 30.618 -2.66709 -2.4269 0
M  V30 347 O 29.722 -2.24456 -3.45967 0
M  V30 348 H 29.063 -0.539921 -0.386499 0
M  V30 349 H 31.593 -1.94767 -0.626645 0
M  V30 350 H 31.603 -2.88245 -2.88754 0
M  V30 351 H 30.278 -3.63727 -2.01682 0
M  V30 352 H 28.855 -2.13168 -3.05964 0
M  V30 353 N 31.0401 0.771051 -1.3745 0
M  V30 354 C 32.0031 1.86598 -1.33093 0
M  V30 355 C 33.0031 1.59076 -0.234845 0
M  V30 356 O 34.1931 1.67145 -0.490732 0
M  V30 357 C 31.3251 3.23747 -1.06773 0
M  V30 358 H 32.5181 1.91873 -2.30488 0
M  V30 359 H 30.0711 0.970876 -1.2249 0
M  V30 360 H 30.8061 3.24148 -0.099129 0
M  V30 361 H 30.5911 3.45115 -1.86112 0
M  V30 362 H 32.0811 4.03824 -1.06377 0
M  V30 363 N 32.5182 1.22032 0.997298 0
M  V30 364 C 33.9292 1.0397 1.55071 0
M  V30 365 C 34.2802 -0.398192 1.92117 0
M  V30 366 O 33.4052 -1.28254 1.74298 0
M  V30 367 C 34.0002 1.88109 2.81781 0
M  V30 368 C 32.5592 1.74357 3.33581 0
M  V30 369 C 31.7062 1.84846 2.06706 0
M  V30 370 H 34.6572 1.35941 0.818883 0
M  V30 371 H 34.6782 1.39589 3.53971 0
M  V30 372 H 34.1902 2.92754 2.54787 0
M  V30 373 H 32.2912 0.72427 3.65493 0
M  V30 374 H 32.4042 2.56772 4.04481 0
M  V30 375 H 30.7682 1.28238 2.20062 0
M  V30 376 H 31.5512 2.91014 1.82114 0
M  V30 377 N 33.9963 -1.19345 1.0293 0
M  V30 378 C 34.9283 -2.22036 0.56857 0
M  V30 379 C 35.9413 -1.58865 -0.355779 0
M  V30 380 O 37.1303 -1.77851 -0.152103 0
M  V30 381 C 34.2303 -3.38363 -0.190752 0
M  V30 382 C 33.4033 -4.31118 0.738643 0
M  V30 383 C 32.4623 -5.26194 0.0246497 0
M  V30 384 O 31.4883 -5.65461 0.651354 0
M  V30 385 N 32.6903 -5.66971 -1.24594 0
M  V30 386 H 35.4553 -2.6219 1.45177 0
M  V30 387 H 33.0163 -1.34015 0.908381 0
M  V30 388 H 35.0083 -3.98981 -0.677961 0
M  V30 389 H 33.5783 -2.96994 -0.975366 0
M  V30 390 H 32.7983 -3.68276 1.40593 0
M  V30 391 H 34.0863 -4.90001 1.37029 0
M  V30 392 H 33.4843 -5.37104 -1.77583 0
M  V30 393 H 32.0413 -6.2984 -1.67764 0
M  V30 394 N 35.4744 -0.807222 -1.35358 0
M  V30 395 C 36.4244 -0.190706 -2.27201 0
M  V30 396 C 37.4084 0.635838 -1.47804 0
M  V30 397 O 38.6004 0.492991 -1.69996 0
M  V30 398 C 35.7294 0.659337 -3.36909 0
M  V30 399 C 34.8154 -0.176971 -4.23731 0
M  V30 400 N 35.2064 -1.24029 -4.90357 0
M  V30 401 C 33.5044 0.0412953 -4.45981 0
M  V30 402 C 34.2054 -1.75092 -5.54723 0
M  V30 403 N 33.1814 -1.05727 -5.33219 0
M  V30 404 H 36.9834 -1.0043 -2.76208 0
M  V30 405 H 34.4974 -0.648445 -1.48892 0
M  V30 406 H 36.4944 1.11706 -4.01656 0
M  V30 407 H 35.1544 1.47127 -2.89454 0
M  V30 408 H 36.1654 -1.62295 -4.91814 0
M  V30 409 H 32.8424 0.82232 -4.09322 0
M  V30 410 H 34.2324 -2.63963 -6.17878 0
M  V30 411 N 36.9525 1.47285 -0.560781 0
M  V30 412 C 38.1985 2.03347 -0.0463654 0
M  V30 413 C 38.5535 1.42702 1.2905 0
M  V30 414 O 37.8465 0.574619 1.8278 0
M  V30 415 C 38.0405 3.57258 0.100784 0
M  V30 416 C 37.8695 4.32827 -1.22027 0
M  V30 417 C 36.6395 4.72588 -1.78854 0
M  V30 418 C 38.8375 4.67739 -2.13834 0
M  V30 419 N 36.8195 5.32816 -3.04927 0
M  V30 420 C 38.1905 5.28307 -3.24487 0
M  V30 421 C 40.2455 4.49667 -2.13784 0
M  V30 422 C 38.9485 5.72711 -4.35194 0
M  V30 423 C 40.9745 4.95073 -3.23506 0
M  V30 424 C 40.3365 5.55693 -4.32879 0
M  V30 425 H 36.4355 0.779755 -0.0592166 0
M  V30 426 H 39.0195 1.79723 -0.748857 0
M  V30 427 H 37.1905 3.80642 0.772404 0
M  V30 428 H 38.9225 3.9996 0.617589 0
M  V30 429 H 35.6775 4.54656 -1.32609 0
M  V30 430 H 36.1015 5.67471 -3.69197 0
M  V30 431 H 40.7435 4.02154 -1.30507 0
M  V30 432 H 38.4615 6.19214 -5.1923 0
M  V30 433 H 42.0475 4.82859 -3.24559 0
M  V30 434 H 40.9275 5.90188 -5.1638 0
M  V30 435 N 38.4306 0.297415 1.54768 0
M  V30 436 C 39.6556 -0.318435 2.04941 0
M  V30 437 C 40.0806 -1.4701 1.17345 0
M  V30 438 O 39.4386 -1.80436 0.176758 0
M  V30 439 C 39.4866 -0.755749 3.52592 0
M  V30 440 O 38.5906 -1.86088 3.68028 0
M  V30 441 H 37.9316 -0.062421 0.661059 0
M  V30 442 H 40.4616 0.438215 1.99852 0
M  V30 443 H 40.4716 -1.04552 3.94376 0
M  V30 444 H 39.1466 0.0867233 4.1581 0
M  V30 445 H 37.7236 -1.57193 3.38149 0
M  V30 446 N 39.9087 -1.5758 0.0250728 0
M  V30 447 C 41.1487 -1.93497 -0.65865 0
M  V30 448 C 41.5127 -0.901409 -1.69525 0
M  V30 449 O 42.7137 -1.14664 -2.43116 0
M  V30 450 C 40.9847 -3.34352 -1.26267 0
M  V30 451 S 42.5437 -3.92191 -1.96803 0
M  V30 452 H 39.3617 -0.67709 -0.216958 0
M  V30 453 H 41.9637 -1.95303 0.0877692 0
M  V30 454 H 40.6677 -4.07395 -0.495741 0
M  V30 455 H 40.1987 -3.3598 -2.04648 0
M  V30 456 H 42.2137 -3.75298 -3.24601 0
M  V30 457 N 41.3868 0.248026 -1.55636 0
M  V30 458 C 42.7978 0.817177 -1.67866 0
M  V30 459 C 43.1488 1.86069 -0.622322 0
M  V30 460 O 42.2738 2.15157 0.231618 0
M  V30 461 C 42.8688 1.489 -3.04326 0
M  V30 462 C 41.4278 2.00587 -3.185 0
M  V30 463 C 40.5748 0.856573 -2.63739 0
M  V30 464 H 43.5258 0.0238579 -1.58682 0
M  V30 465 H 43.5468 2.35698 -2.98708 0
M  V30 466 H 43.0588 0.729279 -3.81186 0
M  V30 467 H 41.1598 2.79443 -2.4646 0
M  V30 468 H 41.2728 2.20402 -4.25393 0
M  V30 469 H 39.6368 1.25678 -2.21534 0
M  V30 470 H 40.4198 0.109953 -3.43124 0
M  V30 471 N 42.8649 1.48995 0.513639 0
M  V30 472 C 43.7749 1.67443 1.64317 0
M  V30 473 C 44.7909 0.556947 1.64846 0
M  V30 474 O 45.9669 0.830082 1.83498 0
M  V30 475 C 43.0319 1.72515 3.00732 0
M  V30 476 C 42.0929 2.96009 3.1093 0
M  V30 477 C 41.3259 3.00829 4.40837 0
M  V30 478 O 41.5489 2.13594 5.28898 0
M  V30 479 O 40.4829 3.93168 4.55744 0
M  V30 480 H 44.3089 2.63106 1.51687 0
M  V30 481 H 41.8939 1.32588 0.688543 0
M  V30 482 H 43.7759 1.78277 3.81831 0
M  V30 483 H 42.4509 0.800278 3.13651 0
M  V30 484 H 41.3579 2.9577 2.29065 0
M  V30 485 H 42.6909 3.87934 3.02933 0
M  V30 486 N 44.343 -0.763751 1.37857 0
M  V30 487 C 45.591 -1.51957 1.33243 0
M  V30 488 C 45.912 -1.94835 -0.0801709 0
M  V30 489 O 45.182 -1.66894 -1.02582 0
M  V30 490 H 43.762 -0.563626 0.49024 0
M  V30 491 H 46.424 -0.908504 1.7243 0
M  V30 492 H 45.52 -2.41523 1.97669 0
M  V30 493 N 45.8211 -1.22559 -0.990812 0
M  V30 494 C 47.0491 -1.07779 -1.76611 0
M  V30 495 C 47.4641 0.371513 -1.85109 0
M  V30 496 O 46.8211 1.25737 -1.32274 0
M  V30 497 C 46.8721 -1.68512 -3.19822 0
M  V30 498 O 46.5931 -3.07774 -3.1178 0
M  V30 499 C 48.0941 -1.59035 -4.13791 0
M  V30 500 H 45.3141 -0.377729 -0.554583 0
M  V30 501 H 47.8581 -1.62195 -1.24551 0
M  V30 502 H 46.0131 -1.18154 -3.68942 0
M  V30 503 H 46.4271 -3.37062 -4.01858 0
M  V30 504 H 47.9011 -2.0625 -5.1202 0
M  V30 505 H 48.3781 -0.547273 -4.35777 0
M  V30 506 H 48.9841 -2.08709 -3.70568 0
M  V30 507 N 47.2992 1.18797 -1.03562 0
M  V30 508 C 48.2292 2.24472 -0.643019 0
M  V30 509 C 49.2102 1.66433 0.351283 0
M  V30 510 O 50.3952 1.92803 0.232505 0
M  V30 511 C 47.5252 3.473 4.24935e-05 0
M  V30 512 C 46.4792 4.18055 -0.917257 0
M  V30 513 C 45.8052 5.34519 -0.138941 0
M  V30 514 C 47.1052 4.72109 -2.23407 0
M  V30 515 H 48.7992 2.57566 -1.52643 0
M  V30 516 H 46.3452 1.23806 -0.735394 0
M  V30 517 H 48.2982 4.20426 0.286383 0
M  V30 518 H 47.0222 3.13424 0.918299 0
M  V30 519 H 45.6812 3.46821 -1.1879 0
M  V30 520 H 45.3292 4.96891 0.781562 0
M  V30 521 H 45.0292 5.82794 -0.750005 0
M  V30 522 H 46.5532 6.10438 0.1405 0
M  V30 523 H 47.9672 5.36955 -2.00879 0
M  V30 524 H 46.3642 5.30897 -2.79765 0
M  V30 525 H 47.4342 3.89807 -2.88407 0
M  V30 526 N 48.7773 0.814389 1.34928 0
M  V30 527 C 49.7403 0.235759 2.27984 0
M  V30 528 C 50.7403 -0.581412 1.49921 0
M  V30 529 O 51.9303 -0.398758 1.69575 0
M  V30 530 C 49.0623 -0.670433 3.34242 0
M  V30 531 H 50.2553 1.05659 2.80671 0
M  V30 532 H 47.8083 0.585614 1.44915 0
M  V30 533 H 48.5433 -1.51466 2.86755 0
M  V30 534 H 48.3283 -0.0860822 3.92005 0
M  V30 535 H 49.8183 -1.06935 4.03676 0
M  V30 536 N 50.2554 -1.46986 0.568584 0
M  V30 537 C 51.5034 -2.02041 0.0487022 0
M  V30 538 C 51.8244 -1.44408 -1.31039 0
M  V30 539 O 51.0944 -0.623477 -1.85714 0
M  V30 540 H 49.6744 -0.746849 0.015014 0
M  V30 541 H 52.3364 -1.80257 0.741168 0
M  V30 542 H 51.4324 -3.12085 -0.0308961 0
M  V30 543 N 51.7335 -0.305618 -1.54608 0
M  V30 544 C 52.6815 0.584119 -2.25146 0
M  V30 545 C 53.6755 1.13326 -1.25911 0
M  V30 546 O 54.8815 1.08337 -1.43747 0
M  V30 547 H 51.2565 0.206983 -0.722954 0
M  V30 548 H 53.2275 -0.033291 -2.98381 0
M  V30 549 C 51.9765 1.74225 -3.009 0
M  V30 550 H 51.2995 1.32892 -3.77067 0
M  V30 551 H 52.7395 2.34077 -3.53531 0
M  V30 552 C 51.1985 2.64914 -2.0814 0
M  V30 553 O 51.7285 3.66137 -1.65246 0
M  V30 554 N 49.9345 2.3275 -1.74 0
M  V30 555 H 49.4815 1.50479 -2.09078 0
M  V30 556 H 49.4395 2.93694 -1.12211 0
M  V30 557 N 53.2116 1.57565 -0.0334293 0
M  V30 558 C 54.4596 1.91598 0.642999 0
M  V30 559 C 54.7806 0.910847 1.7242 0
M  V30 560 O 54.0506 -0.0469931 1.95844 0
M  V30 561 H 52.6306 0.707228 0.240496 0
M  V30 562 H 55.2926 1.94726 -0.0822488 0
M  V30 563 H 54.3886 2.92336 1.09298 0
M  V30 564 N 54.6897 -0.239769 1.55765 0
M  V30 565 C 55.6377 -1.31668 1.91745 0
M  V30 566 C 56.6317 -1.49462 0.797338 0
M  V30 567 O 57.8377 -1.50852 0.982021 0
M  V30 568 H 54.2127 -0.441048 0.609082 0
M  V30 569 H 56.1837 -0.985923 2.81642 0
M  V30 570 C 54.9327 -2.66368 2.2348 0
M  V30 571 H 54.2557 -2.53478 3.09175 0
M  V30 572 H 55.6957 -3.40578 2.52553 0
M  V30 573 C 54.1547 -3.20002 1.05359 0
M  V30 574 O 54.6847 -4.00538 0.305261 0
M  V30 575 N 52.8907 -2.78126 0.842292 0
M  V30 576 H 52.4377 -2.12742 1.45253 0
M  V30 577 H 52.3957 -3.14354 0.053652 0
M  V30 578 N 56.1678 -1.49265 -0.50573 0
M  V30 579 C 57.3928 -1.62478 -1.28902 0
M  V30 580 C 57.8178 -0.294332 -1.85783 0
M  V30 581 O 57.1758 0.737412 -1.65626 0
M  V30 582 C 57.2238 -2.69268 -2.39848 0
M  V30 583 O 56.3278 -2.28113 -3.43567 0
M  V30 584 H 55.6688 -0.54399 -0.380751 0
M  V30 585 H 58.1988 -1.95421 -0.605952 0
M  V30 586 H 58.2088 -2.91291 -2.85681 0
M  V30 587 H 56.8838 -3.65846 -1.97812 0
M  V30 588 H 55.4608 -2.16401 -3.03685 0
M  V30 589 N 57.6459 0.756429 -1.3826 0
M  V30 590 C 58.8739 1.54565 -1.3754 0
M  V30 591 C 59.2889 1.88767 0.0355331 0
M  V30 592 O 58.6459 1.52572 1.0014 0
M  V30 593 C 58.6969 2.84654 -2.22833 0
M  V30 594 O 58.4179 2.51912 -3.5843 0
M  V30 595 C 59.9189 3.78807 -2.30261 0
M  V30 596 H 57.1389 0.478353 -0.470553 0
M  V30 597 H 59.6829 0.936381 -1.81803 0
M  V30 598 H 57.8379 3.41965 -1.8204 0
M  V30 599 H 58.2519 3.35325 -4.03308 0
M  V30 600 H 59.7259 4.67045 -2.94233 0
M  V30 601 H 60.2029 4.19038 -1.31545 0
M  V30 602 H 60.8089 3.2742 -2.71433 0
M  V30 603 N 59.124 1.23083 0.984299 0
M  V30 604 C 60.364 1.07226 1.74017 0
M  V30 605 C 60.728 -0.384766 1.88105 0
M  V30 606 O 61.929 -0.664411 2.60459 0
M  V30 607 C 60.2 1.77348 3.10294 0
M  V30 608 S 61.759 1.77014 4.01512 0
M  V30 609 H 58.577 0.383819 0.598502 0
M  V30 610 H 61.179 1.56158 1.17622 0
M  V30 611 H 59.883 2.82506 2.97689 0
M  V30 612 H 59.414 1.28682 3.71759 0
M  V30 613 H 61.429 0.825956 4.89277 0
M  V30 614 N 60.6021 -1.18246 1.0419 0
M  V30 615 C 61.8481 -1.88536 0.747122 0
M  V30 616 C 62.1811 -1.80223 -0.723409 0
M  V30 617 O 61.4561 -1.20337 -1.52804 0
M  V30 618 C 61.7391 -3.38968 1.21544 0
M  V30 619 C 61.5921 -3.56084 2.74816 0
M  V30 620 C 62.9111 -4.32648 0.806482 0
M  V30 621 H 60.0301 -0.684619 0.272883 0
M  V30 622 H 62.6721 -1.39113 1.29413 0
M  V30 623 H 60.8221 -3.8119 0.750081 0
M  V30 624 H 62.4941 -3.22946 3.29399 0
M  V30 625 H 60.7371 -2.98699 3.14582 0
M  V30 626 H 61.4081 -4.61639 3.02644 0
M  V30 627 H 63.8841 -3.98211 1.20695 0
M  V30 628 H 62.7601 -5.36462 1.1619 0
M  V30 629 H 63.0211 -4.41146 -0.29029 0
M  V30 630 N 62.0802 -0.821533 -1.34494 0
M  V30 631 C 63.3282 -0.408139 -1.97936 0
M  V30 632 C 63.6492 1.03193 -1.65457 0
M  V30 633 O 62.9192 1.71622 -0.944595 0
M  V30 634 H 61.4992 -0.147928 -0.732206 0
M  V30 635 H 64.1612 -1.05067 -1.64155 0
M  V30 636 H 63.2572 -0.52601 -3.07635 0
M  V30 637 N 63.5583 1.46682 -0.576371 0
M  V30 638 C 64.9693 1.86112 -0.148091 0
M  V30 639 C 65.3203 1.48073 1.2872 0
M  V30 640 O 64.4453 0.892656 1.97131 0
M  V30 641 C 65.0403 3.37786 -0.261982 0
M  V30 642 C 63.5993 3.76235 0.111384 0
M  V30 643 C 62.7463 2.70713 -0.60083 0
M  V30 644 H 65.6973 1.37927 -0.78497 0
M  V30 645 H 65.7183 3.77007 0.514364 0
M  V30 646 H 65.2303 3.6544 -1.30671 0
M  V30 647 H 63.3313 3.54198 1.15649 0
M  V30 648 H 63.4443 4.78391 -0.26052 0
M  V30 649 H 61.8083 2.54666 -0.0417783 0
M  V30 650 H 62.5913 3.01208 -1.64708 0
M  V30 651 N 65.0364 0.313813 1.54444 0
M  V30 652 C 65.9994 -0.54379 2.22656 0
M  V30 653 C 66.9994 -1.05124 1.21678 0
M  V30 654 O 68.1894 -0.945225 1.46325 0
M  V30 655 C 65.3214 -1.75427 2.92298 0
M  V30 656 H 66.5144 0.0523599 2.99854 0
M  V30 657 H 64.0674 0.0647834 1.56166 0
M  V30 658 H 64.8024 -2.38991 2.19211 0
M  V30 659 H 64.5874 -1.39791 3.66334 0
M  V30 660 H 66.0774 -2.36325 3.44297 0
M  V30 661 N 66.5145 -1.57545 0.0417849 0
M  V30 662 C 67.9255 -1.80011 -0.495259 0
M  V30 663 C 68.2765 -0.953199 -1.71489 0
M  V30 664 O 67.4015 -0.167138 -2.15754 0
M  V30 665 C 67.9965 -3.26482 -0.905265 0
M  V30 666 C 66.5555 -3.499 -1.38734 0
M  V30 667 C 65.7025 -2.74979 -0.358056 0
M  V30 668 H 68.6535 -1.56425 0.267736 0
M  V30 669 H 68.6745 -3.36887 -1.76882 0
M  V30 670 H 68.1865 -3.88096 -0.017401 0
M  V30 671 H 66.2875 -2.93553 -2.29471 0
M  V30 672 H 66.4005 -4.58615 -1.38598 0
M  V30 673 H 64.7645 -2.40834 -0.828912 0
M  V30 674 H 65.5475 -3.39315 0.521561 0
M  V30 675 N 67.9926 0.231505 -1.5589 0
M  V30 676 C 69.2396 0.957352 -1.78441 0
M  V30 677 C 69.5676 1.84726 -0.60882 0
M  V30 678 O 68.8226 1.91416 0.40725 0
M  V30 679 C 69.1216 1.83577 -3.0665 0
M  V30 680 C 68.7876 1.09993 -4.37278 0
M  V30 681 C 67.4496 0.896629 -4.72773 0
M  V30 682 C 69.8016 0.579558 -5.17968 0
M  V30 683 C 67.1296 0.160896 -5.86479 0
M  V30 684 C 69.4816 -0.142783 -6.32439 0
M  V30 685 C 68.1456 -0.357427 -6.66542 0
M  V30 686 H 67.4156 0.35032 -0.65296 0
M  V30 687 H 70.0626 0.226259 -1.90159 0
M  V30 688 H 68.3676 2.63441 -2.90011 0
M  V30 689 H 70.0646 2.39934 -3.21298 0
M  V30 690 H 66.6546 1.26835 -4.09403 0
M  V30 691 H 70.8386 0.724125 -4.90989 0
M  V30 692 H 66.0946 -0.0157293 -6.11398 0
M  V30 693 H 70.2686 -0.553559 -6.94196 0
M  V30 694 H 67.8956 -0.929466 -7.54497 0
M  V30 695 N 69.4707 1.49531 0.497807 0
M  V30 696 C 70.4007 1.6935 1.60757 0
M  V30 697 C 71.3817 0.542218 1.61227 0
M  V30 698 O 72.5667 0.778417 1.77917 0
M  V30 699 C 69.6967 1.76298 2.99226 0
M  V30 700 C 68.6507 2.91248 3.13622 0
M  V30 701 C 67.9767 2.83312 4.53474 0
M  V30 702 C 69.2767 4.3214 2.93346 0
M  V30 703 H 70.9707 2.62263 1.44425 0
M  V30 704 H 68.5167 1.26208 0.693367 0
M  V30 705 H 70.4697 1.88749 3.76765 0
M  V30 706 H 69.1937 0.799871 3.16654 0
M  V30 707 H 67.8527 2.78404 2.38509 0
M  V30 708 H 67.5007 1.84902 4.67782 0
M  V30 709 H 67.2007 3.60465 4.64046 0
M  V30 710 H 68.7247 2.97775 5.33069 0
M  V30 711 H 70.1387 4.45649 3.60652 0
M  V30 712 H 68.5357 5.1054 3.15387 0
M  V30 713 H 69.6057 4.46363 1.89441 0
M  V30 714 N 70.9488 -0.749086 1.3866 0
M  V30 715 C 72.1978 -1.50371 1.3443 0
M  V30 716 C 72.5108 -1.95503 -0.0616397 0
M  V30 717 O 73.7168 -2.70554 -0.226489 0
M  V30 718 C 72.1728 -2.71644 2.36088 0
M  V30 719 C 71.7808 -2.3352 3.82325 0
M  V30 720 C 73.5248 -3.49518 2.40909 0
M  V30 721 C 71.4318 -3.51431 4.75658 0
M  V30 722 H 70.3618 -0.564628 0.499712 0
M  V30 723 H 73.0128 -0.818449 1.64237 0
M  V30 724 H 71.3948 -3.42175 1.9933 0
M  V30 725 H 72.5688 -1.70627 4.28046 0
M  V30 726 H 70.8838 -1.6877 3.80665 0
M  V30 727 H 73.4808 -4.37197 3.07836 0
M  V30 728 H 73.8238 -3.90992 1.42937 0
M  V30 729 H 74.3568 -2.86005 2.76489 0
M  V30 730 H 71.0958 -3.15019 5.74842 0
M  V30 731 H 70.6158 -4.13352 4.34627 0
M  V30 732 H 72.2948 -4.17953 4.93887 0
M  V30 733 N 72.4269 -1.23603 -0.977757 0
M  V30 734 C 73.6739 -1.06971 -1.71941 0
M  V30 735 C 74.0019 0.393009 -1.90488 0
M  V30 736 O 73.2569 1.30719 -1.4564 0
M  V30 737 C 73.5559 -1.7433 -3.11999 0
M  V30 738 C 73.2219 -3.24252 -3.13323 0
M  V30 739 C 71.8839 -3.65156 -3.13392 0
M  V30 740 C 74.2359 -4.20141 -3.08433 0
M  V30 741 C 71.5639 -5.00403 -3.0629 0
M  V30 742 C 73.9159 -5.55384 -3.02873 0
M  V30 743 C 72.5799 -5.95647 -3.01265 0
M  V30 744 H 71.8499 -0.391433 -0.629175 0
M  V30 745 H 74.4969 -1.53572 -1.14403 0
M  V30 746 H 72.8019 -1.20096 -3.7294 0
M  V30 747 H 74.4989 -1.58936 -3.68158 0
M  V30 748 H 71.0889 -2.91692 -3.14029 0
M  V30 749 H 75.2729 -3.89547 -3.07517 0
M  V30 750 H 70.5289 -5.3081 -3.03399 0
M  V30 751 H 74.7029 -6.29398 -2.98046 0
M  V30 752 H 72.3299 -7.0041 -2.95516 0
M  V30 753 N 73.905 1.17692 -1.04816 0
M  V30 754 C 75.13 1.92327 -0.776207 0
M  V30 755 C 75.555 1.76082 0.661581 0
M  V30 756 O 74.913 1.076 1.45917 0
M  V30 757 C 74.961 3.41539 -1.15687 0
M  V30 758 O 74.065 4.11402 -0.286775 0
M  V30 759 H 73.406 0.599735 -0.284981 0
M  V30 760 H 75.936 1.49201 -1.4 0
M  V30 761 H 75.946 3.92269 -1.12202 0
M  V30 762 H 74.621 3.52684 -2.20425 0
M  V30 763 H 73.198 3.70939 -0.381903 0
M  V30 764 N 75.3831 0.828654 1.34056 0
M  V30 765 C 76.3331 0.226828 2.26869 0
M  V30 766 C 77.3171 -0.612243 1.48796 0
M  V30 767 O 78.5091 -0.465884 1.70759 0
M  V30 768 C 75.6381 -0.605654 3.37915 0
M  V30 769 C 74.7241 0.244361 4.23395 0
M  V30 770 N 75.1151 1.31815 4.88322 0
M  V30 771 C 73.4131 0.0296616 4.4599 0
M  V30 772 C 74.1141 1.83895 5.51867 0
M  V30 773 N 73.0901 1.14196 5.3147 0
M  V30 774 H 76.8921 1.04811 2.74576 0
M  V30 775 H 74.4061 0.67205 1.47842 0
M  V30 776 H 76.4031 -1.05302 4.03382 0
M  V30 777 H 75.0631 -1.42504 2.91758 0
M  V30 778 H 76.0741 1.70099 4.8917 0
M  V30 779 H 72.7511 -0.757097 4.10578 0
M  V30 780 H 74.1411 2.7376 6.136 0
M  V30 781 N 76.8612 -1.46375 0.584142 0
M  V30 782 C 78.1092 -2.01978 0.0701287 0
M  V30 783 C 78.4302 -1.4579 -1.295 0
M  V30 784 O 77.7002 -0.64314 -1.85042 0
M  V30 785 H 76.2802 -0.746648 0.0229345 0
M  V30 786 H 78.9422 -1.79461 0.760245 0
M  V30 787 H 78.0382 -3.121 0.0022064 0
M  V30 788 N 78.3393 -0.321999 -1.54275 0
M  V30 789 C 79.2873 0.560206 -2.25753 0
M  V30 790 C 80.2813 1.11984 -1.27106 0
M  V30 791 O 81.4873 1.06806 -1.44888 0
M  V30 792 H 77.8623 0.199304 -0.725108 0
M  V30 793 H 79.8333 -0.0649365 -2.98329 0
M  V30 794 C 78.5823 1.71023 -3.02731 0
M  V30 795 H 77.9053 1.28885 -3.78456 0
M  V30 796 H 79.3453 2.30314 -3.55993 0
M  V30 797 C 77.8043 2.62692 -2.10938 0
M  V30 798 O 78.3343 3.64364 -1.6912 0
M  V30 799 N 76.5403 2.30891 -1.76459 0
M  V30 800 H 76.0873 1.48253 -2.10663 0
M  V30 801 H 76.0453 2.92487 -1.1532 0
M  V30 802 N 79.8174 1.5752 -0.0501392 0
M  V30 803 C 81.0424 1.97376 0.636997 0
M  V30 804 C 81.4674 0.927466 1.63645 0
M  V30 805 O 80.8254 -0.10941 1.8097 0
M  V30 806 C 80.8734 3.36304 1.30123 0
M  V30 807 O 79.9774 3.34156 2.41689 0
M  V30 808 H 79.3184 0.642998 0.165679 0
M  V30 809 H 81.8484 2.04258 -0.118233 0
M  V30 810 H 81.8584 3.73008 1.65315 0
M  V30 811 H 80.5334 4.11993 0.568746 0
M  V30 812 H 79.1104 3.09196 2.08451 0
M  V30 813 N 81.2955 -0.223234 1.56011 0
M  V30 814 C 82.5445 -0.945912 1.78144 0
M  V30 815 C 82.8575 -1.85567 0.618396 0
M  V30 816 O 84.0635 -2.61688 0.723318 0
M  V30 817 C 82.5195 -1.73216 3.15475 0
M  V30 818 C 82.1275 -0.868619 4.39499 0
M  V30 819 C 83.8715 -2.44615 3.46935 0
M  V30 820 C 81.7785 -1.65212 5.67855 0
M  V30 821 H 80.7085 -0.356929 0.664167 0
M  V30 822 H 83.3595 -0.199845 1.82409 0
M  V30 823 H 81.7415 -2.52107 3.05382 0
M  V30 824 H 82.9155 -0.120366 4.60643 0
M  V30 825 H 81.2305 -0.26683 4.15544 0
M  V30 826 H 83.8275 -3.03732 4.40058 0
M  V30 827 H 84.1705 -3.17417 2.69355 0
M  V30 828 H 84.7035 -1.72715 3.58349 0
M  V30 829 H 81.4425 -0.967407 6.48322 0
M  V30 830 H 80.9625 -2.37503 5.50774 0
M  V30 831 H 82.6415 -2.21322 6.07968 0
M  V30 832 N 82.7736 -1.49793 -0.48987 0
M  V30 833 C 84.0206 -1.59841 -1.24327 0
M  V30 834 C 84.3486 -0.290135 -1.92324 0
M  V30 835 O 83.6036 0.722749 -1.81865 0
M  V30 836 C 83.9026 -2.71488 -2.32441 0
M  V30 837 C 83.5686 -4.12614 -1.81826 0
M  V30 838 C 82.2306 -4.51017 -1.67742 0
M  V30 839 C 84.5826 -5.00892 -1.4407 0
M  V30 840 C 81.9106 -5.75459 -1.14297 0
M  V30 841 C 84.2626 -6.25863 -0.920742 0
M  V30 842 C 82.9266 -6.63086 -0.766383 0
M  V30 843 H 82.1966 -0.584899 -0.454944 0
M  V30 844 H 84.8436 -1.83663 -0.542215 0
M  V30 845 H 83.1486 -2.4168 -3.0838 0
M  V30 846 H 84.8456 -2.76469 -2.90458 0
M  V30 847 H 81.4356 -3.82307 -1.93751 0
M  V30 848 H 85.6196 -4.7187 -1.53794 0
M  V30 849 H 80.8756 -6.02989 -1.01068 0
M  V30 850 H 85.0496 -6.9364 -0.619448 0
M  V30 851 H 82.6766 -7.59393 -0.350083 0
M  V30 852 N 84.2517 0.741722 -1.39055 0
M  V30 853 C 85.6677 1.04638 -1.20512 0
M  V30 854 C 85.8677 2.01405 -0.0620218 0
M  V30 855 O 84.9237 2.45547 0.588457 0
M  V30 856 C 86.2367 1.6151 -2.53643 0
M  V30 857 C 87.7847 1.73623 -2.6043 0
M  V30 858 C 88.2597 2.33906 -3.93767 0
M  V30 859 N 89.7507 2.41323 -3.9537 0
M  V30 860 C 90.4857 2.88888 -4.95309 0
M  V30 861 N 89.9817 3.36401 -6.05645 0
M  V30 862 N 91.7747 2.88037 -4.82692 0
M  V30 863 H 83.9257 0.0998155 -2.12165 0
M  V30 864 H 86.1887 0.106907 -0.941953 0
M  V30 865 H 85.8947 0.978739 -3.37807 0
M  V30 866 H 85.7687 2.60411 -2.72885 0
M  V30 867 H 88.1557 2.36384 -1.76655 0
M  V30 868 H 88.2367 0.733945 -2.45045 0
M  V30 869 H 87.8807 1.71776 -4.7797 0
M  V30 870 H 87.8107 3.34799 -4.06469 0
M  V30 871 H 90.3017 2.07734 -3.15682 0
M  V30 872 H 90.6147 3.71186 -6.77821 0
M  V30 873 H 88.9597 3.34427 -6.09248 0
M  V30 874 H 92.1507 2.50237 -3.95599 0
M  V30 875 H 92.3237 3.24792 -5.60726 0
M  V30 876 N 85.7298 1.2412 0.971189 0
M  V30 877 C 86.9788 1.07284 1.70801 0
M  V30 878 C 87.2918 -0.388902 1.91695 0
M  V30 879 O 88.4978 -0.677379 2.62914 0
M  V30 880 C 86.9538 1.87145 3.07416 0
M  V30 881 C 86.5618 3.37707 2.94377 0
M  V30 882 C 88.3058 1.78828 3.84995 0
M  V30 883 C 86.2128 4.09925 4.26281 0
M  V30 884 H 85.1428 0.397854 0.64049 0
M  V30 885 H 87.7938 1.4817 1.0825 0
M  V30 886 H 86.1758 1.39071 3.70777 0
M  V30 887 H 87.3498 3.93335 2.4005 0
M  V30 888 H 85.6648 3.46938 2.30267 0
M  V30 889 H 88.2618 2.30089 4.82662 0
M  V30 890 H 88.6048 0.75284 4.09436 0
M  V30 891 H 89.1378 2.24563 3.28354 0
M  V30 892 H 85.8768 5.13813 4.07033 0
M  V30 893 H 85.3968 3.59083 4.80437 0
M  V30 894 H 87.0758 4.1673 4.94919 0
M  V30 895 N 87.2079 -1.17134 1.05439 0
M  V30 896 C 88.4849 -1.83411 0.679699 0
M  V30 897 C 88.8649 -1.9368 -0.839726 0
M  V30 898 O 88.2129 -1.47325 -1.74664 0
M  V30 899 C 88.4229 -3.20918 1.37159 0
M  V30 900 C 89.7709 -3.96796 1.51123 0
M  V30 901 O 90.7949 -3.30406 1.3308 0
M  V30 902 O 89.6539 -5.15778 1.80651 0
M  V30 903 H 86.7479 -0.79154 0.239569 0
M  V30 904 H 89.2939 -1.24411 1.15413 0
M  V30 905 H 88.0659 -3.08428 2.40807 0
M  V30 906 H 87.6889 -3.87587 0.886674 0
M  V30 907 N 88.686 -0.835752 -1.33615 0
M  V30 908 C 89.914 -0.443344 -2.02094 0
M  V30 909 C 90.329 0.954522 -1.62894 0
M  V30 910 O 89.686 1.61982 -0.840723 0
M  V30 911 C 89.737 -0.550775 -3.5728 0
M  V30 912 O 89.458 -1.89356 -3.95065 0
M  V30 913 C 90.959 -0.154919 -4.43029 0
M  V30 914 H 88.179 -0.176359 -0.647409 0
M  V30 915 H 90.723 -1.12746 -1.70612 0
M  V30 916 H 88.878 0.0853997 -3.87306 0
M  V30 917 H 89.292 -1.87687 -4.89769 0
M  V30 918 H 90.766 -0.281144 -5.51284 0
M  V30 919 H 91.243 0.902863 -4.2982 0
M  V30 920 H 91.849 -0.765404 -4.18356 0
M  V30 921 N 90.1641 1.46063 -0.591896 0
M  V30 922 C 91.0741 2.34192 0.13831 0
M  V30 923 C 92.0901 1.50305 0.876608 0
M  V30 924 O 93.2661 1.8315 0.837728 0
M  V30 925 C 90.3311 3.27656 1.13326 0
M  V30 926 C 89.3921 4.27445 0.39863 0
M  V30 927 C 88.6251 5.16443 1.34618 0
M  V30 928 O 88.8481 5.08553 2.58321 0
M  V30 929 O 87.7821 5.95843 0.851768 0
M  V30 930 H 91.6081 2.98002 -0.58552 0
M  V30 931 H 89.1931 1.45188 -0.352239 0
M  V30 932 H 91.0751 3.85291 1.70671 0
M  V30 933 H 89.7501 2.6643 1.83839 0
M  V30 934 H 88.6571 3.73471 -0.216895 0
M  V30 935 H 89.9901 4.91482 -0.265709 0
M  V30 936 N 91.6422 0.330177 1.54103 0
M  V30 937 C 92.8902 -0.269871 2.0029 0
M  V30 938 C 93.2112 -1.52133 1.21986 0
M  V30 939 O 92.4812 -1.93212 0.323438 0
M  V30 940 H 91.0612 -0.10271 0.739905 0
M  V30 941 H 93.7232 0.448249 1.89675 0
M  V30 942 H 92.8192 -0.52166 3.07709 0
M  V30 943 N 93.1203 -1.57491 0.0584922 0
M  V30 944 C 94.3483 -1.97296 -0.623037 0
M  V30 945 C 94.7633 -0.936338 -1.63946 0
M  V30 946 O 94.1203 0.0785981 -1.82331 0
M  V30 947 C 94.1713 -3.37183 -1.30345 0
M  V30 948 O 93.8923 -4.36872 -0.32773 0
M  V30 949 C 95.3933 -3.91788 -2.07406 0
M  V30 950 H 92.6133 -0.649153 -0.169826 0
M  V30 951 H 95.1573 -2.04106 0.12696 0
M  V30 952 H 93.3123 -3.31502 -2.00463 0
M  V30 953 H 93.7263 -5.18141 -0.814269 0
M  V30 954 H 95.2003 -4.91926 -2.50425 0
M  V30 955 H 95.6773 -3.27609 -2.92521 0
M  V30 956 H 96.2833 -4.00829 -1.42184 0
M  V30 957 N 94.5984 0.214957 -1.56127 0
M  V30 958 C 95.5464 1.28601 -1.93816 0
M  V30 959 C 96.5404 1.48175 -0.821016 0
M  V30 960 O 97.7464 1.49271 -1.0059 0
M  V30 961 H 94.1214 0.431302 -0.616022 0
M  V30 962 H 96.0924 0.940991 -2.83175 0
M  V30 963 C 94.8414 2.62779 -2.27689 0
M  V30 964 H 94.1644 2.48527 -3.13168 0
M  V30 965 H 95.6044 3.36517 -2.57939 0
M  V30 966 C 94.0634 3.18285 -1.10436 0
M  V30 967 O 94.5934 4.00002 -0.368945 0
M  V30 968 N 92.7994 2.7675 -0.886433 0
M  V30 969 H 92.3464 2.10404 -1.48619 0
M  V30 970 H 92.3044 3.14229 -0.103656 0
M  V30 971 N 96.0765 1.50051 0.48192 0
M  V30 972 C 97.3065 1.63999 1.2565 0
M  V30 973 C 97.7145 0.318288 1.86504 0
M  V30 974 O 97.0575 -0.708534 1.69486 0
M  V30 975 C 97.1195 2.66504 2.4128 0
M  V30 976 C 96.7835 4.10352 2.01148 0
M  V30 977 C 97.7805 4.96562 1.54021 0
M  V30 978 C 95.4655 4.56203 2.10199 0
M  V30 979 C 97.4595 6.26668 1.16473 0
M  V30 980 C 95.1465 5.86318 1.72264 0
M  V30 981 C 96.1445 6.71375 1.25477 0
M  V30 982 O 95.8325 7.99062 0.880626 0
M  V30 983 H 95.5645 0.55456 0.386574 0
M  V30 984 H 98.1185 1.96954 0.582944 0
M  V30 985 H 96.3485 2.28769 3.11772 0
M  V30 986 H 98.0375 2.69783 3.03268 0
M  V30 987 H 98.8035 4.62358 1.46458 0
M  V30 988 H 94.6825 3.90152 2.45566 0
M  V30 989 H 98.2265 6.93011 0.798841 0
M  V30 990 H 94.1235 6.20046 1.79482 0
M  V30 991 H 94.8915 8.12239 1.01043 0
M  V30 992 N 97.5546 -0.734337 1.39446 0
M  V30 993 C 98.4646 -1.87879 1.40495 0
M  V30 994 C 99.4806 -1.714 0.299672 0
M  V30 995 O 100.657 -1.93991 0.541249 0
M  V30 996 C 97.7216 -3.23477 1.24754 0
M  V30 997 C 96.7826 -3.52344 2.45259 0
M  V30 998 C 96.0156 -4.81473 2.30259 0
M  V30 999 O 96.2386 -5.55237 1.30643 0
M  V30 1000 O 95.1726 -5.10254 3.19256 0
M  V30 1001 H 98.9986 -1.89949 2.36966 0
M  V30 1002 H 96.5836 -0.882243 1.20569 0
M  V30 1003 H 98.4656 -4.04509 1.18111 0
M  V30 1004 H 97.1406 -3.22176 0.313781 0
M  V30 1005 H 96.0476 -2.71396 2.57478 0
M  V30 1006 H 97.3806 -3.58426 3.37331 0
M  V30 1007 N 99.0327 -1.24633 -0.964593 0
M  V30 1008 C 99.9647 -0.999302 -2.06268 0
M  V30 1009 C 100.978 0.0323226 -1.62768 0
M  V30 1010 O 102.167 -0.205079 -1.77318 0
M  V30 1011 C 99.2667 -0.486816 -3.35385 0
M  V30 1012 C 98.4397 -1.5823 -4.07777 0
M  V30 1013 C 97.4987 -1.07191 -5.15166 0
M  V30 1014 O 96.5247 -1.76426 -5.41168 0
M  V30 1015 N 97.7267 0.0920373 -5.80427 0
M  V30 1016 H 100.492 -1.94477 -2.28033 0
M  V30 1017 H 98.0527 -1.15704 -1.13244 0
M  V30 1018 H 100.045 -0.130066 -4.04491 0
M  V30 1019 H 98.6147 0.364459 -3.10468 0
M  V30 1020 H 97.8347 -2.11109 -3.32906 0
M  V30 1021 H 99.1227 -2.31854 -4.52903 0
M  V30 1022 H 98.5207 0.670784 -5.61709 0
M  V30 1023 H 97.0777 0.389905 -6.50633 0
M  V30 1024 N 100.511 1.16574 -1.06058 0
M  V30 1025 C 101.441 2.23057 -0.690488 0
M  V30 1026 C 102.422 1.67141 0.315901 0
M  V30 1027 O 103.607 1.93253 0.191556 0
M  V30 1028 C 100.737 3.47222 -0.073625 0
M  V30 1029 C 99.6908 4.16016 -1.00573 0
M  V30 1030 C 99.0168 5.34104 -0.252289 0
M  V30 1031 C 100.317 4.67264 -2.33371 0
M  V30 1032 H 102.011 2.54271 -1.58072 0
M  V30 1033 H 99.5568 1.22218 -0.76149 0
M  V30 1034 H 101.51 4.20939 0.19714 0
M  V30 1035 H 100.234 3.15302 0.85161 0
M  V30 1036 H 98.8928 3.44223 -1.2612 0
M  V30 1037 H 98.5408 4.98437 0.675988 0
M  V30 1038 H 98.2408 5.81072 -0.873455 0
M  V30 1039 H 99.7648 6.10599 0.0109857 0
M  V30 1040 H 101.179 5.32573 -2.12223 0
M  V30 1041 H 99.5758 5.24843 -2.90963 0
M  V30 1042 H 100.646 3.83602 -2.96611 0
M  V30 1043 N 101.989 0.842826 1.3317 0
M  V30 1044 C 103.235 0.441099 1.97945 0
M  V30 1045 C 103.568 -0.998024 1.66593 0
M  V30 1046 O 102.843 -1.69839 0.947898 0
M  V30 1047 C 103.126 0.666841 3.53872 0
M  V30 1048 C 102.979 2.15352 3.94897 0
M  V30 1049 C 104.298 0.115544 4.39948 0
M  V30 1050 H 101.417 0.161739 0.719034 0
M  V30 1051 H 104.059 1.05907 1.57746 0
M  V30 1052 H 102.209 0.140828 3.88245 0
M  V30 1053 H 103.881 2.7447 3.70761 0
M  V30 1054 H 102.124 2.63653 3.44484 0
M  V30 1055 H 102.795 2.26221 5.03516 0
M  V30 1056 H 105.271 0.565213 4.12243 0
M  V30 1057 H 104.147 0.303152 5.48062 0
M  V30 1058 H 104.408 -0.980935 4.3108 0
M  V30 1059 N 103.467 -1.45747 0.599634 0
M  V30 1060 C 104.713 -2.02592 0.0918643 0
M  V30 1061 C 105.046 -1.46806 -1.27128 0
M  V30 1062 O 104.321 -0.639658 -1.83681 0
M  V30 1063 C 104.604 -3.60073 0.0443398 0
M  V30 1064 C 104.457 -4.26208 1.43759 0
M  V30 1065 C 105.776 -4.35309 -0.647608 0
M  V30 1066 H 102.895 -0.736175 0.034857 0
M  V30 1067 H 105.537 -1.73694 0.770081 0
M  V30 1068 H 103.687 -3.84823 -0.533224 0
M  V30 1069 H 105.359 -4.12668 2.06162 0
M  V30 1070 H 103.602 -3.84916 2.00056 0
M  V30 1071 H 104.273 -5.35069 1.35665 0
M  V30 1072 H 106.749 -4.15805 -0.156776 0
M  V30 1073 H 105.625 -5.45038 -0.649942 0
M  V30 1074 H 105.886 -4.07598 -1.71219 0
M  V30 1075 N 104.945 -0.338344 -1.53925 0
M  V30 1076 C 106.222 0.314774 -1.93051 0
M  V30 1077 C 106.602 1.68669 -1.26941 0
M  V30 1078 O 105.95 2.24636 -0.418445 0
M  V30 1079 C 106.16 0.392249 -3.46789 0
M  V30 1080 C 107.508 0.645554 -4.19664 0
M  V30 1081 O 108.532 0.474575 -3.53024 0
M  V30 1082 O 107.391 0.976408 -5.37707 0
M  V30 1083 H 104.485 0.182598 -0.80659 0
M  V30 1084 H 107.031 -0.389141 -1.65178 0
M  V30 1085 H 105.803 -0.570702 -3.87116 0
M  V30 1086 H 105.426 1.14316 -3.80812 0
M  V30 1087 N 106.423 1.57458 -0.0668435 0
M  V30 1088 C 107.386 2.11323 0.887422 0
M  V30 1089 C 108.386 1.03618 1.22964 0
M  V30 1090 O 109.576 1.29626 1.16373 0
M  V30 1091 C 106.708 2.61048 2.19242 0
M  V30 1092 H 107.901 2.96942 0.420194 0
M  V30 1093 H 105.454 1.55239 0.181793 0
M  V30 1094 H 106.189 1.78868 2.70512 0
M  V30 1095 H 105.974 3.39769 1.95702 0
M  V30 1096 H 107.464 3.02814 2.87565 0
M  V30 1097 N 107.901 -0.206675 1.56239 0
M  V30 1098 C 109.149 -0.927007 1.79586 0
M  V30 1099 C 109.47 -1.8427 0.637929 0
M  V30 1100 O 108.74 -1.92849 -0.344398 0
M  V30 1101 H 107.32 -0.345292 0.662407 0
M  V30 1102 H 109.982 -0.21496 1.93711 0
M  V30 1103 H 109.078 -1.52501 2.72305 0
M  V30 1104 N 109.379 -1.50304 -0.473955 0
M  V30 1105 C 110.625 -1.61389 -1.22806 0
M  V30 1106 C 110.958 -0.311955 -1.91678 0
M  V30 1107 O 110.233 0.686384 -1.81986 0
M  V30 1108 C 110.516 -2.79219 -2.27396 0
M  V30 1109 C 110.369 -4.19286 -1.62848 0
M  V30 1110 C 111.688 -2.92614 -3.28732 0
M  V30 1111 H 108.807 -0.587399 -0.445119 0
M  V30 1112 H 111.449 -1.82681 -0.522265 0
M  V30 1113 H 109.599 -2.61195 -2.87592 0
M  V30 1114 H 111.271 -4.48892 -1.06271 0
M  V30 1115 H 109.514 -4.23677 -0.931693 0
M  V30 1116 H 110.185 -4.97655 -2.38838 0
M  V30 1117 H 112.661 -3.09105 -2.78556 0
M  V30 1118 H 111.537 -3.76688 -3.99246 0
M  V30 1119 H 111.798 -2.03107 -3.92683 0
M  V30 1120 N 110.857 0.726932 -1.39834 0
M  V30 1121 C 112.082 1.52121 -1.40976 0
M  V30 1122 C 112.507 1.88098 -0.00826029 0
M  V30 1123 O 111.865 1.52479 0.980807 0
M  V30 1124 C 111.913 2.78021 -2.29644 0
M  V30 1125 O 111.017 3.74272 -1.73188 0
M  V30 1126 H 110.358 0.45908 -0.479731 0
M  V30 1127 H 112.888 0.896207 -1.83927 0
M  V30 1128 H 112.898 3.26671 -2.44438 0
M  V30 1129 H 111.573 2.51169 -3.31492 0
M  V30 1130 H 110.15 3.33073 -1.6768 0
M  V30 1131 N 112.336 1.25143 0.95797 0
M  V30 1132 C 113.582 1.09855 1.70469 0
M  V30 1133 C 113.915 -0.360187 1.90831 0
M  V30 1134 O 113.19 -1.26568 1.47685 0
M  V30 1135 C 113.473 1.8497 3.08963 0
M  V30 1136 C 113.326 3.38652 2.96032 0
M  V30 1137 C 114.645 1.63016 4.08795 0
M  V30 1138 H 111.764 0.400465 0.618706 0
M  V30 1139 H 114.406 1.53933 1.11376 0
M  V30 1140 H 112.556 1.47505 3.59409 0
M  V30 1141 H 114.228 3.85772 2.52938 0
M  V30 1142 H 112.471 3.66534 2.32025 0
M  V30 1143 H 113.142 3.8642 3.94187 0
M  V30 1144 H 115.618 1.95625 3.67247 0
M  V30 1145 H 114.494 2.18015 5.03747 0
M  V30 1146 H 114.755 0.570692 4.38401 0
M  V30 1147 N 113.814 -1.1601 1.06675 0
M  V30 1148 C 115.063 -1.85973 0.780818 0
M  V30 1149 C 115.376 -1.82819 -0.695444 0
M  V30 1150 O 116.582 -2.484 -1.09589 0
M  V30 1151 C 115.038 -3.33757 1.34665 0
M  V30 1152 C 114.646 -3.45374 2.85343 0
M  V30 1153 C 116.39 -4.0895 1.13843 0
M  V30 1154 C 114.297 -4.87266 3.35151 0
M  V30 1155 H 113.227 -0.696661 0.288407 0
M  V30 1156 H 115.878 -1.30903 1.28595 0
M  V30 1157 H 114.26 -3.88456 0.769274 0
M  V30 1158 H 115.434 -3.00816 3.49065 0
M  V30 1159 H 113.749 -2.83619 3.04876 0
M  V30 1160 H 116.346 -5.13654 1.4854 0
M  V30 1161 H 116.689 -4.16229 0.0770282 0
M  V30 1162 H 117.222 -3.605 1.68179 0
M  V30 1163 H 113.961 -4.85168 4.40786 0
M  V30 1164 H 113.481 -5.32433 2.76179 0
M  V30 1165 H 115.16 -5.56097 3.30704 0
M  V30 1166 N 115.292 -0.849877 -1.32721 0
M  V30 1167 C 116.225 -0.235903 -2.26977 0
M  V30 1168 C 117.203 0.623355 -1.50177 0
M  V30 1169 O 118.387 0.581207 -1.79316 0
M  V30 1170 C 115.514 0.667712 -3.32053 0
M  V30 1171 C 114.56 -0.11753 -4.26338 0
M  V30 1172 S 115.393 -1.48277 -5.14562 0
M  V30 1173 C 116.549 -0.584741 -6.23163 0
M  V30 1174 H 116.782 -1.03495 -2.78704 0
M  V30 1175 H 114.315 -0.64724 -1.40179 0
M  V30 1176 H 116.273 1.18343 -3.93072 0
M  V30 1177 H 114.934 1.44052 -2.7912 0
M  V30 1178 H 114.127 0.57051 -5.00761 0
M  V30 1179 H 113.729 -0.564668 -3.69713 0
M  V30 1180 H 116.021 0.212968 -6.77165 0
M  V30 1181 H 116.964 -1.29947 -6.96074 0
M  V30 1182 H 117.372 -0.161202 -5.6427 0
M  V30 1183 N 116.77 1.45427 -0.607355 0
M  V30 1184 C 118.047 1.9557 -0.0344566 0
M  V30 1185 C 118.427 1.54979 1.43334 0
M  V30 1186 O 117.775 0.812241 2.13576 0
M  V30 1187 C 117.985 3.48226 -0.232321 0
M  V30 1188 C 119.333 4.2445 -0.113001 0
M  V30 1189 O 120.357 3.55829 -0.162431 0
M  V30 1190 O 119.216 5.465 0.00209442 0
M  V30 1191 H 116.31 0.826222 0.0358667 0
M  V30 1192 H 118.856 1.55594 -0.6774 0
M  V30 1193 H 117.628 3.70739 -1.25174 0
M  V30 1194 H 117.251 3.95092 0.445896 0
M  V30 1195 N 118.248 0.346503 1.53744 0
M  V30 1196 C 119.495 -0.249104 2.00962 0
M  V30 1197 C 119.823 -1.5032 1.23426 0
M  V30 1198 O 119.078 -1.93217 0.310761 0
M  V30 1199 C 119.377 -0.605809 3.52228 0
M  V30 1200 C 119.043 0.551747 4.47512 0
M  V30 1201 C 117.705 0.86941 4.73281 0
M  V30 1202 C 120.057 1.32818 5.03993 0
M  V30 1203 C 117.385 1.96582 5.52786 0
M  V30 1204 C 119.737 2.41486 5.84694 0
M  V30 1205 C 118.401 2.73808 6.08757 0
M  V30 1206 H 117.671 -0.0911538 0.735372 0
M  V30 1207 H 120.318 0.475027 1.85515 0
M  V30 1208 H 118.623 -1.4107 3.65522 0
M  V30 1209 H 120.32 -1.07858 3.86222 0
M  V30 1210 H 116.91 0.294102 4.2759 0
M  V30 1211 H 121.094 1.09602 4.84047 0
M  V30 1212 H 116.35 2.22045 5.69654 0
M  V30 1213 H 120.524 3.02078 6.27473 0
M  V30 1214 H 118.151 3.58892 6.7015 0
M  V30 1215 N 119.726 -1.57421 0.075193 0
M  V30 1216 C 120.676 -2.09441 -0.901025 0
M  V30 1217 C 121.66 -1.00486 -1.25663 0
M  V30 1218 O 122.852 -1.2679 -1.23504 0
M  V30 1219 C 119.981 -2.66233 -2.16737 0
M  V30 1220 C 119.067 -3.82198 -1.83808 0
M  V30 1221 N 119.458 -4.91028 -1.21345 0
M  V30 1222 C 117.756 -3.91558 -2.13538 0
M  V30 1223 C 118.457 -5.71852 -1.06585 0
M  V30 1224 N 117.433 -5.20233 -1.57667 0
M  V30 1225 H 121.235 -2.90972 -0.413815 0
M  V30 1226 H 118.749 -1.6189 -0.128601 0
M  V30 1227 H 120.746 -3.01819 -2.87595 0
M  V30 1228 H 119.406 -1.8615 -2.66042 0
M  V30 1229 H 120.417 -5.10323 -0.88268 0
M  V30 1230 H 117.094 -3.22454 -2.65197 0
M  V30 1231 H 118.484 -6.69401 -0.578933 0
M  V30 1232 N 121.204 0.198386 -1.56346 0
M  V30 1233 C 122.434 0.934215 -1.84271 0
M  V30 1234 C 122.842 1.77496 -0.655125 0
M  V30 1235 O 122.185 1.7961 0.385488 0
M  V30 1236 C 122.247 1.88278 -3.06254 0
M  V30 1237 C 121.911 1.22431 -4.40295 0
M  V30 1238 C 122.908 0.602839 -5.16393 0
M  V30 1239 C 120.593 1.22915 -4.87029 0
M  V30 1240 C 122.587 -0.0050083 -6.374 0
M  V30 1241 C 120.274 0.617465 -6.07973 0
M  V30 1242 C 121.272 0.00146341 -6.83 0
M  V30 1243 O 120.96 -0.600642 -8.01653 0
M  V30 1244 H 120.692 0.278245 -0.616081 0
M  V30 1245 H 123.246 0.211626 -2.04307 0
M  V30 1246 H 121.476 2.64498 -2.82095 0
M  V30 1247 H 123.165 2.48612 -3.20853 0
M  V30 1248 H 123.931 0.591265 -4.81382 0
M  V30 1249 H 119.81 1.69801 -4.28589 0
M  V30 1250 H 123.354 -0.48643 -6.95902 0
M  V30 1251 H 119.251 0.62653 -6.42452 0
M  V30 1252 H 120.019 -0.497225 -8.16988 0
M  V30 1253 N 122.682 1.50554 0.465978 0
M  V30 1254 C 123.63 1.70324 1.58406 0
M  V30 1255 C 124.624 0.569139 1.59553 0
M  V30 1256 O 125.83 0.749776 1.63641 0
M  V30 1257 H 122.205 0.537688 0.525734 0
M  V30 1258 H 124.176 2.64104 1.38894 0
M  V30 1259 C 122.925 1.81928 2.96307 0
M  V30 1260 H 122.248 2.68586 2.96144 0
M  V30 1261 H 123.688 1.99784 3.73982 0
M  V30 1262 C 122.147 0.572095 3.32007 0
M  V30 1263 O 122.677 -0.286416 4.00678 0
M  V30 1264 N 120.883 0.424606 2.87481 0
M  V30 1265 H 120.43 1.12427 2.31771 0
M  V30 1266 H 120.388 -0.408697 3.11732 0
M  V30 1267 N 124.16 -0.719506 1.40217 0
M  V30 1268 C 125.07 -1.86378 1.42479 0
M  V30 1269 C 126.086 -1.71073 0.317834 0
M  V30 1270 O 127.262 -1.93406 0.561794 0
M  V30 1271 C 124.327 -3.22136 1.28178 0
M  V30 1272 C 123.388 -3.49723 2.48982 0
M  V30 1273 C 122.621 -4.79004 2.35353 0
M  V30 1274 O 122.844 -5.53821 1.36524 0
M  V30 1275 O 121.778 -5.06839 3.2465 0
M  V30 1276 H 125.604 -1.87425 2.38968 0
M  V30 1277 H 123.189 -0.869405 1.21498 0
M  V30 1278 H 125.071 -4.03234 1.22395 0
M  V30 1279 H 123.746 -3.21825 0.347934 0
M  V30 1280 H 122.653 -2.6865 2.60342 0
M  V30 1281 H 123.986 -3.54828 3.41113 0
M  V30 1282 N 125.638 -1.25649 -0.95132 0
M  V30 1283 C 126.585 -1.06323 -2.04851 0
M  V30 1284 C 127.555 0.0286491 -1.66075 0
M  V30 1285 O 128.74 -0.12917 -1.90362 0
M  V30 1286 C 125.88 -0.691529 -3.381 0
M  V30 1287 C 124.993 -1.85861 -3.89974 0
M  V30 1288 C 124.128 -1.43096 -5.11563 0
M  V30 1289 C 123.167 -2.56696 -5.55674 0
M  V30 1290 N 122.304 -2.14684 -6.68472 0
M  V30 1291 H 127.144 -2.00222 -2.20715 0
M  V30 1292 H 124.681 -0.997027 -1.08156 0
M  V30 1293 H 126.639 -0.456963 -4.1469 0
M  V30 1294 H 125.269 0.210474 -3.22113 0
M  V30 1295 H 124.321 -2.20639 -3.09875 0
M  V30 1296 H 125.633 -2.71161 -4.18657 0
M  V30 1297 H 124.787 -1.15624 -5.9558 0
M  V30 1298 H 123.526 -0.548722 -4.84603 0
M  V30 1299 H 122.531 -2.84909 -4.7022 0
M  V30 1300 H 123.756 -3.45503 -5.8464 0
M  V30 1301 H 121.702 -1.28881 -6.43215 0
M  V30 1302 H 121.619 -2.9353 -6.96689 0
M  V30 1303 H 122.887 -1.90397 -7.5589 0
M  V30 1304 N 127.117 1.15442 -1.07289 0
M  V30 1305 C 128.533 1.38201 -0.798288 0
M  V30 1306 C 128.733 1.92429 0.597769 0
M  V30 1307 O 127.789 2.12962 1.3566 0
M  V30 1308 C 129.102 2.35357 -1.87156 0
M  V30 1309 C 130.65 2.49021 -1.89624 0
M  V30 1310 C 131.125 3.49468 -2.96034 0
M  V30 1311 N 132.616 3.57003 -2.95132 0
M  V30 1312 C 133.351 4.34543 -3.74112 0
M  V30 1313 N 132.847 5.15421 -4.6294 0
M  V30 1314 N 134.64 4.29625 -3.62462 0
M  V30 1315 H 126.791 0.78584 -1.97328 0
M  V30 1316 H 129.054 0.408065 -0.855679 0
M  V30 1317 H 128.76 2.02626 -2.87464 0
M  V30 1318 H 128.634 3.35129 -1.73114 0
M  V30 1319 H 131.021 2.81051 -0.899687 0
M  V30 1320 H 131.102 1.4925 -2.07745 0
M  V30 1321 H 130.746 3.18173 -3.95889 0
M  V30 1322 H 130.676 4.48992 -2.75161 0
M  V30 1323 H 133.167 2.99276 -2.30743 0
M  V30 1324 H 133.48 5.7183 -5.19837 0
M  V30 1325 H 131.825 5.14729 -4.66989 0
M  V30 1326 H 135.016 3.65505 -2.92444 0
M  V30 1327 H 135.189 4.89807 -4.24256 0
M  V30 1328 N 128.595 0.856903 1.32268 0
M  V30 1329 C 129.844 0.457599 1.96441 0
M  V30 1330 C 130.157 -0.992426 1.68553 0
M  V30 1331 O 131.363 -1.49727 2.26482 0
M  V30 1332 C 129.819 0.767358 3.51624 0
M  V30 1333 C 129.427 2.23326 3.88367 0
M  V30 1334 C 131.171 0.435887 4.22256 0
M  V30 1335 C 129.078 2.48613 5.36606 0
M  V30 1336 H 128.008 0.167387 0.735185 0
M  V30 1337 H 130.659 1.048 1.5063 0
M  V30 1338 H 129.041 0.106367 3.95857 0
M  V30 1339 H 130.215 2.93623 3.55137 0
M  V30 1340 H 128.53 2.52948 3.30766 0
M  V30 1341 H 131.127 0.602202 5.31298 0
M  V30 1342 H 131.47 -0.622672 4.11617 0
M  V30 1343 H 132.003 1.05286 3.83614 0
M  V30 1344 H 128.742 3.53101 5.52268 0
M  V30 1345 H 128.262 1.82896 5.71235 0
M  V30 1346 H 129.941 2.32676 6.03714 0
M  V30 1347 N 130.073 -1.45103 0.615059 0
M  V30 1348 C 131.303 -2.06254 0.119596 0
M  V30 1349 C 131.711 -1.4591 -1.20445 0
M  V30 1350 O 131.054 -0.570384 -1.7462 0
M  V30 1351 C 131.116 -3.59396 -0.0865591 0
M  V30 1352 C 130.78 -4.42116 1.15683 0
M  V30 1353 C 131.777 -4.7662 2.07676 0
M  V30 1354 C 129.462 -4.82749 1.38775 0
M  V30 1355 C 131.456 -5.50622 3.21082 0
M  V30 1356 C 129.143 -5.56504 2.52481 0
M  V30 1357 C 130.141 -5.90358 3.43463 0
M  V30 1358 O 129.829 -6.62615 4.55189 0
M  V30 1359 H 129.561 -0.672423 0.0694512 0
M  V30 1360 H 132.115 -1.87219 0.844885 0
M  V30 1361 H 130.345 -3.76859 -0.866823 0
M  V30 1362 H 132.034 -4.02365 -0.534555 0
M  V30 1363 H 132.8 -4.4578 1.91063 0
M  V30 1364 H 128.679 -4.55829 0.688545 0
M  V30 1365 H 132.223 -5.76965 3.92119 0
M  V30 1366 H 128.12 -5.86759 2.69043 0
M  V30 1367 H 128.888 -6.81071 4.53966 0
M  V30 1368 N 131.551 -0.354651 -1.53558 0
M  V30 1369 C 132.797 0.231422 -2.02079 0
M  V30 1370 C 133.152 1.47308 -1.23767 0
M  V30 1371 O 132.445 1.8891 -0.319947 0
M  V30 1372 C 132.639 0.587121 -3.52545 0
M  V30 1373 C 132.468 -0.618513 -4.45426 0
M  V30 1374 C 131.238 -1.12724 -4.92566 0
M  V30 1375 C 133.436 -1.48039 -4.92533 0
M  V30 1376 N 131.418 -2.29404 -5.69427 0
M  V30 1377 C 132.789 -2.49397 -5.67628 0
M  V30 1378 C 134.844 -1.50454 -4.74624 0
M  V30 1379 C 133.547 -3.53013 -6.26717 0
M  V30 1380 C 135.573 -2.52958 -5.34571 0
M  V30 1381 C 134.935 -3.5304 -6.09543 0
M  V30 1382 H 131.034 0.0476909 -0.780544 0
M  V30 1383 H 133.618 -0.496727 -1.88257 0
M  V30 1384 H 131.789 1.28436 -3.6655 0
M  V30 1385 H 133.521 1.15734 -3.87799 0
M  V30 1386 H 130.276 -0.693577 -4.68494 0
M  V30 1387 H 130.7 -2.88347 -6.12524 0
M  V30 1388 H 135.342 -0.744356 -4.16196 0
M  V30 1389 H 133.06 -4.2992 -6.84247 0
M  V30 1390 H 136.646 -2.55667 -5.22614 0
M  V30 1391 H 135.526 -4.31056 -6.55103 0
M  V30 1392 N 133.029 1.57378 -0.0835403 0
M  V30 1393 C 134.275 1.94217 0.583733 0
M  V30 1394 C 134.608 0.964653 1.68547 0
M  V30 1395 O 133.883 -0.00422258 1.945 0
M  V30 1396 C 134.166 3.41253 1.14972 0
M  V30 1397 C 134.019 4.49768 0.0538277 0
M  V30 1398 C 135.338 3.89352 2.05166 0
M  V30 1399 H 132.457 0.706233 0.210724 0
M  V30 1400 H 135.099 1.89392 -0.1519 0
M  V30 1401 H 133.249 3.45496 1.77665 0
M  V30 1402 H 134.921 4.57641 -0.579851 0
M  V30 1403 H 133.164 4.29432 -0.614068 0
M  V30 1404 H 133.835 5.49817 0.490452 0
M  V30 1405 H 136.311 3.87189 1.52393 0
M  V30 1406 H 135.187 4.92822 2.41698 0
M  V30 1407 H 135.448 3.27973 2.96456 0
M  V30 1408 N 134.507 -0.190092 1.56449 0
M  V30 1409 C 135.784 -0.935886 1.71757 0
M  V30 1410 C 136.164 -2.01173 0.639726 0
M  V30 1411 O 135.512 -2.25827 -0.348502 0
M  V30 1412 C 135.722 -1.51775 3.1427 0
M  V30 1413 C 137.07 -1.99794 3.74656 0
M  V30 1414 O 138.094 -1.61607 3.1743 0
M  V30 1415 O 136.953 -2.70079 4.751 0
M  V30 1416 H 134.047 -0.439229 0.700719 0
M  V30 1417 H 136.593 -0.179395 1.68749 0
M  V30 1418 H 135.365 -0.742505 3.84191 0
M  V30 1419 H 134.988 -2.33894 3.21527 0
M  V30 1420 N 135.985 -1.50799 -0.457987 0
M  V30 1421 C 136.915 -1.73553 -1.5621 0
M  V30 1422 C 137.896 -0.584774 -1.59732 0
M  V30 1423 O 139.081 -0.825314 -1.7579 0
M  V30 1424 C 136.211 -1.84169 -2.94447 0
M  V30 1425 C 135.165 -2.99461 -3.0579 0
M  V30 1426 C 134.491 -2.95235 -4.45803 0
M  V30 1427 C 135.791 -4.39766 -2.81786 0
M  V30 1428 H 137.485 -2.66 -1.37421 0
M  V30 1429 H 135.031 -1.28002 -0.659662 0
M  V30 1430 H 136.984 -1.98672 -3.71628 0
M  V30 1431 H 135.708 -0.883545 -3.14422 0
M  V30 1432 H 134.367 -2.8463 -2.31044 0
M  V30 1433 H 134.015 -1.97239 -4.62715 0
M  V30 1434 H 133.715 -3.72642 -4.54326 0
M  V30 1435 H 135.239 -3.11803 -5.24987 0
M  V30 1436 H 136.653 -4.55054 -3.4871 0
M  V30 1437 H 135.05 -5.18722 -3.0174 0
M  V30 1438 H 136.12 -4.51229 -1.7754 0
M  V30 1439 N 137.463 0.71206 -1.40597 0
M  V30 1440 C 138.373 1.8562 -1.43466 0
M  V30 1441 C 139.389 1.70902 -0.326902 0
M  V30 1442 O 140.565 1.93105 -0.572043 0
M  V30 1443 C 137.63 3.21451 -1.29884 0
M  V30 1444 C 136.691 3.48398 -2.50833 0
M  V30 1445 C 135.924 4.77749 -2.3789 0
M  V30 1446 O 136.147 5.53089 -1.39459 0
M  V30 1447 O 135.081 5.05111 -3.27333 0
M  V30 1448 H 138.907 1.86155 -2.39958 0
M  V30 1449 H 136.492 0.86295 -1.21957 0
M  V30 1450 H 138.374 4.02579 -1.24531 0
M  V30 1451 H 137.049 3.21636 -0.364997 0
M  V30 1452 H 135.956 2.67265 -2.61763 0
M  V30 1453 H 137.289 3.53014 -3.4299 0
M  V30 1454 N 138.941 1.26152 0.944643 0
M  V30 1455 C 140.357 1.03189 1.21754 0
M  V30 1456 C 140.557 -0.245112 2.00004 0
M  V30 1457 O 139.613 -0.955176 2.33736 0
M  V30 1458 C 140.926 2.26119 1.98219 0
M  V30 1459 C 142.474 2.30984 2.11224 0
M  V30 1460 C 142.949 3.53597 2.91089 0
M  V30 1461 N 144.44 3.54053 2.98664 0
M  V30 1462 C 145.175 4.45593 3.60881 0
M  V30 1463 N 144.671 5.47416 4.24626 0
M  V30 1464 N 146.464 4.33252 3.58119 0
M  V30 1465 H 138.615 2.08177 0.421437 0
M  V30 1466 H 140.878 0.914723 0.248969 0
M  V30 1467 H 140.584 3.18984 1.48128 0
M  V30 1468 H 140.458 2.3009 2.98895 0
M  V30 1469 H 142.845 1.38635 2.60508 0
M  V30 1470 H 142.926 2.31026 1.09821 0
M  V30 1471 H 142.57 4.46273 2.42493 0
M  V30 1472 H 142.5 3.50802 3.92741 0
M  V30 1473 H 144.991 2.80403 2.53343 0
M  V30 1474 H 145.304 6.13459 4.69987 0
M  V30 1475 H 143.649 5.51278 4.23223 0
M  V30 1476 H 146.84 3.52924 3.0751 0
M  V30 1477 H 147.013 5.04786 4.06319 0
M  V30 1478 N 140.419 -1.14872 1.07899 0
M  V30 1479 C 141.351 -2.19425 0.662231 0
M  V30 1480 C 142.364 -1.60231 -0.288079 0
M  V30 1481 O 143.553 -1.78336 -0.076534 0
M  V30 1482 C 140.653 -3.38867 -0.0470695 0
M  V30 1483 C 139.826 -4.27597 0.920831 0
M  V30 1484 C 138.885 -5.25616 0.247805 0
M  V30 1485 O 137.911 -5.62189 0.890599 0
M  V30 1486 N 139.113 -5.71746 -1.00435 0
M  V30 1487 H 141.878 -2.55797 1.56166 0
M  V30 1488 H 139.439 -1.30042 0.964404 0
M  V30 1489 H 141.431 -4.01497 -0.50813 0
M  V30 1490 H 140.001 -3.00864 -0.848523 0
M  V30 1491 H 139.221 -3.61982 1.56087 0
M  V30 1492 H 140.509 -4.83748 1.57688 0
M  V30 1493 H 139.907 -5.44153 -1.54642 0
M  V30 1494 H 138.464 -6.36389 -1.40899 0
M  V30 1495 N 141.898 -0.863906 -1.31812 0
M  V30 1496 C 142.828 -0.330843 -2.31144 0
M  V30 1497 C 143.809 0.575005 -1.60087 0
M  V30 1498 O 144.994 0.493304 -1.8783 0
M  V30 1499 C 142.124 0.47374 -3.44054 0
M  V30 1500 C 141.078 -0.338481 -4.26659 0
M  V30 1501 C 140.404 0.591412 -5.31419 0
M  V30 1502 C 141.704 -1.56926 -4.98168 0
M  V30 1503 H 143.398 -1.16086 -2.75979 0
M  V30 1504 H 140.944 -0.559657 -1.32679 0
M  V30 1505 H 142.897 0.857143 -4.12591 0
M  V30 1506 H 141.621 1.33721 -2.9797 0
M  V30 1507 H 140.28 -0.703754 -3.59782 0
M  V30 1508 H 139.928 1.45199 -4.81587 0
M  V30 1509 H 139.628 0.0519022 -5.87577 0
M  V30 1510 H 141.152 0.97179 -6.02817 0
M  V30 1511 H 142.566 -1.25764 -5.59336 0
M  V30 1512 H 140.963 -2.04739 -5.64094 0
M  V30 1513 H 142.033 -2.32544 -4.25501 0
M  V30 1514 N 143.376 1.44774 -0.622745 0
M  V30 1515 C 144.306 2.33382 0.0741861 0
M  V30 1516 C 145.287 1.47719 0.843387 0
M  V30 1517 O 146.472 1.76458 0.810934 0
M  V30 1518 C 143.602 3.30663 1.06204 0
M  V30 1519 C 142.556 4.26079 0.405037 0
M  V30 1520 C 141.882 5.13165 1.5022 0
M  V30 1521 C 143.182 5.1781 -0.683414 0
M  V30 1522 H 144.876 2.91905 -0.665713 0
M  V30 1523 H 142.422 1.40363 -0.321587 0
M  V30 1524 H 144.375 3.9153 1.55827 0
M  V30 1525 H 143.099 2.70331 1.83272 0
M  V30 1526 H 141.758 3.66532 -0.0704683 0
M  V30 1527 H 141.406 4.49191 2.26355 0
M  V30 1528 H 141.106 5.77812 1.06803 0
M  V30 1529 H 142.63 5.76902 2.00041 0
M  V30 1530 H 144.044 5.72661 -0.270631 0
M  V30 1531 H 142.441 5.91015 -1.04023 0
M  V30 1532 H 143.511 4.59326 -1.55395 0
M  V30 1533 N 144.854 0.36279 1.53368 0
M  V30 1534 C 145.786 -0.519668 2.23231 0
M  V30 1535 C 146.799 -1.04844 1.24546 0
M  V30 1536 O 147.988 -0.955296 1.50786 0
M  V30 1537 C 145.088 -1.72995 2.9142 0
M  V30 1538 C 144.261 -1.33316 4.16588 0
M  V30 1539 C 143.32 -2.40521 4.68013 0
M  V30 1540 O 142.346 -2.03027 5.3176 0
M  V30 1541 N 143.548 -3.72065 4.45587 0
M  V30 1542 H 146.313 0.078751 2.99597 0
M  V30 1543 H 143.874 0.187833 1.60807 0
M  V30 1544 H 145.866 -2.44184 3.22733 0
M  V30 1545 H 144.436 -2.2353 2.18525 0
M  V30 1546 H 143.656 -0.451236 3.91609 0
M  V30 1547 H 144.944 -1.04432 4.97967 0
M  V30 1548 H 144.342 -4.05304 3.94646 0
M  V30 1549 H 142.899 -4.39366 4.81457 0
M  V30 1550 N 146.332 -1.57332 0.0918853 0
M  V30 1551 C 147.748 -1.57389 -0.264766 0
M  V30 1552 C 147.948 -1.10281 -1.68643 0
M  V30 1553 O 147.004 -0.777801 -2.40222 0
M  V30 1554 C 148.317 -3.00648 -0.0561195 0
M  V30 1555 C 149.865 -3.12754 -0.124116 0
M  V30 1556 C 150.34 -4.57965 0.0564972 0
M  V30 1557 N 151.831 -4.632 0.00155611 0
M  V30 1558 C 152.566 -5.73281 0.116598 0
M  V30 1559 N 152.062 -6.92208 0.286294 0
M  V30 1560 N 153.855 -5.6207 0.0580973 0
M  V30 1561 H 146.006 -1.86262 1.02079 0
M  V30 1562 H 148.269 -0.859579 0.399786 0
M  V30 1563 H 147.975 -3.393 0.925669 0
M  V30 1564 H 147.849 -3.68623 -0.799823 0
M  V30 1565 H 150.236 -2.73976 -1.09641 0
M  V30 1566 H 150.317 -2.47377 0.651024 0
M  V30 1567 H 149.961 -4.97436 1.02564 0
M  V30 1568 H 149.891 -5.21399 -0.738297 0
M  V30 1569 H 152.382 -3.77686 -0.127192 0
M  V30 1570 H 152.695 -7.71934 0.365676 0
M  V30 1571 H 151.04 -6.94254 0.32192 0
M  V30 1572 H 154.231 -4.68043 -0.0733204 0
M  V30 1573 H 154.404 -6.47824 0.151203 0
M  V30 1574 N 147.81 0.181792 -1.56548 0
M  V30 1575 C 149.056 0.901431 -1.81665 0
M  V30 1576 C 149.389 1.82347 -0.668075 0
M  V30 1577 O 148.664 1.91669 0.330615 0
M  V30 1578 C 148.947 1.70618 -3.17115 0
M  V30 1579 C 148.8 0.807964 -4.42484 0
M  V30 1580 C 150.119 2.67605 -3.49393 0
M  V30 1581 H 147.238 0.32627 -0.660846 0
M  V30 1582 H 149.88 0.168134 -1.89255 0
M  V30 1583 H 148.03 2.33133 -3.10775 0
M  V30 1584 H 149.702 0.19649 -4.60881 0
M  V30 1585 H 147.945 0.115411 -4.33646 0
M  V30 1586 H 148.616 1.40632 -5.33785 0
M  V30 1587 H 151.092 2.15218 -3.56118 0
M  V30 1588 H 149.968 3.20985 -4.45264 0
M  V30 1589 H 150.229 3.47298 -2.73563 0
M  V30 1590 N 149.288 1.51039 0.449983 0
M  V30 1591 C 150.535 1.63081 1.20045 0
M  V30 1592 C 150.863 0.341024 1.91487 0
M  V30 1593 O 150.118 -0.674276 1.83717 0
M  V30 1594 C 150.417 2.77556 2.25161 0
M  V30 1595 C 150.083 4.17289 1.70823 0
M  V30 1596 C 148.745 4.55305 1.55725 0
M  V30 1597 C 151.097 5.04536 1.3074 0
M  V30 1598 C 148.425 5.78287 0.989999 0
M  V30 1599 C 150.777 6.28085 0.754482 0
M  V30 1600 C 149.441 6.64885 0.590308 0
M  V30 1601 H 148.711 0.596755 0.439277 0
M  V30 1602 H 151.358 1.85037 0.49333 0
M  V30 1603 H 149.663 2.49771 3.01863 0
M  V30 1604 H 151.36 2.84073 2.83026 0
M  V30 1605 H 147.95 3.8731 1.83546 0
M  V30 1606 H 152.134 4.75782 1.41229 0
M  V30 1607 H 147.39 6.05456 0.850451 0
M  V30 1608 H 151.564 6.95038 0.435324 0
M  V30 1609 H 149.191 7.60055 0.14862 0
M  V30 1610 N 150.766 -0.704594 1.40972 0
M  V30 1611 C 151.696 -1.83124 1.44872 0
M  V30 1612 C 152.677 -1.67281 0.30838 0
M  V30 1613 O 153.862 -1.87149 0.518556 0
M  V30 1614 C 150.992 -3.21181 1.32136 0
M  V30 1615 C 149.946 -3.51714 2.43888 0
M  V30 1616 C 149.272 -4.89032 2.16222 0
M  V30 1617 C 150.572 -3.516 3.86232 0
M  V30 1618 H 152.266 -1.80117 2.39161 0
M  V30 1619 H 149.812 -0.865145 1.15114 0
M  V30 1620 H 151.765 -3.99702 1.33479 0
M  V30 1621 H 150.489 -3.24791 0.343279 0
M  V30 1622 H 149.148 -2.75539 2.41813 0
M  V30 1623 H 148.796 -4.89256 1.16778 0
M  V30 1624 H 148.496 -5.10426 2.911 0
M  V30 1625 H 150.02 -5.69873 2.19265 0
M  V30 1626 H 151.434 -4.2014 3.9007 0
M  V30 1627 H 149.831 -3.84523 4.60719 0
M  V30 1628 H 150.901 -2.50757 4.15029 0
M  V30 1629 N 152.244 -1.26651 -0.937939 0
M  V30 1630 C 153.192 -1.08308 -2.05845 0
M  V30 1631 C 154.186 -0.0090757 -1.69398 0
M  V30 1632 O 155.392 -0.166007 -1.79233 0
M  V30 1633 H 151.767 -0.333416 -0.674046 0
M  V30 1634 H 153.738 -2.03261 -2.18467 0
M  V30 1635 C 152.487 -0.736229 -3.39816 0
M  V30 1636 H 151.81 -1.55453 -3.6834 0
M  V30 1637 H 153.25 -0.64769 -4.19024 0
M  V30 1638 C 151.709 0.558824 -3.32233 0
M  V30 1639 O 152.239 1.59621 -3.68624 0
M  V30 1640 N 150.445 0.550657 -2.85335 0
M  V30 1641 H 149.992 -0.293943 -2.55917 0
M  V30 1642 H 149.95 1.41726 -2.80644 0
M  V30 1643 N 153.722 1.14298 -1.08507 0
M  V30 1644 C 154.97 1.84993 -0.813763 0
M  V30 1645 C 155.291 1.83405 0.662393 0
M  V30 1646 O 154.561 1.28319 1.48024 0
M  V30 1647 H 153.141 0.684966 -0.298045 0
M  V30 1648 H 155.803 1.385 -1.37126 0
M  V30 1649 H 154.899 2.89788 -1.15884 0
M  V30 1650 N 155.201 0.870884 1.31352 0
M  V30 1651 C 156.426 0.495957 2.01383 0
M  V30 1652 C 156.851 -0.904324 1.64935 0
M  V30 1653 O 156.209 -1.59687 0.858466 0
M  V30 1654 C 156.257 0.661433 3.54482 0
M  V30 1655 O 155.361 -0.298851 4.11316 0
M  V30 1656 H 154.702 0.197158 0.634054 0
M  V30 1657 H 157.232 1.17455 1.67527 0
M  V30 1658 H 157.242 0.555072 4.04207 0
M  V30 1659 H 155.917 1.68246 3.8035 0
M  V30 1660 H 154.494 -0.147368 3.72609 0
M  V30 1661 N 156.679 -1.44442 0.630414 0
M  V30 1662 C 158.095 -1.56832 0.295973 0
M  V30 1663 C 158.295 -1.61806 -1.20088 0
M  V30 1664 O 157.351 -1.5607 -1.9849 0
M  V30 1665 C 158.664 -2.84031 0.987264 0
M  V30 1666 C 160.212 -2.97742 0.96534 0
M  V30 1667 C 160.687 -4.27743 1.63708 0
M  V30 1668 N 162.178 -4.34555 1.60364 0
M  V30 1669 C 162.913 -5.33862 2.09234 0
M  V30 1670 N 162.409 -6.39578 2.66292 0
M  V30 1671 N 164.202 -5.25366 1.99867 0
M  V30 1672 H 156.353 -1.39457 1.60205 0
M  V30 1673 H 158.616 -0.668237 0.672431 0
M  V30 1674 H 158.322 -2.86338 2.04215 0
M  V30 1675 H 158.196 -3.73534 0.524588 0
M  V30 1676 H 160.583 -2.94989 -0.0810639 0
M  V30 1677 H 160.664 -2.09589 1.4665 0
M  V30 1678 H 160.308 -4.31255 2.68293 0
M  V30 1679 H 160.238 -5.14752 1.11076 0
M  V30 1680 H 162.729 -3.58772 1.18705 0
M  V30 1681 H 163.042 -7.11637 3.01317 0
M  V30 1682 H 161.387 -6.40265 2.70343 0
M  V30 1683 H 164.578 -4.41688 1.55013 0
M  V30 1684 H 164.751 -6.02606 2.38265 0
M  V30 1685 N 158.157 -0.370918 -1.53173 0
M  V30 1686 C 159.089 0.507823 -2.23503 0
M  V30 1687 C 160.102 1.04182 -1.251 0
M  V30 1688 O 161.291 0.947286 -1.5129 0
M  V30 1689 C 158.391 1.71447 -2.92334 0
M  V30 1690 C 157.564 1.31105 -4.17289 0
M  V30 1691 C 156.623 2.38035 -4.69282 0
M  V30 1692 O 155.649 2.00204 -5.32829 0
M  V30 1693 N 156.851 3.69697 -4.47554 0
M  V30 1694 H 159.616 -0.0946382 -2.99551 0
M  V30 1695 H 157.177 -0.196358 -1.60705 0
M  V30 1696 H 159.169 2.42469 -3.24023 0
M  V30 1697 H 157.739 2.22368 -2.19707 0
M  V30 1698 H 156.959 0.430462 -3.91843 0
M  V30 1699 H 158.247 1.0179 -4.98514 0
M  V30 1700 H 157.645 4.03205 -3.9679 0
M  V30 1701 H 156.202 4.36807 -4.8378 0
M  V30 1702 N 159.635 1.57281 -0.100228 0
M  V30 1703 C 160.545 2.17833 0.870965 0
M  V30 1704 C 161.561 1.14921 1.30649 0
M  V30 1705 O 162.737 1.47313 1.37335 0
M  V30 1706 C 159.802 2.75085 2.1102 0
M  V30 1707 C 158.863 3.9297 1.72838 0
M  V30 1708 C 158.096 4.47482 2.90854 0
M  V30 1709 O 158.319 4.00922 4.05731 0
M  V30 1710 O 157.253 5.38433 2.69023 0
M  V30 1711 H 161.079 3.0124 0.38575 0
M  V30 1712 H 158.664 1.48881 0.124397 0
M  V30 1713 H 160.546 3.11656 2.83634 0
M  V30 1714 H 159.221 1.94721 2.58584 0
M  V30 1715 H 158.128 3.61201 0.973883 0
M  V30 1716 H 159.461 4.74713 1.30033 0
M  V30 1717 N 161.113 -0.173488 1.56642 0
M  V30 1718 C 162.529 -0.525174 1.50712 0
M  V30 1719 C 162.729 -1.8476 0.804107 0
M  V30 1720 O 161.785 -2.49869 0.363574 0
M  V30 1721 C 163.098 -0.559937 2.95441 0
M  V30 1722 C 164.646 -0.647288 3.06234 0
M  V30 1723 C 165.121 -0.712963 4.52417 0
M  V30 1724 N 166.612 -0.775911 4.56655 0
M  V30 1725 C 167.347 -0.847264 5.67106 0
M  V30 1726 N 166.843 -0.879585 6.87194 0
M  V30 1727 N 168.636 -0.886117 5.55071 0
M  V30 1728 H 160.787 0.693681 2.00753 0
M  V30 1729 H 163.05 0.249841 0.914485 0
M  V30 1730 H 162.756 0.343049 3.50023 0
M  V30 1731 H 162.63 -1.40718 3.49969 0
M  V30 1732 H 165.017 -1.5407 2.51687 0
M  V30 1733 H 165.098 0.226586 2.54794 0
M  V30 1734 H 164.742 0.176183 5.07594 0
M  V30 1735 H 164.672 -1.60295 5.0161 0
M  V30 1736 H 167.163 -0.759304 3.70193 0
M  V30 1737 H 167.476 -0.935144 7.67121 0
M  V30 1738 H 165.821 -0.847898 6.89808 0
M  V30 1739 H 169.012 -0.857853 4.60172 0
M  V30 1740 H 169.185 -0.938263 6.41171 0
M  V30 1741 N 162.591 -1.51276 -0.441967 0
M  V30 1742 C 163.837 -1.63958 -1.19355 0
M  V30 1743 C 164.17 -0.352543 -1.90973 0
M  V30 1744 O 163.445 0.647627 -1.83401 0
M  V30 1745 C 163.728 -2.83979 -2.21422 0
M  V30 1746 C 163.581 -4.22646 -1.53918 0
M  V30 1747 C 164.9 -2.99521 -3.22451 0
M  V30 1748 H 162.019 -0.596709 -0.432559 0
M  V30 1749 H 164.661 -1.83748 -0.483398 0
M  V30 1750 H 162.811 -2.67237 -2.81987 0
M  V30 1751 H 164.483 -4.51045 -0.967256 0
M  V30 1752 H 162.726 -4.25558 -0.841615 0
M  V30 1753 H 163.397 -5.02609 -2.28229 0
M  V30 1754 H 165.873 -3.14944 -2.71937 0
M  V30 1755 H 164.749 -3.85072 -3.91166 0
M  V30 1756 H 165.01 -2.11391 -3.88287 0
M  V30 1757 N 164.069 0.697108 -1.41344 0
M  V30 1758 C 165.309 1.46939 -1.42085 0
M  V30 1759 C 165.673 1.9198 -0.0280397 0
M  V30 1760 O 166.874 2.6865 0.0897504 0
M  V30 1761 C 165.145 2.64985 -2.39828 0
M  V30 1762 S 166.704 3.54147 -2.59085 0
M  V30 1763 H 163.522 0.502146 -0.503359 0
M  V30 1764 H 166.124 0.813546 -1.77769 0
M  V30 1765 H 164.828 2.30098 -3.39828 0
M  V30 1766 H 164.359 3.35464 -2.05493 0
M  V30 1767 H 166.374 4.60137 -1.85711 0
M  V30 1768 N 165.547 1.27147 0.931209 0
M  V30 1769 C 166.495 1.09398 2.05268 0
M  V30 1770 C 167.489 0.0180591 1.6939 0
M  V30 1771 O 168.695 0.17551 1.79142 0
M  V30 1772 H 165.07 0.336986 0.672268 0
M  V30 1773 H 167.041 2.04416 2.17386 0
M  V30 1774 C 165.79 0.75424 3.39421 0
M  V30 1775 H 165.113 1.57404 3.67511 0
M  V30 1776 H 166.553 0.669903 4.18674 0
M  V30 1777 C 165.012 -0.541197 3.32525 0
M  V30 1778 O 165.542 -1.57664 3.69466 0
M  V30 1779 N 163.748 -0.535517 2.85623 0
M  V30 1780 H 163.295 0.307511 2.55758 0
M  V30 1781 H 163.253 -1.40236 2.81392 0
M  V30 1782 N 167.025 -1.13721 1.09112 0
M  V30 1783 C 168.274 -1.84275 0.82009 0
M  V30 1784 C 168.587 -1.84253 -0.656509 0
M  V30 1785 O 169.793 -2.50668 -1.04296 0
M  V30 1786 C 168.249 -3.30825 1.41714 0
M  V30 1787 C 167.857 -3.39244 2.92605 0
M  V30 1788 C 169.601 -4.06443 1.22492 0
M  V30 1789 C 167.508 -4.80047 3.45411 0
M  V30 1790 H 166.438 -0.690387 0.30312 0
M  V30 1791 H 169.089 -1.28146 1.31343 0
M  V30 1792 H 167.471 -3.86737 0.851498 0
M  V30 1793 H 168.645 -2.93344 3.55367 0
M  V30 1794 H 166.96 -2.77088 3.10823 0
M  V30 1795 H 169.557 -5.10387 1.59402 0
M  V30 1796 H 169.9 -4.15972 0.165299 0
M  V30 1797 H 170.433 -3.56852 1.75788 0
M  V30 1798 H 167.172 -4.75709 4.50978 0
M  V30 1799 H 166.692 -5.26455 2.87411 0
M  V30 1800 H 168.371 -5.48957 3.42425 0
M  V30 1801 N 168.503 -0.877838 -1.30888 0
M  V30 1802 C 169.413 -0.343096 -2.32078 0
M  V30 1803 C 170.429 0.551022 -1.65045 0
M  V30 1804 O 171.605 0.445854 -1.96403 0
M  V30 1805 C 168.67 0.439905 -3.43898 0
M  V30 1806 C 167.731 -0.483111 -4.26573 0
M  V30 1807 C 166.964 0.262616 -5.33053 0
M  V30 1808 O 167.187 1.48967 -5.50604 0
M  V30 1809 O 166.121 -0.383593 -6.00676 0
M  V30 1810 H 169.947 -1.18203 -2.79753 0
M  V30 1811 H 167.532 -0.64145 -1.34929 0
M  V30 1812 H 169.414 0.883504 -4.12034 0
M  V30 1813 H 168.089 1.25526 -2.98371 0
M  V30 1814 H 166.996 -0.975374 -3.61161 0
M  V30 1815 H 168.329 -1.26427 -4.75686 0
M  V30 1816 N 169.982 1.44106 -0.638065 0
M  V30 1817 C 170.929 2.30715 0.062701 0
M  V30 1818 C 171.899 1.43882 0.829883 0
M  V30 1819 O 173.084 1.72775 0.809532 0
M  V30 1820 C 170.224 3.29258 1.03358 0
M  V30 1821 C 169.337 4.31192 0.26409 0
M  V30 1822 C 168.472 5.16825 1.22741 0
M  V30 1823 C 167.511 6.10462 0.447475 0
M  V30 1824 N 166.648 6.8877 1.36161 0
M  V30 1825 H 171.488 2.90096 -0.681781 0
M  V30 1826 H 169.025 1.42925 -0.347988 0
M  V30 1827 H 170.983 3.84886 1.60992 0
M  V30 1828 H 169.613 2.71562 1.74511 0
M  V30 1829 H 168.665 3.77981 -0.428295 0
M  V30 1830 H 169.977 4.97619 -0.343052 0
M  V30 1831 H 169.131 5.77004 1.87487 0
M  V30 1832 H 167.87 4.50488 1.86847 0
M  V30 1833 H 166.875 5.49386 -0.213433 0
M  V30 1834 H 168.1 6.78837 -0.188968 0
M  V30 1835 H 166.046 6.25096 1.98975 0
M  V30 1836 H 165.963 7.51663 0.808656 0
M  V30 1837 H 167.231 7.53467 1.99769 0
M  V30 1838 N 171.46 0.379036 1.52974 0
M  V30 1839 C 172.408 -0.476033 2.27677 0
M  V30 1840 C 173.402 -1.0719 1.31174 0
M  V30 1841 O 174.608 -1.01355 1.48752 0
M  V30 1842 H 170.983 -0.172255 0.732006 0
M  V30 1843 H 172.954 0.175615 2.97883 0
M  V30 1844 C 171.703 -1.5967 3.0887 0
M  V30 1845 H 171.026 -1.1475 3.82978 0
M  V30 1846 H 172.466 -2.16943 3.64296 0
M  V30 1847 C 170.925 -2.54682 2.20542 0
M  V30 1848 O 171.455 -3.57836 1.82527 0
M  V30 1849 N 169.661 -2.24183 1.84907 0
M  V30 1850 H 169.208 -1.40333 2.1602 0
M  V30 1851 H 169.166 -2.88006 1.26096 0
M  V30 1852 N 172.938 -1.57226 0.108567 0
M  V30 1853 C 174.184 -1.95121 -0.552761 0
M  V30 1854 C 174.517 -0.991345 -1.66991 0
M  V30 1855 O 173.792 -0.0267211 -1.94482 0
M  V30 1856 C 174.075 -3.43039 -1.09528 0
M  V30 1857 C 173.928 -4.49797 0.0177332 0
M  V30 1858 C 175.247 -3.92567 -1.98945 0
M  V30 1859 H 172.366 -0.709496 -0.199461 0
M  V30 1860 H 175.008 -1.89126 0.182011 0
M  V30 1861 H 173.158 -3.48279 -1.72146 0
M  V30 1862 H 174.83 -4.56661 0.652584 0
M  V30 1863 H 173.073 -4.284 0.682309 0
M  V30 1864 H 173.744 -5.50528 -0.402919 0
M  V30 1865 H 176.22 -3.89565 -1.46214 0
M  V30 1866 H 175.096 -4.96605 -2.33827 0
M  V30 1867 H 175.357 -3.32648 -2.91201 0
M  V30 1868 N 174.416 0.165178 -1.56732 0
M  V30 1869 C 175.641 0.900253 -1.86843 0
M  V30 1870 C 176.066 1.74766 -0.695596 0
M  V30 1871 O 175.424 1.77786 0.35522 0
M  V30 1872 C 175.472 1.74777 -3.15413 0
M  V30 1873 O 174.576 2.85007 -2.98068 0
M  V30 1874 H 173.917 0.251832 -0.614391 0
M  V30 1875 H 176.447 0.161468 -2.03962 0
M  V30 1876 H 176.457 2.14646 -3.46974 0
M  V30 1877 H 175.132 1.12537 -4.00385 0
M  V30 1878 H 173.709 2.48676 -2.77875 0
M  V30 1879 N 175.894 1.51508 0.433938 0
M  V30 1880 C 177.142 1.6402 1.18075 0
M  V30 1881 C 177.463 0.360328 1.91642 0
M  V30 1882 O 176.733 -0.623945 1.85698 0
M  V30 1883 H 175.313 0.6045 0.43885 0
M  V30 1884 H 177.975 1.88452 0.497178 0
M  V30 1885 H 177.071 2.46949 1.90847 0
M  V30 1886 N 177.372 -0.689602 1.41712 0
M  V30 1887 C 178.305 -1.81403 1.3845 0
M  V30 1888 C 179.283 -1.60653 0.250874 0
M  V30 1889 O 180.467 -1.83323 0.43874 0
M  V30 1890 C 177.594 -3.18176 1.1611 0
M  V30 1891 C 176.64 -3.57705 2.3227 0
M  V30 1892 S 177.473 -3.61827 3.94767 0
M  V30 1893 C 178.629 -5.01318 3.74742 0
M  V30 1894 H 178.862 -1.83893 2.33603 0
M  V30 1895 H 176.395 -0.858878 1.28307 0
M  V30 1896 H 178.353 -3.97132 1.03907 0
M  V30 1897 H 177.014 -3.13288 0.225668 0
M  V30 1898 H 176.207 -4.57082 2.12349 0
M  V30 1899 H 175.809 -2.86073 2.40911 0
M  V30 1900 H 178.101 -5.88986 3.34817 0
M  V30 1901 H 179.044 -5.26283 4.73743 0
M  V30 1902 H 179.452 -4.73138 3.07898 0
M  V30 1903 N 178.85 -1.27639 -0.924453 0
M  V30 1904 C 179.813 -1.10681 -2.00705 0
M  V30 1905 C 180.813 -0.0497823 -1.60723 0
M  V30 1906 O 182.003 -0.294654 -1.7169 0
M  V30 1907 C 179.135 -0.687164 -3.33902 0
M  V30 1908 H 180.328 -2.06817 -2.17179 0
M  V30 1909 H 177.881 -1.10473 -1.10569 0
M  V30 1910 H 178.616 0.275439 -3.23128 0
M  V30 1911 H 178.401 -1.45061 -3.6428 0
M  V30 1912 H 179.891 -0.590853 -4.13399 0
M  V30 1913 N 180.328 1.1314 -1.09713 0
M  V30 1914 C 181.577 1.83838 -0.829851 0
M  V30 1915 C 181.89 1.84599 0.646728 0
M  V30 1916 O 183.096 2.51218 1.02965 0
M  V30 1917 C 181.552 3.30069 -1.43466 0
M  V30 1918 C 181.16 3.37688 -2.94399 0
M  V30 1919 C 182.904 4.05788 -1.24645 0
M  V30 1920 C 180.811 4.78209 -3.47952 0
M  V30 1921 H 179.741 0.68877 -0.306777 0
M  V30 1922 H 182.392 1.27448 -1.3202 0
M  V30 1923 H 180.774 3.8628 -0.871996 0
M  V30 1924 H 181.948 2.91456 -3.56918 0
M  V30 1925 H 180.263 2.75436 -3.12289 0
M  V30 1926 H 182.86 5.09535 -1.62107 0
M  V30 1927 H 183.203 4.15878 -0.187357 0
M  V30 1928 H 183.736 3.55915 -1.77678 0
M  V30 1929 H 180.475 4.73311 -4.53495 0
M  V30 1930 H 179.995 5.24924 -2.90198 0
M  V30 1931 H 181.674 5.47133 -3.45332 0
M  V30 1932 N 181.806 0.884767 1.30421 0
M  V30 1933 C 182.754 0.340869 2.30089 0
M  V30 1934 C 183.748 -0.55201 1.60154 0
M  V30 1935 O 184.954 -0.436467 1.74628 0
M  V30 1936 H 181.329 0.0915739 0.746404 0
M  V30 1937 H 183.3 1.19513 2.73421 0
M  V30 1938 C 182.049 -0.429779 3.45034 0
M  V30 1939 H 181.372 0.248024 3.9903 0
M  V30 1940 H 182.812 -0.775445 4.16849 0
M  V30 1941 C 181.271 -1.62677 2.95022 0
M  V30 1942 O 181.801 -2.72614 2.95033 0
M  V30 1943 N 180.007 -1.46387 2.51036 0
M  V30 1944 H 179.554 -0.569506 2.51226 0
M  V30 1945 H 179.512 -2.26612 2.17932 0
M  V30 1946 N 183.284 -1.43765 0.645699 0
M  V30 1947 C 184.53 -2.02731 0.164844 0
M  V30 1948 C 184.885 -1.49983 -1.2051 0
M  V30 1949 O 184.178 -0.680208 -1.79119 0
M  V30 1950 C 184.372 -3.57238 0.107679 0
M  V30 1951 C 184.201 -4.24977 1.47054 0
M  V30 1952 C 182.971 -4.61356 2.06103 0
M  V30 1953 C 185.169 -4.54476 2.40741 0
M  V30 1954 N 183.151 -5.14132 3.35473 0
M  V30 1955 C 184.522 -5.08489 3.54737 0
M  V30 1956 C 186.577 -4.36438 2.39637 0
M  V30 1957 C 185.28 -5.46364 4.67845 0
M  V30 1958 C 187.306 -4.7537 3.5182 0
M  V30 1959 C 186.668 -5.2951 4.64541 0
M  V30 1960 H 182.767 -0.774976 0.104578 0
M  V30 1961 H 185.351 -1.75051 0.852367 0
M  V30 1962 H 183.522 -3.84498 -0.549165 0
M  V30 1963 H 185.254 -4.0288 -0.383351 0
M  V30 1964 H 182.009 -4.46151 1.58892 0
M  V30 1965 H 182.433 -5.4498 4.01654 0
M  V30 1966 H 187.075 -3.93861 1.53731 0
M  V30 1967 H 184.793 -5.87888 5.54448 0
M  V30 1968 H 188.379 -4.63115 3.52159 0
M  V30 1969 H 187.259 -5.59077 5.49911 0
M  V30 1970 N 184.763 -0.387143 -1.52771 0
M  V30 1971 C 186.012 0.19697 -2.00736 0
M  V30 1972 C 186.325 1.48082 -1.27793 0
M  V30 1973 O 187.531 2.14485 -1.66458 0
M  V30 1974 C 185.987 0.401568 -3.57653 0
M  V30 1975 C 185.595 -0.868907 -4.39493 0
M  V30 1976 C 187.339 0.942164 -4.13912 0
M  V30 1977 C 185.246 -0.632705 -5.88006 0
M  V30 1978 H 184.176 0.0773827 -0.750019 0
M  V30 1979 H 186.827 -0.50921 -1.76293 0
M  V30 1980 H 185.209 1.16954 -3.78335 0
M  V30 1981 H 186.383 -1.64133 -4.30577 0
M  V30 1982 H 184.698 -1.33429 -3.94443 0
M  V30 1983 H 187.295 1.13455 -5.22525 0
M  V30 1984 H 187.638 1.9106 -3.69867 0
M  V30 1985 H 188.171 0.233814 -3.97112 0
M  V30 1986 H 184.91 -1.57208 -6.36369 0
M  V30 1987 H 184.43 0.100825 -5.99715 0
M  V30 1988 H 186.109 -0.26642 -6.46451 0
M  V30 1989 N 186.241 1.57166 -0.116904 0
M  V30 1990 C 187.189 2.16457 0.851418 0
M  V30 1991 C 188.183 1.11323 1.27686 0
M  V30 1992 O 189.389 1.2963 1.24884 0
M  V30 1993 H 185.764 0.69271 0.292672 0
M  V30 1994 H 187.735 2.96605 0.32685 0
M  V30 1995 C 186.484 2.77689 2.09246 0
M  V30 1996 H 185.807 3.58285 1.77402 0
M  V30 1997 H 187.247 3.22716 2.7501 0
M  V30 1998 C 185.706 1.74667 2.88085 0
M  V30 1999 O 186.236 1.19877 3.83396 0
M  V30 2000 N 184.442 1.44656 2.52038 0
M  V30 2001 H 183.989 1.89402 1.74599 0
M  V30 2002 H 183.947 0.759675 3.05084 0
M  V30 2003 N 187.719 -0.156864 1.56817 0
M  V30 2004 C 188.629 -1.2136 2.00771 0
M  V30 2005 C 189.645 -1.47598 0.921459 0
M  V30 2006 O 190.821 -1.59462 1.2302 0
M  V30 2007 C 187.886 -2.52943 2.37109 0
M  V30 2008 C 186.947 -2.34439 3.59634 0
M  V30 2009 C 186.18 -3.59748 3.94229 0
M  V30 2010 O 186.403 -4.65526 3.29609 0
M  V30 2011 O 185.337 -3.52998 4.8752 0
M  V30 2012 H 189.163 -0.870468 2.90958 0
M  V30 2013 H 186.748 -0.36484 1.44877 0
M  V30 2014 H 188.63 -3.30538 2.61386 0
M  V30 2015 H 187.305 -2.86806 1.5008 0
M  V30 2016 H 186.212 -1.54828 3.40557 0
M  V30 2017 H 187.545 -2.05496 4.4725 0
M  V30 2018 N 189.197 -1.51736 -0.425897 0
M  V30 2019 C 190.107 -1.76738 -1.54275 0
M  V30 2020 C 191.123 -0.65211 -1.61318 0
M  V30 2021 O 192.299 -0.935654 -1.78346 0
M  V30 2022 C 189.364 -1.89755 -2.90162 0
M  V30 2023 C 188.425 -3.13633 -2.93143 0
M  V30 2024 C 187.658 -3.2602 -4.22548 0
M  V30 2025 O 187.881 -2.44067 -5.15546 0
M  V30 2026 O 186.815 -4.19071 -4.32046 0
M  V30 2027 H 190.641 -2.71502 -1.36089 0
M  V30 2028 H 188.226 -1.36376 -0.610069 0
M  V30 2029 H 190.108 -2.00236 -3.70788 0
M  V30 2030 H 188.783 -0.981785 -3.08452 0
M  V30 2031 H 187.69 -3.08622 -2.11431 0
M  V30 2032 H 189.023 -4.04936 -2.798 0
M  V30 2033 N 190.675 0.682077 -1.42076 0
M  V30 2034 C 191.921 1.44428 -1.42367 0
M  V30 2035 C 192.254 1.94164 -0.0373056 0
M  V30 2036 O 191.529 1.70429 0.937239 0
M  V30 2037 C 191.812 2.64654 -2.44194 0
M  V30 2038 C 191.665 2.20596 -3.91991 0
M  V30 2039 C 192.984 3.66865 -2.431 0
M  V30 2040 H 190.103 0.523834 -0.518428 0
M  V30 2041 H 192.745 0.77576 -1.73442 0
M  V30 2042 H 190.895 3.2169 -2.17826 0
M  V30 2043 H 192.567 1.68783 -4.29313 0
M  V30 2044 H 190.81 1.52242 -4.06208 0
M  V30 2045 H 191.481 3.06921 -4.58807 0
M  V30 2046 H 193.957 3.19531 -2.66532 0
M  V30 2047 H 192.833 4.48577 -3.16339 0
M  V30 2048 H 193.094 4.17493 -1.45437 0
M  V30 2049 N 192.153 1.28127 0.917671 0
M  V30 2050 C 193.402 1.14432 1.66097 0
M  V30 2051 C 193.715 -0.307247 1.93172 0
M  V30 2052 O 194.921 -0.565259 2.65551 0
M  V30 2053 C 193.377 2.00015 2.99202 0
M  V30 2054 C 192.985 3.49889 2.79789 0
M  V30 2055 C 194.729 1.94996 3.77064 0
M  V30 2056 C 192.636 4.27636 4.08511 0
M  V30 2057 H 191.566 0.424662 0.62304 0
M  V30 2058 H 194.217 1.52628 1.01868 0
M  V30 2059 H 192.599 1.54672 3.64544 0
M  V30 2060 H 193.773 4.03162 2.23152 0
M  V30 2061 H 192.088 3.56392 2.15345 0
M  V30 2062 H 194.685 2.50354 4.72469 0
M  V30 2063 H 195.028 0.925819 4.05875 0
M  V30 2064 H 195.561 2.38287 3.18534 0
M  V30 2065 H 192.3 5.30615 3.84874 0
M  V30 2066 H 191.82 3.79137 4.64774 0
M  V30 2067 H 193.499 4.37346 4.76799 0
M  V30 2068 N 193.631 -1.12557 1.10312 0
M  V30 2069 C 194.877 -1.84515 0.855901 0
M  V30 2070 C 195.232 -1.82409 -0.611936 0
M  V30 2071 O 194.525 -1.25778 -1.44535 0
M  V30 2072 C 194.719 -3.31462 1.33669 0
M  V30 2073 C 194.548 -3.47879 2.84974 0
M  V30 2074 C 193.318 -3.61589 3.52961 0
M  V30 2075 C 195.516 -3.43152 3.83081 0
M  V30 2076 N 193.498 -3.66359 4.926 0
M  V30 2077 C 194.869 -3.54401 5.08724 0
M  V30 2078 C 196.924 -3.2661 3.75807 0
M  V30 2079 C 195.627 -3.50815 6.2795 0
M  V30 2080 C 197.653 -3.24335 4.94531 0
M  V30 2081 C 197.015 -3.36144 6.19021 0
M  V30 2082 H 193.114 -0.690967 0.366182 0
M  V30 2083 H 195.698 -1.34763 1.40524 0
M  V30 2084 H 193.869 -3.7976 0.814686 0
M  V30 2085 H 195.601 -3.91272 1.03385 0
M  V30 2086 H 192.356 -3.63652 3.03404 0
M  V30 2087 H 192.78 -3.72411 5.65366 0
M  V30 2088 H 197.422 -3.16375 2.80476 0
M  V30 2089 H 195.14 -3.5982 7.23571 0
M  V30 2090 H 198.726 -3.12719 4.9061 0
M  V30 2091 H 197.606 -3.34357 7.09348 0
M  V30 2092 N 195.109 -0.891671 -1.2995 0
M  V30 2093 C 196.334 -0.527932 -2.00568 0
M  V30 2094 C 196.759 0.877969 -1.66353 0
M  V30 2095 O 196.117 1.58301 -0.883762 0
M  V30 2096 C 196.165 -0.717745 -3.53385 0
M  V30 2097 O 195.269 0.233376 -4.11739 0
M  V30 2098 H 194.61 -0.20722 -0.630837 0
M  V30 2099 H 197.14 -1.20105 -1.65638 0
M  V30 2100 H 197.15 -0.619307 -4.03272 0
M  V30 2101 H 195.825 -1.74276 -3.77625 0
M  V30 2102 H 194.402 0.0880706 -3.72796 0
M  V30 2103 N 196.587 1.43421 -0.653314 0
M  V30 2104 C 197.535 2.32546 0.0501531 0
M  V30 2105 C 198.529 1.48617 0.812985 0
M  V30 2106 O 199.735 1.64825 0.723375 0
M  V30 2107 H 196.11 0.751185 0.0350032 0
M  V30 2108 H 198.081 2.89602 -0.719261 0
M  V30 2109 C 196.83 3.32925 1.00279 0
M  V30 2110 H 196.153 3.97532 0.425236 0
M  V30 2111 H 197.593 3.9792 1.46409 0
M  V30 2112 C 196.052 2.63532 2.09886 0
M  V30 2113 O 196.582 2.45092 3.18265 0
M  V30 2114 N 194.788 2.22905 1.86445 0
M  V30 2115 H 194.335 2.38103 0.98309 0
M  V30 2116 H 194.293 1.76805 2.59976 0
M  V30 2117 N 198.065 0.39524 1.52563 0
M  V30 2118 C 198.997 -0.472201 2.24283 0
M  V30 2119 C 200.01 -1.02178 1.26742 0
M  V30 2120 O 201.199 -0.923097 1.52778 0
M  V30 2121 C 198.299 -1.66775 2.95024 0
M  V30 2122 C 197.472 -1.2445 4.19322 0
M  V30 2123 C 196.531 -2.30539 4.7301 0
M  V30 2124 O 195.557 -1.91702 5.35947 0
M  V30 2125 N 196.759 -3.6253 4.53379 0
M  V30 2126 H 199.524 0.142282 2.99362 0
M  V30 2127 H 197.085 0.2219 1.60372 0
M  V30 2128 H 199.077 -2.37283 3.27839 0
M  V30 2129 H 197.647 -2.18845 2.23217 0
M  V30 2130 H 196.867 -0.368069 3.92478 0
M  V30 2131 H 198.155 -0.938457 5.0007 0
M  V30 2132 H 197.553 -3.96841 4.03154 0
M  V30 2133 H 196.11 -4.29055 4.90668 0
M  V30 2134 N 199.544 -1.57102 0.125237 0
M  V30 2135 C 200.476 -2.12726 -0.853237 0
M  V30 2136 C 201.489 -1.07145 -1.22571 0
M  V30 2137 O 202.678 -1.34497 -1.17358 0
M  V30 2138 C 199.778 -2.61709 -2.15317 0
M  V30 2139 C 198.951 -3.91456 -1.95143 0
M  V30 2140 C 198.01 -4.25973 -3.08923 0
M  V30 2141 O 197.036 -4.94682 -2.81564 0
M  V30 2142 N 198.238 -3.83795 -4.35524 0
M  V30 2143 H 201.003 -2.97307 -0.377964 0
M  V30 2144 H 198.564 -1.61792 -0.0590011 0
M  V30 2145 H 200.556 -2.81826 -2.90441 0
M  V30 2146 H 199.126 -1.81974 -2.54174 0
M  V30 2147 H 198.346 -3.80185 -1.04177 0
M  V30 2148 H 199.634 -4.76283 -1.78976 0
M  V30 2149 H 199.032 -3.2839 -4.60626 0
M  V30 2150 H 197.589 -4.09008 -5.07499 0
M  V30 2151 N 201.022 0.148545 -1.56898 0
M  V30 2152 C 201.932 1.20293 -2.01412 0
M  V30 2153 C 202.948 1.47107 -0.929273 0
M  V30 2154 O 204.124 1.58807 -1.23863 0
M  V30 2155 C 201.189 2.51682 -2.38447 0
M  V30 2156 C 200.25 2.32529 -3.60872 0
M  V30 2157 C 199.483 3.57653 -3.96132 0
M  V30 2158 O 199.706 4.63771 -3.32073 0
M  V30 2159 O 198.64 3.50408 -4.89385 0
M  V30 2160 H 202.466 0.855025 -2.91416 0
M  V30 2161 H 200.051 0.357151 -1.45068 0
M  V30 2162 H 201.933 3.29147 -2.63135 0
M  V30 2163 H 200.608 2.86006 -1.51599 0
M  V30 2164 H 199.515 1.53019 -3.41373 0
M  V30 2165 H 200.848 2.03121 -4.48333 0
M  V30 2166 N 202.5 1.5196 0.417844 0
M  V30 2167 C 203.748 1.65263 1.16329 0
M  V30 2168 C 204.069 0.380634 1.91249 0
M  V30 2169 O 203.339 -0.604214 1.86349 0
M  V30 2170 H 201.919 0.60912 0.432414 0
M  V30 2171 H 204.581 1.88969 0.477162 0
M  V30 2172 H 203.677 2.4896 1.88217 0
M  V30 2173 N 203.978 -0.674533 1.42435 0
M  V30 2174 C 205.227 -1.43034 1.42212 0
M  V30 2175 C 205.54 -1.95555 0.0420788 0
M  V30 2176 O 206.746 -2.71374 -0.0827558 0
M  V30 2177 C 205.202 -2.58748 2.50155 0
M  V30 2178 C 204.81 -2.12925 3.94166 0
M  V30 2179 C 206.554 -3.36257 2.59098 0
M  V30 2180 C 204.461 -3.25723 4.93618 0
M  V30 2181 H 203.391 -0.537345 0.528939 0
M  V30 2182 H 206.042 -0.73024 1.68344 0
M  V30 2183 H 204.424 -3.31128 2.17188 0
M  V30 2184 H 205.598 -1.47697 4.36488 0
M  V30 2185 H 203.913 -1.48354 3.89076 0
M  V30 2186 H 206.51 -4.20264 3.30578 0
M  V30 2187 H 206.853 -3.82866 1.63461 0
M  V30 2188 H 207.386 -2.70947 2.9126 0
M  V30 2189 H 204.125 -2.84105 5.90732 0
M  V30 2190 H 203.645 -3.89732 4.55926 0
M  V30 2191 H 205.324 -3.91186 5.15347 0
M  V30 2192 N 205.456 -1.28612 -0.910864 0
M  V30 2193 C 206.705 -1.15311 -1.65488 0
M  V30 2194 C 207.018 0.296999 -1.93332 0
M  V30 2195 O 208.224 0.551168 -2.65847 0
M  V30 2196 C 206.68 -2.01599 -2.98137 0
M  V30 2197 C 206.288 -3.51367 -2.7793 0
M  V30 2198 C 208.032 -1.96993 -3.76024 0
M  V30 2199 C 205.939 -4.29797 -4.06237 0
M  V30 2200 H 204.869 -0.42796 -0.620779 0
M  V30 2201 H 207.52 -1.53166 -1.01057 0
M  V30 2202 H 205.902 -1.56603 -3.63719 0
M  V30 2203 H 207.076 -4.0434 -2.21011 0
M  V30 2204 H 205.391 -3.57529 -2.13452 0
M  V30 2205 H 207.988 -2.52856 -4.71135 0
M  V30 2206 H 208.331 -0.94733 -4.05378 0
M  V30 2207 H 208.864 -2.39973 -3.17266 0
M  V30 2208 H 205.603 -5.32648 -3.82055 0
M  V30 2209 H 205.123 -3.81596 -4.62757 0
M  V30 2210 H 206.802 -4.39869 -4.74473 0
M  V30 2211 N 206.934 1.1197 -1.10907 0
M  V30 2212 C 208.162 1.87402 -0.876824 0
M  V30 2213 C 208.577 1.79894 0.573025 0
M  V30 2214 O 207.934 1.17629 1.39534 0
M  V30 2215 C 207.985 3.36428 -1.32282 0
M  V30 2216 O 207.706 3.43765 -2.71582 0
M  V30 2217 C 209.207 4.28783 -1.12518 0
M  V30 2218 H 206.427 0.592793 -0.314384 0
M  V30 2219 H 208.971 1.41649 -1.47499 0
M  V30 2220 H 207.126 3.79706 -0.768229 0
M  V30 2221 H 207.54 4.3652 -2.90776 0
M  V30 2222 H 209.014 5.31613 -1.48633 0
M  V30 2223 H 209.491 4.39153 -0.0642394 0
M  V30 2224 H 210.097 3.91291 -1.66648 0
M  V30 2225 N 208.412 0.89855 1.29475 0
M  V30 2226 C 209.658 0.524658 1.95896 0
M  V30 2227 C 209.991 -0.926468 1.70676 0
M  V30 2228 O 209.266 -1.65665 1.01908 0
M  V30 2229 C 209.549 0.81633 3.50725 0
M  V30 2230 C 209.402 2.31907 3.85408 0
M  V30 2231 C 210.721 0.302038 4.39062 0
M  V30 2232 H 207.84 0.19209 0.711527 0
M  V30 2233 H 210.482 1.12502 1.53112 0
M  V30 2234 H 208.632 0.305369 3.87298 0
M  V30 2235 H 210.304 2.89949 3.58786 0
M  V30 2236 H 208.547 2.78027 3.32992 0
M  V30 2237 H 209.218 2.47373 4.93468 0
M  V30 2238 H 211.694 0.739551 4.09475 0
M  V30 2239 H 210.57 0.535331 5.46283 0
M  V30 2240 H 210.831 -0.797216 4.34853 0
M  V30 2241 N 209.89 -1.43072 0.660911 0
M  V30 2242 C 211.118 -2.06067 0.185422 0
M  V30 2243 C 211.533 -1.49582 -1.15198 0
M  V30 2244 O 210.89 -0.630134 -1.71276 0
M  V30 2245 C 210.941 -3.61371 0.0966523 0
M  V30 2246 O 210.662 -4.15758 1.38119 0
M  V30 2247 C 212.163 -4.41455 -0.403996 0
M  V30 2248 H 209.383 -0.664459 0.0934604 0
M  V30 2249 H 211.927 -1.83447 0.90373 0
M  V30 2250 H 210.082 -3.8315 -0.572259 0
M  V30 2251 H 210.496 -5.09499 1.24542 0
M  V30 2252 H 211.97 -5.50437 -0.415045 0
M  V30 2253 H 212.447 -4.15036 -1.43674 0
M  V30 2254 H 213.053 -4.24663 0.232691 0
M  V30 2255 N 211.368 -0.403325 -1.52352 0
M  V30 2256 C 212.645 0.232611 -1.94212 0
M  V30 2257 C 213.025 1.63133 -1.33981 0
M  V30 2258 O 212.373 2.22659 -0.513344 0
M  V30 2259 C 212.583 0.244811 -3.4814 0
M  V30 2260 C 213.931 0.46698 -4.22024 0
M  V30 2261 O 214.955 0.324419 -3.5472 0
M  V30 2262 O 213.814 0.74747 -5.41364 0
M  V30 2263 H 210.908 0.148223 -0.813609 0
M  V30 2264 H 213.454 -0.458848 -1.63379 0
M  V30 2265 H 212.226 -0.734378 -3.84347 0
M  V30 2266 H 211.849 0.980611 -3.85318 0
M  V30 2267 N 212.846 1.57033 -0.133567 0
M  V30 2268 C 213.779 2.11824 0.848872 0
M  V30 2269 C 214.757 1.03833 1.2513 0
M  V30 2270 O 215.941 1.31579 1.34978 0
M  V30 2271 C 213.068 2.62692 2.138 0
M  V30 2272 C 212.114 3.82705 1.88253 0
M  V30 2273 S 212.947 5.2438 1.08563 0
M  V30 2274 C 214.103 5.78627 2.38624 0
M  V30 2275 H 214.336 2.94824 0.38289 0
M  V30 2276 H 211.869 1.5419 0.0804796 0
M  V30 2277 H 213.827 2.92652 2.87863 0
M  V30 2278 H 212.488 1.79847 2.57515 0
M  V30 2279 H 211.681 4.16496 2.83809 0
M  V30 2280 H 211.283 3.53437 1.22305 0
M  V30 2281 H 213.575 5.8924 3.34369 0
M  V30 2282 H 214.518 6.76443 2.09358 0
M  V30 2283 H 214.926 5.06783 2.48658 0
M  V30 2284 N 214.325 -0.140222 1.56975 0
M  V30 2285 C 215.272 -1.17292 1.98774 0
M  V30 2286 C 216.242 -1.4232 0.856408 0
M  V30 2287 O 217.427 -1.54541 1.119 0
M  V30 2288 C 214.567 -2.49973 2.37923 0
M  V30 2289 C 213.68 -2.32062 3.64378 0
M  V30 2290 C 212.815 -3.57825 3.926 0
M  V30 2291 C 211.854 -3.3498 5.12303 0
M  V30 2292 N 210.991 -4.52891 5.36502 0
M  V30 2293 H 215.831 -0.809472 2.86795 0
M  V30 2294 H 213.368 -0.388237 1.41884 0
M  V30 2295 H 215.326 -3.27346 2.58652 0
M  V30 2296 H 213.956 -2.84252 1.52972 0
M  V30 2297 H 213.008 -1.45711 3.51387 0
M  V30 2298 H 214.32 -2.11145 4.51906 0
M  V30 2299 H 213.474 -4.43624 4.13863 0
M  V30 2300 H 212.213 -3.81753 3.03506 0
M  V30 2301 H 211.218 -2.4757 4.90906 0
M  V30 2302 H 212.443 -3.12444 6.02956 0
M  V30 2303 H 210.389 -4.76979 4.50363 0
M  V30 2304 H 210.306 -4.35001 6.18312 0
M  V30 2305 H 211.574 -5.39884 5.62268 0
M  V30 2306 N 215.803 -1.52179 -0.40978 0
M  V30 2307 C 217.051 -1.65878 -1.15451 0
M  V30 2308 C 217.372 -0.390771 -1.91044 0
M  V30 2309 O 216.642 0.594323 -1.86667 0
M  V30 2310 H 215.222 -0.611405 -0.429177 0
M  V30 2311 H 217.884 -1.89219 -0.467134 0
M  V30 2312 H 216.98 -2.49954 -1.86894 0
M  V30 2313 N 217.281 0.66697 -1.42791 0
M  V30 2314 C 218.229 1.80157 -1.47127 0
M  V30 2315 C 219.223 1.65825 -0.346199 0
M  V30 2316 O 220.429 1.72338 -0.519572 0
M  V30 2317 H 216.804 0.594158 -0.460956 0
M  V30 2318 H 218.775 1.73619 -2.42692 0
M  V30 2319 C 217.524 3.18351 -1.39813 0
M  V30 2320 H 216.847 3.3001 -2.25684 0
M  V30 2321 H 218.287 3.97736 -1.46908 0
M  V30 2322 C 216.746 3.36707 -0.11391 0
M  V30 2323 O 217.276 3.93027 0.830241 0
M  V30 2324 N 215.482 2.90586 -0.0285295 0
M  V30 2325 H 215.029 2.4494 -0.79764 0
M  V30 2326 H 214.987 3.03245 0.830063 0
M  V30 2327 N 218.759 1.29093 0.90403 0
M  V30 2328 C 219.707 1.13727 2.02901 0
M  V30 2329 C 220.701 0.0539853 1.69314 0
M  V30 2330 O 221.907 0.213469 1.7873 0
M  V30 2331 H 218.282 0.35117 0.664969 0
M  V30 2332 H 220.253 2.08982 2.13001 0
M  V30 2333 C 219.002 0.826066 3.37745 0
M  V30 2334 H 218.325 1.65164 3.64089 0
M  V30 2335 H 219.765 0.758559 4.17159 0
M  V30 2336 C 218.224 -0.470541 3.33598 0
M  V30 2337 O 218.754 -1.49792 3.72727 0
M  V30 2338 N 216.96 -0.474812 2.86695 0
M  V30 2339 H 216.507 0.361692 2.55048 0
M  V30 2340 H 216.465 -1.34236 2.84303 0
M  V30 2341 N 220.237 -1.11381 1.11499 0
M  V30 2342 C 221.462 -1.87475 0.887019 0
M  V30 2343 C 221.887 -1.79639 -0.557796 0
M  V30 2344 O 221.245 -1.15924 -1.39396 0
M  V30 2345 C 221.293 -3.34213 1.35403 0
M  V30 2346 O 220.397 -4.0903 0.526146 0
M  V30 2347 H 219.738 -0.582099 0.319463 0
M  V30 2348 H 222.268 -1.40785 1.48461 0
M  V30 2349 H 222.278 -3.8506 1.34881 0
M  V30 2350 H 220.953 -3.39232 2.40612 0
M  V30 2351 H 219.53 -3.68082 0.597522 0
M  V30 2352 N 221.715 -0.905404 -1.28997 0
M  V30 2353 C 222.665 -0.358713 -2.25161 0
M  V30 2354 C 223.649 0.524449 -1.52113 0
M  V30 2355 O 224.841 0.365534 -1.73184 0
M  V30 2356 C 221.97 0.407609 -3.40872 0
M  V30 2357 C 221.056 -0.490797 -4.21251 0
M  V30 2358 N 221.447 -1.60061 -4.79806 0
M  V30 2359 C 219.745 -0.289636 -4.45059 0
M  V30 2360 C 220.446 -2.15757 -5.40207 0
M  V30 2361 N 219.422 -1.44988 -5.23908 0
M  V30 2362 H 223.224 -1.20642 -2.67998 0
M  V30 2363 H 220.738 -0.757103 -1.43672 0
M  V30 2364 H 222.735 0.816046 -4.08835 0
M  V30 2365 H 221.395 1.25251 -2.9957 0
M  V30 2366 H 222.406 -1.98329 -4.7842 0
M  V30 2367 H 219.083 0.51643 -4.14294 0
M  V30 2368 H 220.473 -3.09069 -5.96595 0
M  V30 2369 N 223.193 1.4272 -0.668489 0
M  V30 2370 C 224.442 2.00846 -0.185389 0
M  V30 2371 C 224.755 1.53442 1.21305 0
M  V30 2372 O 225.961 2.03944 1.79218 0
M  V30 2373 C 224.417 3.58805 -0.280591 0
M  V30 2374 C 224.025 4.15198 -1.68268 0
M  V30 2375 C 225.769 4.24255 0.14412 0
M  V30 2376 C 223.676 5.655 -1.73099 0
M  V30 2377 H 222.606 0.751145 -0.0655475 0
M  V30 2378 H 225.257 1.63516 -0.832752 0
M  V30 2379 H 223.639 3.93608 0.434553 0
M  V30 2380 H 224.813 3.91866 -2.42441 0
M  V30 2381 H 223.128 3.62176 -2.05469 0
M  V30 2382 H 225.725 5.34547 0.128086 0
M  V30 2383 H 226.068 3.99277 1.17827 0
M  V30 2384 H 226.601 3.94389 -0.519798 0
M  V30 2385 H 223.34 5.95268 -2.74475 0
M  V30 2386 H 222.86 5.90842 -1.03274 0
M  V30 2387 H 224.539 6.29808 -1.48158 0
M  V30 2388 N 224.671 0.411399 1.52136 0
M  V30 2389 C 225.601 -0.404015 2.29978 0
M  V30 2390 C 226.582 -1.04412 1.34284 0
M  V30 2391 O 227.767 -1.0527 1.63192 0
M  V30 2392 C 224.897 -1.5197 3.12286 0
M  V30 2393 C 223.851 -1.00448 4.16046 0
M  V30 2394 C 223.177 -2.21393 4.86712 0
M  V30 2395 C 224.477 -0.0569336 5.22269 0
M  V30 2396 H 226.171 0.245529 2.98392 0
M  V30 2397 H 223.717 0.119525 1.43503 0
M  V30 2398 H 225.67 -2.09715 3.6551 0
M  V30 2399 H 224.394 -2.19716 2.41646 0
M  V30 2400 H 223.053 -0.449421 3.63835 0
M  V30 2401 H 222.701 -2.87699 4.12599 0
M  V30 2402 H 222.401 -1.87571 5.56858 0
M  V30 2403 H 223.925 -2.7974 5.4275 0
M  V30 2404 H 225.339 -0.54325 5.7072 0
M  V30 2405 H 223.736 0.192594 5.99791 0
M  V30 2406 H 224.806 0.887663 4.76706 0
M  V30 2407 N 226.149 -1.5696 0.141893 0
M  V30 2408 C 227.079 -2.19516 -0.795936 0
M  V30 2409 C 228.06 -1.14187 -1.26077 0
M  V30 2410 O 229.245 -1.42511 -1.31925 0
M  V30 2411 C 226.375 -2.81272 -2.03723 0
M  V30 2412 C 225.329 -3.92384 -1.70936 0
M  V30 2413 C 224.655 -4.41052 -3.02287 0
M  V30 2414 C 225.955 -5.13403 -0.959954 0
M  V30 2415 H 227.649 -2.98138 -0.274596 0
M  V30 2416 H 225.195 -1.43406 -0.130636 0
M  V30 2417 H 227.148 -3.237 -2.69808 0
M  V30 2418 H 225.872 -1.99973 -2.58221 0
M  V30 2419 H 224.531 -3.50566 -1.07232 0
M  V30 2420 H 224.179 -3.56582 -3.54765 0
M  V30 2421 H 223.879 -5.15993 -2.81114 0
M  V30 2422 H 225.403 -4.86146 -3.69451 0
M  V30 2423 H 226.817 -5.52706 -1.52279 0
M  V30 2424 H 225.214 -5.94073 -0.848357 0
M  V30 2425 H 226.284 -4.84875 0.0492434 0
M  V30 2426 N 227.627 0.131896 -1.57047 0
M  V30 2427 C 228.852 0.860418 -1.8871 0
M  V30 2428 C 229.277 1.73251 -0.73251 0
M  V30 2429 O 228.635 1.785 0.317429 0
M  V30 2430 C 228.683 1.68047 -3.19049 0
M  V30 2431 O 227.787 2.7862 -3.04047 0
M  V30 2432 H 227.128 0.238743 -0.619595 0
M  V30 2433 H 229.658 0.118169 -2.04258 0
M  V30 2434 H 229.668 2.07238 -3.51449 0
M  V30 2435 H 228.343 1.04018 -4.02682 0
M  V30 2436 H 226.92 2.42726 -2.83088 0
M  V30 2437 N 229.106 1.52395 0.401703 0
M  V30 2438 C 230.069 1.75636 1.47257 0
M  V30 2439 C 231.069 0.62628 1.48103 0
M  V30 2440 O 232.259 0.894227 1.49497 0
M  V30 2441 C 229.391 1.84553 2.86624 0
M  V30 2442 H 230.584 2.71241 1.27938 0
M  V30 2443 H 228.137 1.42923 0.632662 0
M  V30 2444 H 228.872 0.908882 3.11303 0
M  V30 2445 H 228.657 2.66715 2.87412 0
M  V30 2446 H 230.147 2.04251 3.64241 0
M  V30 2447 N 230.584 -0.659388 1.43143 0
M  V30 2448 C 231.514 -1.78422 1.50625 0
M  V30 2449 C 232.495 -1.66216 0.361443 0
M  V30 2450 O 233.68 -1.85404 0.577834 0
M  V30 2451 C 230.81 -3.16815 1.42287 0
M  V30 2452 C 229.764 -3.43777 2.54954 0
M  V30 2453 C 229.09 -4.81905 2.31671 0
M  V30 2454 C 230.39 -3.39134 3.97222 0
M  V30 2455 H 232.084 -1.72417 2.44771 0
M  V30 2456 H 229.63 -0.828084 1.17808 0
M  V30 2457 H 231.583 -3.95253 1.46127 0
M  V30 2458 H 230.307 -3.23534 0.446435 0
M  V30 2459 H 228.966 -2.67707 2.50457 0
M  V30 2460 H 228.614 -4.85294 1.32284 0
M  V30 2461 H 228.314 -5.00906 3.07192 0
M  V30 2462 H 229.838 -5.62609 2.37284 0
M  V30 2463 H 231.252 -4.07518 4.03239 0
M  V30 2464 H 229.649 -3.69671 4.72719 0
M  V30 2465 H 230.719 -2.37426 4.22797 0
M  V30 2466 N 232.062 -1.29571 -0.897171 0
M  V30 2467 C 233.009 -1.14916 -2.00158 0
M  V30 2468 C 233.979 -0.0418149 -1.66047 0
M  V30 2469 O 235.164 -0.209793 -1.89643 0
M  V30 2470 C 232.304 -0.834307 -3.34863 0
M  V30 2471 C 231.417 -2.02234 -3.8174 0
M  V30 2472 C 230.552 -1.64664 -5.05034 0
M  V30 2473 C 229.591 -2.80033 -5.44286 0
M  V30 2474 N 228.728 -2.42843 -6.58765 0
M  V30 2475 H 233.568 -2.09403 -2.12025 0
M  V30 2476 H 231.105 -1.042 -1.0383 0
M  V30 2477 H 233.063 -0.632436 -4.12379 0
M  V30 2478 H 231.693 0.0736656 -3.22716 0
M  V30 2479 H 230.745 -2.33583 -3.00238 0
M  V30 2480 H 232.057 -2.88673 -4.06779 0
M  V30 2481 H 231.211 -1.4078 -5.9014 0
M  V30 2482 H 229.95 -0.753766 -4.8184 0
M  V30 2483 H 228.955 -3.04596 -4.57713 0
M  V30 2484 H 230.18 -3.69989 -5.6946 0
M  V30 2485 H 228.126 -1.56046 -6.3717 0
M  V30 2486 H 228.043 -3.22815 -6.83613 0
M  V30 2487 H 229.311 -2.22285 -7.47134 0
M  V30 2488 N 233.54 1.10788 -1.12088 0
M  V30 2489 C 234.77 1.86191 -0.895351 0
M  V30 2490 C 235.178 1.80763 0.558702 0
M  V30 2491 O 234.521 1.19188 1.39785 0
M  V30 2492 C 234.583 3.35659 -1.28737 0
M  V30 2493 C 234.247 3.64849 -2.75198 0
M  V30 2494 C 235.244 3.61757 -3.734 0
M  V30 2495 C 232.929 3.93641 -3.12013 0
M  V30 2496 C 234.923 3.87045 -5.06434 0
M  V30 2497 C 232.61 4.18585 -4.4523 0
M  V30 2498 C 233.608 4.15277 -5.42249 0
M  V30 2499 O 233.296 4.3959 -6.73065 0
M  V30 2500 H 233.028 0.595425 -0.32007 0
M  V30 2501 H 235.582 1.40992 -1.49367 0
M  V30 2502 H 233.812 3.81497 -0.63224 0
M  V30 2503 H 235.501 3.92441 -1.03656 0
M  V30 2504 H 236.267 3.39557 -3.46303 0
M  V30 2505 H 232.146 3.95348 -2.37109 0
M  V30 2506 H 235.69 3.84378 -5.82151 0
M  V30 2507 H 231.587 4.40264 -4.72057 0
M  V30 2508 H 232.355 4.57123 -6.78956 0
M  V30 2509 N 235.018 0.912232 1.28515 0
M  V30 2510 C 236.429 0.591352 1.77087 0
M  V30 2511 C 236.78 -0.8933 1.74684 0
M  V30 2512 O 235.905 -1.69876 1.34056 0
M  V30 2513 C 236.5 1.06668 3.2157 0
M  V30 2514 C 235.059 0.79675 3.67871 0
M  V30 2515 C 234.206 1.23427 2.48316 0
M  V30 2516 H 237.157 1.09365 1.15 0
M  V30 2517 H 237.178 0.407455 3.78312 0
M  V30 2518 H 236.69 2.14726 3.23287 0
M  V30 2519 H 234.791 -0.270679 3.71616 0
M  V30 2520 H 234.904 1.40343 4.58084 0
M  V30 2521 H 233.268 0.653036 2.46186 0
M  V30 2522 H 234.051 2.32316 2.52753 0
M  V30 2523 N 236.496 -1.42363 0.676048 0
M  V30 2524 C 237.459 -2.29199 0.00766941 0
M  V30 2525 C 238.459 -1.43389 -0.727745 0
M  V30 2526 O 239.649 -1.64764 -0.56556 0
M  V30 2527 C 236.781 -3.2591 -0.999785 0
M  V30 2528 H 237.974 -2.89794 0.771988 0
M  V30 2529 H 235.527 -1.50024 0.438468 0
M  V30 2530 H 236.262 -2.70256 -1.79255 0
M  V30 2531 H 236.047 -3.89202 -0.475829 0
M  V30 2532 H 237.537 -3.91028 -1.46583 0
M  V30 2533 N 237.974 -0.419461 -1.51915 0
M  V30 2534 C 238.922 0.415502 -2.28859 0
M  V30 2535 C 239.916 1.03674 -1.3397 0
M  V30 2536 O 241.122 0.973757 -1.51387 0
M  V30 2537 H 237.497 0.152786 -0.736315 0
M  V30 2538 H 239.468 -0.254531 -2.97312 0
M  V30 2539 C 238.217 1.51425 -3.12995 0
M  V30 2540 H 237.54 1.04556 -3.85886 0
M  V30 2541 H 238.98 2.07208 -3.6992 0
M  V30 2542 C 237.439 2.48745 -2.27217 0
M  V30 2543 O 237.969 3.52871 -1.9195 0
M  V30 2544 N 236.175 2.19202 -1.90785 0
M  V30 2545 H 235.722 1.34556 -2.19664 0
M  V30 2546 H 235.68 2.84561 -1.33687 0
M  V30 2547 N 239.452 1.56882 -0.150215 0
M  V30 2548 C 240.698 1.96518 0.500834 0
M  V30 2549 C 241.031 1.03527 1.64304 0
M  V30 2550 O 240.306 0.0782751 1.94342 0
M  V30 2551 C 240.589 3.45822 1.00395 0
M  V30 2552 C 240.442 4.49591 -0.136983 0
M  V30 2553 C 241.761 3.97704 1.88467 0
M  V30 2554 H 238.88 0.714535 0.18058 0
M  V30 2555 H 241.522 1.88577 -0.232091 0
M  V30 2556 H 239.672 3.5272 1.62851 0
M  V30 2557 H 241.344 4.5477 -0.77343 0
M  V30 2558 H 239.587 4.26441 -0.795652 0
M  V30 2559 H 240.258 5.51402 0.256815 0
M  V30 2560 H 242.734 3.93304 1.35834 0
M  V30 2561 H 241.61 5.0263 2.20578 0
M  V30 2562 H 241.871 3.40252 2.82279 0
M  V30 2563 N 240.93 -0.123565 1.57115 0
M  V30 2564 C 241.893 -1.13583 1.99076 0
M  V30 2565 C 242.893 -1.34564 0.880296 0
M  V30 2566 O 244.083 -1.31158 1.14644 0
M  V30 2567 C 241.215 -2.49128 2.32698 0
M  V30 2568 H 242.408 -0.775287 2.89706 0
M  V30 2569 H 239.961 -0.36771 1.51913 0
M  V30 2570 H 240.696 -2.90111 1.44934 0
M  V30 2571 H 240.481 -2.35255 3.13684 0
M  V30 2572 H 241.971 -3.2199 2.65918 0
M  V30 2573 N 242.408 -1.52605 -0.393616 0
M  V30 2574 C 243.654 -1.67672 -1.14079 0
M  V30 2575 C 243.987 -0.413121 -1.89755 0
M  V30 2576 O 243.262 0.588952 -1.85369 0
M  V30 2577 C 243.545 -2.9088 -2.12276 0
M  V30 2578 C 243.398 -4.27329 -1.40394 0
M  V30 2579 C 244.717 -3.09628 -3.12759 0
M  V30 2580 H 241.836 -0.610168 -0.413356 0
M  V30 2581 H 244.478 -1.85193 -0.424696 0
M  V30 2582 H 242.628 -2.76073 -2.73342 0
M  V30 2583 H 244.3 -4.53894 -0.82327 0
M  V30 2584 H 242.543 -4.2802 -0.705801 0
M  V30 2585 H 243.214 -5.09615 -2.12123 0
M  V30 2586 H 245.69 -3.23436 -2.61779 0
M  V30 2587 H 244.566 -3.97322 -3.78717 0
M  V30 2588 H 244.827 -2.23637 -3.81365 0
M  V30 2589 N 243.887 0.651787 -1.4349 0
M  V30 2590 C 245.164 1.40909 -1.35661 0
M  V30 2591 C 245.544 2.11099 -0.00511733 0
M  V30 2592 O 244.892 2.04892 1.0115 0
M  V30 2593 C 245.102 2.3926 -2.54078 0
M  V30 2594 C 246.45 3.03217 -2.97228 0
M  V30 2595 O 247.474 2.49588 -2.54135 0
M  V30 2596 O 246.333 4.00455 -3.71885 0
M  V30 2597 H 243.427 0.629625 -0.536191 0
M  V30 2598 H 245.973 0.678575 -1.55542 0
M  V30 2599 H 244.745 1.86352 -3.44076 0
M  V30 2600 H 244.368 3.1976 -2.36303 0
M  V30 2601 N 245.365 1.30045 0.890287 0
M  V30 2602 C 246.776 1.16738 1.45702 0
M  V30 2603 C 247.127 -0.233939 1.948 0
M  V30 2604 O 246.252 -1.13021 1.84541 0
M  V30 2605 C 246.847 2.11313 2.64825 0
M  V30 2606 C 245.406 2.02001 3.17604 0
M  V30 2607 C 244.553 2.01699 1.90296 0
M  V30 2608 H 247.504 1.42392 0.700726 0
M  V30 2609 H 247.525 1.69086 3.40867 0
M  V30 2610 H 247.037 3.13294 2.2906 0
M  V30 2611 H 245.138 1.03142 3.5804 0
M  V30 2612 H 245.251 2.90128 3.81264 0
M  V30 2613 H 243.615 1.46427 2.08402 0
M  V30 2614 H 244.398 3.05402 1.56795 0
M  V30 2615 N 246.843 -1.10192 1.12674 0
M  V30 2616 C 248.089 -1.82475 0.884915 0
M  V30 2617 C 248.422 -1.85093 -0.58773 0
M  V30 2618 O 247.697 -1.3134 -1.43457 0
M  V30 2619 C 247.98 -3.29018 1.46353 0
M  V30 2620 C 247.833 -3.34718 3.00473 0
M  V30 2621 C 249.152 -4.25473 1.12519 0
M  V30 2622 H 246.271 -0.662492 0.322915 0
M  V30 2623 H 248.913 -1.2913 1.39375 0
M  V30 2624 H 247.063 -3.74576 1.03077 0
M  V30 2625 H 248.735 -2.97622 3.52447 0
M  V30 2626 H 246.978 -2.74541 3.35872 0
M  V30 2627 H 247.649 -4.37918 3.36053 0
M  V30 2628 H 250.125 -3.88161 1.499 0
M  V30 2629 H 249.001 -5.26365 1.55663 0
M  V30 2630 H 249.262 -4.42084 0.0377407 0
M  V30 2631 N 248.321 -0.919034 -1.28029 0
M  V30 2632 C 249.231 -0.416756 -2.30869 0
M  V30 2633 C 250.247 0.498235 -1.66714 0
M  V30 2634 O 251.423 0.383144 -1.97722 0
M  V30 2635 C 248.488 0.330274 -3.45123 0
M  V30 2636 C 247.549 -0.618578 -4.2482 0
M  V30 2637 C 246.782 0.0928959 -5.33619 0
M  V30 2638 O 247.005 1.31375 -5.55065 0
M  V30 2639 O 245.939 -0.574499 -5.99152 0
M  V30 2640 H 249.765 -1.27043 -2.75851 0
M  V30 2641 H 247.35 -0.684052 -1.3282 0
M  V30 2642 H 249.232 0.751972 -4.14636 0
M  V30 2643 H 247.907 1.1597 -3.02213 0
M  V30 2644 H 246.814 -1.08978 -3.57875 0
M  V30 2645 H 248.147 -1.41497 -4.71423 0
M  V30 2646 N 249.799 1.42003 -0.683588 0
M  V30 2647 C 251.215 1.55625 -0.353976 0
M  V30 2648 C 251.415 1.66151 1.14 0
M  V30 2649 O 250.471 1.63329 1.92561 0
M  V30 2650 C 251.784 2.80171 -1.092 0
M  V30 2651 C 253.332 2.93954 -1.07518 0
M  V30 2652 C 253.807 4.21372 -1.79471 0
M  V30 2653 N 255.298 4.28303 -1.76381 0
M  V30 2654 C 256.033 5.25729 -2.28904 0
M  V30 2655 N 255.529 6.29254 -2.89846 0
M  V30 2656 N 257.322 5.17586 -2.19228 0
M  V30 2657 H 249.473 1.33415 -1.6527 0
M  V30 2658 H 251.736 0.64282 -0.696769 0
M  V30 2659 H 251.442 2.78561 -2.14701 0
M  V30 2660 H 251.316 3.7133 -0.662862 0
M  V30 2661 H 253.703 2.95086 -0.028475 0
M  V30 2662 H 253.784 2.04002 -1.54328 0
M  V30 2663 H 253.428 4.21001 -2.84114 0
M  V30 2664 H 253.358 5.10275 -1.30104 0
M  V30 2665 H 255.849 3.54119 -1.31939 0
M  V30 2666 H 256.162 6.99964 -3.27522 0
M  V30 2667 H 254.507 6.29791 -2.93919 0
M  V30 2668 H 257.698 4.35631 -1.71299 0
M  V30 2669 H 257.871 5.93348 -2.60466 0
M  V30 2670 N 251.277 0.427512 1.51691 0
M  V30 2671 C 252.524 -0.142229 2.02 0
M  V30 2672 C 252.852 -1.43566 1.31221 0
M  V30 2673 O 252.107 -1.91298 0.412744 0
M  V30 2674 C 252.406 -0.418249 3.54944 0
M  V30 2675 C 252.072 0.788187 4.43958 0
M  V30 2676 C 250.734 1.11906 4.68007 0
M  V30 2677 C 253.086 1.59347 4.96244 0
M  V30 2678 C 250.414 2.25608 5.41588 0
M  V30 2679 C 252.766 2.7214 5.71072 0
M  V30 2680 C 251.43 3.05692 5.93387 0
M  V30 2681 H 250.7 -0.0520451 0.73917 0
M  V30 2682 H 253.347 0.572697 1.82736 0
M  V30 2683 H 251.652 -1.21496 3.72486 0
M  V30 2684 H 253.349 -0.872339 3.91397 0
M  V30 2685 H 249.939 0.520344 4.2543 0
M  V30 2686 H 254.123 1.35106 4.77556 0
M  V30 2687 H 249.379 2.51929 5.57083 0
M  V30 2688 H 253.553 3.34914 6.10578 0
M  V30 2689 H 251.18 3.9391 6.50184 0
M  V30 2690 N 252.755 -1.56801 0.158532 0
M  V30 2691 C 254.004 -1.95665 -0.489702 0
M  V30 2692 C 254.317 -1.04654 -1.65248 0
M  V30 2693 O 255.523 -1.33146 -2.3661 0
M  V30 2694 C 253.979 -3.47874 -0.922582 0
M  V30 2695 C 253.587 -4.47489 0.213893 0
M  V30 2696 C 255.331 -3.95583 -1.53996 0
M  V30 2697 C 253.238 -5.90921 -0.237903 0
M  V30 2698 H 252.168 -0.730516 -0.186716 0
M  V30 2699 H 254.819 -1.81861 0.244722 0
M  V30 2700 H 253.201 -3.57051 -1.71261 0
M  V30 2701 H 254.375 -4.50017 0.991036 0
M  V30 2702 H 252.69 -4.09764 0.740407 0
M  V30 2703 H 255.287 -5.0019 -1.8898 0
M  V30 2704 H 255.63 -3.37789 -2.43319 0
M  V30 2705 H 256.163 -3.8937 -0.814611 0
M  V30 2706 H 252.902 -6.52559 0.620236 0
M  V30 2707 H 252.422 -5.91729 -0.980676 0
M  V30 2708 H 254.101 -6.43352 -0.686067 0
M  V30 2709 N 254.233 0.115231 -1.57178 0
M  V30 2710 C 255.48 0.822351 -1.8505 0
M  V30 2711 C 255.808 1.79701 -0.744168 0
M  V30 2712 O 255.063 1.93909 0.26414 0
M  V30 2713 C 255.362 1.60324 -3.19423 0
M  V30 2714 C 255.028 0.772536 -4.44233 0
M  V30 2715 C 253.69 0.543468 -4.78121 0
M  V30 2716 C 256.042 0.193746 -5.2084 0
M  V30 2717 C 253.37 -0.274583 -5.86057 0
M  V30 2718 C 255.722 -0.611517 -6.29637 0
M  V30 2719 C 254.386 -0.850867 -6.62055 0
M  V30 2720 H 253.656 0.30092 -0.677147 0
M  V30 2721 H 256.303 0.0845802 -1.91313 0
M  V30 2722 H 254.608 2.41203 -3.08753 0
M  V30 2723 H 256.305 2.1544 -3.38211 0
M  V30 2724 H 252.895 0.96117 -4.17683 0
M  V30 2725 H 257.079 0.357926 -4.95008 0
M  V30 2726 H 252.335 -0.469206 -6.09597 0
M  V30 2727 H 256.509 -1.06697 -6.88178 0
M  V30 2728 H 254.136 -1.48657 -7.45523 0
M  V30 2729 N 255.711 1.52812 0.385517 0
M  V30 2730 C 256.957 1.69225 1.12847 0
M  V30 2731 C 257.312 0.42864 1.87564 0
M  V30 2732 O 256.605 -0.57779 1.8268 0
M  V30 2733 C 256.799 2.86856 2.13187 0
M  V30 2734 C 256.628 4.24535 1.48325 0
M  V30 2735 C 255.398 4.89701 1.24585 0
M  V30 2736 C 257.596 5.05794 0.931501 0
M  V30 2737 N 255.578 6.11353 0.558644 0
M  V30 2738 C 256.949 6.1888 0.372552 0
M  V30 2739 C 259.004 4.90963 0.828248 0
M  V30 2740 C 257.707 7.18757 -0.279556 0
M  V30 2741 C 259.733 5.91095 0.189956 0
M  V30 2742 C 259.095 7.03489 -0.358207 0
M  V30 2743 H 255.194 0.67268 0.39878 0
M  V30 2744 H 257.778 1.9017 0.417528 0
M  V30 2745 H 255.949 2.67484 2.81614 0
M  V30 2746 H 257.681 2.92188 2.80014 0
M  V30 2747 H 254.436 4.48485 1.52178 0
M  V30 2748 H 254.86 6.76606 0.230983 0
M  V30 2749 H 259.502 4.04274 1.23784 0
M  V30 2750 H 257.22 8.05052 -0.701152 0
M  V30 2751 H 260.806 5.81694 0.111264 0
M  V30 2752 H 259.686 7.79642 -0.844314 0
M  V30 2753 N 257.189 -0.644168 1.43834 0
M  V30 2754 C 258.414 -1.43642 1.49605 0
M  V30 2755 C 258.839 -1.8773 0.117913 0
M  V30 2756 O 258.197 -1.57938 -0.890239 0
M  V30 2757 C 258.245 -2.6416 2.45463 0
M  V30 2758 O 257.349 -3.63538 1.94714 0
M  V30 2759 H 256.69 -0.430329 0.50568 0
M  V30 2760 H 259.22 -0.787448 1.8884 0
M  V30 2761 H 259.23 -3.11864 2.63068 0
M  V30 2762 H 257.905 -2.31414 3.45572 0
M  V30 2763 H 256.482 -3.2273 1.86814 0
M  V30 2764 N 258.668 -1.30515 -0.883378 0
M  V30 2765 C 259.893 -1.22487 -1.67367 0
M  V30 2766 C 260.318 0.208767 -1.86938 0
M  V30 2767 O 259.676 1.15015 -1.40148 0
M  V30 2768 C 259.724 -1.96041 -3.02655 0
M  V30 2769 O 258.828 -1.28859 -3.91751 0
M  V30 2770 H 258.169 -0.423573 -0.511353 0
M  V30 2771 H 260.699 -1.72362 -1.10239 0
M  V30 2772 H 260.709 -2.05124 -3.52687 0
M  V30 2773 H 259.384 -3.00307 -2.8773 0
M  V30 2774 H 257.961 -1.28141 -3.50192 0
M  V30 2775 N 260.146 1.09593 -1.13257 0
M  V30 2776 C 261.056 2.19739 -0.821691 0
M  V30 2777 C 262.072 1.72926 0.19302 0
M  V30 2778 O 263.248 2.01385 0.0244895 0
M  V30 2779 C 260.313 3.45482 -0.290333 0
M  V30 2780 C 259.374 4.06985 -1.36607 0
M  V30 2781 C 258.607 5.26726 -0.859975 0
M  V30 2782 O 258.83 5.69594 0.303082 0
M  V30 2783 O 257.764 5.7931 -1.63351 0
M  V30 2784 H 261.59 2.48781 -1.74189 0
M  V30 2785 H 259.175 1.18496 -0.909894 0
M  V30 2786 H 261.057 4.214 0.000674022 0
M  V30 2787 H 259.732 3.18047 0.602306 0
M  V30 2788 H 258.639 3.32712 -1.71037 0
M  V30 2789 H 259.972 4.38643 -2.23279 0
M  V30 2790 N 261.624 0.925811 1.2754 0
M  V30 2791 C 262.87 0.566092 1.94739 0
M  V30 2792 C 263.203 -0.890057 1.72603 0
M  V30 2793 O 262.478 -1.63467 1.05399 0
M  V30 2794 C 262.761 0.89054 3.48915 0
M  V30 2795 C 262.614 2.4003 3.80402 0
M  V30 2796 C 263.933 0.395101 4.38323 0
M  V30 2797 H 261.052 0.20714 0.707292 0
M  V30 2798 H 263.694 1.15725 1.50691 0
M  V30 2799 H 261.844 0.387452 3.86563 0
M  V30 2800 H 263.516 2.97494 3.52555 0
M  V30 2801 H 261.759 2.85028 3.2702 0
M  V30 2802 H 262.43 2.57785 4.8811 0
M  V30 2803 H 264.906 0.826241 4.07814 0
M  V30 2804 H 263.782 0.651086 5.45025 0
M  V30 2805 H 264.043 -0.704798 4.36446 0
M  V30 2806 N 263.102 -1.41638 0.69111 0
M  V30 2807 C 264.065 -2.29178 0.0319786 0
M  V30 2808 C 265.065 -1.44153 -0.712496 0
M  V30 2809 O 266.255 -1.65354 -0.548053 0
M  V30 2810 C 263.387 -3.26952 -0.965161 0
M  V30 2811 H 264.58 -2.88959 0.802681 0
M  V30 2812 H 262.133 -1.4955 0.454356 0
M  V30 2813 H 262.868 -2.72142 -1.76378 0
M  V30 2814 H 262.653 -3.89685 -0.434522 0
M  V30 2815 H 264.143 -3.92561 -1.42428 0
M  V30 2816 N 264.58 -0.43555 -1.51462 0
M  V30 2817 C 265.828 0.131254 -2.01673 0
M  V30 2818 C 266.149 1.43368 -1.32177 0
M  V30 2819 O 265.419 1.90524 -0.455769 0
M  V30 2820 H 263.999 0.0514954 -0.745223 0
M  V30 2821 H 266.661 -0.577847 -1.86137 0
M  V30 2822 H 265.757 0.308446 -3.10572 0
M  V30 2823 N 266.058 1.56714 -0.166846 0
M  V30 2824 C 267.283 2.01557 0.488833 0
M  V30 2825 C 267.708 1.0463 1.56314 0
M  V30 2826 O 267.066 0.0251304 1.81283 0
M  V30 2827 C 267.114 3.4503 1.04818 0
M  V30 2828 O 266.218 3.51163 2.16236 0
M  V30 2829 H 265.559 0.653516 0.117526 0
M  V30 2830 H 268.089 2.02818 -0.269421 0
M  V30 2831 H 268.099 3.84243 1.37191 0
M  V30 2832 H 266.774 4.15077 0.261572 0
M  V30 2833 H 265.351 3.23807 1.84942 0
M  V30 2834 N 267.536 -0.106894 1.57237 0
M  V30 2835 C 268.466 -1.13148 2.04254 0
M  V30 2836 C 269.447 -1.42476 0.929224 0
M  V30 2837 O 270.632 -1.52709 1.19973 0
M  V30 2838 C 267.762 -2.4545 2.45706 0
M  V30 2839 C 266.716 -2.30558 3.60592 0
M  V30 2840 C 266.042 -3.67931 3.87983 0
M  V30 2841 C 267.342 -1.75597 4.91897 0
M  V30 2842 H 269.036 -0.740374 2.90101 0
M  V30 2843 H 266.582 -0.354696 1.39563 0
M  V30 2844 H 268.535 -3.17389 2.77205 0
M  V30 2845 H 267.259 -2.86475 1.56843 0
M  V30 2846 H 265.918 -1.61067 3.29322 0
M  V30 2847 H 265.566 -4.06462 2.96306 0
M  V30 2848 H 265.266 -3.58817 4.65322 0
M  V30 2849 H 266.79 -4.41356 4.21945 0
M  V30 2850 H 268.204 -2.37364 5.21854 0
M  V30 2851 H 266.601 -1.77272 5.73319 0
M  V30 2852 H 267.671 -0.714451 4.79608 0
M  V30 2853 N 269.014 -1.53014 -0.377408 0
M  V30 2854 C 270.244 -1.72265 -1.14054 0
M  V30 2855 C 270.652 -0.44601 -1.83868 0
M  V30 2856 O 269.995 0.590095 -1.73964 0
M  V30 2857 C 270.057 -2.82492 -2.22348 0
M  V30 2858 C 269.721 -4.23233 -1.72402 0
M  V30 2859 C 270.718 -5.05992 -1.19448 0
M  V30 2860 C 268.403 -4.696 -1.78273 0
M  V30 2861 C 270.397 -6.33203 -0.730268 0
M  V30 2862 C 268.084 -5.96792 -1.31464 0
M  V30 2863 C 269.082 -6.78424 -0.789297 0
M  V30 2864 O 268.77 -8.0323 -0.328077 0
M  V30 2865 H 268.502 -0.579873 -0.347453 0
M  V30 2866 H 271.056 -2.00502 -0.445882 0
M  V30 2867 H 269.286 -2.49702 -2.95272 0
M  V30 2868 H 270.975 -2.90034 -2.83963 0
M  V30 2869 H 271.741 -4.71349 -1.14259 0
M  V30 2870 H 267.62 -4.06142 -2.18106 0
M  V30 2871 H 271.164 -6.96868 -0.319542 0
M  V30 2872 H 267.061 -6.30937 -1.36342 0
M  V30 2873 H 267.829 -8.1727 -0.448493 0
M  V30 2874 N 270.492 0.636531 -1.44174 0
M  V30 2875 C 271.908 0.954104 -1.27941 0
M  V30 2876 C 272.108 2.0039 -0.211248 0
M  V30 2877 O 271.164 2.49236 0.404695 0
M  V30 2878 C 272.477 1.4225 -2.64925 0
M  V30 2879 C 274.025 1.53827 -2.72592 0
M  V30 2880 C 274.5 2.04053 -4.10032 0
M  V30 2881 N 275.991 2.11331 -4.12182 0
M  V30 2882 C 276.726 2.51352 -5.15374 0
M  V30 2883 N 276.222 2.90549 -6.2893 0
M  V30 2884 N 278.015 2.51438 -5.02728 0
M  V30 2885 H 270.166 -0.0578386 -2.12321 0
M  V30 2886 H 272.429 0.0367406 -0.947288 0
M  V30 2887 H 272.135 0.725466 -3.44136 0
M  V30 2888 H 272.009 2.39451 -2.9145 0
M  V30 2889 H 274.396 2.22628 -1.93702 0
M  V30 2890 H 274.477 0.550154 -2.49814 0
M  V30 2891 H 274.121 1.35848 -4.89395 0
M  V30 2892 H 274.051 3.03726 -4.30184 0
M  V30 2893 H 276.542 1.83745 -3.30222 0
M  V30 2894 H 276.855 3.19884 -7.03487 0
M  V30 2895 H 275.2 2.88313 -6.32377 0
M  V30 2896 H 278.391 2.20203 -4.13072 0
M  V30 2897 H 278.564 2.82304 -5.83274 0
M  V30 2898 N 271.97 1.30982 0.876444 0
M  V30 2899 C 272.933 1.18054 1.96459 0
M  V30 2900 C 273.933 0.109399 1.60427 0
M  V30 2901 O 275.123 0.358173 1.70478 0
M  V30 2902 C 272.255 0.810616 3.31122 0
M  V30 2903 H 273.448 2.14735 2.09354 0
M  V30 2904 H 271.001 1.145 1.06392 0
M  V30 2905 H 271.736 -0.155322 3.23928 0
M  V30 2906 H 271.521 1.58481 3.58645 0
M  V30 2907 H 273.011 0.743876 4.10921 0
M  V30 2908 N 273.449 -1.08991 1.13837 0
M  V30 2909 C 274.726 -1.77863 0.813876 0
M  V30 2910 C 275.106 -1.99375 -0.693746 0
M  V30 2911 O 274.454 -1.59875 -1.63255 0
M  V30 2912 C 274.664 -3.0986 1.60586 0
M  V30 2913 C 276.012 -3.84493 1.8014 0
M  V30 2914 O 277.036 -3.19624 1.57222 0
M  V30 2915 O 275.895 -5.00957 2.18413 0
M  V30 2916 H 272.989 -0.771589 0.297624 0
M  V30 2917 H 275.535 -1.15507 1.24323 0
M  V30 2918 H 274.307 -2.89715 2.63022 0
M  V30 2919 H 273.93 -3.79942 1.17173 0
M  V30 2920 N 274.927 -0.932562 -1.27047 0
M  V30 2921 C 275.857 -0.452902 -2.29066 0
M  V30 2922 C 276.838 0.489338 -1.62909 0
M  V30 2923 O 278.023 0.393046 -1.90181 0
M  V30 2924 C 275.153 0.290698 -3.46081 0
M  V30 2925 C 274.107 -0.564168 -4.24265 0
M  V30 2926 C 273.433 0.308886 -5.33807 0
M  V30 2927 C 274.733 -1.83112 -4.89149 0
M  V30 2928 H 276.427 -1.30552 -2.69437 0
M  V30 2929 H 273.973 -0.629201 -1.29526 0
M  V30 2930 H 275.926 0.637233 -4.16554 0
M  V30 2931 H 274.65 1.17738 -3.0464 0
M  V30 2932 H 273.309 -0.893477 -3.55545 0
M  V30 2933 H 272.957 1.19467 -4.88607 0
M  V30 2934 H 272.657 -0.259633 -5.87026 0
M  V30 2935 H 274.181 0.650884 -6.07121 0
M  V30 2936 H 275.595 -1.55236 -5.51883 0
M  V30 2937 H 273.992 -2.34353 -5.52448 0
M  V30 2938 H 275.062 -2.54772 -4.12576 0
M  V30 2939 N 276.405 1.4127 -0.698611 0
M  V30 2940 C 277.682 1.94955 -0.158762 0
M  V30 2941 C 278.062 1.63781 1.33188 0
M  V30 2942 O 277.41 0.946423 2.07979 0
M  V30 2943 C 277.62 3.46044 -0.453309 0
M  V30 2944 C 278.968 4.22872 -0.382707 0
M  V30 2945 O 279.992 3.54076 -0.388396 0
M  V30 2946 O 278.851 5.45407 -0.345463 0
M  V30 2947 H 275.945 0.82683 -0.0167505 0
M  V30 2948 H 278.491 1.50971 -0.77498 0
M  V30 2949 H 277.263 3.62028 -1.48498 0
M  V30 2950 H 276.886 3.97128 0.19373 0
M  V30 2951 N 277.883 0.443576 1.51229 0
M  V30 2952 C 279.131 -0.120557 2.0174 0
M  V30 2953 C 279.452 -1.42665 1.32935 0
M  V30 2954 O 278.722 -1.9028 0.465866 0
M  V30 2955 H 277.302 -0.0475426 0.745486 0
M  V30 2956 H 279.964 0.587711 1.85828 0
M  V30 2957 H 279.06 -0.291972 3.10731 0
M  V30 2958 N 279.361 -1.56624 0.175154 0
M  V30 2959 C 280.607 -1.9729 -0.469506 0
M  V30 2960 C 280.94 -1.06128 -1.62636 0
M  V30 2961 O 280.215 -0.109183 -1.94193 0
M  V30 2962 C 280.498 -3.47375 -0.948804 0
M  V30 2963 C 280.351 -4.49317 0.208491 0
M  V30 2964 C 281.67 -4.00652 -1.82116 0
M  V30 2965 H 278.789 -0.717317 -0.16919 0
M  V30 2966 H 281.431 -1.88184 0.262062 0
M  V30 2967 H 279.581 -3.55267 -1.57219 0
M  V30 2968 H 281.253 -4.53482 0.845682 0
M  V30 2969 H 279.496 -4.25121 0.863395 0
M  V30 2970 H 280.167 -5.51741 -0.169059 0
M  V30 2971 H 282.643 -3.95416 -1.2956 0
M  V30 2972 H 281.519 -5.06075 -2.12554 0
M  V30 2973 H 281.78 -3.44699 -2.7683 0
M  V30 2974 N 280.839 0.0985539 -1.57292 0
M  V30 2975 C 282.087 0.801092 -1.85545 0
M  V30 2976 C 282.408 1.79438 -0.763353 0
M  V30 2977 O 281.678 1.94763 0.21073 0
M  V30 2978 H 280.258 0.29884 -0.684619 0
M  V30 2979 H 282.92 0.0810064 -1.94732 0
M  V30 2980 H 282.016 1.3338 -2.82163 0
M  V30 2981 N 282.317 1.53212 0.369288 0
M  V30 2982 C 283.563 1.69466 1.11397 0
M  V30 2983 C 283.896 0.443257 1.89074 0
M  V30 2984 O 283.171 -0.559386 1.86282 0
M  V30 2985 C 283.454 2.9422 2.07621 0
M  V30 2986 C 283.307 4.29508 1.33577 0
M  V30 2987 C 284.626 3.14565 3.07794 0
M  V30 2988 H 281.745 0.616667 0.403597 0
M  V30 2989 H 284.387 1.85845 0.395179 0
M  V30 2990 H 282.537 2.80387 2.68916 0
M  V30 2991 H 284.209 4.55147 0.750955 0
M  V30 2992 H 282.452 4.29088 0.637618 0
M  V30 2993 H 283.123 5.12926 2.03989 0
M  V30 2994 H 285.599 3.2756 2.56601 0
M  V30 2995 H 284.475 4.03297 3.72348 0
M  V30 2996 H 284.736 2.29675 3.77759 0
M  V30 2997 N 283.795 -0.628877 1.44509 0
M  V30 2998 C 284.742 -1.74074 1.51549 0
M  V30 2999 C 285.712 -1.62084 0.363021 0
M  V30 3000 O 286.897 -1.81975 0.573567 0
M  V30 3001 C 284.037 -3.12328 1.46784 0
M  V30 3002 C 283.15 -3.35277 2.72422 0
M  V30 3003 C 282.285 -4.63515 2.59475 0
M  V30 3004 C 281.324 -4.7965 3.80266 0
M  V30 3005 N 280.461 -5.99168 3.65981 0
M  V30 3006 H 285.301 -1.67392 2.46544 0
M  V30 3007 H 282.838 -0.816527 1.22357 0
M  V30 3008 H 284.796 -3.92286 1.42012 0
M  V30 3009 H 283.426 -3.18018 0.553544 0
M  V30 3010 H 282.478 -2.49242 2.87372 0
M  V30 3011 H 283.79 -3.43078 3.62076 0
M  V30 3012 H 282.944 -5.51638 2.52548 0
M  V30 3013 H 281.683 -4.58076 1.67384 0
M  V30 3014 H 280.688 -3.89957 3.87574 0
M  V30 3015 H 281.913 -4.86902 4.73395 0
M  V30 3016 H 279.859 -5.94814 2.76644 0
M  V30 3017 H 279.776 -6.08035 4.49254 0
M  V30 3018 H 281.044 -6.89846 3.6295 0
M  V30 3019 N 285.273 -1.31445 -0.869486 0
M  V30 3020 C 286.236 -1.19094 -1.9583 0
M  V30 3021 C 287.236 -0.117906 -1.60367 0
M  V30 3022 O 288.426 -0.367208 -1.70286 0
M  V30 3023 C 285.558 -0.828165 -3.30688 0
M  V30 3024 H 286.751 -2.15842 -2.08212 0
M  V30 3025 H 284.304 -1.15063 -1.05784 0
M  V30 3026 H 285.039 0.138142 -3.24006 0
M  V30 3027 H 284.824 -1.6038 -3.578 0
M  V30 3028 H 286.314 -0.765658 -4.10521 0
M  V30 3029 N 286.751 1.08385 -1.14413 0
M  V30 3030 C 287.681 2.17321 -0.854044 0
M  V30 3031 C 288.662 1.69024 0.191049 0
M  V30 3032 O 289.847 1.94141 0.0476779 0
M  V30 3033 C 286.977 3.45719 -0.330983 0
M  V30 3034 C 285.931 4.07409 -1.31155 0
M  V30 3035 C 285.257 5.30762 -0.64778 0
M  V30 3036 C 286.557 4.48665 -2.67388 0
M  V30 3037 H 288.251 2.41845 -1.76498 0
M  V30 3038 H 285.797 1.16233 -0.850051 0
M  V30 3039 H 287.75 4.21241 -0.115645 0
M  V30 3040 H 286.474 3.2075 0.615381 0
M  V30 3041 H 285.133 3.33919 -1.51306 0
M  V30 3042 H 284.781 5.02078 0.304398 0
M  V30 3043 H 284.481 5.72992 -1.30207 0
M  V30 3044 H 286.005 6.08998 -0.441972 0
M  V30 3045 H 287.419 5.15364 -2.51143 0
M  V30 3046 H 285.816 5.01814 -3.29093 0
M  V30 3047 H 286.886 3.60543 -3.24248 0
M  V30 3048 N 288.23 0.939286 1.26551 0
M  V30 3049 C 289.16 0.465044 2.28822 0
M  V30 3050 C 290.141 -0.480692 1.63167 0
M  V30 3051 O 291.326 -0.382955 1.90387 0
M  V30 3052 C 288.456 -0.27234 3.46231 0
M  V30 3053 C 287.41 0.58666 4.2396 0
M  V30 3054 C 286.736 -0.280573 5.33963 0
M  V30 3055 C 288.036 1.85704 4.88171 0
M  V30 3056 H 289.73 1.31979 2.68741 0
M  V30 3057 H 287.276 0.636061 1.29191 0
M  V30 3058 H 289.229 -0.615133 4.16886 0
M  V30 3059 H 287.953 -1.16121 3.0526 0
M  V30 3060 H 286.612 0.91232 3.55067 0
M  V30 3061 H 286.26 -1.16874 4.89234 0
M  V30 3062 H 285.96 0.29076 5.8688 0
M  V30 3063 H 287.484 -0.618678 6.07458 0
M  V30 3064 H 288.898 1.58161 5.51052 0
M  V30 3065 H 287.295 2.37279 5.51197 0
M  V30 3066 H 288.365 2.56957 4.11219 0
M  V30 3067 N 289.708 -1.40897 0.706093 0
M  V30 3068 C 290.618 -2.3455 0.0482286 0
M  V30 3069 C 291.634 -1.56796 -0.754396 0
M  V30 3070 O 292.81 -1.89228 -0.689538 0
M  V30 3071 C 289.875 -3.35625 -0.869303 0
M  V30 3072 C 288.936 -4.29261 -0.0576994 0
M  V30 3073 C 288.169 -5.25508 -0.931531 0
M  V30 3074 O 288.392 -5.27472 -2.17092 0
M  V30 3075 O 287.326 -6.00727 -0.375587 0
M  V30 3076 H 291.152 -2.92407 0.820476 0
M  V30 3077 H 288.737 -1.4193 0.4665 0
M  V30 3078 H 290.619 -3.97635 -1.39514 0
M  V30 3079 H 289.294 -2.80196 -1.62086 0
M  V30 3080 H 288.201 -3.70566 0.512988 0
M  V30 3081 H 289.534 -4.87817 0.655426 0
M  V30 3082 N 291.186 -0.45159 -1.50991 0
M  V30 3083 C 292.414 0.108334 -2.06616 0
M  V30 3084 C 292.829 1.35224 -1.31757 0
M  V30 3085 O 292.186 1.78475 -0.381174 0
M  V30 3086 C 292.237 0.41619 -3.59096 0
M  V30 3087 O 291.958 -0.778361 -4.3113 0
M  V30 3088 C 293.459 1.02523 -4.31282 0
M  V30 3089 H 290.679 0.00159995 -0.670998 0
M  V30 3090 H 293.223 -0.634771 -1.94399 0
M  V30 3091 H 291.378 1.10921 -3.71181 0
M  V30 3092 H 291.792 -0.511181 -5.22003 0
M  V30 3093 H 293.266 1.19053 -5.39009 0
M  V30 3094 H 293.743 2.01013 -3.905 0
M  V30 3095 H 294.349 0.371173 -4.23677 0
M  V30 3096 N 292.664 1.56529 -0.183458 0
M  V30 3097 C 293.889 2.02064 0.467428 0
M  V30 3098 C 294.314 1.06282 1.55196 0
M  V30 3099 O 293.672 0.0443565 1.81246 0
M  V30 3100 C 293.72 3.46122 1.01153 0
M  V30 3101 O 292.824 3.53437 2.12499 0
M  V30 3102 H 292.165 0.654726 0.110588 0
M  V30 3103 H 294.695 2.02521 -0.290917 0
M  V30 3104 H 294.705 3.85676 1.33108 0
M  V30 3105 H 293.38 4.15331 0.217533 0
M  V30 3106 H 291.957 3.2575 1.81497 0
M  V30 3107 N 294.142 -0.090211 1.57342 0
M  V30 3108 C 295.052 -1.12735 2.05738 0
M  V30 3109 C 296.068 -1.43557 0.983231 0
M  V30 3110 O 297.244 -1.54101 1.29672 0
M  V30 3111 C 294.309 -2.42659 2.47624 0
M  V30 3112 C 293.37 -2.18975 3.69254 0
M  V30 3113 C 292.603 -3.42704 4.09133 0
M  V30 3114 O 292.826 -4.51127 3.49057 0
M  V30 3115 O 291.76 -3.32003 5.02053 0
M  V30 3116 H 295.586 -0.746279 2.94388 0
M  V30 3117 H 293.171 -0.303064 1.46294 0
M  V30 3118 H 295.053 -3.19155 2.7517 0
M  V30 3119 H 293.728 -2.80182 1.62109 0
M  V30 3120 H 292.635 -1.40244 3.46818 0
M  V30 3121 H 293.968 -1.86342 4.55563 0
M  V30 3122 N 295.62 -1.53406 -0.361157 0
M  V30 3123 C 296.567 -1.80156 -1.44265 0
M  V30 3124 C 297.537 -0.646183 -1.53015 0
M  V30 3125 O 298.722 -0.888818 -1.68833 0
M  V30 3126 C 295.862 -2.00116 -2.81154 0
M  V30 3127 C 294.975 -3.27833 -2.81335 0
M  V30 3128 C 294.11 -3.37957 -4.09828 0
M  V30 3129 C 293.149 -4.59689 -4.04168 0
M  V30 3130 N 292.286 -4.66942 -5.24318 0
M  V30 3131 H 297.126 -2.72438 -1.20754 0
M  V30 3132 H 294.663 -1.34954 -0.585296 0
M  V30 3133 H 296.621 -2.09677 -3.60682 0
M  V30 3134 H 295.251 -1.11167 -3.03054 0
M  V30 3135 H 294.303 -3.27204 -1.94014 0
M  V30 3136 H 295.615 -4.17442 -2.73027 0
M  V30 3137 H 294.769 -3.46853 -4.97773 0
M  V30 3138 H 293.508 -2.46372 -4.20894 0
M  V30 3139 H 292.513 -4.50889 -3.14609 0
M  V30 3140 H 293.738 -5.5262 -3.947 0
M  V30 3141 H 291.684 -3.7826 -5.35962 0
M  V30 3142 H 291.601 -5.50462 -5.18197 0
M  V30 3143 H 292.869 -4.80127 -6.14084 0
M  V30 3144 N 297.098 0.621204 -1.44841 0
M  V30 3145 C 298.347 1.37658 -1.47422 0
M  V30 3146 C 298.66 1.95264 -0.114629 0
M  V30 3147 O 299.866 2.71494 -0.0180199 0
M  V30 3148 C 298.322 2.49285 -2.59586 0
M  V30 3149 C 297.93 1.98149 -4.01797 0
M  V30 3150 C 299.674 3.26409 -2.71399 0
M  V30 3151 C 297.581 3.07178 -5.05367 0
M  V30 3152 H 296.511 0.517344 -0.548517 0
M  V30 3153 H 299.162 0.667257 -1.70938 0
M  V30 3154 H 297.544 3.22839 -2.29328 0
M  V30 3155 H 298.718 1.31395 -4.41669 0
M  V30 3156 H 297.033 1.33812 -3.94314 0
M  V30 3157 H 299.63 4.07706 -3.45948 0
M  V30 3158 H 299.973 3.76535 -1.77559 0
M  V30 3159 H 300.506 2.5995 -3.01116 0
M  V30 3160 H 297.245 2.61985 -6.00869 0
M  V30 3161 H 296.765 3.72542 -4.70077 0
M  V30 3162 H 298.444 3.71789 -5.29511 0
M  V30 3163 N 298.576 1.31904 0.862503 0
M  V30 3164 C 299.804 1.24998 1.64873 0
M  V30 3165 C 300.219 -0.183425 1.87907 0
M  V30 3166 O 299.576 -1.11794 1.44251 0
M  V30 3167 C 299.627 1.99829 3.01248 0
M  V30 3168 O 299.348 3.37575 2.79239 0
M  V30 3169 C 300.849 1.99852 3.95694 0
M  V30 3170 H 298.069 0.431599 0.513773 0
M  V30 3171 H 300.613 1.73901 1.07604 0
M  V30 3172 H 298.768 1.54668 3.55185 0
M  V30 3173 H 299.182 3.75776 3.65914 0
M  V30 3174 H 300.656 2.56709 4.88676 0
M  V30 3175 H 301.133 0.982852 4.28062 0
M  V30 3176 H 301.739 2.44926 3.47694 0
M  V30 3177 N 300.054 -1.07777 1.14986 0
M  V30 3178 C 301.017 -2.13041 0.845358 0
M  V30 3179 C 302.017 -1.60071 -0.152931 0
M  V30 3180 O 303.207 -1.74033 0.0761879 0
M  V30 3181 C 300.339 -3.39896 0.261383 0
M  V30 3182 H 301.532 -2.41485 1.77834 0
M  V30 3183 H 299.085 -1.23595 0.956757 0
M  V30 3184 H 299.82 -3.17091 -0.68 0
M  V30 3185 H 299.605 -3.79642 0.980514 0
M  V30 3186 H 301.095 -4.17548 0.0657687 0
M  V30 3187 N 301.532 -0.945985 -1.26051 0
M  V30 3188 C 302.778 -0.597002 -1.93814 0
M  V30 3189 C 303.111 0.862484 -1.73997 0
M  V30 3190 O 302.386 1.61769 -1.07986 0
M  V30 3191 C 302.669 -0.945937 -3.47454 0
M  V30 3192 C 302.522 -2.46052 -3.76535 0
M  V30 3193 C 303.841 -0.464785 -4.37639 0
M  V30 3194 H 300.96 -0.218366 -0.703907 0
M  V30 3195 H 303.602 -1.18107 -1.48831 0
M  V30 3196 H 301.752 -0.448902 -3.85898 0
M  V30 3197 H 303.424 -3.03065 -3.47778 0
M  V30 3198 H 301.667 -2.90194 -3.22444 0
M  V30 3199 H 302.338 -2.65517 -4.83947 0
M  V30 3200 H 304.814 -0.891016 -4.06448 0
M  V30 3201 H 303.69 -0.737712 -5.4392 0
M  V30 3202 H 303.951 0.635274 -4.37512 0
M  V30 3203 N 303.011 1.40521 -0.713556 0
M  V30 3204 C 304.236 2.05759 -0.26035 0
M  V30 3205 C 304.661 1.53403 1.08854 0
M  V30 3206 O 304.019 0.668535 1.68524 0
M  V30 3207 C 304.067 3.59745 -0.248122 0
M  V30 3208 O 303.171 4.05123 0.77131 0
M  V30 3209 H 302.512 0.652564 -0.122703 0
M  V30 3210 H 305.042 1.79958 -0.973467 0
M  V30 3211 H 305.052 4.07911 -0.0851129 0
M  V30 3212 H 303.727 3.97218 -1.2325 0
M  V30 3213 H 302.304 3.68422 0.57619 0
M  V30 3214 N 304.489 0.459591 1.5075 0
M  V30 3215 C 305.419 -0.330644 2.31147 0
M  V30 3216 C 306.4 -1.00087 1.37538 0
M  V30 3217 O 307.585 -1.00025 1.66459 0
M  V30 3218 C 304.715 -1.41958 3.16962 0
M  V30 3219 C 303.669 -0.871608 4.19031 0
M  V30 3220 C 302.995 -2.05797 4.9351 0
M  V30 3221 C 304.295 0.109251 5.22186 0
M  V30 3222 H 305.989 0.340336 2.97459 0
M  V30 3223 H 303.535 0.165119 1.4305 0
M  V30 3224 H 305.488 -1.9798 3.71997 0
M  V30 3225 H 304.212 -2.11917 2.48513 0
M  V30 3226 H 302.871 -0.333442 3.6508 0
M  V30 3227 H 302.519 -2.74427 4.21544 0
M  V30 3228 H 302.219 -1.6976 5.62544 0
M  V30 3229 H 303.743 -2.62331 5.51375 0
M  V30 3230 H 305.157 -0.361405 5.7216 0
M  V30 3231 H 303.554 0.383316 5.98875 0
M  V30 3232 H 304.624 1.03887 4.73641 0
M  V30 3233 N 305.967 -1.56429 0.191757 0
M  V30 3234 C 307.244 -1.89224 -0.495332 0
M  V30 3235 C 307.624 -1.10478 -1.79883 0
M  V30 3236 O 306.972 -0.204852 -2.2758 0
M  V30 3237 C 307.182 -3.41548 -0.717367 0
M  V30 3238 C 308.53 -4.11711 -1.03823 0
M  V30 3239 O 309.554 -3.4698 -0.805204 0
M  V30 3240 O 308.413 -5.2611 -1.47887 0
M  V30 3241 H 305.507 -0.785788 -0.25781 0
M  V30 3242 H 308.053 -1.68111 0.231721 0
M  V30 3243 H 306.825 -3.90772 0.203287 0
M  V30 3244 H 306.448 -3.68342 -1.497 0
M  V30 3245 N 307.445 0.0818655 -1.57387 0
M  V30 3246 C 308.691 0.784074 -1.8703 0
M  V30 3247 C 309.024 1.77729 -0.782689 0
M  V30 3248 O 308.299 1.93384 0.208051 0
M  V30 3249 C 308.582 1.50105 -3.27323 0
M  V30 3250 C 308.435 0.524925 -4.46727 0
M  V30 3251 C 309.754 2.44843 -3.65705 0
M  V30 3252 H 306.873 0.283582 -0.680257 0
M  V30 3253 H 309.515 0.0474352 -1.89941 0
M  V30 3254 H 307.665 2.12897 -3.24972 0
M  V30 3255 H 309.337 -0.0970111 -4.61198 0
M  V30 3256 H 307.58 -0.160606 -4.33503 0
M  V30 3257 H 308.251 1.064 -5.41648 0
M  V30 3258 H 310.727 1.92135 -3.69085 0
M  V30 3259 H 309.603 2.92018 -4.64776 0
M  V30 3260 H 309.864 3.29197 -2.95096 0
M  V30 3261 N 308.923 1.53595 0.353017 0
M  V30 3262 C 309.853 1.83902 1.43883 0
M  V30 3263 C 310.834 0.693421 1.55324 0
M  V30 3264 O 312.019 0.944452 1.69687 0
M  V30 3265 C 309.149 2.04016 2.8106 0
M  V30 3266 C 308.103 3.19814 2.84434 0
M  V30 3267 C 307.429 3.25244 4.24406 0
M  V30 3268 C 308.729 4.58133 2.50822 0
M  V30 3269 H 310.423 2.74835 1.1877 0
M  V30 3270 H 307.969 1.32242 0.569917 0
M  V30 3271 H 309.922 2.238 3.57059 0
M  V30 3272 H 308.646 1.09804 3.07588 0
M  V30 3273 H 307.305 2.9987 2.10887 0
M  V30 3274 H 306.953 2.28646 4.48029 0
M  V30 3275 H 306.653 4.03054 4.27576 0
M  V30 3276 H 308.177 3.47228 5.0226 0
M  V30 3277 H 309.591 4.77995 3.16534 0
M  V30 3278 H 307.988 5.38276 2.6529 0
M  V30 3279 H 309.058 4.62387 1.46034 0
M  V30 3280 N 310.401 -0.613514 1.45168 0
M  V30 3281 C 311.678 -1.37263 1.39349 0
M  V30 3282 C 312.058 -2.11012 0.0610848 0
M  V30 3283 O 311.406 -2.07502 -0.956825 0
M  V30 3284 C 311.616 -2.3244 2.60332 0
M  V30 3285 C 312.964 -2.9523 3.05163 0
M  V30 3286 O 313.988 -2.42762 2.60663 0
M  V30 3287 O 312.847 -3.90454 3.82372 0
M  V30 3288 H 309.941 -0.615188 0.552696 0
M  V30 3289 H 312.487 -0.637097 1.57287 0
M  V30 3290 H 311.259 -1.77164 3.48896 0
M  V30 3291 H 310.882 -3.13383 2.44698 0
M  V30 3292 N 311.879 -1.3236 -0.855495 0
M  V30 3293 C 312.826 -1.21225 -1.964 0
M  V30 3294 C 313.796 -0.0946204 -1.6583 0
M  V30 3295 O 314.981 -0.27002 -1.8888 0
M  V30 3296 C 312.121 -0.940419 -3.32039 0
M  V30 3297 C 311.234 -2.14276 -3.75113 0
M  V30 3298 C 310.369 -1.80648 -4.9954 0
M  V30 3299 C 309.408 -2.97208 -5.35102 0
M  V30 3300 N 308.545 -2.63678 -6.50706 0
M  V30 3301 H 313.385 -2.16042 -2.05255 0
M  V30 3302 H 310.922 -1.07451 -1.00463 0
M  V30 3303 H 312.88 -0.763311 -4.10158 0
M  V30 3304 H 311.51 -0.0290413 -3.22787 0
M  V30 3305 H 310.562 -2.43017 -2.92655 0
M  V30 3306 H 311.874 -3.01468 -3.97389 0
M  V30 3307 H 311.028 -1.59484 -5.85363 0
M  V30 3308 H 309.767 -0.906678 -4.79198 0
M  V30 3309 H 308.772 -3.19004 -4.47791 0
M  V30 3310 H 309.997 -3.87918 -5.57401 0
M  V30 3311 H 307.943 -1.76238 -6.31883 0
M  V30 3312 H 307.86 -3.444 -6.72997 0
M  V30 3313 H 309.128 -2.45942 -7.39684 0
M  V30 3314 N 313.357 1.07166 -1.15556 0
M  V30 3315 C 314.773 1.31899 -0.898603 0
M  V30 3316 C 314.973 1.96333 0.453383 0
M  V30 3317 O 314.029 2.22438 1.19489 0
M  V30 3318 C 315.342 2.20826 -2.04099 0
M  V30 3319 C 316.89 2.34269 -2.07574 0
M  V30 3320 C 317.365 3.26546 -3.21141 0
M  V30 3321 N 318.856 3.34127 -3.20801 0
M  V30 3322 C 319.591 4.05595 -4.05315 0
M  V30 3323 N 319.087 4.79661 -4.99897 0
M  V30 3324 N 320.88 4.01555 -3.93332 0
M  V30 3325 H 313.031 0.637302 -2.02613 0
M  V30 3326 H 315.294 0.343468 -0.883591 0
M  V30 3327 H 315 1.80744 -3.01703 0
M  V30 3328 H 314.874 3.21364 -1.97496 0
M  V30 3329 H 317.261 2.73603 -1.10568 0
M  V30 3330 H 317.342 1.33429 -2.18244 0
M  V30 3331 H 316.986 2.87931 -4.184 0
M  V30 3332 H 316.916 4.27345 -3.07708 0
M  V30 3333 H 319.407 2.81336 -2.52306 0
M  V30 3334 H 319.72 5.31694 -5.60822 0
M  V30 3335 H 318.065 4.78671 -5.03884 0
M  V30 3336 H 321.256 3.42806 -3.18751 0
M  V30 3337 H 321.429 4.56987 -4.5942 0
M  V30 3338 N 314.835 0.952656 1.25548 0
M  V30 3339 C 315.765 0.489287 2.28316 0
M  V30 3340 C 316.746 -0.463359 1.63667 0
M  V30 3341 O 317.931 -0.36274 1.90782 0
M  V30 3342 C 315.061 -0.235603 3.465 0
M  V30 3343 C 314.015 0.631593 4.23314 0
M  V30 3344 C 313.341 -0.223923 5.34231 0
M  V30 3345 C 314.641 1.90871 4.86174 0
M  V30 3346 H 316.335 1.34822 2.67326 0
M  V30 3347 H 313.881 0.649728 1.28509 0
M  V30 3348 H 315.834 -0.570882 4.17515 0
M  V30 3349 H 314.558 -1.12877 3.06474 0
M  V30 3350 H 313.217 0.949929 3.54079 0
M  V30 3351 H 312.865 -1.11678 4.90446 0
M  V30 3352 H 312.565 0.35299 5.86539 0
M  V30 3353 H 314.089 -0.554214 6.0808 0
M  V30 3354 H 315.503 1.63997 5.49343 0
M  V30 3355 H 313.9 2.43112 5.4865 0
M  V30 3356 H 314.97 2.61304 4.08471 0
M  V30 3357 N 316.313 -1.40141 0.720998 0
M  V30 3358 C 317.56 -2.00787 0.262842 0
M  V30 3359 C 317.888 -1.5718 -1.14563 0
M  V30 3360 O 317.143 -0.785391 -1.79249 0
M  V30 3361 C 317.442 -3.56165 0.296892 0
M  V30 3362 C 317.108 -4.19373 1.65641 0
M  V30 3363 C 315.77 -4.36352 2.02855 0
M  V30 3364 C 318.122 -4.54578 2.54968 0
M  V30 3365 C 315.45 -4.8582 3.28931 0
M  V30 3366 C 317.802 -5.05447 3.80402 0
M  V30 3367 C 316.466 -5.20635 4.17726 0
M  V30 3368 H 315.736 -0.734731 0.0961807 0
M  V30 3369 H 318.383 -1.67673 0.925093 0
M  V30 3370 H 316.688 -3.8922 -0.448932 0
M  V30 3371 H 318.385 -4.00929 -0.0755208 0
M  V30 3372 H 314.975 -4.06549 1.35704 0
M  V30 3373 H 319.159 -4.41091 2.27491 0
M  V30 3374 H 314.415 -4.95764 3.57811 0
M  V30 3375 H 318.589 -5.31663 4.49786 0
M  V30 3376 H 316.216 -5.58728 5.15487 0
M  V30 3377 N 317.792 -0.46758 -1.50504 0
M  V30 3378 C 319.038 0.0808869 -2.03239 0
M  V30 3379 C 319.393 1.37721 -1.34353 0
M  V30 3380 O 318.686 1.86016 -0.459194 0
M  V30 3381 C 318.88 0.323995 -3.55928 0
M  V30 3382 C 318.709 -0.947215 -4.39611 0
M  V30 3383 C 317.479 -1.48951 -4.82848 0
M  V30 3384 C 319.677 -1.84166 -4.80195 0
M  V30 3385 N 317.659 -2.71011 -5.50842 0
M  V30 3386 C 319.03 -2.90815 -5.47564 0
M  V30 3387 C 321.085 -1.85246 -4.62156 0
M  V30 3388 C 319.788 -3.98529 -5.98805 0
M  V30 3389 C 321.814 -2.91914 -5.14335 0
M  V30 3390 C 321.176 -3.97282 -5.81676 0
M  V30 3391 H 317.275 -0.0103394 -0.781932 0
M  V30 3392 H 319.859 -0.635003 -1.84054 0
M  V30 3393 H 318.03 1.00892 -3.75067 0
M  V30 3394 H 319.762 0.866492 -3.95315 0
M  V30 3395 H 316.517 -1.03918 -4.62058 0
M  V30 3396 H 316.941 -3.32988 -5.89447 0
M  V30 3397 H 321.583 -1.05103 -4.09528 0
M  V30 3398 H 319.301 -4.79491 -6.50472 0
M  V30 3399 H 322.887 -2.93729 -5.0221 0
M  V30 3400 H 321.767 -4.78462 -6.21324 0
M  V30 3401 N 319.27 1.56325 -0.20005 0
M  V30 3402 C 320.519 1.96895 0.437652 0
M  V30 3403 C 320.832 1.08999 1.62415 0
M  V30 3404 O 322.038 1.39372 2.32997 0
M  V30 3405 C 320.494 3.50198 0.830025 0
M  V30 3406 C 320.102 4.46765 -0.332461 0
M  V30 3407 C 321.846 3.99526 1.43453 0
M  V30 3408 C 319.753 5.91344 0.0811468 0
M  V30 3409 H 318.683 0.735209 0.167282 0
M  V30 3410 H 321.334 1.81148 -0.292853 0
M  V30 3411 H 319.716 3.61467 1.61734 0
M  V30 3412 H 320.89 4.47231 -1.11 0
M  V30 3413 H 319.205 4.07657 -0.848789 0
M  V30 3414 H 321.802 5.05025 1.75652 0
M  V30 3415 H 322.145 3.44122 2.34277 0
M  V30 3416 H 322.678 3.91393 0.71109 0
M  V30 3417 H 319.417 6.50685 -0.793033 0
M  V30 3418 H 318.937 5.94121 0.823445 0
M  V30 3419 H 320.616 6.44945 0.515252 0
M  V30 3420 N 320.748 -0.0735177 1.57428 0
M  V30 3421 C 321.68 -1.11423 2.00294 0
M  V30 3422 C 322.693 -1.35084 0.908637 0
M  V30 3423 O 323.882 -1.33355 1.18654 0
M  V30 3424 C 320.982 -2.46548 2.32523 0
M  V30 3425 C 320.155 -2.42867 3.63778 0
M  V30 3426 C 319.214 -3.60087 3.83697 0
M  V30 3427 O 318.24 -3.41595 4.55304 0
M  V30 3428 N 319.442 -4.80372 3.25919 0
M  V30 3429 H 322.207 -0.749206 2.90184 0
M  V30 3430 H 319.768 -0.262195 1.59763 0
M  V30 3431 H 321.76 -3.23607 2.43024 0
M  V30 3432 H 320.33 -2.75059 1.48531 0
M  V30 3433 H 319.55 -1.51206 3.64047 0
M  V30 3434 H 320.838 -2.37506 4.49965 0
M  V30 3435 H 320.236 -4.983 2.67795 0
M  V30 3436 H 318.793 -5.54948 3.41871 0
M  V30 3437 N 322.226 -1.5378 -0.344866 0
M  V30 3438 C 323.456 -1.74646 -1.10374 0
M  V30 3439 C 323.864 -0.48491 -1.8288 0
M  V30 3440 O 323.207 0.553062 -1.75177 0
M  V30 3441 C 323.269 -2.87145 -2.16306 0
M  V30 3442 C 322.933 -4.26795 -1.63386 0
M  V30 3443 C 323.93 -5.08412 -1.08688 0
M  V30 3444 C 321.615 -4.73276 -1.68272 0
M  V30 3445 C 323.609 -6.34609 -0.595792 0
M  V30 3446 C 321.296 -5.99446 -1.18776 0
M  V30 3447 C 322.294 -6.79946 -0.645215 0
M  V30 3448 O 321.982 -8.03745 -0.157626 0
M  V30 3449 H 321.714 -0.587112 -0.335075 0
M  V30 3450 H 324.268 -2.01403 -0.403252 0
M  V30 3451 H 322.498 -2.55909 -2.89909 0
M  V30 3452 H 324.187 -2.95992 -2.77747 0
M  V30 3453 H 324.953 -4.73666 -1.04236 0
M  V30 3454 H 320.832 -4.10677 -2.09442 0
M  V30 3455 H 324.376 -6.97389 -0.171654 0
M  V30 3456 H 320.273 -6.33687 -1.22928 0
M  V30 3457 H 321.041 -8.18038 -0.275037 0
M  V30 3458 N 323.704 0.605807 -1.45491 0
M  V30 3459 C 324.652 1.73754 -1.54636 0
M  V30 3460 C 325.646 1.64207 -0.416219 0
M  V30 3461 O 326.852 1.69979 -0.592199 0
M  V30 3462 H 323.227 0.574073 -0.485741 0
M  V30 3463 H 325.198 1.63169 -2.49837 0
M  V30 3464 C 323.947 3.12135 -1.53189 0
M  V30 3465 H 323.27 3.20141 -2.39478 0
M  V30 3466 H 324.71 3.91147 -1.63645 0
M  V30 3467 C 323.169 3.35921 -0.256616 0
M  V30 3468 O 323.699 3.96194 0.662798 0
M  V30 3469 N 321.905 2.90204 -0.151751 0
M  V30 3470 H 321.452 2.41336 -0.90081 0
M  V30 3471 H 321.41 3.06492 0.700699 0
M  V30 3472 N 325.182 1.32811 0.848464 0
M  V30 3473 C 326.598 1.11937 1.13764 0
M  V30 3474 C 326.798 -0.0960789 2.01271 0
M  V30 3475 O 325.854 -0.779165 2.40178 0
M  V30 3476 C 327.167 2.402 1.809 0
M  V30 3477 C 328.715 2.46016 1.93508 0
M  V30 3478 C 329.19 3.74215 2.64059 0
M  V30 3479 N 330.681 3.75232 2.71579 0
M  V30 3480 C 331.416 4.71134 3.26833 0
M  V30 3481 N 330.912 5.77406 3.8285 0
M  V30 3482 N 332.705 4.58623 3.24995 0
M  V30 3483 H 324.856 2.1073 0.265855 0
M  V30 3484 H 327.119 0.930671 0.180431 0
M  V30 3485 H 326.825 3.29093 1.24058 0
M  V30 3486 H 326.699 2.51628 2.81004 0
M  V30 3487 H 329.086 1.57577 2.49506 0
M  V30 3488 H 329.167 2.38536 0.923811 0
M  V30 3489 H 328.811 4.63031 2.08722 0
M  V30 3490 H 328.741 3.78968 3.65637 0
M  V30 3491 H 331.232 2.98423 2.31845 0
M  V30 3492 H 331.545 6.46632 4.23187 0
M  V30 3493 H 329.89 5.81152 3.81165 0
M  V30 3494 H 333.081 3.74762 2.80484 0
M  V30 3495 H 333.254 5.33535 3.67756 0
M  V30 3496 N 326.66 -1.06551 1.16123 0
M  V30 3497 C 327.57 -2.17484 0.879662 0
M  V30 3498 C 328.586 -1.73377 -0.147104 0
M  V30 3499 O 329.762 -2.01379 0.0289128 0
M  V30 3500 C 326.827 -3.44591 0.381829 0
M  V30 3501 C 325.888 -4.0322 1.4735 0
M  V30 3502 C 325.121 -5.24261 0.999324 0
M  V30 3503 O 325.344 -5.70198 -0.151957 0
M  V30 3504 O 324.278 -5.74775 1.78653 0
M  V30 3505 H 328.104 -2.44075 1.80724 0
M  V30 3506 H 325.689 -1.16042 0.940992 0
M  V30 3507 H 327.571 -4.21254 0.111053 0
M  V30 3508 H 326.246 -3.19532 -0.51777 0
M  V30 3509 H 325.153 -3.2806 1.79798 0
M  V30 3510 H 326.486 -4.32568 2.34831 0
M  V30 3511 N 328.138 -0.959301 -1.25041 0
M  V30 3512 C 329.386 -0.615393 -1.92503 0
M  V30 3513 C 329.707 0.850969 -1.75452 0
M  V30 3514 O 328.977 1.60658 -1.12098 0
M  V30 3515 H 327.557 -0.224613 -0.712431 0
M  V30 3516 H 330.219 -1.21855 -1.5211 0
M  V30 3517 H 329.315 -0.848738 -3.00338 0
M  V30 3518 N 329.616 1.39756 -0.72842 0
M  V30 3519 C 330.841 2.05472 -0.282159 0
M  V30 3520 C 331.266 1.54549 1.07221 0
M  V30 3521 O 330.624 0.686372 1.67805 0
M  V30 3522 C 330.672 3.59462 -0.286264 0
M  V30 3523 O 329.776 4.05918 0.728298 0
M  V30 3524 H 329.117 0.651226 -0.129618 0
M  V30 3525 H 331.647 1.78915 -0.992499 0
M  V30 3526 H 331.657 4.07798 -0.128373 0
M  V30 3527 H 330.332 3.95889 -1.27456 0
M  V30 3528 H 328.909 3.69012 0.537081 0
M  V30 3529 N 331.094 0.475555 1.50254 0
M  V30 3530 C 332.042 -0.330276 2.30243 0
M  V30 3531 C 333.036 -0.986306 1.37726 0
M  V30 3532 O 334.242 -0.9169 1.54897 0
M  V30 3533 H 330.617 -0.125353 0.741479 0
M  V30 3534 H 332.588 0.364702 2.96163 0
M  V30 3535 C 331.337 -1.39704 3.18399 0
M  V30 3536 H 330.66 -0.901621 3.89501 0
M  V30 3537 H 332.1 -1.93336 3.77355 0
M  V30 3538 C 330.559 -2.4014 2.36293 0
M  V30 3539 O 331.089 -3.45504 2.04914 0
M  V30 3540 N 329.295 -2.1197 1.98789 0
M  V30 3541 H 328.842 -1.2631 2.24507 0
M  V30 3542 H 328.8 -2.79403 1.44157 0
M  V30 3543 N 332.573 -1.56217 0.208337 0
M  V30 3544 C 333.798 -2.02782 -0.435222 0
M  V30 3545 C 334.223 -1.08738 -1.53485 0
M  V30 3546 O 333.581 -0.0731855 -1.81152 0
M  V30 3547 C 333.629 -3.47687 -0.956335 0
M  V30 3548 O 332.733 -3.56773 -2.06849 0
M  V30 3549 H 332.074 -0.656403 -0.100158 0
M  V30 3550 H 334.604 -2.02033 0.3231 0
M  V30 3551 H 334.614 -3.87745 -1.26955 0
M  V30 3552 H 333.289 -4.15624 -0.15143 0
M  V30 3553 H 331.866 -3.28597 -1.76292 0
M  V30 3554 N 334.051 0.0651679 -1.57465 0
M  V30 3555 C 334.981 1.07693 -2.07182 0
M  V30 3556 C 335.962 1.39962 -0.966673 0
M  V30 3557 O 337.147 1.49475 -1.2398 0
M  V30 3558 C 334.277 2.3885 -2.52127 0
M  V30 3559 C 333.231 2.20917 -3.66579 0
M  V30 3560 C 332.557 3.57515 -3.97601 0
M  V30 3561 C 333.857 1.62493 -4.9638 0
M  V30 3562 H 335.551 0.663199 -2.91962 0
M  V30 3563 H 333.097 0.317569 -1.40455 0
M  V30 3564 H 335.05 3.09928 -2.85522 0
M  V30 3565 H 333.774 2.82215 -1.64384 0
M  V30 3566 H 332.433 1.52279 -3.33477 0
M  V30 3567 H 332.081 3.98463 -3.06979 0
M  V30 3568 H 331.781 3.46353 -4.74672 0
M  V30 3569 H 333.305 4.30013 -4.33499 0
M  V30 3570 H 334.719 2.23445 -5.27963 0
M  V30 3571 H 333.116 1.62009 -5.77818 0
M  V30 3572 H 334.186 0.587041 -4.81333 0
M  V30 3573 N 335.529 1.53961 0.336706 0
M  V30 3574 C 336.778 1.70751 1.07363 0
M  V30 3575 C 337.091 0.481061 1.89592 0
M  V30 3576 O 338.297 0.530046 2.66276 0
M  V30 3577 C 336.753 3.01965 1.95818 0
M  V30 3578 C 336.361 4.31971 1.18764 0
M  V30 3579 C 338.105 3.28121 2.69327 0
M  V30 3580 C 336.012 5.54255 2.06289 0
M  V30 3581 H 334.942 0.636292 0.404535 0
M  V30 3582 H 337.593 1.80459 0.332681 0
M  V30 3583 H 335.975 2.86132 2.7376 0
M  V30 3584 H 337.149 4.5853 0.456849 0
M  V30 3585 H 335.464 4.12481 0.569946 0
M  V30 3586 H 338.061 4.16673 3.35094 0
M  V30 3587 H 338.404 2.45426 3.36261 0
M  V30 3588 H 338.937 3.44762 1.98454 0
M  V30 3589 H 335.676 6.39513 1.43885 0
M  V30 3590 H 335.196 5.31935 2.77138 0
M  V30 3591 H 336.875 5.90159 2.65182 0
M  V30 3592 N 337.007 -0.598083 1.45811 0
M  V30 3593 C 338.247 -1.36802 1.5187 0
M  V30 3594 C 338.611 -1.9133 0.160224 0
M  V30 3595 O 339.812 -2.6863 0.0955302 0
M  V30 3596 C 338.083 -2.47835 2.57513 0
M  V30 3597 S 339.642 -3.35458 2.82866 0
M  V30 3598 H 336.46 -0.466278 0.536755 0
M  V30 3599 H 339.062 -0.689152 1.82951 0
M  V30 3600 H 337.766 -2.06141 3.54872 0
M  V30 3601 H 337.297 -3.20512 2.28114 0
M  V30 3602 H 339.312 -4.46251 2.16967 0
M  V30 3603 N 338.485 -1.33259 -0.841409 0
M  V30 3604 C 339.71 -1.2775 -1.63385 0
M  V30 3605 C 340.135 0.149188 -1.87507 0
M  V30 3606 O 339.493 1.10498 -1.43736 0
M  V30 3607 C 339.541 -2.05571 -2.96265 0
M  V30 3608 O 338.645 -1.41257 -3.87453 0
M  V30 3609 H 337.986 -0.439627 -0.497618 0
M  V30 3610 H 340.516 -1.75782 -1.04699 0
M  V30 3611 H 340.526 -2.16241 -3.45982 0
M  V30 3612 H 339.201 -3.09309 -2.7803 0
M  V30 3613 H 337.778 -1.39217 -3.45938 0
M  V30 3614 N 339.963 1.05934 -1.16686 0
M  V30 3615 C 341.203 1.80382 -0.961345 0
M  V30 3616 C 341.567 1.85331 0.501643 0
M  V30 3617 O 342.768 2.55795 0.825986 0
M  V30 3618 C 341.039 3.20777 -1.57596 0
M  V30 3619 S 342.598 4.11795 -1.51559 0
M  V30 3620 H 339.416 0.621332 -0.345641 0
M  V30 3621 H 342.018 1.27157 -1.48497 0
M  V30 3622 H 340.722 3.14773 -2.63337 0
M  V30 3623 H 340.253 3.79078 -1.05182 0
M  V30 3624 H 342.268 4.93485 -0.518374 0
M  V30 3625 N 341.441 0.965919 1.2453 0
M  V30 3626 C 342.718 0.543777 1.87889 0
M  V30 3627 C 343.098 -0.97909 1.87021 0
M  V30 3628 O 342.446 -1.84969 1.3416 0
M  V30 3629 C 342.656 1.13327 3.30088 0
M  V30 3630 C 344.004 1.21707 4.06783 0
M  V30 3631 O 345.028 1.08566 3.39252 0
M  V30 3632 O 343.887 1.42456 5.27606 0
M  V30 3633 H 340.981 0.181054 0.806938 0
M  V30 3634 H 343.527 1.06007 1.32516 0
M  V30 3635 H 342.299 2.17612 3.25209 0
M  V30 3636 H 341.922 0.600911 3.93033 0
M  V30 3637 N 342.919 -1.39368 0.735821 0
M  V30 3638 C 344.149 -2.04498 0.293967 0
M  V30 3639 C 344.557 -1.55593 -1.07645 0
M  V30 3640 O 343.9 -0.716324 -1.69158 0
M  V30 3641 C 343.962 -3.58836 0.218342 0
M  V30 3642 C 343.626 -4.30721 1.52736 0
M  V30 3643 C 344.623 -4.57305 2.47322 0
M  V30 3644 C 342.308 -4.69251 1.79189 0
M  V30 3645 C 344.302 -5.21429 3.66593 0
M  V30 3646 C 341.989 -5.33104 2.98737 0
M  V30 3647 C 342.987 -5.59125 3.9226 0
M  V30 3648 O 342.675 -6.21653 5.09708 0
M  V30 3649 H 342.407 -0.664118 0.126189 0
M  V30 3650 H 344.961 -1.79385 1.00051 0
M  V30 3651 H 343.191 -3.8285 -0.544314 0
M  V30 3652 H 344.88 -4.05447 -0.191626 0
M  V30 3653 H 345.646 -4.27983 2.28156 0
M  V30 3654 H 341.525 -4.48354 1.07239 0
M  V30 3655 H 345.069 -5.41656 4.39607 0
M  V30 3656 H 340.966 -5.61846 3.17803 0
M  V30 3657 H 341.734 -6.40146 5.10054 0
M  V30 3658 N 344.397 -0.483516 -1.5 0
M  V30 3659 C 345.674 0.129337 -1.95172 0
M  V30 3660 C 346.054 1.55802 -1.4244 0
M  V30 3661 O 345.402 2.19625 -0.630649 0
M  V30 3662 C 345.612 0.0599251 -3.48949 0
M  V30 3663 C 346.96 0.242617 -4.23906 0
M  V30 3664 O 347.984 0.135933 -3.55941 0
M  V30 3665 O 346.843 0.459454 -5.44565 0
M  V30 3666 H 343.937 0.104887 -0.820322 0
M  V30 3667 H 346.483 -0.544807 -1.60717 0
M  V30 3668 H 345.255 -0.937079 -3.79914 0
M  V30 3669 H 344.878 0.774984 -3.89974 0
M  V30 3670 N 345.875 1.56104 -0.216619 0
M  V30 3671 C 347.123 1.97781 0.415593 0
M  V30 3672 C 347.444 1.10536 1.60645 0
M  V30 3673 O 346.714 0.181303 1.95059 0
M  V30 3674 H 345.294 0.730415 0.156534 0
M  V30 3675 H 347.956 1.92445 -0.308366 0
M  V30 3676 H 347.052 3.03072 0.74525 0
M  V30 3677 N 347.353 -0.0568162 1.57498 0
M  V30 3678 C 348.601 -0.751617 1.87604 0
M  V30 3679 C 348.922 -1.77351 0.81066 0
M  V30 3680 O 348.192 -1.95254 -0.159018 0
M  V30 3681 H 346.772 -0.280583 0.692302 0
M  V30 3682 H 349.434 -0.0293483 1.94878 0
M  V30 3683 H 348.53 -1.25852 2.856 0
M  V30 3684 N 348.832 -1.54138 -0.328536 0
M  V30 3685 C 350.057 -1.76378 -1.09112 0
M  V30 3686 C 350.482 -0.508596 -1.81094 0
M  V30 3687 O 349.84 0.539598 -1.73084 0
M  V30 3688 C 349.888 -2.95358 -2.06872 0
M  V30 3689 O 348.992 -2.66556 -3.14677 0
M  V30 3690 H 348.333 -0.584614 -0.314838 0
M  V30 3691 H 350.863 -2.01146 -0.374348 0
M  V30 3692 H 350.873 -3.22566 -2.4983 0
M  V30 3693 H 349.548 -3.86385 -1.5388 0
M  V30 3694 H 348.125 -2.50282 -2.7643 0
M  V30 3695 N 350.31 0.590341 -1.46126 0
M  V30 3696 C 351.556 1.35082 -1.51264 0
M  V30 3697 C 351.889 1.93534 -0.160711 0
M  V30 3698 O 351.164 1.76045 0.826956 0
M  V30 3699 C 351.447 2.48588 -2.6053 0
M  V30 3700 C 351.3 1.95221 -4.05227 0
M  V30 3701 C 352.619 3.50662 -2.6594 0
M  V30 3702 H 349.738 0.489803 -0.550692 0
M  V30 3703 H 352.38 0.663887 -1.78024 0
M  V30 3704 H 350.53 3.07186 -2.37843 0
M  V30 3705 H 352.202 1.41139 -4.39178 0
M  V30 3706 H 350.445 1.26101 -4.15068 0
M  V30 3707 H 351.116 2.77121 -4.77397 0
M  V30 3708 H 353.592 3.01934 -2.86313 0
M  V30 3709 H 352.468 4.27551 -3.44226 0
M  V30 3710 H 352.729 4.07399 -1.71694 0
M  V30 3711 N 351.788 1.33704 0.83433 0
M  V30 3712 C 352.738 1.20899 1.93306 0
M  V30 3713 C 353.722 0.110783 1.60518 0
M  V30 3714 O 354.914 0.339331 1.73717 0
M  V30 3715 C 352.043 0.955018 3.29749 0
M  V30 3716 C 351.129 2.09587 3.68692 0
M  V30 3717 N 351.52 3.34621 3.79292 0
M  V30 3718 C 349.818 2.00358 3.98463 0
M  V30 3719 C 350.519 4.09472 4.13167 0
M  V30 3720 N 349.495 3.37954 4.25779 0
M  V30 3721 H 353.297 2.15665 1.99664 0
M  V30 3722 H 350.811 1.25777 1.02732 0
M  V30 3723 H 352.808 0.844208 4.08263 0
M  V30 3724 H 351.468 0.0159317 3.24696 0
M  V30 3725 H 352.479 3.69313 3.63082 0
M  V30 3726 H 349.156 1.14137 4.01596 0
M  V30 3727 H 350.546 5.17391 4.28668 0
M  V30 3728 N 353.266 -1.05314 1.17247 0
M  V30 3729 C 354.515 -1.77685 0.954521 0
M  V30 3730 C 354.828 -1.88616 -0.518025 0
M  V30 3731 O 356.034 -2.57714 -0.854144 0
M  V30 3732 C 354.49 -3.19402 1.65863 0
M  V30 3733 C 354.098 -3.16605 3.16963 0
M  V30 3734 C 355.842 -3.96237 1.52303 0
M  V30 3735 C 353.749 -4.53103 3.80068 0
M  V30 3736 H 352.679 -0.666 0.353496 0
M  V30 3737 H 355.33 -1.1805 1.40486 0
M  V30 3738 H 353.712 -3.79355 1.13602 0
M  V30 3739 H 354.886 -2.66176 3.76148 0
M  V30 3740 H 353.201 -2.53268 3.30521 0
M  V30 3741 H 355.798 -4.97157 1.96822 0
M  V30 3742 H 356.141 -4.136 0.473401 0
M  V30 3743 H 356.674 -3.42829 2.01775 0
M  V30 3744 H 353.413 -4.40946 4.85023 0
M  V30 3745 H 352.933 -5.03686 3.2567 0
M  V30 3746 H 354.612 -5.22045 3.82202 0
M  V30 3747 N 354.744 -0.972509 -1.24016 0
M  V30 3748 C 355.969 -0.654417 -1.96805 0
M  V30 3749 C 356.394 0.770398 -1.716 0
M  V30 3750 O 355.752 1.52361 -0.982647 0
M  V30 3751 C 355.8 -0.941031 -3.48105 0
M  V30 3752 O 354.904 -0.0289472 -4.1239 0
M  V30 3753 H 354.245 -0.24692 -0.616382 0
M  V30 3754 H 356.775 -1.30396 -1.57664 0
M  V30 3755 H 356.785 -0.87452 -3.98517 0
M  V30 3756 H 355.46 -1.97939 -3.65777 0
M  V30 3757 H 354.037 -0.149192 -3.72601 0
M  V30 3758 N 356.222 1.38976 -0.743202 0
M  V30 3759 C 357.169 2.30544 -0.10861 0
M  V30 3760 C 358.139 1.49642 0.720869 0
M  V30 3761 O 359.324 1.78304 0.679142 0
M  V30 3762 C 356.464 3.36018 0.786496 0
M  V30 3763 C 355.577 4.31963 -0.0564849 0
M  V30 3764 C 354.712 5.24506 0.840657 0
M  V30 3765 C 353.751 6.121 -0.00658363 0
M  V30 3766 N 352.888 6.96973 0.846943 0
M  V30 3767 H 357.728 2.8424 -0.895088 0
M  V30 3768 H 355.265 1.3995 -0.453048 0
M  V30 3769 H 357.223 3.95768 1.31999 0
M  V30 3770 H 355.853 2.83758 1.53887 0
M  V30 3771 H 354.905 3.73763 -0.707492 0
M  V30 3772 H 356.217 4.93703 -0.711229 0
M  V30 3773 H 355.371 5.89322 1.4417 0
M  V30 3774 H 354.11 4.63107 1.52916 0
M  V30 3775 H 353.115 5.46289 -0.620366 0
M  V30 3776 H 354.34 6.75565 -0.691992 0
M  V30 3777 H 352.286 6.38133 1.52059 0
M  V30 3778 H 352.203 7.5559 0.248864 0
M  V30 3779 H 353.471 7.6621 1.43328 0
M  V30 3780 N 357.7 0.491464 1.49741 0
M  V30 3781 C 358.65 -0.311086 2.25868 0
M  V30 3782 C 359.634 -0.943857 1.30308 0
M  V30 3783 O 360.826 -0.853035 1.55088 0
M  V30 3784 C 357.955 -1.38059 3.14316 0
M  V30 3785 C 357.041 -0.754541 4.17334 0
M  V30 3786 N 357.432 0.137216 5.05614 0
M  V30 3787 C 355.73 -1.01621 4.34269 0
M  V30 3788 C 356.431 0.494614 5.79593 0
M  V30 3789 N 355.407 -0.135169 5.43432 0
M  V30 3790 H 359.209 0.37555 2.91491 0
M  V30 3791 H 356.723 0.306917 1.59473 0
M  V30 3792 H 358.72 -1.96891 3.67477 0
M  V30 3793 H 357.38 -2.06901 2.50244 0
M  V30 3794 H 358.391 0.50741 5.15408 0
M  V30 3795 H 355.068 -1.69808 3.81407 0
M  V30 3796 H 356.458 1.2236 6.60665 0
M  V30 3797 N 359.178 -1.55987 0.224894 0
M  V30 3798 C 360.589 -1.84553 -0.282345 0
M  V30 3799 C 360.94 -1.14634 -1.59227 0
M  V30 3800 O 360.065 -0.417155 -2.12341 0
M  V30 3801 C 360.66 -3.348 -0.519062 0
M  V30 3802 C 359.219 -3.63671 -0.970604 0
M  V30 3803 C 358.366 -2.77277 -0.0355261 0
M  V30 3804 H 361.317 -1.52245 0.448006 0
M  V30 3805 H 361.338 -3.55187 -1.36463 0
M  V30 3806 H 360.85 -3.8566 0.43449 0
M  V30 3807 H 358.951 -3.1827 -1.9374 0
M  V30 3808 H 359.064 -4.71631 -0.842698 0
M  V30 3809 H 357.428 -2.48846 -0.542927 0
M  V30 3810 H 358.211 -3.30937 0.913003 0
M  V30 3811 N 360.656 0.0484629 -1.57525 0
M  V30 3812 C 361.884 0.755421 -1.92616 0
M  V30 3813 C 362.299 1.69919 -0.822984 0
M  V30 3814 O 361.656 1.81378 0.202085 0
M  V30 3815 C 361.707 1.52915 -3.27566 0
M  V30 3816 O 361.428 0.62329 -4.33644 0
M  V30 3817 C 362.929 2.33502 -3.76818 0
M  V30 3818 H 360.149 0.213465 -0.63614 0
M  V30 3819 H 362.693 0.0117698 -2.04497 0
M  V30 3820 H 360.848 2.22486 -3.17142 0
M  V30 3821 H 361.262 1.16383 -5.11425 0
M  V30 3822 H 362.736 2.83214 -4.73808 0
M  V30 3823 H 363.213 3.14068 -3.07014 0
M  V30 3824 H 363.819 1.69043 -3.90262 0
M  V30 3825 N 362.134 1.5431 0.320358 0
M  V30 3826 C 363.066 1.80262 1.41556 0
M  V30 3827 C 364.079 0.684723 1.477 0
M  V30 3828 O 365.268 0.961886 1.50366 0
M  V30 3829 C 362.368 1.90825 2.8007 0
M  V30 3830 C 361.541 3.21023 2.97091 0
M  V30 3831 C 360.6 3.22247 4.15985 0
M  V30 3832 O 359.626 3.95871 4.08992 0
M  V30 3833 N 360.828 2.46258 5.25678 0
M  V30 3834 H 363.593 2.74778 1.19655 0
M  V30 3835 H 361.154 1.53646 0.510358 0
M  V30 3836 H 363.146 1.89067 3.57821 0
M  V30 3837 H 361.716 1.03392 2.95006 0
M  V30 3838 H 360.936 3.35715 2.06614 0
M  V30 3839 H 362.224 4.0698 3.05361 0
M  V30 3840 H 361.622 1.86037 5.34235 0
M  V30 3841 H 360.179 2.50275 6.01835 0
M  V30 3842 N 363.613 -0.582584 1.46437 0
M  V30 3843 C 364.563 -1.68654 1.53426 0
M  V30 3844 C 365.547 -1.55971 0.395194 0
M  V30 3845 O 366.739 -1.64884 0.643612 0
M  V30 3846 C 363.868 -3.07439 1.52762 0
M  V30 3847 C 362.954 -3.25418 2.71963 0
M  V30 3848 N 363.345 -3.13556 3.96883 0
M  V30 3849 C 361.643 -3.56357 2.68189 0
M  V30 3850 C 362.344 -3.33543 4.76575 0
M  V30 3851 N 361.32 -3.58704 4.08451 0
M  V30 3852 H 365.122 -1.58014 2.47808 0
M  V30 3853 H 362.636 -0.786617 1.42078 0
M  V30 3854 H 364.633 -3.86671 1.55857 0
M  V30 3855 H 363.293 -3.1921 0.594573 0
M  V30 3856 H 364.304 -2.9142 4.28129 0
M  V30 3857 H 360.981 -3.74812 1.83908 0
M  V30 3858 H 362.371 -3.29555 5.85528 0
M  V30 3859 N 365.091 -1.34144 -0.827227 0
M  V30 3860 C 366.039 -1.25364 -1.95925 0
M  V30 3861 C 367.033 -0.152608 -1.68711 0
M  V30 3862 O 368.239 -0.317311 -1.77181 0
M  V30 3863 H 364.614 -0.389342 -0.643364 0
M  V30 3864 H 366.585 -2.21045 -2.00454 0
M  V30 3865 C 365.334 -1.02158 -3.32354 0
M  V30 3866 H 364.657 -1.86111 -3.5384 0
M  V30 3867 H 366.097 -1.00048 -4.12027 0
M  V30 3868 C 364.556 0.275244 -3.35774 0
M  V30 3869 O 365.086 1.27806 -3.80826 0
M  V30 3870 N 363.292 0.306853 -2.88975 0
M  V30 3871 H 362.839 -0.509777 -2.52506 0
M  V30 3872 H 362.797 1.17432 -2.91646 0
M  V30 3873 N 366.569 1.04691 -1.17803 0
M  V30 3874 C 367.499 2.14494 -0.92275 0
M  V30 3875 C 368.48 1.69546 0.137179 0
M  V30 3876 O 369.665 1.94195 -0.0141108 0
M  V30 3877 C 366.795 3.44491 -0.440803 0
M  V30 3878 C 365.749 4.03031 -1.4405 0
M  V30 3879 C 365.075 5.28432 -0.81631 0
M  V30 3880 C 366.375 4.39932 -2.81527 0
M  V30 3881 H 368.069 2.36107 -1.84103 0
M  V30 3882 H 365.615 1.1347 -0.886599 0
M  V30 3883 H 367.568 4.2066 -0.249602 0
M  V30 3884 H 366.292 3.22546 0.513025 0
M  V30 3885 H 364.951 3.28937 -1.61853 0
M  V30 3886 H 364.599 5.02792 0.144511 0
M  V30 3887 H 364.299 5.68559 -1.48371 0
M  V30 3888 H 365.823 6.07284 -0.635496 0
M  V30 3889 H 367.237 5.07113 -2.67412 0
M  V30 3890 H 365.634 4.9109 -3.44892 0
M  V30 3891 H 366.704 3.50045 -3.35554 0
M  V30 3892 N 368.047 0.979072 1.23499 0
M  V30 3893 C 369.294 0.647219 1.91878 0
M  V30 3894 C 369.622 -0.819074 1.76413 0
M  V30 3895 O 368.877 -1.60616 1.11808 0
M  V30 3896 C 369.176 0.981932 3.43646 0
M  V30 3897 C 368.842 2.43822 3.79291 0
M  V30 3898 C 367.504 2.83622 3.88731 0
M  V30 3899 C 369.856 3.3828 3.96505 0
M  V30 3900 C 367.184 4.16897 4.12812 0
M  V30 3901 C 369.536 4.71197 4.22085 0
M  V30 3902 C 368.2 5.10758 4.29747 0
M  V30 3903 H 367.47 0.236834 0.702133 0
M  V30 3904 H 370.117 1.23268 1.46551 0
M  V30 3905 H 368.422 0.314365 3.90537 0
M  V30 3906 H 370.119 0.703395 3.94783 0
M  V30 3907 H 366.709 2.11966 3.72516 0
M  V30 3908 H 370.893 3.0871 3.88603 0
M  V30 3909 H 366.149 4.47157 4.16966 0
M  V30 3910 H 370.323 5.44348 4.34348 0
M  V30 3911 H 367.95 6.1405 4.48159 0
M  V30 3912 N 369.525 -1.3858 0.750561 0
M  V30 3913 C 370.488 -2.28836 0.129152 0
M  V30 3914 C 371.488 -1.47045 -0.650714 0
M  V30 3915 O 372.678 -1.6753 -0.477428 0
M  V30 3916 C 369.81 -3.30751 -0.825622 0
M  V30 3917 H 371.003 -2.85294 0.924516 0
M  V30 3918 H 368.556 -1.47489 0.517376 0
M  V30 3919 H 369.291 -2.79378 -1.64677 0
M  V30 3920 H 369.076 -3.91177 -0.268852 0
M  V30 3921 H 370.566 -3.98249 -1.2565 0
M  V30 3922 N 371.003 -0.499398 -1.49478 0
M  V30 3923 C 371.936 0.326491 -2.25852 0
M  V30 3924 C 372.914 0.971776 -1.30366 0
M  V30 3925 O 374.098 1.00219 -1.59651 0
M  V30 3926 C 371.225 1.45969 -3.05632 0
M  V30 3927 C 370.271 0.928938 -4.16261 0
M  V30 3928 S 371.104 -0.179012 -5.35201 0
M  V30 3929 C 372.26 0.957389 -6.18534 0
M  V30 3930 H 372.493 -0.321746 -2.95554 0
M  V30 3931 H 370.026 -0.284674 -1.51753 0
M  V30 3932 H 371.984 2.109 -3.52181 0
M  V30 3933 H 370.645 2.07953 -2.35402 0
M  V30 3934 H 369.838 1.77813 -4.71592 0
M  V30 3935 H 369.44 0.356869 -3.72293 0
M  V30 3936 H 371.732 1.86296 -6.51383 0
M  V30 3937 H 372.675 0.442733 -7.06715 0
M  V30 3938 H 373.083 1.224 -5.5107 0
M  V30 3939 N 372.481 1.55866 -0.233164 0
M  V30 3940 C 373.706 2.03449 0.402906 0
M  V30 3941 C 374.131 1.11166 1.51736 0
M  V30 3942 O 373.489 0.101996 1.81013 0
M  V30 3943 C 373.537 3.49165 0.9009 0
M  V30 3944 O 372.641 3.60019 2.01147 0
M  V30 3945 H 371.982 0.657913 0.0897025 0
M  V30 3946 H 374.512 2.01493 -0.355201 0
M  V30 3947 H 374.522 3.89716 1.2077 0
M  V30 3948 H 373.197 4.15813 0.0852889 0
M  V30 3949 H 371.774 3.3136 1.71042 0
M  V30 3950 N 373.959 -0.0401083 1.57549 0
M  V30 3951 C 374.889 -1.04384 2.08869 0
M  V30 3952 C 375.87 -1.38407 0.988817 0
M  V30 3953 O 377.055 -1.47483 1.26342 0
M  V30 3954 C 374.185 -2.34808 2.55895 0
M  V30 3955 C 373.139 -2.15057 3.70047 0
M  V30 3956 C 372.465 -3.51145 4.03239 0
M  V30 3957 C 373.765 -1.54576 4.98902 0
M  V30 3958 H 375.459 -0.616666 2.92981 0
M  V30 3959 H 373.005 -0.295184 1.40942 0
M  V30 3960 H 374.958 -3.05346 2.90417 0
M  V30 3961 H 373.682 -2.79565 1.68853 0
M  V30 3962 H 372.341 -1.46954 3.35857 0
M  V30 3963 H 371.989 -3.93529 3.13279 0
M  V30 3964 H 371.689 -3.38758 4.80122 0
M  V30 3965 H 373.213 -4.23062 4.40285 0
M  V30 3966 H 374.627 -2.15017 5.31451 0
M  V30 3967 H 373.024 -1.52796 5.80322 0
M  V30 3968 H 374.094 -0.51039 4.82206 0
M  V30 3969 N 375.437 -1.54477 -0.31217 0
M  V30 3970 C 376.684 -1.73227 -1.04875 0
M  V30 3971 C 377.012 -0.512042 -1.87639 0
M  V30 3972 O 376.267 0.506131 -1.89042 0
M  V30 3973 C 376.566 -2.967 -1.99258 0
M  V30 3974 C 376.232 -4.30974 -1.32559 0
M  V30 3975 C 374.894 -4.67477 -1.141 0
M  V30 3976 C 377.246 -5.14258 -0.847835 0
M  V30 3977 C 374.574 -5.84852 -0.465326 0
M  V30 3978 C 376.926 -6.32327 -0.185931 0
M  V30 3979 C 375.59 -6.67499 0.0107077 0
M  V30 3980 H 374.86 -0.633881 -0.383765 0
M  V30 3981 H 377.507 -1.88727 -0.324731 0
M  V30 3982 H 375.812 -2.75935 -2.7815 0
M  V30 3983 H 377.509 -3.08401 -2.563 0
M  V30 3984 H 374.099 -4.02262 -1.4793 0
M  V30 3985 H 378.283 -4.86565 -0.978192 0
M  V30 3986 H 373.539 -6.10654 -0.301883 0
M  V30 3987 H 377.713 -6.96135 0.192211 0
M  V30 3988 H 375.34 -7.58306 0.536287 0
M  V30 3989 N 376.915 0.57481 -1.46744 0
M  V30 3990 C 378.163 1.33009 -1.52161 0
M  V30 3991 C 378.484 1.94185 -0.178092 0
M  V30 3992 O 377.754 1.7899 0.796196 0
M  V30 3993 H 376.334 0.493873 -0.560445 0
M  V30 3994 H 378.996 0.672589 -1.82927 0
M  V30 3995 H 378.092 2.13273 -2.27862 0
M  V30 3996 N 378.394 1.34581 0.820102 0
M  V30 3997 C 379.671 1.17675 1.56244 0
M  V30 3998 C 380.051 -0.249541 2.0962 0
M  V30 3999 O 379.399 -1.25125 1.91196 0
M  V30 4000 C 379.609 2.23364 2.6816 0
M  V30 4001 C 380.957 2.58485 3.36854 0
M  V30 4002 O 381.981 2.22175 2.78418 0
M  V30 4003 O 380.84 3.20868 4.42386 0
M  V30 4004 H 377.934 0.456333 0.689702 0
M  V30 4005 H 380.48 1.46222 0.861231 0
M  V30 4006 H 379.252 3.19087 2.26493 0
M  V30 4007 H 378.875 1.96009 3.45928 0
M  V30 4008 N 379.872 -1.04064 1.18357 0
M  V30 4009 C 381.288 -1.2947 0.933258 0
M  V30 4010 C 381.488 -1.97466 -0.401169 0
M  V30 4011 O 380.544 -2.25528 -1.13549 0
M  V30 4012 C 381.857 -2.15337 2.09882 0
M  V30 4013 C 383.405 -2.28683 2.13712 0
M  V30 4014 C 383.88 -3.17917 3.29686 0
M  V30 4015 N 385.371 -3.25504 3.29547 0
M  V30 4016 C 386.106 -3.94706 4.15926 0
M  V30 4017 N 385.602 -4.66239 5.12439 0
M  V30 4018 N 387.395 -3.90986 4.0384 0
M  V30 4019 H 379.546 -0.583359 2.04232 0
M  V30 4020 H 381.809 -0.319921 0.892387 0
M  V30 4021 H 381.515 -1.72682 3.06389 0
M  V30 4022 H 381.389 -3.16015 2.05947 0
M  V30 4023 H 383.776 -2.70575 1.17784 0
M  V30 4024 H 383.857 -1.27596 2.21705 0
M  V30 4025 H 383.501 -2.76736 4.25887 0
M  V30 4026 H 383.431 -4.19036 3.1893 0
M  V30 4027 H 385.922 -2.74547 2.59677 0
M  V30 4028 H 386.235 -5.16638 5.74722 0
M  V30 4029 H 384.58 -4.65143 5.16398 0
M  V30 4030 H 387.771 -3.34234 3.27727 0
M  V30 4031 H 387.944 -4.44646 4.71375 0
M  V30 4032 N 381.35 -0.985608 -1.22978 0
M  V30 4033 C 382.599 -0.652881 -1.90841 0
M  V30 4034 C 382.912 0.817842 -1.77681 0
M  V30 4035 O 384.118 1.26185 -2.40395 0
M  V30 4036 C 382.574 -1.11717 -3.42122 0
M  V30 4037 C 382.182 -2.6126 -3.63933 0
M  V30 4038 C 383.926 -0.85843 -4.1573 0
M  V30 4039 C 381.833 -3.0133 -5.08876 0
M  V30 4040 H 380.763 -0.240491 -0.714619 0
M  V30 4041 H 383.414 -1.1942 -1.39324 0
M  V30 4042 H 381.796 -0.504027 -3.92779 0
M  V30 4043 H 382.97 -3.27858 -3.23799 0
M  V30 4044 H 381.285 -2.84937 -3.03644 0
M  V30 4045 H 383.882 -1.13359 -5.22546 0
M  V30 4046 H 384.225 0.205461 -4.15793 0
M  V30 4047 H 384.758 -1.43341 -3.71077 0
M  V30 4048 H 381.497 -4.06864 -5.13947 0
M  V30 4049 H 381.017 -2.3943 -5.49939 0
M  V30 4050 H 382.696 -2.92224 -5.77247 0
M  V30 4051 N 382.828 1.3818 -0.7579 0
M  V30 4052 C 384.075 2.00019 -0.315985 0
M  V30 4053 C 384.403 1.60163 1.10355 0
M  V30 4054 O 383.658 0.83264 1.77103 0
M  V30 4055 C 383.957 3.55252 -0.391218 0
M  V30 4056 C 383.623 4.14834 -1.76702 0
M  V30 4057 C 382.285 4.30821 -2.14353 0
M  V30 4058 C 384.637 4.47658 -2.66931 0
M  V30 4059 C 381.965 4.76928 -3.41696 0
M  V30 4060 C 384.317 4.95184 -3.93669 0
M  V30 4061 C 382.981 5.09377 -4.31383 0
M  V30 4062 H 382.251 0.731923 -0.115627 0
M  V30 4063 H 384.898 1.65161 -0.969223 0
M  V30 4064 H 383.203 3.90273 0.34558 0
M  V30 4065 H 384.9 4.00988 -0.030805 0
M  V30 4066 H 381.49 4.02808 -1.46435 0
M  V30 4067 H 385.674 4.34904 -2.39106 0
M  V30 4068 H 380.93 4.86103 -3.70829 0
M  V30 4069 H 385.104 5.19551 -4.63724 0
M  V30 4070 H 382.731 5.44865 -5.30119 0
M  V30 4071 N 384.306 0.507319 1.49211 0
M  V30 4072 C 385.536 -0.0315292 2.06576 0
M  V30 4073 C 385.944 -1.30791 1.36713 0
M  V30 4074 O 385.287 -1.78324 0.441181 0
M  V30 4075 C 385.349 -0.349104 3.57801 0
M  V30 4076 C 385.013 0.830475 4.49391 0
M  V30 4077 C 386.01 1.72271 4.90529 0
M  V30 4078 C 383.695 1.03107 4.91604 0
M  V30 4079 C 385.689 2.79964 5.72625 0
M  V30 4080 C 383.376 2.11116 5.73475 0
M  V30 4081 C 384.374 2.99379 6.1389 0
M  V30 4082 O 384.062 4.05523 6.94123 0
M  V30 4083 H 383.794 0.0201002 0.675701 0
M  V30 4084 H 386.348 0.705737 1.92895 0
M  V30 4085 H 384.578 -1.14005 3.69513 0
M  V30 4086 H 386.267 -0.827319 3.97379 0
M  V30 4087 H 387.033 1.57958 4.58557 0
M  V30 4088 H 382.912 0.353417 4.59643 0
M  V30 4089 H 386.456 3.48884 6.04091 0
M  V30 4090 H 382.353 2.25421 6.0486 0
M  V30 4091 H 383.121 4.02953 7.1244 0
M  V30 4092 N 385.784 -1.5574 0.241426 0
M  V30 4093 C 387.009 -2.0366 -0.392111 0
M  V30 4094 C 387.434 -1.11969 -1.51144 0
M  V30 4095 O 386.792 -0.111594 -1.80956 0
M  V30 4096 C 386.84 -3.49638 -0.882371 0
M  V30 4097 O 385.944 -3.6108 -1.99235 0
M  V30 4098 H 385.285 -0.658379 -0.0862122 0
M  V30 4099 H 387.815 -2.01302 0.365881 0
M  V30 4100 H 387.825 -3.90351 -1.18702 0
M  V30 4101 H 386.5 -4.15852 -0.0632361 0
M  V30 4102 H 385.077 -3.32262 -1.69282 0
M  V30 4103 N 387.262 0.0317525 -1.57568 0
M  V30 4104 C 388.49 0.734949 -1.93407 0
M  V30 4105 C 388.905 1.69036 -0.84096 0
M  V30 4106 O 388.262 1.81582 0.182836 0
M  V30 4107 C 388.313 1.49432 -3.29169 0
M  V30 4108 O 388.034 0.577261 -4.3428 0
M  V30 4109 C 389.535 2.29492 -3.79273 0
M  V30 4110 H 386.755 0.206706 -0.638368 0
M  V30 4111 H 389.299 -0.00992046 -2.04498 0
M  V30 4112 H 387.454 2.1911 -3.19483 0
M  V30 4113 H 387.868 1.10952 -5.1263 0
M  V30 4114 H 389.342 2.78172 -4.76785 0
M  V30 4115 H 389.819 3.10794 -3.10328 0
M  V30 4116 H 390.425 1.64894 -3.92033 0
M  V30 4117 N 388.74 1.54641 0.303973 0
M  V30 4118 C 389.986 1.74969 1.03718 0
M  V30 4119 C 390.341 0.527461 1.85029 0
M  V30 4120 O 389.634 -0.480143 1.85486 0
M  V30 4121 C 389.828 2.97753 1.97681 0
M  V30 4122 C 389.657 4.318 1.25613 0
M  V30 4123 C 388.427 4.95616 0.984518 0
M  V30 4124 C 390.625 5.10021 0.662081 0
M  V30 4125 N 388.607 6.13455 0.233794 0
M  V30 4126 C 389.978 6.19984 0.0439736 0
M  V30 4127 C 392.033 4.94663 0.566835 0
M  V30 4128 C 390.736 7.16264 -0.66016 0
M  V30 4129 C 392.762 5.91271 -0.123637 0
M  V30 4130 C 392.124 7.00601 -0.730608 0
M  V30 4131 H 388.223 0.692873 0.362562 0
M  V30 4132 H 390.807 1.92116 0.316135 0
M  V30 4133 H 388.978 2.82036 2.6704 0
M  V30 4134 H 390.71 3.06621 2.64132 0
M  V30 4135 H 387.465 4.55921 1.28191 0
M  V30 4136 H 387.889 6.76879 -0.127996 0
M  V30 4137 H 392.531 4.10267 1.02181 0
M  V30 4138 H 390.249 8.00204 -1.12691 0
M  V30 4139 H 393.835 5.81466 -0.197236 0
M  V30 4140 H 392.715 7.7407 -1.2564 0
M  V30 4141 N 390.218 -0.567019 1.47046 0
M  V30 4142 C 391.165 -1.67489 1.58796 0
M  V30 4143 C 392.135 -1.60399 0.43144 0
M  V30 4144 O 393.32 -1.79378 0.650233 0
M  V30 4145 C 390.46 -3.05821 1.59899 0
M  V30 4146 C 389.573 -3.2342 2.86397 0
M  V30 4147 C 388.708 -4.52093 2.789 0
M  V30 4148 C 387.747 -4.6309 4.00267 0
M  V30 4149 N 386.884 -5.83106 3.91064 0
M  V30 4150 H 391.724 -1.56785 2.53422 0
M  V30 4151 H 389.261 -0.763896 1.2571 0
M  V30 4152 H 391.219 -3.8591 1.58522 0
M  V30 4153 H 389.849 -3.15384 0.687929 0
M  V30 4154 H 388.901 -2.3683 2.97684 0
M  V30 4155 H 390.213 -3.27412 3.76301 0
M  V30 4156 H 389.367 -5.4043 2.75718 0
M  V30 4157 H 388.106 -4.50565 1.86662 0
M  V30 4158 H 387.111 -3.73168 4.03765 0
M  V30 4159 H 388.336 -4.66386 4.93621 0
M  V30 4160 H 386.282 -5.82546 3.01623 0
M  V30 4161 H 386.199 -5.88434 4.74638 0
M  V30 4162 H 387.467 -6.73831 3.91882 0
M  V30 4163 N 391.696 -1.35014 -0.812953 0
M  V30 4164 C 392.629 -1.21761 -1.93001 0
M  V30 4165 C 393.607 -0.10694 -1.62248 0
M  V30 4166 O 394.791 -0.273891 -1.865 0
M  V30 4167 C 391.918 -0.873404 -3.27245 0
M  V30 4168 C 390.964 -1.99523 -3.76952 0
M  V30 4169 S 391.797 -3.61009 -3.95516 0
M  V30 4170 C 392.953 -3.28651 -5.32672 0
M  V30 4171 H 393.186 -2.16315 -2.03948 0
M  V30 4172 H 390.719 -1.20156 -0.969631 0
M  V30 4173 H 392.677 -0.68161 -4.04802 0
M  V30 4174 H 391.338 0.053971 -3.14054 0
M  V30 4175 H 390.531 -1.70838 -4.74163 0
M  V30 4176 H 390.133 -2.14503 -3.06373 0
M  V30 4177 H 392.425 -2.81085 -6.1644 0
M  V30 4178 H 393.368 -4.25039 -5.66346 0
M  V30 4179 H 393.776 -2.6458 -4.98656 0
M  V30 4180 N 393.175 1.03435 -1.18907 0
M  V30 4181 C 394.122 2.11591 -0.921837 0
M  V30 4182 C 395.092 1.65499 0.141226 0
M  V30 4183 O 396.277 1.908 0.000242829 0
M  V30 4184 C 393.417 3.42012 -0.460616 0
M  V30 4185 C 392.53 4.01682 -1.58982 0
M  V30 4186 C 391.665 5.20091 -1.08069 0
M  V30 4187 C 390.704 5.71805 -2.18416 0
M  V30 4188 N 389.841 6.81494 -1.68849 0
M  V30 4189 H 394.681 2.33787 -1.8479 0
M  V30 4190 H 392.218 1.1467 -0.921373 0
M  V30 4191 H 394.176 4.16834 -0.174642 0
M  V30 4192 H 392.806 3.19944 0.428467 0
M  V30 4193 H 391.858 3.24127 -1.99113 0
M  V30 4194 H 393.17 4.36084 -2.4214 0
M  V30 4195 H 392.324 6.02051 -0.749615 0
M  V30 4196 H 391.063 4.87209 -0.218771 0
M  V30 4197 H 390.068 4.88461 -2.5236 0
M  V30 4198 H 391.293 6.06728 -3.05054 0
M  V30 4199 H 389.239 6.50475 -0.849572 0
M  V30 4200 H 389.156 7.14994 -2.45601 0
M  V30 4201 H 390.424 7.67063 -1.38689 0
M  V30 4202 N 394.653 0.992116 1.22453 0
M  V30 4203 C 395.881 0.685944 1.95198 0
M  V30 4204 C 396.296 -0.749233 1.73297 0
M  V30 4205 O 395.653 -1.50549 1.03156 0
M  V30 4206 C 395.704 0.981395 3.47924 0
M  V30 4207 O 395.425 2.36018 3.6909 0
M  V30 4208 C 396.926 0.692815 4.37853 0
M  V30 4209 H 394.146 0.253821 0.621141 0
M  V30 4210 H 396.69 1.32668 1.55626 0
M  V30 4211 H 394.845 0.386481 3.85467 0
M  V30 4212 H 395.259 2.45884 4.63294 0
M  V30 4213 H 396.733 0.949818 5.43767 0
M  V30 4214 H 397.21 -0.373181 4.37612 0
M  V30 4215 H 397.816 1.26874 4.05935 0
M  V30 4216 N 396.131 -1.37776 0.765217 0
M  V30 4217 C 397.38 -1.99092 0.323307 0
M  V30 4218 C 397.693 -1.61434 -1.10446 0
M  V30 4219 O 398.899 -2.15805 -1.64743 0
M  V30 4220 C 397.355 -3.56019 0.527098 0
M  V30 4221 C 396.963 -4.0262 1.96471 0
M  V30 4222 C 398.707 -4.2424 0.148483 0
M  V30 4223 C 396.614 -5.52233 2.11644 0
M  V30 4224 H 395.544 -0.744846 0.117137 0
M  V30 4225 H 398.195 -1.57391 0.943417 0
M  V30 4226 H 396.577 -3.95667 -0.162372 0
M  V30 4227 H 397.751 -3.74234 2.68859 0
M  V30 4228 H 396.066 -3.47161 2.29931 0
M  V30 4229 H 398.663 -5.34159 0.240456 0
M  V30 4230 H 399.006 -4.06446 -0.900422 0
M  V30 4231 H 399.539 -3.89872 0.79025 0
M  V30 4232 H 396.278 -5.74945 3.1483 0
M  V30 4233 H 395.798 -5.82324 1.4373 0
M  V30 4234 H 397.477 -6.18106 1.91193 0
M  V30 4235 N 397.609 -0.515225 -1.4894 0
M  V30 4236 C 398.855 0.016187 -2.03394 0
M  V30 4237 C 399.21 1.33377 -1.38666 0
M  V30 4238 O 398.503 1.84461 -0.518141 0
M  V30 4239 C 398.697 0.210595 -3.56779 0
M  V30 4240 C 398.526 -1.08659 -4.36375 0
M  V30 4241 C 397.296 -1.64237 -4.77864 0
M  V30 4242 C 399.494 -1.9935 -4.74093 0
M  V30 4243 N 397.476 -2.88398 -5.41941 0
M  V30 4244 C 398.847 -3.08088 -5.38035 0
M  V30 4245 C 400.902 -1.99856 -4.56029 0
M  V30 4246 C 399.605 -4.17377 -5.85823 0
M  V30 4247 C 401.631 -3.08129 -5.04787 0
M  V30 4248 C 400.993 -4.15586 -5.68742 0
M  V30 4249 H 397.092 -0.0352107 -0.781207 0
M  V30 4250 H 399.676 -0.693237 -1.8194 0
M  V30 4251 H 397.847 0.889088 -3.78087 0
M  V30 4252 H 399.579 0.740287 -3.97872 0
M  V30 4253 H 396.334 -1.18566 -4.58518 0
M  V30 4254 H 396.758 -3.51572 -5.78555 0
M  V30 4255 H 401.4 -1.18079 -4.05977 0
M  V30 4256 H 399.118 -4.99943 -6.34888 0
M  V30 4257 H 402.704 -3.09557 -4.92611 0
M  V30 4258 H 401.584 -4.97987 -6.05787 0
M  V30 4259 N 399.087 1.5561 -0.249682 0
M  V30 4260 C 400.336 1.98187 0.37479 0
M  V30 4261 C 400.649 1.14111 1.58865 0
M  V30 4262 O 401.855 1.46714 2.28445 0
M  V30 4263 C 400.311 3.52661 0.718192 0
M  V30 4264 C 399.919 4.45481 -0.474428 0
M  V30 4265 C 401.663 4.03888 1.3067 0
M  V30 4266 C 399.57 5.91303 -0.107026 0
M  V30 4267 H 398.5 0.740159 0.143808 0
M  V30 4268 H 401.151 1.80125 -0.350336 0
M  V30 4269 H 399.533 3.66429 1.50152 0
M  V30 4270 H 400.707 4.43473 -1.25172 0
M  V30 4271 H 399.022 4.04751 -0.978052 0
M  V30 4272 H 401.619 5.10358 1.59496 0
M  V30 4273 H 401.962 3.51401 2.23211 0
M  V30 4274 H 402.495 3.93457 0.586211 0
M  V30 4275 H 399.234 6.47833 -0.999642 0
M  V30 4276 H 398.754 5.9644 0.634013 0
M  V30 4277 H 400.433 6.46258 0.309807 0
M  V30 4278 N 400.565 -0.0233959 1.57583 0
M  V30 4279 C 401.528 -1.00693 2.05897 0
M  V30 4280 C 402.528 -1.28693 0.964092 0
M  V30 4281 O 403.718 -1.23602 1.22753 0
M  V30 4282 C 400.85 -2.33825 2.4807 0
M  V30 4283 H 402.043 -0.589476 2.9405 0
M  V30 4284 H 399.596 -0.270354 1.53944 0
M  V30 4285 H 400.331 -2.80307 1.6309 0
M  V30 4286 H 400.116 -2.1483 3.2801 0
M  V30 4287 H 401.606 -3.04426 2.85857 0
M  V30 4288 N 402.043 -1.548 -0.295768 0
M  V30 4289 C 402.991 -1.86874 -1.38495 0
M  V30 4290 C 403.985 -0.742938 -1.52239 0
M  V30 4291 O 405.191 -0.926999 -1.54294 0
M  V30 4292 H 401.566 -0.592786 -0.462719 0
M  V30 4293 H 403.537 -2.77904 -1.08682 0
M  V30 4294 C 402.286 -2.13732 -2.74252 0
M  V30 4295 H 401.609 -2.99835 -2.64459 0
M  V30 4296 H 403.049 -2.4011 -3.49461 0
M  V30 4297 C 401.508 -0.937539 -3.23592 0
M  V30 4298 O 402.038 -0.160665 -4.01379 0
M  V30 4299 N 400.244 -0.741478 -2.80981 0
M  V30 4300 H 399.791 -1.37489 -2.1784 0
M  V30 4301 H 399.749 0.0597103 -3.14343 0
M  V30 4302 N 403.521 0.559213 -1.47345 0
M  V30 4303 C 404.468 1.66645 -1.59682 0
M  V30 4304 C 405.438 1.60168 -0.43994 0
M  V30 4305 O 406.623 1.79031 -0.659736 0
M  V30 4306 C 403.763 3.04969 -1.61518 0
M  V30 4307 C 402.876 3.21897 -2.88108 0
M  V30 4308 C 402.011 4.50608 -2.81294 0
M  V30 4309 C 401.05 4.60961 -4.02717 0
M  V30 4310 N 400.187 5.81024 -3.94151 0
M  V30 4311 H 405.027 1.55439 -2.54249 0
M  V30 4312 H 402.564 0.757219 -1.26113 0
M  V30 4313 H 404.522 3.85064 -1.60566 0
M  V30 4314 H 403.152 3.15015 -0.704645 0
M  V30 4315 H 402.204 2.35248 -2.98936 0
M  V30 4316 H 403.516 3.25412 -3.78032 0
M  V30 4317 H 402.67 5.3896 -2.7858 0
M  V30 4318 H 401.409 4.49568 -1.89049 0
M  V30 4319 H 400.414 3.71021 -4.05738 0
M  V30 4320 H 401.639 4.63761 -4.96087 0
M  V30 4321 H 399.585 5.80938 -3.04708 0
M  V30 4322 H 399.502 5.85909 -4.77752 0
M  V30 4323 H 400.77 6.71744 -3.9545 0
M  V30 4324 N 404.999 1.35443 0.805782 0
M  V30 4325 C 405.949 1.24972 1.90699 0
M  V30 4326 C 406.933 0.144806 1.60247 0
M  V30 4327 O 408.125 0.376102 1.72958 0
M  V30 4328 C 405.254 1.02475 3.27649 0
M  V30 4329 C 404.34 2.17361 3.64164 0
M  V30 4330 N 404.731 3.42591 3.72109 0
M  V30 4331 C 403.029 2.08765 3.94123 0
M  V30 4332 C 403.73 4.18144 4.04389 0
M  V30 4333 N 402.706 3.4691 4.18515 0
M  V30 4334 H 406.508 2.19852 1.95044 0
M  V30 4335 H 404.022 1.27928 1.00041 0
M  V30 4336 H 406.019 0.930617 4.06381 0
M  V30 4337 H 404.679 0.0848009 3.24589 0
M  V30 4338 H 405.69 3.76932 3.55166 0
M  V30 4339 H 402.367 1.22629 3.99084 0
M  V30 4340 H 403.757 5.26367 4.17597 0
M  V30 4341 N 406.477 -1.02803 1.19454 0
M  V30 4342 C 407.705 -1.79841 1.02297 0
M  V30 4343 C 408.12 -1.83879 -0.428259 0
M  V30 4344 O 407.477 -1.28345 -1.29745 0
M  V30 4345 C 407.528 -3.24852 1.58598 0
M  V30 4346 O 407.249 -3.21097 2.98041 0
M  V30 4347 C 408.75 -4.18485 1.46236 0
M  V30 4348 H 405.97 -0.565936 0.360496 0
M  V30 4349 H 408.514 -1.2948 1.58288 0
M  V30 4350 H 406.669 -3.72401 1.06753 0
M  V30 4351 H 407.083 -4.12033 3.24545 0
M  V30 4352 H 408.557 -5.18121 1.90407 0
M  V30 4353 H 409.034 -4.37254 0.41301 0
M  V30 4354 H 409.64 -3.76811 1.97215 0
M  V30 4355 N 407.956 -0.998596 -1.21925 0
M  V30 4356 C 409.204 -0.676325 -1.90448 0
M  V30 4357 C 409.525 0.794719 -1.78071 0
M  V30 4358 O 408.795 1.5701 -1.17152 0
M  V30 4359 H 407.375 -0.247165 -0.704925 0
M  V30 4360 H 410.037 -1.26633 -1.48156 0
M  V30 4361 H 409.133 -0.943858 -2.97486 0
M  V30 4362 N 409.434 1.37368 -0.772513 0
M  V30 4363 C 410.381 2.30262 -0.157488 0
M  V30 4364 C 411.351 1.51137 0.688965 0
M  V30 4365 O 412.536 1.79704 0.641168 0
M  V30 4366 C 409.676 3.37611 0.715045 0
M  V30 4367 C 408.789 4.31746 -0.148098 0
M  V30 4368 C 407.924 5.26171 0.729213 0
M  V30 4369 C 406.963 6.11948 -0.136418 0
M  V30 4370 N 406.1 6.98613 0.698914 0
M  V30 4371 H 410.94 2.82277 -0.955179 0
M  V30 4372 H 408.477 1.38957 -0.482631 0
M  V30 4373 H 410.435 3.98479 1.23575 0
M  V30 4374 H 409.065 2.86959 1.47833 0
M  V30 4375 H 408.117 3.72178 -0.786613 0
M  V30 4376 H 409.429 4.92084 -0.81579 0
M  V30 4377 H 408.583 5.92247 1.31637 0
M  V30 4378 H 407.322 4.66246 1.43059 0
M  V30 4379 H 406.327 5.4485 -0.736102 0
M  V30 4380 H 407.552 6.73945 -0.835134 0
M  V30 4381 H 405.498 6.41215 1.38489 0
M  V30 4382 H 405.415 7.55948 0.0885358 0
M  V30 4383 H 406.683 7.69077 1.27044 0
M  V30 4384 N 410.912 0.523116 1.48665 0
M  V30 4385 C 412.189 -0.0775449 1.95446 0
M  V30 4386 C 412.569 -1.5197 1.4652 0
M  V30 4387 O 411.917 -2.17876 0.688657 0
M  V30 4388 C 412.127 0.0326135 3.48985 0
M  V30 4389 C 413.475 -0.130141 4.24401 0
M  V30 4390 O 414.499 -0.0415142 3.56176 0
M  V30 4391 O 413.358 -0.31491 5.45592 0
M  V30 4392 H 410.452 -0.0831012 0.822814 0
M  V30 4393 H 412.998 0.587227 1.59216 0
M  V30 4394 H 411.77 1.03748 3.77296 0
M  V30 4395 H 411.393 -0.671317 3.91892 0
M  V30 4396 N 412.39 -1.55475 0.257931 0
M  V30 4397 C 413.323 -2.179 -0.677862 0
M  V30 4398 C 414.301 -1.13448 -1.16483 0
M  V30 4399 O 415.485 -1.41889 -1.24095 0
M  V30 4400 C 412.612 -2.78851 -1.92249 0
M  V30 4401 C 411.658 -3.96454 -1.57246 0
M  V30 4402 S 412.491 -5.31349 -0.665501 0
M  V30 4403 C 413.647 -5.9576 -1.91889 0
M  V30 4404 H 413.88 -2.96934 -0.147396 0
M  V30 4405 H 411.413 -1.54342 0.0423023 0
M  V30 4406 H 413.371 -3.14602 -2.63697 0
M  V30 4407 H 412.032 -1.99742 -2.42409 0
M  V30 4408 H 411.225 -4.37731 -2.49814 0
M  V30 4409 H 410.827 -3.62038 -0.938325 0
M  V30 4410 H 413.119 -6.13947 -2.86487 0
M  V30 4411 H 414.062 -6.9094 -1.54942 0
M  V30 4412 H 414.47 -5.2494 -2.076 0
M  V30 4413 N 413.868 0.0150385 -1.57593 0
M  V30 4414 C 415.114 0.704043 -1.90187 0
M  V30 4415 C 415.447 1.74249 -0.857366 0
M  V30 4416 O 414.722 1.94092 0.125843 0
M  V30 4417 C 415.005 1.36087 -3.33395 0
M  V30 4418 C 414.858 0.334981 -4.48551 0
M  V30 4419 C 416.177 2.29112 -3.7576 0
M  V30 4420 H 413.296 0.254475 -0.691673 0
M  V30 4421 H 415.938 -0.0331678 -1.89971 0
M  V30 4422 H 414.088 1.98922 -3.3371 0
M  V30 4423 H 415.76 -0.292534 -4.60372 0
M  V30 4424 H 414.003 -0.344325 -4.32431 0
M  V30 4425 H 414.674 0.833316 -5.45674 0
M  V30 4426 H 417.15 1.76308 -3.76902 0
M  V30 4427 H 416.026 2.72043 -4.76743 0
M  V30 4428 H 416.287 3.16385 -3.08793 0
M  V30 4429 N 415.346 1.54954 0.287554 0
M  V30 4430 C 416.762 1.46469 0.633964 0
M  V30 4431 C 416.962 0.666865 1.90145 0
M  V30 4432 O 416.018 0.179906 2.51858 0
M  V30 4433 C 417.331 2.90556 0.774454 0
M  V30 4434 C 418.879 3.00681 0.869462 0
M  V30 4435 C 419.354 4.45993 1.04184 0
M  V30 4436 N 420.845 4.4976 1.10772 0
M  V30 4437 C 421.58 5.59393 1.25964 0
M  V30 4438 N 421.076 6.78923 1.37968 0
M  V30 4439 N 422.869 5.47107 1.28959 0
M  V30 4440 H 415.02 2.05288 -0.545041 0
M  V30 4441 H 417.283 0.930305 -0.182308 0
M  V30 4442 H 416.989 3.51594 -0.086207 0
M  V30 4443 H 416.863 3.38743 1.6593 0
M  V30 4444 H 419.25 2.39749 1.7206 0
M  V30 4445 H 419.331 2.55769 -0.0396831 0
M  V30 4446 H 418.975 5.07524 0.195422 0
M  V30 4447 H 418.905 4.88548 1.96542 0
M  V30 4448 H 421.396 3.63651 1.02794 0
M  V30 4449 H 421.709 7.58231 1.49353 0
M  V30 4450 H 420.054 6.81763 1.34999 0
M  V30 4451 H 423.245 4.52668 1.19202 0
M  V30 4452 H 423.418 6.32595 1.40455 0
M  V30 4453 N 416.824 -0.551391 1.4764 0
M  V30 4454 C 418.073 -1.30467 1.53822 0
M  V30 4455 C 418.386 -1.94495 0.207661 0
M  V30 4456 O 419.592 -2.71099 0.147533 0
M  V30 4457 C 418.048 -2.36616 2.71184 0
M  V30 4458 C 417.656 -1.78754 4.10793 0
M  V30 4459 C 419.4 -3.13088 2.86663 0
M  V30 4460 C 417.307 -2.82717 5.19447 0
M  V30 4461 H 416.237 -0.490584 0.572576 0
M  V30 4462 H 418.888 -0.58494 1.73927 0
M  V30 4463 H 417.27 -3.11529 2.4447 0
M  V30 4464 H 418.444 -1.10173 4.47435 0
M  V30 4465 H 416.759 -1.14846 4.00249 0
M  V30 4466 H 419.356 -3.90736 3.65007 0
M  V30 4467 H 419.699 -3.67635 1.95321 0
M  V30 4468 H 420.232 -2.45288 3.13175 0
M  V30 4469 H 416.971 -2.33018 6.12685 0
M  V30 4470 H 416.491 -3.4969 4.87316 0
M  V30 4471 H 418.17 -3.46102 5.46646 0
M  V30 4472 N 418.302 -1.35869 -0.798587 0
M  V30 4473 C 419.25 -1.29491 -1.93222 0
M  V30 4474 C 420.244 -0.18836 -1.6835 0
M  V30 4475 O 421.45 -0.354822 -1.76468 0
M  V30 4476 H 417.825 -0.402901 -0.63496 0
M  V30 4477 H 419.796 -2.25247 -1.9572 0
M  V30 4478 C 418.545 -1.09184 -3.30112 0
M  V30 4479 H 417.868 -1.93574 -3.49813 0
M  V30 4480 H 419.308 -1.08766 -4.09812 0
M  V30 4481 C 417.767 0.203959 -3.36282 0
M  V30 4482 O 418.297 1.19699 -3.83451 0
M  V30 4483 N 416.503 0.245488 -2.89561 0
M  V30 4484 H 416.05 -0.563223 -2.51367 0
M  V30 4485 H 416.008 1.11219 -2.94071 0
M  V30 4486 N 419.78 1.02168 -1.19998 0
M  V30 4487 C 420.71 2.12488 -0.96804 0
M  V30 4488 C 421.691 1.69799 0.101185 0
M  V30 4489 O 422.876 1.94121 -0.0552993 0
M  V30 4490 C 420.006 3.43479 -0.513776 0
M  V30 4491 C 418.96 3.99884 -1.52566 0
M  V30 4492 C 418.286 5.26582 -0.928214 0
M  V30 4493 C 419.586 4.33861 -2.90795 0
M  V30 4494 H 421.28 2.32149 -1.89069 0
M  V30 4495 H 418.826 1.11564 -0.910468 0
M  V30 4496 H 420.779 4.20036 -0.338774 0
M  V30 4497 H 419.503 3.23561 0.444493 0
M  V30 4498 H 418.162 3.25429 -1.68794 0
M  V30 4499 H 417.81 5.02986 0.0378289 0
M  V30 4500 H 417.51 5.65284 -1.60397 0
M  V30 4501 H 419.034 6.05799 -0.764167 0
M  V30 4502 H 420.448 5.01327 -2.78109 0
M  V30 4503 H 418.845 4.83664 -3.55231 0
M  V30 4504 H 419.915 3.42848 -3.42904 0
M  V30 4505 N 421.258 1.00505 1.21394 0
M  V30 4506 C 422.208 0.536503 2.21598 0
M  V30 4507 C 423.192 -0.401914 1.55799 0
M  V30 4508 O 424.384 -0.226757 1.75541 0
M  V30 4509 C 421.513 -0.135446 3.43033 0
M  V30 4510 C 420.599 0.823992 4.16018 0
M  V30 4511 N 420.99 1.97683 4.6557 0
M  V30 4512 C 419.288 0.642387 4.4135 0
M  V30 4513 C 419.989 2.58003 5.21354 0
M  V30 4514 N 418.965 1.86162 5.1073 0
M  V30 4515 H 422.767 1.41557 2.57563 0
M  V30 4516 H 420.281 0.868878 1.37202 0
M  V30 4517 H 422.278 -0.488584 4.14027 0
M  V30 4518 H 420.938 -1.01049 3.08576 0
M  V30 4519 H 421.949 2.3572 4.61147 0
M  V30 4520 H 418.626 -0.185578 4.17087 0
M  V30 4521 H 420.016 3.555 5.70149 0
M  V30 4522 N 422.737 -1.36956 0.779787 0
M  V30 4523 C 423.962 -2.04283 0.358224 0
M  V30 4524 C 424.387 -1.58422 -1.01411 0
M  V30 4525 O 423.745 -0.748179 -1.65142 0
M  V30 4526 C 423.793 -3.58152 0.419479 0
M  V30 4527 O 422.897 -4.08342 -0.577142 0
M  V30 4528 H 422.238 -0.645967 0.153698 0
M  V30 4529 H 424.768 -1.75108 1.05822 0
M  V30 4530 H 424.778 -4.07041 0.279636 0
M  V30 4531 H 423.453 -3.90886 1.42061 0
M  V30 4532 H 422.03 -3.70751 -0.399755 0
M  V30 4533 N 424.215 -0.530993 -1.48385 0
M  V30 4534 C 425.44 0.000729535 -2.074 0
M  V30 4535 C 425.865 1.27298 -1.3848 0
M  V30 4536 O 425.223 1.75599 -0.451081 0
M  V30 4537 C 425.271 0.206697 -3.60007 0
M  V30 4538 O 424.375 1.27514 -3.92191 0
M  V30 4539 H 423.716 -0.039583 -0.662819 0
M  V30 4540 H 426.246 -0.739194 -1.9078 0
M  V30 4541 H 426.256 0.42904 -4.05738 0
M  V30 4542 H 424.931 -0.722675 -4.09573 0
M  V30 4543 H 423.508 1.03537 -3.58238 0
M  V30 4544 N 425.693 1.55336 -0.266172 0
M  V30 4545 C 426.94 1.99397 0.353158 0
M  V30 4546 C 427.268 1.15451 1.56529 0
M  V30 4547 O 426.523 0.209974 1.9457 0
M  V30 4548 C 426.822 3.48606 0.787957 0
M  V30 4549 C 426.488 4.49773 -0.318541 0
M  V30 4550 C 425.15 4.77158 -0.62239 0
M  V30 4551 C 427.502 5.10212 -1.06459 0
M  V30 4552 C 424.83 5.62251 -1.67602 0
M  V30 4553 C 427.182 5.96449 -2.10788 0
M  V30 4554 C 425.846 6.22158 -2.41817 0
M  V30 4555 H 425.116 0.729644 0.12923 0
M  V30 4556 H 427.763 1.87732 -0.37802 0
M  V30 4557 H 426.068 3.57701 1.59866 0
M  V30 4558 H 427.765 3.80098 1.27775 0
M  V30 4559 H 424.355 4.2854 -0.0715925 0
M  V30 4560 H 428.539 4.89086 -0.843098 0
M  V30 4561 H 423.795 5.80419 -1.92155 0
M  V30 4562 H 427.969 6.42317 -2.69076 0
M  V30 4563 H 425.596 6.87888 -3.23596 0
M  V30 4564 N 427.171 -0.0066808 1.57599 0
M  V30 4565 C 428.417 -0.693947 1.90558 0
M  V30 4566 C 428.75 -1.73792 0.866594 0
M  V30 4567 O 428.025 -1.94156 -0.115548 0
M  V30 4568 C 428.308 -1.34317 3.34112 0
M  V30 4569 C 428.161 -0.311189 4.48722 0
M  V30 4570 C 429.48 -2.27116 3.7697 0
M  V30 4571 H 426.599 -0.250803 0.693013 0
M  V30 4572 H 429.241 0.043242 1.89951 0
M  V30 4573 H 427.391 -1.9715 3.3476 0
M  V30 4574 H 429.063 0.316944 4.6021 0
M  V30 4575 H 427.306 0.367253 4.32243 0
M  V30 4576 H 427.977 -0.804366 5.46108 0
M  V30 4577 H 430.453 -1.74306 3.77831 0
M  V30 4578 H 429.329 -2.69511 4.78179 0
M  V30 4579 H 429.59 -3.14743 3.10466 0
M  V30 4580 N 428.649 -1.55105 -0.279332 0
M  V30 4581 C 430.06 -1.66186 -0.850832 0
M  V30 4582 C 430.411 -0.584707 -1.87285 0
M  V30 4583 O 429.536 0.274919 -2.14647 0
M  V30 4584 C 430.131 -3.01264 -1.55001 0
M  V30 4585 C 428.69 -3.14394 -2.06963 0
M  V30 4586 C 427.837 -2.61959 -0.909536 0
M  V30 4587 H 430.788 -1.58602 -0.0558235 0
M  V30 4588 H 430.809 -2.93899 -2.41669 0
M  V30 4589 H 430.321 -3.7964 -0.805931 0
M  V30 4590 H 428.422 -2.4078 -2.84352 0
M  V30 4591 H 428.535 -4.20867 -2.28928 0
M  V30 4592 H 426.899 -2.18957 -1.30116 0
M  V30 4593 H 427.682 -3.42833 -0.179062 0
M  V30 4594 N 430.127 0.543554 -1.4793 0
M  V30 4595 C 431.057 1.65888 -1.64327 0
M  V30 4596 C 432.038 1.62818 -0.492383 0
M  V30 4597 O 433.223 1.80226 -0.723338 0
M  V30 4598 C 430.353 3.04506 -1.67013 0
M  V30 4599 C 429.307 3.2243 -2.81466 0
M  V30 4600 C 428.633 4.61972 -2.69233 0
M  V30 4601 C 429.933 3.06496 -4.22915 0
M  V30 4602 H 431.627 1.52421 -2.57698 0
M  V30 4603 H 429.173 0.731849 -1.24016 0
M  V30 4604 H 431.126 3.82391 -1.77074 0
M  V30 4605 H 429.85 3.18964 -0.70212 0
M  V30 4606 H 428.509 2.46957 -2.70938 0
M  V30 4607 H 428.157 4.73247 -1.7043 0
M  V30 4608 H 427.857 4.74911 -3.46025 0
M  V30 4609 H 429.381 5.41974 -2.81242 0
M  V30 4610 H 430.795 3.74186 -4.34348 0
M  V30 4611 H 429.192 3.30938 -5.006 0
M  V30 4612 H 430.262 2.03077 -4.40327 0
M  V30 4613 N 431.605 1.3629 0.791371 0
M  V30 4614 C 432.853 1.30154 1.5461 0
M  V30 4615 C 433.174 -0.119409 1.94634 0
M  V30 4616 O 432.444 -1.05924 1.64794 0
M  V30 4617 H 431.024 0.478784 0.573389 0
M  V30 4618 H 433.686 1.70565 0.94306 0
M  V30 4619 H 432.782 1.92762 2.45457 0
M  V30 4620 N 433.083 -1.0153 1.20538 0
M  V30 4621 C 433.993 -2.13557 0.971113 0
M  V30 4622 C 435.009 -1.73845 -0.0734366 0
M  V30 4623 O 436.185 -2.01075 0.114299 0
M  V30 4624 C 433.25 -3.42661 0.527639 0
M  V30 4625 C 432.311 -3.96608 1.64319 0
M  V30 4626 C 431.544 -5.1955 1.22078 0
M  V30 4627 O 431.767 -5.70329 0.0900198 0
M  V30 4628 O 430.701 -5.66681 2.02871 0
M  V30 4629 H 434.527 -2.3619 1.90913 0
M  V30 4630 H 432.112 -1.11946 0.989362 0
M  V30 4631 H 433.994 -4.20404 0.289621 0
M  V30 4632 H 432.669 -3.21441 -0.381779 0
M  V30 4633 H 431.576 -3.20139 1.93551 0
M  V30 4634 H 432.909 -4.22219 2.52966 0
M  V30 4635 N 434.561 -1.01147 -1.20859 0
M  V30 4636 C 435.491 -0.597663 -2.25722 0
M  V30 4637 C 436.472 0.384744 -1.65692 0
M  V30 4638 O 437.657 0.271303 -1.92296 0
M  V30 4639 C 434.787 0.0700149 -3.47229 0
M  V30 4640 C 433.741 -0.832843 -4.19819 0
M  V30 4641 C 433.067 -0.0312202 -5.34691 0
M  V30 4642 C 434.367 -2.1385 -4.76514 0
M  V30 4643 H 436.061 -1.47423 -2.60589 0
M  V30 4644 H 433.607 -0.710301 -1.25263 0
M  V30 4645 H 435.56 0.37103 -4.19763 0
M  V30 4646 H 434.284 0.981259 -3.11511 0
M  V30 4647 H 432.943 -1.11778 -3.49144 0
M  V30 4648 H 432.591 0.881515 -4.95215 0
M  V30 4649 H 432.291 -0.632434 -5.84187 0
M  V30 4650 H 433.815 0.26346 -6.10031 0
M  V30 4651 H 435.229 -1.9002 -5.40893 0
M  V30 4652 H 433.626 -2.69012 -5.36426 0
M  V30 4653 H 434.696 -2.80495 -3.95538 0
M  V30 4654 N 436.039 1.36541 -0.78704 0
M  V30 4655 C 436.986 2.30082 -0.181901 0
M  V30 4656 C 437.956 1.5186 0.672896 0
M  V30 4657 O 439.141 1.80374 0.622072 0
M  V30 4658 C 436.281 3.3835 0.679197 0
M  V30 4659 C 435.394 4.31565 -0.193882 0
M  V30 4660 C 434.529 5.26915 0.673364 0
M  V30 4661 C 433.568 6.11769 -0.201315 0
M  V30 4662 N 432.705 6.99315 0.624777 0
M  V30 4663 H 437.545 2.81248 -0.985064 0
M  V30 4664 H 435.082 1.38437 -0.497342 0
M  V30 4665 H 437.04 3.99767 1.19341 0
M  V30 4666 H 435.67 2.8851 1.44781 0
M  V30 4667 H 434.722 3.71323 -0.826044 0
M  V30 4668 H 436.034 4.91191 -0.867937 0
M  V30 4669 H 435.188 5.9361 1.25348 0
M  V30 4670 H 433.927 4.67737 1.38105 0
M  V30 4671 H 432.932 5.44039 -0.793849 0
M  V30 4672 H 434.157 6.73022 -0.906568 0
M  V30 4673 H 432.103 6.42648 1.3168 0
M  V30 4674 H 432.02 7.56 0.00835237 0
M  V30 4675 H 433.288 7.70382 1.18879 0
M  V30 4676 N 437.518 0.538854 1.48102 0
M  V30 4677 C 438.764 0.00801365 2.02798 0
M  V30 4678 C 439.097 -1.3309 1.41424 0
M  V30 4679 O 438.372 -1.86169 0.563158 0
M  V30 4680 C 438.655 -0.104589 3.59948 0
M  V30 4681 C 438.508 1.26012 4.31788 0
M  V30 4682 C 439.827 -0.827055 4.32259 0
M  V30 4683 H 436.946 0.00438624 0.736987 0
M  V30 4684 H 439.588 0.6976 1.7673 0
M  V30 4685 H 437.738 -0.691893 3.82289 0
M  V30 4686 H 439.41 1.88922 4.2084 0
M  V30 4687 H 437.653 1.83968 3.92859 0
M  V30 4688 H 438.324 1.13424 5.40221 0
M  V30 4689 H 440.8 -0.328578 4.14801 0
M  V30 4690 H 439.676 -0.87476 5.41885 0
M  V30 4691 H 439.937 -1.87927 4.0017 0
M  V30 4692 N 438.996 -1.55193 0.274407 0
M  V30 4693 C 440.242 -1.99877 -0.343086 0
M  V30 4694 C 440.575 -1.16256 -1.55558 0
M  V30 4695 O 439.85 -0.232462 -1.93106 0
M  V30 4696 C 440.133 -3.52706 -0.725965 0
M  V30 4697 C 439.986 -4.47081 0.493818 0
M  V30 4698 C 441.305 -4.11422 -1.56268 0
M  V30 4699 H 438.424 -0.726625 -0.123229 0
M  V30 4700 H 441.066 -1.86136 0.38121 0
M  V30 4701 H 439.216 -3.64546 -1.34307 0
M  V30 4702 H 440.888 -4.47186 1.13237 0
M  V30 4703 H 439.131 -4.1877 1.13201 0
M  V30 4704 H 439.802 -5.51699 0.18217 0
M  V30 4705 H 442.278 -4.02855 -1.04151 0
M  V30 4706 H 441.154 -5.18568 -1.79939 0
M  V30 4707 H 441.415 -3.61607 -2.54348 0
M  V30 4708 N 440.474 -0.00167713 -1.576 0
M  V30 4709 C 441.424 0.997744 -2.0501 0
M  V30 4710 C 442.408 1.30214 -0.94515 0
M  V30 4711 O 443.6 1.29284 -1.20891 0
M  V30 4712 C 440.729 2.2892 -2.55833 0
M  V30 4713 C 439.815 2.01437 -3.73208 0
M  V30 4714 N 440.206 1.44119 -4.84833 0
M  V30 4715 C 438.504 2.31571 -3.8117 0
M  V30 4716 C 439.205 1.33145 -5.66257 0
M  V30 4717 N 438.181 1.81763 -5.12312 0
M  V30 4718 H 441.983 0.549098 -2.88725 0
M  V30 4719 H 439.497 0.20398 -1.61114 0
M  V30 4720 H 441.494 3.01361 -2.88075 0
M  V30 4721 H 440.154 2.74436 -1.73537 0
M  V30 4722 H 441.165 1.11978 -5.0565 0
M  V30 4723 H 437.842 2.7995 -3.09732 0
M  V30 4724 H 439.232 0.890567 -6.65972 0
M  V30 4725 N 441.952 1.55251 0.271103 0
M  V30 4726 C 443.363 1.66635 0.842007 0
M  V30 4727 C 443.714 0.594631 1.86972 0
M  V30 4728 O 442.839 -0.263532 2.14789 0
M  V30 4729 C 443.434 3.02082 1.53401 0
M  V30 4730 C 441.993 3.15487 2.05293 0
M  V30 4731 C 441.14 2.62438 0.895631 0
M  V30 4732 H 444.091 1.58629 0.0474117 0
M  V30 4733 H 444.112 2.95176 2.40107 0
M  V30 4734 H 443.624 3.80062 0.785786 0
M  V30 4735 H 441.725 2.42284 2.83071 0
M  V30 4736 H 441.838 4.22075 2.26693 0
M  V30 4737 H 440.202 2.19644 1.28953 0
M  V30 4738 H 440.985 3.42923 0.160878 0
M  V30 4739 N 443.43 -0.535701 1.48216 0
M  V30 4740 C 444.36 -1.65014 1.65204 0
M  V30 4741 C 445.341 -1.62554 0.501011 0
M  V30 4742 O 446.526 -1.7984 0.732886 0
M  V30 4743 C 443.656 -3.03616 1.68626 0
M  V30 4744 C 442.61 -3.20932 2.83172 0
M  V30 4745 C 441.936 -4.60537 2.71679 0
M  V30 4746 C 443.236 -3.04249 4.24535 0
M  V30 4747 H 444.93 -1.51053 2.58502 0
M  V30 4748 H 442.476 -0.725262 1.24402 0
M  V30 4749 H 444.429 -3.81446 1.79099 0
M  V30 4750 H 443.153 -3.18587 0.719026 0
M  V30 4751 H 441.812 -2.45517 2.72244 0
M  V30 4752 H 441.46 -4.72336 1.72937 0
M  V30 4753 H 441.16 -4.73069 3.48538 0
M  V30 4754 H 442.684 -5.40475 2.84112 0
M  V30 4755 H 444.098 -3.71877 4.36326 0
M  V30 4756 H 442.495 -3.28278 5.02348 0
M  V30 4757 H 443.565 -2.00739 4.41397 0
M  V30 4758 N 444.908 -1.36708 -0.784132 0
M  V30 4759 C 445.871 -1.31307 -1.87859 0
M  V30 4760 C 446.871 -0.219654 -1.59293 0
M  V30 4761 O 448.061 -0.47476 -1.67606 0
M  V30 4762 C 445.193 -1.03679 -3.24751 0
M  V30 4763 H 446.386 -2.28647 -1.94064 0
M  V30 4764 H 443.939 -1.21558 -0.98252 0
M  V30 4765 H 444.674 -0.0681936 -3.24228 0
M  V30 4766 H 444.459 -1.82811 -3.46876 0
M  V30 4767 H 445.949 -1.02518 -4.04821 0
M  V30 4768 N 446.386 1.0089 -1.21074 0
M  V30 4769 C 447.318 2.09737 -0.924291 0
M  V30 4770 C 448.331 1.62546 0.0909809 0
M  V30 4771 O 449.52 1.77942 -0.141021 0
M  V30 4772 C 446.62 3.36922 -0.36559 0
M  V30 4773 C 445.793 4.13216 -1.43426 0
M  V30 4774 C 444.852 5.18696 -0.885496 0
M  V30 4775 O 443.878 5.47176 -1.56801 0
M  V30 4776 N 445.08 5.79718 0.301227 0
M  V30 4777 H 447.845 2.34895 -1.8613 0
M  V30 4778 H 445.406 1.17341 -1.11546 0
M  V30 4779 H 447.398 4.04697 0.0158407 0
M  V30 4780 H 445.968 3.08952 0.476149 0
M  V30 4781 H 445.188 3.40301 -1.9897 0
M  V30 4782 H 446.476 4.60967 -2.15376 0
M  V30 4783 H 445.874 5.58926 0.872849 0
M  V30 4784 H 444.431 6.48804 0.624211 0
M  V30 4785 N 447.864 1.01787 1.20321 0
M  V30 4786 C 449.275 0.739307 1.71438 0
M  V30 4787 C 449.626 -0.742041 1.81627 0
M  V30 4788 O 448.751 -1.57903 1.47971 0
M  V30 4789 C 449.346 1.33538 3.11373 0
M  V30 4790 C 447.905 1.10566 3.59795 0
M  V30 4791 C 447.052 1.44028 2.36962 0
M  V30 4792 H 450.003 1.18718 1.05317 0
M  V30 4793 H 450.024 0.726611 3.73498 0
M  V30 4794 H 449.536 2.41352 3.03926 0
M  V30 4795 H 447.637 0.0452405 3.72573 0
M  V30 4796 H 447.75 1.78661 4.44542 0
M  V30 4797 H 446.114 0.85933 2.39766 0
M  V30 4798 H 446.897 2.52901 2.32155 0
M  V30 4799 N 449.342 -1.36122 0.79427 0
M  V30 4800 C 450.289 -2.29982 0.194101 0
M  V30 4801 C 451.259 -1.52214 -0.664833 0
M  V30 4802 O 452.444 -1.80702 -0.612498 0
M  V30 4803 C 449.584 -3.38706 -0.661244 0
M  V30 4804 C 448.697 -4.31456 0.216766 0
M  V30 4805 C 447.832 -5.27265 -0.645411 0
M  V30 4806 C 446.871 -6.11653 0.233756 0
M  V30 4807 N 446.008 -6.99636 -0.587682 0
M  V30 4808 H 450.848 -2.80722 0.999965 0
M  V30 4809 H 448.385 -1.38172 0.504677 0
M  V30 4810 H 450.343 -4.00394 -1.17219 0
M  V30 4811 H 448.973 -2.89274 -1.43249 0
M  V30 4812 H 448.025 -3.7088 0.845724 0
M  V30 4813 H 449.337 -4.90724 0.893973 0
M  V30 4814 H 448.491 -5.94266 -1.22198 0
M  V30 4815 H 447.23 -4.68463 -1.35623 0
M  V30 4816 H 446.235 -5.4361 0.82269 0
M  V30 4817 H 447.46 -6.72531 0.942247 0
M  V30 4818 H 445.406 -6.43337 -1.2827 0
M  V30 4819 H 445.323 -7.55993 0.0317402 0
M  V30 4820 H 446.591 -7.71001 -1.14792 0
M  V30 4821 N 450.82 -0.546701 -1.47814 0
M  V30 4822 C 451.783 0.196287 -2.28358 0
M  V30 4823 C 452.783 0.852437 -1.36346 0
M  V30 4824 O 453.973 0.709913 -1.59078 0
M  V30 4825 C 451.105 1.28579 -3.15722 0
M  V30 4826 H 452.298 -0.511086 -2.95513 0
M  V30 4827 H 449.851 -0.303248 -1.5333 0
M  V30 4828 H 450.586 2.0259 -2.53235 0
M  V30 4829 H 450.371 0.820229 -3.83425 0
M  V30 4830 H 451.861 1.80793 -3.76435 0
M  V30 4831 N 452.299 1.55045 -0.282633 0
M  V30 4832 C 453.209 2.26491 0.61147 0
M  V30 4833 C 454.225 1.29348 1.16384 0
M  V30 4834 O 455.401 1.62298 1.19253 0
M  V30 4835 C 452.466 2.97779 1.77563 0
M  V30 4836 C 451.527 4.10418 1.25919 0
M  V30 4837 C 450.76 4.78297 2.36786 0
M  V30 4838 O 450.983 4.45426 3.56303 0
M  V30 4839 O 449.917 5.66089 2.04517 0
M  V30 4840 H 453.743 3.03683 0.0324615 0
M  V30 4841 H 451.328 1.49317 -0.0497576 0
M  V30 4842 H 453.21 3.42554 2.45427 0
M  V30 4843 H 451.885 2.23498 2.34159 0
M  V30 4844 H 450.792 3.70082 0.546797 0
M  V30 4845 H 452.125 4.86622 0.738887 0
M  V30 4846 N 453.777 0.010035 1.57597 0
M  V30 4847 C 455.054 -0.710296 1.82248 0
M  V30 4848 C 455.434 -1.91426 0.889911 0
M  V30 4849 O 454.782 -2.28424 -0.0590292 0
M  V30 4850 C 454.992 -1.10655 3.30993 0
M  V30 4851 C 456.34 -1.50621 3.96987 0
M  V30 4852 O 457.364 -1.20007 3.35375 0
M  V30 4853 O 456.223 -2.07587 5.05539 0
M  V30 4854 H 453.317 -0.34673 0.750804 0
M  V30 4855 H 455.863 0.0362578 1.69661 0
M  V30 4856 H 454.635 -0.248826 3.90508 0
M  V30 4857 H 454.258 -1.91189 3.48615 0
M  V30 4858 N 455.255 -1.55392 -0.262866 0
M  V30 4859 C 456.532 -1.67204 -1.01499 0
M  V30 4860 C 456.912 -0.545186 -2.03939 0
M  V30 4861 O 456.26 0.453467 -2.23955 0
M  V30 4862 C 456.47 -3.06847 -1.6627 0
M  V30 4863 C 457.818 -3.64928 -2.17054 0
M  V30 4864 O 458.842 -3.09545 -1.76239 0
M  V30 4865 O 457.701 -4.61984 -2.91947 0
M  V30 4866 H 454.795 -0.679467 -0.471438 0
M  V30 4867 H 457.341 -1.67729 -0.257918 0
M  V30 4868 H 456.113 -3.80309 -0.920915 0
M  V30 4869 H 455.736 -3.10266 -2.48638 0
M  V30 4870 N 456.733 0.527833 -1.48498 0
M  V30 4871 C 457.961 1.30823 -1.6029 0
M  V30 4872 C 458.376 1.86945 -0.263974 0
M  V30 4873 O 457.733 1.6651 0.747034 0
M  V30 4874 C 457.784 2.45756 -2.65116 0
M  V30 4875 O 457.505 1.91946 -3.93813 0
M  V30 4876 C 459.006 3.37543 -2.87367 0
M  V30 4877 H 456.226 0.397763 -0.540394 0
M  V30 4878 H 458.77 0.636529 -1.94341 0
M  V30 4879 H 456.925 3.08806 -2.33917 0
M  V30 4880 H 457.339 2.67195 -4.51339 0
M  V30 4881 H 458.813 4.14532 -3.6451 0
M  V30 4882 H 459.29 3.92905 -1.9627 0
M  V30 4883 H 459.896 2.80283 -3.19878 0
M  V30 4884 N 458.211 1.37122 0.776871 0
M  V30 4885 C 459.457 1.3325 1.53675 0
M  V30 4886 C 459.812 -0.0839891 1.92217 0
M  V30 4887 O 459.105 -1.04145 1.60824 0
M  V30 4888 C 459.299 2.20068 2.81611 0
M  V30 4889 C 459.128 3.70016 2.55574 0
M  V30 4890 C 457.898 4.39144 2.4996 0
M  V30 4891 C 460.096 4.62996 2.23917 0
M  V30 4892 N 458.078 5.74663 2.15953 0
M  V30 4893 C 459.449 5.86854 2.00005 0
M  V30 4894 C 461.504 4.51433 2.1003 0
M  V30 4895 C 460.207 7.00446 1.63609 0
M  V30 4896 C 462.233 5.64905 1.75033 0
M  V30 4897 C 461.595 6.8781 1.51977 0
M  V30 4898 H 457.694 0.542878 0.562856 0
M  V30 4899 H 460.278 1.72295 0.906784 0
M  V30 4900 H 458.449 1.83248 3.42454 0
M  V30 4901 H 460.181 2.07492 3.47461 0
M  V30 4902 H 456.936 3.92088 2.65639 0
M  V30 4903 H 457.36 6.46268 2.0166 0
M  V30 4904 H 462.002 3.56987 2.26539 0
M  V30 4905 H 459.72 7.94831 1.45837 0
M  V30 4906 H 463.306 5.57926 1.64952 0
M  V30 4907 H 462.186 7.74126 1.25296 0
M  V30 4908 N 459.689 -1.00246 1.21608 0
M  V30 4909 C 460.599 -2.12515 0.993709 0
M  V30 4910 C 461.615 -1.73913 -0.0549939 0
M  V30 4911 O 462.791 -2.00943 0.135619 0
M  V30 4912 C 459.856 -3.42083 0.563953 0
M  V30 4913 C 458.917 -3.94843 1.68516 0
M  V30 4914 C 458.15 -5.18226 1.27582 0
M  V30 4915 O 458.373 -5.70201 0.150506 0
M  V30 4916 O 457.307 -5.64497 2.0887 0
M  V30 4917 H 461.133 -2.34152 1.93407 0
M  V30 4918 H 458.718 -1.10891 1.00118 0
M  V30 4919 H 460.6 -4.20073 0.334194 0
M  V30 4920 H 459.275 -3.21828 -0.347665 0
M  V30 4921 H 458.182 -3.18068 1.96935 0
M  V30 4922 H 459.515 -4.19512 2.5743 0
M  V30 4923 N 461.167 -1.02423 -1.1978 0
M  V30 4924 C 462.578 -0.748389 -1.71044 0
M  V30 4925 C 462.929 0.732398 -1.82017 0
M  V30 4926 O 462.054 1.57116 -1.48807 0
M  V30 4927 C 462.649 -1.35187 -3.1066 0
M  V30 4928 C 461.208 -1.12472 -3.59203 0
M  V30 4929 C 460.355 -1.45283 -2.36195 0
M  V30 4930 H 463.306 -1.19275 -1.04686 0
M  V30 4931 H 463.327 -0.746408 -3.73107 0
M  V30 4932 H 462.839 -2.4296 -3.02642 0
M  V30 4933 H 460.94 -0.0649983 -3.72543 0
M  V30 4934 H 461.053 -1.81016 -4.43588 0
M  V30 4935 H 459.417 -0.872034 -2.39307 0
M  V30 4936 H 460.2 -2.54129 -2.30811 0
M  V30 4937 N 462.645 1.35699 -0.801477 0
M  V30 4938 C 463.555 2.33661 -0.209691 0
M  V30 4939 C 464.571 1.6162 0.644591 0
M  V30 4940 O 465.747 1.93529 0.557545 0
M  V30 4941 C 462.812 3.40816 0.636033 0
M  V30 4942 C 461.873 4.28639 -0.238147 0
M  V30 4943 C 461.106 5.30676 0.567307 0
M  V30 4944 O 461.329 5.41174 1.8024 0
M  V30 4945 O 460.263 6.01887 -0.0391336 0
M  V30 4946 H 464.089 2.8606 -1.01996 0
M  V30 4947 H 461.674 1.38379 -0.563164 0
M  V30 4948 H 463.556 4.06301 1.11791 0
M  V30 4949 H 462.231 2.90696 1.42399 0
M  V30 4950 H 461.138 3.66152 -0.767044 0
M  V30 4951 H 462.471 4.82143 -0.989915 0
M  V30 4952 N 464.123 0.554532 1.47522 0
M  V30 4953 C 465.055 -0.232106 2.28022 0
M  V30 4954 C 466.068 -0.881865 1.36847 0
M  V30 4955 O 467.257 -0.756168 1.61692 0
M  V30 4956 C 464.357 -1.34604 3.11022 0
M  V30 4957 C 463.53 -0.793582 4.30141 0
M  V30 4958 C 462.589 -1.79168 4.94758 0
M  V30 4959 O 461.615 -1.33886 5.5323 0
M  V30 4960 N 462.817 -3.12495 4.89211 0
M  V30 4961 H 465.582 0.458407 2.96173 0
M  V30 4962 H 463.143 0.390433 1.57122 0
M  V30 4963 H 465.135 -2.01243 3.51118 0
M  V30 4964 H 463.705 -1.93983 2.45131 0
M  V30 4965 H 462.925 0.0495025 3.94169 0
M  V30 4966 H 464.213 -0.403776 5.07195 0
M  V30 4967 H 463.611 -3.51931 4.42901 0
M  V30 4968 H 462.168 -3.74698 5.33333 0
M  V30 4969 N 465.601 -1.54893 0.290851 0
M  V30 4970 C 466.548 -2.23138 -0.58974 0
M  V30 4971 C 467.518 -1.21036 -1.13752 0
M  V30 4972 O 468.703 -1.49626 -1.18392 0
M  V30 4973 C 465.843 -2.96811 -1.76061 0
M  V30 4974 C 464.956 -4.13665 -1.24519 0
M  V30 4975 C 464.091 -4.74944 -2.3791 0
M  V30 4976 C 463.13 -5.83963 -1.83451 0
M  V30 4977 N 462.267 -6.39239 -2.90376 0
M  V30 4978 H 467.107 -2.98 -0.00114915 0
M  V30 4979 H 464.644 -1.47096 0.0112006 0
M  V30 4980 H 466.602 -3.37751 -2.44909 0
M  V30 4981 H 465.232 -2.24344 -2.32098 0
M  V30 4982 H 464.284 -3.77737 -0.449288 0
M  V30 4983 H 465.596 -4.92238 -0.806424 0
M  V30 4984 H 464.75 -5.18684 -3.14724 0
M  V30 4985 H 463.489 -3.95682 -2.85109 0
M  V30 4986 H 462.494 -5.39657 -1.05122 0
M  V30 4987 H 463.719 -6.65103 -1.37169 0
M  V30 4988 H 461.665 -5.62864 -3.36927 0
M  V30 4989 H 461.582 -7.13129 -2.50965 0
M  V30 4990 H 462.85 -6.87637 -3.67118 0
M  V30 4991 N 467.08 -0.0183926 -1.57589 0
M  V30 4992 C 468.01 0.965596 -2.12599 0
M  V30 4993 C 468.991 1.34641 -1.0395 0
M  V30 4994 O 470.176 1.42693 -1.31729 0
M  V30 4995 C 467.306 2.25149 -2.64434 0
M  V30 4996 C 466.26 2.01175 -3.77773 0
M  V30 4997 C 465.586 3.35937 -4.15994 0
M  V30 4998 C 466.886 1.35953 -5.04296 0
M  V30 4999 H 468.58 0.507504 -2.95067 0
M  V30 5000 H 466.126 0.242671 -1.41941 0
M  V30 5001 H 468.079 2.94357 -3.01549 0
M  V30 5002 H 466.803 2.73105 -1.79112 0
M  V30 5003 H 465.462 1.34388 -3.4108 0
M  V30 5004 H 465.11 3.81631 -3.27669 0
M  V30 5005 H 464.81 3.20705 -4.92364 0
M  V30 5006 H 466.334 4.0643 -4.55683 0
M  V30 5007 H 467.748 1.95144 -5.39065 0
M  V30 5008 H 466.145 1.31152 -5.85593 0
M  V30 5009 H 467.215 0.331071 -4.83768 0
M  V30 5010 N 468.558 1.5553 0.254621 0
M  V30 5011 C 469.798 1.7876 0.991179 0
M  V30 5012 C 470.162 0.586669 1.82817 0
M  V30 5013 O 471.363 0.697585 2.5959 0
M  V30 5014 C 469.634 3.06679 1.83529 0
M  V30 5015 S 471.193 3.511 2.632 0
M  V30 5016 H 468.011 0.627916 0.333531 0
M  V30 5017 H 470.613 1.93766 0.259778 0
M  V30 5018 H 469.317 3.92158 1.20996 0
M  V30 5019 H 468.848 2.94388 2.60958 0
M  V30 5020 H 470.863 3.11823 3.8598 0
M  V30 5021 N 470.036 -0.519951 1.48776 0
M  V30 5022 C 470.983 -1.62352 1.64044 0
M  V30 5023 C 471.953 -1.58945 0.482251 0
M  V30 5024 O 473.138 -1.77219 0.706971 0
M  V30 5025 C 470.278 -3.00579 1.69547 0
M  V30 5026 C 469.391 -3.14145 2.96541 0
M  V30 5027 C 468.526 -4.42991 2.93142 0
M  V30 5028 C 467.565 -4.50122 4.14797 0
M  V30 5029 N 466.702 -5.7037 4.09418 0
M  V30 5030 H 471.542 -1.48643 2.58281 0
M  V30 5031 H 469.079 -0.723516 1.28077 0
M  V30 5032 H 471.037 -3.80671 1.70719 0
M  V30 5033 H 469.667 -3.13036 0.787918 0
M  V30 5034 H 468.719 -2.27239 3.05068 0
M  V30 5035 H 470.031 -3.15275 3.86527 0
M  V30 5036 H 469.185 -5.31385 2.92772 0
M  V30 5037 H 467.924 -4.44398 2.00902 0
M  V30 5038 H 466.929 -3.60133 4.15433 0
M  V30 5039 H 468.154 -4.50445 5.08208 0
M  V30 5040 H 466.1 -5.72655 3.20004 0
M  V30 5041 H 466.017 -5.73036 4.93119 0
M  V30 5042 H 467.285 -6.61023 4.13121 0
M  V30 5043 N 471.514 -1.37532 -0.769588 0
M  V30 5044 C 472.444 -1.36172 -1.89682 0
M  V30 5045 C 473.425 -0.23001 -1.68538 0
M  V30 5046 O 474.61 -0.43069 -1.89364 0
M  V30 5047 C 471.74 -1.1701 -3.26995 0
M  V30 5048 C 470.694 -2.27216 -3.62708 0
M  V30 5049 C 470.02 -1.93174 -4.98586 0
M  V30 5050 C 471.32 -3.6941 -3.69234 0
M  V30 5051 H 473.014 -2.30499 -1.91078 0
M  V30 5052 H 470.56 -1.10953 -0.917902 0
M  V30 5053 H 472.513 -1.14688 -4.05493 0
M  V30 5054 H 471.237 -0.191395 -3.26039 0
M  V30 5055 H 469.896 -2.28697 -2.86519 0
M  V30 5056 H 469.544 -0.938281 -4.94171 0
M  V30 5057 H 469.244 -2.66973 -5.23449 0
M  V30 5058 H 470.768 -1.92443 -5.79481 0
M  V30 5059 H 472.182 -3.70047 -4.37879 0
M  V30 5060 H 470.579 -4.4228 -4.05597 0
M  V30 5061 H 471.649 -4.0288 -2.69844 0
M  V30 5062 N 472.992 0.995999 -1.22138 0
M  V30 5063 C 474.408 1.25917 -0.980667 0
M  V30 5064 C 474.608 1.98819 0.327604 0
M  V30 5065 O 473.664 2.29587 1.05101 0
M  V30 5066 C 474.977 2.07399 -2.17729 0
M  V30 5067 C 476.525 2.20594 -2.22052 0
M  V30 5068 C 477 3.05462 -3.41258 0
M  V30 5069 N 478.491 3.13049 -3.41401 0
M  V30 5070 C 479.226 3.78997 -4.30289 0
M  V30 5071 N 478.722 4.46899 -5.2939 0
M  V30 5072 N 480.515 3.75728 -4.18073 0
M  V30 5073 H 472.666 0.507158 -2.06256 0
M  V30 5074 H 474.929 0.28658 -0.903646 0
M  V30 5075 H 474.635 1.61191 -3.12586 0
M  V30 5076 H 474.509 3.08154 -2.17534 0
M  V30 5077 H 476.896 2.66017 -1.27745 0
M  V30 5078 H 476.977 1.1928 -2.26287 0
M  V30 5079 H 476.621 2.60739 -4.35864 0
M  V30 5080 H 476.551 4.06911 -3.34262 0
M  V30 5081 H 479.042 2.64721 -2.69688 0
M  V30 5082 H 479.355 4.94952 -5.935 0
M  V30 5083 H 477.7 4.45657 -5.33306 0
M  V30 5084 H 480.891 3.2184 -3.39907 0
M  V30 5085 H 481.064 4.26845 -4.87553 0
M  V30 5086 N 474.47 1.03057 1.19235 0
M  V30 5087 C 475.417 0.612832 2.22515 0
M  V30 5088 C 476.387 -0.374224 1.61829 0
M  V30 5089 O 477.572 -0.270501 1.88873 0
M  V30 5090 C 474.712 -0.028475 3.45088 0
M  V30 5091 C 473.825 1.00483 4.20151 0
M  V30 5092 C 472.96 0.333102 5.30155 0
M  V30 5093 C 471.999 1.3522 5.96977 0
M  V30 5094 N 471.136 0.70616 6.9854 0
M  V30 5095 H 475.976 1.49812 2.57605 0
M  V30 5096 H 473.513 0.749658 1.26564 0
M  V30 5097 H 475.471 -0.417548 4.15105 0
M  V30 5098 H 474.101 -0.877334 3.10649 0
M  V30 5099 H 473.153 1.51194 3.49062 0
M  V30 5100 H 474.465 1.77929 4.65986 0
M  V30 5101 H 473.619 -0.110725 6.06599 0
M  V30 5102 H 472.358 -0.473547 4.85396 0
M  V30 5103 H 471.363 1.80627 5.19282 0
M  V30 5104 H 472.588 2.16037 6.4382 0
M  V30 5105 H 470.534 -0.0803667 6.55951 0
M  V30 5106 H 470.451 1.41848 7.42573 0
M  V30 5107 H 471.719 0.286391 7.78974 0
M  V30 5108 N 475.948 -1.35272 0.808662 0
M  V30 5109 C 477.196 -1.98316 0.389233 0
M  V30 5110 C 477.517 -1.64465 -1.04767 0
M  V30 5111 O 476.787 -0.928175 -1.72516 0
M  V30 5112 H 475.367 -0.733585 0.140935 0
M  V30 5113 H 478.029 -1.6515 1.03496 0
M  V30 5114 H 477.125 -3.08123 0.496631 0
M  V30 5115 N 477.426 -0.562348 -1.47226 0
M  V30 5116 C 478.374 0.195476 -2.31777 0
M  V30 5117 C 479.368 0.90433 -1.43242 0
M  V30 5118 O 480.574 0.825031 -1.59979 0
M  V30 5119 H 476.949 0.0819095 -0.747526 0
M  V30 5120 H 478.92 -0.536753 -2.93533 0
M  V30 5121 C 477.669 1.20902 -3.26003 0
M  V30 5122 H 476.992 0.672997 -3.94095 0
M  V30 5123 H 478.432 1.71006 -3.87986 0
M  V30 5124 C 476.891 2.25955 -2.49891 0
M  V30 5125 O 477.421 3.32969 -2.2471 0
M  V30 5126 N 475.627 2.00019 -2.1081 0
M  V30 5127 H 475.174 1.13006 -2.31489 0
M  V30 5128 H 475.132 2.70523 -1.60201 0
M  V30 5129 N 478.904 1.54736 -0.299062 0
M  V30 5130 C 480.144 2.0201 0.31168 0
M  V30 5131 C 480.508 1.18281 1.5124 0
M  V30 5132 O 481.709 1.55243 2.19438 0
M  V30 5133 C 479.98 3.5123 0.661227 0
M  V30 5134 S 481.539 4.20467 1.2551 0
M  V30 5135 H 478.357 0.704523 0.0957517 0
M  V30 5136 H 480.959 1.90791 -0.426482 0
M  V30 5137 H 479.663 4.09804 -0.221171 0
M  V30 5138 H 479.194 3.66481 1.43023 0
M  V30 5139 H 481.209 4.26083 2.54298 0
M  V30 5140 N 480.382 0.0267497 1.57577 0
M  V30 5141 C 481.607 -0.666227 1.96408 0
M  V30 5142 C 482.032 -1.65004 0.903071 0
M  V30 5143 O 481.39 -1.80787 -0.136263 0
M  V30 5144 C 481.438 -1.35101 3.34335 0
M  V30 5145 O 480.542 -2.46623 3.30531 0
M  V30 5146 H 479.883 -0.175206 0.640468 0
M  V30 5147 H 482.413 0.0878977 2.04411 0
M  V30 5148 H 482.423 -1.70834 3.70513 0
M  V30 5149 H 481.098 -0.629844 4.11103 0
M  V30 5150 H 479.675 -2.13019 3.06068 0
M  V30 5151 N 481.861 -1.55662 -0.24637 0
M  V30 5152 C 483.086 -1.81914 -0.996093 0
M  V30 5153 C 483.511 -0.603875 -1.78143 0
M  V30 5154 O 482.869 0.447091 -1.75701 0
M  V30 5155 C 482.917 -3.05908 -1.90925 0
M  V30 5156 O 482.021 -2.82861 -3.00105 0
M  V30 5157 H 481.362 -0.600481 -0.283406 0
M  V30 5158 H 483.892 -2.02848 -0.267199 0
M  V30 5159 H 483.902 -3.35356 -2.3238 0
M  V30 5160 H 482.577 -3.93999 -1.33183 0
M  V30 5161 H 481.154 -2.64583 -2.62775 0
M  V30 5162 N 483.339 0.512053 -1.4905 0
M  V30 5163 C 484.567 1.29116 -1.61669 0
M  V30 5164 C 484.982 1.86655 -0.283787 0
M  V30 5165 O 484.339 1.67293 0.729331 0
M  V30 5166 C 484.39 2.4293 -2.67707 0
M  V30 5167 O 484.111 1.87758 -3.95826 0
M  V30 5168 C 485.612 3.34476 -2.90931 0
M  V30 5169 H 482.832 0.392009 -0.544583 0
M  V30 5170 H 485.376 0.615881 -1.95006 0
M  V30 5171 H 483.531 3.06308 -2.37179 0
M  V30 5172 H 483.945 2.62393 -4.54148 0
M  V30 5173 H 485.419 4.10642 -3.68886 0
M  V30 5174 H 485.896 3.90801 -2.00427 0
M  V30 5175 H 486.502 2.76874 -3.22832 0
M  V30 5176 N 484.817 1.37938 0.762283 0
M  V30 5177 C 486.063 1.33866 1.52341 0
M  V30 5178 C 486.396 -0.0738961 1.94059 0
M  V30 5179 O 485.671 -1.03326 1.64785 0
M  V30 5180 C 485.954 2.28644 2.78197 0
M  V30 5181 C 485.807 3.78722 2.42672 0
M  V30 5182 C 487.126 2.21702 3.80179 0
M  V30 5183 H 484.245 0.487593 0.55265 0
M  V30 5184 H 486.887 1.68717 0.873767 0
M  V30 5185 H 485.037 1.99055 3.33631 0
M  V30 5186 H 486.709 4.18948 1.93081 0
M  V30 5187 H 484.952 3.96827 1.75244 0
M  V30 5188 H 485.623 4.40486 3.3268 0
M  V30 5189 H 488.099 2.47805 3.34263 0
M  V30 5190 H 486.975 2.90143 4.65949 0
M  V30 5191 H 487.236 1.21301 4.25133 0
M  V30 5192 N 486.295 -0.989507 1.22664 0
M  V30 5193 C 487.535 -1.7447 1.06488 0
M  V30 5194 C 487.899 -1.8794 -0.392737 0
M  V30 5195 O 489.1 -2.60175 -0.675446 0
M  V30 5196 C 487.371 -3.11043 1.76031 0
M  V30 5197 S 488.93 -4.02258 1.7531 0
M  V30 5198 H 485.748 -0.600123 0.381278 0
M  V30 5199 H 488.35 -1.18283 1.55658 0
M  V30 5200 H 487.054 -2.98884 2.81241 0
M  V30 5201 H 486.585 -3.72301 1.27105 0
M  V30 5202 H 488.6 -4.89623 0.805208 0
M  V30 5203 N 487.773 -1.03688 -1.18687 0
M  V30 5204 C 489.021 -0.736572 -1.88199 0
M  V30 5205 C 489.342 0.737665 -1.80509 0
M  V30 5206 O 488.612 1.53204 -1.22088 0
M  V30 5207 H 487.192 -0.269466 -0.696704 0
M  V30 5208 H 489.854 -1.31282 -1.44052 0
M  V30 5209 H 488.95 -1.03802 -2.94332 0
M  V30 5210 N 489.251 1.34841 -0.815825 0
M  V30 5211 C 490.183 2.28409 -0.190265 0
M  V30 5212 C 491.196 1.50705 0.615771 0
M  V30 5213 O 492.385 1.72822 0.446616 0
M  V30 5214 C 489.485 3.30441 0.752446 0
M  V30 5215 C 488.658 4.37399 -0.00922152 0
M  V30 5216 C 487.717 5.19234 0.853351 0
M  V30 5217 O 486.743 5.68404 0.300919 0
M  V30 5218 N 487.945 5.38248 2.17416 0
M  V30 5219 H 490.71 2.82732 -0.994114 0
M  V30 5220 H 488.271 1.47289 -0.672129 0
M  V30 5221 H 490.263 3.82084 1.33394 0
M  V30 5222 H 488.833 2.76565 1.45707 0
M  V30 5223 H 488.053 3.86567 -0.771979 0
M  V30 5224 H 489.341 5.05992 -0.533807 0
M  V30 5225 H 488.739 4.99961 2.6468 0
M  V30 5226 H 487.296 5.93035 2.70467 0
M  V30 5227 N 490.729 0.570148 1.46925 0
M  V30 5228 C 492.006 -0.0153259 1.95594 0
M  V30 5229 C 492.386 -1.47232 1.51281 0
M  V30 5230 O 491.734 -2.15574 0.757624 0
M  V30 5231 C 491.944 0.143624 3.48704 0
M  V30 5232 C 493.292 0.00494484 4.246 0
M  V30 5233 O 494.316 0.0718214 3.56128 0
M  V30 5234 O 493.175 -0.141175 5.46318 0
M  V30 5235 H 490.269 -0.0568819 0.825041 0
M  V30 5236 H 492.815 0.637583 1.57267 0
M  V30 5237 H 491.587 1.15699 3.73804 0
M  V30 5238 H 491.21 -0.5463 3.93829 0
M  V30 5239 N 492.207 -1.54576 0.307264 0
M  V30 5240 C 493.137 -2.26708 -0.55907 0
M  V30 5241 C 494.118 -1.26893 -1.1328 0
M  V30 5242 O 495.303 -1.55677 -1.16097 0
M  V30 5243 C 492.433 -3.01259 -1.72801 0
M  V30 5244 C 491.387 -4.08275 -1.28435 0
M  V30 5245 C 490.713 -4.70575 -2.53895 0
M  V30 5246 C 492.013 -5.2068 -0.411038 0
M  V30 5247 H 493.707 -2.9937 0.042576 0
M  V30 5248 H 491.253 -1.43983 0.0219173 0
M  V30 5249 H 493.206 -3.50444 -2.34023 0
M  V30 5250 H 491.93 -2.26187 -2.356 0
M  V30 5251 H 490.589 -3.59949 -0.695161 0
M  V30 5252 H 490.237 -3.92136 -3.15021 0
M  V30 5253 H 489.937 -5.42854 -2.24908 0
M  V30 5254 H 491.461 -5.22527 -3.15908 0
M  V30 5255 H 492.875 -5.65721 -0.929097 0
M  V30 5256 H 491.272 -5.99716 -0.214664 0
M  V30 5257 H 492.342 -4.81629 0.562287 0
M  V30 5258 N 493.685 -0.035106 -1.57561 0
M  V30 5259 C 494.617 0.973604 -2.07494 0
M  V30 5260 C 495.63 1.28504 -0.999534 0
M  V30 5261 O 496.819 1.24864 -1.27559 0
M  V30 5262 C 493.919 2.29945 -2.48955 0
M  V30 5263 C 493.092 2.1723 -3.79644 0
M  V30 5264 C 492.151 3.328 -4.07592 0
M  V30 5265 O 491.177 3.09418 -4.77754 0
M  V30 5266 N 492.379 4.56779 -3.58236 0
M  V30 5267 H 495.144 0.547525 -2.94656 0
M  V30 5268 H 492.705 0.151515 -1.61189 0
M  V30 5269 H 494.697 3.06097 -2.64739 0
M  V30 5270 H 493.267 2.64173 -1.67126 0
M  V30 5271 H 492.487 1.25768 -3.73599 0
M  V30 5272 H 493.775 2.05945 -4.65257 0
M  V30 5273 H 493.173 4.78668 -3.01485 0
M  V30 5274 H 491.73 5.30079 -3.79288 0
M  V30 5275 N 495.163 1.55791 0.238111 0
M  V30 5276 C 496.388 1.8244 0.986432 0
M  V30 5277 C 496.813 0.613314 1.7782 0
M  V30 5278 O 496.171 -0.437767 1.75935 0
M  V30 5279 C 496.219 3.06917 1.893 0
M  V30 5280 O 495.323 2.84449 2.98601 0
M  V30 5281 H 494.664 0.601975 0.280218 0
M  V30 5282 H 497.194 2.02987 0.256437 0
M  V30 5283 H 497.204 3.36583 2.30598 0
M  V30 5284 H 495.879 3.947 1.31091 0
M  V30 5285 H 494.456 2.65972 2.61368 0
M  V30 5286 N 496.642 -0.504142 1.49319 0
M  V30 5287 C 497.592 -1.60284 1.62151 0
M  V30 5288 C 498.576 -1.53657 0.477315 0
M  V30 5289 O 499.768 -1.6124 0.730108 0
M  V30 5290 C 496.897 -2.98909 1.68844 0
M  V30 5291 C 495.983 -3.10544 2.8883 0
M  V30 5292 N 496.374 -2.92078 4.12946 0
M  V30 5293 C 494.672 -3.4164 2.86702 0
M  V30 5294 C 495.373 -3.07812 4.93585 0
M  V30 5295 N 494.349 -3.36549 4.26891 0
M  V30 5296 H 498.151 -1.44656 2.55835 0
M  V30 5297 H 495.665 -0.710198 1.46048 0
M  V30 5298 H 497.662 -3.77865 1.76134 0
M  V30 5299 H 496.322 -3.15609 0.762943 0
M  V30 5300 H 497.333 -2.68316 4.42975 0
M  V30 5301 H 494.01 -3.64537 2.03517 0
M  V30 5302 H 495.4 -2.98054 6.02174 0
M  V30 5303 N 498.12 -1.38341 -0.754957 0
M  V30 5304 C 499.05 -1.38176 -1.88227 0
M  V30 5305 C 500.031 -0.247873 -1.68284 0
M  V30 5306 O 501.216 -0.45075 -1.88896 0
M  V30 5307 C 498.346 -1.20471 -3.25736 0
M  V30 5308 C 497.3 -2.3105 -3.60278 0
M  V30 5309 C 496.626 -1.98452 -4.96509 0
M  V30 5310 C 497.926 -3.73305 -3.65295 0
M  V30 5311 H 499.62 -2.32512 -1.88622 0
M  V30 5312 H 497.166 -1.1192 -0.906082 0
M  V30 5313 H 499.119 -1.18982 -4.04254 0
M  V30 5314 H 497.843 -0.225965 -3.25817 0
M  V30 5315 H 496.502 -2.31723 -2.84078 0
M  V30 5316 H 496.15 -0.990641 -4.93148 0
M  V30 5317 H 495.85 -2.7251 -5.20588 0
M  V30 5318 H 497.374 -1.98578 -5.77407 0
M  V30 5319 H 498.788 -3.7467 -4.3393 0
M  V30 5320 H 497.185 -4.46557 -4.00883 0
M  V30 5321 H 498.255 -4.05719 -2.65556 0
M  V30 5322 N 499.598 0.982988 -1.23187 0
M  V30 5323 C 500.838 1.73903 -1.07412 0
M  V30 5324 C 501.202 1.88146 0.382764 0
M  V30 5325 O 502.403 2.6053 0.661638 0
M  V30 5326 C 500.674 3.10105 -1.77678 0
M  V30 5327 S 502.233 4.01323 -1.77441 0
M  V30 5328 H 499.051 0.598093 -0.384456 0
M  V30 5329 H 501.653 1.17456 -1.56283 0
M  V30 5330 H 500.357 2.97388 -2.82822 0
M  V30 5331 H 499.888 3.71622 -1.29077 0
M  V30 5332 H 501.903 4.89189 -0.831162 0
M  V30 5333 N 501.076 1.04316 1.18135 0
M  V30 5334 C 502.009 0.580823 2.20685 0
M  V30 5335 C 502.987 -0.385943 1.57953 0
M  V30 5336 O 504.171 -0.299654 1.86103 0
M  V30 5337 C 501.298 -0.151162 3.38363 0
M  V30 5338 C 500.344 0.769247 4.19505 0
M  V30 5339 S 501.177 2.25352 4.85774 0
M  V30 5340 C 502.333 1.53246 6.0685 0
M  V30 5341 H 502.566 1.44968 2.5956 0
M  V30 5342 H 500.099 0.85434 1.28609 0
M  V30 5343 H 502.057 -0.567315 4.06561 0
M  V30 5344 H 500.718 -0.995936 2.97892 0
M  V30 5345 H 499.911 0.203335 5.0359 0
M  V30 5346 H 499.513 1.12436 3.56699 0
M  V30 5347 H 501.805 0.82689 6.72435 0
M  V30 5348 H 502.748 2.35044 6.67952 0
M  V30 5349 H 503.156 1.0237 5.5514 0
M  V30 5350 N 502.554 -1.34406 0.822964 0
M  V30 5351 C 503.794 -2.00103 0.416915 0
M  V30 5352 C 504.158 -1.63826 -1.00125 0
M  V30 5353 O 505.359 -2.22367 -1.51018 0
M  V30 5354 C 503.63 -3.52101 0.613151 0
M  V30 5355 S 505.189 -4.37774 0.299956 0
M  V30 5356 H 502.007 -0.69333 0.157527 0
M  V30 5357 H 504.609 -1.63698 1.06879 0
M  V30 5358 H 503.313 -3.75991 1.64496 0
M  V30 5359 H 502.844 -3.93364 -0.0534554 0
M  V30 5360 H 504.859 -4.8822 -0.886336 0
M  V30 5361 N 504.032 -0.577932 -1.46621 0
M  V30 5362 C 504.995 0.147805 -2.28723 0
M  V30 5363 C 505.995 0.823325 -1.38123 0
M  V30 5364 O 507.185 0.676011 -1.60548 0
M  V30 5365 C 504.317 1.21853 -3.18378 0
M  V30 5366 H 505.51 -0.573654 -2.94362 0
M  V30 5367 H 503.063 -0.335703 -1.52652 0
M  V30 5368 H 503.798 1.97173 -2.57475 0
M  V30 5369 H 503.583 0.738714 -3.85078 0
M  V30 5370 H 505.073 1.72768 -3.80186 0
M  V30 5371 N 505.51 1.54411 -0.315457 0
M  V30 5372 C 506.42 2.27737 0.56329 0
M  V30 5373 C 507.436 1.31787 1.13614 0
M  V30 5374 O 508.612 1.64791 1.15784 0
M  V30 5375 C 505.677 3.01478 1.71207 0
M  V30 5376 C 504.738 4.12997 1.17185 0
M  V30 5377 C 503.971 4.83212 2.26588 0
M  V30 5378 O 504.194 4.52884 3.46775 0
M  V30 5379 O 503.128 5.70299 1.92463 0
M  V30 5380 H 506.954 3.03683 -0.0319614 0
M  V30 5381 H 504.539 1.49178 -0.0814188 0
M  V30 5382 H 506.421 3.47683 2.38106 0
M  V30 5383 H 505.096 2.28414 2.29366 0
M  V30 5384 H 504.003 3.71159 0.468174 0
M  V30 5385 H 505.336 4.8808 0.635501 0
M  V30 5386 N 506.988 0.0434614 1.5754 0
M  V30 5387 C 508.236 -0.630786 1.92004 0
M  V30 5388 C 508.557 -1.71836 0.921807 0
M  V30 5389 O 507.827 -1.9587 -0.034522 0
M  V30 5390 H 506.407 -0.235988 0.708745 0
M  V30 5391 H 509.069 0.0946462 1.9467 0
M  V30 5392 H 508.165 -1.07434 2.93026 0
M  V30 5393 N 508.466 -1.55915 -0.229846 0
M  V30 5394 C 509.696 -1.82352 -0.971152 0
M  V30 5395 C 510.104 -0.619231 -1.7878 0
M  V30 5396 O 509.447 0.421597 -1.78797 0
M  V30 5397 C 509.509 -3.02399 -1.9441 0
M  V30 5398 C 509.173 -4.37739 -1.31277 0
M  V30 5399 C 510.17 -5.15074 -0.706757 0
M  V30 5400 C 507.855 -4.84454 -1.32702 0
M  V30 5401 C 509.849 -6.37281 -0.123413 0
M  V30 5402 C 507.536 -6.06605 -0.739831 0
M  V30 5403 C 508.534 -6.82858 -0.139071 0
M  V30 5404 O 508.222 -8.027 0.439007 0
M  V30 5405 H 507.954 -0.61035 -0.290601 0
M  V30 5406 H 510.508 -2.03839 -0.252746 0
M  V30 5407 H 508.738 -2.76709 -2.70128 0
M  V30 5408 H 510.427 -3.15779 -2.55026 0
M  V30 5409 H 511.193 -4.80093 -0.688131 0
M  V30 5410 H 507.072 -4.25081 -1.78402 0
M  V30 5411 H 510.616 -6.96741 0.346124 0
M  V30 5412 H 506.513 -6.4106 -0.755841 0
M  V30 5413 H 507.281 -8.17824 0.332521 0
M  V30 5414 N 509.944 0.496216 -1.49584 0
M  V30 5415 C 510.907 1.57952 -1.66084 0
M  V30 5416 C 511.907 1.51729 -0.53244 0
M  V30 5417 O 513.097 1.54796 -0.79899 0
M  V30 5418 C 510.229 2.97604 -1.66268 0
M  V30 5419 H 511.422 1.44649 -2.6271 0
M  V30 5420 H 508.975 0.7208 -1.38687 0
M  V30 5421 H 509.71 3.16378 -0.712432 0
M  V30 5422 H 509.495 3.03528 -2.4822 0
M  V30 5423 H 510.985 3.76301 -1.81073 0
M  V30 5424 N 511.423 1.38739 0.74761 0
M  V30 5425 C 512.353 1.39173 1.87492 0
M  V30 5426 C 513.334 0.256794 1.6815 0
M  V30 5427 O 514.519 0.460762 1.88655 0
M  V30 5428 C 511.649 1.22197 3.25093 0
M  V30 5429 C 510.603 2.32957 3.59047 0
M  V30 5430 C 509.929 2.01082 4.95449 0
M  V30 5431 C 511.229 3.75237 3.6331 0
M  V30 5432 H 512.923 2.3351 1.87386 0
M  V30 5433 H 510.469 1.12399 0.900134 0
M  V30 5434 H 512.422 1.21124 4.03617 0
M  V30 5435 H 511.146 0.243241 3.25693 0
M  V30 5436 H 509.805 2.33226 2.82845 0
M  V30 5437 H 509.453 1.01678 4.92616 0
M  V30 5438 H 509.153 2.75267 5.19136 0
M  V30 5439 H 510.677 2.01638 5.76346 0
M  V30 5440 H 512.091 3.76966 4.31937 0
M  V30 5441 H 510.488 4.48677 3.98509 0
M  V30 5442 H 511.558 4.07122 2.634 0
M  V30 5443 N 512.901 -0.976442 1.23707 0
M  V30 5444 C 514.126 -1.75875 1.09922 0
M  V30 5445 C 514.551 -1.84911 -0.34489 0
M  V30 5446 O 513.909 -1.31363 -1.24954 0
M  V30 5447 C 513.957 -3.16179 1.73388 0
M  V30 5448 O 513.061 -4.00124 0.99871 0
M  V30 5449 H 512.402 -0.540954 0.385052 0
M  V30 5450 H 514.932 -1.22546 1.6384 0
M  V30 5451 H 514.942 -3.66741 1.78788 0
M  V30 5452 H 513.617 -3.08917 2.78466 0
M  V30 5453 H 512.194 -3.58624 1.02193 0
M  V30 5454 N 514.379 -1.04941 -1.1758 0
M  V30 5455 C 515.795 -0.770282 -1.39781 0
M  V30 5456 C 515.995 0.636417 -1.91186 0
M  V30 5457 O 515.051 1.39923 -2.10185 0
M  V30 5458 C 516.364 -1.82376 -2.3908 0
M  V30 5459 C 517.912 -1.84569 -2.52791 0
M  V30 5460 C 518.387 -2.88933 -3.55361 0
M  V30 5461 N 519.878 -2.8788 -3.62877 0
M  V30 5462 C 520.613 -3.65282 -4.41992 0
M  V30 5463 N 520.109 -4.52461 -5.24643 0
M  V30 5464 N 521.902 -3.53732 -4.36841 0
M  V30 5465 H 514.053 -1.95705 -0.825438 0
M  V30 5466 H 516.316 -0.847284 -0.425222 0
M  V30 5467 H 516.022 -2.83323 -2.08376 0
M  V30 5468 H 515.896 -1.66327 -3.38549 0
M  V30 5469 H 518.283 -0.842879 -2.82807 0
M  V30 5470 H 518.364 -2.04696 -1.53406 0
M  V30 5471 H 518.008 -3.89398 -3.26085 0
M  V30 5472 H 517.938 -2.66059 -4.54445 0
M  V30 5473 H 520.429 -2.24666 -3.03864 0
M  V30 5474 H 520.742 -5.08211 -5.82187 0
M  V30 5475 H 519.087 -4.56524 -5.24033 0
M  V30 5476 H 522.278 -2.85021 -3.71323 0
M  V30 5477 H 522.451 -4.14302 -4.98255 0
M  V30 5478 N 515.857 1.33968 -0.830081 0
M  V30 5479 C 517.134 1.92554 -0.343858 0
M  V30 5480 C 517.514 1.7573 1.16971 0
M  V30 5481 O 516.862 1.14035 1.98011 0
M  V30 5482 C 517.072 3.40147 -0.781073 0
M  V30 5483 C 518.42 4.17299 -0.78402 0
M  V30 5484 O 519.444 3.48762 -0.724112 0
M  V30 5485 O 518.303 5.39631 -0.863739 0
M  V30 5486 H 515.397 0.821469 -0.0954827 0
M  V30 5487 H 517.943 1.42897 -0.915348 0
M  V30 5488 H 516.715 3.46225 -1.82329 0
M  V30 5489 H 516.338 3.97166 -0.18567 0
M  V30 5490 N 517.335 0.585699 1.46312 0
M  V30 5491 C 518.751 0.247607 1.57668 0
M  V30 5492 C 518.951 -1.25007 1.58037 0
M  V30 5493 O 518.007 -2.03196 1.49893 0
M  V30 5494 C 519.32 0.899456 2.86933 0
M  V30 5495 C 520.868 0.873326 3.00569 0
M  V30 5496 C 521.343 1.50477 4.32574 0
M  V30 5497 N 522.834 1.46925 4.3928 0
M  V30 5498 C 523.569 1.92719 5.40044 0
M  V30 5499 N 523.065 2.46499 6.47464 0
M  V30 5500 N 524.858 1.83617 5.31264 0
M  V30 5501 H 517.009 1.55841 1.44317 0
M  V30 5502 H 519.272 0.651564 0.688599 0
M  V30 5503 H 518.978 1.95313 2.92482 0
M  V30 5504 H 518.852 0.409476 3.74971 0
M  V30 5505 H 521.239 -0.171736 2.946 0
M  V30 5506 H 521.32 1.40136 2.13999 0
M  V30 5507 H 520.964 2.54905 4.39302 0
M  V30 5508 H 520.894 0.951944 5.17924 0
M  V30 5509 H 523.385 1.07616 3.62253 0
M  V30 5510 H 523.698 2.79291 7.20567 0
M  V30 5511 H 522.043 2.50526 6.48276 0
M  V30 5512 H 525.234 1.41358 4.46246 0
M  V30 5513 H 525.407 2.19622 6.09648 0
M  V30 5514 N 518.813 -1.54241 0.323641 0
M  V30 5515 C 519.76 -2.24339 -0.542277 0
M  V30 5516 C 520.73 -1.23421 -1.11159 0
M  V30 5517 O 521.915 -1.52104 -1.15192 0
M  V30 5518 C 519.055 -3.00479 -1.69725 0
M  V30 5519 C 518.168 -4.16214 -1.15716 0
M  V30 5520 C 517.303 -4.79884 -2.27783 0
M  V30 5521 C 516.342 -5.87722 -1.71023 0
M  V30 5522 N 515.479 -6.45254 -2.76752 0
M  V30 5523 H 520.319 -2.97935 0.0620613 0
M  V30 5524 H 517.856 -1.47039 0.0423993 0
M  V30 5525 H 519.814 -3.42869 -2.3769 0
M  V30 5526 H 518.444 -2.29217 -2.27288 0
M  V30 5527 H 517.496 -3.78605 -0.369063 0
M  V30 5528 H 518.808 -4.93838 -0.701832 0
M  V30 5529 H 517.962 -5.25243 -3.03651 0
M  V30 5530 H 516.701 -4.01641 -2.76652 0
M  V30 5531 H 515.706 -5.41765 -0.936518 0
M  V30 5532 H 516.931 -6.67863 -1.2303 0
M  V30 5533 H 514.877 -5.69884 -3.24912 0
M  V30 5534 H 514.794 -7.18292 -2.35782 0
M  V30 5535 H 516.062 -6.95269 -3.5245 0
M  V30 5536 N 520.291 -0.0518155 -1.57515 0
M  V30 5537 C 521.521 0.63048 -1.96745 0
M  V30 5538 C 521.929 1.64875 -0.928054 0
M  V30 5539 O 521.272 1.83449 0.0960678 0
M  V30 5540 C 521.334 1.37381 -3.32215 0
M  V30 5541 C 520.998 0.511298 -4.54131 0
M  V30 5542 C 521.995 -0.222884 -5.19422 0
M  V30 5543 C 519.68 0.442035 -5.00351 0
M  V30 5544 C 521.674 -1.01476 -6.2927 0
M  V30 5545 C 519.361 -0.35353 -6.10077 0
M  V30 5546 C 520.359 -1.08062 -6.74397 0
M  V30 5547 O 520.047 -1.8631 -7.82013 0
M  V30 5548 H 519.779 0.177126 -0.652382 0
M  V30 5549 H 522.333 -0.114726 -2.05079 0
M  V30 5550 H 520.563 2.16466 -3.20436 0
M  V30 5551 H 522.252 1.9464 -3.56188 0
M  V30 5552 H 523.018 -0.178846 -4.8467 0
M  V30 5553 H 518.897 0.997562 -4.50077 0
M  V30 5554 H 522.441 -1.58279 -6.79407 0
M  V30 5555 H 518.338 -0.399205 -6.44264 0
M  V30 5556 H 519.106 -1.78528 -7.98793 0
M  V30 5557 N 521.769 1.56035 0.221574 0
M  V30 5558 C 523.009 1.80822 0.953038 0
M  V30 5559 C 523.373 0.625316 1.81532 0
M  V30 5560 O 524.574 0.752491 2.58052 0
M  V30 5561 C 522.845 3.10503 1.76983 0
M  V30 5562 S 524.404 3.56604 2.55693 0
M  V30 5563 H 521.222 0.634849 0.320137 0
M  V30 5564 H 523.824 1.94274 0.218619 0
M  V30 5565 H 522.528 3.94636 1.12651 0
M  V30 5566 H 522.059 2.99858 2.54655 0
M  V30 5567 H 524.074 3.1994 3.79279 0
M  V30 5568 N 523.247 -0.488276 1.49845 0
M  V30 5569 C 524.157 -1.61451 1.70207 0
M  V30 5570 C 525.173 -1.63877 0.584846 0
M  V30 5571 O 526.349 -1.82063 0.861107 0
M  V30 5572 C 523.414 -2.9776 1.77594 0
M  V30 5573 C 522.475 -3.05861 3.01243 0
M  V30 5574 C 521.708 -4.35668 3.08268 0
M  V30 5575 O 521.931 -5.25197 2.22541 0
M  V30 5576 O 520.865 -4.49005 4.00847 0
M  V30 5577 H 524.691 -1.47199 2.65643 0
M  V30 5578 H 522.276 -0.665939 1.33737 0
M  V30 5579 H 524.158 -3.7875 1.84732 0
M  V30 5580 H 522.833 -3.12248 0.8534 0
M  V30 5581 H 521.74 -2.24012 2.99616 0
M  V30 5582 H 523.073 -2.96304 3.9302 0
M  V30 5583 N 524.725 -1.39134 -0.740242 0
M  V30 5584 C 526.002 -1.26584 -1.49117 0
M  V30 5585 C 526.382 0.126902 -2.10718 0
M  V30 5586 O 525.73 1.13765 -1.98166 0
M  V30 5587 C 525.94 -2.38619 -2.54681 0
M  V30 5588 C 527.288 -2.77685 -3.21211 0
M  V30 5589 O 528.312 -2.38029 -2.64991 0
M  V30 5590 O 527.171 -3.46115 -4.22926 0
M  V30 5591 H 524.265 -0.495769 -0.661923 0
M  V30 5592 H 526.811 -1.50995 -0.774514 0
M  V30 5593 H 525.583 -3.3175 -2.07504 0
M  V30 5594 H 525.206 -2.15845 -3.33911 0
M  V30 5595 N 526.204 0.969867 -1.24223 0
M  V30 5596 C 527.45 1.7151 -1.08223 0
M  V30 5597 C 527.783 1.90478 0.37838 0
M  V30 5598 O 527.058 1.4647 1.27971 0
M  V30 5599 C 527.341 3.10714 -1.82013 0
M  V30 5600 C 527.194 2.9925 -3.35811 0
M  V30 5601 C 528.513 4.10332 -1.59108 0
M  V30 5602 H 525.632 0.622499 -0.394543 0
M  V30 5603 H 528.274 1.1284 -1.52863 0
M  V30 5604 H 526.424 3.608 -1.44068 0
M  V30 5605 H 528.096 2.56608 -3.83341 0
M  V30 5606 H 526.339 2.35512 -3.64303 0
M  V30 5607 H 527.01 3.97857 -3.82641 0
M  V30 5608 H 529.486 3.69097 -1.92111 0
M  V30 5609 H 528.362 5.05804 -2.13198 0
M  V30 5610 H 528.623 4.38926 -0.528832 0
M  V30 5611 N 527.682 1.05563 1.17022 0
M  V30 5612 C 528.63 0.653887 2.2322 0
M  V30 5613 C 529.624 -0.326642 1.66221 0
M  V30 5614 O 530.83 -0.192301 1.7897 0
M  V30 5615 H 527.205 0.193297 0.726733 0
M  V30 5616 H 529.176 1.5596 2.54399 0
M  V30 5617 C 527.925 0.0485434 3.47666 0
M  V30 5618 H 527.248 0.79413 3.91834 0
M  V30 5619 H 528.688 -0.195133 4.23551 0
M  V30 5620 C 527.147 -1.20583 3.14581 0
M  V30 5621 O 527.677 -2.29475 3.29703 0
M  V30 5622 N 525.883 -1.10493 2.68774 0
M  V30 5623 H 525.43 -0.218795 2.56669 0
M  V30 5624 H 525.388 -1.94507 2.47011 0
M  V30 5625 N 529.16 -1.33526 0.837174 0
M  V30 5626 C 530.07 -2.33023 0.271568 0
M  V30 5627 C 531.086 -1.63272 -0.601514 0
M  V30 5628 O 532.262 -1.94939 -0.506038 0
M  V30 5629 C 529.327 -3.42382 -0.545448 0
M  V30 5630 C 528.388 -4.27857 0.351709 0
M  V30 5631 C 527.621 -5.31994 -0.426409 0
M  V30 5632 O 527.844 -5.45763 -1.65828 0
M  V30 5633 O 526.778 -6.01572 0.1987 0
M  V30 5634 H 530.604 -2.83256 1.09545 0
M  V30 5635 H 528.189 -1.36837 0.599655 0
M  V30 5636 H 530.071 -4.09122 -1.00979 0
M  V30 5637 H 528.746 -2.94369 -1.34641 0
M  V30 5638 H 527.653 -3.6399 0.863853 0
M  V30 5639 H 528.986 -4.79349 1.1174 0
M  V30 5640 N 530.638 -0.59345 -1.46 0
M  V30 5641 C 531.878 -0.0859747 -2.04219 0
M  V30 5642 C 532.242 1.25432 -1.45364 0
M  V30 5643 O 533.443 1.85168 -1.9485 0
M  V30 5644 C 531.714 -0.0324314 -3.57385 0
M  V30 5645 S 533.273 0.415908 -4.36824 0
M  V30 5646 H 530.091 -0.0426872 -0.709717 0
M  V30 5647 H 532.693 -0.788369 -1.78899 0
M  V30 5648 H 531.397 -1.01166 -3.97735 0
M  V30 5649 H 530.928 0.6924 -3.87259 0
M  V30 5650 H 532.943 1.66844 -4.67309 0
M  V30 5651 N 532.116 1.54067 -0.331816 0
M  V30 5652 C 533.079 2.23275 0.517768 0
M  V30 5653 C 534.079 1.22897 1.03697 0
M  V30 5654 O 535.269 1.47419 0.928084 0
M  V30 5655 C 532.401 2.94326 1.72004 0
M  V30 5656 H 533.594 2.99773 -0.0873507 0
M  V30 5657 H 531.147 1.56079 -0.0830042 0
M  V30 5658 H 531.882 2.21986 2.36417 0
M  V30 5659 H 531.667 3.67941 1.35507 0
M  V30 5660 H 533.157 3.47031 2.32291 0
M  V30 5661 N 533.594 0.0601682 1.57485 0
M  V30 5662 C 534.841 -0.611594 1.93043 0
M  V30 5663 C 535.169 -1.70317 0.939274 0
M  V30 5664 O 534.424 -1.95644 -0.046996 0
M  V30 5665 C 534.723 -1.23831 3.35262 0
M  V30 5666 C 534.389 -0.274037 4.50066 0
M  V30 5667 C 533.051 -0.00872394 4.81199 0
M  V30 5668 C 535.403 0.386308 5.19766 0
M  V30 5669 C 532.731 0.924218 5.79375 0
M  V30 5670 C 535.083 1.3075 6.1894 0
M  V30 5671 C 533.747 1.58139 6.48497 0
M  V30 5672 H 533.017 -0.223798 0.706396 0
M  V30 5673 H 535.664 0.128566 1.91068 0
M  V30 5674 H 533.969 -2.05394 3.33647 0
M  V30 5675 H 535.666 -1.76517 3.60059 0
M  V30 5676 H 532.256 -0.491008 4.25778 0
M  V30 5677 H 536.44 0.194436 4.95919 0
M  V30 5678 H 531.696 1.1438 6.00606 0
M  V30 5679 H 535.87 1.82519 6.72056 0
M  V30 5680 H 533.497 2.30593 7.24383 0
M  V30 5681 N 535.072 -1.5615 -0.213296 0
M  V30 5682 C 536.318 -1.80718 -0.933402 0
M  V30 5683 C 536.673 -0.634441 -1.81639 0
M  V30 5684 O 535.966 0.371182 -1.8797 0
M  V30 5685 C 536.16 -3.08772 -1.79985 0
M  V30 5686 C 535.989 -4.38389 -1.00224 0
M  V30 5687 C 534.759 -5.00513 -0.693885 0
M  V30 5688 C 536.957 -5.13013 -0.363598 0
M  V30 5689 N 534.939 -6.13774 0.124266 0
M  V30 5690 C 536.31 -6.19186 0.31757 0
M  V30 5691 C 538.365 -4.97126 -0.277468 0
M  V30 5692 C 537.068 -7.11197 1.07664 0
M  V30 5693 C 539.094 -5.89544 0.468155 0
M  V30 5694 C 538.456 -6.95149 1.13784 0
M  V30 5695 H 534.555 -0.712833 -0.321549 0
M  V30 5696 H 537.139 -1.93633 -0.203588 0
M  V30 5697 H 535.31 -2.97126 -2.50142 0
M  V30 5698 H 537.042 -3.21499 -2.45806 0
M  V30 5699 H 533.797 -4.62619 -1.01391 0
M  V30 5700 H 534.221 -6.74981 0.522418 0
M  V30 5701 H 538.863 -4.15526 -0.78087 0
M  V30 5702 H 536.581 -7.92273 1.59153 0
M  V30 5703 H 540.167 -5.79327 0.535911 0
M  V30 5704 H 539.047 -7.65428 1.70557 0
M  V30 5705 N 536.55 0.480323 -1.50102 0
M  V30 5706 C 537.498 1.60024 -1.68805 0
M  V30 5707 C 538.492 1.60089 -0.553888 0
M  V30 5708 O 539.698 1.64349 -0.734127 0
M  V30 5709 H 536.073 0.530841 -0.532646 0
M  V30 5710 H 538.044 1.41408 -2.62767 0
M  V30 5711 C 536.793 2.98029 -1.79092 0
M  V30 5712 H 536.116 2.98694 -2.65748 0
M  V30 5713 H 537.556 3.75871 -1.96206 0
M  V30 5714 C 536.015 3.32538 -0.540388 0
M  V30 5715 O 536.545 4.00386 0.324637 0
M  V30 5716 N 534.751 2.87873 -0.397154 0
M  V30 5717 H 534.298 2.32834 -1.1021 0
M  V30 5718 H 534.256 3.11328 0.438425 0
M  V30 5719 N 538.028 1.39524 0.732853 0
M  V30 5720 C 538.978 1.34905 1.83806 0
M  V30 5721 C 539.962 0.229546 1.59254 0
M  V30 5722 O 541.154 0.467255 1.70721 0
M  V30 5723 C 538.283 1.19699 3.21756 0
M  V30 5724 C 537.369 2.36359 3.5213 0
M  V30 5725 N 537.76 3.61834 3.53426 0
M  V30 5726 C 536.058 2.29363 3.82503 0
M  V30 5727 C 536.759 4.38992 3.81655 0
M  V30 5728 N 535.735 3.68606 3.99538 0
M  V30 5729 H 539.537 2.29882 1.83116 0
M  V30 5730 H 537.051 1.33051 0.931194 0
M  V30 5731 H 539.048 1.14472 4.00876 0
M  V30 5732 H 537.708 0.256739 3.23683 0
M  V30 5733 H 538.719 3.95228 3.34686 0
M  V30 5734 H 535.396 1.43612 3.92023 0
M  V30 5735 H 536.786 5.47763 3.89108 0
M  V30 5736 N 539.506 -0.963266 1.24736 0
M  V30 5737 C 540.754 -1.70343 1.08755 0
M  V30 5738 C 541.075 -1.91387 -0.373619 0
M  V30 5739 O 540.345 -1.4948 -1.2662 0
M  V30 5740 H 538.925 -0.631224 0.399456 0
M  V30 5741 H 541.587 -1.15859 1.56725 0
M  V30 5742 H 540.683 -2.68616 1.58909 0
M  V30 5743 N 540.985 -1.06182 -1.16461 0
M  V30 5744 C 542.225 -0.787048 -1.8864 0
M  V30 5745 C 542.589 0.674093 -1.79778 0
M  V30 5746 O 543.79 1.06341 -2.46871 0
M  V30 5747 C 542.061 -1.2666 -3.34203 0
M  V30 5748 S 543.62 -1.12071 -4.24247 0
M  V30 5749 H 540.438 -0.285539 -0.651144 0
M  V30 5750 H 543.04 -1.35851 -1.40587 0
M  V30 5751 H 541.744 -2.32496 -3.38192 0
M  V30 5752 H 541.275 -0.689841 -3.87304 0
M  V30 5753 H 543.29 -0.0509341 -4.96174 0
M  V30 5754 N 542.463 1.3308 -0.844243 0
M  V30 5755 C 543.691 2.01808 -0.456203 0
M  V30 5756 C 544.106 1.63498 0.944131 0
M  V30 5757 O 543.463 0.85102 1.61443 0
M  V30 5758 C 543.514 3.56922 -0.573513 0
M  V30 5759 O 543.235 3.93851 -1.91868 0
M  V30 5760 C 544.736 4.42922 -0.183125 0
M  V30 5761 H 541.956 0.646273 -0.180477 0
M  V30 5762 H 544.5 1.69891 -1.1383 0
M  V30 5763 H 542.655 3.87352 0.0607367 0
M  V30 5764 H 543.069 4.88564 -1.90802 0
M  V30 5765 H 544.543 5.51093 -0.316241 0
M  V30 5766 H 545.02 4.30386 0.875477 0
M  V30 5767 H 545.626 4.1786 -0.792027 0
M  V30 5768 N 543.941 0.601185 1.45683 0
M  V30 5769 C 544.871 -0.108824 2.33246 0
M  V30 5770 C 545.852 -0.865223 1.46451 0
M  V30 5771 O 547.037 -0.83704 1.75235 0
M  V30 5772 C 544.167 -1.11101 3.2905 0
M  V30 5773 C 543.121 -0.468244 4.25431 0
M  V30 5774 C 542.447 -1.57822 5.10878 0
M  V30 5775 C 543.747 0.606469 5.18767 0
M  V30 5776 H 545.441 0.622306 2.92861 0
M  V30 5777 H 542.987 0.300714 1.40825 0
M  V30 5778 H 544.94 -1.61622 3.89174 0
M  V30 5779 H 543.664 -1.87265 2.67581 0
M  V30 5780 H 542.323 0.0160484 3.66596 0
M  V30 5781 H 541.971 -2.32998 4.45781 0
M  V30 5782 H 541.671 -1.15369 5.76163 0
M  V30 5783 H 543.195 -2.08583 5.73869 0
M  V30 5784 H 544.609 0.185589 5.73 0
M  V30 5785 H 543.006 0.952381 5.92494 0
M  V30 5786 H 544.076 1.48559 4.61582 0
M  V30 5787 N 545.419 -1.53889 0.339982 0
M  V30 5788 C 546.667 -2.00458 -0.257112 0
M  V30 5789 C 546.988 -1.22953 -1.51353 0
M  V30 5790 O 546.258 -0.335734 -1.93002 0
M  V30 5791 H 544.838 -0.740544 -0.0979965 0
M  V30 5792 H 547.5 -1.89386 0.460317 0
M  V30 5793 H 546.596 -3.08035 -0.502057 0
M  V30 5794 N 546.897 -0.0685191 -1.57451 0
M  V30 5795 C 548.137 0.605038 -1.9524 0
M  V30 5796 C 548.501 1.66974 -0.947816 0
M  V30 5797 O 549.702 2.39862 -1.21325 0
M  V30 5798 C 547.973 1.16999 -3.37707 0
M  V30 5799 S 549.532 1.85913 -3.97469 0
M  V30 5800 H 546.35 0.198203 -0.682815 0
M  V30 5801 H 548.952 -0.141594 -1.94987 0
M  V30 5802 H 547.656 0.383205 -4.08607 0
M  V30 5803 H 547.187 1.95305 -3.41496 0
M  V30 5804 H 549.202 3.14128 -3.84107 0
M  V30 5805 N 548.375 1.56261 0.205012 0
M  V30 5806 C 549.322 1.93754 1.25411 0
M  V30 5807 C 550.292 0.796826 1.45739 0
M  V30 5808 O 551.477 1.05414 1.59036 0
M  V30 5809 C 548.617 2.27383 2.59598 0
M  V30 5810 C 547.73 3.5447 2.46931 0
M  V30 5811 C 546.865 3.77468 3.73753 0
M  V30 5812 C 545.904 4.98014 3.55877 0
M  V30 5813 N 545.041 5.17316 4.74688 0
M  V30 5814 H 549.881 2.83203 0.92737 0
M  V30 5815 H 547.418 1.40158 0.446574 0
M  V30 5816 H 549.376 2.44895 3.37761 0
M  V30 5817 H 548.006 1.41088 2.90335 0
M  V30 5818 H 547.058 3.45061 1.60116 0
M  V30 5819 H 548.37 4.42789 2.29651 0
M  V30 5820 H 547.524 3.95165 4.60358 0
M  V30 5821 H 546.263 2.87461 3.93976 0
M  V30 5822 H 545.268 4.80249 2.67657 0
M  V30 5823 H 546.493 5.8952 3.37109 0
M  V30 5824 H 544.439 4.30255 4.95194 0
M  V30 5825 H 544.356 5.99796 4.60197 0
M  V30 5826 H 545.624 5.39463 5.62672 0
M  V30 5827 N 549.853 -0.472356 1.50355 0
M  V30 5828 C 550.801 -1.59126 1.69651 0
M  V30 5829 C 551.795 -1.59793 0.56237 0
M  V30 5830 O 553.001 -1.63957 0.742832 0
M  V30 5831 H 549.376 -0.528008 0.535454 0
M  V30 5832 H 551.347 -1.40013 2.63513 0
M  V30 5833 C 550.096 -2.97075 1.8067 0
M  V30 5834 H 549.419 -2.9728 2.67329 0
M  V30 5835 H 550.859 -3.74825 1.98197 0
M  V30 5836 C 549.318 -3.32247 0.558016 0
M  V30 5837 O 549.848 -4.00553 -0.303399 0
M  V30 5838 N 548.054 -2.87659 0.412415 0
M  V30 5839 H 547.601 -2.32246 1.11443 0
M  V30 5840 H 547.559 -3.11556 -0.421908 0
M  V30 5841 N 551.331 -1.39911 -0.725443 0
M  V30 5842 C 552.559 -1.40949 -1.51463 0
M  V30 5843 C 552.974 -0.0065242 -1.88799 0
M  V30 5844 O 552.331 0.967163 -1.54765 0
M  V30 5845 C 552.382 -2.29119 -2.79619 0
M  V30 5846 O 552.103 -3.63952 -2.43866 0
M  V30 5847 C 553.604 -2.38642 -3.73584 0
M  V30 5848 H 550.824 -0.481091 -0.467752 0
M  V30 5849 H 553.368 -1.83843 -0.895651 0
M  V30 5850 H 551.523 -1.89612 -3.37826 0
M  V30 5851 H 551.937 -4.10677 -3.26258 0
M  V30 5852 H 553.411 -3.04563 -4.60375 0
M  V30 5853 H 553.888 -1.40846 -4.16004 0
M  V30 5854 H 554.494 -2.78659 -3.21293 0
M  V30 5855 N 552.809 0.956637 -1.25245 0
M  V30 5856 C 554.22 1.51569 -1.09012 0
M  V30 5857 C 554.571 1.93322 0.334813 0
M  V30 5858 O 553.696 1.78421 1.22454 0
M  V30 5859 C 554.291 2.75444 -1.97271 0
M  V30 5860 C 552.85 3.27669 -1.8523 0
M  V30 5861 C 551.997 2.00517 -1.91542 0
M  V30 5862 H 554.948 0.773746 -1.3856 0
M  V30 5863 H 554.969 3.4919 -1.51151 0
M  V30 5864 H 554.481 2.45024 -3.00973 0
M  V30 5865 H 552.582 3.62914 -0.844045 0
M  V30 5866 H 552.695 3.9582 -2.69932 0
M  V30 5867 H 551.059 2.15727 -1.35404 0
M  V30 5868 H 551.842 1.72448 -2.96844 0
M  V30 5869 N 554.287 1.06798 1.15896 0
M  V30 5870 C 555.535 0.786211 1.8618 0
M  V30 5871 C 555.856 -0.689547 1.82401 0
M  V30 5872 O 555.126 -1.49913 1.26107 0
M  V30 5873 H 553.706 0.287843 0.689315 0
M  V30 5874 H 556.368 1.35055 1.40521 0
M  V30 5875 H 555.464 1.1157 2.91477 0
M  V30 5876 N 555.766 -1.3263 0.851289 0
M  V30 5877 C 556.991 -2.02097 0.466006 0
M  V30 5878 C 557.416 -1.63574 -0.928709 0
M  V30 5879 O 556.774 -0.834665 -1.60944 0
M  V30 5880 C 556.822 -3.55425 0.608737 0
M  V30 5881 O 555.926 -4.10827 -0.359878 0
M  V30 5882 H 555.267 -0.636911 0.187724 0
M  V30 5883 H 557.797 -1.69253 1.14955 0
M  V30 5884 H 557.807 -4.04986 0.495006 0
M  V30 5885 H 556.482 -3.82806 1.62581 0
M  V30 5886 H 555.059 -3.72349 -0.202666 0
M  V30 5887 N 557.244 -0.608902 -1.45362 0
M  V30 5888 C 558.474 -0.110852 -2.06302 0
M  V30 5889 C 558.882 1.21062 -1.45398 0
M  V30 5890 O 558.225 1.74861 -0.562976 0
M  V30 5891 C 558.287 0.101793 -3.59356 0
M  V30 5892 C 557.951 -1.13808 -4.42602 0
M  V30 5893 C 558.948 -2.05653 -4.77496 0
M  V30 5894 C 556.633 -1.36727 -4.83333 0
M  V30 5895 C 558.627 -3.18745 -5.51978 0
M  V30 5896 C 556.314 -2.5012 -5.57569 0
M  V30 5897 C 557.312 -3.40957 -5.91809 0
M  V30 5898 O 557 -4.52376 -6.64538 0
M  V30 5899 H 556.732 -0.0666001 -0.672711 0
M  V30 5900 H 559.286 -0.836942 -1.87575 0
M  V30 5901 H 557.516 0.88279 -3.76489 0
M  V30 5902 H 559.205 0.551607 -4.02134 0
M  V30 5903 H 559.971 -1.89172 -4.46586 0
M  V30 5904 H 555.85 -0.669216 -4.56117 0
M  V30 5905 H 559.394 -3.8967 -5.78622 0
M  V30 5906 H 555.291 -2.66553 -5.87894 0
M  V30 5907 H 556.059 -4.51075 -6.82989 0
M  V30 5908 N 558.722 1.53707 -0.348139 0
M  V30 5909 C 559.952 2.05108 0.247864 0
M  V30 5910 C 560.36 1.22252 1.44399 0
M  V30 5911 O 559.703 0.251853 1.81965 0
M  V30 5912 C 559.765 3.52171 0.722187 0
M  V30 5913 C 559.429 4.5562 -0.354902 0
M  V30 5914 C 560.426 5.05883 -1.19911 0
M  V30 5915 C 558.111 4.99703 -0.510145 0
M  V30 5916 C 560.105 5.98814 -2.18406 0
M  V30 5917 C 557.792 5.92443 -1.49848 0
M  V30 5918 C 558.79 6.41887 -2.33389 0
M  V30 5919 O 558.478 7.32802 -3.3054 0
M  V30 5920 H 558.21 0.674086 0.0508296 0
M  V30 5921 H 560.764 1.99229 -0.49968 0
M  V30 5922 H 558.994 3.55529 1.52105 0
M  V30 5923 H 560.683 3.8652 1.23925 0
M  V30 5924 H 561.449 4.72586 -1.09028 0
M  V30 5925 H 557.328 4.60816 0.130274 0
M  V30 5926 H 560.872 6.3733 -2.83649 0
M  V30 5927 H 556.769 6.25155 -1.60786 0
M  V30 5928 H 557.537 7.50749 -3.26064 0
M  V30 5929 N 560.2 0.0768682 1.57412 0
M  V30 5930 C 561.44 -0.594676 1.95558 0
M  V30 5931 C 561.804 -1.66469 0.956658 0
M  V30 5932 O 563.005 -2.39215 1.22595 0
M  V30 5933 C 561.276 -1.15206 3.38323 0
M  V30 5934 S 562.835 -1.83803 3.9845 0
M  V30 5935 H 559.653 -0.194579 0.683857 0
M  V30 5936 H 562.255 0.151933 1.94909 0
M  V30 5937 H 560.959 -0.36153 4.08805 0
M  V30 5938 H 560.49 -1.93491 3.42527 0
M  V30 5939 H 562.505 -3.12087 3.85767 0
M  V30 5940 N 561.678 -1.56367 -0.196722 0
M  V30 5941 C 562.906 -1.84639 -0.933608 0
M  V30 5942 C 563.321 -0.659164 -1.76919 0
M  V30 5943 O 562.678 0.372142 -1.78665 0
M  V30 5944 C 562.729 -3.11694 -1.83109 0
M  V30 5945 O 562.45 -4.25838 -1.02924 0
M  V30 5946 C 563.951 -3.53132 -2.67979 0
M  V30 5947 H 561.171 -0.613188 -0.272473 0
M  V30 5948 H 563.715 -2.03475 -0.204465 0
M  V30 5949 H 561.87 -2.94759 -2.51387 0
M  V30 5950 H 562.284 -4.98178 -1.64069 0
M  V30 5951 H 563.758 -4.45005 -3.26611 0
M  V30 5952 H 564.235 -2.76045 -3.41608 0
M  V30 5953 H 564.841 -3.72592 -2.05074 0
M  V30 5954 N 563.156 0.464375 -1.50603 0
M  V30 5955 C 564.396 1.22573 -1.6357 0
M  V30 5956 C 564.76 1.89111 -0.331834 0
M  V30 5957 O 565.961 2.66679 -0.336999 0
M  V30 5958 C 564.232 2.23643 -2.7878 0
M  V30 5959 S 565.791 3.08628 -3.1192 0
M  V30 5960 H 562.609 0.416058 -0.576556 0
M  V30 5961 H 565.211 0.521637 -1.88412 0
M  V30 5962 H 563.915 1.73354 -3.7199 0
M  V30 5963 H 563.446 2.98672 -2.56044 0
M  V30 5964 H 565.461 4.24904 -2.56264 0
M  V30 5965 N 564.634 1.40294 0.718013 0
M  V30 5966 C 566.045 1.34289 1.29705 0
M  V30 5967 C 566.396 0.0152228 1.96194 0
M  V30 5968 O 565.521 -0.88682 1.97394 0
M  V30 5969 C 566.116 2.43219 2.3586 0
M  V30 5970 C 564.675 2.40682 2.89394 0
M  V30 5971 C 563.822 2.24223 1.63154 0
M  V30 5972 H 566.773 1.50135 0.514312 0
M  V30 5973 H 566.794 2.10986 3.16647 0
M  V30 5974 H 566.306 3.39836 1.87439 0
M  V30 5975 H 564.407 1.47756 3.42051 0
M  V30 5976 H 564.52 3.36177 3.41353 0
M  V30 5977 H 562.884 1.71696 1.88129 0
M  V30 5978 H 563.667 3.22834 1.16761 0
M  V30 5979 N 566.112 -0.949982 1.2575 0
M  V30 5980 C 567.358 -1.69766 1.10938 0
M  V30 5981 C 567.691 -1.91056 -0.348028 0
M  V30 5982 O 566.966 -1.48488 -1.25625 0
M  V30 5983 C 567.249 -3.07779 1.86933 0
M  V30 5984 C 567.102 -2.9387 3.4053 0
M  V30 5985 C 568.421 -4.07749 1.65616 0
M  V30 5986 H 565.54 -0.616144 0.404396 0
M  V30 5987 H 568.182 -1.10394 1.54639 0
M  V30 5988 H 566.332 -3.58462 1.4979 0
M  V30 5989 H 568.004 -2.50476 3.87375 0
M  V30 5990 H 566.247 -2.29686 3.68004 0
M  V30 5991 H 566.918 -3.91719 3.88922 0
M  V30 5992 H 569.394 -3.65994 1.97959 0
M  V30 5993 H 568.27 -5.02348 2.21218 0
M  V30 5994 H 568.531 -4.38029 0.598595 0
M  V30 5995 N 567.59 -1.07411 -1.15328 0
M  V30 5996 C 568.838 -0.796073 -1.85761 0
M  V30 5997 C 569.159 0.679864 -1.82764 0
M  V30 5998 O 568.429 1.49242 -1.269 0
M  V30 5999 H 567.009 -0.291495 -0.687779 0
M  V30 6000 H 569.671 -1.35799 -1.39802 0
M  V30 6001 H 568.767 -1.13114 -2.90881 0
M  V30 6002 N 569.068 1.32177 -0.85831 0
M  V30 6003 C 570.315 1.97125 -0.463484 0
M  V30 6004 C 570.643 1.67907 0.981705 0
M  V30 6005 O 569.898 0.961717 1.70439 0
M  V30 6006 C 570.197 3.51372 -0.653658 0
M  V30 6007 C 569.863 4.00584 -2.06987 0
M  V30 6008 C 568.525 4.13733 -2.4572 0
M  V30 6009 C 570.877 4.26624 -2.99402 0
M  V30 6010 C 568.205 4.50268 -3.76132 0
M  V30 6011 C 570.557 4.64618 -4.29316 0
M  V30 6012 C 569.221 4.75975 -4.67979 0
M  V30 6013 H 568.491 0.72133 -0.169601 0
M  V30 6014 H 571.138 1.57517 -1.08907 0
M  V30 6015 H 569.443 3.91761 0.0551328 0
M  V30 6016 H 571.14 3.99655 -0.328163 0
M  V30 6017 H 567.73 3.90837 -1.75911 0
M  V30 6018 H 571.914 4.1597 -2.70708 0
M  V30 6019 H 567.17 4.57256 -4.05865 0
M  V30 6020 H 571.344 4.83722 -5.00985 0
M  V30 6021 H 568.971 5.04041 -5.69076 0
M  V30 6022 N 570.547 0.616602 1.45037 0
M  V30 6023 C 571.793 0.115501 2.02471 0
M  V30 6024 C 572.126 -1.25406 1.4828 0
M  V30 6025 O 571.401 -1.82922 0.661051 0
M  V30 6026 C 571.684 0.0863588 3.59996 0
M  V30 6027 C 571.537 1.48723 4.24501 0
M  V30 6028 C 572.856 -0.596762 4.36035 0
M  V30 6029 H 569.975 0.0434461 0.735718 0
M  V30 6030 H 572.617 0.7903 1.72784 0
M  V30 6031 H 570.767 -0.488277 3.85419 0
M  V30 6032 H 572.439 2.10964 4.10234 0
M  V30 6033 H 570.682 2.04534 3.82555 0
M  V30 6034 H 571.353 1.419 5.3345 0
M  V30 6035 H 573.829 -0.10824 4.15959 0
M  V30 6036 H 572.705 -0.586289 5.4576 0
M  V30 6037 H 572.966 -1.66451 4.09569 0
M  V30 6038 N 572.025 -1.5352 0.356285 0
M  V30 6039 C 572.955 -2.28372 -0.486661 0
M  V30 6040 C 573.936 -1.30432 -1.09185 0
M  V30 6041 O 575.121 -1.59291 -1.11085 0
M  V30 6042 C 572.251 -3.06604 -1.63129 0
M  V30 6043 C 571.205 -4.12154 -1.15381 0
M  V30 6044 C 570.531 -4.78415 -2.38796 0
M  V30 6045 C 571.831 -5.21724 -0.245179 0
M  V30 6046 H 573.525 -2.99083 0.137797 0
M  V30 6047 H 571.071 -1.43841 0.0677134 0
M  V30 6048 H 573.024 -3.57712 -2.22755 0
M  V30 6049 H 571.748 -2.33568 -2.28284 0
M  V30 6050 H 570.407 -3.61978 -0.580294 0
M  V30 6051 H 570.055 -4.01959 -3.02387 0
M  V30 6052 H 569.755 -5.49734 -2.07524 0
M  V30 6053 H 571.279 -5.32313 -2.99125 0
M  V30 6054 H 572.693 -5.68391 -0.748646 0
M  V30 6055 H 571.09 -6.00095 -0.0237608 0
M  V30 6056 H 572.16 -4.79596 0.715229 0
M  V30 6057 N 573.503 -0.0852151 -1.57369 0
M  V30 6058 C 574.433 0.874556 -2.16503 0
M  V30 6059 C 575.414 1.30111 -1.09568 0
M  V30 6060 O 576.599 1.36977 -1.37662 0
M  V30 6061 C 573.729 2.13731 -2.73745 0
M  V30 6062 C 572.683 1.84971 -3.85966 0
M  V30 6063 C 572.009 3.17991 -4.29867 0
M  V30 6064 C 573.309 1.14442 -5.09608 0
M  V30 6065 H 575.003 0.381899 -2.96954 0
M  V30 6066 H 572.549 0.18225 -1.42842 0
M  V30 6067 H 574.502 2.81302 -3.13763 0
M  V30 6068 H 573.226 2.65263 -1.90534 0
M  V30 6069 H 571.885 1.19801 -3.46473 0
M  V30 6070 H 571.533 3.6739 -3.4356 0
M  V30 6071 H 571.233 2.99534 -5.05523 0
M  V30 6072 H 572.757 3.86737 -4.72511 0
M  V30 6073 H 574.171 1.72105 -5.46857 0
M  V30 6074 H 572.568 1.06197 -5.90629 0
M  V30 6075 H 573.638 0.12559 -4.84737 0
M  V30 6076 N 574.981 1.5647 0.188427 0
M  V30 6077 C 576.392 1.70864 0.752494 0
M  V30 6078 C 576.743 0.692905 1.83557 0
M  V30 6079 O 575.868 -0.149307 2.15884 0
M  V30 6080 C 576.463 3.09789 1.37173 0
M  V30 6081 C 575.022 3.25925 1.88281 0
M  V30 6082 C 574.169 2.66817 0.755259 0
M  V30 6083 H 577.12 1.58657 -0.0367408 0
M  V30 6084 H 577.141 3.07489 2.24122 0
M  V30 6085 H 576.653 3.83693 0.583219 0
M  V30 6086 H 574.754 2.56948 2.6983 0
M  V30 6087 H 574.867 4.33498 2.04001 0
M  V30 6088 H 573.231 2.2617 1.17128 0
M  V30 6089 H 574.014 3.43294 -0.0211237 0
M  V30 6090 N 576.459 -0.456382 1.50847 0
M  V30 6091 C 577.736 -1.21739 1.53098 0
M  V30 6092 C 578.116 -2.09179 0.284132 0
M  V30 6093 O 577.464 -2.16466 -0.731773 0
M  V30 6094 C 577.674 -2.03573 2.83477 0
M  V30 6095 C 579.022 -2.61264 3.34703 0
M  V30 6096 O 580.046 -2.13802 2.84898 0
M  V30 6097 O 578.905 -3.47779 4.21559 0
M  V30 6098 H 575.999 -0.553219 0.614718 0
M  V30 6099 H 578.545 -0.467003 1.63148 0
M  V30 6100 H 577.317 -1.39232 3.65691 0
M  V30 6101 H 576.94 -2.85716 2.76499 0
M  V30 6102 N 577.937 -1.40673 -0.710563 0
M  V30 6103 C 579.185 -1.38947 -1.46759 0
M  V30 6104 C 579.506 0.00572879 -1.94999 0
M  V30 6105 O 578.776 0.961358 -1.70689 0
M  V30 6106 H 577.356 -0.5114 -0.544499 0
M  V30 6107 H 580.018 -1.75773 -0.842012 0
M  V30 6108 H 579.114 -2.06745 -2.33801 0
M  V30 6109 N 579.415 0.9433 -1.26252 0
M  V30 6110 C 580.362 2.0417 -1.07625 0
M  V30 6111 C 581.332 1.6609 0.0180738 0
M  V30 6112 O 582.517 1.90276 -0.141289 0
M  V30 6113 C 579.657 3.37653 -0.713043 0
M  V30 6114 C 578.77 3.88783 -1.8834 0
M  V30 6115 C 577.905 5.10642 -1.4635 0
M  V30 6116 C 576.944 5.54028 -2.60229 0
M  V30 6117 N 576.081 6.67092 -2.18936 0
M  V30 6118 H 580.921 2.19436 -2.01623 0
M  V30 6119 H 578.458 1.07519 -1.00389 0
M  V30 6120 H 580.416 4.14391 -0.483358 0
M  V30 6121 H 579.046 3.22241 0.18996 0
M  V30 6122 H 578.098 3.08464 -2.22608 0
M  V30 6123 H 579.41 4.16922 -2.73821 0
M  V30 6124 H 578.564 5.94832 -1.19414 0
M  V30 6125 H 577.303 4.84244 -0.579568 0
M  V30 6126 H 576.308 4.68396 -2.87898 0
M  V30 6127 H 577.533 5.82429 -3.49219 0
M  V30 6128 H 575.479 6.42381 -1.32974 0
M  V30 6129 H 575.396 6.94806 -2.97961 0
M  V30 6130 H 576.664 7.54662 -1.95206 0
M  V30 6131 N 580.893 1.08022 1.14757 0
M  V30 6132 C 582.309 0.807072 1.3769 0
M  V30 6133 C 582.509 -0.585504 1.92806 0
M  V30 6134 O 581.565 -1.34301 2.13821 0
M  V30 6135 C 582.878 1.88651 2.34161 0
M  V30 6136 C 584.426 1.91206 2.47809 0
M  V30 6137 C 584.901 2.98253 3.47576 0
M  V30 6138 N 586.392 2.974 3.55117 0
M  V30 6139 C 587.127 3.76872 4.32152 0
M  V30 6140 N 586.623 4.66212 5.12463 0
M  V30 6141 N 588.416 3.6519 4.27309 0
M  V30 6142 H 580.567 1.97824 0.77326 0
M  V30 6143 H 582.83 0.85826 0.402608 0
M  V30 6144 H 582.536 2.88749 2.00791 0
M  V30 6145 H 582.41 1.75244 3.3402 0
M  V30 6146 H 584.797 0.917564 2.80472 0
M  V30 6147 H 584.878 2.08691 1.47925 0
M  V30 6148 H 584.522 3.97907 3.15646 0
M  V30 6149 H 584.452 2.78014 4.47231 0
M  V30 6150 H 586.943 2.32643 2.97801 0
M  V30 6151 H 587.256 5.23468 5.68508 0
M  V30 6152 H 585.601 4.70257 5.11745 0
M  V30 6153 H 588.792 2.94765 3.63636 0
M  V30 6154 H 588.965 4.27366 4.87095 0
M  V30 6155 N 582.371 -1.3172 0.865308 0
M  V30 6156 C 583.611 -1.98675 0.480365 0
M  V30 6157 C 583.975 -1.66929 -0.948621 0
M  V30 6158 O 585.176 -2.27059 -1.43867 0
M  V30 6159 C 583.447 -3.49972 0.724858 0
M  V30 6160 S 585.006 -4.36598 0.439078 0
M  V30 6161 H 581.824 -0.687967 0.179506 0
M  V30 6162 H 584.426 -1.60215 1.12033 0
M  V30 6163 H 583.13 -3.70567 1.76375 0
M  V30 6164 H 582.661 -3.93335 0.0717173 0
M  V30 6165 H 584.676 -4.90792 -0.730564 0
M  V30 6166 N 583.85 -0.624285 -1.44708 0
M  V30 6167 C 584.8 0.106466 -2.27751 0
M  V30 6168 C 585.784 0.822703 -1.38277 0
M  V30 6169 O 586.976 0.709939 -1.62138 0
M  V30 6170 C 584.105 1.092 -3.25469 0
M  V30 6171 C 583.191 0.375737 -4.22432 0
M  V30 6172 N 583.582 -0.591881 -5.02325 0
M  V30 6173 C 581.88 0.621093 -4.41654 0
M  V30 6174 C 582.581 -1.01443 -5.72786 0
M  V30 6175 N 581.557 -0.354651 -5.42442 0
M  V30 6176 H 585.359 -0.636464 -2.86926 0
M  V30 6177 H 582.873 -0.44925 -1.56062 0
M  V30 6178 H 584.87 1.63006 -3.83712 0
M  V30 6179 H 583.529 1.8353 -2.67856 0
M  V30 6180 H 584.541 -0.969389 -5.08747 0
M  V30 6181 H 581.218 1.34779 -3.95147 0
M  V30 6182 H 582.608 -1.81345 -6.46965 0
M  V30 6183 N 585.328 1.53329 -0.364422 0
M  V30 6184 C 586.26 2.23286 0.517293 0
M  V30 6185 C 587.273 1.24657 1.04711 0
M  V30 6186 O 588.462 1.50887 0.95369 0
M  V30 6187 C 585.562 2.91604 1.72685 0
M  V30 6188 C 584.735 4.1673 1.32873 0
M  V30 6189 C 583.794 4.68269 2.40022 0
M  V30 6190 O 582.82 5.31976 2.02461 0
M  V30 6191 N 584.022 4.45983 3.7159 0
M  V30 6192 H 586.787 2.99588 -0.0819391 0
M  V30 6193 H 584.348 1.60787 -0.189544 0
M  V30 6194 H 586.34 3.22992 2.4384 0
M  V30 6195 H 584.91 2.18763 2.23297 0
M  V30 6196 H 584.13 3.91657 0.447069 0
M  V30 6197 H 585.418 4.98078 1.03902 0
M  V30 6198 H 584.816 3.95077 4.04883 0
M  V30 6199 H 583.373 4.81924 4.38854 0
M  V30 6200 N 586.806 0.0935595 1.57322 0
M  V30 6201 C 587.736 -0.863062 2.16964 0
M  V30 6202 C 588.717 -1.29528 1.10256 0
M  V30 6203 O 589.902 -1.36245 1.38387 0
M  V30 6204 C 587.032 -2.12276 2.74875 0
M  V30 6205 C 585.986 -1.82921 3.86942 0
M  V30 6206 C 585.312 -3.15707 4.31548 0
M  V30 6207 C 586.612 -1.11737 5.10208 0
M  V30 6208 H 588.306 -0.366145 2.97153 0
M  V30 6209 H 585.852 -0.174673 1.42937 0
M  V30 6210 H 587.805 -2.79634 3.1525 0
M  V30 6211 H 586.529 -2.64248 1.91938 0
M  V30 6212 H 585.188 -1.17961 3.47103 0
M  V30 6213 H 584.836 -3.65563 3.45504 0
M  V30 6214 H 584.536 -2.96849 5.07104 0
M  V30 6215 H 586.06 -3.84226 4.74555 0
M  V30 6216 H 587.474 -1.69203 5.47762 0
M  V30 6217 H 585.871 -1.03064 5.91183 0
M  V30 6218 H 586.941 -0.0998818 4.84797 0
M  V30 6219 N 588.284 -1.56567 -0.180126 0
M  V30 6220 C 589.53 -1.81761 -0.899497 0
M  V30 6221 C 589.863 -0.670015 -1.82276 0
M  V30 6222 O 589.138 0.328575 -1.91705 0
M  V30 6223 C 589.421 -3.17296 -1.7028 0
M  V30 6224 C 589.274 -4.4257 -0.803255 0
M  V30 6225 C 590.593 -3.49678 -2.67233 0
M  V30 6226 H 587.712 -0.661192 -0.325567 0
M  V30 6227 H 590.354 -1.89272 -0.16612 0
M  V30 6228 H 588.504 -3.11023 -2.32802 0
M  V30 6229 H 590.176 -4.60902 -0.191585 0
M  V30 6230 H 588.419 -4.33658 -0.110796 0
M  V30 6231 H 589.09 -5.33935 -1.40064 0
M  V30 6232 H 591.566 -3.56347 -2.14839 0
M  V30 6233 H 590.442 -4.45605 -3.20511 0
M  V30 6234 H 590.703 -2.73932 -3.47007 0
M  V30 6235 N 589.762 0.448376 -1.51087 0
M  V30 6236 C 590.987 1.22605 -1.6728 0
M  V30 6237 C 591.412 1.84524 -0.365045 0
M  V30 6238 O 590.77 1.6832 0.673642 0
M  V30 6239 C 590.818 2.29393 -2.78229 0
M  V30 6240 O 589.922 3.34608 -2.41063 0
M  V30 6241 H 589.263 0.359705 -0.558129 0
M  V30 6242 H 591.793 0.530903 -1.97592 0
M  V30 6243 H 591.803 2.74352 -3.01986 0
M  V30 6244 H 590.478 1.83701 -3.73131 0
M  V30 6245 H 589.055 2.95202 -2.27838 0
M  V30 6246 N 591.24 1.41047 0.703093 0
M  V30 6247 C 592.48 1.41461 1.4754 0
M  V30 6248 C 592.844 0.0199013 1.9199 0
M  V30 6249 O 594.045 -0.101138 2.6861 0
M  V30 6250 C 592.316 2.38703 2.66 0
M  V30 6251 S 593.875 2.57582 3.55242 0
M  V30 6252 H 590.693 0.501226 0.504275 0
M  V30 6253 H 593.295 1.77422 0.821074 0
M  V30 6254 H 591.999 3.3885 2.31536 0
M  V30 6255 H 591.53 2.04069 3.36333 0
M  V30 6256 H 593.545 1.83758 4.6092 0
M  V30 6257 N 592.718 -0.936591 1.26751 0
M  V30 6258 C 594.129 -1.49816 1.1141 0
M  V30 6259 C 594.48 -1.9383 -0.304015 0
M  V30 6260 O 593.605 -1.80346 -1.196 0
M  V30 6261 C 594.2 -2.72271 2.01629 0
M  V30 6262 C 592.759 -3.2468 1.9042 0
M  V30 6263 C 591.906 -1.97444 1.94708 0
M  V30 6264 H 594.857 -0.751604 1.39773 0
M  V30 6265 H 594.878 -3.46741 1.56688 0
M  V30 6266 H 594.39 -2.40205 3.04833 0
M  V30 6267 H 592.491 -3.61525 0.901674 0
M  V30 6268 H 592.604 -3.91476 2.76195 0
M  V30 6269 H 590.968 -2.13545 1.38818 0
M  V30 6270 H 591.751 -1.67703 2.9955 0
M  V30 6271 N 594.196 -1.08629 -1.14182 0
M  V30 6272 C 595.612 -0.814363 -1.3726 0
M  V30 6273 C 595.812 0.575271 -1.93114 0
M  V30 6274 O 594.868 1.33165 -2.1453 0
M  V30 6275 C 596.181 -1.8989 -2.33157 0
M  V30 6276 C 597.729 -1.92518 -2.46791 0
M  V30 6277 C 598.204 -3.00092 -3.45989 0
M  V30 6278 N 599.695 -2.99279 -3.53534 0
M  V30 6279 C 600.43 -3.79158 -4.30147 0
M  V30 6280 N 599.926 -4.68923 -5.09983 0
M  V30 6281 N 601.719 -3.67451 -4.25366 0
M  V30 6282 H 593.87 -1.98232 -0.762758 0
M  V30 6283 H 596.133 -0.860383 -0.398051 0
M  V30 6284 H 595.839 -2.89809 -1.99257 0
M  V30 6285 H 595.713 -1.77013 -3.33086 0
M  V30 6286 H 598.1 -0.932425 -2.79982 0
M  V30 6287 H 598.181 -2.09473 -1.46816 0
M  V30 6288 H 597.825 -3.99575 -3.13532 0
M  V30 6289 H 597.755 -2.80382 -4.45751 0
M  V30 6290 H 600.246 -2.3422 -2.96563 0
M  V30 6291 H 600.559 -5.26475 -5.65724 0
M  V30 6292 H 598.904 -4.72964 -5.09244 0
M  V30 6293 H 602.095 -2.9669 -3.62067 0
M  V30 6294 H 602.268 -4.29944 -4.84822 0
M  V30 6295 N 595.674 1.31259 -0.872281 0
M  V30 6296 C 596.622 2.30404 -0.318897 0
M  V30 6297 C 597.616 1.5962 0.567267 0
M  V30 6298 O 598.822 1.74204 0.453111 0
M  V30 6299 H 595.197 0.747243 -0.0844474 0
M  V30 6300 H 597.168 2.74549 -1.16899 0
M  V30 6301 C 595.917 3.44608 0.462683 0
M  V30 6302 H 595.24 3.99248 -0.209936 0
M  V30 6303 H 596.68 4.1609 0.815187 0
M  V30 6304 C 595.139 2.93456 1.65485 0
M  V30 6305 O 595.669 2.92418 2.75417 0
M  V30 6306 N 593.875 2.49628 1.48776 0
M  V30 6307 H 593.422 2.50671 0.593452 0
M  V30 6308 H 593.38 2.15759 2.28682 0
M  V30 6309 N 597.152 0.631951 1.44375 0
M  V30 6310 C 598.398 0.13697 2.02337 0
M  V30 6311 C 598.731 -1.23826 1.49602 0
M  V30 6312 O 598.006 -1.8221 0.680415 0
M  V30 6313 C 598.289 0.124536 3.59885 0
M  V30 6314 C 598.142 1.53217 4.229 0
M  V30 6315 C 599.461 -0.550481 4.36644 0
M  V30 6316 H 596.58 0.051247 0.735216 0
M  V30 6317 H 599.222 0.808581 1.71936 0
M  V30 6318 H 597.372 -0.44737 3.85916 0
M  V30 6319 H 599.044 2.15303 4.07973 0
M  V30 6320 H 597.287 2.0858 3.80364 0
M  V30 6321 H 597.958 1.4755 5.31914 0
M  V30 6322 H 600.434 -0.0641154 4.16051 0
M  V30 6323 H 599.31 -0.528371 5.46351 0
M  V30 6324 H 599.571 -1.62097 4.11311 0
M  V30 6325 N 598.631 -1.53133 0.372548 0
M  V30 6326 C 599.856 -2.0625 -0.218098 0
M  V30 6327 C 600.281 -1.24375 -1.41111 0
M  V30 6328 O 599.639 -0.264554 -1.79359 0
M  V30 6329 C 599.687 -3.55858 -0.582876 0
M  V30 6330 O 598.791 -3.76667 -1.67917 0
M  V30 6331 H 598.132 -0.663317 -0.030104 0
M  V30 6332 H 600.662 -1.97477 0.535169 0
M  V30 6333 H 600.672 -3.99007 -0.851925 0
M  V30 6334 H 599.347 -4.14892 0.289428 0
M  V30 6335 H 597.924 -3.45413 -1.40513 0
M  V30 6336 N 600.109 -0.101901 -1.5727 0
M  V30 6337 C 601.019 0.868647 -2.17926 0
M  V30 6338 C 602.035 1.30527 -1.1506 0
M  V30 6339 O 603.211 1.37178 -1.47459 0
M  V30 6340 C 600.276 2.10727 -2.75309 0
M  V30 6341 C 599.337 1.7242 -3.93154 0
M  V30 6342 C 598.57 2.90377 -4.47791 0
M  V30 6343 O 598.793 4.05305 -4.01353 0
M  V30 6344 O 597.727 2.6845 -5.38719 0
M  V30 6345 H 601.553 0.382544 -3.01281 0
M  V30 6346 H 599.138 0.122812 -1.48894 0
M  V30 6347 H 601.02 2.83303 -3.11958 0
M  V30 6348 H 599.695 2.58376 -1.94996 0
M  V30 6349 H 598.602 0.970039 -3.61305 0
M  V30 6350 H 599.935 1.29528 -4.74851 0
M  V30 6351 N 601.587 1.56661 0.17182 0
M  V30 6352 C 602.827 1.83762 0.895029 0
M  V30 6353 C 603.191 0.682752 1.79451 0
M  V30 6354 O 604.392 0.834208 2.55528 0
M  V30 6355 C 602.663 3.15976 1.67015 0
M  V30 6356 S 604.222 3.64558 2.44219 0
M  V30 6357 H 601.04 0.644713 0.299778 0
M  V30 6358 H 603.642 1.94871 0.156701 0
M  V30 6359 H 602.346 3.98021 1.00039 0
M  V30 6360 H 601.877 3.07807 2.44986 0
M  V30 6361 H 603.892 3.31845 3.68909 0
M  V30 6362 N 603.065 -0.440357 1.51323 0
M  V30 6363 C 604.29 -1.21716 1.67928 0
M  V30 6364 C 604.715 -1.84328 0.374826 0
M  V30 6365 O 604.073 -1.68675 -0.664706 0
M  V30 6366 C 604.121 -2.27914 2.79442 0
M  V30 6367 O 603.225 -3.33325 2.42834 0
M  V30 6368 H 602.566 -0.35674 0.560029 0
M  V30 6369 H 605.096 -0.520417 1.97871 0
M  V30 6370 H 605.106 -2.72746 3.03436 0
M  V30 6371 H 603.781 -1.8172 3.741 0
M  V30 6372 H 602.358 -2.9399 2.294 0
M  V30 6373 N 604.543 -1.41418 -0.695603 0
M  V30 6374 C 605.493 -1.39731 -1.80165 0
M  V30 6375 C 606.477 -0.271689 -1.5859 0
M  V30 6376 O 607.669 -0.512354 -1.69422 0
M  V30 6377 C 604.798 -1.28187 -3.1847 0
M  V30 6378 C 603.884 -2.45612 -3.45739 0
M  V30 6379 N 604.275 -3.71077 -3.43708 0
M  V30 6380 C 602.573 -2.39424 -3.76288 0
M  V30 6381 C 603.274 -4.48957 -3.69882 0
M  V30 6382 N 602.25 -3.7907 -3.89624 0
M  V30 6383 H 606.052 -2.34656 -1.76957 0
M  V30 6384 H 603.566 -1.35473 -0.89559 0
M  V30 6385 H 605.563 -1.2506 -3.977 0
M  V30 6386 H 604.223 -0.342468 -3.22889 0
M  V30 6387 H 605.234 -4.03963 -3.2409 0
M  V30 6388 H 601.911 -1.53955 -3.88077 0
M  V30 6389 H 603.301 -5.57887 -3.74448 0
M  V30 6390 N 606.021 0.929856 -1.27246 0
M  V30 6391 C 607.298 1.65544 -1.04186 0
M  V30 6392 C 607.678 2.06796 0.424097 0
M  V30 6393 O 607.026 1.80053 1.40688 0
M  V30 6394 C 607.236 2.85912 -2.00138 0
M  V30 6395 C 608.584 3.57305 -2.29387 0
M  V30 6396 O 609.608 2.96036 -1.98094 0
M  V30 6397 O 608.467 4.67688 -2.82719 0
M  V30 6398 H 605.561 0.725473 -0.397011 0
M  V30 6399 H 608.107 0.980583 -1.38501 0
M  V30 6400 H 606.879 2.52403 -2.99013 0
M  V30 6401 H 606.502 3.61118 -1.66371 0
M  V30 6402 N 607.499 1.09233 1.13605 0
M  V30 6403 C 608.739 0.836786 1.86487 0
M  V30 6404 C 609.103 -0.626191 1.81502 0
M  V30 6405 O 610.304 -0.99758 2.49603 0
M  V30 6406 C 608.575 1.35476 3.30728 0
M  V30 6407 S 610.134 1.2328 4.21126 0
M  V30 6408 H 606.952 0.302702 0.643345 0
M  V30 6409 H 609.554 1.3953 1.36936 0
M  V30 6410 H 608.258 2.41381 3.31909 0
M  V30 6411 H 607.789 0.792286 3.85339 0
M  V30 6412 H 609.804 0.182468 4.95864 0
M  V30 6413 N 608.977 -1.30795 0.87923 0
M  V30 6414 C 610.223 -1.96653 0.495519 0
M  V30 6415 C 610.556 -1.69282 -0.951703 0
M  V30 6416 O 609.831 -0.994374 -1.6716 0
M  V30 6417 C 610.114 -3.51898 0.764174 0
M  V30 6418 C 609.967 -3.88808 2.2616 0
M  V30 6419 C 611.286 -4.39462 0.236825 0
M  V30 6420 H 608.405 -0.7143 0.181507 0
M  V30 6421 H 611.047 -1.54765 1.10217 0
M  V30 6422 H 609.197 -3.87709 0.247841 0
M  V30 6423 H 610.869 -3.63051 2.8459 0
M  V30 6424 H 609.112 -3.37082 2.73053 0
M  V30 6425 H 609.783 -4.97086 2.4002 0
M  V30 6426 H 612.259 -4.10528 0.678683 0
M  V30 6427 H 611.135 -5.47018 0.454176 0
M  V30 6428 H 611.396 -4.33621 -0.861683 0
M  V30 6429 N 610.455 -0.639598 -1.44038 0
M  V30 6430 C 611.385 0.0469443 -2.33453 0
M  V30 6431 C 612.366 0.82609 -1.48694 0
M  V30 6432 O 613.551 0.790285 -1.77393 0
M  V30 6433 C 610.681 1.02338 -3.3188 0
M  V30 6434 C 609.635 0.355284 -4.26523 0
M  V30 6435 C 608.961 1.44221 -5.14883 0
M  V30 6436 C 610.261 -0.743798 -5.16977 0
M  V30 6437 H 611.955 -0.699735 -2.91108 0
M  V30 6438 H 609.501 -0.337946 -1.39978 0
M  V30 6439 H 611.454 1.51247 -3.93322 0
M  V30 6440 H 610.178 1.80105 -2.72451 0
M  V30 6441 H 608.837 -0.113239 -3.66425 0
M  V30 6442 H 608.485 2.21097 -4.51802 0
M  V30 6443 H 608.185 1.00052 -5.79019 0
M  V30 6444 H 609.709 1.93295 -5.79197 0
M  V30 6445 H 611.123 -0.337444 -5.72306 0
M  V30 6446 H 609.52 -1.10914 -5.89761 0
M  V30 6447 H 610.59 -1.60745 -4.57481 0
M  V30 6448 N 611.933 1.52934 -0.380664 0
M  V30 6449 C 613.161 2.05886 0.204599 0
M  V30 6450 C 613.576 1.25305 1.41223 0
M  V30 6451 O 612.933 0.297504 1.80059 0
M  V30 6452 C 612.984 3.56764 0.583249 0
M  V30 6453 O 612.705 4.34292 -0.576398 0
M  V30 6454 C 614.206 4.2603 1.2253 0
M  V30 6455 H 611.426 0.670193 0.0328991 0
M  V30 6456 H 613.97 1.97148 -0.543397 0
M  V30 6457 H 612.125 3.65603 1.28115 0
M  V30 6458 H 612.539 5.23819 -0.267119 0
M  V30 6459 H 614.013 5.32868 1.44068 0
M  V30 6460 H 614.49 3.80698 2.19011 0
M  V30 6461 H 615.096 4.21485 0.568407 0
M  V30 6462 N 613.412 0.11024 1.57214 0
M  V30 6463 C 614.637 -0.561179 1.99664 0
M  V30 6464 C 615.062 -1.59985 0.989266 0
M  V30 6465 O 614.42 -1.81255 -0.0402399 0
M  V30 6466 C 614.468 -1.17189 3.41027 0
M  V30 6467 O 613.572 -2.28755 3.4314 0
M  V30 6468 H 612.913 -0.14101 0.648855 0
M  V30 6469 H 615.443 0.196128 2.03658 0
M  V30 6470 H 615.453 -1.50954 3.79047 0
M  V30 6471 H 614.128 -0.411041 4.13864 0
M  V30 6472 H 612.705 -1.96495 3.16929 0
M  V30 6473 N 614.89 -1.56749 -0.16351 0
M  V30 6474 C 615.8 -2.00255 -1.2221 0
M  V30 6475 C 616.816 -0.915194 -1.47987 0
M  V30 6476 O 617.992 -1.22342 -1.59982 0
M  V30 6477 C 615.057 -2.36035 -2.53946 0
M  V30 6478 C 614.118 -3.58637 -2.35962 0
M  V30 6479 C 613.351 -3.92701 -3.61416 0
M  V30 6480 O 613.574 -3.27632 -4.66919 0
M  V30 6481 O 612.508 -4.86019 -3.55062 0
M  V30 6482 H 616.334 -2.90586 -0.882794 0
M  V30 6483 H 613.919 -1.44721 -0.370978 0
M  V30 6484 H 615.801 -2.59982 -3.31643 0
M  V30 6485 H 614.476 -1.48863 -2.8744 0
M  V30 6486 H 613.383 -3.39898 -1.5627 0
M  V30 6487 H 614.716 -4.46374 -2.0739 0
M  V30 6488 N 616.368 0.432326 -1.51554 0
M  V30 6489 C 617.616 1.17901 -1.64146 0
M  V30 6490 C 617.937 1.91604 -0.362367 0
M  V30 6491 O 617.207 1.85764 0.621968 0
M  V30 6492 H 615.787 0.438206 -0.604966 0
M  V30 6493 H 618.449 0.495172 -1.88505 0
M  V30 6494 H 617.545 1.90584 -2.47152 0
M  V30 6495 N 617.846 1.41785 0.688094 0
M  V30 6496 C 619.257 1.3701 1.26828 0
M  V30 6497 C 619.608 0.056835 1.96118 0
M  V30 6498 O 618.733 -0.84475 1.99231 0
M  V30 6499 C 619.328 2.48168 2.30648 0
M  V30 6500 C 617.887 2.46766 2.84224 0
M  V30 6501 C 617.034 2.27633 1.58361 0
M  V30 6502 H 619.985 1.51192 0.482351 0
M  V30 6503 H 620.006 2.17655 3.121 0
M  V30 6504 H 619.518 3.43735 1.80188 0
M  V30 6505 H 617.619 1.54978 3.3884 0
M  V30 6506 H 617.732 3.43342 3.34145 0
M  V30 6507 H 616.096 1.75648 1.84445 0
M  V30 6508 H 616.879 3.25238 1.09887 0
M  V30 6509 N 619.324 -0.923095 1.27737 0
M  V30 6510 C 620.254 -2.04124 1.13383 0
M  V30 6511 C 621.235 -1.70066 0.0340658 0
M  V30 6512 O 622.42 -1.93068 0.209383 0
M  V30 6513 C 619.55 -3.3831 0.785097 0
M  V30 6514 C 618.504 -3.86496 1.8386 0
M  V30 6515 C 617.83 -5.1754 1.34373 0
M  V30 6516 C 619.13 -4.09381 3.24353 0
M  V30 6517 H 620.824 -2.1639 2.06919 0
M  V30 6518 H 618.37 -1.03976 0.996243 0
M  V30 6519 H 620.323 -4.16016 0.671485 0
M  V30 6520 H 619.047 -3.2607 -0.185969 0
M  V30 6521 H 617.706 -3.10987 1.9412 0
M  V30 6522 H 617.354 -5.01696 0.361989 0
M  V30 6523 H 617.054 -5.50751 2.04811 0
M  V30 6524 H 618.578 -5.97811 1.24315 0
M  V30 6525 H 619.992 -4.77641 3.17067 0
M  V30 6526 H 618.389 -4.53906 3.92542 0
M  V30 6527 H 619.459 -3.14515 3.69064 0
M  V30 6528 N 620.802 -1.09834 -1.13024 0
M  V30 6529 C 622.042 -0.846664 -1.8604 0
M  V30 6530 C 622.406 0.616557 -1.81831 0
M  V30 6531 O 623.607 0.984329 -2.50129 0
M  V30 6532 C 621.878 -1.37228 -3.30005 0
M  V30 6533 S 623.437 -1.25511 -4.20467 0
M  V30 6534 H 620.255 -0.30611 -0.64173 0
M  V30 6535 H 622.857 -1.40255 -1.36194 0
M  V30 6536 H 621.561 -2.43138 -3.30624 0
M  V30 6537 H 621.092 -0.81271 -3.84914 0
M  V30 6538 H 623.107 -0.208762 -4.95761 0
M  V30 6539 N 622.28 1.30327 -0.886154 0
M  V30 6540 C 623.527 1.96097 -0.505192 0
M  V30 6541 C 623.855 1.69952 0.945868 0
M  V30 6542 O 623.11 0.997653 1.68361 0
M  V30 6543 C 623.409 3.49906 -0.728042 0
M  V30 6544 C 623.075 3.96103 -2.15437 0
M  V30 6545 C 621.737 4.08428 -2.5444 0
M  V30 6546 C 624.089 4.20177 -3.08384 0
M  V30 6547 C 621.417 4.42189 -3.85598 0
M  V30 6548 C 623.769 4.55407 -4.39075 0
M  V30 6549 C 622.433 4.65941 -4.7797 0
M  V30 6550 H 621.703 0.71757 -0.184863 0
M  V30 6551 H 624.35 1.55171 -1.12223 0
M  V30 6552 H 622.655 3.9179 -0.027978 0
M  V30 6553 H 624.352 3.98869 -0.412862 0
M  V30 6554 H 620.942 3.87017 -1.84162 0
M  V30 6555 H 625.126 4.10134 -2.7947 0
M  V30 6556 H 620.382 4.48544 -4.15473 0
M  V30 6557 H 624.556 4.72986 -5.11133 0
M  V30 6558 H 622.183 4.91856 -5.79639 0
M  V30 6559 N 623.758 0.647228 1.43697 0
M  V30 6560 C 624.998 0.16171 2.03759 0
M  V30 6561 C 625.362 -1.19951 1.49919 0
M  V30 6562 O 626.563 -1.77808 2.01588 0
M  V30 6563 C 624.834 0.16505 3.57019 0
M  V30 6564 S 626.393 -0.253497 4.38067 0
M  V30 6565 H 623.211 0.0689985 0.707644 0
M  V30 6566 H 625.813 0.854224 1.7585 0
M  V30 6567 H 624.517 1.15858 3.93707 0
M  V30 6568 H 624.048 -0.548194 3.89562 0
M  V30 6569 H 626.063 -1.49385 4.73179 0
M  V30 6570 N 625.236 -1.5273 0.388769 0
M  V30 6571 C 626.647 -1.86505 -0.0853788 0
M  V30 6572 C 626.998 -1.30847 -1.46197 0
M  V30 6573 O 626.123 -0.639609 -2.06732 0
M  V30 6574 C 626.718 -3.38414 -0.161703 0
M  V30 6575 C 625.277 -3.71902 -0.580144 0
M  V30 6576 C 624.424 -2.76095 0.258218 0
M  V30 6577 H 627.375 -1.46647 0.606665 0
M  V30 6578 H 627.396 -3.67638 -0.980936 0
M  V30 6579 H 626.908 -3.78893 0.840333 0
M  V30 6580 H 625.009 -3.36992 -1.58957 0
M  V30 6581 H 625.122 -4.77902 -0.338663 0
M  V30 6582 H 623.486 -2.53195 -0.276432 0
M  V30 6583 H 624.269 -3.19411 1.25822 0
M  V30 6584 N 626.714 -0.118576 -1.57153 0
M  V30 6585 C 627.624 0.845484 -2.18835 0
M  V30 6586 C 628.64 1.29299 -1.16438 0
M  V30 6587 O 629.816 1.35607 -1.48905 0
M  V30 6588 C 626.881 2.07795 -2.77529 0
M  V30 6589 C 625.942 1.6824 -3.9496 0
M  V30 6590 C 625.175 2.85612 -4.50845 0
M  V30 6591 O 625.398 4.01025 -4.05629 0
M  V30 6592 O 624.332 2.62721 -5.41536 0
M  V30 6593 H 628.158 0.350568 -3.0167 0
M  V30 6594 H 625.743 0.107013 -1.49016 0
M  V30 6595 H 627.625 2.79978 -3.14945 0
M  V30 6596 H 626.3 2.56294 -1.97725 0
M  V30 6597 H 625.207 0.931663 -3.62313 0
M  V30 6598 H 626.54 1.24484 -4.76198 0
M  V30 6599 N 628.193 1.56834 0.155195 0
M  V30 6600 C 629.441 1.82536 0.867462 0
M  V30 6601 C 629.762 0.698168 1.82073 0
M  V30 6602 O 629.032 -0.280807 1.93877 0
M  V30 6603 H 627.612 0.673401 0.323327 0
M  V30 6604 H 630.274 1.94313 0.151156 0
M  V30 6605 H 629.37 2.77171 1.43466 0
M  V30 6606 N 629.671 -0.424282 1.51781 0
M  V30 6607 C 630.896 -1.19928 1.6921 0
M  V30 6608 C 631.321 -1.8392 0.394355 0
M  V30 6609 O 630.679 -1.69371 -0.646778 0
M  V30 6610 C 630.727 -2.24937 2.81843 0
M  V30 6611 O 629.831 -3.3073 2.46356 0
M  V30 6612 H 629.172 -0.35078 0.563781 0
M  V30 6613 H 631.702 -0.499401 1.98412 0
M  V30 6614 H 631.712 -2.69512 3.06312 0
M  V30 6615 H 630.387 -1.77742 3.76006 0
M  V30 6616 H 628.964 -2.9154 2.32505 0
M  V30 6617 N 631.149 -1.42148 -0.680565 0
M  V30 6618 C 632.395 -1.42521 -1.44277 0
M  V30 6619 C 632.728 -0.0393718 -1.9416 0
M  V30 6620 O 632.003 0.935425 -1.70529 0
M  V30 6621 C 632.286 -2.44475 -2.64394 0
M  V30 6622 C 632.139 -3.92226 -2.20179 0
M  V30 6623 C 633.458 -2.43491 -3.66606 0
M  V30 6624 H 630.577 -0.518985 -0.523282 0
M  V30 6625 H 633.219 -1.73524 -0.773914 0
M  V30 6626 H 631.369 -2.18168 -3.21458 0
M  V30 6627 H 633.041 -4.29493 -1.68327 0
M  V30 6628 H 631.284 -4.0637 -1.5181 0
M  V30 6629 H 631.955 -4.59133 -3.06433 0
M  V30 6630 H 634.431 -2.66872 -3.19247 0
M  V30 6631 H 633.307 -3.16816 -4.4824 0
M  V30 6632 H 633.568 -1.45881 -4.17338 0
M  V30 6633 N 632.627 0.916307 -1.28225 0
M  V30 6634 C 633.557 2.0352 -1.14464 0
M  V30 6635 C 634.538 1.70045 -0.0430844 0
M  V30 6636 O 635.723 1.92954 -0.219619 0
M  V30 6637 C 632.853 3.37889 -0.803027 0
M  V30 6638 C 631.807 3.85516 -1.85908 0
M  V30 6639 C 631.133 5.1682 -1.37116 0
M  V30 6640 C 632.433 4.07655 -3.26519 0
M  V30 6641 H 634.127 2.1529 -2.08064 0
M  V30 6642 H 631.673 1.03446 -1.00174 0
M  V30 6643 H 633.626 4.15654 -0.693537 0
M  V30 6644 H 632.35 3.26164 0.168674 0
M  V30 6645 H 631.009 3.09953 -1.95767 0
M  V30 6646 H 630.657 5.01497 -0.38859 0
M  V30 6647 H 630.357 5.49657 -2.07728 0
M  V30 6648 H 631.881 5.97143 -1.27484 0
M  V30 6649 H 633.295 4.75953 -3.19596 0
M  V30 6650 H 631.692 4.51818 -3.94943 0
M  V30 6651 H 632.762 3.12553 -3.70727 0
M  V30 6652 N 634.105 1.10431 1.1244 0
M  V30 6653 C 635.015 0.765502 2.21759 0
M  V30 6654 C 636.031 -0.236966 1.72379 0
M  V30 6655 O 637.207 -0.0757329 2.01258 0
M  V30 6656 C 634.272 0.202316 3.46109 0
M  V30 6657 C 633.333 1.26205 4.1033 0
M  V30 6658 C 632.566 0.725648 5.28744 0
M  V30 6659 O 632.789 -0.447942 5.68638 0
M  V30 6660 O 631.723 1.48555 5.83279 0
M  V30 6661 H 635.549 1.67801 2.53133 0
M  V30 6662 H 633.134 0.879443 1.20773 0
M  V30 6663 H 635.016 -0.107918 4.21262 0
M  V30 6664 H 633.691 -0.683052 3.16411 0
M  V30 6665 H 632.598 1.62514 3.36957 0
M  V30 6666 H 633.931 2.12044 4.44183 0
M  V30 6667 N 635.583 -1.29855 0.893053 0
M  V30 6668 C 636.999 -1.48366 0.588199 0
M  V30 6669 C 637.199 -1.81654 -0.872018 0
M  V30 6670 O 636.255 -1.909 -1.65268 0
M  V30 6671 C 637.568 -2.60136 1.5083 0
M  V30 6672 C 639.116 -2.74014 1.51279 0
M  V30 6673 C 639.591 -3.88905 2.41902 0
M  V30 6674 N 641.082 -3.96228 2.39911 0
M  V30 6675 C 641.817 -4.84458 3.06738 0
M  V30 6676 N 641.313 -5.77426 3.8282 0
M  V30 6677 N 643.106 -4.77894 2.95929 0
M  V30 6678 H 635.257 -1.06522 1.83757 0
M  V30 6679 H 637.52 -0.528495 0.787018 0
M  V30 6680 H 637.226 -2.42383 2.54839 0
M  V30 6681 H 637.1 -3.56793 1.22388 0
M  V30 6682 H 639.487 -2.91167 0.480179 0
M  V30 6683 H 639.568 -1.77952 1.83757 0
M  V30 6684 H 639.212 -3.72508 3.45253 0
M  V30 6685 H 639.142 -4.84322 2.06737 0
M  V30 6686 H 641.633 -3.29728 1.84629 0
M  V30 6687 H 641.946 -6.41529 4.30883 0
M  V30 6688 H 640.291 -5.77332 3.86927 0
M  V30 6689 H 643.482 -4.04248 2.36012 0
M  V30 6690 H 643.655 -5.46444 3.48286 0
M  V30 6691 N 637.061 -0.65484 -1.43351 0
M  V30 6692 C 638.338 -0.0987371 -1.95351 0
M  V30 6693 C 638.718 1.38161 -1.59608 0
M  V30 6694 O 638.066 2.10791 -0.882021 0
M  V30 6695 C 638.276 -0.346684 -3.47274 0
M  V30 6696 C 639.624 -0.25249 -4.23849 0
M  V30 6697 O 640.648 -0.279332 -3.55103 0
M  V30 6698 O 639.507 -0.177584 -5.46211 0
M  V30 6699 H 636.601 0.0086829 -0.826954 0
M  V30 6700 H 639.147 -0.728189 -1.53282 0
M  V30 6701 H 637.919 -1.37296 -3.66423 0
M  V30 6702 H 637.542 0.315757 -3.96344 0
M  V30 6703 N 638.539 1.52521 -0.396863 0
M  V30 6704 C 639.787 2.01274 0.182536 0
M  V30 6705 C 640.108 1.28485 1.46685 0
M  V30 6706 O 639.378 0.407134 1.91623 0
M  V30 6707 H 637.958 0.743671 0.0704442 0
M  V30 6708 H 640.62 1.87547 -0.530289 0
M  V30 6709 H 639.716 3.09687 0.387385 0
M  V30 6710 N 640.017 0.126909 1.57088 0
M  V30 6711 C 640.964 -0.82036 2.15728 0
M  V30 6712 C 641.934 -1.25811 1.08447 0
M  V30 6713 O 643.119 -1.33422 1.36393 0
M  V30 6714 C 640.259 -2.06199 2.76724 0
M  V30 6715 C 639.372 -1.67188 3.98337 0
M  V30 6716 C 638.507 -2.86378 4.47393 0
M  V30 6717 C 637.546 -2.43644 5.61519 0
M  V30 6718 N 636.683 -3.55775 6.05284 0
M  V30 6719 H 641.523 -0.313472 2.96347 0
M  V30 6720 H 639.06 -0.14303 1.46403 0
M  V30 6721 H 641.018 -2.78959 3.10222 0
M  V30 6722 H 639.648 -2.54333 1.98782 0
M  V30 6723 H 638.7 -0.842714 3.70948 0
M  V30 6724 H 640.012 -1.31789 4.81075 0
M  V30 6725 H 639.166 -3.67353 4.82842 0
M  V30 6726 H 637.905 -3.25009 3.63621 0
M  V30 6727 H 636.91 -1.61104 5.25667 0
M  V30 6728 H 638.135 -2.06122 6.47063 0
M  V30 6729 H 636.081 -3.94065 5.24451 0
M  V30 6730 H 635.998 -3.24325 6.82898 0
M  V30 6731 H 637.266 -4.37166 6.45373 0
M  V30 6732 N 641.495 -1.56914 -0.146875 0
M  V30 6733 C 642.723 -1.87515 -0.874394 0
M  V30 6734 C 643.138 -0.715116 -1.74733 0
M  V30 6735 O 642.495 0.315113 -1.79759 0
M  V30 6736 C 642.546 -3.17362 -1.731 0
M  V30 6737 O 642.267 -4.28897 -0.893245 0
M  V30 6738 C 643.768 -3.61479 -2.56609 0
M  V30 6739 H 640.988 -0.621546 -0.252827 0
M  V30 6740 H 643.532 -2.04023 -0.139627 0
M  V30 6741 H 641.687 -3.02608 -2.41883 0
M  V30 6742 H 642.101 -5.03146 -1.48137 0
M  V30 6743 H 643.575 -4.5517 -3.12289 0
M  V30 6744 H 644.052 -2.86773 -3.32653 0
M  V30 6745 H 644.658 -3.78927 -1.93117 0
M  V30 6746 N 642.974 0.416227 -1.52004 0
M  V30 6747 C 644.214 1.17307 -1.67387 0
M  V30 6748 C 644.578 1.87959 -0.39183 0
M  V30 6749 O 645.779 2.65472 -0.421671 0
M  V30 6750 C 644.05 2.14661 -2.85754 0
M  V30 6751 S 645.609 2.98549 -3.21581 0
M  V30 6752 H 642.427 0.397505 -0.5895 0
M  V30 6753 H 645.029 0.461431 -1.89976 0
M  V30 6754 H 643.733 1.61431 -3.77317 0
M  V30 6755 H 643.264 2.90375 -2.65417 0
M  V30 6756 H 645.279 4.16536 -2.69652 0
M  V30 6757 N 644.452 1.42507 0.673017 0
M  V30 6758 C 645.677 1.4668 1.46627 0
M  V30 6759 C 646.102 0.080066 1.8793 0
M  V30 6760 O 645.46 -0.921879 1.56112 0
M  V30 6761 C 645.508 2.40091 2.69051 0
M  V30 6762 O 644.612 1.8735 3.67387 0
M  V30 6763 H 643.953 0.496908 0.44043 0
M  V30 6764 H 646.483 1.87215 0.825334 0
M  V30 6765 H 646.493 2.56731 3.17101 0
M  V30 6766 H 645.168 3.4084 2.3833 0
M  V30 6767 H 643.745 1.80274 3.26429 0
M  V30 6768 N 645.93 -0.909495 1.28709 0
M  V30 6769 C 647.178 -1.65577 1.15882 0
M  V30 6770 C 647.499 -1.928 -0.292108 0
M  V30 6771 O 646.769 -1.54716 -1.20166 0
M  V30 6772 H 645.349 -0.613714 0.425869 0
M  V30 6773 H 648.011 -1.09108 1.61498 0
M  V30 6774 H 647.107 -2.61634 1.70159 0
M  V30 6775 N 647.408 -1.11026 -1.11852 0
M  V30 6776 C 648.648 -0.866348 -1.85132 0
M  V30 6777 C 649.012 0.597236 -1.82475 0
M  V30 6778 O 650.213 0.957744 -2.51159 0
M  V30 6779 C 648.484 -1.40721 -3.28531 0
M  V30 6780 S 650.043 -1.29964 -4.19112 0
M  V30 6781 H 646.861 -0.312899 -0.638447 0
M  V30 6782 H 649.463 -1.41691 -1.34699 0
M  V30 6783 H 648.167 -2.46631 -3.28027 0
M  V30 6784 H 647.698 -0.85349 -3.8403 0
M  V30 6785 H 649.713 -0.261333 -4.95511 0
M  V30 6786 N 648.886 1.2938 -0.899927 0
M  V30 6787 C 650.111 2.00228 -0.540692 0
M  V30 6788 C 650.536 1.66909 0.867359 0
M  V30 6789 O 649.894 0.893824 1.57735 0
M  V30 6790 C 649.942 3.52921 -0.740232 0
M  V30 6791 O 649.046 4.11879 0.207154 0
M  V30 6792 H 648.387 0.629505 -0.211233 0
M  V30 6793 H 650.917 1.6487 -1.21158 0
M  V30 6794 H 650.927 4.0287 -0.644973 0
M  V30 6795 H 649.602 3.76508 -1.76677 0
M  V30 6796 H 648.179 3.72845 0.0643315 0
M  V30 6797 N 650.364 0.662433 1.43002 0
M  V30 6798 C 651.589 0.186003 2.06564 0
M  V30 6799 C 652.014 -1.14314 1.49379 0
M  V30 6800 O 651.372 -1.70824 0.607346 0
M  V30 6801 C 651.42 0.118269 3.60406 0
M  V30 6802 O 650.524 -0.916859 4.02079 0
M  V30 6803 H 649.865 0.0990981 0.656563 0
M  V30 6804 H 652.395 0.907958 1.8335 0
M  V30 6805 H 652.405 -0.0619981 4.07953 0
M  V30 6806 H 651.08 1.08849 4.01403 0
M  V30 6807 H 649.657 -0.708635 3.66105 0
M  V30 6808 N 651.842 -1.52309 0.404946 0
M  V30 6809 C 653.253 -1.86585 -0.0655926 0
M  V30 6810 C 653.604 -1.3239 -1.44801 0
M  V30 6811 O 652.729 -0.6615 -2.06042 0
M  V30 6812 C 653.324 -3.38566 -0.125801 0
M  V30 6813 C 651.883 -3.72497 -0.540666 0
M  V30 6814 C 651.03 -2.75806 0.287487 0
M  V30 6815 H 653.981 -1.45995 0.622185 0
M  V30 6816 H 654.002 -3.68658 -0.941888 0
M  V30 6817 H 653.514 -3.77981 0.880473 0
M  V30 6818 H 651.615 -3.38659 -1.55373 0
M  V30 6819 H 651.728 -4.78234 -0.287956 0
M  V30 6820 H 650.092 -2.53474 -0.249561 0
M  V30 6821 H 650.875 -3.18059 1.29203 0
M  V30 6822 N 653.32 -0.135238 -1.57019 0
M  V30 6823 C 654.597 0.563227 -1.87316 0
M  V30 6824 C 654.977 1.83749 -1.03921 0
M  V30 6825 O 654.325 2.2817 -0.122675 0
M  V30 6826 C 654.535 0.840031 -3.3874 0
M  V30 6827 C 655.883 1.18598 -4.077 0
M  V30 6828 O 656.907 0.92977 -3.43851 0
M  V30 6829 O 655.766 1.66758 -5.20436 0
M  V30 6830 H 652.86 0.285971 -0.775983 0
M  V30 6831 H 655.406 -0.170965 -1.68837 0
M  V30 6832 H 654.178 -0.0622785 -3.9125 0
M  V30 6833 H 653.801 1.62882 -3.62706 0
M  V30 6834 N 654.798 1.5699 0.138552 0
M  V30 6835 C 655.746 1.99858 1.18994 0
M  V30 6836 C 656.74 0.89231 1.43994 0
M  V30 6837 O 657.946 1.0775 1.44187 0
M  V30 6838 H 654.321 0.636325 0.400743 0
M  V30 6839 H 656.292 2.87427 0.801755 0
M  V30 6840 C 655.041 2.40235 2.51361 0
M  V30 6841 H 654.364 3.24917 2.32957 0
M  V30 6842 H 655.804 2.74045 3.23535 0
M  V30 6843 C 654.263 1.25829 3.1252 0
M  V30 6844 O 654.793 0.563604 3.97727 0
M  V30 6845 N 652.999 1.02036 2.72097 0
M  V30 6846 H 652.546 1.58705 2.02905 0
M  V30 6847 H 652.504 0.256796 3.1335 0
M  V30 6848 N 656.276 -0.40816 1.52223 0
M  V30 6849 C 657.524 -1.15274 1.66001 0
M  V30 6850 C 657.845 -1.91003 0.392803 0
M  V30 6851 O 657.115 -1.8673 -0.592336 0
M  V30 6852 H 655.695 -0.428526 0.611861 0
M  V30 6853 H 658.357 -0.46512 1.89269 0
M  V30 6854 H 657.453 -1.86628 2.50153 0
M  V30 6855 N 657.755 -1.42862 -0.66545 0
M  V30 6856 C 659.003 -1.43546 -1.42264 0
M  V30 6857 C 659.324 -0.0563116 -1.94919 0
M  V30 6858 O 658.594 0.906568 -1.73661 0
M  V30 6859 H 657.174 -0.528464 -0.527953 0
M  V30 6860 H 659.836 -1.78363 -0.785665 0
M  V30 6861 H 658.932 -2.14079 -2.27105 0
M  V30 6862 N 659.233 0.902656 -1.29189 0
M  V30 6863 C 660.473 1.6672 -1.18254 0
M  V30 6864 C 660.837 1.90199 0.262336 0
M  V30 6865 O 662.038 2.6421 0.494612 0
M  V30 6866 C 660.309 2.98178 -1.9704 0
M  V30 6867 S 661.868 3.89226 -2.02605 0
M  V30 6868 H 658.686 0.572432 -0.421714 0
M  V30 6869 H 661.288 1.07279 -1.63436 0
M  V30 6870 H 659.992 2.788 -3.01163 0
M  V30 6871 H 659.523 3.62661 -1.5245 0
M  V30 6872 H 661.538 4.82913 -1.14059 0
M  V30 6873 N 660.711 1.11618 1.11262 0
M  V30 6874 C 661.936 0.889013 1.8738 0
M  V30 6875 C 662.361 -0.555884 1.79698 0
M  V30 6876 O 661.719 -1.39272 1.16073 0
M  V30 6877 C 661.767 1.35759 3.34069 0
M  V30 6878 O 660.871 0.530499 4.08974 0
M  V30 6879 H 660.212 0.320082 0.581759 0
M  V30 6880 H 662.742 1.48611 1.40627 0
M  V30 6881 H 662.752 1.35291 3.84916 0
M  V30 6882 H 661.427 2.40973 3.38976 0
M  V30 6883 H 660.004 0.601439 3.68018 0
M  V30 6884 N 662.189 -1.289 0.906776 0
M  V30 6885 C 663.121 -2.26556 0.347159 0
M  V30 6886 C 664.134 -1.54589 -0.51049 0
M  V30 6887 O 665.323 -1.75489 -0.326501 0
M  V30 6888 C 662.423 -3.3484 -0.523024 0
M  V30 6889 C 661.596 -4.36296 0.310515 0
M  V30 6890 C 660.655 -5.23879 -0.493634 0
M  V30 6891 O 659.681 -5.69127 0.0913569 0
M  V30 6892 N 660.883 -5.51946 -1.7982 0
M  V30 6893 H 663.648 -2.75212 1.18652 0
M  V30 6894 H 661.209 -1.42309 0.771996 0
M  V30 6895 H 663.201 -3.90366 -1.06756 0
M  V30 6896 H 661.771 -2.85946 -1.26309 0
M  V30 6897 H 660.991 -3.80331 1.03644 0
M  V30 6898 H 662.279 -5.01113 0.881106 0
M  V30 6899 H 661.677 -5.17006 -2.2961 0
M  V30 6900 H 660.234 -6.10258 -2.28971 0
M  V30 6901 N 663.667 -0.670007 -1.42649 0
M  V30 6902 C 664.597 -0.00258501 -2.335 0
M  V30 6903 C 665.578 0.794364 -1.50412 0
M  V30 6904 O 666.763 0.75248 -1.79029 0
M  V30 6905 C 663.893 0.952748 -3.33976 0
M  V30 6906 C 662.847 0.264733 -4.2718 0
M  V30 6907 C 662.173 1.33267 -5.17826 0
M  V30 6908 C 663.473 -0.853289 -5.15283 0
M  V30 6909 H 665.167 -0.761326 -2.89559 0
M  V30 6910 H 662.713 -0.367561 -1.3923 0
M  V30 6911 H 664.666 1.4287 -3.96442 0
M  V30 6912 H 663.39 1.74285 -2.7621 0
M  V30 6913 H 662.049 -0.190938 -3.66102 0
M  V30 6914 H 661.697 2.11464 -4.5639 0
M  V30 6915 H 661.397 0.877476 -5.81011 0
M  V30 6916 H 662.921 1.80965 -5.83167 0
M  V30 6917 H 664.335 -0.458763 -5.71462 0
M  V30 6918 H 662.732 -1.23398 -5.87276 0
M  V30 6919 H 663.802 -1.70412 -4.53969 0
M  V30 6920 N 665.145 1.52092 -0.413018 0
M  V30 6921 C 666.385 2.03765 0.160975 0
M  V30 6922 C 666.749 1.29174 1.4205 0
M  V30 6923 O 667.95 1.71093 2.07318 0
M  V30 6924 C 666.221 3.55167 0.398871 0
M  V30 6925 S 667.78 4.28619 0.939755 0
M  V30 6926 H 664.598 0.709685 0.0432281 0
M  V30 6927 H 667.2 1.87102 -0.566831 0
M  V30 6928 H 665.904 4.07034 -0.524544 0
M  V30 6929 H 665.435 3.7608 1.15444 0
M  V30 6930 H 667.45 4.43773 2.21991 0
M  V30 6931 N 666.623 0.143563 1.56945 0
M  V30 6932 C 667.869 -0.50916 1.96304 0
M  V30 6933 C 668.202 -1.64741 1.0283 0
M  V30 6934 O 667.477 -1.94374 0.0700361 0
M  V30 6935 C 667.76 -1.0186 3.45393 0
M  V30 6936 C 667.613 0.117923 4.49645 0
M  V30 6937 C 668.932 -1.90151 3.96901 0
M  V30 6938 H 666.051 -0.183608 0.713763 0
M  V30 6939 H 668.693 0.224095 1.88674 0
M  V30 6940 H 666.843 -1.64345 3.52027 0
M  V30 6941 H 668.515 0.754145 4.55094 0
M  V30 6942 H 666.758 0.777568 4.26774 0
M  V30 6943 H 667.429 -0.280187 5.51288 0
M  V30 6944 H 669.905 -1.375 3.92725 0
M  V30 6945 H 668.781 -2.22707 5.0169 0
M  V30 6946 H 669.042 -2.83718 3.39052 0
M  V30 6947 N 668.101 -1.57061 -0.130224 0
M  V30 6948 C 669.512 -1.73539 -0.68856 0
M  V30 6949 C 669.863 -0.760554 -1.80859 0
M  V30 6950 O 668.988 0.0690796 -2.1629 0
M  V30 6951 C 669.583 -3.14666 -1.25581 0
M  V30 6952 C 668.142 -3.32689 -1.76055 0
M  V30 6953 C 667.289 -2.69436 -0.655712 0
M  V30 6954 H 670.24 -1.58412 0.0956002 0
M  V30 6955 H 670.261 -3.15595 -2.12556 0
M  V30 6956 H 669.773 -3.85593 -0.440412 0
M  V30 6957 H 667.874 -2.66786 -2.60108 0
M  V30 6958 H 667.987 -4.4077 -1.87772 0
M  V30 6959 H 666.351 -2.30362 -1.08654 0
M  V30 6960 H 667.134 -3.42979 0.14852 0
M  V30 6961 N 669.579 0.400081 -1.52437 0
M  V30 6962 C 670.509 1.4947 -1.7939 0
M  V30 6963 C 671.49 1.57383 -0.645329 0
M  V30 6964 O 672.675 1.72511 -0.891826 0
M  V30 6965 C 669.805 2.87201 -1.95276 0
M  V30 6966 C 668.759 2.94134 -3.10917 0
M  V30 6967 C 668.085 4.34207 -3.1204 0
M  V30 6968 C 669.385 2.64791 -4.50203 0
M  V30 6969 H 671.079 1.27165 -2.71052 0
M  V30 6970 H 668.625 0.610312 -1.30427 0
M  V30 6971 H 670.578 3.63772 -2.12715 0
M  V30 6972 H 669.302 3.10819 -1.00294 0
M  V30 6973 H 667.961 2.20009 -2.93243 0
M  V30 6974 H 667.609 4.54848 -2.14761 0
M  V30 6975 H 667.309 4.39768 -3.89715 0
M  V30 6976 H 668.833 5.127 -3.31619 0
M  V30 6977 H 670.247 3.31083 -4.68035 0
M  V30 6978 H 668.644 2.81717 -5.29864 0
M  V30 6979 H 669.714 1.60184 -4.57678 0
M  V30 6980 N 671.057 1.43213 0.657864 0
M  V30 6981 C 672.282 1.48227 1.45064 0
M  V30 6982 C 672.707 0.0999939 1.87834 0
M  V30 6983 O 672.065 -0.905269 1.57081 0
M  V30 6984 C 672.113 2.42931 2.6649 0
M  V30 6985 O 671.217 1.91237 3.6538 0
M  V30 6986 H 670.558 0.501551 0.435135 0
M  V30 6987 H 673.088 1.8808 0.805431 0
M  V30 6988 H 673.098 2.6008 3.1436 0
M  V30 6989 H 671.773 3.43348 2.34701 0
M  V30 6990 H 670.35 1.83726 3.24498 0
M  V30 6991 N 672.536 -0.895792 1.29666 0
M  V30 6992 C 673.947 -1.46195 1.1612 0
M  V30 6993 C 674.298 -1.94699 -0.242195 0
M  V30 6994 O 673.423 -1.8406 -1.13802 0
M  V30 6995 C 674.018 -2.65718 2.10189 0
M  V30 6996 C 672.577 -3.18458 2.00653 0
M  V30 6997 C 671.724 -1.91149 2.00891 0
M  V30 6998 H 674.675 -0.706756 1.42094 0
M  V30 6999 H 674.696 -3.4158 1.6764 0
M  V30 7000 H 674.208 -2.30386 3.12321 0
M  V30 7001 H 672.309 -3.58474 1.01623 0
M  V30 7002 H 672.422 -3.82491 2.88509 0
M  V30 7003 H 670.786 -2.09021 1.45542 0
M  V30 7004 H 671.569 -1.58089 3.04734 0
M  V30 7005 N 674.014 -1.12206 -1.10668 0
M  V30 7006 C 675.26 -0.877172 -1.82848 0
M  V30 7007 C 675.593 0.595571 -1.84842 0
M  V30 7008 O 674.868 1.44013 -1.30731 0
M  V30 7009 C 675.151 -1.44957 -3.29635 0
M  V30 7010 C 675.004 -2.99051 -3.35989 0
M  V30 7011 C 676.323 -1.10714 -4.25946 0
M  V30 7012 H 673.442 -0.320103 -0.663854 0
M  V30 7013 H 676.084 -1.38827 -1.2972 0
M  V30 7014 H 674.234 -1.01488 -3.7501 0
M  V30 7015 H 675.906 -3.51182 -2.99113 0
M  V30 7016 H 674.149 -3.34705 -2.75962 0
M  V30 7017 H 674.82 -3.34194 -4.39339 0
M  V30 7018 H 677.296 -1.48254 -3.88793 0
M  V30 7019 H 676.172 -1.5343 -5.2702 0
M  V30 7020 H 676.433 -0.019 -4.42096 0
M  V30 7021 N 675.492 1.28418 -0.913599 0
M  V30 7022 C 676.717 1.99643 -0.561899 0
M  V30 7023 C 677.142 1.67819 0.849608 0
M  V30 7024 O 676.5 0.910503 1.56779 0
M  V30 7025 C 676.548 3.52116 -0.777622 0
M  V30 7026 O 675.652 4.12076 0.163457 0
M  V30 7027 H 674.993 0.627229 -0.217898 0
M  V30 7028 H 677.523 1.63575 -1.229 0
M  V30 7029 H 677.533 4.02163 -0.687666 0
M  V30 7030 H 676.208 3.74613 -1.8066 0
M  V30 7031 H 674.785 3.72892 0.0247827 0
M  V30 7032 N 676.97 0.677563 1.42291 0
M  V30 7033 C 678.216 0.209962 2.02313 0
M  V30 7034 C 678.571 -1.1714 1.52631 0
M  V30 7035 O 677.864 -1.7756 0.719938 0
M  V30 7036 C 678.058 0.187229 3.56909 0
M  V30 7037 C 677.887 1.56484 4.21595 0
M  V30 7038 C 676.657 2.16329 4.56651 0
M  V30 7039 C 678.855 2.50805 4.49 0
M  V30 7040 N 676.837 3.46842 5.06531 0
M  V30 7041 C 678.208 3.65976 5.00461 0
M  V30 7042 C 680.263 2.493 4.30992 0
M  V30 7043 C 678.966 4.79899 5.35807 0
M  V30 7044 C 680.992 3.62322 4.67415 0
M  V30 7045 C 680.354 4.76221 5.19031 0
M  V30 7046 H 676.453 0.121815 0.772454 0
M  V30 7047 H 679.037 0.891148 1.73109 0
M  V30 7048 H 677.208 -0.46338 3.85626 0
M  V30 7049 H 678.94 -0.293512 4.03634 0
M  V30 7050 H 675.695 1.6879 4.42501 0
M  V30 7051 H 676.119 4.13694 5.35898 0
M  V30 7052 H 680.761 1.62467 3.90339 0
M  V30 7053 H 678.479 5.67406 5.75392 0
M  V30 7054 H 682.065 3.62388 4.55155 0
M  V30 7055 H 680.945 5.62228 5.46689 0
M  V30 7056 N 678.448 -1.51871 0.421078 0
M  V30 7057 C 679.358 -2.31077 -0.405069 0
M  V30 7058 C 680.374 -1.39301 -1.04265 0
M  V30 7059 O 681.55 -1.72376 -1.04157 0
M  V30 7060 C 678.615 -3.12556 -1.50032 0
M  V30 7061 C 677.676 -4.20088 -0.884559 0
M  V30 7062 C 676.909 -4.97673 -1.92762 0
M  V30 7063 O 677.132 -4.75696 -3.14753 0
M  V30 7064 O 676.066 -5.82203 -1.52719 0
M  V30 7065 H 679.892 -3.02742 0.241086 0
M  V30 7066 H 677.477 -1.48263 0.183991 0
M  V30 7067 H 679.359 -3.6326 -2.13589 0
M  V30 7068 H 678.034 -2.43672 -2.13086 0
M  V30 7069 H 676.941 -3.73502 -0.211379 0
M  V30 7070 H 678.274 -4.91298 -0.297763 0
M  V30 7071 N 679.926 -0.151884 -1.56866 0
M  V30 7072 C 681.166 0.500695 -1.98173 0
M  V30 7073 C 681.53 1.61715 -1.03499 0
M  V30 7074 O 682.731 2.33093 -1.33869 0
M  V30 7075 C 681.002 0.989333 -3.43434 0
M  V30 7076 S 682.561 1.64583 -4.06765 0
M  V30 7077 H 679.379 0.16173 -0.692361 0
M  V30 7078 H 681.981 -0.244754 -1.93962 0
M  V30 7079 H 680.685 0.166072 -4.10064 0
M  V30 7080 H 680.216 1.76929 -3.51368 0
M  V30 7081 H 682.231 2.93326 -4.00218 0
M  V30 7082 N 681.404 1.57128 0.121893 0
M  V30 7083 C 682.681 1.75664 0.860327 0
M  V30 7084 C 683.061 0.726585 1.98202 0
M  V30 7085 O 682.409 -0.24999 2.27128 0
M  V30 7086 C 682.619 3.20571 1.37968 0
M  V30 7087 C 683.967 3.82988 1.83317 0
M  V30 7088 O 684.991 3.24156 1.47654 0
M  V30 7089 O 683.85 4.86393 2.49168 0
M  V30 7090 H 680.944 0.719153 0.408348 0
M  V30 7091 H 683.49 1.6937 0.105859 0
M  V30 7092 H 682.262 3.87056 0.57477 0
M  V30 7093 H 681.885 3.31392 2.19694 0
M  V30 7094 N 682.882 -0.391992 1.52647 0
M  V30 7095 C 684.122 -1.1463 1.69232 0
M  V30 7096 C 684.486 -1.87312 0.421684 0
M  V30 7097 O 685.687 -2.64768 0.463852 0
M  V30 7098 C 683.958 -2.10088 2.89133 0
M  V30 7099 S 685.517 -2.93395 3.2629 0
M  V30 7100 H 682.335 -0.388076 0.59575 0
M  V30 7101 H 684.937 -0.431149 1.90687 0
M  V30 7102 H 683.641 -1.55408 3.79837 0
M  V30 7103 H 683.172 -2.86116 2.70003 0
M  V30 7104 H 685.187 -4.12193 2.76244 0
M  V30 7105 N 684.36 -1.4356 -0.65026 0
M  V30 7106 C 685.607 -1.45333 -1.41012 0
M  V30 7107 C 685.935 -0.0787282 -1.94341 0
M  V30 7108 O 685.19 0.916715 -1.72901 0
M  V30 7109 C 685.489 -2.44528 -2.60654 0
M  V30 7110 C 685.155 -3.90331 -2.25727 0
M  V30 7111 C 683.817 -4.3004 -2.15914 0
M  V30 7112 C 686.169 -4.822 -1.97821 0
M  V30 7113 C 683.497 -5.59568 -1.76354 0
M  V30 7114 C 685.849 -6.12095 -1.59759 0
M  V30 7115 C 684.513 -6.50778 -1.48473 0
M  V30 7116 H 683.783 -0.531813 -0.516 0
M  V30 7117 H 686.43 -1.76657 -0.739219 0
M  V30 7118 H 684.735 -2.06619 -3.3289 0
M  V30 7119 H 686.432 -2.43155 -3.18868 0
M  V30 7120 H 683.022 -3.58905 -2.34276 0
M  V30 7121 H 687.206 -4.5229 -2.04322 0
M  V30 7122 H 682.462 -5.88376 -1.66205 0
M  V30 7123 H 686.636 -6.82751 -1.37198 0
M  V30 7124 H 684.263 -7.5105 -1.17591 0
M  V30 7125 N 685.838 0.888903 -1.30139 0
M  V30 7126 C 687.249 1.45578 -1.16893 0
M  V30 7127 C 687.6 1.94825 0.231866 0
M  V30 7128 O 686.725 1.84661 1.12824 0
M  V30 7129 C 687.32 2.646 -2.11595 0
M  V30 7130 C 685.879 3.17389 -2.02339 0
M  V30 7131 C 685.026 1.90081 -2.01902 0
M  V30 7132 H 687.977 0.69921 -1.42467 0
M  V30 7133 H 687.998 3.40687 -1.69449 0
M  V30 7134 H 687.51 2.28726 -3.13538 0
M  V30 7135 H 685.611 3.5793 -1.03523 0
M  V30 7136 H 685.724 3.80955 -2.90534 0
M  V30 7137 H 684.088 2.08246 -1.46648 0
M  V30 7138 H 684.871 1.5647 -3.05568 0
M  V30 7139 N 687.317 1.12792 1.10072 0
M  V30 7140 C 688.565 0.883796 1.81751 0
M  V30 7141 C 688.886 -0.591891 1.858 0
M  V30 7142 O 688.156 -1.43017 1.33876 0
M  V30 7143 H 686.736 0.323978 0.673088 0
M  V30 7144 H 689.398 1.42314 1.33164 0
M  V30 7145 H 688.494 1.26863 2.85153 0
M  V30 7146 N 688.795 -1.27931 0.920396 0
M  V30 7147 C 690.025 -1.98516 0.572256 0
M  V30 7148 C 690.433 -1.68912 -0.852375 0
M  V30 7149 O 689.776 -0.94203 -1.57707 0
M  V30 7150 C 689.838 -3.5243 0.709485 0
M  V30 7151 C 689.502 -4.0564 2.10489 0
M  V30 7152 C 690.499 -4.1897 3.07831 0
M  V30 7153 C 688.184 -4.40168 2.41986 0
M  V30 7154 C 690.178 -4.66093 4.34783 0
M  V30 7155 C 687.865 -4.86983 3.69176 0
M  V30 7156 C 688.863 -4.99903 4.65388 0
M  V30 7157 O 688.551 -5.45694 5.90316 0
M  V30 7158 H 688.283 -0.64047 0.216274 0
M  V30 7159 H 690.837 -1.6393 1.23758 0
M  V30 7160 H 689.067 -3.86698 -0.0129263 0
M  V30 7161 H 690.756 -4.04233 0.367474 0
M  V30 7162 H 691.522 -3.92562 2.84816 0
M  V30 7163 H 687.401 -4.29358 1.67846 0
M  V30 7164 H 690.945 -4.76092 5.09884 0
M  V30 7165 H 686.842 -5.12832 3.92012 0
M  V30 7166 H 687.61 -5.63965 5.932 0
M  V30 7167 N 690.273 -0.685099 -1.4193 0
M  V30 7168 C 691.55 -0.140152 -1.95097 0
M  V30 7169 C 691.93 1.34745 -1.62502 0
M  V30 7170 O 691.278 2.08872 -0.926534 0
M  V30 7171 C 691.488 -0.420268 -3.4646 0
M  V30 7172 C 692.836 -0.342338 -4.23218 0
M  V30 7173 O 693.86 -0.354592 -3.54431 0
M  V30 7174 O 692.719 -0.293404 -5.45712 0
M  V30 7175 H 689.813 -0.00885998 -0.826953 0
M  V30 7176 H 692.359 -0.760539 -1.51703 0
M  V30 7177 H 691.131 -1.45037 -3.63428 0
M  V30 7178 H 690.754 0.231616 -3.96925 0
M  V30 7179 N 691.751 1.51645 -0.429126 0
M  V30 7180 C 692.681 2.30434 0.377148 0
M  V30 7181 C 693.662 1.35493 1.02838 0
M  V30 7182 O 694.847 1.6441 1.03359 0
M  V30 7183 C 691.977 3.14038 1.48315 0
M  V30 7184 C 690.931 4.1719 0.955855 0
M  V30 7185 C 690.257 4.89263 2.15698 0
M  V30 7186 C 691.557 5.223 -0.00402136 0
M  V30 7187 H 693.251 2.98085 -0.280336 0
M  V30 7188 H 690.797 1.43354 -0.136265 0
M  V30 7189 H 692.75 3.67933 2.05435 0
M  V30 7190 H 691.474 2.44193 2.16881 0
M  V30 7191 H 690.133 3.64335 0.406929 0
M  V30 7192 H 689.781 4.15929 2.82864 0
M  V30 7193 H 689.481 5.59009 1.81059 0
M  V30 7194 H 691.005 5.45978 2.73387 0
M  V30 7195 H 692.419 5.71315 0.476607 0
M  V30 7196 H 690.816 5.99525 -0.26258 0
M  V30 7197 H 691.886 4.75638 -0.943236 0
M  V30 7198 N 693.229 0.160201 1.56784 0
M  V30 7199 C 694.161 -0.80564 2.14574 0
M  V30 7200 C 695.174 -1.20154 1.09849 0
M  V30 7201 O 696.363 -1.14333 1.37078 0
M  V30 7202 C 693.463 -2.09434 2.6644 0
M  V30 7203 C 692.636 -1.86375 3.95706 0
M  V30 7204 C 691.695 -2.99358 4.32749 0
M  V30 7205 O 690.721 -2.70475 5.00831 0
M  V30 7206 N 691.923 -4.26867 3.93402 0
M  V30 7207 H 694.688 -0.311644 2.98075 0
M  V30 7208 H 692.249 -0.0229465 1.61884 0
M  V30 7209 H 694.241 -2.84091 2.88226 0
M  V30 7210 H 692.811 -2.50057 1.8759 0
M  V30 7211 H 692.031 -0.956821 3.82412 0
M  V30 7212 H 693.319 -1.68322 4.80151 0
M  V30 7213 H 692.717 -4.53197 3.38569 0
M  V30 7214 H 691.274 -4.98263 4.20211 0
M  V30 7215 N 694.707 -1.5719 -0.113559 0
M  V30 7216 C 695.637 -2.03772 -1.14013 0
M  V30 7217 C 696.618 -0.923176 -1.42869 0
M  V30 7218 O 697.803 -1.19325 -1.53216 0
M  V30 7219 C 694.933 -2.44663 -2.4649 0
M  V30 7220 C 693.887 -3.59612 -2.32085 0
M  V30 7221 C 693.213 -3.8642 -3.69573 0
M  V30 7222 C 694.513 -4.91149 -1.7768 0
M  V30 7223 H 696.207 -2.89785 -0.752665 0
M  V30 7224 H 693.753 -1.39412 -0.360609 0
M  V30 7225 H 695.706 -2.75857 -3.18561 0
M  V30 7226 H 694.43 -1.55628 -2.87137 0
M  V30 7227 H 693.089 -3.28636 -1.62461 0
M  V30 7228 H 692.737 -2.94581 -4.07715 0
M  V30 7229 H 692.437 -4.63797 -3.60786 0
M  V30 7230 H 693.961 -4.2007 -4.4314 0
M  V30 7231 H 695.375 -5.20843 -2.39574 0
M  V30 7232 H 693.772 -5.72562 -1.79701 0
M  V30 7233 H 694.842 -4.79301 -0.734776 0
M  V30 7234 N 696.185 0.383891 -1.52853 0
M  V30 7235 C 697.462 1.14296 -1.58732 0
M  V30 7236 C 697.842 2.07585 -0.383611 0
M  V30 7237 O 697.19 2.1971 0.627661 0
M  V30 7238 C 697.4 1.89816 -2.92867 0
M  V30 7239 C 698.748 2.44998 -3.46787 0
M  V30 7240 O 699.772 1.99966 -2.94774 0
M  V30 7241 O 698.631 3.2727 -4.37672 0
M  V30 7242 H 695.725 0.52326 -0.640413 0
M  V30 7243 H 698.271 0.388631 -1.6519 0
M  V30 7244 H 697.043 1.21626 -3.71918 0
M  V30 7245 H 696.666 2.72199 -2.89816 0
M  V30 7246 N 697.663 1.43903 0.642637 0
M  V30 7247 C 698.573 1.52349 1.78401 0
M  V30 7248 C 699.589 0.409869 1.69104 0
M  V30 7249 O 700.765 0.665548 1.90085 0
M  V30 7250 C 697.83 1.45408 3.14734 0
M  V30 7251 C 696.891 2.67528 3.35749 0
M  V30 7252 C 696.124 2.60909 4.65577 0
M  V30 7253 O 696.347 1.6627 5.45628 0
M  V30 7254 O 695.281 3.5158 4.88544 0
M  V30 7255 H 699.107 2.48752 1.7423 0
M  V30 7256 H 696.692 1.26021 0.802439 0
M  V30 7257 H 698.574 1.44019 3.96026 0
M  V30 7258 H 697.249 0.521437 3.19473 0
M  V30 7259 H 696.156 2.74487 2.5418 0
M  V30 7260 H 697.489 3.598 3.35864 0
M  V30 7261 N 699.141 -0.881989 1.30609 0
M  V30 7262 C 700.088 -1.98803 1.17244 0
M  V30 7263 C 701.058 -1.65987 0.0611905 0
M  V30 7264 O 702.243 -1.89385 0.231911 0
M  V30 7265 C 699.383 -3.33867 0.87333 0
M  V30 7266 C 698.496 -3.79354 2.06675 0
M  V30 7267 C 697.631 -5.03078 1.70547 0
M  V30 7268 C 696.67 -5.40981 2.86366 0
M  V30 7269 N 695.807 -6.55886 2.50514 0
M  V30 7270 H 700.647 -2.09566 2.11863 0
M  V30 7271 H 698.184 -1.02607 1.05405 0
M  V30 7272 H 700.142 -4.11612 0.680519 0
M  V30 7273 H 698.772 -3.2278 -0.0359983 0
M  V30 7274 H 697.824 -2.97492 2.37071 0
M  V30 7275 H 699.136 -4.03382 2.93401 0
M  V30 7276 H 698.29 -5.88457 1.47658 0
M  V30 7277 H 697.029 -4.80927 0.809947 0
M  V30 7278 H 696.034 -4.54127 3.09917 0
M  V30 7279 H 697.259 -5.65104 3.76609 0
M  V30 7280 H 695.205 -6.35306 1.63471 0
M  V30 7281 H 695.122 -6.79799 3.30771 0
M  V30 7282 H 696.39 -7.44489 2.30989 0
M  V30 7283 N 700.619 -1.13374 -1.09472 0
M  V30 7284 C 701.844 -0.918711 -1.85942 0
M  V30 7285 C 702.269 0.527225 -1.8056 0
M  V30 7286 O 701.627 1.37408 -1.18274 0
M  V30 7287 C 701.675 -1.41056 -3.31867 0
M  V30 7288 O 700.779 -0.595496 -4.08078 0
M  V30 7289 H 700.12 -0.329297 -0.576593 0
M  V30 7290 H 702.65 -1.50829 -1.38245 0
M  V30 7291 H 702.66 -1.41398 -3.82715 0
M  V30 7292 H 701.335 -2.46335 -3.35099 0
M  V30 7293 H 699.912 -0.659911 -3.67014 0
M  V30 7294 N 702.098 1.27442 -0.927168 0
M  V30 7295 C 703.338 1.96157 -0.574608 0
M  V30 7296 C 703.702 1.71265 0.867897 0
M  V30 7297 O 704.903 2.33664 1.3287 0
M  V30 7298 C 703.174 3.46115 -0.891009 0
M  V30 7299 S 704.733 4.34006 -0.646885 0
M  V30 7300 H 701.551 0.678619 -0.212125 0
M  V30 7301 H 704.153 1.54688 -1.19549 0
M  V30 7302 H 702.857 3.6173 -1.93854 0
M  V30 7303 H 702.388 3.92545 -0.259301 0
M  V30 7304 H 704.403 4.93719 0.495568 0
M  V30 7305 N 703.576 0.692616 1.41565 0
M  V30 7306 C 704.539 0.0344174 2.29174 0
M  V30 7307 C 705.539 -0.710961 1.44229 0
M  V30 7308 O 706.729 -0.546293 1.65412 0
M  V30 7309 C 703.861 -0.961682 3.27054 0
M  V30 7310 H 705.054 0.805755 2.88873 0
M  V30 7311 H 702.607 0.455947 1.49502 0
M  V30 7312 H 703.342 -1.76089 2.72329 0
M  V30 7313 H 703.127 -0.430375 3.89731 0
M  V30 7314 H 704.617 -1.4201 3.92712 0
M  V30 7315 N 705.054 -1.51416 0.437162 0
M  V30 7316 C 706.017 -2.26312 -0.362729 0
M  V30 7317 C 707.017 -1.29748 -0.949847 0
M  V30 7318 O 708.207 -1.53462 -0.824325 0
M  V30 7319 C 705.339 -3.05475 -1.5132 0
M  V30 7320 H 706.532 -2.98459 0.29365 0
M  V30 7321 H 704.085 -1.55137 0.190327 0
M  V30 7322 H 704.82 -2.37744 -2.20563 0
M  V30 7323 H 704.605 -3.76401 -1.09838 0
M  V30 7324 H 706.095 -3.62209 -2.07833 0
M  V30 7325 N 706.532 -0.168513 -1.56696 0
M  V30 7326 C 707.757 0.486688 -2.01609 0
M  V30 7327 C 708.182 1.56203 -1.04796 0
M  V30 7328 O 707.54 1.8128 -0.0270596 0
M  V30 7329 C 707.588 1.04451 -3.45141 0
M  V30 7330 O 706.692 2.15862 -3.51393 0
M  V30 7331 H 706.033 0.116831 -0.653641 0
M  V30 7332 H 708.563 -0.271579 -2.0279 0
M  V30 7333 H 708.573 1.36782 -3.84389 0
M  V30 7334 H 707.248 0.257155 -4.15104 0
M  V30 7335 H 705.825 1.84597 -3.24004 0
M  V30 7336 N 708.01 1.57248 0.105221 0
M  V30 7337 C 709.258 1.85204 0.808951 0
M  V30 7338 C 709.579 0.75574 1.7976 0
M  V30 7339 O 708.849 -0.218984 1.94672 0
M  V30 7340 H 707.429 0.683346 0.301739 0
M  V30 7341 H 710.091 1.94695 0.0892605 0
M  V30 7342 H 709.187 2.81595 1.34575 0
M  V30 7343 N 709.488 -0.375779 1.53054 0
M  V30 7344 C 710.899 -0.95309 1.6054 0
M  V30 7345 C 711.25 -1.90575 0.466446 0
M  V30 7346 O 710.375 -2.12507 -0.408609 0
M  V30 7347 C 710.97 -1.73537 2.90982 0
M  V30 7348 C 709.529 -2.26218 3.00836 0
M  V30 7349 C 708.676 -1.07157 2.55759 0
M  V30 7350 H 711.627 -0.154895 1.57942 0
M  V30 7351 H 711.648 -2.59574 2.78211 0
M  V30 7352 H 711.16 -1.04176 3.73857 0
M  V30 7353 H 709.261 -2.98852 2.22527 0
M  V30 7354 H 709.374 -2.54799 4.05727 0
M  V30 7355 H 707.738 -1.43553 2.10391 0
M  V30 7356 H 708.521 -0.393099 3.41042 0
M  V30 7357 N 710.966 -1.44241 -0.634997 0
M  V30 7358 C 711.898 -1.46793 -1.76024 0
M  V30 7359 C 712.911 -0.361781 -1.58729 0
M  V30 7360 O 714.1 -0.627297 -1.67114 0
M  V30 7361 C 711.2 -1.28248 -3.13697 0
M  V30 7362 C 710.373 -2.52038 -3.57485 0
M  V30 7363 C 709.432 -2.2845 -4.74022 0
M  V30 7364 O 708.458 -3.01915 -4.82531 0
M  V30 7365 N 709.66 -1.31264 -5.65464 0
M  V30 7366 H 712.425 -2.43797 -1.74307 0
M  V30 7367 H 709.986 -1.39631 -0.819438 0
M  V30 7368 H 711.978 -1.10321 -3.89373 0
M  V30 7369 H 710.548 -0.39623 -3.10079 0
M  V30 7370 H 709.768 -2.85268 -2.72059 0
M  V30 7371 H 711.056 -3.34382 -3.83492 0
M  V30 7372 H 710.454 -0.705817 -5.6128 0
M  V30 7373 H 709.011 -1.19316 -6.40786 0
M  V30 7374 N 712.444 0.87505 -1.31075 0
M  V30 7375 C 713.855 1.4433 -1.18431 0
M  V30 7376 C 714.206 1.9506 0.211189 0
M  V30 7377 O 713.331 1.85847 1.10859 0
M  V30 7378 C 713.926 2.62341 -2.14389 0
M  V30 7379 C 712.485 3.15225 -2.05694 0
M  V30 7380 C 711.632 1.87929 -2.03907 0
M  V30 7381 H 714.583 0.684061 -1.432 0
M  V30 7382 H 714.604 3.3887 -1.73053 0
M  V30 7383 H 714.116 2.25388 -3.15946 0
M  V30 7384 H 712.217 3.56812 -1.07314 0
M  V30 7385 H 712.33 3.77853 -2.94558 0
M  V30 7386 H 710.694 2.06679 -1.48849 0
M  V30 7387 H 711.477 1.53221 -3.07211 0
M  V30 7388 N 713.922 1.13953 1.08869 0
M  V30 7389 C 715.169 0.90481 1.81161 0
M  V30 7390 C 715.497 -0.568824 1.85996 0
M  V30 7391 O 714.752 -1.43723 1.32823 0
M  V30 7392 C 715.051 1.44495 3.26888 0
M  V30 7393 C 714.717 2.93641 3.42178 0
M  V30 7394 C 713.379 3.34361 3.46059 0
M  V30 7395 C 715.731 3.89568 3.46246 0
M  V30 7396 C 713.059 4.69681 3.51592 0
M  V30 7397 C 715.411 5.2474 3.53314 0
M  V30 7398 C 714.075 5.64979 3.55465 0
M  V30 7399 H 713.345 0.331094 0.662916 0
M  V30 7400 H 715.992 1.42242 1.28217 0
M  V30 7401 H 714.297 0.848169 3.82509 0
M  V30 7402 H 715.994 1.23934 3.81368 0
M  V30 7403 H 712.584 2.61156 3.39846 0
M  V30 7404 H 716.768 3.59192 3.42483 0
M  V30 7405 H 712.024 5.00224 3.51547 0
M  V30 7406 H 716.198 5.98882 3.55406 0
M  V30 7407 H 713.825 6.69821 3.59505 0
M  V30 7408 N 715.4 -1.26948 0.933913 0
M  V30 7409 C 716.33 -2.29017 0.45534 0
M  V30 7410 C 717.311 -1.62961 -0.487605 0
M  V30 7411 O 718.496 -1.90223 -0.391022 0
M  V30 7412 C 715.626 -3.46112 -0.287015 0
M  V30 7413 C 714.58 -4.24205 0.568682 0
M  V30 7414 C 713.906 -5.3384 -0.303206 0
M  V30 7415 C 715.206 -4.88954 1.83633 0
M  V30 7416 H 716.9 -2.69298 1.30839 0
M  V30 7417 H 714.446 -1.29459 0.630579 0
M  V30 7418 H 716.399 -4.16622 -0.6328 0
M  V30 7419 H 715.123 -3.04765 -1.17414 0
M  V30 7420 H 713.782 -3.5545 0.897261 0
M  V30 7421 H 713.43 -4.88734 -1.18947 0
M  V30 7422 H 713.13 -5.86998 0.265879 0
M  V30 7423 H 714.654 -6.0719 -0.644423 0
M  V30 7424 H 716.068 -5.51717 1.55823 0
M  V30 7425 H 714.465 -5.52198 2.34941 0
M  V30 7426 H 715.535 -4.12305 2.55211 0
M  V30 7427 N 716.879 -0.700114 -1.41195 0
M  V30 7428 C 717.809 -0.0521132 -2.33442 0
M  V30 7429 C 718.79 0.76228 -1.52063 0
M  V30 7430 O 719.975 0.714336 -1.80585 0
M  V30 7431 C 717.105 0.881693 -3.35922 0
M  V30 7432 C 716.059 0.174062 -4.27646 0
M  V30 7433 C 715.385 1.22254 -5.20536 0
M  V30 7434 C 716.685 -0.962396 -5.13357 0
M  V30 7435 H 718.379 -0.822574 -2.87879 0
M  V30 7436 H 715.925 -0.397011 -1.38419 0
M  V30 7437 H 717.878 1.34429 -3.99383 0
M  V30 7438 H 716.602 1.68387 -2.79845 0
M  V30 7439 H 715.261 -0.268551 -3.65615 0
M  V30 7440 H 714.909 2.01736 -4.60773 0
M  V30 7441 H 714.609 0.754038 -5.82742 0
M  V30 7442 H 716.133 1.68555 -5.86874 0
M  V30 7443 H 717.547 -0.579875 -5.7036 0
M  V30 7444 H 715.944 -1.35828 -5.84526 0
M  V30 7445 H 717.014 -1.80003 -4.50252 0
M  V30 7446 N 718.357 1.51182 -0.445186 0
M  V30 7447 C 719.604 2.02152 0.118645 0
M  V30 7448 C 719.932 1.32888 1.42025 0
M  V30 7449 O 719.187 0.435041 1.90803 0
M  V30 7450 C 719.486 3.55408 0.376797 0
M  V30 7451 C 719.152 4.43008 -0.839945 0
M  V30 7452 C 717.814 4.66669 -1.17361 0
M  V30 7453 C 720.166 4.9435 -1.65127 0
M  V30 7454 C 717.494 5.38919 -2.31913 0
M  V30 7455 C 719.846 5.67857 -2.78786 0
M  V30 7456 C 718.51 5.89779 -3.12597 0
M  V30 7457 H 717.78 0.739727 0.0434152 0
M  V30 7458 H 720.427 1.82055 -0.593984 0
M  V30 7459 H 718.732 3.73879 1.1714 0
M  V30 7460 H 720.429 3.92388 0.826602 0
M  V30 7461 H 717.019 4.24793 -0.569958 0
M  V30 7462 H 721.203 4.75947 -1.4067 0
M  V30 7463 H 716.459 5.54105 -2.58413 0
M  V30 7464 H 720.633 6.06628 -3.42017 0
M  V30 7465 H 718.26 6.45542 -4.01471 0
M  V30 7466 N 719.835 0.176821 1.56605 0
M  V30 7467 C 720.798 -0.737429 2.17013 0
M  V30 7468 C 721.798 -1.15414 1.11965 0
M  V30 7469 O 722.988 -1.0702 1.37449 0
M  V30 7470 C 720.12 -2.00445 2.75744 0
M  V30 7471 H 721.313 -0.211455 2.99154 0
M  V30 7472 H 718.866 -0.0727582 1.56131 0
M  V30 7473 H 719.601 -2.57338 1.97352 0
M  V30 7474 H 719.386 -1.71456 3.52626 0
M  V30 7475 H 720.876 -2.65679 3.22187 0
M  V30 7476 N 721.313 -1.57302 -0.09688 0
M  V30 7477 C 722.261 -2.02942 -1.13654 0
M  V30 7478 C 723.255 -0.930173 -1.41577 0
M  V30 7479 O 724.461 -1.11535 -1.41279 0
M  V30 7480 H 720.836 -0.646726 -0.383731 0
M  V30 7481 H 722.807 -2.89452 -0.725267 0
M  V30 7482 C 721.556 -2.46815 -2.44903 0
M  V30 7483 H 720.879 -3.30979 -2.24261 0
M  V30 7484 H 722.319 -2.82527 -3.16156 0
M  V30 7485 C 720.778 -1.34071 -3.09074 0
M  V30 7486 O 721.308 -0.668856 -3.96092 0
M  V30 7487 N 719.514 -1.09214 -2.69296 0
M  V30 7488 H 719.061 -1.64029 -1.98626 0
M  V30 7489 H 719.019 -0.339785 -3.12559 0
M  V30 7490 N 722.791 0.367657 -1.53252 0
M  V30 7491 C 724.016 1.13566 -1.73544 0
M  V30 7492 C 724.441 1.82329 -0.462344 0
M  V30 7493 O 723.799 1.71655 0.583472 0
M  V30 7494 C 723.847 2.14322 -2.89997 0
M  V30 7495 O 722.951 3.21359 -2.58461 0
M  V30 7496 H 722.292 0.329614 -0.576412 0
M  V30 7497 H 724.822 0.425417 -2.00128 0
M  V30 7498 H 724.832 2.57958 -3.16104 0
M  V30 7499 H 723.507 1.63664 -3.82344 0
M  V30 7500 H 722.084 2.8271 -2.43165 0
M  V30 7501 N 724.269 1.44576 0.627338 0
M  V30 7502 C 725.201 1.47724 1.75243 0
M  V30 7503 C 726.214 0.370193 1.58535 0
M  V30 7504 O 727.403 0.636151 1.66779 0
M  V30 7505 C 724.503 1.2991 3.13012 0
M  V30 7506 C 723.676 2.5393 3.56143 0
M  V30 7507 C 722.735 2.30961 4.72804 0
M  V30 7508 O 721.761 3.04469 4.80923 0
M  V30 7509 N 722.963 1.34261 5.6476 0
M  V30 7510 H 725.728 2.44718 1.73012 0
M  V30 7511 H 723.289 1.40064 0.812022 0
M  V30 7512 H 725.281 1.12385 3.88782 0
M  V30 7513 H 723.851 0.412668 3.09864 0
M  V30 7514 H 723.071 2.86707 2.70542 0
M  V30 7515 H 724.359 3.36411 3.81713 0
M  V30 7516 H 723.757 0.735573 5.60897 0
M  V30 7517 H 722.314 1.22713 6.40144 0
M  V30 7518 N 725.747 -0.868086 1.31537 0
M  V30 7519 C 727.024 -1.60384 1.11965 0
M  V30 7520 C 727.404 -2.08584 -0.324949 0
M  V30 7521 O 726.752 -1.86561 -1.31937 0
M  V30 7522 C 726.962 -2.76038 2.13551 0
M  V30 7523 C 728.31 -3.45954 2.46173 0
M  V30 7524 O 729.334 -2.86247 2.11993 0
M  V30 7525 O 728.193 -4.53666 3.04711 0
M  V30 7526 H 725.287 -0.705705 0.431172 0
M  V30 7527 H 727.833 -0.913385 1.43022 0
M  V30 7528 H 726.605 -2.37849 3.10714 0
M  V30 7529 H 726.228 -3.52769 1.83411 0
M  V30 7530 N 727.225 -1.14528 -1.08264 0
M  V30 7531 C 728.474 -0.908992 -1.80056 0
M  V30 7532 C 728.787 0.565859 -1.87236 0
M  V30 7533 O 729.993 0.919454 -2.55457 0
M  V30 7534 C 728.449 -1.57681 -3.23519 0
M  V30 7535 C 728.057 -3.08803 -3.24569 0
M  V30 7536 C 729.801 -1.4217 -3.99985 0
M  V30 7537 C 727.708 -3.68414 -4.62629 0
M  V30 7538 H 726.638 -0.336432 -0.674781 0
M  V30 7539 H 729.289 -1.37437 -1.21587 0
M  V30 7540 H 727.671 -1.03911 -3.82124 0
M  V30 7541 H 728.845 -3.69252 -2.75663 0
M  V30 7542 H 727.16 -3.23968 -2.61598 0
M  V30 7543 H 729.757 -1.84106 -5.02005 0
M  V30 7544 H 730.1 -0.367989 -4.1467 0
M  V30 7545 H 730.633 -1.92984 -3.47853 0
M  V30 7546 H 727.372 -4.73644 -4.53147 0
M  V30 7547 H 726.892 -3.12746 -5.11811 0
M  V30 7548 H 728.571 -3.68793 -5.31602 0
M  V30 7549 N 728.703 1.26451 -0.940633 0
M  V30 7550 C 730.119 1.4608 -0.642859 0
M  V30 7551 C 730.319 1.84765 0.803998 0
M  V30 7552 O 729.375 1.96902 1.58069 0
M  V30 7553 C 730.688 2.54359 -1.60381 0
M  V30 7554 C 732.236 2.6821 -1.61345 0
M  V30 7555 C 732.711 3.79659 -2.56169 0
M  V30 7556 N 734.202 3.87051 -2.54452 0
M  V30 7557 C 734.937 4.72739 -3.24507 0
M  V30 7558 N 734.433 5.6282 -4.03987 0
M  V30 7559 N 736.226 4.66581 -3.13462 0
M  V30 7560 H 728.377 0.996289 -1.87584 0
M  V30 7561 H 730.64 0.498921 -0.80609 0
M  V30 7562 H 730.346 2.32758 -2.6366 0
M  V30 7563 H 730.22 3.52005 -1.35545 0
M  V30 7564 H 732.607 2.89184 -0.587913 0
M  V30 7565 H 732.688 1.7101 -1.90235 0
M  V30 7566 H 732.332 3.59438 -3.58841 0
M  V30 7567 H 732.262 4.76315 -2.2457 0
M  V30 7568 H 734.753 3.22649 -1.96739 0
M  V30 7569 H 735.066 6.25095 -4.54396 0
M  V30 7570 H 733.411 5.62574 -4.08088 0
M  V30 7571 H 736.602 3.9521 -2.50852 0
M  V30 7572 H 736.775 5.33141 -3.68327 0
M  V30 7573 N 730.181 0.707592 1.40822 0
M  V30 7574 C 731.131 0.0265008 2.27985 0
M  V30 7575 C 732.115 -0.740685 1.42838 0
M  V30 7576 O 733.307 -0.6142 1.66002 0
M  V30 7577 C 730.436 -0.900382 3.31282 0
M  V30 7578 C 729.522 -0.128807 4.23904 0
M  V30 7579 N 729.913 0.883744 4.9802 0
M  V30 7580 C 728.211 -0.362539 4.44524 0
M  V30 7581 C 728.912 1.34666 5.65898 0
M  V30 7582 N 727.888 0.670306 5.39451 0
M  V30 7583 H 731.69 0.802667 2.82727 0
M  V30 7584 H 729.204 0.539475 1.53178 0
M  V30 7585 H 731.201 -1.40357 3.92563 0
M  V30 7586 H 729.861 -1.67601 2.781 0
M  V30 7587 H 730.872 1.26435 5.0223 0
M  V30 7588 H 727.549 -1.11512 4.02332 0
M  V30 7589 H 728.939 2.18756 6.35292 0
M  V30 7590 N 731.66 -1.50943 0.453197 0
M  V30 7591 C 732.593 -2.24742 -0.395787 0
M  V30 7592 C 733.571 -1.27316 -1.01141 0
M  V30 7593 O 734.755 -1.56494 -1.05081 0
M  V30 7594 C 731.882 -3.00999 -1.55298 0
M  V30 7595 C 730.928 -4.13207 -1.0565 0
M  V30 7596 S 731.761 -5.35498 0.01435 0
M  V30 7597 C 732.917 -6.15298 -1.14714 0
M  V30 7598 H 733.15 -2.96403 0.23071 0
M  V30 7599 H 730.683 -1.52557 0.237874 0
M  V30 7600 H 732.641 -3.45529 -2.2163 0
M  V30 7601 H 731.302 -2.28896 -2.15094 0
M  V30 7602 H 730.495 -4.65901 -1.9223 0
M  V30 7603 H 730.097 -3.7102 -0.471182 0
M  V30 7604 H 732.389 -6.45346 -2.06239 0
M  V30 7605 H 733.332 -7.05019 -0.659842 0
M  V30 7606 H 733.74 -5.47046 -1.39288 0
M  V30 7607 N 733.138 -0.185124 -1.56509 0
M  V30 7608 C 734.088 0.752315 -2.15231 0
M  V30 7609 C 735.072 1.18327 -1.0903 0
M  V30 7610 O 736.264 1.14333 -1.35119 0
M  V30 7611 C 733.393 1.97583 -2.80742 0
M  V30 7612 C 732.479 1.56623 -3.94119 0
M  V30 7613 N 732.87 0.867008 -4.98314 0
M  V30 7614 C 731.168 1.85626 -4.05535 0
M  V30 7615 C 731.869 0.663228 -5.77907 0
M  V30 7616 N 730.845 1.20891 -5.29987 0
M  V30 7617 H 734.647 0.209267 -2.93154 0
M  V30 7618 H 732.161 0.0150444 -1.62393 0
M  V30 7619 H 734.158 2.65779 -3.21197 0
M  V30 7620 H 732.818 2.52369 -2.04303 0
M  V30 7621 H 733.829 0.52355 -5.15247 0
M  V30 7622 H 730.506 2.41992 -3.40215 0
M  V30 7623 H 731.896 0.109273 -6.71811 0
M  V30 7624 N 734.616 1.57351 0.0885366 0
M  V30 7625 C 735.863 1.86419 0.790824 0
M  V30 7626 C 736.191 0.774561 1.78412 0
M  V30 7627 O 735.446 -0.23119 1.9433 0
M  V30 7628 C 735.745 3.22098 1.5488 0
M  V30 7629 C 735.411 4.4548 0.697025 0
M  V30 7630 C 734.073 4.78975 0.462237 0
M  V30 7631 C 736.425 5.21094 0.105315 0
M  V30 7632 C 733.753 5.85507 -0.374016 0
M  V30 7633 C 736.105 6.28509 -0.718298 0
M  V30 7634 C 734.769 6.60515 -0.963116 0
M  V30 7635 H 734.039 0.682157 0.289383 0
M  V30 7636 H 736.686 1.91429 0.0520961 0
M  V30 7637 H 734.991 3.12803 2.35927 0
M  V30 7638 H 736.688 3.41819 2.09669 0
M  V30 7639 H 733.278 4.19255 0.890137 0
M  V30 7640 H 737.462 4.95544 0.273856 0
M  V30 7641 H 732.718 6.08713 -0.572606 0
M  V30 7642 H 736.892 6.86268 -1.18362 0
M  V30 7643 H 734.519 7.42893 -1.6129 0
M  V30 7644 N 736.094 -0.359525 1.53444 0
M  V30 7645 C 737.371 -1.11756 1.6053 0
M  V30 7646 C 737.751 -2.06949 0.416587 0
M  V30 7647 O 737.099 -2.20681 -0.592628 0
M  V30 7648 C 737.309 -1.85133 2.95849 0
M  V30 7649 C 738.657 -2.3945 3.50641 0
M  V30 7650 O 739.681 -1.95251 2.97918 0
M  V30 7651 O 738.54 -3.20266 4.42823 0
M  V30 7652 H 735.634 -0.513005 0.648656 0
M  V30 7653 H 738.18 -0.362301 1.65787 0
M  V30 7654 H 736.952 -1.15694 3.73806 0
M  V30 7655 H 736.575 -2.67554 2.9411 0
M  V30 7656 N 737.572 -1.44907 -0.619662 0
M  V30 7657 C 738.82 -1.47999 -1.37625 0
M  V30 7658 C 739.141 -0.118295 -1.94641 0
M  V30 7659 O 738.411 0.85086 -1.76457 0
M  V30 7660 H 736.991 -0.544993 -0.510873 0
M  V30 7661 H 739.653 -1.80772 -0.728522 0
M  V30 7662 H 738.749 -2.21196 -2.20179 0
M  V30 7663 N 739.05 0.861098 -1.31996 0
M  V30 7664 C 740.278 1.6474 -1.25173 0
M  V30 7665 C 740.693 1.87926 0.181425 0
M  V30 7666 O 740.05 1.4437 1.1164 0
M  V30 7667 C 740.101 3.01036 -2.0015 0
M  V30 7668 O 739.822 2.7888 -3.37872 0
M  V30 7669 C 741.323 3.95481 -2.00273 0
M  V30 7670 H 738.543 0.513314 -0.432146 0
M  V30 7671 H 741.087 1.07419 -1.74016 0
M  V30 7672 H 739.242 3.55021 -1.55046 0
M  V30 7673 H 739.656 3.65514 -3.76165 0
M  V30 7674 H 741.13 4.88403 -2.57229 0
M  V30 7675 H 741.607 4.27957 -0.987407 0
M  V30 7676 H 742.213 3.47433 -2.45296 0
M  V30 7677 N 740.528 1.15101 1.07655 0
M  V30 7678 C 741.805 0.834578 1.76902 0
M  V30 7679 C 742.185 -0.670431 2.00171 0
M  V30 7680 O 741.533 -1.61378 1.6177 0
M  V30 7681 C 741.743 1.64191 3.07965 0
M  V30 7682 C 743.091 1.84615 3.82364 0
M  V30 7683 O 744.115 1.60941 3.17768 0
M  V30 7684 O 742.974 2.24244 4.98374 0
M  V30 7685 H 740.068 0.306608 0.768063 0
M  V30 7686 H 742.614 1.25663 1.14048 0
M  V30 7687 H 741.386 2.66386 2.86626 0
M  V30 7688 H 741.009 1.216 3.78549 0
M  V30 7689 N 742.006 -1.2595 0.947325 0
M  V30 7690 C 743.236 -1.97258 0.614235 0
M  V30 7691 C 743.644 -1.70682 -0.816355 0
M  V30 7692 O 742.987 -0.97527 -1.55673 0
M  V30 7693 C 743.049 -3.50845 0.784081 0
M  V30 7694 C 742.713 -4.01084 2.19045 0
M  V30 7695 C 743.71 -4.12347 3.16648 0
M  V30 7696 C 741.395 -4.34936 2.51268 0
M  V30 7697 C 743.389 -4.56766 4.44572 0
M  V30 7698 C 741.076 -4.79043 3.79422 0
M  V30 7699 C 742.074 -4.89919 4.75887 0
M  V30 7700 O 741.762 -5.3305 6.01758 0
M  V30 7701 H 741.494 -0.635738 0.22981 0
M  V30 7702 H 744.048 -1.61268 1.27207 0
M  V30 7703 H 742.278 -3.86638 0.069101 0
M  V30 7704 H 743.967 -4.03363 0.453135 0
M  V30 7705 H 744.733 -3.86432 2.93079 0
M  V30 7706 H 740.612 -4.25702 1.76916 0
M  V30 7707 H 744.156 -4.6517 5.19868 0
M  V30 7708 H 740.053 -5.04402 4.02802 0
M  V30 7709 H 740.821 -5.51255 6.05029 0
M  V30 7710 N 743.484 -0.715051 -1.40445 0
M  V30 7711 C 744.732 -0.253826 -2.005 0
M  V30 7712 C 745.053 1.15681 -1.5698 0
M  V30 7713 O 744.323 1.78414 -0.809027 0
M  V30 7714 H 742.903 -0.0908537 -0.741454 0
M  V30 7715 H 745.565 -0.920561 -1.7179 0
M  V30 7716 H 744.661 -0.286499 -3.10782 0
M  V30 7717 N 744.962 1.50701 -0.461195 0
M  V30 7718 C 746.19 2.06681 0.0951756 0
M  V30 7719 C 746.605 1.32615 1.34382 0
M  V30 7720 O 745.962 0.392531 1.78229 0
M  V30 7721 C 746.013 3.59354 0.393316 0
M  V30 7722 O 745.734 4.30626 -0.805797 0
M  V30 7723 C 747.235 4.31926 0.997744 0
M  V30 7724 H 744.455 0.670995 -0.00267259 0
M  V30 7725 H 746.999 1.93991 -0.647137 0
M  V30 7726 H 745.154 3.7188 1.08555 0
M  V30 7727 H 745.568 5.21667 -0.544409 0
M  V30 7728 H 747.042 5.39756 1.15619 0
M  V30 7729 H 747.519 3.91772 1.98523 0
M  V30 7730 H 748.125 4.23905 0.344188 0
M  V30 7731 N 746.441 0.193421 1.56409 0
M  V30 7732 C 747.371 -0.723334 2.22014 0
M  V30 7733 C 748.352 -1.22254 1.1827 0
M  V30 7734 O 749.537 -1.27168 1.46771 0
M  V30 7735 C 746.667 -1.94366 2.87818 0
M  V30 7736 C 745.621 -1.57943 3.97791 0
M  V30 7737 C 744.947 -2.87623 4.50752 0
M  V30 7738 C 746.247 -0.790639 5.16281 0
M  V30 7739 H 747.941 -0.176426 2.9888 0
M  V30 7740 H 745.487 -0.0834166 1.43758 0
M  V30 7741 H 747.44 -2.5902 3.32396 0
M  V30 7742 H 746.164 -2.51507 2.08355 0
M  V30 7743 H 744.823 -0.956482 3.53903 0
M  V30 7744 H 744.471 -3.4285 3.68053 0
M  V30 7745 H 744.171 -2.63998 5.24956 0
M  V30 7746 H 745.695 -3.53268 4.9803 0
M  V30 7747 H 747.109 -1.34024 5.57414 0
M  V30 7748 H 745.506 -0.65258 5.96541 0
M  V30 7749 H 746.576 0.208633 4.84451 0
M  V30 7750 N 747.919 -1.57396 -0.0801906 0
M  V30 7751 C 748.849 -2.06145 -1.09665 0
M  V30 7752 C 749.83 -0.953273 -1.40878 0
M  V30 7753 O 751.015 -1.22548 -1.50651 0
M  V30 7754 C 748.145 -2.49836 -2.41245 0
M  V30 7755 C 747.099 -3.64454 -2.24405 0
M  V30 7756 C 746.425 -3.94172 -3.61293 0
M  V30 7757 C 747.725 -4.94807 -1.67223 0
M  V30 7758 H 749.419 -2.91316 -0.691028 0
M  V30 7759 H 746.965 -1.40145 -0.330957 0
M  V30 7760 H 748.918 -2.82552 -3.12638 0
M  V30 7761 H 747.642 -1.61683 -2.83771 0
M  V30 7762 H 746.301 -3.32008 -1.55454 0
M  V30 7763 H 745.949 -3.03163 -4.01374 0
M  V30 7764 H 745.649 -4.71345 -3.50867 0
M  V30 7765 H 747.173 -4.29376 -4.3413 0
M  V30 7766 H 748.587 -5.25807 -2.28472 0
M  V30 7767 H 746.984 -5.76245 -1.67515 0
M  V30 7768 H 748.054 -4.80751 -0.632944 0
M  V30 7769 N 749.397 0.351382 -1.53633 0
M  V30 7770 C 750.622 1.11718 -1.74739 0
M  V30 7771 C 751.047 1.81829 -0.481657 0
M  V30 7772 O 750.405 1.72264 0.565233 0
M  V30 7773 C 750.453 2.11234 -2.92254 0
M  V30 7774 O 749.557 3.186 -2.61855 0
M  V30 7775 H 748.898 0.323482 -0.579875 0
M  V30 7776 H 751.428 0.404167 -2.00568 0
M  V30 7777 H 751.438 2.54591 -3.18822 0
M  V30 7778 H 750.113 1.59599 -3.84058 0
M  V30 7779 H 748.69 2.80115 -2.4615 0
M  V30 7780 N 750.875 1.45233 0.611969 0
M  V30 7781 C 751.807 1.49575 1.73666 0
M  V30 7782 C 752.82 0.386987 1.58134 0
M  V30 7783 O 754.009 0.653804 1.66095 0
M  V30 7784 C 751.109 1.33223 3.11617 0
M  V30 7785 C 750.282 2.57694 3.5343 0
M  V30 7786 C 749.341 2.35962 4.70328 0
M  V30 7787 O 748.367 3.09553 4.77667 0
M  V30 7788 N 749.569 1.40243 5.63305 0
M  V30 7789 H 752.334 2.46539 1.70407 0
M  V30 7790 H 749.895 1.40917 0.79712 0
M  V30 7791 H 751.887 1.16502 3.87569 0
M  V30 7792 H 750.457 0.44551 3.09409 0
M  V30 7793 H 749.677 2.8956 2.67486 0
M  V30 7794 H 750.965 3.40441 3.78124 0
M  V30 7795 H 750.363 0.795023 5.60086 0
M  V30 7796 H 748.92 1.29496 6.38807 0
M  V30 7797 N 752.353 -0.854086 1.3245 0
M  V30 7798 C 753.285 -1.96932 1.17262 0
M  V30 7799 C 754.298 -1.62445 0.107469 0
M  V30 7800 O 755.487 -1.74904 0.356481 0
M  V30 7801 C 752.587 -3.29971 0.772817 0
M  V30 7802 C 751.76 -3.92695 1.92638 0
M  V30 7803 C 750.819 -5.04068 1.51003 0
M  V30 7804 O 749.845 -5.24032 2.22213 0
M  V30 7805 N 751.047 -5.79076 0.406371 0
M  V30 7806 H 753.812 -2.10503 2.13327 0
M  V30 7807 H 751.373 -1.02897 1.24995 0
M  V30 7808 H 753.365 -4.01883 0.476684 0
M  V30 7809 H 751.935 -3.1245 -0.0967 0
M  V30 7810 H 751.155 -3.13563 2.38897 0
M  V30 7811 H 752.443 -4.31337 2.69863 0
M  V30 7812 H 751.841 -5.65393 -0.186302 0
M  V30 7813 H 750.398 -6.51579 0.169846 0
M  V30 7814 N 753.831 -1.1567 -1.07043 0
M  V30 7815 C 754.764 -0.799867 -2.13723 0
M  V30 7816 C 755.742 0.225098 -1.61034 0
M  V30 7817 O 756.926 0.11093 -1.88173 0
M  V30 7818 C 754.053 -0.18997 -3.38167 0
M  V30 7819 C 753.099 -1.18733 -4.0964 0
M  V30 7820 S 753.932 -2.73074 -4.60642 0
M  V30 7821 C 755.088 -2.13512 -5.88356 0
M  V30 7822 H 755.321 -1.70342 -2.43661 0
M  V30 7823 H 752.854 -0.979377 -1.19363 0
M  V30 7824 H 754.812 0.155471 -4.10205 0
M  V30 7825 H 753.473 0.691229 -3.064 0
M  V30 7826 H 752.666 -0.708873 -4.9899 0
M  V30 7827 H 752.268 -1.47747 -3.43579 0
M  V30 7828 H 754.56 -1.49911 -6.60706 0
M  V30 7829 H 755.503 -3.01042 -6.40921 0
M  V30 7830 H 755.911 -1.57693 -5.42027 0
M  V30 7831 N 755.309 1.25446 -0.953992 0
M  V30 7832 C 756.557 1.92762 -0.607227 0
M  V30 7833 C 756.878 1.7509 0.858399 0
M  V30 7834 O 756.148 1.11416 1.61132 0
M  V30 7835 H 754.728 0.713377 -0.221591 0
M  V30 7836 H 757.39 1.52625 -1.21209 0
M  V30 7837 H 756.486 3.00695 -0.835998 0
M  V30 7838 N 756.787 0.722489 1.40064 0
M  V30 7839 C 757.72 0.0233443 2.28188 0
M  V30 7840 C 758.698 -0.7606 1.43714 0
M  V30 7841 O 759.882 -0.745791 1.73119 0
M  V30 7842 C 757.009 -0.974264 3.24385 0
M  V30 7843 C 756.055 -0.280307 4.25578 0
M  V30 7844 S 756.888 0.996769 5.26141 0
M  V30 7845 C 758.044 0.00143923 6.259 0
M  V30 7846 H 758.277 0.770705 2.87137 0
M  V30 7847 H 755.81 0.513783 1.45601 0
M  V30 7848 H 757.768 -1.5446 3.80332 0
M  V30 7849 H 756.429 -1.69438 2.6448 0
M  V30 7850 H 755.622 -1.03471 4.93264 0
M  V30 7851 H 755.224 0.217657 3.73366 0
M  V30 7852 H 757.516 -0.843126 6.72233 0
M  V30 7853 H 758.459 0.645104 7.05155 0
M  V30 7854 H 758.867 -0.365371 5.63316 0
M  V30 7855 N 758.265 -1.50454 0.469181 0
M  V30 7856 C 759.511 -2.02615 -0.0865971 0
M  V30 7857 C 759.844 -1.35062 -1.39542 0
M  V30 7858 O 759.119 -0.475701 -1.88593 0
M  V30 7859 C 759.402 -3.59068 -0.272385 0
M  V30 7860 C 759.255 -4.37196 1.05733 0
M  V30 7861 C 760.574 -4.2793 -1.0278 0
M  V30 7862 H 757.693 -0.736389 -0.0299977 0
M  V30 7863 H 760.335 -1.79792 0.614399 0
M  V30 7864 H 758.485 -3.78646 -0.869471 0
M  V30 7865 H 760.157 -4.29195 1.69084 0
M  V30 7866 H 758.4 -4.01013 1.65442 0
M  V30 7867 H 759.071 -5.44924 0.880997 0
M  V30 7868 H 761.547 -4.12816 -0.521718 0
M  V30 7869 H 760.423 -5.37214 -1.12659 0
M  V30 7870 H 760.684 -3.90968 -2.0639 0
M  V30 7871 N 759.743 -0.201713 -1.56304 0
M  V30 7872 C 760.973 0.440084 -2.01858 0
M  V30 7873 C 761.381 1.55279 -1.08098 0
M  V30 7874 O 760.724 1.83529 -0.0792216 0
M  V30 7875 C 760.786 1.05091 -3.43797 0
M  V30 7876 C 760.45 0.0761208 -4.56937 0
M  V30 7877 C 761.447 -0.716951 -5.14933 0
M  V30 7878 C 759.132 -0.0368815 -5.02286 0
M  V30 7879 C 761.126 -1.60993 -6.16733 0
M  V30 7880 C 758.813 -0.933409 -6.03929 0
M  V30 7881 C 759.811 -1.71849 -6.61027 0
M  V30 7882 O 759.499 -2.59998 -7.60695 0
M  V30 7883 H 759.231 0.114139 -0.666294 0
M  V30 7884 H 761.785 -0.309672 -2.03052 0
M  V30 7885 H 760.015 1.84938 -3.3961 0
M  V30 7886 H 761.704 1.59804 -3.73118 0
M  V30 7887 H 762.47 -0.63999 -4.80759 0
M  V30 7888 H 758.349 0.564034 -4.57537 0
M  V30 7889 H 761.893 -2.22315 -6.61227 0
M  V30 7890 H 757.79 -1.01146 -6.37526 0
M  V30 7891 H 758.558 -2.53851 -7.7814 0
M  V30 7892 N 761.222 1.57436 0.0718424 0
M  V30 7893 C 762.185 2.02703 1.06977 0
M  V30 7894 C 763.185 0.924062 1.31597 0
M  V30 7895 O 764.375 1.18894 1.27318 0
M  V30 7896 C 761.507 2.40763 2.41342 0
M  V30 7897 H 762.7 2.92098 0.679619 0
M  V30 7898 H 760.253 1.5304 0.317565 0
M  V30 7899 H 760.988 1.54394 2.8519 0
M  V30 7900 H 760.773 3.21249 2.24814 0
M  V30 7901 H 762.263 2.76361 3.13073 0
M  V30 7902 N 762.7 -0.34323 1.53817 0
M  V30 7903 C 763.63 -1.42709 1.84814 0
M  V30 7904 C 764.611 -1.5488 0.703297 0
M  V30 7905 O 765.796 -1.69082 0.955237 0
M  V30 7906 C 762.926 -2.79756 2.05801 0
M  V30 7907 C 761.88 -2.82392 3.21619 0
M  V30 7908 C 761.206 -4.22326 3.2794 0
M  V30 7909 C 762.506 -2.479 4.59721 0
M  V30 7910 H 764.2 -1.17018 2.75585 0
M  V30 7911 H 761.746 -0.561485 1.32602 0
M  V30 7912 H 763.699 -3.55627 2.26069 0
M  V30 7913 H 762.423 -3.06883 1.11761 0
M  V30 7914 H 761.082 -2.08974 3.01207 0
M  V30 7915 H 760.73 -4.46564 2.31494 0
M  V30 7916 H 760.43 -4.25001 4.05768 0
M  V30 7917 H 761.954 -5.00039 3.50419 0
M  V30 7918 H 763.368 -3.13484 4.80001 0
M  V30 7919 H 761.765 -2.61857 5.39954 0
M  V30 7920 H 762.835 -1.43087 4.63308 0
M  V30 7921 N 764.178 -1.45556 -0.604258 0
M  V30 7922 C 765.455 -1.40221 -1.36373 0
M  V30 7923 C 765.835 -0.0745195 -2.10968 0
M  V30 7924 O 765.183 0.943594 -2.08107 0
M  V30 7925 C 765.393 -2.61807 -2.30777 0
M  V30 7926 C 766.741 -3.07037 -2.93281 0
M  V30 7927 O 767.765 -2.62203 -2.41097 0
M  V30 7928 O 766.624 -3.8485 -3.88011 0
M  V30 7929 H 763.718 -0.556602 -0.611656 0
M  V30 7930 H 766.264 -1.57689 -0.627069 0
M  V30 7931 H 765.036 -3.50017 -1.74939 0
M  V30 7932 H 764.659 -2.46688 -3.11818 0
M  V30 7933 N 765.656 0.84705 -1.32902 0
M  V30 7934 C 766.606 1.94451 -1.19049 0
M  V30 7935 C 767.59 1.60617 -0.095461 0
M  V30 7936 O 768.782 1.74033 -0.322739 0
M  V30 7937 C 765.911 3.30645 -0.923509 0
M  V30 7938 C 764.997 3.70675 -2.0606 0
M  V30 7939 N 765.388 3.82468 -3.30986 0
M  V30 7940 C 763.686 4.00357 -1.96547 0
M  V30 7941 C 764.387 4.17056 -4.05511 0
M  V30 7942 N 763.363 4.28985 -3.33876 0
M  V30 7943 H 767.165 2.01713 -2.1375 0
M  V30 7944 H 764.679 1.03928 -1.24791 0
M  V30 7945 H 766.676 4.0905 -0.805212 0
M  V30 7946 H 765.336 3.24697 0.0150523 0
M  V30 7947 H 766.347 3.66589 -3.65832 0
M  V30 7948 H 763.024 4.02666 -1.10299 0
M  V30 7949 H 764.414 4.33585 -5.13277 0
M  V30 7950 N 767.134 1.16236 1.06428 0
M  V30 7951 C 768.411 0.853294 1.76006 0
M  V30 7952 C 768.791 -0.649162 2.00871 0
M  V30 7953 O 768.139 -1.59653 1.63472 0
M  V30 7954 C 768.349 1.67448 3.06206 0
M  V30 7955 C 769.697 1.8866 3.80385 0
M  V30 7956 O 770.721 1.64303 3.16043 0
M  V30 7957 O 769.58 2.29518 4.95968 0
M  V30 7958 H 766.674 0.314737 0.764767 0
M  V30 7959 H 769.22 1.26865 1.12709 0
M  V30 7960 H 767.992 2.69411 2.83784 0
M  V30 7961 H 767.615 1.25608 3.77238 0
M  V30 7962 N 768.612 -1.24939 0.960631 0
M  V30 7963 C 770.023 -1.74701 0.658529 0
M  V30 7964 C 770.374 -1.77967 -0.825959 0
M  V30 7965 O 769.499 -1.40444 -1.64634 0
M  V30 7966 C 770.094 -3.17263 1.18867 0
M  V30 7967 C 768.653 -3.64561 0.936614 0
M  V30 7968 C 767.8 -2.43423 1.32817 0
M  V30 7969 H 770.751 -1.10741 1.13676 0
M  V30 7970 H 770.772 -3.76481 0.551589 0
M  V30 7971 H 770.284 -3.14854 2.26912 0
M  V30 7972 H 768.385 -3.72378 -0.128608 0
M  V30 7973 H 768.498 -4.52392 1.57729 0
M  V30 7974 H 766.862 -2.43513 0.746548 0
M  V30 7975 H 767.645 -2.437 2.41796 0
M  V30 7976 N 770.09 -0.729906 -1.39679 0
M  V30 7977 C 771.336 -0.27603 -2.00913 0
M  V30 7978 C 771.669 1.13227 -1.57776 0
M  V30 7979 O 770.944 1.7709 -0.804319 0
M  V30 7980 C 771.227 -0.372157 -3.58172 0
M  V30 7981 C 771.08 -1.81986 -4.11341 0
M  V30 7982 C 772.399 0.248378 -4.39399 0
M  V30 7983 H 769.518 -0.101773 -0.729939 0
M  V30 7984 H 772.16 -0.925104 -1.65957 0
M  V30 7985 H 770.31 0.180459 -3.88081 0
M  V30 7986 H 771.982 -2.42896 -3.92172 0
M  V30 7987 H 770.225 -2.34287 -3.65092 0
M  V30 7988 H 770.896 -1.83842 -5.20486 0
M  V30 7989 H 773.372 -0.222645 -4.15504 0
M  V30 7990 H 772.248 0.150746 -5.48693 0
M  V30 7991 H 772.509 1.33378 -4.21501 0
M  V30 7992 N 771.568 1.50203 -0.477153 0
M  V30 7993 C 772.478 2.32421 0.319027 0
M  V30 7994 C 773.494 1.43075 0.990233 0
M  V30 7995 O 774.67 1.76123 0.976873 0
M  V30 7996 C 771.735 3.17909 1.38328 0
M  V30 7997 C 770.796 4.23082 0.728036 0
M  V30 7998 C 770.029 5.04484 1.74158 0
M  V30 7999 O 770.252 4.8705 2.96881 0
M  V30 8000 O 769.186 5.8747 1.31006 0
M  V30 8001 H 773.012 3.01638 -0.353281 0
M  V30 8002 H 770.597 1.47478 -0.238891 0
M  V30 8003 H 772.479 3.70937 1.9996 0
M  V30 8004 H 771.154 2.51413 2.03895 0
M  V30 8005 H 770.061 3.7403 0.07261 0
M  V30 8006 H 771.394 4.92065 0.115216 0
M  V30 8007 N 773.046 0.209999 1.56195 0
M  V30 8008 C 773.994 -0.721416 2.2113 0
M  V30 8009 C 774.988 -1.20852 1.18706 0
M  V30 8010 O 776.194 -1.16968 1.36815 0
M  V30 8011 H 772.569 -0.251033 0.708863 0
M  V30 8012 H 774.54 -0.150193 2.98022 0
M  V30 8013 C 773.289 -1.92392 2.89621 0
M  V30 8014 H 772.612 -1.5582 3.68185 0
M  V30 8015 H 774.052 -2.55367 3.38473 0
M  V30 8016 C 772.511 -2.77208 1.91461 0
M  V30 8017 O 773.041 -3.75603 1.42426 0
M  V30 8018 N 771.247 -2.43006 1.59363 0
M  V30 8019 H 770.794 -1.63047 1.99433 0
M  V30 8020 H 770.752 -3.00036 0.939449 0
M  V30 8021 N 774.524 -1.57472 -0.0634922 0
M  V30 8022 C 775.471 -2.04258 -1.07457 0
M  V30 8023 C 776.441 -0.924804 -1.37973 0
M  V30 8024 O 777.626 -1.19305 -1.48899 0
M  V30 8025 C 774.766 -2.49832 -2.38071 0
M  V30 8026 C 773.879 -3.75263 -2.14014 0
M  V30 8027 C 773.014 -4.09585 -3.38251 0
M  V30 8028 C 772.053 -5.28032 -3.09594 0
M  V30 8029 N 771.19 -5.57953 -4.26185 0
M  V30 8030 H 776.03 -2.90402 -0.668626 0
M  V30 8031 H 773.567 -1.43609 -0.318572 0
M  V30 8032 H 775.525 -2.7431 -3.14341 0
M  V30 8033 H 774.155 -1.66654 -2.76453 0
M  V30 8034 H 773.207 -3.58075 -1.28399 0
M  V30 8035 H 774.519 -4.61667 -1.88852 0
M  V30 8036 H 773.673 -4.35008 -4.2291 0
M  V30 8037 H 772.412 -3.21765 -3.66495 0
M  V30 8038 H 771.417 -5.02397 -2.23332 0
M  V30 8039 H 772.642 -6.17477 -2.82663 0
M  V30 8040 H 770.588 -4.73092 -4.54445 0
M  V30 8041 H 770.505 -6.38793 -4.04326 0
M  V30 8042 H 771.773 -5.87931 -5.11817 0
M  V30 8043 N 776.003 0.335068 -1.53997 0
M  V30 8044 C 777.252 1.07182 -1.70865 0
M  V30 8045 C 777.565 1.89541 -0.483078 0
M  V30 8046 O 778.771 2.66219 -0.532879 0
M  V30 8047 C 777.227 1.95497 -3.02174 0
M  V30 8048 C 776.835 1.18304 -4.32097 0
M  V30 8049 C 778.579 2.68978 -3.28407 0
M  V30 8050 C 776.486 2.05699 -5.54474 0
M  V30 8051 H 775.416 0.403857 -0.636722 0
M  V30 8052 H 778.067 0.33076 -1.80494 0
M  V30 8053 H 776.449 2.73456 -2.86423 0
M  V30 8054 H 777.623 0.451969 -4.58578 0
M  V30 8055 H 775.938 0.565556 -4.12541 0
M  V30 8056 H 778.535 3.34651 -4.17029 0
M  V30 8057 H 778.878 3.36 -2.45784 0
M  V30 8058 H 779.411 1.98087 -3.44973 0
M  V30 8059 H 776.15 1.43204 -6.39666 0
M  V30 8060 H 775.67 2.76572 -5.32229 0
M  V30 8061 H 777.349 2.64554 -5.90441 0
M  V30 8062 N 777.481 1.45874 0.596531 0
M  V30 8063 C 778.711 1.5379 1.37958 0
M  V30 8064 C 779.119 0.173086 1.88407 0
M  V30 8065 O 778.462 -0.837498 1.63498 0
M  V30 8066 C 778.524 2.47044 2.61169 0
M  V30 8067 C 778.188 3.93565 2.32283 0
M  V30 8068 C 779.185 4.83162 1.91965 0
M  V30 8069 C 776.87 4.38579 2.44854 0
M  V30 8070 C 778.864 6.15782 1.64593 0
M  V30 8071 C 776.551 5.71238 2.17095 0
M  V30 8072 C 777.549 6.59659 1.77028 0
M  V30 8073 O 777.237 7.89857 1.49601 0
M  V30 8074 H 776.969 0.523 0.428307 0
M  V30 8075 H 779.523 1.91855 0.733529 0
M  V30 8076 H 777.753 2.0397 3.28532 0
M  V30 8077 H 779.442 2.4552 3.23226 0
M  V30 8078 H 780.208 4.49646 1.8178 0
M  V30 8079 H 776.087 3.6999 2.75006 0
M  V30 8080 H 779.631 6.84757 1.33245 0
M  V30 8081 H 775.528 6.04306 2.26901 0
M  V30 8082 H 776.296 8.01991 1.63561 0
M  V30 8083 N 778.959 -0.83999 1.33349 0
M  V30 8084 C 780.206 -1.59517 1.24742 0
M  V30 8085 C 780.534 -1.93598 -0.187077 0
M  V30 8086 O 779.789 -1.58782 -1.14398 0
M  V30 8087 C 780.088 -2.91571 2.06691 0
M  V30 8088 C 779.754 -2.76856 3.55895 0
M  V30 8089 C 778.416 -2.72551 3.96572 0
M  V30 8090 C 780.768 -2.61741 4.50712 0
M  V30 8091 C 778.096 -2.51028 5.30285 0
M  V30 8092 C 780.448 -2.41752 5.84584 0
M  V30 8093 C 779.112 -2.35848 6.24445 0
M  V30 8094 H 778.382 -0.583714 0.456463 0
M  V30 8095 H 781.029 -0.973261 1.64924 0
M  V30 8096 H 779.334 -3.57961 1.59284 0
M  V30 8097 H 781.031 -3.49053 1.9739 0
M  V30 8098 H 777.621 -2.81039 3.23597 0
M  V30 8099 H 781.805 -2.64102 4.20195 0
M  V30 8100 H 777.061 -2.44903 5.60208 0
M  V30 8101 H 781.235 -2.2904 6.57658 0
M  V30 8102 H 778.862 -2.18931 7.27993 0
M  V30 8103 N 780.437 -1.16799 -1.0581 0
M  V30 8104 C 781.4 -0.881396 -2.11575 0
M  V30 8105 C 782.4 0.12574 -1.60308 0
M  V30 8106 O 783.59 -0.105716 -1.73879 0
M  V30 8107 C 780.722 -0.319037 -3.39404 0
M  V30 8108 H 781.915 -1.81907 -2.38432 0
M  V30 8109 H 779.468 -0.977597 -1.21954 0
M  V30 8110 H 780.203 0.626082 -3.18199 0
M  V30 8111 H 779.988 -1.04481 -3.77923 0
M  V30 8112 H 781.478 -0.13663 -4.17376 0
M  V30 8113 N 781.915 1.24427 -0.967243 0
M  V30 8114 C 782.865 2.23143 -0.468106 0
M  V30 8115 C 783.849 1.5449 0.449633 0
M  V30 8116 O 785.041 1.74761 0.28063 0
M  V30 8117 C 782.17 3.42454 0.240867 0
M  V30 8118 C 781.256 4.18355 -0.695674 0
M  V30 8119 N 781.647 4.71428 -1.83273 0
M  V30 8120 C 779.945 4.43116 -0.506365 0
M  V30 8121 C 780.646 5.29041 -2.41849 0
M  V30 8122 N 779.622 5.16213 -1.70369 0
M  V30 8123 H 783.424 2.61795 -1.3357 0
M  V30 8124 H 780.938 1.39809 -0.826277 0
M  V30 8125 H 782.935 4.12329 0.615668 0
M  V30 8126 H 781.595 3.05323 1.10491 0
M  V30 8127 H 782.606 4.68177 -2.21428 0
M  V30 8128 H 779.283 4.16319 0.313747 0
M  V30 8129 H 780.673 5.80811 -3.37799 0
M  V30 8130 N 783.393 0.737304 1.3929 0
M  V30 8131 C 784.621 0.296573 2.04763 0
M  V30 8132 C 785.036 -1.06941 1.55592 0
M  V30 8133 O 784.393 -1.67619 0.721822 0
M  V30 8134 C 784.444 0.291906 3.6032 0
M  V30 8135 O 784.165 1.60397 4.07682 0
M  V30 8136 C 785.666 -0.164708 4.42994 0
M  V30 8137 H 782.886 0.129251 0.658434 0
M  V30 8138 H 785.43 1.0016 1.78293 0
M  V30 8139 H 783.585 -0.364251 3.85684 0
M  V30 8140 H 783.999 1.51909 5.0202 0
M  V30 8141 H 785.473 -0.116814 5.51876 0
M  V30 8142 H 785.95 -1.21022 4.22197 0
M  V30 8143 H 786.556 0.461968 4.22784 0
M  V30 8144 N 784.871 -1.49948 0.485112 0
M  V30 8145 C 785.834 -2.27351 -0.290546 0
M  V30 8146 C 786.834 -1.32704 -0.908087 0
M  V30 8147 O 788.024 -1.56007 -0.775085 0
M  V30 8148 C 785.156 -3.10135 -1.41524 0
M  V30 8149 H 786.349 -2.97374 0.388454 0
M  V30 8150 H 783.902 -1.54453 0.239586 0
M  V30 8151 H 784.637 -2.44641 -2.12888 0
M  V30 8152 H 784.422 -3.79705 -0.978074 0
M  V30 8153 H 785.912 -3.68638 -1.96204 0
M  V30 8154 N 786.349 -0.21828 -1.56081 0
M  V30 8155 C 787.279 0.687922 -2.23136 0
M  V30 8156 C 788.26 1.20357 -1.202 0
M  V30 8157 O 789.445 1.24817 -1.48776 0
M  V30 8158 C 786.575 1.89762 -2.90874 0
M  V30 8159 C 785.529 1.51595 -4.00254 0
M  V30 8160 C 784.855 2.80415 -4.55271 0
M  V30 8161 C 786.155 0.708404 -5.17474 0
M  V30 8162 H 787.849 0.128854 -2.99123 0
M  V30 8163 H 785.395 0.0605354 -1.43873 0
M  V30 8164 H 787.348 2.53699 -3.36474 0
M  V30 8165 H 786.072 2.4816 -2.1233 0
M  V30 8166 H 784.731 0.900058 -3.55379 0
M  V30 8167 H 784.379 3.36951 -3.73461 0
M  V30 8168 H 784.079 2.55613 -5.2909 0
M  V30 8169 H 785.603 3.453 -5.03587 0
M  V30 8170 H 787.017 1.2514 -5.59476 0
M  V30 8171 H 785.414 0.557593 -5.97504 0
M  V30 8172 H 786.484 -0.285679 -4.84058 0
M  V30 8173 N 787.827 1.57504 0.0551401 0
M  V30 8174 C 788.774 2.04825 1.06373 0
M  V30 8175 C 789.744 0.932108 1.37481 0
M  V30 8176 O 790.929 1.20093 1.48265 0
M  V30 8177 C 788.069 2.51091 2.36743 0
M  V30 8178 C 787.182 3.76392 2.12021 0
M  V30 8179 C 786.317 4.11373 3.36074 0
M  V30 8180 C 785.356 5.29666 3.0679 0
M  V30 8181 N 784.493 5.60205 4.2322 0
M  V30 8182 H 789.333 2.90753 0.653216 0
M  V30 8183 H 786.87 1.43776 0.310951 0
M  V30 8184 H 788.828 2.75973 3.12881 0
M  V30 8185 H 787.458 1.68118 2.75565 0
M  V30 8186 H 786.51 3.58751 1.26498 0
M  V30 8187 H 787.822 4.62662 1.86401 0
M  V30 8188 H 786.976 4.37245 4.20597 0
M  V30 8189 H 785.715 3.23704 3.64784 0
M  V30 8190 H 784.72 5.03574 2.20664 0
M  V30 8191 H 785.945 6.18968 2.79385 0
M  V30 8192 H 783.891 4.75495 4.5193 0
M  V30 8193 H 783.808 6.40928 4.00933 0
M  V30 8194 H 785.076 5.90637 5.08692 0
M  V30 8195 N 789.305 -0.326896 1.54172 0
M  V30 8196 C 790.551 -1.06304 1.7341 0
M  V30 8197 C 790.906 -1.85791 0.499935 0
M  V30 8198 O 790.199 -1.84753 -0.507625 0
M  V30 8199 C 790.393 -2.0208 2.94785 0
M  V30 8200 C 790.222 -1.32009 4.29888 0
M  V30 8201 C 788.992 -1.05798 4.941 0
M  V30 8202 C 791.19 -0.737721 5.08982 0
M  V30 8203 N 789.172 -0.324836 6.1304 0
M  V30 8204 C 790.543 -0.136006 6.19851 0
M  V30 8205 C 792.598 -0.640206 4.93767 0
M  V30 8206 C 791.301 0.553757 7.17165 0
M  V30 8207 C 793.327 0.0358492 5.91389 0
M  V30 8208 C 792.689 0.626522 7.01608 0
M  V30 8209 H 788.788 -0.372808 0.687414 0
M  V30 8210 H 791.372 -0.34462 1.91626 0
M  V30 8211 H 789.543 -2.71197 2.78041 0
M  V30 8212 H 791.275 -2.68655 3.02666 0
M  V30 8213 H 788.03 -1.34945 4.53968 0
M  V30 8214 H 788.454 0.0274982 6.76994 0
M  V30 8215 H 793.096 -1.0826 4.08705 0
M  V30 8216 H 790.814 1.00799 8.01789 0
M  V30 8217 H 794.4 0.110895 5.81694 0
M  V30 8218 H 793.28 1.14135 7.7585 0
M  V30 8219 N 790.784 -1.46188 -0.588786 0
M  V30 8220 C 792.033 -1.50452 -1.34339 0
M  V30 8221 C 792.346 -0.158096 -1.9496 0
M  V30 8222 O 793.552 -0.0784918 -2.71387 0
M  V30 8223 C 792.008 -2.65074 -2.43441 0
M  V30 8224 C 791.616 -4.06111 -1.8915 0
M  V30 8225 C 793.36 -2.78603 -3.20282 0
M  V30 8226 C 791.267 -5.12084 -2.95845 0
M  V30 8227 H 790.197 -0.559905 -0.504997 0
M  V30 8228 H 792.848 -1.72382 -0.629014 0
M  V30 8229 H 791.23 -2.36462 -3.1765 0
M  V30 8230 H 792.404 -4.44487 -1.21524 0
M  V30 8231 H 790.719 -3.97197 -1.24995 0
M  V30 8232 H 793.316 -3.54944 -3.99898 0
M  V30 8233 H 793.659 -1.85902 -3.72486 0
M  V30 8234 H 794.192 -3.06832 -2.53178 0
M  V30 8235 H 790.931 -6.06556 -2.48535 0
M  V30 8236 H 790.451 -4.78259 -3.61979 0
M  V30 8237 H 792.13 -5.37661 -3.59902 0
M  V30 8238 N 792.262 0.832906 -1.33792 0
M  V30 8239 C 793.172 1.97514 -1.26592 0
M  V30 8240 C 794.188 1.73114 -0.175391 0
M  V30 8241 O 795.364 1.97387 -0.400062 0
M  V30 8242 C 792.429 3.31625 -1.01121 0
M  V30 8243 C 791.49 3.69101 -2.19233 0
M  V30 8244 C 790.723 4.96813 -1.94968 0
M  V30 8245 O 790.946 5.63208 -0.902955 0
M  V30 8246 O 789.88 5.31932 -2.8166 0
M  V30 8247 H 793.706 2.0653 -2.22664 0
M  V30 8248 H 791.291 0.966826 -1.13898 0
M  V30 8249 H 793.173 4.11968 -0.886571 0
M  V30 8250 H 791.848 3.23599 -0.080822 0
M  V30 8251 H 790.755 2.89243 -2.37253 0
M  V30 8252 H 792.088 3.818 -3.10628 0
M  V30 8253 N 793.74 1.17359 1.05189 0
M  V30 8254 C 795.156 0.920861 1.30355 0
M  V30 8255 C 795.356 -0.419993 1.97074 0
M  V30 8256 O 794.412 -1.15696 2.24434 0
M  V30 8257 C 795.725 2.07818 2.1733 0
M  V30 8258 C 797.273 2.1152 2.30712 0
M  V30 8259 C 797.748 3.26637 3.21048 0
M  V30 8260 N 799.239 3.26426 3.28634 0
M  V30 8261 C 799.974 4.12141 3.98657 0
M  V30 8262 N 799.47 5.07966 4.71107 0
M  V30 8263 N 801.263 4.00091 3.94821 0
M  V30 8264 H 793.414 2.03666 0.602821 0
M  V30 8265 H 795.677 0.889294 0.328421 0
M  V30 8266 H 795.383 3.04727 1.75597 0
M  V30 8267 H 795.257 2.02922 3.17966 0
M  V30 8268 H 797.644 1.15196 2.71687 0
M  V30 8269 H 797.725 2.20477 1.29706 0
M  V30 8270 H 797.369 4.23227 2.80788 0
M  V30 8271 H 797.299 3.14917 4.2206 0
M  V30 8272 H 799.79 2.57045 2.77013 0
M  V30 8273 H 800.103 5.69766 5.22099 0
M  V30 8274 H 798.448 5.11936 4.7005 0
M  V30 8275 H 801.639 3.24523 3.37346 0
M  V30 8276 H 801.812 4.6711 4.49123 0
M  V30 8277 N 795.218 -1.23913 0.973828 0
M  V30 8278 C 796.181 -2.23367 0.51378 0
M  V30 8279 C 797.181 -1.55923 -0.39302 0
M  V30 8280 O 798.371 -1.73187 -0.187626 0
M  V30 8281 C 795.503 -3.39944 -0.255152 0
M  V30 8282 H 796.696 -2.65581 1.39307 0
M  V30 8283 H 794.249 -1.36632 0.759039 0
M  V30 8284 H 794.984 -3.03177 -1.15127 0
M  V30 8285 H 794.769 -3.90098 0.395673 0
M  V30 8286 H 796.259 -4.13749 -0.565842 0
M  V30 8287 N 796.696 -0.74468 -1.38897 0
M  V30 8288 C 797.644 -0.100312 -2.32384 0
M  V30 8289 C 798.638 0.715191 -1.53562 0
M  V30 8290 O 799.844 0.615288 -1.69157 0
M  V30 8291 H 796.219 -0.0136403 -0.751876 0
M  V30 8292 H 798.19 -0.905007 -2.84345 0
M  V30 8293 C 796.939 0.785432 -3.38713 0
M  V30 8294 H 796.262 0.167308 -3.9945 0
M  V30 8295 H 797.702 1.20374 -4.06554 0
M  V30 8296 C 796.161 1.92408 -2.76552 0
M  V30 8297 O 796.691 3.01752 -2.65157 0
M  V30 8298 N 794.897 1.71642 -2.34494 0
M  V30 8299 H 794.444 0.827079 -2.43961 0
M  V30 8300 H 794.402 2.48 -1.93244 0
M  V30 8301 N 798.174 1.49689 -0.493057 0
M  V30 8302 C 799.107 2.25712 0.336062 0
M  V30 8303 C 800.085 1.29953 0.977294 0
M  V30 8304 O 801.269 1.59225 1.00895 0
M  V30 8305 C 798.396 3.0501 1.47263 0
M  V30 8306 C 797.442 4.15863 0.946575 0
M  V30 8307 S 798.275 5.35272 -0.156323 0
M  V30 8308 C 799.431 6.18123 0.983601 0
M  V30 8309 H 799.664 2.95688 -0.309215 0
M  V30 8310 H 797.197 1.51872 -0.278238 0
M  V30 8311 H 799.155 3.51284 2.12391 0
M  V30 8312 H 797.816 2.34519 2.08949 0
M  V30 8313 H 797.009 4.70834 1.7981 0
M  V30 8314 H 796.611 3.72139 0.372647 0
M  V30 8315 H 798.903 6.50588 1.89056 0
M  V30 8316 H 799.846 7.06521 0.472687 0
M  V30 8317 H 800.254 5.50547 1.24735 0
M  V30 8318 N 799.652 0.226554 1.55963 0
M  V30 8319 C 800.929 -0.453058 1.90281 0
M  V30 8320 C 801.309 -1.77377 1.14458 0
M  V30 8321 O 800.657 -2.27067 0.255496 0
M  V30 8322 C 800.867 -0.641108 3.43061 0
M  V30 8323 C 802.215 -0.946265 4.13921 0
M  V30 8324 O 803.239 -0.727713 3.48687 0
M  V30 8325 O 802.098 -1.36131 5.29274 0
M  V30 8326 H 799.192 -0.240242 0.791336 0
M  V30 8327 H 801.738 0.26911 1.67553 0
M  V30 8328 H 800.51 0.290283 3.90222 0
M  V30 8329 H 800.133 -1.41458 3.71585 0
M  V30 8330 N 801.13 -1.57531 -0.0467866 0
M  V30 8331 C 802.378 -1.88078 -0.739656 0
M  V30 8332 C 802.699 -0.821936 -1.76831 0
M  V30 8333 O 801.969 0.146582 -1.95351 0
M  V30 8334 H 800.549 -0.694075 -0.276169 0
M  V30 8335 H 803.211 -1.94893 -0.0169391 0
M  V30 8336 H 802.307 -2.86396 -1.24031 0
M  V30 8337 N 802.608 0.318715 -1.54344 0
M  V30 8338 C 803.833 1.07987 -1.77069 0
M  V30 8339 C 804.258 1.80766 -0.520117 0
M  V30 8340 O 803.616 1.73424 0.528566 0
M  V30 8341 C 803.664 2.04987 -2.96669 0
M  V30 8342 O 802.768 3.12974 -2.68554 0
M  V30 8343 H 802.109 0.311109 -0.586606 0
M  V30 8344 H 804.639 0.361533 -2.0138 0
M  V30 8345 H 804.649 2.47771 -3.2415 0
M  V30 8346 H 803.324 1.51417 -3.87357 0
M  V30 8347 H 801.901 2.74831 -2.52037 0
M  V30 8348 N 804.086 1.46499 0.581025 0
M  V30 8349 C 805.018 1.53225 1.70455 0
M  V30 8350 C 806.031 0.420443 1.57277 0
M  V30 8351 O 807.22 0.688888 1.64671 0
M  V30 8352 C 804.32 1.39803 3.08721 0
M  V30 8353 C 803.493 2.65132 3.47884 0
M  V30 8354 C 802.552 2.45886 4.65217 0
M  V30 8355 O 801.578 3.19615 4.70993 0
M  V30 8356 N 802.78 1.5216 5.60203 0
M  V30 8357 H 805.545 2.50098 1.65139 0
M  V30 8358 H 803.106 1.42576 0.76705 0
M  V30 8359 H 805.098 1.24697 3.8501 0
M  V30 8360 H 803.668 0.51104 3.08394 0
M  V30 8361 H 802.888 2.95169 2.61284 0
M  V30 8362 H 804.176 3.48385 3.70817 0
M  V30 8363 H 803.574 0.913646 5.58273 0
M  V30 8364 H 802.131 1.43017 6.35916 0
M  V30 8365 N 805.565 -0.825799 1.34232 0
M  V30 8366 C 806.981 -1.11848 1.13851 0
M  V30 8367 C 807.181 -2.01405 -0.0619031 0
M  V30 8368 O 806.237 -2.41465 -0.738287 0
M  V30 8369 C 807.55 -1.76797 2.43235 0
M  V30 8370 C 809.098 -1.89304 2.49265 0
M  V30 8371 C 809.573 -2.57669 3.78643 0
M  V30 8372 N 811.064 -2.65171 3.79788 0
M  V30 8373 C 811.799 -3.1879 4.76614 0
M  V30 8374 N 811.295 -3.72995 5.83821 0
M  V30 8375 N 813.088 -3.17164 4.64073 0
M  V30 8376 H 805.239 -0.230049 2.11151 0
M  V30 8377 H 807.502 -0.164609 0.9336 0
M  V30 8378 H 807.208 -1.18455 3.31152 0
M  V30 8379 H 807.082 -2.76693 2.56361 0
M  V30 8380 H 809.469 -2.46796 1.6179 0
M  V30 8381 H 809.55 -0.883191 2.4007 0
M  V30 8382 H 809.194 -2.00833 4.66507 0
M  V30 8383 H 809.124 -3.59152 3.8512 0
M  V30 8384 H 811.615 -2.26746 3.02315 0
M  V30 8385 H 811.928 -4.12151 6.53721 0
M  V30 8386 H 810.273 -3.71246 5.87538 0
M  V30 8387 H 813.464 -2.74082 3.79469 0
M  V30 8388 H 813.637 -3.58647 5.397 0
M  V30 8389 N 807.043 -1.17915 -1.04565 0
M  V30 8390 C 807.953 -0.916449 -2.15959 0
M  V30 8391 C 808.969 0.117655 -1.73602 0
M  V30 8392 O 810.145 -0.063089 -2.01301 0
M  V30 8393 C 807.21 -0.440262 -3.43893 0
M  V30 8394 C 806.271 -1.54172 -4.00661 0
M  V30 8395 C 805.504 -1.08816 -5.22489 0
M  V30 8396 O 805.727 0.0551547 -5.70373 0
M  V30 8397 O 804.661 -1.88383 -5.7166 0
M  V30 8398 H 808.487 -1.8484 -2.40972 0
M  V30 8399 H 806.072 -0.960552 -1.14428 0
M  V30 8400 H 807.954 -0.182537 -4.21004 0
M  V30 8401 H 806.629 0.46346 -3.20365 0
M  V30 8402 H 805.536 -1.85341 -3.24961 0
M  V30 8403 H 806.869 -2.42139 -4.2852 0
M  V30 8404 N 808.521 1.23394 -0.980386 0
M  V30 8405 C 809.937 1.43961 -0.689008 0
M  V30 8406 C 810.137 1.87229 0.744809 0
M  V30 8407 O 809.193 2.01831 1.51725 0
M  V30 8408 C 810.506 2.49128 -1.68392 0
M  V30 8409 C 812.054 2.62941 -1.69796 0
M  V30 8410 C 812.529 3.71317 -2.68118 0
M  V30 8411 N 814.02 3.7876 -2.66636 0
M  V30 8412 C 814.755 4.62176 -3.39383 0
M  V30 8413 N 814.251 5.49682 -4.21688 0
M  V30 8414 N 816.044 4.56372 -3.28147 0
M  V30 8415 H 808.195 0.936106 -1.90659 0
M  V30 8416 H 810.458 0.473023 -0.821555 0
M  V30 8417 H 810.164 2.24252 -2.70931 0
M  V30 8418 H 810.038 3.47514 -1.46675 0
M  V30 8419 H 812.425 2.87168 -0.679617 0
M  V30 8420 H 812.506 1.64871 -1.95579 0
M  V30 8421 H 812.15 3.4784 -3.70095 0
M  V30 8422 H 812.08 4.68929 -2.3961 0
M  V30 8423 H 814.571 3.16226 -2.06904 0
M  V30 8424 H 814.884 6.10323 -4.74053 0
M  V30 8425 H 813.229 5.49306 -4.25779 0
M  V30 8426 H 816.42 3.87029 -2.63299 0
M  V30 8427 H 816.593 5.21153 -3.85102 0
M  V30 8428 N 809.999 0.752036 1.385 0
M  V30 8429 C 810.929 0.138718 2.33088 0
M  V30 8430 C 811.91 -0.705318 1.54788 0
M  V30 8431 O 813.095 -0.646821 1.83112 0
M  V30 8432 C 810.225 -0.75641 3.38963 0
M  V30 8433 C 809.179 -0.0152239 4.27997 0
M  V30 8434 C 808.505 -1.0285 5.24715 0
M  V30 8435 C 809.805 1.15226 5.09431 0
M  V30 8436 H 811.499 0.928852 2.84627 0
M  V30 8437 H 809.045 0.448111 1.3685 0
M  V30 8438 H 810.998 -1.19513 4.04097 0
M  V30 8439 H 809.722 -1.57885 2.85902 0
M  V30 8440 H 808.381 0.404061 3.64366 0
M  V30 8441 H 808.029 -1.84496 4.67943 0
M  V30 8442 H 807.729 -0.537238 5.85139 0
M  V30 8443 H 809.253 -1.46657 5.92726 0
M  V30 8444 H 810.667 0.791161 5.67815 0
M  V30 8445 H 809.064 1.57428 5.79082 0
M  V30 8446 H 810.134 1.9659 4.43261 0
M  V30 8447 N 811.477 -1.49425 0.500989 0
M  V30 8448 C 812.726 -2.01649 -0.04538 0
M  V30 8449 C 813.039 -1.38572 -1.38047 0
M  V30 8450 O 814.245 -1.82124 -2.01353 0
M  V30 8451 C 812.701 -3.5966 -0.131337 0
M  V30 8452 C 812.309 -4.3171 1.19711 0
M  V30 8453 C 814.053 -4.19828 -0.628071 0
M  V30 8454 C 811.96 -5.81579 1.07332 0
M  V30 8455 H 810.89 -0.753715 -0.0207329 0
M  V30 8456 H 813.541 -1.71962 0.640407 0
M  V30 8457 H 811.923 -3.86063 -0.881574 0
M  V30 8458 H 813.097 -4.17008 1.96064 0
M  V30 8459 H 811.412 -3.83286 1.62729 0
M  V30 8460 H 814.009 -5.2958 -0.738198 0
M  V30 8461 H 814.352 -3.83194 -1.6269 0
M  V30 8462 H 814.885 -3.97746 0.0656314 0
M  V30 8463 H 811.624 -6.22738 2.04642 0
M  V30 8464 H 811.144 -5.98774 0.350679 0
M  V30 8465 H 812.823 -6.42614 0.752047 0
M  V30 8466 N 812.955 -0.234822 -1.55841 0
M  V30 8467 C 813.865 0.680828 -2.24504 0
M  V30 8468 C 814.881 1.20306 -1.25708 0
M  V30 8469 O 816.057 1.24188 -1.58554 0
M  V30 8470 C 813.122 1.86636 -2.92178 0
M  V30 8471 C 812.183 1.3848 -4.06352 0
M  V30 8472 C 811.416 2.51382 -4.70789 0
M  V30 8473 O 811.639 3.69831 -4.34259 0
M  V30 8474 O 810.573 2.21828 -5.59532 0
M  V30 8475 H 814.399 0.12583 -3.03439 0
M  V30 8476 H 811.984 -0.00381817 -1.494 0
M  V30 8477 H 813.866 2.55845 -3.34845 0
M  V30 8478 H 812.541 2.40921 -2.16192 0
M  V30 8479 H 811.448 0.660341 -3.68226 0
M  V30 8480 H 812.781 0.888177 -4.8412 0
M  V30 8481 N 814.433 1.57553 0.0384317 0
M  V30 8482 C 815.343 2.09333 1.0591 0
M  V30 8483 C 816.359 1.0299 1.40247 0
M  V30 8484 O 817.535 1.34669 1.49754 0
M  V30 8485 C 814.6 2.55468 2.34386 0
M  V30 8486 C 813.661 3.76254 2.06716 0
M  V30 8487 C 812.894 4.20179 3.29067 0
M  V30 8488 O 813.117 3.637 4.39407 0
M  V30 8489 O 812.051 5.12697 3.15317 0
M  V30 8490 H 815.877 2.96683 0.649087 0
M  V30 8491 H 813.462 1.47211 0.254802 0
M  V30 8492 H 815.344 2.85514 3.09935 0
M  V30 8493 H 814.019 1.71234 2.74701 0
M  V30 8494 H 812.926 3.51241 1.28766 0
M  V30 8495 H 814.259 4.61443 1.71263 0
M  V30 8496 N 815.911 -0.310526 1.54511 0
M  V30 8497 C 817.159 -1.04484 1.72996 0
M  V30 8498 C 817.48 -1.88118 0.513479 0
M  V30 8499 O 816.75 -1.90119 -0.472384 0
M  V30 8500 H 815.33 -0.388747 0.637875 0
M  V30 8501 H 817.992 -0.343811 1.91844 0
M  V30 8502 H 817.088 -1.70341 2.61515 0
M  V30 8503 N 817.389 -1.46805 -0.573248 0
M  V30 8504 C 818.635 -1.5283 -1.33307 0
M  V30 8505 C 818.968 -0.183287 -1.93333 0
M  V30 8506 O 818.243 0.806354 -1.76998 0
M  V30 8507 C 818.526 -2.63414 -2.45531 0
M  V30 8508 C 818.379 -4.07478 -1.90478 0
M  V30 8509 C 819.698 -2.70014 -3.47535 0
M  V30 8510 H 816.817 -0.556371 -0.483343 0
M  V30 8511 H 819.459 -1.78787 -0.643066 0
M  V30 8512 H 817.609 -2.41412 -3.04389 0
M  V30 8513 H 819.281 -4.40795 -1.36004 0
M  V30 8514 H 817.524 -4.16511 -1.21248 0
M  V30 8515 H 818.195 -4.80598 -2.71531 0
M  V30 8516 H 820.671 -2.89817 -2.98572 0
M  V30 8517 H 819.547 -3.49192 -4.23504 0
M  V30 8518 H 819.808 -1.76436 -4.05367 0
M  V30 8519 N 818.867 0.818669 -1.34668 0
M  V30 8520 C 820.144 1.56118 -1.17841 0
M  V30 8521 C 820.524 2.09646 0.24731 0
M  V30 8522 O 819.872 1.91329 1.24922 0
M  V30 8523 C 820.082 2.67922 -2.23649 0
M  V30 8524 C 821.43 3.36579 -2.58843 0
M  V30 8525 O 822.454 2.78182 -2.22471 0
M  V30 8526 O 821.313 4.42045 -3.21339 0
M  V30 8527 H 818.407 0.689216 -0.457067 0
M  V30 8528 H 820.953 0.859674 -1.46314 0
M  V30 8529 H 819.725 2.26153 -3.19328 0
M  V30 8530 H 819.348 3.45719 -1.96377 0
M  V30 8531 N 820.346 1.18468 1.03938 0
M  V30 8532 C 821.592 0.982286 1.77423 0
M  V30 8533 C 821.925 -0.48679 1.88 0
M  V30 8534 O 821.2 -1.36146 1.38905 0
M  V30 8535 C 821.483 1.63929 3.20623 0
M  V30 8536 C 821.336 3.18132 3.17982 0
M  V30 8537 C 822.655 1.3536 4.18767 0
M  V30 8538 H 819.774 0.358264 0.644062 0
M  V30 8539 H 822.416 1.46154 1.21405 0
M  V30 8540 H 820.566 1.2318 3.68455 0
M  V30 8541 H 822.238 3.68024 2.78129 0
M  V30 8542 H 820.481 3.50225 2.55978 0
M  V30 8543 H 821.152 3.5924 4.19107 0
M  V30 8544 H 823.628 1.70669 3.79488 0
M  V30 8545 H 822.504 1.83896 5.17178 0
M  V30 8546 H 822.765 0.276722 4.41233 0
M  V30 8547 N 821.824 -1.22873 0.986916 0
M  V30 8548 C 823.235 -1.73264 0.695438 0
M  V30 8549 C 823.586 -1.79679 -0.788023 0
M  V30 8550 O 822.711 -1.43905 -1.61618 0
M  V30 8551 C 823.306 -3.14671 1.2557 0
M  V30 8552 C 821.865 -3.62492 1.01373 0
M  V30 8553 C 821.012 -2.40551 1.37951 0
M  V30 8554 H 823.963 -1.08304 1.15999 0
M  V30 8555 H 823.984 -3.75226 0.631322 0
M  V30 8556 H 823.496 -3.0997 2.33539 0
M  V30 8557 H 821.597 -3.72567 -0.0495917 0
M  V30 8558 H 821.71 -4.48944 1.67289 0
M  V30 8559 H 820.074 -2.41875 0.798033 0
M  V30 8560 H 820.857 -2.38516 2.46911 0
M  V30 8561 N 823.302 -0.75937 -1.38099 0
M  V30 8562 C 824.212 -0.13774 -2.34195 0
M  V30 8563 C 825.228 0.693985 -1.59561 0
M  V30 8564 O 826.404 0.616792 -1.91723 0
M  V30 8565 C 823.469 0.740535 -3.38699 0
M  V30 8566 C 822.53 -0.106225 -4.29169 0
M  V30 8567 C 821.763 0.730225 -5.28681 0
M  V30 8568 O 821.986 1.96796 -5.35376 0
M  V30 8569 O 820.92 0.145969 -6.01723 0
M  V30 8570 H 824.746 -0.931512 -2.89061 0
M  V30 8571 H 822.331 -0.520345 -1.40046 0
M  V30 8572 H 824.213 1.24232 -4.02672 0
M  V30 8573 H 822.888 1.51271 -2.8618 0
M  V30 8574 H 821.795 -0.654088 -3.68337 0
M  V30 8575 H 823.128 -0.841186 -4.84959 0
M  V30 8576 N 824.78 1.49157 -0.508906 0
M  V30 8577 C 826.028 2.02073 0.0327335 0
M  V30 8578 C 826.349 1.39012 1.3675 0
M  V30 8579 O 825.619 0.548153 1.88075 0
M  V30 8580 H 824.199 0.746848 0.0150864 0
M  V30 8581 H 826.861 1.83097 -0.667946 0
M  V30 8582 H 825.957 3.11707 0.1566 0
M  V30 8583 N 826.258 0.243083 1.55714 0
M  V30 8584 C 827.188 -0.652336 2.24203 0
M  V30 8585 C 828.169 -1.1843 1.221 0
M  V30 8586 O 829.354 -1.22435 1.50743 0
M  V30 8587 C 826.484 -1.85111 2.93856 0
M  V30 8588 C 825.438 -1.45208 4.02615 0
M  V30 8589 C 824.764 -2.73137 4.59674 0
M  V30 8590 C 826.064 -0.625988 5.18535 0
M  V30 8591 H 827.758 -0.0812504 2.9929 0
M  V30 8592 H 825.304 -0.0376388 1.43951 0
M  V30 8593 H 827.257 -2.48314 3.40468 0
M  V30 8594 H 825.981 -2.44751 2.16251 0
M  V30 8595 H 824.64 -0.843406 3.56766 0
M  V30 8596 H 824.288 -3.30967 3.78774 0
M  V30 8597 H 823.988 -2.47163 5.33089 0
M  V30 8598 H 825.512 -3.37245 5.09017 0
M  V30 8599 H 826.926 -1.16223 5.61396 0
M  V30 8600 H 825.323 -0.462465 5.98315 0
M  V30 8601 H 826.393 0.362652 4.83542 0
M  V30 8602 N 827.736 -1.57571 -0.0300757 0
M  V30 8603 C 828.699 -2.05468 -1.01565 0
M  V30 8604 C 829.699 -0.958628 -1.29101 0
M  V30 8605 O 830.889 -1.22228 -1.24121 0
M  V30 8606 C 828.021 -2.47077 -2.34874 0
M  V30 8607 H 829.214 -2.93797 -0.601936 0
M  V30 8608 H 826.767 -1.53828 -0.276878 0
M  V30 8609 H 827.502 -1.61901 -2.80996 0
M  V30 8610 H 827.287 -3.27097 -2.16218 0
M  V30 8611 H 828.777 -2.84564 -3.05635 0
M  V30 8612 N 829.214 0.302327 -1.54673 0
M  V30 8613 C 830.46 1.03924 -1.74149 0
M  V30 8614 C 830.793 1.86968 -0.525041 0
M  V30 8615 O 830.068 1.88538 0.477868 0
M  V30 8616 C 830.351 1.94633 -3.02969 0
M  V30 8617 C 830.204 1.14778 -4.34909 0
M  V30 8618 C 831.523 2.93826 -3.27649 0
M  V30 8619 H 828.642 0.376405 -0.633631 0
M  V30 8620 H 831.284 0.314007 -1.87387 0
M  V30 8621 H 829.434 2.56471 -2.91813 0
M  V30 8622 H 831.106 0.552363 -4.57981 0
M  V30 8623 H 829.349 0.450462 -4.31455 0
M  V30 8624 H 830.02 1.81495 -5.21309 0
M  V30 8625 H 832.496 2.42117 -3.38406 0
M  V30 8626 H 831.372 3.54462 -4.19104 0
M  V30 8627 H 831.633 3.67416 -2.45882 0
M  V30 8628 N 830.692 1.47107 0.565454 0
M  V30 8629 C 831.969 1.43787 1.32607 0
M  V30 8630 C 832.349 0.130428 2.10697 0
M  V30 8631 O 831.697 -0.888086 2.10536 0
M  V30 8632 C 831.907 2.67833 2.23755 0
M  V30 8633 C 833.255 3.14704 2.85037 0
M  V30 8634 O 834.279 2.68503 2.34061 0
M  V30 8635 O 833.138 3.95002 3.77671 0
M  V30 8636 H 830.232 0.572623 0.596684 0
M  V30 8637 H 832.778 1.59296 0.58504 0
M  V30 8638 H 831.55 3.54532 1.65597 0
M  V30 8639 H 831.173 2.54869 3.05168 0
M  V30 8640 N 832.17 -0.811516 1.35101 0
M  V30 8641 C 833.416 -1.57016 1.29296 0
M  V30 8642 C 833.771 -1.91941 -0.13288 0
M  V30 8643 O 833.064 -1.58121 -1.08204 0
M  V30 8644 C 833.258 -2.87121 2.1283 0
M  V30 8645 C 833.087 -2.64908 3.63392 0
M  V30 8646 C 831.857 -2.61055 4.32641 0
M  V30 8647 C 834.055 -2.35628 4.57148 0
M  V30 8648 N 832.037 -2.30508 5.68981 0
M  V30 8649 C 833.408 -2.14876 5.81574 0
M  V30 8650 C 835.463 -2.2145 4.45942 0
M  V30 8651 C 834.166 -1.81381 6.96055 0
M  V30 8652 C 836.192 -1.89352 5.60267 0
M  V30 8653 C 835.554 -1.69432 6.83719 0
M  V30 8654 H 831.653 -0.57649 0.528378 0
M  V30 8655 H 834.237 -0.950338 1.69931 0
M  V30 8656 H 832.408 -3.47007 1.74473 0
M  V30 8657 H 834.14 -3.52629 1.98582 0
M  V30 8658 H 830.895 -2.75531 3.85201 0
M  V30 8659 H 831.319 -2.18042 6.40927 0
M  V30 8660 H 835.961 -2.35551 3.51106 0
M  V30 8661 H 833.679 -1.66018 7.90863 0
M  V30 8662 H 837.265 -1.79098 5.53548 0
M  V30 8663 H 836.145 -1.44957 7.70686 0
M  V30 8664 N 833.648 -1.19017 -1.03309 0
M  V30 8665 C 834.897 -0.984542 -1.76039 0
M  V30 8666 C 835.21 0.485937 -1.89468 0
M  V30 8667 O 836.416 0.810278 -2.59127 0
M  V30 8668 C 834.872 -1.71261 -3.1654 0
M  V30 8669 C 834.48 -3.22291 -3.11179 0
M  V30 8670 C 836.224 -1.59007 -3.93595 0
M  V30 8671 C 834.131 -3.87704 -4.46587 0
M  V30 8672 H 833.061 -0.364749 -0.659905 0
M  V30 8673 H 835.712 -1.4247 -1.15649 0
M  V30 8674 H 834.094 -1.20025 -3.77373 0
M  V30 8675 H 835.268 -3.80611 -2.59753 0
M  V30 8676 H 833.583 -3.34772 -2.47622 0
M  V30 8677 H 836.18 -2.05232 -4.93745 0
M  V30 8678 H 836.523 -0.543534 -4.12736 0
M  V30 8679 H 837.056 -2.07564 -3.39355 0
M  V30 8680 H 833.795 -4.92437 -4.3265 0
M  V30 8681 H 833.315 -3.34172 -4.98085 0
M  V30 8682 H 834.994 -3.91008 -5.15482 0
M  V30 8683 N 835.127 1.22348 -0.993418 0
M  V30 8684 C 836.375 1.90733 -0.668246 0
M  V30 8685 C 836.696 1.77732 0.802261 0
M  V30 8686 O 835.966 1.16486 1.57505 0
M  V30 8687 H 834.546 0.705966 -0.244174 0
M  V30 8688 H 837.208 1.48691 -1.26004 0
M  V30 8689 H 836.304 2.97883 -0.931239 0
M  V30 8690 N 836.605 0.766683 1.37694 0
M  V30 8691 C 838.021 0.445739 1.53249 0
M  V30 8692 C 838.221 -1.03935 1.72626 0
M  V30 8693 O 837.277 -1.82525 1.74473 0
M  V30 8694 C 838.59 1.2564 2.73194 0
M  V30 8695 C 840.138 1.24779 2.87053 0
M  V30 8696 C 840.613 2.04169 4.09974 0
M  V30 8697 N 842.104 2.01497 4.17077 0
M  V30 8698 C 842.839 2.5971 5.11212 0
M  V30 8699 N 842.335 3.26691 6.10938 0
M  V30 8700 N 844.128 2.49568 5.03659 0
M  V30 8701 H 836.279 1.72899 1.23368 0
M  V30 8702 H 838.542 0.733701 0.600322 0
M  V30 8703 H 838.248 2.30859 2.65324 0
M  V30 8704 H 838.122 0.882133 3.6674 0
M  V30 8705 H 840.509 0.203603 2.94397 0
M  V30 8706 H 840.59 1.66166 1.9448 0
M  V30 8707 H 840.234 3.08606 4.03392 0
M  V30 8708 H 840.164 1.60167 5.01651 0
M  V30 8709 H 842.655 1.52728 3.45662 0
M  V30 8710 H 842.968 3.68497 6.79286 0
M  V30 8711 H 841.313 3.30789 6.11231 0
M  V30 8712 H 844.504 1.96859 4.24693 0
M  V30 8713 H 844.677 2.95231 5.76839 0
M  V30 8714 N 838.083 -1.48885 0.516809 0
M  V30 8715 C 839.499 -1.58651 0.173788 0
M  V30 8716 C 839.699 -1.52033 -1.32243 0
M  V30 8717 O 838.755 -1.40251 -2.09967 0
M  V30 8718 C 840.068 -2.90816 0.764628 0
M  V30 8719 C 841.616 -3.04316 0.732164 0
M  V30 8720 C 842.091 -4.39123 1.30135 0
M  V30 8721 N 843.582 -4.45656 1.26273 0
M  V30 8722 C 844.317 -5.48446 1.67317 0
M  V30 8723 N 843.813 -6.58258 2.16028 0
M  V30 8724 N 845.606 -5.39251 1.58635 0
M  V30 8725 H 837.757 -1.5143 1.48939 0
M  V30 8726 H 840.02 -0.718243 0.618733 0
M  V30 8727 H 839.726 -3.01275 1.81456 0
M  V30 8728 H 839.6 -3.76473 0.234113 0
M  V30 8729 H 841.987 -2.93478 -0.308975 0
M  V30 8730 H 842.068 -2.20303 1.3 0
M  V30 8731 H 841.712 -4.50714 2.34135 0
M  V30 8732 H 841.642 -5.21801 0.709305 0
M  V30 8733 H 844.133 -3.66879 0.906006 0
M  V30 8734 H 844.446 -7.32811 2.45374 0
M  V30 8735 H 842.791 -6.59257 2.20013 0
M  V30 8736 H 845.982 -4.52354 1.20387 0
M  V30 8737 H 846.155 -6.19229 1.90944 0
M  V30 8738 N 839.561 -0.251338 -1.55583 0
M  V30 8739 C 840.808 0.372169 -1.99051 0
M  V30 8740 C 841.136 1.57623 -1.13953 0
M  V30 8741 O 840.391 1.94762 -0.191398 0
M  V30 8742 C 840.69 0.821186 -3.47838 0
M  V30 8743 C 840.356 -0.275608 -4.50057 0
M  V30 8744 C 839.018 -0.57683 -4.7773 0
M  V30 8745 C 841.37 -1.01585 -5.11204 0
M  V30 8746 C 838.698 -1.62229 -5.63825 0
M  V30 8747 C 841.05 -2.05087 -5.98433 0
M  V30 8748 C 839.714 -2.35869 -6.24437 0
M  V30 8749 H 838.984 0.136186 -0.728378 0
M  V30 8750 H 841.631 -0.360089 -1.88084 0
M  V30 8751 H 839.936 1.63272 -3.56159 0
M  V30 8752 H 841.633 1.31396 -3.78861 0
M  V30 8753 H 838.223 -0.030697 -4.28589 0
M  V30 8754 H 842.407 -0.79639 -4.89869 0
M  V30 8755 H 837.663 -1.86607 -5.82226 0
M  V30 8756 H 841.837 -2.62934 -6.44855 0
M  V30 8757 H 839.464 -3.17017 -6.90944 0
M  V30 8758 N 841.039 1.57585 0.0217189 0
M  V30 8759 C 842.269 1.9359 0.721572 0
M  V30 8760 C 842.677 0.850132 1.69025 0
M  V30 8761 O 842.02 -0.181539 1.82801 0
M  V30 8762 C 842.082 3.25445 1.52729 0
M  V30 8763 C 841.746 4.51251 0.722586 0
M  V30 8764 C 842.743 5.19896 0.0196598 0
M  V30 8765 C 840.428 4.97745 0.674959 0
M  V30 8766 C 842.422 6.33319 -0.720114 0
M  V30 8767 C 840.109 6.11062 -0.068555 0
M  V30 8768 C 841.107 6.78704 -0.764845 0
M  V30 8769 O 840.795 7.89852 -1.49627 0
M  V30 8770 H 840.527 0.643409 0.207366 0
M  V30 8771 H 843.081 2.05391 -0.0189346 0
M  V30 8772 H 841.311 3.0999 2.31178 0
M  V30 8773 H 843 3.46721 2.11044 0
M  V30 8774 H 843.766 4.84977 0.0474394 0
M  V30 8775 H 839.645 4.44934 1.20643 0
M  V30 8776 H 843.189 6.86051 -1.26413 0
M  V30 8777 H 839.086 6.45425 -0.0982318 0
M  V30 8778 H 839.854 8.06251 -1.41071 0
M  V30 8779 N 842.517 -0.29412 1.54831 0
M  V30 8780 C 843.763 -1.02602 1.75626 0
M  V30 8781 C 844.118 -1.84689 0.539232 0
M  V30 8782 O 843.411 -1.85788 -0.468322 0
M  V30 8783 C 843.605 -1.95782 2.99006 0
M  V30 8784 C 843.434 -1.22861 4.32591 0
M  V30 8785 C 842.204 -0.95294 4.96233 0
M  V30 8786 C 844.402 -0.629592 5.10432 0
M  V30 8787 N 842.384 -0.194728 6.13591 0
M  V30 8788 C 843.755 -0.00449586 6.2 0
M  V30 8789 C 845.81 -0.535327 4.95014 0
M  V30 8790 C 844.513 0.705754 7.15829 0
M  V30 8791 C 846.539 0.161284 5.9118 0
M  V30 8792 C 845.901 0.775203 7.00121 0
M  V30 8793 H 842 -0.358143 0.695167 0
M  V30 8794 H 844.584 -0.303896 1.92314 0
M  V30 8795 H 842.755 -2.65238 2.83731 0
M  V30 8796 H 844.487 -2.62175 3.08296 0
M  V30 8797 H 841.242 -1.25285 4.56728 0
M  V30 8798 H 841.666 0.171093 6.76784 0
M  V30 8799 H 846.308 -0.995662 4.10909 0
M  V30 8800 H 844.026 1.17784 7.9947 0
M  V30 8801 H 847.612 0.234256 5.81328 0
M  V30 8802 H 846.492 1.30566 7.73254 0
M  V30 8803 N 843.995 -1.47404 -0.557645 0
M  V30 8804 C 845.223 -1.57622 -1.34026 0
M  V30 8805 C 845.638 -0.226256 -1.87439 0
M  V30 8806 O 844.995 0.78043 -1.64971 0
M  V30 8807 C 845.046 -2.60111 -2.51047 0
M  V30 8808 O 844.767 -3.89866 -1.99841 0
M  V30 8809 C 846.268 -2.80508 -3.43264 0
M  V30 8810 H 843.488 -0.532271 -0.40857 0
M  V30 8811 H 846.032 -1.93019 -0.675555 0
M  V30 8812 H 844.187 -2.27648 -3.13457 0
M  V30 8813 H 844.601 -4.45864 -2.76234 0
M  V30 8814 H 846.075 -3.56084 -4.21792 0
M  V30 8815 H 846.552 -1.88314 -3.9678 0
M  V30 8816 H 847.158 -3.14166 -2.86671 0
M  V30 8817 N 845.473 0.80434 -1.35529 0
M  V30 8818 C 846.75 1.5486 -1.1949 0
M  V30 8819 C 847.13 2.09897 0.22506 0
M  V30 8820 O 846.478 1.92643 1.22886 0
M  V30 8821 C 846.688 2.65535 -2.26478 0
M  V30 8822 C 848.036 3.33814 -2.62399 0
M  V30 8823 O 849.06 2.75807 -2.25409 0
M  V30 8824 O 847.919 4.38612 -3.26009 0
M  V30 8825 H 845.013 0.68433 -0.464351 0
M  V30 8826 H 847.559 0.844107 -1.47217 0
M  V30 8827 H 846.331 2.22754 -3.21709 0
M  V30 8828 H 845.954 3.43617 -2.00033 0
M  V30 8829 N 846.951 1.19563 1.02676 0
M  V30 8830 C 848.367 0.948304 1.28372 0
M  V30 8831 C 848.567 -0.378096 1.97921 0
M  V30 8832 O 847.623 -1.1091 2.26838 0
M  V30 8833 C 848.936 2.12381 2.12873 0
M  V30 8834 C 850.484 2.16366 2.26174 0
M  V30 8835 C 850.959 3.33374 3.14048 0
M  V30 8836 N 852.45 3.33323 3.21636 0
M  V30 8837 C 853.185 4.20504 3.89825 0
M  V30 8838 N 852.681 5.17845 4.60227 0
M  V30 8839 N 854.474 4.08375 3.86246 0
M  V30 8840 H 846.625 2.04899 0.559485 0
M  V30 8841 H 848.888 0.89606 0.309484 0
M  V30 8842 H 848.594 3.08383 1.69094 0
M  V30 8843 H 848.468 2.09621 3.1359 0
M  V30 8844 H 850.855 1.20933 2.69182 0
M  V30 8845 H 850.936 2.23179 1.25 0
M  V30 8846 H 850.58 4.29087 2.71747 0
M  V30 8847 H 850.51 3.23798 4.15286 0
M  V30 8848 H 853.001 2.62863 2.71498 0
M  V30 8849 H 853.314 5.80712 5.09896 0
M  V30 8850 H 851.659 5.21791 4.59085 0
M  V30 8851 H 854.85 3.31606 3.30386 0
M  V30 8852 H 855.023 4.76532 4.39114 0
M  V30 8853 N 848.429 -1.21819 0.999893 0
M  V30 8854 C 849.677 -1.90375 0.678351 0
M  V30 8855 C 849.998 -1.78155 -0.792824 0
M  V30 8856 O 849.268 -1.17319 -1.56885 0
M  V30 8857 H 847.848 -0.704661 0.247915 0
M  V30 8858 H 850.51 -1.48021 1.2679 0
M  V30 8859 H 849.606 -2.97385 0.947023 0
M  V30 8860 N 849.908 -0.773975 -1.37286 0
M  V30 8861 C 850.855 -0.159938 -2.30245 0
M  V30 8862 C 851.825 0.687356 -1.51211 0
M  V30 8863 O 853.01 0.639255 -1.79773 0
M  V30 8864 C 850.15 0.711452 -3.37687 0
M  V30 8865 C 849.263 -0.152692 -4.3173 0
M  V30 8866 C 848.398 0.723613 -5.26248 0
M  V30 8867 C 847.437 -0.14293 -6.11933 0
M  V30 8868 N 846.574 0.691479 -6.98687 0
M  V30 8869 H 851.414 -0.958182 -2.82175 0
M  V30 8870 H 848.951 -0.48411 -1.38906 0
M  V30 8871 H 850.909 1.2315 -3.9861 0
M  V30 8872 H 849.539 1.47528 -2.87116 0
M  V30 8873 H 848.591 -0.790574 -3.72094 0
M  V30 8874 H 849.903 -0.821027 -4.91997 0
M  V30 8875 H 849.057 1.31006 -5.92387 0
M  V30 8876 H 847.796 1.42562 -4.66398 0
M  V30 8877 H 846.801 -0.7419 -5.44771 0
M  V30 8878 H 848.026 -0.842305 -6.73856 0
M  V30 8879 H 845.972 1.37806 -6.41362 0
M  V30 8880 H 845.889 0.0804911 -7.55957 0
M  V30 8881 H 847.157 1.26225 -7.69212 0
M  V30 8882 N 851.386 1.48609 -0.524698 0
M  V30 8883 C 852.611 2.07398 0.00952139 0
M  V30 8884 C 853.036 1.37939 1.27884 0
M  V30 8885 O 852.394 0.443633 1.75788 0
M  V30 8886 C 852.442 3.59916 0.221956 0
M  V30 8887 O 851.546 3.91647 1.29175 0
M  V30 8888 H 850.887 0.662981 -0.0367729 0
M  V30 8889 H 853.417 1.91092 -0.7311 0
M  V30 8890 H 853.427 4.05552 0.446236 0
M  V30 8891 H 852.102 4.09876 -0.705306 0
M  V30 8892 H 850.679 3.57796 1.05055 0
M  V30 8893 N 852.864 0.259585 1.55447 0
M  V30 8894 C 853.794 -0.62852 2.24882 0
M  V30 8895 C 854.775 -1.17128 1.23349 0
M  V30 8896 O 855.96 -1.20829 1.52033 0
M  V30 8897 C 853.09 -1.81983 2.95803 0
M  V30 8898 C 852.044 -1.40929 4.04132 0
M  V30 8899 C 851.37 -2.68246 4.62545 0
M  V30 8900 C 852.67 -0.570956 5.1917 0
M  V30 8901 H 854.364 -0.0495021 2.99359 0
M  V30 8902 H 851.91 -0.0223688 1.43983 0
M  V30 8903 H 853.863 -2.44689 3.43082 0
M  V30 8904 H 852.587 -2.42444 2.18835 0
M  V30 8905 H 851.246 -0.805519 3.57641 0
M  V30 8906 H 850.894 -3.26931 3.82263 0
M  V30 8907 H 850.594 -2.41495 5.35681 0
M  V30 8908 H 852.118 -3.31827 5.12565 0
M  V30 8909 H 853.532 -1.10262 5.62597 0
M  V30 8910 H 851.929 -0.398979 5.98772 0
M  V30 8911 H 852.999 0.413918 4.8313 0
M  V30 8912 N 854.342 -1.57594 -0.0133615 0
M  V30 8913 C 855.591 -1.8916 -0.700103 0
M  V30 8914 C 855.904 -0.860147 -1.75673 0
M  V30 8915 O 857.11 -1.06556 -2.49716 0
M  V30 8916 C 855.566 -3.35742 -1.29635 0
M  V30 8917 C 855.174 -4.47154 -0.275249 0
M  V30 8918 C 856.918 -3.76436 -1.96205 0
M  V30 8919 C 854.825 -5.84805 -0.880726 0
M  V30 8920 H 853.755 -0.705805 -0.265247 0
M  V30 8921 H 856.406 -1.83445 0.044993 0
M  V30 8922 H 854.788 -3.36252 -2.09167 0
M  V30 8923 H 855.962 -4.58139 0.494506 0
M  V30 8924 H 854.277 -4.15394 0.289256 0
M  V30 8925 H 856.874 -4.76606 -2.42386 0
M  V30 8926 H 857.217 -3.09249 -2.78695 0
M  V30 8927 H 857.75 -3.78168 -1.23426 0
M  V30 8928 H 854.489 -6.55431 -0.0949013 0
M  V30 8929 H 854.009 -5.7751 -1.61995 0
M  V30 8930 H 855.688 -6.32038 -1.38338 0
M  V30 8931 N 855.82 0.285905 -1.54985 0
M  V30 8932 C 857.068 1.01718 -1.74636 0
M  V30 8933 C 857.389 1.87277 -0.543342 0
M  V30 8934 O 856.659 1.90847 0.442078 0
M  V30 8935 H 855.239 0.378549 -0.643979 0
M  V30 8936 H 857.901 0.313247 -1.92366 0
M  V30 8937 H 856.997 1.66159 -2.64192 0
M  V30 8938 N 857.298 1.47698 0.54982 0
M  V30 8939 C 858.714 1.3338 0.876468 0
M  V30 8940 C 858.914 0.329837 1.98782 0
M  V30 8941 O 857.97 -0.256022 2.51199 0
M  V30 8942 C 859.283 2.72903 1.26272 0
M  V30 8943 C 860.831 2.81243 1.37373 0
M  V30 8944 C 861.306 4.21423 1.79351 0
M  V30 8945 N 862.797 4.24 1.86489 0
M  V30 8946 C 863.532 5.29386 2.20313 0
M  V30 8947 N 863.028 6.4507 2.527 0
M  V30 8948 N 864.821 5.16768 2.2115 0
M  V30 8949 H 856.972 2.11603 -0.183781 0
M  V30 8950 H 859.235 0.947798 -0.0195601 0
M  V30 8951 H 858.941 3.47836 0.519889 0
M  V30 8952 H 858.815 3.05151 2.21727 0
M  V30 8953 H 861.202 2.06577 2.10737 0
M  V30 8954 H 861.283 2.52639 0.400882 0
M  V30 8955 H 860.927 4.96597 1.06555 0
M  V30 8956 H 860.857 4.47456 2.77652 0
M  V30 8957 H 863.348 3.40547 1.63817 0
M  V30 8958 H 863.661 7.21236 2.77557 0
M  V30 8959 H 862.006 6.48377 2.50263 0
M  V30 8960 H 865.197 4.25416 1.95293 0
M  V30 8961 H 865.37 5.99004 2.4718 0
M  V30 8962 N 858.776 -0.797141 1.35954 0
M  V30 8963 C 860.001 -1.59097 1.33053 0
M  V30 8964 C 860.426 -1.87897 -0.0874592 0
M  V30 8965 O 859.784 -1.47291 -1.05712 0
M  V30 8966 C 859.832 -2.89346 2.152 0
M  V30 8967 O 858.936 -3.826 1.5392 0
M  V30 8968 H 858.277 -0.482895 0.45575 0
M  V30 8969 H 860.807 -0.988633 1.79129 0
M  V30 8970 H 860.817 -3.38686 2.27499 0
M  V30 8971 H 859.492 -2.6771 3.18283 0
M  V30 8972 H 858.069 -3.41174 1.50516 0
M  V30 8973 N 860.254 -1.20106 -1.0204 0
M  V30 8974 C 861.531 -0.918029 -1.72718 0
M  V30 8975 C 861.911 0.574163 -2.03142 0
M  V30 8976 O 861.259 1.53476 -1.69285 0
M  V30 8977 C 861.469 -1.78698 -2.9978 0
M  V30 8978 C 862.817 -2.02648 -3.7312 0
M  V30 8979 O 863.841 -1.75919 -3.09727 0
M  V30 8980 O 862.7 -2.47767 -4.87107 0
M  V30 8981 H 859.794 -0.342904 -0.752559 0
M  V30 8982 H 862.34 -1.30961 -1.07923 0
M  V30 8983 H 861.112 -2.79757 -2.7359 0
M  V30 8984 H 860.735 -1.39522 -3.72316 0
M  V30 8985 N 861.732 1.21287 -1.00634 0
M  V30 8986 C 862.662 2.25973 -0.588089 0
M  V30 8987 C 863.643 1.65527 0.391764 0
M  V30 8988 O 864.828 1.92179 0.279452 0
M  V30 8989 C 861.958 3.47197 0.0847336 0
M  V30 8990 C 860.912 4.20168 -0.815039 0
M  V30 8991 C 860.238 5.34699 -0.00855393 0
M  V30 8992 C 861.538 4.77416 -2.11828 0
M  V30 8993 H 863.232 2.61212 -1.46317 0
M  V30 8994 H 860.778 1.25563 -0.704985 0
M  V30 8995 H 862.731 4.19602 0.388821 0
M  V30 8996 H 861.455 3.11092 0.994456 0
M  V30 8997 H 860.114 3.49614 -1.10297 0
M  V30 8998 H 859.762 4.94837 0.902499 0
M  V30 8999 H 859.462 5.84449 -0.607664 0
M  V30 9000 H 860.986 6.09914 0.289317 0
M  V30 9001 H 862.4 5.41694 -1.87725 0
M  V30 9002 H 860.797 5.37561 -2.66736 0
M  V30 9003 H 861.867 3.96724 -2.78816 0
M  V30 9004 N 863.21 0.781244 1.36873 0
M  V30 9005 C 864.158 0.161889 2.32036 0
M  V30 9006 C 865.152 -0.674225 1.55405 0
M  V30 9007 O 866.358 -0.570223 1.70729 0
M  V30 9008 H 862.733 0.0335702 0.75125 0
M  V30 9009 H 864.704 0.980078 2.81846 0
M  V30 9010 C 863.453 -0.695352 3.40676 0
M  V30 9011 H 862.776 -0.0613425 3.99753 0
M  V30 9012 H 864.216 -1.09553 4.09602 0
M  V30 9013 C 862.675 -1.85008 2.81556 0
M  V30 9014 O 863.205 -2.94616 2.73065 0
M  V30 9015 N 861.411 -1.65364 2.38962 0
M  V30 9016 H 860.958 -0.762106 2.46068 0
M  V30 9017 H 860.916 -2.42789 1.99752 0
M  V30 9018 N 864.689 -1.48329 0.532571 0
M  V30 9019 C 865.937 -2.021 -0.000581206 0
M  V30 9020 C 866.258 -1.4117 -1.34522 0
M  V30 9021 O 865.528 -0.578005 -1.87179 0
M  V30 9022 H 864.108 -0.746993 -0.00320281 0
M  V30 9023 H 866.77 -1.82011 0.696991 0
M  V30 9024 H 865.866 -3.11917 -0.106991 0
M  V30 9025 N 866.167 -0.267825 -1.55308 0
M  V30 9026 C 867.114 0.6228 -2.22238 0
M  V30 9027 C 868.084 1.15536 -1.19334 0
M  V30 9028 O 869.269 1.206 -1.47852 0
M  V30 9029 C 866.409 1.80447 -2.94164 0
M  V30 9030 C 865.522 1.30646 -4.11771 0
M  V30 9031 C 864.657 2.44935 -4.7136 0
M  V30 9032 C 863.696 1.92099 -5.81175 0
M  V30 9033 N 862.833 2.99834 -6.34857 0
M  V30 9034 H 867.673 0.0453874 -2.97965 0
M  V30 9035 H 865.21 0.0106371 -1.47096 0
M  V30 9036 H 867.168 2.49896 -3.34078 0
M  V30 9037 H 865.798 2.35403 -2.20874 0
M  V30 9038 H 864.85 0.505314 -3.77029 0
M  V30 9039 H 866.162 0.879409 -4.90987 0
M  V30 9040 H 865.316 3.2239 -5.13955 0
M  V30 9041 H 864.055 2.90951 -3.91406 0
M  V30 9042 H 863.06 1.13122 -5.38037 0
M  V30 9043 H 864.285 1.47027 -6.62993 0
M  V30 9044 H 862.231 3.45246 -5.578 0
M  V30 9045 H 862.148 2.61524 -7.09324 0
M  V30 9046 H 863.416 3.77286 -6.82111 0
M  V30 9047 N 867.645 1.57599 0.00500368 0
M  V30 9048 C 869.061 1.55463 0.361015 0
M  V30 9049 C 869.261 0.997051 1.75103 0
M  V30 9050 O 868.317 0.628661 2.44549 0
M  V30 9051 C 869.63 2.99734 0.240828 0
M  V30 9052 C 871.178 3.11399 0.316138 0
M  V30 9053 C 871.653 4.57446 0.22513 0
M  V30 9054 N 873.144 4.62334 0.283186 0
M  V30 9055 C 873.879 5.72914 0.23603 0
M  V30 9056 N 873.375 6.92659 0.139762 0
M  V30 9057 N 875.168 5.61364 0.287529 0
M  V30 9058 H 867.319 1.92185 -0.904359 0
M  V30 9059 H 869.582 0.882529 -0.34619 0
M  V30 9060 H 869.288 3.44348 -0.715343 0
M  V30 9061 H 869.162 3.63009 1.02491 0
M  V30 9062 H 871.549 2.66718 1.26275 0
M  V30 9063 H 871.63 2.50911 -0.497725 0
M  V30 9064 H 871.274 5.02801 -0.717917 0
M  V30 9065 H 871.204 5.15874 1.05742 0
M  V30 9066 H 873.695 3.7619 0.359123 0
M  V30 9067 H 874.008 7.72722 0.10954 0
M  V30 9068 H 872.353 6.9492 0.105462 0
M  V30 9069 H 875.544 4.66707 0.360897 0
M  V30 9070 H 875.717 6.47528 0.247313 0
M  V30 9071 N 869.123 -0.277682 1.55134 0
M  V30 9072 C 870.348 -1.03254 1.7987 0
M  V30 9073 C 870.773 -1.79324 0.567861 0
M  V30 9074 O 870.131 -1.74764 -0.4824 0
M  V30 9075 C 870.179 -1.9705 3.02 0
M  V30 9076 O 869.283 -3.05744 2.76757 0
M  V30 9077 H 868.624 -0.295447 0.594649 0
M  V30 9078 H 871.154 -0.308013 2.02268 0
M  V30 9079 H 871.164 -2.3909 3.30606 0
M  V30 9080 H 869.839 -1.41094 3.91236 0
M  V30 9081 H 868.416 -2.68052 2.59235 0
M  V30 9082 N 870.601 -1.47988 -0.541979 0
M  V30 9083 C 871.548 -1.61615 -1.6477 0
M  V30 9084 C 872.518 -0.458602 -1.59644 0
M  V30 9085 O 873.703 -0.680585 -1.78249 0
M  V30 9086 C 870.843 -1.65066 -3.03063 0
M  V30 9087 C 869.956 -2.91845 -3.18513 0
M  V30 9088 C 869.091 -2.86534 -4.47294 0
M  V30 9089 C 868.13 -4.0807 -4.5623 0
M  V30 9090 N 867.267 -4.00905 -5.76385 0
M  V30 9091 H 872.107 -2.56046 -1.52461 0
M  V30 9092 H 869.644 -1.26989 -0.742449 0
M  V30 9093 H 871.602 -1.65049 -3.83164 0
M  V30 9094 H 870.232 -0.74136 -3.14171 0
M  V30 9095 H 869.284 -3.01661 -2.31743 0
M  V30 9096 H 870.596 -3.81804 -3.20978 0
M  V30 9097 H 869.75 -2.84851 -5.35672 0
M  V30 9098 H 868.489 -1.94283 -4.47332 0
M  V30 9099 H 867.494 -4.10041 -3.66261 0
M  V30 9100 H 868.719 -5.01465 -4.5794 0
M  V30 9101 H 866.665 -3.11467 -5.77342 0
M  V30 9102 H 866.582 -4.84557 -5.80293 0
M  V30 9103 H 867.85 -4.03263 -6.67083 0
M  V30 9104 N 872.079 0.78992 -1.36375 0
M  V30 9105 C 873.328 1.54296 -1.29906 0
M  V30 9106 C 873.641 1.95234 0.119651 0
M  V30 9107 O 874.847 2.69762 0.306708 0
M  V30 9108 C 873.303 2.78533 -2.27919 0
M  V30 9109 C 872.911 2.44767 -3.75224 0
M  V30 9110 C 874.655 3.56516 -2.30427 0
M  V30 9111 C 872.562 3.65397 -4.65015 0
M  V30 9112 H 871.492 0.579214 -0.482729 0
M  V30 9113 H 874.143 0.866845 -1.61735 0
M  V30 9114 H 872.525 3.47941 -1.89084 0
M  V30 9115 H 873.699 1.83259 -4.22792 0
M  V30 9116 H 872.014 1.79996 -3.75487 0
M  V30 9117 H 874.611 4.46143 -2.94722 0
M  V30 9118 H 874.954 3.95063 -1.31266 0
M  V30 9119 H 875.487 2.94087 -2.67876 0
M  V30 9120 H 872.226 3.31946 -5.65236 0
M  V30 9121 H 871.746 4.26072 -4.22164 0
M  V30 9122 H 873.425 4.32431 -4.81261 0
M  V30 9123 N 873.557 1.20646 1.01402 0
M  V30 9124 C 874.806 1.01242 1.7445 0
M  V30 9125 C 875.119 -0.455732 1.90217 0
M  V30 9126 O 876.325 -0.768951 2.60383 0
M  V30 9127 C 874.781 1.76275 3.13776 0
M  V30 9128 C 874.389 3.27201 3.06013 0
M  V30 9129 C 876.133 1.65248 3.91016 0
M  V30 9130 C 874.04 3.9476 4.40362 0
M  V30 9131 H 872.97 0.375202 0.654018 0
M  V30 9132 H 875.621 1.44292 1.13367 0
M  V30 9133 H 874.003 1.26013 3.75415 0
M  V30 9134 H 875.177 3.84695 2.53665 0
M  V30 9135 H 873.492 3.38669 2.42265 0
M  V30 9136 H 876.089 2.13061 4.90417 0
M  V30 9137 H 876.432 0.609128 4.1182 0
M  V30 9138 H 876.965 2.12937 3.3601 0
M  V30 9139 H 873.704 4.99258 4.24761 0
M  V30 9140 H 873.224 3.42054 4.92706 0
M  V30 9141 H 874.903 3.99159 5.09196 0
M  V30 9142 N 875.035 -1.20752 1.01276 0
M  V30 9143 C 876.263 -1.94006 0.718976 0
M  V30 9144 C 876.678 -1.74544 -0.719711 0
M  V30 9145 O 876.035 -1.05697 -1.48776 0
M  V30 9146 C 876.086 -3.46208 1.04031 0
M  V30 9147 O 875.807 -3.65031 2.42248 0
M  V30 9148 C 877.308 -4.36614 0.767032 0
M  V30 9149 H 874.528 -0.616743 0.264327 0
M  V30 9150 H 877.072 -1.53352 1.3529 0
M  V30 9151 H 875.227 -3.84756 0.451852 0
M  V30 9152 H 875.641 -4.59054 2.53712 0
M  V30 9153 H 877.115 -5.42076 1.04198 0
M  V30 9154 H 877.592 -4.38182 -0.298851 0
M  V30 9155 H 878.198 -4.03723 1.33746 0
M  V30 9156 N 876.513 -0.788492 -1.36457 0
M  V30 9157 C 877.46 -0.18435 -2.30063 0
M  V30 9158 C 878.43 0.67128 -1.51931 0
M  V30 9159 O 879.615 0.620152 -1.8044 0
M  V30 9160 C 876.755 0.675596 -3.38422 0
M  V30 9161 C 875.868 -0.198475 -4.31544 0
M  V30 9162 C 875.003 0.667757 -5.26986 0
M  V30 9163 C 874.042 -0.207825 -6.11747 0
M  V30 9164 N 873.179 0.617335 -6.99381 0
M  V30 9165 H 878.019 -0.988056 -2.81143 0
M  V30 9166 H 875.556 -0.498815 -1.38384 0
M  V30 9167 H 877.514 1.18916 -3.99894 0
M  V30 9168 H 876.144 1.44474 -2.88664 0
M  V30 9169 H 875.196 -0.829995 -3.71235 0
M  V30 9170 H 876.508 -0.873163 -4.91098 0
M  V30 9171 H 875.662 1.24716 -5.93743 0
M  V30 9172 H 874.401 1.37607 -4.67884 0
M  V30 9173 H 873.406 -0.799638 -5.43954 0
M  V30 9174 H 874.631 -0.913729 -6.72925 0
M  V30 9175 H 872.577 1.30996 -6.42788 0
M  V30 9176 H 872.494 0.000307255 -7.56 0
M  V30 9177 H 873.762 1.1806 -7.70508 0
M  V30 9178 N 877.991 1.48044 -0.54043 0
M  V30 9179 C 878.901 2.33565 0.220163 0
M  V30 9180 C 879.917 1.47146 0.928659 0
M  V30 9181 O 881.093 1.80107 0.901295 0
M  V30 9182 C 878.158 3.2349 1.2472 0
M  V30 9183 C 877.219 4.25789 0.547938 0
M  V30 9184 C 876.452 5.11417 1.52605 0
M  V30 9185 O 876.675 4.99204 2.75956 0
M  V30 9186 O 875.609 5.92498 1.05972 0
M  V30 9187 H 879.435 2.99868 -0.480898 0
M  V30 9188 H 877.02 1.46332 -0.301226 0
M  V30 9189 H 878.902 3.79084 1.84047 0
M  V30 9190 H 877.577 2.59835 1.93048 0
M  V30 9191 H 876.484 3.74001 -0.0860941 0
M  V30 9192 H 877.817 4.92111 -0.0935896 0
M  V30 9193 N 879.47 0.276058 1.55163 0
M  V30 9194 C 880.418 -0.626978 2.2399 0
M  V30 9195 C 881.412 -1.15708 1.23725 0
M  V30 9196 O 882.618 -1.1106 1.41653 0
M  V30 9197 H 878.993 -0.220742 0.718872 0
M  V30 9198 H 880.964 -0.0236569 2.98391 0
M  V30 9199 C 879.713 -1.79935 2.97521 0
M  V30 9200 H 879.036 -1.40064 3.74463 0
M  V30 9201 H 880.476 -2.40781 3.48999 0
M  V30 9202 C 878.935 -2.68838 2.03046 0
M  V30 9203 O 879.465 -3.69224 1.58229 0
M  V30 9204 N 877.671 -2.36028 1.69527 0
M  V30 9205 H 877.218 -1.54442 2.06169 0
M  V30 9206 H 877.176 -2.95782 1.06586 0
M  V30 9207 N 880.948 -1.576 0.00335426 0
M  V30 9208 C 882.197 -1.89892 -0.680001 0
M  V30 9209 C 882.51 -0.878731 -1.7475 0
M  V30 9210 O 883.716 -1.09199 -2.48572 0
M  V30 9211 C 882.172 -3.37098 -1.26066 0
M  V30 9212 C 881.78 -4.4742 -0.227807 0
M  V30 9213 C 883.524 -3.78495 -1.92202 0
M  V30 9214 C 881.431 -5.85706 -0.81865 0
M  V30 9215 H 880.361 -0.708578 -0.257746 0
M  V30 9216 H 883.012 -1.83387 0.0644472 0
M  V30 9217 H 881.394 -3.38451 -2.05589 0
M  V30 9218 H 882.568 -4.57589 0.54307 0
M  V30 9219 H 880.883 -4.15064 0.333297 0
M  V30 9220 H 883.48 -4.7915 -2.37318 0
M  V30 9221 H 883.823 -3.12187 -2.75399 0
M  V30 9222 H 884.356 -3.79456 -1.19408 0
M  V30 9223 H 881.095 -6.55495 -0.0253787 0
M  V30 9224 H 880.615 -5.79196 -1.55861 0
M  V30 9225 H 882.294 -6.33469 -1.31627 0
M  V30 9226 N 882.426 0.269451 -1.5528 0
M  V30 9227 C 883.651 1.02299 -1.80415 0
M  V30 9228 C 884.076 1.7902 -0.577363 0
M  V30 9229 O 883.434 1.75018 0.473125 0
M  V30 9230 C 883.482 1.95445 -3.0304 0
M  V30 9231 O 882.586 3.04271 -2.78375 0
M  V30 9232 H 881.927 0.292289 -0.596207 0
M  V30 9233 H 884.457 0.297282 -2.02429 0
M  V30 9234 H 884.467 2.37333 -3.31869 0
M  V30 9235 H 883.142 1.39017 -3.91978 0
M  V30 9236 H 881.719 2.66673 -2.60653 0
M  V30 9237 N 883.904 1.48273 0.534124 0
M  V30 9238 C 884.836 1.5857 1.65494 0
M  V30 9239 C 885.849 0.470266 1.5586 0
M  V30 9240 O 887.038 0.740928 1.62396 0
M  V30 9241 C 884.138 1.49554 3.04117 0
M  V30 9242 C 883.311 2.76066 3.39273 0
M  V30 9243 C 882.37 2.60562 4.57159 0
M  V30 9244 O 881.396 3.34438 4.60587 0
M  V30 9245 N 882.598 1.69906 5.55079 0
M  V30 9246 H 885.363 2.55226 1.57099 0
M  V30 9247 H 882.924 1.44944 0.721303 0
M  V30 9248 H 884.916 1.36882 3.80848 0
M  V30 9249 H 883.486 0.608895 3.06613 0
M  V30 9250 H 882.706 3.03332 2.51761 0
M  V30 9251 H 883.994 3.60006 3.59546 0
M  V30 9252 H 883.392 1.09079 5.55084 0
M  V30 9253 H 881.949 1.63175 6.31044 0
M  V30 9254 N 885.382 -0.782676 1.36792 0
M  V30 9255 C 886.793 -1.35828 1.28092 0
M  V30 9256 C 887.144 -1.96052 -0.076315 0
M  V30 9257 O 886.269 -1.93042 -0.977935 0
M  V30 9258 C 886.864 -2.46949 2.31952 0
M  V30 9259 C 885.423 -3.00307 2.2692 0
M  V30 9260 C 884.57 -1.73436 2.16368 0
M  V30 9261 H 887.521 -0.583788 1.47572 0
M  V30 9262 H 887.542 -3.26144 1.95986 0
M  V30 9263 H 887.054 -2.03087 3.30722 0
M  V30 9264 H 885.155 -3.48571 1.31639 0
M  V30 9265 H 885.268 -3.56663 3.19887 0
M  V30 9266 H 883.632 -1.95934 1.62733 0
M  V30 9267 H 884.415 -1.31693 3.17036 0
M  V30 9268 N 886.86 -1.21182 -1.00761 0
M  V30 9269 C 888.276 -0.968607 -1.26847 0
M  V30 9270 C 888.476 0.346561 -1.98497 0
M  V30 9271 O 887.532 1.07287 -2.28573 0
M  V30 9272 C 888.845 -2.1574 -2.09467 0
M  V30 9273 C 890.393 -2.19937 -2.22703 0
M  V30 9274 C 890.868 -3.38328 -3.08704 0
M  V30 9275 N 892.359 -3.38398 -3.16293 0
M  V30 9276 C 893.094 -4.26653 -3.83086 0
M  V30 9277 N 892.59 -5.25101 -4.5193 0
M  V30 9278 N 894.383 -4.14469 -3.797 0
M  V30 9279 H 886.534 -2.05763 -0.526816 0
M  V30 9280 H 888.797 -0.90087 -0.29519 0
M  V30 9281 H 888.503 -3.11034 -1.64167 0
M  V30 9282 H 888.377 -2.14584 -3.10216 0
M  V30 9283 H 890.764 -1.25201 -2.67224 0
M  V30 9284 H 890.845 -2.25139 -1.21433 0
M  V30 9285 H 890.489 -4.33356 -2.64886 0
M  V30 9286 H 890.419 -3.30364 -4.10082 0
M  V30 9287 H 892.91 -2.67149 -2.67282 0
M  V30 9288 H 893.223 -5.8875 -5.00592 0
M  V30 9289 H 891.568 -5.29029 -4.50726 0
M  V30 9290 H 894.759 -3.3682 -3.25069 0
M  V30 9291 H 894.932 -4.83458 -4.31477 0
M  V30 9292 N 888.338 1.20213 -1.01915 0
M  V30 9293 C 889.586 1.89272 -0.708552 0
M  V30 9294 C 889.907 1.79394 0.76438 0
M  V30 9295 O 889.177 1.198 1.54999 0
M  V30 9296 H 887.757 0.700628 -0.259094 0
M  V30 9297 H 890.419 1.45985 -1.29129 0
M  V30 9298 H 889.515 2.95841 -0.994215 0
M  V30 9299 N 889.816 0.795718 1.36037 0
M  V30 9300 C 891.065 0.367575 1.98322 0
M  V30 9301 C 891.378 -1.06823 1.63854 0
M  V30 9302 O 892.584 -1.59895 2.19421 0
M  V30 9303 C 891.04 0.606272 3.54757 0
M  V30 9304 C 890.648 2.0539 3.98144 0
M  V30 9305 C 892.392 0.242947 4.23804 0
M  V30 9306 C 890.299 2.23893 5.47381 0
M  V30 9307 H 889.229 0.133699 0.742052 0
M  V30 9308 H 891.88 0.978242 1.5525 0
M  V30 9309 H 890.262 -0.0741957 3.9593 0
M  V30 9310 H 891.436 2.77129 3.68152 0
M  V30 9311 H 889.751 2.37607 3.41953 0
M  V30 9312 H 892.348 0.359382 5.33491 0
M  V30 9313 H 892.691 -0.809661 4.08351 0
M  V30 9314 H 893.224 0.876899 3.88015 0
M  V30 9315 H 889.963 3.27559 5.6779 0
M  V30 9316 H 889.483 1.56666 5.78978 0
M  V30 9317 H 891.162 2.04914 6.13693 0
M  V30 9318 N 891.294 -1.47756 0.548274 0
M  V30 9319 C 892.257 -2.28379 -0.193857 0
M  V30 9320 C 893.257 -1.36436 -0.850986 0
M  V30 9321 O 894.447 -1.59154 -0.70822 0
M  V30 9322 C 891.579 -3.15858 -1.28243 0
M  V30 9323 H 892.772 -2.95458 0.514231 0
M  V30 9324 H 890.325 -1.53298 0.304879 0
M  V30 9325 H 891.06 -2.5345 -2.0232 0
M  V30 9326 H 890.845 -3.83512 -0.816148 0
M  V30 9327 H 892.335 -3.76627 -1.80393 0
M  V30 9328 N 892.772 -0.284283 -1.55015 0
M  V30 9329 C 894.018 0.330352 -2.00091 0
M  V30 9330 C 894.351 1.54814 -1.17244 0
M  V30 9331 O 893.626 1.92954 -0.244753 0
M  V30 9332 C 893.909 0.703492 -3.53161 0
M  V30 9333 C 893.762 -0.522275 -4.46758 0
M  V30 9334 C 895.081 1.53645 -4.12409 0
M  V30 9335 H 892.2 0.118599 -0.727395 0
M  V30 9336 H 894.842 -0.393054 -1.8589 0
M  V30 9337 H 892.992 1.31983 -3.65394 0
M  V30 9338 H 894.664 -1.16082 -4.46456 0
M  V30 9339 H 892.907 -1.15865 -4.1804 0
M  V30 9340 H 893.578 -0.217295 -5.51572 0
M  V30 9341 H 896.054 1.01583 -4.0351 0
M  V30 9342 H 894.93 1.76633 -5.19704 0
M  V30 9343 H 895.191 2.5204 -3.63219 0
M  V30 9344 N 894.251 1.57596 -0.0117121 0
M  V30 9345 C 895.201 2.05641 0.98467 0
M  V30 9346 C 896.185 0.953422 1.2961 0
M  V30 9347 O 897.377 1.21712 1.28512 0
M  V30 9348 C 894.506 2.57285 2.27286 0
M  V30 9349 C 893.592 3.74483 1.99057 0
M  V30 9350 N 893.983 4.85741 1.41029 0
M  V30 9351 C 892.281 3.82637 2.2914 0
M  V30 9352 C 892.982 5.67094 1.29536 0
M  V30 9353 N 891.958 5.13459 1.78497 0
M  V30 9354 H 895.76 2.89069 0.530702 0
M  V30 9355 H 893.274 1.6124 0.193717 0
M  V30 9356 H 895.271 2.89988 2.99521 0
M  V30 9357 H 893.931 1.75281 2.73325 0
M  V30 9358 H 894.942 5.06352 1.08756 0
M  V30 9359 H 891.619 3.11509 2.77972 0
M  V30 9360 H 893.009 6.66525 0.848144 0
M  V30 9361 N 895.729 -0.261212 1.5542 0
M  V30 9362 C 897.14 -0.83138 1.67167 0
M  V30 9363 C 897.491 -1.8659 0.606525 0
M  V30 9364 O 896.616 -2.14953 -0.24985 0
M  V30 9365 C 897.211 -1.51475 3.03052 0
M  V30 9366 C 895.77 -2.0328 3.16787 0
M  V30 9367 C 894.917 -0.878903 2.63003 0
M  V30 9368 H 897.868 -0.0373102 1.58656 0
M  V30 9369 H 897.889 -2.38222 2.96699 0
M  V30 9370 H 897.401 -0.76157 3.80554 0
M  V30 9371 H 895.502 -2.81523 2.44082 0
M  V30 9372 H 895.615 -2.24001 4.2351 0
M  V30 9373 H 893.979 -1.27551 2.2046 0
M  V30 9374 H 894.762 -0.13904 3.43018 0
M  V30 9375 N 897.207 -1.48554 -0.526253 0
M  V30 9376 C 898.14 -1.57928 -1.64724 0
M  V30 9377 C 899.118 -0.429536 -1.56824 0
M  V30 9378 O 900.302 -0.641651 -1.77243 0
M  V30 9379 C 897.429 -1.51075 -3.0314 0
M  V30 9380 C 896.475 -2.70937 -3.29386 0
M  V30 9381 S 897.308 -4.3287 -3.15251 0
M  V30 9382 C 898.464 -4.28622 -4.56108 0
M  V30 9383 H 898.697 -2.52761 -1.56523 0
M  V30 9384 H 896.23 -1.37133 -0.7095 0
M  V30 9385 H 898.188 -1.47808 -3.82966 0
M  V30 9386 H 896.849 -0.57574 -3.08778 0
M  V30 9387 H 896.042 -2.62291 -4.30371 0
M  V30 9388 H 895.644 -2.71486 -2.57238 0
M  V30 9389 H 897.936 -3.98784 -5.47702 0
M  V30 9390 H 898.879 -5.29798 -4.69808 0
M  V30 9391 H 899.287 -3.59038 -4.35605 0
M  V30 9392 N 898.685 0.775411 -1.37205 0
M  V30 9393 C 899.648 1.8702 -1.325 0
M  V30 9394 C 900.648 1.5915 -0.229793 0
M  V30 9395 O 901.838 1.673 -0.485423 0
M  V30 9396 C 898.97 3.24085 -1.05745 0
M  V30 9397 H 900.163 1.92604 -2.29878 0
M  V30 9398 H 897.716 0.97476 -1.22181 0
M  V30 9399 H 898.451 3.24178 -0.0888371 0
M  V30 9400 H 898.236 3.45705 -1.85016 0
M  V30 9401 H 899.726 4.0416 -1.05094 0
M  V30 9402 N 900.163 1.21714 1.00117 0
M  V30 9403 C 901.11 0.979837 2.08968 0
M  V30 9404 C 902.08 -0.0955324 1.65825 0
M  V30 9405 O 903.265 0.0523742 1.90728 0
M  V30 9406 C 900.405 0.554758 3.40612 0
M  V30 9407 C 899.518 1.69999 3.97145 0
M  V30 9408 C 898.653 1.2237 5.16913 0
M  V30 9409 C 897.692 2.34101 5.65564 0
M  V30 9410 N 896.829 1.87579 6.76579 0
M  V30 9411 H 901.669 1.91167 2.28602 0
M  V30 9412 H 899.206 0.952645 1.12085 0
M  V30 9413 H 901.164 0.289526 4.16194 0
M  V30 9414 H 899.794 -0.340073 3.21004 0
M  V30 9415 H 898.846 2.07976 3.18512 0
M  V30 9416 H 900.158 2.54074 4.29241 0
M  V30 9417 H 899.312 0.915358 5.99755 0
M  V30 9418 H 898.051 0.353045 4.8642 0
M  V30 9419 H 897.056 2.65734 4.81316 0
M  V30 9420 H 898.281 3.21669 5.98085 0
M  V30 9421 H 896.227 1.02863 6.47885 0
M  V30 9422 H 896.144 2.65225 7.07949 0
M  V30 9423 H 897.412 1.5979 7.62947 0
M  V30 9424 N 901.641 -1.19671 1.02551 0
M  V30 9425 C 903.057 -1.41305 0.741963 0
M  V30 9426 C 903.257 -1.89865 -0.674807 0
M  V30 9427 O 902.313 -2.07323 -1.44129 0
M  V30 9428 C 903.626 -2.42706 1.77522 0
M  V30 9429 C 905.174 -2.56458 1.79438 0
M  V30 9430 C 905.649 -3.61111 2.81715 0
M  V30 9431 N 907.14 -3.68603 2.8051 0
M  V30 9432 C 907.875 -4.49262 3.56302 0
M  V30 9433 N 907.371 -5.33653 4.41799 0
M  V30 9434 N 909.164 -4.43879 3.44859 0
M  V30 9435 H 901.315 -0.8647 1.94002 0
M  V30 9436 H 903.578 -0.442206 0.838545 0
M  V30 9437 H 903.284 -2.14042 2.79068 0
M  V30 9438 H 903.158 -3.41831 1.59472 0
M  V30 9439 H 905.545 -2.84447 0.78573 0
M  V30 9440 H 905.626 -1.57499 2.01563 0
M  V30 9441 H 905.27 -3.33864 3.82749 0
M  V30 9442 H 905.2 -4.59713 2.56849 0
M  V30 9443 H 907.691 -3.08329 2.18498 0
M  V30 9444 H 908.004 -5.92308 4.96378 0
M  V30 9445 H 906.349 -5.33125 4.45873 0
M  V30 9446 H 909.54 -3.7699 2.77482 0
M  V30 9447 H 909.713 -5.06501 4.04179 0
M  V30 9448 N 903.119 -0.802921 -1.35613 0
M  V30 9449 C 904.049 -0.225131 -2.32412 0
M  V30 9450 C 905.03 0.647383 -1.57299 0
M  V30 9451 O 906.215 0.578414 -1.85386 0
M  V30 9452 C 903.345 0.630085 -3.41537 0
M  V30 9453 C 902.299 -0.143635 -4.27759 0
M  V30 9454 C 901.625 0.833046 -5.28171 0
M  V30 9455 C 902.925 -1.34054 -5.04804 0
M  V30 9456 H 904.619 -1.03385 -2.80984 0
M  V30 9457 H 902.165 -0.498593 -1.35093 0
M  V30 9458 H 904.118 1.04433 -4.08254 0
M  V30 9459 H 902.842 1.47165 -2.91565 0
M  V30 9460 H 901.501 -0.539015 -3.62616 0
M  V30 9461 H 901.149 1.67001 -4.74468 0
M  V30 9462 H 900.849 0.319697 -5.8673 0
M  V30 9463 H 902.373 1.24558 -5.97761 0
M  V30 9464 H 903.787 -1.00136 -5.64487 0
M  V30 9465 H 902.184 -1.78812 -5.72841 0
M  V30 9466 H 903.254 -2.12906 -4.35659 0
M  V30 9467 N 904.597 1.47463 -0.556102 0
M  V30 9468 C 905.844 2.02475 -0.0316337 0
M  V30 9469 C 906.172 1.43057 1.31777 0
M  V30 9470 O 905.427 0.575376 1.87051 0
M  V30 9471 C 905.726 3.57224 0.112126 0
M  V30 9472 C 905.392 4.35557 -1.16624 0
M  V30 9473 C 904.054 4.56678 -1.51654 0
M  V30 9474 C 906.406 4.8074 -2.01342 0
M  V30 9475 C 903.734 5.20231 -2.7125 0
M  V30 9476 C 906.086 5.45613 -3.2014 0
M  V30 9477 C 904.75 5.64967 -3.55484 0
M  V30 9478 H 904.02 0.74091 -0.0115756 0
M  V30 9479 H 906.667 1.77148 -0.727392 0
M  V30 9480 H 904.972 3.81538 0.890842 0
M  V30 9481 H 906.669 3.97438 0.533261 0
M  V30 9482 H 903.259 4.19395 -0.883489 0
M  V30 9483 H 907.443 4.64201 -1.75587 0
M  V30 9484 H 902.699 5.3341 -2.98804 0
M  V30 9485 H 906.873 5.79587 -3.86073 0
M  V30 9486 H 904.5 6.13984 -4.4825 0
M  V30 9487 N 906.075 0.2925 1.54862 0
M  V30 9488 C 907.321 -0.312645 2.00983 0
M  V30 9489 C 907.676 -1.52174 1.17732 0
M  V30 9490 O 906.969 -1.90045 0.243581 0
M  V30 9491 C 907.163 -0.728674 3.49893 0
M  V30 9492 C 906.992 0.438562 4.47556 0
M  V30 9493 C 905.762 0.927885 4.96708 0
M  V30 9494 C 907.96 1.28076 4.98097 0
M  V30 9495 N 905.942 2.06277 5.78207 0
M  V30 9496 C 907.313 2.26326 5.77214 0
M  V30 9497 C 909.368 1.31211 4.803 0
M  V30 9498 C 908.071 3.27478 6.4043 0
M  V30 9499 C 910.097 2.31216 5.44328 0
M  V30 9500 C 909.459 3.28197 6.23271 0
M  V30 9501 H 905.558 -0.0790979 0.777989 0
M  V30 9502 H 908.142 0.420481 1.90105 0
M  V30 9503 H 906.313 -1.43099 3.61078 0
M  V30 9504 H 908.045 -1.31263 3.82821 0
M  V30 9505 H 904.8 0.504272 4.70908 0
M  V30 9506 H 905.224 2.63436 6.23643 0
M  V30 9507 H 909.866 0.576079 4.18857 0
M  V30 9508 H 907.584 4.02005 7.01012 0
M  V30 9509 H 911.17 2.34405 5.3249 0
M  V30 9510 H 910.05 4.04314 6.71937 0
M  V30 9511 N 907.553 -1.57587 0.0200696 0
M  V30 9512 C 908.781 -1.95718 -0.670964 0
M  V30 9513 C 909.196 -0.896081 -1.6618 0
M  V30 9514 O 908.553 0.123037 -1.82085 0
M  V30 9515 C 908.604 -3.33904 -1.38529 0
M  V30 9516 O 908.325 -4.35943 -0.434167 0
M  V30 9517 C 909.826 -3.86614 -2.16898 0
M  V30 9518 H 907.046 -0.644819 -0.185606 0
M  V30 9519 H 909.59 -2.04354 0.0771495 0
M  V30 9520 H 907.745 -3.26515 -2.08487 0
M  V30 9521 H 908.159 -5.16001 -0.940378 0
M  V30 9522 H 909.633 -4.85673 -2.62346 0
M  V30 9523 H 910.11 -3.20379 -3.00423 0
M  V30 9524 H 910.716 -3.97243 -1.51916 0
M  V30 9525 N 909.032 0.252966 -1.55557 0
M  V30 9526 C 910.309 1.00432 -1.67847 0
M  V30 9527 C 910.689 2.03587 -0.55816 0
M  V30 9528 O 910.037 2.24239 0.439197 0
M  V30 9529 C 910.247 1.64313 -3.079 0
M  V30 9530 C 911.595 2.14726 -3.66303 0
M  V30 9531 O 912.619 1.74264 -3.10661 0
M  V30 9532 O 911.478 2.89 -4.63833 0
M  V30 9533 H 908.572 0.467102 -0.682455 0
M  V30 9534 H 911.118 0.247233 -1.67889 0
M  V30 9535 H 909.89 0.896681 -3.80888 0
M  V30 9536 H 909.513 2.46657 -3.11843 0
M  V30 9537 N 910.51 1.48831 0.518367 0
M  V30 9538 C 911.738 1.6112 1.298 0
M  V30 9539 C 912.153 0.275872 1.86774 0
M  V30 9540 O 911.51 -0.736416 1.66983 0
M  V30 9541 C 911.561 2.66675 2.44063 0
M  V30 9542 O 911.282 3.95027 1.89434 0
M  V30 9543 C 912.783 2.8951 3.35706 0
M  V30 9544 H 910.003 0.542916 0.394314 0
M  V30 9545 H 912.547 1.94743 0.624142 0
M  V30 9546 H 910.702 2.35879 3.07311 0
M  V30 9547 H 911.116 4.53031 2.64316 0
M  V30 9548 H 912.59 3.67142 4.12202 0
M  V30 9549 H 913.067 1.98768 3.91648 0
M  V30 9550 H 913.673 3.21656 2.7824 0
M  V30 9551 N 911.988 -0.768124 1.37614 0
M  V30 9552 C 913.236 -1.52379 1.3276 0
M  V30 9553 C 913.557 -1.94809 -0.0863564 0
M  V30 9554 O 912.827 -1.66568 -1.03112 0
M  V30 9555 H 911.407 -0.565179 0.488448 0
M  V30 9556 H 914.069 -0.913974 1.72141 0
M  V30 9557 H 913.165 -2.4215 1.96901 0
M  V30 9558 N 913.466 -1.22244 -0.994698 0
M  V30 9559 C 914.715 -1.04005 -1.72817 0
M  V30 9560 C 915.028 0.425413 -1.90918 0
M  V30 9561 O 916.234 0.727429 -2.61574 0
M  V30 9562 C 914.69 -1.81244 -3.10932 0
M  V30 9563 C 914.298 -3.32028 -3.00768 0
M  V30 9564 C 916.042 -1.71448 -3.88337 0
M  V30 9565 C 913.949 -4.01716 -4.34026 0
M  V30 9566 H 912.879 -0.385559 -0.647966 0
M  V30 9567 H 915.53 -1.46077 -1.11058 0
M  V30 9568 H 913.912 -1.3197 -3.73363 0
M  V30 9569 H 915.086 -3.88682 -2.47513 0
M  V30 9570 H 913.401 -3.4248 -2.36846 0
M  V30 9571 H 915.998 -2.20836 -4.86965 0
M  V30 9572 H 916.341 -0.674568 -4.10798 0
M  V30 9573 H 916.874 -2.18256 -3.3258 0
M  V30 9574 H 913.613 -5.05952 -4.16765 0
M  V30 9575 H 913.133 -3.49849 -4.87202 0
M  V30 9576 H 914.812 -4.0721 -5.02782 0
M  V30 9577 N 914.944 1.19125 -1.03184 0
M  V30 9578 C 915.892 2.24492 -0.608781 0
M  V30 9579 C 916.886 1.65529 0.360065 0
M  V30 9580 O 918.092 1.78546 0.22832 0
M  V30 9581 H 914.467 0.73048 -0.178616 0
M  V30 9582 H 916.438 2.5749 -1.50803 0
M  V30 9583 C 915.187 3.47693 0.0215126 0
M  V30 9584 H 914.51 3.93354 -0.715024 0
M  V30 9585 H 915.95 4.23072 0.280429 0
M  V30 9586 C 914.409 3.12088 1.26896 0
M  V30 9587 O 914.939 3.25013 2.36071 0
M  V30 9588 N 913.145 2.66494 1.15886 0
M  V30 9589 H 912.692 2.56176 0.270463 0
M  V30 9590 H 912.65 2.43042 1.99444 0
M  V30 9591 N 916.422 0.810101 1.35185 0
M  V30 9592 C 917.833 0.452616 1.81131 0
M  V30 9593 C 918.184 -1.02573 1.67252 0
M  V30 9594 O 917.309 -1.79735 1.20516 0
M  V30 9595 C 917.904 0.814775 3.28857 0
M  V30 9596 C 916.463 0.509839 3.72931 0
M  V30 9597 C 915.61 1.03852 2.57119 0
M  V30 9598 H 918.561 1.00143 1.23114 0
M  V30 9599 H 918.582 0.113635 3.8033 0
M  V30 9600 H 918.094 1.89078 3.38926 0
M  V30 9601 H 916.195 -0.557289 3.68409 0
M  V30 9602 H 916.308 1.04493 4.67566 0
M  V30 9603 H 914.672 0.460671 2.50499 0
M  V30 9604 H 915.455 2.12071 2.69964 0
M  V30 9605 N 917.9 -1.47166 0.563914 0
M  V30 9606 C 919.316 -1.58018 0.224173 0
M  V30 9607 C 919.516 -1.56163 -1.27339 0
M  V30 9608 O 918.572 -1.4686 -2.05398 0
M  V30 9609 C 919.885 -2.88236 0.856762 0
M  V30 9610 C 921.433 -3.01833 0.82861 0
M  V30 9611 C 921.908 -4.34761 1.44039 0
M  V30 9612 N 923.399 -4.41413 1.40388 0
M  V30 9613 C 924.134 -5.42845 1.84681 0
M  V30 9614 N 923.63 -6.51052 2.3686 0
M  V30 9615 N 925.423 -5.33931 1.75711 0
M  V30 9616 H 917.574 -1.46615 1.53681 0
M  V30 9617 H 919.837 -0.698195 0.64127 0
M  V30 9618 H 919.543 -2.95349 1.90949 0
M  V30 9619 H 919.417 -3.75537 0.353766 0
M  V30 9620 H 921.804 -2.94312 -0.215451 0
M  V30 9621 H 921.885 -2.16056 1.36943 0
M  V30 9622 H 921.529 -4.43037 2.48355 0
M  V30 9623 H 921.459 -5.1928 0.874953 0
M  V30 9624 H 923.95 -3.63811 1.02227 0
M  V30 9625 H 924.263 -7.24633 2.68564 0
M  V30 9626 H 922.608 -6.51924 2.40875 0
M  V30 9627 H 925.799 -4.48295 1.34718 0
M  V30 9628 H 925.972 -6.12841 2.10547 0
M  V30 9629 N 919.378 -0.300708 -1.54705 0
M  V30 9630 C 920.627 0.309428 -1.99312 0
M  V30 9631 C 920.94 1.55027 -1.19272 0
M  V30 9632 O 922.146 2.23498 -1.54146 0
M  V30 9633 C 920.602 0.601856 -3.54832 0
M  V30 9634 C 920.21 -0.620636 -4.4368 0
M  V30 9635 C 921.954 1.1732 -4.07966 0
M  V30 9636 C 919.861 -0.301376 -5.90632 0
M  V30 9637 H 918.791 0.119395 -0.744487 0
M  V30 9638 H 921.442 -0.409368 -1.78875 0
M  V30 9639 H 919.824 1.38024 -3.71168 0
M  V30 9640 H 920.998 -1.39685 -4.39118 0
M  V30 9641 H 919.313 -1.1106 -4.01316 0
M  V30 9642 H 921.91 1.42631 -5.15326 0
M  V30 9643 H 922.253 2.11537 -3.5855 0
M  V30 9644 H 922.786 0.456534 -3.95172 0
M  V30 9645 H 919.525 -1.21209 -6.44196 0
M  V30 9646 H 919.045 0.437574 -5.98202 0
M  V30 9647 H 920.724 0.097164 -6.46927 0
M  V30 9648 N 920.856 1.57574 -0.0284266 0
M  V30 9649 C 921.766 2.13637 0.96936 0
M  V30 9650 C 922.782 1.08845 1.35752 0
M  V30 9651 O 923.958 1.40899 1.43908 0
M  V30 9652 C 921.023 2.65179 2.2334 0
M  V30 9653 C 920.084 3.84683 1.90572 0
M  V30 9654 C 919.317 4.33758 3.1095 0
M  V30 9655 O 919.54 3.82009 4.23586 0
M  V30 9656 O 918.474 5.2561 2.93288 0
M  V30 9657 H 922.3 2.99169 0.52267 0
M  V30 9658 H 919.885 1.48159 0.192135 0
M  V30 9659 H 921.767 2.98402 2.97547 0
M  V30 9660 H 920.442 1.82731 2.67191 0
M  V30 9661 H 919.349 3.56386 1.13753 0
M  V30 9662 H 920.682 4.68292 1.51538 0
M  V30 9663 N 922.334 -0.244713 1.55689 0
M  V30 9664 C 923.559 -0.994157 1.8202 0
M  V30 9665 C 923.984 -1.78079 0.60577 0
M  V30 9666 O 923.342 -1.75748 -0.445221 0
M  V30 9667 C 923.39 -1.90599 3.06111 0
M  V30 9668 O 922.494 -2.99804 2.8318 0
M  V30 9669 H 921.835 -0.282767 0.600782 0
M  V30 9670 H 924.365 -0.26504 2.02876 0
M  V30 9671 H 924.375 -2.32023 3.35603 0
M  V30 9672 H 923.05 -1.32763 3.9414 0
M  V30 9673 H 921.627 -2.62493 2.64862 0
M  V30 9674 N 923.813 -1.49104 -0.510467 0
M  V30 9675 C 925.038 -1.62068 -1.29417 0
M  V30 9676 C 925.463 -0.288432 -1.85875 0
M  V30 9677 O 924.821 0.742667 -1.65391 0
M  V30 9678 C 924.869 -2.68506 -2.40701 0
M  V30 9679 O 923.973 -2.27021 -3.4429 0
M  V30 9680 H 923.314 -0.542778 -0.382476 0
M  V30 9681 H 925.844 -1.95228 -0.612154 0
M  V30 9682 H 925.854 -2.90383 -2.86604 0
M  V30 9683 H 924.529 -3.65216 -1.98973 0
M  V30 9684 H 923.106 -2.15436 -3.04371 0
M  V30 9685 N 925.291 0.760815 -1.38019 0
M  V30 9686 C 926.516 1.55513 -1.37224 0
M  V30 9687 C 926.941 1.88062 0.037611 0
M  V30 9688 O 926.299 1.50042 1.0177 0
M  V30 9689 C 926.347 2.83539 -2.22796 0
M  V30 9690 O 925.451 3.78384 -1.64009 0
M  V30 9691 H 924.792 0.470642 -0.468393 0
M  V30 9692 H 927.322 0.940792 -1.81687 0
M  V30 9693 H 927.332 3.32535 -2.36399 0
M  V30 9694 H 926.007 2.59178 -3.25269 0
M  V30 9695 H 924.584 3.37063 -1.59508 0
M  V30 9696 N 926.769 1.22769 0.988202 0
M  V30 9697 C 927.699 1.02627 2.09738 0
M  V30 9698 C 928.68 -0.0543211 1.70013 0
M  V30 9699 O 929.865 0.108811 1.93895 0
M  V30 9700 C 926.995 0.608302 3.41931 0
M  V30 9701 C 925.949 1.63536 3.95525 0
M  V30 9702 C 925.275 1.07308 5.23822 0
M  V30 9703 C 926.575 3.02649 4.25677 0
M  V30 9704 H 928.269 1.954 2.26847 0
M  V30 9705 H 925.815 0.940888 1.09011 0
M  V30 9706 H 927.768 0.454478 4.18942 0
M  V30 9707 H 926.492 -0.355095 3.24664 0
M  V30 9708 H 925.151 1.77704 3.20651 0
M  V30 9709 H 924.799 0.100894 5.02899 0
M  V30 9710 H 924.499 1.75925 5.60646 0
M  V30 9711 H 926.023 0.930938 6.03462 0
M  V30 9712 H 927.437 2.91828 4.93467 0
M  V30 9713 H 925.834 3.68434 4.73684 0
M  V30 9714 H 926.904 3.52228 3.33262 0
M  V30 9715 N 928.247 -1.18576 1.03814 0
M  V30 9716 C 929.179 -2.21607 0.585055 0
M  V30 9717 C 930.192 -1.59125 -0.343963 0
M  V30 9718 O 931.381 -1.77959 -0.138882 0
M  V30 9719 C 928.481 -3.38495 -0.165602 0
M  V30 9720 C 927.654 -4.30557 0.770662 0
M  V30 9721 C 926.713 -5.26161 0.0637534 0
M  V30 9722 O 925.739 -5.64961 0.693359 0
M  V30 9723 N 926.941 -5.67882 -1.20377 0
M  V30 9724 H 929.706 -2.61104 1.47121 0
M  V30 9725 H 927.267 -1.33336 0.918316 0
M  V30 9726 H 929.259 -3.99474 -0.648292 0
M  V30 9727 H 927.829 -2.97711 -0.953268 0
M  V30 9728 H 927.049 -3.67221 1.43326 0
M  V30 9729 H 928.337 -4.88969 1.40667 0
M  V30 9730 H 927.735 -5.38409 -1.73586 0
M  V30 9731 H 926.292 -6.31069 -1.63079 0
M  V30 9732 N 929.725 -0.817259 -1.34754 0
M  V30 9733 C 930.973 -0.401852 -1.98065 0
M  V30 9734 C 931.294 1.03718 -1.65129 0
M  V30 9735 O 930.564 1.71921 -0.939141 0
M  V30 9736 H 929.144 -0.145603 -0.732672 0
M  V30 9737 H 931.806 -1.04545 -1.64488 0
M  V30 9738 H 930.902 -0.516241 -3.07801 0
M  V30 9739 N 931.203 1.46865 -0.571711 0
M  V30 9740 C 932.133 2.3298 0.155795 0
M  V30 9741 C 933.114 1.44678 0.894553 0
M  V30 9742 O 934.299 1.73513 0.872176 0
M  V30 9743 C 931.429 3.26745 1.17708 0
M  V30 9744 C 930.383 4.24401 0.553863 0
M  V30 9745 C 929.709 5.07595 1.68083 0
M  V30 9746 C 931.009 5.19884 -0.501827 0
M  V30 9747 H 932.703 2.94056 -0.563176 0
M  V30 9748 H 930.249 1.41402 -0.27228 0
M  V30 9749 H 932.202 3.85838 1.6943 0
M  V30 9750 H 930.926 2.63753 1.92618 0
M  V30 9751 H 929.585 3.66554 0.057815 0
M  V30 9752 H 929.233 4.40996 2.41933 0
M  V30 9753 H 928.933 5.73722 1.26953 0
M  V30 9754 H 930.457 5.6955 2.20103 0
M  V30 9755 H 931.871 5.73257 -0.0701057 0
M  V30 9756 H 930.268 5.94293 -0.832815 0
M  V30 9757 H 931.338 4.64482 -1.39229 0
M  V30 9758 N 932.681 0.308908 1.54543 0
M  V30 9759 C 933.929 -0.297447 1.99899 0
M  V30 9760 C 934.25 -1.53799 1.19878 0
M  V30 9761 O 933.52 -1.93639 0.29678 0
M  V30 9762 H 932.1 -0.112897 0.738419 0
M  V30 9763 H 934.762 0.422067 1.90275 0
M  V30 9764 H 933.858 -0.564016 3.06961 0
M  V30 9765 N 934.159 -1.57557 0.0367827 0
M  V30 9766 C 935.575 -1.56366 -0.31967 0
M  V30 9767 C 935.775 -1.04313 -1.72398 0
M  V30 9768 O 934.831 -0.693278 -2.42796 0
M  V30 9769 C 936.144 -3.00267 -0.161274 0
M  V30 9770 C 937.692 -3.12128 -0.233464 0
M  V30 9771 C 938.167 -4.57882 -0.103767 0
M  V30 9772 N 939.658 -4.62922 -0.160506 0
M  V30 9773 C 940.393 -5.73338 -0.0840493 0
M  V30 9774 N 939.889 -6.92786 0.043933 0
M  V30 9775 N 941.682 -5.61929 -0.138592 0
M  V30 9776 H 933.833 -1.8972 0.954996 0
M  V30 9777 H 936.096 -0.87304 0.369467 0
M  V30 9778 H 935.802 -3.42331 0.80639 0
M  V30 9779 H 935.676 -3.65599 -0.928304 0
M  V30 9780 H 938.063 -2.69972 -1.19159 0
M  V30 9781 H 938.144 -2.49503 0.564075 0
M  V30 9782 H 937.788 -5.0072 0.850973 0
M  V30 9783 H 937.718 -5.18496 -0.920268 0
M  V30 9784 H 940.209 -3.7701 -0.259257 0
M  V30 9785 H 940.522 -7.72741 0.095372 0
M  V30 9786 H 938.867 -6.94955 0.0788211 0
M  V30 9787 H 942.058 -4.67499 -0.237031 0
M  V30 9788 H 942.231 -6.47956 -0.075546 0
M  V30 9789 N 935.637 0.236453 -1.55816 0
M  V30 9790 C 936.567 1.29639 -1.94206 0
M  V30 9791 C 937.548 1.49667 -0.808319 0
M  V30 9792 O 938.733 1.621 -1.06945 0
M  V30 9793 C 935.863 2.64914 -2.24584 0
M  V30 9794 C 934.817 2.59565 -3.40308 0
M  V30 9795 C 934.143 3.98732 -3.56254 0
M  V30 9796 C 935.443 2.15642 -4.75706 0
M  V30 9797 H 937.137 0.977552 -2.82992 0
M  V30 9798 H 934.683 0.468804 -1.36155 0
M  V30 9799 H 936.636 3.39209 -2.50031 0
M  V30 9800 H 935.36 2.98455 -1.32636 0
M  V30 9801 H 934.019 1.87728 -3.14887 0
M  V30 9802 H 933.667 4.29556 -2.61707 0
M  V30 9803 H 933.367 3.96039 -4.34082 0
M  V30 9804 H 934.891 4.74711 -3.84033 0
M  V30 9805 H 936.305 2.79673 -5.00456 0
M  V30 9806 H 934.702 2.24039 -5.56711 0
M  V30 9807 H 935.772 1.10831 -4.72064 0
M  V30 9808 N 937.115 1.49373 0.502552 0
M  V30 9809 C 938.361 1.59016 1.25864 0
M  V30 9810 C 938.694 0.27532 1.92238 0
M  V30 9811 O 937.969 -0.720988 1.80643 0
M  V30 9812 C 938.252 2.74828 2.32683 0
M  V30 9813 C 938.105 4.16102 1.7082 0
M  V30 9814 C 939.424 2.86288 3.34256 0
M  V30 9815 H 936.543 0.578798 0.456248 0
M  V30 9816 H 939.185 1.81651 0.557032 0
M  V30 9817 H 937.335 2.5566 2.92524 0
M  V30 9818 H 939.007 4.46782 1.14818 0
M  V30 9819 H 937.25 4.21822 1.01238 0
M  V30 9820 H 937.921 4.93006 2.48292 0
M  V30 9821 H 940.397 3.03733 2.84404 0
M  V30 9822 H 939.273 3.69001 4.06362 0
M  V30 9823 H 939.534 1.95576 3.96488 0
M  V30 9824 N 938.594 -0.753485 1.38421 0
M  V30 9825 C 939.843 -1.50797 1.33952 0
M  V30 9826 C 940.156 -1.95482 -0.0678464 0
M  V30 9827 O 941.362 -2.7048 -0.235078 0
M  V30 9828 C 939.818 -2.72393 2.35224 0
M  V30 9829 C 939.426 -2.34733 3.81582 0
M  V30 9830 C 941.17 -3.50281 2.39798 0
M  V30 9831 C 939.077 -3.52939 4.7454 0
M  V30 9832 H 938.007 -0.566211 0.497916 0
M  V30 9833 H 940.658 -0.823659 1.63976 0
M  V30 9834 H 939.04 -3.42806 1.98243 0
M  V30 9835 H 940.214 -1.71985 4.27502 0
M  V30 9836 H 938.529 -1.69978 3.80127 0
M  V30 9837 H 941.126 -4.38172 3.06447 0
M  V30 9838 H 941.469 -3.91444 1.41695 0
M  V30 9839 H 942.002 -2.86881 2.75579 0
M  V30 9840 H 938.741 -3.16843 5.73839 0
M  V30 9841 H 938.261 -4.1473 4.33312 0
M  V30 9842 H 939.94 -4.19519 4.92557 0
M  V30 9843 N 940.072 -1.23292 -0.981677 0
M  V30 9844 C 941.035 -1.01417 -2.05542 0
M  V30 9845 C 942.035 0.0235354 -1.60783 0
M  V30 9846 O 943.225 -0.216082 -1.72855 0
M  V30 9847 C 940.357 -0.534239 -3.36688 0
M  V30 9848 H 941.55 -1.96702 -2.26381 0
M  V30 9849 H 939.103 -1.05318 -1.1549 0
M  V30 9850 H 939.838 0.422452 -3.21537 0
M  V30 9851 H 939.623 -1.28304 -3.70514 0
M  V30 9852 H 941.113 -0.40179 -4.15663 0
M  V30 9853 N 941.55 1.18024 -1.04442 0
M  V30 9854 C 942.775 1.92573 -0.770097 0
M  V30 9855 C 943.2 1.75871 0.667169 0
M  V30 9856 O 942.558 1.07136 1.46258 0
M  V30 9857 C 942.606 3.41904 -1.14602 0
M  V30 9858 O 941.71 4.11491 -0.273712 0
M  V30 9859 H 941.051 0.600636 -0.283076 0
M  V30 9860 H 943.581 1.49645 -1.39526 0
M  V30 9861 H 943.591 3.92623 -1.10956 0
M  V30 9862 H 942.266 3.53382 -2.19304 0
M  V30 9863 H 940.843 3.71059 -0.370124 0
M  V30 9864 N 943.028 0.824394 1.34319 0
M  V30 9865 C 944.253 0.425194 2.02995 0
M  V30 9866 C 944.678 -0.961476 1.6167 0
M  V30 9867 O 944.036 -1.62593 0.80207 0
M  V30 9868 C 944.084 0.537004 3.56579 0
M  V30 9869 O 943.188 -0.442576 4.10018 0
M  V30 9870 H 942.529 0.174853 0.640564 0
M  V30 9871 H 945.059 1.11522 1.71534 0
M  V30 9872 H 945.069 0.413311 4.05901 0
M  V30 9873 H 943.744 1.54836 3.86004 0
M  V30 9874 H 942.321 -0.277644 3.71865 0
M  V30 9875 N 944.506 -1.46559 0.579492 0
M  V30 9876 C 945.783 -1.956 -0.00287136 0
M  V30 9877 C 946.163 -1.52215 -1.46266 0
M  V30 9878 O 945.511 -0.771335 -2.15088 0
M  V30 9879 C 945.721 -3.48606 0.165824 0
M  V30 9880 C 947.069 -4.24588 0.0319807 0
M  V30 9881 O 948.093 -3.56075 0.094496 0
M  V30 9882 O 946.952 -5.46396 -0.106386 0
M  V30 9883 H 944.046 -0.825387 -0.0516274 0
M  V30 9884 H 946.592 -1.56858 0.647584 0
M  V30 9885 H 945.364 -3.7306 1.18076 0
M  V30 9886 H 944.987 -3.94169 -0.521212 0
M  V30 9887 N 945.984 -0.3171 -1.54377 0
M  V30 9888 C 946.914 0.544623 -2.2706 0
M  V30 9889 C 947.895 1.12469 -1.27611 0
M  V30 9890 O 949.08 1.15103 -1.56413 0
M  V30 9891 C 946.21 1.70879 -3.02353 0
M  V30 9892 C 945.164 1.25833 -4.09084 0
M  V30 9893 C 944.49 2.50894 -4.72182 0
M  V30 9894 C 945.79 0.377876 -5.20931 0
M  V30 9895 H 947.484 -0.0616372 -2.99337 0
M  V30 9896 H 945.03 -0.0310848 -1.43966 0
M  V30 9897 H 946.983 2.31787 -3.51927 0
M  V30 9898 H 945.707 2.34155 -2.27682 0
M  V30 9899 H 944.366 0.672228 -3.60384 0
M  V30 9900 H 944.014 3.12518 -3.94134 0
M  V30 9901 H 943.714 2.21447 -5.44275 0
M  V30 9902 H 945.238 3.12575 -5.24528 0
M  V30 9903 H 946.652 0.893056 -5.66302 0
M  V30 9904 H 945.049 0.176474 -5.9984 0
M  V30 9905 H 946.119 -0.592943 -4.81261 0
M  V30 9906 N 947.462 1.57535 -0.0451378 0
M  V30 9907 C 948.711 1.91628 0.629415 0
M  V30 9908 C 949.024 0.924754 1.72359 0
M  V30 9909 O 950.23 1.15751 2.45589 0
M  V30 9910 C 948.686 3.40322 1.17084 0
M  V30 9911 C 948.294 4.47867 0.109101 0
M  V30 9912 C 950.038 3.83458 1.82099 0
M  V30 9913 C 947.945 5.87671 0.663072 0
M  V30 9914 H 946.875 0.715163 0.238868 0
M  V30 9915 H 949.526 1.83151 -0.113046 0
M  V30 9916 H 947.908 3.43783 1.96543 0
M  V30 9917 H 949.082 4.55988 -0.664201 0
M  V30 9918 H 947.397 4.14034 -0.443227 0
M  V30 9919 H 949.994 4.85273 2.2453 0
M  V30 9920 H 950.337 3.19379 2.67026 0
M  V30 9921 H 950.87 3.82488 1.09305 0
M  V30 9922 H 947.609 6.55332 -0.148423 0
M  V30 9923 H 947.129 5.83124 1.4045 0
M  V30 9924 H 948.808 6.36737 1.14785 0
M  V30 9925 N 948.94 -0.228186 1.55939 0
M  V30 9926 C 950.186 -0.950604 1.7982 0
M  V30 9927 C 950.541 -1.82236 0.617079 0
M  V30 9928 O 949.834 -1.87607 -0.389102 0
M  V30 9929 C 950.028 -1.82924 3.0704 0
M  V30 9930 C 949.857 -1.04403 4.37413 0
M  V30 9931 C 948.627 -0.741613 4.99828 0
M  V30 9932 C 950.825 -0.412534 5.12643 0
M  V30 9933 N 948.807 0.0656922 6.13865 0
M  V30 9934 C 950.178 0.258471 6.19461 0
M  V30 9935 C 952.233 -0.324893 4.96839 0
M  V30 9936 C 950.936 1.00873 7.12192 0
M  V30 9937 C 952.962 0.411878 5.89964 0
M  V30 9938 C 952.324 1.07145 6.96203 0
M  V30 9939 H 948.423 -0.328336 0.709732 0
M  V30 9940 H 951.007 -0.222056 1.9343 0
M  V30 9941 H 949.178 -2.52966 2.94725 0
M  V30 9942 H 950.91 -2.48863 3.19139 0
M  V30 9943 H 947.665 -1.05801 4.61631 0
M  V30 9944 H 948.089 0.457986 6.75449 0
M  V30 9945 H 952.731 -0.820485 4.14762 0
M  V30 9946 H 950.449 1.51586 7.93755 0
M  V30 9947 H 954.035 0.480606 5.79812 0
M  V30 9948 H 952.915 1.63245 7.67021 0
M  V30 9949 N 950.418 -1.49637 -0.494624 0
M  V30 9950 C 951.829 -1.52573 -1.07603 0
M  V30 9951 C 952.18 -0.315591 -1.93645 0
M  V30 9952 O 951.305 0.573966 -2.08649 0
M  V30 9953 C 951.9 -2.7648 -1.95817 0
M  V30 9954 C 950.459 -2.82173 -2.49109 0
M  V30 9955 C 949.606 -2.4657 -1.2688 0
M  V30 9956 H 952.557 -1.56242 -0.278251 0
M  V30 9957 H 952.578 -2.57003 -2.80588 0
M  V30 9958 H 952.09 -3.64538 -1.33167 0
M  V30 9959 H 950.191 -1.9841 -3.15379 0
M  V30 9960 H 950.304 -3.84501 -2.85825 0
M  V30 9961 H 948.668 -1.98489 -1.59607 0
M  V30 9962 H 949.451 -3.3691 -0.659281 0
M  V30 9963 N 951.896 0.746133 -1.38819 0
M  V30 9964 C 953.121 1.54049 -1.38866 0
M  V30 9965 C 953.546 1.88092 0.0176624 0
M  V30 9966 O 952.904 1.51113 1.00173 0
M  V30 9967 C 952.952 2.8116 -2.25791 0
M  V30 9968 O 952.056 3.76623 -1.68014 0
M  V30 9969 H 951.397 0.465648 -0.473359 0
M  V30 9970 H 953.927 0.921469 -1.82675 0
M  V30 9971 H 953.937 3.30009 -2.39913 0
M  V30 9972 H 952.612 2.55713 -3.27999 0
M  V30 9973 H 951.189 3.35352 -1.63074 0
M  V30 9974 N 953.375 1.23811 0.975125 0
M  V30 9975 C 954.623 1.07124 1.71373 0
M  V30 9976 C 954.944 -0.391864 1.91022 0
M  V30 9977 O 954.214 -1.28041 1.48265 0
M  V30 9978 H 952.794 0.393415 0.635007 0
M  V30 9979 H 955.456 1.55612 1.17349 0
M  V30 9980 H 954.552 1.56338 2.7012 0
M  V30 9981 N 954.853 -1.17469 1.05066 0
M  V30 9982 C 956.102 -1.87032 0.755114 0
M  V30 9983 C 956.415 -1.81844 -0.720572 0
M  V30 9984 O 957.621 -2.46866 -1.13002 0
M  V30 9985 C 956.077 -3.35581 1.30052 0
M  V30 9986 C 955.685 -3.49274 2.80556 0
M  V30 9987 C 957.429 -4.1048 1.08196 0
M  V30 9988 C 955.336 -4.91838 3.28404 0
M  V30 9989 H 954.266 -0.70057 0.278779 0
M  V30 9990 H 956.917 -1.32663 1.26779 0
M  V30 9991 H 955.299 -3.89479 0.715667 0
M  V30 9992 H 956.473 -3.05598 3.44886 0
M  V30 9993 H 954.788 -2.87793 3.00939 0
M  V30 9994 H 957.385 -5.15652 1.41447 0
M  V30 9995 H 957.728 -4.16295 0.0196603 0
M  V30 9996 H 958.261 -3.62784 1.63195 0
M  V30 9997 H 955 -4.91196 4.34058 0
M  V30 9998 H 954.52 -5.36189 2.68815 0
M  V30 9999 H 956.199 -5.60602 3.23009 0
M  V30 10000 N 956.331 -0.831506 -1.3388 0
M  V30 10001 C 957.559 -0.436925 -2.02234 0
M  V30 10002 C 957.974 0.959689 -1.6259 0
M  V30 10003 O 957.331 1.62248 -0.835576 0
M  V30 10004 C 957.382 -0.539429 -3.57453 0
M  V30 10005 O 957.103 -1.88101 -3.95664 0
M  V30 10006 C 958.604 -0.140852 -4.43076 0
M  V30 10007 H 955.824 -0.174302 -0.647966 0
M  V30 10008 H 958.368 -1.12204 -1.70969 0
M  V30 10009 H 956.523 0.0976959 -3.87277 0
M  V30 10010 H 956.937 -1.86131 -4.90363 0
M  V30 10011 H 958.411 -0.26364 -5.5137 0
M  V30 10012 H 958.888 0.916505 -4.29531 0
M  V30 10013 H 959.494 -0.752117 -4.18597 0
M  V30 10014 N 957.809 1.4625 -0.587256 0
M  V30 10015 C 959.058 2.01571 -0.0722643 0
M  V30 10016 C 959.371 1.46385 1.29733 0
M  V30 10017 O 960.577 1.93554 1.90392 0
M  V30 10018 C 959.033 3.59814 -0.078579 0
M  V30 10019 C 958.641 4.23996 -1.44678 0
M  V30 10020 C 960.385 4.22776 0.382231 0
M  V30 10021 C 958.292 5.74332 -1.41057 0
M  V30 10022 H 957.222 0.753642 -0.0232461 0
M  V30 10023 H 959.873 1.67936 -0.739577 0
M  V30 10024 H 958.255 3.90546 0.654988 0
M  V30 10025 H 959.429 4.04867 -2.20043 0
M  V30 10026 H 957.744 3.73147 -1.84799 0
M  V30 10027 H 960.341 5.32983 0.428182 0
M  V30 10028 H 960.684 3.92027 1.40072 0
M  V30 10029 H 961.217 3.96687 -0.297417 0
M  V30 10030 H 957.956 6.09747 -2.40601 0
M  V30 10031 H 957.476 5.95711 -0.699185 0
M  V30 10032 H 959.155 6.37137 -1.12543 0
M  V30 10033 N 959.287 0.325282 1.54207 0
M  V30 10034 C 960.564 -0.33113 1.92777 0
M  V30 10035 C 960.944 -1.69739 1.25506 0
M  V30 10036 O 960.292 -2.24983 0.399385 0
M  V30 10037 C 960.502 -0.421636 3.46444 0
M  V30 10038 C 961.85 -0.681111 4.19101 0
M  V30 10039 O 962.874 -0.504488 3.52609 0
M  V30 10040 O 961.733 -1.02196 5.3686 0
M  V30 10041 H 958.827 -0.18943 0.805013 0
M  V30 10042 H 961.373 0.375123 1.65502 0
M  V30 10043 H 960.145 0.537862 3.87586 0
M  V30 10044 H 959.768 -1.1754 3.79829 0
M  V30 10045 N 960.765 -1.57509 0.0534917 0
M  V30 10046 C 962.012 -1.92782 -0.619772 0
M  V30 10047 C 962.34 -0.932046 -1.70714 0
M  V30 10048 O 961.595 0.0552891 -1.95622 0
M  V30 10049 C 961.894 -3.34734 -1.25251 0
M  V30 10050 C 961.56 -4.49946 -0.293113 0
M  V30 10051 C 960.222 -4.81191 -0.0291223 0
M  V30 10052 C 962.574 -5.19925 0.364271 0
M  V30 10053 C 959.902 -5.79761 0.899649 0
M  V30 10054 C 962.254 -6.19489 1.28125 0
M  V30 10055 C 960.918 -6.49161 1.55389 0
M  V30 10056 H 960.188 -0.705441 -0.226791 0
M  V30 10057 H 962.835 -1.91121 0.120466 0
M  V30 10058 H 961.14 -3.32774 -2.06807 0
M  V30 10059 H 962.837 -3.59308 -1.78042 0
M  V30 10060 H 959.427 -4.25566 -0.509053 0
M  V30 10061 H 963.611 -4.95997 0.173411 0
M  V30 10062 H 958.867 -6.01085 1.11833 0
M  V30 10063 H 963.041 -6.72824 1.79669 0
M  V30 10064 H 960.668 -7.25354 2.2752 0
M  V30 10065 N 962.243 0.219913 -1.56058 0
M  V30 10066 C 963.173 1.27572 -1.9557 0
M  V30 10067 C 964.154 1.48801 -0.824148 0
M  V30 10068 O 965.339 1.60957 -1.08658 0
M  V30 10069 C 962.469 2.62517 -2.27381 0
M  V30 10070 C 961.423 2.55941 -3.43042 0
M  V30 10071 C 960.749 3.94931 -3.60463 0
M  V30 10072 C 962.049 2.10584 -4.77966 0
M  V30 10073 H 963.743 0.947482 -2.84013 0
M  V30 10074 H 961.289 0.454337 -1.36645 0
M  V30 10075 H 963.242 3.36538 -2.53615 0
M  V30 10076 H 961.966 2.97031 -1.35794 0
M  V30 10077 H 960.625 1.84377 -3.1686 0
M  V30 10078 H 960.273 4.26756 -2.66249 0
M  V30 10079 H 959.973 3.91413 -4.38258 0
M  V30 10080 H 961.497 4.70611 -3.89046 0
M  V30 10081 H 962.911 2.74349 -5.03394 0
M  V30 10082 H 961.308 2.18122 -5.59055 0
M  V30 10083 H 962.378 1.05818 -4.73213 0
M  V30 10084 N 963.721 1.49897 0.486681 0
M  V30 10085 C 964.949 1.63837 1.26353 0
M  V30 10086 C 965.364 0.315428 1.86146 0
M  V30 10087 O 964.721 -0.700831 1.68507 0
M  V30 10088 C 964.772 2.71792 2.38351 0
M  V30 10089 O 964.493 3.98956 1.81013 0
M  V30 10090 C 965.994 2.96566 3.2949 0
M  V30 10091 H 963.214 0.551158 0.382709 0
M  V30 10092 H 965.758 1.96023 0.582694 0
M  V30 10093 H 963.913 2.42344 3.02238 0
M  V30 10094 H 964.327 4.58536 2.54647 0
M  V30 10095 H 965.801 3.75803 4.04322 0
M  V30 10096 H 966.278 2.07031 3.87343 0
M  V30 10097 H 966.884 3.27485 2.71355 0
M  V30 10098 N 965.199 -0.738761 1.39212 0
M  V30 10099 C 966.476 -1.48982 1.26742 0
M  V30 10100 C 966.856 -2.10732 -0.12466 0
M  V30 10101 O 966.204 -1.98287 -1.13554 0
M  V30 10102 C 966.414 -2.54427 2.38889 0
M  V30 10103 C 967.762 -3.20915 2.78027 0
M  V30 10104 O 968.786 -2.64738 2.38311 0
M  V30 10105 O 967.645 -4.22558 3.46565 0
M  V30 10106 H 964.739 -0.661395 0.496473 0
M  V30 10107 H 967.285 -0.772907 1.51077 0
M  V30 10108 H 966.057 -2.07151 3.3197 0
M  V30 10109 H 965.68 -3.33682 2.162 0
M  V30 10110 N 966.677 -1.24326 -0.968545 0
M  V30 10111 C 967.624 -1.0349 -2.06297 0
M  V30 10112 C 968.594 0.0515333 -1.6602 0
M  V30 10113 O 969.779 -0.102924 -1.90522 0
M  V30 10114 C 966.919 -0.64487 -3.39021 0
M  V30 10115 C 966.032 -1.80469 -3.92498 0
M  V30 10116 C 965.167 -1.36032 -5.13487 0
M  V30 10117 C 964.206 -2.49014 -5.59159 0
M  V30 10118 N 963.343 -2.05451 -6.71367 0
M  V30 10119 H 968.183 -1.97161 -2.23454 0
M  V30 10120 H 965.72 -0.982028 -1.0952 0
M  V30 10121 H 967.678 -0.399771 -4.1528 0
M  V30 10122 H 966.308 0.254845 -3.21792 0
M  V30 10123 H 965.36 -2.16348 -3.12886 0
M  V30 10124 H 966.672 -2.65365 -4.22354 0
M  V30 10125 H 965.826 -1.07405 -5.97117 0
M  V30 10126 H 964.565 -0.481887 -4.85313 0
M  V30 10127 H 963.57 -2.78402 -4.74102 0
M  V30 10128 H 964.795 -3.37413 -5.89346 0
M  V30 10129 H 962.741 -1.20004 -6.4493 0
M  V30 10130 H 962.658 -2.83901 -7.00668 0
M  V30 10131 H 963.926 -1.79962 -7.58442 0
M  V30 10132 N 968.156 1.1691 -1.05688 0
M  V30 10133 C 969.086 2.23275 -0.683402 0
M  V30 10134 C 970.067 1.6704 0.321206 0
M  V30 10135 O 971.252 1.93191 0.197691 0
M  V30 10136 C 968.382 3.47244 -0.0626006 0
M  V30 10137 C 967.336 4.16333 -0.992513 0
M  V30 10138 C 966.662 5.34182 -0.23533 0
M  V30 10139 C 967.962 4.68002 -2.31886 0
M  V30 10140 H 969.656 2.54771 -1.57264 0
M  V30 10141 H 967.202 1.2246 -0.757606 0
M  V30 10142 H 969.155 4.20874 0.210503 0
M  V30 10143 H 967.879 3.1503 0.861616 0
M  V30 10144 H 966.538 3.44622 -1.25026 0
M  V30 10145 H 966.186 4.9822 0.69181 0
M  V30 10146 H 965.886 5.81346 -0.855002 0
M  V30 10147 H 967.41 6.10592 0.0303717 0
M  V30 10148 H 968.824 5.33244 -2.10531 0
M  V30 10149 H 967.221 5.25764 -2.89296 0
M  V30 10150 H 968.291 3.84541 -2.95391 0
M  V30 10151 N 969.634 0.838594 1.33437 0
M  V30 10152 C 970.864 0.446995 2.01707 0
M  V30 10153 C 971.272 -0.956335 1.63251 0
M  V30 10154 O 970.615 -1.63289 0.841566 0
M  V30 10155 C 970.677 0.487707 3.56176 0
M  V30 10156 C 970.341 1.8471 4.18009 0
M  V30 10157 C 971.338 2.81028 4.374 0
M  V30 10158 C 969.023 2.13987 4.54439 0
M  V30 10159 C 971.017 4.04785 4.92369 0
M  V30 10160 C 968.704 3.38 5.09116 0
M  V30 10161 C 969.702 4.33216 5.28027 0
M  V30 10162 O 969.39 5.55036 5.81541 0
M  V30 10163 H 969.122 0.175799 0.652741 0
M  V30 10164 H 971.676 1.13265 1.71348 0
M  V30 10165 H 969.906 -0.254719 3.8586 0
M  V30 10166 H 971.595 0.113971 4.0574 0
M  V30 10167 H 972.361 2.5971 4.09604 0
M  V30 10168 H 968.24 1.40668 4.39014 0
M  V30 10169 H 971.784 4.79114 5.07046 0
M  V30 10170 H 967.681 3.59175 5.36343 0
M  V30 10171 H 968.449 5.56772 5.99956 0
M  V30 10172 N 971.112 -1.45937 0.595003 0
M  V30 10173 C 972.358 -2.03184 0.0938125 0
M  V30 10174 C 972.713 -1.45675 -1.25684 0
M  V30 10175 O 972.006 -0.617122 -1.8139 0
M  V30 10176 C 972.2 -3.57396 -0.0173747 0
M  V30 10177 C 972.029 -4.29861 1.32096 0
M  V30 10178 C 970.799 -4.68285 1.89835 0
M  V30 10179 C 972.997 -4.6262 2.24693 0
M  V30 10180 N 970.979 -5.25554 3.17279 0
M  V30 10181 C 972.35 -5.20589 3.36729 0
M  V30 10182 C 974.405 -4.44555 2.24221 0
M  V30 10183 C 973.108 -5.62398 4.48443 0
M  V30 10184 C 975.134 -4.87388 3.34973 0
M  V30 10185 C 974.496 -5.45439 4.4573 0
M  V30 10186 H 970.595 -0.77816 0.0773994 0
M  V30 10187 H 973.179 -1.77926 0.790599 0
M  V30 10188 H 971.35 -3.82341 -0.683354 0
M  V30 10189 H 973.082 -4.01292 -0.524073 0
M  V30 10190 H 969.837 -4.51437 1.43185 0
M  V30 10191 H 970.261 -5.58699 3.8234 0
M  V30 10192 H 974.903 -3.98998 1.39857 0
M  V30 10193 H 972.621 -6.06927 5.3354 0
M  V30 10194 H 976.207 -4.75152 3.3574 0
M  V30 10195 H 975.087 -5.77975 5.30014 0
M  V30 10196 N 972.59 -0.333456 -1.54032 0
M  V30 10197 C 973.83 0.266604 -2.02654 0
M  V30 10198 C 974.194 1.48568 -1.21621 0
M  V30 10199 O 975.395 2.15925 -1.60093 0
M  V30 10200 C 973.666 0.582825 -3.52616 0
M  V30 10201 S 975.225 1.16113 -4.23159 0
M  V30 10202 H 972.043 0.0800344 -0.706481 0
M  V30 10203 H 974.645 -0.468876 -1.89794 0
M  V30 10204 H 973.349 -0.312401 -4.09209 0
M  V30 10205 H 972.88 1.34824 -3.69576 0
M  V30 10206 H 974.895 2.44743 -4.31642 0
M  V30 10207 N 974.068 1.57479 -0.061844 0
M  V30 10208 C 975.345 1.84484 0.649993 0
M  V30 10209 C 975.725 0.952366 1.88396 0
M  V30 10210 O 975.073 0.0161035 2.28494 0
M  V30 10211 C 975.283 3.34452 0.997133 0
M  V30 10212 C 976.631 4.01724 1.37488 0
M  V30 10213 O 977.655 3.3914 1.08916 0
M  V30 10214 O 976.514 5.12091 1.90854 0
M  V30 10215 H 973.608 0.761798 0.321858 0
M  V30 10216 H 976.154 1.6945 -0.0920192 0
M  V30 10217 H 974.926 3.91115 0.120301 0
M  V30 10218 H 974.549 3.54713 1.79624 0
M  V30 10219 N 975.546 -0.211634 1.56173 0
M  V30 10220 C 976.509 -1.24588 1.92381 0
M  V30 10221 C 977.509 -1.39297 0.803311 0
M  V30 10222 O 978.699 -1.37392 1.07094 0
M  V30 10223 C 975.831 -2.61807 2.18335 0
M  V30 10224 H 977.024 -0.936814 2.84893 0
M  V30 10225 H 974.577 -0.452471 1.49607 0
M  V30 10226 H 975.312 -2.97795 1.28407 0
M  V30 10227 H 975.097 -2.52506 2.99972 0
M  V30 10228 H 976.587 -3.3642 2.4741 0
M  V30 10229 N 977.024 -1.50153 -0.478725 0
M  V30 10230 C 977.971 -1.68458 -1.57767 0
M  V30 10231 C 978.941 -0.5259 -1.57555 0
M  V30 10232 O 980.126 -0.755574 -1.75202 0
M  V30 10233 C 977.266 -1.77772 -2.95789 0
M  V30 10234 C 976.379 -3.05092 -3.05848 0
M  V30 10235 C 975.514 -3.05247 -4.34739 0
M  V30 10236 C 974.553 -4.27053 -4.38512 0
M  V30 10237 N 973.69 -4.24991 -5.58862 0
M  V30 10238 H 978.53 -2.62282 -1.41464 0
M  V30 10239 H 976.067 -1.30023 -0.687921 0
M  V30 10240 H 978.025 -1.81152 -3.75819 0
M  V30 10241 H 976.655 -0.873944 -3.10744 0
M  V30 10242 H 975.707 -3.11219 -2.1874 0
M  V30 10243 H 977.019 -3.95075 -3.04495 0
M  V30 10244 H 976.173 -3.07314 -5.23109 0
M  V30 10245 H 974.912 -2.13081 -4.38689 0
M  V30 10246 H 973.917 -4.25206 -3.4854 0
M  V30 10247 H 975.142 -5.20437 -4.36259 0
M  V30 10248 H 973.088 -3.35674 -5.63612 0
M  V30 10249 H 973.005 -5.08734 -5.59219 0
M  V30 10250 H 974.273 -4.31193 -6.49379 0
M  V30 10251 N 978.502 0.731368 -1.39602 0
M  V30 10252 C 979.434 1.85575 -1.34516 0
M  V30 10253 C 980.447 1.60818 -0.253287 0
M  V30 10254 O 981.636 1.70984 -0.512505 0
M  V30 10255 C 978.736 3.21673 -1.06676 0
M  V30 10256 C 977.909 3.73757 -2.27211 0
M  V30 10257 C 976.968 4.88426 -1.95773 0
M  V30 10258 O 975.994 5.01898 -2.68491 0
M  V30 10259 N 977.196 5.73065 -0.926083 0
M  V30 10260 H 979.961 1.90442 -2.31413 0
M  V30 10261 H 977.522 0.912258 -1.33752 0
M  V30 10262 H 979.514 3.95959 -0.836577 0
M  V30 10263 H 978.084 3.12052 -0.185003 0
M  V30 10264 H 977.304 2.90781 -2.66158 0
M  V30 10265 H 978.592 4.05289 -3.07601 0
M  V30 10266 H 977.99 5.64774 -0.323497 0
M  V30 10267 H 976.547 6.47403 -0.755795 0
M  V30 10268 N 979.98 1.24838 0.961938 0
M  V30 10269 C 981.205 1.11967 1.7458 0
M  V30 10270 C 981.63 -0.323287 1.85301 0
M  V30 10271 O 980.988 -1.23412 1.32812 0
M  V30 10272 C 981.036 1.77066 3.14134 0
M  V30 10273 O 980.14 1.04534 3.98932 0
M  V30 10274 H 979.481 0.391338 0.536424 0
M  V30 10275 H 982.011 1.65259 1.20626 0
M  V30 10276 H 982.021 1.83056 3.64629 0
M  V30 10277 H 980.696 2.82052 3.05646 0
M  V30 10278 H 979.273 1.06372 3.57407 0
M  V30 10279 N 981.458 -1.16348 1.06306 0
M  V30 10280 C 982.704 -1.87158 0.781007 0
M  V30 10281 C 983.037 -1.81499 -0.690784 0
M  V30 10282 O 982.312 -1.23074 -1.50609 0
M  V30 10283 C 982.595 -3.3672 1.27639 0
M  V30 10284 C 982.448 -3.51069 2.81194 0
M  V30 10285 C 983.767 -4.31122 0.884388 0
M  V30 10286 H 980.886 -0.679586 0.285187 0
M  V30 10287 H 983.528 -1.36756 1.31901 0
M  V30 10288 H 981.678 -3.79775 0.818715 0
M  V30 10289 H 983.35 -3.16952 3.35171 0
M  V30 10290 H 981.593 -2.92976 3.19918 0
M  V30 10291 H 982.264 -4.56105 3.10921 0
M  V30 10292 H 984.74 -3.95969 1.27858 0
M  V30 10293 H 983.616 -5.34279 1.25847 0
M  V30 10294 H 983.877 -4.41598 -0.210673 0
M  V30 10295 N 982.937 -0.845659 -1.3299 0
M  V30 10296 C 984.186 -0.440928 -1.96822 0
M  V30 10297 C 984.499 1.00668 -1.67706 0
M  V30 10298 O 985.705 1.51641 -2.25205 0
M  V30 10299 C 984.161 -0.73752 -3.52262 0
M  V30 10300 C 983.769 -2.20026 -3.90247 0
M  V30 10301 C 985.513 -0.400072 -4.22611 0
M  V30 10302 C 983.42 -2.44054 -5.38694 0
M  V30 10303 H 982.35 -0.161148 -0.736578 0
M  V30 10304 H 985.001 -1.03519 -1.51513 0
M  V30 10305 H 983.383 -0.0728025 -3.95933 0
M  V30 10306 H 984.557 -2.90602 -3.57613 0
M  V30 10307 H 982.872 -2.50135 -3.32899 0
M  V30 10308 H 985.469 -0.557136 -5.3179 0
M  V30 10309 H 985.812 0.657547 -4.11074 0
M  V30 10310 H 986.345 -1.0203 -3.84493 0
M  V30 10311 H 983.084 -3.48407 -5.55241 0
M  V30 10312 H 982.604 -1.78047 -5.72765 0
M  V30 10313 H 984.283 -2.27549 -6.05665 0
M  V30 10314 N 984.415 1.45619 -0.602734 0
M  V30 10315 C 985.325 2.34288 0.120902 0
M  V30 10316 C 986.341 1.50952 0.865414 0
M  V30 10317 O 987.517 1.83768 0.824094 0
M  V30 10318 C 984.582 3.28489 1.10888 0
M  V30 10319 C 983.643 4.2773 0.366853 0
M  V30 10320 C 982.876 5.17429 1.30776 0
M  V30 10321 O 983.099 5.10459 2.54535 0
M  V30 10322 O 982.033 5.96459 0.807464 0
M  V30 10323 H 985.859 2.97559 -0.60765 0
M  V30 10324 H 983.444 1.44922 -0.363019 0
M  V30 10325 H 985.326 3.86549 1.67803 0
M  V30 10326 H 984.001 2.67789 1.81854 0
M  V30 10327 H 982.908 3.73299 -0.244643 0
M  V30 10328 H 984.241 4.91271 -0.302226 0
M  V30 10329 N 985.893 0.34162 1.53853 0
M  V30 10330 C 986.826 -0.559051 2.21246 0
M  V30 10331 C 987.804 -1.10179 1.1958 0
M  V30 10332 O 988.988 -1.16242 1.48392 0
M  V30 10333 C 986.115 -1.7689 2.88838 0
M  V30 10334 C 985.161 -1.3558 4.04377 0
M  V30 10335 S 985.994 -0.377225 5.3417 0
M  V30 10336 C 987.15 -1.59395 6.05264 0
M  V30 10337 H 987.383 0.013373 2.97297 0
M  V30 10338 H 984.916 0.125694 1.53888 0
M  V30 10339 H 986.874 -2.463 3.284 0
M  V30 10340 H 985.535 -2.31254 2.12557 0
M  V30 10341 H 984.728 -2.25781 4.50599 0
M  V30 10342 H 984.33 -0.741197 3.66582 0
M  V30 10343 H 986.622 -2.52872 6.2854 0
M  V30 10344 H 987.565 -1.17356 6.98307 0
M  V30 10345 H 987.973 -1.78913 5.35397 0
M  V30 10346 N 987.371 -1.57444 0.0701946 0
M  V30 10347 C 988.334 -2.11511 -0.882923 0
M  V30 10348 C 989.334 -1.03879 -1.22743 0
M  V30 10349 O 990.524 -1.29874 -1.16097 0
M  V30 10350 C 987.656 -2.61514 -2.18686 0
M  V30 10351 H 988.849 -2.9703 -0.413873 0
M  V30 10352 H 986.402 -1.55278 -0.178488 0
M  V30 10353 H 987.137 -1.79443 -2.70131 0
M  V30 10354 H 986.922 -3.40185 -1.94978 0
M  V30 10355 H 988.412 -3.03425 -2.86919 0
M  V30 10356 N 988.849 0.203349 -1.56283 0
M  V30 10357 C 989.797 1.27157 -1.94766 0
M  V30 10358 C 990.791 1.4756 -0.832005 0
M  V30 10359 O 991.997 1.48519 -1.01696 0
M  V30 10360 H 988.372 0.426712 -0.61921 0
M  V30 10361 H 990.343 0.919921 -2.83866 0
M  V30 10362 C 989.092 2.6108 -2.29636 0
M  V30 10363 H 988.415 2.46193 -3.15006 0
M  V30 10364 H 989.855 3.34591 -2.60433 0
M  V30 10365 C 988.314 3.17456 -1.12799 0
M  V30 10366 O 988.844 3.99717 -0.398661 0
M  V30 10367 N 987.05 2.76084 -0.906975 0
M  V30 10368 H 986.597 2.09294 -1.50179 0
M  V30 10369 H 986.555 3.14143 -0.127005 0
M  V30 10370 N 990.327 1.50405 0.470755 0
M  V30 10371 C 991.257 1.72222 1.57676 0
M  V30 10372 C 992.238 0.57121 1.60222 0
M  V30 10373 O 993.423 0.810381 1.76484 0
M  V30 10374 C 990.553 1.81666 2.95998 0
M  V30 10375 C 989.507 2.96857 3.08318 0
M  V30 10376 C 988.833 2.91445 4.4829 0
M  V30 10377 C 990.133 4.37361 2.85504 0
M  V30 10378 H 991.827 2.64825 1.39671 0
M  V30 10379 H 989.373 1.27438 0.67049 0
M  V30 10380 H 991.326 1.95514 3.73299 0
M  V30 10381 H 990.05 0.856856 3.1516 0
M  V30 10382 H 988.709 2.82661 2.33449 0
M  V30 10383 H 988.357 1.93309 4.64371 0
M  V30 10384 H 988.057 3.68776 4.57469 0
M  V30 10385 H 989.581 3.07341 5.27611 0
M  V30 10386 H 990.995 4.52081 3.52555 0
M  V30 10387 H 989.392 5.16145 3.06127 0
M  V30 10388 H 990.462 4.49708 1.81359 0
M  V30 10389 N 991.805 -0.723954 1.39988 0
M  V30 10390 C 993.082 -1.4763 1.28316 0
M  V30 10391 C 993.462 -2.10852 -0.102302 0
M  V30 10392 O 992.81 -1.9948 -1.11445 0
M  V30 10393 C 993.02 -2.51878 2.41574 0
M  V30 10394 C 994.368 -3.17948 2.81415 0
M  V30 10395 O 995.392 -2.62195 2.41106 0
M  V30 10396 O 994.251 -4.18858 3.51027 0
M  V30 10397 H 991.345 -0.656092 0.50346 0
M  V30 10398 H 993.891 -0.75684 1.51888 0
M  V30 10399 H 992.663 -2.03618 3.34149 0
M  V30 10400 H 992.286 -3.3137 2.19727 0
M  V30 10401 N 993.283 -1.25346 -0.955304 0
M  V30 10402 C 994.531 -1.09837 -1.69647 0
M  V30 10403 C 994.852 0.361425 -1.91621 0
M  V30 10404 O 994.122 1.25666 -1.50283 0
M  V30 10405 H 992.702 -0.403467 -0.628668 0
M  V30 10406 H 995.364 -1.57459 -1.14859 0
M  V30 10407 H 994.46 -1.60616 -2.67598 0
M  V30 10408 N 994.761 1.15782 -1.06922 0
M  V30 10409 C 995.986 1.90896 -0.810771 0
M  V30 10410 C 996.411 1.77246 0.629714 0
M  V30 10411 O 995.769 1.10215 1.43953 0
M  V30 10412 C 995.817 3.39397 -1.21829 0
M  V30 10413 O 994.921 4.10818 -0.360934 0
M  V30 10414 H 994.262 0.594497 -0.295752 0
M  V30 10415 H 996.792 1.46652 -1.42669 0
M  V30 10416 H 996.802 3.90181 -1.19259 0
M  V30 10417 H 995.477 3.4865 -2.2675 0
M  V30 10418 H 994.054 3.7019 -0.448748 0
M  V30 10419 N 996.239 0.8527 1.3254 0
M  V30 10420 C 997.186 0.293905 2.28921 0
M  V30 10421 C 998.156 -0.598027 1.54961 0
M  V30 10422 O 999.341 -0.533355 1.83194 0
M  V30 10423 C 996.481 -0.513361 3.4126 0
M  V30 10424 C 995.594 0.404144 4.30105 0
M  V30 10425 C 994.729 -0.415564 5.29572 0
M  V30 10426 C 993.768 0.499461 6.10059 0
M  V30 10427 N 992.905 -0.282949 7.0153 0
M  V30 10428 H 997.745 1.12107 2.76109 0
M  V30 10429 H 995.282 0.564272 1.35847 0
M  V30 10430 H 997.24 -0.997008 4.05112 0
M  V30 10431 H 995.87 -1.30537 2.95229 0
M  V30 10432 H 994.922 1.00617 3.66852 0
M  V30 10433 H 996.234 1.10648 4.86373 0
M  V30 10434 H 995.388 -0.962458 5.99017 0
M  V30 10435 H 994.127 -1.15127 4.73917 0
M  V30 10436 H 993.132 1.05825 5.39519 0
M  V30 10437 H 994.357 1.23375 6.67799 0
M  V30 10438 H 992.303 -1.00179 6.48306 0
M  V30 10439 H 992.22 0.36039 7.55141 0
M  V30 10440 H 993.488 -0.811632 7.75263 0
M  V30 10441 N 997.718 -1.45297 0.610449 0
M  V30 10442 C 999.134 -1.57225 0.274332 0
M  V30 10443 C 999.334 -1.60136 -1.22306 0
M  V30 10444 O 998.39 -1.5332 -2.00622 0
M  V30 10445 C 999.703 -2.85365 0.948028 0
M  V30 10446 C 1001.25 -2.99044 0.924216 0
M  V30 10447 C 1001.73 -4.29958 1.57798 0
M  V30 10448 N 1003.22 -4.36723 1.5436 0
M  V30 10449 C 1003.95 -5.36695 2.01857 0
M  V30 10450 N 1003.45 -6.43187 2.57453 0
M  V30 10451 N 1005.24 -5.28071 1.92608 0
M  V30 10452 H 997.392 -1.41651 1.58268 0
M  V30 10453 H 999.655 -0.67744 0.663158 0
M  V30 10454 H 999.361 -2.89125 2.00249 0
M  V30 10455 H 999.235 -3.74222 0.473062 0
M  V30 10456 H 1001.62 -2.94849 -0.121709 0
M  V30 10457 H 1001.7 -2.1159 1.43748 0
M  V30 10458 H 1001.35 -4.34912 2.62325 0
M  V30 10459 H 1001.28 -5.16234 1.03972 0
M  V30 10460 H 1003.77 -3.60374 1.13749 0
M  V30 10461 H 1004.08 -7.15722 2.91482 0
M  V30 10462 H 1002.43 -6.4393 2.61493 0
M  V30 10463 H 1005.62 -4.43783 1.48912 0
M  V30 10464 H 1005.79 -6.05832 2.29938 0
M  V30 10465 N 999.196 -0.349774 -1.5367 0
M  V30 10466 C 1000.61 0.00191293 -1.596 0
M  V30 10467 C 1000.81 1.48175 -1.36552 0
M  V30 10468 O 999.868 2.24129 -1.16285 0
M  V30 10469 C 1001.18 -0.439848 -2.97466 0
M  V30 10470 C 1002.73 -0.392721 -3.10526 0
M  V30 10471 C 1003.2 -0.810047 -4.5078 0
M  V30 10472 N 1004.69 -0.764478 -4.56848 0
M  V30 10473 C 1005.43 -1.05927 -5.63531 0
M  V30 10474 N 1004.93 -1.42253 -6.78038 0
M  V30 10475 N 1006.72 -0.983098 -5.53436 0
M  V30 10476 H 998.87 -1.31364 -1.66905 0
M  V30 10477 H 1001.13 -0.535908 -0.781989 0
M  V30 10478 H 1000.84 -1.47189 -3.19419 0
M  V30 10479 H 1000.71 0.181735 -3.76762 0
M  V30 10480 H 1003.1 0.630161 -2.88293 0
M  V30 10481 H 1003.18 -1.04959 -2.33275 0
M  V30 10482 H 1002.82 -1.83097 -4.73749 0
M  V30 10483 H 1002.75 -0.130591 -5.26438 0
M  V30 10484 H 1005.25 -0.496637 -3.74622 0
M  V30 10485 H 1005.56 -1.63215 -7.55368 0
M  V30 10486 H 1003.9 -1.46104 -6.79469 0
M  V30 10487 H 1007.09 -0.698601 -4.62858 0
M  V30 10488 H 1007.27 -1.21618 -6.36485 0
M  V30 10489 N 1000.67 1.57404 -0.0785433 0
M  V30 10490 C 1002.09 1.57158 0.2781 0
M  V30 10491 C 1002.29 1.08847 1.69572 0
M  V30 10492 O 1001.35 0.757407 2.40873 0
M  V30 10493 C 1002.66 3.00589 0.0816067 0
M  V30 10494 C 1004.21 3.12637 0.150627 0
M  V30 10495 C 1004.68 4.57997 -0.0176685 0
M  V30 10496 N 1006.17 4.63185 0.0377145 0
M  V30 10497 C 1006.91 5.7336 -0.0679907 0
M  V30 10498 N 1006.4 6.92426 -0.227598 0
M  V30 10499 N 1008.2 5.62099 -0.0104424 0
M  V30 10500 H 1000.35 1.87121 -1.00496 0
M  V30 10501 H 1002.61 0.862937 -0.392484 0
M  V30 10502 H 1002.32 3.40072 -0.896869 0
M  V30 10503 H 1002.19 3.67931 0.831046 0
M  V30 10504 H 1004.58 2.73037 1.11959 0
M  V30 10505 H 1004.66 2.4792 -0.630028 0
M  V30 10506 H 1004.3 4.98288 -0.983431 0
M  V30 10507 H 1004.23 5.20754 0.782475 0
M  V30 10508 H 1006.72 3.77564 0.159208 0
M  V30 10509 H 1007.04 7.72217 -0.300217 0
M  V30 10510 H 1005.38 6.94502 -0.263049 0
M  V30 10511 H 1008.57 4.67964 0.112999 0
M  V30 10512 H 1008.75 6.47928 -0.0962747 0
M  V30 10513 N 1002.15 -0.195058 1.56388 0
M  V30 10514 C 1003.08 -1.24444 1.97575 0
M  V30 10515 C 1004.06 -1.47471 0.847717 0
M  V30 10516 O 1005.25 -1.59208 1.11205 0
M  V30 10517 C 1002.38 -2.58866 2.31529 0
M  V30 10518 C 1001.33 -2.50451 3.47071 0
M  V30 10519 C 1000.66 -3.89146 3.667 0
M  V30 10520 C 1001.96 -2.02953 4.81256 0
M  V30 10521 H 1003.65 -0.902178 2.85484 0
M  V30 10522 H 1001.2 -0.43254 1.3735 0
M  V30 10523 H 1003.15 -3.3246 2.58936 0
M  V30 10524 H 1001.87 -2.94833 1.40502 0
M  V30 10525 H 1000.53 -1.79313 3.19754 0
M  V30 10526 H 1000.18 -4.22466 2.73004 0
M  V30 10527 H 999.882 -3.84391 4.44429 0
M  V30 10528 H 1001.41 -4.64363 3.96484 0
M  V30 10529 H 1002.82 -2.66306 5.07695 0
M  V30 10530 H 1001.22 -2.092 5.62455 0
M  V30 10531 H 1002.29 -0.982757 4.74837 0
M  V30 10532 N 1003.63 -1.50653 -0.462772 0
M  V30 10533 C 1004.86 -1.65826 -1.23731 0
M  V30 10534 C 1005.27 -0.345002 -1.85621 0
M  V30 10535 O 1004.63 0.673935 -1.69601 0
M  V30 10536 C 1004.68 -2.7555 -2.33997 0
M  V30 10537 O 1004.4 -4.01785 -1.74643 0
M  V30 10538 C 1005.9 -3.0177 -3.2473 0
M  V30 10539 H 1003.12 -0.557177 -0.373892 0
M  V30 10540 H 1005.67 -1.96925 -0.551434 0
M  V30 10541 H 1003.82 -2.47122 -2.98345 0
M  V30 10542 H 1004.24 -4.62529 -2.4732 0
M  V30 10543 H 1005.71 -3.82188 -3.98292 0
M  V30 10544 H 1006.19 -2.13167 -3.84001 0
M  V30 10545 H 1006.79 -3.31761 -2.66111 0
M  V30 10546 N 1005.11 0.71652 -1.4037 0
M  V30 10547 C 1006.04 1.84138 -1.36477 0
M  V30 10548 C 1007.05 1.6054 -0.27033 0
M  V30 10549 O 1008.24 1.70431 -0.530612 0
M  V30 10550 C 1005.34 3.20523 -1.10082 0
M  V30 10551 C 1004.52 3.71326 -2.31162 0
M  V30 10552 C 1003.57 4.86322 -2.00942 0
M  V30 10553 O 1002.6 4.99022 -2.73799 0
M  V30 10554 N 1003.8 5.72051 -0.986812 0
M  V30 10555 H 1006.57 1.87977 -2.3342 0
M  V30 10556 H 1004.13 0.89802 -1.34712 0
M  V30 10557 H 1006.12 3.95049 -0.878526 0
M  V30 10558 H 1004.69 3.11838 -0.21809 0
M  V30 10559 H 1003.91 2.87941 -2.69227 0
M  V30 10560 H 1005.2 4.02003 -3.11883 0
M  V30 10561 H 1004.6 5.64399 -0.383381 0
M  V30 10562 H 1003.15 6.46565 -0.824419 0
M  V30 10563 N 1006.59 1.25851 0.948643 0
M  V30 10564 C 1007.53 1.06559 2.06756 0
M  V30 10565 C 1008.53 -0.00528632 1.69399 0
M  V30 10566 O 1009.73 0.150806 1.79367 0
M  V30 10567 H 1006.11 0.327689 0.676848 0
M  V30 10568 H 1008.08 2.01401 2.20182 0
M  V30 10569 C 1006.83 0.707392 3.40428 0
M  V30 10570 H 1006.15 1.52324 3.69645 0
M  V30 10571 H 1007.59 0.612142 4.19558 0
M  V30 10572 C 1006.05 -0.58697 3.31747 0
M  V30 10573 O 1006.58 -1.62741 3.67258 0
M  V30 10574 N 1004.79 -0.574828 2.84858 0
M  V30 10575 H 1004.33 0.272236 2.56157 0
M  V30 10576 H 1004.29 -1.441 2.79432 0
M  V30 10577 N 1008.06 -1.15214 1.07534 0
M  V30 10578 C 1009.34 -1.82155 0.71267 0
M  V30 10579 C 1009.72 -1.95163 -0.804655 0
M  V30 10580 O 1009.07 -1.50451 -1.71979 0
M  V30 10581 C 1009.28 -3.18392 1.42925 0
M  V30 10582 C 1010.63 -3.94005 1.58256 0
M  V30 10583 O 1011.65 -3.27952 1.39018 0
M  V30 10584 O 1010.51 -5.12436 1.89925 0
M  V30 10585 H 1007.6 -0.78709 0.253808 0
M  V30 10586 H 1010.15 -1.22309 1.17638 0
M  V30 10587 H 1008.92 -3.04034 2.46331 0
M  V30 10588 H 1008.55 -3.85925 0.956439 0
M  V30 10589 N 1009.54 -0.859717 -1.32086 0
M  V30 10590 C 1010.79 -0.466271 -1.97367 0
M  V30 10591 C 1011.12 0.976728 -1.6785 0
M  V30 10592 O 1010.4 1.68618 -0.969449 0
M  V30 10593 C 1010.68 -0.711851 -3.52994 0
M  V30 10594 C 1010.53 -2.20364 -3.92122 0
M  V30 10595 C 1011.85 -0.17156 -4.39765 0
M  V30 10596 H 1008.97 -0.170883 -0.716916 0
M  V30 10597 H 1011.61 -1.07907 -1.56384 0
M  V30 10598 H 1009.76 -0.190258 -3.88034 0
M  V30 10599 H 1011.43 -2.7917 -3.67236 0
M  V30 10600 H 1009.68 -2.68019 -3.41099 0
M  V30 10601 H 1010.35 -2.32615 -5.00594 0
M  V30 10602 H 1012.82 -0.617665 -4.1149 0
M  V30 10603 H 1011.7 -0.372921 -5.47632 0
M  V30 10604 H 1011.96 0.925959 -4.32294 0
M  V30 10605 N 1011.02 1.44971 -0.618145 0
M  V30 10606 C 1012.27 2.0176 -0.11725 0
M  V30 10607 C 1012.59 1.48773 1.26062 0
M  V30 10608 O 1011.86 0.686152 1.83491 0
M  V30 10609 H 1010.44 0.745909 -0.0403545 0
M  V30 10610 H 1013.1 1.77638 -0.801923 0
M  V30 10611 H 1012.2 3.1201 -0.0750477 0
M  V30 10612 N 1012.5 0.357919 1.53482 0
M  V30 10613 C 1013.45 -0.50845 2.22258 0
M  V30 10614 C 1014.43 -1.05476 1.21506 0
M  V30 10615 O 1015.62 -0.986075 1.46988 0
M  V30 10616 C 1012.75 -1.65157 3.00962 0
M  V30 10617 C 1011.84 -1.11851 4.09084 0
M  V30 10618 N 1012.23 -0.307818 5.04862 0
M  V30 10619 C 1010.53 -1.39405 4.23653 0
M  V30 10620 C 1011.23 -0.016842 5.81698 0
M  V30 10621 N 1010.21 -0.612396 5.40139 0
M  V30 10622 H 1014.01 0.117836 2.93664 0
M  V30 10623 H 1011.52 0.16553 1.61554 0
M  V30 10624 H 1013.52 -2.28435 3.48745 0
M  V30 10625 H 1012.18 -2.281 2.31086 0
M  V30 10626 H 1013.19 0.0523313 5.17874 0
M  V30 10627 H 1009.87 -2.02682 3.65002 0
M  V30 10628 H 1011.26 0.638046 6.68864 0
M  V30 10629 N 1013.98 -1.5736 0.0868897 0
M  V30 10630 C 1015.39 -1.81356 -0.443499 0
M  V30 10631 C 1015.74 -1.00192 -1.68689 0
M  V30 10632 O 1014.86 -0.228863 -2.15186 0
M  V30 10633 C 1015.46 -3.28941 -0.811387 0
M  V30 10634 C 1014.02 -3.53729 -1.28656 0
M  V30 10635 C 1013.16 -2.75891 -0.279153 0
M  V30 10636 H 1016.12 -1.55594 0.312427 0
M  V30 10637 H 1016.14 -3.41815 -1.6716 0
M  V30 10638 H 1015.65 -3.87987 0.0937598 0
M  V30 10639 H 1013.75 -3.00005 -2.2097 0
M  V30 10640 H 1013.86 -4.62396 -1.25406 0
M  V30 10641 H 1012.23 -2.4311 -0.759595 0
M  V30 10642 H 1013.01 -3.37682 0.618529 0
M  V30 10643 N 1015.45 0.186762 -1.56489 0
M  V30 10644 C 1016.7 0.905852 -1.81109 0
M  V30 10645 C 1017.03 1.82906 -0.661477 0
M  V30 10646 O 1016.28 1.92504 0.35226 0
M  V30 10647 C 1016.58 1.74719 -3.11782 0
M  V30 10648 C 1016.25 0.974238 -4.40249 0
M  V30 10649 C 1014.91 0.760856 -4.75147 0
M  V30 10650 C 1017.26 0.430971 -5.19415 0
M  V30 10651 C 1014.59 -0.00714216 -5.867 0
M  V30 10652 C 1016.94 -0.323859 -6.3177 0
M  V30 10653 C 1015.61 -0.548183 -6.65245 0
M  V30 10654 H 1014.88 0.331475 -0.662726 0
M  V30 10655 H 1017.52 0.171703 -1.90729 0
M  V30 10656 H 1015.83 2.55027 -2.97437 0
M  V30 10657 H 1017.53 2.30634 -3.28038 0
M  V30 10658 H 1014.12 1.15057 -4.12868 0
M  V30 10659 H 1018.3 0.583205 -4.92861 0
M  V30 10660 H 1013.56 -0.190832 -6.11102 0
M  V30 10661 H 1017.73 -0.752155 -6.92326 0
M  V30 10662 H 1015.36 -1.14518 -7.51525 0
M  V30 10663 N 1016.93 1.50896 0.454776 0
M  V30 10664 C 1017.9 1.70377 1.53312 0
M  V30 10665 C 1018.9 0.57408 1.50203 0
M  V30 10666 O 1020.09 0.841374 1.52534 0
M  V30 10667 C 1017.22 1.74411 2.92905 0
M  V30 10668 H 1018.41 2.66599 1.37349 0
M  V30 10669 H 1015.96 1.40622 0.68228 0
M  V30 10670 H 1016.7 0.799408 3.14293 0
M  V30 10671 H 1016.48 2.56496 2.96568 0
M  V30 10672 H 1017.97 1.91382 3.71164 0
M  V30 10673 N 1018.41 -0.709066 1.40748 0
M  V30 10674 C 1019.66 -1.47119 1.39585 0
M  V30 10675 C 1019.99 -1.942 0.000245323 0
M  V30 10676 O 1019.26 -1.68609 -0.969593 0
M  V30 10677 C 1019.55 -2.69266 2.39099 0
M  V30 10678 C 1019.4 -2.28037 3.8771 0
M  V30 10679 C 1020.72 -3.71438 2.36055 0
M  V30 10680 H 1017.84 -0.533632 0.508336 0
M  V30 10681 H 1020.48 -0.808718 1.7193 0
M  V30 10682 H 1018.63 -3.25788 2.11647 0
M  V30 10683 H 1020.3 -1.76946 4.26014 0
M  V30 10684 H 1018.55 -1.59966 4.03229 0
M  V30 10685 H 1019.22 -3.15621 4.52866 0
M  V30 10686 H 1021.69 -3.24559 2.60385 0
M  V30 10687 H 1020.57 -4.54532 3.07721 0
M  V30 10688 H 1020.83 -4.20193 1.37443 0
M  V30 10689 N 1019.89 -1.26353 -0.941956 0
M  V30 10690 C 1020.85 -1.07904 -2.02211 0
M  V30 10691 C 1021.85 -0.0276283 -1.60776 0
M  V30 10692 O 1023.04 -0.270965 -1.7208 0
M  V30 10693 C 1020.17 -0.641084 -3.34818 0
M  V30 10694 H 1021.37 -2.03804 -2.20009 0
M  V30 10695 H 1018.92 -1.08939 -1.12081 0
M  V30 10696 H 1019.66 0.319943 -3.22718 0
M  V30 10697 H 1019.44 -1.40027 -3.66244 0
M  V30 10698 H 1020.93 -0.533826 -4.14174 0
M  V30 10699 N 1021.37 1.14642 -1.08144 0
M  V30 10700 C 1022.61 1.85892 -0.810683 0
M  V30 10701 C 1022.95 1.82575 0.661821 0
M  V30 10702 O 1022.22 1.25454 1.48632 0
M  V30 10703 C 1022.5 3.34647 -1.32979 0
M  V30 10704 C 1022.36 3.46551 -2.86744 0
M  V30 10705 C 1023.68 4.29661 -0.952864 0
M  V30 10706 H 1020.8 0.674963 -0.295963 0
M  V30 10707 H 1023.44 1.3464 -1.3406 0
M  V30 10708 H 1021.59 3.78425 -0.87903 0
M  V30 10709 H 1023.26 3.11579 -3.40171 0
M  V30 10710 H 1021.5 2.87849 -3.24539 0
M  V30 10711 H 1022.17 4.51101 -3.18138 0
M  V30 10712 H 1024.65 3.93885 -1.34141 0
M  V30 10713 H 1023.53 5.32209 -1.34331 0
M  V30 10714 H 1023.79 4.41877 0.140392 0
M  V30 10715 N 1022.85 0.866709 1.31628 0
M  V30 10716 C 1024.09 0.476026 1.96825 0
M  V30 10717 C 1024.42 -0.970994 1.68529 0
M  V30 10718 O 1023.68 -1.69823 0.97255 0
M  V30 10719 C 1023.97 0.676018 3.50948 0
M  V30 10720 C 1023.64 2.09533 3.99258 0
M  V30 10721 C 1022.3 2.48349 4.1216 0
M  V30 10722 C 1024.65 3.02112 4.24709 0
M  V30 10723 C 1021.98 3.78991 4.47864 0
M  V30 10724 C 1024.33 4.32266 4.61875 0
M  V30 10725 C 1023 4.71 4.72985 0
M  V30 10726 H 1022.27 0.17419 0.720235 0
M  V30 10727 H 1024.92 1.09907 1.5682 0
M  V30 10728 H 1023.22 -0.0301867 3.91788 0
M  V30 10729 H 1024.92 0.353604 3.99438 0
M  V30 10730 H 1021.51 1.78396 3.89709 0
M  V30 10731 H 1025.69 2.73351 4.14238 0
M  V30 10732 H 1020.95 4.08769 4.54663 0
M  V30 10733 H 1025.12 5.04055 4.80522 0
M  V30 10734 H 1022.75 5.72273 5.00407 0
M  V30 10735 N 1024.32 -1.44642 0.625825 0
M  V30 10736 C 1025.23 -2.34451 -0.0836134 0
M  V30 10737 C 1026.25 -1.5231 -0.841289 0
M  V30 10738 O 1027.43 -1.85056 -0.794754 0
M  V30 10739 C 1024.49 -3.30211 -1.05648 0
M  V30 10740 C 1023.55 -4.28259 -0.298759 0
M  V30 10741 C 1022.78 -5.19444 -1.22528 0
M  V30 10742 O 1023.01 -5.14444 -2.46382 0
M  V30 10743 O 1021.94 -5.97668 -0.71247 0
M  V30 10744 H 1025.77 -2.96555 0.654912 0
M  V30 10745 H 1023.35 -1.44327 0.386029 0
M  V30 10746 H 1025.23 -3.8917 -1.61632 0
M  V30 10747 H 1023.91 -2.70648 -1.77571 0
M  V30 10748 H 1022.82 -3.72863 0.304001 0
M  V30 10749 H 1024.15 -4.90728 0.380345 0
M  V30 10750 N 1025.8 -0.366053 -1.5329 0
M  V30 10751 C 1027.08 0.279902 -1.93587 0
M  V30 10752 C 1027.46 1.66352 -1.29963 0
M  V30 10753 O 1026.81 2.23845 -0.458895 0
M  V30 10754 C 1027.02 0.329634 -3.4744 0
M  V30 10755 C 1028.36 0.569754 -4.2076 0
M  V30 10756 O 1029.39 0.410823 -3.53823 0
M  V30 10757 O 1028.25 0.879262 -5.3938 0
M  V30 10758 H 1025.34 0.16802 -0.809752 0
M  V30 10759 H 1027.89 -0.418871 -1.64449 0
M  V30 10760 H 1026.66 -0.640434 -3.86023 0
M  V30 10761 H 1026.28 1.07428 -3.82812 0
M  V30 10762 N 1027.28 1.57312 -0.0952337 0
M  V30 10763 C 1028.51 1.98409 0.575984 0
M  V30 10764 C 1028.92 0.973168 1.62253 0
M  V30 10765 O 1028.26 -0.0454416 1.83644 0
M  V30 10766 C 1028.32 3.35877 1.28167 0
M  V30 10767 C 1027.99 4.55368 0.385868 0
M  V30 10768 C 1028.98 5.1861 -0.366041 0
M  V30 10769 C 1026.67 5.0138 0.303885 0
M  V30 10770 C 1028.66 6.26233 -1.18791 0
M  V30 10771 C 1026.35 6.0887 -0.521637 0
M  V30 10772 C 1027.35 6.71161 -1.26618 0
M  V30 10773 O 1027.04 7.76577 -2.07804 0
M  V30 10774 H 1026.77 0.657018 0.159068 0
M  V30 10775 H 1029.32 2.04685 -0.171237 0
M  V30 10776 H 1027.55 3.26284 2.07547 0
M  V30 10777 H 1029.24 3.6142 1.84744 0
M  V30 10778 H 1030.01 4.83993 -0.312435 0
M  V30 10779 H 1025.89 4.52657 0.873065 0
M  V30 10780 H 1029.43 6.74784 -1.76955 0
M  V30 10781 H 1025.33 6.42918 -0.576722 0
M  V30 10782 H 1026.09 7.93566 -2.00489 0
M  V30 10783 N 1028.76 -0.17846 1.56586 0
M  V30 10784 C 1030 -0.897562 1.81856 0
M  V30 10785 C 1030.34 -1.82204 0.671955 0
M  V30 10786 O 1029.61 -1.91739 -0.326535 0
M  V30 10787 C 1029.89 -1.69942 3.17477 0
M  V30 10788 C 1029.75 -0.798545 4.42655 0
M  V30 10789 C 1031.07 -2.66861 3.49962 0
M  V30 10790 H 1028.19 -0.324863 0.661539 0
M  V30 10791 H 1030.83 -0.164106 1.8929 0
M  V30 10792 H 1028.98 -2.32471 3.11271 0
M  V30 10793 H 1030.65 -0.18668 4.60922 0
M  V30 10794 H 1028.89 -0.106181 4.3367 0
M  V30 10795 H 1029.56 -1.39496 5.34083 0
M  V30 10796 H 1032.04 -2.1446 3.56576 0
M  V30 10797 H 1030.92 -3.20037 4.45946 0
M  V30 10798 H 1031.18 -3.46715 2.74301 0
M  V30 10799 N 1030.24 -1.51135 -0.446768 0
M  V30 10800 C 1031.48 -1.64542 -1.19573 0
M  V30 10801 C 1031.84 -0.352728 -1.89139 0
M  V30 10802 O 1031.13 0.650917 -1.80204 0
M  V30 10803 C 1031.32 -2.78034 -2.2457 0
M  V30 10804 C 1031.15 -4.18214 -1.65308 0
M  V30 10805 C 1029.92 -4.84284 -1.44212 0
M  V30 10806 C 1032.12 -5.01631 -1.13451 0
M  V30 10807 N 1030.1 -6.08606 -0.804486 0
M  V30 10808 C 1031.47 -6.16876 -0.621577 0
M  V30 10809 C 1033.53 -4.87227 -1.02537 0
M  V30 10810 C 1032.23 -7.19299 -0.0102361 0
M  V30 10811 C 1034.26 -5.8985 -0.427936 0
M  V30 10812 C 1033.62 -7.04361 0.0745026 0
M  V30 10813 H 1029.72 -0.656068 -0.425556 0
M  V30 10814 H 1032.3 -1.88334 -0.493802 0
M  V30 10815 H 1030.47 -2.55922 -2.92162 0
M  V30 10816 H 1032.21 -2.8067 -2.91558 0
M  V30 10817 H 1028.96 -4.4199 -1.70123 0
M  V30 10818 H 1029.38 -6.75126 -0.503379 0
M  V30 10819 H 1034.03 -3.98959 -1.39971 0
M  V30 10820 H 1031.74 -8.07224 0.376252 0
M  V30 10821 H 1035.33 -5.80773 -0.34552 0
M  V30 10822 H 1034.21 -7.8241 0.529535 0
M  V30 10823 N 1031.71 0.701592 -1.41122 0
M  V30 10824 C 1032.96 1.4616 -1.40155 0
M  V30 10825 C 1033.29 1.94498 -0.00861553 0
M  V30 10826 O 1032.54 1.69484 0.978452 0
M  V30 10827 C 1032.84 2.693 -2.34973 0
M  V30 10828 C 1032.51 2.39652 -3.81939 0
M  V30 10829 C 1031.17 2.31277 -4.21977 0
M  V30 10830 C 1033.52 2.15076 -4.74755 0
M  V30 10831 C 1030.85 1.96413 -5.52846 0
M  V30 10832 C 1033.2 1.81722 -6.05937 0
M  V30 10833 C 1031.87 1.71838 -6.45002 0
M  V30 10834 H 1031.14 0.534837 -0.512865 0
M  V30 10835 H 1033.78 0.802425 -1.73878 0
M  V30 10836 H 1032.09 3.40123 -1.94484 0
M  V30 10837 H 1033.79 3.27427 -2.31501 0
M  V30 10838 H 1030.38 2.47063 -3.50226 0
M  V30 10839 H 1034.56 2.20495 -4.4463 0
M  V30 10840 H 1029.82 1.87308 -5.82001 0
M  V30 10841 H 1033.99 1.61723 -6.77362 0
M  V30 10842 H 1031.62 1.44591 -7.46323 0
M  V30 10843 N 1033.19 1.2685 0.935242 0
M  V30 10844 C 1034.42 1.15645 1.72165 0
M  V30 10845 C 1034.84 -0.283909 1.85945 0
M  V30 10846 O 1034.2 -1.20567 1.354 0
M  V30 10847 C 1034.25 1.83689 3.10307 0
M  V30 10848 O 1033.35 1.12972 3.96625 0
M  V30 10849 H 1032.69 0.402629 0.528002 0
M  V30 10850 H 1035.22 1.67781 1.17093 0
M  V30 10851 H 1035.23 1.90749 3.60664 0
M  V30 10852 H 1033.91 2.88472 2.99595 0
M  V30 10853 H 1032.48 1.13929 3.5507 0
M  V30 10854 N 1034.67 -1.14067 1.0875 0
M  V30 10855 C 1035.95 -1.81389 0.73195 0
M  V30 10856 C 1036.33 -1.96005 -0.78391 0
M  V30 10857 O 1035.68 -1.52267 -1.70373 0
M  V30 10858 C 1035.89 -3.16858 1.46294 0
M  V30 10859 C 1037.23 -3.92305 1.62426 0
M  V30 10860 O 1038.26 -3.26459 1.42488 0
M  V30 10861 O 1037.12 -5.10393 1.9535 0
M  V30 10862 H 1034.21 -0.784354 0.262141 0
M  V30 10863 H 1036.76 -1.21054 1.18929 0
M  V30 10864 H 1035.53 -3.01404 2.49542 0
M  V30 10865 H 1035.15 -3.84889 0.997318 0
M  V30 10866 N 1036.15 -0.873678 -1.31166 0
M  V30 10867 C 1037.39 -0.496513 -1.97247 0
M  V30 10868 C 1037.75 0.941605 -1.67784 0
M  V30 10869 O 1037.04 1.65469 -0.965947 0
M  V30 10870 C 1037.24 -0.69462 -3.50585 0
M  V30 10871 C 1037.07 -2.15044 -3.94951 0
M  V30 10872 C 1035.84 -2.79278 -4.21108 0
M  V30 10873 C 1038.03 -3.1231 -4.08616 0
M  V30 10874 N 1036.02 -4.15574 -4.51853 0
M  V30 10875 C 1037.39 -4.33646 -4.43115 0
M  V30 10876 C 1039.44 -3.08251 -3.91006 0
M  V30 10877 C 1038.14 -5.51447 -4.61842 0
M  V30 10878 C 1040.17 -4.25314 -4.10929 0
M  V30 10879 C 1039.53 -5.45413 -4.45763 0
M  V30 10880 H 1035.63 -0.230797 -0.747166 0
M  V30 10881 H 1038.22 -1.12905 -1.58621 0
M  V30 10882 H 1036.39 -0.0916484 -3.88292 0
M  V30 10883 H 1038.12 -0.285475 -4.03692 0
M  V30 10884 H 1034.87 -2.30207 -4.13886 0
M  V30 10885 H 1035.3 -4.85932 -4.7138 0
M  V30 10886 H 1039.94 -2.16505 -3.6316 0
M  V30 10887 H 1037.66 -6.43707 -4.88535 0
M  V30 10888 H 1041.24 -4.2363 -3.98785 0
M  V30 10889 H 1040.12 -6.34487 -4.60865 0
M  V30 10890 N 1037.63 1.44308 -0.633487 0
M  V30 10891 C 1038.59 2.2912 0.060376 0
M  V30 10892 C 1039.59 1.41166 0.769992 0
M  V30 10893 O 1040.78 1.63012 0.614224 0
M  V30 10894 C 1037.91 3.22798 1.0961 0
M  V30 10895 H 1039.1 2.91958 -0.685617 0
M  V30 10896 H 1036.66 1.51259 -0.393738 0
M  V30 10897 H 1037.39 2.64815 1.87199 0
M  V30 10898 H 1037.18 3.87618 0.591161 0
M  V30 10899 H 1038.67 3.86504 1.58127 0
M  V30 10900 N 1039.1 0.374177 1.53094 0
M  V30 10901 C 1040.04 -0.511995 2.22382 0
M  V30 10902 C 1041.02 -1.07617 1.2189 0
M  V30 10903 O 1042.2 -1.13068 1.50824 0
M  V30 10904 C 1039.33 -1.70724 2.92525 0
M  V30 10905 C 1038.37 -1.26972 4.07161 0
M  V30 10906 S 1039.21 -0.263835 5.3485 0
M  V30 10907 C 1040.36 -1.46521 6.08508 0
M  V30 10908 H 1040.59 0.0764311 2.97202 0
M  V30 10909 H 1038.13 0.158307 1.53586 0
M  V30 10910 H 1040.09 -2.39279 3.3355 0
M  V30 10911 H 1038.75 -2.26693 2.17414 0
M  V30 10912 H 1037.94 -2.16172 4.55286 0
M  V30 10913 H 1037.54 -0.663273 3.68072 0
M  V30 10914 H 1039.83 -2.39483 6.33762 0
M  V30 10915 H 1040.78 -1.02517 7.0064 0
M  V30 10916 H 1041.18 -1.67516 5.39072 0
M  V30 10917 N 1040.58 -1.57259 0.103575 0
M  V30 10918 C 1041.99 -1.81816 -0.424239 0
M  V30 10919 C 1042.34 -1.01976 -1.67617 0
M  V30 10920 O 1041.47 -0.251673 -2.14932 0
M  V30 10921 C 1042.06 -3.29783 -0.776453 0
M  V30 10922 C 1040.62 -3.55074 -1.24897 0
M  V30 10923 C 1039.77 -2.76172 -0.249875 0
M  V30 10924 H 1042.72 -1.55254 0.328913 0
M  V30 10925 H 1042.74 -3.43569 -1.63526 0
M  V30 10926 H 1042.25 -3.87865 0.134906 0
M  V30 10927 H 1040.36 -3.02332 -2.17775 0
M  V30 10928 H 1040.47 -4.637 -1.20495 0
M  V30 10929 H 1038.83 -2.43902 -0.733767 0
M  V30 10930 H 1039.62 -3.37007 0.65431 0
M  V30 10931 N 1042.06 0.170153 -1.56679 0
M  V30 10932 C 1043.29 0.90618 -1.86556 0
M  V30 10933 C 1043.71 1.74986 -0.690044 0
M  V30 10934 O 1043.07 1.77672 0.360862 0
M  V30 10935 C 1043.12 1.75777 -3.14857 0
M  V30 10936 O 1042.22 2.85952 -2.97162 0
M  V30 10937 H 1041.56 0.253781 -0.613589 0
M  V30 10938 H 1044.09 0.167943 -2.0391 0
M  V30 10939 H 1044.1 2.15747 -3.46291 0
M  V30 10940 H 1042.78 1.13807 -4.00026 0
M  V30 10941 H 1041.35 2.49557 -2.77084 0
M  V30 10942 N 1043.54 1.5137 0.438746 0
M  V30 10943 C 1044.78 1.64211 1.19006 0
M  V30 10944 C 1045.12 0.356607 1.90898 0
M  V30 10945 O 1044.39 -0.643722 1.83539 0
M  V30 10946 C 1044.68 2.8445 2.20817 0
M  V30 10947 C 1044.53 4.22972 1.53018 0
M  V30 10948 C 1045.85 3.00207 3.21813 0
M  V30 10949 H 1042.97 0.597628 0.431288 0
M  V30 10950 H 1045.61 1.8385 0.479487 0
M  V30 10951 H 1043.76 2.67836 2.81418 0
M  V30 10952 H 1045.43 4.5125 0.957654 0
M  V30 10953 H 1043.67 4.25736 0.832556 0
M  V30 10954 H 1044.34 5.03094 2.27158 0
M  V30 10955 H 1046.82 3.15522 2.71266 0
M  V30 10956 H 1045.7 3.85904 3.90345 0
M  V30 10957 H 1045.96 2.12216 3.87836 0
M  V30 10958 N 1045.02 -0.694098 1.41492 0
M  V30 10959 C 1045.95 -1.81841 1.37873 0
M  V30 10960 C 1046.93 -1.60732 0.245772 0
M  V30 10961 O 1048.11 -1.83461 0.432917 0
M  V30 10962 C 1045.24 -3.18543 1.15099 0
M  V30 10963 C 1044.28 -3.5844 2.31133 0
M  V30 10964 S 1045.12 -3.63079 3.93617 0
M  V30 10965 C 1046.27 -5.02505 3.73148 0
M  V30 10966 H 1046.51 -1.84634 2.33018 0
M  V30 10967 H 1044.04 -0.862948 1.28033 0
M  V30 10968 H 1046 -3.9746 1.02646 0
M  V30 10969 H 1044.66 -3.13358 0.21572 0
M  V30 10970 H 1043.85 -4.57754 2.10896 0
M  V30 10971 H 1043.45 -2.86837 2.40002 0
M  V30 10972 H 1045.75 -5.90046 3.32945 0
M  V30 10973 H 1046.69 -5.27784 4.72069 0
M  V30 10974 H 1047.1 -4.74113 3.06394 0
M  V30 10975 N 1046.49 -1.27344 -0.928501 0
M  V30 10976 C 1047.91 -1.04732 -1.2043 0
M  V30 10977 C 1048.11 0.219623 -2.003 0
M  V30 10978 O 1047.17 0.925333 -2.34934 0
M  V30 10979 C 1048.48 -2.28625 -1.95323 0
M  V30 10980 C 1050.03 -2.33655 -2.08265 0
M  V30 10981 C 1050.5 -3.57275 -2.86563 0
M  V30 10982 N 1051.99 -3.57828 -2.94132 0
M  V30 10983 C 1052.73 -4.50152 -3.55177 0
M  V30 10984 N 1052.22 -5.52779 -4.17621 0
M  V30 10985 N 1054.02 -4.37777 -3.52573 0
M  V30 10986 H 1046.17 -2.08697 -0.394892 0
M  V30 10987 H 1048.43 -0.91782 -0.2373 0
M  V30 10988 H 1048.14 -3.20845 -1.44054 0
M  V30 10989 H 1048.01 -2.33878 -2.95941 0
M  V30 10990 H 1050.4 -1.41942 -2.58721 0
M  V30 10991 H 1050.48 -2.32406 -1.0687 0
M  V30 10992 H 1050.12 -4.49325 -2.3679 0
M  V30 10993 H 1050.05 -3.55775 -3.88242 0
M  V30 10994 H 1052.54 -2.83607 -2.49751 0
M  V30 10995 H 1052.86 -6.19394 -4.62137 0
M  V30 10996 H 1051.2 -5.56622 -4.16169 0
M  V30 10997 H 1054.39 -3.56811 -3.02991 0
M  V30 10998 H 1054.57 -5.09919 -3.99858 0
M  V30 10999 N 1047.97 1.13488 -1.09353 0
M  V30 11000 C 1049.22 1.85022 -0.830354 0
M  V30 11001 C 1049.55 1.83266 0.64242 0
M  V30 11002 O 1048.83 1.27024 1.47293 0
M  V30 11003 C 1049.11 3.33218 -1.36521 0
M  V30 11004 C 1048.96 3.43491 -2.90404 0
M  V30 11005 C 1050.28 4.28626 -0.998381 0
M  V30 11006 H 1047.4 0.671786 -0.303105 0
M  V30 11007 H 1050.04 1.33211 -1.3548 0
M  V30 11008 H 1048.19 3.77471 -0.919117 0
M  V30 11009 H 1049.86 3.07954 -3.43456 0
M  V30 11010 H 1048.11 2.84391 -3.27573 0
M  V30 11011 H 1048.78 4.47702 -3.22905 0
M  V30 11012 H 1051.25 3.9244 -1.38311 0
M  V30 11013 H 1050.13 5.30754 -1.39968 0
M  V30 11014 H 1050.39 4.42001 0.093517 0
M  V30 11015 N 1049.45 0.880621 1.30701 0
M  V30 11016 C 1050.4 0.333562 2.30196 0
M  V30 11017 C 1051.39 -0.557092 1.59978 0
M  V30 11018 O 1052.6 -0.442009 1.74489 0
M  V30 11019 H 1048.97 0.0892036 0.746691 0
M  V30 11020 H 1050.95 1.18644 2.73799 0
M  V30 11021 C 1049.69 -0.440731 3.44895 0
M  V30 11022 H 1049.02 0.235353 3.99107 0
M  V30 11023 H 1050.46 -0.788676 4.166 0
M  V30 11024 C 1048.92 -1.63613 2.94504 0
M  V30 11025 O 1049.45 -2.73549 2.94166 0
M  V30 11026 N 1047.65 -1.47183 2.5057 0
M  V30 11027 H 1047.2 -0.577479 2.51044 0
M  V30 11028 H 1047.16 -2.27303 2.17211 0
M  V30 11029 N 1050.93 -1.4397 0.641131 0
M  V30 11030 C 1051.88 -2.30728 -0.0577905 0
M  V30 11031 C 1052.85 -1.44059 -0.826819 0
M  V30 11032 O 1054.03 -1.72947 -0.805853 0
M  V30 11033 C 1051.17 -3.29478 -1.02657 0
M  V30 11034 C 1050.28 -4.31247 -0.254913 0
M  V30 11035 C 1049.42 -5.17085 -1.2164 0
M  V30 11036 C 1048.46 -6.10556 -0.434481 0
M  V30 11037 N 1047.6 -6.89059 -1.34694 0
M  V30 11038 H 1052.44 -2.8995 0.687953 0
M  V30 11039 H 1049.97 -1.4285 0.351029 0
M  V30 11040 H 1051.93 -3.85228 -1.60173 0
M  V30 11041 H 1050.56 -2.71932 -1.73933 0
M  V30 11042 H 1049.61 -3.77889 0.436338 0
M  V30 11043 H 1050.92 -4.97545 0.353642 0
M  V30 11044 H 1050.08 -5.77402 -1.86258 0
M  V30 11045 H 1048.82 -4.50885 -1.85888 0
M  V30 11046 H 1047.82 -5.49339 0.225125 0
M  V30 11047 H 1049.05 -6.78795 0.203415 0
M  V30 11048 H 1046.99 -6.25518 -1.97644 0
M  V30 11049 H 1046.91 -7.51833 -0.792657 0
M  V30 11050 H 1048.18 -7.5389 -1.98165 0
M  V30 11051 N 1052.41 -0.382291 -1.52893 0
M  V30 11052 C 1053.82 -0.031941 -1.59568 0
M  V30 11053 C 1054.02 1.45245 -1.39664 0
M  V30 11054 O 1053.08 2.21612 -1.21013 0
M  V30 11055 C 1054.39 -0.502846 -2.96466 0
M  V30 11056 C 1055.94 -0.4585 -3.09624 0
M  V30 11057 C 1056.42 -0.905481 -4.4896 0
M  V30 11058 N 1057.91 -0.861211 -4.55124 0
M  V30 11059 C 1058.64 -1.17856 -5.61157 0
M  V30 11060 N 1058.14 -1.56603 -6.74868 0
M  V30 11061 N 1059.93 -1.10027 -5.51226 0
M  V30 11062 H 1052.08 -1.34875 -1.64081 0
M  V30 11063 H 1054.34 -0.552375 -0.770446 0
M  V30 11064 H 1054.05 -1.53931 -3.16225 0
M  V30 11065 H 1053.92 0.101777 -3.77063 0
M  V30 11066 H 1056.31 0.568868 -2.89565 0
M  V30 11067 H 1056.39 -1.09884 -2.30996 0
M  V30 11068 H 1056.04 -1.93105 -4.69759 0
M  V30 11069 H 1055.97 -0.242227 -5.26043 0
M  V30 11070 H 1058.46 -0.575988 -3.73485 0
M  V30 11071 H 1058.77 -1.792 -7.51736 0
M  V30 11072 H 1057.12 -1.60484 -6.76217 0
M  V30 11073 H 1060.31 -0.796623 -4.61272 0
M  V30 11074 H 1060.48 -1.35091 -6.33762 0
M  V30 11075 N 1053.89 1.57202 -0.111913 0
M  V30 11076 C 1055.11 1.99297 0.555713 0
M  V30 11077 C 1055.53 0.991444 1.60673 0
M  V30 11078 O 1054.89 -0.0166672 1.82492 0
M  V30 11079 C 1054.94 3.41413 1.18826 0
M  V30 11080 O 1054.66 4.37733 0.179261 0
M  V30 11081 C 1056.16 3.98602 1.93989 0
M  V30 11082 H 1053.38 0.654543 0.147695 0
M  V30 11083 H 1055.92 2.03557 -0.196163 0
M  V30 11084 H 1054.08 3.38115 1.89096 0
M  V30 11085 H 1054.49 5.20606 0.637935 0
M  V30 11086 H 1055.97 5.00143 2.33584 0
M  V30 11087 H 1056.44 3.37349 2.81233 0
M  V30 11088 H 1057.05 4.05424 1.28497 0
M  V30 11089 N 1055.36 -0.161842 1.56767 0
M  V30 11090 C 1056.61 -0.875192 1.82167 0
M  V30 11091 C 1056.93 -1.82367 0.690444 0
M  V30 11092 O 1056.2 -1.93756 -0.289023 0
M  V30 11093 H 1054.78 -0.326178 0.672024 0
M  V30 11094 H 1057.44 -0.159392 1.94247 0
M  V30 11095 H 1056.54 -1.44639 2.76561 0
M  V30 11096 N 1056.84 -1.516 -0.430713 0
M  V30 11097 C 1057.79 -1.73392 -1.52328 0
M  V30 11098 C 1058.76 -0.575758 -1.55802 0
M  V30 11099 O 1059.94 -0.810931 -1.72709 0
M  V30 11100 C 1057.08 -1.87092 -2.89984 0
M  V30 11101 C 1056.2 -3.14668 -2.95987 0
M  V30 11102 C 1055.33 -3.18923 -4.24807 0
M  V30 11103 C 1054.37 -4.40787 -4.24703 0
M  V30 11104 N 1053.51 -4.42556 -5.45059 0
M  V30 11105 H 1058.35 -2.6665 -1.33048 0
M  V30 11106 H 1055.88 -1.32146 -0.646207 0
M  V30 11107 H 1057.84 -1.93017 -3.69865 0
M  V30 11108 H 1056.47 -0.972363 -3.07807 0
M  V30 11109 H 1055.52 -3.1802 -2.08728 0
M  V30 11110 H 1056.84 -4.04562 -2.91772 0
M  V30 11111 H 1055.99 -3.23801 -5.13067 0
M  V30 11112 H 1054.73 -2.2693 -4.31688 0
M  V30 11113 H 1053.73 -4.36079 -3.34836 0
M  V30 11114 H 1054.96 -5.34053 -4.19481 0
M  V30 11115 H 1052.91 -3.53435 -5.52648 0
M  V30 11116 H 1052.82 -5.26267 -5.42751 0
M  V30 11117 H 1054.09 -4.51634 -6.35332 0
M  V30 11118 N 1058.32 0.686584 -1.41858 0
M  V30 11119 C 1059.6 1.44176 -1.32185 0
M  V30 11120 C 1059.98 2.11049 0.046362 0
M  V30 11121 O 1059.32 2.02365 1.06117 0
M  V30 11122 C 1059.53 2.45385 -2.48168 0
M  V30 11123 C 1060.88 3.10375 -2.89746 0
M  V30 11124 O 1061.91 2.55711 -2.47973 0
M  V30 11125 O 1060.77 4.09404 -3.62009 0
M  V30 11126 H 1057.86 0.642513 -0.520678 0
M  V30 11127 H 1060.41 0.716303 -1.53841 0
M  V30 11128 H 1059.18 1.94687 -3.3943 0
M  V30 11129 H 1058.8 3.25428 -2.28435 0
M  V30 11130 N 1059.8 1.27835 0.921735 0
M  V30 11131 C 1061.21 1.05369 1.19873 0
M  V30 11132 C 1061.41 -0.208997 2.00413 0
M  V30 11133 O 1060.47 -0.912861 2.35421 0
M  V30 11134 C 1061.78 2.29658 1.94108 0
M  V30 11135 C 1063.33 2.34756 2.07023 0
M  V30 11136 C 1063.81 3.5879 2.84664 0
M  V30 11137 N 1065.3 3.59383 2.9223 0
M  V30 11138 C 1066.03 4.52029 3.52785 0
M  V30 11139 N 1065.53 5.54986 4.14683 0
M  V30 11140 N 1067.32 4.39641 3.50246 0
M  V30 11141 H 1059.47 2.08903 0.383819 0
M  V30 11142 H 1061.73 0.919065 0.232429 0
M  V30 11143 H 1061.44 3.21604 1.4235 0
M  V30 11144 H 1061.31 2.35444 2.94696 0
M  V30 11145 H 1063.7 1.43312 2.57965 0
M  V30 11146 H 1063.78 2.32969 1.05636 0
M  V30 11147 H 1063.43 4.50574 2.34404 0
M  V30 11148 H 1063.36 3.57829 3.86349 0
M  V30 11149 H 1065.85 2.84927 2.48244 0
M  V30 11150 H 1066.16 6.21837 4.58845 0
M  V30 11151 H 1064.51 5.58822 4.13211 0
M  V30 11152 H 1067.7 3.58413 3.01094 0
M  V30 11153 H 1067.87 5.12033 3.97148 0
M  V30 11154 N 1061.28 -1.12907 1.09954 0
M  V30 11155 C 1062.52 -1.84579 0.840155 0
M  V30 11156 C 1062.85 -1.83605 -0.632692 0
M  V30 11157 O 1062.13 -1.27803 -1.46617 0
M  V30 11158 C 1062.41 -3.32489 1.38286 0
M  V30 11159 C 1062.27 -3.41946 2.92221 0
M  V30 11160 C 1063.58 -4.28091 1.0211 0
M  V30 11161 H 1060.7 -0.670169 0.306663 0
M  V30 11162 H 1063.35 -1.3249 1.36185 0
M  V30 11163 H 1061.5 -3.76978 0.939123 0
M  V30 11164 H 1063.17 -3.06128 3.45085 0
M  V30 11165 H 1061.41 -2.8265 3.29077 0
M  V30 11166 H 1062.08 -4.45983 3.25274 0
M  V30 11167 H 1064.56 -3.91701 1.4039 0
M  V30 11168 H 1063.43 -5.30005 1.42781 0
M  V30 11169 H 1063.69 -4.42044 -0.0700753 0
M  V30 11170 N 1062.75 -0.88754 -1.30232 0
M  V30 11171 C 1064.17 -0.581904 -1.48614 0
M  V30 11172 C 1064.37 0.879711 -1.81282 0
M  V30 11173 O 1063.43 1.66076 -1.90198 0
M  V30 11174 C 1064.74 -1.49726 -2.60773 0
M  V30 11175 C 1066.29 -1.50117 -2.74653 0
M  V30 11176 C 1066.76 -2.40251 -3.89927 0
M  V30 11177 N 1068.25 -2.38229 -3.97242 0
M  V30 11178 C 1068.99 -3.04682 -4.85754 0
M  V30 11179 N 1068.48 -3.80369 -5.79043 0
M  V30 11180 N 1070.28 -2.93901 -4.79144 0
M  V30 11181 H 1062.43 -1.83304 -1.073 0
M  V30 11182 H 1064.69 -0.78477 -0.531826 0
M  V30 11183 H 1064.4 -2.5381 -2.43462 0
M  V30 11184 H 1064.27 -1.20874 -3.57308 0
M  V30 11185 H 1066.66 -0.467832 -2.91368 0
M  V30 11186 H 1066.74 -1.83001 -1.7873 0
M  V30 11187 H 1066.38 -3.43671 -3.73969 0
M  V30 11188 H 1066.31 -2.04682 -4.85194 0
M  V30 11189 H 1068.8 -1.83229 -3.30508 0
M  V30 11190 H 1069.12 -4.28159 -6.4335 0
M  V30 11191 H 1067.46 -3.84477 -5.78967 0
M  V30 11192 H 1070.65 -2.34296 -4.05245 0
M  V30 11193 H 1070.83 -3.45967 -5.47915 0
M  V30 11194 N 1064.23 1.43628 -0.648757 0
M  V30 11195 C 1065.16 2.33478 0.0320785 0
M  V30 11196 C 1066.14 1.49217 0.816605 0
M  V30 11197 O 1067.33 1.77892 0.778974 0
M  V30 11198 C 1064.46 3.32525 1.00222 0
M  V30 11199 C 1063.41 4.2674 0.328119 0
M  V30 11200 C 1062.74 5.15791 1.4094 0
M  V30 11201 C 1064.04 5.16493 -0.776701 0
M  V30 11202 H 1065.73 2.90657 -0.718257 0
M  V30 11203 H 1063.28 1.3976 -0.346852 0
M  V30 11204 H 1065.23 3.94277 1.4874 0
M  V30 11205 H 1063.96 2.73593 1.78366 0
M  V30 11206 H 1062.61 3.66346 -0.136569 0
M  V30 11207 H 1062.26 4.53201 2.18216 0
M  V30 11208 H 1061.96 5.79645 0.963631 0
M  V30 11209 H 1063.49 5.80416 1.89603 0
M  V30 11210 H 1064.9 5.7208 -0.373878 0
M  V30 11211 H 1063.3 5.89043 -1.14667 0
M  V30 11212 H 1064.37 4.56448 -1.63654 0
M  V30 11213 N 1065.71 0.390394 1.52688 0
M  V30 11214 C 1066.64 -0.479319 2.24132 0
M  V30 11215 C 1067.66 -1.0258 1.26416 0
M  V30 11216 O 1068.84 -0.927943 1.52484 0
M  V30 11217 C 1065.94 -1.67711 2.94493 0
M  V30 11218 C 1065.12 -1.2578 4.18925 0
M  V30 11219 C 1064.18 -2.3204 4.72275 0
M  V30 11220 O 1063.2 -1.93402 5.35336 0
M  V30 11221 N 1064.4 -3.63967 4.52226 0
M  V30 11222 H 1067.17 0.132777 2.99406 0
M  V30 11223 H 1064.73 0.216807 1.60442 0
M  V30 11224 H 1066.72 -2.38323 3.27084 0
M  V30 11225 H 1065.29 -2.19552 2.22521 0
M  V30 11226 H 1064.51 -0.380528 3.92359 0
M  V30 11227 H 1065.8 -0.954329 4.9977 0
M  V30 11228 H 1065.2 -3.98119 4.01892 0
M  V30 11229 H 1063.76 -4.30611 4.89303 0
M  V30 11230 N 1067.19 -1.57141 0.120249 0
M  V30 11231 C 1068.44 -1.94852 -0.536387 0
M  V30 11232 C 1068.76 -1.00452 -1.67136 0
M  V30 11233 O 1068.03 -0.061053 -1.95805 0
M  V30 11234 H 1066.61 -0.719411 -0.201138 0
M  V30 11235 H 1069.27 -1.93977 0.189482 0
M  V30 11236 H 1068.37 -2.97917 -0.930145 0
M  V30 11237 N 1068.67 0.153526 -1.5685 0
M  V30 11238 C 1069.89 0.886343 -1.87507 0
M  V30 11239 C 1070.32 1.74244 -0.708565 0
M  V30 11240 O 1069.67 1.78045 0.341997 0
M  V30 11241 C 1069.72 1.72428 -3.16703 0
M  V30 11242 O 1068.83 2.82784 -3.00178 0
M  V30 11243 H 1068.17 0.247259 -0.616246 0
M  V30 11244 H 1070.7 0.146306 -2.04076 0
M  V30 11245 H 1070.71 2.12062 -3.4856 0
M  V30 11246 H 1069.38 1.09558 -4.01211 0
M  V30 11247 H 1067.96 2.46604 -2.79716 0
M  V30 11248 N 1070.14 1.51827 0.422667 0
M  V30 11249 C 1071.08 1.68901 1.53453 0
M  V30 11250 C 1072.06 0.536549 1.53492 0
M  V30 11251 O 1073.24 0.762226 1.72402 0
M  V30 11252 C 1070.37 1.71599 2.92013 0
M  V30 11253 C 1069.41 2.92984 3.0994 0
M  V30 11254 S 1070.25 4.53559 2.84683 0
M  V30 11255 C 1071.4 4.59024 4.25498 0
M  V30 11256 H 1071.63 2.62943 1.38739 0
M  V30 11257 H 1069.17 1.41695 0.613347 0
M  V30 11258 H 1071.13 1.73838 3.71874 0
M  V30 11259 H 1069.79 0.787083 3.04079 0
M  V30 11260 H 1068.98 2.91315 4.1128 0
M  V30 11261 H 1068.58 2.88562 2.37924 0
M  V30 11262 H 1070.87 4.35567 5.18929 0
M  V30 11263 H 1071.82 5.60904 4.32195 0
M  V30 11264 H 1072.22 3.88193 4.09837 0
M  V30 11265 N 1071.62 -0.679052 1.4222 0
M  V30 11266 C 1072.55 -1.80481 1.48152 0
M  V30 11267 C 1073.53 -1.66698 0.338502 0
M  V30 11268 O 1074.72 -1.86183 0.552228 0
M  V30 11269 C 1071.85 -3.18746 1.37908 0
M  V30 11270 C 1070.8 -3.47258 2.50192 0
M  V30 11271 C 1070.13 -4.85052 2.25008 0
M  V30 11272 C 1071.43 -3.44576 3.92511 0
M  V30 11273 H 1073.12 -1.75774 2.42371 0
M  V30 11274 H 1070.67 -0.844241 1.16656 0
M  V30 11275 H 1072.62 -3.97229 1.40666 0
M  V30 11276 H 1071.35 -3.24119 0.401806 0
M  V30 11277 H 1070 -2.71133 2.46744 0
M  V30 11278 H 1069.65 -4.8707 1.25584 0
M  V30 11279 H 1069.35 -5.05092 3.00259 0
M  V30 11280 H 1070.88 -5.65825 2.29508 0
M  V30 11281 H 1072.29 -4.13036 3.97585 0
M  V30 11282 H 1070.69 -3.76151 4.67579 0
M  V30 11283 H 1071.76 -2.4323 4.19484 0
M  V30 11284 N 1073.1 -1.28322 -0.914942 0
M  V30 11285 C 1074.05 -1.12146 -2.01722 0
M  V30 11286 C 1075.02 -0.0189279 -1.66089 0
M  V30 11287 O 1076.2 -0.183638 -1.89914 0
M  V30 11288 C 1073.34 -0.78808 -3.35981 0
M  V30 11289 C 1072.46 -1.96954 -3.84491 0
M  V30 11290 C 1071.59 -1.57688 -5.07255 0
M  V30 11291 C 1070.63 -2.72506 -5.48094 0
M  V30 11292 N 1069.77 -2.33741 -6.62049 0
M  V30 11293 H 1074.61 -2.06461 -2.1489 0
M  V30 11294 H 1072.14 -1.0276 -1.05256 0
M  V30 11295 H 1074.1 -0.575546 -4.13211 0
M  V30 11296 H 1072.73 0.118132 -3.22584 0
M  V30 11297 H 1071.78 -2.29423 -3.03429 0
M  V30 11298 H 1073.1 -2.8304 -4.10719 0
M  V30 11299 H 1072.25 -1.32634 -5.92025 0
M  V30 11300 H 1070.99 -0.687291 -4.82833 0
M  V30 11301 H 1069.99 -2.9826 -4.61867 0
M  V30 11302 H 1071.22 -3.62106 -5.74505 0
M  V30 11303 H 1069.16 -1.4725 -6.3926 0
M  V30 11304 H 1069.08 -3.13364 -6.87997 0
M  V30 11305 H 1070.35 -2.11968 -7.50127 0
M  V30 11306 N 1074.58 1.12322 -1.10551 0
M  V30 11307 C 1075.99 1.6539 -0.8662 0
M  V30 11308 C 1076.34 1.86695 0.603284 0
M  V30 11309 O 1075.47 1.59432 1.46323 0
M  V30 11310 C 1076.06 3.00443 -1.56587 0
M  V30 11311 C 1074.62 3.50456 -1.37323 0
M  V30 11312 C 1073.77 2.25454 -1.61449 0
M  V30 11313 H 1076.72 0.960866 -1.26305 0
M  V30 11314 H 1076.74 3.66972 -1.00557 0
M  V30 11315 H 1076.25 2.84905 -2.63535 0
M  V30 11316 H 1074.35 3.71176 -0.325431 0
M  V30 11317 H 1074.46 4.29839 -2.11601 0
M  V30 11318 H 1072.83 2.32621 -1.03729 0
M  V30 11319 H 1073.61 2.12469 -2.69651 0
M  V30 11320 N 1076.06 0.894434 1.2976 0
M  V30 11321 C 1077.28 0.5322 2.00455 0
M  V30 11322 C 1077.71 -0.874427 1.66539 0
M  V30 11323 O 1077.06 -1.58113 0.887129 0
M  V30 11324 C 1077.11 0.725264 3.53231 0
M  V30 11325 O 1076.22 -0.224612 4.11788 0
M  V30 11326 H 1075.56 0.208562 0.630395 0
M  V30 11327 H 1078.09 1.20458 1.65382 0
M  V30 11328 H 1078.1 0.627889 4.0314 0
M  V30 11329 H 1076.77 1.75079 3.77253 0
M  V30 11330 H 1075.35 -0.0801361 3.72814 0
M  V30 11331 N 1077.53 -1.43282 0.656365 0
M  V30 11332 C 1078.76 -2.06641 0.177245 0
M  V30 11333 C 1079.18 -1.48893 -1.14946 0
M  V30 11334 O 1078.54 -0.600099 -1.7108 0
M  V30 11335 C 1078.59 -3.60453 0.10299 0
M  V30 11336 O 1077.69 -4.01687 -0.933895 0
M  V30 11337 H 1077.04 -0.656978 0.096314 0
M  V30 11338 H 1079.57 -1.83733 0.900178 0
M  V30 11339 H 1079.58 -4.07923 -0.079291 0
M  V30 11340 H 1078.25 -4.01861 1.07147 0
M  V30 11341 H 1076.83 -3.65801 -0.724148 0
M  V30 11342 N 1079.01 -0.398486 -1.52479 0
M  V30 11343 C 1079.94 0.423498 -2.29627 0
M  V30 11344 C 1080.92 1.05547 -1.33394 0
M  V30 11345 O 1082.11 1.0665 -1.62294 0
M  V30 11346 C 1079.24 1.54612 -3.10986 0
M  V30 11347 C 1078.19 1.03971 -4.15179 0
M  V30 11348 C 1077.52 2.25512 -4.84818 0
M  V30 11349 C 1078.82 0.10121 -5.22202 0
M  V30 11350 H 1080.51 -0.220222 -2.98589 0
M  V30 11351 H 1078.06 -0.107355 -1.43599 0
M  V30 11352 H 1080.01 2.12806 -3.63719 0
M  V30 11353 H 1078.74 2.21756 -2.39774 0
M  V30 11354 H 1077.4 0.480251 -3.63441 0
M  V30 11355 H 1077.04 2.91187 -4.10145 0
M  V30 11356 H 1076.74 1.92285 -5.55248 0
M  V30 11357 H 1078.27 2.84331 -5.40359 0
M  V30 11358 H 1079.68 0.591617 -5.70239 0
M  V30 11359 H 1078.08 -0.141737 -5.99933 0
M  V30 11360 H 1079.15 -0.847216 -4.77441 0
M  V30 11361 N 1080.49 1.57075 -0.12858 0
M  V30 11362 C 1081.74 1.9581 0.527868 0
M  V30 11363 C 1082.07 1.01253 1.65715 0
M  V30 11364 O 1081.35 0.0514853 1.94432 0
M  V30 11365 C 1081.63 3.44406 1.05151 0
M  V30 11366 C 1081.48 4.49737 -0.0750113 0
M  V30 11367 C 1082.8 3.95069 1.9393 0
M  V30 11368 H 1079.92 0.711978 0.19041 0
M  V30 11369 H 1082.56 1.88879 -0.206081 0
M  V30 11370 H 1080.71 3.50443 1.67697 0
M  V30 11371 H 1082.38 4.55793 -0.710685 0
M  V30 11372 H 1080.63 4.27497 -0.736809 0
M  V30 11373 H 1081.3 5.50996 0.332779 0
M  V30 11374 H 1083.77 3.91395 1.41241 0
M  V30 11375 H 1082.65 4.99542 2.27484 0
M  V30 11376 H 1082.91 3.36329 2.86941 0
M  V30 11377 N 1081.97 -0.145205 1.5693 0
M  V30 11378 C 1083.22 -0.858786 1.83719 0
M  V30 11379 C 1083.55 -1.80738 0.710452 0
M  V30 11380 O 1082.82 -1.92389 -0.285791 0
M  V30 11381 C 1083.11 -1.6317 3.2101 0
M  V30 11382 C 1082.96 -0.704472 4.44249 0
M  V30 11383 C 1084.28 -2.59377 3.55544 0
M  V30 11384 H 1081.4 -0.310757 0.66828 0
M  V30 11385 H 1084.04 -0.123918 1.89595 0
M  V30 11386 H 1082.19 -2.25816 3.16132 0
M  V30 11387 H 1083.86 -0.08887 4.61214 0
M  V30 11388 H 1082.1 -0.0141693 4.33798 0
M  V30 11389 H 1082.78 -1.28135 5.36922 0
M  V30 11390 H 1085.25 -2.06848 3.61044 0
M  V30 11391 H 1084.13 -3.10506 4.52634 0
M  V30 11392 H 1084.39 -3.40819 2.81594 0
M  V30 11393 N 1083.45 -1.52049 -0.414609 0
M  V30 11394 C 1084.69 -1.66084 -1.16379 0
M  V30 11395 C 1085.03 -0.386932 -1.90306 0
M  V30 11396 O 1084.3 0.614441 -1.8454 0
M  V30 11397 C 1084.58 -2.87927 -2.16264 0
M  V30 11398 C 1084.44 -4.25353 -1.46269 0
M  V30 11399 C 1085.76 -3.05289 -3.16996 0
M  V30 11400 H 1082.88 -0.604414 -0.421726 0
M  V30 11401 H 1085.52 -1.8459 -0.450177 0
M  V30 11402 H 1083.67 -2.7228 -2.77121 0
M  V30 11403 H 1085.34 -4.52717 -0.885743 0
M  V30 11404 H 1083.58 -4.27006 -0.76472 0
M  V30 11405 H 1084.25 -5.06644 -2.19126 0
M  V30 11406 H 1086.73 -3.19798 -2.66212 0
M  V30 11407 H 1085.61 -3.92065 -3.84156 0
M  V30 11408 H 1085.87 -2.1836 -3.84411 0
M  V30 11409 N 1084.93 0.6715 -1.42579 0
M  V30 11410 C 1085.88 1.77767 -1.42769 0
M  V30 11411 C 1086.86 1.58106 -0.298568 0
M  V30 11412 O 1088.05 1.68528 -0.541037 0
M  V30 11413 C 1085.18 3.16248 -1.33574 0
M  V30 11414 C 1084.27 3.41521 -2.51445 0
M  V30 11415 N 1084.66 3.37361 -3.76857 0
M  V30 11416 C 1082.96 3.7217 -2.45776 0
M  V30 11417 C 1083.66 3.62209 -4.5517 0
M  V30 11418 N 1082.63 3.83134 -3.85628 0
M  V30 11419 H 1086.43 1.72949 -2.37626 0
M  V30 11420 H 1083.95 0.872467 -1.36974 0
M  V30 11421 H 1085.95 3.9552 -1.31793 0
M  V30 11422 H 1084.61 3.22261 -0.397223 0
M  V30 11423 H 1085.62 3.17187 -4.09406 0
M  V30 11424 H 1082.29 3.85408 -1.6052 0
M  V30 11425 H 1083.68 3.64925 -5.64162 0
M  V30 11426 N 1086.4 1.28806 0.908124 0
M  V30 11427 C 1087.81 1.14719 1.47297 0
M  V30 11428 C 1088.17 -0.260763 1.94459 0
M  V30 11429 O 1087.29 -1.15553 1.82966 0
M  V30 11430 C 1087.89 2.07643 2.67712 0
M  V30 11431 C 1086.44 1.97605 3.20358 0
M  V30 11432 C 1085.59 1.99058 1.93058 0
M  V30 11433 H 1088.54 1.41413 0.720283 0
M  V30 11434 H 1088.56 1.64372 3.43165 0
M  V30 11435 H 1088.08 3.10108 2.33355 0
M  V30 11436 H 1086.18 0.981982 3.59427 0
M  V30 11437 H 1086.29 2.84846 3.85226 0
M  V30 11438 H 1084.65 1.43541 2.104 0
M  V30 11439 H 1085.44 3.03212 1.60989 0
M  V30 11440 N 1087.88 -1.11734 1.11145 0
M  V30 11441 C 1088.81 -2.1976 0.789152 0
M  V30 11442 C 1089.79 -1.68382 -0.241143 0
M  V30 11443 O 1090.98 -1.93914 -0.105292 0
M  V30 11444 C 1088.11 -3.46549 0.228204 0
M  V30 11445 C 1087.06 -4.11123 1.19002 0
M  V30 11446 C 1086.39 -5.32451 0.489928 0
M  V30 11447 C 1087.69 -4.56406 2.53951 0
M  V30 11448 H 1089.38 -2.46978 1.69241 0
M  V30 11449 H 1086.93 -1.18705 0.81517 0
M  V30 11450 H 1088.88 -4.21399 -0.00945908 0
M  V30 11451 H 1087.6 -3.18782 -0.71033 0
M  V30 11452 H 1086.26 -3.38264 1.41326 0
M  V30 11453 H 1085.91 -5.00953 -0.453315 0
M  V30 11454 H 1085.61 -5.76605 1.1314 0
M  V30 11455 H 1087.14 -6.10042 0.260984 0
M  V30 11456 H 1088.55 -5.22592 2.35733 0
M  V30 11457 H 1086.95 -5.11363 3.14051 0
M  V30 11458 H 1088.02 -3.7001 3.13402 0
M  V30 11459 N 1089.36 -0.901303 -1.29284 0
M  V30 11460 C 1090.32 -0.385081 -2.25942 0
M  V30 11461 C 1091.32 0.481626 -1.53418 0
M  V30 11462 O 1092.51 0.286451 -1.71829 0
M  V30 11463 C 1089.64 0.449319 -3.37926 0
M  V30 11464 H 1090.84 -1.23877 -2.7312 0
M  V30 11465 H 1088.39 -0.679586 -1.40753 0
M  V30 11466 H 1089.13 1.32292 -2.9609 0
M  V30 11467 H 1088.91 -0.171731 -3.91724 0
M  V30 11468 H 1090.4 0.801746 -4.09831 0
M  V30 11469 N 1090.84 1.42931 -0.663954 0
M  V30 11470 C 1091.78 2.3079 0.0210764 0
M  V30 11471 C 1092.75 1.45356 0.803796 0
M  V30 11472 O 1093.94 1.74207 0.778237 0
M  V30 11473 C 1091.08 3.31069 0.974023 0
M  V30 11474 C 1090.19 4.31598 0.186273 0
M  V30 11475 C 1089.33 5.18955 1.13399 0
M  V30 11476 C 1088.37 6.1117 0.337292 0
M  V30 11477 N 1087.5 6.91114 1.23715 0
M  V30 11478 H 1092.34 2.88819 -0.733995 0
M  V30 11479 H 1089.88 1.42274 -0.373711 0
M  V30 11480 H 1091.84 3.87727 1.54024 0
M  V30 11481 H 1090.47 2.74665 1.69585 0
M  V30 11482 H 1089.52 3.77147 -0.496402 0
M  V30 11483 H 1090.83 4.96919 -0.432753 0
M  V30 11484 H 1089.99 5.80292 1.77049 0
M  V30 11485 H 1088.73 4.53785 1.78691 0
M  V30 11486 H 1087.73 5.48911 -0.312492 0
M  V30 11487 H 1088.96 6.78386 -0.31138 0
M  V30 11488 H 1086.9 6.28583 1.87668 0
M  V30 11489 H 1086.82 7.52999 0.672946 0
M  V30 11490 H 1088.09 7.56948 1.86146 0
M  V30 11491 N 1092.32 0.406567 1.52266 0
M  V30 11492 C 1093.73 -0.063607 1.86592 0
M  V30 11493 C 1094.08 -1.4466 1.32544 0
M  V30 11494 O 1093.2 -2.05971 0.663692 0
M  V30 11495 C 1093.8 -0.122198 3.3858 0
M  V30 11496 C 1092.36 -0.536701 3.72554 0
M  V30 11497 C 1091.5 0.290422 2.75775 0
M  V30 11498 H 1094.45 0.623738 1.45929 0
M  V30 11499 H 1094.48 -0.937964 3.68758 0
M  V30 11500 H 1093.99 0.884495 3.77887 0
M  V30 11501 H 1092.09 -1.55013 3.38824 0
M  V30 11502 H 1092.2 -0.282867 4.78264 0
M  V30 11503 H 1090.57 -0.246864 2.53501 0
M  V30 11504 H 1091.35 1.29541 3.17921 0
M  V30 11505 N 1093.79 -1.57004 0.136909 0
M  V30 11506 C 1095.04 -1.9541 -0.51569 0
M  V30 11507 C 1095.36 -1.02219 -1.66061 0
M  V30 11508 O 1094.63 -0.0818172 -1.95729 0
M  V30 11509 H 1093.21 -0.721504 -0.193497 0
M  V30 11510 H 1095.88 -1.93765 0.210046 0
M  V30 11511 H 1094.97 -2.98887 -0.898494 0
M  V30 11512 N 1095.27 0.136881 -1.57004 0
M  V30 11513 C 1096.24 1.15267 -1.98106 0
M  V30 11514 C 1097.24 1.35305 -0.868856 0
M  V30 11515 O 1098.43 1.32126 -1.13527 0
M  V30 11516 C 1095.56 2.51092 -2.30577 0
M  V30 11517 H 1096.75 0.799821 -2.89038 0
M  V30 11518 H 1094.3 0.380576 -1.51596 0
M  V30 11519 H 1095.04 2.9133 -1.42469 0
M  V30 11520 H 1094.82 2.37906 -3.11678 0
M  V30 11521 H 1096.31 3.24232 -2.63179 0
M  V30 11522 N 1096.75 1.52266 0.40654 0
M  V30 11523 C 1098.03 1.57018 1.1664 0
M  V30 11524 C 1098.41 0.352752 2.08132 0
M  V30 11525 O 1097.76 -0.660208 2.18754 0
M  V30 11526 C 1097.97 2.90016 1.94143 0
M  V30 11527 C 1099.31 3.43112 2.50119 0
M  V30 11528 O 1100.34 2.91773 2.0432 0
M  V30 11529 O 1099.2 4.32765 3.33731 0
M  V30 11530 H 1096.29 0.632574 0.532709 0
M  V30 11531 H 1098.84 1.64595 0.413111 0
M  V30 11532 H 1097.61 3.70071 1.27134 0
M  V30 11533 H 1097.23 2.85744 2.76471 0
M  V30 11534 N 1098.23 -0.663929 1.42933 0
M  V30 11535 C 1099.64 -1.24484 1.39143 0
M  V30 11536 C 1099.99 -1.95993 0.0901142 0
M  V30 11537 O 1099.12 -2.00636 -0.810812 0
M  V30 11538 C 1099.71 -2.26402 2.52047 0
M  V30 11539 C 1098.27 -2.79995 2.51555 0
M  V30 11540 C 1097.42 -1.54475 2.30289 0
M  V30 11541 H 1100.37 -0.456619 1.51989 0
M  V30 11542 H 1100.39 -3.08361 2.22921 0
M  V30 11543 H 1099.9 -1.74328 3.46744 0
M  V30 11544 H 1098 -3.36161 1.60707 0
M  V30 11545 H 1098.11 -3.2827 3.48964 0
M  V30 11546 H 1096.48 -1.81437 1.78753 0
M  V30 11547 H 1097.26 -1.04351 3.27056 0
M  V30 11548 N 1099.71 -1.29285 -0.901281 0
M  V30 11549 C 1100.95 -1.18431 -1.66594 0
M  V30 11550 C 1101.31 0.260312 -1.90227 0
M  V30 11551 O 1102.51 0.4918 -2.64263 0
M  V30 11552 C 1100.78 -1.97357 -2.97968 0
M  V30 11553 S 1102.34 -2.03019 -3.8901 0
M  V30 11554 H 1099.16 -0.422323 -0.571983 0
M  V30 11555 H 1101.76 -1.63551 -1.07105 0
M  V30 11556 H 1100.47 -3.01459 -2.78479 0
M  V30 11557 H 1100 -1.52836 -3.62498 0
M  V30 11558 H 1102.01 -1.14572 -4.82791 0
M  V30 11559 N 1101.18 1.11143 -1.11736 0
M  V30 11560 C 1102.11 2.19339 -0.800795 0
M  V30 11561 C 1103.1 1.68508 0.23221 0
M  V30 11562 O 1104.28 1.93967 0.0950063 0
M  V30 11563 C 1101.41 3.46424 -0.246579 0
M  V30 11564 C 1100.36 4.10487 -1.21181 0
M  V30 11565 C 1099.69 5.32183 -0.518158 0
M  V30 11566 C 1100.99 4.55052 -2.56368 0
M  V30 11567 H 1102.68 2.46077 -1.70548 0
M  V30 11568 H 1100.23 1.18271 -0.821454 0
M  V30 11569 H 1102.18 4.21398 -0.0128889 0
M  V30 11570 H 1100.91 3.19154 0.693415 0
M  V30 11571 H 1099.57 3.3751 -1.43118 0
M  V30 11572 H 1099.21 5.01187 0.426742 0
M  V30 11573 H 1098.91 5.75997 -1.16196 0
M  V30 11574 H 1100.44 6.09895 -0.293333 0
M  V30 11575 H 1101.85 5.21335 -2.38501 0
M  V30 11576 H 1100.25 5.0969 -3.16758 0
M  V30 11577 H 1101.32 3.68343 -3.1536 0
M  V30 11578 N 1102.66 0.908147 1.28804 0
M  V30 11579 C 1103.89 0.553287 1.99054 0
M  V30 11580 C 1104.3 -0.868455 1.68091 0
M  V30 11581 O 1103.64 -1.58599 0.926939 0
M  V30 11582 C 1103.71 0.675823 3.5309 0
M  V30 11583 C 1103.37 2.06608 4.0763 0
M  V30 11584 C 1104.37 3.03819 4.21889 0
M  V30 11585 C 1102.05 2.37775 4.42457 0
M  V30 11586 C 1104.05 4.30316 4.7022 0
M  V30 11587 C 1101.73 3.64512 4.90484 0
M  V30 11588 C 1102.73 4.60597 5.04321 0
M  V30 11589 O 1102.42 5.85082 5.51302 0
M  V30 11590 H 1102.15 0.210152 0.642504 0
M  V30 11591 H 1104.7 1.22188 1.65104 0
M  V30 11592 H 1102.93 -0.0498253 3.86668 0
M  V30 11593 H 1104.62 0.328884 4.04565 0
M  V30 11594 H 1105.39 2.81057 3.95262 0
M  V30 11595 H 1101.27 1.63742 4.3094 0
M  V30 11596 H 1104.81 5.05318 4.80936 0
M  V30 11597 H 1100.71 3.87101 5.1655 0
M  V30 11598 H 1101.48 5.87791 5.69599 0
M  V30 11599 N 1104.14 -1.42577 0.671525 0
M  V30 11600 C 1105.07 -2.2915 -0.0477361 0
M  V30 11601 C 1106.09 -1.43503 -0.768805 0
M  V30 11602 O 1107.27 -1.67256 -0.623509 0
M  V30 11603 C 1104.37 -3.20851 -1.09122 0
M  V30 11604 C 1103.55 -4.35134 -0.44463 0
M  V30 11605 C 1102.61 -5.07579 -1.38745 0
M  V30 11606 O 1101.63 -5.62215 -0.889015 0
M  V30 11607 N 1102.83 -5.12786 -2.72086 0
M  V30 11608 H 1105.6 -2.9152 0.695415 0
M  V30 11609 H 1103.16 -1.53467 0.515689 0
M  V30 11610 H 1105.15 -3.66183 -1.72315 0
M  V30 11611 H 1103.72 -2.59956 -1.73614 0
M  V30 11612 H 1102.94 -3.9249 0.36675 0
M  V30 11613 H 1104.23 -5.088 0.00595927 0
M  V30 11614 H 1103.63 -4.69802 -3.15123 0
M  V30 11615 H 1102.19 -5.61774 -3.30535 0
M  V30 11616 N 1105.62 -0.414636 -1.52048 0
M  V30 11617 C 1106.57 0.422766 -2.28726 0
M  V30 11618 C 1107.56 1.04099 -1.3364 0
M  V30 11619 O 1108.77 0.978559 -1.51077 0
M  V30 11620 H 1105.14 0.155123 -0.735827 0
M  V30 11621 H 1107.11 -0.245091 -2.97392 0
M  V30 11622 C 1105.86 1.52418 -3.12513 0
M  V30 11623 H 1105.18 1.05781 -3.85552 0
M  V30 11624 H 1106.62 2.08382 -3.6926 0
M  V30 11625 C 1105.08 2.49465 -2.26426 0
M  V30 11626 O 1105.61 3.53479 -1.90829 0
M  V30 11627 N 1103.82 2.19806 -1.90088 0
M  V30 11628 H 1103.37 1.35253 -2.19236 0
M  V30 11629 H 1103.32 2.84984 -1.32783 0
M  V30 11630 N 1107.1 1.56929 -0.145233 0
M  V30 11631 C 1108.34 1.95681 0.50532 0
M  V30 11632 C 1108.67 1.03098 1.65516 0
M  V30 11633 O 1107.94 0.0921961 1.95683 0
M  V30 11634 H 1106.52 0.72252 0.189668 0
M  V30 11635 H 1109.18 1.93651 -0.220318 0
M  V30 11636 H 1108.27 2.99359 0.882631 0
M  V30 11637 N 1108.58 -0.128553 1.57075 0
M  V30 11638 C 1109.82 -0.836355 1.83982 0
M  V30 11639 C 1110.14 -1.80862 0.728971 0
M  V30 11640 O 1109.41 -1.94326 -0.247859 0
M  V30 11641 H 1107.99 -0.31185 0.678792 0
M  V30 11642 H 1110.66 -0.118153 1.94542 0
M  V30 11643 H 1109.75 -1.38741 2.79567 0
M  V30 11644 N 1110.05 -1.5248 -0.398459 0
M  V30 11645 C 1111.29 -1.68744 -1.15346 0
M  V30 11646 C 1111.66 -0.413739 -1.87489 0
M  V30 11647 O 1112.86 -0.452624 -2.64962 0
M  V30 11648 C 1111.13 -2.8824 -2.11311 0
M  V30 11649 S 1112.69 -3.25043 -2.94775 0
M  V30 11650 H 1109.51 -0.594099 -0.390598 0
M  V30 11651 H 1112.11 -1.90502 -0.439228 0
M  V30 11652 H 1110.81 -3.79175 -1.57017 0
M  V30 11653 H 1110.34 -2.68787 -2.87258 0
M  V30 11654 H 1112.36 -2.74495 -4.13361 0
M  V30 11655 N 1111.53 0.65634 -1.43283 0
M  V30 11656 C 1112.44 1.79847 -1.50639 0
M  V30 11657 C 1113.46 1.69487 -0.393714 0
M  V30 11658 O 1114.63 1.90712 -0.647379 0
M  V30 11659 C 1111.7 3.16107 -1.42398 0
M  V30 11660 C 1110.76 3.38287 -2.64312 0
M  V30 11661 C 1109.99 4.68046 -2.56454 0
M  V30 11662 O 1110.22 5.4719 -1.61056 0
M  V30 11663 O 1109.15 4.91877 -3.46902 0
M  V30 11664 H 1112.98 1.76596 -2.47078 0
M  V30 11665 H 1110.56 0.814428 -1.25249 0
M  V30 11666 H 1112.44 3.97382 -1.40233 0
M  V30 11667 H 1111.12 3.19956 -0.490929 0
M  V30 11668 H 1110.02 2.56788 -2.72049 0
M  V30 11669 H 1111.36 3.39282 -3.56579 0
M  V30 11670 N 1113.01 1.29761 0.894412 0
M  V30 11671 C 1113.96 1.11962 1.98617 0
M  V30 11672 C 1114.94 0.0374952 1.60856 0
M  V30 11673 O 1116.14 0.259789 1.75083 0
M  V30 11674 C 1113.26 0.803708 3.3376 0
M  V30 11675 C 1112.35 1.92563 3.77863 0
M  V30 11676 N 1112.74 3.16983 3.94152 0
M  V30 11677 C 1111.04 1.81986 4.07182 0
M  V30 11678 C 1111.74 3.90212 4.31404 0
M  V30 11679 N 1110.72 3.18194 4.40742 0
M  V30 11680 H 1114.52 2.06339 2.09287 0
M  V30 11681 H 1112.03 1.20963 1.08359 0
M  V30 11682 H 1114.03 0.657223 4.11687 0
M  V30 11683 H 1112.69 -0.132098 3.24431 0
M  V30 11684 H 1113.7 3.52378 3.79539 0
M  V30 11685 H 1110.38 0.957112 4.06381 0
M  V30 11686 H 1111.77 4.97312 4.51808 0
M  V30 11687 N 1114.49 -1.10549 1.12324 0
M  V30 11688 C 1115.74 -1.81851 0.872531 0
M  V30 11689 C 1116.05 -1.86058 -0.603468 0
M  V30 11690 O 1117.26 -2.53553 -0.970736 0
M  V30 11691 C 1115.71 -3.26631 1.51131 0
M  V30 11692 C 1115.32 -3.30725 3.02201 0
M  V30 11693 C 1117.06 -4.02768 1.34082 0
M  V30 11694 C 1114.97 -4.69957 3.59018 0
M  V30 11695 H 1113.9 -0.681422 0.322769 0
M  V30 11696 H 1116.55 -1.24332 1.34959 0
M  V30 11697 H 1114.93 -3.8414 0.961913 0
M  V30 11698 H 1116.11 -2.83046 3.63623 0
M  V30 11699 H 1114.42 -2.68072 3.18632 0
M  V30 11700 H 1117.02 -5.05612 1.73955 0
M  V30 11701 H 1117.36 -4.15328 0.284369 0
M  V30 11702 H 1117.9 -3.51671 1.85937 0
M  V30 11703 H 1114.63 -4.62597 4.64418 0
M  V30 11704 H 1114.15 -5.18008 3.02371 0
M  V30 11705 H 1115.83 -5.38925 3.58007 0
M  V30 11706 N 1115.97 -0.914965 -1.28321 0
M  V30 11707 C 1117.21 -0.555865 -1.96696 0
M  V30 11708 C 1117.57 0.8842 -1.70429 0
M  V30 11709 O 1118.77 1.35094 -2.32386 0
M  V30 11710 C 1117.04 -0.857942 -3.4695 0
M  V30 11711 S 1118.6 -0.605441 -4.34603 0
M  V30 11712 H 1115.42 -0.20564 -0.680612 0
M  V30 11713 H 1118.02 -1.18068 -1.55821 0
M  V30 11714 H 1116.72 -1.90394 -3.63563 0
M  V30 11715 H 1116.26 -0.221831 -3.92774 0
M  V30 11716 H 1118.27 0.542657 -4.93224 0
M  V30 11717 N 1117.44 1.42219 -0.679077 0
M  V30 11718 C 1118.39 2.308 -0.00340316 0
M  V30 11719 C 1119.36 1.462 0.788334 0
M  V30 11720 O 1120.55 1.75023 0.759716 0
M  V30 11721 C 1117.69 3.32084 0.938854 0
M  V30 11722 C 1116.8 4.31772 0.140485 0
M  V30 11723 C 1115.93 5.20128 1.07888 0
M  V30 11724 C 1114.97 6.11493 0.27245 0
M  V30 11725 N 1114.11 6.92388 1.16378 0
M  V30 11726 H 1118.95 2.88024 -0.764587 0
M  V30 11727 H 1116.49 1.41869 -0.38878 0
M  V30 11728 H 1118.44 3.89339 1.49903 0
M  V30 11729 H 1117.07 2.76448 1.66662 0
M  V30 11730 H 1116.13 3.76599 -0.536376 0
M  V30 11731 H 1117.44 4.96432 -0.485433 0
M  V30 11732 H 1116.59 5.82137 1.70884 0
M  V30 11733 H 1115.33 4.55655 1.73868 0
M  V30 11734 H 1114.34 5.48549 -0.370693 0
M  V30 11735 H 1115.56 6.78017 -0.383315 0
M  V30 11736 H 1113.51 6.30538 1.8099 0
M  V30 11737 H 1113.42 7.5367 0.593043 0
M  V30 11738 H 1114.69 7.58879 1.78107 0
M  V30 11739 N 1118.92 0.422693 1.51826 0
M  V30 11740 C 1119.87 -0.396088 2.27376 0
M  V30 11741 C 1120.84 -1.02946 1.30351 0
M  V30 11742 O 1122.02 -1.05116 1.59233 0
M  V30 11743 C 1119.16 -1.49942 3.10824 0
M  V30 11744 C 1118.28 -0.885623 4.22825 0
M  V30 11745 C 1117.41 -1.96278 4.93608 0
M  V30 11746 C 1116.45 -1.32664 5.97551 0
M  V30 11747 N 1115.59 -2.34452 6.61798 0
M  V30 11748 H 1120.43 0.254571 2.96911 0
M  V30 11749 H 1117.96 0.137383 1.46457 0
M  V30 11750 H 1119.92 -2.15023 3.57521 0
M  V30 11751 H 1118.55 -2.11991 2.43433 0
M  V30 11752 H 1117.6 -0.123491 3.80199 0
M  V30 11753 H 1118.92 -0.381057 4.97342 0
M  V30 11754 H 1118.07 -2.69055 5.43778 0
M  V30 11755 H 1116.81 -2.50103 4.18688 0
M  V30 11756 H 1115.81 -0.584262 5.46687 0
M  V30 11757 H 1117.04 -0.7959 6.7442 0
M  V30 11758 H 1114.99 -2.87385 5.897 0
M  V30 11759 H 1114.9 -1.88845 7.32034 0
M  V30 11760 H 1116.17 -3.06757 7.16603 0
M  V30 11761 N 1120.4 -1.5685 0.153553 0
M  V30 11762 C 1121.82 -1.58306 -0.202801 0
M  V30 11763 C 1122.02 -1.16813 -1.64186 0
M  V30 11764 O 1121.07 -0.871468 -2.36985 0
M  V30 11765 C 1122.38 -3.00636 0.0619012 0
M  V30 11766 C 1123.93 -3.13 -0.00129219 0
M  V30 11767 C 1124.41 -4.57391 0.236164 0
M  V30 11768 N 1125.9 -4.62837 0.18332 0
M  V30 11769 C 1126.63 -5.72382 0.341471 0
M  V30 11770 N 1126.13 -6.90552 0.557704 0
M  V30 11771 N 1127.92 -5.61409 0.278615 0
M  V30 11772 H 1120.07 -1.82113 1.09309 0
M  V30 11773 H 1122.34 -0.843228 0.433209 0
M  V30 11774 H 1122.04 -3.35406 1.0581 0
M  V30 11775 H 1121.92 -3.71477 -0.654555 0
M  V30 11776 H 1124.3 -2.78068 -0.98805 0
M  V30 11777 H 1124.38 -2.44632 0.747596 0
M  V30 11778 H 1124.03 -4.93029 1.22005 0
M  V30 11779 H 1123.96 -5.23894 -0.533125 0
M  V30 11780 H 1126.45 -3.77894 0.0211138 0
M  V30 11781 H 1126.76 -7.69905 0.66831 0
M  V30 11782 H 1125.11 -6.92456 0.594105 0
M  V30 11783 H 1128.3 -4.6797 0.110401 0
M  V30 11784 H 1128.47 -6.46731 0.4053 0
M  V30 11785 N 1121.88 0.120221 -1.57141 0
M  V30 11786 C 1122.81 1.14876 -2.03287 0
M  V30 11787 C 1123.79 1.43259 -0.917112 0
M  V30 11788 O 1124.97 1.53721 -1.18674 0
M  V30 11789 C 1122.1 2.47525 -2.43616 0
M  V30 11790 C 1121.06 2.33607 -3.58625 0
M  V30 11791 C 1120.38 3.71207 -3.84849 0
M  V30 11792 C 1121.68 1.79761 -4.90391 0
M  V30 11793 H 1123.38 0.764943 -2.89463 0
M  V30 11794 H 1120.92 0.366516 -1.39258 0
M  V30 11795 H 1122.88 3.19728 -2.74504 0
M  V30 11796 H 1121.6 2.87794 -1.54409 0
M  V30 11797 H 1120.26 1.63853 -3.27945 0
M  V30 11798 H 1119.91 4.0896 -2.9285 0
M  V30 11799 H 1119.61 3.62749 -4.62263 0
M  V30 11800 H 1121.13 4.44917 -4.18188 0
M  V30 11801 H 1122.55 2.4178 -5.19822 0
M  V30 11802 H 1120.94 1.82126 -5.71795 0
M  V30 11803 H 1122.01 0.755087 -4.78985 0
M  V30 11804 N 1123.36 1.52689 0.390367 0
M  V30 11805 C 1124.6 1.67335 1.13329 0
M  V30 11806 C 1124.93 0.415068 1.90531 0
M  V30 11807 O 1124.2 -0.570504 1.87409 0
M  V30 11808 H 1122.78 0.616821 0.421356 0
M  V30 11809 H 1125.44 1.89799 0.443 0
M  V30 11810 H 1124.53 2.52314 1.83696 0
M  V30 11811 N 1124.83 -0.648732 1.43629 0
M  V30 11812 C 1126.06 -1.4362 1.48932 0
M  V30 11813 C 1126.48 -1.88487 0.108599 0
M  V30 11814 O 1125.83 -1.59768 -0.882066 0
M  V30 11815 C 1125.89 -2.66822 2.43903 0
M  V30 11816 O 1125.61 -2.2383 3.76606 0
M  V30 11817 C 1127.11 -3.60134 2.58493 0
M  V30 11818 H 1124.33 -0.441055 0.505679 0
M  V30 11819 H 1126.87 -0.794936 1.88417 0
M  V30 11820 H 1125.03 -3.27079 2.07601 0
M  V30 11821 H 1125.44 -3.03575 4.27718 0
M  V30 11822 H 1126.91 -4.43234 3.29011 0
M  V30 11823 H 1127.39 -4.07779 1.63134 0
M  V30 11824 H 1128 -3.05756 2.95624 0
M  V30 11825 N 1126.31 -1.30234 -0.887518 0
M  V30 11826 C 1127.28 -1.16384 -1.97452 0
M  V30 11827 C 1128.28 -0.0957942 -1.60514 0
M  V30 11828 O 1129.47 -0.343706 -1.70776 0
M  V30 11829 C 1126.6 -0.782514 -3.31797 0
M  V30 11830 H 1127.79 -2.12952 -2.11167 0
M  V30 11831 H 1125.34 -1.13594 -1.07359 0
M  V30 11832 H 1126.08 0.18278 -3.23785 0
M  V30 11833 H 1125.86 -1.55434 -3.59976 0
M  V30 11834 H 1127.35 -0.709011 -4.11537 0
M  V30 11835 N 1127.79 1.09952 -1.12909 0
M  V30 11836 C 1129.04 1.82467 -0.898733 0
M  V30 11837 C 1129.39 1.83788 0.569196 0
M  V30 11838 O 1128.68 1.29117 1.4156 0
M  V30 11839 C 1128.88 3.28252 -1.41369 0
M  V30 11840 C 1128.71 3.41133 -2.93015 0
M  V30 11841 C 1127.48 3.53253 -3.61304 0
M  V30 11842 C 1129.68 3.34118 -3.90986 0
M  V30 11843 N 1127.66 3.54762 -5.01016 0
M  V30 11844 C 1129.03 3.42431 -5.16857 0
M  V30 11845 C 1131.08 3.1775 -3.83327 0
M  V30 11846 C 1129.79 3.36063 -6.35967 0
M  V30 11847 C 1131.81 3.12705 -5.01966 0
M  V30 11848 C 1131.17 3.21605 -6.26697 0
M  V30 11849 H 1127.27 0.682232 -0.382208 0
M  V30 11850 H 1129.86 1.31446 -1.43631 0
M  V30 11851 H 1128.03 3.77755 -0.903097 0
M  V30 11852 H 1129.76 3.88752 -1.12489 0
M  V30 11853 H 1126.52 3.56472 -3.11809 0
M  V30 11854 H 1126.94 3.59115 -5.73904 0
M  V30 11855 H 1131.58 3.09742 -2.87784 0
M  V30 11856 H 1129.3 3.42835 -7.31772 0
M  V30 11857 H 1132.89 3.01183 -4.97775 0
M  V30 11858 H 1131.77 3.1771 -7.16959 0
M  V30 11859 N 1129.27 0.921757 1.27833 0
M  V30 11860 C 1130.51 0.566288 1.96399 0
M  V30 11861 C 1130.87 -0.875149 1.70895 0
M  V30 11862 O 1132.07 -1.3386 2.33099 0
M  V30 11863 C 1130.34 0.876329 3.4649 0
M  V30 11864 S 1131.9 0.628481 4.34276 0
M  V30 11865 H 1128.72 0.209246 0.679512 0
M  V30 11866 H 1131.32 1.18892 1.55193 0
M  V30 11867 H 1130.03 1.92319 3.62549 0
M  V30 11868 H 1129.56 0.242658 3.92651 0
M  V30 11869 H 1131.57 -0.516493 4.93505 0
M  V30 11870 N 1130.75 -1.41857 0.686609 0
M  V30 11871 C 1131.97 -2.06219 0.221037 0
M  V30 11872 C 1132.4 -1.51298 -1.11762 0
M  V30 11873 O 1131.75 -0.636253 -1.69769 0
M  V30 11874 C 1131.8 -3.60153 0.179425 0
M  V30 11875 O 1130.91 -4.03577 -0.848481 0
M  V30 11876 H 1130.25 -0.654787 0.110228 0
M  V30 11877 H 1132.78 -1.81783 0.938948 0
M  V30 11878 H 1132.79 -4.07999 0.00725332 0
M  V30 11879 H 1131.46 -3.99498 1.15647 0
M  V30 11880 H 1130.04 -3.67255 -0.646393 0
M  V30 11881 N 1132.22 -0.430739 -1.51599 0
M  V30 11882 C 1133.46 0.137184 -2.03939 0
M  V30 11883 C 1133.83 1.40533 -1.30823 0
M  V30 11884 O 1135.03 2.05307 -1.73501 0
M  V30 11885 C 1133.3 0.357395 -3.55609 0
M  V30 11886 S 1134.86 0.889669 -4.29686 0
M  V30 11887 H 1131.68 0.0349429 -0.710141 0
M  V30 11888 H 1134.28 -0.588628 -1.86428 0
M  V30 11889 H 1132.98 -0.572011 -4.06394 0
M  V30 11890 H 1132.51 1.11047 -3.77402 0
M  V30 11891 H 1134.53 2.16797 -4.46333 0
M  V30 11892 N 1133.7 1.56767 -0.161869 0
M  V30 11893 C 1135.12 1.58412 0.194403 0
M  V30 11894 C 1135.32 1.17682 1.63564 0
M  V30 11895 O 1134.37 0.884024 2.36519 0
M  V30 11896 C 1135.69 3.00599 -0.0778438 0
M  V30 11897 C 1137.24 3.12996 -0.015307 0
M  V30 11898 C 1137.71 4.57259 -0.260418 0
M  V30 11899 N 1139.2 4.62733 -0.207863 0
M  V30 11900 C 1139.94 5.72193 -0.371821 0
M  V30 11901 N 1139.43 6.90246 -0.594318 0
M  V30 11902 N 1141.23 5.61253 -0.308384 0
M  V30 11903 H 1133.38 1.81531 -1.10274 0
M  V30 11904 H 1135.64 0.840919 -0.437675 0
M  V30 11905 H 1135.35 3.3484 -1.07587 0
M  V30 11906 H 1135.22 3.71819 0.634845 0
M  V30 11907 H 1137.61 2.78588 0.97329 0
M  V30 11908 H 1137.69 2.44232 -0.760559 0
M  V30 11909 H 1137.33 4.92375 -1.24618 0
M  V30 11910 H 1137.26 5.2417 0.505334 0
M  V30 11911 H 1139.75 3.77878 -0.0411541 0
M  V30 11912 H 1140.07 7.6954 -0.70913 0
M  V30 11913 H 1138.41 6.92131 -0.630819 0
M  V30 11914 H 1141.6 4.67905 -0.135217 0
M  V30 11915 H 1141.77 6.46507 -0.439592 0
M  V30 11916 N 1135.18 -0.111886 1.57202 0
M  V30 11917 C 1136.09 -1.1556 2.04165 0
M  V30 11918 C 1137.11 -1.44898 0.963354 0
M  V30 11919 O 1138.28 -1.55873 1.27536 0
M  V30 11920 C 1135.35 -2.46048 2.44256 0
M  V30 11921 C 1134.41 -2.24043 3.66201 0
M  V30 11922 C 1133.64 -3.4831 4.04371 0
M  V30 11923 O 1133.86 -4.55895 3.42806 0
M  V30 11924 O 1132.8 -3.38891 4.9743 0
M  V30 11925 H 1136.62 -0.786778 2.93332 0
M  V30 11926 H 1134.21 -0.323196 1.45862 0
M  V30 11927 H 1136.09 -3.22916 2.70745 0
M  V30 11928 H 1134.77 -2.8239 1.58233 0
M  V30 11929 H 1133.67 -1.4501 3.44852 0
M  V30 11930 H 1135.01 -1.92602 4.52952 0
M  V30 11931 N 1136.66 -1.52894 -0.382264 0
M  V30 11932 C 1137.91 -1.67933 -1.1244 0
M  V30 11933 C 1138.23 -0.425166 -1.90309 0
M  V30 11934 O 1137.5 0.560557 -1.87709 0
M  V30 11935 H 1136.08 -0.619047 -0.418079 0
M  V30 11936 H 1138.74 -1.90031 -0.432928 0
M  V30 11937 H 1137.84 -2.53285 -1.82355 0
M  V30 11938 N 1138.14 0.641106 -1.43971 0
M  V30 11939 C 1139.38 1.40084 -1.46228 0
M  V30 11940 C 1139.71 1.94287 -0.0911011 0
M  V30 11941 O 1138.97 1.73481 0.905688 0
M  V30 11942 C 1139.27 2.59092 -2.46183 0
M  V30 11943 C 1138.93 2.23237 -3.9176 0
M  V30 11944 C 1137.59 2.13171 -4.31407 0
M  V30 11945 C 1139.95 1.94746 -4.83449 0
M  V30 11946 C 1137.27 1.72788 -5.60679 0
M  V30 11947 C 1139.63 1.55858 -6.13099 0
M  V30 11948 C 1138.29 1.44326 -6.5171 0
M  V30 11949 H 1137.56 0.512603 -0.535088 0
M  V30 11950 H 1140.21 0.727956 -1.77124 0
M  V30 11951 H 1138.51 3.31568 -2.08734 0
M  V30 11952 H 1140.21 3.17313 -2.4518 0
M  V30 11953 H 1136.8 2.31986 -3.60389 0
M  V30 11954 H 1140.98 2.01438 -4.53582 0
M  V30 11955 H 1136.24 1.62455 -5.89422 0
M  V30 11956 H 1140.41 1.32848 -6.83611 0
M  V30 11957 H 1138.04 1.12806 -7.51784 0
M  V30 11958 N 1139.62 1.30703 0.880598 0
M  V30 11959 C 1140.55 1.11783 1.98947 0
M  V30 11960 C 1141.53 0.0242461 1.62582 0
M  V30 11961 O 1142.71 0.178641 1.87652 0
M  V30 11962 C 1139.84 0.705762 3.31265 0
M  V30 11963 C 1138.88 1.80084 3.86616 0
M  V30 11964 S 1139.72 3.40416 4.13373 0
M  V30 11965 C 1140.87 3.01122 5.48704 0
M  V30 11966 H 1141.11 2.05658 2.14691 0
M  V30 11967 H 1138.64 1.15067 1.02951 0
M  V30 11968 H 1140.6 0.474754 4.07745 0
M  V30 11969 H 1139.26 -0.213699 3.13372 0
M  V30 11970 H 1138.45 1.4649 4.82241 0
M  V30 11971 H 1138.05 1.98636 3.16891 0
M  V30 11972 H 1140.34 2.49355 6.29943 0
M  V30 11973 H 1141.29 3.95671 5.87239 0
M  V30 11974 H 1141.7 2.38865 5.11472 0
M  V30 11975 N 1141.09 -1.09351 1.1349 0
M  V30 11976 C 1142.04 -2.16008 0.812981 0
M  V30 11977 C 1143.01 -1.64566 -0.225252 0
M  V30 11978 O 1144.2 -1.90552 -0.0973261 0
M  V30 11979 C 1141.34 -3.43913 0.285996 0
M  V30 11980 C 1140.45 -4.09251 1.38338 0
M  V30 11981 C 1139.58 -5.24916 0.814652 0
M  V30 11982 C 1138.62 -5.82178 1.89038 0
M  V30 11983 N 1137.76 -6.89203 1.33955 0
M  V30 11984 H 1142.6 -2.42887 1.72655 0
M  V30 11985 H 1140.14 -1.19209 0.861833 0
M  V30 11986 H 1142.09 -4.17183 -0.0376794 0
M  V30 11987 H 1140.72 -3.17349 -0.590707 0
M  V30 11988 H 1139.78 -3.33838 1.82363 0
M  V30 11989 H 1141.09 -4.4784 2.19638 0
M  V30 11990 H 1140.24 -6.05086 0.442306 0
M  V30 11991 H 1138.98 -4.87691 -0.029416 0
M  V30 11992 H 1137.99 -5.00669 2.27179 0
M  V30 11993 H 1139.21 -6.21464 2.73787 0
M  V30 11994 H 1137.16 -6.53956 0.517494 0
M  V30 11995 H 1137.07 -7.26565 2.08902 0
M  V30 11996 H 1138.34 -7.73126 0.994793 0
M  V30 11997 N 1142.57 -0.928524 -1.27343 0
M  V30 11998 C 1143.53 -0.43292 -2.25074 0
M  V30 11999 C 1144.53 0.448976 -1.54405 0
M  V30 12000 O 1145.72 0.249939 -1.72398 0
M  V30 12001 C 1142.86 0.377539 -3.38803 0
M  V30 12002 H 1144.05 -1.29642 -2.70431 0
M  V30 12003 H 1141.6 -0.709289 -1.3928 0
M  V30 12004 H 1142.34 1.25982 -2.98829 0
M  V30 12005 H 1142.12 -0.254782 -3.91271 0
M  V30 12006 H 1143.61 0.714634 -4.1144 0
M  V30 12007 N 1144.05 1.41491 -0.694123 0
M  V30 12008 C 1145.27 2.06099 -0.23197 0
M  V30 12009 C 1145.7 1.51888 1.10958 0
M  V30 12010 O 1145.06 0.645247 1.69429 0
M  V30 12011 C 1145.11 3.60053 -0.198522 0
M  V30 12012 O 1144.21 4.04021 0.827067 0
M  V30 12013 H 1143.55 0.654193 -0.113699 0
M  V30 12014 H 1146.08 1.81282 -0.948575 0
M  V30 12015 H 1146.09 4.0799 -0.0288904 0
M  V30 12016 H 1144.77 3.98879 -1.17764 0
M  V30 12017 H 1143.34 3.67593 0.626908 0
M  V30 12018 N 1145.53 0.438773 1.51369 0
M  V30 12019 C 1146.8 -0.18722 1.94702 0
M  V30 12020 C 1147.18 -1.59962 1.37752 0
M  V30 12021 O 1146.53 -2.214 0.565171 0
M  V30 12022 C 1146.74 -0.163491 3.48617 0
M  V30 12023 C 1148.09 -0.368355 4.22999 0
M  V30 12024 O 1149.11 -0.241541 3.5538 0
M  V30 12025 O 1147.97 -0.620916 5.42961 0
M  V30 12026 H 1145.07 -0.129194 0.816846 0
M  V30 12027 H 1147.61 0.496855 1.62263 0
M  V30 12028 H 1146.39 0.823882 3.82528 0
M  V30 12029 H 1146.01 -0.890414 3.87501 0
M  V30 12030 N 1147.01 -1.56678 0.170181 0
M  V30 12031 C 1148.25 -1.9646 -0.474125 0
M  V30 12032 C 1148.57 -1.05719 -1.63855 0
M  V30 12033 O 1147.84 -0.123316 -1.95511 0
M  V30 12034 H 1146.42 -0.725446 -0.178149 0
M  V30 12035 H 1149.09 -1.93276 0.251099 0
M  V30 12036 H 1148.18 -3.00726 -0.834894 0
M  V30 12037 N 1148.48 0.103547 -1.57259 0
M  V30 12038 C 1149.43 1.12621 -2.01458 0
M  V30 12039 C 1150.4 1.40282 -0.889391 0
M  V30 12040 O 1151.59 1.51887 -1.15477 0
M  V30 12041 C 1148.73 2.44352 -2.43692 0
M  V30 12042 C 1147.84 2.23495 -3.69695 0
M  V30 12043 C 1146.97 3.48565 -4.00844 0
M  V30 12044 C 1146.01 3.22932 -5.19982 0
M  V30 12045 N 1145.15 4.40246 -5.46926 0
M  V30 12046 H 1149.99 0.742315 -2.88606 0
M  V30 12047 H 1147.53 0.355016 -1.42752 0
M  V30 12048 H 1149.48 3.2122 -2.66221 0
M  V30 12049 H 1148.11 2.80605 -1.59565 0
M  V30 12050 H 1147.17 1.3747 -3.54692 0
M  V30 12051 H 1148.48 2.0054 -4.56711 0
M  V30 12052 H 1147.63 4.33844 -4.24104 0
M  V30 12053 H 1146.37 3.74565 -3.12333 0
M  V30 12054 H 1145.38 2.36045 -4.96551 0
M  V30 12055 H 1146.6 2.98286 -6.10084 0
M  V30 12056 H 1144.55 4.66338 -4.61373 0
M  V30 12057 H 1144.46 4.20452 -6.28296 0
M  V30 12058 H 1145.73 5.26614 -5.74716 0
M  V30 12059 N 1149.96 1.53094 0.37415 0
M  V30 12060 C 1151.19 1.72758 1.13852 0
M  V30 12061 C 1151.6 0.452638 1.83294 0
M  V30 12062 O 1150.96 -0.573906 1.73241 0
M  V30 12063 C 1151.01 2.88724 2.17534 0
M  V30 12064 O 1150.73 4.11284 1.5092 0
M  V30 12065 C 1152.23 3.2019 3.06584 0
M  V30 12066 H 1149.45 0.578028 0.340771 0
M  V30 12067 H 1152 1.99805 0.435683 0
M  V30 12068 H 1150.15 2.64096 2.83429 0
M  V30 12069 H 1150.57 4.76162 2.19932 0
M  V30 12070 H 1152.04 4.04759 3.75332 0
M  V30 12071 H 1152.52 2.35193 3.70919 0
M  V30 12072 H 1153.12 3.46712 2.46315 0
M  V30 12073 N 1151.44 -0.633461 1.44309 0
M  V30 12074 C 1152.68 -1.40465 1.48489 0
M  V30 12075 C 1153.04 -1.91664 0.113519 0
M  V30 12076 O 1154.24 -2.68783 0.0299948 0
M  V30 12077 C 1152.52 -2.54041 2.51392 0
M  V30 12078 S 1154.07 -3.42256 2.74602 0
M  V30 12079 H 1150.89 -0.479228 0.525225 0
M  V30 12080 H 1153.49 -0.733561 1.81216 0
M  V30 12081 H 1152.2 -2.14734 3.49739 0
M  V30 12082 H 1151.73 -3.25979 2.2023 0
M  V30 12083 H 1153.74 -4.51409 2.06021 0
M  V30 12084 N 1152.92 -1.31168 -0.873655 0
M  V30 12085 C 1153.85 -1.21094 -1.99646 0
M  V30 12086 C 1154.83 -0.0989684 -1.69812 0
M  V30 12087 O 1156.01 -0.282939 -1.92128 0
M  V30 12088 C 1153.14 -0.913684 -3.35066 0
M  V30 12089 C 1152.1 -1.98482 -3.79195 0
M  V30 12090 C 1151.42 -1.54033 -5.12033 0
M  V30 12091 C 1152.72 -3.39745 -3.96699 0
M  V30 12092 H 1154.42 -2.1503 -2.08333 0
M  V30 12093 H 1151.96 -1.03521 -1.00097 0
M  V30 12094 H 1153.92 -0.829821 -4.13149 0
M  V30 12095 H 1152.64 0.0613471 -3.26542 0
M  V30 12096 H 1151.3 -2.05851 -3.03349 0
M  V30 12097 H 1150.95 -0.553261 -4.99948 0
M  V30 12098 H 1150.65 -2.25688 -5.4253 0
M  V30 12099 H 1152.17 -1.47047 -5.92629 0
M  V30 12100 H 1153.59 -3.35071 -4.65188 0
M  V30 12101 H 1151.98 -4.09585 -4.38589 0
M  V30 12102 H 1153.05 -3.80802 -3.00196 0
M  V30 12103 N 1154.4 1.08748 -1.14068 0
M  V30 12104 C 1155.36 2.1375 -0.827266 0
M  V30 12105 C 1156.36 1.59936 0.166496 0
M  V30 12106 O 1157.55 1.74092 -0.0614305 0
M  V30 12107 C 1154.68 3.40106 -0.232557 0
M  V30 12108 H 1155.87 2.42985 -1.7578 0
M  V30 12109 H 1153.43 1.24402 -0.946244 0
M  V30 12110 H 1154.16 3.16503 0.706859 0
M  V30 12111 H 1153.95 3.8046 -0.948293 0
M  V30 12112 H 1155.44 4.17589 -0.0303662 0
M  V30 12113 N 1155.87 0.935264 1.26849 0
M  V30 12114 C 1156.8 0.457776 2.28969 0
M  V30 12115 C 1157.79 -0.48587 1.63013 0
M  V30 12116 O 1158.97 -0.388998 1.90264 0
M  V30 12117 C 1156.1 -0.283332 3.46142 0
M  V30 12118 C 1155.05 0.573196 4.24144 0
M  V30 12119 C 1154.38 -0.297525 5.33872 0
M  V30 12120 C 1155.68 1.84153 4.88759 0
M  V30 12121 H 1157.37 1.31125 2.69159 0
M  V30 12122 H 1154.92 0.631956 1.29392 0
M  V30 12123 H 1156.87 -0.628366 4.16689 0
M  V30 12124 H 1155.6 -1.1709 3.04889 0
M  V30 12125 H 1154.26 0.901043 3.55354 0
M  V30 12126 H 1153.9 -1.18427 4.8886 0
M  V30 12127 H 1153.6 0.272126 5.8697 0
M  V30 12128 H 1155.13 -0.637961 6.07258 0
M  V30 12129 H 1156.54 1.5641 5.51551 0
M  V30 12130 H 1154.94 2.35528 5.51948 0
M  V30 12131 H 1156.01 2.5565 4.12033 0
M  V30 12132 N 1157.35 -1.41121 0.701616 0
M  V30 12133 C 1158.63 -1.9492 0.162911 0
M  V30 12134 C 1159.01 -1.64064 -1.32839 0
M  V30 12135 O 1158.36 -0.950848 -2.07777 0
M  V30 12136 C 1158.57 -3.45946 0.460673 0
M  V30 12137 C 1159.92 -4.22789 0.391706 0
M  V30 12138 O 1160.94 -3.53993 0.395931 0
M  V30 12139 O 1159.8 -5.45332 0.357071 0
M  V30 12140 H 1156.89 -0.826793 0.0185103 0
M  V30 12141 H 1159.44 -1.50805 0.778192 0
M  V30 12142 H 1158.21 -3.61711 1.49269 0
M  V30 12143 H 1157.83 -3.97168 -0.185277 0
M  V30 12144 N 1158.83 -0.446794 -1.51134 0
M  V30 12145 C 1160.08 0.116263 -2.01765 0
M  V30 12146 C 1160.4 1.42382 -1.33238 0
M  V30 12147 O 1159.67 1.9018 -0.469915 0
M  V30 12148 H 1158.25 0.0459558 -0.745585 0
M  V30 12149 H 1160.91 -0.591664 -1.85702 0
M  V30 12150 H 1160.01 0.285358 -3.10793 0
M  V30 12151 N 1160.31 1.56586 -0.178487 0
M  V30 12152 C 1161.26 2.1491 0.761432 0
M  V30 12153 C 1162.24 1.08528 1.18788 0
M  V30 12154 O 1163.43 1.34633 1.14904 0
M  V30 12155 C 1160.56 2.79902 1.98771 0
M  V30 12156 C 1159.65 3.93452 1.58293 0
M  V30 12157 N 1160.04 4.97942 0.888124 0
M  V30 12158 C 1158.34 4.04745 1.87343 0
M  V30 12159 C 1159.04 5.7762 0.68772 0
M  V30 12160 N 1158.02 5.2947 1.23136 0
M  V30 12161 H 1161.82 2.93063 0.221693 0
M  V30 12162 H 1159.33 1.62385 0.0219283 0
M  V30 12163 H 1161.33 3.20067 2.67138 0
M  V30 12164 H 1159.99 2.03232 2.53233 0
M  V30 12165 H 1161 5.1502 0.545387 0
M  V30 12166 H 1157.68 3.39186 2.43432 0
M  V30 12167 H 1159.07 6.71759 0.13775 0
M  V30 12168 N 1161.79 -0.095206 1.57312 0
M  V30 12169 C 1162.72 -1.14173 1.98739 0
M  V30 12170 C 1163.73 -1.36323 0.889934 0
M  V30 12171 O 1164.92 -1.34977 1.16805 0
M  V30 12172 C 1162.02 -2.49729 2.29104 0
M  V30 12173 C 1161.19 -2.47857 3.60396 0
M  V30 12174 C 1160.25 -3.65341 3.78699 0
M  V30 12175 O 1159.28 -3.47837 4.50553 0
M  V30 12176 N 1160.48 -4.84818 3.19268 0
M  V30 12177 H 1163.25 -0.789126 2.89124 0
M  V30 12178 H 1160.81 -0.284187 1.59386 0
M  V30 12179 H 1162.8 -3.26925 2.38541 0
M  V30 12180 H 1161.37 -2.7708 1.44726 0
M  V30 12181 H 1160.59 -1.56208 3.61929 0
M  V30 12182 H 1161.88 -2.43685 4.46649 0
M  V30 12183 H 1161.27 -5.01943 2.60902 0
M  V30 12184 H 1159.83 -5.59607 3.34191 0
M  V30 12185 N 1163.26 -1.53291 -0.366026 0
M  V30 12186 C 1164.19 -1.82675 -1.45437 0
M  V30 12187 C 1165.18 -0.680227 -1.55907 0
M  V30 12188 O 1166.36 -0.930032 -1.70482 0
M  V30 12189 C 1163.49 -2.01626 -2.8278 0
M  V30 12190 C 1162.44 -3.17391 -2.87135 0
M  V30 12191 C 1161.77 -3.21634 -4.27148 0
M  V30 12192 C 1163.07 -4.5599 -2.54697 0
M  V30 12193 H 1164.76 -2.73818 -1.21096 0
M  V30 12194 H 1162.31 -1.31754 -0.581108 0
M  V30 12195 H 1164.26 -2.20765 -3.58944 0
M  V30 12196 H 1162.99 -1.07193 -3.08508 0
M  V30 12197 H 1161.65 -2.98071 -2.13422 0
M  V30 12198 H 1161.29 -2.2484 -4.49951 0
M  V30 12199 H 1160.99 -3.99414 -4.30978 0
M  V30 12200 H 1162.52 -3.42957 -5.05186 0
M  V30 12201 H 1163.93 -4.75294 -3.20575 0
M  V30 12202 H 1162.33 -5.36008 -2.69844 0
M  V30 12203 H 1163.4 -4.61133 -1.49949 0
M  V30 12204 N 1164.74 0.6258 -1.44643 0
M  V30 12205 C 1165.67 1.74858 -1.54748 0
M  V30 12206 C 1166.65 1.65327 -0.400138 0
M  V30 12207 O 1167.84 1.84005 -0.620948 0
M  V30 12208 C 1164.97 3.13408 -1.49643 0
M  V30 12209 C 1163.92 3.37733 -2.62908 0
M  V30 12210 C 1163.25 4.76367 -2.42855 0
M  V30 12211 C 1164.55 3.29771 -4.05029 0
M  V30 12212 H 1166.24 1.66658 -2.48728 0
M  V30 12213 H 1163.79 0.800363 -1.19709 0
M  V30 12214 H 1165.74 3.91735 -1.55312 0
M  V30 12215 H 1164.47 3.22404 -0.521824 0
M  V30 12216 H 1163.12 2.61788 -2.56637 0
M  V30 12217 H 1162.77 4.82074 -1.43575 0
M  V30 12218 H 1162.47 4.936 -3.18799 0
M  V30 12219 H 1164 5.56917 -2.50351 0
M  V30 12220 H 1165.41 3.97996 -4.12641 0
M  V30 12221 H 1163.81 3.58538 -4.81218 0
M  V30 12222 H 1164.88 2.27493 -4.28223 0
M  V30 12223 N 1166.22 1.31629 0.866686 0
M  V30 12224 C 1167.18 1.1951 1.95576 0
M  V30 12225 C 1168.18 0.121319 1.60342 0
M  V30 12226 O 1169.37 0.370832 1.70207 0
M  V30 12227 C 1166.51 0.835201 3.30511 0
M  V30 12228 H 1167.7 2.16285 2.07752 0
M  V30 12229 H 1165.25 1.15288 1.05539 0
M  V30 12230 H 1165.99 -0.131245 3.24034 0
M  V30 12231 H 1165.77 1.61142 3.57457 0
M  V30 12232 H 1167.26 0.774393 4.10357 0
M  V30 12233 N 1167.7 -1.08142 1.14644 0
M  V30 12234 C 1168.95 -1.80225 0.914517 0
M  V30 12235 C 1169.27 -1.86778 -0.560269 0
M  V30 12236 O 1168.54 -1.36284 -1.40724 0
M  V30 12237 H 1167.12 -0.667492 0.335356 0
M  V30 12238 H 1169.78 -1.30729 1.44554 0
M  V30 12239 H 1168.88 -2.82958 1.31685 0
M  V30 12240 N 1169.18 -0.941978 -1.26351 0
M  V30 12241 C 1170.43 -0.588806 -1.93333 0
M  V30 12242 C 1170.75 0.875067 -1.74263 0
M  V30 12243 O 1170.02 1.62187 -1.09873 0
M  V30 12244 H 1168.6 -0.214774 -0.715459 0
M  V30 12245 H 1171.26 -1.19747 -1.53774 0
M  V30 12246 H 1170.35 -0.807267 -3.01479 0
M  V30 12247 N 1170.66 1.40747 -0.709091 0
M  V30 12248 C 1171.57 2.3454 -0.0532205 0
M  V30 12249 C 1172.58 1.56956 0.751057 0
M  V30 12250 O 1173.76 1.89375 0.685509 0
M  V30 12251 C 1170.82 3.35809 0.862157 0
M  V30 12252 C 1169.88 4.29273 0.0485632 0
M  V30 12253 C 1169.12 5.25705 0.920345 0
M  V30 12254 O 1169.34 5.27933 2.15969 0
M  V30 12255 O 1168.27 6.00806 0.3628 0
M  V30 12256 H 1172.1 2.92232 -0.826698 0
M  V30 12257 H 1169.68 1.4183 -0.469519 0
M  V30 12258 H 1171.57 3.97931 1.38668 0
M  V30 12259 H 1170.24 2.8054 1.61489 0
M  V30 12260 H 1169.15 3.70456 -0.520873 0
M  V30 12261 H 1170.48 4.87676 -0.665807 0
M  V30 12262 N 1172.13 0.454803 1.50895 0
M  V30 12263 C 1173.38 -0.105927 2.02523 0
M  V30 12264 C 1173.71 -1.40825 1.33724 0
M  V30 12265 O 1172.99 -1.89038 0.457683 0
M  V30 12266 C 1173.27 -0.306635 3.58792 0
M  V30 12267 C 1173.12 1.01556 4.38185 0
M  V30 12268 C 1174.44 -1.06858 4.2693 0
M  V30 12269 H 1171.56 -0.0370232 0.736069 0
M  V30 12270 H 1174.2 0.597215 1.8037 0
M  V30 12271 H 1172.35 -0.905563 3.77799 0
M  V30 12272 H 1174.03 1.64981 4.30789 0
M  V30 12273 H 1172.27 1.61608 4.02574 0
M  V30 12274 H 1172.94 0.828959 5.4574 0
M  V30 12275 H 1175.42 -0.561086 4.123 0
M  V30 12276 H 1174.29 -1.1778 5.36115 0
M  V30 12277 H 1174.55 -2.10111 3.8898 0
M  V30 12278 N 1173.61 -1.56489 0.186789 0
M  V30 12279 C 1174.89 -1.89066 -0.501337 0
M  V30 12280 C 1175.27 -1.09906 -1.80233 0
M  V30 12281 O 1174.62 -0.197626 -2.27644 0
M  V30 12282 C 1174.83 -3.41318 -0.728207 0
M  V30 12283 C 1176.17 -4.11379 -1.0513 0
M  V30 12284 O 1177.2 -3.46722 -0.816216 0
M  V30 12285 O 1176.06 -5.25638 -1.49557 0
M  V30 12286 H 1173.15 -0.784966 -0.260303 0
M  V30 12287 H 1175.7 -1.68183 0.226382 0
M  V30 12288 H 1174.47 -3.90834 0.19088 0
M  V30 12289 H 1174.09 -3.67865 -1.50869 0
M  V30 12290 N 1175.09 0.086862 -1.5736 0
M  V30 12291 C 1176.02 1.10538 -2.05678 0
M  V30 12292 C 1177 1.41281 -0.947293 0
M  V30 12293 O 1178.19 1.51169 -1.21908 0
M  V30 12294 C 1175.32 2.42302 -2.48812 0
M  V30 12295 C 1174.27 2.25948 -3.63499 0
M  V30 12296 C 1173.6 3.62961 -3.92637 0
M  V30 12297 C 1174.9 1.69319 -4.94094 0
M  V30 12298 H 1176.59 0.703371 -2.91021 0
M  V30 12299 H 1174.14 0.336895 -1.40004 0
M  V30 12300 H 1176.09 3.13833 -2.81224 0
M  V30 12301 H 1174.81 2.84454 -1.60479 0
M  V30 12302 H 1173.47 1.5686 -3.31347 0
M  V30 12303 H 1173.12 4.02656 -3.01459 0
M  V30 12304 H 1172.82 3.52862 -4.69853 0
M  V30 12305 H 1174.34 4.35946 -4.27531 0
M  V30 12306 H 1175.76 2.30699 -5.24834 0
M  V30 12307 H 1174.15 1.69957 -5.7553 0
M  V30 12308 H 1175.22 0.653318 -4.80479 0
M  V30 12309 N 1176.57 1.53483 0.357892 0
M  V30 12310 C 1177.51 1.80463 1.43881 0
M  V30 12311 C 1178.48 0.649438 1.52877 0
M  V30 12312 O 1179.67 0.892409 1.68644 0
M  V30 12313 C 1176.81 2.00714 2.80727 0
M  V30 12314 C 1175.92 3.28431 2.80637 0
M  V30 12315 C 1175.06 3.38828 4.09107 0
M  V30 12316 C 1174.1 4.60549 4.03189 0
M  V30 12317 N 1173.23 4.68057 5.23323 0
M  V30 12318 H 1178.07 2.72694 1.20174 0
M  V30 12319 H 1175.61 1.35079 0.582422 0
M  V30 12320 H 1177.57 2.10444 3.60235 0
M  V30 12321 H 1176.2 1.11811 3.02817 0
M  V30 12322 H 1175.25 3.27617 1.93317 0
M  V30 12323 H 1176.56 4.18022 2.72138 0
M  V30 12324 H 1175.72 3.47911 4.97034 0
M  V30 12325 H 1174.46 2.47267 4.20369 0
M  V30 12326 H 1173.46 4.51558 3.13649 0
M  V30 12327 H 1174.69 5.53459 3.93523 0
M  V30 12328 H 1172.63 3.794 5.35156 0
M  V30 12329 H 1172.55 5.51563 5.17024 0
M  V30 12330 H 1173.82 4.81433 6.1306 0
M  V30 12331 N 1178.05 -0.61812 1.44973 0
M  V30 12332 C 1178.99 -1.75059 1.53157 0
M  V30 12333 C 1179.99 -1.64554 0.402282 0
M  V30 12334 O 1181.19 -1.70475 0.577767 0
M  V30 12335 H 1177.57 -0.57817 0.480856 0
M  V30 12336 H 1179.54 -1.65281 2.48445 0
M  V30 12337 C 1178.29 -3.13423 1.50538 0
M  V30 12338 H 1177.61 -3.2216 2.36755 0
M  V30 12339 H 1179.05 -3.92521 1.60323 0
M  V30 12340 C 1177.51 -3.36127 0.228127 0
M  V30 12341 O 1178.04 -3.95618 -0.696364 0
M  V30 12342 N 1176.25 -2.90322 0.127142 0
M  V30 12343 H 1175.79 -2.42091 0.880317 0
M  V30 12344 H 1175.75 -3.05887 -0.726659 0
M  V30 12345 N 1179.52 -1.32087 -0.859693 0
M  V30 12346 C 1180.46 -1.16426 -1.97428 0
M  V30 12347 C 1181.47 -0.100582 -1.62489 0
M  V30 12348 O 1182.66 -0.349063 -1.75054 0
M  V30 12349 C 1179.76 -0.758822 -3.30295 0
M  V30 12350 C 1178.93 -1.90971 -3.93508 0
M  V30 12351 C 1177.99 -1.48865 -5.04704 0
M  V30 12352 O 1177.02 -2.1999 -5.2497 0
M  V30 12353 N 1178.22 -0.38182 -5.79243 0
M  V30 12354 H 1180.98 -2.12433 -2.11406 0
M  V30 12355 H 1178.54 -1.24558 -1.03426 0
M  V30 12356 H 1180.54 -0.459643 -4.02081 0
M  V30 12357 H 1179.11 0.109944 -3.12407 0
M  V30 12358 H 1178.33 -2.37566 -3.14573 0
M  V30 12359 H 1179.61 -2.68032 -4.32477 0
M  V30 12360 H 1179.01 0.210268 -5.65309 0
M  V30 12361 H 1177.57 -0.142224 -6.51645 0
M  V30 12362 N 1181 1.07532 -1.15215 0
M  V30 12363 C 1182.25 1.8036 -0.927263 0
M  V30 12364 C 1182.58 1.86414 0.544371 0
M  V30 12365 O 1181.86 1.34653 1.40353 0
M  V30 12366 C 1182.14 3.25512 -1.53992 0
M  V30 12367 C 1181.99 3.27614 -3.08203 0
M  V30 12368 C 1183.31 4.22731 -1.22418 0
M  V30 12369 H 1180.43 0.654775 -0.338289 0
M  V30 12370 H 1183.07 1.25842 -1.42351 0
M  V30 12371 H 1181.22 3.72068 -1.11791 0
M  V30 12372 H 1182.89 2.89315 -3.59297 0
M  V30 12373 H 1181.14 2.66627 -3.42188 0
M  V30 12374 H 1181.81 4.29956 -3.46182 0
M  V30 12375 H 1184.28 3.84557 -1.58919 0
M  V30 12376 H 1183.16 5.22589 -1.67906 0
M  V30 12377 H 1183.42 4.41875 -0.14091 0
M  V30 12378 N 1182.48 0.948665 1.2585 0
M  V30 12379 C 1183.71 0.617229 1.97479 0
M  V30 12380 C 1184.12 -0.809406 1.7057 0
M  V30 12381 O 1183.48 -1.54066 0.97826 0
M  V30 12382 C 1183.53 0.859065 3.51144 0
M  V30 12383 O 1183.25 2.2296 3.77121 0
M  V30 12384 C 1184.75 0.539197 4.40009 0
M  V30 12385 H 1181.97 0.231933 0.629641 0
M  V30 12386 H 1184.52 1.27141 1.60173 0
M  V30 12387 H 1182.67 0.25138 3.86584 0
M  V30 12388 H 1183.09 2.29524 4.71613 0
M  V30 12389 H 1184.56 0.758986 5.46757 0
M  V30 12390 H 1185.04 -0.526062 4.36038 0
M  V30 12391 H 1185.64 1.12594 4.10125 0
M  V30 12392 N 1183.96 -1.40369 0.716545 0
M  V30 12393 C 1185.37 -1.83783 0.328719 0
M  V30 12394 C 1185.72 -1.5991 -1.13681 0
M  V30 12395 O 1184.85 -1.08048 -1.87496 0
M  V30 12396 C 1185.44 -3.33626 0.589848 0
M  V30 12397 C 1184 -3.7553 0.25572 0
M  V30 12398 C 1183.15 -2.63571 0.861733 0
M  V30 12399 H 1186.1 -1.29623 0.915621 0
M  V30 12400 H 1186.12 -3.80225 -0.14459 0
M  V30 12401 H 1185.63 -3.5097 1.65655 0
M  V30 12402 H 1183.73 -3.63781 -0.805883 0
M  V30 12403 H 1183.84 -4.73577 0.725388 0
M  V30 12404 H 1182.21 -2.53047 0.289706 0
M  V30 12405 H 1182.99 -2.83727 1.93272 0
M  V30 12406 N 1185.44 -0.462799 -1.50652 0
M  V30 12407 C 1186.37 0.325724 -2.31217 0
M  V30 12408 C 1187.35 0.997942 -1.3775 0
M  V30 12409 O 1188.53 0.996707 -1.66671 0
M  V30 12410 C 1185.66 1.41283 -3.17264 0
M  V30 12411 C 1184.62 0.862687 -4.19216 0
M  V30 12412 C 1183.94 2.04746 -4.93946 0
M  V30 12413 C 1185.24 -0.120365 -5.22161 0
M  V30 12414 H 1186.94 -0.346666 -2.97386 0
M  V30 12415 H 1184.48 -0.168163 -1.43015 0
M  V30 12416 H 1186.44 1.97188 -3.72418 0
M  V30 12417 H 1185.16 2.11387 -2.48964 0
M  V30 12418 H 1183.82 0.325671 -3.65151 0
M  V30 12419 H 1183.47 2.73529 -4.22127 0
M  V30 12420 H 1183.17 1.68562 -5.62904 0
M  V30 12421 H 1184.69 2.61157 -5.51932 0
M  V30 12422 H 1186.1 0.349226 -5.72235 0
M  V30 12423 H 1184.5 -0.396061 -5.98792 0
M  V30 12424 H 1185.57 -1.04895 -4.73418 0
M  V30 12425 N 1186.91 1.56388 -0.195085 0
M  V30 12426 C 1188.19 1.89329 0.491303 0
M  V30 12427 C 1188.57 1.10861 1.79647 0
M  V30 12428 O 1187.92 0.209696 2.27536 0
M  V30 12429 C 1188.13 3.417 0.710096 0
M  V30 12430 C 1189.48 4.11931 1.02947 0
M  V30 12431 O 1190.5 3.4715 0.797817 0
M  V30 12432 O 1189.36 5.26423 1.46767 0
M  V30 12433 H 1186.45 0.786335 0.256137 0
M  V30 12434 H 1189 1.68061 -0.235298 0
M  V30 12435 H 1187.77 3.90727 -0.211604 0
M  V30 12436 H 1187.4 3.6866 1.48916 0
M  V30 12437 N 1188.39 -0.0785156 1.57404 0
M  V30 12438 C 1189.64 -0.777722 1.86103 0
M  V30 12439 C 1189.95 -1.79079 0.786771 0
M  V30 12440 O 1191.16 -2.53908 0.961393 0
M  V30 12441 C 1189.62 -1.43407 3.30095 0
M  V30 12442 C 1189.22 -0.459912 4.45633 0
M  V30 12443 C 1190.97 -2.11603 3.68 0
M  V30 12444 C 1188.88 -1.12179 5.80663 0
M  V30 12445 H 1187.81 -0.294205 0.694233 0
M  V30 12446 H 1190.46 -0.0309003 1.83474 0
M  V30 12447 H 1188.84 -2.22892 3.27315 0
M  V30 12448 H 1190.01 0.304642 4.59792 0
M  V30 12449 H 1188.33 0.117242 4.16235 0
M  V30 12450 H 1190.92 -2.61887 4.66175 0
M  V30 12451 H 1191.27 -2.91244 2.9746 0
M  V30 12452 H 1191.8 -1.38958 3.72741 0
M  V30 12453 H 1188.54 -0.365842 6.54478 0
M  V30 12454 H 1188.06 -1.85737 5.70317 0
M  V30 12455 H 1189.74 -1.64355 6.25777 0
M  V30 12456 N 1189.87 -1.5367 -0.349747 0
M  V30 12457 C 1190.8 -1.84208 -1.43492 0
M  V30 12458 C 1191.78 -0.696725 -1.55177 0
M  V30 12459 O 1192.97 -0.948061 -1.69486 0
M  V30 12460 C 1190.1 -2.04613 -2.80625 0
M  V30 12461 C 1189.05 -3.20419 -2.83753 0
M  V30 12462 C 1188.38 -3.26147 -4.23713 0
M  V30 12463 C 1189.68 -4.58666 -2.49846 0
M  V30 12464 H 1191.37 -2.75087 -1.18185 0
M  V30 12465 H 1188.92 -1.32363 -0.567101 0
M  V30 12466 H 1190.87 -2.2456 -3.56582 0
M  V30 12467 H 1189.59 -1.10459 -3.07354 0
M  V30 12468 H 1188.25 -3.00318 -2.10249 0
M  V30 12469 H 1187.9 -2.29599 -4.47541 0
M  V30 12470 H 1187.6 -4.03963 -4.26717 0
M  V30 12471 H 1189.12 -3.48296 -5.0152 0
M  V30 12472 H 1190.54 -4.78668 -3.15516 0
M  V30 12473 H 1188.94 -5.3884 -2.64144 0
M  V30 12474 H 1190.01 -4.62697 -1.4505 0
M  V30 12475 N 1191.35 0.610423 -1.45298 0
M  V30 12476 C 1192.57 1.40112 -1.52917 0
M  V30 12477 C 1193 1.87404 -0.161696 0
M  V30 12478 O 1192.36 1.59973 0.853135 0
M  V30 12479 C 1192.4 2.58359 -2.51561 0
M  V30 12480 O 1191.51 3.58895 -2.03146 0
M  V30 12481 H 1190.85 0.41841 -0.515586 0
M  V30 12482 H 1193.38 0.743159 -1.90626 0
M  V30 12483 H 1193.39 3.0564 -2.70275 0
M  V30 12484 H 1192.06 2.23286 -3.50879 0
M  V30 12485 H 1190.64 3.18282 -1.94296 0
M  V30 12486 N 1192.83 1.32541 0.852676 0
M  V30 12487 C 1193.77 1.21643 1.96142 0
M  V30 12488 C 1194.74 0.0981496 1.6581 0
M  V30 12489 O 1195.93 0.27404 1.88822 0
M  V30 12490 C 1193.07 0.947483 3.31838 0
M  V30 12491 C 1192.18 2.15074 3.74656 0
M  V30 12492 C 1191.32 1.81711 4.99154 0
M  V30 12493 C 1190.36 2.98346 5.34468 0
M  V30 12494 N 1189.49 2.65062 6.50143 0
M  V30 12495 H 1194.33 2.16479 2.04795 0
M  V30 12496 H 1191.87 1.07664 1.00234 0
M  V30 12497 H 1193.83 0.772038 4.09994 0
M  V30 12498 H 1192.46 0.0359112 3.2278 0
M  V30 12499 H 1191.51 2.43639 2.92137 0
M  V30 12500 H 1192.82 3.02314 3.96747 0
M  V30 12501 H 1191.98 1.60729 5.85022 0
M  V30 12502 H 1190.71 0.916875 4.79004 0
M  V30 12503 H 1189.72 3.19956 4.47111 0
M  V30 12504 H 1190.94 3.89104 5.56574 0
M  V30 12505 H 1188.89 1.77582 6.31507 0
M  V30 12506 H 1188.81 3.45832 6.72262 0
M  V30 12507 H 1190.08 2.47516 7.39159 0
M  V30 12508 N 1194.3 -1.0692 1.15784 0
M  V30 12509 C 1195.53 -1.8331 0.959422 0
M  V30 12510 C 1195.95 -1.82268 -0.492332 0
M  V30 12511 O 1195.3 -1.23727 -1.34156 0
M  V30 12512 C 1195.36 -3.30202 1.47135 0
M  V30 12513 O 1195.08 -3.31328 2.86624 0
M  V30 12514 C 1196.58 -4.23346 1.31504 0
M  V30 12515 H 1193.8 -0.578202 0.340475 0
M  V30 12516 H 1196.34 -1.34939 1.53661 0
M  V30 12517 H 1194.5 -3.75908 0.936587 0
M  V30 12518 H 1194.91 -4.23135 3.0993 0
M  V30 12519 H 1196.38 -5.24465 1.72163 0
M  V30 12520 H 1196.86 -4.38431 0.259773 0
M  V30 12521 H 1197.47 -3.8348 1.83911 0
M  V30 12522 N 1195.78 -0.955326 -1.25345 0
M  V30 12523 C 1197.2 -0.659863 -1.4532 0
M  V30 12524 C 1197.4 0.78238 -1.85691 0
M  V30 12525 O 1196.45 1.5576 -1.98734 0
M  V30 12526 C 1197.77 -1.63339 -2.5247 0
M  V30 12527 C 1199.32 -1.64464 -2.66309 0
M  V30 12528 C 1199.79 -2.60583 -3.76644 0
M  V30 12529 N 1201.28 -2.58951 -3.84055 0
M  V30 12530 C 1202.02 -3.30002 -4.6892 0
M  V30 12531 N 1201.51 -4.10528 -5.58067 0
M  V30 12532 N 1203.31 -3.18886 -4.62891 0
M  V30 12533 H 1195.46 -1.88734 -0.97433 0
M  V30 12534 H 1197.72 -0.811858 -0.48948 0
M  V30 12535 H 1197.43 -2.66358 -2.29665 0
M  V30 12536 H 1197.3 -1.39644 -3.50399 0
M  V30 12537 H 1199.69 -0.621622 -2.88479 0
M  V30 12538 H 1199.77 -1.92218 -1.68778 0
M  V30 12539 H 1199.41 -3.63011 -3.55226 0
M  V30 12540 H 1199.34 -2.30113 -4.73662 0
M  V30 12541 H 1201.83 -2.00491 -3.20331 0
M  V30 12542 H 1202.15 -4.6166 -6.1975 0
M  V30 12543 H 1200.49 -4.14626 -5.57773 0
M  V30 12544 H 1203.68 -2.55447 -3.92255 0
M  V30 12545 H 1203.85 -3.74524 -5.28806 0
M  V30 12546 N 1197.26 1.39987 -0.723979 0
M  V30 12547 C 1198.51 2.01028 -0.267511 0
M  V30 12548 C 1198.84 1.57295 1.13894 0
M  V30 12549 O 1198.12 0.796805 1.7743 0
M  V30 12550 C 1198.4 3.58326 -0.356971 0
M  V30 12551 C 1198.25 4.12109 -1.8024 0
M  V30 12552 C 1199.57 4.39289 0.267003 0
M  V30 12553 H 1196.69 0.730364 -0.0986775 0
M  V30 12554 H 1199.33 1.66348 -0.91806 0
M  V30 12555 H 1197.48 3.88001 0.196908 0
M  V30 12556 H 1199.15 3.93199 -2.41231 0
M  V30 12557 H 1197.4 3.66082 -2.32737 0
M  V30 12558 H 1198.07 5.21261 -1.81634 0
M  V30 12559 H 1200.54 4.15595 -0.20503 0
M  V30 12560 H 1199.42 5.48624 0.174004 0
M  V30 12561 H 1199.68 4.20931 1.35164 0
M  V30 12562 N 1198.74 0.470782 1.50404 0
M  V30 12563 C 1199.96 -0.084284 2.07229 0
M  V30 12564 C 1200.39 -1.32774 1.33239 0
M  V30 12565 O 1199.75 -1.77274 0.379971 0
M  V30 12566 C 1199.8 -0.351565 3.58882 0
M  V30 12567 O 1198.9 -1.43211 3.86736 0
M  V30 12568 H 1198.24 0.0128479 0.663876 0
M  V30 12569 H 1200.77 0.661735 1.93603 0
M  V30 12570 H 1200.78 -0.592151 4.0368 0
M  V30 12571 H 1199.46 0.557084 4.12152 0
M  V30 12572 H 1198.03 -1.17886 3.53776 0
M  V30 12573 N 1200.22 -1.56282 0.203376 0
M  V30 12574 C 1201.13 -2.23086 -0.725922 0
M  V30 12575 C 1202.14 -1.23258 -1.22814 0
M  V30 12576 O 1203.32 -1.5602 -1.27357 0
M  V30 12577 C 1200.38 -2.88358 -1.92485 0
M  V30 12578 C 1199.45 -4.03479 -1.46639 0
M  V30 12579 C 1198.68 -4.65629 -2.60816 0
M  V30 12580 O 1198.9 -4.2672 -3.78506 0
M  V30 12581 O 1197.84 -5.54949 -2.33056 0
M  V30 12582 H 1201.66 -3.03124 -0.18694 0
M  V30 12583 H 1199.25 -1.49377 -0.0262829 0
M  V30 12584 H 1201.13 -3.29623 -2.62539 0
M  V30 12585 H 1199.8 -2.11294 -2.45228 0
M  V30 12586 H 1198.71 -3.66821 -0.734396 0
M  V30 12587 H 1200.04 -4.82232 -0.985535 0
M  V30 12588 N 1201.7 0.070167 -1.57444 0
M  V30 12589 C 1202.97 0.802108 -1.78397 0
M  V30 12590 C 1203.35 1.95706 -0.791356 0
M  V30 12591 O 1202.7 2.27827 0.17518 0
M  V30 12592 C 1202.91 1.27354 -3.24934 0
M  V30 12593 C 1204.26 1.70626 -3.88808 0
M  V30 12594 O 1205.28 1.36916 -3.28835 0
M  V30 12595 O 1204.14 2.33041 -4.94322 0
M  V30 12596 H 1201.24 0.384483 -0.73219 0
M  V30 12597 H 1203.78 0.0501168 -1.69626 0
M  V30 12598 H 1202.55 0.447204 -3.88736 0
M  V30 12599 H 1202.18 2.0868 -3.38435 0
M  V30 12600 N 1203.17 1.53854 0.341593 0
M  V30 12601 C 1204.12 1.8268 1.43982 0
M  V30 12602 C 1205.12 0.697415 1.54378 0
M  V30 12603 O 1206.32 0.880785 1.56978 0
M  V30 12604 H 1202.7 0.578788 0.480113 0
M  V30 12605 H 1204.67 2.74556 1.16884 0
M  V30 12606 C 1203.42 2.05496 2.80476 0
M  V30 12607 H 1202.74 2.91852 2.73244 0
M  V30 12608 H 1204.18 2.2963 3.56435 0
M  V30 12609 C 1202.64 0.841061 3.26233 0
M  V30 12610 O 1203.17 0.0414376 4.01679 0
M  V30 12611 N 1201.37 0.657736 2.83059 0
M  V30 12612 H 1200.92 1.30962 2.21826 0
M  V30 12613 H 1200.88 -0.153003 3.14027 0
M  V30 12614 N 1204.65 -0.602709 1.4562 0
M  V30 12615 C 1205.9 -1.35769 1.49163 0
M  V30 12616 C 1206.21 -1.95102 0.139485 0
M  V30 12617 O 1207.42 -2.71449 0.0525919 0
M  V30 12618 C 1205.88 -2.45959 2.62739 0
M  V30 12619 C 1205.48 -1.93017 4.04288 0
M  V30 12620 C 1207.23 -3.22926 2.75534 0
M  V30 12621 C 1205.13 -3.00718 5.09237 0
M  V30 12622 H 1204.06 -0.510317 0.555061 0
M  V30 12623 H 1206.72 -0.645434 1.71774 0
M  V30 12624 H 1205.1 -3.19892 2.3342 0
M  V30 12625 H 1206.27 -1.2576 4.43307 0
M  V30 12626 H 1204.59 -1.2878 3.95986 0
M  V30 12627 H 1207.18 -4.03267 3.51112 0
M  V30 12628 H 1207.53 -3.74243 1.82339 0
M  V30 12629 H 1208.06 -2.56095 3.04402 0
M  V30 12630 H 1204.8 -2.54312 6.04157 0
M  V30 12631 H 1204.32 -3.66526 4.74783 0
M  V30 12632 H 1206 -3.65016 5.34202 0
M  V30 12633 N 1206.13 -1.32992 -0.845635 0
M  V30 12634 C 1207.36 -1.27087 -1.63268 0
M  V30 12635 C 1207.77 0.159481 -1.88125 0
M  V30 12636 O 1207.13 1.09948 -1.45663 0
M  V30 12637 C 1207.18 -2.03649 -2.98679 0
M  V30 12638 O 1206.9 -3.41104 -2.74918 0
M  V30 12639 C 1208.4 -2.04875 -3.93117 0
M  V30 12640 H 1205.62 -0.438107 -0.508236 0
M  V30 12641 H 1208.17 -1.75257 -1.05381 0
M  V30 12642 H 1206.32 -1.59178 -3.53187 0
M  V30 12643 H 1206.74 -3.80405 -3.61099 0
M  V30 12644 H 1208.21 -2.62911 -4.85368 0
M  V30 12645 H 1208.69 -1.03728 -4.26775 0
M  V30 12646 H 1209.29 -2.49334 -3.44547 0
M  V30 12647 N 1207.61 1.06304 -1.1635 0
M  V30 12648 C 1208.52 2.17296 -0.884289 0
M  V30 12649 C 1209.53 1.73408 0.143414 0
M  V30 12650 O 1210.71 2.01373 -0.0331987 0
M  V30 12651 C 1207.77 3.44509 -0.389163 0
M  V30 12652 C 1206.84 4.02906 -1.48208 0
M  V30 12653 C 1206.07 5.24047 -1.01048 0
M  V30 12654 O 1206.29 5.70229 0.139821 0
M  V30 12655 O 1205.23 5.74394 -1.79876 0
M  V30 12656 H 1209.05 2.4369 -1.81243 0
M  V30 12657 H 1206.64 1.15841 -0.943459 0
M  V30 12658 H 1208.52 4.21229 -0.120018 0
M  V30 12659 H 1207.19 3.19642 0.510968 0
M  V30 12660 H 1206.1 3.27677 -1.80496 0
M  V30 12661 H 1207.43 4.32068 -2.35751 0
M  V30 12662 N 1209.09 0.96196 1.24836 0
M  V30 12663 C 1210.31 0.637709 1.97353 0
M  V30 12664 C 1210.74 -0.784919 1.7094 0
M  V30 12665 O 1210.09 -1.53188 0.969694 0
M  V30 12666 C 1210.14 0.911485 3.4889 0
M  V30 12667 O 1209.25 -0.00601668 4.124 0
M  V30 12668 H 1208.59 0.241685 0.618453 0
M  V30 12669 H 1211.12 1.29055 1.58764 0
M  V30 12670 H 1211.13 0.840702 3.99245 0
M  V30 12671 H 1209.8 1.9483 3.67442 0
M  V30 12672 H 1208.38 0.117597 3.72715 0
M  V30 12673 N 1210.56 -1.39601 0.731392 0
M  V30 12674 C 1211.5 -2.29147 0.0494974 0
M  V30 12675 C 1212.51 -1.46635 -0.707248 0
M  V30 12676 O 1213.7 -1.6975 -0.552008 0
M  V30 12677 C 1210.8 -3.25191 -0.954152 0
M  V30 12678 C 1209.97 -4.36629 -0.259674 0
M  V30 12679 C 1209.03 -5.13007 -1.17092 0
M  V30 12680 O 1208.06 -5.65479 -0.64976 0
M  V30 12681 N 1209.26 -5.23865 -2.50092 0
M  V30 12682 H 1212.02 -2.88308 0.818433 0
M  V30 12683 H 1209.58 -1.51142 0.580316 0
M  V30 12684 H 1211.58 -3.73161 -1.56629 0
M  V30 12685 H 1210.15 -2.67085 -1.62432 0
M  V30 12686 H 1209.37 -3.90582 0.532888 0
M  V30 12687 H 1210.65 -5.08317 0.221753 0
M  V30 12688 H 1210.05 -4.82745 -2.94913 0
M  V30 12689 H 1208.61 -5.75288 -3.0641 0
M  V30 12690 N 1212.04 -0.478751 -1.50152 0
M  V30 12691 C 1212.99 0.330224 -2.25596 0
M  V30 12692 C 1213.98 0.954871 -1.29503 0
M  V30 12693 O 1215.17 0.866153 -1.54359 0
M  V30 12694 C 1212.3 1.40719 -3.13134 0
M  V30 12695 C 1211.38 0.789896 -4.16679 0
M  V30 12696 N 1211.77 -0.094345 -5.05712 0
M  V30 12697 C 1210.07 1.05299 -4.33391 0
M  V30 12698 C 1210.77 -0.445458 -5.79992 0
M  V30 12699 N 1209.75 0.181237 -5.43298 0
M  V30 12700 H 1213.55 -0.350824 -2.91799 0
M  V30 12701 H 1211.07 -0.293386 -1.59728 0
M  V30 12702 H 1213.06 1.99999 -3.65795 0
M  V30 12703 H 1211.72 2.09015 -2.48481 0
M  V30 12704 H 1212.73 -0.463695 -5.1582 0
M  V30 12705 H 1209.41 1.73036 -3.79954 0
M  V30 12706 H 1210.8 -1.16754 -6.61678 0
M  V30 12707 N 1213.52 1.56172 -0.211661 0
M  V30 12708 C 1214.45 2.15791 0.74225 0
M  V30 12709 C 1215.43 1.0994 1.198 0
M  V30 12710 O 1216.62 1.38143 1.28253 0
M  V30 12711 C 1213.74 2.73021 2.00443 0
M  V30 12712 C 1212.79 3.91611 1.68946 0
M  V30 12713 S 1213.62 5.29139 0.822949 0
M  V30 12714 C 1214.78 5.898 2.09491 0
M  V30 12715 H 1215.01 2.96366 0.235482 0
M  V30 12716 H 1212.54 1.544 0.0035357 0
M  V30 12717 H 1214.5 3.06635 2.7292 0
M  V30 12718 H 1213.16 1.92457 2.48232 0
M  V30 12719 H 1212.36 4.30122 2.62699 0
M  V30 12720 H 1211.96 3.59093 1.04539 0
M  V30 12721 H 1214.25 6.05172 3.04587 0
M  V30 12722 H 1215.19 6.86036 1.75386 0
M  V30 12723 H 1215.6 5.18546 2.23093 0
M  V30 12724 N 1215 -0.0618163 1.57479 0
M  V30 12725 C 1215.93 -1.07252 2.07411 0
M  V30 12726 C 1216.91 -1.39756 0.969649 0
M  V30 12727 O 1218.09 -1.4921 1.24298 0
M  V30 12728 C 1215.22 -2.38313 2.52635 0
M  V30 12729 C 1214.18 -2.20136 3.67048 0
M  V30 12730 C 1213.5 -3.56668 3.98361 0
M  V30 12731 C 1214.8 -1.61437 4.96725 0
M  V30 12732 H 1216.5 -0.656983 2.92103 0
M  V30 12733 H 1214.04 -0.314579 1.40522 0
M  V30 12734 H 1216 -3.09319 2.86181 0
M  V30 12735 H 1214.72 -2.81865 1.64984 0
M  V30 12736 H 1213.38 -1.51569 3.338 0
M  V30 12737 H 1213.03 -3.97809 3.07826 0
M  V30 12738 H 1212.73 -3.45342 4.75408 0
M  V30 12739 H 1214.25 -4.2909 4.34413 0
M  V30 12740 H 1215.67 -2.2232 5.28438 0
M  V30 12741 H 1214.06 -1.60779 5.78161 0
M  V30 12742 H 1215.13 -0.576795 4.81457 0
M  V30 12743 N 1216.48 -1.54033 -0.333429 0
M  V30 12744 C 1217.72 -1.72019 -1.07411 0
M  V30 12745 C 1218.06 -0.487265 -1.87988 0
M  V30 12746 O 1217.33 0.515757 -1.87537 0
M  V30 12747 C 1217.61 -2.98986 -2.00698 0
M  V30 12748 C 1217.47 -4.32509 -1.23517 0
M  V30 12749 C 1218.79 -3.21663 -3.00368 0
M  V30 12750 H 1215.9 -0.625919 -0.389094 0
M  V30 12751 H 1218.55 -1.86717 -0.351697 0
M  V30 12752 H 1216.7 -2.86586 -2.62298 0
M  V30 12753 H 1218.37 -4.56775 -0.644522 0
M  V30 12754 H 1216.61 -4.3046 -0.537298 0
M  V30 12755 H 1217.28 -5.17547 -1.91962 0
M  V30 12756 H 1219.76 -3.33459 -2.48886 0
M  V30 12757 H 1218.63 -4.11877 -3.62834 0
M  V30 12758 H 1218.9 -2.3843 -3.72295 0
M  V30 12759 N 1217.95 0.594978 -1.45938 0
M  V30 12760 C 1218.92 1.68688 -1.55168 0
M  V30 12761 C 1219.92 1.54945 -0.429951 0
M  V30 12762 O 1221.11 1.59785 -0.693859 0
M  V30 12763 C 1218.24 3.0804 -1.46027 0
M  V30 12764 H 1219.43 1.61866 -2.52467 0
M  V30 12765 H 1216.99 0.811785 -1.33565 0
M  V30 12766 H 1217.72 3.20428 -0.499614 0
M  V30 12767 H 1217.51 3.19423 -2.27401 0
M  V30 12768 H 1219 3.8755 -1.55546 0
M  V30 12769 N 1219.43 1.33438 0.838571 0
M  V30 12770 C 1220.34 1.25753 1.98049 0
M  V30 12771 C 1221.36 0.168051 1.73187 0
M  V30 12772 O 1222.53 0.391691 1.97554 0
M  V30 12773 C 1219.6 0.997148 3.32051 0
M  V30 12774 C 1218.66 2.17667 3.70027 0
M  V30 12775 C 1217.89 1.92861 4.97635 0
M  V30 12776 O 1218.12 0.879072 5.63585 0
M  V30 12777 O 1217.05 2.79402 5.33121 0
M  V30 12778 H 1220.88 2.21786 2.07472 0
M  V30 12779 H 1218.46 1.13488 0.971645 0
M  V30 12780 H 1220.34 0.869099 4.1234 0
M  V30 12781 H 1219.02 0.0671036 3.2363 0
M  V30 12782 H 1217.93 2.36025 2.90246 0
M  V30 12783 H 1219.26 3.09006 3.83114 0
M  V30 12784 N 1220.91 -1.05686 1.16912 0
M  V30 12785 C 1222.16 -1.77987 0.948875 0
M  V30 12786 C 1222.47 -1.8845 -0.524011 0
M  V30 12787 O 1223.68 -2.57442 -0.862322 0
M  V30 12788 C 1222.13 -3.19927 1.64848 0
M  V30 12789 C 1221.74 -3.1761 3.15956 0
M  V30 12790 C 1223.49 -3.96719 1.51044 0
M  V30 12791 C 1221.39 -4.54307 3.78628 0
M  V30 12792 H 1220.32 -0.667119 0.35138 0
M  V30 12793 H 1222.97 -1.18496 1.40111 0
M  V30 12794 H 1221.36 -3.79714 1.12397 0
M  V30 12795 H 1222.53 -2.67369 3.75301 0
M  V30 12796 H 1220.85 -2.54317 3.29715 0
M  V30 12797 H 1223.44 -4.97779 1.95243 0
M  V30 12798 H 1223.79 -4.13748 0.460268 0
M  V30 12799 H 1224.32 -3.43468 2.00685 0
M  V30 12800 H 1221.06 -4.42484 4.8362 0
M  V30 12801 H 1220.58 -5.04717 3.24069 0
M  V30 12802 H 1222.26 -5.23255 3.80543 0
M  V30 12803 N 1222.39 -0.968567 -1.24324 0
M  V30 12804 C 1223.32 -0.444065 -2.23838 0
M  V30 12805 C 1224.3 0.482311 -1.55282 0
M  V30 12806 O 1225.48 0.413489 -1.83909 0
M  V30 12807 C 1222.61 0.358874 -3.36793 0
M  V30 12808 C 1221.66 -0.509913 -4.23441 0
M  V30 12809 S 1222.49 -1.95064 -4.98708 0
M  V30 12810 C 1223.65 -1.15652 -6.15122 0
M  V30 12811 H 1223.88 -1.28738 -2.67981 0
M  V30 12812 H 1221.41 -0.773665 -1.33618 0
M  V30 12813 H 1223.37 0.816164 -4.02305 0
M  V30 12814 H 1222.03 1.17717 -2.91207 0
M  V30 12815 H 1221.22 0.106617 -5.03887 0
M  V30 12816 H 1220.83 -0.902967 -3.62936 0
M  V30 12817 H 1223.12 -0.411966 -6.76246 0
M  V30 12818 H 1224.06 -1.93539 -6.81137 0
M  V30 12819 H 1224.47 -0.680507 -5.60383 0
M  V30 12820 N 1223.87 1.39211 -0.738786 0
M  V30 12821 C 1225.11 2.00733 -0.288817 0
M  V30 12822 C 1225.45 1.58494 1.1222 0
M  V30 12823 O 1224.72 0.815579 1.76575 0
M  V30 12824 C 1225 3.57928 -0.394956 0
M  V30 12825 C 1224.86 4.10174 -1.84601 0
M  V30 12826 C 1226.18 4.39548 0.220395 0
M  V30 12827 H 1223.29 0.729276 -0.106418 0
M  V30 12828 H 1225.94 1.65365 -0.935652 0
M  V30 12829 H 1224.09 3.88188 0.155744 0
M  V30 12830 H 1225.76 3.90618 -2.45388 0
M  V30 12831 H 1224 3.63593 -2.36607 0
M  V30 12832 H 1224.67 5.19305 -1.87152 0
M  V30 12833 H 1227.15 4.15354 -0.249098 0
M  V30 12834 H 1226.02 5.48778 0.115806 0
M  V30 12835 H 1226.29 4.22341 1.30691 0
M  V30 12836 N 1225.34 0.486708 1.49896 0
M  V30 12837 C 1226.57 -0.0622999 2.07306 0
M  V30 12838 C 1226.99 -1.31353 1.3464 0
M  V30 12839 O 1226.35 -1.76861 0.398752 0
M  V30 12840 C 1226.4 -0.313481 3.59235 0
M  V30 12841 O 1225.5 -1.39101 3.88233 0
M  V30 12842 H 1224.85 0.0198885 0.663702 0
M  V30 12843 H 1227.38 0.682232 1.92891 0
M  V30 12844 H 1227.39 -0.549302 4.04285 0
M  V30 12845 H 1226.06 0.600767 4.11538 0
M  V30 12846 H 1224.64 -1.14127 3.55006 0
M  V30 12847 N 1226.82 -1.56058 0.219941 0
M  V30 12848 C 1228.1 -1.90087 -0.46112 0
M  V30 12849 C 1228.48 -1.13705 -1.77861 0
M  V30 12850 O 1227.83 -0.245868 -2.27173 0
M  V30 12851 C 1228.04 -3.42786 -0.655644 0
M  V30 12852 C 1229.39 -4.13517 -0.963803 0
M  V30 12853 O 1230.41 -3.48376 -0.742488 0
M  V30 12854 O 1229.27 -5.28692 -1.38374 0
M  V30 12855 H 1226.36 -0.790311 -0.243595 0
M  V30 12856 H 1228.91 -1.67665 0.262005 0
M  V30 12857 H 1227.68 -3.90341 0.273738 0
M  V30 12858 H 1227.3 -3.70982 -1.43032 0
M  V30 12859 N 1228.3 0.053464 -1.57509 0
M  V30 12860 C 1229.23 1.08863 -2.01696 0
M  V30 12861 C 1230.25 1.33916 -0.925765 0
M  V30 12862 O 1231.44 1.31833 -1.20343 0
M  V30 12863 C 1228.54 2.43567 -2.35644 0
M  V30 12864 C 1227.71 2.38215 -3.66841 0
M  V30 12865 C 1226.77 3.55172 -3.88252 0
M  V30 12866 O 1225.79 3.35769 -4.59617 0
M  V30 12867 N 1227 4.76182 -3.3201 0
M  V30 12868 H 1229.76 0.712192 -2.91115 0
M  V30 12869 H 1227.32 0.241829 -1.60084 0
M  V30 12870 H 1229.31 3.20486 -2.47125 0
M  V30 12871 H 1227.88 2.73145 -1.52022 0
M  V30 12872 H 1227.1 1.46557 -3.65943 0
M  V30 12873 H 1228.39 2.31757 -4.52953 0
M  V30 12874 H 1227.79 4.94849 -2.74118 0
M  V30 12875 H 1226.35 5.5055 -3.4891 0
M  V30 12876 N 1229.78 1.54207 0.325255 0
M  V30 12877 C 1231.06 1.6298 1.08153 0
M  V30 12878 C 1231.44 0.462583 2.05969 0
M  V30 12879 O 1230.78 -0.543323 2.21947 0
M  V30 12880 C 1230.99 2.999 1.78497 0
M  V30 12881 C 1232.34 3.55888 2.3158 0
M  V30 12882 O 1233.37 3.02194 1.88566 0
M  V30 12883 O 1232.23 4.49847 3.10322 0
M  V30 12884 H 1229.32 0.659923 0.498429 0
M  V30 12885 H 1231.87 1.66553 0.325282 0
M  V30 12886 H 1230.64 3.7629 1.07338 0
M  V30 12887 H 1230.26 2.99997 2.60936 0
M  V30 12888 N 1231.26 -0.58723 1.46251 0
M  V30 12889 C 1232.53 -1.34727 1.41802 0
M  V30 12890 C 1232.91 -2.10867 0.0991354 0
M  V30 12891 O 1232.26 -2.09194 -0.919242 0
M  V30 12892 C 1232.47 -2.27706 2.64482 0
M  V30 12893 C 1233.82 -2.89678 3.10438 0
M  V30 12894 O 1234.84 -2.38021 2.64999 0
M  V30 12895 O 1233.7 -3.83493 3.89352 0
M  V30 12896 H 1230.8 -0.605119 0.563702 0
M  V30 12897 H 1233.34 -0.608623 1.5841 0
M  V30 12898 H 1232.12 -1.70842 3.52035 0
M  V30 12899 H 1231.74 -3.08918 2.50311 0
M  V30 12900 N 1232.74 -1.33881 -0.831482 0
M  V30 12901 C 1233.98 -1.27095 -1.60082 0
M  V30 12902 C 1234.34 0.15911 -1.9134 0
M  V30 12903 O 1235.54 0.351029 -2.66498 0
M  V30 12904 C 1233.81 -2.12874 -2.87088 0
M  V30 12905 S 1235.37 -2.23354 -3.77702 0
M  V30 12906 H 1232.19 -0.452049 -0.548792 0
M  V30 12907 H 1234.79 -1.68998 -0.98285 0
M  V30 12908 H 1233.49 -3.15797 -2.62108 0
M  V30 12909 H 1233.03 -1.71836 -3.53887 0
M  V30 12910 H 1235.04 -1.40003 -4.76039 0
M  V30 12911 N 1234.21 1.05064 -1.1747 0
M  V30 12912 C 1235.18 2.1101 -0.89485 0
M  V30 12913 C 1236.18 1.60384 0.11553 0
M  V30 12914 O 1237.37 1.73808 -0.116785 0
M  V30 12915 C 1234.5 3.39194 -0.340642 0
M  V30 12916 H 1235.69 2.37269 -1.83421 0
M  V30 12917 H 1233.24 1.21329 -0.985343 0
M  V30 12918 H 1233.98 3.18591 0.605808 0
M  V30 12919 H 1233.76 3.77251 -1.06885 0
M  V30 12920 H 1235.25 4.17281 -0.163204 0
M  V30 12921 N 1235.69 0.975146 1.23809 0
M  V30 12922 C 1237.1 0.678873 1.7392 0
M  V30 12923 C 1237.45 -0.805133 1.78919 0
M  V30 12924 O 1236.58 -1.62984 1.42356 0
M  V30 12925 C 1237.17 1.22562 3.15854 0
M  V30 12926 C 1235.73 0.979096 3.63443 0
M  V30 12927 C 1234.88 1.35649 2.41857 0
M  V30 12928 H 1237.83 1.14961 1.09406 0
M  V30 12929 H 1237.85 0.595489 3.75811 0
M  V30 12930 H 1237.36 2.30571 3.12184 0
M  V30 12931 H 1235.46 -0.0851407 3.72503 0
M  V30 12932 H 1235.58 1.62998 4.5052 0
M  V30 12933 H 1233.94 0.774916 2.42626 0
M  V30 12934 H 1234.72 2.44624 2.40861 0
M  V30 12935 N 1237.17 -1.38817 0.746158 0
M  V30 12936 C 1238.42 -2.00577 0.299458 0
M  V30 12937 C 1238.75 -1.59087 -1.11378 0
M  V30 12938 O 1238.02 -0.824932 -1.7614 0
M  V30 12939 C 1238.31 -3.57713 0.413932 0
M  V30 12940 C 1238.16 -4.09189 1.86774 0
M  V30 12941 C 1239.48 -4.39659 -0.197082 0
M  V30 12942 H 1236.6 -0.728702 0.110285 0
M  V30 12943 H 1239.24 -1.64866 0.944408 0
M  V30 12944 H 1237.39 -3.88265 -0.135155 0
M  V30 12945 H 1239.06 -3.89311 2.47456 0
M  V30 12946 H 1237.3 -3.62333 2.38532 0
M  V30 12947 H 1237.98 -5.18305 1.89904 0
M  V30 12948 H 1240.45 -4.15216 0.271121 0
M  V30 12949 H 1239.33 -5.48832 -0.0867011 0
M  V30 12950 H 1239.59 -4.23028 -1.2845 0
M  V30 12951 N 1238.65 -0.49465 -1.49636 0
M  V30 12952 C 1239.9 0.0520143 -2.02033 0
M  V30 12953 C 1240.22 1.38071 -1.37701 0
M  V30 12954 O 1239.49 1.88589 -0.530181 0
M  V30 12955 H 1238.07 0.0222123 -0.74667 0
M  V30 12956 H 1240.73 -0.650445 -1.83726 0
M  V30 12957 H 1239.82 0.186337 -3.11543 0
M  V30 12958 N 1240.13 1.55939 -0.228214 0
M  V30 12959 C 1241.37 2.00379 0.403442 0
M  V30 12960 C 1241.73 1.11264 1.56475 0
M  V30 12961 O 1242.93 1.45079 2.26287 0
M  V30 12962 C 1241.2 3.47851 0.820649 0
M  V30 12963 S 1242.76 4.14309 1.44547 0
M  V30 12964 H 1239.58 0.699426 0.127768 0
M  V30 12965 H 1242.18 1.92537 -0.339066 0
M  V30 12966 H 1240.88 4.10386 -0.0341308 0
M  V30 12967 H 1240.42 3.5958 1.5958 0
M  V30 12968 H 1242.43 4.14048 2.73456 0
M  V30 12969 N 1241.6 -0.0451101 1.57535 0
M  V30 12970 C 1242.83 -0.755068 1.93167 0
M  V30 12971 C 1243.25 -1.68949 0.826915 0
M  V30 12972 O 1242.61 -1.79978 -0.218534 0
M  V30 12973 C 1242.66 -1.50201 3.27829 0
M  V30 12974 O 1241.76 -2.61434 3.18945 0
M  V30 12975 H 1241.11 -0.204219 0.631815 0
M  V30 12976 H 1243.64 -0.00537504 2.04599 0
M  V30 12977 H 1243.65 -1.87547 3.6234 0
M  V30 12978 H 1242.32 -0.816591 4.07805 0
M  V30 12979 H 1240.9 -2.26749 2.96039 0
M  V30 12980 N 1243.08 -1.54377 -0.317073 0
M  V30 12981 C 1244.02 -1.7907 -1.41453 0
M  V30 12982 C 1244.99 -0.641012 -1.49432 0
M  V30 12983 O 1246.18 -0.879179 -1.66741 0
M  V30 12984 C 1243.3 -1.91307 -2.79498 0
M  V30 12985 C 1242.35 -3.13639 -2.8902 0
M  V30 12986 S 1243.18 -4.72093 -2.52762 0
M  V30 12987 C 1244.34 -4.87245 -3.92866 0
M  V30 12988 H 1244.57 -2.71875 -1.20296 0
M  V30 12989 H 1242.11 -1.45583 -0.514279 0
M  V30 12990 H 1244.06 -1.99043 -3.59015 0
M  V30 12991 H 1242.72 -0.994687 -2.97934 0
M  V30 12992 H 1241.92 -3.18955 -3.90235 0
M  V30 12993 H 1241.52 -3.04266 -2.17481 0
M  V30 12994 H 1243.81 -4.7028 -4.87691 0
M  V30 12995 H 1244.75 -5.89344 -3.92529 0
M  V30 12996 H 1245.16 -4.15504 -3.82122 0
M  V30 12997 N 1244.56 0.579466 -1.4656 0
M  V30 12998 C 1245.79 1.36153 -1.55389 0
M  V30 12999 C 1246.2 1.88192 -0.195062 0
M  V30 13000 O 1245.54 1.64464 0.81836 0
M  V30 13001 C 1245.6 2.58269 -2.50075 0
M  V30 13002 C 1245.27 2.27675 -3.96249 0
M  V30 13003 C 1246.26 1.86313 -4.85369 0
M  V30 13004 C 1243.95 2.39719 -4.41407 0
M  V30 13005 C 1245.94 1.57395 -6.17661 0
M  V30 13006 C 1243.63 2.10414 -5.73733 0
M  V30 13007 C 1244.63 1.69317 -6.6168 0
M  V30 13008 O 1244.32 1.40373 -7.9155 0
M  V30 13009 H 1244.05 0.422174 -0.527963 0
M  V30 13010 H 1246.6 0.711089 -1.92698 0
M  V30 13011 H 1244.83 3.26129 -2.0779 0
M  V30 13012 H 1246.52 3.20339 -2.49275 0
M  V30 13013 H 1247.29 1.7652 -4.51736 0
M  V30 13014 H 1243.17 2.70669 -3.73175 0
M  V30 13015 H 1246.71 1.25244 -6.86265 0
M  V30 13016 H 1242.61 2.19833 -6.06913 0
M  V30 13017 H 1243.38 1.54191 -8.03845 0
M  V30 13018 N 1246.04 1.3432 0.824371 0
M  V30 13019 C 1247 1.25672 1.91675 0
M  V30 13020 C 1248 0.172269 1.59875 0
M  V30 13021 O 1249.19 0.424794 1.68941 0
M  V30 13022 C 1246.32 0.939928 3.27686 0
M  V30 13023 H 1247.52 2.22785 2.00766 0
M  V30 13024 H 1245.07 1.18587 1.01817 0
M  V30 13025 H 1245.8 -0.0280898 3.24288 0
M  V30 13026 H 1245.59 1.72432 3.5215 0
M  V30 13027 H 1247.08 0.904553 4.07686 0
M  V30 13028 N 1247.52 -1.0444 1.18026 0
M  V30 13029 C 1248.93 -1.29766 0.929143 0
M  V30 13030 C 1249.13 -1.97338 -0.407436 0
M  V30 13031 O 1248.19 -2.25166 -1.14265 0
M  V30 13032 C 1249.5 -2.16002 2.09197 0
M  V30 13033 C 1251.05 -2.29361 2.12985 0
M  V30 13034 C 1251.52 -3.18962 3.28675 0
M  V30 13035 N 1253.02 -3.26549 3.28512 0
M  V30 13036 C 1253.75 -3.96025 4.14671 0
M  V30 13037 N 1253.25 -4.67863 5.10956 0
M  V30 13038 N 1255.04 -3.92266 4.02597 0
M  V30 13039 H 1247.19 -0.58984 2.04046 0
M  V30 13040 H 1249.45 -0.322752 0.891367 0
M  V30 13041 H 1249.16 -1.73653 3.05839 0
M  V30 13042 H 1249.03 -3.16667 2.04943 0
M  V30 13043 H 1251.42 -2.70948 1.16924 0
M  V30 13044 H 1251.5 -1.28299 2.21298 0
M  V30 13045 H 1251.15 -2.78087 4.25006 0
M  V30 13046 H 1251.08 -4.20047 3.17598 0
M  V30 13047 H 1253.57 -2.75371 2.58804 0
M  V30 13048 H 1253.88 -5.1846 5.73079 0
M  V30 13049 H 1252.22 -4.6678 5.14919 0
M  V30 13050 H 1255.42 -3.35273 3.26665 0
M  V30 13051 H 1255.59 -4.4614 4.69961 0
M  V30 13052 N 1248.99 -0.981699 -1.2329 0
M  V30 13053 C 1250.23 -0.659348 -1.93473 0
M  V30 13054 C 1250.6 0.792616 -1.74876 0
M  V30 13055 O 1251.8 1.22586 -2.3922 0
M  V30 13056 C 1250.07 -1.04065 -3.41914 0
M  V30 13057 S 1251.63 -0.834964 -4.30783 0
M  V30 13058 H 1248.45 -0.241428 -0.668755 0
M  V30 13059 H 1251.05 -1.26161 -1.49344 0
M  V30 13060 H 1249.75 -2.09398 -3.5296 0
M  V30 13061 H 1249.28 -0.429721 -3.91046 0
M  V30 13062 H 1251.3 0.280447 -4.95407 0
M  V30 13063 N 1250.47 1.3842 -0.753509 0
M  V30 13064 C 1251.72 1.99359 -0.306416 0
M  V30 13065 C 1252.03 1.60492 1.11811 0
M  V30 13066 O 1253.24 2.14401 1.66567 0
M  V30 13067 C 1251.7 3.56453 -0.496895 0
M  V30 13068 C 1251.3 4.04272 -1.9305 0
M  V30 13069 C 1253.05 4.24351 -0.11251 0
M  V30 13070 C 1250.96 5.54007 -2.06955 0
M  V30 13071 H 1249.89 0.745812 -0.110818 0
M  V30 13072 H 1252.54 1.58185 -0.930039 0
M  V30 13073 H 1250.92 3.95515 0.195912 0
M  V30 13074 H 1252.09 3.765 -2.65677 0
M  V30 13075 H 1250.41 3.49098 -2.26979 0
M  V30 13076 H 1253 5.34344 -0.195161 0
M  V30 13077 H 1253.35 4.05668 0.934849 0
M  V30 13078 H 1253.88 3.90528 -0.757168 0
M  V30 13079 H 1250.62 5.77594 -3.09944 0
M  V30 13080 H 1250.14 5.83522 -1.38788 0
M  V30 13081 H 1251.82 6.19704 -1.85945 0
M  V30 13082 N 1251.95 0.502579 1.49372 0
M  V30 13083 C 1253.18 -0.0403087 2.07361 0
M  V30 13084 C 1253.6 -1.29918 1.36026 0
M  V30 13085 O 1252.96 -1.76428 0.417488 0
M  V30 13086 C 1253.01 -0.275362 3.59547 0
M  V30 13087 O 1252.11 -1.34975 3.89686 0
M  V30 13088 H 1251.45 0.0269268 0.663454 0
M  V30 13089 H 1253.98 0.702652 1.92156 0
M  V30 13090 H 1253.99 -0.506392 4.04845 0
M  V30 13091 H 1252.67 0.644382 4.10878 0
M  V30 13092 H 1251.24 -1.10355 3.56197 0
M  V30 13093 N 1253.43 -1.55816 0.23648 0
M  V30 13094 C 1254.34 -2.24576 -0.678439 0
M  V30 13095 C 1255.35 -1.25836 -1.20172 0
M  V30 13096 O 1256.53 -1.58686 -1.24019 0
M  V30 13097 C 1253.6 -2.92376 -1.86325 0
M  V30 13098 C 1252.66 -4.06499 -1.38047 0
M  V30 13099 C 1251.89 -4.71057 -2.50881 0
M  V30 13100 O 1252.11 -4.34652 -3.69369 0
M  V30 13101 O 1251.05 -5.59768 -2.21232 0
M  V30 13102 H 1254.87 -3.03452 -0.122601 0
M  V30 13103 H 1252.46 -1.49399 0.00540803 0
M  V30 13104 H 1254.34 -3.35117 -2.55488 0
M  V30 13105 H 1253.01 -2.16448 -2.40691 0
M  V30 13106 H 1251.92 -3.68296 -0.656422 0
M  V30 13107 H 1253.25 -4.84214 -0.883024 0
M  V30 13108 N 1254.91 0.036755 -1.57557 0
M  V30 13109 C 1256.15 0.727665 -1.88546 0
M  V30 13110 C 1256.48 1.76304 -0.833179 0
M  V30 13111 O 1255.75 1.9544 0.13414 0
M  V30 13112 H 1254.33 0.271744 -0.695819 0
M  V30 13113 H 1256.99 0.00452915 -1.94899 0
M  V30 13114 H 1256.08 1.22205 -2.8718 0
M  V30 13115 N 1256.39 1.54543 0.308881 0
M  V30 13116 C 1257.3 1.87994 1.4034 0
M  V30 13117 C 1258.31 0.773294 1.55872 0
M  V30 13118 O 1259.49 1.069 1.70688 0
M  V30 13119 C 1256.55 2.11341 2.74838 0
M  V30 13120 C 1255.61 3.35086 2.68358 0
M  V30 13121 C 1254.85 3.5731 3.96441 0
M  V30 13122 O 1255.07 2.82692 4.9542 0
M  V30 13123 O 1254 4.50814 3.98811 0
M  V30 13124 H 1257.83 2.81094 1.14976 0
M  V30 13125 H 1255.41 1.40634 0.504236 0
M  V30 13126 H 1257.3 2.27943 3.54429 0
M  V30 13127 H 1255.97 1.21427 3.00062 0
M  V30 13128 H 1254.88 3.23855 1.87267 0
M  V30 13129 H 1256.21 4.25104 2.48087 0
M  V30 13130 N 1257.86 -0.571685 1.46866 0
M  V30 13131 C 1259.14 -1.33216 1.43223 0
M  V30 13132 C 1259.52 -2.1075 0.121495 0
M  V30 13133 O 1258.87 -2.10157 -0.897003 0
M  V30 13134 C 1259.08 -2.24888 2.66882 0
M  V30 13135 C 1260.43 -2.86369 3.13493 0
M  V30 13136 O 1261.45 -2.35197 2.67509 0
M  V30 13137 O 1260.31 -3.79342 3.93398 0
M  V30 13138 H 1257.4 -0.599106 0.570089 0
M  V30 13139 H 1259.95 -0.591788 1.59047 0
M  V30 13140 H 1258.72 -1.67099 3.53827 0
M  V30 13141 H 1258.34 -3.06246 2.53573 0
M  V30 13142 N 1259.34 -1.34755 -0.817236 0
M  V30 13143 C 1260.3 -1.26687 -1.91006 0
M  V30 13144 C 1261.3 -0.180745 -1.59781 0
M  V30 13145 O 1262.49 -0.433748 -1.68714 0
M  V30 13146 C 1259.63 -0.957293 -3.27183 0
M  V30 13147 H 1260.82 -2.23846 -1.99582 0
M  V30 13148 H 1258.37 -1.19125 -1.01187 0
M  V30 13149 H 1259.11 0.0108917 -3.24298 0
M  V30 13150 H 1258.89 -1.74297 -3.5123 0
M  V30 13151 H 1260.38 -0.926161 -4.072 0
M  V30 13152 N 1260.82 1.03812 -1.18578 0
M  V30 13153 C 1262.05 1.80702 -1.00769 0
M  V30 13154 C 1262.46 1.83509 0.443833 0
M  V30 13155 O 1261.82 1.2724 1.30829 0
M  V30 13156 C 1261.87 3.26185 -1.55838 0
M  V30 13157 O 1261.59 3.23612 -2.95308 0
M  V30 13158 C 1263.09 4.1971 -1.42682 0
M  V30 13159 H 1260.31 0.568972 -0.355685 0
M  V30 13160 H 1262.86 1.30817 -1.57185 0
M  V30 13161 H 1261.01 3.73293 -1.03592 0
M  V30 13162 H 1261.43 4.14769 -3.2104 0
M  V30 13163 H 1262.9 5.19716 -1.86008 0
M  V30 13164 H 1263.38 4.37588 -0.375924 0
M  V30 13165 H 1263.98 3.78469 -1.94013 0
M  V30 13166 N 1262.3 0.988223 1.22768 0
M  V30 13167 C 1263.54 0.669599 1.93121 0
M  V30 13168 C 1263.9 -0.783331 1.75294 0
M  V30 13169 O 1265.1 -1.21315 2.39867 0
M  V30 13170 C 1263.37 1.05876 3.41358 0
M  V30 13171 S 1264.93 0.857797 4.30334 0
M  V30 13172 H 1261.75 0.244972 0.667465 0
M  V30 13173 H 1264.35 1.26952 1.48673 0
M  V30 13174 H 1263.06 2.11267 3.51844 0
M  V30 13175 H 1262.59 0.450453 3.90813 0
M  V30 13176 H 1264.6 -0.254171 4.95549 0
M  V30 13177 N 1263.78 -1.38018 0.760839 0
M  V30 13178 C 1264.71 -2.2899 0.0980916 0
M  V30 13179 C 1265.72 -1.48102 -0.675985 0
M  V30 13180 O 1266.91 -1.70883 -0.515878 0
M  V30 13181 C 1264.01 -3.27142 -0.884959 0
M  V30 13182 C 1263.18 -4.37081 -0.167 0
M  V30 13183 C 1262.24 -5.15375 -1.06184 0
M  V30 13184 O 1261.27 -5.6673 -0.529667 0
M  V30 13185 N 1262.47 -5.29052 -2.38924 0
M  V30 13186 H 1265.23 -2.86508 0.879403 0
M  V30 13187 H 1262.8 -1.49877 0.612245 0
M  V30 13188 H 1264.79 -3.764 -1.48678 0
M  V30 13189 H 1263.36 -2.70471 -1.5673 0
M  V30 13190 H 1262.58 -3.89363 0.615617 0
M  V30 13191 H 1263.87 -5.07732 0.329525 0
M  V30 13192 H 1263.26 -4.88892 -2.84607 0
M  V30 13193 H 1261.82 -5.81658 -2.94139 0
M  V30 13194 N 1265.25 -0.510493 -1.49103 0
M  V30 13195 C 1266.49 0.0288873 -2.0438 0
M  V30 13196 C 1266.86 1.334 -1.38088 0
M  V30 13197 O 1268.06 1.95821 -1.8414 0
M  V30 13198 C 1266.33 0.168392 -3.57003 0
M  V30 13199 S 1267.89 0.660651 -4.33798 0
M  V30 13200 H 1264.71 -0.00274928 -0.710995 0
M  V30 13201 H 1267.31 -0.686622 -1.83046 0
M  V30 13202 H 1266.01 -0.786627 -4.02791 0
M  V30 13203 H 1265.54 0.908861 -3.82757 0
M  V30 13204 H 1267.56 1.92833 -4.57198 0
M  V30 13205 N 1266.73 1.55688 -0.24474 0
M  V30 13206 C 1267.66 2.24272 0.64995 0
M  V30 13207 C 1268.64 1.22226 1.183 0
M  V30 13208 O 1269.83 1.50873 1.22274 0
M  V30 13209 C 1266.96 2.94053 1.84798 0
M  V30 13210 C 1265.91 4.02769 1.44779 0
M  V30 13211 C 1265.24 4.59965 2.72647 0
M  V30 13212 C 1266.54 5.18601 0.62047 0
M  V30 13213 H 1268.23 2.99298 0.0780654 0
M  V30 13214 H 1265.78 1.43955 0.0361069 0
M  V30 13215 H 1267.73 3.40732 2.47951 0
M  V30 13216 H 1266.45 2.16511 2.44521 0
M  V30 13217 H 1265.11 3.56856 0.839609 0
M  V30 13218 H 1264.76 3.79126 3.30564 0
M  V30 13219 H 1264.46 5.33352 2.46596 0
M  V30 13220 H 1265.99 5.09376 3.36703 0
M  V30 13221 H 1267.4 5.61519 1.15625 0
M  V30 13222 H 1265.8 5.98364 0.456097 0
M  V30 13223 H 1266.87 4.83503 -0.367798 0
M  V30 13224 N 1268.21 -0.0283989 1.57574 0
M  V30 13225 C 1269.16 -1.02881 2.06601 0
M  V30 13226 C 1270.13 -1.35879 0.955308 0
M  V30 13227 O 1271.31 -1.46205 1.22592 0
M  V30 13228 C 1268.45 -2.32447 2.55073 0
M  V30 13229 C 1267.56 -2.05602 3.79937 0
M  V30 13230 C 1266.7 -3.29043 4.17018 0
M  V30 13231 C 1265.74 -2.97755 5.34797 0
M  V30 13232 N 1264.88 -4.1365 5.67308 0
M  V30 13233 H 1269.72 -0.603772 2.91819 0
M  V30 13234 H 1267.25 -0.286503 1.44283 0
M  V30 13235 H 1269.21 -3.08152 2.81244 0
M  V30 13236 H 1267.84 -2.72672 1.72771 0
M  V30 13237 H 1266.89 -1.2039 3.60847 0
M  V30 13238 H 1268.2 -1.78522 4.65759 0
M  V30 13239 H 1267.36 -4.13115 4.4432 0
M  V30 13240 H 1266.1 -3.59237 3.29849 0
M  V30 13241 H 1265.1 -2.12085 5.07247 0
M  V30 13242 H 1266.33 -2.68839 6.23621 0
M  V30 13243 H 1264.27 -4.43794 4.83097 0
M  V30 13244 H 1264.19 -3.89996 6.47641 0
M  V30 13245 H 1265.46 -4.98594 5.99186 0
M  V30 13246 N 1269.69 -1.54705 -0.300681 0
M  V30 13247 C 1270.94 -1.73658 -1.0338 0
M  V30 13248 C 1271.26 -0.525447 -1.87787 0
M  V30 13249 O 1270.53 0.460269 -1.90416 0
M  V30 13250 H 1269.11 -0.640338 -0.384677 0
M  V30 13251 H 1271.77 -1.92059 -0.331588 0
M  V30 13252 H 1270.86 -2.62595 -1.68672 0
M  V30 13253 N 1271.17 0.563888 -1.47167 0
M  V30 13254 C 1272.41 1.32136 -1.53448 0
M  V30 13255 C 1272.74 1.9353 -0.19396 0
M  V30 13256 O 1272 1.78038 0.812456 0
M  V30 13257 C 1272.3 2.45678 -2.59571 0
M  V30 13258 C 1271.96 2.02157 -4.03043 0
M  V30 13259 C 1270.62 1.90003 -4.421 0
M  V30 13260 C 1272.98 1.68846 -4.93093 0
M  V30 13261 C 1270.3 1.42825 -5.6905 0
M  V30 13262 C 1272.66 1.2314 -6.20499 0
M  V30 13263 C 1271.32 1.09578 -6.58444 0
M  V30 13264 H 1270.59 0.483519 -0.561507 0
M  V30 13265 H 1273.24 0.633042 -1.80734 0
M  V30 13266 H 1271.54 3.20037 -2.26017 0
M  V30 13267 H 1273.24 3.03871 -2.61655 0
M  V30 13268 H 1269.83 2.12557 -3.7218 0
M  V30 13269 H 1274.01 1.77111 -4.63622 0
M  V30 13270 H 1269.27 1.30983 -5.97205 0
M  V30 13271 H 1273.44 0.964247 -6.89692 0
M  V30 13272 H 1271.07 0.727975 -7.56706 0
M  V30 13273 N 1272.64 1.35187 0.810078 0
M  V30 13274 C 1273.61 1.27698 1.90331 0
M  V30 13275 C 1274.61 0.189216 1.59683 0
M  V30 13276 O 1275.8 0.442689 1.68481 0
M  V30 13277 C 1272.93 0.974631 3.26671 0
M  V30 13278 H 1274.12 2.24902 1.98392 0
M  V30 13279 H 1271.68 1.1966 1.00554 0
M  V30 13280 H 1272.41 0.0063068 3.24299 0
M  V30 13281 H 1272.2 1.76158 3.50301 0
M  V30 13282 H 1273.69 0.947743 4.06703 0
M  V30 13283 N 1274.12 -1.03182 1.19127 0
M  V30 13284 C 1275.37 -1.76184 0.990134 0
M  V30 13285 C 1275.69 -1.88986 -0.480546 0
M  V30 13286 O 1274.96 -1.4213 -1.34817 0
M  V30 13287 H 1273.54 -0.652668 0.363364 0
M  V30 13288 H 1276.2 -1.24481 1.49968 0
M  V30 13289 H 1275.3 -2.77119 1.43568 0
M  V30 13290 N 1275.6 -0.99472 -1.22242 0
M  V30 13291 C 1276.88 -0.587481 -1.86569 0
M  V30 13292 C 1277.26 0.935174 -1.89256 0
M  V30 13293 O 1276.61 1.81787 -1.3844 0
M  V30 13294 C 1276.82 -1.21001 -3.27353 0
M  V30 13295 C 1278.16 -1.31167 -4.03832 0
M  V30 13296 O 1279.19 -1.16454 -3.36626 0
M  V30 13297 O 1278.05 -1.54731 -5.24138 0
M  V30 13298 H 1275.14 -0.199838 -0.802492 0
M  V30 13299 H 1277.69 -1.09071 -1.30006 0
M  V30 13300 H 1276.46 -2.25143 -3.20041 0
M  V30 13301 H 1276.08 -0.692479 -3.91523 0
M  V30 13302 N 1277.08 1.37613 -0.768148 0
M  V30 13303 C 1278.33 1.99384 -0.330187 0
M  V30 13304 C 1278.65 1.61283 1.09604 0
M  V30 13305 O 1277.92 0.876551 1.75195 0
M  V30 13306 H 1276.5 0.737445 -0.119095 0
M  V30 13307 H 1279.16 1.6815 -0.985476 0
M  V30 13308 H 1278.26 3.09462 -0.40494 0
M  V30 13309 N 1278.56 0.518393 1.4883 0
M  V30 13310 C 1279.5 -0.250684 2.29435 0
M  V30 13311 C 1280.47 -0.944481 1.36634 0
M  V30 13312 O 1281.66 -0.947766 1.65596 0
M  V30 13313 C 1278.8 -1.29871 3.1973 0
M  V30 13314 C 1277.91 -0.61493 4.27601 0
M  V30 13315 C 1277.05 -1.64489 5.05091 0
M  V30 13316 C 1276.09 -0.943932 6.04778 0
M  V30 13317 N 1275.22 -1.91889 6.75369 0
M  V30 13318 H 1280.06 0.44288 2.94691 0
M  V30 13319 H 1277.6 0.230246 1.45287 0
M  V30 13320 H 1279.56 -1.91851 3.70471 0
M  V30 13321 H 1278.19 -1.96081 2.56422 0
M  V30 13322 H 1277.24 0.118552 3.80215 0
M  V30 13323 H 1278.55 -0.063994 4.98759 0
M  V30 13324 H 1277.71 -2.33928 5.59788 0
M  V30 13325 H 1276.44 -2.2297 4.33746 0
M  V30 13326 H 1275.45 -0.235407 5.49296 0
M  V30 13327 H 1276.67 -0.365383 6.78116 0
M  V30 13328 H 1274.62 -2.493 6.06783 0
M  V30 13329 H 1274.54 -1.41909 7.42562 0
M  V30 13330 H 1275.81 -2.60563 7.34661 0
M  V30 13331 N 1280.03 -1.55556 0.252993 0
M  V30 13332 C 1280.96 -2.24613 -0.638047 0
M  V30 13333 C 1281.95 -1.22852 -1.1765 0
M  V30 13334 O 1283.13 -1.51519 -1.21472 0
M  V30 13335 C 1280.26 -2.95029 -1.83236 0
M  V30 13336 C 1279.21 -4.03531 -1.42641 0
M  V30 13337 C 1278.54 -4.61404 -2.70204 0
M  V30 13338 C 1279.84 -5.18923 -0.592958 0
M  V30 13339 H 1281.53 -2.99335 -0.0621918 0
M  V30 13340 H 1279.08 -1.43972 -0.0284722 0
M  V30 13341 H 1281.03 -3.42042 -2.46141 0
M  V30 13342 H 1279.76 -2.17805 -2.43369 0
M  V30 13343 H 1278.42 -3.57296 -0.820672 0
M  V30 13344 H 1278.06 -3.80874 -3.28548 0
M  V30 13345 H 1277.76 -5.34652 -2.43764 0
M  V30 13346 H 1279.29 -5.11154 -3.33997 0
M  V30 13347 H 1280.7 -5.62124 -1.12646 0
M  V30 13348 H 1279.1 -5.98598 -0.424358 0
M  V30 13349 H 1280.17 -4.83301 0.393434 0
M  V30 13350 N 1281.51 0.0200419 -1.57587 0
M  V30 13351 C 1282.75 0.713765 -1.91533 0
M  V30 13352 C 1283.12 1.72035 -0.852516 0
M  V30 13353 O 1284.32 2.46299 -1.07658 0
M  V30 13354 C 1282.59 1.35786 -3.30601 0
M  V30 13355 S 1284.15 2.07948 -3.86397 0
M  V30 13356 H 1280.97 0.236249 -0.670602 0
M  V30 13357 H 1283.57 -0.0318313 -1.95474 0
M  V30 13358 H 1282.27 0.612147 -4.05809 0
M  V30 13359 H 1281.8 2.14181 -3.29985 0
M  V30 13360 H 1283.82 3.3521 -3.65853 0
M  V30 13361 N 1282.99 1.54862 0.292472 0
M  V30 13362 C 1284.22 1.78877 1.04966 0
M  V30 13363 C 1284.64 0.550724 1.79857 0
M  V30 13364 O 1284 -0.499054 1.74296 0
M  V30 13365 C 1284.05 3.00106 1.99922 0
M  V30 13366 O 1283.15 2.73827 3.0837 0
M  V30 13367 H 1282.49 0.591802 0.301108 0
M  V30 13368 H 1285.02 2.01965 0.3273 0
M  V30 13369 H 1285.03 3.28309 2.42233 0
M  V30 13370 H 1283.71 3.89872 1.44821 0
M  V30 13371 H 1282.28 2.56665 2.70513 0
M  V30 13372 N 1284.47 -0.556076 1.47464 0
M  V30 13373 C 1285.75 -1.31689 1.44628 0
M  V30 13374 C 1286.13 -2.10609 0.143841 0
M  V30 13375 O 1285.47 -2.11097 -0.874662 0
M  V30 13376 C 1285.68 -2.22045 2.69253 0
M  V30 13377 C 1287.03 -2.83028 3.16513 0
M  V30 13378 O 1288.06 -2.32346 2.69988 0
M  V30 13379 O 1286.91 -3.75148 3.97399 0
M  V30 13380 H 1284.01 -0.593026 0.576411 0
M  V30 13381 H 1286.55 -0.574885 1.59666 0
M  V30 13382 H 1285.33 -1.63337 3.5558 0
M  V30 13383 H 1284.95 -3.03539 2.56807 0
M  V30 13384 N 1285.95 -1.35615 -0.802897 0
M  V30 13385 C 1287.2 -1.28428 -1.55528 0
M  V30 13386 C 1287.51 0.138275 -1.95111 0
M  V30 13387 O 1288.72 0.332435 -2.69457 0
M  V30 13388 C 1287.17 -2.25251 -2.80696 0
M  V30 13389 C 1286.78 -3.72871 -2.48336 0
M  V30 13390 C 1288.52 -2.27014 -3.58699 0
M  V30 13391 C 1286.43 -4.61507 -3.69817 0
M  V30 13392 H 1285.36 -0.47718 -0.583794 0
M  V30 13393 H 1288.01 -1.609 -0.882238 0
M  V30 13394 H 1286.39 -1.85755 -3.4973 0
M  V30 13395 H 1287.57 -4.21024 -1.87285 0
M  V30 13396 H 1285.88 -3.73752 -1.83571 0
M  V30 13397 H 1288.48 -2.90451 -4.48935 0
M  V30 13398 H 1288.82 -1.27491 -3.96298 0
M  V30 13399 H 1289.36 -2.65058 -2.9663 0
M  V30 13400 H 1286.09 -5.62043 -3.37324 0
M  V30 13401 H 1285.61 -4.18079 -4.30081 0
M  V30 13402 H 1287.29 -4.77113 -4.37004 0
M  V30 13403 N 1287.43 1.02549 -1.19673 0
M  V30 13404 C 1288.7 1.73106 -0.9107 0
M  V30 13405 C 1289.08 2.02897 0.582769 0
M  V30 13406 O 1288.43 1.68633 1.54192 0
M  V30 13407 C 1288.64 3.00535 -1.77425 0
M  V30 13408 C 1289.99 3.73976 -2.01065 0
M  V30 13409 O 1291.01 3.1047 -1.74605 0
M  V30 13410 O 1289.87 4.88153 -2.457 0
M  V30 13411 H 1286.97 0.754006 -0.339711 0
M  V30 13412 H 1289.51 1.08477 -1.30502 0
M  V30 13413 H 1288.28 2.74773 -2.78595 0
M  V30 13414 H 1287.91 3.72904 -1.37943 0
M  V30 13415 N 1288.9 1.00119 1.21713 0
M  V30 13416 C 1289.81 0.567582 2.27631 0
M  V30 13417 C 1290.83 -0.387593 1.69628 0
M  V30 13418 O 1292.01 -0.252372 1.99813 0
M  V30 13419 C 1289.07 -0.102745 3.46548 0
M  V30 13420 C 1288.13 0.896433 4.19836 0
M  V30 13421 C 1287.36 0.258 5.33076 0
M  V30 13422 O 1287.59 -0.946118 5.62499 0
M  V30 13423 O 1286.52 0.967021 5.94081 0
M  V30 13424 H 1290.35 1.44898 2.66905 0
M  V30 13425 H 1287.93 0.769862 1.28037 0
M  V30 13426 H 1289.81 -0.477846 4.18682 0
M  V30 13427 H 1288.49 -0.958576 3.09181 0
M  V30 13428 H 1287.4 1.32262 3.49939 0
M  V30 13429 H 1288.73 1.72173 4.61104 0
M  V30 13430 N 1290.38 -1.37203 0.775435 0
M  V30 13431 C 1291.62 -2.01439 0.346649 0
M  V30 13432 C 1291.99 -1.60223 -1.05795 0
M  V30 13433 O 1293.19 -2.16947 -1.58706 0
M  V30 13434 C 1291.46 -3.54031 0.489584 0
M  V30 13435 S 1293.02 -4.38555 0.146606 0
M  V30 13436 H 1289.83 -0.698417 0.133173 0
M  V30 13437 H 1292.44 -1.67338 1.01086 0
M  V30 13438 H 1291.14 -3.81516 1.51241 0
M  V30 13439 H 1290.67 -3.92936 -0.19105 0
M  V30 13440 H 1292.69 -4.8482 -1.05661 0
M  V30 13441 N 1291.86 -0.526279 -1.48553 0
M  V30 13442 C 1292.77 0.24244 -2.33344 0
M  V30 13443 C 1293.79 0.942658 -1.46253 0
M  V30 13444 O 1294.96 0.91844 -1.79239 0
M  V30 13445 C 1292.03 1.27801 -3.22285 0
M  V30 13446 C 1291.09 0.588543 -4.25247 0
M  V30 13447 C 1290.32 1.57478 -5.09938 0
M  V30 13448 O 1290.54 2.80707 -4.96548 0
M  V30 13449 O 1289.48 1.11621 -5.9146 0
M  V30 13450 H 1293.3 -0.452262 -3.00314 0
M  V30 13451 H 1290.89 -0.287249 -1.46613 0
M  V30 13452 H 1292.77 1.87656 -3.7731 0
M  V30 13453 H 1291.45 1.95519 -2.57981 0
M  V30 13454 H 1290.35 -0.0504022 -3.74066 0
M  V30 13455 H 1291.69 -0.046627 -4.92178 0
M  V30 13456 N 1293.34 1.5542 -0.261239 0
M  V30 13457 C 1294.27 2.18043 0.673222 0
M  V30 13458 C 1295.25 1.13696 1.16242 0
M  V30 13459 O 1296.43 1.42153 1.23793 0
M  V30 13460 C 1293.56 2.7926 1.91655 0
M  V30 13461 C 1292.61 3.96788 1.56402 0
M  V30 13462 S 1293.44 5.31489 0.654191 0
M  V30 13463 C 1294.59 5.96167 1.9062 0
M  V30 13464 H 1294.83 2.96965 0.141076 0
M  V30 13465 H 1292.36 1.54333 -0.0455871 0
M  V30 13466 H 1294.32 3.15162 2.63026 0
M  V30 13467 H 1292.98 2.00257 2.41983 0
M  V30 13468 H 1292.17 4.38262 2.48882 0
M  V30 13469 H 1291.77 3.62237 0.930618 0
M  V30 13470 H 1294.07 6.14556 2.8518 0
M  V30 13471 H 1295.01 6.91269 1.53471 0
M  V30 13472 H 1295.42 5.25381 2.06483 0
M  V30 13473 N 1294.82 -0.0116844 1.57596 0
M  V30 13474 C 1296.06 -0.697577 1.89679 0
M  V30 13475 C 1296.38 -1.74956 0.861122 0
M  V30 13476 O 1295.65 -1.95629 -0.103031 0
M  V30 13477 H 1294.23 -0.26064 0.700054 0
M  V30 13478 H 1296.9 0.0264782 1.94882 0
M  V30 13479 H 1295.99 -1.17621 2.89088 0
M  V30 13480 N 1296.29 -1.55015 -0.284256 0
M  V30 13481 C 1297.54 -1.7535 -1.01884 0
M  V30 13482 C 1297.87 -0.546825 -1.86342 0
M  V30 13483 O 1297.15 0.455832 -1.89083 0
M  V30 13484 C 1297.43 -3.05219 -1.91084 0
M  V30 13485 C 1297.28 -4.36219 -1.09694 0
M  V30 13486 C 1298.6 -3.31056 -2.89983 0
M  V30 13487 H 1295.72 -0.637981 -0.368984 0
M  V30 13488 H 1298.36 -1.87741 -0.292116 0
M  V30 13489 H 1296.51 -2.94786 -2.53048 0
M  V30 13490 H 1298.19 -4.58594 -0.498876 0
M  V30 13491 H 1296.43 -4.31951 -0.400078 0
M  V30 13492 H 1297.1 -5.23392 -1.75399 0
M  V30 13493 H 1299.58 -3.41209 -2.38151 0
M  V30 13494 H 1298.45 -4.23212 -3.49547 0
M  V30 13495 H 1298.71 -2.50153 -3.64521 0
M  V30 13496 N 1297.77 0.548248 -1.47757 0
M  V30 13497 C 1299.18 1.13033 -1.48595 0
M  V30 13498 C 1299.53 1.94657 -0.245575 0
M  V30 13499 O 1298.66 2.06445 0.648813 0
M  V30 13500 C 1299.25 2.05657 -2.69241 0
M  V30 13501 C 1297.81 2.59119 -2.73009 0
M  V30 13502 C 1296.96 1.35686 -2.41836 0
M  V30 13503 H 1299.91 0.334397 -1.55137 0
M  V30 13504 H 1299.93 2.89671 -2.4672 0
M  V30 13505 H 1299.44 1.46222 -3.595 0
M  V30 13506 H 1297.54 3.22327 -1.86912 0
M  V30 13507 H 1297.66 2.99501 -3.73946 0
M  V30 13508 H 1296.02 1.66659 -1.92606 0
M  V30 13509 H 1296.8 0.780311 -3.34314 0
M  V30 13510 N 1299.25 1.36039 0.795694 0
M  V30 13511 C 1300.5 1.30112 1.5556 0
M  V30 13512 C 1300.83 -0.121197 1.93821 0
M  V30 13513 O 1300.1 -1.07313 1.62216 0
M  V30 13514 C 1300.39 2.21792 2.8369 0
M  V30 13515 C 1300.24 3.72691 2.51836 0
M  V30 13516 C 1301.56 2.12365 3.85472 0
M  V30 13517 H 1298.68 0.473971 0.564376 0
M  V30 13518 H 1301.32 1.66536 0.91465 0
M  V30 13519 H 1299.47 1.9086 3.38386 0
M  V30 13520 H 1301.14 4.14115 2.0324 0
M  V30 13521 H 1299.38 3.92436 1.84869 0
M  V30 13522 H 1300.06 4.32242 3.43323 0
M  V30 13523 H 1302.53 2.3958 3.40207 0
M  V30 13524 H 1301.41 2.78695 4.72885 0
M  V30 13525 H 1301.67 1.10898 4.27965 0
M  V30 13526 N 1300.73 -1.01913 1.20215 0
M  V30 13527 C 1301.97 -1.77015 1.02202 0
M  V30 13528 C 1302.33 -1.86927 -0.43845 0
M  V30 13529 O 1303.53 -2.58451 -0.73869 0
M  V30 13530 C 1301.8 -3.15244 1.68393 0
M  V30 13531 S 1303.36 -4.06414 1.65449 0
M  V30 13532 H 1300.18 -0.609242 0.366531 0
M  V30 13533 H 1302.78 -1.22044 1.52727 0
M  V30 13534 H 1301.49 -3.05653 2.73869 0
M  V30 13535 H 1301.02 -3.7529 1.17988 0
M  V30 13536 H 1303.03 -4.91441 0.685571 0
M  V30 13537 N 1302.21 -1.00763 -1.2118 0
M  V30 13538 C 1303.62 -0.724746 -1.72059 0
M  V30 13539 C 1303.97 0.757413 -1.80991 0
M  V30 13540 O 1303.09 1.59152 -1.46627 0
M  V30 13541 C 1303.69 -1.30893 -3.12494 0
M  V30 13542 C 1302.25 -1.07511 -3.60719 0
M  V30 13543 C 1301.39 -1.42014 -2.38175 0
M  V30 13544 H 1304.35 -1.17821 -1.0632 0
M  V30 13545 H 1304.37 -0.694919 -3.741 0
M  V30 13546 H 1303.88 -2.38767 -3.05961 0
M  V30 13547 H 1301.98 -0.0136518 -3.72597 0
M  V30 13548 H 1302.09 -1.74885 -4.4604 0
M  V30 13549 H 1300.46 -0.838972 -2.40486 0
M  V30 13550 H 1301.24 -2.50924 -2.34291 0
M  V30 13551 N 1303.68 1.3679 -0.7827 0
M  V30 13552 C 1305.1 1.82006 -0.41603 0
M  V30 13553 C 1305.45 1.65151 1.05922 0
M  V30 13554 O 1304.57 1.1687 1.82127 0
M  V30 13555 C 1305.17 3.30432 -0.748353 0
M  V30 13556 C 1303.73 3.73883 -0.4346 0
M  V30 13557 C 1302.87 2.59159 -0.986505 0
M  V30 13558 H 1305.82 1.25107 -0.976423 0
M  V30 13559 H 1305.84 3.80482 -0.036985 0
M  V30 13560 H 1305.36 3.42667 -1.82212 0
M  V30 13561 H 1303.46 3.67211 0.631401 0
M  V30 13562 H 1303.57 4.69577 -0.950511 0
M  V30 13563 H 1301.93 2.51377 -0.410108 0
M  V30 13564 H 1302.72 2.74182 -2.06589 0
M  V30 13565 N 1305.16 0.53415 1.48272 0
M  V30 13566 C 1306.13 -0.215641 2.28183 0
M  V30 13567 C 1307.13 -0.863966 1.35618 0
M  V30 13568 O 1308.32 -0.723375 1.58471 0
M  V30 13569 C 1305.45 -1.31251 3.1462 0
M  V30 13570 H 1306.64 0.486014 2.95936 0
M  V30 13571 H 1304.19 0.290237 1.53582 0
M  V30 13572 H 1304.93 -2.04729 2.51508 0
M  V30 13573 H 1304.71 -0.852706 3.82716 0
M  V30 13574 H 1306.2 -1.83978 3.74889 0
M  V30 13575 N 1306.64 -1.55279 0.269478 0
M  V30 13576 C 1307.87 -2.04334 -0.355313 0
M  V30 13577 C 1308.29 -1.14677 -1.491 0
M  V30 13578 O 1307.65 -0.144215 -1.80726 0
M  V30 13579 C 1307.7 -3.51172 -0.819162 0
M  V30 13580 O 1306.8 -3.64615 -1.9269 0
M  V30 13581 H 1306.14 -0.659827 -0.0743229 0
M  V30 13582 H 1308.67 -2.00609 0.402131 0
M  V30 13583 H 1308.68 -3.92428 -1.11642 0
M  V30 13584 H 1307.36 -4.15898 0.0117821 0
M  V30 13585 H 1305.93 -3.35261 -1.63261 0
M  V30 13586 N 1308.12 0.00332656 -1.576 0
M  V30 13587 C 1309.34 0.703587 -1.95101 0
M  V30 13588 C 1309.77 1.66697 -0.871418 0
M  V30 13589 O 1309.13 1.80494 0.170739 0
M  V30 13590 C 1309.17 1.41457 -3.31696 0
M  V30 13591 O 1308.28 2.52885 -3.25765 0
M  V30 13592 H 1307.62 0.187396 -0.637008 0
M  V30 13593 H 1310.15 -0.0488727 -2.04542 0
M  V30 13594 H 1310.16 1.77874 -3.67185 0
M  V30 13595 H 1308.83 0.708182 -4.09826 0
M  V30 13596 H 1307.41 2.18821 -3.01947 0
M  V30 13597 N 1309.6 1.55164 0.276031 0
M  V30 13598 C 1310.54 1.87836 1.34113 0
M  V30 13599 C 1311.51 0.729562 1.4922 0
M  V30 13600 O 1312.7 0.980549 1.63676 0
M  V30 13601 C 1309.84 2.15313 2.69693 0
M  V30 13602 C 1308.95 3.42845 2.62833 0
M  V30 13603 C 1308.09 3.60038 3.90572 0
M  V30 13604 C 1307.13 4.81273 3.7821 0
M  V30 13605 N 1306.26 4.95139 4.97777 0
M  V30 13606 H 1311.1 2.78681 1.0555 0
M  V30 13607 H 1308.64 1.37976 0.510001 0
M  V30 13608 H 1310.6 2.29243 3.48573 0
M  V30 13609 H 1309.23 1.27706 2.96464 0
M  V30 13610 H 1308.28 3.37403 1.75679 0
M  V30 13611 H 1309.59 4.3186 2.49597 0
M  V30 13612 H 1308.75 3.73769 4.77893 0
M  V30 13613 H 1307.48 2.69203 4.06671 0
M  V30 13614 H 1306.49 4.67549 2.89271 0
M  V30 13615 H 1307.71 5.7354 3.63632 0
M  V30 13616 H 1305.66 4.07234 5.14292 0
M  V30 13617 H 1305.58 5.78194 4.8706 0
M  V30 13618 H 1306.85 5.13253 5.86679 0
M  V30 13619 N 1311.07 -0.540404 1.48045 0
M  V30 13620 C 1312.31 -1.30737 1.57121 0
M  V30 13621 C 1312.68 -1.90554 0.23518 0
M  V30 13622 O 1313.88 -2.68048 0.20087 0
M  V30 13623 C 1312.15 -2.37539 2.6704 0
M  V30 13624 S 1313.71 -3.241 2.95812 0
M  V30 13625 H 1310.53 -0.444856 0.554639 0
M  V30 13626 H 1313.13 -0.61683 1.85514 0
M  V30 13627 H 1311.83 -1.92057 3.62688 0
M  V30 13628 H 1311.36 -3.11313 2.40515 0
M  V30 13629 H 1313.38 -4.37393 2.34311 0
M  V30 13630 N 1312.55 -1.36459 -0.788468 0
M  V30 13631 C 1313.8 -1.3007 -1.54158 0
M  V30 13632 C 1314.11 0.117574 -1.95246 0
M  V30 13633 O 1315.32 0.303837 -2.69795 0
M  V30 13634 C 1313.78 -2.28216 -2.78291 0
M  V30 13635 C 1313.38 -3.75484 -2.44368 0
M  V30 13636 C 1315.13 -2.30806 -3.56271 0
M  V30 13637 C 1313.04 -4.65404 -3.64902 0
M  V30 13638 H 1311.97 -0.483345 -0.5787 0
M  V30 13639 H 1314.62 -1.61827 -0.865123 0
M  V30 13640 H 1313 -1.89454 -3.4774 0
M  V30 13641 H 1314.17 -4.22986 -1.82809 0
M  V30 13642 H 1312.49 -3.75678 -1.79597 0
M  V30 13643 H 1315.08 -2.95196 -4.45829 0
M  V30 13644 H 1315.43 -1.31687 -3.94923 0
M  V30 13645 H 1315.96 -2.68189 -2.93802 0
M  V30 13646 H 1312.7 -5.65589 -3.31344 0
M  V30 13647 H 1312.22 -4.22617 -4.25623 0
M  V30 13648 H 1313.9 -4.81721 -4.31919 0
M  V30 13649 N 1314.03 1.01274 -1.20754 0
M  V30 13650 C 1314.98 2.12012 -0.95675 0
M  V30 13651 C 1315.97 1.69143 0.0932738 0
M  V30 13652 O 1317.18 1.79908 -0.0574298 0
M  V30 13653 H 1313.55 0.692956 -0.292088 0
M  V30 13654 H 1315.52 2.30347 -1.89692 0
M  V30 13655 C 1314.27 3.43643 -0.529602 0
M  V30 13656 H 1313.6 3.77058 -1.32918 0
M  V30 13657 H 1315.04 4.22171 -0.393376 0
M  V30 13658 C 1313.5 3.2825 0.758505 0
M  V30 13659 O 1314.03 3.58309 1.81598 0
M  V30 13660 N 1312.23 2.81487 0.722022 0
M  V30 13661 H 1311.78 2.57226 -0.138807 0
M  V30 13662 H 1311.74 2.7157 1.58421 0
M  V30 13663 N 1315.51 1.01404 1.20644 0
M  V30 13664 C 1316.74 0.72104 1.93929 0
M  V30 13665 C 1317.15 -0.717853 1.7462 0
M  V30 13666 O 1316.51 -1.48664 1.05855 0
M  V30 13667 C 1316.56 1.04399 3.46097 0
M  V30 13668 O 1316.28 2.42637 3.64773 0
M  V30 13669 C 1317.78 0.771678 4.36532 0
M  V30 13670 H 1315 0.264983 0.616462 0
M  V30 13671 H 1317.55 1.35453 1.53208 0
M  V30 13672 H 1315.7 0.455946 3.84708 0
M  V30 13673 H 1316.12 2.54201 4.58783 0
M  V30 13674 H 1317.59 1.04774 5.41965 0
M  V30 13675 H 1318.07 -0.294188 4.38214 0
M  V30 13676 H 1318.67 1.34176 4.0358 0
M  V30 13677 N 1316.99 -1.36373 0.789944 0
M  V30 13678 C 1317.9 -2.3383 0.189873 0
M  V30 13679 C 1318.91 -1.61068 -0.65827 0
M  V30 13680 O 1320.09 -1.93049 -0.573932 0
M  V30 13681 C 1317.15 -3.40264 -0.664905 0
M  V30 13682 C 1316.22 -4.28825 0.201798 0
M  V30 13683 C 1315.45 -5.30176 -0.612278 0
M  V30 13684 O 1315.67 -5.39627 -1.84821 0
M  V30 13685 O 1314.61 -6.01899 -0.0118964 0
M  V30 13686 H 1318.43 -2.86915 0.995671 0
M  V30 13687 H 1316.02 -1.38852 0.551412 0
M  V30 13688 H 1317.9 -4.05339 -1.15231 0
M  V30 13689 H 1316.57 -2.89478 -1.44858 0
M  V30 13690 H 1315.48 -3.66789 0.735974 0
M  V30 13691 H 1316.81 -4.82965 0.949003 0
M  V30 13692 N 1318.47 -0.542005 -1.47987 0
M  V30 13693 C 1319.71 -0.0122873 -2.02096 0
M  V30 13694 C 1320.03 1.3362 -1.42024 0
M  V30 13695 O 1319.3 1.86807 -0.589911 0
M  V30 13696 H 1317.88 -0.00155365 -0.746998 0
M  V30 13697 H 1320.55 -0.708566 -1.81564 0
M  V30 13698 H 1319.64 0.0871275 -3.11978 0
M  V30 13699 N 1319.94 1.55134 -0.277709 0
M  V30 13700 C 1321.19 1.99259 0.337662 0
M  V30 13701 C 1321.51 1.16755 1.56183 0
M  V30 13702 O 1320.78 0.257707 1.94198 0
M  V30 13703 H 1319.36 0.735995 0.127751 0
M  V30 13704 H 1322.02 1.91087 -0.383646 0
M  V30 13705 H 1321.12 3.05763 0.625747 0
M  V30 13706 N 1321.42 0.00503138 1.57599 0
M  V30 13707 C 1322.65 -0.688609 1.94786 0
M  V30 13708 C 1323.06 -1.67558 0.878698 0
M  V30 13709 O 1322.4 -1.83083 -0.150486 0
M  V30 13710 C 1322.46 -1.47183 3.2799 0
M  V30 13711 C 1322.13 -0.64589 4.52413 0
M  V30 13712 C 1323.13 0.0685859 5.19855 0
M  V30 13713 C 1320.81 -0.590379 4.98818 0
M  V30 13714 C 1322.8 0.827505 6.32006 0
M  V30 13715 C 1320.49 0.172262 6.10857 0
M  V30 13716 C 1321.49 0.879932 6.77308 0
M  V30 13717 O 1321.18 1.63012 7.87199 0
M  V30 13718 H 1320.91 -0.196416 0.646836 0
M  V30 13719 H 1323.46 0.0537933 2.0533 0
M  V30 13720 H 1321.69 -2.25883 3.13869 0
M  V30 13721 H 1323.38 -2.05129 3.50253 0
M  V30 13722 H 1324.15 0.0348834 4.84987 0
M  V30 13723 H 1320.03 -1.13074 4.46918 0
M  V30 13724 H 1323.57 1.3804 6.83806 0
M  V30 13725 H 1319.47 0.207767 6.45166 0
M  V30 13726 H 1320.24 1.54736 8.03741 0
M  V30 13727 N 1322.9 -1.55308 -0.267798 0
M  V30 13728 C 1324.15 -1.7642 -1.00019 0
M  V30 13729 C 1324.48 -0.566559 -1.85752 0
M  V30 13730 O 1323.75 0.435752 -1.89556 0
M  V30 13731 C 1324.04 -3.07229 -1.87836 0
M  V30 13732 C 1323.89 -4.37358 -1.05061 0
M  V30 13733 C 1325.21 -3.34113 -2.86455 0
M  V30 13734 H 1322.33 -0.641859 -0.362197 0
M  V30 13735 H 1324.97 -1.8804 -0.272188 0
M  V30 13736 H 1323.12 -2.97454 -2.49907 0
M  V30 13737 H 1324.79 -4.59098 -0.450208 0
M  V30 13738 H 1323.03 -4.32351 -0.354242 0
M  V30 13739 H 1323.71 -5.25223 -1.69838 0
M  V30 13740 H 1326.18 -3.43715 -2.34519 0
M  V30 13741 H 1325.06 -4.26896 -3.45038 0
M  V30 13742 H 1325.32 -2.54005 -3.61848 0
M  V30 13743 N 1324.38 0.532545 -1.4833 0
M  V30 13744 C 1325.62 1.29902 -1.57812 0
M  V30 13745 C 1325.98 1.90427 -0.245283 0
M  V30 13746 O 1327.18 2.67938 -0.215083 0
M  V30 13747 C 1325.45 2.36119 -2.68296 0
M  V30 13748 S 1327.01 3.22526 -2.97527 0
M  V30 13749 H 1323.83 0.441908 -0.55699 0
M  V30 13750 H 1326.43 0.606983 -1.85839 0
M  V30 13751 H 1325.14 1.90131 -3.63701 0
M  V30 13752 H 1324.67 3.10033 -2.42163 0
M  V30 13753 H 1326.68 4.36144 -2.36628 0
M  V30 13754 N 1325.86 1.36875 0.78122 0
M  V30 13755 C 1327.27 1.17467 1.08044 0
M  V30 13756 C 1327.47 0.00434799 2.015 0
M  V30 13757 O 1326.53 -0.658499 2.43762 0
M  V30 13758 C 1327.84 2.48917 1.68704 0
M  V30 13759 C 1329.39 2.55354 1.81007 0
M  V30 13760 C 1329.86 3.8691 2.45081 0
M  V30 13761 N 1331.35 3.88301 2.52541 0
M  V30 13762 C 1332.09 4.86837 3.02947 0
M  V30 13763 N 1331.59 5.95768 3.53598 0
M  V30 13764 N 1333.38 4.74249 3.01735 0
M  V30 13765 H 1325.53 2.11793 0.160503 0
M  V30 13766 H 1327.79 0.938507 0.133825 0
M  V30 13767 H 1327.5 3.34867 1.07503 0
M  V30 13768 H 1327.37 2.65319 2.68115 0
M  V30 13769 H 1329.76 1.69816 2.41343 0
M  V30 13770 H 1329.84 2.42843 0.803783 0
M  V30 13771 H 1329.48 4.72858 1.85386 0
M  V30 13772 H 1329.41 3.9672 3.46296 0
M  V30 13773 H 1331.91 3.09607 2.16684 0
M  V30 13774 H 1332.22 6.66918 3.90435 0
M  V30 13775 H 1330.56 5.99426 3.51728 0
M  V30 13776 H 1333.75 3.88275 2.61458 0
M  V30 13777 H 1333.93 5.512 3.40709 0
M  V30 13778 N 1327.33 -1.00632 1.21289 0
M  V30 13779 C 1328.57 -1.75921 1.04073 0
M  V30 13780 C 1328.94 -1.87381 -0.4186 0
M  V30 13781 O 1330.14 -2.5922 -0.711236 0
M  V30 13782 C 1328.41 -3.1344 1.71727 0
M  V30 13783 S 1329.97 -4.04636 1.6975 0
M  V30 13784 H 1326.79 -0.605321 0.372972 0
M  V30 13785 H 1329.39 -1.20417 1.54013 0
M  V30 13786 H 1328.09 -3.02731 2.77096 0
M  V30 13787 H 1327.62 -3.74017 1.21962 0
M  V30 13788 H 1329.64 -4.90686 0.737656 0
M  V30 13789 N 1328.81 -1.02043 -1.20104 0
M  V30 13790 C 1330.04 -0.731142 -1.94085 0
M  V30 13791 C 1330.46 0.702467 -1.74491 0
M  V30 13792 O 1329.82 1.48387 -1.04168 0
M  V30 13793 C 1329.87 -1.07691 -3.44144 0
M  V30 13794 O 1328.97 -0.190751 -4.11959 0
M  V30 13795 H 1328.31 -0.270917 -0.606218 0
M  V30 13796 H 1330.84 -1.36483 -1.52426 0
M  V30 13797 H 1330.85 -1.03023 -3.94779 0
M  V30 13798 H 1329.53 -2.1214 -3.57728 0
M  V30 13799 H 1328.1 -0.29529 -3.71729 0
M  V30 13800 N 1330.29 1.35952 -0.797165 0
M  V30 13801 C 1331.2 2.33726 -0.202271 0
M  V30 13802 C 1332.22 1.61415 0.649719 0
M  V30 13803 O 1333.39 1.93351 0.563686 0
M  V30 13804 C 1330.46 3.40612 0.64685 0
M  V30 13805 C 1329.52 4.28712 -0.224536 0
M  V30 13806 C 1328.75 5.30493 0.584153 0
M  V30 13807 O 1328.97 5.40599 1.81957 0
M  V30 13808 O 1327.91 6.01897 -0.0200239 0
M  V30 13809 H 1331.73 2.86383 -1.01087 0
M  V30 13810 H 1329.32 1.38557 -0.558768 0
M  V30 13811 H 1331.2 4.05944 1.1308 0
M  V30 13812 H 1329.88 2.90243 1.43321 0
M  V30 13813 H 1328.78 3.66394 -0.755415 0
M  V30 13814 H 1330.12 4.82454 -0.974603 0
M  V30 13815 N 1331.77 0.549846 1.47697 0
M  V30 13816 C 1333.02 0.0230048 2.02087 0
M  V30 13817 C 1333.34 -1.32865 1.4273 0
M  V30 13818 O 1332.61 -1.86492 0.59981 0
M  V30 13819 H 1331.19 0.00551514 0.74698 0
M  V30 13820 H 1333.85 0.718185 1.81185 0
M  V30 13821 H 1332.95 -0.0705813 3.1202 0
M  V30 13822 N 1333.25 -1.54984 0.285932 0
M  V30 13823 C 1334.48 -2.03943 -0.330295 0
M  V30 13824 C 1334.88 -1.16336 -1.49207 0
M  V30 13825 O 1334.23 -0.178341 -1.82832 0
M  V30 13826 C 1334.29 -3.48976 -0.863479 0
M  V30 13827 C 1333.95 -4.5668 0.171058 0
M  V30 13828 C 1334.95 -5.10303 0.994329 0
M  V30 13829 C 1332.64 -5.01352 0.308416 0
M  V30 13830 C 1334.63 -6.07126 1.94104 0
M  V30 13831 C 1332.32 -5.97999 1.25859 0
M  V30 13832 C 1333.31 -6.50768 2.0734 0
M  V30 13833 O 1333 -7.45524 3.00749 0
M  V30 13834 H 1332.73 -0.671491 -0.0779452 0
M  V30 13835 H 1335.29 -2.01081 0.419011 0
M  V30 13836 H 1333.52 -3.49113 -1.66305 0
M  V30 13837 H 1335.21 -3.81213 -1.39396 0
M  V30 13838 H 1335.97 -4.76595 0.899002 0
M  V30 13839 H 1331.85 -4.59917 -0.315817 0
M  V30 13840 H 1335.4 -6.48239 2.57743 0
M  V30 13841 H 1331.29 -6.31125 1.35469 0
M  V30 13842 H 1332.06 -7.63276 2.95554 0
M  V30 13843 N 1334.72 -0.0133892 -1.57594 0
M  V30 13844 C 1335.66 1.00211 -2.06132 0
M  V30 13845 C 1336.67 1.29869 -0.98173 0
M  V30 13846 O 1337.86 1.2661 -1.25826 0
M  V30 13847 C 1334.96 2.33354 -2.45763 0
M  V30 13848 C 1334.13 2.22441 -3.76615 0
M  V30 13849 C 1333.19 3.38385 -4.02967 0
M  V30 13850 O 1332.22 3.15973 -4.73445 0
M  V30 13851 N 1333.42 4.61672 -3.51908 0
M  V30 13852 H 1336.18 0.588079 -2.93874 0
M  V30 13853 H 1333.74 0.173714 -1.60965 0
M  V30 13854 H 1335.74 3.09716 -2.60496 0
M  V30 13855 H 1334.31 2.66451 -1.6347 0
M  V30 13856 H 1333.53 1.30905 -3.7183 0
M  V30 13857 H 1334.81 2.12337 -4.62375 0
M  V30 13858 H 1334.21 4.82777 -2.9486 0
M  V30 13859 H 1332.77 5.35256 -3.71947 0
M  V30 13860 N 1336.2 1.55448 0.259558 0
M  V30 13861 C 1337.45 1.76337 0.987396 0
M  V30 13862 C 1337.77 0.57505 1.86328 0
M  V30 13863 O 1337.04 -0.409621 1.9157 0
M  V30 13864 H 1335.62 0.650312 0.367565 0
M  V30 13865 H 1338.28 1.9287 0.280551 0
M  V30 13866 H 1337.38 2.66975 1.61651 0
M  V30 13867 N 1337.68 -0.524672 1.4861 0
M  V30 13868 C 1338.96 -1.28592 1.47389 0
M  V30 13869 C 1339.34 -2.10257 0.188482 0
M  V30 13870 O 1338.69 -2.12905 -0.829689 0
M  V30 13871 C 1338.9 -2.16284 2.73902 0
M  V30 13872 C 1340.24 -2.7625 3.22445 0
M  V30 13873 O 1341.27 -2.26567 2.74856 0
M  V30 13874 O 1340.13 -3.66635 4.05267 0
M  V30 13875 H 1337.22 -0.580666 0.58886 0
M  V30 13876 H 1339.77 -0.540888 1.60849 0
M  V30 13877 H 1338.54 -1.55757 3.58964 0
M  V30 13878 H 1338.16 -2.98024 2.63188 0
M  V30 13879 N 1339.16 -1.37287 -0.77395 0
M  V30 13880 C 1340.41 -1.32112 -1.5294 0
M  V30 13881 C 1340.73 0.0946137 -1.9477 0
M  V30 13882 O 1340 1.03817 -1.66129 0
M  V30 13883 H 1338.58 -0.486047 -0.567245 0
M  V30 13884 H 1341.24 -1.71752 -0.921263 0
M  V30 13885 H 1340.34 -1.95873 -2.42982 0
M  V30 13886 N 1340.64 0.999871 -1.21821 0
M  V30 13887 C 1341.89 1.73257 -1.03271 0
M  V30 13888 C 1342.2 1.90736 0.433502 0
M  V30 13889 O 1343.4 2.61263 0.738511 0
M  V30 13890 C 1341.86 3.11697 -1.79925 0
M  V30 13891 C 1341.47 3.02173 -3.3075 0
M  V30 13892 C 1343.21 3.89061 -1.698 0
M  V30 13893 C 1341.12 4.35725 -3.99872 0
M  V30 13894 H 1340.05 0.649595 -0.382809 0
M  V30 13895 H 1342.7 1.11676 -1.45605 0
M  V30 13896 H 1341.08 3.73919 -1.30386 0
M  V30 13897 H 1342.26 2.49158 -3.8763 0
M  V30 13898 H 1340.57 2.38296 -3.41473 0
M  V30 13899 H 1343.17 4.87897 -2.1877 0
M  V30 13900 H 1343.51 4.11081 -0.657148 0
M  V30 13901 H 1344.04 3.33502 -2.16844 0
M  V30 13902 H 1340.78 4.18906 -5.04181 0
M  V30 13903 H 1340.3 4.8868 -3.47781 0
M  V30 13904 H 1341.98 5.04503 -4.05075 0
M  V30 13905 N 1342.11 1.02678 1.19562 0
M  V30 13906 C 1343.06 0.576385 2.20594 0
M  V30 13907 C 1344.05 -0.373747 1.56499 0
M  V30 13908 O 1345.24 -0.195058 1.75922 0
M  V30 13909 C 1342.37 -0.0735507 3.43221 0
M  V30 13910 C 1341.46 0.898896 4.14464 0
M  V30 13911 N 1341.85 2.06048 4.61928 0
M  V30 13912 C 1340.14 0.721889 4.40119 0
M  V30 13913 C 1340.85 2.67364 5.16615 0
M  V30 13914 N 1339.82 1.95344 5.07289 0
M  V30 13915 H 1343.62 1.46179 2.54968 0
M  V30 13916 H 1341.14 0.893484 1.35612 0
M  V30 13917 H 1343.13 -0.413825 4.14841 0
M  V30 13918 H 1341.79 -0.954671 3.10348 0
M  V30 13919 H 1342.81 2.43999 4.5682 0
M  V30 13920 H 1339.48 -0.110317 4.17354 0
M  V30 13921 H 1340.87 3.65726 5.63644 0
M  V30 13922 N 1343.59 -1.35528 0.804364 0
M  V30 13923 C 1344.83 -2.00658 0.389299 0
M  V30 13924 C 1345.2 -1.62431 -1.02373 0
M  V30 13925 O 1346.4 -2.20264 -1.54068 0
M  V30 13926 C 1344.67 -3.52913 0.564569 0
M  V30 13927 S 1346.23 -4.38145 0.239597 0
M  V30 13928 H 1343.05 -0.695435 0.147958 0
M  V30 13929 H 1345.65 -1.65156 1.04613 0
M  V30 13930 H 1344.35 -3.78222 1.59299 0
M  V30 13931 H 1343.88 -3.93253 -0.10766 0
M  V30 13932 H 1345.9 -4.86952 -0.953533 0
M  V30 13933 N 1345.07 -0.557671 -1.47404 0
M  V30 13934 C 1346 0.178019 -2.3282 0
M  V30 13935 C 1346.98 0.908318 -1.43818 0
M  V30 13936 O 1348.17 0.888693 -1.72673 0
M  V30 13937 C 1345.3 1.2082 -3.25607 0
M  V30 13938 C 1344.25 0.594335 -4.23853 0
M  V30 13939 C 1343.58 1.72919 -5.05968 0
M  V30 13940 C 1344.88 -0.452196 -5.20339 0
M  V30 13941 H 1346.57 -0.535091 -2.9458 0
M  V30 13942 H 1344.12 -0.258775 -1.41656 0
M  V30 13943 H 1346.07 1.73104 -3.84204 0
M  V30 13944 H 1344.79 1.95126 -2.61903 0
M  V30 13945 H 1343.45 0.0927898 -3.66483 0
M  V30 13946 H 1343.1 2.4613 -4.38668 0
M  V30 13947 H 1342.8 1.32422 -5.72484 0
M  V30 13948 H 1344.33 2.25527 -5.67424 0
M  V30 13949 H 1345.74 -0.0154011 -5.73298 0
M  V30 13950 H 1344.14 -0.776068 -5.95061 0
M  V30 13951 H 1345.21 -1.34791 -4.65789 0
M  V30 13952 N 1346.55 1.54831 -0.294147 0
M  V30 13953 C 1347.83 1.92071 0.369902 0
M  V30 13954 C 1348.21 1.22061 1.72233 0
M  V30 13955 O 1347.55 0.353975 2.25742 0
M  V30 13956 C 1347.76 3.45524 0.49135 0
M  V30 13957 C 1349.11 4.17644 0.765411 0
M  V30 13958 O 1350.14 3.51521 0.575428 0
M  V30 13959 O 1349 5.34692 1.12992 0
M  V30 13960 H 1346.09 0.801033 0.20561 0
M  V30 13961 H 1348.64 1.66224 -0.341702 0
M  V30 13962 H 1347.41 3.88591 -0.459663 0
M  V30 13963 H 1347.03 3.77384 1.25169 0
M  V30 13964 N 1348.03 0.0217466 1.57585 0
M  V30 13965 C 1349.28 -0.657793 1.90672 0
M  V30 13966 C 1349.59 -1.73713 0.899066 0
M  V30 13967 O 1350.8 -2.4728 1.12092 0
M  V30 13968 C 1349.25 -1.22124 3.38547 0
M  V30 13969 C 1348.86 -0.175575 4.47656 0
M  V30 13970 C 1350.6 -1.87771 3.80713 0
M  V30 13971 C 1348.51 -0.750239 5.86622 0
M  V30 13972 H 1347.44 -0.249459 0.711538 0
M  V30 13973 H 1350.09 0.0858449 1.83299 0
M  V30 13974 H 1348.47 -2.01625 3.40828 0
M  V30 13975 H 1349.65 0.596436 4.56924 0
M  V30 13976 H 1347.96 0.381715 4.14647 0
M  V30 13977 H 1350.56 -2.3171 4.81887 0
M  V30 13978 H 1350.9 -2.71737 3.1538 0
M  V30 13979 H 1351.44 -1.14971 3.80823 0
M  V30 13980 H 1348.17 0.0511222 6.5548 0
M  V30 13981 H 1347.69 -1.49091 5.80975 0
M  V30 13982 H 1349.37 -1.24225 6.34962 0
M  V30 13983 N 1349.51 -1.55583 -0.251311 0
M  V30 13984 C 1350.78 -1.67954 -1.00254 0
M  V30 13985 C 1351.16 -0.560326 -2.03528 0
M  V30 13986 O 1350.51 0.436811 -2.24286 0
M  V30 13987 C 1350.72 -3.08075 -1.63985 0
M  V30 13988 C 1352.07 -3.66531 -2.14336 0
M  V30 13989 O 1353.09 -3.10846 -1.73934 0
M  V30 13990 O 1351.95 -4.64141 -2.88506 0
M  V30 13991 H 1349.05 -0.682952 -0.466375 0
M  V30 13992 H 1351.59 -1.67916 -0.245447 0
M  V30 13993 H 1350.36 -3.80983 -0.892627 0
M  V30 13994 H 1349.99 -3.12105 -2.46325 0
M  V30 13995 N 1350.98 0.516783 -1.48886 0
M  V30 13996 C 1351.89 1.6467 -1.67095 0
M  V30 13997 C 1352.91 1.64963 -0.553466 0
M  V30 13998 O 1354.09 1.83673 -0.826206 0
M  V30 13999 C 1351.15 3.01095 -1.71879 0
M  V30 14000 C 1350.21 3.11554 -2.95352 0
M  V30 14001 C 1349.44 4.41471 -2.99898 0
M  V30 14002 O 1349.67 5.29348 -2.12477 0
M  V30 14003 O 1348.6 4.56573 -3.92205 0
M  V30 14004 H 1352.43 1.52242 -2.62785 0
M  V30 14005 H 1350.01 0.69134 -1.32442 0
M  V30 14006 H 1351.89 3.82207 -1.77471 0
M  V30 14007 H 1350.57 3.1382 -0.793656 0
M  V30 14008 H 1349.48 2.29689 -2.95286 0
M  V30 14009 H 1350.81 3.03751 -3.87294 0
M  V30 14010 N 1352.46 1.37696 0.766659 0
M  V30 14011 C 1353.7 1.34588 1.53836 0
M  V30 14012 C 1354.07 -0.0676384 1.91881 0
M  V30 14013 O 1355.27 -0.223479 2.67869 0
M  V30 14014 C 1353.54 2.26329 2.76604 0
M  V30 14015 S 1355.1 2.4112 3.66615 0
M  V30 14016 H 1351.91 0.477717 0.5266 0
M  V30 14017 H 1354.52 1.73495 0.901099 0
M  V30 14018 H 1353.22 3.27943 2.46742 0
M  V30 14019 H 1352.75 1.88525 3.45285 0
M  V30 14020 H 1354.77 1.62556 4.68818 0
M  V30 14021 N 1353.94 -0.993397 1.22349 0
M  V30 14022 C 1354.87 -2.08543 0.950925 0
M  V30 14023 C 1355.88 -1.62648 -0.0702741 0
M  V30 14024 O 1357.07 -1.77748 0.16367 0
M  V30 14025 C 1354.17 -3.36429 0.408466 0
M  V30 14026 C 1353.35 -4.11356 1.48676 0
M  V30 14027 C 1352.41 -5.17526 0.951478 0
M  V30 14028 O 1351.43 -5.45135 1.63757 0
M  V30 14029 N 1352.63 -5.80055 -0.227378 0
M  V30 14030 H 1355.4 -2.32506 1.89106 0
M  V30 14031 H 1352.96 -1.15911 1.13032 0
M  V30 14032 H 1354.95 -4.04684 0.0356968 0
M  V30 14033 H 1353.52 -3.09534 -0.436767 0
M  V30 14034 H 1352.74 -3.37739 2.03288 0
M  V30 14035 H 1354.03 -4.58187 2.21228 0
M  V30 14036 H 1353.43 -5.59992 -0.801601 0
M  V30 14037 H 1351.98 -6.49546 -0.541538 0
M  V30 14038 N 1355.42 -1.03311 -1.19015 0
M  V30 14039 C 1356.35 -0.638279 -2.24607 0
M  V30 14040 C 1357.33 0.354795 -1.66359 0
M  V30 14041 O 1358.51 0.236574 -1.92754 0
M  V30 14042 C 1355.64 0.00737316 -3.47299 0
M  V30 14043 C 1354.6 -0.908431 -4.18248 0
M  V30 14044 C 1353.92 -0.127658 -5.34548 0
M  V30 14045 C 1355.22 -2.2241 -4.72579 0
M  V30 14046 H 1356.92 -1.52099 -2.57888 0
M  V30 14047 H 1354.46 -0.732779 -1.23961 0
M  V30 14048 H 1356.42 0.295256 -4.20364 0
M  V30 14049 H 1355.14 0.924912 -3.1323 0
M  V30 14050 H 1353.8 -1.18058 -3.47071 0
M  V30 14051 H 1353.45 0.792048 -4.96725 0
M  V30 14052 H 1353.15 -0.737702 -5.82951 0
M  V30 14053 H 1354.67 0.153385 -6.10407 0
M  V30 14054 H 1356.09 -1.99745 -5.37378 0
M  V30 14055 H 1354.48 -2.78644 -5.31486 0
M  V30 14056 H 1355.55 -2.87584 -3.90415 0
M  V30 14057 N 1356.9 1.35099 -0.81154 0
M  V30 14058 C 1358.14 1.98233 -0.393453 0
M  V30 14059 C 1358.46 1.64688 1.04417 0
M  V30 14060 O 1357.73 0.931845 1.72318 0
M  V30 14061 H 1356.31 0.733283 -0.142496 0
M  V30 14062 H 1358.98 1.6493 -1.03847 0
M  V30 14063 H 1358.07 3.08017 -0.503188 0
M  V30 14064 N 1358.37 0.56548 1.47106 0
M  V30 14065 C 1359.28 -0.180488 2.33905 0
M  V30 14066 C 1360.3 -0.90355 1.48701 0
M  V30 14067 O 1361.48 -0.870595 1.81611 0
M  V30 14068 C 1358.54 -1.19212 3.2556 0
M  V30 14069 C 1357.6 -0.475589 4.26658 0
M  V30 14070 C 1356.83 -1.43902 5.13934 0
M  V30 14071 O 1357.06 -2.67443 5.03816 0
M  V30 14072 O 1355.99 -0.958998 5.94211 0
M  V30 14073 H 1359.82 0.531726 2.99009 0
M  V30 14074 H 1357.4 0.32602 1.45799 0
M  V30 14075 H 1359.28 -1.77586 3.82153 0
M  V30 14076 H 1357.96 -1.8861 2.63074 0
M  V30 14077 H 1356.87 0.149561 3.73801 0
M  V30 14078 H 1358.2 0.177103 4.91881 0
M  V30 14079 N 1359.85 -1.54672 0.302354 0
M  V30 14080 C 1360.8 -2.20281 -0.588245 0
M  V30 14081 C 1361.79 -1.17624 -1.09788 0
M  V30 14082 O 1362.98 -1.43338 -1.03842 0
M  V30 14083 C 1360.11 -2.94812 -1.759 0
M  V30 14084 C 1359.19 -4.04786 -1.26526 0
M  V30 14085 N 1359.58 -5.03425 -0.489625 0
M  V30 14086 C 1357.88 -4.18352 -1.54588 0
M  V30 14087 C 1358.58 -5.81259 -0.226538 0
M  V30 14088 N 1357.56 -5.37581 -0.806723 0
M  V30 14089 H 1361.36 -2.93898 0.0118911 0
M  V30 14090 H 1358.88 -1.62046 0.107181 0
M  V30 14091 H 1360.87 -3.40283 -2.40859 0
M  V30 14092 H 1359.53 -2.22712 -2.36282 0
M  V30 14093 H 1360.54 -5.17726 -0.134401 0
M  V30 14094 H 1357.22 -3.57458 -2.15709 0
M  V30 14095 H 1358.61 -6.70729 0.396499 0
M  V30 14096 N 1361.33 -0.0301034 -1.57571 0
M  V30 14097 C 1362.56 0.662045 -1.9655 0
M  V30 14098 C 1362.98 1.64811 -0.906581 0
M  V30 14099 O 1362.34 1.80816 0.132415 0
M  V30 14100 C 1362.39 1.34389 -3.34622 0
M  V30 14101 O 1361.49 2.45919 -3.31056 0
M  V30 14102 H 1360.83 0.173842 -0.640839 0
M  V30 14103 H 1363.36 -0.092248 -2.04392 0
M  V30 14104 H 1363.37 1.70045 -3.70875 0
M  V30 14105 H 1362.05 0.621092 -4.11236 0
M  V30 14106 H 1360.62 2.12367 -3.06521 0
M  V30 14107 N 1362.81 1.55714 0.243056 0
M  V30 14108 C 1364.05 1.79491 0.977867 0
M  V30 14109 C 1364.41 0.600239 1.82376 0
M  V30 14110 O 1365.61 0.716857 2.59065 0
M  V30 14111 C 1363.88 3.08034 1.81245 0
M  V30 14112 S 1365.44 3.53046 2.60583 0
M  V30 14113 H 1362.26 0.630377 0.328855 0
M  V30 14114 H 1364.86 1.93954 0.245371 0
M  V30 14115 H 1363.57 3.93047 1.18079 0
M  V30 14116 H 1363.1 2.9632 2.58763 0
M  V30 14117 H 1365.11 3.14683 3.83652 0
M  V30 14118 N 1364.29 -0.50888 1.49158 0
M  V30 14119 C 1365.53 -1.261 1.57934 0
M  V30 14120 C 1365.86 -1.93199 0.264405 0
M  V30 14121 O 1365.13 -1.82359 -0.715684 0
M  V30 14122 H 1363.71 -0.468421 0.581886 0
M  V30 14123 H 1366.37 -0.590447 1.85741 0
M  V30 14124 H 1365.46 -2.02913 2.37135 0
M  V30 14125 N 1365.76 -1.381 -0.759346 0
M  V30 14126 C 1366.67 -1.37086 -1.9038 0
M  V30 14127 C 1367.69 -0.268738 -1.71912 0
M  V30 14128 O 1368.87 -0.506205 -1.94935 0
M  V30 14129 C 1365.93 -1.18905 -3.25672 0
M  V30 14130 C 1364.99 -2.3887 -3.56707 0
M  V30 14131 C 1364.23 -2.21546 -4.85544 0
M  V30 14132 O 1364.45 -1.20616 -5.57501 0
M  V30 14133 O 1363.38 -3.10009 -5.15924 0
M  V30 14134 H 1367.21 -2.33505 -1.94188 0
M  V30 14135 H 1364.79 -1.18959 -0.903826 0
M  V30 14136 H 1366.68 -1.10803 -4.06572 0
M  V30 14137 H 1365.35 -0.255675 -3.22689 0
M  V30 14138 H 1364.26 -2.52546 -2.75992 0
M  V30 14139 H 1365.59 -3.30817 -3.64446 0
M  V30 14140 N 1367.24 0.986894 -1.22875 0
M  V30 14141 C 1368.19 2.09935 -1.00151 0
M  V30 14142 C 1369.18 1.69303 0.0573751 0
M  V30 14143 O 1370.39 1.79746 -0.0955781 0
M  V30 14144 H 1366.77 0.686605 -0.306721 0
M  V30 14145 H 1368.74 2.26271 -1.94535 0
M  V30 14146 C 1367.49 3.42442 -0.602374 0
M  V30 14147 H 1366.81 3.74154 -1.40886 0
M  V30 14148 H 1368.25 4.21242 -0.482836 0
M  V30 14149 C 1366.71 3.29785 0.688707 0
M  V30 14150 O 1367.24 3.6208 1.73957 0
M  V30 14151 N 1365.44 2.82956 0.662152 0
M  V30 14152 H 1364.99 2.56873 -0.193337 0
M  V30 14153 H 1364.95 2.74869 1.52625 0
M  V30 14154 N 1368.72 1.0394 1.18466 0
M  V30 14155 C 1369.68 0.633804 2.20262 0
M  V30 14156 C 1370.68 -0.308136 1.5782 0
M  V30 14157 O 1371.87 -0.0937087 1.73948 0
M  V30 14158 C 1369.01 -0.0709693 3.40826 0
M  V30 14159 H 1370.2 1.53463 2.57661 0
M  V30 14160 H 1367.75 0.831806 1.32328 0
M  V30 14161 H 1368.49 -0.985659 3.08958 0
M  V30 14162 H 1368.27 0.606023 3.87388 0
M  V30 14163 H 1369.76 -0.341298 4.16203 0
M  V30 14164 N 1370.2 -1.34667 0.818693 0
M  V30 14165 C 1371.42 -2.03173 0.416585 0
M  V30 14166 C 1371.85 -1.61261 -0.968321 0
M  V30 14167 O 1371.21 -0.79517 -1.62932 0
M  V30 14168 C 1371.25 -3.56803 0.521884 0
M  V30 14169 O 1370.36 -4.09827 -0.459953 0
M  V30 14170 H 1369.7 -0.6413 0.172136 0
M  V30 14171 H 1372.23 -1.72006 1.10794 0
M  V30 14172 H 1372.24 -4.06073 0.3961 0
M  V30 14173 H 1370.91 -3.86656 1.53198 0
M  V30 14174 H 1369.49 -3.71744 -0.293405 0
M  V30 14175 N 1371.68 -0.573274 -1.46804 0
M  V30 14176 C 1372.92 -0.057823 -2.04318 0
M  V30 14177 C 1373.28 1.27424 -1.43622 0
M  V30 14178 O 1374.48 1.87835 -1.92279 0
M  V30 14179 C 1372.75 0.016823 -3.57396 0
M  V30 14180 S 1374.31 0.476068 -4.3621 0
M  V30 14181 H 1371.13 -0.0329025 -0.710238 0
M  V30 14182 H 1373.73 -0.76364 -1.79969 0
M  V30 14183 H 1372.44 -0.956757 -3.99092 0
M  V30 14184 H 1371.97 0.745702 -3.86268 0
M  V30 14185 H 1373.98 1.73268 -4.64965 0
M  V30 14186 N 1373.15 1.5451 -0.310553 0
M  V30 14187 C 1374.38 2.04739 0.29824 0
M  V30 14188 C 1374.8 1.18737 1.46788 0
M  V30 14189 O 1374.15 0.215114 1.81228 0
M  V30 14190 C 1374.21 3.53734 0.745274 0
M  V30 14191 O 1373.93 4.36468 -0.377826 0
M  V30 14192 C 1375.43 4.20001 1.41823 0
M  V30 14193 H 1372.65 0.667997 0.0634159 0
M  V30 14194 H 1375.19 1.9942 -0.452961 0
M  V30 14195 H 1373.35 3.59383 1.44648 0
M  V30 14196 H 1373.76 5.24492 -0.0280567 0
M  V30 14197 H 1375.23 5.25747 1.68209 0
M  V30 14198 H 1375.71 3.70319 2.36137 0
M  V30 14199 H 1376.32 4.18455 0.759951 0
M  V30 14200 N 1374.63 0.0384594 1.57553 0
M  V30 14201 C 1375.58 -0.958199 2.11946 0
M  V30 14202 C 1376.58 -1.33073 1.04823 0
M  V30 14203 O 1377.78 -1.31187 1.23247 0
M  V30 14204 H 1374.16 -0.326819 0.677269 0
M  V30 14205 H 1376.13 -0.474211 2.94608 0
M  V30 14206 C 1374.88 -2.22821 2.6692 0
M  V30 14207 H 1374.2 -1.95032 3.49002 0
M  V30 14208 H 1375.64 -2.90746 3.08614 0
M  V30 14209 C 1374.1 -2.96429 1.60098 0
M  V30 14210 O 1374.63 -3.88892 1.00628 0
M  V30 14211 N 1372.83 -2.58931 1.3192 0
M  V30 14212 H 1372.38 -1.83818 1.80468 0
M  V30 14213 H 1372.34 -3.0849 0.60674 0
M  V30 14214 N 1376.11 -1.55841 -0.234795 0
M  V30 14215 C 1377.34 -1.82307 -0.978355 0
M  V30 14216 C 1377.75 -0.615825 -1.78474 0
M  V30 14217 O 1377.11 0.4156 -1.77705 0
M  V30 14218 C 1377.16 -3.07136 -1.90655 0
M  V30 14219 O 1376.88 -4.23202 -1.13278 0
M  V30 14220 C 1378.38 -3.46492 -2.76511 0
M  V30 14221 H 1375.6 -0.606361 -0.287345 0
M  V30 14222 H 1378.15 -2.02916 -0.254023 0
M  V30 14223 H 1376.3 -2.88542 -2.58501 0
M  V30 14224 H 1376.72 -4.94029 -1.76168 0
M  V30 14225 H 1378.19 -4.36908 -3.37366 0
M  V30 14226 H 1378.67 -2.67633 -3.48238 0
M  V30 14227 H 1379.27 -3.6748 -2.14099 0
M  V30 14228 N 1377.59 0.500963 -1.49426 0
M  V30 14229 C 1378.5 1.62889 -1.68833 0
M  V30 14230 C 1379.52 1.64367 -0.570932 0
M  V30 14231 O 1380.69 1.82786 -0.845641 0
M  V30 14232 C 1377.76 2.99255 -1.75063 0
M  V30 14233 C 1376.82 3.08404 -2.9864 0
M  V30 14234 C 1376.05 4.38266 -3.04564 0
M  V30 14235 O 1376.27 5.27065 -2.1808 0
M  V30 14236 O 1375.21 4.52387 -3.97026 0
M  V30 14237 H 1379.03 1.49446 -2.64385 0
M  V30 14238 H 1376.62 0.677254 -1.33168 0
M  V30 14239 H 1378.5 3.80303 -1.81515 0
M  V30 14240 H 1377.18 3.1296 -0.826896 0
M  V30 14241 H 1376.08 2.26544 -2.97706 0
M  V30 14242 H 1377.42 2.99626 -3.90494 0
M  V30 14243 N 1379.07 1.38501 0.752011 0
M  V30 14244 C 1380.32 1.34529 1.50819 0
M  V30 14245 C 1380.64 -0.0636155 1.94896 0
M  V30 14246 O 1379.91 -1.01161 1.6776 0
M  V30 14247 H 1378.49 0.49501 0.559441 0
M  V30 14248 H 1381.15 1.73196 0.893822 0
M  V30 14249 H 1380.24 1.99713 2.39835 0
M  V30 14250 N 1380.55 -0.980364 1.23396 0
M  V30 14251 C 1381.79 -1.71826 1.06397 0
M  V30 14252 C 1382.11 -1.90854 -0.399958 0
M  V30 14253 O 1381.38 -1.47721 -1.28668 0
M  V30 14254 H 1379.96 -0.636669 0.390719 0
M  V30 14255 H 1382.63 -1.18008 1.55113 0
M  V30 14256 H 1381.72 -2.7078 1.55192 0
M  V30 14257 N 1382.02 -1.04567 -1.17913 0
M  V30 14258 C 1383.25 -0.771084 -1.91671 0
M  V30 14259 C 1383.66 0.676261 -1.76701 0
M  V30 14260 O 1383 1.47314 -1.09746 0
M  V30 14261 C 1383.07 -1.06406 -3.43392 0
M  V30 14262 C 1382.73 -2.50632 -3.82142 0
M  V30 14263 C 1383.73 -3.48825 -3.85509 0
M  V30 14264 C 1381.41 -2.85476 -4.1329 0
M  V30 14265 C 1383.41 -4.79909 -4.19483 0
M  V30 14266 C 1381.09 -4.16766 -4.46934 0
M  V30 14267 C 1382.09 -5.13793 -4.50007 0
M  V30 14268 O 1381.78 -6.42728 -4.82862 0
M  V30 14269 H 1381.51 -0.280258 -0.615168 0
M  V30 14270 H 1384.07 -1.39781 -1.50501 0
M  V30 14271 H 1382.3 -0.380221 -3.84826 0
M  V30 14272 H 1383.98 -0.776475 -3.98404 0
M  V30 14273 H 1384.75 -3.23245 -3.61577 0
M  V30 14274 H 1380.63 -2.10621 -4.10073 0
M  V30 14275 H 1384.17 -5.55638 -4.21796 0
M  V30 14276 H 1380.07 -4.42111 -4.70328 0
M  V30 14277 H 1380.84 -6.47454 -5.00744 0
M  V30 14278 N 1383.5 1.34231 -0.825823 0
M  V30 14279 C 1384.73 2.02417 -0.428348 0
M  V30 14280 C 1385.14 1.62181 0.966573 0
M  V30 14281 O 1384.5 0.828691 1.62601 0
M  V30 14282 C 1384.55 3.57678 -0.524271 0
M  V30 14283 O 1384.27 3.96458 -1.86422 0
M  V30 14284 C 1385.77 4.43132 -0.122069 0
M  V30 14285 H 1382.99 0.648699 -0.171554 0
M  V30 14286 H 1385.54 1.71443 -1.11478 0
M  V30 14287 H 1383.69 3.87232 0.114112 0
M  V30 14288 H 1384.11 4.91147 -1.84051 0
M  V30 14289 H 1385.58 5.51477 -0.240264 0
M  V30 14290 H 1386.06 4.29139 0.934705 0
M  V30 14291 H 1386.66 4.18912 -0.734366 0
M  V30 14292 N 1384.98 0.581051 1.46498 0
M  V30 14293 C 1386.22 0.0686577 2.04285 0
M  V30 14294 C 1386.58 -1.2666 1.44296 0
M  V30 14295 O 1387.78 -1.86813 1.93273 0
M  V30 14296 C 1386.06 0.0021308 3.574 0
M  V30 14297 S 1387.61 -0.452928 4.36456 0
M  V30 14298 H 1384.43 0.0366686 0.710054 0
M  V30 14299 H 1387.03 0.773174 1.79561 0
M  V30 14300 H 1385.74 0.977908 3.98579 0
M  V30 14301 H 1385.27 -0.725207 3.86658 0
M  V30 14302 H 1387.28 -1.708 4.65877 0
M  V30 14303 N 1386.46 -1.54343 0.318742 0
M  V30 14304 C 1387.39 -2.20392 -0.591833 0
M  V30 14305 C 1388.37 -1.17931 -1.11942 0
M  V30 14306 O 1389.55 -1.4665 -1.18432 0
M  V30 14307 C 1386.68 -2.8618 -1.81159 0
M  V30 14308 C 1385.73 -4.02319 -1.41568 0
M  V30 14309 S 1386.56 -5.33551 -0.456481 0
M  V30 14310 C 1387.71 -6.02831 -1.68363 0
M  V30 14311 H 1387.95 -2.97284 -0.0307625 0
M  V30 14312 H 1385.48 -1.54057 0.102835 0
M  V30 14313 H 1387.44 -3.24707 -2.51148 0
M  V30 14314 H 1386.1 -2.091 -2.34384 0
M  V30 14315 H 1385.29 -4.47197 -2.32445 0
M  V30 14316 H 1384.89 -3.65441 -0.795535 0
M  V30 14317 H 1387.19 -6.24716 -2.62175 0
M  V30 14318 H 1388.13 -6.96488 -1.27709 0
M  V30 14319 H 1388.54 -5.32682 -1.86841 0
M  V30 14320 N 1387.94 -0.0468143 -1.5753 0
M  V30 14321 C 1389.18 0.631887 -1.94388 0
M  V30 14322 C 1389.54 1.68265 -0.924715 0
M  V30 14323 O 1390.74 2.41511 -1.18008 0
M  V30 14324 C 1389.01 1.21642 -3.36063 0
M  V30 14325 S 1390.57 1.91373 -3.94869 0
M  V30 14326 H 1387.39 0.207594 -0.680019 0
M  V30 14327 H 1389.99 -0.11471 -1.95163 0
M  V30 14328 H 1388.69 0.439479 -4.0804 0
M  V30 14329 H 1388.23 1.99993 -3.38772 0
M  V30 14330 H 1390.24 3.19392 -3.79741 0
M  V30 14331 N 1389.41 1.55964 0.226527 0
M  V30 14332 C 1390.38 1.91184 1.26418 0
M  V30 14333 C 1391.38 0.789982 1.40057 0
M  V30 14334 O 1392.57 1.05778 1.38407 0
M  V30 14335 C 1389.7 2.15826 2.63878 0
M  V30 14336 H 1390.89 2.83986 0.963956 0
M  V30 14337 H 1388.45 1.49169 0.466726 0
M  V30 14338 H 1389.18 1.2556 2.99007 0
M  V30 14339 H 1388.97 2.97549 2.55356 0
M  V30 14340 H 1390.46 2.44188 3.38765 0
M  V30 14341 N 1390.89 -0.493031 1.4969 0
M  V30 14342 C 1392.14 -1.24418 1.59263 0
M  V30 14343 C 1392.46 -1.92908 0.284882 0
M  V30 14344 O 1391.73 -1.83108 -0.696302 0
M  V30 14345 H 1390.31 -0.462223 0.586821 0
M  V30 14346 H 1392.97 -0.570713 1.86357 0
M  V30 14347 H 1392.07 -2.00386 2.39274 0
M  V30 14348 N 1392.37 -1.38898 -0.744656 0
M  V30 14349 C 1393.79 -1.20291 -1.04892 0
M  V30 14350 C 1393.99 -0.0577705 -2.01417 0
M  V30 14351 O 1393.04 0.593638 -2.45422 0
M  V30 14352 C 1394.36 -2.53302 -1.62045 0
M  V30 14353 C 1395.9 -2.60063 -1.74173 0
M  V30 14354 C 1396.38 -3.93272 -2.34736 0
M  V30 14355 N 1397.87 -3.9486 -2.42157 0
M  V30 14356 C 1398.6 -4.94698 -2.89933 0
M  V30 14357 N 1398.1 -6.04934 -3.37678 0
M  V30 14358 N 1399.89 -4.82083 -2.89055 0
M  V30 14359 H 1392.04 -2.12144 -0.104294 0
M  V30 14360 H 1394.31 -0.941725 -0.108895 0
M  V30 14361 H 1394.01 -3.376 -0.985868 0
M  V30 14362 H 1393.89 -2.72335 -2.60986 0
M  V30 14363 H 1396.27 -1.76155 -2.36756 0
M  V30 14364 H 1396.36 -2.44889 -0.739115 0
M  V30 14365 H 1396 -4.77607 -1.72784 0
M  V30 14366 H 1395.93 -4.05762 -3.35656 0
M  V30 14367 H 1398.42 -3.15243 -2.08399 0
M  V30 14368 H 1398.73 -6.77036 -3.72616 0
M  V30 14369 H 1397.08 -6.08541 -3.35712 0
M  V30 14370 H 1400.27 -3.9507 -2.51072 0
M  V30 14371 H 1400.44 -5.60039 -3.25975 0
M  V30 14372 N 1393.85 0.973806 -1.23914 0
M  V30 14373 C 1394.78 2.08526 -1.05068 0
M  V30 14374 C 1395.76 1.70065 0.0344761 0
M  V30 14375 O 1396.94 1.93755 -0.131432 0
M  V30 14376 C 1394.07 3.41198 -0.648165 0
M  V30 14377 C 1393.03 3.9359 -1.6814 0
M  V30 14378 C 1392.35 5.22534 -1.13414 0
M  V30 14379 C 1393.65 4.22116 -3.07597 0
M  V30 14380 H 1395.35 2.24551 -1.98034 0
M  V30 14381 H 1392.89 1.07905 -0.953546 0
M  V30 14382 H 1394.85 4.18383 -0.50334 0
M  V30 14383 H 1393.57 3.25056 0.317182 0
M  V30 14384 H 1392.23 3.18555 -1.81434 0
M  V30 14385 H 1391.88 5.02747 -0.159578 0
M  V30 14386 H 1391.58 5.58555 -1.82456 0
M  V30 14387 H 1393.1 6.02334 -1.0013 0
M  V30 14388 H 1394.52 4.90027 -2.97567 0
M  V30 14389 H 1392.91 4.69352 -3.73937 0
M  V30 14390 H 1393.98 3.29128 -3.56094 0
M  V30 14391 N 1395.33 1.05191 1.17357 0
M  V30 14392 C 1396.55 0.782343 1.92079 0
M  V30 14393 C 1396.98 -0.655957 1.76292 0
M  V30 14394 O 1396.33 -1.45573 1.08065 0
M  V30 14395 C 1396.38 1.16777 3.41168 0
M  V30 14396 O 1395.49 0.299908 4.11308 0
M  V30 14397 H 1394.83 0.286894 0.598822 0
M  V30 14398 H 1397.36 1.40476 1.48754 0
M  V30 14399 H 1397.37 1.13454 3.91909 0
M  V30 14400 H 1396.04 2.2155 3.51978 0
M  V30 14401 H 1394.62 0.393744 3.70815 0
M  V30 14402 N 1396.8 -1.33791 0.83293 0
M  V30 14403 C 1397.71 -2.33108 0.264169 0
M  V30 14404 C 1398.73 -1.6308 -0.606694 0
M  V30 14405 O 1399.91 -1.94777 -0.512225 0
M  V30 14406 C 1396.97 -3.42208 -0.556315 0
M  V30 14407 C 1396.03 -4.27966 0.338123 0
M  V30 14408 C 1395.27 -5.31856 -0.443297 0
M  V30 14409 O 1395.49 -5.45234 -1.6756 0
M  V30 14410 O 1394.42 -6.01632 0.179599 0
M  V30 14411 H 1398.25 -2.83602 1.08645 0
M  V30 14412 H 1395.83 -1.37027 0.595307 0
M  V30 14413 H 1397.72 -4.088 -1.02277 0
M  V30 14414 H 1396.39 -2.9394 -1.35575 0
M  V30 14415 H 1395.3 -3.64262 0.852293 0
M  V30 14416 H 1396.63 -4.79701 1.10217 0
M  V30 14417 N 1398.28 -0.588812 -1.46187 0
M  V30 14418 C 1399.69 -0.163897 -1.85979 0
M  V30 14419 C 1400.04 1.27458 -1.49161 0
M  V30 14420 O 1399.17 1.96365 -0.909372 0
M  V30 14421 C 1399.76 -0.29067 -3.37551 0
M  V30 14422 C 1398.32 0.0794165 -3.76316 0
M  V30 14423 C 1397.47 -0.623807 -2.70192 0
M  V30 14424 H 1400.42 -0.79666 -1.37255 0
M  V30 14425 H 1400.44 0.482316 -3.77431 0
M  V30 14426 H 1399.95 -1.33771 -3.64317 0
M  V30 14427 H 1398.06 1.12636 -3.55168 0
M  V30 14428 H 1398.17 -0.301153 -4.78153 0
M  V30 14429 H 1396.53 -0.0634124 -2.54621 0
M  V30 14430 H 1397.32 -1.67261 -2.99797 0
M  V30 14431 N 1399.76 1.54172 -0.326923 0
M  V30 14432 C 1401.01 2.00233 0.274098 0
M  V30 14433 C 1401.33 1.21665 1.5239 0
M  V30 14434 O 1400.6 0.319359 1.93279 0
M  V30 14435 H 1399.18 0.739687 0.104271 0
M  V30 14436 H 1401.84 1.8977 -0.444244 0
M  V30 14437 H 1400.94 3.07599 0.528154 0
M  V30 14438 N 1401.24 0.0551678 1.57503 0
M  V30 14439 C 1402.17 -0.915714 2.14795 0
M  V30 14440 C 1403.15 -1.32179 1.07065 0
M  V30 14441 O 1404.33 -1.39579 1.35023 0
M  V30 14442 C 1401.46 -2.18916 2.69616 0
M  V30 14443 C 1400.42 -1.92303 3.82366 0
M  V30 14444 C 1399.74 -3.26136 4.23721 0
M  V30 14445 C 1401.04 -1.24146 5.07331 0
M  V30 14446 H 1402.74 -0.438499 2.96171 0
M  V30 14447 H 1400.28 -0.209477 1.42468 0
M  V30 14448 H 1402.24 -2.87239 3.08337 0
M  V30 14449 H 1400.96 -2.6885 1.85437 0
M  V30 14450 H 1399.62 -1.26391 3.44123 0
M  V30 14451 H 1399.27 -3.73879 3.36487 0
M  V30 14452 H 1398.97 -3.09126 4.99715 0
M  V30 14453 H 1400.49 -3.95684 4.65045 0
M  V30 14454 H 1401.91 -1.8251 5.43473 0
M  V30 14455 H 1400.3 -1.17449 5.88494 0
M  V30 14456 H 1401.37 -0.218073 4.84409 0
M  V30 14457 N 1402.72 -1.56081 -0.218252 0
M  V30 14458 C 1403.97 -1.78445 -0.94022 0
M  V30 14459 C 1404.28 -0.624317 -1.85369 0
M  V30 14460 O 1405.48 -0.731669 -2.61455 0
M  V30 14461 C 1403.94 -3.16026 -1.72208 0
M  V30 14462 C 1403.55 -4.39774 -0.854584 0
M  V30 14463 C 1405.29 -3.47714 -2.43506 0
M  V30 14464 C 1403.2 -5.68379 -1.63398 0
M  V30 14465 H 1402.13 -0.665303 -0.354806 0
M  V30 14466 H 1404.78 -1.82471 -0.194021 0
M  V30 14467 H 1403.16 -3.06185 -2.5113 0
M  V30 14468 H 1404.34 -4.60679 -0.105659 0
M  V30 14469 H 1402.65 -4.15627 -0.253562 0
M  V30 14470 H 1405.25 -4.41026 -3.02325 0
M  V30 14471 H 1405.59 -2.70367 -3.16555 0
M  V30 14472 H 1406.12 -3.58899 -1.71571 0
M  V30 14473 H 1402.86 -6.48628 -0.946704 0
M  V30 14474 H 1402.38 -5.5153 -2.35743 0
M  V30 14475 H 1404.06 -6.08672 -2.1938 0
M  V30 14476 N 1404.2 0.485086 -1.49949 0
M  V30 14477 C 1405.44 1.24816 -1.61865 0
M  V30 14478 C 1405.8 1.8955 -0.305741 0
M  V30 14479 O 1407 2.67118 -0.300216 0
M  V30 14480 C 1405.27 2.27464 -2.75672 0
M  V30 14481 S 1406.83 3.12898 -3.07637 0
M  V30 14482 H 1403.65 0.423964 -0.570767 0
M  V30 14483 H 1406.25 0.547552 -1.87676 0
M  V30 14484 H 1404.95 1.78464 -3.69566 0
M  V30 14485 H 1404.49 3.02172 -2.51904 0
M  V30 14486 H 1406.5 4.28395 -2.50384 0
M  V30 14487 N 1405.67 1.39291 0.737279 0
M  V30 14488 C 1407.08 1.32489 1.31543 0
M  V30 14489 C 1407.44 -0.0118162 1.96196 0
M  V30 14490 O 1406.56 -0.913938 1.96153 0
M  V30 14491 C 1407.16 2.39946 2.39189 0
M  V30 14492 C 1405.71 2.36671 2.92684 0
M  V30 14493 C 1404.86 2.21953 1.66229 0
M  V30 14494 H 1407.81 1.49412 0.534954 0
M  V30 14495 H 1407.83 2.06603 3.19524 0
M  V30 14496 H 1407.35 3.3722 1.92104 0
M  V30 14497 H 1405.45 1.43028 3.44055 0
M  V30 14498 H 1405.56 3.31441 3.45953 0
M  V30 14499 H 1403.92 1.69087 1.90478 0
M  V30 14500 H 1404.71 3.21194 1.21199 0
M  V30 14501 N 1407.15 -0.967221 1.24429 0
M  V30 14502 C 1408.43 -1.68564 0.992253 0
M  V30 14503 C 1408.81 -2.05446 -0.485301 0
M  V30 14504 O 1408.16 -1.75798 -1.45971 0
M  V30 14505 C 1408.37 -2.91728 1.91562 0
M  V30 14506 C 1409.71 -3.63957 2.18678 0
M  V30 14507 O 1410.74 -3.01786 1.89219 0
M  V30 14508 O 1409.6 -4.75875 2.68711 0
M  V30 14509 H 1406.69 -0.736939 0.375299 0
M  V30 14510 H 1409.24 -1.02127 1.35529 0
M  V30 14511 H 1408.01 -2.61168 2.91388 0
M  V30 14512 H 1407.63 -3.65898 1.55577 0
M  V30 14513 N 1408.63 -1.05812 -1.16797 0
M  V30 14514 C 1409.85 -0.792518 -1.91661 0
M  V30 14515 C 1410.28 0.646598 -1.76637 0
M  V30 14516 O 1409.64 1.44998 -1.08836 0
M  V30 14517 C 1409.69 -1.18585 -3.40544 0
M  V30 14518 O 1408.79 -0.321716 -4.11143 0
M  V30 14519 H 1408.13 -0.290066 -0.597292 0
M  V30 14520 H 1410.66 -1.41263 -1.48007 0
M  V30 14521 H 1410.67 -1.1553 -3.91301 0
M  V30 14522 H 1409.35 -2.23413 -3.50798 0
M  V30 14523 H 1407.92 -0.413403 -3.70601 0
M  V30 14524 N 1410.11 1.33347 -0.840014 0
M  V30 14525 C 1411.34 2.01952 -0.449793 0
M  V30 14526 C 1411.75 1.63197 0.949317 0
M  V30 14527 O 1411.11 0.84589 1.61713 0
M  V30 14528 C 1411.16 3.57102 -0.562178 0
M  V30 14529 O 1410.88 3.94458 -1.90616 0
M  V30 14530 C 1412.38 4.42978 -0.169062 0
M  V30 14531 H 1409.6 0.646843 -0.178425 0
M  V30 14532 H 1412.14 1.70251 -1.1329 0
M  V30 14533 H 1410.3 3.87331 0.0730345 0
M  V30 14534 H 1410.71 4.89167 -1.8925 0
M  V30 14535 H 1412.19 5.51191 -0.298742 0
M  V30 14536 H 1412.66 4.30106 0.889137 0
M  V30 14537 H 1413.27 4.18109 -0.778756 0
M  V30 14538 N 1411.59 0.596556 1.45873 0
M  V30 14539 C 1413 0.173758 1.8589 0
M  V30 14540 C 1413.35 -1.26665 1.49835 0
M  V30 14541 O 1412.47 -1.9588 0.919773 0
M  V30 14542 C 1413.07 0.308567 3.37392 0
M  V30 14543 C 1411.63 -0.0594585 3.76353 0
M  V30 14544 C 1410.77 0.638127 2.69858 0
M  V30 14545 H 1413.72 0.803928 1.36831 0
M  V30 14546 H 1413.75 -0.462294 3.77681 0
M  V30 14547 H 1413.26 1.35701 3.63603 0
M  V30 14548 H 1411.36 -1.1075 3.5576 0
M  V30 14549 H 1411.47 0.326506 4.77986 0
M  V30 14550 H 1409.84 0.0769147 2.54584 0
M  V30 14551 H 1410.62 1.68849 2.98906 0
M  V30 14552 N 1413.06 -1.53996 0.335095 0
M  V30 14553 C 1414.47 -1.86092 -0.15058 0
M  V30 14554 C 1414.83 -1.25652 -1.50685 0
M  V30 14555 O 1413.95 -0.566887 -2.08843 0
M  V30 14556 C 1414.55 -3.37641 -0.280007 0
M  V30 14557 C 1413.1 -3.69645 -0.709907 0
M  V30 14558 C 1412.25 -2.7683 0.161461 0
M  V30 14559 H 1415.2 -1.4868 0.554986 0
M  V30 14560 H 1415.22 -3.63981 -1.10896 0
M  V30 14561 H 1414.74 -3.81601 0.707254 0
M  V30 14562 H 1412.84 -3.31224 -1.7065 0
M  V30 14563 H 1412.95 -4.76424 -0.505661 0
M  V30 14564 H 1411.31 -2.52073 -0.364849 0
M  V30 14565 H 1412.1 -3.23618 1.1457 0
M  V30 14566 N 1414.54 -0.0635198 -1.57472 0
M  V30 14567 C 1415.95 0.470372 -1.80678 0
M  V30 14568 C 1416.3 1.70158 -0.976771 0
M  V30 14569 O 1415.43 2.15502 -0.196893 0
M  V30 14570 C 1416.02 0.860129 -3.277 0
M  V30 14571 C 1414.58 1.33893 -3.51781 0
M  V30 14572 C 1413.73 0.320078 -2.75447 0
M  V30 14573 H 1416.68 -0.289295 -1.56041 0
M  V30 14574 H 1416.7 1.72216 -3.39296 0
M  V30 14575 H 1416.21 -0.0361525 -3.88083 0
M  V30 14576 H 1414.31 2.25399 -2.96692 0
M  V30 14577 H 1414.43 1.32257 -4.60483 0
M  V30 14578 H 1412.79 0.795601 -2.41955 0
M  V30 14579 H 1413.57 -0.568332 -3.38563 0
M  V30 14580 N 1416.02 1.56195 0.209972 0
M  V30 14581 C 1416.97 1.89755 1.26401 0
M  V30 14582 C 1417.95 0.761731 1.41727 0
M  V30 14583 O 1419.15 1.02435 1.44347 0
M  V30 14584 C 1416.27 2.22775 2.61201 0
M  V30 14585 C 1415.36 3.42777 2.49729 0
M  V30 14586 N 1415.75 4.61089 2.0792 0
M  V30 14587 C 1414.05 3.46621 2.8066 0
M  V30 14588 C 1414.75 5.43249 2.07979 0
M  V30 14589 N 1413.73 4.83263 2.48913 0
M  V30 14590 H 1417.53 2.78736 0.93184 0
M  V30 14591 H 1415.04 1.56915 0.418485 0
M  V30 14592 H 1417.04 2.44997 3.37316 0
M  V30 14593 H 1415.7 1.35112 2.95254 0
M  V30 14594 H 1416.71 4.86033 1.78865 0
M  V30 14595 H 1413.39 2.69334 3.19007 0
M  V30 14596 H 1414.78 6.47981 1.77681 0
M  V30 14597 N 1417.5 -0.477127 1.50204 0
M  V30 14598 C 1418.43 -1.58405 1.71552 0
M  V30 14599 C 1419.41 -1.60463 0.564413 0
M  V30 14600 O 1420.59 -1.76826 0.802893 0
M  V30 14601 C 1417.72 -2.96765 1.8041 0
M  V30 14602 C 1416.68 -3.09573 2.95548 0
M  V30 14603 C 1416 -4.49522 2.89542 0
M  V30 14604 C 1417.3 -2.87356 4.36147 0
M  V30 14605 H 1419 -1.40792 2.64231 0
M  V30 14606 H 1416.54 -0.675886 1.27153 0
M  V30 14607 H 1418.5 -3.74125 1.9393 0
M  V30 14608 H 1417.22 -3.1552 0.843489 0
M  V30 14609 H 1415.88 -2.34645 2.81669 0
M  V30 14610 H 1415.53 -4.65186 1.91339 0
M  V30 14611 H 1415.23 -4.59028 3.66834 0
M  V30 14612 H 1416.75 -5.28909 3.05102 0
M  V30 14613 H 1418.17 -3.54469 4.50583 0
M  V30 14614 H 1416.56 -3.08313 5.14843 0
M  V30 14615 H 1417.63 -1.83264 4.48935 0
M  V30 14616 N 1418.98 -1.3968 -0.729882 0
M  V30 14617 C 1420.39 -1.21396 -1.0361 0
M  V30 14618 C 1420.59 -0.0791302 -2.01345 0
M  V30 14619 O 1419.65 0.567575 -2.46038 0
M  V30 14620 C 1420.96 -2.55006 -1.59349 0
M  V30 14621 C 1422.51 -2.61896 -1.71405 0
M  V30 14622 C 1422.98 -3.9574 -2.30552 0
M  V30 14623 N 1424.48 -3.97406 -2.37955 0
M  V30 14624 C 1425.21 -4.97745 -2.8467 0
M  V30 14625 N 1424.71 -6.08482 -3.31243 0
M  V30 14626 N 1426.5 -4.85121 -2.83925 0
M  V30 14627 H 1418.65 -2.12242 -0.081787 0
M  V30 14628 H 1420.91 -0.942827 -0.0989005 0
M  V30 14629 H 1420.62 -3.38626 -0.950005 0
M  V30 14630 H 1420.49 -2.75087 -2.58083 0
M  V30 14631 H 1422.88 -1.78656 -2.34874 0
M  V30 14632 H 1422.96 -2.45659 -0.7131 0
M  V30 14633 H 1422.61 -4.79412 -1.67709 0
M  V30 14634 H 1422.54 -4.09299 -3.31334 0
M  V30 14635 H 1425.03 -3.17435 -2.05044 0
M  V30 14636 H 1425.34 -6.8095 -3.65414 0
M  V30 14637 H 1423.68 -6.12068 -3.29239 0
M  V30 14638 H 1426.88 -3.97711 -2.46867 0
M  V30 14639 H 1427.05 -5.63465 -3.20017 0
M  V30 14640 N 1420.45 0.960609 -1.2494 0
M  V30 14641 C 1421.36 2.0902 -1.06527 0
M  V30 14642 C 1422.38 1.74 -0.00406641 0
M  V30 14643 O 1423.56 2.00367 -0.203744 0
M  V30 14644 C 1420.62 3.39971 -0.679736 0
M  V30 14645 C 1419.68 3.88895 -1.81821 0
M  V30 14646 C 1418.92 5.13597 -1.45098 0
M  V30 14647 O 1419.14 5.69362 -0.343954 0
M  V30 14648 O 1418.07 5.57083 -2.27909 0
M  V30 14649 H 1421.9 2.27453 -2.01243 0
M  V30 14650 H 1419.48 1.07429 -1.03824 0
M  V30 14651 H 1421.37 4.18696 -0.47658 0
M  V30 14652 H 1420.04 3.22822 0.238231 0
M  V30 14653 H 1418.95 3.11201 -2.07617 0
M  V30 14654 H 1420.28 4.10533 -2.7152 0
M  V30 14655 N 1421.93 1.0643 1.16234 0
M  V30 14656 C 1423.21 0.695256 1.82827 0
M  V30 14657 C 1423.59 -0.823242 1.94386 0
M  V30 14658 O 1422.94 -1.73406 1.48804 0
M  V30 14659 C 1423.15 1.3988 3.19741 0
M  V30 14660 C 1424.5 1.54489 3.95498 0
M  V30 14661 O 1425.52 1.35882 3.29264 0
M  V30 14662 O 1424.38 1.85027 5.14225 0
M  V30 14663 H 1421.47 0.246285 0.789476 0
M  V30 14664 H 1424.02 1.16466 1.23426 0
M  V30 14665 H 1422.79 2.43419 3.06371 0
M  V30 14666 H 1422.41 0.91957 3.8682 0
M  V30 14667 N 1423.41 -1.329 0.847073 0
M  V30 14668 C 1424.69 -1.921 0.368351 0
M  V30 14669 C 1425.07 -1.77205 -1.14724 0
M  V30 14670 O 1424.42 -1.16547 -1.96543 0
M  V30 14671 C 1424.63 -3.39125 0.824326 0
M  V30 14672 C 1425.97 -4.16267 0.837097 0
M  V30 14673 O 1427 -3.47812 0.768466 0
M  V30 14674 O 1425.86 -5.38487 0.932389 0
M  V30 14675 H 1422.95 -0.820187 0.105936 0
M  V30 14676 H 1425.5 -1.41719 0.933471 0
M  V30 14677 H 1424.27 -3.43875 1.86723 0
M  V30 14678 H 1423.89 -3.96898 0.236233 0
M  V30 14679 N 1424.89 -0.604284 -1.45555 0
M  V30 14680 C 1425.84 0.137842 -2.27583 0
M  V30 14681 C 1426.82 0.841681 -1.3713 0
M  V30 14682 O 1428.01 0.732216 -1.61145 0
M  V30 14683 C 1425.14 1.13675 -3.23934 0
M  V30 14684 C 1424.23 0.433916 -4.21874 0
M  V30 14685 N 1424.62 -0.522599 -5.03093 0
M  V30 14686 C 1422.92 0.681898 -4.40756 0
M  V30 14687 C 1423.62 -0.935401 -5.7413 0
M  V30 14688 N 1422.6 -0.279863 -5.42879 0
M  V30 14689 H 1426.4 -0.596862 -2.87776 0
M  V30 14690 H 1423.91 -0.427701 -1.56667 0
M  V30 14691 H 1425.91 1.68278 -3.81429 0
M  V30 14692 H 1424.57 1.87204 -2.65301 0
M  V30 14693 H 1425.58 -0.899187 -5.10034 0
M  V30 14694 H 1422.26 1.40212 -3.93252 0
M  V30 14695 H 1423.65 -1.72412 -6.49403 0
M  V30 14696 N 1426.37 1.53816 -0.343257 0
M  V30 14697 C 1427.32 2.21763 0.529635 0
M  V30 14698 C 1428.3 1.20494 1.06631 0
M  V30 14699 O 1429.49 1.46041 1.00006 0
M  V30 14700 C 1426.62 2.99372 1.68022 0
M  V30 14701 C 1425.71 4.07999 1.1575 0
M  V30 14702 N 1426.1 5.04546 0.355979 0
M  V30 14703 C 1424.4 4.22304 1.43442 0
M  V30 14704 C 1425.1 5.81655 0.0723481 0
M  V30 14705 N 1424.07 5.39531 0.66391 0
M  V30 14706 H 1427.88 2.93763 -0.0898087 0
M  V30 14707 H 1425.39 1.61705 -0.150107 0
M  V30 14708 H 1427.39 3.4655 2.31752 0
M  V30 14709 H 1426.05 2.28899 2.30294 0
M  V30 14710 H 1427.06 5.179 -0.00291228 0
M  V30 14711 H 1423.73 3.63051 2.06155 0
M  V30 14712 H 1425.12 6.69442 -0.574192 0
M  V30 14713 N 1427.84 0.0718701 1.57436 0
M  V30 14714 C 1429.07 -0.605374 1.97532 0
M  V30 14715 C 1429.48 -1.6368 0.948974 0
M  V30 14716 O 1428.83 -1.83556 -0.0726987 0
M  V30 14717 C 1428.89 -1.33139 3.33937 0
M  V30 14718 C 1428.55 -0.453426 4.54745 0
M  V30 14719 C 1429.55 0.289012 5.19096 0
M  V30 14720 C 1427.23 -0.378282 5.00874 0
M  V30 14721 C 1429.23 1.09482 6.27927 0
M  V30 14722 C 1426.91 0.431192 6.09577 0
M  V30 14723 C 1427.91 1.16641 6.72966 0
M  V30 14724 O 1427.6 1.96253 7.79577 0
M  V30 14725 H 1427.33 -0.168804 0.654585 0
M  V30 14726 H 1429.89 0.140832 2.04917 0
M  V30 14727 H 1428.12 -2.12367 3.23167 0
M  V30 14728 H 1429.81 -1.90089 3.58638 0
M  V30 14729 H 1430.57 0.240552 4.84403 0
M  V30 14730 H 1426.45 -0.940166 4.51311 0
M  V30 14731 H 1429.99 1.66918 6.77336 0
M  V30 14732 H 1425.89 0.481217 6.43704 0
M  V30 14733 H 1426.66 1.88686 7.96455 0
M  V30 14734 N 1429.32 -1.56304 -0.201686 0
M  V30 14735 C 1430.55 -1.84692 -0.943583 0
M  V30 14736 C 1430.97 -0.654649 -1.7634 0
M  V30 14737 O 1430.33 0.396586 -1.76909 0
M  V30 14738 C 1430.38 -3.11251 -1.82085 0
M  V30 14739 O 1429.48 -2.9134 -2.91881 0
M  V30 14740 H 1428.82 -0.608351 -0.266092 0
M  V30 14741 H 1431.35 -2.0353 -0.208992 0
M  V30 14742 H 1431.36 -3.41874 -2.2268 0
M  V30 14743 H 1430.04 -3.97652 -1.21844 0
M  V30 14744 H 1428.62 -2.72 -2.55089 0
M  V30 14745 N 1430.8 0.469154 -1.50455 0
M  V30 14746 C 1432.05 1.2229 -1.6178 0
M  V30 14747 C 1432.38 1.91577 -0.318073 0
M  V30 14748 O 1431.65 1.82205 0.68057 0
M  V30 14749 C 1431.94 2.26504 -2.79943 0
M  V30 14750 C 1431.79 1.61509 -4.19804 0
M  V30 14751 C 1433.11 3.27796 -2.93662 0
M  V30 14752 H 1430.23 0.443241 -0.588817 0
M  V30 14753 H 1432.87 0.516431 -1.82847 0
M  V30 14754 H 1431.02 2.86757 -2.62112 0
M  V30 14755 H 1432.69 1.04838 -4.49229 0
M  V30 14756 H 1430.94 0.918162 -4.23972 0
M  V30 14757 H 1431.61 2.37248 -4.98415 0
M  V30 14758 H 1434.08 2.77568 -3.09992 0
M  V30 14759 H 1432.96 3.98041 -3.77961 0
M  V30 14760 H 1433.22 3.92033 -2.04359 0
M  V30 14761 N 1432.28 1.40065 0.722464 0
M  V30 14762 C 1433.69 1.21944 1.02965 0
M  V30 14763 C 1433.89 0.0898069 2.013 0
M  V30 14764 O 1432.95 -0.554519 2.46336 0
M  V30 14765 C 1434.26 2.55848 1.57995 0
M  V30 14766 C 1435.81 2.62801 1.70013 0
M  V30 14767 C 1436.29 3.96957 2.2845 0
M  V30 14768 N 1437.78 3.98662 2.35844 0
M  V30 14769 C 1438.51 4.99248 2.82026 0
M  V30 14770 N 1438.01 6.1023 3.28012 0
M  V30 14771 N 1439.8 4.8662 2.81349 0
M  V30 14772 H 1431.95 2.12283 0.0705301 0
M  V30 14773 H 1434.22 0.943338 0.0938991 0
M  V30 14774 H 1433.92 3.39125 0.932034 0
M  V30 14775 H 1433.8 2.76452 2.5662 0
M  V30 14776 H 1436.18 1.799 2.33923 0
M  V30 14777 H 1436.26 2.46034 0.700062 0
M  V30 14778 H 1435.91 4.80295 1.65164 0
M  V30 14779 H 1435.84 4.1105 3.29158 0
M  V30 14780 H 1438.33 3.18518 2.03358 0
M  V30 14781 H 1438.64 6.82878 3.61797 0
M  V30 14782 H 1436.99 6.13805 3.25988 0
M  V30 14783 H 1440.18 3.99015 2.44755 0
M  V30 14784 H 1440.35 5.65155 3.17024 0
M  V30 14785 N 1433.76 -0.95397 1.25448 0
M  V30 14786 C 1434.71 -2.07206 1.05681 0
M  V30 14787 C 1435.7 -1.69395 -0.0124672 0
M  V30 14788 O 1436.91 -1.79429 0.143201 0
M  V30 14789 H 1433.28 -0.678231 0.324817 0
M  V30 14790 H 1435.25 -2.21034 2.00466 0
M  V30 14791 C 1434 -3.40725 0.692955 0
M  V30 14792 H 1433.32 -3.70287 1.50756 0
M  V30 14793 H 1434.76 -4.19814 0.594351 0
M  V30 14794 C 1433.22 -3.31495 -0.601028 0
M  V30 14795 O 1433.75 -3.66565 -1.64296 0
M  V30 14796 N 1431.96 -2.84612 -0.586899 0
M  V30 14797 H 1431.51 -2.56271 0.261375 0
M  V30 14798 H 1431.46 -2.78819 -1.45284 0
M  V30 14799 N 1435.24 -1.07045 -1.15668 0
M  V30 14800 C 1436.46 -0.812802 -1.9081 0
M  V30 14801 C 1436.89 0.627827 -1.77313 0
M  V30 14802 O 1436.24 1.43836 -1.10368 0
M  V30 14803 C 1436.29 -1.2219 -3.39267 0
M  V30 14804 O 1435.4 -0.365305 -4.10779 0
M  V30 14805 H 1434.74 -0.296385 -0.594182 0
M  V30 14806 H 1437.27 -1.42825 -1.465 0
M  V30 14807 H 1437.28 -1.19674 -3.90054 0
M  V30 14808 H 1435.95 -2.27121 -3.48409 0
M  V30 14809 H 1434.53 -0.452687 -3.70142 0
M  V30 14810 N 1436.71 1.32449 -0.85411 0
M  V30 14811 C 1437.99 1.91902 -0.378533 0
M  V30 14812 C 1438.37 1.77811 1.13782 0
M  V30 14813 O 1437.72 1.17588 1.95922 0
M  V30 14814 C 1437.93 3.38683 -0.842299 0
M  V30 14815 C 1439.28 4.15817 -0.859161 0
M  V30 14816 O 1440.3 3.47399 -0.786901 0
M  V30 14817 O 1439.16 5.37985 -0.960933 0
M  V30 14818 H 1436.25 0.819614 -0.110284 0
M  V30 14819 H 1438.8 1.41222 -0.940974 0
M  V30 14820 H 1437.57 3.4288 -1.88544 0
M  V30 14821 H 1437.19 3.96767 -0.257278 0
M  V30 14822 N 1438.19 0.611994 1.45232 0
M  V30 14823 C 1439.42 0.113618 2.07089 0
M  V30 14824 C 1439.84 -1.1947 1.45288 0
M  V30 14825 O 1439.2 -1.72845 0.547207 0
M  V30 14826 C 1439.25 -0.00789978 3.60599 0
M  V30 14827 O 1438.35 -1.05697 3.98625 0
M  V30 14828 H 1437.69 0.076066 0.659629 0
M  V30 14829 H 1440.22 0.843253 1.86415 0
M  V30 14830 H 1440.23 -0.204692 4.07486 0
M  V30 14831 H 1438.91 0.947386 4.04966 0
M  V30 14832 H 1437.48 -0.836291 3.63401 0
M  V30 14833 N 1439.67 -1.53632 0.351409 0
M  V30 14834 C 1440.58 -2.2899 -0.509985 0
M  V30 14835 C 1441.6 -1.34403 -1.10507 0
M  V30 14836 O 1442.77 -1.67448 -1.11906 0
M  V30 14837 C 1439.84 -3.05392 -1.64124 0
M  V30 14838 C 1438.9 -4.15619 -1.07514 0
M  V30 14839 C 1438.13 -4.88369 -2.15248 0
M  V30 14840 O 1438.35 -4.60854 -3.3611 0
M  V30 14841 O 1437.29 -5.74636 -1.79101 0
M  V30 14842 H 1441.11 -3.03526 0.10283 0
M  V30 14843 H 1438.7 -1.48947 0.116214 0
M  V30 14844 H 1440.58 -3.53146 -2.29926 0
M  V30 14845 H 1439.26 -2.33705 -2.23972 0
M  V30 14846 H 1438.16 -3.7215 -0.381421 0
M  V30 14847 H 1439.5 -4.8943 -0.521413 0
M  V30 14848 N 1441.15 -0.0802183 -1.57396 0
M  V30 14849 C 1442.39 0.590512 -1.95684 0
M  V30 14850 C 1442.75 1.66265 -0.960199 0
M  V30 14851 O 1443.95 2.38954 -1.23104 0
M  V30 14852 C 1442.22 1.14486 -3.38567 0
M  V30 14853 S 1443.78 1.82954 -3.9884 0
M  V30 14854 H 1440.6 0.193123 -0.684269 0
M  V30 14855 H 1443.2 -0.156081 -1.94876 0
M  V30 14856 H 1441.91 0.352828 -4.08881 0
M  V30 14857 H 1441.44 1.92762 -3.42938 0
M  V30 14858 H 1443.45 3.11265 -3.86431 0
M  V30 14859 N 1442.63 1.56409 0.193394 0
M  V30 14860 C 1444.04 1.70624 0.757915 0
M  V30 14861 C 1444.39 0.687074 1.83776 0
M  V30 14862 O 1443.51 -0.15616 2.15836 0
M  V30 14863 C 1444.11 3.09352 1.38156 0
M  V30 14864 C 1442.67 3.25326 1.89315 0
M  V30 14865 C 1441.81 2.66576 0.763727 0
M  V30 14866 H 1444.76 1.58668 -0.0317034 0
M  V30 14867 H 1444.79 3.06776 2.25098 0
M  V30 14868 H 1444.3 3.83506 0.595398 0
M  V30 14869 H 1442.4 2.5609 2.70644 0
M  V30 14870 H 1442.51 4.32848 2.05376 0
M  V30 14871 H 1440.88 2.25797 1.17846 0
M  V30 14872 H 1441.66 3.43298 -0.0102243 0
M  V30 14873 N 1444.1 -0.461169 1.50702 0
M  V30 14874 C 1445.03 -1.56576 1.73223 0
M  V30 14875 C 1446.01 -1.59855 0.581401 0
M  V30 14876 O 1447.2 -1.75964 0.821602 0
M  V30 14877 C 1444.33 -2.94835 1.83548 0
M  V30 14878 C 1443.28 -3.06421 2.98815 0
M  V30 14879 C 1442.61 -4.46425 2.94293 0
M  V30 14880 C 1443.91 -2.82714 4.3917 0
M  V30 14881 H 1445.6 -1.37982 2.65709 0
M  V30 14882 H 1443.15 -0.662362 1.27862 0
M  V30 14883 H 1445.1 -3.72047 1.97887 0
M  V30 14884 H 1443.83 -3.14608 0.876906 0
M  V30 14885 H 1442.49 -2.31644 2.84142 0
M  V30 14886 H 1442.13 -4.63131 1.96262 0
M  V30 14887 H 1441.83 -4.55111 3.71682 0
M  V30 14888 H 1443.36 -5.25644 3.10695 0
M  V30 14889 H 1444.77 -3.4967 4.54317 0
M  V30 14890 H 1443.17 -3.02835 5.18084 0
M  V30 14891 H 1444.24 -1.78492 4.50853 0
M  V30 14892 N 1445.58 -1.40446 -0.715026 0
M  V30 14893 C 1446.81 -1.42263 -1.50917 0
M  V30 14894 C 1447.23 -0.0242402 -1.88084 0
M  V30 14895 O 1446.59 0.967817 -1.53307 0
M  V30 14896 C 1446.64 -2.31998 -2.7606 0
M  V30 14897 O 1445.74 -1.76361 -3.72787 0
M  V30 14898 H 1445.08 -0.483614 -0.454988 0
M  V30 14899 H 1447.61 -1.84682 -0.880549 0
M  V30 14900 H 1447.62 -2.47204 -3.24583 0
M  V30 14901 H 1446.3 -3.33614 -2.48343 0
M  V30 14902 H 1444.87 -1.70504 -3.31636 0
M  V30 14903 N 1447.06 0.947303 -1.25952 0
M  V30 14904 C 1448.01 2.03076 -1.03653 0
M  V30 14905 C 1448.99 1.60874 0.0290512 0
M  V30 14906 O 1450.19 1.76008 -0.187169 0
M  V30 14907 C 1447.31 3.36797 -0.66501 0
M  V30 14908 C 1446.4 3.85502 -1.76773 0
M  V30 14909 N 1446.79 4.06922 -3.00413 0
M  V30 14910 C 1445.09 4.14359 -1.64993 0
M  V30 14911 C 1445.79 4.4717 -3.7204 0
M  V30 14912 N 1444.77 4.53523 -2.99697 0
M  V30 14913 H 1448.57 2.17641 -1.97509 0
M  V30 14914 H 1446.08 1.13268 -1.16379 0
M  V30 14915 H 1448.08 4.14053 -0.486427 0
M  V30 14916 H 1446.74 3.23607 0.266138 0
M  V30 14917 H 1447.75 3.93786 -3.36383 0
M  V30 14918 H 1444.43 4.09991 -0.788254 0
M  V30 14919 H 1445.82 4.71985 -4.78205 0
M  V30 14920 N 1448.54 1.07657 1.15099 0
M  V30 14921 C 1449.82 0.714608 1.82079 0
M  V30 14922 C 1450.2 -0.802578 1.95248 0
M  V30 14923 O 1449.54 -1.71818 1.50634 0
M  V30 14924 C 1449.75 1.43264 3.1824 0
M  V30 14925 C 1451.1 1.58675 3.93837 0
M  V30 14926 O 1452.13 1.39367 3.27804 0
M  V30 14927 O 1450.98 1.9047 5.12234 0
M  V30 14928 H 1448.08 0.254645 0.786819 0
M  V30 14929 H 1450.62 1.17768 1.22183 0
M  V30 14930 H 1449.4 2.46655 3.03772 0
M  V30 14931 H 1449.02 0.960546 3.85823 0
M  V30 14932 N 1450.02 -1.31994 0.861122 0
M  V30 14933 C 1451.26 -1.96636 0.466754 0
M  V30 14934 C 1451.59 -1.6845 -0.982328 0
M  V30 14935 O 1450.86 -0.995157 -1.68741 0
M  V30 14936 H 1449.44 -0.727489 0.169613 0
M  V30 14937 H 1452.1 -1.60962 1.09897 0
M  V30 14938 H 1451.19 -3.05937 0.61716 0
M  V30 14939 N 1451.49 -0.619688 -1.44906 0
M  V30 14940 C 1452.72 -0.12618 -2.06214 0
M  V30 14941 C 1453.13 1.19978 -1.46294 0
M  V30 14942 O 1452.48 1.74437 -0.575956 0
M  V30 14943 C 1452.54 0.075085 -3.59422 0
M  V30 14944 C 1452.2 -1.17094 -4.41744 0
M  V30 14945 C 1453.2 -2.09196 -4.75955 0
M  V30 14946 C 1450.88 -1.40315 -4.82304 0
M  V30 14947 C 1452.88 -3.22839 -5.49594 0
M  V30 14948 C 1450.56 -2.54257 -5.55695 0
M  V30 14949 C 1451.56 -3.45346 -5.89258 0
M  V30 14950 O 1451.25 -4.57302 -6.61158 0
M  V30 14951 H 1450.98 -0.0715975 -0.672198 0
M  V30 14952 H 1453.54 -0.850858 -1.86948 0
M  V30 14953 H 1451.77 0.854787 -3.77134 0
M  V30 14954 H 1453.46 0.521707 -4.02533 0
M  V30 14955 H 1454.22 -1.92486 -4.45168 0
M  V30 14956 H 1450.1 -0.703094 -4.55607 0
M  V30 14957 H 1453.64 -3.93959 -5.7571 0
M  V30 14958 H 1449.54 -2.70915 -5.85897 0
M  V30 14959 H 1450.31 -4.56138 -6.79618 0
M  V30 14960 N 1452.97 1.53444 -0.359552 0
M  V30 14961 C 1454.21 2.03077 0.232169 0
M  V30 14962 C 1454.58 1.24125 1.46482 0
M  V30 14963 O 1455.78 1.63735 2.13177 0
M  V30 14964 C 1454.05 3.53554 0.522891 0
M  V30 14965 S 1455.61 4.25068 1.08914 0
M  V30 14966 H 1452.43 0.707738 0.0680317 0
M  V30 14967 H 1455.03 1.88971 -0.501022 0
M  V30 14968 H 1453.73 4.0862 -0.381812 0
M  V30 14969 H 1453.26 3.71811 1.28532 0
M  V30 14970 H 1455.28 4.35734 2.37382 0
M  V30 14971 N 1454.45 0.0885642 1.57351 0
M  V30 14972 C 1455.38 -0.869946 2.16689 0
M  V30 14973 C 1456.36 -1.29878 1.09844 0
M  V30 14974 O 1457.55 -1.36684 1.37954 0
M  V30 14975 C 1454.68 -2.13148 2.74199 0
M  V30 14976 C 1453.63 -1.84149 3.86359 0
M  V30 14977 C 1452.96 -3.17075 4.30543 0
M  V30 14978 C 1454.26 -1.13357 5.09851 0
M  V30 14979 H 1455.95 -0.375578 2.97035 0
M  V30 14980 H 1453.5 -0.17921 1.42881 0
M  V30 14981 H 1455.45 -2.80634 3.14361 0
M  V30 14982 H 1454.17 -2.64856 1.91098 0
M  V30 14983 H 1452.83 -1.19063 3.46727 0
M  V30 14984 H 1452.48 -3.66658 3.44342 0
M  V30 14985 H 1452.18 -2.98457 5.06159 0
M  V30 14986 H 1453.7 -3.85731 4.73333 0
M  V30 14987 H 1455.12 -1.70941 5.47222 0
M  V30 14988 H 1453.52 -1.0494 5.90853 0
M  V30 14989 H 1454.59 -0.115273 4.84763 0
M  V30 14990 N 1455.93 -1.56509 -0.185096 0
M  V30 14991 C 1456.88 -1.91742 -1.23366 0
M  V30 14992 C 1457.86 -0.784182 -1.40497 0
M  V30 14993 O 1459.05 -1.04718 -1.42699 0
M  V30 14994 C 1456.18 -2.26903 -2.57624 0
M  V30 14995 C 1455.27 -3.46707 -2.44244 0
M  V30 14996 N 1455.66 -4.64338 -2.00558 0
M  V30 14997 C 1453.96 -3.51042 -2.7511 0
M  V30 14998 C 1454.66 -5.46489 -1.9931 0
M  V30 14999 N 1453.64 -4.87162 -2.41193 0
M  V30 15000 H 1457.44 -2.80184 -0.887378 0
M  V30 15001 H 1454.95 -1.57561 -0.393468 0
M  V30 15002 H 1456.95 -2.50332 -3.33376 0
M  V30 15003 H 1455.61 -1.39792 -2.93067 0
M  V30 15004 H 1456.62 -4.88817 -1.7111 0
M  V30 15005 H 1453.3 -2.74375 -3.14682 0
M  V30 15006 H 1454.69 -6.50726 -1.67349 0
M  V30 15007 N 1457.41 0.45317 -1.50944 0
M  V30 15008 C 1458.68 1.21413 -1.53357 0
M  V30 15009 C 1459.06 2.09118 -0.288584 0
M  V30 15010 O 1458.41 2.16621 0.727164 0
M  V30 15011 C 1458.62 2.02969 -2.83909 0
M  V30 15012 C 1459.97 2.60551 -3.35258 0
M  V30 15013 O 1460.99 2.13196 -2.85353 0
M  V30 15014 O 1459.85 3.46881 -4.22298 0
M  V30 15015 H 1456.95 0.551909 -0.615894 0
M  V30 15016 H 1459.49 0.463529 -1.63247 0
M  V30 15017 H 1458.26 1.38453 -3.65987 0
M  V30 15018 H 1457.89 2.85127 -2.77107 0
M  V30 15019 N 1458.88 1.40823 0.707568 0
M  V30 15020 C 1460.13 1.39259 1.46463 0
M  V30 15021 C 1460.45 -0.00157854 1.95 0
M  V30 15022 O 1459.72 -0.957723 1.70893 0
M  V30 15023 H 1458.3 0.512558 0.543409 0
M  V30 15024 H 1460.97 1.75952 0.838269 0
M  V30 15025 H 1460.06 2.07243 2.3336 0
M  V30 15026 N 1460.36 -0.94061 1.26453 0
M  V30 15027 C 1461.61 -1.68937 1.12197 0
M  V30 15028 C 1461.94 -1.91309 -0.33382 0
M  V30 15029 O 1461.22 -1.49417 -1.24518 0
M  V30 15030 C 1461.5 -3.06381 1.89215 0
M  V30 15031 C 1461.35 -2.91331 3.42704 0
M  V30 15032 C 1462.67 -4.06507 1.68642 0
M  V30 15033 H 1459.79 -0.613121 0.408964 0
M  V30 15034 H 1462.43 -1.09242 1.55455 0
M  V30 15035 H 1460.58 -3.57339 1.5245 0
M  V30 15036 H 1462.25 -2.47591 3.89226 0
M  V30 15037 H 1460.5 -2.26945 3.697 0
M  V30 15038 H 1461.17 -3.88818 3.91822 0
M  V30 15039 H 1463.64 -3.64512 2.00674 0
M  V30 15040 H 1462.52 -5.0069 2.24945 0
M  V30 15041 H 1462.78 -4.37572 0.631131 0
M  V30 15042 N 1461.84 -1.08266 -1.14527 0
M  V30 15043 C 1463.08 -0.820945 -1.87189 0
M  V30 15044 C 1463.44 0.641556 -1.80964 0
M  V30 15045 O 1464.65 1.01871 -2.48749 0
M  V30 15046 C 1462.92 -1.32668 -3.31865 0
M  V30 15047 S 1464.48 -1.19705 -4.22157 0
M  V30 15048 H 1461.29 -0.297237 -0.645888 0
M  V30 15049 H 1463.9 -1.38364 -1.38114 0
M  V30 15050 H 1462.6 -2.38558 -3.33943 0
M  V30 15051 H 1462.13 -0.759588 -3.85997 0
M  V30 15052 H 1464.15 -0.140421 -4.96001 0
M  V30 15053 N 1463.32 1.31536 -0.86811 0
M  V30 15054 C 1464.25 2.2663 -0.2672 0
M  V30 15055 C 1465.23 1.51023 0.602574 0
M  V30 15056 O 1466.41 1.80101 0.556408 0
M  V30 15057 C 1463.54 3.32943 0.62183 0
M  V30 15058 C 1462.59 4.26135 -0.176348 0
M  V30 15059 S 1463.42 5.12467 -1.55363 0
M  V30 15060 C 1464.58 6.22296 -0.670673 0
M  V30 15061 H 1464.81 2.7725 -1.07331 0
M  V30 15062 H 1462.34 1.39273 -0.666521 0
M  V30 15063 H 1464.3 3.94667 1.12908 0
M  V30 15064 H 1462.96 2.81081 1.40187 0
M  V30 15065 H 1462.15 5.015 0.501358 0
M  V30 15066 H 1461.76 3.68898 -0.61563 0
M  V30 15067 H 1464.05 6.77395 0.119508 0
M  V30 15068 H 1464.99 6.94215 -1.39539 0
M  V30 15069 H 1465.4 5.63994 -0.239048 0
M  V30 15070 N 1464.8 0.627364 1.44575 0
M  V30 15071 C 1466.03 0.137114 2.06145 0
M  V30 15072 C 1466.44 -1.19201 1.46928 0
M  V30 15073 O 1465.78 -1.7413 0.585199 0
M  V30 15074 C 1465.84 -0.0560229 3.59456 0
M  V30 15075 C 1465.5 1.19435 4.41117 0
M  V30 15076 C 1466.5 2.11717 4.74839 0
M  V30 15077 C 1464.19 1.42871 4.81553 0
M  V30 15078 C 1466.18 3.25749 5.47875 0
M  V30 15079 C 1463.87 2.572 5.54339 0
M  V30 15080 C 1464.87 3.48466 5.87419 0
M  V30 15081 O 1464.55 4.60802 6.58723 0
M  V30 15082 H 1464.29 0.0751614 0.671809 0
M  V30 15083 H 1466.84 0.86076 1.86494 0
M  V30 15084 H 1465.07 -0.834775 3.77582 0
M  V30 15085 H 1466.76 -0.500352 4.02804 0
M  V30 15086 H 1467.52 1.94844 4.44141 0
M  V30 15087 H 1463.4 0.727246 4.55228 0
M  V30 15088 H 1466.95 3.97007 5.73612 0
M  V30 15089 H 1462.84 2.74018 5.84452 0
M  V30 15090 H 1463.61 4.59736 6.77189 0
M  V30 15091 N 1466.28 -1.53251 0.367684 0
M  V30 15092 C 1467.52 -2.00469 -0.222481 0
M  V30 15093 C 1467.84 -1.259 -1.49695 0
M  V30 15094 O 1469.04 -1.63717 -2.16585 0
M  V30 15095 C 1467.5 -3.57113 -0.447018 0
M  V30 15096 C 1467.11 -4.40562 0.812946 0
M  V30 15097 C 1468.85 -4.12681 -0.994725 0
M  V30 15098 C 1466.76 -5.88763 0.557877 0
M  V30 15099 H 1465.69 -0.748974 -0.0869144 0
M  V30 15100 H 1468.34 -1.76927 0.48675 0
M  V30 15101 H 1466.72 -3.76818 -1.21756 0
M  V30 15102 H 1467.9 -4.3263 1.58644 0
M  V30 15103 H 1466.21 -3.96108 1.28403 0
M  V30 15104 H 1468.81 -5.2104 -1.20091 0
M  V30 15105 H 1469.15 -3.67408 -1.95748 0
M  V30 15106 H 1469.68 -3.96783 -0.284295 0
M  V30 15107 H 1466.42 -6.38317 1.49102 0
M  V30 15108 H 1465.94 -5.99539 -0.177082 0
M  V30 15109 H 1467.62 -6.46738 0.18419 0
M  V30 15110 N 1467.75 -0.0969077 -1.57302 0
M  V30 15111 C 1468.66 0.875561 -2.17649 0
M  V30 15112 C 1469.68 1.30892 -1.14645 0
M  V30 15113 O 1470.86 1.37646 -1.47022 0
M  V30 15114 C 1467.92 2.116 -2.74639 0
M  V30 15115 C 1466.98 1.73667 -3.92604 0
M  V30 15116 C 1466.21 2.91798 -4.46867 0
M  V30 15117 O 1466.44 4.06577 -4.00064 0
M  V30 15118 O 1465.37 2.70159 -5.37864 0
M  V30 15119 H 1469.2 0.392107 -3.01158 0
M  V30 15120 H 1466.78 0.127539 -1.48855 0
M  V30 15121 H 1468.66 2.84292 -3.11057 0
M  V30 15122 H 1467.34 2.58994 -1.94174 0
M  V30 15123 H 1466.25 0.981505 -3.60995 0
M  V30 15124 H 1467.58 1.31035 -4.74437 0
M  V30 15125 N 1469.23 1.56605 0.176793 0
M  V30 15126 C 1470.19 1.95109 1.20271 0
M  V30 15127 C 1471.19 0.83414 1.37473 0
M  V30 15128 O 1472.38 1.10128 1.34972 0
M  V30 15129 C 1469.52 2.24112 2.56878 0
M  V30 15130 H 1470.71 2.86909 0.87312 0
M  V30 15131 H 1468.26 1.50578 0.419033 0
M  V30 15132 H 1469 1.35009 2.94861 0
M  V30 15133 H 1468.78 3.05523 2.45761 0
M  V30 15134 H 1470.27 2.54842 3.30825 0
M  V30 15135 N 1470.71 -0.445159 1.51182 0
M  V30 15136 C 1471.64 -1.5473 1.74874 0
M  V30 15137 C 1472.62 -1.5923 0.598323 0
M  V30 15138 O 1473.81 -1.75083 0.840219 0
M  V30 15139 C 1470.94 -2.92872 1.86664 0
M  V30 15140 C 1469.89 -3.03235 3.02048 0
M  V30 15141 C 1469.22 -4.43279 2.99012 0
M  V30 15142 C 1470.52 -2.7804 4.42144 0
M  V30 15143 H 1472.21 -1.35156 2.67158 0
M  V30 15144 H 1469.76 -0.648763 1.28558 0
M  V30 15145 H 1471.71 -3.69927 2.01822 0
M  V30 15146 H 1470.43 -3.1366 0.910225 0
M  V30 15147 H 1469.09 -2.28617 2.86583 0
M  V30 15148 H 1468.74 -4.61023 2.01163 0
M  V30 15149 H 1468.44 -4.51144 3.76488 0
M  V30 15150 H 1469.96 -5.22319 3.16252 0
M  V30 15151 H 1471.38 -3.44831 4.58 0
M  V30 15152 H 1469.77 -2.97323 5.21267 0
M  V30 15153 H 1470.84 -1.737 4.52721 0
M  V30 15154 N 1472.19 -1.41197 -0.700089 0
M  V30 15155 C 1473.46 -1.30803 -1.4543 0
M  V30 15156 C 1473.84 0.0664987 -2.10995 0
M  V30 15157 O 1473.19 1.08043 -2.01343 0
M  V30 15158 C 1473.4 -2.45815 -2.47742 0
M  V30 15159 C 1474.75 -2.86771 -3.13126 0
M  V30 15160 O 1475.77 -2.45521 -2.58065 0
M  V30 15161 O 1474.63 -3.58086 -4.1284 0
M  V30 15162 H 1471.73 -0.514523 -0.647453 0
M  V30 15163 H 1474.27 -1.53151 -0.73095 0
M  V30 15164 H 1473.05 -3.37557 -1.97917 0
M  V30 15165 H 1472.67 -2.25319 -3.27593 0
M  V30 15166 N 1473.67 0.933891 -1.2695 0
M  V30 15167 C 1474.61 2.03365 -1.09139 0
M  V30 15168 C 1475.58 1.66099 0.00573029 0
M  V30 15169 O 1476.77 1.90166 -0.155425 0
M  V30 15170 C 1473.91 3.37114 -0.738117 0
M  V30 15171 C 1473.02 3.87372 -1.91224 0
M  V30 15172 C 1472.16 5.0954 -1.50141 0
M  V30 15173 C 1471.19 5.52079 -2.64339 0
M  V30 15174 N 1470.33 6.65446 -2.23887 0
M  V30 15175 H 1475.17 2.17932 -2.03248 0
M  V30 15176 H 1472.71 1.0677 -1.01186 0
M  V30 15177 H 1474.67 4.1402 -0.514141 0
M  V30 15178 H 1473.3 3.22373 0.166007 0
M  V30 15179 H 1472.35 3.06801 -2.24894 0
M  V30 15180 H 1473.66 4.14875 -2.76912 0
M  V30 15181 H 1472.81 5.93928 -1.23831 0
M  V30 15182 H 1471.55 4.838 -0.615539 0
M  V30 15183 H 1470.56 4.66244 -2.9137 0
M  V30 15184 H 1471.78 5.79817 -3.53537 0
M  V30 15185 H 1469.73 6.41376 -1.37744 0
M  V30 15186 H 1469.65 6.92573 -3.03116 0
M  V30 15187 H 1470.91 7.53191 -2.00809 0
M  V30 15188 N 1475.14 1.08871 1.13951 0
M  V30 15189 C 1476.37 0.841691 1.88677 0
M  V30 15190 C 1476.78 -0.610213 1.79089 0
M  V30 15191 O 1476.12 -1.4314 1.15138 0
M  V30 15192 C 1476.19 1.19077 3.39206 0
M  V30 15193 C 1475.85 2.64642 3.72577 0
M  V30 15194 C 1476.85 3.62892 3.72297 0
M  V30 15195 C 1474.53 3.00618 4.0241 0
M  V30 15196 C 1476.53 4.95148 4.01382 0
M  V30 15197 C 1474.21 4.33066 4.31158 0
M  V30 15198 C 1475.21 5.3014 4.30628 0
M  V30 15199 O 1474.9 6.60207 4.58675 0
M  V30 15200 H 1474.63 0.302896 0.604343 0
M  V30 15201 H 1477.19 1.4527 1.45209 0
M  V30 15202 H 1475.42 0.522784 3.8315 0
M  V30 15203 H 1477.1 0.923805 3.95248 0
M  V30 15204 H 1477.87 3.36442 3.4933 0
M  V30 15205 H 1473.75 2.25696 4.01973 0
M  V30 15206 H 1477.29 5.7091 4.00884 0
M  V30 15207 H 1473.19 4.59262 4.53595 0
M  V30 15208 H 1473.96 6.65593 4.7637 0
M  V30 15209 N 1476.62 -1.31073 0.875073 0
M  V30 15210 C 1477.58 -2.26672 0.339481 0
M  V30 15211 C 1478.58 -1.52416 -0.512439 0
M  V30 15212 O 1479.77 -1.71217 -0.321012 0
M  V30 15213 C 1476.91 -3.36952 -0.517311 0
M  V30 15214 H 1478.1 -2.7556 1.18349 0
M  V30 15215 H 1475.65 -1.42093 0.65109 0
M  V30 15216 H 1476.39 -2.93364 -1.38231 0
M  V30 15217 H 1476.17 -3.9199 0.092773 0
M  V30 15218 H 1477.66 -4.08133 -0.884154 0
M  V30 15219 N 1478.1 -0.635022 -1.4424 0
M  V30 15220 C 1479.34 -0.144429 -2.03889 0
M  V30 15221 C 1479.7 1.21217 -1.48897 0
M  V30 15222 O 1480.91 1.79511 -2.00073 0
M  V30 15223 C 1479.18 -0.134776 -3.57146 0
M  V30 15224 S 1480.74 0.290628 -4.37836 0
M  V30 15225 H 1477.55 -0.0629965 -0.708204 0
M  V30 15226 H 1480.16 -0.839284 -1.76568 0
M  V30 15227 H 1478.86 -1.12516 -3.94675 0
M  V30 15228 H 1478.39 0.581202 -3.89083 0
M  V30 15229 H 1480.41 1.53392 -4.71896 0
M  V30 15230 N 1479.58 1.53054 -0.375806 0
M  V30 15231 C 1480.53 2.27576 0.480838 0
M  V30 15232 C 1481.52 1.30948 1.07466 0
M  V30 15233 O 1482.73 1.48538 1.01669 0
M  V30 15234 H 1479.1 0.731641 0.173799 0
M  V30 15235 H 1481.07 2.97919 -0.169327 0
M  V30 15236 C 1479.82 3.08533 1.60321 0
M  V30 15237 H 1479.14 3.82735 1.15558 0
M  V30 15238 H 1480.58 3.63837 2.17712 0
M  V30 15239 C 1479.04 2.20004 2.55147 0
M  V30 15240 O 1479.57 1.81771 3.58221 0
M  V30 15241 N 1477.78 1.84433 2.24573 0
M  V30 15242 H 1477.33 2.15723 1.40788 0
M  V30 15243 H 1477.28 1.25488 2.88271 0
M  V30 15244 N 1481.06 0.105248 1.57248 0
M  V30 15245 C 1482.3 -0.559306 1.96599 0
M  V30 15246 C 1482.66 -1.64717 0.986529 0
M  V30 15247 O 1483.86 -2.36965 1.2689 0
M  V30 15248 C 1482.13 -1.09085 3.40346 0
M  V30 15249 S 1483.69 -1.76586 4.017 0
M  V30 15250 H 1480.51 -0.182213 0.687255 0
M  V30 15251 H 1483.11 0.187064 1.94603 0
M  V30 15252 H 1481.82 -0.287734 4.0939 0
M  V30 15253 H 1481.35 -1.87282 3.45961 0
M  V30 15254 H 1483.36 -3.05078 3.91334 0
M  V30 15255 N 1482.53 -1.56697 -0.168486 0
M  V30 15256 C 1483.78 -1.82424 -0.885965 0
M  V30 15257 C 1484.11 -0.683543 -1.81773 0
M  V30 15258 O 1483.39 0.314319 -1.91943 0
M  V30 15259 C 1483.67 -3.18553 -1.67917 0
M  V30 15260 C 1483.52 -4.43154 -0.770343 0
M  V30 15261 C 1484.84 -3.51654 -2.64627 0
M  V30 15262 H 1481.96 -0.663594 -0.320644 0
M  V30 15263 H 1484.6 -1.89391 -0.15205 0
M  V30 15264 H 1482.75 -3.12745 -2.30484 0
M  V30 15265 H 1484.43 -4.61032 -0.157328 0
M  V30 15266 H 1482.67 -4.33729 -0.0785653 0
M  V30 15267 H 1483.34 -5.34961 -1.36092 0
M  V30 15268 H 1485.82 -3.57934 -2.12185 0
M  V30 15269 H 1484.69 -4.47975 -3.17191 0
M  V30 15270 H 1484.95 -2.76503 -3.44961 0
M  V30 15271 N 1484.01 0.437135 -1.51416 0
M  V30 15272 C 1485.26 1.18831 -1.64338 0
M  V30 15273 C 1485.59 1.9086 -0.358638 0
M  V30 15274 O 1484.87 1.83607 0.641769 0
M  V30 15275 C 1485.15 2.20515 -2.84685 0
M  V30 15276 C 1485 1.52568 -4.23135 0
M  V30 15277 C 1486.32 3.21494 -3.00549 0
M  V30 15278 H 1483.44 0.430652 -0.598087 0
M  V30 15279 H 1486.08 0.47753 -1.83901 0
M  V30 15280 H 1484.23 2.81132 -2.68136 0
M  V30 15281 H 1485.9 0.952851 -4.51352 0
M  V30 15282 H 1484.15 0.828025 -4.25824 0
M  V30 15283 H 1484.82 2.26623 -5.03335 0
M  V30 15284 H 1487.29 2.7093 -3.1581 0
M  V30 15285 H 1486.17 3.89934 -3.86319 0
M  V30 15286 H 1486.43 3.8761 -2.12629 0
M  V30 15287 N 1485.49 1.41566 0.692592 0
M  V30 15288 C 1486.74 1.40805 1.44978 0
M  V30 15289 C 1487.06 0.0191039 1.94991 0
M  V30 15290 O 1486.33 -0.939544 1.71899 0
M  V30 15291 H 1484.91 0.518293 0.537942 0
M  V30 15292 H 1487.57 1.76831 0.81956 0
M  V30 15293 H 1486.67 2.09706 2.31149 0
M  V30 15294 N 1486.97 -0.927146 1.27443 0
M  V30 15295 C 1488.2 -1.70648 1.1646 0
M  V30 15296 C 1488.61 -1.871 -0.28114 0
M  V30 15297 O 1487.95 -1.38813 -1.20319 0
M  V30 15298 C 1488.01 -3.12542 1.77646 0
M  V30 15299 C 1487.68 -3.19425 3.26828 0
M  V30 15300 C 1488.67 -3.01633 4.23454 0
M  V30 15301 C 1486.36 -3.42366 3.67547 0
M  V30 15302 C 1488.35 -3.06672 5.58776 0
M  V30 15303 C 1486.04 -3.47039 5.02998 0
M  V30 15304 C 1487.04 -3.2921 5.98423 0
M  V30 15305 O 1486.72 -3.33619 7.31405 0
M  V30 15306 H 1486.46 -0.540657 0.40579 0
M  V30 15307 H 1489.01 -1.16983 1.68832 0
M  V30 15308 H 1487.24 -3.67691 1.19752 0
M  V30 15309 H 1488.93 -3.72445 1.61369 0
M  V30 15310 H 1489.7 -2.8375 3.93333 0
M  V30 15311 H 1485.57 -3.55294 2.93747 0
M  V30 15312 H 1489.12 -2.92674 6.33236 0
M  V30 15313 H 1485.02 -3.64446 5.32775 0
M  V30 15314 H 1485.78 -3.5007 7.3986 0
M  V30 15315 N 1488.45 -1.09474 -1.13372 0
M  V30 15316 C 1489.7 -0.825968 -1.84013 0
M  V30 15317 C 1490.01 0.650623 -1.84462 0
M  V30 15318 O 1491.21 1.03495 -2.51 0
M  V30 15319 C 1489.67 -1.42769 -3.30371 0
M  V30 15320 C 1489.28 -2.93686 -3.38308 0
M  V30 15321 C 1491.02 -1.23788 -4.0605 0
M  V30 15322 C 1488.93 -3.46942 -4.78942 0
M  V30 15323 H 1487.86 -0.305322 -0.689416 0
M  V30 15324 H 1490.51 -1.31751 -1.27726 0
M  V30 15325 H 1488.89 -0.86384 -3.86463 0
M  V30 15326 H 1490.07 -3.56302 -2.92208 0
M  V30 15327 H 1488.38 -3.11706 -2.76094 0
M  V30 15328 H 1490.98 -1.61031 -5.09876 0
M  V30 15329 H 1491.32 -0.178578 -4.15917 0
M  V30 15330 H 1491.85 -1.76927 -3.56289 0
M  V30 15331 H 1488.59 -4.52495 -4.74267 0
M  V30 15332 H 1488.11 -2.8909 -5.25535 0
M  V30 15333 H 1489.79 -3.44176 -5.47861 0
M  V30 15334 N 1489.92 1.30607 -0.882012 0
M  V30 15335 C 1491.17 1.95869 -0.497978 0
M  V30 15336 C 1491.49 1.69991 0.955405 0
M  V30 15337 O 1490.76 1.02188 1.67136 0
M  V30 15338 H 1489.34 0.724699 -0.181165 0
M  V30 15339 H 1492.01 1.59193 -1.12444 0
M  V30 15340 H 1491.1 3.04917 -0.665754 0
M  V30 15341 N 1491.4 0.642663 1.43901 0
M  V30 15342 C 1492.31 -0.0562462 2.34533 0
M  V30 15343 C 1493.33 -0.823457 1.53281 0
M  V30 15344 O 1494.5 -0.773103 1.85971 0
M  V30 15345 C 1491.57 -1.01787 3.31422 0
M  V30 15346 C 1490.63 -0.248759 4.28579 0
M  V30 15347 C 1489.86 -1.16458 5.20839 0
M  V30 15348 O 1490.09 -2.40361 5.17284 0
M  V30 15349 O 1489.02 -0.642671 5.98459 0
M  V30 15350 H 1492.85 0.689476 2.9577 0
M  V30 15351 H 1490.43 0.402847 1.43866 0
M  V30 15352 H 1492.31 -1.5708 3.91029 0
M  V30 15353 H 1490.99 -1.744 2.72702 0
M  V30 15354 H 1489.9 0.347495 3.72483 0
M  V30 15355 H 1491.23 0.437589 4.90251 0
M  V30 15356 N 1492.88 -1.52852 0.383918 0
M  V30 15357 C 1494.3 -1.59565 0.0336391 0
M  V30 15358 C 1494.5 -1.39819 -1.45097 0
M  V30 15359 O 1493.55 -1.21249 -2.21484 0
M  V30 15360 C 1494.87 -2.96412 0.506001 0
M  V30 15361 C 1496.41 -3.09575 0.461794 0
M  V30 15362 C 1496.89 -4.48863 0.910259 0
M  V30 15363 N 1498.38 -4.55032 0.866053 0
M  V30 15364 C 1499.12 -5.61032 1.18453 0
M  V30 15365 N 1498.61 -6.74701 1.57321 0
M  V30 15366 N 1500.4 -5.51109 1.10613 0
M  V30 15367 H 1492.56 -1.63937 1.3505 0
M  V30 15368 H 1494.82 -0.769857 0.553194 0
M  V30 15369 H 1494.52 -3.16061 1.54268 0
M  V30 15370 H 1494.4 -3.77073 -0.0977643 0
M  V30 15371 H 1496.79 -2.89625 -0.565786 0
M  V30 15372 H 1496.87 -2.30879 1.10129 0
M  V30 15373 H 1496.51 -4.69553 1.93604 0
M  V30 15374 H 1496.44 -5.26017 0.247825 0
M  V30 15375 H 1498.93 -3.73423 0.579962 0
M  V30 15376 H 1499.24 -7.51545 1.8 0
M  V30 15377 H 1497.59 -6.76046 1.61203 0
M  V30 15378 H 1500.78 -4.61187 0.801531 0
M  V30 15379 H 1500.95 -6.33618 1.35766 0
M  V30 15380 N 1494.36 -0.113586 -1.5719 0
M  V30 15381 C 1495.6 0.548872 -1.96893 0
M  V30 15382 C 1495.96 1.64191 -0.99525 0
M  V30 15383 O 1497.16 2.36289 -1.28145 0
M  V30 15384 C 1495.44 1.07279 -3.40919 0
M  V30 15385 S 1496.99 1.74453 -4.02631 0
M  V30 15386 H 1493.81 0.178565 -0.688212 0
M  V30 15387 H 1496.41 -0.197382 -1.94501 0
M  V30 15388 H 1495.12 0.266019 -4.09537 0
M  V30 15389 H 1494.65 1.85444 -3.46949 0
M  V30 15390 H 1496.66 3.02998 -3.92946 0
M  V30 15391 N 1495.84 1.56784 0.160173 0
M  V30 15392 C 1496.77 1.93848 1.22293 0
M  V30 15393 C 1497.78 0.832803 1.39886 0
M  V30 15394 O 1498.97 1.11124 1.39692 0
M  V30 15395 C 1496.07 2.18581 2.58989 0
M  V30 15396 C 1495.24 3.49839 2.62548 0
M  V30 15397 C 1494.3 3.63268 3.80687 0
M  V30 15398 O 1493.33 4.35785 3.6617 0
M  V30 15399 N 1494.53 2.98948 4.97605 0
M  V30 15400 H 1497.3 2.85614 0.908004 0
M  V30 15401 H 1494.86 1.58075 0.349851 0
M  V30 15402 H 1496.85 2.24819 3.36509 0
M  V30 15403 H 1495.42 1.33145 2.82827 0
M  V30 15404 H 1494.64 3.5516 1.7104 0
M  V30 15405 H 1495.93 4.3619 2.61945 0
M  V30 15406 H 1495.33 2.39924 5.12302 0
M  V30 15407 H 1493.88 3.10765 5.72947 0
M  V30 15408 N 1497.32 -0.429099 1.51646 0
M  V30 15409 C 1498.55 -1.19832 1.68297 0
M  V30 15410 C 1498.95 -1.85275 0.383378 0
M  V30 15411 O 1498.3 -1.71862 -0.648771 0
M  V30 15412 C 1498.36 -2.31803 2.74786 0
M  V30 15413 C 1498.02 -1.8666 4.17141 0
M  V30 15414 C 1499.02 -1.36544 5.01649 0
M  V30 15415 C 1496.7 -1.94101 4.63282 0
M  V30 15416 C 1498.7 -0.944655 6.30361 0
M  V30 15417 C 1496.39 -1.51634 5.91988 0
M  V30 15418 C 1497.38 -1.01899 6.75356 0
M  V30 15419 O 1497.07 -0.600375 8.01655 0
M  V30 15420 H 1496.8 -0.366924 0.567752 0
M  V30 15421 H 1499.36 -0.513643 1.98874 0
M  V30 15422 H 1497.59 -3.03573 2.39542 0
M  V30 15423 H 1499.28 -2.93639 2.80234 0
M  V30 15424 H 1500.04 -1.30184 4.67201 0
M  V30 15425 H 1495.92 -2.31758 3.98509 0
M  V30 15426 H 1499.47 -0.555763 6.95383 0
M  V30 15427 H 1495.36 -1.57667 6.25948 0
M  V30 15428 H 1496.13 -0.725485 8.15278 0
M  V30 15429 N 1498.79 -1.41931 -0.685074 0
M  V30 15430 C 1500.21 -1.24631 -0.996957 0
M  V30 15431 C 1500.41 -0.143146 -2.00991 0
M  V30 15432 O 1499.47 0.489012 -2.47719 0
M  V30 15433 C 1500.78 -2.59947 -1.51156 0
M  V30 15434 C 1502.33 -2.67216 -1.62986 0
M  V30 15435 C 1502.8 -4.02874 -2.17845 0
M  V30 15436 N 1504.29 -4.04775 -2.25192 0
M  V30 15437 C 1505.03 -5.0655 -2.68691 0
M  V30 15438 N 1504.52 -6.18712 -3.11717 0
M  V30 15439 N 1506.32 -4.93909 -2.68348 0
M  V30 15440 H 1498.47 -2.12395 -0.0142223 0
M  V30 15441 H 1500.73 -0.945496 -0.0688552 0
M  V30 15442 H 1500.44 -3.41477 -0.841793 0
M  V30 15443 H 1500.31 -2.83159 -2.49201 0
M  V30 15444 H 1502.7 -1.86038 -2.29071 0
M  V30 15445 H 1502.78 -2.47804 -0.634584 0
M  V30 15446 H 1502.42 -4.84505 -1.52372 0
M  V30 15447 H 1502.35 -4.19633 -3.18144 0
M  V30 15448 H 1504.84 -3.23798 -1.94841 0
M  V30 15449 H 1505.16 -6.9223 -3.43565 0
M  V30 15450 H 1503.5 -6.22232 -3.096 0
M  V30 15451 H 1506.69 -4.05364 -2.34089 0
M  V30 15452 H 1506.87 -5.73361 -3.01929 0
M  V30 15453 N 1500.27 0.920374 -1.27933 0
M  V30 15454 C 1501.55 1.64765 -1.05413 0
M  V30 15455 C 1501.93 2.07106 0.408717 0
M  V30 15456 O 1501.28 1.81094 1.39346 0
M  V30 15457 C 1501.49 2.84417 -2.02257 0
M  V30 15458 C 1502.83 3.5559 -2.32036 0
M  V30 15459 O 1503.86 2.94555 -2.00289 0
M  V30 15460 O 1502.72 4.65574 -2.86187 0
M  V30 15461 H 1499.81 0.722503 -0.402391 0
M  V30 15462 H 1502.36 0.970263 -1.39226 0
M  V30 15463 H 1501.13 2.50174 -3.0088 0
M  V30 15464 H 1500.75 3.59872 -1.6905 0
M  V30 15465 N 1501.75 1.10074 1.1279 0
M  V30 15466 C 1502.68 0.768146 2.20503 0
M  V30 15467 C 1503.66 -0.257199 1.68144 0
M  V30 15468 O 1504.85 -0.12379 1.93805 0
M  V30 15469 C 1501.98 0.195125 3.46751 0
M  V30 15470 C 1500.93 1.15074 4.1224 0
M  V30 15471 C 1500.26 0.439098 5.32894 0
M  V30 15472 C 1501.56 2.49584 4.58808 0
M  V30 15473 H 1503.25 1.66876 2.48581 0
M  V30 15474 H 1500.8 0.803806 1.19478 0
M  V30 15475 H 1502.75 -0.0496695 4.21371 0
M  V30 15476 H 1501.47 -0.740717 3.1809 0
M  V30 15477 H 1500.13 1.38092 3.39597 0
M  V30 15478 H 1499.78 -0.501096 5.00498 0
M  V30 15479 H 1499.48 1.07632 5.77658 0
M  V30 15480 H 1501 0.202761 6.10263 0
M  V30 15481 H 1502.42 2.30736 5.24818 0
M  V30 15482 H 1500.81 3.09157 5.14336 0
M  V30 15483 H 1501.88 3.09857 3.72984 0
M  V30 15484 N 1503.23 -1.30138 0.888926 0
M  V30 15485 C 1504.17 -2.28023 0.356923 0
M  V30 15486 C 1505.14 -1.56551 -0.555066 0
M  V30 15487 O 1506.33 -1.84595 -0.482633 0
M  V30 15488 C 1503.47 -3.42546 -0.419056 0
M  V30 15489 C 1502.58 -4.28827 0.5226 0
M  V30 15490 C 1501.72 -5.30517 -0.269366 0
M  V30 15491 C 1500.76 -6.08449 0.667507 0
M  V30 15492 N 1499.89 -7.02043 -0.08938 0
M  V30 15493 H 1504.73 -2.72912 1.19678 0
M  V30 15494 H 1502.27 -1.34239 0.60152 0
M  V30 15495 H 1504.23 -4.07707 -0.884911 0
M  V30 15496 H 1502.86 -2.98716 -1.22346 0
M  V30 15497 H 1501.91 -3.63938 1.10695 0
M  V30 15498 H 1503.22 -4.83136 1.24018 0
M  V30 15499 H 1502.38 -6.01444 -0.796901 0
M  V30 15500 H 1501.12 -4.76911 -1.02014 0
M  V30 15501 H 1500.12 -5.36396 1.20664 0
M  V30 15502 H 1501.35 -6.64143 1.41744 0
M  V30 15503 H 1499.29 -6.50822 -0.822622 0
M  V30 15504 H 1499.21 -7.53859 0.568499 0
M  V30 15505 H 1500.48 -7.77206 -0.597529 0
M  V30 15506 N 1504.71 -0.650285 -1.43559 0
M  V30 15507 C 1505.95 -0.171315 -2.02677 0
M  V30 15508 C 1506.31 1.20031 -1.50367 0
M  V30 15509 O 1505.6 1.78901 -0.685922 0
M  V30 15510 C 1505.79 -0.119084 -3.57202 0
M  V30 15511 C 1505.62 -1.4841 -4.24505 0
M  V30 15512 C 1504.39 -2.07575 -4.60696 0
M  V30 15513 C 1506.59 -2.42191 -4.53705 0
M  V30 15514 N 1504.57 -3.37112 -5.13058 0
M  V30 15515 C 1505.94 -3.56359 -5.07354 0
M  V30 15516 C 1508 -2.4103 -4.35671 0
M  V30 15517 C 1506.7 -4.69587 -5.44868 0
M  V30 15518 C 1508.73 -3.53336 -4.74244 0
M  V30 15519 C 1508.09 -4.66229 -5.28024 0
M  V30 15520 H 1504.19 -0.107051 -0.774638 0
M  V30 15521 H 1506.77 -0.857951 -1.74778 0
M  V30 15522 H 1504.94 0.536887 -3.84671 0
M  V30 15523 H 1506.68 0.370487 -4.03001 0
M  V30 15524 H 1503.43 -1.60315 -4.45641 0
M  V30 15525 H 1503.85 -4.03392 -5.43695 0
M  V30 15526 H 1508.5 -1.54988 -3.93368 0
M  V30 15527 H 1506.21 -5.56322 -5.86115 0
M  V30 15528 H 1509.8 -3.53636 -4.61988 0
M  V30 15529 H 1508.68 -5.51693 -5.57319 0
M  V30 15530 N 1506.18 1.52647 -0.392018 0
M  V30 15531 C 1507.43 2.02584 0.182039 0
M  V30 15532 C 1507.78 1.27325 1.44243 0
M  V30 15533 O 1507.08 0.365951 1.88073 0
M  V30 15534 C 1507.27 3.53872 0.500914 0
M  V30 15535 C 1507.1 4.43784 -0.727027 0
M  V30 15536 C 1505.87 4.89669 -1.24711 0
M  V30 15537 C 1508.07 4.88774 -1.60014 0
M  V30 15538 N 1506.05 5.63659 -2.43231 0
M  V30 15539 C 1507.42 5.61373 -2.63174 0
M  V30 15540 C 1509.48 4.70811 -1.61992 0
M  V30 15541 C 1508.18 6.17916 -3.68202 0
M  V30 15542 C 1510.21 5.28239 -2.65927 0
M  V30 15543 C 1509.57 6.00746 -3.6781 0
M  V30 15544 H 1505.67 0.781476 0.0286289 0
M  V30 15545 H 1508.25 1.86989 -0.54252 0
M  V30 15546 H 1506.42 3.69575 1.19453 0
M  V30 15547 H 1508.15 3.90507 1.06236 0
M  V30 15548 H 1504.91 4.66662 -0.807697 0
M  V30 15549 H 1505.33 6.05305 -3.03208 0
M  V30 15550 H 1509.97 4.14256 -0.845699 0
M  V30 15551 H 1507.69 6.73552 -4.4649 0
M  V30 15552 H 1511.28 5.1622 -2.68344 0
M  V30 15553 H 1510.16 6.44389 -4.46914 0
M  V30 15554 N 1507.66 0.121921 1.57128 0
M  V30 15555 C 1508.57 -0.840825 2.19014 0
M  V30 15556 C 1509.59 -1.29051 1.16712 0
M  V30 15557 O 1510.76 -1.35289 1.49194 0
M  V30 15558 C 1507.83 -2.07204 2.7797 0
M  V30 15559 C 1506.89 -1.67399 3.95318 0
M  V30 15560 C 1506.12 -2.84652 4.51452 0
M  V30 15561 O 1506.35 -4.00161 4.06482 0
M  V30 15562 O 1505.28 -2.61568 5.42094 0
M  V30 15563 H 1509.11 -0.344146 3.01744 0
M  V30 15564 H 1506.69 -0.103841 1.49039 0
M  V30 15565 H 1508.57 -2.79307 3.1554 0
M  V30 15566 H 1507.25 -2.55872 1.9827 0
M  V30 15567 H 1506.16 -0.92395 3.62511 0
M  V30 15568 H 1507.49 -1.2347 4.76462 0
M  V30 15569 N 1509.14 -1.56867 -0.151857 0
M  V30 15570 C 1510.07 -2.00932 -1.18949 0
M  V30 15571 C 1511.05 -0.888062 -1.45077 0
M  V30 15572 O 1512.24 -1.15553 -1.56081 0
M  V30 15573 C 1509.37 -2.3858 -2.52383 0
M  V30 15574 C 1508.32 -3.53845 -2.40785 0
M  V30 15575 C 1507.65 -3.77292 -3.78886 0
M  V30 15576 C 1508.95 -4.8667 -1.89605 0
M  V30 15577 H 1510.64 -2.87863 -0.823107 0
M  V30 15578 H 1508.19 -1.38491 -0.394499 0
M  V30 15579 H 1510.14 -2.68006 -3.25193 0
M  V30 15580 H 1508.86 -1.48579 -2.90847 0
M  V30 15581 H 1507.52 -3.24577 -1.70427 0
M  V30 15582 H 1507.17 -2.84551 -4.14777 0
M  V30 15583 H 1506.87 -4.54861 -3.71989 0
M  V30 15584 H 1508.39 -4.09139 -4.53252 0
M  V30 15585 H 1509.81 -5.14846 -2.52204 0
M  V30 15586 H 1508.21 -5.6801 -1.93609 0
M  V30 15587 H 1509.28 -4.77366 -0.851438 0
M  V30 15588 N 1510.62 0.421051 -1.51871 0
M  V30 15589 C 1512.03 0.758781 -1.40409 0
M  V30 15590 C 1512.23 1.95219 -0.499197 0
M  V30 15591 O 1511.29 2.52469 0.0395216 0
M  V30 15592 C 1512.6 1.02388 -2.82731 0
M  V30 15593 C 1514.15 1.12733 -2.91994 0
M  V30 15594 C 1514.63 1.42527 -4.35259 0
M  V30 15595 N 1516.12 1.49417 -4.38439 0
M  V30 15596 C 1516.85 1.74074 -5.46339 0
M  V30 15597 N 1516.35 1.96414 -6.64375 0
M  V30 15598 N 1518.14 1.7599 -5.33839 0
M  V30 15599 H 1510.29 -0.364682 -2.09246 0
M  V30 15600 H 1512.56 -0.100819 -0.942624 0
M  V30 15601 H 1512.26 0.219491 -3.51014 0
M  V30 15602 H 1512.14 1.94724 -3.23052 0
M  V30 15603 H 1514.52 1.92233 -2.23899 0
M  V30 15604 H 1514.6 0.182611 -2.55147 0
M  V30 15605 H 1514.25 0.635486 -5.03909 0
M  V30 15606 H 1514.18 2.38231 -4.69631 0
M  V30 15607 H 1516.67 1.3399 -3.53348 0
M  V30 15608 H 1516.98 2.14644 -7.42393 0
M  V30 15609 H 1515.33 1.93702 -6.67461 0
M  V30 15610 H 1518.52 1.58067 -4.40605 0
M  V30 15611 H 1518.69 1.94868 -6.18005 0
M  V30 15612 N 1512.1 1.42293 0.677538 0
M  V30 15613 C 1513.05 1.42014 1.78371 0
M  V30 15614 C 1514.03 0.291863 1.58231 0
M  V30 15615 O 1515.22 0.533888 1.68756 0
M  V30 15616 C 1512.35 1.32233 3.16811 0
M  V30 15617 C 1511.44 2.49995 3.42584 0
M  V30 15618 N 1511.83 3.75424 3.38955 0
M  V30 15619 C 1510.13 2.44196 3.73208 0
M  V30 15620 C 1510.83 4.53631 3.64135 0
M  V30 15621 N 1509.8 3.84001 3.84765 0
M  V30 15622 H 1513.61 2.3689 1.73954 0
M  V30 15623 H 1511.12 1.36603 0.878266 0
M  V30 15624 H 1513.12 1.30115 3.96075 0
M  V30 15625 H 1511.78 0.383559 3.22427 0
M  V30 15626 H 1512.79 4.08057 3.18919 0
M  V30 15627 H 1509.46 1.58884 3.86085 0
M  V30 15628 H 1510.85 5.6261 3.67314 0
M  V30 15629 N 1513.57 -0.913576 1.28419 0
M  V30 15630 C 1514.54 -1.99757 1.12382 0
M  V30 15631 C 1515.54 -1.60675 0.063435 0
M  V30 15632 O 1516.73 -1.71433 0.30923 0
M  V30 15633 C 1513.86 -3.33307 0.715506 0
M  V30 15634 H 1515.05 -2.15414 2.08655 0
M  V30 15635 H 1512.61 -1.09626 1.11408 0
M  V30 15636 H 1513.34 -3.23351 -0.247977 0
M  V30 15637 H 1513.13 -3.63034 1.4815 0
M  V30 15638 H 1514.62 -4.12882 0.625953 0
M  V30 15639 N 1515.05 -1.1067 -1.12204 0
M  V30 15640 C 1516.3 -0.84895 -1.83405 0
M  V30 15641 C 1516.62 0.62724 -1.84637 0
M  V30 15642 O 1515.89 1.45546 -1.31123 0
M  V30 15643 H 1514.47 -0.311074 -0.679148 0
M  V30 15644 H 1517.13 -1.39747 -1.35856 0
M  V30 15645 H 1516.23 -1.21398 -2.87522 0
M  V30 15646 N 1516.53 1.29665 -0.895815 0
M  V30 15647 C 1517.48 2.2542 -0.34201 0
M  V30 15648 C 1518.46 1.5172 0.535712 0
M  V30 15649 O 1519.66 1.72909 0.378364 0
M  V30 15650 C 1516.79 3.4056 0.43287 0
M  V30 15651 C 1515.87 4.21603 -0.459552 0
M  V30 15652 N 1516.26 4.8098 -1.565 0
M  V30 15653 C 1514.56 4.45261 -0.256632 0
M  V30 15654 C 1515.26 5.41792 -2.11746 0
M  V30 15655 N 1514.24 5.24968 -1.411 0
M  V30 15656 H 1518.04 2.68885 -1.18651 0
M  V30 15657 H 1515.55 1.4423 -0.74643 0
M  V30 15658 H 1517.55 4.08219 0.846334 0
M  V30 15659 H 1516.21 2.98633 1.27468 0
M  V30 15660 H 1517.22 4.79877 -1.94777 0
M  V30 15661 H 1513.9 4.13899 0.547131 0
M  V30 15662 H 1515.29 5.9887 -3.04637 0
M  V30 15663 N 1518.01 0.657889 1.43212 0
M  V30 15664 C 1519.26 0.172845 2.0136 0
M  V30 15665 C 1519.58 -1.21911 1.52193 0
M  V30 15666 O 1518.85 -1.81529 0.736492 0
M  V30 15667 H 1517.43 0.0609091 0.744513 0
M  V30 15668 H 1520.09 0.850605 1.75359 0
M  V30 15669 H 1519.19 0.161062 3.11684 0
M  V30 15670 N 1519.49 -1.52437 0.400108 0
M  V30 15671 C 1520.42 -2.24433 -0.465038 0
M  V30 15672 C 1521.43 -1.27067 -1.01773 0
M  V30 15673 O 1522.62 -1.53072 -0.918215 0
M  V30 15674 C 1519.72 -2.95555 -1.65832 0
M  V30 15675 C 1518.89 -4.19717 -1.2311 0
M  V30 15676 C 1517.95 -4.73743 -2.29028 0
M  V30 15677 O 1516.98 -5.36556 -1.8999 0
M  V30 15678 N 1518.18 -4.54534 -3.6108 0
M  V30 15679 H 1520.95 -2.99315 0.151839 0
M  V30 15680 H 1518.51 -1.603 0.227019 0
M  V30 15681 H 1520.5 -3.28595 -2.36235 0
M  V30 15682 H 1519.07 -2.23915 -2.18131 0
M  V30 15683 H 1518.29 -3.92593 -0.355537 0
M  V30 15684 H 1519.58 -5.00367 -0.922487 0
M  V30 15685 H 1518.97 -4.04419 -3.95552 0
M  V30 15686 H 1517.53 -4.92035 -4.27486 0
M  V30 15687 N 1520.96 -0.130252 -1.57061 0
M  V30 15688 C 1521.9 0.846442 -2.12998 0
M  V30 15689 C 1522.91 1.22229 -1.07536 0
M  V30 15690 O 1524.1 1.16928 -1.34871 0
M  V30 15691 C 1521.2 2.14481 -2.62395 0
M  V30 15692 C 1520.37 1.93892 -3.92077 0
M  V30 15693 C 1519.43 3.07562 -4.26957 0
M  V30 15694 O 1518.46 2.79983 -4.95578 0
M  V30 15695 N 1519.66 4.34297 -3.85184 0
M  V30 15696 H 1522.42 0.368471 -2.97426 0
M  V30 15697 H 1519.98 0.0538355 -1.6181 0
M  V30 15698 H 1521.98 2.8954 -2.82752 0
M  V30 15699 H 1520.55 2.53592 -1.82784 0
M  V30 15700 H 1519.77 1.02962 -3.80516 0
M  V30 15701 H 1521.05 1.77454 -4.76852 0
M  V30 15702 H 1520.45 4.59575 -3.29859 0
M  V30 15703 H 1519.01 5.06191 -4.10626 0
M  V30 15704 N 1522.44 1.56945 0.143535 0
M  V30 15705 C 1523.38 1.95134 1.2023 0
M  V30 15706 C 1524.39 0.847593 1.38995 0
M  V30 15707 O 1525.58 1.12599 1.38505 0
M  V30 15708 C 1522.68 2.21316 2.56656 0
M  V30 15709 C 1521.85 3.52604 2.58822 0
M  V30 15710 C 1520.91 3.67285 3.76813 0
M  V30 15711 O 1519.94 4.39644 3.61527 0
M  V30 15712 N 1521.14 3.04208 4.94406 0
M  V30 15713 H 1523.9 2.86561 0.87766 0
M  V30 15714 H 1521.46 1.58437 0.333065 0
M  V30 15715 H 1523.46 2.28375 3.34106 0
M  V30 15716 H 1522.03 1.36137 2.81399 0
M  V30 15717 H 1521.25 3.56954 1.67264 0
M  V30 15718 H 1522.53 4.38944 2.57304 0
M  V30 15719 H 1521.93 2.45344 5.09728 0
M  V30 15720 H 1520.49 3.16824 5.69619 0
M  V30 15721 N 1523.92 -0.412991 1.52093 0
M  V30 15722 C 1524.87 -1.50294 1.75158 0
M  V30 15723 C 1525.84 -1.55119 0.593902 0
M  V30 15724 O 1527.02 -1.71751 0.831032 0
M  V30 15725 C 1524.16 -2.87781 1.90463 0
M  V30 15726 C 1523.28 -2.92295 3.181 0
M  V30 15727 C 1522.41 -4.21056 3.23859 0
M  V30 15728 C 1521.45 -4.1953 4.45714 0
M  V30 15729 N 1520.59 -5.39857 4.48886 0
M  V30 15730 H 1525.43 -1.29927 2.68185 0
M  V30 15731 H 1522.96 -0.630741 1.32891 0
M  V30 15732 H 1524.92 -3.67588 1.9732 0
M  V30 15733 H 1523.55 -3.06651 1.00822 0
M  V30 15734 H 1522.6 -2.05002 3.20434 0
M  V30 15735 H 1523.92 -2.87031 4.0794 0
M  V30 15736 H 1523.07 -5.09253 3.29767 0
M  V30 15737 H 1521.81 -4.2901 2.31952 0
M  V30 15738 H 1520.81 -3.29724 4.39957 0
M  V30 15739 H 1522.04 -4.1322 5.38912 0
M  V30 15740 H 1519.99 -5.48486 3.59861 0
M  V30 15741 H 1519.9 -5.36572 5.32566 0
M  V30 15742 H 1521.17 -6.30018 4.59018 0
M  V30 15743 N 1525.4 -1.4265 -0.669982 0
M  V30 15744 C 1526.65 -1.43589 -1.43213 0
M  V30 15745 C 1526.98 -0.0537998 -1.94125 0
M  V30 15746 O 1526.25 0.922727 -1.71219 0
M  V30 15747 C 1526.54 -2.46433 -2.62569 0
M  V30 15748 C 1526.39 -3.93851 -2.17258 0
M  V30 15749 C 1527.71 -2.46208 -3.64787 0
M  V30 15750 H 1524.83 -0.522859 -0.519411 0
M  V30 15751 H 1527.47 -1.74094 -0.760997 0
M  V30 15752 H 1525.62 -2.20551 -3.19828 0
M  V30 15753 H 1527.29 -4.30732 -1.6513 0
M  V30 15754 H 1525.53 -4.07487 -1.48786 0
M  V30 15755 H 1526.21 -4.61398 -3.03012 0
M  V30 15756 H 1528.68 -2.69237 -3.17255 0
M  V30 15757 H 1527.56 -3.20138 -4.45873 0
M  V30 15758 H 1527.82 -1.48979 -4.16242 0
M  V30 15759 N 1526.88 0.906753 -1.28902 0
M  V30 15760 C 1528.13 1.65119 -1.15839 0
M  V30 15761 C 1528.44 1.93426 0.290825 0
M  V30 15762 O 1529.65 2.66021 0.542678 0
M  V30 15763 C 1528.1 2.97492 -2.0255 0
M  V30 15764 C 1527.71 2.76807 -3.52253 0
M  V30 15765 C 1529.45 3.75393 -1.98192 0
M  V30 15766 C 1527.36 4.04863 -4.31091 0
M  V30 15767 H 1526.29 0.619409 -0.429939 0
M  V30 15768 H 1528.94 1.00567 -1.53488 0
M  V30 15769 H 1527.32 3.63217 -1.57763 0
M  V30 15770 H 1528.5 2.19719 -4.05044 0
M  V30 15771 H 1526.81 2.1231 -3.58209 0
M  V30 15772 H 1529.41 4.70325 -2.54358 0
M  V30 15773 H 1529.75 4.05074 -0.960267 0
M  V30 15774 H 1530.29 3.16498 -2.40985 0
M  V30 15775 H 1527.02 3.80353 -5.33865 0
M  V30 15776 H 1526.54 4.61537 -3.83072 0
M  V30 15777 H 1528.22 4.73066 -4.41381 0
M  V30 15778 N 1528.36 1.11264 1.11616 0
M  V30 15779 C 1529.6 0.861639 1.83585 0
M  V30 15780 C 1529.93 -0.611221 1.8433 0
M  V30 15781 O 1529.21 -1.45116 1.29505 0
M  V30 15782 C 1529.49 1.42157 3.30852 0
M  V30 15783 C 1529.35 2.96192 3.38512 0
M  V30 15784 C 1530.66 1.07099 4.2687 0
M  V30 15785 H 1527.78 0.314464 0.666545 0
M  V30 15786 H 1530.43 1.37722 1.30892 0
M  V30 15787 H 1528.58 0.983054 3.75857 0
M  V30 15788 H 1530.25 3.48634 3.0208 0
M  V30 15789 H 1528.49 3.32353 2.7879 0
M  V30 15790 H 1529.16 3.30457 4.42156 0
M  V30 15791 H 1531.64 1.44952 3.90036 0
M  V30 15792 H 1530.51 1.48957 5.28302 0
M  V30 15793 H 1530.77 -0.018482 4.42096 0
M  V30 15794 N 1529.83 -1.29188 0.902679 0
M  V30 15795 C 1531.08 -1.95727 0.530909 0
M  V30 15796 C 1531.41 -1.70971 -0.921014 0
M  V30 15797 O 1530.69 -1.02436 -1.65339 0
M  V30 15798 C 1530.97 -3.50463 0.827523 0
M  V30 15799 C 1530.82 -3.84665 2.33137 0
M  V30 15800 C 1532.14 -4.38964 0.316053 0
M  V30 15801 H 1529.26 -0.71091 0.194361 0
M  V30 15802 H 1531.9 -1.52752 1.1299 0
M  V30 15803 H 1530.05 -3.87199 0.317732 0
M  V30 15804 H 1531.73 -3.57859 2.91093 0
M  V30 15805 H 1529.97 -3.32102 2.79088 0
M  V30 15806 H 1530.64 -4.92676 2.48947 0
M  V30 15807 H 1533.12 -4.09237 0.75262 0
M  V30 15808 H 1531.99 -5.4611 0.552769 0
M  V30 15809 H 1532.25 -4.35105 -0.783329 0
M  V30 15810 N 1531.31 -0.665475 -1.42861 0
M  V30 15811 C 1532.27 0.00932351 -2.29198 0
M  V30 15812 C 1533.27 0.738356 -1.42846 0
M  V30 15813 O 1534.46 0.57776 -1.6434 0
M  V30 15814 C 1531.6 1.02392 -3.25159 0
M  V30 15815 H 1532.79 -0.750481 -2.90358 0
M  V30 15816 H 1530.34 -0.427334 -1.50345 0
M  V30 15817 H 1531.08 1.81254 -2.68919 0
M  V30 15818 H 1530.86 0.504671 -3.88839 0
M  V30 15819 H 1532.35 1.49479 -3.89931 0
M  V30 15820 N 1532.79 1.52222 -0.408187 0
M  V30 15821 C 1534.04 2.02102 0.168154 0
M  V30 15822 C 1534.37 1.2933 1.4487 0
M  V30 15823 O 1533.64 0.399336 1.90356 0
M  V30 15824 C 1533.93 3.57679 0.416821 0
M  V30 15825 C 1533.78 4.41101 -0.880335 0
M  V30 15826 C 1535.1 4.23442 1.19936 0
M  V30 15827 H 1532.22 0.734583 0.0596402 0
M  V30 15828 H 1534.86 1.82121 -0.541467 0
M  V30 15829 H 1533.01 3.74835 1.02131 0
M  V30 15830 H 1534.68 4.35658 -1.51656 0
M  V30 15831 H 1532.92 4.07353 -1.49152 0
M  V30 15832 H 1533.6 5.48031 -0.660748 0
M  V30 15833 H 1536.07 4.10379 0.687605 0
M  V30 15834 H 1534.95 5.32239 1.3421 0
M  V30 15835 H 1535.21 3.82335 2.21973 0
M  V30 15836 N 1534.27 0.138579 1.5699 0
M  V30 15837 C 1535.51 -0.517479 1.97741 0
M  V30 15838 C 1535.87 -1.62587 1.02125 0
M  V30 15839 O 1537.07 -2.3422 1.31888 0
M  V30 15840 C 1535.34 -1.01841 3.42583 0
M  V30 15841 S 1536.9 -1.68025 4.05355 0
M  V30 15842 H 1533.72 -0.167594 0.690965 0
M  V30 15843 H 1536.32 0.2283 1.94162 0
M  V30 15844 H 1535.03 -0.200832 4.09908 0
M  V30 15845 H 1534.56 -1.79901 3.49856 0
M  V30 15846 H 1536.57 -2.96708 3.97717 0
M  V30 15847 N 1535.75 -1.57019 -0.13521 0
M  V30 15848 C 1536.99 -1.84262 -0.847071 0
M  V30 15849 C 1537.32 -0.721946 -1.80282 0
M  V30 15850 O 1536.6 0.273535 -1.92567 0
M  V30 15851 C 1536.88 -3.22043 -1.61123 0
M  V30 15852 C 1536.74 -4.44689 -0.67617 0
M  V30 15853 C 1538.05 -3.57188 -2.57108 0
M  V30 15854 H 1535.17 -0.670246 -0.306496 0
M  V30 15855 H 1537.82 -1.89671 -0.111843 0
M  V30 15856 H 1535.97 -3.17563 -2.23799 0
M  V30 15857 H 1537.64 -4.61262 -0.0595009 0
M  V30 15858 H 1535.88 -4.33798 0.0134526 0
M  V30 15859 H 1536.55 -5.37727 -1.24714 0
M  V30 15860 H 1539.03 -3.62354 -2.04545 0
M  V30 15861 H 1537.9 -4.54602 -3.07617 0
M  V30 15862 H 1538.16 -2.83758 -3.39019 0
M  V30 15863 N 1537.22 0.404919 -1.52309 0
M  V30 15864 C 1538.47 1.15319 -1.66822 0
M  V30 15865 C 1538.8 1.90056 -0.399041 0
M  V30 15866 O 1538.08 1.84927 0.602679 0
M  V30 15867 C 1538.36 2.14426 -2.89298 0
M  V30 15868 C 1538.21 1.43558 -4.26276 0
M  V30 15869 C 1539.53 3.15046 -3.07301 0
M  V30 15870 H 1536.65 0.417869 -0.607087 0
M  V30 15871 H 1539.29 0.438414 -1.84873 0
M  V30 15872 H 1537.44 2.75382 -2.74039 0
M  V30 15873 H 1539.12 0.856899 -4.53271 0
M  V30 15874 H 1537.36 0.737515 -4.27485 0
M  V30 15875 H 1538.03 2.15895 -5.08029 0
M  V30 15876 H 1540.51 2.6417 -3.21486 0
M  V30 15877 H 1539.38 3.81652 -3.94503 0
M  V30 15878 H 1539.64 3.83012 -2.20803 0
M  V30 15879 N 1538.7 1.43003 0.662408 0
M  V30 15880 C 1539.95 1.44346 1.4245 0
M  V30 15881 C 1540.28 0.064094 1.94094 0
M  V30 15882 O 1539.56 -0.913633 1.71706 0
M  V30 15883 C 1539.84 2.47822 2.61259 0
M  V30 15884 C 1539.69 3.94998 2.15166 0
M  V30 15885 C 1541.01 2.48139 3.63476 0
M  V30 15886 H 1538.13 0.525606 0.51663 0
M  V30 15887 H 1540.77 1.74495 0.751754 0
M  V30 15888 H 1538.92 2.22244 3.18653 0
M  V30 15889 H 1540.59 4.31601 1.62843 0
M  V30 15890 H 1538.84 4.0827 1.46622 0
M  V30 15891 H 1539.51 4.62998 3.00561 0
M  V30 15892 H 1541.98 2.70916 3.15823 0
M  V30 15893 H 1540.86 3.22498 4.44169 0
M  V30 15894 H 1541.12 1.51184 4.15447 0
M  V30 15895 N 1540.18 -0.899904 1.29381 0
M  V30 15896 C 1541.11 -2.02045 1.17047 0
M  V30 15897 C 1542.09 -1.69977 0.0647354 0
M  V30 15898 O 1543.28 -1.92659 0.244173 0
M  V30 15899 C 1540.41 -3.36839 0.845991 0
M  V30 15900 C 1539.36 -3.83117 1.90802 0
M  V30 15901 C 1538.69 -5.15032 1.43686 0
M  V30 15902 C 1539.99 -4.03464 3.31684 0
M  V30 15903 H 1541.68 -2.12623 2.10789 0
M  V30 15904 H 1539.23 -1.02162 1.01484 0
M  V30 15905 H 1541.18 -4.14737 0.746413 0
M  V30 15906 H 1539.9 -3.26352 -0.127125 0
M  V30 15907 H 1538.56 -3.07435 1.99698 0
M  V30 15908 H 1538.21 -5.00961 0.452422 0
M  V30 15909 H 1537.91 -5.46967 2.14711 0
M  V30 15910 H 1539.43 -5.95472 1.35078 0
M  V30 15911 H 1540.85 -4.71845 3.25631 0
M  V30 15912 H 1539.25 -4.46752 4.00665 0
M  V30 15913 H 1540.32 -3.07807 3.74677 0
M  V30 15914 N 1541.66 -1.11854 -1.11024 0
M  V30 15915 C 1542.9 -0.871362 -1.83126 0
M  V30 15916 C 1543.24 0.601437 -1.84652 0
M  V30 15917 O 1542.51 1.44427 -1.30273 0
M  V30 15918 C 1542.8 -1.4391 -3.30094 0
M  V30 15919 C 1542.65 -2.97983 -3.36937 0
M  V30 15920 C 1543.97 -1.09361 -4.26296 0
M  V30 15921 H 1541.09 -0.317994 -0.664867 0
M  V30 15922 H 1543.73 -1.38414 -1.3016 0
M  V30 15923 H 1541.88 -1.00297 -3.7533 0
M  V30 15924 H 1543.55 -3.50231 -3.00227 0
M  V30 15925 H 1541.79 -3.33827 -2.77023 0
M  V30 15926 H 1542.46 -3.32797 -4.40398 0
M  V30 15927 H 1544.94 -1.47018 -3.89262 0
M  V30 15928 H 1543.82 -1.51756 -5.27505 0
M  V30 15929 H 1544.08 -0.0049637 -4.421 0
M  V30 15930 N 1543.14 1.28707 -0.909517 0
M  V30 15931 C 1544.07 2.25665 -0.339165 0
M  V30 15932 C 1545.05 1.52863 0.554222 0
M  V30 15933 O 1546.23 1.8178 0.498829 0
M  V30 15934 C 1543.36 3.34753 0.515592 0
M  V30 15935 C 1542.4 4.25359 -0.31183 0
M  V30 15936 S 1543.24 5.07265 -1.71588 0
M  V30 15937 C 1544.39 6.19848 -0.868312 0
M  V30 15938 H 1544.63 2.73695 -1.16097 0
M  V30 15939 H 1542.16 1.37082 -0.710492 0
M  V30 15940 H 1544.12 3.98059 1.00294 0
M  V30 15941 H 1542.78 2.85399 1.31173 0
M  V30 15942 H 1541.97 5.02841 0.341555 0
M  V30 15943 H 1541.57 3.66753 -0.73268 0
M  V30 15944 H 1543.87 6.77432 -0.0960601 0
M  V30 15945 H 1544.81 6.89424 -1.61554 0
M  V30 15946 H 1545.22 5.62948 -0.418357 0
M  V30 15947 N 1544.61 0.673042 1.42506 0
M  V30 15948 C 1545.54 0.00755467 2.33499 0
M  V30 15949 C 1546.53 -0.791161 1.50581 0
M  V30 15950 O 1547.71 -0.748668 1.79189 0
M  V30 15951 C 1544.84 -0.945638 3.34178 0
M  V30 15952 C 1543.79 -0.25564 4.27236 0
M  V30 15953 C 1543.12 -1.32165 5.18109 0
M  V30 15954 C 1544.42 0.864254 5.151 0
M  V30 15955 H 1546.11 0.767487 2.89396 0
M  V30 15956 H 1543.66 0.370524 1.39151 0
M  V30 15957 H 1545.61 -1.42026 3.96745 0
M  V30 15958 H 1544.34 -1.73697 2.76581 0
M  V30 15959 H 1543 0.19873 3.66061 0
M  V30 15960 H 1542.64 -2.10492 4.56839 0
M  V30 15961 H 1542.34 -0.865109 5.81197 0
M  V30 15962 H 1543.87 -1.79724 5.83551 0
M  V30 15963 H 1545.28 0.470924 5.71363 0
M  V30 15964 H 1543.68 1.24648 5.87012 0
M  V30 15965 H 1544.75 1.71378 4.53605 0
M  V30 15966 N 1546.09 -1.52004 0.416254 0
M  V30 15967 C 1547.02 -2.30106 -0.396671 0
M  V30 15968 C 1548 -1.34616 -1.03983 0
M  V30 15969 O 1549.19 -1.63528 -1.04749 0
M  V30 15970 C 1546.32 -3.12769 -1.50972 0
M  V30 15971 C 1545.27 -4.16365 -0.99119 0
M  V30 15972 C 1544.6 -4.87417 -2.19838 0
M  V30 15973 C 1545.9 -5.22284 -0.0402599 0
M  V30 15974 H 1547.59 -2.98312 0.255054 0
M  V30 15975 H 1545.14 -1.43464 0.124106 0
M  V30 15976 H 1547.09 -3.66178 -2.08547 0
M  V30 15977 H 1545.82 -2.42346 -2.18943 0
M  V30 15978 H 1544.47 -3.63976 -0.437803 0
M  V30 15979 H 1544.12 -4.13516 -2.8638 0
M  V30 15980 H 1543.82 -5.57454 -1.85792 0
M  V30 15981 H 1545.35 -5.43641 -2.78006 0
M  V30 15982 H 1546.76 -5.70891 -0.525027 0
M  V30 15983 H 1545.16 -5.99726 0.211742 0
M  V30 15984 H 1546.23 -4.7642 0.902877 0
M  V30 15985 N 1547.57 -0.146903 -1.56914 0
M  V30 15986 C 1548.5 0.788924 -2.19769 0
M  V30 15987 C 1549.48 1.25712 -1.14589 0
M  V30 15988 O 1550.67 1.3147 -1.42931 0
M  V30 15989 C 1547.8 2.02824 -2.81921 0
M  V30 15990 C 1546.75 1.69683 -3.92927 0
M  V30 15991 C 1546.08 3.00877 -4.42015 0
M  V30 15992 C 1547.38 0.943559 -5.13706 0
M  V30 15993 H 1549.07 0.265076 -2.98224 0
M  V30 15994 H 1546.62 0.126057 -1.43447 0
M  V30 15995 H 1548.57 2.68773 -3.2456 0
M  V30 15996 H 1547.29 2.57581 -2.00797 0
M  V30 15997 H 1545.95 1.06112 -3.50907 0
M  V30 15998 H 1545.6 3.53625 -3.57713 0
M  V30 15999 H 1545.3 2.79466 -5.16888 0
M  V30 16000 H 1546.82 3.67897 -4.87323 0
M  V30 16001 H 1548.24 1.50513 -5.5319 0
M  V30 16002 H 1546.64 0.829387 -5.94341 0
M  V30 16003 H 1547.71 -0.0647228 -4.84857 0
M  V30 16004 N 1549.05 1.57088 0.126881 0
M  V30 16005 C 1549.98 2.02799 1.15737 0
M  V30 16006 C 1550.96 0.911031 1.43646 0
M  V30 16007 O 1552.14 1.18021 1.54223 0
M  V30 16008 C 1549.27 2.42565 2.48555 0
M  V30 16009 C 1548.23 3.57631 2.35125 0
M  V30 16010 C 1547.55 3.83272 3.72836 0
M  V30 16011 C 1548.85 4.89625 1.81838 0
M  V30 16012 H 1550.55 2.89136 0.777207 0
M  V30 16013 H 1548.09 1.39101 0.372416 0
M  V30 16014 H 1550.05 2.73146 3.20888 0
M  V30 16015 H 1548.77 1.53188 2.88446 0
M  V30 16016 H 1547.43 3.27247 1.65242 0
M  V30 16017 H 1547.08 2.91114 4.10197 0
M  V30 16018 H 1546.78 4.60721 3.64705 0
M  V30 16019 H 1548.3 4.16298 4.46686 0
M  V30 16020 H 1549.72 5.18793 2.43981 0
M  V30 16021 H 1548.11 5.71018 1.84548 0
M  V30 16022 H 1549.18 4.7866 0.775385 0
M  V30 16023 N 1550.53 -0.396836 1.52522 0
M  V30 16024 C 1551.75 -1.16857 1.71345 0
M  V30 16025 C 1552.18 -1.83178 0.427465 0
M  V30 16026 O 1551.53 -1.7051 -0.616123 0
M  V30 16027 C 1551.58 -2.19817 2.85855 0
M  V30 16028 O 1550.69 -3.26233 2.52281 0
M  V30 16029 H 1550.03 -0.340554 0.570017 0
M  V30 16030 H 1552.56 -0.463532 1.9928 0
M  V30 16031 H 1552.57 -2.63944 3.11123 0
M  V30 16032 H 1551.24 -1.70931 3.79151 0
M  V30 16033 H 1549.82 -2.87299 2.37726 0
M  V30 16034 N 1552.01 -1.43353 -0.654814 0
M  V30 16035 C 1552.94 -1.51194 -1.7794 0
M  V30 16036 C 1553.92 -0.366747 -1.66099 0
M  V30 16037 O 1555.1 -0.58375 -1.85219 0
M  V30 16038 C 1552.23 -1.43298 -3.16359 0
M  V30 16039 C 1551.19 -2.5605 -3.42961 0
M  V30 16040 C 1550.51 -2.33208 -4.81163 0
M  V30 16041 C 1551.81 -3.98303 -3.37864 0
M  V30 16042 H 1553.51 -2.4532 -1.71635 0
M  V30 16043 H 1551.05 -1.18072 -0.824319 0
M  V30 16044 H 1553 -1.47388 -3.94784 0
M  V30 16045 H 1551.73 -0.456761 -3.2339 0
M  V30 16046 H 1550.39 -2.5131 -2.66906 0
M  V30 16047 H 1550.04 -1.33833 -4.84869 0
M  V30 16048 H 1549.74 -3.08789 -4.99923 0
M  V30 16049 H 1551.26 -2.39079 -5.61848 0
M  V30 16050 H 1552.67 -4.04538 -4.06229 0
M  V30 16051 H 1551.07 -4.73897 -3.6816 0
M  V30 16052 H 1552.14 -4.23552 -2.36075 0
M  V30 16053 N 1553.48 0.89303 -1.29857 0
M  V30 16054 C 1554.73 1.64667 -1.19399 0
M  V30 16055 C 1555.08 1.90761 0.250619 0
M  V30 16056 O 1554.38 1.51171 1.1772 0
M  V30 16057 C 1554.57 2.99661 -1.94777 0
M  V30 16058 C 1554.4 2.86745 -3.46421 0
M  V30 16059 C 1553.17 2.87157 -4.15775 0
M  V30 16060 C 1555.37 2.63284 -4.41799 0
M  V30 16061 N 1553.35 2.65048 -5.53735 0
M  V30 16062 C 1554.72 2.5022 -5.67265 0
M  V30 16063 C 1556.78 2.48444 -4.31486 0
M  V30 16064 C 1555.48 2.23826 -6.83589 0
M  V30 16065 C 1557.51 2.23435 -5.47568 0
M  V30 16066 C 1556.87 2.11141 -6.72011 0
M  V30 16067 H 1552.97 0.60788 -0.491941 0
M  V30 16068 H 1555.55 1.053 -1.63768 0
M  V30 16069 H 1553.72 3.57076 -1.52812 0
M  V30 16070 H 1555.45 3.64169 -1.7653 0
M  V30 16071 H 1552.21 2.98689 -3.67535 0
M  V30 16072 H 1552.63 2.57028 -6.26311 0
M  V30 16073 H 1557.27 2.56689 -3.35962 0
M  V30 16074 H 1554.99 2.1432 -7.79161 0
M  V30 16075 H 1558.58 2.12787 -5.41491 0
M  V30 16076 H 1557.46 1.92058 -7.60318 0
M  V30 16077 N 1554.96 1.12442 1.10429 0
M  V30 16078 C 1556.21 0.878021 1.82031 0
M  V30 16079 C 1556.53 -0.597787 1.85611 0
M  V30 16080 O 1555.8 -1.43442 1.33422 0
M  V30 16081 H 1554.38 0.321839 0.674113 0
M  V30 16082 H 1557.04 1.41891 1.33615 0
M  V30 16083 H 1556.14 1.25957 2.85554 0
M  V30 16084 N 1556.44 -1.28223 0.91633 0
M  V30 16085 C 1557.4 -2.25477 0.411423 0
M  V30 16086 C 1558.4 -1.53969 -0.463689 0
M  V30 16087 O 1559.59 -1.72151 -0.266379 0
M  V30 16088 C 1556.72 -3.38427 -0.409851 0
M  V30 16089 H 1557.92 -2.71656 1.27056 0
M  V30 16090 H 1555.47 -1.3995 0.695966 0
M  V30 16091 H 1556.21 -2.97614 -1.28828 0
M  V30 16092 H 1555.99 -3.91497 0.217435 0
M  V30 16093 H 1557.48 -4.10739 -0.753862 0
M  V30 16094 N 1557.92 -0.68059 -1.42147 0
M  V30 16095 C 1558.87 0.0170117 -2.27994 0
M  V30 16096 C 1559.85 0.767809 -1.41398 0
M  V30 16097 O 1561.04 0.645767 -1.64799 0
M  V30 16098 C 1558.17 0.963439 -3.29504 0
M  V30 16099 C 1557.26 0.20968 -4.23581 0
M  V30 16100 N 1557.65 -0.788543 -4.99615 0
M  V30 16101 C 1555.95 0.447304 -4.43751 0
M  V30 16102 C 1556.65 -1.23842 -5.68364 0
M  V30 16103 N 1555.62 -0.567238 -5.40632 0
M  V30 16104 H 1559.43 -0.748567 -2.84207 0
M  V30 16105 H 1556.94 -0.510145 -1.54179 0
M  V30 16106 H 1558.94 1.47823 -3.89813 0
M  V30 16107 H 1557.6 1.72878 -2.74851 0
M  V30 16108 H 1558.61 -1.16828 -5.04551 0
M  V30 16109 H 1555.29 1.1917 -4.00131 0
M  V30 16110 H 1556.68 -2.06593 -6.39351 0
M  V30 16111 N 1559.4 1.51781 -0.424309 0
M  V30 16112 C 1560.63 2.06088 0.145337 0
M  V30 16113 C 1561.03 1.29297 1.38127 0
M  V30 16114 O 1560.38 0.342227 1.80484 0
M  V30 16115 C 1560.44 3.55333 0.545777 0
M  V30 16116 C 1560.1 4.53285 -0.581528 0
M  V30 16117 C 1561.1 4.99278 -1.44973 0
M  V30 16118 C 1558.78 4.96539 -0.758549 0
M  V30 16119 C 1560.78 5.87185 -2.47977 0
M  V30 16120 C 1558.47 5.84239 -1.79188 0
M  V30 16121 C 1559.46 6.29458 -2.65089 0
M  V30 16122 O 1559.15 7.15418 -3.6665 0
M  V30 16123 H 1558.88 0.675782 0.0171719 0
M  V30 16124 H 1561.44 1.96492 -0.598349 0
M  V30 16125 H 1559.67 3.62668 1.34197 0
M  V30 16126 H 1561.36 3.92215 1.04508 0
M  V30 16127 H 1562.12 4.66566 -1.32445 0
M  V30 16128 H 1558 4.60893 -0.0995452 0
M  V30 16129 H 1561.55 6.22401 -3.15059 0
M  V30 16130 H 1557.44 6.16365 -1.91742 0
M  V30 16131 H 1558.21 7.33566 -3.63074 0
M  V30 16132 N 1560.87 0.155222 1.56834 0
M  V30 16133 C 1562.1 -0.499816 2.00463 0
M  V30 16134 C 1562.51 -1.58419 1.0344 0
M  V30 16135 O 1561.85 -1.83683 0.0247026 0
M  V30 16136 C 1561.92 -1.15251 3.40525 0
M  V30 16137 C 1561.58 -0.211738 4.56509 0
M  V30 16138 C 1562.58 0.563768 5.16834 0
M  V30 16139 C 1560.26 -0.112248 5.02175 0
M  V30 16140 C 1562.26 1.42613 6.21241 0
M  V30 16141 C 1559.94 0.753709 6.06434 0
M  V30 16142 C 1560.94 1.52149 6.65837 0
M  V30 16143 O 1560.63 2.37301 7.68078 0
M  V30 16144 H 1560.36 -0.133869 0.662612 0
M  V30 16145 H 1562.92 0.249256 2.03882 0
M  V30 16146 H 1561.15 -1.94939 3.3397 0
M  V30 16147 H 1562.83 -1.70811 3.6821 0
M  V30 16148 H 1563.6 0.496985 4.82447 0
M  V30 16149 H 1559.48 -0.699614 4.5566 0
M  V30 16150 H 1563.02 2.02587 6.67536 0
M  V30 16151 H 1558.92 0.821753 6.40248 0
M  V30 16152 H 1559.69 2.30639 7.85333 0
M  V30 16153 N 1562.35 -1.57153 -0.118549 0
M  V30 16154 C 1563.77 -1.52458 -0.472096 0
M  V30 16155 C 1563.97 -0.868289 -1.81832 0
M  V30 16156 O 1563.02 -0.450817 -2.48443 0
M  V30 16157 C 1564.34 -2.9722 -0.456175 0
M  V30 16158 C 1565.88 -3.08312 -0.539694 0
M  V30 16159 C 1566.36 -4.54635 -0.554158 0
M  V30 16160 N 1567.85 -4.59091 -0.615584 0
M  V30 16161 C 1568.59 -5.69724 -0.64823 0
M  V30 16162 N 1568.08 -6.89852 -0.638494 0
M  V30 16163 N 1569.87 -5.57833 -0.691272 0
M  V30 16164 H 1562.03 -1.98202 0.76353 0
M  V30 16165 H 1564.29 -0.905179 0.281699 0
M  V30 16166 H 1563.99 -3.48608 0.465364 0
M  V30 16167 H 1563.87 -3.5468 -1.28381 0
M  V30 16168 H 1566.26 -2.56926 -1.45165 0
M  V30 16169 H 1566.34 -2.53845 0.315638 0
M  V30 16170 H 1565.98 -5.06667 0.353759 0
M  V30 16171 H 1565.91 -5.06914 -1.42638 0
M  V30 16172 H 1568.4 -3.72624 -0.629253 0
M  V30 16173 H 1568.71 -7.69925 -0.66604 0
M  V30 16174 H 1567.06 -6.92354 -0.605912 0
M  V30 16175 H 1570.25 -4.62893 -0.696244 0
M  V30 16176 H 1570.42 -6.44063 -0.713246 0
M  V30 16177 N 1563.83 0.388742 -1.5273 0
M  V30 16178 C 1565.06 1.15495 -1.71664 0
M  V30 16179 C 1565.47 1.83717 -0.435127 0
M  V30 16180 O 1564.83 1.72686 0.590411 0
M  V30 16181 C 1564.88 2.20279 -2.86635 0
M  V30 16182 O 1564.6 1.54838 -4.09825 0
M  V30 16183 C 1566.1 3.09625 -3.1725 0
M  V30 16184 H 1563.32 0.346271 -0.57475 0
M  V30 16185 H 1565.87 0.454729 -1.9938 0
M  V30 16186 H 1564.02 2.85936 -2.61379 0
M  V30 16187 H 1564.44 2.24466 -4.74042 0
M  V30 16188 H 1565.91 3.79177 -4.01159 0
M  V30 16189 H 1566.39 3.73147 -2.31643 0
M  V30 16190 H 1566.99 2.49612 -3.44345 0
M  V30 16191 N 1565.31 1.43698 0.647203 0
M  V30 16192 C 1566.24 1.45295 1.77262 0
M  V30 16193 C 1567.25 0.34831 1.5903 0
M  V30 16194 O 1568.44 0.613106 1.6764 0
M  V30 16195 C 1565.54 1.25584 3.14773 0
M  V30 16196 C 1564.71 2.48998 3.59609 0
M  V30 16197 C 1563.77 2.24423 4.75942 0
M  V30 16198 O 1562.8 2.97813 4.85073 0
M  V30 16199 N 1564 1.26465 5.66557 0
M  V30 16200 H 1566.77 2.42311 1.76368 0
M  V30 16201 H 1564.33 1.38931 0.831247 0
M  V30 16202 H 1566.32 1.07016 3.90294 0
M  V30 16203 H 1564.89 0.369927 3.10403 0
M  V30 16204 H 1564.11 2.82951 2.74467 0
M  V30 16205 H 1565.4 3.31119 3.86313 0
M  V30 16206 H 1564.8 0.658206 5.61858 0
M  V30 16207 H 1563.35 1.13879 6.41775 0
M  V30 16208 N 1566.79 -0.886131 1.30328 0
M  V30 16209 C 1567.73 -1.99174 1.16612 0
M  V30 16210 C 1568.7 -1.66006 0.0559202 0
M  V30 16211 O 1569.89 -1.89458 0.225897 0
M  V30 16212 C 1567.03 -3.34142 0.862726 0
M  V30 16213 C 1566.14 -3.80008 2.05469 0
M  V30 16214 C 1565.28 -5.03617 1.68949 0
M  V30 16215 C 1564.32 -5.41888 2.84647 0
M  V30 16216 N 1563.45 -6.56678 2.48431 0
M  V30 16217 H 1568.29 -2.10238 2.11197 0
M  V30 16218 H 1565.83 -1.02941 1.05079 0
M  V30 16219 H 1567.79 -4.11826 0.667447 0
M  V30 16220 H 1566.42 -3.22767 -0.0462461 0
M  V30 16221 H 1565.47 -2.98243 2.36126 0
M  V30 16222 H 1566.78 -4.04312 2.92119 0
M  V30 16223 H 1565.94 -5.88923 1.45789 0
M  V30 16224 H 1564.67 -4.81182 0.794674 0
M  V30 16225 H 1563.68 -4.55109 3.08474 0
M  V30 16226 H 1564.9 -5.66296 3.74813 0
M  V30 16227 H 1562.85 -6.35821 1.61453 0
M  V30 16228 H 1562.77 -6.80846 3.28611 0
M  V30 16229 H 1564.04 -7.45219 2.28624 0
M  V30 16230 N 1568.26 -1.13026 -1.09832 0
M  V30 16231 C 1569.19 -0.826338 -2.18389 0
M  V30 16232 C 1570.18 0.212529 -1.68767 0
M  V30 16233 O 1571.36 0.072363 -1.94065 0
M  V30 16234 C 1568.49 -0.286991 -3.46112 0
M  V30 16235 C 1567.44 -1.25963 -4.09044 0
M  V30 16236 C 1566.77 -0.580231 -5.31542 0
M  V30 16237 C 1568.07 -2.61661 -4.5203 0
M  V30 16238 H 1569.76 -1.73408 -2.4407 0
M  V30 16239 H 1567.31 -0.835201 -1.17305 0
M  V30 16240 H 1569.26 -0.062067 -4.21354 0
M  V30 16241 H 1567.99 0.656121 -3.19942 0
M  V30 16242 H 1566.65 -1.47047 -3.35816 0
M  V30 16243 H 1566.29 0.368222 -5.0165 0
M  V30 16244 H 1565.99 -1.2291 -5.74601 0
M  V30 16245 H 1567.52 -0.36449 -6.09511 0
M  V30 16246 H 1568.93 -2.44569 -5.18516 0
M  V30 16247 H 1567.33 -3.22685 -5.05959 0
M  V30 16248 H 1568.4 -3.19637 -3.64637 0
M  V30 16249 N 1569.74 1.27735 -0.923117 0
M  V30 16250 C 1570.67 2.29395 -0.435907 0
M  V30 16251 C 1571.65 1.62542 0.501403 0
M  V30 16252 O 1572.84 1.89884 0.407135 0
M  V30 16253 C 1569.97 3.45856 0.316348 0
M  V30 16254 C 1568.92 4.24672 -0.532697 0
M  V30 16255 C 1568.25 5.33563 0.348454 0
M  V30 16256 C 1569.55 4.90494 -1.79481 0
M  V30 16257 H 1571.24 2.70398 -1.28551 0
M  V30 16258 H 1568.79 1.29989 -0.619581 0
M  V30 16259 H 1570.74 4.1607 0.668098 0
M  V30 16260 H 1569.47 3.03758 1.19994 0
M  V30 16261 H 1568.12 3.56198 -0.867093 0
M  V30 16262 H 1567.77 4.87708 1.23086 0
M  V30 16263 H 1567.47 5.87202 -0.216104 0
M  V30 16264 H 1569 6.06622 0.695878 0
M  V30 16265 H 1570.41 5.53019 -1.5114 0
M  V30 16266 H 1568.81 5.5417 -2.30251 0
M  V30 16267 H 1569.88 4.14454 -2.51707 0
M  V30 16268 N 1571.22 0.688118 1.41784 0
M  V30 16269 C 1572.45 0.223231 2.06195 0
M  V30 16270 C 1572.87 -1.11601 1.51416 0
M  V30 16271 O 1572.23 -1.69701 0.638059 0
M  V30 16272 C 1572.28 0.183257 3.60134 0
M  V30 16273 O 1571.38 -0.844186 4.03667 0
M  V30 16274 H 1570.72 0.110925 0.654669 0
M  V30 16275 H 1573.25 0.940882 1.81683 0
M  V30 16276 H 1573.26 0.0115951 4.07998 0
M  V30 16277 H 1571.94 1.16072 3.99375 0
M  V30 16278 H 1570.51 -0.642484 3.67323 0
M  V30 16279 N 1572.7 -1.51554 0.432352 0
M  V30 16280 C 1573.65 -2.27623 -0.381602 0
M  V30 16281 C 1574.62 -1.31003 -1.02114 0
M  V30 16282 O 1575.8 -1.59899 -1.041 0
M  V30 16283 C 1572.94 -3.11772 -1.47959 0
M  V30 16284 C 1572.05 -4.2338 -0.858682 0
M  V30 16285 C 1571.19 -4.94847 -1.93131 0
M  V30 16286 C 1570.23 -5.98383 -1.28856 0
M  V30 16287 N 1569.36 -6.63278 -2.30233 0
M  V30 16288 H 1574.2 -2.96743 0.273472 0
M  V30 16289 H 1571.74 -1.46367 0.146706 0
M  V30 16290 H 1573.7 -3.58882 -2.12742 0
M  V30 16291 H 1572.33 -2.44778 -2.10437 0
M  V30 16292 H 1571.38 -3.8027 -0.0992797 0
M  V30 16293 H 1572.69 -4.97575 -0.349381 0
M  V30 16294 H 1571.85 -5.4548 -2.65587 0
M  V30 16295 H 1570.59 -4.20272 -2.47432 0
M  V30 16296 H 1569.59 -5.47048 -0.549441 0
M  V30 16297 H 1570.82 -6.74913 -0.752941 0
M  V30 16298 H 1568.76 -5.91518 -2.83624 0
M  V30 16299 H 1568.68 -7.33221 -1.84181 0
M  V30 16300 H 1569.95 -7.18542 -3.02188 0
M  V30 16301 N 1574.18 -0.163538 -1.56749 0
M  V30 16302 C 1575.12 0.786745 -2.18891 0
M  V30 16303 C 1576.12 1.24323 -1.15066 0
M  V30 16304 O 1577.32 1.20979 -1.33282 0
M  V30 16305 H 1573.7 0.271967 -0.701098 0
M  V30 16306 H 1575.67 0.2386 -2.97445 0
M  V30 16307 C 1574.42 2.00905 -2.83782 0
M  V30 16308 H 1573.74 1.66681 -3.63397 0
M  V30 16309 H 1575.18 2.65302 -3.30743 0
M  V30 16310 C 1573.64 2.8277 -1.83148 0
M  V30 16311 O 1574.17 3.79666 -1.31213 0
M  V30 16312 N 1572.38 2.47629 -1.52079 0
M  V30 16313 H 1571.92 1.68896 -1.94504 0
M  V30 16314 H 1571.88 3.02693 -0.849963 0
M  V30 16315 N 1575.65 1.57214 0.110213 0
M  V30 16316 C 1577.07 1.74402 0.666405 0
M  V30 16317 C 1577.42 0.783524 1.79876 0
M  V30 16318 O 1576.54 -0.0415306 2.1636 0
M  V30 16319 C 1577.14 3.1624 1.21564 0
M  V30 16320 C 1575.7 3.34904 1.71804 0
M  V30 16321 C 1574.84 2.70249 0.621347 0
M  V30 16322 H 1577.79 1.58277 -0.115765 0
M  V30 16323 H 1577.81 3.18276 2.0852 0
M  V30 16324 H 1577.33 3.86123 0.391273 0
M  V30 16325 H 1575.43 2.70077 2.56689 0
M  V30 16326 H 1575.54 4.43126 1.82143 0
M  V30 16327 H 1573.9 2.31727 1.05711 0
M  V30 16328 H 1574.69 3.42762 -0.192185 0
M  V30 16329 N 1577.13 -0.380637 1.52934 0
M  V30 16330 C 1578.08 -1.46544 1.78307 0
M  V30 16331 C 1579.05 -1.53825 0.626671 0
M  V30 16332 O 1580.23 -1.6995 0.867276 0
M  V30 16333 C 1577.37 -2.83676 1.96525 0
M  V30 16334 C 1576.49 -2.85481 3.24229 0
M  V30 16335 C 1575.62 -4.14092 3.32718 0
M  V30 16336 C 1574.66 -4.09982 4.54512 0
M  V30 16337 N 1573.8 -5.30214 4.60237 0
M  V30 16338 H 1578.64 -1.24209 2.7088 0
M  V30 16339 H 1576.18 -0.60241 1.34199 0
M  V30 16340 H 1578.13 -3.63319 2.05073 0
M  V30 16341 H 1576.76 -3.04443 1.07304 0
M  V30 16342 H 1575.82 -1.98159 3.24711 0
M  V30 16343 H 1577.13 -2.78313 4.13936 0
M  V30 16344 H 1576.28 -5.02144 3.40494 0
M  V30 16345 H 1575.02 -4.23993 2.41 0
M  V30 16346 H 1574.03 -3.20317 4.46852 0
M  V30 16347 H 1575.25 -4.01696 5.47556 0
M  V30 16348 H 1573.2 -5.40729 3.71414 0
M  V30 16349 H 1573.11 -5.25155 5.43827 0
M  V30 16350 H 1574.38 -6.2014 4.72279 0
M  V30 16351 N 1578.61 -1.44039 -0.639573 0
M  V30 16352 C 1579.56 -1.50541 -1.77314 0
M  V30 16353 C 1580.55 -0.37781 -1.65133 0
M  V30 16354 O 1581.76 -0.552396 -1.71314 0
M  V30 16355 H 1578.13 -0.472221 -0.585245 0
M  V30 16356 H 1580.1 -2.45964 -1.68951 0
M  V30 16357 C 1578.85 -1.45868 -3.15623 0
M  V30 16358 H 1578.18 -2.31946 -3.25639 0
M  V30 16359 H 1579.62 -1.54479 -3.94857 0
M  V30 16360 C 1578.08 -0.178204 -3.36428 0
M  V30 16361 O 1578.61 0.755017 -3.94541 0
M  V30 16362 N 1576.81 -0.0840295 -2.90478 0
M  V30 16363 H 1576.36 -0.844281 -2.43371 0
M  V30 16364 H 1576.32 0.771988 -3.04775 0
M  V30 16365 N 1580.09 0.879207 -1.30796 0
M  V30 16366 C 1581.5 1.44705 -1.17972 0
M  V30 16367 C 1581.85 1.94992 0.217381 0
M  V30 16368 O 1580.98 1.85494 1.11449 0
M  V30 16369 C 1581.57 2.6302 -2.13555 0
M  V30 16370 C 1580.13 3.15877 -2.04692 0
M  V30 16371 C 1579.28 1.88576 -2.03309 0
M  V30 16372 H 1582.23 0.688604 -1.42982 0
M  V30 16373 H 1582.25 3.39418 -1.71976 0
M  V30 16374 H 1581.76 2.2639 -3.15229 0
M  V30 16375 H 1579.86 3.57151 -1.0618 0
M  V30 16376 H 1579.97 3.78786 -2.93357 0
M  V30 16377 H 1578.34 2.0715 -1.48192 0
M  V30 16378 H 1579.12 1.54195 -3.06723 0
M  V30 16379 N 1581.57 1.13606 1.09231 0
M  V30 16380 C 1582.8 0.920958 1.84938 0
M  V30 16381 C 1583.21 -0.533706 1.81516 0
M  V30 16382 O 1582.55 -1.38127 1.21105 0
M  V30 16383 C 1582.61 1.33357 3.33851 0
M  V30 16384 C 1582.27 2.80206 3.61017 0
M  V30 16385 C 1583.27 3.78356 3.56571 0
M  V30 16386 C 1580.96 3.17415 3.89298 0
M  V30 16387 C 1582.95 5.11726 3.8002 0
M  V30 16388 C 1580.64 4.50963 4.12402 0
M  V30 16389 C 1581.64 5.47928 4.07755 0
M  V30 16390 O 1581.32 6.79066 4.3026 0
M  V30 16391 H 1581.06 0.328256 0.590952 0
M  V30 16392 H 1583.61 1.51298 1.38917 0
M  V30 16393 H 1581.84 0.684821 3.80588 0
M  V30 16394 H 1583.53 1.09061 3.90974 0
M  V30 16395 H 1584.29 3.50956 3.34746 0
M  V30 16396 H 1580.17 2.42542 3.92039 0
M  V30 16397 H 1583.72 5.87399 3.76309 0
M  V30 16398 H 1579.61 4.78088 4.33708 0
M  V30 16399 H 1580.38 6.85199 4.47711 0
M  V30 16400 N 1583.05 -1.27244 0.929878 0
M  V30 16401 C 1583.96 -2.30506 0.436355 0
M  V30 16402 C 1584.97 -1.67131 -0.484054 0
M  V30 16403 O 1586.15 -1.9804 -0.366332 0
M  V30 16404 C 1583.21 -3.45391 -0.300942 0
M  V30 16405 C 1582.27 -4.24279 0.654647 0
M  V30 16406 C 1581.51 -5.33679 -0.047558 0
M  V30 16407 O 1581.73 -5.56161 -1.26654 0
M  V30 16408 O 1580.66 -5.98642 0.62538 0
M  V30 16409 H 1584.49 -2.74762 1.29382 0
M  V30 16410 H 1582.07 -1.32234 0.695311 0
M  V30 16411 H 1583.96 -4.1526 -0.716718 0
M  V30 16412 H 1582.63 -3.03187 -1.13398 0
M  V30 16413 H 1581.54 -3.56936 1.12015 0
M  V30 16414 H 1582.87 -4.70204 1.45497 0
M  V30 16415 N 1584.52 -0.695628 -1.41417 0
M  V30 16416 C 1585.43 -0.0308378 -2.3458 0
M  V30 16417 C 1586.45 0.766 -1.56232 0
M  V30 16418 O 1587.63 0.703548 -1.88712 0
M  V30 16419 C 1584.69 0.894162 -3.34971 0
M  V30 16420 C 1583.75 0.0895231 -4.29207 0
M  V30 16421 C 1582.98 0.970467 -5.24802 0
M  V30 16422 O 1583.21 2.20997 -5.25848 0
M  V30 16423 O 1582.14 0.420114 -6.00432 0
M  V30 16424 H 1585.97 -0.798775 -2.93007 0
M  V30 16425 H 1583.55 -0.455964 -1.42272 0
M  V30 16426 H 1585.43 1.42458 -3.9659 0
M  V30 16427 H 1584.11 1.64159 -2.78987 0
M  V30 16428 H 1583.02 -0.4855 -3.70936 0
M  V30 16429 H 1584.35 -0.619241 -4.88289 0
M  V30 16430 N 1586 1.51322 -0.440383 0
M  V30 16431 C 1587.23 2.07017 0.126018 0
M  V30 16432 C 1587.65 1.30537 1.35431 0
M  V30 16433 O 1587.01 0.344178 1.78003 0
M  V30 16434 C 1587.06 3.58101 0.4238 0
M  V30 16435 O 1586.16 3.83772 1.50973 0
M  V30 16436 H 1585.5 0.664 0.000530178 0
M  V30 16437 H 1588.03 1.94897 -0.622594 0
M  V30 16438 H 1588.04 4.02405 0.673363 0
M  V30 16439 H 1586.72 4.13191 -0.473932 0
M  V30 16440 H 1585.29 3.51329 1.24989 0
M  V30 16441 N 1587.48 0.171848 1.5666 0
M  V30 16442 C 1588.7 -0.482396 2.01712 0
M  V30 16443 C 1589.13 -1.5598 1.05128 0
M  V30 16444 O 1588.49 -1.81274 0.0309178 0
M  V30 16445 C 1588.54 -1.03716 3.45363 0
M  V30 16446 O 1587.64 -2.15114 3.51852 0
M  V30 16447 H 1586.98 -0.115439 0.653888 0
M  V30 16448 H 1589.51 0.275895 2.02731 0
M  V30 16449 H 1589.52 -1.35964 3.84679 0
M  V30 16450 H 1588.2 -0.24832 4.15158 0
M  V30 16451 H 1586.77 -1.83907 3.24396 0
M  V30 16452 N 1588.96 -1.5727 -0.101874 0
M  V30 16453 C 1590.37 -1.5295 -0.455899 0
M  V30 16454 C 1590.57 -0.887526 -1.80901 0
M  V30 16455 O 1589.63 -0.477143 -2.47951 0
M  V30 16456 C 1590.94 -2.97687 -0.424625 0
M  V30 16457 C 1592.49 -3.08867 -0.506963 0
M  V30 16458 C 1592.97 -4.55197 -0.505907 0
M  V30 16459 N 1594.46 -4.59718 -0.566856 0
M  V30 16460 C 1595.19 -5.7038 -0.587766 0
M  V30 16461 N 1594.69 -6.9049 -0.56529 0
M  V30 16462 N 1596.48 -5.58535 -0.632067 0
M  V30 16463 H 1588.63 -1.97381 0.784509 0
M  V30 16464 H 1590.89 -0.902141 0.291284 0
M  V30 16465 H 1590.6 -3.48094 0.502312 0
M  V30 16466 H 1590.47 -3.56022 -1.24612 0
M  V30 16467 H 1592.86 -2.58451 -1.42432 0
M  V30 16468 H 1592.94 -2.53496 0.342544 0
M  V30 16469 H 1592.59 -5.06263 0.407477 0
M  V30 16470 H 1592.52 -5.08399 -1.37253 0
M  V30 16471 H 1595.01 -3.73271 -0.589696 0
M  V30 16472 H 1595.32 -7.70588 -0.584342 0
M  V30 16473 H 1593.67 -6.92957 -0.532444 0
M  V30 16474 H 1596.86 -4.63606 -0.647109 0
M  V30 16475 H 1597.03 -6.44783 -0.644895 0
M  V30 16476 N 1590.44 0.372521 -1.53134 0
M  V30 16477 C 1591.71 1.13113 -1.59577 0
M  V30 16478 C 1592.09 2.07294 -0.399027 0
M  V30 16479 O 1591.44 2.20171 0.611316 0
M  V30 16480 C 1591.65 1.87635 -2.94269 0
M  V30 16481 C 1593 2.42414 -3.48598 0
M  V30 16482 O 1594.02 1.9777 -2.96252 0
M  V30 16483 O 1592.88 3.24008 -4.40092 0
M  V30 16484 H 1589.98 0.518486 -0.644284 0
M  V30 16485 H 1592.52 0.376344 -1.65474 0
M  V30 16486 H 1591.29 1.18859 -3.72811 0
M  V30 16487 H 1590.92 2.70037 -2.91831 0
M  V30 16488 N 1591.91 1.44376 0.631925 0
M  V30 16489 C 1593.16 1.47335 1.39356 0
M  V30 16490 C 1593.49 0.10525 1.93915 0
M  V30 16491 O 1592.77 -0.877006 1.73605 0
M  V30 16492 C 1593.05 2.53308 2.55943 0
M  V30 16493 C 1592.9 3.99473 2.06739 0
M  V30 16494 C 1594.22 2.55794 3.58131 0
M  V30 16495 H 1591.34 0.536447 0.505365 0
M  V30 16496 H 1593.98 1.76051 0.714572 0
M  V30 16497 H 1592.13 2.28953 3.13868 0
M  V30 16498 H 1593.81 4.34958 1.53652 0
M  V30 16499 H 1592.05 4.11288 1.37929 0
M  V30 16500 H 1592.72 4.69269 2.90672 0
M  V30 16501 H 1595.2 2.77554 3.10005 0
M  V30 16502 H 1594.07 3.31847 4.37228 0
M  V30 16503 H 1594.33 1.59962 4.12146 0
M  V30 16504 N 1593.39 -0.872258 1.31261 0
M  V30 16505 C 1594.81 -1.15763 1.09868 0
M  V30 16506 C 1595.01 -2.01065 -0.132331 0
M  V30 16507 O 1594.06 -2.38735 -0.822317 0
M  V30 16508 C 1595.38 -1.85199 2.36901 0
M  V30 16509 C 1596.92 -1.9791 2.42489 0
M  V30 16510 C 1597.4 -2.70759 3.69396 0
M  V30 16511 N 1598.89 -2.78296 3.70278 0
M  V30 16512 C 1599.63 -3.3527 4.65168 0
M  V30 16513 N 1599.12 -3.93193 5.70413 0
M  V30 16514 N 1600.91 -3.33206 4.52692 0
M  V30 16515 H 1593.07 -0.303784 2.10216 0
M  V30 16516 H 1595.33 -0.197172 0.927269 0
M  V30 16517 H 1595.03 -1.29968 3.26804 0
M  V30 16518 H 1594.91 -2.85493 2.46523 0
M  V30 16519 H 1597.3 -2.52305 1.53056 0
M  V30 16520 H 1597.38 -0.966644 2.36833 0
M  V30 16521 H 1597.02 -2.17031 4.59195 0
M  V30 16522 H 1596.95 -3.72407 3.72318 0
M  V30 16523 H 1599.44 -2.37185 2.94197 0
M  V30 16524 H 1599.75 -4.34771 6.38901 0
M  V30 16525 H 1598.1 -3.91575 5.7419 0
M  V30 16526 H 1601.29 -2.87191 3.69647 0
M  V30 16527 H 1601.46 -3.7731 5.26822 0
M  V30 16528 N 1594.87 -1.14184 -1.08627 0
M  V30 16529 C 1596.09 -0.932504 -1.85254 0
M  V30 16530 C 1596.52 0.513792 -1.80947 0
M  V30 16531 O 1595.88 1.36525 -1.19292 0
M  V30 16532 C 1595.93 -1.43519 -3.30809 0
M  V30 16533 O 1595.03 -0.625806 -4.07624 0
M  V30 16534 H 1594.37 -0.333573 -0.57413 0
M  V30 16535 H 1596.9 -1.51853 -1.3712 0
M  V30 16536 H 1596.91 -1.44238 -3.81654 0
M  V30 16537 H 1595.59 -2.48819 -3.3326 0
M  V30 16538 H 1594.16 -0.687168 -3.66514 0
M  V30 16539 N 1596.35 1.26749 -0.936613 0
M  V30 16540 C 1597.76 1.46284 -0.638218 0
M  V30 16541 C 1597.96 1.84509 0.80986 0
M  V30 16542 O 1597.02 1.96399 1.58693 0
M  V30 16543 C 1598.33 2.54867 -1.59573 0
M  V30 16544 C 1599.88 2.68721 -1.60493 0
M  V30 16545 C 1600.36 3.80471 -2.54963 0
M  V30 16546 N 1601.85 3.87857 -2.53221 0
M  V30 16547 C 1602.58 4.73767 -3.23005 0
M  V30 16548 N 1602.08 5.641 -4.02198 0
M  V30 16549 N 1603.87 4.67574 -3.11979 0
M  V30 16550 H 1596.02 1.00224 -1.87267 0
M  V30 16551 H 1598.29 0.501478 -0.804502 0
M  V30 16552 H 1597.99 2.33594 -2.62919 0
M  V30 16553 H 1597.87 3.52433 -1.34427 0
M  V30 16554 H 1600.25 2.8937 -0.578729 0
M  V30 16555 H 1600.33 1.71613 -1.89691 0
M  V30 16556 H 1599.98 3.60575 -3.57698 0
M  V30 16557 H 1599.91 4.77026 -2.23056 0
M  V30 16558 H 1602.4 3.23272 -1.95714 0
M  V30 16559 H 1602.71 6.26535 -4.52409 0
M  V30 16560 H 1601.06 5.63866 -4.063 0
M  V30 16561 H 1604.25 3.96004 -2.49596 0
M  V30 16562 H 1604.42 5.34308 -3.66633 0
M  V30 16563 N 1597.83 0.703118 1.41046 0
M  V30 16564 C 1599.24 0.375417 1.55122 0
M  V30 16565 C 1599.44 -1.11696 1.67709 0
M  V30 16566 O 1598.5 -1.90289 1.65971 0
M  V30 16567 C 1599.81 1.13056 2.78638 0
M  V30 16568 C 1601.36 1.11564 2.92442 0
M  V30 16569 C 1601.83 1.85268 4.18855 0
M  V30 16570 N 1603.33 1.82275 4.25829 0
M  V30 16571 C 1604.06 2.36137 5.2252 0
M  V30 16572 N 1603.56 2.98502 6.25195 0
M  V30 16573 N 1605.35 2.26349 5.14512 0
M  V30 16574 H 1597.5 1.67096 1.31121 0
M  V30 16575 H 1599.76 0.705573 0.633144 0
M  V30 16576 H 1599.47 2.18524 2.75572 0
M  V30 16577 H 1599.34 0.714037 3.7038 0
M  V30 16578 H 1601.73 0.0691901 2.95019 0
M  V30 16579 H 1601.81 1.57128 2.01853 0
M  V30 16580 H 1601.46 2.89896 4.1704 0
M  V30 16581 H 1601.39 1.37133 5.08431 0
M  V30 16582 H 1603.88 1.36812 3.52265 0
M  V30 16583 H 1604.19 3.37149 6.95378 0
M  V30 16584 H 1602.53 3.02582 6.25675 0
M  V30 16585 H 1605.73 1.77294 4.33226 0
M  V30 16586 H 1605.9 2.68629 5.89697 0
M  V30 16587 N 1599.3 -1.51086 0.448402 0
M  V30 16588 C 1600.72 -1.86696 -0.0121264 0
M  V30 16589 C 1601.07 -1.36483 -1.40949 0
M  V30 16590 O 1600.19 -0.72024 -2.04062 0
M  V30 16591 C 1600.79 -3.38788 -0.0287814 0
M  V30 16592 C 1599.35 -3.73892 -0.433758 0
M  V30 16593 C 1598.49 -2.74869 0.366362 0
M  V30 16594 H 1601.44 -1.44153 0.663744 0
M  V30 16595 H 1601.46 -3.71204 -0.835915 0
M  V30 16596 H 1600.98 -3.75304 0.988368 0
M  V30 16597 H 1599.08 -3.4297 -1.4561 0
M  V30 16598 H 1599.19 -4.78862 -0.150869 0
M  V30 16599 H 1597.55 -2.54085 -0.176862 0
M  V30 16600 H 1598.34 -3.14228 1.3826 0
M  V30 16601 N 1600.78 -0.180154 -1.56567 0
M  V30 16602 C 1601.75 0.732809 -2.17169 0
M  V30 16603 C 1602.75 1.15176 -1.1221 0
M  V30 16604 O 1603.94 1.06728 -1.37677 0
M  V30 16605 C 1601.07 1.99857 -2.7617 0
M  V30 16606 H 1602.26 0.205088 -2.99198 0
M  V30 16607 H 1599.81 0.0694351 -1.56146 0
M  V30 16608 H 1600.55 2.56917 -1.97899 0
M  V30 16609 H 1600.33 1.70705 -3.5299 0
M  V30 16610 H 1601.82 2.64992 -3.22752 0
M  V30 16611 N 1602.26 1.57322 0.0935319 0
M  V30 16612 C 1603.54 1.77187 0.828503 0
M  V30 16613 C 1603.92 0.762216 1.96859 0
M  V30 16614 O 1603.27 -0.208982 2.27542 0
M  V30 16615 C 1603.48 3.23007 1.32163 0
M  V30 16616 C 1604.82 3.86233 1.76379 0
M  V30 16617 O 1605.85 3.26766 1.41783 0
M  V30 16618 O 1604.71 4.90808 2.40354 0
M  V30 16619 H 1601.8 0.726401 0.395311 0
M  V30 16620 H 1604.35 1.69533 0.0752924 0
M  V30 16621 H 1603.12 3.88029 0.504863 0
M  V30 16622 H 1602.74 3.353 2.13681 0
M  V30 16623 N 1603.74 -0.364395 1.53329 0
M  V30 16624 C 1604.97 -1.1275 1.7348 0
M  V30 16625 C 1605.38 -1.83002 0.4643 0
M  V30 16626 O 1604.74 -1.73603 -0.562864 0
M  V30 16627 C 1604.79 -2.15691 2.90103 0
M  V30 16628 O 1604.51 -1.48298 4.12237 0
M  V30 16629 C 1606.01 -3.04539 3.22135 0
M  V30 16630 H 1603.23 -0.337084 0.580186 0
M  V30 16631 H 1605.78 -0.422952 2.00078 0
M  V30 16632 H 1603.93 -2.81742 2.65895 0
M  V30 16633 H 1604.34 -2.16896 4.77553 0
M  V30 16634 H 1605.82 -3.72747 4.07141 0
M  V30 16635 H 1606.3 -3.69414 2.3755 0
M  V30 16636 H 1606.9 -2.44103 3.48273 0
M  V30 16637 N 1605.22 -1.44709 -0.62426 0
M  V30 16638 C 1606.13 -1.54608 -1.76447 0
M  V30 16639 C 1607.14 -0.43137 -1.68568 0
M  V30 16640 O 1608.32 -0.6897 -1.89222 0
M  V30 16641 C 1605.38 -1.49404 -3.12857 0
M  V30 16642 C 1604.44 -2.71782 -3.32315 0
M  V30 16643 C 1603.68 -2.66817 -4.62217 0
M  V30 16644 O 1603.9 -1.73205 -5.43467 0
M  V30 16645 O 1602.83 -3.57773 -4.84027 0
M  V30 16646 H 1606.66 -2.50951 -1.71048 0
M  V30 16647 H 1604.25 -1.27033 -0.786326 0
M  V30 16648 H 1606.13 -1.4905 -3.9416 0
M  V30 16649 H 1604.8 -0.562078 -3.18783 0
M  V30 16650 H 1603.71 -2.77702 -2.50664 0
M  V30 16651 H 1605.04 -3.64048 -3.31255 0
M  V30 16652 N 1606.69 0.865285 -1.31722 0
M  V30 16653 C 1607.97 1.60146 -1.12306 0
M  V30 16654 C 1608.35 2.08653 0.320508 0
M  V30 16655 O 1607.7 1.86841 1.31539 0
M  V30 16656 C 1607.91 2.75583 -2.14138 0
M  V30 16657 C 1609.26 3.45429 -2.46909 0
M  V30 16658 O 1610.28 2.85795 -2.12602 0
M  V30 16659 O 1609.14 4.53017 -3.05676 0
M  V30 16660 H 1606.23 0.704786 -0.432673 0
M  V30 16661 H 1608.78 0.910339 -1.43216 0
M  V30 16662 H 1607.55 2.37187 -3.1122 0
M  V30 16663 H 1607.18 3.52378 -1.84161 0
M  V30 16664 N 1608.17 1.14759 1.0802 0
M  V30 16665 C 1609.42 0.916435 1.80127 0
M  V30 16666 C 1609.74 -0.558281 1.86837 0
M  V30 16667 O 1609.01 -1.40579 1.36434 0
M  V30 16668 H 1607.59 0.336066 0.667135 0
M  V30 16669 H 1610.25 1.44693 1.30576 0
M  V30 16670 H 1609.35 1.31986 2.82818 0
M  V30 16671 N 1609.65 -1.26251 0.943322 0
M  V30 16672 C 1610.58 -2.24687 0.398877 0
M  V30 16673 C 1611.56 -1.54279 -0.513498 0
M  V30 16674 O 1612.75 -1.83039 -0.450458 0
M  V30 16675 C 1609.87 -3.36002 -0.426657 0
M  V30 16676 C 1608.92 -4.24382 0.424497 0
M  V30 16677 S 1609.75 -5.02537 1.84977 0
M  V30 16678 C 1610.91 -6.17328 1.03235 0
M  V30 16679 H 1611.14 -2.7052 1.23313 0
M  V30 16680 H 1608.67 -1.3515 0.746587 0
M  V30 16681 H 1610.63 -4.00579 -0.897053 0
M  V30 16682 H 1609.29 -2.88776 -1.23561 0
M  V30 16683 H 1608.49 -5.0357 -0.208116 0
M  V30 16684 H 1608.09 -3.64682 0.829661 0
M  V30 16685 H 1610.38 -6.76939 0.275635 0
M  V30 16686 H 1611.32 -6.84899 1.79776 0
M  V30 16687 H 1611.73 -5.61641 0.567466 0
M  V30 16688 N 1611.13 -0.710588 -1.40671 0
M  V30 16689 C 1612.35 -0.256007 -2.05814 0
M  V30 16690 C 1612.78 1.09178 -1.53173 0
M  V30 16691 O 1612.14 1.68665 -0.664977 0
M  V30 16692 C 1612.19 -0.240528 -3.59797 0
M  V30 16693 O 1611.29 0.779859 -4.04959 0
M  V30 16694 H 1610.63 -0.121326 -0.652822 0
M  V30 16695 H 1613.16 -0.969667 -1.80163 0
M  V30 16696 H 1613.17 -0.0765027 -4.07928 0
M  V30 16697 H 1611.85 -1.22411 -3.97478 0
M  V30 16698 H 1610.42 0.583965 -3.68299 0
M  V30 16699 N 1612.61 1.50847 -0.456408 0
M  V30 16700 C 1613.83 2.07139 0.104054 0
M  V30 16701 C 1614.26 1.31966 1.34039 0
M  V30 16702 O 1613.62 0.363038 1.77628 0
M  V30 16703 C 1613.66 3.5853 0.385794 0
M  V30 16704 O 1612.77 3.85351 1.46895 0
M  V30 16705 H 1612.11 0.663968 -0.00651246 0
M  V30 16706 H 1614.64 1.94226 -0.64323 0
M  V30 16707 H 1614.65 4.03097 0.630644 0
M  V30 16708 H 1613.32 4.12665 -0.51773 0
M  V30 16709 H 1611.9 3.52635 1.21256 0
M  V30 16710 N 1614.09 0.188454 1.56469 0
M  V30 16711 C 1615.33 -0.454307 1.99287 0
M  V30 16712 C 1615.69 -1.59256 1.07245 0
M  V30 16713 O 1616.89 -2.29905 1.39273 0
M  V30 16714 C 1615.16 -0.908909 3.4565 0
M  V30 16715 S 1616.72 -1.55044 4.10496 0
M  V30 16716 H 1613.54 -0.145527 0.695948 0
M  V30 16717 H 1616.14 0.289956 1.93338 0
M  V30 16718 H 1614.84 -0.0703211 4.1034 0
M  V30 16719 H 1614.38 -1.6868 3.55402 0
M  V30 16720 H 1616.39 -2.83905 4.06955 0
M  V30 16721 N 1615.56 -1.5737 -0.0851874 0
M  V30 16722 C 1616.97 -1.7544 -0.638575 0
M  V30 16723 C 1617.33 -0.812041 -1.78607 0
M  V30 16724 O 1616.45 0.00710428 -2.16399 0
M  V30 16725 C 1617.05 -3.18134 -1.16517 0
M  V30 16726 C 1615.6 -3.37594 -1.66454 0
M  V30 16727 C 1614.75 -2.71203 -0.578274 0
M  V30 16728 H 1617.7 -1.58073 0.140931 0
M  V30 16729 H 1617.72 -3.21553 -2.0343 0
M  V30 16730 H 1617.24 -3.86696 -0.329794 0
M  V30 16731 H 1615.34 -2.74126 -2.5236 0
M  V30 16732 H 1615.45 -4.45968 -1.75071 0
M  V30 16733 H 1613.81 -2.33379 -1.02011 0
M  V30 16734 H 1614.6 -3.42413 0.246691 0
M  V30 16735 N 1617.04 0.356258 -1.53521 0
M  V30 16736 C 1617.97 1.45722 -1.76912 0
M  V30 16737 C 1618.99 1.49257 -0.650091 0
M  V30 16738 O 1620.18 1.52569 -0.926557 0
M  V30 16739 C 1617.28 2.84444 -1.84241 0
M  V30 16740 C 1616.45 3.04497 -3.14007 0
M  V30 16741 C 1615.51 4.23387 -3.12458 0
M  V30 16742 O 1614.53 4.18113 -3.86225 0
M  V30 16743 N 1615.74 5.31278 -2.33931 0
M  V30 16744 H 1618.5 1.26031 -2.71912 0
M  V30 16745 H 1616.06 0.546052 -1.52414 0
M  V30 16746 H 1618.05 3.62133 -1.80671 0
M  V30 16747 H 1616.62 2.97338 -0.96484 0
M  V30 16748 H 1615.84 2.14387 -3.30805 0
M  V30 16749 H 1617.13 3.14769 -3.99747 0
M  V30 16750 H 1616.53 5.38428 -1.73527 0
M  V30 16751 H 1615.09 6.07508 -2.36171 0
M  V30 16752 N 1618.52 1.45038 0.616577 0
M  V30 16753 C 1619.93 1.4316 1.19842 0
M  V30 16754 C 1620.28 0.154504 1.95591 0
M  V30 16755 O 1619.41 -0.744409 2.03193 0
M  V30 16756 C 1620 2.59354 2.17993 0
M  V30 16757 C 1618.56 2.60625 2.71573 0
M  V30 16758 C 1617.71 2.35243 1.4682 0
M  V30 16759 H 1620.66 1.53408 0.406402 0
M  V30 16760 H 1620.68 2.32939 3.00865 0
M  V30 16761 H 1620.19 3.52288 1.62833 0
M  V30 16762 H 1618.29 1.71672 3.30695 0
M  V30 16763 H 1618.41 3.59568 3.16619 0
M  V30 16764 H 1616.77 1.84622 1.75462 0
M  V30 16765 H 1617.55 3.3031 0.935414 0
M  V30 16766 N 1620 -0.858287 1.32179 0
M  V30 16767 C 1621.24 -1.61444 1.23723 0
M  V30 16768 C 1621.6 -1.91358 -0.199954 0
M  V30 16769 O 1620.89 -1.54239 -1.1367 0
M  V30 16770 C 1621.09 -2.94391 2.02654 0
M  V30 16771 C 1620.91 -2.7746 3.53901 0
M  V30 16772 C 1619.68 -2.76033 4.23242 0
M  V30 16773 C 1621.88 -2.51478 4.48624 0
M  V30 16774 N 1619.86 -2.50274 5.60568 0
M  V30 16775 C 1621.24 -2.35092 5.737 0
M  V30 16776 C 1623.29 -2.36917 4.37921 0
M  V30 16777 C 1621.99 -2.05624 6.89283 0
M  V30 16778 C 1624.02 -2.08839 5.533 0
M  V30 16779 C 1623.38 -1.9325 6.77373 0
M  V30 16780 H 1619.48 -0.594623 0.507885 0
M  V30 16781 H 1622.06 -1.00921 1.66502 0
M  V30 16782 H 1620.24 -3.52899 1.62225 0
M  V30 16783 H 1621.97 -3.59361 1.86123 0
M  V30 16784 H 1618.72 -2.8884 3.75325 0
M  V30 16785 H 1619.15 -2.40333 6.32905 0
M  V30 16786 H 1623.79 -2.47691 3.4265 0
M  V30 16787 H 1621.51 -1.93587 7.8457 0
M  V30 16788 H 1625.09 -1.98355 5.46943 0
M  V30 16789 H 1623.97 -1.71832 7.65143 0
M  V30 16790 N 1621.48 -1.1533 -1.07409 0
M  V30 16791 C 1622.72 -0.927807 -1.79994 0
M  V30 16792 C 1623.05 0.545092 -1.86706 0
M  V30 16793 O 1622.31 1.4202 -1.34643 0
M  V30 16794 C 1622.6 -1.48646 -3.25022 0
M  V30 16795 C 1622.27 -2.97974 -3.38411 0
M  V30 16796 C 1620.93 -3.3874 -3.41773 0
M  V30 16797 C 1623.28 -3.93946 -3.41257 0
M  V30 16798 C 1620.61 -4.7412 -3.45582 0
M  V30 16799 C 1622.96 -5.29197 -3.46603 0
M  V30 16800 C 1621.63 -5.6946 -3.48241 0
M  V30 16801 H 1620.9 -0.339509 -0.658646 0
M  V30 16802 H 1623.55 -1.43863 -1.26395 0
M  V30 16803 H 1621.85 -0.89681 -3.81398 0
M  V30 16804 H 1623.55 -1.28781 -3.79759 0
M  V30 16805 H 1620.14 -2.65463 -3.36493 0
M  V30 16806 H 1624.32 -3.63525 -3.37881 0
M  V30 16807 H 1619.58 -5.04661 -3.45149 0
M  V30 16808 H 1623.75 -6.03359 -3.47751 0
M  V30 16809 H 1621.38 -6.74345 -3.50946 0
M  V30 16810 N 1622.95 1.25748 -0.950004 0
M  V30 16811 C 1624.2 1.93622 -0.603186 0
M  V30 16812 C 1624.53 1.74271 0.856925 0
M  V30 16813 O 1623.81 1.08502 1.61423 0
M  V30 16814 C 1624.09 3.4715 -0.957024 0
M  V30 16815 C 1623.94 3.75747 -2.47253 0
M  V30 16816 C 1625.26 4.37488 -0.478754 0
M  V30 16817 H 1622.38 0.703206 -0.220612 0
M  V30 16818 H 1625.02 1.48453 -1.18582 0
M  V30 16819 H 1623.17 3.85753 -0.46122 0
M  V30 16820 H 1624.85 3.46808 -3.04174 0
M  V30 16821 H 1623.09 3.21516 -2.91222 0
M  V30 16822 H 1623.76 4.83097 -2.67061 0
M  V30 16823 H 1626.24 4.06162 -0.903987 0
M  V30 16824 H 1625.11 5.43682 -0.755073 0
M  V30 16825 H 1625.37 4.37712 0.621303 0
M  V30 16826 N 1624.43 0.718038 1.40292 0
M  V30 16827 C 1625.68 0.258986 2.0114 0
M  V30 16828 C 1626.01 -1.1456 1.56811 0
M  V30 16829 O 1625.29 -1.77766 0.789276 0
M  V30 16830 C 1625.57 0.341778 3.58474 0
M  V30 16831 C 1625.42 1.78492 4.12869 0
M  V30 16832 C 1626.74 -0.285622 4.39172 0
M  V30 16833 H 1623.86 0.0955806 0.730776 0
M  V30 16834 H 1626.5 0.911 1.66736 0
M  V30 16835 H 1624.65 -0.213354 3.87914 0
M  V30 16836 H 1626.32 2.39562 3.94218 0
M  V30 16837 H 1624.57 2.31183 3.67065 0
M  V30 16838 H 1625.24 1.79423 5.22026 0
M  V30 16839 H 1627.71 0.187411 4.15678 0
M  V30 16840 H 1626.59 -0.19726 5.48545 0
M  V30 16841 H 1626.85 -1.36947 4.20355 0
M  V30 16842 N 1625.91 -1.50602 0.464402 0
M  V30 16843 C 1627.16 -2.01478 -0.0945398 0
M  V30 16844 C 1627.47 -1.35165 -1.41386 0
M  V30 16845 O 1628.68 -1.7716 -2.05735 0
M  V30 16846 C 1627.13 -3.59233 -0.219003 0
M  V30 16847 C 1626.74 -4.345 1.09148 0
M  V30 16848 C 1628.49 -4.18172 -0.730262 0
M  V30 16849 C 1626.39 -5.84023 0.931179 0
M  V30 16850 H 1625.32 -0.752985 -0.0391065 0
M  V30 16851 H 1627.97 -1.73473 0.598283 0
M  V30 16852 H 1626.36 -3.83798 -0.975455 0
M  V30 16853 H 1627.53 -4.21665 1.85837 0
M  V30 16854 H 1625.85 -3.8714 1.53334 0
M  V30 16855 H 1628.44 -5.27622 -0.867119 0
M  V30 16856 H 1628.79 -3.79113 -1.71986 0
M  V30 16857 H 1629.32 -3.97788 -0.0313808 0
M  V30 16858 H 1626.06 -6.27543 1.89395 0
M  V30 16859 H 1625.58 -5.99451 0.20456 0
M  V30 16860 H 1627.26 -6.44257 0.595118 0
M  V30 16861 N 1627.39 -0.19675 -1.56367 0
M  V30 16862 C 1628.34 0.723461 -2.19168 0
M  V30 16863 C 1629.31 1.20856 -1.13943 0
M  V30 16864 O 1630.49 1.27215 -1.42201 0
M  V30 16865 C 1627.63 1.93669 -2.85633 0
M  V30 16866 C 1626.74 1.49281 -4.05388 0
M  V30 16867 C 1625.88 2.66167 -4.59705 0
M  V30 16868 C 1624.92 2.18393 -5.71814 0
M  V30 16869 N 1624.05 3.28462 -6.20529 0
M  V30 16870 H 1628.89 0.181169 -2.97449 0
M  V30 16871 H 1626.43 0.0776802 -1.46895 0
M  V30 16872 H 1628.39 2.64865 -3.22339 0
M  V30 16873 H 1627.02 2.45227 -2.09913 0
M  V30 16874 H 1626.07 0.676658 -3.74333 0
M  V30 16875 H 1627.38 1.10231 -4.86467 0
M  V30 16876 H 1626.54 3.45483 -4.98725 0
M  V30 16877 H 1625.28 3.08491 -3.77736 0
M  V30 16878 H 1624.28 1.37531 -5.32321 0
M  V30 16879 H 1625.51 1.77097 -6.55602 0
M  V30 16880 H 1623.45 3.70315 -5.41482 0
M  V30 16881 H 1623.37 2.93587 -6.96665 0
M  V30 16882 H 1624.64 4.07988 -6.64204 0
M  V30 16883 N 1628.87 1.57413 0.0768405 0
M  V30 16884 C 1629.78 2.06688 1.10983 0
M  V30 16885 C 1630.79 0.995392 1.42716 0
M  V30 16886 O 1631.97 1.30977 1.52994 0
M  V30 16887 C 1629.03 2.49676 2.40546 0
M  V30 16888 C 1628.09 3.71101 2.1583 0
M  V30 16889 C 1627.33 4.1203 3.39216 0
M  V30 16890 O 1627.55 3.52877 4.48145 0
M  V30 16891 O 1626.48 5.04856 3.27726 0
M  V30 16892 H 1630.31 2.95012 0.721242 0
M  V30 16893 H 1627.9 1.46546 0.290624 0
M  V30 16894 H 1629.78 2.77871 3.16805 0
M  V30 16895 H 1628.45 1.64484 2.78795 0
M  V30 16896 H 1627.36 3.47996 1.37293 0
M  V30 16897 H 1628.69 4.5713 1.82465 0
M  V30 16898 N 1630.34 -0.348112 1.53707 0
M  V30 16899 C 1631.29 -1.42782 1.77756 0
M  V30 16900 C 1632.28 -1.47942 0.63261 0
M  V30 16901 O 1633.47 -1.52889 0.891855 0
M  V30 16902 C 1630.6 -2.79986 1.98652 0
M  V30 16903 C 1629.69 -2.79237 3.19199 0
M  V30 16904 N 1630.08 -2.4812 4.40761 0
M  V30 16905 C 1628.37 -3.10387 3.20275 0
M  V30 16906 C 1629.08 -2.55489 5.2259 0
M  V30 16907 N 1628.05 -2.90923 4.592 0
M  V30 16908 H 1631.85 -1.17615 2.6934 0
M  V30 16909 H 1629.37 -0.556438 1.5257 0
M  V30 16910 H 1631.36 -3.57777 2.14013 0
M  V30 16911 H 1630.02 -3.06104 1.08307 0
M  V30 16912 H 1631.04 -2.214 4.68191 0
M  V30 16913 H 1627.71 -3.41706 2.39882 0
M  V30 16914 H 1629.1 -2.34629 6.29602 0
M  V30 16915 N 1631.82 -1.45363 -0.608876 0
M  V30 16916 C 1632.75 -1.49944 -1.73348 0
M  V30 16917 C 1633.77 -0.390352 -1.58051 0
M  V30 16918 O 1634.96 -0.657338 -1.65956 0
M  V30 16919 C 1632.06 -1.33886 -3.11332 0
M  V30 16920 C 1631.23 -2.58445 -3.52881 0
M  V30 16921 C 1630.29 -2.36963 -4.69825 0
M  V30 16922 O 1629.31 -3.10569 -4.77007 0
M  V30 16923 N 1630.52 -1.41442 -5.63005 0
M  V30 16924 H 1633.28 -2.46902 -1.69882 0
M  V30 16925 H 1630.84 -1.41086 -0.794119 0
M  V30 16926 H 1632.83 -1.17327 -3.8732 0
M  V30 16927 H 1631.4 -0.452095 -3.09314 0
M  V30 16928 H 1630.62 -2.90129 -2.66869 0
M  V30 16929 H 1631.91 -3.41245 -3.77398 0
M  V30 16930 H 1631.31 -0.806941 -5.59915 0
M  V30 16931 H 1629.87 -1.30855 -6.3853 0
M  V30 16932 N 1633.3 0.851265 -1.32632 0
M  V30 16933 C 1634.58 1.58945 -1.13999 0
M  V30 16934 C 1634.96 2.08981 0.29836 0
M  V30 16935 O 1634.31 1.88226 1.2955 0
M  V30 16936 C 1634.52 2.73296 -2.17049 0
M  V30 16937 C 1635.86 3.42791 -2.50559 0
M  V30 16938 O 1636.89 2.83524 -2.15621 0
M  V30 16939 O 1635.75 4.49749 -3.10464 0
M  V30 16940 H 1632.84 0.700157 -0.440124 0
M  V30 16941 H 1635.39 0.895098 -1.44174 0
M  V30 16942 H 1634.16 2.33873 -3.13718 0
M  V30 16943 H 1633.78 3.50405 -1.87888 0
M  V30 16944 N 1634.78 1.15898 1.06796 0
M  V30 16945 C 1635.71 0.88395 2.16122 0
M  V30 16946 C 1636.69 -0.167708 1.69271 0
M  V30 16947 O 1637.87 -0.0208846 1.94189 0
M  V30 16948 C 1635 0.378656 3.4523 0
M  V30 16949 C 1633.96 1.36764 4.05561 0
M  V30 16950 C 1633.28 0.720956 5.29817 0
M  V30 16951 C 1634.58 2.73554 4.44933 0
M  V30 16952 H 1636.28 1.79818 2.39386 0
M  V30 16953 H 1633.82 0.866008 1.15049 0
M  V30 16954 H 1635.78 0.17376 4.21042 0
M  V30 16955 H 1634.5 -0.571063 3.21569 0
M  V30 16956 H 1633.16 1.55899 3.318 0
M  V30 16957 H 1632.81 -0.235089 5.0245 0
M  V30 16958 H 1632.51 1.38101 5.71141 0
M  V30 16959 H 1634.03 0.525963 6.0833 0
M  V30 16960 H 1635.45 2.58231 5.11849 0
M  V30 16961 H 1633.84 3.35986 4.97226 0
M  V30 16962 H 1634.91 3.29192 3.56034 0
M  V30 16963 N 1636.26 -1.25243 0.956659 0
M  V30 16964 C 1637.2 -2.25811 0.477292 0
M  V30 16965 C 1638.17 -1.59273 -0.471301 0
M  V30 16966 O 1639.36 -1.86894 -0.384105 0
M  V30 16967 C 1636.5 -3.44286 -0.236891 0
M  V30 16968 C 1635.61 -4.25454 0.749177 0
M  V30 16969 C 1634.75 -5.31199 0.012228 0
M  V30 16970 C 1633.79 -6.04056 0.989094 0
M  V30 16971 N 1632.92 -7.0153 0.282883 0
M  V30 16972 H 1637.76 -2.66185 1.33977 0
M  V30 16973 H 1635.3 -1.30862 0.671832 0
M  V30 16974 H 1637.26 -4.11825 -0.66755 0
M  V30 16975 H 1635.89 -3.04781 -1.06339 0
M  V30 16976 H 1634.94 -3.57558 1.29831 0
M  V30 16977 H 1636.25 -4.75883 1.49454 0
M  V30 16978 H 1635.41 -6.04822 -0.476968 0
M  V30 16979 H 1634.14 -4.81648 -0.76591 0
M  V30 16980 H 1633.15 -5.29245 1.48927 0
M  V30 16981 H 1634.37 -6.55695 1.76749 0
M  V30 16982 H 1632.32 -6.54267 -0.476479 0
M  V30 16983 H 1632.24 -7.49786 0.967304 0
M  V30 16984 H 1633.51 -7.79281 -0.184709 0
M  V30 16985 N 1637.73 -0.725468 -1.3991 0
M  V30 16986 C 1638.68 -0.0682776 -2.325 0
M  V30 16987 C 1639.68 0.736285 -1.52562 0
M  V30 16988 O 1640.88 0.638542 -1.68293 0
M  V30 16989 H 1637.26 -0.00327742 -0.751993 0
M  V30 16990 H 1639.23 -0.865735 -2.85565 0
M  V30 16991 C 1637.98 0.832036 -3.37598 0
M  V30 16992 H 1637.3 0.222341 -3.99181 0
M  V30 16993 H 1638.74 1.25965 -4.04856 0
M  V30 16994 C 1637.2 1.96201 -2.73874 0
M  V30 16995 O 1637.73 3.05378 -2.60974 0
M  V30 16996 N 1635.94 1.74857 -2.32106 0
M  V30 16997 H 1635.48 0.860621 -2.42798 0
M  V30 16998 H 1635.44 2.50639 -1.89808 0
M  V30 16999 N 1639.21 1.50354 -0.472382 0
M  V30 17000 C 1640.46 2.01934 0.0820006 0
M  V30 17001 C 1640.78 1.35636 1.401 0
M  V30 17002 O 1640.05 0.502127 1.89355 0
M  V30 17003 H 1638.63 0.746258 0.0332943 0
M  V30 17004 H 1641.29 1.84671 -0.623099 0
M  V30 17005 H 1640.39 3.11232 0.232565 0
M  V30 17006 N 1640.69 0.205039 1.56261 0
M  V30 17007 C 1641.94 -0.430245 1.97467 0
M  V30 17008 C 1642.26 -1.6146 1.09342 0
M  V30 17009 O 1641.53 -1.95188 0.166836 0
M  V30 17010 H 1640.11 -0.161945 0.729234 0
M  V30 17011 H 1642.77 0.294089 1.92668 0
M  V30 17012 H 1641.87 -0.767699 3.02511 0
M  V30 17013 N 1642.17 -1.57451 -0.0684915 0
M  V30 17014 C 1643.1 -2.00648 -1.10783 0
M  V30 17015 C 1644.11 -0.912944 -1.34793 0
M  V30 17016 O 1645.3 -1.19079 -1.32975 0
M  V30 17017 C 1642.4 -2.33309 -2.45805 0
M  V30 17018 C 1641.58 -3.64551 -2.41704 0
M  V30 17019 C 1640.64 -3.84845 -3.5886 0
M  V30 17020 O 1639.66 -4.56392 -3.40139 0
M  V30 17021 N 1640.86 -3.27451 -4.79329 0
M  V30 17022 H 1643.63 -2.90422 -0.739938 0
M  V30 17023 H 1641.19 -1.59846 -0.257093 0
M  V30 17024 H 1643.18 -2.44056 -3.22829 0
M  V30 17025 H 1641.75 -1.49408 -2.74583 0
M  V30 17026 H 1640.97 -3.64528 -1.50043 0
M  V30 17027 H 1642.26 -4.50721 -2.36068 0
M  V30 17028 H 1641.66 -2.69384 -4.97442 0
M  V30 17029 H 1640.21 -3.43641 -5.53854 0
M  V30 17030 N 1643.65 0.339955 -1.5389 0
M  V30 17031 C 1645.06 0.915362 -1.62721 0
M  V30 17032 C 1645.41 1.89434 -0.510798 0
M  V30 17033 O 1644.53 2.13403 0.3589 0
M  V30 17034 C 1645.13 1.66699 -2.94953 0
M  V30 17035 C 1643.69 2.19135 -3.06034 0
M  V30 17036 C 1642.84 1.01159 -2.5819 0
M  V30 17037 H 1645.79 0.11799 -1.58261 0
M  V30 17038 H 1645.81 2.53011 -2.84193 0
M  V30 17039 H 1645.32 0.954219 -3.76186 0
M  V30 17040 H 1643.42 2.93577 -2.29441 0
M  V30 17041 H 1643.53 2.4526 -4.11563 0
M  V30 17042 H 1641.9 1.38604 -2.13685 0
M  V30 17043 H 1642.68 0.313396 -3.41867 0
M  V30 17044 N 1645.13 1.45684 0.601159 0
M  V30 17045 C 1646.37 1.50258 1.362 0
M  V30 17046 C 1646.7 0.146358 1.93648 0
M  V30 17047 O 1645.98 -0.839985 1.75427 0
M  V30 17048 C 1646.26 2.5868 2.50513 0
M  V30 17049 C 1646.12 4.03769 1.98219 0
M  V30 17050 C 1647.43 2.63332 3.52624 0
M  V30 17051 H 1644.55 0.547045 0.493873 0
M  V30 17052 H 1647.2 1.77527 0.677068 0
M  V30 17053 H 1645.35 2.35559 3.08941 0
M  V30 17054 H 1647.02 4.3812 1.44391 0
M  V30 17055 H 1645.26 4.14121 1.29174 0
M  V30 17056 H 1645.93 4.75329 2.80653 0
M  V30 17057 H 1648.41 2.84067 3.04048 0
M  V30 17058 H 1647.28 3.41047 4.30091 0
M  V30 17059 H 1647.54 1.68668 4.0866 0
M  V30 17060 N 1646.6 -0.84422 1.33082 0
M  V30 17061 C 1647.57 -1.93519 1.22813 0
M  V30 17062 C 1648.57 -1.60113 0.148516 0
M  V30 17063 O 1649.76 -1.69553 0.399668 0
M  V30 17064 C 1646.89 -3.29045 0.891179 0
M  V30 17065 H 1648.08 -2.04051 2.1978 0
M  V30 17066 H 1645.63 -1.03567 1.17063 0
M  V30 17067 H 1646.37 -3.2421 -0.0762276 0
M  V30 17068 H 1646.15 -3.54671 1.67186 0
M  V30 17069 H 1647.64 -4.08984 0.843932 0
M  V30 17070 N 1648.08 -1.16463 -1.0618 0
M  V30 17071 C 1649.33 -0.944975 -1.78647 0
M  V30 17072 C 1649.65 0.528486 -1.87702 0
M  V30 17073 O 1648.92 1.38391 -1.38653 0
M  V30 17074 H 1647.5 -0.346637 -0.661704 0
M  V30 17075 H 1650.16 -1.46752 -1.28257 0
M  V30 17076 H 1649.26 -1.36469 -2.80683 0
M  V30 17077 N 1649.56 1.24734 -0.963288 0
M  V30 17078 C 1650.47 2.29268 -0.497316 0
M  V30 17079 C 1651.49 1.68356 0.439572 0
M  V30 17080 O 1652.66 1.98942 0.313697 0
M  V30 17081 C 1649.73 3.46068 0.209261 0
M  V30 17082 C 1648.79 4.22394 -0.766907 0
M  V30 17083 C 1648.02 5.33617 -0.0939542 0
M  V30 17084 O 1648.24 5.59323 1.11864 0
M  V30 17085 O 1647.18 5.96774 -0.78388 0
M  V30 17086 H 1651 2.71235 -1.36622 0
M  V30 17087 H 1648.59 1.30344 -0.730126 0
M  V30 17088 H 1650.47 4.17015 0.606367 0
M  V30 17089 H 1649.15 3.06087 1.0532 0
M  V30 17090 H 1648.05 3.53841 -1.21439 0
M  V30 17091 H 1649.39 4.66181 -1.57912 0
M  V30 17092 N 1651.04 0.732878 1.39523 0
M  V30 17093 C 1652.31 0.20629 1.94509 0
M  V30 17094 C 1652.69 -1.29152 1.66982 0
M  V30 17095 O 1652.04 -2.05607 0.996895 0
M  V30 17096 C 1652.25 0.537619 3.44834 0
M  V30 17097 C 1653.6 0.485787 4.21812 0
M  V30 17098 O 1654.62 0.474686 3.53023 0
M  V30 17099 O 1653.48 0.478457 5.44402 0
M  V30 17100 H 1650.58 0.0369228 0.826175 0
M  V30 17101 H 1653.12 0.811591 1.49035 0
M  V30 17102 H 1651.9 1.57289 3.58296 0
M  V30 17103 H 1651.52 -0.0967601 3.97482 0
M  V30 17104 N 1652.52 -1.50101 0.480349 0
M  V30 17105 C 1653.76 -2.01974 -0.0712904 0
M  V30 17106 C 1654.08 -1.36377 -1.39378 0
M  V30 17107 O 1653.35 -0.512162 -1.89087 0
M  V30 17108 H 1651.93 -0.746424 -0.0293362 0
M  V30 17109 H 1654.6 -1.84338 0.632883 0
M  V30 17110 H 1653.69 -3.11351 -0.216057 0
M  V30 17111 N 1653.99 -0.213323 -1.5615 0
M  V30 17112 C 1654.93 0.732346 -2.17185 0
M  V30 17113 C 1655.94 1.16357 -1.13864 0
M  V30 17114 O 1657.13 1.09614 -1.40879 0
M  V30 17115 C 1654.23 2.0027 -2.73395 0
M  V30 17116 C 1653.4 1.72836 -4.01804 0
M  V30 17117 C 1652.46 2.84497 -4.4266 0
M  V30 17118 O 1651.49 2.5332 -5.09723 0
M  V30 17119 N 1652.69 4.13268 -4.07663 0
M  V30 17120 H 1655.45 0.210294 -2.98961 0
M  V30 17121 H 1653.01 -0.0320124 -1.61868 0
M  V30 17122 H 1655.01 2.74145 -2.97702 0
M  V30 17123 H 1653.58 2.43546 -1.9597 0
M  V30 17124 H 1652.8 0.826474 -3.85439 0
M  V30 17125 H 1654.08 1.51928 -4.85588 0
M  V30 17126 H 1653.48 4.41444 -3.53756 0
M  V30 17127 H 1652.04 4.83713 -4.36881 0
M  V30 17128 N 1655.47 1.57485 0.0601405 0
M  V30 17129 C 1656.44 2.03493 1.05467 0
M  V30 17130 C 1657.44 0.933816 1.30907 0
M  V30 17131 O 1658.63 1.19837 1.26431 0
M  V30 17132 C 1655.76 2.42549 2.39547 0
M  V30 17133 H 1656.95 2.92595 0.657893 0
M  V30 17134 H 1654.5 1.53272 0.306183 0
M  V30 17135 H 1655.24 1.56509 2.84034 0
M  V30 17136 H 1655.02 3.22911 2.22421 0
M  V30 17137 H 1656.51 2.7868 3.1101 0
M  V30 17138 N 1656.95 -0.331789 1.54068 0
M  V30 17139 C 1657.91 -1.39094 1.82169 0
M  V30 17140 C 1658.91 -1.45092 0.693168 0
M  V30 17141 O 1660.1 -1.45263 0.961471 0
M  V30 17142 C 1657.24 -2.77909 1.97432 0
M  V30 17143 H 1658.43 -1.15435 2.76794 0
M  V30 17144 H 1655.98 -0.566827 1.4566 0
M  V30 17145 H 1656.72 -3.06835 1.0499 0
M  V30 17146 H 1656.5 -2.7495 2.79544 0
M  V30 17147 H 1657.99 -3.54548 2.20649 0
M  V30 17148 N 1658.43 -1.46001 -0.593424 0
M  V30 17149 C 1659.71 -1.4123 -1.35327 0
M  V30 17150 C 1660.09 -0.0901956 -2.10907 0
M  V30 17151 O 1659.43 0.928102 -2.08803 0
M  V30 17152 C 1659.64 -2.63515 -2.28825 0
M  V30 17153 C 1660.99 -3.09208 -2.90991 0
M  V30 17154 O 1662.02 -2.63988 -2.39142 0
M  V30 17155 O 1660.87 -3.87723 -3.8514 0
M  V30 17156 H 1657.97 -0.561132 -0.607503 0
M  V30 17157 H 1660.51 -1.58151 -0.615333 0
M  V30 17158 H 1659.29 -3.51308 -1.72333 0
M  V30 17159 H 1658.91 -2.48999 -3.09976 0
M  V30 17160 N 1659.91 0.83715 -1.33527 0
M  V30 17161 C 1661.15 1.58937 -1.24834 0
M  V30 17162 C 1661.48 1.94117 0.185368 0
M  V30 17163 O 1660.75 1.61105 1.11453 0
M  V30 17164 H 1659.33 0.589301 -0.459057 0
M  V30 17165 H 1661.99 1.00038 -1.67267 0
M  V30 17166 H 1661.08 2.51855 -1.84325 0
M  V30 17167 N 1661.38 1.17024 1.05561 0
M  V30 17168 C 1662.61 0.981293 1.82717 0
M  V30 17169 C 1663.03 -0.465636 1.82246 0
M  V30 17170 O 1662.39 -1.33315 1.22869 0
M  V30 17171 C 1662.44 1.52239 3.26888 0
M  V30 17172 O 1661.54 0.73366 4.05822 0
M  V30 17173 H 1660.89 0.348677 0.565084 0
M  V30 17174 H 1663.42 1.55435 1.33046 0
M  V30 17175 H 1663.43 1.54306 3.77695 0
M  V30 17176 H 1662.1 2.57567 3.26545 0
M  V30 17177 H 1660.68 0.784101 3.64563 0
M  V30 17178 N 1662.86 -1.24221 0.969889 0
M  V30 17179 C 1663.8 -2.2379 0.446447 0
M  V30 17180 C 1664.77 -1.55333 -0.480658 0
M  V30 17181 O 1665.96 -1.83953 -0.411531 0
M  V30 17182 C 1663.08 -3.36831 -0.35529 0
M  V30 17183 C 1662.13 -4.23386 0.514419 0
M  V30 17184 S 1662.96 -4.98501 1.95595 0
M  V30 17185 C 1664.12 -6.14999 1.16306 0
M  V30 17186 H 1664.35 -2.67844 1.29023 0
M  V30 17187 H 1661.89 -1.33536 0.775086 0
M  V30 17188 H 1663.84 -4.02391 -0.811882 0
M  V30 17189 H 1662.5 -2.91332 -1.17407 0
M  V30 17190 H 1661.7 -5.03898 -0.101254 0
M  V30 17191 H 1661.3 -3.6284 0.906829 0
M  V30 17192 H 1663.59 -6.76202 0.419162 0
M  V30 17193 H 1664.53 -6.80931 1.94264 0
M  V30 17194 H 1664.94 -5.6031 0.68647 0
M  V30 17195 N 1664.34 -0.740267 -1.39132 0
M  V30 17196 C 1665.27 -0.064087 -2.2911 0
M  V30 17197 C 1666.29 0.697897 -1.47082 0
M  V30 17198 O 1667.47 0.541189 -1.70098 0
M  V30 17199 C 1664.57 0.933426 -3.25792 0
M  V30 17200 C 1663.75 0.231867 -4.36785 0
M  V30 17201 C 1662.81 1.13823 -5.13742 0
M  V30 17202 O 1661.83 0.613741 -5.65881 0
M  V30 17203 N 1663.03 2.46751 -5.25447 0
M  V30 17204 H 1665.8 -0.836774 -2.87781 0
M  V30 17205 H 1663.36 -0.589928 -1.5077 0
M  V30 17206 H 1665.35 1.5425 -3.74151 0
M  V30 17207 H 1663.92 1.60728 -2.68114 0
M  V30 17208 H 1663.14 -0.557747 -3.90234 0
M  V30 17209 H 1664.43 -0.254115 -5.08165 0
M  V30 17210 H 1663.83 2.91834 -4.84613 0
M  V30 17211 H 1662.39 3.02741 -5.77227 0
M  V30 17212 N 1665.82 1.49844 -0.488302 0
M  V30 17213 C 1667.23 1.86663 -0.037377 0
M  V30 17214 C 1667.58 1.40172 1.37281 0
M  V30 17215 O 1666.71 0.77409 2.02081 0
M  V30 17216 C 1667.3 3.38745 -0.0610523 0
M  V30 17217 C 1665.86 3.74911 0.334475 0
M  V30 17218 C 1665.01 2.73801 -0.439109 0
M  V30 17219 H 1667.96 1.42343 -0.70173 0
M  V30 17220 H 1667.98 3.7329 0.737203 0
M  V30 17221 H 1667.49 3.72551 -1.08753 0
M  V30 17222 H 1665.59 3.4671 1.36466 0
M  V30 17223 H 1665.7 4.79094 0.0238536 0
M  V30 17224 H 1664.07 2.54465 0.109433 0
M  V30 17225 H 1664.85 3.10452 -1.46542 0
M  V30 17226 N 1667.3 0.221601 1.56034 0
M  V30 17227 C 1668.52 -0.414945 2.02696 0
M  V30 17228 C 1668.94 -1.53344 1.10141 0
M  V30 17229 O 1668.3 -1.82162 0.111026 0
M  V30 17230 C 1668.35 -0.946532 3.48888 0
M  V30 17231 O 1668.07 0.12737 4.37915 0
M  V30 17232 C 1669.57 -1.65631 4.11195 0
M  V30 17233 H 1666.79 -0.101548 0.663271 0
M  V30 17234 H 1669.33 0.338069 2.01686 0
M  V30 17235 H 1667.49 -1.64982 3.50514 0
M  V30 17236 H 1667.9 -0.272211 5.23793 0
M  V30 17237 H 1669.38 -1.98027 5.15257 0
M  V30 17238 H 1669.85 -2.56947 3.56195 0
M  V30 17239 H 1670.46 -0.998231 4.13419 0
M  V30 17240 N 1668.77 -1.57515 -0.0517878 0
M  V30 17241 C 1670 -1.92845 -0.763249 0
M  V30 17242 C 1670.42 -0.819745 -1.69298 0
M  V30 17243 O 1669.78 0.226161 -1.79884 0
M  V30 17244 C 1669.83 -3.27189 -1.5159 0
M  V30 17245 O 1668.93 -3.17834 -2.62783 0
M  V30 17246 H 1668.28 -0.630944 -0.206896 0
M  V30 17247 H 1670.81 -2.04595 -0.0140481 0
M  V30 17248 H 1670.82 -3.61542 -1.89081 0
M  V30 17249 H 1669.49 -4.07455 -0.833871 0
M  V30 17250 H 1668.07 -2.95075 -2.28002 0
M  V30 17251 N 1670.25 0.323614 -1.54242 0
M  V30 17252 C 1671.5 1.05935 -1.73636 0
M  V30 17253 C 1671.85 1.85684 -0.503888 0
M  V30 17254 O 1671.15 1.84861 0.503692 0
M  V30 17255 C 1671.34 2.01452 -2.95215 0
M  V30 17256 C 1671.17 1.31094 -4.30168 0
M  V30 17257 C 1669.94 1.04747 -4.94324 0
M  V30 17258 C 1672.14 0.726886 -5.09137 0
M  V30 17259 N 1670.12 0.311788 -6.13108 0
M  V30 17260 C 1671.49 0.122813 -6.19878 0
M  V30 17261 C 1673.55 0.629696 -4.93902 0
M  V30 17262 C 1672.25 -0.569019 -7.17046 0
M  V30 17263 C 1674.28 -0.0484359 -5.9138 0
M  V30 17264 C 1673.64 -0.641453 -7.01473 0
M  V30 17265 H 1669.74 0.371344 -0.688206 0
M  V30 17266 H 1672.32 0.340541 -1.91699 0
M  V30 17267 H 1670.49 2.70605 -2.78617 0
M  V30 17268 H 1672.22 2.6801 -3.03237 0
M  V30 17269 H 1668.98 1.33979 -4.54254 0
M  V30 17270 H 1669.4 -0.0419069 -6.76987 0
M  V30 17271 H 1674.04 1.0739 -4.08934 0
M  V30 17272 H 1671.76 -1.02505 -8.01572 0
M  V30 17273 H 1675.35 -0.123275 -5.81669 0
M  V30 17274 H 1674.23 -1.15786 -7.75605 0
M  V30 17275 N 1671.73 1.46313 0.585673 0
M  V30 17276 C 1673.15 1.31203 0.908733 0
M  V30 17277 C 1673.35 0.281265 1.99527 0
M  V30 17278 O 1672.4 -0.317202 2.505 0
M  V30 17279 C 1673.72 2.69742 1.3289 0
M  V30 17280 C 1675.26 2.77809 1.44191 0
M  V30 17281 C 1675.74 4.16924 1.89574 0
M  V30 17282 N 1677.23 4.19327 1.96773 0
M  V30 17283 C 1677.97 5.23856 2.33157 0
M  V30 17284 N 1677.46 6.38716 2.68355 0
M  V30 17285 N 1679.25 5.11221 2.33686 0
M  V30 17286 H 1671.41 2.11989 -0.132126 0
M  V30 17287 H 1673.67 0.947993 0.00355835 0
M  V30 17288 H 1673.37 3.46465 0.604557 0
M  V30 17289 H 1673.25 2.99653 2.29102 0
M  V30 17290 H 1675.64 2.01377 2.15712 0
M  V30 17291 H 1675.72 2.51587 0.46237 0
M  V30 17292 H 1675.36 4.93851 1.18633 0
M  V30 17293 H 1675.29 4.40552 2.88481 0
M  V30 17294 H 1677.78 3.36451 1.72073 0
M  V30 17295 H 1678.09 7.14253 2.95063 0
M  V30 17296 H 1676.44 6.42082 2.66 0
M  V30 17297 H 1679.63 4.20527 2.05609 0
M  V30 17298 H 1679.8 5.92798 2.61714 0
M  V30 17299 N 1673.21 -0.830057 1.33969 0
M  V30 17300 C 1674.14 -1.94785 1.20795 0
M  V30 17301 C 1675.15 -1.62225 0.136752 0
M  V30 17302 O 1676.34 -1.74233 0.38797 0
M  V30 17303 C 1673.44 -3.28523 0.832209 0
M  V30 17304 C 1672.62 -3.89157 1.99689 0
M  V30 17305 C 1671.68 -5.01262 1.6007 0
M  V30 17306 O 1670.7 -5.19939 2.31629 0
M  V30 17307 N 1671.9 -5.78249 0.510754 0
M  V30 17308 H 1674.67 -2.06621 2.17089 0
M  V30 17309 H 1672.23 -1.00626 1.26831 0
M  V30 17310 H 1674.22 -4.00958 0.549094 0
M  V30 17311 H 1672.79 -3.12574 -0.0403271 0
M  V30 17312 H 1672.01 -3.09203 2.44514 0
M  V30 17313 H 1673.3 -4.26399 2.77599 0
M  V30 17314 H 1672.7 -5.65637 -0.0842912 0
M  V30 17315 H 1671.25 -6.51166 0.287345 0
M  V30 17316 N 1674.69 -1.17582 -1.04939 0
M  V30 17317 C 1675.6 -0.909588 -2.16249 0
M  V30 17318 C 1676.61 0.123166 -1.73564 0
M  V30 17319 O 1677.79 -0.0566976 -2.0132 0
M  V30 17320 C 1674.85 -0.429342 -3.44031 0
M  V30 17321 C 1673.92 -1.529 -4.01149 0
M  V30 17322 C 1673.15 -1.07157 -5.22832 0
M  V30 17323 O 1673.37 0.0732634 -5.70353 0
M  V30 17324 O 1672.31 -1.86567 -5.72255 0
M  V30 17325 H 1676.13 -1.84074 -2.41558 0
M  V30 17326 H 1673.72 -0.956914 -1.14732 0
M  V30 17327 H 1675.6 -0.16917 -4.2106 0
M  V30 17328 H 1674.27 0.473629 -3.20216 0
M  V30 17329 H 1673.18 -1.84308 -3.25548 0
M  V30 17330 H 1674.51 -2.40777 -4.29287 0
M  V30 17331 N 1676.17 1.23705 -0.976463 0
M  V30 17332 C 1677.58 1.73848 -0.680723 0
M  V30 17333 C 1677.93 1.79005 0.803228 0
M  V30 17334 O 1677.05 1.42529 1.62832 0
M  V30 17335 C 1677.65 3.15724 -1.22898 0
M  V30 17336 C 1676.21 3.63338 -0.982963 0
M  V30 17337 C 1675.35 2.41712 -1.35906 0
M  V30 17338 H 1678.3 1.09284 -1.15077 0
M  V30 17339 H 1678.33 3.75748 -0.599487 0
M  V30 17340 H 1677.84 3.11938 -2.30903 0
M  V30 17341 H 1675.94 3.72512 0.0811766 0
M  V30 17342 H 1676.05 4.50347 -1.63477 0
M  V30 17343 H 1674.42 2.42543 -0.777498 0
M  V30 17344 H 1675.2 2.40601 -2.4488 0
M  V30 17345 N 1677.64 0.747635 1.38738 0
M  V30 17346 C 1678.58 0.0762364 2.29073 0
M  V30 17347 C 1679.59 -0.690087 1.4745 0
M  V30 17348 O 1680.78 -0.53216 1.70383 0
M  V30 17349 C 1677.88 -0.916136 3.26282 0
M  V30 17350 C 1677.05 -0.2087 4.36902 0
M  V30 17351 C 1676.11 -1.11097 5.14338 0
M  V30 17352 O 1675.14 -0.583722 5.66199 0
M  V30 17353 N 1676.34 -2.43961 5.26748 0
M  V30 17354 H 1679.1 0.852024 2.87334 0
M  V30 17355 H 1676.66 0.597915 1.50455 0
M  V30 17356 H 1678.66 -1.52263 3.74964 0
M  V30 17357 H 1677.23 -1.59304 2.68963 0
M  V30 17358 H 1676.45 0.578435 3.89933 0
M  V30 17359 H 1677.73 0.281061 5.08023 0
M  V30 17360 H 1677.13 -2.89259 4.86154 0
M  V30 17361 H 1675.69 -2.99676 5.78824 0
M  V30 17362 N 1679.12 -1.49583 0.496242 0
M  V30 17363 C 1680.05 -2.31885 -0.274139 0
M  V30 17364 C 1681.03 -1.39939 -0.96701 0
M  V30 17365 O 1682.22 -1.6885 -0.959333 0
M  V30 17366 C 1679.35 -3.20332 -1.34181 0
M  V30 17367 C 1678.3 -4.21033 -0.769091 0
M  V30 17368 C 1677.63 -4.98385 -1.93693 0
M  V30 17369 C 1678.93 -5.21764 0.236648 0
M  V30 17370 H 1680.62 -2.9654 0.412824 0
M  V30 17371 H 1678.17 -1.42605 0.199979 0
M  V30 17372 H 1680.12 -3.76718 -1.88843 0
M  V30 17373 H 1678.84 -2.53611 -2.05789 0
M  V30 17374 H 1677.5 -3.65785 -0.244252 0
M  V30 17375 H 1677.15 -4.28115 -2.64058 0
M  V30 17376 H 1676.85 -5.66519 -1.55981 0
M  V30 17377 H 1678.38 -5.57613 -2.48798 0
M  V30 17378 H 1679.79 -5.72871 -0.221672 0
M  V30 17379 H 1678.19 -5.97761 0.529346 0
M  V30 17380 H 1679.26 -4.70964 1.15415 0
M  V30 17381 N 1680.6 -0.229873 -1.55915 0
M  V30 17382 C 1681.84 0.40131 -2.00422 0
M  V30 17383 C 1682.2 1.56356 -1.1143 0
M  V30 17384 O 1683.4 2.26132 -1.45319 0
M  V30 17385 C 1681.68 0.816946 -3.47938 0
M  V30 17386 S 1683.23 1.44106 -4.14462 0
M  V30 17387 H 1680.05 0.127024 -0.699561 0
M  V30 17388 H 1682.65 -0.341114 -1.92501 0
M  V30 17389 H 1681.36 -0.038498 -4.10382 0
M  V30 17390 H 1680.89 1.59198 -3.59749 0
M  V30 17391 H 1682.9 2.73016 -4.14339 0
M  V30 17392 N 1682.08 1.5754 0.0434337 0
M  V30 17393 C 1683.33 1.88235 0.735652 0
M  V30 17394 C 1683.65 0.825698 1.76656 0
M  V30 17395 O 1682.92 -0.142424 1.95382 0
M  V30 17396 H 1681.5 0.694661 0.274692 0
M  V30 17397 H 1684.16 1.94896 0.0127911 0
M  V30 17398 H 1683.25 2.86659 1.23421 0
M  V30 17399 N 1683.56 -0.31543 1.54411 0
M  V30 17400 C 1684.49 -1.41263 1.79221 0
M  V30 17401 C 1685.47 -1.49363 0.642601 0
M  V30 17402 O 1686.65 -1.66648 0.880953 0
M  V30 17403 C 1683.78 -2.79294 1.91605 0
M  V30 17404 C 1682.82 -2.88686 3.13946 0
M  V30 17405 S 1683.66 -2.52259 4.72362 0
M  V30 17406 C 1684.81 -3.92347 4.87663 0
M  V30 17407 H 1685.05 -1.20006 2.72003 0
M  V30 17408 H 1682.58 -0.51273 1.45638 0
M  V30 17409 H 1684.54 -3.58803 1.99425 0
M  V30 17410 H 1683.2 -2.97828 0.997857 0
M  V30 17411 H 1682.39 -3.89896 3.1937 0
M  V30 17412 H 1681.99 -2.17157 3.04498 0
M  V30 17413 H 1684.28 -4.8719 4.70799 0
M  V30 17414 H 1685.23 -3.91901 5.89762 0
M  V30 17415 H 1685.64 -3.81679 4.1591 0
M  V30 17416 N 1685.03 -1.46622 -0.577906 0
M  V30 17417 C 1686.28 -1.5188 -1.3333 0
M  V30 17418 C 1686.6 -0.173993 -1.94222 0
M  V30 17419 O 1685.87 0.799972 -1.78822 0
M  V30 17420 H 1684.45 -0.559401 -0.495055 0
M  V30 17421 H 1687.12 -1.82785 -0.676449 0
M  V30 17422 H 1686.21 -2.27411 -2.13754 0
M  V30 17423 N 1686.51 0.822941 -1.34408 0
M  V30 17424 C 1687.74 1.61087 -1.2984 0
M  V30 17425 C 1688.16 1.88369 0.127527 0
M  V30 17426 O 1687.51 1.47508 1.0746 0
M  V30 17427 C 1687.56 2.9518 -2.08689 0
M  V30 17428 O 1687.28 2.69089 -3.45721 0
M  V30 17429 C 1688.79 3.89583 -2.11518 0
M  V30 17430 H 1686.01 0.500726 -0.44667 0
M  V30 17431 H 1688.55 1.02391 -1.77021 0
M  V30 17432 H 1686.7 3.50434 -1.6515 0
M  V30 17433 H 1687.12 3.5459 -3.86479 0
M  V30 17434 H 1688.59 4.80835 -2.71111 0
M  V30 17435 H 1689.07 4.24953 -1.10957 0
M  V30 17436 H 1689.68 3.40265 -2.55146 0
M  V30 17437 N 1687.99 1.18137 1.04314 0
M  V30 17438 C 1688.9 0.921044 2.15764 0
M  V30 17439 C 1689.92 -0.11396 1.73626 0
M  V30 17440 O 1691.09 0.0673733 2.01287 0
M  V30 17441 C 1688.16 0.447581 3.43799 0
M  V30 17442 C 1687.22 1.55025 4.00332 0
M  V30 17443 C 1686.45 1.09928 5.22256 0
M  V30 17444 O 1686.67 -0.0430152 5.70384 0
M  V30 17445 O 1685.61 1.896 5.71258 0
M  V30 17446 H 1689.43 1.85353 2.40579 0
M  V30 17447 H 1687.02 0.962985 1.14223 0
M  V30 17448 H 1688.9 0.191497 4.20965 0
M  V30 17449 H 1687.58 -0.456641 3.20463 0
M  V30 17450 H 1686.48 1.86032 3.24566 0
M  V30 17451 H 1687.82 2.4305 4.28004 0
M  V30 17452 N 1689.47 -1.23186 0.98301 0
M  V30 17453 C 1690.4 -2.24044 0.483426 0
M  V30 17454 C 1691.41 -1.57392 -0.416143 0
M  V30 17455 O 1692.6 -1.77141 -0.219861 0
M  V30 17456 C 1689.7 -3.37388 -0.319733 0
M  V30 17457 C 1688.88 -4.33623 0.57359 0
M  V30 17458 C 1687.93 -5.25905 -0.176165 0
M  V30 17459 O 1686.96 -5.67535 0.435099 0
M  V30 17460 N 1688.16 -5.61804 -1.46139 0
M  V30 17461 H 1690.93 -2.67539 1.35066 0
M  V30 17462 H 1688.49 -1.37384 0.856579 0
M  V30 17463 H 1690.48 -3.96103 -0.829719 0
M  V30 17464 H 1689.05 -2.93056 -1.08799 0
M  V30 17465 H 1688.27 -3.73373 1.26437 0
M  V30 17466 H 1689.56 -4.94873 1.18231 0
M  V30 17467 H 1688.96 -5.29936 -1.97949 0
M  V30 17468 H 1687.51 -6.22979 -1.91676 0
M  V30 17469 N 1690.95 -0.754982 -1.38339 0
M  V30 17470 C 1692.19 -0.311146 -1.9969 0
M  V30 17471 C 1692.52 1.11138 -1.60229 0
M  V30 17472 O 1691.79 1.76024 -0.859794 0
M  V30 17473 H 1690.37 -0.112052 -0.738548 0
M  V30 17474 H 1693.03 -0.969386 -1.69083 0
M  V30 17475 H 1692.12 -0.375392 -3.09834 0
M  V30 17476 N 1692.42 1.49318 -0.504168 0
M  V30 17477 C 1693.66 2.04366 0.0375509 0
M  V30 17478 C 1694.03 1.37521 1.33985 0
M  V30 17479 O 1695.23 1.83308 1.966 0
M  V30 17480 C 1693.5 3.56928 0.183524 0
M  V30 17481 S 1695.06 4.33514 0.679034 0
M  V30 17482 H 1691.88 0.711 0.000264717 0
M  V30 17483 H 1694.48 1.83335 -0.678857 0
M  V30 17484 H 1693.18 4.03121 -0.769546 0
M  V30 17485 H 1692.71 3.82369 0.925078 0
M  V30 17486 H 1694.73 4.56376 1.9477 0
M  V30 17487 N 1693.9 0.238138 1.5579 0
M  V30 17488 C 1695.15 -0.382773 1.99766 0
M  V30 17489 C 1695.5 -1.562 1.12335 0
M  V30 17490 O 1694.8 -1.90781 0.17694 0
M  V30 17491 C 1694.99 -0.850646 3.47129 0
M  V30 17492 C 1694.82 0.281705 4.48817 0
M  V30 17493 C 1693.59 0.753532 4.9965 0
M  V30 17494 C 1695.79 1.10571 5.02273 0
M  V30 17495 N 1693.77 1.85921 5.8507 0
M  V30 17496 C 1695.14 2.05993 5.84779 0
M  V30 17497 C 1697.2 1.14326 4.84597 0
M  V30 17498 C 1695.9 3.0487 6.51496 0
M  V30 17499 C 1697.92 2.1203 5.52085 0
M  V30 17500 C 1697.29 3.06189 6.34372 0
M  V30 17501 H 1693.39 -0.106269 0.774746 0
M  V30 17502 H 1695.97 0.353711 1.9146 0
M  V30 17503 H 1694.14 -1.55644 3.5585 0
M  V30 17504 H 1695.87 -1.44577 3.77994 0
M  V30 17505 H 1692.63 0.339205 4.72384 0
M  V30 17506 H 1693.05 2.41455 6.32478 0
M  V30 17507 H 1697.69 0.42918 4.20616 0
M  V30 17508 H 1695.41 3.77232 7.14648 0
M  V30 17509 H 1699 2.15631 5.40365 0
M  V30 17510 H 1697.88 3.80557 6.85672 0
M  V30 17511 N 1695.38 -1.57561 -0.0350783 0
M  V30 17512 C 1696.63 -1.88177 -0.726105 0
M  V30 17513 C 1696.94 -0.835856 -1.76841 0
M  V30 17514 O 1698.15 -1.03105 -2.51161 0
M  V30 17515 C 1696.6 -3.33924 -1.34249 0
M  V30 17516 C 1696.21 -4.46732 -0.336845 0
M  V30 17517 C 1697.96 -3.73696 -2.01374 0
M  V30 17518 C 1695.86 -5.83536 -0.961234 0
M  V30 17519 H 1694.79 -0.702082 -0.274948 0
M  V30 17520 H 1697.44 -1.83489 0.0197081 0
M  V30 17521 H 1695.83 -3.33337 -2.13781 0
M  V30 17522 H 1697 -4.58777 0.431323 0
M  V30 17523 H 1695.32 -4.15753 0.231983 0
M  V30 17524 H 1697.91 -4.7322 -2.48931 0
M  V30 17525 H 1698.26 -3.05379 -2.8293 0
M  V30 17526 H 1698.79 -3.76431 -1.28626 0
M  V30 17527 H 1695.53 -6.55238 -0.185217 0
M  V30 17528 H 1695.05 -5.75223 -1.69938 0
M  V30 17529 H 1696.73 -6.30071 -1.47035 0
M  V30 17530 N 1696.86 0.307236 -1.54576 0
M  V30 17531 C 1698.27 0.88064 -1.64626 0
M  V30 17532 C 1698.62 1.88308 -0.550865 0
M  V30 17533 O 1697.75 2.14116 0.313553 0
M  V30 17534 C 1698.34 1.60405 -2.98422 0
M  V30 17535 C 1696.9 2.12595 -3.10613 0
M  V30 17536 C 1696.05 0.956593 -2.60278 0
M  V30 17537 H 1699 0.0843939 -1.58475 0
M  V30 17538 H 1699.02 2.46925 -2.89496 0
M  V30 17539 H 1698.53 0.874209 -3.78126 0
M  V30 17540 H 1696.63 2.88644 -2.35617 0
M  V30 17541 H 1696.74 2.36475 -4.16673 0
M  V30 17542 H 1695.11 1.3404 -2.16576 0
M  V30 17543 H 1695.89 0.24081 -3.42454 0
M  V30 17544 N 1698.34 1.46926 0.570122 0
M  V30 17545 C 1699.58 1.53113 1.32982 0
M  V30 17546 C 1699.92 0.187401 1.93294 0
M  V30 17547 O 1699.19 -0.802585 1.77169 0
M  V30 17548 C 1699.47 2.63936 2.44969 0
M  V30 17549 C 1699.33 4.07882 1.8961 0
M  V30 17550 C 1700.65 2.70753 3.46959 0
M  V30 17551 H 1697.76 0.557398 0.482158 0
M  V30 17552 H 1700.41 1.78923 0.639259 0
M  V30 17553 H 1698.56 2.42059 3.03874 0
M  V30 17554 H 1700.23 4.41084 1.35066 0
M  V30 17555 H 1698.47 4.16768 1.20361 0
M  V30 17556 H 1699.14 4.81175 2.70508 0
M  V30 17557 H 1701.62 2.90452 2.97954 0
M  V30 17558 H 1700.49 3.50093 4.2276 0
M  V30 17559 H 1700.76 1.77299 4.04991 0
M  V30 17560 N 1699.82 -0.815801 1.34842 0
M  V30 17561 C 1701.04 -1.60915 1.30848 0
M  V30 17562 C 1701.47 -1.87758 -0.113345 0
M  V30 17563 O 1700.82 -1.4582 -1.07732 0
M  V30 17564 C 1700.87 -2.92284 2.11192 0
M  V30 17565 O 1699.98 -3.84685 1.48632 0
M  V30 17566 H 1699.32 -0.48913 0.449052 0
M  V30 17567 H 1701.85 -1.01322 1.7775 0
M  V30 17568 H 1701.86 -3.41789 2.2281 0
M  V30 17569 H 1700.53 -2.72071 3.14563 0
M  V30 17570 H 1699.11 -3.43215 1.458 0
M  V30 17571 N 1701.29 -1.18689 -1.03686 0
M  V30 17572 C 1702.52 -1.01024 -1.81132 0
M  V30 17573 C 1702.94 0.436584 -1.82963 0
M  V30 17574 O 1702.3 1.31343 -1.24975 0
M  V30 17575 C 1702.35 -1.5742 -3.24424 0
M  V30 17576 O 1701.45 -0.79813 -4.04603 0
M  V30 17577 H 1700.79 -0.357623 -0.559465 0
M  V30 17578 H 1703.32 -1.57532 -1.30556 0
M  V30 17579 H 1703.33 -1.60295 -3.75193 0
M  V30 17580 H 1702.01 -2.6273 -3.22406 0
M  V30 17581 H 1700.59 -0.842 -3.6327 0
M  V30 17582 N 1702.77 1.22662 -0.989529 0
M  V30 17583 C 1704.05 1.86816 -0.579566 0
M  V30 17584 C 1704.43 1.88858 0.943188 0
M  V30 17585 O 1703.78 1.37668 1.82372 0
M  V30 17586 C 1703.99 3.27863 -1.19612 0
M  V30 17587 C 1705.33 4.04384 -1.29454 0
M  V30 17588 O 1706.36 3.37116 -1.15026 0
M  V30 17589 O 1705.22 5.24789 -1.52508 0
M  V30 17590 H 1702.31 0.803332 -0.196434 0
M  V30 17591 H 1704.86 1.30467 -1.08519 0
M  V30 17592 H 1703.63 3.20993 -2.23784 0
M  V30 17593 H 1703.25 3.91813 -0.675875 0
M  V30 17594 N 1704.25 0.762308 1.37937 0
M  V30 17595 C 1705.2 0.140412 2.30372 0
M  V30 17596 C 1706.17 -0.700152 1.50622 0
M  V30 17597 O 1707.35 -0.654474 1.79224 0
M  V30 17598 C 1704.49 -0.740056 3.37071 0
M  V30 17599 C 1703.6 0.116084 4.31844 0
M  V30 17600 C 1702.74 -0.768203 5.25616 0
M  V30 17601 C 1701.78 0.0910442 6.12032 0
M  V30 17602 N 1700.92 -0.75069 6.98075 0
M  V30 17603 H 1705.76 0.934224 2.82977 0
M  V30 17604 H 1703.29 0.472316 1.39311 0
M  V30 17605 H 1705.25 -1.26525 3.97551 0
M  V30 17606 H 1703.88 -1.49956 2.85855 0
M  V30 17607 H 1702.93 0.758999 3.72751 0
M  V30 17608 H 1704.24 0.779285 4.92675 0
M  V30 17609 H 1703.4 -1.36024 5.91255 0
M  V30 17610 H 1702.14 -1.46511 4.65173 0
M  V30 17611 H 1701.14 0.695687 5.45381 0
M  V30 17612 H 1702.37 0.785145 6.74546 0
M  V30 17613 H 1700.31 -1.43239 6.40171 0
M  V30 17614 H 1700.23 -0.144579 7.55862 0
M  V30 17615 H 1701.5 -1.32742 7.68114 0
M  V30 17616 N 1705.73 -1.49049 0.51208 0
M  V30 17617 C 1706.98 -2.0208 -0.0284326 0
M  V30 17618 C 1707.3 -1.39303 -1.36454 0
M  V30 17619 O 1706.57 -0.552155 -1.87958 0
M  V30 17620 H 1705.15 -0.746878 -0.0134968 0
M  V30 17621 H 1707.81 -1.82954 0.671842 0
M  V30 17622 H 1706.9 -3.11739 -0.149966 0
M  V30 17623 N 1707.21 -0.246397 -1.55662 0
M  V30 17624 C 1708.43 0.385607 -2.03784 0
M  V30 17625 C 1708.86 1.50786 -1.12451 0
M  V30 17626 O 1708.21 1.8092 -0.117371 0
M  V30 17627 C 1708.26 0.871204 -3.49918 0
M  V30 17628 O 1707.37 1.98082 -3.61715 0
M  V30 17629 H 1706.71 0.0841099 -0.658651 0
M  V30 17630 H 1709.24 -0.372306 -2.01184 0
M  V30 17631 H 1709.25 1.17455 -3.90728 0
M  V30 17632 H 1707.92 0.0499597 -4.1587 0
M  V30 17633 H 1706.5 1.6822 -3.32801 0
M  V30 17634 N 1708.68 1.57577 0.026722 0
M  V30 17635 C 1709.92 1.91228 0.721878 0
M  V30 17636 C 1710.29 0.845216 1.72395 0
M  V30 17637 O 1711.49 1.06613 2.46753 0
M  V30 17638 C 1709.76 3.30022 1.37186 0
M  V30 17639 S 1711.32 3.85512 2.09585 0
M  V30 17640 H 1708.14 0.669595 0.23909 0
M  V30 17641 H 1710.74 1.95486 -0.0235447 0
M  V30 17642 H 1709.44 4.05546 0.629344 0
M  V30 17643 H 1708.97 3.29074 2.15578 0
M  V30 17644 H 1710.99 3.64429 3.36758 0
M  V30 17645 N 1710.16 -0.299034 1.54737 0
M  V30 17646 C 1711.57 -0.871897 1.6509 0
M  V30 17647 C 1711.92 -1.88013 0.560843 0
M  V30 17648 O 1711.05 -2.1428 -0.302194 0
M  V30 17649 C 1711.64 -1.5882 2.99269 0
M  V30 17650 C 1710.2 -2.10944 3.11736 0
M  V30 17651 C 1709.35 -0.942776 2.60782 0
M  V30 17652 H 1712.3 -0.0759883 1.58518 0
M  V30 17653 H 1712.32 -2.45387 2.90802 0
M  V30 17654 H 1711.83 -0.854144 3.78584 0
M  V30 17655 H 1709.93 -2.87391 2.37144 0
M  V30 17656 H 1710.05 -2.34262 4.17921 0
M  V30 17657 H 1708.41 -1.3289 2.17284 0
M  V30 17658 H 1709.19 -0.222646 3.42577 0
M  V30 17659 N 1711.64 -1.47227 -0.562322 0
M  V30 17660 C 1712.57 -1.55383 -1.6849 0
M  V30 17661 C 1713.58 -0.440437 -1.56729 0
M  V30 17662 O 1714.77 -0.709803 -1.63781 0
M  V30 17663 C 1711.87 -1.43723 -3.06915 0
M  V30 17664 C 1711.05 -2.69541 -3.4448 0
M  V30 17665 C 1710.11 -2.5179 -4.62048 0
M  V30 17666 O 1709.13 -3.25587 -4.66885 0
M  V30 17667 N 1710.33 -1.59282 -5.5822 0
M  V30 17668 H 1713.1 -2.52181 -1.61941 0
M  V30 17669 H 1710.66 -1.43541 -0.748832 0
M  V30 17670 H 1712.65 -1.2959 -3.83391 0
M  V30 17671 H 1711.22 -0.550272 -3.07719 0
M  V30 17672 H 1710.44 -2.98472 -2.57504 0
M  V30 17673 H 1711.73 -3.53079 -3.66351 0
M  V30 17674 H 1711.13 -0.984666 -5.57064 0
M  V30 17675 H 1709.68 -1.51103 -6.34043 0
M  V30 17676 N 1713.12 0.808639 -1.35273 0
M  V30 17677 C 1714.36 1.56794 -1.28621 0
M  V30 17678 C 1714.7 1.93697 0.139686 0
M  V30 17679 O 1713.97 1.61185 1.08856 0
M  V30 17680 C 1714.25 2.85794 -2.19075 0
M  V30 17681 C 1714.11 2.5538 -3.70271 0
M  V30 17682 C 1715.43 3.87481 -2.08678 0
M  V30 17683 H 1712.55 0.568873 -0.468564 0
M  V30 17684 H 1715.19 0.930499 -1.65655 0
M  V30 17685 H 1713.34 3.40191 -1.87622 0
M  V30 17686 H 1715.01 2.07182 -4.12157 0
M  V30 17687 H 1713.25 1.88605 -3.90654 0
M  V30 17688 H 1713.92 3.47432 -4.28947 0
M  V30 17689 H 1716.4 3.42478 -2.36323 0
M  V30 17690 H 1715.28 4.75523 -2.7417 0
M  V30 17691 H 1715.54 4.29004 -1.06809 0
M  V30 17692 N 1714.6 1.19237 1.03055 0
M  V30 17693 C 1715.53 0.871947 2.10885 0
M  V30 17694 C 1716.51 -0.170311 1.61706 0
M  V30 17695 O 1717.69 -0.0469972 1.88441 0
M  V30 17696 C 1714.82 0.304639 3.37327 0
M  V30 17697 C 1713.86 1.32569 4.05374 0
M  V30 17698 S 1714.7 2.88551 4.51108 0
M  V30 17699 C 1715.85 2.33359 5.8077 0
M  V30 17700 H 1716.09 1.78514 2.37739 0
M  V30 17701 H 1713.62 1.01933 1.1597 0
M  V30 17702 H 1715.58 -0.0161522 4.10497 0
M  V30 17703 H 1714.24 -0.586834 3.08569 0
M  V30 17704 H 1713.43 0.877829 4.96296 0
M  V30 17705 H 1713.03 1.59323 3.38367 0
M  V30 17706 H 1715.33 1.7225 6.55238 0
M  V30 17707 H 1716.27 3.22622 6.30334 0
M  V30 17708 H 1716.68 1.75999 5.36362 0
M  V30 17709 N 1716.07 -1.22136 0.99602 0
M  V30 17710 C 1716.98 -2.27869 0.557927 0
M  V30 17711 C 1718 -1.69462 -0.394781 0
M  V30 17712 O 1719.18 -1.99704 -0.26084 0
M  V30 17713 C 1716.24 -3.46501 -0.117434 0
M  V30 17714 C 1715.3 -4.20213 0.878627 0
M  V30 17715 C 1714.54 -5.33181 0.2354 0
M  V30 17716 O 1714.76 -5.62093 -0.969954 0
M  V30 17717 O 1713.69 -5.94486 0.941828 0
M  V30 17718 H 1717.52 -2.67517 1.43765 0
M  V30 17719 H 1715.1 -1.28362 0.764428 0
M  V30 17720 H 1716.99 -4.18476 -0.49559 0
M  V30 17721 H 1715.66 -3.08772 -0.971674 0
M  V30 17722 H 1714.57 -3.50497 1.30777 0
M  V30 17723 H 1715.9 -4.6183 1.70217 0
M  V30 17724 N 1717.55 -0.769612 -1.37531 0
M  V30 17725 C 1718.97 -0.449 -1.53154 0
M  V30 17726 C 1719.17 1.03568 -1.72847 0
M  V30 17727 O 1718.22 1.82154 -1.74861 0
M  V30 17728 C 1719.54 -1.26221 -2.72926 0
M  V30 17729 C 1721.09 -1.2539 -2.86786 0
M  V30 17730 C 1721.56 -2.05041 -4.09539 0
M  V30 17731 N 1723.05 -2.02384 -4.16647 0
M  V30 17732 C 1723.79 -2.60798 -5.10658 0
M  V30 17733 N 1723.28 -3.27991 -6.10241 0
M  V30 17734 N 1725.08 -2.5064 -5.03126 0
M  V30 17735 H 1717.23 -1.73161 -1.23 0
M  V30 17736 H 1719.49 -0.734977 -0.598759 0
M  V30 17737 H 1719.2 -2.31423 -2.64832 0
M  V30 17738 H 1719.07 -0.889937 -3.66551 0
M  V30 17739 H 1721.46 -0.209869 -2.94353 0
M  V30 17740 H 1721.54 -1.6658 -1.94126 0
M  V30 17741 H 1721.18 -3.09464 -4.02734 0
M  V30 17742 H 1721.11 -1.61234 -5.01309 0
M  V30 17743 H 1723.6 -1.53464 -3.45337 0
M  V30 17744 H 1723.92 -3.69942 -6.785 0
M  V30 17745 H 1722.26 -3.32089 -6.10526 0
M  V30 17746 H 1725.45 -1.97762 -4.24273 0
M  V30 17747 H 1725.62 -2.96458 -5.76209 0
M  V30 17748 N 1719.03 1.48775 -0.519977 0
M  V30 17749 C 1720.26 2.07394 0.0161061 0
M  V30 17750 C 1720.68 1.37532 1.28322 0
M  V30 17751 O 1720.04 0.438049 1.75928 0
M  V30 17752 C 1720.09 3.59844 0.233382 0
M  V30 17753 O 1719.19 3.91235 1.30418 0
M  V30 17754 H 1718.53 0.663094 -0.0346678 0
M  V30 17755 H 1721.06 1.91323 -0.725029 0
M  V30 17756 H 1721.07 4.05409 0.45911 0
M  V30 17757 H 1719.75 4.10098 -0.69229 0
M  V30 17758 H 1718.32 3.5746 1.0619 0
M  V30 17759 N 1720.51 0.254649 1.55529 0
M  V30 17760 C 1721.76 -0.367932 1.99129 0
M  V30 17761 C 1722.08 -1.5738 1.14288 0
M  V30 17762 O 1721.34 -1.94721 0.195543 0
M  V30 17763 C 1721.64 -0.813781 3.48012 0
M  V30 17764 C 1721.3 0.285187 4.49997 0
M  V30 17765 C 1719.97 0.586996 4.77606 0
M  V30 17766 C 1722.32 1.02673 5.10987 0
M  V30 17767 C 1719.65 1.63429 5.63478 0
M  V30 17768 C 1722 2.0636 5.97995 0
M  V30 17769 C 1720.66 2.37197 6.23934 0
M  V30 17770 H 1719.93 -0.134636 0.728666 0
M  V30 17771 H 1722.58 0.364091 1.88007 0
M  V30 17772 H 1720.88 -1.62514 3.56506 0
M  V30 17773 H 1722.58 -1.3059 3.7914 0
M  V30 17774 H 1719.17 0.0398187 4.28582 0
M  V30 17775 H 1723.35 0.806814 4.89698 0
M  V30 17776 H 1718.61 1.87846 5.81828 0
M  V30 17777 H 1722.78 2.64306 6.44294 0
M  V30 17778 H 1720.41 3.18487 6.90268 0
M  V30 17779 N 1721.99 -1.57589 -0.0183649 0
M  V30 17780 C 1722.94 -2.03724 -1.02373 0
M  V30 17781 C 1723.92 -0.928514 -1.31406 0
M  V30 17782 O 1725.11 -1.19237 -1.30811 0
M  V30 17783 C 1722.24 -2.52901 -2.32155 0
M  V30 17784 C 1721.33 -3.70616 -2.06167 0
M  V30 17785 N 1721.72 -4.82961 -1.50273 0
M  V30 17786 C 1720.02 -3.78195 -2.364 0
M  V30 17787 C 1720.72 -5.64518 -1.40335 0
M  V30 17788 N 1719.69 -5.09959 -1.88263 0
M  V30 17789 H 1723.5 -2.88003 -0.58577 0
M  V30 17790 H 1721.01 -1.60841 -0.224452 0
M  V30 17791 H 1723.01 -2.84219 -3.05 0
M  V30 17792 H 1721.67 -1.70033 -2.76621 0
M  V30 17793 H 1722.68 -5.04185 -1.18399 0
M  V30 17794 H 1719.35 -3.06147 -2.83866 0
M  V30 17795 H 1720.74 -6.64785 -0.975187 0
M  V30 17796 N 1723.46 0.290824 -1.54893 0
M  V30 17797 C 1724.4 1.38393 -1.81446 0
M  V30 17798 C 1725.38 1.48322 -0.666282 0
M  V30 17799 O 1726.56 1.65225 -0.907354 0
M  V30 17800 C 1723.69 2.76211 -1.96024 0
M  V30 17801 C 1722.73 2.83655 -3.18499 0
M  V30 17802 S 1723.57 2.44713 -4.76315 0
M  V30 17803 C 1724.72 3.84539 -4.93843 0
M  V30 17804 H 1724.95 1.15664 -2.73878 0
M  V30 17805 H 1722.49 0.489495 -1.46435 0
M  V30 17806 H 1724.45 3.55585 -2.05108 0
M  V30 17807 H 1723.11 2.96203 -1.04511 0
M  V30 17808 H 1722.3 3.84765 -3.25533 0
M  V30 17809 H 1721.9 2.12285 -3.07914 0
M  V30 17810 H 1724.19 4.79639 -4.7849 0
M  V30 17811 H 1725.14 3.82469 -5.95922 0
M  V30 17812 H 1725.54 3.75014 -4.2193 0
M  V30 17813 N 1724.94 1.47523 0.554506 0
M  V30 17814 C 1726.35 1.48114 1.13662 0
M  V30 17815 C 1726.7 0.237321 1.94759 0
M  V30 17816 O 1725.83 -0.657558 2.06168 0
M  V30 17817 C 1726.42 2.68366 2.06797 0
M  V30 17818 C 1724.98 2.71908 2.60274 0
M  V30 17819 C 1724.13 2.41258 1.3671 0
M  V30 17820 H 1727.08 1.54994 0.34097 0
M  V30 17821 H 1727.1 2.4549 2.90714 0
M  V30 17822 H 1726.61 3.58877 1.47745 0
M  V30 17823 H 1724.72 1.85543 3.23117 0
M  V30 17824 H 1724.83 3.72673 3.01084 0
M  V30 17825 H 1723.19 1.91897 1.67474 0
M  V30 17826 H 1723.98 3.3398 0.794476 0
M  V30 17827 N 1726.42 -0.801453 1.357 0
M  V30 17828 C 1727.65 -1.59518 1.32547 0
M  V30 17829 C 1728.07 -1.87868 -0.0934243 0
M  V30 17830 O 1727.43 -1.46955 -1.06179 0
M  V30 17831 C 1727.48 -2.90028 2.14281 0
M  V30 17832 O 1726.58 -3.83086 1.52704 0
M  V30 17833 H 1725.92 -0.48434 0.454215 0
M  V30 17834 H 1728.45 -0.994315 1.78814 0
M  V30 17835 H 1728.46 -3.39406 2.26423 0
M  V30 17836 H 1727.14 -2.6872 3.17431 0
M  V30 17837 H 1725.71 -3.4165 1.49432 0
M  V30 17838 N 1727.9 -1.19782 -1.02421 0
M  V30 17839 C 1729.13 -1.02721 -1.79254 0
M  V30 17840 C 1729.54 0.426969 -1.84319 0
M  V30 17841 O 1728.88 1.30832 -1.28953 0
M  V30 17842 C 1728.94 -1.52594 -3.25508 0
M  V30 17843 C 1728.61 -3.00778 -3.44066 0
M  V30 17844 C 1729.6 -3.98502 -3.33905 0
M  V30 17845 C 1727.29 -3.39572 -3.7013 0
M  V30 17846 C 1729.28 -5.33012 -3.49539 0
M  V30 17847 C 1726.97 -4.7424 -3.85408 0
M  V30 17848 C 1727.97 -5.70769 -3.75116 0
M  V30 17849 O 1727.65 -7.02997 -3.89937 0
M  V30 17850 H 1727.39 -0.362151 -0.570808 0
M  V30 17851 H 1729.94 -1.5914 -1.2986 0
M  V30 17852 H 1728.17 -0.90555 -3.75948 0
M  V30 17853 H 1729.86 -1.31671 -3.8395 0
M  V30 17854 H 1730.63 -3.69875 -3.13715 0
M  V30 17855 H 1726.5 -2.64986 -3.77231 0
M  V30 17856 H 1730.05 -6.0834 -3.41421 0
M  V30 17857 H 1725.95 -5.02561 -4.05096 0
M  V30 17858 H 1726.71 -7.10136 -4.07 0
M  V30 17859 N 1729.38 1.21606 -1.00248 0
M  V30 17860 C 1730.63 1.90231 -0.682401 0
M  V30 17861 C 1730.95 1.78324 0.78903 0
M  V30 17862 O 1730.22 1.17653 1.56635 0
M  V30 17863 H 1728.8 0.704132 -0.249414 0
M  V30 17864 H 1731.46 1.47751 -1.27105 0
M  V30 17865 H 1730.55 2.97183 -0.953351 0
M  V30 17866 N 1730.86 0.776895 1.37121 0
M  V30 17867 C 1732.08 0.355097 2.0383 0
M  V30 17868 C 1732.5 -1.02441 1.58591 0
M  V30 17869 O 1731.86 -1.65482 0.769533 0
M  V30 17870 C 1731.91 0.394984 3.59336 0
M  V30 17871 O 1731.63 1.72008 4.0292 0
M  V30 17872 C 1733.13 -0.0377636 4.43284 0
M  V30 17873 H 1730.35 0.148056 0.654462 0
M  V30 17874 H 1732.89 1.05225 1.75351 0
M  V30 17875 H 1731.05 -0.253638 3.86569 0
M  V30 17876 H 1731.46 1.66225 4.97463 0
M  V30 17877 H 1732.94 0.0412956 5.51985 0
M  V30 17878 H 1733.41 -1.08881 4.2549 0
M  V30 17879 H 1734.02 0.582867 4.21287 0
M  V30 17880 N 1732.33 -1.48497 0.527859 0
M  V30 17881 C 1733.27 -2.27566 -0.273157 0
M  V30 17882 C 1734.28 -1.35235 -0.906381 0
M  V30 17883 O 1735.47 -1.60303 -0.785182 0
M  V30 17884 C 1732.57 -3.08546 -1.40187 0
M  V30 17885 C 1731.74 -4.28641 -0.870962 0
M  V30 17886 C 1730.8 -4.91449 -1.88054 0
M  V30 17887 O 1729.83 -5.50727 -1.43833 0
M  V30 17888 N 1731.03 -4.83501 -3.21259 0
M  V30 17889 H 1733.79 -2.96951 0.404963 0
M  V30 17890 H 1731.35 -1.578 0.362057 0
M  V30 17891 H 1733.35 -3.47434 -2.07537 0
M  V30 17892 H 1731.92 -2.41596 -1.98369 0
M  V30 17893 H 1731.14 -3.94194 -0.0215331 0
M  V30 17894 H 1732.42 -5.06385 -0.495105 0
M  V30 17895 H 1731.82 -4.36487 -3.59855 0
M  V30 17896 H 1730.38 -5.26495 -3.84248 0
M  V30 17897 N 1733.81 -0.262893 -1.55392 0
M  V30 17898 C 1735.04 0.361057 -2.03725 0
M  V30 17899 C 1735.45 1.5037 -1.14168 0
M  V30 17900 O 1734.81 1.81804 -0.159284 0
M  V30 17901 C 1734.86 0.853697 -3.51275 0
M  V30 17902 O 1734.58 -0.243431 -4.37423 0
M  V30 17903 C 1736.08 1.54671 -4.15442 0
M  V30 17904 H 1733.3 0.0839272 -0.665731 0
M  V30 17905 H 1735.85 -0.391424 -2.00719 0
M  V30 17906 H 1734 1.55631 -3.54765 0
M  V30 17907 H 1734.42 0.133241 -5.24331 0
M  V30 17908 H 1735.89 1.84296 -5.20326 0
M  V30 17909 H 1736.37 2.47413 -3.62882 0
M  V30 17910 H 1736.97 0.888269 -4.15921 0
M  V30 17911 N 1735.29 1.57597 0.0100073 0
M  V30 17912 C 1736.22 2.10825 1.00375 0
M  V30 17913 C 1737.2 1.01507 1.36493 0
M  V30 17914 O 1738.39 1.29136 1.45043 0
M  V30 17915 C 1735.52 2.60334 2.29878 0
M  V30 17916 C 1734.47 3.74087 2.07949 0
M  V30 17917 C 1733.8 4.09873 3.43378 0
M  V30 17918 C 1735.1 5.01764 1.45018 0
M  V30 17919 H 1736.79 2.94105 0.560591 0
M  V30 17920 H 1734.34 1.4148 0.268208 0
M  V30 17921 H 1736.29 2.96196 2.99743 0
M  V30 17922 H 1735.01 1.74162 2.76288 0
M  V30 17923 H 1733.67 3.38603 1.40512 0
M  V30 17924 H 1733.32 3.20739 3.87473 0
M  V30 17925 H 1733.02 4.86505 3.29525 0
M  V30 17926 H 1734.54 4.48285 4.14575 0
M  V30 17927 H 1735.96 5.35462 2.04826 0
M  V30 17928 H 1734.35 5.83135 1.41683 0
M  V30 17929 H 1735.42 4.83093 0.41819 0
M  V30 17930 N 1736.77 -0.282606 1.55045 0
M  V30 17931 C 1737.68 -1.37129 1.90349 0
M  V30 17932 C 1738.69 -1.54537 0.799639 0
M  V30 17933 O 1739.87 -1.68849 1.09782 0
M  V30 17934 C 1736.93 -2.71211 2.15975 0
M  V30 17935 C 1736 -2.62632 3.39592 0
M  V30 17936 C 1735.23 -3.90319 3.63987 0
M  V30 17937 O 1735.45 -4.90551 2.9106 0
M  V30 17938 O 1734.39 -3.91102 4.57518 0
M  V30 17939 H 1738.21 -1.10189 2.83006 0
M  V30 17940 H 1735.8 -0.480293 1.41469 0
M  V30 17941 H 1737.68 -3.50509 2.33926 0
M  V30 17942 H 1736.35 -2.97958 1.26503 0
M  V30 17943 H 1735.26 -1.81743 3.26987 0
M  V30 17944 H 1736.59 -2.40836 4.29254 0
M  V30 17945 N 1738.25 -1.47815 -0.546675 0
M  V30 17946 C 1739.49 -1.54674 -1.30078 0
M  V30 17947 C 1739.81 -0.215151 -1.93809 0
M  V30 17948 O 1739.08 0.761862 -1.80478 0
M  V30 17949 H 1737.66 -0.569776 -0.483078 0
M  V30 17950 H 1740.33 -1.84178 -0.637525 0
M  V30 17951 H 1739.42 -2.31894 -2.08882 0
M  V30 17952 N 1739.72 0.794246 -1.36123 0
M  V30 17953 C 1740.97 1.54885 -1.29827 0
M  V30 17954 C 1741.29 1.94608 0.123517 0
M  V30 17955 O 1740.56 1.6457 1.06272 0
M  V30 17956 H 1739.14 0.574398 -0.477573 0
M  V30 17957 H 1741.8 0.946658 -1.70365 0
M  V30 17958 H 1740.9 2.45863 -1.92244 0
M  V30 17959 N 1741.2 1.20323 1.01785 0
M  V30 17960 C 1742.45 1.01413 1.75623 0
M  V30 17961 C 1742.78 -0.452801 1.88847 0
M  V30 17962 O 1742.06 -1.33618 1.41338 0
M  V30 17963 C 1742.34 1.69686 3.17614 0
M  V30 17964 C 1742.19 3.23815 3.12192 0
M  V30 17965 C 1743.51 1.42891 4.16257 0
M  V30 17966 H 1740.63 0.369822 0.637495 0
M  V30 17967 H 1743.27 1.4832 1.18749 0
M  V30 17968 H 1741.42 1.29806 3.66173 0
M  V30 17969 H 1743.09 3.72981 2.71446 0
M  V30 17970 H 1741.34 3.54785 2.4962 0
M  V30 17971 H 1742.01 3.66741 4.12559 0
M  V30 17972 H 1744.48 1.77486 3.76348 0
M  V30 17973 H 1743.36 1.93195 5.13777 0
M  V30 17974 H 1743.62 0.356263 4.40662 0
M  V30 17975 N 1742.68 -1.21073 1.00892 0
M  V30 17976 C 1743.59 -2.27265 0.582065 0
M  V30 17977 C 1744.61 -1.69872 -0.376785 0
M  V30 17978 O 1745.78 -1.99969 -0.239644 0
M  V30 17979 C 1742.85 -3.46606 -0.0806764 0
M  V30 17980 C 1741.91 -4.19257 0.923147 0
M  V30 17981 C 1741.14 -5.32901 0.291938 0
M  V30 17982 O 1741.36 -5.6309 -0.910282 0
M  V30 17983 O 1740.3 -5.93453 1.00483 0
M  V30 17984 H 1744.12 -2.65977 1.46594 0
M  V30 17985 H 1741.71 -1.27544 0.777999 0
M  V30 17986 H 1743.59 -4.18978 -0.451177 0
M  V30 17987 H 1742.27 -3.09785 -0.93887 0
M  V30 17988 H 1741.17 -3.4909 1.34488 0
M  V30 17989 H 1742.51 -4.59999 1.75106 0
M  V30 17990 N 1744.16 -0.784156 -1.36707 0
M  V30 17991 C 1745.11 -0.177044 -2.3012 0
M  V30 17992 C 1746.08 0.6761 -1.51717 0
M  V30 17993 O 1747.26 0.625878 -1.80243 0
M  V30 17994 C 1744.4 0.686337 -3.38206 0
M  V30 17995 C 1743.51 -0.184772 -4.31605 0
M  V30 17996 C 1742.65 0.684485 -5.26772 0
M  V30 17997 C 1741.69 -0.188402 -6.1181 0
M  V30 17998 N 1740.82 0.639537 -6.99181 0
M  V30 17999 H 1745.66 -0.979125 -2.81455 0
M  V30 18000 H 1743.2 -0.494419 -1.38542 0
M  V30 18001 H 1745.16 1.20185 -3.99514 0
M  V30 18002 H 1743.79 1.4539 -2.88204 0
M  V30 18003 H 1742.84 -0.818204 -3.71496 0
M  V30 18004 H 1744.15 -0.857567 -4.91373 0
M  V30 18005 H 1743.31 1.26601 -5.93344 0
M  V30 18006 H 1742.05 1.39092 -4.67445 0
M  V30 18007 H 1741.05 -0.782364 -5.44205 0
M  V30 18008 H 1742.28 -0.89236 -6.73212 0
M  V30 18009 H 1740.22 1.33036 -6.42369 0
M  V30 18010 H 1740.14 0.0243097 -7.55996 0
M  V30 18011 H 1741.41 1.20505 -7.70129 0
M  V30 18012 N 1745.64 1.48215 -0.535727 0
M  V30 18013 C 1747.05 1.86449 -0.0967433 0
M  V30 18014 C 1747.4 1.44469 1.32752 0
M  V30 18015 O 1746.52 0.837989 1.99516 0
M  V30 18016 C 1747.12 3.38379 -0.168791 0
M  V30 18017 C 1745.68 3.75785 0.21503 0
M  V30 18018 C 1744.82 2.72266 -0.525995 0
M  V30 18019 H 1747.78 1.40038 -0.74666 0
M  V30 18020 H 1747.8 3.75447 0.61807 0
M  V30 18021 H 1747.31 3.68903 -1.2055 0
M  V30 18022 H 1745.41 3.50876 1.25366 0
M  V30 18023 H 1745.52 4.78927 -0.128579 0
M  V30 18024 H 1743.89 2.54684 0.028422 0
M  V30 18025 H 1744.67 3.05632 -1.56345 0
M  V30 18026 N 1747.11 0.27113 1.5525 0
M  V30 18027 C 1748.06 -0.632507 2.19051 0
M  V30 18028 C 1749.05 -1.12135 1.15388 0
M  V30 18029 O 1750.24 -1.06709 1.41217 0
M  V30 18030 C 1747.37 -1.81804 2.91208 0
M  V30 18031 C 1746.46 -1.34656 4.02155 0
M  V30 18032 N 1746.85 -0.590954 5.02336 0
M  V30 18033 C 1745.14 -1.62985 4.15153 0
M  V30 18034 C 1745.85 -0.343602 5.80684 0
M  V30 18035 N 1744.82 -0.914869 5.35846 0
M  V30 18036 H 1748.62 -0.0473244 2.93862 0
M  V30 18037 H 1746.14 0.0745107 1.62229 0
M  V30 18038 H 1748.13 -2.47666 3.35361 0
M  V30 18039 H 1746.79 -2.40721 2.17907 0
M  V30 18040 H 1747.81 -0.238682 5.1735 0
M  V30 18041 H 1744.48 -2.22867 3.53039 0
M  V30 18042 H 1745.87 0.261284 6.71392 0
M  V30 18043 N 1748.59 -1.576 -0.00164943 0
M  V30 18044 C 1749.82 -1.95176 -0.701511 0
M  V30 18045 C 1750.24 -0.873191 -1.66604 0
M  V30 18046 O 1749.6 0.168818 -1.80512 0
M  V30 18047 C 1749.65 -3.31847 -1.41104 0
M  V30 18048 O 1748.75 -3.26034 -2.52539 0
M  V30 18049 H 1748.09 -0.637207 -0.186718 0
M  V30 18050 H 1750.62 -2.04536 0.0510494 0
M  V30 18051 H 1750.63 -3.67374 -1.77483 0
M  V30 18052 H 1749.31 -4.09901 -0.70382 0
M  V30 18053 H 1747.89 -3.0218 -2.18499 0
M  V30 18054 N 1750.07 0.274379 -1.55193 0
M  V30 18055 C 1751 1.34336 -1.90987 0
M  V30 18056 C 1751.98 1.51594 -0.771582 0
M  V30 18057 O 1753.17 1.6466 -1.0296 0
M  V30 18058 C 1750.3 2.70312 -2.18057 0
M  V30 18059 C 1749.25 2.67787 -3.33878 0
M  V30 18060 C 1748.58 4.07301 -3.46425 0
M  V30 18061 C 1749.88 2.27178 -4.70306 0
M  V30 18062 H 1751.57 1.04627 -2.80524 0
M  V30 18063 H 1749.12 0.501867 -1.34971 0
M  V30 18064 H 1751.07 3.45205 -2.41685 0
M  V30 18065 H 1749.79 3.01601 -1.25318 0
M  V30 18066 H 1748.45 1.95351 -3.10216 0
M  V30 18067 H 1748.1 4.3581 -2.51155 0
M  V30 18068 H 1747.8 4.06507 -4.24295 0
M  V30 18069 H 1749.32 4.83935 -3.72343 0
M  V30 18070 H 1750.74 2.91794 -4.93487 0
M  V30 18071 H 1749.14 2.37548 -5.51082 0
M  V30 18072 H 1750.21 1.22309 -4.69221 0
M  V30 18073 N 1751.55 1.48103 0.538828 0
M  V30 18074 C 1752.48 1.64856 1.65363 0
M  V30 18075 C 1753.46 0.497579 1.6266 0
M  V30 18076 O 1754.64 0.729088 1.79994 0
M  V30 18077 C 1751.77 1.67984 3.03971 0
M  V30 18078 C 1750.73 2.82494 3.21529 0
M  V30 18079 C 1750.05 2.70706 4.6111 0
M  V30 18080 C 1751.35 4.23892 3.05145 0
M  V30 18081 H 1753.05 2.58183 1.51598 0
M  V30 18082 H 1750.59 1.24249 0.727886 0
M  V30 18083 H 1752.55 1.78294 3.81824 0
M  V30 18084 H 1751.27 0.712299 3.18738 0
M  V30 18085 H 1749.93 2.71725 2.46091 0
M  V30 18086 H 1749.58 1.7194 4.727 0
M  V30 18087 H 1749.28 3.47539 4.73804 0
M  V30 18088 H 1750.8 2.82971 5.41073 0
M  V30 18089 H 1752.22 4.3554 3.72797 0
M  V30 18090 H 1750.61 5.01654 3.29338 0
M  V30 18091 H 1751.68 4.40973 2.01671 0
M  V30 18092 N 1753.03 -0.787016 1.36542 0
M  V30 18093 C 1754.25 -1.58103 1.34231 0
M  V30 18094 C 1754.68 -1.87956 -0.0734932 0
M  V30 18095 O 1754.03 -1.48073 -1.04615 0
M  V30 18096 C 1754.08 -2.87739 2.17345 0
M  V30 18097 O 1753.19 -3.81445 1.56759 0
M  V30 18098 H 1752.53 -0.479495 0.459326 0
M  V30 18099 H 1755.06 -0.975294 1.79859 0
M  V30 18100 H 1755.07 -3.36986 2.3001 0
M  V30 18101 H 1753.74 -2.65338 3.20264 0
M  V30 18102 H 1752.32 -3.40046 1.53047 0
M  V30 18103 N 1754.5 -1.20861 -1.01145 0
M  V30 18104 C 1755.47 -0.963742 -2.07954 0
M  V30 18105 C 1756.47 0.0627362 -1.60678 0
M  V30 18106 O 1757.66 -0.173867 -1.7333 0
M  V30 18107 C 1754.79 -0.451977 -3.3789 0
M  V30 18108 H 1755.98 -1.91123 -2.3111 0
M  V30 18109 H 1753.54 -1.0247 -1.18024 0
M  V30 18110 H 1754.27 0.500735 -3.20411 0
M  V30 18111 H 1754.06 -1.19231 -3.73532 0
M  V30 18112 H 1755.55 -0.300308 -4.16519 0
M  V30 18113 N 1755.98 1.20536 -1.01532 0
M  V30 18114 C 1756.93 2.2531 -0.577786 0
M  V30 18115 C 1757.92 1.65017 0.382843 0
M  V30 18116 O 1759.13 1.78214 0.252904 0
M  V30 18117 H 1755.51 0.732872 -0.168532 0
M  V30 18118 H 1757.48 2.59544 -1.4724 0
M  V30 18119 C 1756.23 3.47631 0.0694263 0
M  V30 18120 H 1755.55 3.94302 -0.660748 0
M  V30 18121 H 1756.99 4.22645 0.338706 0
M  V30 18122 C 1755.45 3.1031 1.31185 0
M  V30 18123 O 1755.98 3.21729 2.40527 0
M  V30 18124 N 1754.18 2.64871 1.19547 0
M  V30 18125 H 1753.73 2.55779 0.305741 0
M  V30 18126 H 1753.69 2.4027 2.02775 0
M  V30 18127 N 1757.46 0.791395 1.36289 0
M  V30 18128 C 1758.87 0.427611 1.81737 0
M  V30 18129 C 1759.22 -1.04868 1.65822 0
M  V30 18130 O 1758.35 -1.81379 1.18028 0
M  V30 18131 C 1758.94 0.769378 3.29949 0
M  V30 18132 C 1757.5 0.458397 3.73598 0
M  V30 18133 C 1756.65 1.00299 2.58526 0
M  V30 18134 H 1759.6 0.98437 1.24482 0
M  V30 18135 H 1759.62 0.061211 3.80451 0
M  V30 18136 H 1759.13 1.8439 3.415 0
M  V30 18137 H 1757.23 -0.608006 3.67606 0
M  V30 18138 H 1757.35 0.980392 4.68962 0
M  V30 18139 H 1755.71 0.426106 2.5111 0
M  V30 18140 H 1756.49 2.08331 2.72861 0
M  V30 18141 N 1758.94 -1.47929 0.54358 0
M  V30 18142 C 1759.87 -2.3264 -0.200228 0
M  V30 18143 C 1760.85 -1.42945 -0.922 0
M  V30 18144 O 1762.04 -1.71817 -0.905129 0
M  V30 18145 C 1759.17 -3.24439 -1.23922 0
M  V30 18146 C 1758.12 -4.23267 -0.634753 0
M  V30 18147 C 1757.45 -5.04295 -1.77739 0
M  V30 18148 C 1758.75 -5.20747 0.402524 0
M  V30 18149 H 1760.44 -2.95077 0.506957 0
M  V30 18150 H 1757.99 -1.41896 0.245246 0
M  V30 18151 H 1759.94 -3.82535 -1.76763 0
M  V30 18152 H 1758.66 -2.60029 -1.97616 0
M  V30 18153 H 1757.32 -3.66377 -0.127756 0
M  V30 18154 H 1756.97 -4.36299 -2.50304 0
M  V30 18155 H 1756.67 -5.71195 -1.37879 0
M  V30 18156 H 1758.19 -5.65246 -2.30932 0
M  V30 18157 H 1759.61 -5.73287 -0.039305 0
M  V30 18158 H 1758 -5.95774 0.719251 0
M  V30 18159 H 1759.07 -4.67054 1.3034 0
M  V30 18160 N 1760.42 -0.27936 -1.55104 0
M  V30 18161 C 1761.66 0.329674 -2.00711 0
M  V30 18162 C 1762.02 1.53167 -1.16437 0
M  V30 18163 O 1761.31 1.90245 -0.22746 0
M  V30 18164 C 1761.51 0.758312 -3.49263 0
M  V30 18165 C 1761.33 -0.400602 -4.47912 0
M  V30 18166 C 1760.1 -0.885741 -4.97476 0
M  V30 18167 C 1762.3 -1.23849 -4.99165 0
M  V30 18168 N 1760.28 -2.01368 -5.79935 0
M  V30 18169 C 1761.66 -2.21425 -5.79112 0
M  V30 18170 C 1763.71 -1.27134 -4.81395 0
M  V30 18171 C 1762.41 -3.22036 -6.43184 0
M  V30 18172 C 1764.44 -2.26593 -5.46269 0
M  V30 18173 C 1763.8 -3.22901 -6.26031 0
M  V30 18174 H 1759.9 0.0856909 -0.777291 0
M  V30 18175 H 1762.48 -0.404349 -1.90455 0
M  V30 18176 H 1760.66 1.46155 -3.59852 0
M  V30 18177 H 1762.39 1.34504 -3.81695 0
M  V30 18178 H 1759.14 -0.46433 -4.71318 0
M  V30 18179 H 1759.57 -2.58139 -6.25854 0
M  V30 18180 H 1764.21 -0.540548 -4.1933 0
M  V30 18181 H 1761.93 -3.96047 -7.04395 0
M  V30 18182 H 1765.51 -2.29882 -5.34458 0
M  V30 18183 H 1764.39 -3.98603 -6.75341 0
M  V30 18184 N 1761.9 1.57599 -0.0067085 0
M  V30 18185 C 1762.83 2.05706 1.01084 0
M  V30 18186 C 1763.84 0.976216 1.30284 0
M  V30 18187 O 1765.03 1.25288 1.27142 0
M  V30 18188 C 1762.13 2.44771 2.34393 0
M  V30 18189 C 1761.3 3.75668 2.24036 0
M  V30 18190 C 1760.36 4.01528 3.4009 0
M  V30 18191 O 1759.39 4.72101 3.17977 0
M  V30 18192 N 1760.59 3.49947 4.6316 0
M  V30 18193 H 1763.35 2.93622 0.600532 0
M  V30 18194 H 1760.92 1.6089 0.180536 0
M  V30 18195 H 1762.91 2.5918 3.10818 0
M  V30 18196 H 1761.48 1.62339 2.67142 0
M  V30 18197 H 1760.7 3.71272 1.3248 0
M  V30 18198 H 1761.99 4.6147 2.14295 0
M  V30 18199 H 1761.38 2.92811 4.84023 0
M  V30 18200 H 1759.94 3.69675 5.36828 0
M  V30 18201 N 1763.37 -0.266145 1.55336 0
M  V30 18202 C 1764.31 -1.35159 1.85107 0
M  V30 18203 C 1765.32 -1.45213 0.736006 0
M  V30 18204 O 1766.51 -1.46907 1.01393 0
M  V30 18205 C 1763.61 -2.73218 2.00512 0
M  V30 18206 C 1762.78 -2.85671 3.31226 0
M  V30 18207 C 1761.84 -4.0445 3.36611 0
M  V30 18208 O 1760.87 -3.94884 4.09945 0
M  V30 18209 N 1762.07 -5.16735 2.64508 0
M  V30 18210 H 1764.83 -1.09963 2.78798 0
M  V30 18211 H 1762.39 -0.456261 1.55338 0
M  V30 18212 H 1764.39 -3.50983 2.01477 0
M  V30 18213 H 1762.96 -2.91206 1.13655 0
M  V30 18214 H 1762.18 -1.94736 3.42741 0
M  V30 18215 H 1763.46 -2.90927 4.17419 0
M  V30 18216 H 1762.86 -5.27395 2.04624 0
M  V30 18217 H 1761.42 -5.92706 2.71189 0
M  V30 18218 N 1764.85 -1.48386 -0.530967 0
M  V30 18219 C 1766.27 -1.34485 -0.859412 0
M  V30 18220 C 1766.47 -0.355124 -1.98346 0
M  V30 18221 O 1765.52 0.224012 -2.51504 0
M  V30 18222 C 1766.84 -2.74488 -1.22787 0
M  V30 18223 C 1768.38 -2.82969 -1.33781 0
M  V30 18224 C 1768.86 -4.23673 -1.7397 0
M  V30 18225 N 1770.35 -4.26341 -1.81074 0
M  V30 18226 C 1771.09 -5.32149 -2.13554 0
M  V30 18227 N 1770.58 -6.48235 -2.44464 0
M  V30 18228 N 1772.37 -5.19542 -2.14551 0
M  V30 18229 H 1764.53 -2.11352 0.210713 0
M  V30 18230 H 1766.79 -0.947472 0.0316283 0
M  V30 18231 H 1766.49 -3.4847 -0.475552 0
M  V30 18232 H 1766.37 -3.0795 -2.17823 0
M  V30 18233 H 1768.76 -2.09244 -2.08089 0
M  V30 18234 H 1768.84 -2.53129 -0.368677 0
M  V30 18235 H 1768.48 -4.97914 -1.00222 0
M  V30 18236 H 1768.41 -4.50956 -2.71931 0
M  V30 18237 H 1770.9 -3.42606 -1.59467 0
M  V30 18238 H 1771.21 -7.24712 -2.6835 0
M  V30 18239 H 1769.56 -6.51512 -2.41986 0
M  V30 18240 H 1772.75 -4.27868 -1.89859 0
M  V30 18241 H 1772.92 -6.02103 -2.39532 0
M  V30 18242 N 1766.33 0.779763 -1.36958 0
M  V30 18243 C 1767.29 1.87439 -1.31906 0
M  V30 18244 C 1768.29 1.59222 -0.224739 0
M  V30 18245 O 1769.48 1.67453 -0.480109 0
M  V30 18246 C 1766.61 3.24419 -1.04716 0
M  V30 18247 H 1767.81 1.93333 -2.29265 0
M  V30 18248 H 1765.36 0.978634 -1.21871 0
M  V30 18249 H 1766.1 3.24205 -0.0785442 0
M  V30 18250 H 1765.88 3.4629 -1.83917 0
M  V30 18251 H 1767.37 4.04491 -1.0381 0
M  V30 18252 N 1767.81 1.21396 1.00503 0
M  V30 18253 C 1768.74 0.997268 2.11132 0
M  V30 18254 C 1769.72 -0.0777455 1.69922 0
M  V30 18255 O 1770.9 0.08208 1.94026 0
M  V30 18256 C 1768.03 0.561122 3.42737 0
M  V30 18257 C 1766.99 1.58069 3.97741 0
M  V30 18258 C 1766.31 1.00079 5.25251 0
M  V30 18259 C 1767.61 2.96754 4.29807 0
M  V30 18260 H 1769.31 1.92255 2.29518 0
M  V30 18261 H 1766.85 0.925776 1.10297 0
M  V30 18262 H 1768.81 0.396701 4.19529 0
M  V30 18263 H 1767.53 -0.399804 3.24144 0
M  V30 18264 H 1766.19 1.73268 3.23069 0
M  V30 18265 H 1765.84 0.0315797 5.0299 0
M  V30 18266 H 1765.54 1.68182 5.63017 0
M  V30 18267 H 1767.06 0.847687 6.04687 0
M  V30 18268 H 1768.48 2.85 4.97441 0
M  V30 18269 H 1766.87 3.61871 4.78717 0
M  V30 18270 H 1767.94 3.47602 3.38084 0
M  V30 18271 N 1769.29 -1.19996 1.0217 0
M  V30 18272 C 1770.56 -1.85214 0.628894 0
M  V30 18273 C 1770.94 -1.91292 -0.892784 0
M  V30 18274 O 1770.29 -1.42455 -1.78658 0
M  V30 18275 C 1770.5 -3.24576 1.28262 0
M  V30 18276 C 1771.85 -4.0081 1.4013 0
M  V30 18277 O 1772.87 -3.33948 1.23923 0
M  V30 18278 O 1771.73 -5.20561 1.66368 0
M  V30 18279 H 1768.83 -0.797842 0.217664 0
M  V30 18280 H 1771.37 -1.27544 1.1194 0
M  V30 18281 H 1770.14 -3.14947 2.32216 0
M  V30 18282 H 1769.77 -3.89884 0.77952 0
M  V30 18283 N 1770.76 -0.798611 -1.35867 0
M  V30 18284 C 1772.17 -0.437243 -1.81508 0
M  V30 18285 C 1772.53 1.03987 -1.66376 0
M  V30 18286 O 1771.65 1.80751 -1.18988 0
M  V30 18287 C 1772.25 -0.786865 -3.29536 0
M  V30 18288 C 1770.8 -0.478204 -3.7335 0
M  V30 18289 C 1769.95 -1.01668 -2.5799 0
M  V30 18290 H 1772.9 -0.990957 -1.23959 0
M  V30 18291 H 1772.92 -0.0813864 -3.80413 0
M  V30 18292 H 1772.44 -1.86198 -3.40517 0
M  V30 18293 H 1770.54 0.588503 -3.67923 0
M  V30 18294 H 1770.65 -1.00525 -4.68435 0
M  V30 18295 H 1769.01 -0.439417 -2.50881 0
M  V30 18296 H 1769.8 -2.09775 -2.71753 0
M  V30 18297 N 1772.24 1.47639 -0.551417 0
M  V30 18298 C 1773.65 1.86336 -0.116513 0
M  V30 18299 C 1774 1.45869 1.31213 0
M  V30 18300 O 1773.13 0.859103 1.98616 0
M  V30 18301 C 1773.72 3.38181 -0.204671 0
M  V30 18302 C 1772.28 3.75992 0.175161 0
M  V30 18303 C 1771.43 2.71692 -0.554843 0
M  V30 18304 H 1774.38 1.39238 -0.761471 0
M  V30 18305 H 1774.4 3.76081 0.578214 0
M  V30 18306 H 1773.91 3.67604 -1.24456 0
M  V30 18307 H 1772.01 3.52186 1.21638 0
M  V30 18308 H 1772.13 4.78764 -0.179368 0
M  V30 18309 H 1770.49 2.547 0.00140775 0
M  V30 18310 H 1771.27 3.03957 -1.59578 0
M  V30 18311 N 1773.72 0.287581 1.54954 0
M  V30 18312 C 1774.67 -0.609238 2.1971 0
M  V30 18313 C 1775.65 -1.10905 1.16571 0
M  V30 18314 O 1776.85 -1.05206 1.4234 0
M  V30 18315 C 1773.98 -1.78705 2.9312 0
M  V30 18316 C 1773.06 -1.30383 4.0356 0
M  V30 18317 N 1773.45 -0.537641 5.02934 0
M  V30 18318 C 1771.75 -1.58573 4.16858 0
M  V30 18319 C 1772.45 -0.281993 5.81016 0
M  V30 18320 N 1771.43 -0.857984 5.36786 0
M  V30 18321 H 1775.23 -0.0161538 2.93896 0
M  V30 18322 H 1772.74 0.0917131 1.62141 0
M  V30 18323 H 1774.74 -2.44095 3.37969 0
M  V30 18324 H 1773.4 -2.38397 2.20448 0
M  V30 18325 H 1774.41 -0.183797 5.17574 0
M  V30 18326 H 1771.09 -2.1911 3.55383 0
M  V30 18327 H 1772.48 0.332479 6.71077 0
M  V30 18328 N 1775.2 -1.57593 0.0150662 0
M  V30 18329 C 1776.13 -2.06239 -0.999912 0
M  V30 18330 C 1777.14 -0.983112 -1.29764 0
M  V30 18331 O 1778.33 -1.25961 -1.26476 0
M  V30 18332 C 1775.43 -2.46011 -2.33092 0
M  V30 18333 C 1774.61 -3.76851 -2.2204 0
M  V30 18334 C 1773.66 -4.03326 -3.37956 0
M  V30 18335 O 1772.69 -4.73781 -3.15469 0
M  V30 18336 N 1773.89 -3.52399 -4.61298 0
M  V30 18337 H 1776.66 -2.93936 -0.584952 0
M  V30 18338 H 1774.22 -1.60984 -0.172001 0
M  V30 18339 H 1776.21 -2.60825 -3.09439 0
M  V30 18340 H 1774.78 -1.63753 -2.66277 0
M  V30 18341 H 1774 -3.71969 -1.30509 0
M  V30 18342 H 1775.29 -4.626 -2.11845 0
M  V30 18343 H 1774.69 -2.95374 -4.82463 0
M  V30 18344 H 1773.24 -3.72516 -5.3486 0
M  V30 18345 N 1776.68 0.257904 -1.55475 0
M  V30 18346 C 1777.61 1.34514 -1.8434 0
M  V30 18347 C 1778.59 1.46875 -0.697594 0
M  V30 18348 O 1779.77 1.63263 -0.942196 0
M  V30 18349 C 1776.9 2.71991 -2.01839 0
M  V30 18350 C 1775.94 2.76836 -3.24445 0
M  V30 18351 S 1776.78 2.34554 -4.81399 0
M  V30 18352 C 1777.93 3.73977 -5.01888 0
M  V30 18353 H 1778.17 1.09828 -2.7627 0
M  V30 18354 H 1775.7 0.458324 -1.47441 0
M  V30 18355 H 1777.66 3.51155 -2.12604 0
M  V30 18356 H 1776.32 2.9392 -1.10771 0
M  V30 18357 H 1775.51 3.77774 -3.33621 0
M  V30 18358 H 1775.11 2.05706 -3.12348 0
M  V30 18359 H 1777.41 4.69381 -4.88556 0
M  V30 18360 H 1778.35 3.69743 -6.03901 0
M  V30 18361 H 1778.76 3.6598 -4.29789 0
M  V30 18362 N 1778.15 1.48666 0.52309 0
M  V30 18363 C 1779.06 1.66396 1.65377 0
M  V30 18364 C 1780.08 0.546469 1.65196 0
M  V30 18365 O 1781.26 0.818413 1.84022 0
M  V30 18366 C 1778.32 1.70602 3.01821 0
M  V30 18367 C 1777.38 2.94028 3.12803 0
M  V30 18368 C 1776.62 2.98024 4.42739 0
M  V30 18369 O 1776.84 2.10232 5.30244 0
M  V30 18370 O 1775.77 3.90266 4.58231 0
M  V30 18371 H 1779.6 2.62138 1.53354 0
M  V30 18372 H 1777.18 1.32148 0.696948 0
M  V30 18373 H 1779.07 1.75849 3.82956 0
M  V30 18374 H 1777.74 0.780346 3.14153 0
M  V30 18375 H 1776.65 2.9431 2.30938 0
M  V30 18376 H 1777.98 3.86003 3.0539 0
M  V30 18377 N 1779.63 -0.772489 1.37369 0
M  V30 18378 C 1780.56 -1.89969 1.35772 0
M  V30 18379 C 1781.54 -1.68586 0.226452 0
M  V30 18380 O 1782.73 -1.89454 0.426692 0
M  V30 18381 C 1779.86 -3.27242 1.16319 0
M  V30 18382 C 1778.81 -3.63187 2.2645 0
M  V30 18383 C 1778.14 -4.98992 1.92121 0
M  V30 18384 C 1779.44 -3.70013 3.6863 0
M  V30 18385 H 1781.13 -1.91564 2.30095 0
M  V30 18386 H 1778.68 -0.920241 1.10759 0
M  V30 18387 H 1780.63 -4.05734 1.13832 0
M  V30 18388 H 1779.36 -3.26078 0.184513 0
M  V30 18389 H 1778.01 -2.87001 2.28091 0
M  V30 18390 H 1777.66 -4.94368 0.927848 0
M  V30 18391 H 1777.36 -5.24012 2.65867 0
M  V30 18392 H 1778.89 -5.79886 1.91219 0
M  V30 18393 H 1780.3 -4.38659 3.69122 0
M  V30 18394 H 1778.7 -4.06529 4.41423 0
M  V30 18395 H 1779.77 -2.70694 4.02309 0
M  V30 18396 N 1781.11 -1.21927 -0.998575 0
M  V30 18397 C 1782.34 -1.06655 -1.77291 0
M  V30 18398 C 1782.75 0.38326 -1.84869 0
M  V30 18399 O 1782.11 1.26575 -1.31473 0
M  V30 18400 C 1782.16 -1.66478 -3.20885 0
M  V30 18401 O 1781.88 -3.05788 -3.13728 0
M  V30 18402 C 1783.38 -1.56404 -4.14792 0
M  V30 18403 H 1780.6 -0.3742 -0.55697 0
M  V30 18404 H 1783.15 -1.61401 -1.25579 0
M  V30 18405 H 1781.3 -1.15809 -3.69685 0
M  V30 18406 H 1781.72 -3.34503 -4.0399 0
M  V30 18407 H 1783.19 -2.02995 -5.1332 0
M  V30 18408 H 1783.67 -0.519591 -4.36116 0
M  V30 18409 H 1784.27 -2.06352 -3.71886 0
M  V30 18410 N 1782.59 1.19452 -1.02805 0
M  V30 18411 C 1783.52 2.22095 -0.566246 0
M  V30 18412 C 1784.53 1.58828 0.357442 0
M  V30 18413 O 1785.72 1.77835 0.153965 0
M  V30 18414 C 1782.82 3.38343 0.194294 0
M  V30 18415 C 1782 4.31195 -0.734131 0
M  V30 18416 C 1781.05 5.26197 -0.0191426 0
M  V30 18417 O 1780.08 5.65529 -0.645436 0
M  V30 18418 N 1781.28 5.66841 1.25187 0
M  V30 18419 H 1784.05 2.62342 -1.44902 0
M  V30 18420 H 1781.61 1.3411 -0.906978 0
M  V30 18421 H 1783.6 3.9891 0.682136 0
M  V30 18422 H 1782.17 2.96892 0.978474 0
M  V30 18423 H 1781.39 3.68423 -1.40208 0
M  V30 18424 H 1782.68 4.90144 -1.36516 0
M  V30 18425 H 1782.08 5.36918 1.78145 0
M  V30 18426 H 1780.63 6.29664 1.68423 0
M  V30 18427 O 1784.11 0.941569 1.31213 0
M  V30 18428 H 1784.8 0.569525 1.85138 0
M  V30 END ATOM
M  V30 BEGIN BOND
M  V30 END BOND
M  V30 END CTAB
M  END
$$$$
