drugbank_target|P01130 Low-density lipoprotein receptor (DB00707)
 OpenBabel12092119333D

  0  0  0     0  0            999 V3000
M  V30 BEGIN CTAB
M  V30 COUNTS 12977 13117 0 0 0
M  V30 BEGIN ATOM
M  V30 1 H -0.908 1.98254 -0.117106 0
M  V30 2 N 0 1.576 0 0
M  V30 3 C 0.933 2.03868 1.02534 0
M  V30 4 C 1.911 0.928543 1.3348 0
M  V30 5 O 3.095 1.19667 1.45644 0
M  V30 6 C 0.222 2.43627 2.35294 0
M  V30 7 C -0.732 3.65373 2.2001 0
M  V30 8 S 0.101 5.13292 1.52614 0
M  V30 9 C 1.257 5.56322 2.86805 0
M  V30 10 H 1.49 2.90518 0.631377 0
M  V30 11 H -0.977 1.52953 0.210867 0
M  V30 12 H 0.981 2.67203 3.11629 0
M  V30 13 H -0.358 1.57376 2.7183 0
M  V30 14 H -1.165 3.90944 3.18086 0
M  V30 15 H -1.563 3.418 1.51819 0
M  V30 16 H 0.729 5.58782 3.83104 0
M  V30 17 H 1.672 6.56266 2.65933 0
M  V30 18 H 2.08 4.83886 2.90714 0
M  V30 19 N 1.4781 -0.272755 1.55222 0
M  V30 20 C 2.7261 -1.00234 1.75492 0
M  V30 21 C 3.0471 -1.8681 0.5592 0
M  V30 22 O 2.3171 -1.91215 -0.425882 0
M  V30 23 H 0.8971 -0.373076 0.647166 0
M  V30 24 H 3.5591 -0.296926 1.92625 0
M  V30 25 H 2.6551 -1.63913 2.65592 0
M  V30 26 N 2.9562 -1.48159 -0.537278 0
M  V30 27 C 4.3672 -1.49429 -1.11928 0
M  V30 28 C 4.7182 -0.26 -1.9447 0
M  V30 29 O 3.8432 0.633489 -2.0692 0
M  V30 30 C 4.4382 -2.70758 -2.03656 0
M  V30 31 C 2.9972 -2.74923 -2.57088 0
M  V30 32 C 2.1442 -2.42835 -1.3389 0
M  V30 33 H 5.0952 -1.55381 -0.322886 0
M  V30 34 H 5.1162 -2.48861 -2.87834 0
M  V30 35 H 4.6282 -3.60575 -1.43553 0
M  V30 36 H 2.7292 -1.89296 -3.20933 0
M  V30 37 H 2.8422 -3.76157 -2.9672 0
M  V30 38 H 1.2062 -1.93836 -1.65226 0
M  V30 39 H 1.9892 -3.34884 -0.755504 0
M  V30 40 N 4.4343 0.785586 -1.36625 0
M  V30 41 C 5.6803 1.5452 -1.32269 0
M  V30 42 C 6.0353 1.92159 0.0962266 0
M  V30 43 O 5.3283 1.60158 1.05167 0
M  V30 44 C 5.5223 2.83007 -2.1827 0
M  V30 45 C 5.3513 2.57925 -3.68382 0
M  V30 46 C 4.1213 2.52752 -4.37544 0
M  V30 47 C 6.3193 2.26861 -4.61561 0
M  V30 48 N 4.3013 2.19608 -5.73276 0
M  V30 49 C 5.6723 2.03738 -5.85569 0
M  V30 50 C 7.7273 2.129 -4.50087 0
M  V30 51 C 6.4303 1.68065 -6.9939 0
M  V30 52 C 8.4563 1.78626 -5.63779 0
M  V30 53 C 7.8183 1.56353 -6.86828 0
M  V30 54 H 3.9173 0.566301 -0.539283 0
M  V30 55 H 6.5013 0.917736 -1.71714 0
M  V30 56 H 4.6723 3.43614 -1.81063 0
M  V30 57 H 6.4043 3.48775 -2.05275 0
M  V30 58 H 3.1593 2.6813 -3.90389 0
M  V30 59 H 3.5833 2.05771 -6.44971 0
M  V30 60 H 8.2253 2.28808 -3.55537 0
M  V30 61 H 5.9433 1.50895 -7.93887 0
M  V30 62 H 9.5293 1.68502 -5.56865 0
M  V30 63 H 8.4093 1.30223 -7.73312 0
M  V30 64 N 5.9124 1.20967 1.01018 0
M  V30 65 C 7.1604 1.02172 1.74371 0
M  V30 66 C 7.4814 -0.446414 1.89821 0
M  V30 67 O 6.7514 -1.32234 1.44537 0
M  V30 68 H 5.3314 0.375066 0.646014 0
M  V30 69 H 7.9934 1.52187 1.21758 0
M  V30 70 H 7.0894 1.48538 2.74487 0
M  V30 71 N 7.3905 -1.2043 1.01659 0
M  V30 72 C 8.6365 -1.90356 0.716674 0
M  V30 73 C 8.9915 -1.77367 -0.745557 0
M  V30 74 O 8.2845 -1.1471 -1.53467 0
M  V30 75 C 8.4785 -3.40464 1.08714 0
M  V30 76 C 8.3075 -3.6806 2.58384 0
M  V30 77 C 7.0775 -3.86775 3.25167 0
M  V30 78 C 9.2755 -3.70623 3.56572 0
M  V30 79 N 7.2575 -4.01889 4.64067 0
M  V30 80 C 8.6285 -3.91161 4.81034 0
M  V30 81 C 10.6835 -3.53586 3.50544 0
M  V30 82 C 9.3865 -3.96428 6.00198 0
M  V30 83 C 11.4125 -3.60125 4.6911 0
M  V30 84 C 10.7745 -3.81135 5.92381 0
M  V30 85 H 6.8735 -0.716226 0.313918 0
M  V30 86 H 9.4575 -1.44815 1.30141 0
M  V30 87 H 7.6285 -3.84757 0.530745 0
M  V30 88 H 9.3605 -3.97863 0.740763 0
M  V30 89 H 6.1155 -3.85156 2.75594 0
M  V30 90 H 6.5395 -4.13323 5.36184 0
M  V30 91 H 11.1815 -3.36308 2.56235 0
M  V30 92 H 8.8995 -4.12502 6.94887 0
M  V30 93 H 12.4855 -3.4825 4.66062 0
M  V30 94 H 11.3655 -3.86054 6.82592 0
M  V30 95 N 8.8686 -0.792821 -1.36206 0
M  V30 96 C 9.8156 -0.191653 -2.30003 0
M  V30 97 C 10.7856 0.666453 -1.52143 0
M  V30 98 O 11.9706 0.61442 -1.80636 0
M  V30 99 C 9.1106 0.664848 -3.38635 0
M  V30 100 C 8.2236 -0.212175 -4.31479 0
M  V30 101 C 7.3586 0.651022 -5.27196 0
M  V30 102 C 6.3976 -0.227247 -6.11678 0
M  V30 103 N 5.5346 0.595127 -6.99573 0
M  V30 104 H 10.3746 -0.996978 -2.80828 0
M  V30 105 H 7.9116 -0.503206 -1.38225 0
M  V30 106 H 9.8696 1.17645 -4.00269 0
M  V30 107 H 8.4996 1.43557 -2.89122 0
M  V30 108 H 7.5516 -0.841777 -3.70969 0
M  V30 109 H 8.8636 -0.888751 -4.90818 0
M  V30 110 H 8.0176 1.2283 -5.94136 0
M  V30 111 H 6.7566 1.36121 -4.68319 0
M  V30 112 H 5.7616 -0.816904 -5.43697 0
M  V30 113 H 6.9866 -0.93509 -6.72631 0
M  V30 114 H 4.9326 1.28955 -6.432 0
M  V30 115 H 4.8496 -0.0236952 -7.55996 0
M  V30 116 H 6.1176 1.15613 -7.70879 0
M  V30 117 N 10.3467 1.47872 -0.545128 0
M  V30 118 C 11.2767 2.32661 0.197793 0
M  V30 119 C 12.2577 1.43041 0.920504 0
M  V30 120 O 13.4427 1.71912 0.90333 0
M  V30 121 C 10.5727 3.24569 1.23582 0
M  V30 122 C 9.5267 4.23333 0.630323 0
M  V30 123 C 8.8527 5.0448 1.77211 0
M  V30 124 C 10.1527 5.20704 -0.407974 0
M  V30 125 H 11.8467 2.95024 -0.510045 0
M  V30 126 H 9.3927 1.4187 -0.246731 0
M  V30 127 H 11.3457 3.8272 1.76362 0
M  V30 128 H 10.0697 2.60236 1.97344 0
M  V30 129 H 8.7287 3.6639 0.123922 0
M  V30 130 H 8.3767 4.36561 2.49847 0
M  V30 131 H 8.0767 5.71339 1.37281 0
M  V30 132 H 9.6007 5.65487 2.3034 0
M  V30 133 H 11.0147 5.7329 0.033305 0
M  V30 134 H 9.4117 5.95699 -0.725486 0
M  V30 135 H 10.4817 4.66917 -1.30828 0
M  V30 136 N 11.8248 0.280983 1.55075 0
M  V30 137 C 13.2408 -0.0729964 1.59433 0
M  V30 138 C 13.4408 -1.5411 1.29817 0
M  V30 139 O 12.4968 -2.29086 1.06187 0
M  V30 140 C 13.8098 0.306921 2.9913 0
M  V30 141 C 15.3578 0.254023 3.11968 0
M  V30 142 C 15.8328 0.608467 4.5394 0
M  V30 143 N 17.3238 0.560241 4.59799 0
M  V30 144 C 18.0588 0.80722 5.6769 0
M  V30 145 N 17.5548 1.11912 6.83701 0
M  V30 146 N 19.3478 0.735623 5.57266 0
M  V30 147 H 11.4988 1.238 1.7259 0
M  V30 148 H 13.7618 0.500547 0.805082 0
M  V30 149 H 13.4678 1.32816 3.25657 0
M  V30 150 H 13.3418 -0.349363 3.75579 0
M  V30 151 H 15.7288 -0.75794 2.852 0
M  V30 152 H 15.8098 0.944649 2.37718 0
M  V30 153 H 15.4538 1.61814 4.81434 0
M  V30 154 H 15.3838 -0.104013 5.26497 0
M  V30 155 H 17.8748 0.329288 3.76463 0
M  V30 156 H 18.1878 1.29409 7.61888 0
M  V30 157 H 16.5328 1.15695 6.85303 0
M  V30 158 H 19.7238 0.491752 4.6551 0
M  V30 159 H 19.8968 0.931482 6.4127 0
M  V30 160 N 13.3029 -1.57598 0.00835791 0
M  V30 161 C 14.5489 -1.92046 -0.670055 0
M  V30 162 C 14.9039 -0.88351 -1.70915 0
M  V30 163 O 14.1969 0.103223 -1.91322 0
M  V30 164 C 14.3909 -3.3101 -1.34787 0
M  V30 165 C 14.2199 -4.48126 -0.375945 0
M  V30 166 C 12.9899 -5.05297 0.0166914 0
M  V30 167 C 15.1879 -5.1303 0.361272 0
M  V30 168 N 13.1699 -6.05931 0.985952 0
M  V30 169 C 14.5409 -6.08571 1.18495 0
M  V30 170 C 16.5959 -4.9609 0.42421 0
M  V30 171 C 15.2989 -6.88996 2.06584 0
M  V30 172 C 17.3249 -5.77107 1.29236 0
M  V30 173 C 16.6869 -6.72248 2.10386 0
M  V30 174 H 12.7859 -0.75096 -0.218136 0
M  V30 175 H 15.3699 -1.94572 0.0706669 0
M  V30 176 H 13.5409 -3.29342 -2.05884 0
M  V30 177 H 15.2729 -3.52864 -1.98164 0
M  V30 178 H 12.0279 -4.72279 -0.353435 0
M  V30 179 H 12.4519 -6.60932 1.4662 0
M  V30 180 H 17.0939 -4.22378 -0.188915 0
M  V30 181 H 14.8119 -7.62028 2.6896 0
M  V30 182 H 18.3979 -5.66038 1.34508 0
M  V30 183 H 17.2779 -7.33846 2.76476 0
M  V30 184 N 14.781 0.264519 -1.55364 0
M  V30 185 C 16.009 1.013 -1.80405 0
M  V30 186 C 16.424 1.79618 -0.581622 0
M  V30 187 O 15.781 1.76879 0.449468 0
M  V30 188 C 15.832 1.96487 -3.03439 0
M  V30 189 O 15.553 1.21341 -4.20961 0
M  V30 190 C 17.054 2.83079 -3.41147 0
M  V30 191 H 14.274 0.298875 -0.600762 0
M  V30 192 H 16.818 0.292736 -2.02394 0
M  V30 193 H 14.973 2.63965 -2.83551 0
M  V30 194 H 15.387 1.85573 -4.90574 0
M  V30 195 H 16.861 3.4565 -4.30384 0
M  V30 196 H 17.338 3.53286 -2.60932 0
M  V30 197 H 17.944 2.2108 -3.63323 0
M  V30 198 N 16.2591 1.48442 0.529413 0
M  V30 199 C 17.5051 1.5672 1.28711 0
M  V30 200 C 17.8381 0.2406 1.92704 0
M  V30 201 O 17.1131 -0.753454 1.79313 0
M  V30 202 C 17.3961 2.70587 2.37603 0
M  V30 203 C 17.2491 4.12953 1.78297 0
M  V30 204 C 18.5681 2.80212 3.39366 0
M  V30 205 H 15.6871 0.570474 0.466613 0
M  V30 206 H 18.3291 1.80617 0.589706 0
M  V30 207 H 16.4791 2.50342 2.97088 0
M  V30 208 H 18.1511 4.44639 1.22858 0
M  V30 209 H 16.3941 4.19927 1.0883 0
M  V30 210 H 17.0651 4.88448 2.57144 0
M  V30 211 H 19.5411 2.98553 2.89836 0
M  V30 212 H 18.4171 3.61611 4.12951 0
M  V30 213 H 18.6781 1.88393 3.99951 0
M  V30 214 N 17.7372 -0.778329 1.37039 0
M  V30 215 C 18.7002 -1.87301 1.32102 0
M  V30 216 C 19.7002 -1.59198 0.226405 0
M  V30 217 O 20.8902 -1.67403 0.481861 0
M  V30 218 C 18.0222 -3.24309 1.05055 0
M  V30 219 H 19.2152 -1.93093 2.29467 0
M  V30 220 H 16.7682 -0.977358 1.21973 0
M  V30 221 H 17.5032 -3.24196 0.0819373 0
M  V30 222 H 17.2882 -3.46098 1.84279 0
M  V30 223 H 18.7782 -4.04382 1.04234 0
M  V30 224 N 19.2153 -1.21501 -1.00376 0
M  V30 225 C 20.1453 -0.999478 -2.11028 0
M  V30 226 C 21.1263 0.0759671 -1.6993 0
M  V30 227 O 22.3113 -0.0841106 -1.94018 0
M  V30 228 C 19.4413 -0.564709 -3.42678 0
M  V30 229 C 18.3953 -1.58486 -3.97576 0
M  V30 230 C 17.7213 -1.00628 -5.25146 0
M  V30 231 C 19.0213 -2.97204 -4.29496 0
M  V30 232 H 20.7153 -1.92495 -2.29317 0
M  V30 233 H 18.2613 -0.92693 -1.102 0
M  V30 234 H 20.2143 -0.401091 -4.19487 0
M  V30 235 H 18.9383 0.396411 -3.24185 0
M  V30 236 H 17.5973 -1.73606 -3.22888 0
M  V30 237 H 17.2453 -0.0368439 -5.02987 0
M  V30 238 H 16.9453 -1.68771 -5.62841 0
M  V30 239 H 18.4693 -0.854015 -6.04598 0
M  V30 240 H 19.8833 -2.8552 -4.97143 0
M  V30 241 H 18.2803 -3.62372 -4.78338 0
M  V30 242 H 19.3503 -3.47956 -3.3772 0
M  V30 243 N 20.6934 1.19889 -1.02296 0
M  V30 244 C 21.6234 2.25141 -0.619174 0
M  V30 245 C 22.6044 1.66051 0.368915 0
M  V30 246 O 23.7894 1.92546 0.252941 0
M  V30 247 C 20.9194 3.4728 0.0368783 0
M  V30 248 C 19.8734 4.19005 -0.872865 0
M  V30 249 C 19.1994 5.34637 -0.0822402 0
M  V30 250 C 20.4994 4.74452 -2.18387 0
M  V30 251 H 22.1934 2.59171 -1.49903 0
M  V30 252 H 19.7394 1.24579 -0.722222 0
M  V30 253 H 21.6924 4.20098 0.330958 0
M  V30 254 H 20.4164 3.12433 0.95149 0
M  V30 255 H 19.0754 3.48061 -1.15105 0
M  V30 256 H 18.7234 4.96034 0.83422 0
M  V30 257 H 18.4234 5.83557 -0.688149 0
M  V30 258 H 19.9474 6.10255 0.205238 0
M  V30 259 H 21.3614 5.39055 -1.95172 0
M  V30 260 H 19.7584 5.33834 -2.74119 0
M  V30 261 H 20.8284 3.92844 -2.84257 0
M  V30 262 N 22.1715 0.800033 1.35784 0
M  V30 263 C 23.1015 0.220184 2.3246 0
M  V30 264 C 24.0825 -0.65073 1.57161 0
M  V30 265 O 25.2675 -0.582359 1.85263 0
M  V30 266 C 22.3975 -0.637353 3.41402 0
M  V30 267 C 21.3515 0.134531 4.27789 0
M  V30 268 C 20.6775 -0.844285 5.27992 0
M  V30 269 C 21.9775 1.32979 5.05088 0
M  V30 270 H 23.6715 1.02787 2.81203 0
M  V30 271 H 21.2175 0.495717 1.35199 0
M  V30 272 H 23.1705 -1.05302 4.08031 0
M  V30 273 H 21.8945 -1.47785 2.91251 0
M  V30 274 H 20.5535 0.531296 3.6273 0
M  V30 275 H 20.2015 -1.68011 4.74111 0
M  V30 276 H 19.9015 -0.332184 5.8666 0
M  V30 277 H 21.4255 -1.2583 5.97494 0
M  V30 278 H 22.8395 0.98934 5.64699 0
M  V30 279 H 21.2365 1.77593 5.7322 0
M  V30 280 H 22.3065 2.11978 4.36111 0
M  V30 281 N 23.6496 -1.47581 0.552962 0
M  V30 282 C 24.6126 -2.28439 -0.186605 0
M  V30 283 C 25.6126 -1.36706 -0.84665 0
M  V30 284 O 26.8026 -1.59378 -0.703164 0
M  V30 285 C 23.9346 -3.16264 -1.2724 0
M  V30 286 H 25.1276 -2.95294 0.523609 0
M  V30 287 H 22.6806 -1.532 0.309745 0
M  V30 288 H 23.4156 -2.54091 -2.01514 0
M  V30 289 H 23.2006 -3.83769 -0.803968 0
M  V30 290 H 24.6906 -3.77198 -1.79196 0
M  V30 291 N 25.1277 -0.289203 -1.54924 0
M  V30 292 C 26.0907 0.579144 -2.21762 0
M  V30 293 C 27.0907 1.07047 -1.1999 0
M  V30 294 O 28.2807 0.968384 -1.44803 0
M  V30 295 C 25.4127 1.80055 -2.8947 0
M  V30 296 H 26.6057 -0.00464908 -2.999 0
M  V30 297 H 24.1587 -0.0399306 -1.56249 0
M  V30 298 H 24.8937 2.42449 -2.15381 0
M  V30 299 H 24.6787 1.45602 -3.64064 0
M  V30 300 H 26.1687 2.41773 -3.40493 0
M  V30 301 N 26.6058 1.57591 -0.0167156 0
M  V30 302 C 27.5688 2.08393 0.954204 0
M  V30 303 C 28.5688 0.996531 1.26198 0
M  V30 304 O 29.7588 1.25858 1.20438 0
M  V30 305 C 26.8908 2.5394 2.27436 0
M  V30 306 H 28.0838 2.95455 0.514451 0
M  V30 307 H 25.6368 1.54582 0.231089 0
M  V30 308 H 26.3718 1.70171 2.76066 0
M  V30 309 H 26.1568 3.33371 2.06412 0
M  V30 310 H 27.6468 2.93512 2.97053 0
M  V30 311 N 28.0839 -0.256276 1.55502 0
M  V30 312 C 29.3319 -0.983672 1.76545 0
M  V30 313 C 29.6529 -1.86206 0.578982 0
M  V30 314 O 28.9229 -1.91656 -0.405577 0
M  V30 315 H 27.5029 -0.366191 0.651086 0
M  V30 316 H 30.1649 -0.276479 1.92929 0
M  V30 317 H 29.2609 -1.61087 2.67315 0
M  V30 318 N 29.562 -1.4872 -0.521534 0
M  V30 319 C 30.79 -1.60843 -1.30142 0
M  V30 320 C 31.205 -0.271897 -1.86832 0
M  V30 321 O 30.562 0.739969 -1.66825 0
M  V30 322 C 30.613 -2.66155 -2.4463 0
M  V30 323 O 30.334 -3.94623 -1.90275 0
M  V30 324 C 31.835 -2.88795 -3.36322 0
M  V30 325 H 29.055 -0.542075 -0.395468 0
M  V30 326 H 31.599 -1.94609 -0.628285 0
M  V30 327 H 29.754 -2.35224 -3.07812 0
M  V30 328 H 30.168 -4.52468 -2.65279 0
M  V30 329 H 31.642 -3.66264 -4.12983 0
M  V30 330 H 32.119 -1.97934 -3.9207 0
M  V30 331 H 32.725 -3.21063 -2.78924 0
M  V30 332 N 31.0401 0.771051 -1.3745 0
M  V30 333 C 32.0031 1.86598 -1.33093 0
M  V30 334 C 33.0031 1.59076 -0.234845 0
M  V30 335 O 34.1931 1.67145 -0.490732 0
M  V30 336 C 31.3251 3.23747 -1.06773 0
M  V30 337 H 32.5181 1.91873 -2.30488 0
M  V30 338 H 30.0711 0.970876 -1.2249 0
M  V30 339 H 30.8061 3.24148 -0.099129 0
M  V30 340 H 30.5911 3.45115 -1.86112 0
M  V30 341 H 32.0811 4.03824 -1.06377 0
M  V30 342 N 32.5182 1.22032 0.997298 0
M  V30 343 C 33.7642 1.04376 1.73878 0
M  V30 344 C 34.0972 -0.420716 1.89588 0
M  V30 345 O 33.3722 -1.31202 1.43583 0
M  V30 346 C 33.6552 1.75047 3.14691 0
M  V30 347 C 33.5082 3.29062 3.06656 0
M  V30 348 C 34.8272 1.49928 4.13775 0
M  V30 349 H 31.9462 0.380578 0.631133 0
M  V30 350 H 34.5882 1.50312 1.16217 0
M  V30 351 H 32.7382 1.35996 3.63919 0
M  V30 352 H 34.4102 3.7753 2.65083 0
M  V30 353 H 32.6532 3.58967 2.43568 0
M  V30 354 H 33.3242 3.73683 4.06282 0
M  V30 355 H 35.8002 1.83842 3.73285 0
M  V30 356 H 34.6762 2.01878 5.10428 0
M  V30 357 H 34.9372 0.430929 4.39995 0
M  V30 358 N 33.9963 -1.19345 1.0293 0
M  V30 359 C 35.2443 -1.88665 0.724574 0
M  V30 360 C 35.5653 -1.80036 -0.749144 0
M  V30 361 O 34.8353 -1.2111 -1.53978 0
M  V30 362 H 33.4153 -0.698406 0.265025 0
M  V30 363 H 36.0773 -1.44885 1.30362 0
M  V30 364 H 35.1733 -2.94987 1.01926 0
M  V30 365 N 35.4744 -0.807222 -1.35358 0
M  V30 366 C 36.7514 -0.311126 -1.9311 0
M  V30 367 C 37.1314 1.19937 -1.73719 0
M  V30 368 O 36.4794 1.99918 -1.10657 0
M  V30 369 C 36.6894 -0.723226 -3.41424 0
M  V30 370 C 38.0374 -0.713078 -4.18569 0
M  V30 371 O 39.0614 -0.664811 -3.49941 0
M  V30 372 O 37.9204 -0.772022 -5.41019 0
M  V30 373 H 35.0144 -0.081526 -0.822972 0
M  V30 374 H 37.5604 -0.890962 -1.4443 0
M  V30 375 H 36.3324 -1.76426 -3.4927 0
M  V30 376 H 35.9554 -0.118232 -3.97424 0
M  V30 377 N 36.9525 1.47285 -0.560781 0
M  V30 378 C 38.3685 1.58065 -0.22081 0
M  V30 379 C 38.5685 1.55892 1.27671 0
M  V30 380 O 37.6245 1.46422 2.0571 0
M  V30 381 C 38.9375 2.88418 -0.850625 0
M  V30 382 C 40.4855 3.02009 -0.822184 0
M  V30 383 C 40.9605 4.35066 -1.43113 0
M  V30 384 N 42.4515 4.41711 -1.39448 0
M  V30 385 C 43.1865 5.43237 -1.83525 0
M  V30 386 N 42.6825 6.51555 -2.35474 0
M  V30 387 N 44.4755 5.34304 -1.74574 0
M  V30 388 H 36.6265 1.46941 -1.53369 0
M  V30 389 H 38.8895 0.699558 -0.639783 0
M  V30 390 H 38.5955 2.95755 -1.9032 0
M  V30 391 H 38.4695 3.75612 -0.345773 0
M  V30 392 H 40.8565 2.94266 0.221714 0
M  V30 393 H 40.9375 2.16347 -1.36483 0
M  V30 394 H 40.5815 4.43565 -2.47412 0
M  V30 395 H 40.5115 5.19465 -0.863899 0
M  V30 396 H 43.0025 3.64027 -1.01452 0
M  V30 397 H 43.3155 7.25203 -2.67021 0
M  V30 398 H 41.6605 6.52435 -2.39487 0
M  V30 399 H 44.8515 4.48581 -1.33763 0
M  V30 400 H 45.0245 6.13288 -2.09242 0
M  V30 401 N 38.4306 0.297415 1.54768 0
M  V30 402 C 39.6706 -0.313829 2.01976 0
M  V30 403 C 40.0346 -1.51366 1.1812 0
M  V30 404 O 41.2356 -2.19603 1.5501 0
M  V30 405 C 39.5066 -0.664964 3.51159 0
M  V30 406 S 41.0656 -1.25958 4.20333 0
M  V30 407 H 37.8836 -0.0965014 0.704421 0
M  V30 408 H 40.4856 0.424451 1.90837 0
M  V30 409 H 39.1896 0.21681 4.09827 0
M  V30 410 H 38.7206 -1.43413 3.66328 0
M  V30 411 H 40.7356 -2.54751 4.25813 0
M  V30 412 N 39.9087 -1.5758 0.0250728 0
M  V30 413 C 40.8187 -2.1343 -0.973905 0
M  V30 414 C 41.8347 -1.08556 -1.35984 0
M  V30 415 O 43.0107 -1.40592 -1.44207 0
M  V30 416 C 40.0757 -2.64703 -2.23904 0
M  V30 417 C 39.1367 -3.84276 -1.91391 0
M  V30 418 C 38.3697 -4.33095 -3.11873 0
M  V30 419 O 38.5927 -3.81107 -4.24398 0
M  V30 420 O 37.5267 -5.24984 -2.94406 0
M  V30 421 H 41.3527 -2.99057 -0.529036 0
M  V30 422 H 38.9377 -1.48118 -0.195288 0
M  V30 423 H 40.8197 -2.97769 -2.98181 0
M  V30 424 H 39.4947 -1.82161 -2.6758 0
M  V30 425 H 38.4017 -3.56143 -1.14511 0
M  V30 426 H 39.7347 -4.67968 -1.52534 0
M  V30 427 N 41.3868 0.248026 -1.55636 0
M  V30 428 C 42.8028 0.596483 -1.48035 0
M  V30 429 C 43.0028 1.88386 -0.715039 0
M  V30 430 O 42.0588 2.51319 -0.243944 0
M  V30 431 C 43.3718 0.700258 -2.92433 0
M  V30 432 C 44.9198 0.792659 -3.02797 0
M  V30 433 C 45.3948 0.928005 -4.485 0
M  V30 434 N 46.8858 0.992903 -4.52433 0
M  V30 435 C 47.6208 1.11687 -5.62418 0
M  V30 436 N 47.1168 1.20645 -6.82214 0
M  V30 437 N 48.9098 1.14994 -5.50212 0
M  V30 438 H 41.0608 -0.597109 -2.03834 0
M  V30 439 H 43.3238 -0.205925 -0.925364 0
M  V30 440 H 43.0298 -0.175658 -3.51261 0
M  V30 441 H 42.9038 1.57255 -3.42857 0
M  V30 442 H 45.2908 1.65903 -2.4405 0
M  V30 443 H 45.3718 -0.104762 -2.55585 0
M  V30 444 H 45.0158 0.0661971 -5.07857 0
M  V30 445 H 44.9458 1.84045 -4.93391 0
M  V30 446 H 47.4368 0.935064 -3.66149 0
M  V30 447 H 47.7498 1.30008 -7.61786 0
M  V30 448 H 46.0948 1.17605 -6.84977 0
M  V30 449 H 49.2858 1.07643 -4.55555 0
M  V30 450 H 49.4588 1.24311 -6.35965 0
M  V30 451 N 42.8649 1.48995 0.513639 0
M  V30 452 C 43.8129 1.65199 1.63744 0
M  V30 453 C 44.8069 0.51809 1.61283 0
M  V30 454 O 46.0129 0.697335 1.65943 0
M  V30 455 H 42.3879 0.52069 0.542574 0
M  V30 456 H 44.3589 2.59552 1.47226 0
M  V30 457 C 43.1079 1.72409 3.01945 0
M  V30 458 H 42.4309 2.59029 3.04539 0
M  V30 459 H 43.8709 1.87785 3.80148 0
M  V30 460 C 42.3299 0.46618 3.33659 0
M  V30 461 O 42.8599 -0.413744 3.99564 0
M  V30 462 N 41.0659 0.332931 2.88687 0
M  V30 463 H 40.6129 1.04996 2.35231 0
M  V30 464 H 40.5709 -0.507665 3.10274 0
M  V30 465 N 44.343 -0.763751 1.37857 0
M  V30 466 C 45.253 -1.90817 1.36478 0
M  V30 467 C 46.269 -1.71997 0.263248 0
M  V30 468 O 47.445 -1.95095 0.499979 0
M  V30 469 C 44.51 -3.2605 1.17864 0
M  V30 470 C 43.571 -3.57467 2.3773 0
M  V30 471 C 42.804 -4.86249 2.19995 0
M  V30 472 O 43.027 -5.57884 1.18836 0
M  V30 473 O 41.961 -5.16911 3.08361 0
M  V30 474 H 45.787 -1.94933 2.32884 0
M  V30 475 H 43.372 -0.907619 1.1867 0
M  V30 476 H 45.254 -4.06924 1.09504 0
M  V30 477 H 43.929 -3.22769 0.245372 0
M  V30 478 H 42.836 -2.76796 2.51664 0
M  V30 479 H 44.169 -3.655 3.29652 0
M  V30 480 N 45.8211 -1.22559 -0.990812 0
M  V30 481 C 47.0681 -1.05141 -1.73065 0
M  V30 482 C 47.3961 0.413191 -1.9006 0
M  V30 483 O 46.6511 1.32257 -1.44245 0
M  V30 484 C 46.9501 -1.71011 -3.13831 0
M  V30 485 C 46.6161 -3.20911 -3.16745 0
M  V30 486 C 45.2781 -3.61812 -3.17247 0
M  V30 487 C 47.6301 -4.16846 -3.12872 0
M  V30 488 C 44.9581 -4.97127 -3.1158 0
M  V30 489 C 47.3101 -5.5214 -3.08746 0
M  V30 490 C 45.9741 -5.92419 -3.07565 0
M  V30 491 H 45.2441 -0.384738 -0.633291 0
M  V30 492 H 47.8911 -1.5235 -1.16025 0
M  V30 493 H 46.1961 -1.16133 -3.74193 0
M  V30 494 H 47.8931 -1.55023 -3.69823 0
M  V30 495 H 44.4831 -2.88344 -3.17105 0
M  V30 496 H 48.6671 -3.86263 -3.11632 0
M  V30 497 H 43.9231 -5.27562 -3.09012 0
M  V30 498 H 48.0971 -6.26201 -3.04705 0
M  V30 499 H 45.7241 -6.97236 -3.02929 0
M  V30 500 N 47.2992 1.18797 -1.03562 0
M  V30 501 C 48.2312 2.21731 -0.580337 0
M  V30 502 C 49.2442 1.59051 0.347349 0
M  V30 503 O 50.4332 1.77929 0.142669 0
M  V30 504 C 47.5332 3.38459 0.172805 0
M  V30 505 C 46.7062 4.3072 -0.761496 0
M  V30 506 C 45.7652 5.26174 -0.0525547 0
M  V30 507 O 44.7912 5.65108 -0.681333 0
M  V30 508 N 45.9932 5.67624 1.21586 0
M  V30 509 H 48.7582 2.61417 -1.46565 0
M  V30 510 H 46.3192 1.33531 -0.915476 0
M  V30 511 H 48.3112 3.99335 0.656793 0
M  V30 512 H 46.8812 2.97507 0.959602 0
M  V30 513 H 46.1012 3.67525 -1.42544 0
M  V30 514 H 47.3892 4.89267 -1.39626 0
M  V30 515 H 46.7872 5.38038 1.74732 0
M  V30 516 H 45.3442 6.30721 1.64421 0
M  V30 517 N 48.7773 0.814389 1.34928 0
M  V30 518 C 50.0173 0.404165 2.00364 0
M  V30 519 C 50.3813 -1.01166 1.63185 0
M  V30 520 O 51.5823 -1.52431 2.21401 0
M  V30 521 C 49.8533 0.590718 3.52484 0
M  V30 522 S 51.4123 0.272075 4.37956 0
M  V30 523 H 48.2303 0.15311 0.694319 0
M  V30 524 H 50.8323 1.05834 1.64376 0
M  V30 525 H 49.5363 1.62099 3.77031 0
M  V30 526 H 49.0673 -0.0785013 3.93322 0
M  V30 527 H 51.0823 -0.917405 4.87645 0
M  V30 528 N 50.2554 -1.46986 0.568584 0
M  V30 529 C 51.1874 -2.28233 -0.210337 0
M  V30 530 C 52.2004 -1.37682 -0.868767 0
M  V30 531 O 53.3894 -1.62406 -0.740705 0
M  V30 532 C 50.4894 -3.12293 -1.3163 0
M  V30 533 C 49.6624 -4.30878 -0.7525 0
M  V30 534 C 48.7214 -4.96445 -1.74439 0
M  V30 535 O 47.7474 -5.54482 -1.286 0
M  V30 536 N 48.9494 -4.92171 -3.07812 0
M  V30 537 H 51.7144 -2.95723 0.486648 0
M  V30 538 H 49.2754 -1.56742 0.405409 0
M  V30 539 H 51.2674 -3.53022 -1.97883 0
M  V30 540 H 49.8374 -2.46971 -1.91636 0
M  V30 541 H 49.0574 -3.94104 0.0871128 0
M  V30 542 H 50.3454 -5.07558 -0.35536 0
M  V30 543 H 49.7434 -4.46239 -3.47688 0
M  V30 544 H 48.3004 -5.36884 -3.69592 0
M  V30 545 N 51.7335 -0.305618 -1.54608 0
M  V30 546 C 53.0105 0.355652 -1.92339 0
M  V30 547 C 53.3905 1.71324 -1.23335 0
M  V30 548 O 52.7385 2.25473 -0.370702 0
M  V30 549 C 52.9485 0.46572 -3.45879 0
M  V30 550 C 54.2965 0.734426 -4.182 0
M  V30 551 O 55.3205 0.54935 -3.51938 0
M  V30 552 O 54.1795 1.09024 -5.35515 0
M  V30 553 H 51.2735 0.199666 -0.802535 0
M  V30 554 H 53.8195 -0.354017 -1.65966 0
M  V30 555 H 52.5915 -0.488461 -3.88239 0
M  V30 556 H 52.2145 1.22367 -3.78301 0
M  V30 557 N 53.2116 1.57565 -0.0334293 0
M  V30 558 C 54.4596 1.91598 0.642999 0
M  V30 559 C 54.7806 0.910847 1.7242 0
M  V30 560 O 54.0506 -0.0469931 1.95844 0
M  V30 561 H 52.6306 0.707228 0.240496 0
M  V30 562 H 55.2926 1.94726 -0.0822488 0
M  V30 563 H 54.3886 2.92336 1.09298 0
M  V30 564 N 54.6897 -0.239769 1.55765 0
M  V30 565 C 55.6367 -1.29696 1.90913 0
M  V30 566 C 56.6067 -1.47478 0.764164 0
M  V30 567 O 57.7917 -1.61345 1.01845 0
M  V30 568 C 54.9317 -2.64598 2.21544 0
M  V30 569 C 54.0447 -2.54765 3.48882 0
M  V30 570 C 53.1797 -3.82069 3.69049 0
M  V30 571 C 52.2187 -3.66883 4.89963 0
M  V30 572 N 51.3557 -4.86094 5.06614 0
M  V30 573 H 56.1957 -0.990224 2.81067 0
M  V30 574 H 53.7327 -0.477684 1.39128 0
M  V30 575 H 55.6907 -3.43132 2.3731 0
M  V30 576 H 54.3207 -2.93405 1.34585 0
M  V30 577 H 53.3727 -1.67763 3.41409 0
M  V30 578 H 54.6847 -2.39457 4.37563 0
M  V30 579 H 53.8387 -4.69046 3.84812 0
M  V30 580 H 52.5777 -4.00282 2.78614 0
M  V30 581 H 51.5827 -2.78289 4.74168 0
M  V30 582 H 52.8077 -3.50157 5.81865 0
M  V30 583 H 50.7537 -5.04655 4.19117 0
M  V30 584 H 50.6707 -4.73443 5.89396 0
M  V30 585 H 51.9387 -5.74549 5.26795 0
M  V30 586 N 56.1678 -1.49265 -0.50573 0
M  V30 587 C 57.4078 -1.60128 -1.27038 0
M  V30 588 C 57.7718 -0.279557 -1.89954 0
M  V30 589 O 58.9728 -0.263329 -2.67507 0
M  V30 590 C 57.2438 -2.72507 -2.31246 0
M  V30 591 S 58.8028 -3.0329 -3.17113 0
M  V30 592 H 55.6208 -0.564863 -0.4318 0
M  V30 593 H 58.2228 -1.86902 -0.573397 0
M  V30 594 H 56.9268 -3.67068 -1.83546 0
M  V30 595 H 56.4578 -2.4771 -3.05619 0
M  V30 596 H 58.4728 -2.44448 -4.31809 0
M  V30 597 N 57.6459 0.756429 -1.3826 0
M  V30 598 C 58.8949 1.51082 -1.3363 0
M  V30 599 C 59.2079 1.95467 0.0720068 0
M  V30 600 O 60.4139 2.7043 0.240834 0
M  V30 601 C 58.8699 2.72893 -2.34644 0
M  V30 602 C 58.4779 2.35544 -3.81081 0
M  V30 603 C 60.2219 3.50791 -2.39052 0
M  V30 604 C 58.1289 3.53948 -4.73787 0
M  V30 605 H 57.0589 0.56727 -0.49671 0
M  V30 606 H 59.7099 0.827147 -1.638 0
M  V30 607 H 58.0919 3.43227 -1.97513 0
M  V30 608 H 59.2659 1.72894 -4.27135 0
M  V30 609 H 57.5809 1.70786 -3.79764 0
M  V30 610 H 60.1779 4.38823 -3.05513 0
M  V30 611 H 60.5209 3.91745 -1.40861 0
M  V30 612 H 61.0539 2.87467 -2.74968 0
M  V30 613 H 57.7929 3.18064 -5.73163 0
M  V30 614 H 57.3129 4.15651 -4.32428 0
M  V30 615 H 58.9919 4.20566 -4.91663 0
M  V30 616 N 59.124 1.23083 0.984299 0
M  V30 617 C 60.349 1.088 1.76571 0
M  V30 618 C 60.774 -0.356657 1.84688 0
M  V30 619 O 60.132 -1.25788 1.30565 0
M  V30 620 C 60.18 1.71371 3.17277 0
M  V30 621 O 59.284 0.973213 4.00752 0
M  V30 622 H 58.625 0.381599 0.543395 0
M  V30 623 H 61.155 1.63057 1.23587 0
M  V30 624 H 61.165 1.76449 3.67872 0
M  V30 625 H 59.84 2.76493 3.10684 0
M  V30 626 H 58.417 0.999078 3.59267 0
M  V30 627 N 60.6021 -1.18246 1.0419 0
M  V30 628 C 61.8321 -1.91916 0.764961 0
M  V30 629 C 62.2401 -1.76485 -0.681898 0
M  V30 630 O 61.5831 -1.09275 -1.47664 0
M  V30 631 C 61.6451 -3.4373 1.05309 0
M  V30 632 C 61.3091 -3.8294 2.4941 0
M  V30 633 C 62.3061 -3.86621 3.47592 0
M  V30 634 C 59.9911 -4.142 2.84155 0
M  V30 635 C 61.9851 -4.21013 4.78568 0
M  V30 636 C 59.6721 -4.48262 4.15337 0
M  V30 637 C 60.6701 -4.51645 5.12353 0
M  V30 638 O 60.3581 -4.84911 6.41183 0
M  V30 639 H 60.0901 -0.61606 0.278292 0
M  V30 640 H 62.6441 -1.50947 1.39299 0
M  V30 641 H 60.8741 -3.84946 0.367933 0
M  V30 642 H 62.5631 -3.9865 0.763752 0
M  V30 643 H 63.3291 -3.62607 3.22089 0
M  V30 644 H 59.2081 -4.10743 2.09311 0
M  V30 645 H 62.7521 -4.23568 5.54289 0
M  V30 646 H 58.6491 -4.71737 4.40607 0
M  V30 647 H 59.4171 -5.02809 6.45852 0
M  V30 648 N 62.0802 -0.821533 -1.34494 0
M  V30 649 C 63.0272 -0.240397 -2.29545 0
M  V30 650 C 63.9972 0.634031 -1.53523 0
M  V30 651 O 65.1822 0.575966 -1.81899 0
M  V30 652 C 62.3222 0.592869 -3.39969 0
M  V30 653 C 61.4352 -0.30365 -4.30932 0
M  V30 654 C 60.5702 0.539049 -5.28458 0
M  V30 655 C 59.6092 -0.356942 -6.11058 0
M  V30 656 N 58.7462 0.446603 -7.00678 0
M  V30 657 H 63.5862 -1.05632 -2.7865 0
M  V30 658 H 61.1232 -0.532413 -1.37127 0
M  V30 659 H 63.0812 1.09129 -4.02675 0
M  V30 660 H 61.7112 1.37392 -2.92102 0
M  V30 661 H 60.7632 -0.920276 -3.691 0
M  V30 662 H 62.0752 -0.992661 -4.88823 0
M  V30 663 H 61.2292 1.102 -5.96608 0
M  V30 664 H 59.9682 1.26157 -4.71101 0
M  V30 665 H 58.9732 -0.932047 -5.41842 0
M  V30 666 H 60.1982 -1.07755 -6.70497 0
M  V30 667 H 58.1442 1.15282 -6.45791 0
M  V30 668 H 58.0612 -0.184048 -7.55776 0
M  V30 669 H 59.3292 0.992352 -7.73158 0
M  V30 670 N 63.5583 1.46682 -0.576371 0
M  V30 671 C 64.8043 2.03287 -0.0679305 0
M  V30 672 C 65.1593 1.44063 1.27529 0
M  V30 673 O 64.4523 0.593973 1.82161 0
M  V30 674 C 64.6463 3.57345 0.062886 0
M  V30 675 C 64.4753 4.31509 -1.26611 0
M  V30 676 C 63.2453 4.70664 -1.83856 0
M  V30 677 C 65.4433 4.65444 -2.18783 0
M  V30 678 N 63.4253 5.29552 -3.10561 0
M  V30 679 C 64.7963 5.24835 -3.30072 0
M  V30 680 C 66.8513 4.47375 -2.18542 0
M  V30 681 C 65.5543 5.68063 -4.41244 0
M  V30 682 C 67.5803 4.91614 -3.28739 0
M  V30 683 C 66.9423 5.51071 -4.38748 0
M  V30 684 H 63.0413 0.779083 -0.0674836 0
M  V30 685 H 65.6253 1.78918 -0.767877 0
M  V30 686 H 63.7963 3.8144 0.731988 0
M  V30 687 H 65.5283 4.00592 0.575134 0
M  V30 688 H 62.2833 4.53224 -1.37424 0
M  V30 689 H 62.7073 5.63523 -3.75195 0
M  V30 690 H 67.3493 4.00747 -1.34765 0
M  V30 691 H 65.0673 6.13672 -5.25768 0
M  V30 692 H 68.6533 4.79389 -3.29662 0
M  V30 693 H 67.5333 5.84678 -5.22611 0
M  V30 694 N 65.0364 0.313813 1.54444 0
M  V30 695 C 66.2824 -0.292108 2.00685 0
M  V30 696 C 66.6154 -1.52548 1.20177 0
M  V30 697 O 65.8904 -1.92452 0.281531 0
M  V30 698 C 66.1734 -0.635968 3.5444 0
M  V30 699 C 66.0264 0.607437 4.4568 0
M  V30 700 C 67.3454 -1.45747 4.15266 0
M  V30 701 H 64.4644 -0.104697 0.729526 0
M  V30 702 H 67.1064 0.428457 1.85106 0
M  V30 703 H 65.2564 -1.24986 3.67846 0
M  V30 704 H 66.9284 1.24581 4.44159 0
M  V30 705 H 65.1714 1.23822 4.15753 0
M  V30 706 H 65.8424 0.322515 5.51057 0
M  V30 707 H 68.3184 -0.938645 4.05375 0
M  V30 708 H 67.1944 -1.66683 5.2298 0
M  V30 709 H 67.4554 -2.45063 3.67963 0
M  V30 710 N 66.5145 -1.57545 0.0417849 0
M  V30 711 C 67.7545 -1.94185 -0.63809 0
M  V30 712 C 68.1185 -0.919339 -1.68559 0
M  V30 713 O 69.3195 -1.17236 -2.41886 0
M  V30 714 C 67.5905 -3.35672 -1.22714 0
M  V30 715 S 69.1495 -3.94256 -1.92633 0
M  V30 716 H 65.9675 -0.679353 -0.209764 0
M  V30 717 H 68.5695 -1.95199 0.108479 0
M  V30 718 H 67.2735 -4.07898 -0.452503 0
M  V30 719 H 66.8045 -3.38132 -2.01073 0
M  V30 720 H 68.8195 -3.7872 -3.20602 0
M  V30 721 N 67.9926 0.231505 -1.5589 0
M  V30 722 C 69.2696 0.981096 -1.69215 0
M  V30 723 C 69.6496 2.02799 -0.586164 0
M  V30 724 O 68.9976 2.24823 0.408253 0
M  V30 725 C 69.2076 1.60054 -3.10135 0
M  V30 726 C 70.5556 2.09658 -3.69227 0
M  V30 727 O 71.5796 1.69967 -3.13033 0
M  V30 728 O 70.4386 2.8258 -4.67772 0
M  V30 729 H 67.5326 0.457653 -0.688827 0
M  V30 730 H 70.0786 0.224073 -1.68214 0
M  V30 731 H 68.8506 0.844105 -3.82087 0
M  V30 732 H 68.4736 2.42336 -3.15212 0
M  V30 733 N 69.4707 1.49531 0.497807 0
M  V30 734 C 70.7187 1.58865 1.24926 0
M  V30 735 C 71.0397 0.278721 1.92998 0
M  V30 736 O 70.3097 -0.702144 1.82885 0
M  V30 737 H 68.8897 0.585343 0.464094 0
M  V30 738 H 71.5517 1.86174 0.57666 0
M  V30 739 H 70.6477 2.38633 2.01149 0
M  V30 740 N 70.9488 -0.749086 1.3866 0
M  V30 741 C 72.1738 -1.54344 1.38538 0
M  V30 742 C 72.5988 -1.88088 -0.0216655 0
M  V30 743 O 71.9568 -1.50899 -1.00494 0
M  V30 744 C 72.0048 -2.8164 2.25192 0
M  V30 745 O 71.1088 -3.7698 1.67212 0
M  V30 746 H 70.4498 -0.466654 0.472367 0
M  V30 747 H 72.9798 -0.925355 1.82478 0
M  V30 748 H 72.9898 -3.30519 2.3921 0
M  V30 749 H 71.6648 -2.56411 3.27454 0
M  V30 750 H 70.2418 -3.35699 1.6236 0
M  V30 751 N 72.4269 -1.23603 -0.977757 0
M  V30 752 C 73.3899 -1.02069 -2.05218 0
M  V30 753 C 74.3899 0.0184305 -1.60789 0
M  V30 754 O 75.5799 -0.221569 -1.72785 0
M  V30 755 C 72.7119 -0.544926 -3.36517 0
M  V30 756 H 73.9049 -1.9742 -2.25755 0
M  V30 757 H 71.4579 -1.05684 -1.15155 0
M  V30 758 H 72.1929 0.412241 -3.21669 0
M  V30 759 H 71.9779 -1.2948 -3.70105 0
M  V30 760 H 73.4679 -0.414985 -4.15533 0
M  V30 761 N 73.905 1.17692 -1.04816 0
M  V30 762 C 74.815 2.25229 -0.65643 0
M  V30 763 C 75.831 1.71018 0.320761 0
M  V30 764 O 77.007 2.00649 0.173805 0
M  V30 765 C 74.072 3.46684 -0.0332629 0
M  V30 766 C 73.133 4.15997 -1.06042 0
M  V30 767 C 72.366 5.31654 -0.466893 0
M  V30 768 O 72.589 5.65777 0.724758 0
M  V30 769 O 71.523 5.89831 -1.1993 0
M  V30 770 H 75.349 2.61016 -1.55255 0
M  V30 771 H 72.934 1.24919 -0.81949 0
M  V30 772 H 74.816 4.20234 0.313256 0
M  V30 773 H 73.491 3.12703 0.836566 0
M  V30 774 H 72.398 3.44482 -1.45886 0
M  V30 775 H 73.731 4.53996 -1.90127 0
M  V30 776 N 75.3831 0.828654 1.34056 0
M  V30 777 C 76.6231 0.425394 1.99924 0
M  V30 778 C 76.9871 -0.994294 1.64249 0
M  V30 779 O 78.1881 -1.50074 2.23005 0
M  V30 780 C 76.4591 0.628071 3.51838 0
M  V30 781 S 78.0181 0.318511 4.37642 0
M  V30 782 H 74.8361 0.160465 0.692656 0
M  V30 783 H 77.4381 1.07572 1.63244 0
M  V30 784 H 76.1421 1.66089 3.7529 0
M  V30 785 H 75.6731 -0.0367799 3.93383 0
M  V30 786 H 77.6881 -0.865632 4.88591 0
M  V30 787 N 76.8612 -1.46375 0.584142 0
M  V30 788 C 77.7932 -2.28443 -0.186119 0
M  V30 789 C 78.8062 -1.38596 -0.854115 0
M  V30 790 O 79.9952 -1.63183 -0.723438 0
M  V30 791 C 77.0952 -3.13671 -1.28311 0
M  V30 792 C 76.2682 -4.31652 -0.706758 0
M  V30 793 C 75.3272 -4.98267 -1.69163 0
M  V30 794 O 74.3532 -5.55815 -1.22712 0
M  V30 795 N 75.5552 -4.95408 -3.02575 0
M  V30 796 H 78.3202 -2.9519 0.517986 0
M  V30 797 H 75.8812 -1.56303 0.42201 0
M  V30 798 H 77.8732 -3.55101 -1.94128 0
M  V30 799 H 76.4432 -2.48989 -1.89005 0
M  V30 800 H 75.6632 -3.93989 0.128908 0
M  V30 801 H 76.9512 -5.07906 -0.301506 0
M  V30 802 H 76.3492 -4.49902 -3.42936 0
M  V30 803 H 74.9062 -5.40774 -3.63877 0
M  V30 804 N 78.3393 -0.321999 -1.54275 0
M  V30 805 C 79.6163 0.335232 -1.92706 0
M  V30 806 C 79.9963 1.70006 -1.25145 0
M  V30 807 O 79.3443 2.25067 -0.394596 0
M  V30 808 C 79.5543 0.429008 -3.46353 0
M  V30 809 C 80.9023 0.690029 -4.18956 0
M  V30 810 O 81.9263 0.511992 -3.52501 0
M  V30 811 O 80.7853 1.03338 -5.36641 0
M  V30 812 H 77.8793 0.191143 -0.804608 0
M  V30 813 H 80.4253 -0.3716 -1.65581 0
M  V30 814 H 79.1973 -0.529611 -3.87699 0
M  V30 815 H 78.8203 1.18348 -3.79578 0
M  V30 816 N 79.8174 1.5752 -0.0501392 0
M  V30 817 C 81.0654 1.9227 0.622642 0
M  V30 818 C 81.3864 0.929083 1.71444 0
M  V30 819 O 80.6564 -0.0262186 1.95882 0
M  V30 820 H 79.2364 0.709739 0.232981 0
M  V30 821 H 81.8984 1.94628 -0.102898 0
M  V30 822 H 80.9944 2.93479 1.06191 0
M  V30 823 N 81.2955 -0.223234 1.56011 0
M  V30 824 C 82.5205 -0.968978 1.83373 0
M  V30 825 C 82.9455 -1.77227 0.630254 0
M  V30 826 O 82.3035 -1.76345 -0.420959 0
M  V30 827 C 82.3515 -1.86363 3.08709 0
M  V30 828 O 81.4555 -2.95873 2.87285 0
M  V30 829 H 80.7965 -0.274461 0.604622 0
M  V30 830 H 83.3265 -0.237056 2.03222 0
M  V30 831 H 83.3365 -2.27376 3.38768 0
M  V30 832 H 82.0115 -1.27319 3.95933 0
M  V30 833 H 80.5885 -2.58818 2.68454 0
M  V30 834 N 82.7736 -1.49793 -0.48987 0
M  V30 835 C 84.0506 -1.50348 -1.25119 0
M  V30 836 C 84.4306 -0.237466 -2.0976 0
M  V30 837 O 83.7786 0.77981 -2.14782 0
M  V30 838 C 83.9886 -2.78872 -2.09837 0
M  V30 839 C 85.3366 -3.288 -2.68655 0
M  V30 840 O 86.3606 -2.80065 -2.20096 0
M  V30 841 O 85.2196 -4.13707 -3.57083 0
M  V30 842 H 82.3136 -0.602242 -0.566775 0
M  V30 843 H 84.8596 -1.62067 -0.503229 0
M  V30 844 H 83.6316 -3.62499 -1.47343 0
M  V30 845 H 83.2546 -2.70066 -2.91805 0
M  V30 846 N 84.2517 0.741722 -1.39055 0
M  V30 847 C 85.1617 1.88621 -1.39496 0
M  V30 848 C 86.1777 1.71557 -0.290578 0
M  V30 849 O 87.3537 1.94275 -0.530954 0
M  V30 850 C 84.4187 3.24134 -1.23037 0
M  V30 851 C 83.4797 3.5364 -2.43387 0
M  V30 852 C 82.7127 4.82687 -2.27703 0
M  V30 853 O 82.9357 5.55922 -1.27696 0
M  V30 854 O 81.8697 5.1194 -3.16545 0
M  V30 855 H 85.6957 1.91203 -2.35956 0
M  V30 856 H 83.2807 0.888625 -1.20099 0
M  V30 857 H 85.1627 4.0513 -1.15964 0
M  V30 858 H 83.8377 3.22337 -0.296691 0
M  V30 859 H 82.7447 2.72758 -2.56035 0
M  V30 860 H 84.0777 3.60209 -3.35425 0
M  V30 861 N 85.7298 1.2412 0.971189 0
M  V30 862 C 86.9548 1.10667 1.75407 0
M  V30 863 C 87.3798 -0.337048 1.85056 0
M  V30 864 O 86.7378 -1.24396 1.31892 0
M  V30 865 C 86.7858 1.74726 3.15441 0
M  V30 866 O 85.8898 1.01566 3.99697 0
M  V30 867 H 85.2308 0.387341 0.539317 0
M  V30 868 H 87.7608 1.64358 1.2185 0
M  V30 869 H 87.7708 1.80341 3.6598 0
M  V30 870 H 86.4458 2.79773 3.07734 0
M  V30 871 H 85.0228 1.03713 3.58187 0
M  V30 872 N 87.2079 -1.17134 1.05439 0
M  V30 873 C 88.1399 -2.2078 0.615539 0
M  V30 874 C 89.1529 -1.59584 -0.322001 0
M  V30 875 O 90.3419 -1.78133 -0.114344 0
M  V30 876 C 87.4419 -3.38691 -0.118938 0
M  V30 877 C 86.6149 -4.29454 0.829924 0
M  V30 878 C 85.6739 -5.26024 0.136258 0
M  V30 879 O 84.6999 -5.63952 0.77115 0
M  V30 880 N 85.9019 -5.69487 -1.1254 0
M  V30 881 H 88.6669 -2.59052 1.50705 0
M  V30 882 H 86.2279 -1.32058 0.936603 0
M  V30 883 H 88.2199 -4.00329 -0.593179 0
M  V30 884 H 86.7899 -2.98996 -0.91215 0
M  V30 885 H 86.0099 -3.65211 1.48373 0
M  V30 886 H 87.2979 -4.86984 1.47392 0
M  V30 887 H 86.6959 -5.4075 -1.6615 0
M  V30 888 H 85.2529 -6.33257 -1.54366 0
M  V30 889 N 88.686 -0.835752 -1.33615 0
M  V30 890 C 89.596 -0.269088 -2.33052 0
M  V30 891 C 90.612 0.603251 -1.63208 0
M  V30 892 O 91.788 0.508112 -1.94885 0
M  V30 893 C 88.853 0.549091 -3.42324 0
M  V30 894 C 87.914 -0.347156 -4.27894 0
M  V30 895 C 87.147 0.43207 -5.31948 0
M  V30 896 O 87.37 1.66409 -5.45586 0
M  V30 897 O 86.304 -0.192298 -6.01593 0
M  V30 898 H 90.13 -1.09243 -2.83372 0
M  V30 899 H 87.715 -0.598198 -1.36901 0
M  V30 900 H 89.597 1.01414 -4.09015 0
M  V30 901 H 88.272 1.34955 -2.94226 0
M  V30 902 H 87.179 -0.859979 -3.64081 0
M  V30 903 H 88.512 -1.1123 -4.79467 0
M  V30 904 N 90.1641 1.46063 -0.591896 0
M  V30 905 C 91.3921 2.06717 -0.0868936 0
M  V30 906 C 91.8071 1.43916 1.22203 0
M  V30 907 O 91.1641 0.547698 1.74088 0
M  V30 908 C 91.2151 3.6142 0.0758725 0
M  V30 909 O 90.9361 4.21874 -1.18126 0
M  V30 910 C 92.4371 4.39025 0.61416 0
M  V30 911 H 89.6571 0.668162 -0.0616518 0
M  V30 912 H 92.2011 1.8755 -0.815175 0
M  V30 913 H 90.3561 3.79983 0.754413 0
M  V30 914 H 90.7701 5.14861 -1.00092 0
M  V30 915 H 92.2441 5.4783 0.677193 0
M  V30 916 H 92.7211 4.07708 1.63312 0
M  V30 917 H 93.3271 4.2529 -0.0298142 0
M  V30 918 N 91.6422 0.330177 1.54103 0
M  V30 919 C 92.8822 -0.270916 2.02597 0
M  V30 920 C 93.2462 -1.48826 1.21304 0
M  V30 921 O 94.4472 -2.16266 1.59633 0
M  V30 922 C 92.7182 -0.590328 3.52491 0
M  V30 923 S 94.2772 -1.17014 4.2291 0
M  V30 924 H 91.0952 -0.0815379 0.706309 0
M  V30 925 H 93.6972 0.464835 1.89893 0
M  V30 926 H 92.4012 0.303691 4.09275 0
M  V30 927 H 91.9322 -1.3561 3.69288 0
M  V30 928 H 93.9472 -2.45662 4.3112 0
M  V30 929 N 93.1203 -1.57491 0.0584922 0
M  V30 930 C 94.0503 -2.14988 -0.911178 0
M  V30 931 C 95.0313 -1.07343 -1.31952 0
M  V30 932 O 96.2163 -1.35318 -1.39294 0
M  V30 933 C 93.3463 -2.70078 -2.18347 0
M  V30 934 C 92.3003 -3.82771 -1.91495 0
M  V30 935 C 91.6263 -4.24408 -3.25241 0
M  V30 936 C 92.9263 -5.07592 -1.23075 0
M  V30 937 H 94.6203 -2.96263 -0.432246 0
M  V30 938 H 92.1663 -1.42512 -0.206469 0
M  V30 939 H 94.1193 -3.08943 -2.86587 0
M  V30 940 H 92.8433 -1.86005 -2.68458 0
M  V30 941 H 91.5023 -3.44389 -1.25664 0
M  V30 942 H 91.1503 -3.37275 -3.73168 0
M  V30 943 H 90.8503 -5.00366 -3.08071 0
M  V30 944 H 92.3743 -4.65879 -3.94701 0
M  V30 945 H 93.7883 -5.43857 -1.81362 0
M  V30 946 H 92.1853 -5.88741 -1.16207 0
M  V30 947 H 93.2553 -4.84454 -0.207847 0
M  V30 948 N 94.5984 0.214957 -1.56127 0
M  V30 949 C 95.8234 0.95924 -1.83884 0
M  V30 950 C 96.2484 1.7689 -0.639644 0
M  V30 951 O 95.6064 1.76566 0.411601 0
M  V30 952 C 95.6544 1.84723 -3.09693 0
M  V30 953 O 94.7584 2.94346 -2.8885 0
M  V30 954 H 94.0994 0.27125 -0.606069 0
M  V30 955 H 96.6294 0.226276 -2.03345 0
M  V30 956 H 96.6394 2.25576 -3.39969 0
M  V30 957 H 95.3144 1.25218 -3.96602 0
M  V30 958 H 93.8914 2.57391 -2.69823 0
M  V30 959 N 96.0765 1.50051 0.48192 0
M  V30 960 C 97.3225 1.60736 1.2366 0
M  V30 961 C 97.6555 0.301786 1.91841 0
M  V30 962 O 96.9305 -0.696025 1.8162 0
M  V30 963 C 97.2135 2.78009 2.28874 0
M  V30 964 C 97.0665 4.18416 1.65069 0
M  V30 965 C 98.3855 2.90867 3.30279 0
M  V30 966 H 95.5045 0.585031 0.448228 0
M  V30 967 H 98.1465 1.82402 0.531946 0
M  V30 968 H 96.2965 2.59667 2.88973 0
M  V30 969 H 97.9685 4.48322 1.0865 0
M  V30 970 H 96.2115 4.23177 0.954148 0
M  V30 971 H 96.8825 4.96381 2.41474 0
M  V30 972 H 99.3585 3.07623 2.80191 0
M  V30 973 H 98.2345 3.74566 4.01238 0
M  V30 974 H 98.4955 2.01021 3.93755 0
M  V30 975 N 97.5546 -0.734337 1.39446 0
M  V30 976 C 98.7826 -1.52358 1.39981 0
M  V30 977 C 99.1976 -1.88799 -0.0054975 0
M  V30 978 O 98.5546 -1.54146 -0.976998 0
M  V30 979 C 98.6056 -2.81072 2.27333 0
M  V30 980 O 98.3266 -2.46178 3.62392 0
M  V30 981 C 99.8276 -3.75096 2.36259 0
M  V30 982 H 97.0476 -0.470806 0.478103 0
M  V30 983 H 99.5916 -0.907339 1.83269 0
M  V30 984 H 97.7466 -3.39026 1.87457 0
M  V30 985 H 98.1606 -3.28866 4.08592 0
M  V30 986 H 99.6346 -4.62305 3.01626 0
M  V30 987 H 100.112 -4.16892 1.38194 0
M  V30 988 H 100.718 -3.23061 2.76608 0
M  V30 989 N 99.0327 -1.24633 -0.964593 0
M  V30 990 C 100.273 -1.09981 -1.72289 0
M  V30 991 C 100.637 0.354792 -1.88693 0
M  V30 992 O 101.838 0.62289 -2.61483 0
M  V30 993 C 100.109 -1.82262 -3.07434 0
M  V30 994 S 101.668 -1.83379 -3.98645 0
M  V30 995 H 98.4857 -0.393292 -0.59232 0
M  V30 996 H 101.088 -1.58009 -1.15123 0
M  V30 997 H 99.7917 -2.87206 -2.93157 0
M  V30 998 H 99.3227 -1.3458 -3.69664 0
M  V30 999 H 101.338 -0.903691 -4.87901 0
M  V30 1000 N 100.511 1.16574 -1.06058 0
M  V30 1001 C 101.458 2.20883 -0.669263 0
M  V30 1002 C 102.428 1.62729 0.332918 0
M  V30 1003 O 103.613 1.895 0.222346 0
M  V30 1004 C 100.753 3.45049 -0.0593572 0
M  V30 1005 C 99.8658 4.17458 -1.11143 0
M  V30 1006 C 99.0008 5.29135 -0.467916 0
M  V30 1007 C 98.0398 5.93343 -1.50369 0
M  V30 1008 N 97.1768 6.96516 -0.883706 0
M  V30 1009 H 102.017 2.53709 -1.5632 0
M  V30 1010 H 99.5538 1.24616 -0.781625 0
M  V30 1011 H 101.512 4.16033 0.311771 0
M  V30 1012 H 100.142 3.12781 0.797992 0
M  V30 1013 H 99.1938 3.45101 -1.60029 0
M  V30 1014 H 100.506 4.61307 -1.89731 0
M  V30 1015 H 99.6598 6.06684 -0.0436871 0
M  V30 1016 H 98.3988 4.86443 0.349864 0
M  V30 1017 H 97.4038 5.14517 -1.93784 0
M  V30 1018 H 98.6288 6.38114 -2.32352 0
M  V30 1019 H 96.5748 6.55943 -0.086595 0
M  V30 1020 H 96.4918 7.38723 -1.607 0
M  V30 1021 H 97.7598 7.77993 -0.484543 0
M  V30 1022 N 101.989 0.842826 1.3317 0
M  V30 1023 C 103.214 0.453129 2.02389 0
M  V30 1024 C 103.639 -0.939105 1.6298 0
M  V30 1025 O 102.997 -1.61472 0.8244 0
M  V30 1026 C 103.045 0.586094 3.55805 0
M  V30 1027 O 102.149 -0.386029 4.10589 0
M  V30 1028 H 101.49 0.183664 0.638094 0
M  V30 1029 H 104.02 1.13875 1.69981 0
M  V30 1030 H 104.03 0.469209 4.05293 0
M  V30 1031 H 102.705 1.6014 3.83833 0
M  V30 1032 H 101.282 -0.226371 3.72212 0
M  V30 1033 N 103.467 -1.45747 0.599634 0
M  V30 1034 C 104.715 -2.01893 0.0915472 0
M  V30 1035 C 105.036 -1.47155 -1.27946 0
M  V30 1036 O 104.306 -0.66273 -1.84349 0
M  V30 1037 H 102.886 -0.746363 0.0308524 0
M  V30 1038 H 105.548 -1.78645 0.779237 0
M  V30 1039 H 104.644 -3.1208 0.0353086 0
M  V30 1040 N 104.945 -0.338344 -1.53925 0
M  V30 1041 C 106.222 0.314774 -1.93051 0
M  V30 1042 C 106.602 1.68669 -1.26941 0
M  V30 1043 O 105.95 2.24636 -0.418445 0
M  V30 1044 C 106.16 0.392249 -3.46789 0
M  V30 1045 C 107.508 0.645554 -4.19664 0
M  V30 1046 O 108.532 0.474575 -3.53024 0
M  V30 1047 O 107.391 0.976408 -5.37707 0
M  V30 1048 H 104.485 0.182598 -0.80659 0
M  V30 1049 H 107.031 -0.389141 -1.65178 0
M  V30 1050 H 105.803 -0.570702 -3.87116 0
M  V30 1051 H 105.426 1.14316 -3.80812 0
M  V30 1052 N 106.423 1.57458 -0.0668435 0
M  V30 1053 C 107.67 1.93301 0.603406 0
M  V30 1054 C 107.998 0.946486 1.69917 0
M  V30 1055 O 107.253 -0.0387021 1.95662 0
M  V30 1056 C 107.552 3.35784 1.22409 0
M  V30 1057 C 107.218 4.50179 0.254955 0
M  V30 1058 C 105.88 4.81199 -0.0116746 0
M  V30 1059 C 108.232 5.19598 -0.408338 0
M  V30 1060 C 105.56 5.78978 -0.94877 0
M  V30 1061 C 107.912 6.18381 -1.33372 0
M  V30 1062 C 106.576 6.47821 -1.60887 0
M  V30 1063 H 105.846 0.707338 0.220802 0
M  V30 1064 H 108.493 1.91012 -0.136665 0
M  V30 1065 H 106.798 3.34515 2.03978 0
M  V30 1066 H 108.495 3.60804 1.74989 0
M  V30 1067 H 105.085 4.25983 0.472954 0
M  V30 1068 H 109.269 4.95832 -0.215456 0
M  V30 1069 H 104.525 6.00115 -1.16925 0
M  V30 1070 H 108.699 6.71277 -1.85367 0
M  V30 1071 H 106.326 7.23399 -2.33661 0
M  V30 1072 N 107.901 -0.206675 1.56239 0
M  V30 1073 C 109.126 -0.949474 1.8439 0
M  V30 1074 C 109.551 -1.76549 0.649016 0
M  V30 1075 O 108.909 -1.76782 -0.402231 0
M  V30 1076 C 108.957 -1.83078 3.10668 0
M  V30 1077 O 108.061 -2.9281 2.90407 0
M  V30 1078 H 107.402 -0.268033 0.607499 0
M  V30 1079 H 109.932 -0.215488 2.03462 0
M  V30 1080 H 109.942 -2.2377 3.41161 0
M  V30 1081 H 108.617 -1.23112 3.97261 0
M  V30 1082 H 107.194 -2.55956 2.71184 0
M  V30 1083 N 109.379 -1.50304 -0.473955 0
M  V30 1084 C 110.619 -1.62786 -1.23612 0
M  V30 1085 C 110.983 -0.319786 -1.89318 0
M  V30 1086 O 112.184 -0.320012 -2.66888 0
M  V30 1087 C 110.455 -2.77351 -2.25414 0
M  V30 1088 S 112.014 -3.09948 -3.10608 0
M  V30 1089 H 108.832 -0.573895 -0.419721 0
M  V30 1090 H 111.434 -1.88076 -0.533623 0
M  V30 1091 H 110.138 -3.70879 -1.75719 0
M  V30 1092 H 109.669 -2.54137 -3.00296 0
M  V30 1093 H 111.684 -2.53553 -4.26527 0
M  V30 1094 N 110.857 0.726932 -1.39834 0
M  V30 1095 C 112.105 1.4837 -1.37225 0
M  V30 1096 C 112.426 1.94979 0.0284857 0
M  V30 1097 O 111.696 1.69555 0.981213 0
M  V30 1098 H 110.276 0.55043 -0.505011 0
M  V30 1099 H 112.938 0.862468 -1.74778 0
M  V30 1100 H 112.034 2.36198 -2.04003 0
M  V30 1101 N 112.336 1.25143 0.95797 0
M  V30 1102 C 113.584 1.09476 1.69881 0
M  V30 1103 C 113.905 -0.365502 1.91544 0
M  V30 1104 O 113.175 -1.25985 1.50015 0
M  V30 1105 H 111.755 0.402128 0.629525 0
M  V30 1106 H 114.417 1.57214 1.15194 0
M  V30 1107 H 113.513 1.60046 2.6794 0
M  V30 1108 N 113.814 -1.1601 1.06675 0
M  V30 1109 C 115.23 -1.38622 0.790948 0
M  V30 1110 C 115.43 -1.92109 -0.607965 0
M  V30 1111 O 114.486 -2.12239 -1.36787 0
M  V30 1112 C 115.799 -2.36347 1.85905 0
M  V30 1113 C 117.347 -2.50023 1.88301 0
M  V30 1114 C 117.822 -3.51033 2.94176 0
M  V30 1115 N 119.313 -3.58563 2.93235 0
M  V30 1116 C 120.048 -4.36521 3.71803 0
M  V30 1117 N 119.544 -5.17869 4.602 0
M  V30 1118 N 121.337 -4.31541 3.60178 0
M  V30 1119 H 113.488 -0.796294 1.96908 0
M  V30 1120 H 115.751 -0.412597 0.853503 0
M  V30 1121 H 115.457 -2.04147 2.86386 0
M  V30 1122 H 115.331 -3.36042 1.71334 0
M  V30 1123 H 117.718 -2.81524 0.884769 0
M  V30 1124 H 117.799 -1.5035 2.06951 0
M  V30 1125 H 117.443 -3.20268 3.94196 0
M  V30 1126 H 117.373 -4.50445 2.72776 0
M  V30 1127 H 119.864 -3.00496 2.29152 0
M  V30 1128 H 120.177 -5.74578 5.16797 0
M  V30 1129 H 118.522 -5.17199 4.64253 0
M  V30 1130 H 121.713 -3.67051 2.90502 0
M  V30 1131 H 121.886 -4.9205 4.21653 0
M  V30 1132 N 115.292 -0.849877 -1.32721 0
M  V30 1133 C 116.538 -0.451591 -1.97708 0
M  V30 1134 C 116.871 0.989175 -1.6712 0
M  V30 1135 O 116.146 1.69334 -0.956891 0
M  V30 1136 C 116.429 -0.685598 -3.53513 0
M  V30 1137 C 116.282 -2.17444 -3.93749 0
M  V30 1138 C 117.601 -0.138874 -4.39881 0
M  V30 1139 H 114.72 -0.16555 -0.718166 0
M  V30 1140 H 117.362 -1.06742 -1.57182 0
M  V30 1141 H 115.512 -0.161416 -3.88165 0
M  V30 1142 H 117.184 -2.76433 -3.693 0
M  V30 1143 H 115.427 -2.65476 -3.43081 0
M  V30 1144 H 116.098 -2.28888 -5.02309 0
M  V30 1145 H 118.574 -0.587068 -4.11938 0
M  V30 1146 H 117.45 -0.332213 -5.47894 0
M  V30 1147 H 117.711 0.95806 -4.31594 0
M  V30 1148 N 116.77 1.45427 -0.607355 0
M  V30 1149 C 117.718 2.32269 0.12411 0
M  V30 1150 C 118.712 1.45955 0.859854 0
M  V30 1151 O 119.918 1.6244 0.775447 0
M  V30 1152 H 116.293 0.749691 0.0588839 0
M  V30 1153 H 118.264 2.91743 -0.626762 0
M  V30 1154 C 117.013 3.29567 1.1082 0
M  V30 1155 H 116.336 3.95978 0.551492 0
M  V30 1156 H 117.776 3.93061 1.58995 0
M  V30 1157 C 116.235 2.56722 2.18164 0
M  V30 1158 O 116.765 2.34842 3.25902 0
M  V30 1159 N 114.971 2.16861 1.93442 0
M  V30 1160 H 114.518 2.34855 1.05834 0
M  V30 1161 H 114.476 1.68444 2.65469 0
M  V30 1162 N 118.248 0.346503 1.53744 0
M  V30 1163 C 119.664 -0.00530975 1.59599 0
M  V30 1164 C 119.864 -1.48465 1.36236 0
M  V30 1165 O 118.92 -2.24376 1.15808 0
M  V30 1166 C 120.233 0.433516 2.97559 0
M  V30 1167 C 121.781 0.386111 3.10609 0
M  V30 1168 C 122.256 0.800451 4.50951 0
M  V30 1169 N 123.747 0.754753 4.5701 0
M  V30 1170 C 124.482 1.04727 5.63755 0
M  V30 1171 N 123.978 1.4081 6.7834 0
M  V30 1172 N 125.771 0.971316 5.53644 0
M  V30 1173 H 117.922 1.31009 1.67184 0
M  V30 1174 H 120.185 0.534242 0.783128 0
M  V30 1175 H 119.891 1.46509 3.19731 0
M  V30 1176 H 119.765 -0.189753 3.76722 0
M  V30 1177 H 122.152 -0.636295 2.88158 0
M  V30 1178 H 122.233 1.04462 2.33498 0
M  V30 1179 H 121.877 1.82088 4.74137 0
M  V30 1180 H 121.807 0.119386 5.26465 0
M  V30 1181 H 124.298 0.488662 3.74727 0
M  V30 1182 H 124.611 1.61607 7.55714 0
M  V30 1183 H 122.956 1.44657 6.79779 0
M  V30 1184 H 126.147 0.688748 4.63005 0
M  V30 1185 H 126.32 1.20263 6.36742 0
M  V30 1186 N 119.726 -1.57421 0.075193 0
M  V30 1187 C 120.966 -1.95495 -0.596757 0
M  V30 1188 C 121.33 -0.954886 -1.66571 0
M  V30 1189 O 122.531 -1.22341 -2.39345 0
M  V30 1190 C 120.802 -3.382 -1.15566 0
M  V30 1191 S 122.361 -3.98254 -1.84226 0
M  V30 1192 H 119.179 -0.683649 -0.195307 0
M  V30 1193 H 121.781 -1.94925 0.149859 0
M  V30 1194 H 120.485 -4.08766 -0.36588 0
M  V30 1195 H 120.016 -3.42321 -1.93856 0
M  V30 1196 H 122.031 -3.85435 -3.12497 0
M  V30 1197 N 121.204 0.198386 -1.56346 0
M  V30 1198 C 122.453 0.917451 -1.79627 0
M  V30 1199 C 122.766 1.8456 -0.64784 0
M  V30 1200 O 123.972 2.60504 -0.764859 0
M  V30 1201 C 122.428 1.68175 -3.18191 0
M  V30 1202 C 122.036 0.798589 -4.40825 0
M  V30 1203 C 123.78 2.39065 -3.50782 0
M  V30 1204 C 121.687 1.56157 -5.70411 0
M  V30 1205 H 120.617 0.346317 -0.669762 0
M  V30 1206 H 123.268 0.170801 -1.82703 0
M  V30 1207 H 121.65 2.47216 -3.09354 0
M  V30 1208 H 122.824 0.0470665 -4.60776 0
M  V30 1209 H 121.139 0.200686 -4.15916 0
M  V30 1210 H 123.736 2.96692 -4.44835 0
M  V30 1211 H 124.079 3.13091 -2.74371 0
M  V30 1212 H 124.612 1.66993 -3.61052 0
M  V30 1213 H 121.351 0.864142 -6.49779 0
M  V30 1214 H 120.871 2.2871 -5.54483 0
M  V30 1215 H 122.55 2.11622 -6.11412 0
M  V30 1216 N 122.682 1.50554 0.465978 0
M  V30 1217 C 124.093 1.54599 1.04671 0
M  V30 1218 C 124.444 0.352488 1.93008 0
M  V30 1219 O 123.569 -0.534044 2.09707 0
M  V30 1220 C 124.164 2.80166 1.90505 0
M  V30 1221 C 122.723 2.86876 2.43678 0
M  V30 1222 C 121.87 2.48947 1.22151 0
M  V30 1223 H 124.821 1.56744 0.248384 0
M  V30 1224 H 124.842 2.62311 2.75633 0
M  V30 1225 H 124.354 3.67013 1.26186 0
M  V30 1226 H 122.455 2.04393 3.11536 0
M  V30 1227 H 122.568 3.89885 2.78436 0
M  V30 1228 H 120.932 2.01498 1.5579 0
M  V30 1229 H 121.715 3.38107 0.594866 0
M  V30 1230 N 124.16 -0.719506 1.40217 0
M  V30 1231 C 125.092 -1.84428 1.36084 0
M  V30 1232 C 126.105 -1.60597 0.266913 0
M  V30 1233 O 127.294 -1.70544 0.526983 0
M  V30 1234 C 124.394 -3.20757 1.094 0
M  V30 1235 C 123.567 -3.71817 2.30372 0
M  V30 1236 C 122.626 -4.86748 1.99907 0
M  V30 1237 O 121.652 -4.99603 2.72737 0
M  V30 1238 N 122.854 -5.7226 0.974635 0
M  V30 1239 H 125.619 -1.88473 2.33019 0
M  V30 1240 H 123.18 -0.900885 1.3452 0
M  V30 1241 H 125.172 -3.95235 0.870116 0
M  V30 1242 H 123.742 -3.11884 0.211452 0
M  V30 1243 H 122.962 -2.88514 2.68614 0
M  V30 1244 H 124.25 -4.02666 3.11026 0
M  V30 1245 H 123.648 -5.6448 0.371368 0
M  V30 1246 H 122.205 -6.46739 0.810656 0
M  V30 1247 N 125.638 -1.25649 -0.95132 0
M  V30 1248 C 126.885 -1.10594 -1.69633 0
M  V30 1249 C 127.213 0.352515 -1.91279 0
M  V30 1250 O 126.468 1.27601 -1.4838 0
M  V30 1251 C 126.767 -1.80909 -3.08231 0
M  V30 1252 C 126.433 -3.30825 -3.06375 0
M  V30 1253 C 125.095 -3.71722 -3.05576 0
M  V30 1254 C 127.447 -4.26589 -2.99452 0
M  V30 1255 C 124.775 -5.06788 -2.95606 0
M  V30 1256 C 127.127 -5.61683 -2.91024 0
M  V30 1257 C 125.791 -6.01904 -2.88562 0
M  V30 1258 H 125.061 -0.404691 -0.620731 0
M  V30 1259 H 127.708 -1.55964 -1.11119 0
M  V30 1260 H 126.013 -1.27979 -3.70309 0
M  V30 1261 H 127.71 -1.6671 -3.64704 0
M  V30 1262 H 124.3 -2.98287 -3.07771 0
M  V30 1263 H 128.484 -3.95982 -2.99185 0
M  V30 1264 H 123.74 -5.37126 -2.92071 0
M  V30 1265 H 127.914 -6.35578 -2.84629 0
M  V30 1266 H 125.541 -7.06521 -2.80593 0
M  V30 1267 N 127.117 1.15442 -1.07289 0
M  V30 1268 C 128.363 1.8672 -0.806679 0
M  V30 1269 C 128.718 1.80723 0.660084 0
M  V30 1270 O 128.011 1.21902 1.47819 0
M  V30 1271 C 128.205 3.3489 -1.24834 0
M  V30 1272 C 128.034 3.55313 -2.7565 0
M  V30 1273 C 126.804 3.7082 -3.4325 0
M  V30 1274 C 129.002 3.53188 -3.73848 0
M  V30 1275 N 126.984 3.7929 -4.82713 0
M  V30 1276 C 128.355 3.67765 -4.99149 0
M  V30 1277 C 130.41 3.36459 -3.67015 0
M  V30 1278 C 129.113 3.6734 -6.18428 0
M  V30 1279 C 131.139 3.37333 -4.85758 0
M  V30 1280 C 130.501 3.52438 -6.09891 0
M  V30 1281 H 126.6 0.700433 -0.347733 0
M  V30 1282 H 129.184 1.38441 -1.36902 0
M  V30 1283 H 127.355 3.81786 -0.713713 0
M  V30 1284 H 129.087 3.93875 -0.929745 0
M  V30 1285 H 125.842 3.71568 -2.93656 0
M  V30 1286 H 126.266 3.8727 -5.55294 0
M  V30 1287 H 130.908 3.237 -2.71989 0
M  V30 1288 H 128.626 3.78878 -7.13777 0
M  V30 1289 H 132.212 3.25617 -4.82146 0
M  V30 1290 H 131.092 3.53047 -7.00234 0
M  V30 1291 N 128.595 0.856903 1.32268 0
M  V30 1292 C 130.011 0.547061 1.49931 0
M  V30 1293 C 130.211 -0.921781 1.7918 0
M  V30 1294 O 129.267 -1.70469 1.8627 0
M  V30 1295 C 130.58 1.43599 2.64196 0
M  V30 1296 C 132.128 1.43665 2.78081 0
M  V30 1297 C 132.603 2.31085 3.95428 0
M  V30 1298 N 134.094 2.28893 4.02694 0
M  V30 1299 C 134.829 2.93262 4.92732 0
M  V30 1300 N 134.325 3.66751 5.87763 0
M  V30 1301 N 136.118 2.82638 4.85873 0
M  V30 1302 H 128.269 1.8075 1.11549 0
M  V30 1303 H 130.532 0.772144 0.549997 0
M  V30 1304 H 130.238 2.48058 2.49319 0
M  V30 1305 H 130.112 1.12502 3.60032 0
M  V30 1306 H 132.499 0.399701 2.92381 0
M  V30 1307 H 132.58 1.7878 1.82952 0
M  V30 1308 H 132.224 3.34849 3.81888 0
M  V30 1309 H 132.154 1.93302 4.89839 0
M  V30 1310 H 134.645 1.75466 3.34694 0
M  V30 1311 H 134.958 4.13027 6.53168 0
M  V30 1312 H 133.303 3.70859 5.87783 0
M  V30 1313 H 136.494 2.24774 4.10602 0
M  V30 1314 H 136.667 3.33084 5.55841 0
M  V30 1315 N 130.073 -1.45103 0.615059 0
M  V30 1316 C 131.313 -2.04069 0.116282 0
M  V30 1317 C 131.677 -1.4721 -1.2326 0
M  V30 1318 O 132.878 -1.97577 -1.82255 0
M  V30 1319 C 131.149 -3.57298 0.085482 0
M  V30 1320 S 132.708 -4.37394 -0.351015 0
M  V30 1321 H 129.526 -0.709006 0.0532183 0
M  V30 1322 H 132.128 -1.77709 0.81484 0
M  V30 1323 H 130.832 -3.9619 1.0706 0
M  V30 1324 H 130.363 -3.88244 -0.634835 0
M  V30 1325 H 132.378 -4.69734 -1.59889 0
M  V30 1326 N 131.551 -0.354651 -1.53558 0
M  V30 1327 C 132.828 0.294281 -1.93374 0
M  V30 1328 C 133.208 1.67313 -1.28723 0
M  V30 1329 O 132.556 2.24179 -0.442247 0
M  V30 1330 C 132.766 0.355445 -3.47185 0
M  V30 1331 C 134.114 0.601007 -4.20325 0
M  V30 1332 O 135.138 0.437106 -3.53508 0
M  V30 1333 O 133.997 0.919322 -5.38712 0
M  V30 1334 H 131.091 0.174033 -0.808481 0
M  V30 1335 H 133.637 -0.406638 -1.64756 0
M  V30 1336 H 132.409 -0.611729 -3.86489 0
M  V30 1337 H 132.032 1.1027 -3.82003 0
M  V30 1338 N 133.029 1.57378 -0.0835403 0
M  V30 1339 C 134.277 1.93547 0.581718 0
M  V30 1340 C 134.598 0.96524 1.69435 0
M  V30 1341 O 133.868 0.0153369 1.95894 0
M  V30 1342 H 132.448 0.714521 0.217874 0
M  V30 1343 H 135.11 1.94366 -0.144158 0
M  V30 1344 H 134.206 2.95665 0.999423 0
M  V30 1345 N 134.507 -0.190092 1.56449 0
M  V30 1346 C 135.439 -1.25973 1.91477 0
M  V30 1347 C 136.452 -1.41452 0.805931 0
M  V30 1348 O 137.641 -1.41789 1.08435 0
M  V30 1349 C 134.741 -2.63117 2.13594 0
M  V30 1350 C 133.914 -2.69182 3.4476 0
M  V30 1351 C 132.973 -3.87557 3.5593 0
M  V30 1352 O 131.999 -3.74427 4.28711 0
M  V30 1353 N 133.201 -5.03224 2.89388 0
M  V30 1354 H 135.966 -0.962394 2.83828 0
M  V30 1355 H 133.527 -0.379981 1.57378 0
M  V30 1356 H 135.519 -3.40742 2.1835 0
M  V30 1357 H 134.089 -2.85319 1.27719 0
M  V30 1358 H 133.309 -1.77793 3.51828 0
M  V30 1359 H 134.597 -2.70229 4.31107 0
M  V30 1360 H 133.995 -5.16791 2.30094 0
M  V30 1361 H 132.552 -5.78778 2.99764 0
M  V30 1362 N 135.985 -1.50799 -0.457987 0
M  V30 1363 C 137.231 -1.62683 -1.21088 0
M  V30 1364 C 137.564 -0.332268 -1.91336 0
M  V30 1365 O 136.839 0.667043 -1.82704 0
M  V30 1366 C 137.122 -2.81615 -2.24422 0
M  V30 1367 C 136.975 -4.20989 -1.58392 0
M  V30 1368 C 138.294 -2.96085 -3.2561 0
M  V30 1369 H 135.413 -0.592087 -0.438864 0
M  V30 1370 H 138.055 -1.83225 -0.50286 0
M  V30 1371 H 136.205 -2.64231 -2.84806 0
M  V30 1372 H 137.877 -4.49994 -1.01504 0
M  V30 1373 H 136.12 -4.24641 -0.886704 0
M  V30 1374 H 136.791 -5.0016 -2.33547 0
M  V30 1375 H 139.267 -3.12042 -2.75262 0
M  V30 1376 H 138.143 -3.80902 -3.95228 0
M  V30 1377 H 138.404 -2.0726 -3.90507 0
M  V30 1378 N 137.463 0.71206 -1.40597 0
M  V30 1379 C 138.74 1.46536 -1.29563 0
M  V30 1380 C 139.12 2.10931 0.0844217 0
M  V30 1381 O 138.468 2.00418 1.0975 0
M  V30 1382 C 138.678 2.49821 -2.43701 0
M  V30 1383 C 140.026 3.15551 -2.841 0
M  V30 1384 O 141.05 2.60142 -2.4332 0
M  V30 1385 O 139.909 4.15867 -3.54566 0
M  V30 1386 H 137.003 0.651801 -0.509004 0
M  V30 1387 H 139.549 0.743935 -1.52524 0
M  V30 1388 H 138.321 2.00778 -3.35863 0
M  V30 1389 H 137.944 3.29495 -2.22528 0
M  V30 1390 N 138.941 1.26152 0.944643 0
M  V30 1391 C 140.181 1.12708 1.70517 0
M  V30 1392 C 140.545 -0.324727 1.89234 0
M  V30 1393 O 141.746 -0.581211 2.62441 0
M  V30 1394 C 140.017 1.8713 3.04495 0
M  V30 1395 S 141.576 1.89698 3.95677 0
M  V30 1396 H 138.394 0.402665 0.585988 0
M  V30 1397 H 140.996 1.59821 1.12594 0
M  V30 1398 H 139.7 2.91833 2.88551 0
M  V30 1399 H 139.231 1.40444 3.67477 0
M  V30 1400 H 141.246 0.981198 4.86402 0
M  V30 1401 N 140.419 -1.14872 1.07899 0
M  V30 1402 C 141.696 -1.81928 0.71845 0
M  V30 1403 C 142.076 -1.95417 -0.798455 0
M  V30 1404 O 141.424 -1.50997 -1.715 0
M  V30 1405 C 141.634 -3.17937 1.43935 0
M  V30 1406 C 142.982 -3.93501 1.59506 0
M  V30 1407 O 144.006 -3.27509 1.40058 0
M  V30 1408 O 142.865 -5.1183 1.91551 0
M  V30 1409 H 139.959 -0.78628 0.256305 0
M  V30 1410 H 142.505 -1.21934 1.18026 0
M  V30 1411 H 141.277 -3.0325 2.47295 0
M  V30 1412 H 140.9 -3.85619 0.968687 0
M  V30 1413 N 141.898 -0.863906 -1.31812 0
M  V30 1414 C 142.846 -0.30422 -2.30602 0
M  V30 1415 C 143.84 0.577419 -1.59255 0
M  V30 1416 O 145.046 0.464194 -1.73912 0
M  V30 1417 H 141.421 -0.0796877 -0.747766 0
M  V30 1418 H 143.392 -1.15148 -2.75288 0
M  V30 1419 C 142.141 0.484617 -3.44306 0
M  V30 1420 H 141.464 -0.18451 -3.99374 0
M  V30 1421 H 142.904 0.841664 -4.15562 0
M  V30 1422 C 141.363 1.6735 -2.92396 0
M  V30 1423 O 141.893 2.77273 -2.90659 0
M  V30 1424 N 140.099 1.50362 -2.48676 0
M  V30 1425 H 139.646 0.609402 -2.50288 0
M  V30 1426 H 139.604 2.30051 -2.14299 0
M  V30 1427 N 143.376 1.44774 -0.622745 0
M  V30 1428 C 144.624 2.01721 -0.123655 0
M  V30 1429 C 144.945 1.49172 1.25589 0
M  V30 1430 O 144.215 0.691974 1.83272 0
M  V30 1431 H 142.795 0.745777 -0.0427225 0
M  V30 1432 H 145.457 1.77382 -0.807559 0
M  V30 1433 H 144.553 3.11984 -0.0849534 0
M  V30 1434 N 144.854 0.36279 1.53368 0
M  V30 1435 C 146.079 -0.231226 2.06107 0
M  V30 1436 C 146.504 -1.419 1.23474 0
M  V30 1437 O 145.862 -1.79524 0.253128 0
M  V30 1438 C 145.91 -0.605523 3.5548 0
M  V30 1439 O 145.014 -1.70312 3.7559 0
M  V30 1440 H 144.355 -0.034327 0.663112 0
M  V30 1441 H 146.885 0.522584 1.97814 0
M  V30 1442 H 146.895 -0.877314 3.98456 0
M  V30 1443 H 145.57 0.263004 4.15068 0
M  V30 1444 H 144.147 -1.4271 3.44512 0
M  V30 1445 N 146.332 -1.57332 0.0918853 0
M  V30 1446 C 147.609 -1.85691 -0.614668 0
M  V30 1447 C 147.989 -0.988146 -1.86545 0
M  V30 1448 O 147.337 -0.0597055 -2.28422 0
M  V30 1449 C 147.547 -3.36294 -0.933126 0
M  V30 1450 C 148.895 -4.04275 -1.29796 0
M  V30 1451 O 149.919 -3.41157 -1.02424 0
M  V30 1452 O 148.778 -5.1564 -1.81047 0
M  V30 1453 H 145.872 -0.767802 -0.307261 0
M  V30 1454 H 148.418 -1.69244 0.12434 0
M  V30 1455 H 147.19 -3.91273 -0.0456404 0
M  V30 1456 H 146.813 -3.58076 -1.72822 0
M  V30 1457 N 147.81 0.181792 -1.56548 0
M  V30 1458 C 148.72 1.24538 -1.98815 0
M  V30 1459 C 149.736 1.49045 -0.897861 0
M  V30 1460 O 150.912 1.61399 -1.20467 0
M  V30 1461 C 147.977 2.56683 -2.33055 0
M  V30 1462 C 147.038 2.40131 -3.55859 0
M  V30 1463 C 146.271 3.65975 -3.88456 0
M  V30 1464 O 146.494 4.70711 -3.22161 0
M  V30 1465 O 145.428 3.6071 -4.81842 0
M  V30 1466 H 149.254 0.916647 -2.89536 0
M  V30 1467 H 146.839 0.387842 -1.44278 0
M  V30 1468 H 148.721 3.34655 -2.56094 0
M  V30 1469 H 147.396 2.89157 -1.45498 0
M  V30 1470 H 146.303 1.60226 -3.38051 0
M  V30 1471 H 147.636 2.12585 -4.43924 0
M  V30 1472 N 149.288 1.51039 0.449983 0
M  V30 1473 C 150.22 1.67617 1.56324 0
M  V30 1474 C 151.233 0.557083 1.52972 0
M  V30 1475 O 152.422 0.830989 1.57977 0
M  V30 1476 C 149.522 1.66402 2.95235 0
M  V30 1477 C 148.695 2.9469 3.23229 0
M  V30 1478 C 147.754 2.85832 4.41799 0
M  V30 1479 O 146.78 3.59785 4.41071 0
M  V30 1480 N 147.982 2.00821 5.44657 0
M  V30 1481 H 150.747 2.63648 1.42512 0
M  V30 1482 H 148.308 1.48767 0.638737 0
M  V30 1483 H 150.3 1.58062 3.72557 0
M  V30 1484 H 148.87 0.780182 3.02708 0
M  V30 1485 H 148.09 3.16996 2.34323 0
M  V30 1486 H 149.378 3.79636 3.38754 0
M  V30 1487 H 148.776 1.40091 5.48079 0
M  V30 1488 H 147.333 1.98368 6.20881 0
M  V30 1489 N 150.766 -0.704594 1.40972 0
M  V30 1490 C 152.014 -1.46169 1.39568 0
M  V30 1491 C 152.335 -1.95 0.00253745 0
M  V30 1492 O 151.605 -1.71095 -0.954114 0
M  V30 1493 H 150.185 -0.542326 0.513704 0
M  V30 1494 H 152.847 -0.834553 1.76128 0
M  V30 1495 H 151.943 -2.32922 2.07735 0
M  V30 1496 N 152.244 -1.26651 -0.937939 0
M  V30 1497 C 153.484 -1.13611 -1.69917 0
M  V30 1498 C 153.848 0.314687 -1.89404 0
M  V30 1499 O 155.049 0.567285 -2.62746 0
M  V30 1500 C 153.32 -1.88742 -3.03498 0
M  V30 1501 S 154.879 -1.91794 -3.94665 0
M  V30 1502 H 151.697 -0.405767 -0.583844 0
M  V30 1503 H 154.299 -1.60416 -1.11745 0
M  V30 1504 H 153.003 -2.9336 -2.86999 0
M  V30 1505 H 152.534 -1.42391 -3.66727 0
M  V30 1506 H 154.549 -1.00698 -4.85875 0
M  V30 1507 N 153.722 1.14298 -1.08507 0
M  V30 1508 C 155.133 1.66926 -0.836227 0
M  V30 1509 C 155.484 1.85576 0.63686 0
M  V30 1510 O 154.609 1.56767 1.49175 0
M  V30 1511 C 155.204 3.03219 -1.51142 0
M  V30 1512 C 153.763 3.52876 -1.30979 0
M  V30 1513 C 152.91 2.2833 -1.57356 0
M  V30 1514 H 155.861 0.983491 -1.24552 0
M  V30 1515 H 155.882 3.68726 -0.939211 0
M  V30 1516 H 155.394 2.89612 -2.58353 0
M  V30 1517 H 153.495 3.71703 -0.258429 0
M  V30 1518 H 153.608 4.33586 -2.03814 0
M  V30 1519 H 151.972 2.34454 -0.995164 0
M  V30 1520 H 152.755 2.17298 -2.65775 0
M  V30 1521 N 155.201 0.870884 1.31352 0
M  V30 1522 C 156.612 0.534714 1.78879 0
M  V30 1523 C 156.963 -0.948423 1.71754 0
M  V30 1524 O 156.088 -1.74055 1.28584 0
M  V30 1525 C 156.683 0.963839 3.24801 0
M  V30 1526 C 155.242 0.679311 3.70219 0
M  V30 1527 C 154.389 1.15465 2.52117 0
M  V30 1528 H 157.34 1.05651 1.18421 0
M  V30 1529 H 157.361 0.286892 3.79417 0
M  V30 1530 H 156.873 2.04332 3.29955 0
M  V30 1531 H 154.974 -0.388769 3.70566 0
M  V30 1532 H 155.087 1.25698 4.62317 0
M  V30 1533 H 153.451 0.574383 2.48139 0
M  V30 1534 H 154.234 2.24157 2.60016 0
M  V30 1535 N 156.679 -1.44442 0.630414 0
M  V30 1536 C 157.626 -2.30678 -0.0749355 0
M  V30 1537 C 158.596 -1.4344 -0.837502 0
M  V30 1538 O 159.781 -1.72343 -0.818684 0
M  V30 1539 C 156.921 -3.28706 -1.05103 0
M  V30 1540 C 156.034 -4.31046 -0.286954 0
M  V30 1541 C 155.169 -5.16167 -1.2548 0
M  V30 1542 C 154.208 -6.10216 -0.479843 0
M  V30 1543 N 153.345 -6.88039 -1.39811 0
M  V30 1544 H 158.185 -2.90454 0.666386 0
M  V30 1545 H 155.722 -1.43107 0.340404 0
M  V30 1546 H 157.68 -3.84027 -1.63031 0
M  V30 1547 H 156.31 -2.70632 -1.75949 0
M  V30 1548 H 155.362 -3.78203 0.408243 0
M  V30 1549 H 156.674 -4.97794 0.316657 0
M  V30 1550 H 155.828 -5.76002 -1.90544 0
M  V30 1551 H 154.567 -4.49491 -1.89233 0
M  V30 1552 H 153.572 -5.49491 0.184295 0
M  V30 1553 H 154.797 -6.78928 0.152965 0
M  V30 1554 H 152.743 -6.24032 -2.02287 0
M  V30 1555 H 152.66 -7.51223 -0.848508 0
M  V30 1556 H 153.928 -7.52397 -2.03762 0
M  V30 1557 N 158.157 -0.370918 -1.53173 0
M  V30 1558 C 159.385 0.217704 -2.05751 0
M  V30 1559 C 159.8 1.42018 -1.24404 0
M  V30 1560 O 159.157 1.80245 -0.286033 0
M  V30 1561 C 159.208 0.605954 -3.56385 0
M  V30 1562 O 158.929 -0.548734 -4.3465 0
M  V30 1563 C 160.43 1.2524 -4.25241 0
M  V30 1564 H 157.65 0.0371659 -0.66997 0
M  V30 1565 H 160.194 -0.530832 -1.9749 0
M  V30 1566 H 158.349 1.3044 -3.6478 0
M  V30 1567 H 158.763 -0.23376 -5.23979 0
M  V30 1568 H 160.237 1.47458 -5.3194 0
M  V30 1569 H 160.714 2.2143 -3.79296 0
M  V30 1570 H 161.32 0.595233 -4.21114 0
M  V30 1571 N 159.635 1.57281 -0.100228 0
M  V30 1572 C 160.875 1.96419 0.56558 0
M  V30 1573 C 161.239 0.981265 1.65031 0
M  V30 1574 O 162.44 1.26133 2.37369 0
M  V30 1575 C 160.711 3.39996 1.10171 0
M  V30 1576 S 162.27 4.01134 1.77867 0
M  V30 1577 H 159.088 0.68667 0.184406 0
M  V30 1578 H 161.69 1.94662 -0.180851 0
M  V30 1579 H 160.394 4.09296 0.300803 0
M  V30 1580 H 159.925 3.45361 1.88385 0
M  V30 1581 H 161.94 3.90358 3.06326 0
M  V30 1582 N 161.113 -0.173488 1.56642 0
M  V30 1583 C 162.338 -0.910149 1.86363 0
M  V30 1584 C 162.763 -1.75132 0.686318 0
M  V30 1585 O 162.121 -1.77595 -0.364643 0
M  V30 1586 C 162.169 -1.76447 3.14482 0
M  V30 1587 O 161.273 -2.86584 2.96553 0
M  V30 1588 H 160.614 -0.255086 0.613047 0
M  V30 1589 H 163.144 -0.172283 2.03873 0
M  V30 1590 H 163.154 -2.16483 3.45831 0
M  V30 1591 H 161.829 -1.14658 3.99783 0
M  V30 1592 H 160.406 -2.50146 2.76553 0
M  V30 1593 N 162.591 -1.51276 -0.441967 0
M  V30 1594 C 163.523 -1.68444 -1.55433 0
M  V30 1595 C 164.536 -0.565187 -1.52674 0
M  V30 1596 O 165.725 -0.839356 -1.57534 0
M  V30 1597 C 162.825 -1.67966 -2.94348 0
M  V30 1598 C 161.998 -2.964 -3.21661 0
M  V30 1599 C 161.057 -2.88171 -4.40277 0
M  V30 1600 O 160.083 -3.62119 -4.39157 0
M  V30 1601 N 161.285 -2.03706 -5.43584 0
M  V30 1602 H 164.05 -2.644 -1.41112 0
M  V30 1603 H 161.611 -1.49104 -0.630838 0
M  V30 1604 H 163.603 -1.60035 -3.71713 0
M  V30 1605 H 162.173 -0.796225 -3.0229 0
M  V30 1606 H 161.393 -3.18234 -2.32638 0
M  V30 1607 H 162.681 -3.81427 -3.36736 0
M  V30 1608 H 162.079 -1.42995 -5.47329 0
M  V30 1609 H 160.636 -2.01658 -6.1982 0
M  V30 1610 N 164.069 0.697108 -1.41344 0
M  V30 1611 C 165.346 1.45154 -1.31109 0
M  V30 1612 C 165.726 2.11009 0.0620449 0
M  V30 1613 O 165.074 2.01571 1.07618 0
M  V30 1614 C 165.284 2.47223 -2.46337 0
M  V30 1615 C 166.632 3.1252 -2.87431 0
M  V30 1616 O 167.656 2.57547 -2.46065 0
M  V30 1617 O 166.515 4.12083 -3.58957 0
M  V30 1618 H 163.609 0.646365 -0.515889 0
M  V30 1619 H 166.155 0.727716 -1.53305 0
M  V30 1620 H 164.927 1.97204 -3.37974 0
M  V30 1621 H 164.55 3.27116 -2.2601 0
M  V30 1622 N 165.547 1.27147 0.931209 0
M  V30 1623 C 166.457 1.11372 2.06478 0
M  V30 1624 C 167.473 0.044645 1.73943 0
M  V30 1625 O 168.649 0.250417 1.99837 0
M  V30 1626 C 165.714 0.758838 3.38294 0
M  V30 1627 C 164.775 1.90841 3.84549 0
M  V30 1628 C 164.008 1.57036 5.10074 0
M  V30 1629 O 164.231 0.476645 5.68405 0
M  V30 1630 O 163.165 2.40839 5.51616 0
M  V30 1631 H 166.991 2.06493 2.22698 0
M  V30 1632 H 164.576 1.06301 1.04978 0
M  V30 1633 H 166.458 0.574098 4.17471 0
M  V30 1634 H 165.133 -0.162879 3.2329 0
M  V30 1635 H 164.04 2.14819 3.06274 0
M  V30 1636 H 165.373 2.81021 4.04089 0
M  V30 1637 N 167.025 -1.13721 1.09112 0
M  V30 1638 C 168.272 -1.84924 0.825192 0
M  V30 1639 C 168.6 -1.83347 -0.649151 0
M  V30 1640 O 167.855 -1.26449 -1.49362 0
M  V30 1641 C 168.154 -3.32861 1.30146 0
M  V30 1642 C 167.82 -3.54621 2.78486 0
M  V30 1643 C 166.482 -3.60268 3.18999 0
M  V30 1644 C 168.834 -3.62855 3.74146 0
M  V30 1645 C 166.162 -3.71679 4.53951 0
M  V30 1646 C 168.514 -3.75793 5.08883 0
M  V30 1647 C 167.178 -3.79692 5.4899 0
M  V30 1648 H 166.448 -0.676684 0.301959 0
M  V30 1649 H 169.095 -1.3428 1.36533 0
M  V30 1650 H 167.4 -3.85835 0.681064 0
M  V30 1651 H 169.097 -3.86395 1.07236 0
M  V30 1652 H 165.687 -3.50879 2.46134 0
M  V30 1653 H 169.871 -3.57775 3.43963 0
M  V30 1654 H 165.127 -3.72963 4.84467 0
M  V30 1655 H 169.301 -3.81107 5.82864 0
M  V30 1656 H 166.928 -3.88287 6.53558 0
M  V30 1657 N 168.503 -0.877838 -1.30888 0
M  V30 1658 C 169.919 -0.570844 -1.49042 0
M  V30 1659 C 170.119 0.893159 -1.80624 0
M  V30 1660 O 169.175 1.67485 -1.88958 0
M  V30 1661 C 170.488 -1.47784 -2.61878 0
M  V30 1662 C 172.036 -1.48071 -2.75761 0
M  V30 1663 C 172.511 -2.37347 -3.91702 0
M  V30 1664 N 174.002 -2.35271 -3.99001 0
M  V30 1665 C 174.737 -3.01063 -4.88004 0
M  V30 1666 N 174.233 -3.76055 -5.81854 0
M  V30 1667 N 176.026 -2.90332 -4.81315 0
M  V30 1668 H 168.177 -1.82502 -1.0866 0
M  V30 1669 H 170.44 -0.780797 -0.537644 0
M  V30 1670 H 170.146 -2.51993 -2.45341 0
M  V30 1671 H 170.02 -1.18215 -3.58197 0
M  V30 1672 H 172.407 -0.446166 -2.91708 0
M  V30 1673 H 172.488 -1.81668 -1.80085 0
M  V30 1674 H 172.132 -3.40883 -3.76512 0
M  V30 1675 H 172.062 -2.01071 -4.86701 0
M  V30 1676 H 174.553 -1.80768 -3.3186 0
M  V30 1677 H 174.866 -4.23366 -6.46514 0
M  V30 1678 H 173.211 -3.80163 -5.81808 0
M  V30 1679 H 176.402 -2.31278 -4.06974 0
M  V30 1680 H 176.575 -3.41885 -5.50471 0
M  V30 1681 N 169.982 1.44106 -0.638065 0
M  V30 1682 C 171.222 2.03858 -0.148733 0
M  V30 1683 C 171.586 1.49153 1.20903 0
M  V30 1684 O 172.787 2.00452 1.79088 0
M  V30 1685 C 171.058 3.57117 -0.142314 0
M  V30 1686 S 172.617 4.37897 0.281385 0
M  V30 1687 H 169.435 0.708069 -0.0644912 0
M  V30 1688 H 172.037 1.7639 -0.843009 0
M  V30 1689 H 170.741 3.94436 -1.13349 0
M  V30 1690 H 170.272 3.89205 0.572988 0
M  V30 1691 H 172.287 4.72218 1.52395 0
M  V30 1692 N 171.46 0.379036 1.52974 0
M  V30 1693 C 172.41 -0.477772 2.22938 0
M  V30 1694 C 173.394 -1.03792 1.22948 0
M  V30 1695 O 174.586 -0.965725 1.48333 0
M  V30 1696 C 171.715 -1.60994 3.03209 0
M  V30 1697 C 170.801 -1.06203 4.10587 0
M  V30 1698 N 171.192 -0.238214 5.05239 0
M  V30 1699 C 169.49 -1.33554 4.25534 0
M  V30 1700 C 170.191 0.0633235 5.81666 0
M  V30 1701 N 169.167 -0.537901 5.40932 0
M  V30 1702 H 172.969 0.158295 2.93473 0
M  V30 1703 H 170.483 0.187778 1.61311 0
M  V30 1704 H 172.48 -2.23607 3.5186 0
M  V30 1705 H 171.14 -2.24893 2.34207 0
M  V30 1706 H 172.151 0.123695 5.17752 0
M  V30 1707 H 168.828 -1.97632 3.6776 0
M  V30 1708 H 170.218 0.730161 6.67921 0
M  V30 1709 N 172.938 -1.57226 0.108567 0
M  V30 1710 C 174.215 -1.86333 -0.594939 0
M  V30 1711 C 174.595 -1.00788 -1.85486 0
M  V30 1712 O 173.943 -0.0839293 -2.28346 0
M  V30 1713 C 174.153 -3.37265 -0.897405 0
M  V30 1714 C 175.501 -4.05629 -1.25501 0
M  V30 1715 O 176.525 -3.42224 -0.987998 0
M  V30 1716 O 175.384 -5.17531 -1.75567 0
M  V30 1717 H 172.478 -0.771018 -0.2991 0
M  V30 1718 H 175.024 -1.69102 0.142283 0
M  V30 1719 H 173.796 -3.913 -0.00413806 0
M  V30 1720 H 173.419 -3.59889 -1.69014 0
M  V30 1721 N 174.416 0.165178 -1.56732 0
M  V30 1722 C 175.664 0.879068 -1.8198 0
M  V30 1723 C 175.985 1.82514 -0.686561 0
M  V30 1724 O 175.255 1.93694 0.293146 0
M  V30 1725 H 173.835 0.327608 -0.671329 0
M  V30 1726 H 176.497 0.163526 -1.94213 0
M  V30 1727 H 175.593 1.45228 -2.76252 0
M  V30 1728 N 175.894 1.51508 0.433938 0
M  V30 1729 C 176.841 1.73068 1.52696 0
M  V30 1730 C 177.811 0.572441 1.55924 0
M  V30 1731 O 178.996 0.807253 1.72882 0
M  V30 1732 C 176.136 1.86474 2.90381 0
M  V30 1733 C 175.249 3.14037 2.96656 0
M  V30 1734 C 174.384 3.18019 4.25485 0
M  V30 1735 C 173.423 4.39882 4.2564 0
M  V30 1736 N 172.56 4.41394 5.45999 0
M  V30 1737 H 177.4 2.66366 1.33615 0
M  V30 1738 H 174.937 1.32008 0.649018 0
M  V30 1739 H 176.895 1.92229 3.70275 0
M  V30 1740 H 175.525 0.965809 3.08013 0
M  V30 1741 H 174.577 3.17575 2.09404 0
M  V30 1742 H 175.889 4.0394 2.92633 0
M  V30 1743 H 175.043 3.22708 5.13755 0
M  V30 1744 H 173.782 2.2601 4.3217 0
M  V30 1745 H 172.787 4.35366 3.35763 0
M  V30 1746 H 174.012 5.33159 4.20617 0
M  V30 1747 H 171.958 3.52258 5.53399 0
M  V30 1748 H 171.875 5.25111 5.4387 0
M  V30 1749 H 173.143 4.50281 6.36292 0
M  V30 1750 N 177.372 -0.689602 1.41712 0
M  V30 1751 C 178.612 -1.46184 1.42862 0
M  V30 1752 C 178.976 -1.91962 0.0382204 0
M  V30 1753 O 180.177 -2.68694 -0.0755019 0
M  V30 1754 C 178.448 -2.6371 2.4123 0
M  V30 1755 S 180.007 -3.52768 2.6096 0
M  V30 1756 H 176.825 -0.49947 0.506015 0
M  V30 1757 H 179.427 -0.804107 1.78198 0
M  V30 1758 H 178.131 -2.28293 3.41044 0
M  V30 1759 H 177.662 -3.3437 2.07269 0
M  V30 1760 H 179.677 -4.59146 1.88148 0
M  V30 1761 N 178.85 -1.27639 -0.924453 0
M  V30 1762 C 180.099 -1.13549 -1.66702 0
M  V30 1763 C 180.412 0.317487 -1.93006 0
M  V30 1764 O 181.618 0.579333 -2.65247 0
M  V30 1765 C 180.074 -1.98426 -3.00259 0
M  V30 1766 C 179.682 -3.484 -2.81641 0
M  V30 1767 C 181.426 -1.92993 -3.78092 0
M  V30 1768 C 179.333 -4.25464 -4.10773 0
M  V30 1769 H 178.263 -0.421351 -0.625283 0
M  V30 1770 H 180.914 -1.52085 -1.02676 0
M  V30 1771 H 179.296 -1.52736 -3.6536 0
M  V30 1772 H 180.47 -4.01973 -2.25287 0
M  V30 1773 H 178.785 -3.55245 -2.17232 0
M  V30 1774 H 181.382 -2.47844 -4.7379 0
M  V30 1775 H 181.725 -0.904281 -4.0636 0
M  V30 1776 H 182.258 -2.36595 -3.19793 0
M  V30 1777 H 178.997 -5.28566 -3.87683 0
M  V30 1778 H 178.517 -3.76667 -4.66779 0
M  V30 1779 H 180.196 -4.34812 -4.79111 0
M  V30 1780 N 180.328 1.1314 -1.09713 0
M  V30 1781 C 181.553 1.88862 -0.857081 0
M  V30 1782 C 181.978 1.78729 0.586304 0
M  V30 1783 O 181.336 1.13692 1.41222 0
M  V30 1784 C 181.384 3.36325 -1.30069 0
M  V30 1785 O 180.488 4.09815 -0.461007 0
M  V30 1786 H 179.829 0.587108 -0.310162 0
M  V30 1787 H 182.359 1.43129 -1.46203 0
M  V30 1788 H 182.369 3.87157 -1.28738 0
M  V30 1789 H 181.044 3.43017 -2.35185 0
M  V30 1790 H 179.621 3.68986 -0.538888 0
M  V30 1791 N 181.806 0.884767 1.30421 0
M  V30 1792 C 183.222 0.57874 1.48737 0
M  V30 1793 C 183.422 -0.883567 1.81095 0
M  V30 1794 O 182.478 -1.6648 1.89844 0
M  V30 1795 C 183.791 1.49171 2.61091 0
M  V30 1796 C 185.339 1.49532 2.74971 0
M  V30 1797 C 185.814 2.39421 3.90438 0
M  V30 1798 N 187.305 2.37383 3.97748 0
M  V30 1799 C 188.04 3.03647 4.86401 0
M  V30 1800 N 187.536 3.79136 5.79852 0
M  V30 1801 N 189.329 2.9288 4.79768 0
M  V30 1802 H 181.48 1.83075 1.0769 0
M  V30 1803 H 183.743 0.783637 0.533495 0
M  V30 1804 H 183.449 2.53291 2.44001 0
M  V30 1805 H 183.323 1.20113 3.57565 0
M  V30 1806 H 185.71 0.46163 2.91467 0
M  V30 1807 H 185.791 1.8262 1.79119 0
M  V30 1808 H 185.435 3.42874 3.74699 0
M  V30 1809 H 185.365 2.03649 4.85628 0
M  V30 1810 H 187.856 1.82525 3.30897 0
M  V30 1811 H 188.169 4.26789 6.4426 0
M  V30 1812 H 186.514 3.83243 5.79784 0
M  V30 1813 H 189.705 2.33433 4.05742 0
M  V30 1814 H 189.878 3.448 5.4865 0
M  V30 1815 N 183.284 -1.43765 0.645699 0
M  V30 1816 C 184.216 -2.29027 -0.0890605 0
M  V30 1817 C 185.229 -1.42093 -0.794563 0
M  V30 1818 O 186.418 -1.66104 -0.653575 0
M  V30 1819 C 183.518 -3.18831 -1.14891 0
M  V30 1820 C 182.691 -4.34261 -0.523043 0
M  V30 1821 C 181.75 -5.04994 -1.47878 0
M  V30 1822 O 180.776 -5.6052 -0.990277 0
M  V30 1823 N 181.978 -5.07795 -2.81291 0
M  V30 1824 H 184.743 -2.92727 0.64272 0
M  V30 1825 H 182.304 -1.54373 0.487924 0
M  V30 1826 H 184.296 -3.63015 -1.78892 0
M  V30 1827 H 182.866 -2.56782 -1.78275 0
M  V30 1828 H 182.086 -3.93088 0.295896 0
M  V30 1829 H 183.374 -5.08728 -0.0858147 0
M  V30 1830 H 182.772 -4.64042 -3.23546 0
M  V30 1831 H 181.329 -5.55721 -3.40614 0
M  V30 1832 N 184.763 -0.387143 -1.52771 0
M  V30 1833 C 186.01 0.195735 -2.01552 0
M  V30 1834 C 186.338 1.46995 -1.27369 0
M  V30 1835 O 185.593 1.92325 -0.361879 0
M  V30 1836 C 185.892 0.512209 -3.53711 0
M  V30 1837 C 185.558 -0.670202 -4.45891 0
M  V30 1838 C 184.22 -0.994586 -4.70809 0
M  V30 1839 C 186.572 -1.46134 -5.00294 0
M  V30 1840 C 183.9 -2.11169 -5.4738 0
M  V30 1841 C 186.252 -2.56903 -5.78086 0
M  V30 1842 C 184.916 -2.89852 -6.01284 0
M  V30 1843 H 184.186 0.0716246 -0.73753 0
M  V30 1844 H 186.833 -0.524046 -1.8419 0
M  V30 1845 H 185.138 1.31329 -3.69134 0
M  V30 1846 H 186.835 0.975804 -3.88946 0
M  V30 1847 H 183.425 -0.407366 -4.2666 0
M  V30 1848 H 187.609 -1.22397 -4.80971 0
M  V30 1849 H 182.865 -2.3707 -5.63567 0
M  V30 1850 H 187.039 -3.18608 -6.19243 0
M  V30 1851 H 184.666 -3.76533 -6.60399 0
M  V30 1852 N 186.241 1.57166 -0.116904 0
M  V30 1853 C 187.487 1.95412 0.542405 0
M  V30 1854 C 187.82 1.00019 1.66463 0
M  V30 1855 O 187.095 0.0370346 1.94465 0
M  V30 1856 C 187.378 3.43615 1.07708 0
M  V30 1857 C 187.231 4.49781 -0.0415868 0
M  V30 1858 C 188.55 3.93616 1.96861 0
M  V30 1859 H 185.669 0.710543 0.195696 0
M  V30 1860 H 188.311 1.89027 -0.192038 0
M  V30 1861 H 186.461 3.49187 1.70296 0
M  V30 1862 H 188.133 4.56308 -0.676793 0
M  V30 1863 H 186.376 4.28033 -0.705019 0
M  V30 1864 H 187.047 5.50733 0.373717 0
M  V30 1865 H 189.523 3.90335 1.44146 0
M  V30 1866 H 188.399 4.97838 2.3119 0
M  V30 1867 H 188.66 3.34188 2.89432 0
M  V30 1868 N 187.719 -0.156864 1.56817 0
M  V30 1869 C 188.959 -0.877453 1.84608 0
M  V30 1870 C 189.323 -1.78791 0.699845 0
M  V30 1871 O 190.524 -2.5472 0.858553 0
M  V30 1872 C 188.795 -1.63992 3.17555 0
M  V30 1873 S 190.354 -2.40729 3.66872 0
M  V30 1874 H 187.172 -0.293612 0.647544 0
M  V30 1875 H 189.774 -0.138099 1.95012 0
M  V30 1876 H 188.478 -0.962363 3.98957 0
M  V30 1877 H 188.009 -2.42038 3.10131 0
M  V30 1878 H 190.024 -3.65725 3.3535 0
M  V30 1879 N 189.197 -1.51736 -0.425897 0
M  V30 1880 C 190.474 -1.55519 -1.1863 0
M  V30 1881 C 190.854 -0.326219 -2.08564 0
M  V30 1882 O 190.202 0.688012 -2.17896 0
M  V30 1883 C 190.412 -2.87521 -1.9782 0
M  V30 1884 C 191.76 -3.39899 -2.54468 0
M  V30 1885 O 192.784 -2.89148 -2.08019 0
M  V30 1886 O 191.643 -4.2848 -3.39215 0
M  V30 1887 H 188.737 -0.625739 -0.540721 0
M  V30 1888 H 191.283 -1.64055 -0.434038 0
M  V30 1889 H 190.055 -3.68422 -1.31836 0
M  V30 1890 H 189.678 -2.822 -2.80088 0
M  V30 1891 N 190.675 0.682077 -1.42076 0
M  V30 1892 C 191.9 1.47558 -1.45744 0
M  V30 1893 C 192.325 1.87977 -0.0680981 0
M  V30 1894 O 191.683 1.55522 0.9318 0
M  V30 1895 C 191.731 2.70575 -2.38373 0
M  V30 1896 O 190.835 3.68573 -1.85007 0
M  V30 1897 H 190.176 0.443585 -0.494093 0
M  V30 1898 H 192.706 0.837238 -1.86686 0
M  V30 1899 H 192.716 3.18729 -2.54707 0
M  V30 1900 H 191.391 2.40495 -3.39315 0
M  V30 1901 H 189.968 3.2757 -1.78192 0
M  V30 1902 N 192.153 1.28127 0.917671 0
M  V30 1903 C 193.43 1.05761 1.64542 0
M  V30 1904 C 193.81 -0.404344 2.07191 0
M  V30 1905 O 193.158 -1.38963 1.81388 0
M  V30 1906 C 193.368 2.02857 2.83989 0
M  V30 1907 C 194.716 2.32786 3.551 0
M  V30 1908 O 195.74 2.0091 2.94132 0
M  V30 1909 O 194.599 2.87169 4.64969 0
M  V30 1910 H 191.693 0.403916 0.721652 0
M  V30 1911 H 194.239 1.39431 0.967322 0
M  V30 1912 H 193.011 3.01407 2.49538 0
M  V30 1913 H 192.634 1.69809 3.59514 0
M  V30 1914 N 193.631 -1.12557 1.10312 0
M  V30 1915 C 195.047 -1.36036 0.834649 0
M  V30 1916 C 195.247 -1.93946 -0.546539 0
M  V30 1917 O 194.303 -2.16484 -1.29966 0
M  V30 1918 C 195.616 -2.30312 1.9333 0
M  V30 1919 C 197.164 -2.43906 1.9616 0
M  V30 1920 C 197.639 -3.41496 3.05195 0
M  V30 1921 N 199.13 -3.49053 3.04494 0
M  V30 1922 C 199.865 -4.24471 3.85502 0
M  V30 1923 N 199.361 -5.02966 4.76442 0
M  V30 1924 N 201.154 -4.19864 3.73725 0
M  V30 1925 H 193.305 -0.733246 1.99342 0
M  V30 1926 H 195.568 -0.385234 0.866198 0
M  V30 1927 H 195.274 -1.94933 2.92735 0
M  V30 1928 H 195.148 -3.30421 1.81939 0
M  V30 1929 H 197.535 -2.78567 0.973886 0
M  V30 1930 H 197.616 -1.4369 2.11629 0
M  V30 1931 H 197.26 -3.07565 4.04186 0
M  V30 1932 H 197.19 -4.41539 2.86968 0
M  V30 1933 H 199.681 -2.93053 2.38596 0
M  V30 1934 H 199.994 -5.57846 5.34815 0
M  V30 1935 H 198.339 -5.02167 4.80472 0
M  V30 1936 H 201.53 -3.57623 3.02032 0
M  V30 1937 H 201.703 -4.78386 4.37093 0
M  V30 1938 N 195.109 -0.891671 -1.2995 0
M  V30 1939 C 196.386 -0.433307 -1.9074 0
M  V30 1940 C 196.766 1.08646 -1.80995 0
M  V30 1941 O 196.114 1.92476 -1.23147 0
M  V30 1942 C 196.324 -0.938895 -3.36134 0
M  V30 1943 C 197.672 -0.977829 -4.13187 0
M  V30 1944 O 198.696 -0.886015 -3.45005 0
M  V30 1945 O 197.555 -1.11453 -5.35015 0
M  V30 1946 H 194.649 -0.133699 -0.816121 0
M  V30 1947 H 197.195 -0.981011 -1.38471 0
M  V30 1948 H 195.967 -1.98281 -3.37343 0
M  V30 1949 H 195.59 -0.37074 -3.95868 0
M  V30 1950 N 196.587 1.43421 -0.653314 0
M  V30 1951 C 197.827 2.03689 -0.170346 0
M  V30 1952 C 198.191 1.50427 1.19314 0
M  V30 1953 O 199.392 2.0234 1.76952 0
M  V30 1954 C 197.663 3.56946 -0.180183 0
M  V30 1955 S 199.222 4.38171 0.234925 0
M  V30 1956 H 196.04 0.707345 -0.0719976 0
M  V30 1957 H 198.642 1.75486 -0.86167 0
M  V30 1958 H 197.346 3.93212 -1.17526 0
M  V30 1959 H 196.877 3.89791 0.531675 0
M  V30 1960 H 198.892 4.73808 1.47378 0
M  V30 1961 N 198.065 0.39524 1.52563 0
M  V30 1962 C 198.995 -0.428384 2.29537 0
M  V30 1963 C 199.976 -1.05831 1.33169 0
M  V30 1964 O 201.161 -1.06995 1.62067 0
M  V30 1965 C 198.291 -1.55274 3.10656 0
M  V30 1966 C 197.245 -1.04855 4.14957 0
M  V30 1967 C 196.571 -2.26543 4.84337 0
M  V30 1968 C 197.871 -0.112324 5.22179 0
M  V30 1969 H 199.565 0.213867 2.98635 0
M  V30 1970 H 197.111 0.104298 1.43622 0
M  V30 1971 H 199.064 -2.1358 3.63265 0
M  V30 1972 H 197.788 -2.22266 2.39302 0
M  V30 1973 H 196.447 -0.487985 3.63338 0
M  V30 1974 H 196.095 -2.92059 4.09525 0
M  V30 1975 H 195.795 -1.93466 5.54837 0
M  V30 1976 H 197.319 -2.85481 5.39753 0
M  V30 1977 H 198.733 -0.603752 5.70112 0
M  V30 1978 H 197.13 0.128968 5.99961 0
M  V30 1979 H 198.2 0.837052 4.77621 0
M  V30 1980 N 199.544 -1.57102 0.125237 0
M  V30 1981 C 200.821 -1.86953 -0.575142 0
M  V30 1982 C 201.201 -1.02749 -1.84407 0
M  V30 1983 O 200.549 -0.108144 -2.28244 0
M  V30 1984 C 200.759 -3.38198 -0.861583 0
M  V30 1985 C 202.107 -4.06937 -1.21192 0
M  V30 1986 O 203.131 -3.43252 -0.951645 0
M  V30 1987 O 201.99 -5.19364 -1.70068 0
M  V30 1988 H 199.084 -0.774147 -0.290906 0
M  V30 1989 H 201.63 -1.68942 0.160211 0
M  V30 1990 H 200.402 -3.91282 0.0373647 0
M  V30 1991 H 200.025 -3.61661 -1.65188 0
M  V30 1992 N 201.022 0.148545 -1.56898 0
M  V30 1993 C 202.27 0.859717 -1.82902 0
M  V30 1994 C 202.591 1.81775 -0.70588 0
M  V30 1995 O 201.861 1.93994 0.272586 0
M  V30 1996 H 200.441 0.320469 -0.674766 0
M  V30 1997 H 203.103 0.142918 -1.94375 0
M  V30 1998 H 202.199 1.4229 -2.77777 0
M  V30 1999 N 202.5 1.5196 0.417844 0
M  V30 2000 C 203.725 1.69717 1.1921 0
M  V30 2001 C 204.15 0.402148 1.83751 0
M  V30 2002 O 203.508 -0.639593 1.69643 0
M  V30 2003 C 203.556 2.82794 2.2374 0
M  V30 2004 O 202.66 2.47756 3.29683 0
M  V30 2005 H 202.001 0.565263 0.348387 0
M  V30 2006 H 204.531 1.98621 0.490985 0
M  V30 2007 H 204.541 3.07452 2.68212 0
M  V30 2008 H 203.216 3.76756 1.76146 0
M  V30 2009 H 201.793 2.33739 2.90552 0
M  V30 2010 N 203.978 -0.674533 1.42435 0
M  V30 2011 C 205.255 -1.4305 1.33402 0
M  V30 2012 C 205.635 -2.11081 -0.0284674 0
M  V30 2013 O 204.983 -2.03257 -1.04397 0
M  V30 2014 C 205.193 -2.43272 2.50239 0
M  V30 2015 C 206.541 -3.07907 2.92367 0
M  V30 2016 O 207.565 -2.53599 2.50132 0
M  V30 2017 O 206.424 -4.0632 3.65467 0
M  V30 2018 H 203.518 -0.638076 0.526106 0
M  V30 2019 H 206.064 -0.703235 1.54443 0
M  V30 2020 H 204.836 -1.91803 3.41068 0
M  V30 2021 H 204.459 -3.23479 2.31186 0
M  V30 2022 N 205.456 -1.28612 -0.910864 0
M  V30 2023 C 206.366 -1.14643 -2.0468 0
M  V30 2024 C 207.382 -0.0723121 -1.7385 0
M  V30 2025 O 208.558 -0.282178 -1.99413 0
M  V30 2026 C 205.623 -0.812561 -3.37044 0
M  V30 2027 C 204.684 -1.96935 -3.81465 0
M  V30 2028 C 203.917 -1.65131 -5.07511 0
M  V30 2029 O 204.14 -0.567013 -5.67575 0
M  V30 2030 O 203.074 -2.49585 -5.47714 0
M  V30 2031 H 206.9 -2.1001 -2.19384 0
M  V30 2032 H 204.485 -1.07958 -1.03274 0
M  V30 2033 H 206.367 -0.640441 -4.16505 0
M  V30 2034 H 205.042 0.111426 -3.23508 0
M  V30 2035 H 203.949 -2.19664 -3.02818 0
M  V30 2036 H 205.282 -2.87414 -3.99567 0
M  V30 2037 N 206.934 1.1197 -1.10907 0
M  V30 2038 C 207.897 2.16031 -0.765707 0
M  V30 2039 C 208.897 1.59393 0.212235 0
M  V30 2040 O 210.087 1.74196 -0.0115441 0
M  V30 2041 C 207.219 3.40632 -0.135053 0
M  V30 2042 H 208.412 2.47919 -1.68748 0
M  V30 2043 H 205.965 1.27061 -0.910226 0
M  V30 2044 H 206.7 3.14348 0.797218 0
M  V30 2045 H 206.485 3.8302 -0.838937 0
M  V30 2046 H 207.975 4.17505 0.0892469 0
M  V30 2047 N 208.412 0.89855 1.29475 0
M  V30 2048 C 209.637 0.538561 2.00285 0
M  V30 2049 C 210.062 -0.869135 1.66816 0
M  V30 2050 O 209.42 -1.57831 0.892145 0
M  V30 2051 C 209.468 0.736475 3.52999 0
M  V30 2052 O 208.572 -0.211537 4.11857 0
M  V30 2053 H 207.913 0.210563 0.62973 0
M  V30 2054 H 210.443 1.20982 1.64998 0
M  V30 2055 H 210.453 0.640685 4.02938 0
M  V30 2056 H 209.128 1.76276 3.76696 0
M  V30 2057 H 207.705 -0.0682991 3.72837 0
M  V30 2058 N 209.89 -1.43072 0.660911 0
M  V30 2059 C 211.13 -2.03596 0.181146 0
M  V30 2060 C 211.494 -1.51057 -1.18515 0
M  V30 2061 O 212.695 -2.03275 -1.75877 0
M  V30 2062 C 210.966 -3.56845 0.19911 0
M  V30 2063 S 212.525 -4.38289 -0.211684 0
M  V30 2064 H 209.343 -0.706954 0.0757479 0
M  V30 2065 H 211.945 -1.75027 0.870965 0
M  V30 2066 H 210.649 -3.92583 1.1961 0
M  V30 2067 H 210.18 -3.90067 -0.510996 0
M  V30 2068 H 212.195 -4.74583 -1.44863 0
M  V30 2069 N 211.368 -0.403325 -1.52352 0
M  V30 2070 C 212.779 0.0675782 -1.86578 0
M  V30 2071 C 213.13 1.44941 -1.32236 0
M  V30 2072 O 212.255 2.06112 -0.659307 0
M  V30 2073 C 212.85 0.129404 -3.38553 0
M  V30 2074 C 211.409 0.544629 -3.72439 0
M  V30 2075 C 210.556 -0.284551 -2.75836 0
M  V30 2076 H 213.507 -0.620631 -1.46061 0
M  V30 2077 H 213.528 0.94581 -3.68558 0
M  V30 2078 H 213.04 -0.87645 -3.78074 0
M  V30 2079 H 211.141 1.55734 -3.38493 0
M  V30 2080 H 211.254 0.293046 -4.78203 0
M  V30 2081 H 209.618 0.252258 -2.53448 0
M  V30 2082 H 210.401 -1.28865 -3.18196 0
M  V30 2083 N 212.846 1.57033 -0.133567 0
M  V30 2084 C 214.092 1.95976 0.521649 0
M  V30 2085 C 214.425 1.01779 1.65393 0
M  V30 2086 O 213.7 0.0576581 1.94415 0
M  V30 2087 C 213.983 3.44738 1.04057 0
M  V30 2088 C 213.836 4.49711 -0.0892897 0
M  V30 2089 C 215.155 3.95682 1.92675 0
M  V30 2090 H 212.274 0.712579 0.188149 0
M  V30 2091 H 214.916 1.88813 -0.212076 0
M  V30 2092 H 213.066 3.50973 1.66583 0
M  V30 2093 H 214.738 4.55565 -0.725152 0
M  V30 2094 H 212.981 4.27261 -0.750378 0
M  V30 2095 H 213.652 5.51099 0.315284 0
M  V30 2096 H 216.128 3.91841 1.39998 0
M  V30 2097 H 215.004 5.00262 2.25897 0
M  V30 2098 H 215.265 3.37239 2.85872 0
M  V30 2099 N 214.325 -0.140222 1.56975 0
M  V30 2100 C 215.255 -1.17456 2.01808 0
M  V30 2101 C 216.236 -1.44415 0.898794 0
M  V30 2102 O 217.421 -1.5522 1.16707 0
M  V30 2103 C 214.551 -2.50607 2.40444 0
M  V30 2104 C 213.505 -2.38155 3.55621 0
M  V30 2105 C 212.831 -3.76078 3.80091 0
M  V30 2106 C 214.131 -1.85991 4.88062 0
M  V30 2107 H 215.825 -0.801743 2.88466 0
M  V30 2108 H 213.371 -0.38422 1.38779 0
M  V30 2109 H 215.324 -3.23197 2.7041 0
M  V30 2110 H 214.048 -2.89737 1.50732 0
M  V30 2111 H 212.707 -1.68016 3.25832 0
M  V30 2112 H 212.355 -4.12656 2.87618 0
M  V30 2113 H 212.055 -3.68606 4.57606 0
M  V30 2114 H 213.579 -4.50206 4.12488 0
M  V30 2115 H 214.993 -2.4838 5.16701 0
M  V30 2116 H 213.39 -1.89393 5.6943 0
M  V30 2117 H 214.46 -0.816023 4.77984 0
M  V30 2118 N 215.803 -1.52179 -0.40978 0
M  V30 2119 C 217.031 -1.70054 -1.17853 0
M  V30 2120 C 217.446 -0.409735 -1.843 0
M  V30 2121 O 216.803 0.614183 -1.71855 0
M  V30 2122 C 216.854 -2.83568 -2.24213 0
M  V30 2123 O 216.575 -4.0765 -1.60478 0
M  V30 2124 C 218.076 -3.12947 -3.13973 0
M  V30 2125 H 215.296 -0.569917 -0.354169 0
M  V30 2126 H 217.84 -1.98734 -0.482198 0
M  V30 2127 H 215.995 -2.57409 -2.89516 0
M  V30 2128 H 216.409 -4.70899 -2.30986 0
M  V30 2129 H 217.883 -3.95889 -3.84677 0
M  V30 2130 H 218.36 -2.26472 -3.76307 0
M  V30 2131 H 218.966 -3.40868 -2.5434 0
M  V30 2132 N 217.281 0.66697 -1.42791 0
M  V30 2133 C 218.521 1.43892 -1.4517 0
M  V30 2134 C 218.885 1.91877 -0.0687551 0
M  V30 2135 O 220.086 2.6878 0.0327455 0
M  V30 2136 C 218.357 2.59839 -2.45395 0
M  V30 2137 S 219.916 3.48572 -2.66539 0
M  V30 2138 H 216.734 0.491356 -0.513897 0
M  V30 2139 H 219.336 0.775656 -1.79454 0
M  V30 2140 H 218.04 2.22838 -3.44632 0
M  V30 2141 H 217.571 3.3103 -2.12562 0
M  V30 2142 H 219.586 4.56094 -1.95429 0
M  V30 2143 N 218.759 1.29093 0.90403 0
M  V30 2144 C 220.007 1.16583 1.65085 0
M  V30 2145 C 220.328 -0.283933 1.92922 0
M  V30 2146 O 219.598 -1.19509 1.55224 0
M  V30 2147 H 218.178 0.428467 0.611903 0
M  V30 2148 H 220.84 1.61959 1.08422 0
M  V30 2149 H 219.936 1.71266 2.6091 0
M  V30 2150 N 220.237 -1.11381 1.11499 0
M  V30 2151 C 221.648 -1.6465 0.880191 0
M  V30 2152 C 221.999 -1.87199 -0.587434 0
M  V30 2153 O 221.124 -1.60667 -1.44966 0
M  V30 2154 C 221.719 -2.99105 1.59128 0
M  V30 2155 C 220.278 -3.49279 1.40289 0
M  V30 2156 C 219.425 -2.24077 1.63354 0
M  V30 2157 H 222.376 -0.950123 1.27116 0
M  V30 2158 H 222.397 -3.66107 1.03664 0
M  V30 2159 H 221.909 -2.82661 2.65941 0
M  V30 2160 H 220.01 -3.70887 0.356888 0
M  V30 2161 H 220.123 -4.2803 2.15238 0
M  V30 2162 H 218.487 -2.31733 1.05698 0
M  V30 2163 H 219.27 -2.10175 2.71443 0
M  V30 2164 N 221.715 -0.905404 -1.28997 0
M  V30 2165 C 222.678 -0.392253 -2.25819 0
M  V30 2166 C 223.678 0.476753 -1.5357 0
M  V30 2167 O 224.868 0.280994 -1.71919 0
M  V30 2168 C 222 0.438588 -3.38067 0
M  V30 2169 H 223.193 -1.24743 -2.72725 0
M  V30 2170 H 220.746 -0.684051 -1.40536 0
M  V30 2171 H 221.481 1.31352 -2.96508 0
M  V30 2172 H 221.266 -0.184167 -3.91667 0
M  V30 2173 H 222.756 0.78873 -4.10084 0
M  V30 2174 N 223.193 1.4272 -0.668489 0
M  V30 2175 C 224.418 2.06484 -0.194758 0
M  V30 2176 C 224.843 1.49862 1.13679 0
M  V30 2177 O 224.201 0.614582 1.70565 0
M  V30 2178 C 224.249 3.60353 -0.133546 0
M  V30 2179 O 223.353 4.02464 0.899806 0
M  V30 2180 H 222.694 0.656137 -0.10188 0
M  V30 2181 H 225.224 1.82964 -0.915722 0
M  V30 2182 H 225.234 4.07976 0.0447041 0
M  V30 2183 H 223.909 4.00938 -1.1055 0
M  V30 2184 H 222.486 3.66402 0.693109 0
M  V30 2185 N 224.671 0.411399 1.52136 0
M  V30 2186 C 225.918 -0.163645 2.01838 0
M  V30 2187 C 226.246 -1.4495 1.29691 0
M  V30 2188 O 225.501 -1.91725 0.392431 0
M  V30 2189 C 225.8 -0.455872 3.54481 0
M  V30 2190 C 225.466 0.741055 4.44769 0
M  V30 2191 C 224.128 1.06936 4.69167 0
M  V30 2192 C 226.48 1.54075 4.97906 0
M  V30 2193 C 223.808 2.19851 5.43951 0
M  V30 2194 C 226.16 2.66067 5.73926 0
M  V30 2195 C 224.824 2.99381 5.96596 0
M  V30 2196 H 224.094 -0.0598821 0.738576 0
M  V30 2197 H 226.741 0.553283 1.83333 0
M  V30 2198 H 225.046 -1.2544 3.71177 0
M  V30 2199 H 226.743 -0.913802 3.90449 0
M  V30 2200 H 223.333 0.475192 4.25958 0
M  V30 2201 H 227.517 1.30033 4.78963 0
M  V30 2202 H 222.773 2.46006 5.59724 0
M  V30 2203 H 226.947 3.28419 6.14096 0
M  V30 2204 H 224.574 3.86992 6.54325 0
M  V30 2205 N 226.149 -1.5696 0.141893 0
M  V30 2206 C 227.081 -2.13619 -0.830627 0
M  V30 2207 C 228.094 -1.08439 -1.21428 0
M  V30 2208 O 229.283 -1.35734 -1.15925 0
M  V30 2209 C 226.383 -2.63978 -2.12529 0
M  V30 2210 C 225.556 -3.93504 -1.9098 0
M  V30 2211 C 224.615 -4.29225 -3.04388 0
M  V30 2212 O 223.641 -4.97641 -2.76302 0
M  V30 2213 N 224.843 -3.88393 -4.31429 0
M  V30 2214 H 227.608 -2.97691 -0.34641 0
M  V30 2215 H 225.169 -1.61846 -0.0418375 0
M  V30 2216 H 227.161 -2.84891 -2.87436 0
M  V30 2217 H 225.731 -1.84659 -2.52229 0
M  V30 2218 H 224.951 -3.81269 -1.00139 0
M  V30 2219 H 226.239 -4.78154 -1.73914 0
M  V30 2220 H 225.637 -3.33257 -4.57117 0
M  V30 2221 H 224.194 -4.14368 -5.03133 0
M  V30 2222 N 227.627 0.131896 -1.57047 0
M  V30 2223 C 228.867 0.847972 -1.85981 0
M  V30 2224 C 229.231 1.77655 -0.7282 0
M  V30 2225 O 230.432 2.53322 -0.898968 0
M  V30 2226 C 228.703 1.58919 -3.20124 0
M  V30 2227 S 230.262 2.34862 -3.70655 0
M  V30 2228 H 227.08 0.283273 -0.652133 0
M  V30 2229 H 229.682 0.107057 -1.95207 0
M  V30 2230 H 228.386 0.898771 -4.00438 0
M  V30 2231 H 227.917 2.37073 -3.13942 0
M  V30 2232 H 229.932 3.60344 -3.41126 0
M  V30 2233 N 229.106 1.52395 0.401703 0
M  V30 2234 C 230.054 1.7689 1.51039 0
M  V30 2235 C 231.048 0.636298 1.56996 0
M  V30 2236 O 232.254 0.818507 1.60314 0
M  V30 2237 H 228.629 0.559502 0.502456 0
M  V30 2238 H 230.6 2.69757 1.27568 0
M  V30 2239 C 229.349 1.94331 2.88324 0
M  V30 2240 H 228.672 2.80905 2.84486 0
M  V30 2241 H 230.112 2.15466 3.65172 0
M  V30 2242 C 228.571 0.712396 3.29282 0
M  V30 2243 O 229.101 -0.116218 4.01532 0
M  V30 2244 N 227.307 0.546154 2.85422 0
M  V30 2245 H 226.854 1.22156 2.26794 0
M  V30 2246 H 226.812 -0.276113 3.13185 0
M  V30 2247 N 230.584 -0.659388 1.43143 0
M  V30 2248 C 231.809 -1.45221 1.48073 0
M  V30 2249 C 232.234 -1.87845 0.097995 0
M  V30 2250 O 231.592 -1.56985 -0.90694 0
M  V30 2251 C 231.64 -2.66748 2.42647 0
M  V30 2252 O 230.744 -3.65583 1.90848 0
M  V30 2253 H 230.085 -0.435669 0.501088 0
M  V30 2254 H 232.615 -0.807432 1.87994 0
M  V30 2255 H 232.625 -3.14637 2.59745 0
M  V30 2256 H 231.3 -2.35067 3.43098 0
M  V30 2257 H 229.877 -3.24693 1.83381 0
M  V30 2258 N 232.062 -1.29571 -0.897171 0
M  V30 2259 C 233.287 -1.20705 -1.68656 0
M  V30 2260 C 233.712 0.228582 -1.86706 0
M  V30 2261 O 233.07 1.16494 -1.3892 0
M  V30 2262 C 233.118 -1.9282 -3.04717 0
M  V30 2263 O 232.222 -1.24697 -3.93096 0
M  V30 2264 H 231.563 -0.418126 -0.515816 0
M  V30 2265 H 234.093 -1.71183 -1.12061 0
M  V30 2266 H 234.103 -2.01372 -3.54843 0
M  V30 2267 H 232.778 -2.97239 -2.90899 0
M  V30 2268 H 231.355 -1.2442 -3.51531 0
M  V30 2269 N 233.54 1.10788 -1.12088 0
M  V30 2270 C 234.768 1.86461 -0.896651 0
M  V30 2271 C 235.183 1.80492 0.553912 0
M  V30 2272 O 234.54 1.19102 1.38278 0
M  V30 2273 C 234.591 3.35006 -1.35843 0
M  V30 2274 O 234.312 3.40866 -2.75213 0
M  V30 2275 C 235.813 4.27565 -1.1706 0
M  V30 2276 H 233.033 0.589425 -0.320654 0
M  V30 2277 H 235.577 1.40076 -1.48993 0
M  V30 2278 H 233.732 3.7887 -0.808458 0
M  V30 2279 H 234.146 4.33411 -2.9539 0
M  V30 2280 H 235.62 5.30007 -1.54263 0
M  V30 2281 H 236.097 4.3906 -0.110814 0
M  V30 2282 H 236.703 3.89501 -1.70789 0
M  V30 2283 N 235.018 0.912232 1.28515 0
M  V30 2284 C 236.258 0.551677 1.96814 0
M  V30 2285 C 236.622 -0.887825 1.7024 0
M  V30 2286 O 237.823 -1.35588 2.32098 0
M  V30 2287 C 236.094 0.850555 3.47132 0
M  V30 2288 S 237.653 0.59619 4.34731 0
M  V30 2289 H 234.471 0.204191 0.681049 0
M  V30 2290 H 237.073 1.17736 1.56072 0
M  V30 2291 H 235.777 1.8962 3.63968 0
M  V30 2292 H 235.308 0.213471 3.9282 0
M  V30 2293 H 237.323 -0.553154 4.93107 0
M  V30 2294 N 236.496 -1.42363 0.676048 0
M  V30 2295 C 237.745 -2.00745 0.196037 0
M  V30 2296 C 238.058 -1.54083 -1.20489 0
M  V30 2297 O 239.264 -2.04891 -1.78134 0
M  V30 2298 C 237.72 -3.58651 0.299616 0
M  V30 2299 C 237.328 -4.143 1.70468 0
M  V30 2300 C 239.072 -4.24326 -0.121619 0
M  V30 2301 C 236.979 -5.64574 1.76096 0
M  V30 2302 H 235.909 -0.750787 0.0695301 0
M  V30 2303 H 238.56 -1.63072 0.841412 0
M  V30 2304 H 236.942 -3.93833 -0.413673 0
M  V30 2305 H 238.116 -3.90575 2.44515 0
M  V30 2306 H 236.431 -3.61081 2.07387 0
M  V30 2307 H 239.028 -5.34607 -0.0997362 0
M  V30 2308 H 239.371 -3.99897 -1.15708 0
M  V30 2309 H 239.904 -3.94108 0.540706 0
M  V30 2310 H 236.643 -5.93804 2.77628 0
M  V30 2311 H 236.163 -5.90286 1.06406 0
M  V30 2312 H 237.842 -6.29013 1.51496 0
M  V30 2313 N 237.974 -0.419461 -1.51915 0
M  V30 2314 C 239.385 0.0477853 -1.86639 0
M  V30 2315 C 239.736 1.43531 -1.33766 0
M  V30 2316 O 238.861 2.05401 -0.68113 0
M  V30 2317 C 239.456 0.0934885 -3.38671 0
M  V30 2318 C 238.015 0.505097 -3.72996 0
M  V30 2319 C 237.162 -0.313792 -2.75519 0
M  V30 2320 H 240.113 -0.636088 -1.45395 0
M  V30 2321 H 240.134 0.906667 -3.6954 0
M  V30 2322 H 239.646 -0.916501 -3.77123 0
M  V30 2323 H 237.747 1.52135 -3.40126 0
M  V30 2324 H 237.86 0.242309 -4.78487 0
M  V30 2325 H 236.224 0.225363 -2.53701 0
M  V30 2326 H 237.007 -1.32232 -3.16812 0
M  V30 2327 N 239.452 1.56882 -0.150215 0
M  V30 2328 C 240.384 2.14057 0.819286 0
M  V30 2329 C 241.397 1.09082 1.20851 0
M  V30 2330 O 242.586 1.36347 1.15203 0
M  V30 2331 C 239.686 2.65102 2.11127 0
M  V30 2332 C 238.859 3.94511 1.88891 0
M  V30 2333 C 237.918 4.30834 3.02107 0
M  V30 2334 O 236.944 4.99099 2.73659 0
M  V30 2335 N 238.146 3.90676 4.29363 0
M  V30 2336 H 240.911 2.97871 0.330618 0
M  V30 2337 H 238.472 1.61866 0.0332538 0
M  V30 2338 H 240.464 2.86411 2.85921 0
M  V30 2339 H 239.034 1.85994 2.51247 0
M  V30 2340 H 238.254 3.81795 0.981152 0
M  V30 2341 H 239.542 4.7907 1.71376 0
M  V30 2342 H 238.94 3.35677 4.55343 0
M  V30 2343 H 237.497 4.1703 5.00928 0
M  V30 2344 N 240.93 -0.123565 1.57115 0
M  V30 2345 C 241.86 -1.15309 2.03042 0
M  V30 2346 C 242.841 -1.43454 0.914061 0
M  V30 2347 O 244.026 -1.53973 1.18347 0
M  V30 2348 C 241.156 -2.48043 2.43089 0
M  V30 2349 C 240.11 -2.3437 3.58127 0
M  V30 2350 C 239.436 -3.72026 3.84059 0
M  V30 2351 C 240.736 -1.80804 4.90007 0
M  V30 2352 H 242.43 -0.771102 2.893 0
M  V30 2353 H 239.976 -0.369479 1.39179 0
M  V30 2354 H 241.929 -3.20311 2.73823 0
M  V30 2355 H 240.653 -2.88122 1.53796 0
M  V30 2356 H 239.312 -1.64551 3.27595 0
M  V30 2357 H 238.96 -4.09582 2.91979 0
M  V30 2358 H 238.66 -3.63732 4.6149 0
M  V30 2359 H 240.184 -4.45806 4.1724 0
M  V30 2360 H 241.598 -2.42886 5.19307 0
M  V30 2361 H 239.995 -1.83343 5.71407 0
M  V30 2362 H 241.065 -0.76528 4.78823 0
M  V30 2363 N 242.408 -1.52605 -0.393616 0
M  V30 2364 C 243.654 -1.68624 -1.13743 0
M  V30 2365 C 244.009 -0.418687 -1.87789 0
M  V30 2366 O 243.302 0.58747 -1.82371 0
M  V30 2367 C 243.496 -2.85721 -2.14705 0
M  V30 2368 C 243.325 -4.23742 -1.50575 0
M  V30 2369 C 242.095 -4.89033 -1.2718 0
M  V30 2370 C 244.293 -5.05293 -0.958311 0
M  V30 2371 N 242.275 -6.11048 -0.591058 0
M  V30 2372 C 243.646 -6.18673 -0.405367 0
M  V30 2373 C 245.701 -4.90517 -0.854274 0
M  V30 2374 C 244.404 -7.18895 0.241434 0
M  V30 2375 C 246.43 -5.90986 -0.221301 0
M  V30 2376 C 245.792 -7.03669 0.320894 0
M  V30 2377 H 241.891 -0.670556 -0.402342 0
M  V30 2378 H 244.475 -1.89946 -0.427607 0
M  V30 2379 H 242.646 -2.65987 -2.83029 0
M  V30 2380 H 244.378 -2.90699 -2.8156 0
M  V30 2381 H 241.133 -4.47672 -1.54554 0
M  V30 2382 H 241.557 -6.76474 -0.266862 0
M  V30 2383 H 246.199 -4.03612 -1.25926 0
M  V30 2384 H 243.917 -8.05413 0.658448 0
M  V30 2385 H 247.503 -5.81626 -0.142111 0
M  V30 2386 H 246.383 -7.80078 0.802956 0
M  V30 2387 N 243.887 0.651787 -1.4349 0
M  V30 2388 C 244.85 1.74647 -1.48429 0
M  V30 2389 C 245.85 1.56513 -0.368817 0
M  V30 2390 O 247.04 1.62385 -0.630623 0
M  V30 2391 C 244.172 3.13533 -1.33827 0
M  V30 2392 H 245.365 1.71649 -2.4592 0
M  V30 2393 H 242.918 0.863573 -1.30277 0
M  V30 2394 H 243.653 3.22142 -0.37349 0
M  V30 2395 H 243.438 3.28101 -2.14691 0
M  V30 2396 H 244.928 3.93356 -1.40218 0
M  V30 2397 N 245.365 1.30045 0.890287 0
M  V30 2398 C 246.605 1.19839 1.65584 0
M  V30 2399 C 246.969 -0.244175 1.90441 0
M  V30 2400 O 248.17 -0.469378 2.6467 0
M  V30 2401 C 246.441 1.99876 2.96284 0
M  V30 2402 S 248 2.06309 3.87275 0
M  V30 2403 H 244.818 0.427157 0.568382 0
M  V30 2404 H 247.42 1.64453 1.05715 0
M  V30 2405 H 246.124 3.03809 2.75913 0
M  V30 2406 H 245.655 1.55903 3.61189 0
M  V30 2407 H 247.67 1.18661 4.81803 0
M  V30 2408 N 246.843 -1.10192 1.12674 0
M  V30 2409 C 248.12 -1.78717 0.794965 0
M  V30 2410 C 248.5 -1.98628 -0.714853 0
M  V30 2411 O 247.848 -1.58135 -1.64941 0
M  V30 2412 C 248.058 -3.11546 1.5729 0
M  V30 2413 C 249.406 -3.86382 1.76052 0
M  V30 2414 O 250.43 -3.21274 1.53823 0
M  V30 2415 O 249.289 -5.03246 2.13087 0
M  V30 2416 H 246.383 -0.774702 0.289423 0
M  V30 2417 H 248.929 -1.16819 1.23091 0
M  V30 2418 H 247.701 -2.92489 2.59935 0
M  V30 2419 H 247.324 -3.81164 1.13137 0
M  V30 2420 N 248.321 -0.919034 -1.28029 0
M  V30 2421 C 249.269 -0.401753 -2.29104 0
M  V30 2422 C 250.263 0.509354 -1.61561 0
M  V30 2423 O 251.469 0.390014 -1.75724 0
M  V30 2424 H 247.844 -0.111331 -0.743713 0
M  V30 2425 H 249.815 -1.2672 -2.70156 0
M  V30 2426 C 248.564 0.338148 -3.46052 0
M  V30 2427 H 247.887 -0.353732 -3.98232 0
M  V30 2428 H 249.327 0.664653 -4.18758 0
M  V30 2429 C 247.786 1.54798 -2.99231 0
M  V30 2430 O 248.316 2.64696 -3.02157 0
M  V30 2431 N 246.522 1.3968 -2.54829 0
M  V30 2432 H 246.069 0.502698 -2.52647 0
M  V30 2433 H 246.027 2.20755 -2.23863 0
M  V30 2434 N 249.799 1.42003 -0.683588 0
M  V30 2435 C 251.076 1.95112 -0.138075 0
M  V30 2436 C 251.456 1.62359 1.34918 0
M  V30 2437 O 250.804 0.924311 2.08971 0
M  V30 2438 C 251.014 3.46505 -0.416581 0
M  V30 2439 C 252.362 4.23254 -0.337834 0
M  V30 2440 O 253.386 3.54468 -0.35082 0
M  V30 2441 O 252.245 5.45743 -0.287596 0
M  V30 2442 H 249.339 0.826961 -0.00797996 0
M  V30 2443 H 251.885 1.51784 -0.758924 0
M  V30 2444 H 250.657 3.63582 -1.4465 0
M  V30 2445 H 250.28 3.969 0.235839 0
M  V30 2446 N 251.277 0.427512 1.51691 0
M  V30 2447 C 252.688 -0.0378867 1.86662 0
M  V30 2448 C 253.039 -1.42819 1.34525 0
M  V30 2449 O 252.164 -2.05037 0.692014 0
M  V30 2450 C 252.759 -0.0755266 3.38716 0
M  V30 2451 C 251.318 -0.485309 3.73258 0
M  V30 2452 C 250.465 0.328399 2.75349 0
M  V30 2453 H 253.416 0.64379 1.45055 0
M  V30 2454 H 253.437 -0.887056 3.70016 0
M  V30 2455 H 252.949 0.936487 3.76632 0
M  V30 2456 H 251.05 -1.50329 3.40928 0
M  V30 2457 H 251.163 -0.21693 4.78609 0
M  V30 2458 H 249.527 -0.211905 2.53817 0
M  V30 2459 H 250.31 1.3391 3.16106 0
M  V30 2460 N 252.755 -1.56801 0.158532 0
M  V30 2461 C 254.032 -1.88131 -0.535357 0
M  V30 2462 C 254.412 -1.06638 -1.82186 0
M  V30 2463 O 253.76 -0.156533 -2.27963 0
M  V30 2464 C 253.97 -3.39949 -0.789653 0
M  V30 2465 C 255.318 -4.09416 -1.12533 0
M  V30 2466 O 256.342 -3.45194 -0.878622 0
M  V30 2467 O 255.201 -5.22855 -1.59014 0
M  V30 2468 H 252.295 -0.780143 -0.27442 0
M  V30 2469 H 254.841 -1.68564 0.19601 0
M  V30 2470 H 253.613 -3.91115 0.120353 0
M  V30 2471 H 253.236 -3.65084 -1.57479 0
M  V30 2472 N 254.233 0.115231 -1.57178 0
M  V30 2473 C 255.473 0.828199 -1.8687 0
M  V30 2474 C 255.837 1.76873 -0.747002 0
M  V30 2475 O 257.038 2.52354 -0.925785 0
M  V30 2476 C 255.309 1.55515 -3.21792 0
M  V30 2477 S 256.868 2.30917 -3.73125 0
M  V30 2478 H 253.686 0.27634 -0.655101 0
M  V30 2479 H 256.288 0.0863469 -1.95309 0
M  V30 2480 H 254.992 0.856248 -4.01368 0
M  V30 2481 H 254.523 2.3373 -3.16439 0
M  V30 2482 H 256.538 3.56705 -3.44929 0
M  V30 2483 N 255.711 1.52812 0.385517 0
M  V30 2484 C 256.621 1.80766 1.49535 0
M  V30 2485 C 257.637 0.694651 1.59532 0
M  V30 2486 O 258.813 0.982611 1.75803 0
M  V30 2487 C 255.878 1.97381 2.85029 0
M  V30 2488 C 254.939 3.21295 2.84724 0
M  V30 2489 C 254.172 3.37108 4.13756 0
M  V30 2490 O 254.395 2.5765 5.08893 0
M  V30 2491 O 253.329 4.30378 4.20783 0
M  V30 2492 H 257.155 2.75015 1.28842 0
M  V30 2493 H 254.74 1.37946 0.573697 0
M  V30 2494 H 256.622 2.09996 3.65349 0
M  V30 2495 H 255.297 1.06322 3.05741 0
M  V30 2496 H 254.204 3.1412 2.03174 0
M  V30 2497 H 255.537 4.12212 2.68965 0
M  V30 2498 N 257.189 -0.644168 1.43834 0
M  V30 2499 C 258.466 -1.40188 1.36406 0
M  V30 2500 C 258.846 -2.11094 0.0163124 0
M  V30 2501 O 258.194 -2.05426 -1.00062 0
M  V30 2502 C 258.404 -2.3791 2.55343 0
M  V30 2503 C 259.752 -3.01637 2.98832 0
M  V30 2504 O 260.776 -2.48237 2.55455 0
M  V30 2505 O 259.635 -3.98477 3.74003 0
M  V30 2506 H 256.729 -0.626773 0.539523 0
M  V30 2507 H 259.275 -0.670317 1.559 0
M  V30 2508 H 258.047 -1.84525 3.4506 0
M  V30 2509 H 257.67 -3.18503 2.37995 0
M  V30 2510 N 258.668 -1.30515 -0.883378 0
M  V30 2511 C 259.916 -1.19194 -1.63209 0
M  V30 2512 C 260.237 0.253205 -1.93349 0
M  V30 2513 O 259.507 1.17025 -1.57105 0
M  V30 2514 H 258.087 -0.438148 -0.605009 0
M  V30 2515 H 260.749 -1.63663 -1.05832 0
M  V30 2516 H 259.845 -1.75396 -2.58153 0
M  V30 2517 N 260.146 1.09593 -1.13257 0
M  V30 2518 C 261.371 1.8604 -0.916732 0
M  V30 2519 C 261.796 1.80504 0.529146 0
M  V30 2520 O 261.154 1.18127 1.37534 0
M  V30 2521 C 261.202 3.32017 -1.40703 0
M  V30 2522 O 260.306 4.08141 -0.591153 0
M  V30 2523 H 259.647 0.576943 -0.328683 0
M  V30 2524 H 262.177 1.38405 -1.50682 0
M  V30 2525 H 262.187 3.82865 -1.4099 0
M  V30 2526 H 260.862 3.35361 -2.45979 0
M  V30 2527 H 259.439 3.67084 -0.656005 0
M  V30 2528 N 261.624 0.925811 1.2754 0
M  V30 2529 C 262.901 0.483726 1.89524 0
M  V30 2530 C 263.281 -1.03809 1.83812 0
M  V30 2531 O 262.629 -1.89143 1.28207 0
M  V30 2532 C 262.839 1.02769 3.33526 0
M  V30 2533 C 264.187 1.08703 4.10449 0
M  V30 2534 O 265.211 0.977175 3.42534 0
M  V30 2535 O 264.07 1.25599 5.31871 0
M  V30 2536 H 261.164 0.15529 0.812289 0
M  V30 2537 H 263.71 1.01738 1.35822 0
M  V30 2538 H 262.482 2.07155 3.31967 0
M  V30 2539 H 262.105 0.475567 3.94746 0
M  V30 2540 N 263.102 -1.41638 0.69111 0
M  V30 2541 C 264.012 -2.34588 0.0233487 0
M  V30 2542 C 265.028 -1.55987 -0.770984 0
M  V30 2543 O 266.204 -1.88486 -0.709569 0
M  V30 2544 C 263.269 -3.34684 -0.904851 0
M  V30 2545 C 262.33 -4.29176 -0.103225 0
M  V30 2546 C 261.563 -5.2449 -0.987216 0
M  V30 2547 O 261.786 -5.2514 -2.22674 0
M  V30 2548 O 260.72 -6.00295 -0.439281 0
M  V30 2549 H 264.546 -2.93261 0.789416 0
M  V30 2550 H 262.131 -1.42417 0.45142 0
M  V30 2551 H 264.013 -3.96133 -1.43724 0
M  V30 2552 H 262.688 -2.78461 -1.65049 0
M  V30 2553 H 261.595 -3.71089 0.473655 0
M  V30 2554 H 262.928 -4.88484 0.60365 0
M  V30 2555 N 264.58 -0.43555 -1.51462 0
M  V30 2556 C 265.826 0.123979 -2.03022 0
M  V30 2557 C 266.181 1.4054 -1.31401 0
M  V30 2558 O 265.474 1.86948 -0.419634 0
M  V30 2559 C 265.668 0.39942 -3.55161 0
M  V30 2560 C 265.497 -0.853754 -4.41521 0
M  V30 2561 C 264.267 -1.38675 -4.85898 0
M  V30 2562 C 266.465 -1.73939 -4.83994 0
M  V30 2563 N 264.447 -2.59265 -5.56466 0
M  V30 2564 C 265.818 -2.79135 -5.5361 0
M  V30 2565 C 267.873 -1.75402 -4.65981 0
M  V30 2566 C 266.576 -3.85737 -6.07124 0
M  V30 2567 C 268.602 -2.80938 -5.20411 0
M  V30 2568 C 267.964 -3.84854 -5.89972 0
M  V30 2569 H 264.063 0.00624887 -0.781975 0
M  V30 2570 H 266.647 -0.59582 -1.85359 0
M  V30 2571 H 264.818 1.08825 -3.72843 0
M  V30 2572 H 266.55 0.95015 -3.93388 0
M  V30 2573 H 263.305 -0.94094 -4.64159 0
M  V30 2574 H 263.729 -3.2041 -5.96378 0
M  V30 2575 H 268.371 -0.963926 -4.11665 0
M  V30 2576 H 266.089 -4.65586 -6.60496 0
M  V30 2577 H 269.675 -2.8301 -5.08327 0
M  V30 2578 H 268.555 -4.65176 -6.31333 0
M  V30 2579 N 266.058 1.56714 -0.166846 0
M  V30 2580 C 267.469 1.83378 0.350646 0
M  V30 2581 C 267.82 1.08646 1.63372 0
M  V30 2582 O 266.945 0.338058 2.13743 0
M  V30 2583 C 267.54 3.32643 0.642963 0
M  V30 2584 C 266.099 3.59818 1.10491 0
M  V30 2585 C 265.246 2.76954 0.138411 0
M  V30 2586 H 268.197 1.53803 -0.391193 0
M  V30 2587 H 268.218 3.49878 1.49551 0
M  V30 2588 H 267.73 3.87007 -0.291055 0
M  V30 2589 H 265.831 3.1086 2.05418 0
M  V30 2590 H 265.944 4.68178 1.01716 0
M  V30 2591 H 264.308 2.4666 0.634911 0
M  V30 2592 H 265.091 3.34097 -0.789549 0
M  V30 2593 N 267.536 -0.106894 1.57237 0
M  V30 2594 C 268.468 -1.15646 1.97885 0
M  V30 2595 C 269.481 -1.36981 0.879779 0
M  V30 2596 O 270.67 -1.35841 1.15799 0
M  V30 2597 C 267.77 -2.51425 2.27241 0
M  V30 2598 C 266.943 -2.50529 3.58545 0
M  V30 2599 C 266.002 -3.68145 3.75973 0
M  V30 2600 O 265.028 -3.51176 4.47956 0
M  V30 2601 N 266.23 -4.87177 3.15656 0
M  V30 2602 H 268.995 -0.81059 2.8853 0
M  V30 2603 H 266.556 -0.296024 1.59171 0
M  V30 2604 H 268.548 -3.28689 2.36105 0
M  V30 2605 H 267.118 -2.78147 1.42663 0
M  V30 2606 H 266.338 -1.58894 3.60758 0
M  V30 2607 H 267.626 -2.46997 4.44826 0
M  V30 2608 H 267.024 -5.03868 2.57165 0
M  V30 2609 H 265.581 -5.62075 3.30023 0
M  V30 2610 N 269.014 -1.53014 -0.377408 0
M  V30 2611 C 270.43 -1.42523 -0.718281 0
M  V30 2612 C 270.63 -0.55487 -1.9371 0
M  V30 2613 O 269.686 -0.0327593 -2.52479 0
M  V30 2614 C 270.999 -2.85546 -0.942539 0
M  V30 2615 C 272.547 -2.95101 -1.04329 0
M  V30 2616 C 273.022 -4.3916 -1.3001 0
M  V30 2617 N 274.513 -4.42536 -1.36806 0
M  V30 2618 C 275.248 -5.51097 -1.58364 0
M  V30 2619 N 274.744 -6.69724 -1.77317 0
M  V30 2620 N 276.537 -5.38657 -1.60638 0
M  V30 2621 H 268.688 -2.08116 0.424426 0
M  V30 2622 H 270.951 -0.939352 0.127759 0
M  V30 2623 H 270.657 -3.51499 -0.118929 0
M  V30 2624 H 270.531 -3.28493 -1.85397 0
M  V30 2625 H 272.918 -2.29309 -1.85745 0
M  V30 2626 H 272.999 -2.55566 -0.109505 0
M  V30 2627 H 272.643 -5.05521 -0.490991 0
M  V30 2628 H 272.573 -4.76258 -2.24691 0
M  V30 2629 H 275.064 -3.57039 -1.23821 0
M  V30 2630 H 275.377 -7.48233 -1.93306 0
M  V30 2631 H 273.722 -6.72732 -1.74518 0
M  V30 2632 H 276.913 -4.44948 -1.45391 0
M  V30 2633 H 277.086 -6.2333 -1.77098 0
M  V30 2634 N 270.492 0.636531 -1.44174 0
M  V30 2635 C 271.732 1.40781 -1.48189 0
M  V30 2636 C 272.096 1.91688 -0.10944 0
M  V30 2637 O 273.297 2.68789 -0.0242741 0
M  V30 2638 C 271.568 2.54575 -2.50851 0
M  V30 2639 S 273.127 3.4284 -2.73873 0
M  V30 2640 H 269.945 0.480345 -0.524204 0
M  V30 2641 H 272.547 0.737416 -1.81059 0
M  V30 2642 H 271.251 2.15478 -3.49281 0
M  V30 2643 H 270.782 3.26447 -2.19536 0
M  V30 2644 H 272.797 4.51846 -2.05059 0
M  V30 2645 N 271.97 1.30982 0.876444 0
M  V30 2646 C 273.386 1.09498 1.16113 0
M  V30 2647 C 273.586 -0.13875 2.01022 0
M  V30 2648 O 272.642 -0.829935 2.38471 0
M  V30 2649 C 273.955 2.36308 1.85954 0
M  V30 2650 C 275.503 2.41856 1.98683 0
M  V30 2651 C 275.978 3.6853 2.71937 0
M  V30 2652 N 277.469 3.69387 2.79477 0
M  V30 2653 C 278.204 4.64096 3.36753 0
M  V30 2654 N 277.7 5.69155 3.95012 0
M  V30 2655 N 279.493 4.51626 3.3465 0
M  V30 2656 H 271.644 2.10118 0.310494 0
M  V30 2657 H 273.907 0.926634 0.200131 0
M  V30 2658 H 273.613 3.26388 1.31011 0
M  V30 2659 H 273.487 2.4561 2.86278 0
M  V30 2660 H 275.874 1.52249 2.52793 0
M  V30 2661 H 275.955 2.36523 0.9742 0
M  V30 2662 H 275.599 4.58499 2.18496 0
M  V30 2663 H 275.529 3.71127 3.73593 0
M  V30 2664 H 278.02 2.93438 2.38123 0
M  V30 2665 H 278.333 6.3751 4.36808 0
M  V30 2666 H 276.678 5.72937 3.93406 0
M  V30 2667 H 279.869 3.68728 2.8837 0
M  V30 2668 H 280.042 5.25614 3.7899 0
M  V30 2669 N 273.449 -1.08991 1.13837 0
M  V30 2670 C 274.697 -1.80899 0.901098 0
M  V30 2671 C 275.018 -1.86356 -0.574134 0
M  V30 2672 O 274.288 -1.35235 -1.41733 0
M  V30 2673 H 272.868 -0.669966 0.330386 0
M  V30 2674 H 275.53 -1.318 1.43578 0
M  V30 2675 H 274.626 -2.83929 1.29578 0
M  V30 2676 N 274.927 -0.932562 -1.27047 0
M  V30 2677 C 275.857 -0.452902 -2.29066 0
M  V30 2678 C 276.838 0.489338 -1.62909 0
M  V30 2679 O 278.023 0.393046 -1.90181 0
M  V30 2680 C 275.153 0.290698 -3.46081 0
M  V30 2681 C 274.107 -0.564168 -4.24265 0
M  V30 2682 C 273.433 0.308886 -5.33807 0
M  V30 2683 C 274.733 -1.83112 -4.89149 0
M  V30 2684 H 276.427 -1.30552 -2.69437 0
M  V30 2685 H 273.973 -0.629201 -1.29526 0
M  V30 2686 H 275.926 0.637233 -4.16554 0
M  V30 2687 H 274.65 1.17738 -3.0464 0
M  V30 2688 H 273.309 -0.893477 -3.55545 0
M  V30 2689 H 272.957 1.19467 -4.88607 0
M  V30 2690 H 272.657 -0.259633 -5.87026 0
M  V30 2691 H 274.181 0.650884 -6.07121 0
M  V30 2692 H 275.595 -1.55236 -5.51883 0
M  V30 2693 H 273.992 -2.34353 -5.52448 0
M  V30 2694 H 275.062 -2.54772 -4.12576 0
M  V30 2695 N 276.405 1.4127 -0.698611 0
M  V30 2696 C 277.635 2.05205 -0.239644 0
M  V30 2697 C 278.043 1.52684 1.11733 0
M  V30 2698 O 277.386 0.671222 1.70998 0
M  V30 2699 C 277.448 3.59289 -0.123126 0
M  V30 2700 C 277.112 4.34619 -1.41263 0
M  V30 2701 C 278.109 4.63701 -2.35111 0
M  V30 2702 C 275.794 4.73837 -1.66684 0
M  V30 2703 C 277.788 5.30966 -3.52639 0
M  V30 2704 C 275.475 5.40837 -2.84498 0
M  V30 2705 C 276.473 5.69329 -3.77298 0
M  V30 2706 O 276.161 6.34949 -4.93047 0
M  V30 2707 H 275.893 0.66723 -0.108537 0
M  V30 2708 H 278.447 1.81974 -0.952602 0
M  V30 2709 H 276.677 3.81272 0.645628 0
M  V30 2710 H 278.366 4.04797 0.299056 0
M  V30 2711 H 279.132 4.33882 -2.16729 0
M  V30 2712 H 275.011 4.51039 -0.953135 0
M  V30 2713 H 278.555 5.53121 -4.25091 0
M  V30 2714 H 274.452 5.70075 -3.02795 0
M  V30 2715 H 275.22 6.53445 -4.92902 0
M  V30 2716 N 277.883 0.443576 1.51229 0
M  V30 2717 C 279.129 -0.120975 2.02439 0
M  V30 2718 C 279.462 -1.41815 1.32674 0
M  V30 2719 O 278.737 -1.89373 0.443622 0
M  V30 2720 C 279.02 -0.333291 3.58554 0
M  V30 2721 C 278.873 0.982968 4.38928 0
M  V30 2722 C 280.192 -1.10028 4.26124 0
M  V30 2723 H 277.311 -0.0424923 0.735774 0
M  V30 2724 H 279.953 0.583794 1.80809 0
M  V30 2725 H 278.103 -0.933614 3.77115 0
M  V30 2726 H 279.775 1.61775 4.32003 0
M  V30 2727 H 278.018 1.58611 4.03763 0
M  V30 2728 H 278.689 0.788379 5.46341 0
M  V30 2729 H 281.165 -0.591711 4.11871 0
M  V30 2730 H 280.041 -1.21761 5.35225 0
M  V30 2731 H 280.302 -2.12996 3.87408 0
M  V30 2732 N 279.361 -1.56624 0.175154 0
M  V30 2733 C 280.608 -1.96999 -0.468811 0
M  V30 2734 C 280.936 -1.06129 -1.62994 0
M  V30 2735 O 280.191 -0.0961771 -1.95464 0
M  V30 2736 C 280.49 -3.43419 -0.989864 0
M  V30 2737 C 280.156 -4.50866 0.0557687 0
M  V30 2738 C 278.818 -4.79975 0.343134 0
M  V30 2739 C 281.17 -5.15551 0.765308 0
M  V30 2740 C 278.498 -5.71066 1.34536 0
M  V30 2741 C 280.85 -6.07724 1.75654 0
M  V30 2742 C 279.514 -6.35199 2.05132 0
M  V30 2743 H 278.784 -0.720869 -0.17155 0
M  V30 2744 H 281.431 -1.89616 0.267924 0
M  V30 2745 H 279.736 -3.47772 -1.80449 0
M  V30 2746 H 281.433 -3.72002 -1.49719 0
M  V30 2747 H 278.023 -4.28229 -0.178381 0
M  V30 2748 H 282.207 -4.9317 0.556513 0
M  V30 2749 H 277.463 -5.90635 1.57988 0
M  V30 2750 H 281.637 -6.56912 2.31169 0
M  V30 2751 H 279.264 -7.05584 2.8294 0
M  V30 2752 N 280.839 0.0985539 -1.57292 0
M  V30 2753 C 281.771 1.14595 -1.98496 0
M  V30 2754 C 282.784 1.36512 -0.887031 0
M  V30 2755 O 283.973 1.35225 -1.16518 0
M  V30 2756 C 281.073 2.50216 -2.28572 0
M  V30 2757 C 280.246 2.48624 -3.59868 0
M  V30 2758 C 279.305 3.66146 -3.7792 0
M  V30 2759 O 278.331 3.48795 -4.49812 0
M  V30 2760 N 279.533 4.85496 -3.18235 0
M  V30 2761 H 282.298 0.795277 -2.88956 0
M  V30 2762 H 279.859 0.287579 -1.59325 0
M  V30 2763 H 281.851 3.27432 -2.37845 0
M  V30 2764 H 280.421 2.77387 -1.44136 0
M  V30 2765 H 279.641 1.56978 -3.61596 0
M  V30 2766 H 280.929 2.44635 -4.46129 0
M  V30 2767 H 280.327 5.02497 -2.59833 0
M  V30 2768 H 278.884 5.60317 -3.32999 0
M  V30 2769 N 282.317 1.53212 0.369288 0
M  V30 2770 C 283.565 1.68881 1.11012 0
M  V30 2771 C 283.886 0.441285 1.89941 0
M  V30 2772 O 283.156 -0.544623 1.88177 0
M  V30 2773 H 281.736 0.622569 0.412816 0
M  V30 2774 H 284.398 1.90391 0.416802 0
M  V30 2775 H 283.494 2.54822 1.80201 0
M  V30 2776 N 283.795 -0.628877 1.44509 0
M  V30 2777 C 285.072 -1.38733 1.37886 0
M  V30 2778 C 285.452 -2.11065 0.0387008 0
M  V30 2779 O 284.8 -2.06476 -0.97878 0
M  V30 2780 C 285.01 -2.35188 2.57852 0
M  V30 2781 C 286.358 -2.9845 3.02014 0
M  V30 2782 O 287.382 -2.45513 2.58073 0
M  V30 2783 O 286.241 -3.94487 3.78209 0
M  V30 2784 H 283.335 -0.621015 0.54614 0
M  V30 2785 H 285.881 -0.653744 1.56602 0
M  V30 2786 H 284.653 -1.80855 3.46998 0
M  V30 2787 H 284.276 -3.1596 2.4136 0
M  V30 2788 N 285.273 -1.31445 -0.869486 0
M  V30 2789 C 286.498 -1.24256 -1.66058 0
M  V30 2790 C 286.923 0.188928 -1.87149 0
M  V30 2791 O 286.281 1.13522 -1.4136 0
M  V30 2792 C 286.329 -1.9924 -3.00559 0
M  V30 2793 O 285.433 -1.33007 -3.90362 0
M  V30 2794 H 284.774 -0.428973 -0.506831 0
M  V30 2795 H 287.304 -1.73521 -1.08404 0
M  V30 2796 H 287.314 -2.08854 -3.50491 0
M  V30 2797 H 285.989 -3.03342 -2.84528 0
M  V30 2798 H 284.566 -1.31848 -3.48813 0
M  V30 2799 N 286.751 1.08385 -1.14413 0
M  V30 2800 C 287.976 1.85057 -0.936413 0
M  V30 2801 C 288.401 1.81055 0.509971 0
M  V30 2802 O 287.759 1.1958 1.36273 0
M  V30 2803 C 287.807 3.30505 -1.44217 0
M  V30 2804 O 286.911 4.07491 -0.634409 0
M  V30 2805 H 286.252 0.573425 -0.334784 0
M  V30 2806 H 288.782 1.36799 -1.52142 0
M  V30 2807 H 288.792 3.81348 -1.45043 0
M  V30 2808 H 287.467 3.32734 -2.49522 0
M  V30 2809 H 286.044 3.66368 -0.694902 0
M  V30 2810 N 288.23 0.939286 1.26551 0
M  V30 2811 C 289.641 0.628782 1.75793 0
M  V30 2812 C 289.992 -0.856046 1.7654 0
M  V30 2813 O 289.117 -1.66994 1.3763 0
M  V30 2814 C 289.712 1.13465 3.19235 0
M  V30 2815 C 288.271 0.874601 3.66098 0
M  V30 2816 C 287.418 1.28667 2.45642 0
M  V30 2817 H 290.369 1.1178 1.12654 0
M  V30 2818 H 290.39 0.487609 3.77363 0
M  V30 2819 H 289.902 2.21535 3.1866 0
M  V30 2820 H 288.003 -0.191793 3.72106 0
M  V30 2821 H 288.116 1.50028 4.55004 0
M  V30 2822 H 286.48 0.705109 2.44745 0
M  V30 2823 H 287.263 2.37625 2.47769 0
M  V30 2824 N 289.708 -1.40897 0.706093 0
M  V30 2825 C 290.948 -2.02916 0.245827 0
M  V30 2826 C 291.312 -1.54751 -1.13649 0
M  V30 2827 O 292.513 -2.08768 -1.69321 0
M  V30 2828 C 290.784 -3.56031 0.312537 0
M  V30 2829 S 292.343 -4.38741 -0.0721388 0
M  V30 2830 H 289.161 -0.704186 0.0982007 0
M  V30 2831 H 291.763 -1.72168 0.926207 0
M  V30 2832 H 290.467 -3.88579 1.32039 0
M  V30 2833 H 289.998 -3.91495 -0.386641 0
M  V30 2834 H 292.013 -4.78952 -1.29692 0
M  V30 2835 N 291.186 -0.45159 -1.50991 0
M  V30 2836 C 292.411 0.110667 -2.07105 0
M  V30 2837 C 292.836 1.3446 -1.31538 0
M  V30 2838 O 292.194 1.77743 -0.357365 0
M  V30 2839 C 292.242 0.397238 -3.58405 0
M  V30 2840 O 291.346 1.48124 -3.84881 0
M  V30 2841 H 290.687 -0.00439271 -0.663985 0
M  V30 2842 H 293.217 -0.637026 -1.9443 0
M  V30 2843 H 293.227 0.64351 -4.02893 0
M  V30 2844 H 291.902 -0.504553 -4.12828 0
M  V30 2845 H 290.479 1.22381 -3.52246 0
M  V30 2846 N 292.664 1.56529 -0.183458 0
M  V30 2847 C 293.627 2.17324 0.728223 0
M  V30 2848 C 294.627 1.12453 1.14939 0
M  V30 2849 O 295.817 1.37902 1.06437 0
M  V30 2850 C 292.949 2.76591 1.99274 0
M  V30 2851 H 294.142 2.99241 0.198772 0
M  V30 2852 H 291.695 1.5616 0.0661391 0
M  V30 2853 H 292.43 1.98441 2.56499 0
M  V30 2854 H 292.215 3.5335 1.69959 0
M  V30 2855 H 293.705 3.23311 2.6431 0
M  V30 2856 N 294.142 -0.090211 1.57342 0
M  V30 2857 C 295.389 -0.792807 1.86335 0
M  V30 2858 C 295.717 -1.78494 0.772662 0
M  V30 2859 O 294.972 -1.94305 -0.233258 0
M  V30 2860 C 295.271 -1.55222 3.21933 0
M  V30 2861 C 294.937 -0.701765 4.45406 0
M  V30 2862 C 293.599 -0.467334 4.78925 0
M  V30 2863 C 295.951 -0.11086 5.21082 0
M  V30 2864 C 293.279 0.367785 5.85546 0
M  V30 2865 C 295.631 0.711609 6.28585 0
M  V30 2866 C 294.295 0.956086 6.60617 0
M  V30 2867 H 293.565 -0.290109 0.681849 0
M  V30 2868 H 296.212 -0.0541332 1.91423 0
M  V30 2869 H 294.517 -2.3626 3.12551 0
M  V30 2870 H 296.214 -2.10032 3.41595 0
M  V30 2871 H 292.804 -0.894598 4.1916 0
M  V30 2872 H 296.988 -0.279129 4.95514 0
M  V30 2873 H 292.244 0.566128 6.08773 0
M  V30 2874 H 296.418 1.17632 6.86393 0
M  V30 2875 H 294.045 1.60499 7.43064 0
M  V30 2876 N 295.62 -1.53406 -0.361157 0
M  V30 2877 C 296.53 -1.83122 -1.4664 0
M  V30 2878 C 297.546 -0.719943 -1.58407 0
M  V30 2879 O 298.722 -1.01046 -1.74218 0
M  V30 2880 C 295.787 -2.01891 -2.81853 0
M  V30 2881 C 294.848 -3.25784 -2.79577 0
M  V30 2882 C 294.081 -3.43648 -4.0834 0
M  V30 2883 O 294.304 -2.65714 -5.0473 0
M  V30 2884 O 293.238 -4.37018 -4.13883 0
M  V30 2885 H 297.064 -2.7703 -1.24451 0
M  V30 2886 H 294.649 -1.38841 -0.551678 0
M  V30 2887 H 296.531 -2.15782 -3.61962 0
M  V30 2888 H 295.206 -1.11173 -3.0401 0
M  V30 2889 H 294.113 -3.17312 -1.98151 0
M  V30 2890 H 295.446 -4.16439 -2.62373 0
M  V30 2891 N 297.098 0.621204 -1.44841 0
M  V30 2892 C 298.345 1.38055 -1.48145 0
M  V30 2893 C 298.673 1.94143 -0.117867 0
M  V30 2894 O 297.928 1.74713 0.881694 0
M  V30 2895 C 298.227 2.55675 -2.4973 0
M  V30 2896 C 297.893 2.17817 -3.94799 0
M  V30 2897 C 296.555 2.07205 -4.34303 0
M  V30 2898 C 298.907 1.88065 -4.86087 0
M  V30 2899 C 296.235 1.65045 -5.63007 0
M  V30 2900 C 298.587 1.47394 -6.15189 0
M  V30 2901 C 297.251 1.35331 -6.53637 0
M  V30 2902 H 296.521 0.505181 -0.542101 0
M  V30 2903 H 299.168 0.703477 -1.78111 0
M  V30 2904 H 297.473 3.2866 -2.13284 0
M  V30 2905 H 299.17 3.13904 -2.4953 0
M  V30 2906 H 295.76 2.26998 -3.63552 0
M  V30 2907 H 299.944 1.95168 -4.56315 0
M  V30 2908 H 295.2 1.54317 -5.91605 0
M  V30 2909 H 299.374 1.23415 -6.85377 0
M  V30 2910 H 297.001 1.02435 -7.53267 0
M  V30 2911 N 298.576 1.31904 0.862503 0
M  V30 2912 C 299.526 1.16772 1.95827 0
M  V30 2913 C 300.51 0.0767098 1.60717 0
M  V30 2914 O 301.702 0.302407 1.74398 0
M  V30 2915 C 298.831 0.884858 3.317 0
M  V30 2916 C 297.917 2.0172 3.73055 0
M  V30 2917 N 298.308 3.265 3.86305 0
M  V30 2918 C 296.606 1.91861 4.02623 0
M  V30 2919 C 297.307 4.00616 4.2176 0
M  V30 2920 N 296.283 3.28847 4.32852 0
M  V30 2921 H 300.085 2.11382 2.04193 0
M  V30 2922 H 297.599 1.2357 1.05377 0
M  V30 2923 H 299.596 0.757419 4.09962 0
M  V30 2924 H 298.256 -0.0529448 3.24657 0
M  V30 2925 H 299.267 3.61529 3.70833 0
M  V30 2926 H 295.944 1.05593 4.03926 0
M  V30 2927 H 297.334 5.08182 4.39546 0
M  V30 2928 N 300.054 -1.07777 1.14986 0
M  V30 2929 C 301.294 -1.81888 0.932527 0
M  V30 2930 C 301.658 -1.84509 -0.531064 0
M  V30 2931 O 302.859 -2.54448 -0.866577 0
M  V30 2932 C 301.13 -3.23244 1.52473 0
M  V30 2933 S 302.689 -4.14154 1.44989 0
M  V30 2934 H 299.507 -0.626752 0.335712 0
M  V30 2935 H 302.109 -1.29503 1.46455 0
M  V30 2936 H 300.813 -3.18922 2.58296 0
M  V30 2937 H 300.344 -3.80704 0.991381 0
M  V30 2938 H 302.359 -4.94247 0.439799 0
M  V30 2939 N 301.532 -0.945985 -1.26051 0
M  V30 2940 C 302.462 -0.477172 -2.28572 0
M  V30 2941 C 303.443 0.472032 -1.63419 0
M  V30 2942 O 304.628 0.372853 -1.90587 0
M  V30 2943 C 301.758 0.253975 -3.4637 0
M  V30 2944 C 300.712 -0.609135 -4.23643 0
M  V30 2945 C 300.038 0.252252 -5.34105 0
M  V30 2946 C 301.338 -1.8829 -4.8718 0
M  V30 2947 H 303.032 -1.33402 -2.68038 0
M  V30 2948 H 300.578 -0.642904 -1.28852 0
M  V30 2949 H 302.531 0.593016 -4.17207 0
M  V30 2950 H 301.255 1.145 -3.05871 0
M  V30 2951 H 299.914 -0.931138 -3.54578 0
M  V30 2952 H 299.562 1.14278 -4.89846 0
M  V30 2953 H 299.262 -0.32188 -5.86718 0
M  V30 2954 H 300.786 0.586454 -6.07777 0
M  V30 2955 H 302.2 -1.61081 -5.50205 0
M  V30 2956 H 300.597 -2.40199 -5.49931 0
M  V30 2957 H 301.667 -2.59134 -4.09851 0
M  V30 2958 N 303.011 1.40521 -0.713556 0
M  V30 2959 C 304.236 2.05759 -0.26035 0
M  V30 2960 C 304.661 1.53403 1.08854 0
M  V30 2961 O 304.019 0.668535 1.68524 0
M  V30 2962 C 304.067 3.59745 -0.248122 0
M  V30 2963 O 303.171 4.05123 0.77131 0
M  V30 2964 H 302.512 0.652564 -0.122703 0
M  V30 2965 H 305.042 1.79958 -0.973467 0
M  V30 2966 H 305.052 4.07911 -0.0851129 0
M  V30 2967 H 303.727 3.97218 -1.2325 0
M  V30 2968 H 302.304 3.68422 0.57619 0
M  V30 2969 N 304.489 0.459591 1.5075 0
M  V30 2970 C 305.737 -0.0991532 2.01857 0
M  V30 2971 C 306.058 -1.41247 1.34441 0
M  V30 2972 O 305.328 -1.89775 0.486022 0
M  V30 2973 H 303.908 -0.039633 0.745948 0
M  V30 2974 H 306.57 0.607387 1.85194 0
M  V30 2975 H 305.666 -0.258998 3.11023 0
M  V30 2976 N 305.967 -1.56429 0.191757 0
M  V30 2977 C 306.877 -2.22541 -0.742481 0
M  V30 2978 C 307.893 -1.22342 -1.23727 0
M  V30 2979 O 309.069 -1.55069 -1.28513 0
M  V30 2980 C 306.134 -2.8692 -1.94623 0
M  V30 2981 C 305.195 -4.02378 -1.49633 0
M  V30 2982 C 304.428 -4.63678 -2.6427 0
M  V30 2983 O 304.651 -4.23895 -3.81666 0
M  V30 2984 O 303.585 -5.53202 -2.37174 0
M  V30 2985 H 307.411 -3.02977 -0.209462 0
M  V30 2986 H 304.996 -1.49353 -0.0373832 0
M  V30 2987 H 306.878 -3.27663 -2.64982 0
M  V30 2988 H 305.553 -2.09466 -2.46791 0
M  V30 2989 H 304.46 -3.66265 -0.761636 0
M  V30 2990 H 305.793 -4.81487 -1.02134 0
M  V30 2991 N 307.445 0.0818655 -1.57387 0
M  V30 2992 C 308.685 0.788375 -1.88584 0
M  V30 2993 C 309.049 1.75248 -0.784351 0
M  V30 2994 O 310.25 2.50334 -0.979105 0
M  V30 2995 C 308.521 1.48654 -3.25018 0
M  V30 2996 S 310.08 2.22951 -3.7794 0
M  V30 2997 H 306.898 0.262383 -0.660815 0
M  V30 2998 H 309.5 0.0448995 -1.95448 0
M  V30 2999 H 308.204 0.770919 -4.03094 0
M  V30 3000 H 307.735 2.26965 -3.21326 0
M  V30 3001 H 309.75 3.49309 -3.52417 0
M  V30 3002 N 308.923 1.53595 0.353017 0
M  V30 3003 C 310.172 1.69603 1.09168 0
M  V30 3004 C 310.485 0.460925 1.90092 0
M  V30 3005 O 311.691 0.501774 2.66823 0
M  V30 3006 C 310.147 2.99872 1.9901 0
M  V30 3007 C 309.755 4.30687 1.23339 0
M  V30 3008 C 311.499 3.25246 2.72792 0
M  V30 3009 C 309.406 5.52036 2.12156 0
M  V30 3010 H 308.336 0.631966 0.411261 0
M  V30 3011 H 310.987 1.80096 0.351802 0
M  V30 3012 H 309.369 2.83212 2.7678 0
M  V30 3013 H 310.543 4.58019 0.505456 0
M  V30 3014 H 308.858 4.11853 0.613663 0
M  V30 3015 H 311.455 4.13095 3.39495 0
M  V30 3016 H 311.798 2.41846 3.38846 0
M  V30 3017 H 312.331 3.42638 2.021 0
M  V30 3018 H 309.07 6.37951 1.50659 0
M  V30 3019 H 308.59 5.28966 2.82764 0
M  V30 3020 H 310.269 5.87313 2.71427 0
M  V30 3021 N 310.401 -0.613514 1.45168 0
M  V30 3022 C 311.351 -1.71871 1.49815 0
M  V30 3023 C 312.335 -1.56774 0.362021 0
M  V30 3024 O 313.527 -1.66212 0.608493 0
M  V30 3025 C 310.656 -3.1061 1.46207 0
M  V30 3026 C 309.742 -3.31114 2.64999 0
M  V30 3027 N 310.133 -3.21904 3.90143 0
M  V30 3028 C 308.431 -3.61966 2.6057 0
M  V30 3029 C 309.132 -3.43577 4.69393 0
M  V30 3030 N 308.108 -3.67287 4.00751 0
M  V30 3031 H 311.91 -1.63235 2.444 0
M  V30 3032 H 309.424 -0.816577 1.40377 0
M  V30 3033 H 311.421 -3.8989 1.4762 0
M  V30 3034 H 310.081 -3.20399 0.52673 0
M  V30 3035 H 311.092 -3.00436 4.21852 0
M  V30 3036 H 307.769 -3.78629 1.75916 0
M  V30 3037 H 309.159 -3.41901 5.78406 0
M  V30 3038 N 311.879 -1.3236 -0.855495 0
M  V30 3039 C 313.104 -1.2601 -1.64731 0
M  V30 3040 C 313.529 0.169068 -1.87339 0
M  V30 3041 O 312.887 1.12016 -1.42556 0
M  V30 3042 C 312.935 -2.02417 -2.98429 0
M  V30 3043 O 312.039 -1.3714 -3.8893 0
M  V30 3044 H 311.38 -0.434325 -0.502253 0
M  V30 3045 H 313.91 -1.74661 -1.06558 0
M  V30 3046 H 313.92 -2.12559 -3.48257 0
M  V30 3047 H 312.595 -3.06343 -2.81295 0
M  V30 3048 H 311.172 -1.3554 -3.47395 0
M  V30 3049 N 313.357 1.07166 -1.15556 0
M  V30 3050 C 314.582 1.84053 -0.955988 0
M  V30 3051 C 315.007 1.81586 0.490739 0
M  V30 3052 O 314.365 1.21018 1.34997 0
M  V30 3053 C 314.413 3.28957 -1.47714 0
M  V30 3054 O 313.517 4.06795 -0.677593 0
M  V30 3055 H 312.858 0.569842 -0.340847 0
M  V30 3056 H 315.388 1.35178 -1.53584 0
M  V30 3057 H 315.398 3.79788 -1.4908 0
M  V30 3058 H 314.073 3.30068 -2.53037 0
M  V30 3059 H 312.65 3.6561 -0.733721 0
M  V30 3060 N 314.835 0.952656 1.25548 0
M  V30 3061 C 316.081 0.616826 1.93822 0
M  V30 3062 C 316.436 -0.836684 1.73255 0
M  V30 3063 O 315.729 -1.59218 1.06584 0
M  V30 3064 C 315.923 0.908818 3.45652 0
M  V30 3065 C 315.752 2.38916 3.80984 0
M  V30 3066 C 314.522 3.04637 4.03143 0
M  V30 3067 C 316.72 3.36838 3.88645 0
M  V30 3068 N 314.702 4.42565 4.25453 0
M  V30 3069 C 316.073 4.60065 4.1562 0
M  V30 3070 C 318.128 3.31704 3.71318 0
M  V30 3071 C 316.831 5.78795 4.2707 0
M  V30 3072 C 318.857 4.4977 3.84006 0
M  V30 3073 C 318.219 5.71783 4.11392 0
M  V30 3074 H 314.318 0.27629 0.731565 0
M  V30 3075 H 316.902 1.22443 1.5138 0
M  V30 3076 H 315.073 0.330166 3.86994 0
M  V30 3077 H 316.805 0.533093 4.01174 0
M  V30 3078 H 313.56 2.55215 3.98952 0
M  V30 3079 H 313.984 5.1399 4.40617 0
M  V30 3080 H 318.626 2.3842 3.49164 0
M  V30 3081 H 316.344 6.72521 4.48041 0
M  V30 3082 H 319.93 4.47342 3.71989 0
M  V30 3083 H 318.81 6.61617 4.2099 0
M  V30 3084 N 316.313 -1.40141 0.720998 0
M  V30 3085 C 317.729 -1.54632 0.395113 0
M  V30 3086 C 317.929 -1.69115 -1.09555 0
M  V30 3087 O 316.985 -1.68377 -1.88163 0
M  V30 3088 C 318.298 -2.77177 1.1659 0
M  V30 3089 C 319.846 -2.91 1.15274 0
M  V30 3090 C 320.321 -4.16465 1.90579 0
M  V30 3091 N 321.812 -4.23476 1.87675 0
M  V30 3092 C 322.547 -5.19475 2.42762 0
M  V30 3093 N 322.043 -6.21348 3.06428 0
M  V30 3094 N 323.836 -5.11592 2.32874 0
M  V30 3095 H 315.987 -1.28986 1.68749 0
M  V30 3096 H 318.25 -0.62412 0.713567 0
M  V30 3097 H 317.956 -2.72771 2.22011 0
M  V30 3098 H 317.83 -3.69442 0.76108 0
M  V30 3099 H 320.217 -2.94907 0.106702 0
M  V30 3100 H 320.298 -1.99838 1.59682 0
M  V30 3101 H 319.942 -4.1332 2.95176 0
M  V30 3102 H 319.872 -5.06646 1.43587 0
M  V30 3103 H 322.363 -3.50497 1.41281 0
M  V30 3104 H 322.676 -6.91034 3.45965 0
M  V30 3105 H 321.021 -6.21777 3.10514 0
M  V30 3106 H 324.212 -4.30936 1.82789 0
M  V30 3107 H 324.385 -5.86233 2.76106 0
M  V30 3108 N 317.792 -0.46758 -1.50504 0
M  V30 3109 C 319.032 0.0874114 -2.04213 0
M  V30 3110 C 319.396 1.37301 -1.34211 0
M  V30 3111 O 320.597 2.01015 -1.78456 0
M  V30 3112 C 318.868 0.270571 -3.56374 0
M  V30 3113 S 320.427 0.784623 -4.31728 0
M  V30 3114 H 317.245 0.0176153 -0.710782 0
M  V30 3115 H 319.847 -0.633915 -1.84937 0
M  V30 3116 H 318.551 -0.670942 -4.04878 0
M  V30 3117 H 318.082 1.01811 -3.79997 0
M  V30 3118 H 320.097 2.05849 -4.51487 0
M  V30 3119 N 319.27 1.56325 -0.20005 0
M  V30 3120 C 320.547 1.89484 0.48529 0
M  V30 3121 C 320.927 1.1143 1.79294 0
M  V30 3122 O 320.275 0.216919 2.27468 0
M  V30 3123 C 320.485 3.41923 0.699243 0
M  V30 3124 C 321.833 4.12256 1.01638 0
M  V30 3125 O 322.857 3.47402 0.786792 0
M  V30 3126 O 321.716 5.26887 1.45095 0
M  V30 3127 H 318.81 0.787144 0.253639 0
M  V30 3128 H 321.356 1.67985 -0.240633 0
M  V30 3129 H 320.128 3.90658 -0.224008 0
M  V30 3130 H 319.751 3.69131 1.47744 0
M  V30 3131 N 320.748 -0.0735177 1.57428 0
M  V30 3132 C 321.996 -0.771472 1.86796 0
M  V30 3133 C 322.317 -1.78201 0.791804 0
M  V30 3134 O 321.587 -1.95074 -0.179718 0
M  V30 3135 H 320.167 -0.28791 0.689287 0
M  V30 3136 H 322.829 -0.0500161 1.94836 0
M  V30 3137 H 321.925 -1.28874 2.8425 0
M  V30 3138 N 322.226 -1.5378 -0.344866 0
M  V30 3139 C 323.474 -1.70625 -1.08311 0
M  V30 3140 C 323.795 -0.471447 -1.89215 0
M  V30 3141 O 323.065 0.514616 -1.8902 0
M  V30 3142 H 321.645 -0.629058 -0.402859 0
M  V30 3143 H 324.307 -1.9103 -0.386459 0
M  V30 3144 H 323.403 -2.57656 -1.76124 0
M  V30 3145 N 323.704 0.605807 -1.45491 0
M  V30 3146 C 325.115 1.18777 -1.44045 0
M  V30 3147 C 325.466 1.95471 -0.169001 0
M  V30 3148 O 324.591 2.0374 0.729324 0
M  V30 3149 C 325.186 2.16064 -2.60963 0
M  V30 3150 C 323.745 2.69633 -2.62631 0
M  V30 3151 C 322.892 1.45072 -2.36325 0
M  V30 3152 H 325.843 0.395017 -1.53705 0
M  V30 3153 H 325.864 2.9913 -2.35163 0
M  V30 3154 H 325.376 1.60217 -3.53486 0
M  V30 3155 H 323.477 3.29414 -1.74119 0
M  V30 3156 H 323.59 3.13944 -3.61906 0
M  V30 3157 H 321.954 1.74089 -1.85917 0
M  V30 3158 H 322.737 0.910899 -3.30995 0
M  V30 3159 N 325.182 1.32811 0.848464 0
M  V30 3160 C 326.459 1.14334 1.58704 0
M  V30 3161 C 326.839 -0.293948 2.09043 0
M  V30 3162 O 326.187 -1.29153 1.88499 0
M  V30 3163 C 326.397 2.17626 2.72837 0
M  V30 3164 C 327.745 2.51282 3.42261 0
M  V30 3165 O 328.769 2.16219 2.83068 0
M  V30 3166 O 327.628 3.11413 4.49093 0
M  V30 3167 H 324.722 0.441601 0.699226 0
M  V30 3168 H 327.268 1.44362 0.892053 0
M  V30 3169 H 326.04 3.14211 2.3321 0
M  V30 3170 H 325.663 1.88628 3.50008 0
M  V30 3171 N 326.66 -1.06551 1.16123 0
M  V30 3172 C 327.9 -1.80889 0.951766 0
M  V30 3173 C 328.264 -1.85062 -0.511465 0
M  V30 3174 O 329.465 -2.55353 -0.83954 0
M  V30 3175 C 327.736 -3.21609 1.55893 0
M  V30 3176 S 329.295 -4.12593 1.49373 0
M  V30 3177 H 326.113 -0.623156 0.342341 0
M  V30 3178 H 328.715 -1.27943 1.47821 0
M  V30 3179 H 327.419 -3.16165 2.61664 0
M  V30 3180 H 326.95 -3.79631 1.0317 0
M  V30 3181 H 328.965 -4.93753 0.492196 0
M  V30 3182 N 328.138 -0.959301 -1.25041 0
M  V30 3183 C 329.085 -0.482057 -2.2571 0
M  V30 3184 C 330.055 0.467939 -1.59372 0
M  V30 3185 O 331.24 0.380159 -1.86974 0
M  V30 3186 C 328.38 0.229623 -3.44335 0
M  V30 3187 C 327.493 -0.758156 -4.25295 0
M  V30 3188 C 326.628 -0.0234403 -5.31195 0
M  V30 3189 C 325.667 -1.00184 -6.03846 0
M  V30 3190 N 324.804 -0.29769 -7.01469 0
M  V30 3191 H 329.644 -1.34538 -2.65901 0
M  V30 3192 H 327.181 -0.674592 -1.3072 0
M  V30 3193 H 329.139 0.658856 -4.11965 0
M  V30 3194 H 327.769 1.05696 -3.05005 0
M  V30 3195 H 326.821 -1.30586 -3.57284 0
M  V30 3196 H 328.133 -1.50458 -4.75567 0
M  V30 3197 H 327.287 0.464201 -6.04922 0
M  V30 3198 H 326.026 0.755741 -4.81809 0
M  V30 3199 H 325.031 -1.50044 -5.2893 0
M  V30 3200 H 326.256 -1.78133 -6.55321 0
M  V30 3201 H 324.202 0.462668 -6.54366 0
M  V30 3202 H 324.119 -0.983128 -7.4958 0
M  V30 3203 H 325.387 0.16826 -7.79318 0
M  V30 3204 N 329.616 1.39756 -0.72842 0
M  V30 3205 C 330.893 1.94574 -0.200079 0
M  V30 3206 C 331.273 1.66569 1.29684 0
M  V30 3207 O 330.621 0.990326 2.05924 0
M  V30 3208 C 330.831 3.45004 -0.526608 0
M  V30 3209 C 332.179 4.21965 -0.472318 0
M  V30 3210 O 333.203 3.53173 -0.463413 0
M  V30 3211 O 332.062 5.44552 -0.461075 0
M  V30 3212 H 329.156 0.826289 -0.0342851 0
M  V30 3213 H 331.702 1.49293 -0.806829 0
M  V30 3214 H 330.474 3.58796 -1.56144 0
M  V30 3215 H 330.097 3.97449 0.109449 0
M  V30 3216 N 331.094 0.475555 1.50254 0
M  V30 3217 C 332.041 -0.316293 2.28622 0
M  V30 3218 C 333.011 -0.983227 1.33873 0
M  V30 3219 O 334.196 -0.994805 1.62814 0
M  V30 3220 C 331.336 -1.38975 3.1588 0
M  V30 3221 C 330.449 -0.737146 4.25664 0
M  V30 3222 C 329.584 -1.78887 5.00173 0
M  V30 3223 C 328.623 -1.11676 6.01826 0
M  V30 3224 N 327.76 -2.11154 6.69596 0
M  V30 3225 H 332.6 0.358297 2.95838 0
M  V30 3226 H 330.137 0.188541 1.45887 0
M  V30 3227 H 332.095 -2.02383 3.64825 0
M  V30 3228 H 330.725 -2.03344 2.50701 0
M  V30 3229 H 329.777 0.0096065 3.80399 0
M  V30 3230 H 331.089 -0.206816 4.98371 0
M  V30 3231 H 330.243 -2.49865 5.52859 0
M  V30 3232 H 328.982 -2.35302 4.27182 0
M  V30 3233 H 327.987 -0.392633 5.48396 0
M  V30 3234 H 329.212 -0.55945 6.76792 0
M  V30 3235 H 327.158 -2.66577 5.99394 0
M  V30 3236 H 327.075 -1.63118 7.38193 0
M  V30 3237 H 328.343 -2.81497 7.26897 0
M  V30 3238 N 332.573 -1.56217 0.208337 0
M  V30 3239 C 333.798 -2.02782 -0.435222 0
M  V30 3240 C 334.223 -1.08738 -1.53485 0
M  V30 3241 O 333.581 -0.0731855 -1.81152 0
M  V30 3242 C 333.629 -3.47687 -0.956335 0
M  V30 3243 O 332.733 -3.56773 -2.06849 0
M  V30 3244 H 332.074 -0.656403 -0.100158 0
M  V30 3245 H 334.604 -2.02033 0.3231 0
M  V30 3246 H 334.614 -3.87745 -1.26955 0
M  V30 3247 H 333.289 -4.15624 -0.15143 0
M  V30 3248 H 331.866 -3.28597 -1.76292 0
M  V30 3249 N 334.051 0.0651679 -1.57465 0
M  V30 3250 C 335.328 0.79644 -1.78651 0
M  V30 3251 C 335.708 1.95454 -0.797566 0
M  V30 3252 O 335.056 2.27882 0.167946 0
M  V30 3253 C 335.266 1.26322 -3.25337 0
M  V30 3254 C 336.614 1.6939 -3.89348 0
M  V30 3255 O 337.638 1.35872 -3.29268 0
M  V30 3256 O 336.497 2.31471 -4.95059 0
M  V30 3257 H 333.591 0.382157 -0.733407 0
M  V30 3258 H 336.137 0.0447311 -1.69641 0
M  V30 3259 H 334.909 0.434859 -3.88876 0
M  V30 3260 H 334.532 2.07604 -3.39096 0
M  V30 3261 N 335.529 1.53961 0.336706 0
M  V30 3262 C 336.439 1.85432 1.43708 0
M  V30 3263 C 337.455 0.745053 1.57242 0
M  V30 3264 O 338.631 1.03804 1.72588 0
M  V30 3265 C 335.696 2.06349 2.78605 0
M  V30 3266 C 334.757 3.30191 2.74358 0
M  V30 3267 C 333.99 3.50101 4.02822 0
M  V30 3268 O 334.213 2.7371 5.00439 0
M  V30 3269 O 333.147 4.43547 4.06878 0
M  V30 3270 H 336.973 2.78975 1.20028 0
M  V30 3271 H 334.558 1.39701 0.52952 0
M  V30 3272 H 336.44 2.21513 3.58483 0
M  V30 3273 H 335.115 1.15995 3.02203 0
M  V30 3274 H 334.022 3.20425 1.93078 0
M  V30 3275 H 335.355 4.2056 2.55715 0
M  V30 3276 N 337.007 -0.598083 1.45811 0
M  V30 3277 C 337.917 -1.73632 1.57763 0
M  V30 3278 C 338.933 -1.67763 0.461676 0
M  V30 3279 O 340.109 -1.87949 0.723685 0
M  V30 3280 C 337.174 -3.10114 1.55018 0
M  V30 3281 C 336.235 -3.27364 2.77726 0
M  V30 3282 C 335.468 -4.57334 2.75102 0
M  V30 3283 O 335.691 -5.40258 1.8297 0
M  V30 3284 O 334.625 -4.77502 3.66437 0
M  V30 3285 H 338.451 -1.66498 2.53992 0
M  V30 3286 H 336.036 -0.763308 1.28429 0
M  V30 3287 H 337.918 -3.9141 1.56129 0
M  V30 3288 H 336.593 -3.17718 0.619431 0
M  V30 3289 H 335.5 -2.45619 2.82174 0
M  V30 3290 H 336.833 -3.24641 3.69958 0
M  V30 3291 N 338.485 -1.33259 -0.841409 0
M  V30 3292 C 339.433 -1.23279 -1.97244 0
M  V30 3293 C 340.427 -0.134706 -1.68864 0
M  V30 3294 O 341.633 -0.298501 -1.77508 0
M  V30 3295 H 338.008 -0.382497 -0.647457 0
M  V30 3296 H 339.979 -2.18906 -2.02787 0
M  V30 3297 C 338.728 -0.986268 -3.33419 0
M  V30 3298 H 338.051 -1.82347 -3.55794 0
M  V30 3299 H 339.491 -0.956728 -4.13065 0
M  V30 3300 C 337.95 0.310842 -3.35463 0
M  V30 3301 O 338.48 1.31838 -3.79449 0
M  V30 3302 N 336.686 0.337485 -2.88634 0
M  V30 3303 H 336.233 -0.482967 -2.53032 0
M  V30 3304 H 336.191 1.20518 -2.90384 0
M  V30 3305 N 339.963 1.05934 -1.16686 0
M  V30 3306 C 341.203 1.80382 -0.961345 0
M  V30 3307 C 341.567 1.85331 0.501643 0
M  V30 3308 O 342.768 2.55795 0.825986 0
M  V30 3309 C 341.039 3.20777 -1.57596 0
M  V30 3310 S 342.598 4.11795 -1.51559 0
M  V30 3311 H 339.416 0.621332 -0.345641 0
M  V30 3312 H 342.018 1.27157 -1.48497 0
M  V30 3313 H 340.722 3.14773 -2.63337 0
M  V30 3314 H 340.253 3.79078 -1.05182 0
M  V30 3315 H 342.268 4.93485 -0.518374 0
M  V30 3316 N 341.441 0.965919 1.2453 0
M  V30 3317 C 342.404 0.499547 2.2369 0
M  V30 3318 C 343.404 -0.40294 1.5567 0
M  V30 3319 O 344.594 -0.19865 1.73064 0
M  V30 3320 C 341.726 -0.276792 3.39774 0
M  V30 3321 H 342.919 1.37613 2.66463 0
M  V30 3322 H 340.472 0.750324 1.37112 0
M  V30 3323 H 341.207 -1.17055 3.02438 0
M  V30 3324 H 340.992 0.370826 3.90343 0
M  V30 3325 H 342.482 -0.592175 4.1338 0
M  V30 3326 N 342.919 -1.39368 0.735821 0
M  V30 3327 C 344.165 -2.00794 0.284544 0
M  V30 3328 C 344.498 -1.58255 -1.12557 0
M  V30 3329 O 343.773 -0.811819 -1.76748 0
M  V30 3330 C 344.056 -3.58011 0.387337 0
M  V30 3331 C 343.909 -4.10566 1.83728 0
M  V30 3332 C 345.228 -4.395 -0.22975 0
M  V30 3333 H 342.347 -0.729501 0.104866 0
M  V30 3334 H 344.989 -1.65564 0.93213 0
M  V30 3335 H 343.139 -3.88154 -0.164006 0
M  V30 3336 H 344.811 -3.91139 2.44556 0
M  V30 3337 H 343.054 -3.64095 2.35833 0
M  V30 3338 H 343.725 -5.19702 1.86047 0
M  V30 3339 H 346.201 -4.15406 0.240257 0
M  V30 3340 H 345.077 -5.48752 -0.127485 0
M  V30 3341 H 345.338 -4.22062 -1.3159 0
M  V30 3342 N 344.397 -0.483516 -1.5 0
M  V30 3343 C 345.36 0.292965 -2.2732 0
M  V30 3344 C 346.36 0.909499 -1.32608 0
M  V30 3345 O 347.55 0.776745 -1.55924 0
M  V30 3346 C 344.682 1.41854 -3.09984 0
M  V30 3347 H 345.875 -0.385289 -2.97415 0
M  V30 3348 H 343.428 -0.237942 -1.54478 0
M  V30 3349 H 344.163 2.13148 -2.44414 0
M  V30 3350 H 343.948 0.982114 -3.79601 0
M  V30 3351 H 345.438 1.96597 -3.68429 0
M  V30 3352 N 345.875 1.56104 -0.216619 0
M  V30 3353 C 347.103 2.02563 0.421413 0
M  V30 3354 C 347.518 1.0965 1.53695 0
M  V30 3355 O 346.875 0.10521 1.82196 0
M  V30 3356 C 346.926 3.48584 0.957665 0
M  V30 3357 O 346.647 4.37953 -0.113389 0
M  V30 3358 C 348.148 4.10664 1.66943 0
M  V30 3359 H 345.368 0.662944 0.103665 0
M  V30 3360 H 347.912 2.01793 -0.331629 0
M  V30 3361 H 346.067 3.49985 1.661 0
M  V30 3362 H 346.481 5.23704 0.288932 0
M  V30 3363 H 347.955 5.14622 1.99671 0
M  V30 3364 H 348.432 3.55373 2.58083 0
M  V30 3365 H 349.038 4.13098 1.01142 0
M  V30 3366 N 347.353 -0.0568162 1.57498 0
M  V30 3367 C 348.593 -0.758273 1.89815 0
M  V30 3368 C 348.957 -1.73978 0.812132 0
M  V30 3369 O 350.158 -2.48744 1.01881 0
M  V30 3370 C 348.429 -1.43465 3.27342 0
M  V30 3371 S 349.988 -2.1691 3.81439 0
M  V30 3372 H 346.806 -0.251836 0.664906 0
M  V30 3373 H 349.408 -0.0137997 1.95495 0
M  V30 3374 H 348.112 -0.706693 4.0427 0
M  V30 3375 H 347.643 -2.21825 3.24896 0
M  V30 3376 H 349.658 -3.43658 3.5793 0
M  V30 3377 N 348.832 -1.54138 -0.328536 0
M  V30 3378 C 350.248 -1.44736 -0.672574 0
M  V30 3379 C 350.448 -0.616217 -1.91846 0
M  V30 3380 O 349.504 -0.113067 -2.52247 0
M  V30 3381 C 350.817 -2.884 -0.851217 0
M  V30 3382 C 352.365 -2.98271 -0.948877 0
M  V30 3383 C 352.84 -4.43074 -1.15973 0
M  V30 3384 N 354.331 -4.46665 -1.22658 0
M  V30 3385 C 355.066 -5.55857 -1.40751 0
M  V30 3386 N 354.562 -6.75026 -1.5592 0
M  V30 3387 N 356.355 -5.43495 -1.4342 0
M  V30 3388 H 348.506 -2.06661 0.490421 0
M  V30 3389 H 350.769 -0.934812 0.157579 0
M  V30 3390 H 350.475 -3.51699 -0.00704236 0
M  V30 3391 H 350.349 -3.34225 -1.74853 0
M  V30 3392 H 352.736 -2.35102 -1.78356 0
M  V30 3393 H 352.817 -2.55785 -0.0281435 0
M  V30 3394 H 352.461 -5.06827 -0.329915 0
M  V30 3395 H 352.391 -4.83165 -2.09426 0
M  V30 3396 H 354.882 -3.60797 -1.124 0
M  V30 3397 H 355.195 -7.54004 -1.69404 0
M  V30 3398 H 353.54 -6.77944 -1.53027 0
M  V30 3399 H 356.731 -4.49349 -1.31162 0
M  V30 3400 H 356.904 -6.28649 -1.57178 0
M  V30 3401 N 350.31 0.590341 -1.46126 0
M  V30 3402 C 351.721 1.17243 -1.45296 0
M  V30 3403 C 352.072 1.95281 -0.189723 0
M  V30 3404 O 351.197 2.04502 0.707674 0
M  V30 3405 C 351.792 2.13284 -2.6324 0
M  V30 3406 C 350.351 2.66832 -2.65476 0
M  V30 3407 C 349.498 1.42557 -2.3785 0
M  V30 3408 H 352.449 0.378692 -1.54116 0
M  V30 3409 H 352.47 2.96619 -2.38323 0
M  V30 3410 H 351.982 1.56459 -3.55165 0
M  V30 3411 H 350.083 3.27548 -1.77603 0
M  V30 3412 H 350.196 3.10088 -3.65215 0
M  V30 3413 H 348.56 1.72107 -1.87753 0
M  V30 3414 H 349.343 0.875741 -3.31942 0
M  V30 3415 N 351.788 1.33704 0.83433 0
M  V30 3416 C 353.065 1.16011 1.57483 0
M  V30 3417 C 353.445 -0.27176 2.09343 0
M  V30 3418 O 352.793 -1.27146 1.89858 0
M  V30 3419 C 353.003 2.20507 2.70514 0
M  V30 3420 C 354.351 2.54898 3.39577 0
M  V30 3421 O 355.375 2.19209 2.80759 0
M  V30 3422 O 354.234 3.16158 4.45765 0
M  V30 3423 H 351.328 0.448992 0.694503 0
M  V30 3424 H 353.874 1.453 0.876691 0
M  V30 3425 H 352.646 3.16667 2.29865 0
M  V30 3426 H 352.269 1.92329 3.47987 0
M  V30 3427 N 353.266 -1.05314 1.17247 0
M  V30 3428 C 354.176 -2.16538 0.90268 0
M  V30 3429 C 355.192 -1.73523 -0.128707 0
M  V30 3430 O 356.368 -2.01337 0.0502701 0
M  V30 3431 C 353.433 -3.44167 0.418356 0
M  V30 3432 C 352.494 -4.01635 1.51618 0
M  V30 3433 C 351.727 -5.23171 1.05487 0
M  V30 3434 O 351.95 -5.70327 -0.0914715 0
M  V30 3435 O 350.884 -5.72848 1.8474 0
M  V30 3436 H 354.71 -2.42145 1.83302 0
M  V30 3437 H 352.295 -1.15037 0.953246 0
M  V30 3438 H 354.177 -4.21112 0.155726 0
M  V30 3439 H 352.852 -3.20063 -0.48385 0
M  V30 3440 H 351.759 -3.26135 1.83268 0
M  V30 3441 H 353.092 -4.30053 2.39405 0
M  V30 3442 N 354.744 -0.972509 -1.24016 0
M  V30 3443 C 355.991 -0.637034 -1.92219 0
M  V30 3444 C 356.319 0.828418 -1.75976 0
M  V30 3445 O 355.574 1.61206 -1.10955 0
M  V30 3446 C 355.873 -0.963694 -3.44162 0
M  V30 3447 C 355.539 -2.41807 -3.80579 0
M  V30 3448 C 354.201 -2.81556 -3.9023 0
M  V30 3449 C 356.553 -3.36172 -3.98293 0
M  V30 3450 C 353.881 -4.14702 -4.15017 0
M  V30 3451 C 356.233 -4.68952 -4.24578 0
M  V30 3452 C 354.897 -5.08472 -4.32449 0
M  V30 3453 H 354.167 -0.233107 -0.703379 0
M  V30 3454 H 356.814 -1.2249 -1.47202 0
M  V30 3455 H 355.119 -0.29365 -3.90698 0
M  V30 3456 H 356.816 -0.682449 -3.9515 0
M  V30 3457 H 353.406 -2.09988 -3.73635 0
M  V30 3458 H 357.59 -3.06644 -3.90234 0
M  V30 3459 H 352.846 -4.4494 -4.19331 0
M  V30 3460 H 357.02 -5.42037 -4.37229 0
M  V30 3461 H 354.647 -6.11665 -4.51409 0
M  V30 3462 N 356.222 1.38976 -0.743202 0
M  V30 3463 C 357.154 2.29096 -0.0689228 0
M  V30 3464 C 358.167 1.47229 0.694791 0
M  V30 3465 O 359.356 1.70212 0.537597 0
M  V30 3466 C 356.456 3.25988 0.926548 0
M  V30 3467 C 355.629 4.36833 0.222647 0
M  V30 3468 C 354.688 5.13981 1.12739 0
M  V30 3469 O 353.714 5.6601 0.601795 0
M  V30 3470 N 354.916 5.25966 2.45641 0
M  V30 3471 H 357.681 2.87604 -0.842846 0
M  V30 3472 H 355.242 1.50645 -0.593109 0
M  V30 3473 H 357.234 3.74476 1.5346 0
M  V30 3474 H 355.804 2.68453 1.60162 0
M  V30 3475 H 355.024 3.90116 -0.565983 0
M  V30 3476 H 356.312 5.0811 -0.264841 0
M  V30 3477 H 355.71 4.85228 2.9081 0
M  V30 3478 H 354.267 5.77865 3.01522 0
M  V30 3479 N 357.7 0.491464 1.49741 0
M  V30 3480 C 358.94 -0.0549118 2.04326 0
M  V30 3481 C 359.304 -1.35148 1.36378 0
M  V30 3482 O 360.505 -1.9815 1.81631 0
M  V30 3483 C 358.776 -0.213841 3.5676 0
M  V30 3484 S 360.335 -0.715839 4.32922 0
M  V30 3485 H 357.153 -0.00630513 0.710972 0
M  V30 3486 H 359.755 0.663257 1.83905 0
M  V30 3487 H 358.459 0.73527 4.0376 0
M  V30 3488 H 357.99 -0.957529 3.81569 0
M  V30 3489 H 360.005 -1.9864 4.54705 0
M  V30 3490 N 359.178 -1.55987 0.224894 0
M  V30 3491 C 360.403 -2.03232 -0.41369 0
M  V30 3492 C 360.828 -1.10359 -1.52323 0
M  V30 3493 O 360.186 -0.092395 -1.81064 0
M  V30 3494 C 360.234 -3.48682 -0.919405 0
M  V30 3495 O 359.338 -3.58947 -2.03054 0
M  V30 3496 H 358.679 -0.657428 -0.0931903 0
M  V30 3497 H 361.209 -2.01679 0.34451 0
M  V30 3498 H 361.219 -3.8907 -1.22835 0
M  V30 3499 H 359.894 -4.15761 -0.107339 0
M  V30 3500 H 358.471 -3.30448 -1.72796 0
M  V30 3501 N 360.656 0.0484629 -1.57525 0
M  V30 3502 C 361.933 0.777447 -1.79486 0
M  V30 3503 C 362.313 1.94597 -0.818251 0
M  V30 3504 O 361.661 2.28047 0.143767 0
M  V30 3505 C 361.871 1.22864 -3.26658 0
M  V30 3506 C 363.219 1.65251 -3.91123 0
M  V30 3507 O 364.243 1.32372 -3.3069 0
M  V30 3508 O 363.102 2.26207 -4.97486 0
M  V30 3509 H 360.196 0.374357 -0.737419 0
M  V30 3510 H 362.742 0.0267359 -1.69679 0
M  V30 3511 H 361.514 0.393589 -3.89316 0
M  V30 3512 H 361.137 2.03996 -3.41279 0
M  V30 3513 N 362.134 1.5431 0.320358 0
M  V30 3514 C 363.382 1.72327 1.05583 0
M  V30 3515 C 363.703 0.50149 1.88441 0
M  V30 3516 O 362.973 -0.48448 1.89815 0
M  V30 3517 H 361.553 0.635387 0.3928 0
M  V30 3518 H 364.215 1.91621 0.356019 0
M  V30 3519 H 363.311 2.60426 1.72003 0
M  V30 3520 N 363.613 -0.582584 1.46437 0
M  V30 3521 C 364.561 -1.71272 1.5738 0
M  V30 3522 C 365.555 -1.63524 0.44229 0
M  V30 3523 O 366.761 -1.69016 0.619166 0
M  V30 3524 H 363.136 -0.566273 0.494813 0
M  V30 3525 H 365.107 -1.59174 2.52401 0
M  V30 3526 C 363.856 -3.09658 1.58136 0
M  V30 3527 H 363.179 -3.16291 2.44541 0
M  V30 3528 H 364.619 -3.88494 1.69847 0
M  V30 3529 C 363.078 -3.3547 0.310026 0
M  V30 3530 O 363.608 -3.97199 -0.599683 0
M  V30 3531 N 361.814 -2.89925 0.197901 0
M  V30 3532 H 361.361 -2.39873 0.93909 0
M  V30 3533 H 361.319 -3.07568 -0.65185 0
M  V30 3534 N 365.091 -1.34144 -0.827227 0
M  V30 3535 C 366.331 -1.27603 -1.59677 0
M  V30 3536 C 366.695 0.153035 -1.91389 0
M  V30 3537 O 367.896 0.342566 -2.66608 0
M  V30 3538 C 366.167 -2.13784 -2.86411 0
M  V30 3539 S 367.726 -2.24552 -3.76991 0
M  V30 3540 H 364.544 -0.453789 -0.547354 0
M  V30 3541 H 367.146 -1.69309 -0.977479 0
M  V30 3542 H 365.85 -3.16627 -2.61104 0
M  V30 3543 H 365.381 -1.72959 -3.5334 0
M  V30 3544 H 367.396 -1.41514 -4.75593 0
M  V30 3545 N 366.569 1.04691 -1.17803 0
M  V30 3546 C 367.818 1.77176 -0.963931 0
M  V30 3547 C 368.131 1.88888 0.508015 0
M  V30 3548 O 369.337 2.58164 0.840465 0
M  V30 3549 C 367.793 3.18518 -1.67555 0
M  V30 3550 C 367.401 3.14919 -3.18637 0
M  V30 3551 C 369.145 3.95424 -1.54402 0
M  V30 3552 C 367.052 4.51081 -3.82466 0
M  V30 3553 H 365.982 0.664116 -0.357023 0
M  V30 3554 H 368.633 1.17303 -1.4111 0
M  V30 3555 H 367.015 3.78748 -1.15613 0
M  V30 3556 H 368.189 2.64178 -3.77554 0
M  V30 3557 H 366.504 2.51512 -3.31859 0
M  V30 3558 H 369.101 4.96106 -1.99456 0
M  V30 3559 H 369.444 4.13343 -0.495329 0
M  V30 3560 H 369.977 3.41754 -2.0359 0
M  V30 3561 H 366.716 4.38368 -4.87354 0
M  V30 3562 H 366.236 5.01951 -3.28337 0
M  V30 3563 H 367.915 5.2001 -3.84965 0
M  V30 3564 N 368.047 0.979072 1.23499 0
M  V30 3565 C 368.997 0.489378 2.22686 0
M  V30 3566 C 369.981 -0.434871 1.54912 0
M  V30 3567 O 371.173 -0.263941 1.75021 0
M  V30 3568 C 368.302 -0.208178 3.42668 0
M  V30 3569 C 367.388 0.735563 4.17672 0
M  V30 3570 N 367.779 1.87763 4.69658 0
M  V30 3571 C 366.077 0.548625 4.42613 0
M  V30 3572 C 366.778 2.46886 5.26709 0
M  V30 3573 N 365.754 1.75287 5.14563 0
M  V30 3574 H 369.556 1.36062 2.60508 0
M  V30 3575 H 367.07 0.83958 1.39014 0
M  V30 3576 H 369.067 -0.576295 4.12898 0
M  V30 3577 H 367.727 -1.07572 3.06363 0
M  V30 3578 H 368.738 2.25885 4.66043 0
M  V30 3579 H 365.415 -0.274006 4.166 0
M  V30 3580 H 366.805 3.43326 5.77561 0
M  V30 3581 N 369.525 -1.3858 0.750561 0
M  V30 3582 C 370.773 -1.99789 0.30477 0
M  V30 3583 C 371.094 -1.59874 -1.11649 0
M  V30 3584 O 370.364 -0.85417 -1.76297 0
M  V30 3585 H 368.944 -0.738902 0.109694 0
M  V30 3586 H 371.606 -1.69391 0.963983 0
M  V30 3587 H 370.702 -3.09952 0.365499 0
M  V30 3588 N 371.003 -0.499398 -1.49478 0
M  V30 3589 C 372.228 0.044722 -2.07352 0
M  V30 3590 C 372.653 1.30207 -1.35749 0
M  V30 3591 O 372.011 1.76516 -0.413732 0
M  V30 3592 C 372.059 0.283013 -3.59488 0
M  V30 3593 O 371.163 1.35804 -3.89398 0
M  V30 3594 H 370.504 -0.0255147 -0.66351 0
M  V30 3595 H 373.034 -0.698561 -1.92305 0
M  V30 3596 H 373.044 0.515007 -4.04737 0
M  V30 3597 H 371.719 -0.635636 -4.11014 0
M  V30 3598 H 370.296 1.11113 -3.55961 0
M  V30 3599 N 372.481 1.55866 -0.233164 0
M  V30 3600 C 373.897 1.59133 0.121988 0
M  V30 3601 C 374.097 1.25016 1.58029 0
M  V30 3602 O 373.153 0.990922 2.32243 0
M  V30 3603 C 374.466 2.99932 -0.214792 0
M  V30 3604 C 376.014 3.12601 -0.157971 0
M  V30 3605 C 376.489 4.55597 -0.46859 0
M  V30 3606 N 377.98 4.61305 -0.418585 0
M  V30 3607 C 378.715 5.69903 -0.63227 0
M  V30 3608 N 378.211 6.86819 -0.90835 0
M  V30 3609 N 380.004 5.59264 -0.563913 0
M  V30 3610 H 372.155 1.76315 -1.18434 0
M  V30 3611 H 374.418 0.820093 -0.475553 0
M  V30 3612 H 374.124 3.29588 -1.22739 0
M  V30 3613 H 373.998 3.74327 0.464691 0
M  V30 3614 H 376.385 2.82735 0.845283 0
M  V30 3615 H 376.466 2.40511 -0.871102 0
M  V30 3616 H 376.11 4.86182 -1.46934 0
M  V30 3617 H 376.04 5.25928 0.265865 0
M  V30 3618 H 378.531 3.77297 -0.213368 0
M  V30 3619 H 378.844 7.65507 -1.05919 0
M  V30 3620 H 377.189 6.88536 -0.945673 0
M  V30 3621 H 380.38 4.66802 -0.348372 0
M  V30 3622 H 380.553 6.43831 -0.733847 0
M  V30 3623 N 373.959 -0.0401083 1.57549 0
M  V30 3624 C 374.891 -1.07149 2.02612 0
M  V30 3625 C 375.904 -1.33126 0.937085 0
M  V30 3626 O 377.093 -1.30808 1.21456 0
M  V30 3627 C 374.193 -2.41561 2.37701 0
M  V30 3628 C 373.366 -2.35096 3.68848 0
M  V30 3629 C 372.425 -3.51867 3.91249 0
M  V30 3630 O 371.451 -3.3186 4.62447 0
M  V30 3631 N 372.653 -4.73351 3.36035 0
M  V30 3632 H 375.418 -0.687485 2.91708 0
M  V30 3633 H 372.979 -0.228248 1.60283 0
M  V30 3634 H 374.971 -3.18379 2.49833 0
M  V30 3635 H 373.541 -2.71846 1.54332 0
M  V30 3636 H 372.761 -1.4345 3.67173 0
M  V30 3637 H 374.049 -2.27908 4.54901 0
M  V30 3638 H 373.447 -4.92507 2.78304 0
M  V30 3639 H 372.004 -5.47572 3.53565 0
M  V30 3640 N 375.437 -1.54477 -0.31217 0
M  V30 3641 C 376.677 -1.74958 -1.05684 0
M  V30 3642 C 377.041 -0.518414 -1.84869 0
M  V30 3643 O 378.242 -0.600759 -2.62001 0
M  V30 3644 C 376.513 -2.99656 -1.94785 0
M  V30 3645 S 378.072 -3.4109 -2.76049 0
M  V30 3646 H 374.89 -0.615104 -0.356606 0
M  V30 3647 H 377.492 -1.92669 -0.331514 0
M  V30 3648 H 376.196 -3.87397 -1.35468 0
M  V30 3649 H 375.727 -2.845 -2.71704 0
M  V30 3650 H 377.742 -2.97283 -3.97287 0
M  V30 3651 N 376.915 0.57481 -1.46744 0
M  V30 3652 C 378.192 1.3352 -1.4294 0
M  V30 3653 C 378.572 2.10775 -0.117009 0
M  V30 3654 O 377.92 2.09966 0.901474 0
M  V30 3655 C 378.13 2.25456 -2.66403 0
M  V30 3656 C 379.478 2.87035 -3.12883 0
M  V30 3657 O 380.502 2.35766 -2.67007 0
M  V30 3658 O 379.361 3.80179 -3.92589 0
M  V30 3659 H 376.455 0.600318 -0.568812 0
M  V30 3660 H 379.001 0.595171 -1.58921 0
M  V30 3661 H 377.773 1.67851 -3.53471 0
M  V30 3662 H 377.396 3.06785 -2.52921 0
M  V30 3663 N 378.394 1.34581 0.820102 0
M  V30 3664 C 379.81 1.14325 1.11364 0
M  V30 3665 C 380.01 -0.0533648 2.01429 0
M  V30 3666 O 379.066 -0.728044 2.41776 0
M  V30 3667 C 380.379 2.43983 1.75764 0
M  V30 3668 C 381.927 2.50065 1.88246 0
M  V30 3669 C 382.402 3.79732 2.56061 0
M  V30 3670 N 383.893 3.80908 2.63558 0
M  V30 3671 C 384.628 4.77961 3.16766 0
M  V30 3672 N 384.124 5.85397 3.70517 0
M  V30 3673 N 385.917 4.65413 3.15194 0
M  V30 3674 H 378.068 2.11246 0.221096 0
M  V30 3675 H 380.331 0.934289 0.160649 0
M  V30 3676 H 380.037 3.31651 1.1705 0
M  V30 3677 H 379.911 2.57531 2.75604 0
M  V30 3678 H 382.298 1.62834 2.46108 0
M  V30 3679 H 382.379 2.40442 0.873006 0
M  V30 3680 H 382.023 4.67354 1.98853 0
M  V30 3681 H 381.953 3.86639 3.57516 0
M  V30 3682 H 384.444 3.03274 2.25463 0
M  V30 3683 H 384.757 6.55463 4.09376 0
M  V30 3684 H 383.102 5.89107 3.68752 0
M  V30 3685 H 386.293 3.80627 2.72471 0
M  V30 3686 H 386.466 5.41216 3.56356 0
M  V30 3687 N 379.872 -1.04064 1.18357 0
M  V30 3688 C 380.782 -2.15569 0.925596 0
M  V30 3689 C 381.798 -1.7365 -0.110295 0
M  V30 3690 O 382.974 -2.01273 0.0716218 0
M  V30 3691 C 380.039 -3.43704 0.454836 0
M  V30 3692 C 379.1 -4.00004 1.55869 0
M  V30 3693 C 378.333 -5.22023 1.1103 0
M  V30 3694 O 378.556 -5.70392 -0.0309756 0
M  V30 3695 O 377.49 -5.70856 1.90805 0
M  V30 3696 H 381.316 -2.40187 1.8586 0
M  V30 3697 H 378.901 -1.1402 0.965394 0
M  V30 3698 H 380.783 -4.20923 0.200382 0
M  V30 3699 H 379.458 -3.20559 -0.449876 0
M  V30 3700 H 378.365 -3.24172 1.86716 0
M  V30 3701 H 379.698 -4.2749 2.43953 0
M  V30 3702 N 381.35 -0.985608 -1.22978 0
M  V30 3703 C 382.58 -0.674603 -1.95276 0
M  V30 3704 C 382.988 0.763483 -1.73111 0
M  V30 3705 O 382.331 1.52601 -1.02268 0
M  V30 3706 C 382.393 -0.891597 -3.48268 0
M  V30 3707 C 382.057 -2.31275 -3.94158 0
M  V30 3708 C 383.054 -3.29179 -4.02415 0
M  V30 3709 C 380.739 -2.64524 -4.27004 0
M  V30 3710 C 382.733 -4.58407 -4.42879 0
M  V30 3711 C 380.42 -3.93974 -4.67149 0
M  V30 3712 C 381.418 -4.90727 -4.75053 0
M  V30 3713 O 381.106 -6.17865 -5.14294 0
M  V30 3714 H 380.838 -0.249251 -0.628371 0
M  V30 3715 H 383.392 -1.32106 -1.5728 0
M  V30 3716 H 381.622 -0.187962 -3.86243 0
M  V30 3717 H 383.311 -0.576957 -4.01779 0
M  V30 3718 H 384.077 -3.04823 -3.77237 0
M  V30 3719 H 379.956 -1.89923 -4.2006 0
M  V30 3720 H 383.5 -5.33926 -4.48964 0
M  V30 3721 H 379.397 -4.18122 -4.91777 0
M  V30 3722 H 380.165 -6.21694 -5.32389 0
M  V30 3723 N 382.828 1.3818 -0.7579 0
M  V30 3724 C 384.105 1.94106 -0.241306 0
M  V30 3725 C 384.485 1.69282 1.26122 0
M  V30 3726 O 383.833 1.03378 2.03777 0
M  V30 3727 C 384.043 3.43809 -0.59967 0
M  V30 3728 C 385.391 4.20868 -0.561717 0
M  V30 3729 O 386.415 3.5211 -0.538222 0
M  V30 3730 O 385.274 5.43451 -0.576478 0
M  V30 3731 H 382.368 0.825376 -0.0518042 0
M  V30 3732 H 384.914 1.47548 -0.838315 0
M  V30 3733 H 383.686 3.55403 -1.6372 0
M  V30 3734 H 383.309 3.97592 0.0251197 0
M  V30 3735 N 384.306 0.507319 1.49211 0
M  V30 3736 C 385.546 -0.0332372 2.04373 0
M  V30 3737 C 385.91 -1.33694 1.37804 0
M  V30 3738 O 387.111 -1.96213 1.83722 0
M  V30 3739 C 385.382 -0.17599 3.56966 0
M  V30 3740 S 386.941 -0.669882 4.33657 0
M  V30 3741 H 383.759 0.00123603 0.710999 0
M  V30 3742 H 386.361 0.682725 1.83191 0
M  V30 3743 H 385.065 0.778053 4.02957 0
M  V30 3744 H 384.596 -0.917005 3.82563 0
M  V30 3745 H 386.611 -1.93806 4.56786 0
M  V30 3746 N 385.784 -1.5574 0.241426 0
M  V30 3747 C 386.731 -2.21149 -0.660432 0
M  V30 3748 C 387.701 -1.17356 -1.17545 0
M  V30 3749 O 388.886 -1.45784 -1.23093 0
M  V30 3750 C 386.026 -2.91059 -1.85414 0
M  V30 3751 C 385.139 -4.09495 -1.37616 0
M  V30 3752 C 384.274 -4.67135 -2.529 0
M  V30 3753 C 383.313 -5.77831 -2.01936 0
M  V30 3754 N 382.45 -6.29677 -3.10566 0
M  V30 3755 H 387.29 -2.97845 -0.095955 0
M  V30 3756 H 384.827 -1.47057 -0.0356024 0
M  V30 3757 H 386.785 -3.29788 -2.5553 0
M  V30 3758 H 385.415 -2.16846 -2.39118 0
M  V30 3759 H 384.467 -3.76117 -0.569235 0
M  V30 3760 H 385.779 -4.89423 -0.962618 0
M  V30 3761 H 384.933 -5.08409 -3.31067 0
M  V30 3762 H 383.672 -3.86411 -2.97553 0
M  V30 3763 H 382.677 -5.36039 -1.22238 0
M  V30 3764 H 383.902 -6.60402 -1.58259 0
M  V30 3765 H 381.848 -5.5186 -3.54664 0
M  V30 3766 H 381.765 -7.04783 -2.73526 0
M  V30 3767 H 383.033 -6.75609 -3.88809 0
M  V30 3768 N 387.262 0.0317525 -1.57568 0
M  V30 3769 C 388.539 0.758366 -1.803 0
M  V30 3770 C 388.919 1.93718 -0.838845 0
M  V30 3771 O 388.267 2.28187 0.119571 0
M  V30 3772 C 388.477 1.19392 -3.27943 0
M  V30 3773 C 389.825 1.61094 -3.92854 0
M  V30 3774 O 390.849 1.28857 -3.32076 0
M  V30 3775 O 389.708 2.20918 -4.99858 0
M  V30 3776 H 386.802 0.366514 -0.741348 0
M  V30 3777 H 389.348 0.00873765 -1.69698 0
M  V30 3778 H 388.12 0.352275 -3.89711 0
M  V30 3779 H 387.743 2.00365 -3.43424 0
M  V30 3780 N 388.74 1.54641 0.303973 0
M  V30 3781 C 389.673 1.80263 1.3993 0
M  V30 3782 C 390.651 0.653657 1.48883 0
M  V30 3783 O 391.835 0.893284 1.6599 0
M  V30 3784 C 388.962 1.9367 2.77866 0
M  V30 3785 C 388.008 3.16078 2.86351 0
M  V30 3786 S 388.841 4.74219 2.4875 0
M  V30 3787 C 389.997 4.90558 3.88721 0
M  V30 3788 H 390.23 2.72886 1.17986 0
M  V30 3789 H 387.763 1.46014 0.501918 0
M  V30 3790 H 389.721 2.0208 3.57315 0
M  V30 3791 H 388.382 1.01991 2.9708 0
M  V30 3792 H 387.575 3.22252 3.87517 0
M  V30 3793 H 387.177 3.06099 2.14893 0
M  V30 3794 H 389.469 4.74398 4.83687 0
M  V30 3795 H 390.412 5.92651 3.87518 0
M  V30 3796 H 390.82 4.18728 3.78585 0
M  V30 3797 N 390.218 -0.567019 1.47046 0
M  V30 3798 C 391.443 -1.3551 1.57009 0
M  V30 3799 C 391.868 -1.86841 0.217259 0
M  V30 3800 O 391.226 -1.62435 -0.805268 0
M  V30 3801 C 391.274 -2.50777 2.5912 0
M  V30 3802 O 390.378 -3.52706 2.13711 0
M  V30 3803 H 389.719 -0.402919 0.52778 0
M  V30 3804 H 392.249 -0.686241 1.92748 0
M  V30 3805 H 392.259 -2.97481 2.79229 0
M  V30 3806 H 390.934 -2.12771 3.57353 0
M  V30 3807 H 389.511 -3.12374 2.03659 0
M  V30 3808 N 391.696 -1.35014 -0.812953 0
M  V30 3809 C 392.973 -1.18502 -1.55617 0
M  V30 3810 C 393.353 0.238421 -2.09749 0
M  V30 3811 O 392.701 1.2411 -1.91857 0
M  V30 3812 C 392.911 -2.24783 -2.66971 0
M  V30 3813 C 394.259 -2.60268 -3.35478 0
M  V30 3814 O 395.283 -2.23648 -2.77236 0
M  V30 3815 O 394.142 -3.2321 -4.40678 0
M  V30 3816 H 391.236 -0.459984 -0.687272 0
M  V30 3817 H 393.782 -1.46677 -0.853464 0
M  V30 3818 H 392.554 -3.20284 -2.24798 0
M  V30 3819 H 392.177 -1.97841 -3.44884 0
M  V30 3820 N 393.175 1.03435 -1.18907 0
M  V30 3821 C 394.085 2.15075 -0.937015 0
M  V30 3822 C 395.101 1.73706 0.101085 0
M  V30 3823 O 396.277 2.01232 -0.0822948 0
M  V30 3824 C 393.342 3.43458 -0.473057 0
M  V30 3825 C 392.403 3.99172 -1.57989 0
M  V30 3826 C 391.636 5.21427 -1.13797 0
M  V30 3827 O 391.859 5.704 0.000725941 0
M  V30 3828 O 390.793 5.69837 -1.9383 0
M  V30 3829 H 394.619 2.39198 -1.87131 0
M  V30 3830 H 392.204 1.13506 -0.971427 0
M  V30 3831 H 394.086 4.20811 -0.222702 0
M  V30 3832 H 392.761 3.20793 0.432869 0
M  V30 3833 H 391.668 3.23178 -1.88433 0
M  V30 3834 H 393.001 4.2619 -2.46217 0
M  V30 3835 N 394.653 0.992116 1.22453 0
M  V30 3836 C 395.899 0.668523 1.91464 0
M  V30 3837 C 396.232 -0.797313 1.77078 0
M  V30 3838 O 395.507 -1.5765 1.13916 0
M  V30 3839 C 395.79 1.07424 3.43703 0
M  V30 3840 C 395.643 2.59857 3.67143 0
M  V30 3841 C 396.962 0.626891 4.35612 0
M  V30 3842 H 394.081 0.244341 0.695318 0
M  V30 3843 H 396.723 1.2355 1.44345 0
M  V30 3844 H 394.873 0.591816 3.83966 0
M  V30 3845 H 396.545 3.15764 3.3629 0
M  V30 3846 H 394.788 3.01961 3.11451 0
M  V30 3847 H 395.459 2.83296 4.73759 0
M  V30 3848 H 397.935 1.04125 4.02861 0
M  V30 3849 H 396.811 0.939076 5.40807 0
M  V30 3850 H 397.072 -0.472457 4.39568 0
M  V30 3851 N 396.131 -1.37776 0.765217 0
M  V30 3852 C 397.379 -1.99454 0.325943 0
M  V30 3853 C 397.7 -1.61049 -1.09947 0
M  V30 3854 O 396.97 -0.872821 -1.75381 0
M  V30 3855 H 395.55 -0.737697 0.117525 0
M  V30 3856 H 398.212 -1.68359 0.981895 0
M  V30 3857 H 397.308 -3.09547 0.398353 0
M  V30 3858 N 397.609 -0.515225 -1.4894 0
M  V30 3859 C 398.849 0.0223983 -2.04388 0
M  V30 3860 C 399.213 1.32961 -1.38511 0
M  V30 3861 O 400.414 1.95236 -1.8476 0
M  V30 3862 C 398.685 0.157056 -3.57055 0
M  V30 3863 S 400.244 0.646875 -4.34006 0
M  V30 3864 H 397.062 -0.00500662 -0.710982 0
M  V30 3865 H 399.664 -0.69243 -1.82827 0
M  V30 3866 H 398.368 -0.799412 -4.02539 0
M  V30 3867 H 397.899 0.896704 -3.83044 0
M  V30 3868 H 399.914 1.91381 -4.57808 0
M  V30 3869 N 399.087 1.5561 -0.249682 0
M  V30 3870 C 400.333 1.99306 0.374841 0
M  V30 3871 C 400.666 1.13767 1.57387 0
M  V30 3872 O 399.941 0.201711 1.93451 0
M  V30 3873 C 400.224 3.51507 0.781986 0
M  V30 3874 C 400.077 4.4781 -0.422629 0
M  V30 3875 C 401.396 4.08884 1.62793 0
M  V30 3876 H 398.515 0.724572 0.134773 0
M  V30 3877 H 401.157 1.86719 -0.351549 0
M  V30 3878 H 399.307 3.62363 1.4009 0
M  V30 3879 H 400.979 4.48931 -1.06108 0
M  V30 3880 H 399.222 4.20518 -1.06524 0
M  V30 3881 H 399.893 5.51919 -0.0943766 0
M  V30 3882 H 402.369 4.01147 1.10547 0
M  V30 3883 H 401.245 5.1564 1.88166 0
M  V30 3884 H 401.506 3.57515 2.60068 0
M  V30 3885 N 400.565 -0.0233959 1.57583 0
M  V30 3886 C 401.513 -1.04063 2.08023 0
M  V30 3887 C 402.507 -1.37084 0.995204 0
M  V30 3888 O 403.713 -1.35923 1.18004 0
M  V30 3889 H 400.088 -0.353144 0.663922 0
M  V30 3890 H 402.059 -0.589453 2.9252 0
M  V30 3891 C 400.808 -2.33123 2.57971 0
M  V30 3892 H 400.131 -2.08577 3.4108 0
M  V30 3893 H 401.571 -3.02632 2.96967 0
M  V30 3894 C 400.03 -3.02483 1.48342 0
M  V30 3895 O 400.56 -3.92541 0.852898 0
M  V30 3896 N 398.766 -2.63909 1.21658 0
M  V30 3897 H 398.313 -1.90758 1.73116 0
M  V30 3898 H 398.271 -3.10633 0.485218 0
M  V30 3899 N 402.043 -1.548 -0.295768 0
M  V30 3900 C 403.289 -1.74588 -1.03184 0
M  V30 3901 C 403.622 -0.532962 -1.86744 0
M  V30 3902 O 402.897 0.469872 -1.88739 0
M  V30 3903 C 403.18 -3.03791 -1.93347 0
M  V30 3904 C 403.033 -4.35392 -1.12933 0
M  V30 3905 C 404.352 -3.28892 -2.92435 0
M  V30 3906 H 401.471 -0.635221 -0.373715 0
M  V30 3907 H 404.113 -1.87519 -0.30606 0
M  V30 3908 H 402.263 -2.92898 -2.55232 0
M  V30 3909 H 403.935 -4.58211 -0.532943 0
M  V30 3910 H 402.178 -4.31642 -0.432168 0
M  V30 3911 H 402.849 -5.22074 -1.79284 0
M  V30 3912 H 405.325 -3.39429 -2.4068 0
M  V30 3913 H 404.201 -4.20603 -3.52682 0
M  V30 3914 H 404.462 -2.47437 -3.6637 0
M  V30 3915 N 403.521 0.559213 -1.47345 0
M  V30 3916 C 404.749 1.34194 -1.57479 0
M  V30 3917 C 405.164 1.87463 -0.224261 0
M  V30 3918 O 404.521 1.64888 0.782185 0
M  V30 3919 C 404.572 2.51324 -2.59843 0
M  V30 3920 O 404.293 2.00256 -3.89653 0
M  V30 3921 C 405.794 3.43563 -2.80142 0
M  V30 3922 H 403.014 0.409136 -0.531835 0
M  V30 3923 H 405.558 0.677609 -1.92947 0
M  V30 3924 H 403.713 3.13699 -2.27314 0
M  V30 3925 H 404.127 2.76708 -4.4557 0
M  V30 3926 H 405.601 4.2217 -3.55635 0
M  V30 3927 H 406.078 3.9698 -1.87892 0
M  V30 3928 H 406.684 2.87005 -3.1386 0
M  V30 3929 N 404.999 1.35443 0.805782 0
M  V30 3930 C 405.929 1.31095 1.93226 0
M  V30 3931 C 406.91 0.185244 1.69088 0
M  V30 3932 O 408.095 0.380332 1.90439 0
M  V30 3933 C 405.225 1.08299 3.29983 0
M  V30 3934 C 404.179 2.17519 3.68605 0
M  V30 3935 C 403.505 1.79887 5.03532 0
M  V30 3936 C 404.805 3.5949 3.78898 0
M  V30 3937 H 406.499 2.25352 1.97122 0
M  V30 3938 H 404.045 1.0848 0.946996 0
M  V30 3939 H 405.998 1.03897 4.08391 0
M  V30 3940 H 404.722 0.104885 3.26432 0
M  V30 3941 H 403.381 2.2102 2.92482 0
M  V30 3942 H 403.029 0.80693 4.96485 0
M  V30 3943 H 402.729 2.53001 5.30344 0
M  V30 3944 H 404.253 1.77011 5.84379 0
M  V30 3945 H 405.667 3.58307 4.47536 0
M  V30 3946 H 404.064 4.31371 4.1718 0
M  V30 3947 H 405.134 3.95584 2.80431 0
M  V30 3948 N 406.477 -1.02803 1.19454 0
M  V30 3949 C 407.717 -1.77769 1.00883 0
M  V30 3950 C 408.081 -1.86596 -0.45233 0
M  V30 3951 O 409.282 -2.57895 -0.757877 0
M  V30 3952 C 407.553 -3.16486 1.66046 0
M  V30 3953 S 409.112 -4.07632 1.62424 0
M  V30 3954 H 405.93 -0.611949 0.361993 0
M  V30 3955 H 408.532 -1.23175 1.51816 0
M  V30 3956 H 407.236 -3.0768 2.7159 0
M  V30 3957 H 406.767 -3.76156 1.15196 0
M  V30 3958 H 408.782 -4.91937 0.64903 0
M  V30 3959 N 407.956 -0.998596 -1.21925 0
M  V30 3960 C 408.866 -0.562736 -2.27751 0
M  V30 3961 C 409.882 0.391203 -1.69545 0
M  V30 3962 O 411.058 0.256625 -1.99758 0
M  V30 3963 C 408.123 0.11012 -3.46525 0
M  V30 3964 C 407.184 -0.887495 -4.20026 0
M  V30 3965 C 406.417 -0.246654 -5.3313 0
M  V30 3966 O 406.64 0.958088 -5.62296 0
M  V30 3967 O 405.574 -0.954374 -5.94286 0
M  V30 3968 H 409.4 -1.44329 -2.67213 0
M  V30 3969 H 406.985 -0.767135 -1.28201 0
M  V30 3970 H 408.867 0.486756 -4.18579 0
M  V30 3971 H 407.542 0.965154 -3.08976 0
M  V30 3972 H 406.449 -1.31517 -3.5022 0
M  V30 3973 H 407.782 -1.71191 -4.6147 0
M  V30 3974 N 409.434 1.37368 -0.772513 0
M  V30 3975 C 410.682 1.99279 -0.336516 0
M  V30 3976 C 411.003 1.6163 1.09091 0
M  V30 3977 O 410.273 0.882109 1.74916 0
M  V30 3978 H 408.853 0.737063 -0.121435 0
M  V30 3979 H 411.515 1.67836 -0.990809 0
M  V30 3980 H 410.611 3.09332 -0.414763 0
M  V30 3981 N 410.912 0.523116 1.48665 0
M  V30 3982 C 412.323 0.0808997 1.86525 0
M  V30 3983 C 412.674 -1.33975 1.43336 0
M  V30 3984 O 411.799 -2.00221 0.821009 0
M  V30 3985 C 412.394 0.140037 3.3851 0
M  V30 3986 C 410.953 -0.246948 3.75589 0
M  V30 3987 C 410.1 0.502845 2.72703 0
M  V30 3988 H 413.051 0.734736 1.40667 0
M  V30 3989 H 413.072 -0.649945 3.74908 0
M  V30 3990 H 412.584 1.17412 3.69914 0
M  V30 3991 H 410.685 -1.28343 3.49798 0
M  V30 3992 H 410.798 0.0878859 4.79019 0
M  V30 3993 H 409.162 -0.0500581 2.54651 0
M  V30 3994 H 409.945 1.53743 3.0695 0
M  V30 3995 N 412.39 -1.55475 0.257931 0
M  V30 3996 C 413.338 -2.23244 -0.653076 0
M  V30 3997 C 414.332 -1.22366 -1.17144 0
M  V30 3998 O 415.538 -1.40347 -1.12706 0
M  V30 3999 H 411.913 -0.716247 -0.229117 0
M  V30 4000 H 413.884 -2.98343 -0.0584788 0
M  V30 4001 C 412.633 -2.95401 -1.83395 0
M  V30 4002 H 411.956 -3.72802 -1.44424 0
M  V30 4003 H 413.396 -3.46165 -2.44838 0
M  V30 4004 C 411.855 -1.99895 -2.71189 0
M  V30 4005 O 412.385 -1.53909 -3.71046 0
M  V30 4006 N 410.591 -1.6676 -2.3799 0
M  V30 4007 H 410.138 -2.04352 -1.56837 0
M  V30 4008 H 410.096 -1.03127 -2.97005 0
M  V30 4009 N 413.868 0.0150385 -1.57593 0
M  V30 4010 C 414.815 1.01126 -2.07466 0
M  V30 4011 C 415.785 1.35064 -0.966794 0
M  V30 4012 O 416.97 1.4516 -1.23827 0
M  V30 4013 C 414.11 2.30276 -2.57035 0
M  V30 4014 C 413.223 2.02373 -3.81666 0
M  V30 4015 C 412.358 3.25496 -4.19793 0
M  V30 4016 C 411.397 2.93211 -5.37303 0
M  V30 4017 N 410.534 4.08826 -5.70794 0
M  V30 4018 H 415.374 0.57901 -2.92321 0
M  V30 4019 H 412.911 0.27426 -1.44521 0
M  V30 4020 H 414.869 3.05757 -2.83846 0
M  V30 4021 H 413.499 2.71197 -1.75077 0
M  V30 4022 H 412.551 1.17327 -3.61854 0
M  V30 4023 H 413.863 1.74567 -4.67256 0
M  V30 4024 H 413.017 4.09333 -4.47807 0
M  V30 4025 H 411.756 3.56428 -3.32882 0
M  V30 4026 H 410.761 2.07777 -5.09027 0
M  V30 4027 H 411.986 2.63542 -6.25877 0
M  V30 4028 H 409.932 4.39682 -4.86842 0
M  V30 4029 H 409.849 3.84491 -6.50924 0
M  V30 4030 H 411.117 4.93496 -6.03392 0
M  V30 4031 N 415.346 1.54954 0.287554 0
M  V30 4032 C 416.593 1.74873 1.02106 0
M  V30 4033 C 416.921 0.541829 1.86801 0
M  V30 4034 O 416.176 -0.475992 1.89823 0
M  V30 4035 C 416.475 2.99833 1.94512 0
M  V30 4036 C 416.141 4.33029 1.25686 0
M  V30 4037 C 414.803 4.69233 1.06649 0
M  V30 4038 C 417.155 5.15542 0.765913 0
M  V30 4039 C 414.483 5.85518 0.372222 0
M  V30 4040 C 416.835 6.32542 0.0853101 0
M  V30 4041 C 415.499 6.67398 -0.1169 0
M  V30 4042 H 414.769 0.639906 0.373632 0
M  V30 4043 H 417.416 1.89219 0.294665 0
M  V30 4044 H 415.721 2.80325 2.73725 0
M  V30 4045 H 417.418 3.1244 2.51361 0
M  V30 4046 H 414.008 4.04564 1.41512 0
M  V30 4047 H 418.192 4.88059 0.90066 0
M  V30 4048 H 413.448 6.11057 0.204695 0
M  V30 4049 H 417.622 6.95741 -0.302936 0
M  V30 4050 H 415.249 7.57357 -0.656859 0
M  V30 4051 N 416.824 -0.551391 1.4764 0
M  V30 4052 C 417.771 -1.65796 1.60563 0
M  V30 4053 C 418.741 -1.59932 0.448428 0
M  V30 4054 O 419.926 -1.78679 0.669222 0
M  V30 4055 C 417.066 -3.04108 1.63133 0
M  V30 4056 C 416.179 -3.20365 2.89811 0
M  V30 4057 C 415.314 -4.49109 2.8368 0
M  V30 4058 C 414.353 -4.58819 4.05156 0
M  V30 4059 N 413.49 -5.78926 3.97227 0
M  V30 4060 H 418.33 -1.54088 2.5507 0
M  V30 4061 H 415.867 -0.75052 1.26513 0
M  V30 4062 H 417.825 -3.84207 1.62606 0
M  V30 4063 H 416.455 -3.14637 0.721341 0
M  V30 4064 H 415.507 -2.33659 3.00179 0
M  V30 4065 H 416.819 -3.23402 3.79753 0
M  V30 4066 H 415.973 -5.37475 2.81434 0
M  V30 4067 H 414.712 -4.4856 1.91431 0
M  V30 4068 H 413.717 -3.68864 4.077 0
M  V30 4069 H 414.942 -4.61124 4.98539 0
M  V30 4070 H 412.888 -5.79314 3.07785 0
M  V30 4071 H 412.805 -5.83367 4.80853 0
M  V30 4072 H 414.073 -6.69637 3.99007 0
M  V30 4073 N 418.302 -1.35869 -0.798587 0
M  V30 4074 C 419.542 -1.30961 -1.56935 0
M  V30 4075 C 419.906 0.112404 -1.91671 0
M  V30 4076 O 421.107 0.285937 -2.67275 0
M  V30 4077 C 419.378 -2.19811 -2.81811 0
M  V30 4078 S 420.937 -2.32498 -3.72143 0
M  V30 4079 H 417.755 -0.465297 -0.537606 0
M  V30 4080 H 420.357 -1.71344 -0.941346 0
M  V30 4081 H 419.061 -3.22095 -2.54329 0
M  V30 4082 H 418.592 -1.80415 -3.49591 0
M  V30 4083 H 420.607 -1.5157 -4.72484 0
M  V30 4084 N 419.78 1.02168 -1.19998 0
M  V30 4085 C 420.73 2.08969 -0.911921 0
M  V30 4086 C 421.714 1.60404 0.12621 0
M  V30 4087 O 422.906 1.76817 -0.0804706 0
M  V30 4088 C 420.035 3.402 -0.460277 0
M  V30 4089 C 419.121 3.9548 -1.53155 0
M  V30 4090 N 419.512 4.24332 -2.75275 0
M  V30 4091 C 417.81 4.23572 -1.39653 0
M  V30 4092 C 418.511 4.68834 -3.44339 0
M  V30 4093 N 417.487 4.70804 -2.71744 0
M  V30 4094 H 421.289 2.29178 -1.83997 0
M  V30 4095 H 418.803 1.20094 -1.09322 0
M  V30 4096 H 420.8 4.16235 -0.235337 0
M  V30 4097 H 419.46 3.21408 0.4612 0
M  V30 4098 H 420.471 4.13393 -3.11973 0
M  V30 4099 H 417.148 4.14005 -0.539067 0
M  V30 4100 H 418.538 5.00019 -4.4881 0
M  V30 4101 N 421.258 1.00505 1.21394 0
M  V30 4102 C 422.483 0.706367 1.95001 0
M  V30 4103 C 422.908 -0.72463 1.73582 0
M  V30 4104 O 422.266 -1.49702 1.0227 0
M  V30 4105 C 422.314 1.03299 3.45487 0
M  V30 4106 O 421.418 0.138275 4.12168 0
M  V30 4107 H 420.759 0.263175 0.609619 0
M  V30 4108 H 423.289 1.34531 1.54151 0
M  V30 4109 H 423.299 0.979872 3.96059 0
M  V30 4110 H 421.974 2.07567 3.60401 0
M  V30 4111 H 420.551 0.247928 3.72075 0
M  V30 4112 N 422.737 -1.36956 0.779787 0
M  V30 4113 C 423.985 -1.99097 0.347079 0
M  V30 4114 C 424.306 -1.62206 -1.08232 0
M  V30 4115 O 423.576 -0.891373 -1.74446 0
M  V30 4116 H 422.156 -0.736409 0.125342 0
M  V30 4117 H 424.818 -1.67308 0.999696 0
M  V30 4118 H 423.914 -3.09107 0.431162 0
M  V30 4119 N 424.215 -0.530993 -1.48385 0
M  V30 4120 C 425.125 0.23503 -2.3342 0
M  V30 4121 C 426.141 0.93801 -1.46552 0
M  V30 4122 O 427.317 0.912745 -1.7953 0
M  V30 4123 C 424.382 1.26778 -3.22689 0
M  V30 4124 C 423.443 0.575038 -4.25431 0
M  V30 4125 C 422.676 1.55858 -5.10435 0
M  V30 4126 O 422.899 2.79129 -4.97437 0
M  V30 4127 O 421.833 1.09742 -5.91811 0
M  V30 4128 H 425.659 -0.461794 -3.00169 0
M  V30 4129 H 423.244 -0.291903 -1.46521 0
M  V30 4130 H 425.126 1.86457 -3.77904 0
M  V30 4131 H 423.801 1.94699 -2.586 0
M  V30 4132 H 422.708 -0.0622782 -3.74048 0
M  V30 4133 H 424.041 -0.062253 -4.92161 0
M  V30 4134 N 425.693 1.55336 -0.266172 0
M  V30 4135 C 426.933 2.01303 0.354459 0
M  V30 4136 C 427.297 1.15046 1.53715 0
M  V30 4137 O 428.498 1.50554 2.22681 0
M  V30 4138 C 426.769 3.49748 0.735579 0
M  V30 4139 S 428.328 4.1771 1.34401 0
M  V30 4140 H 425.146 0.702333 0.110674 0
M  V30 4141 H 427.748 1.91653 -0.385916 0
M  V30 4142 H 426.452 4.10181 -0.134196 0
M  V30 4143 H 425.983 3.63364 1.50764 0
M  V30 4144 H 427.998 4.20594 2.63278 0
M  V30 4145 N 427.171 -0.0066808 1.57599 0
M  V30 4146 C 428.42 -0.692078 1.89455 0
M  V30 4147 C 428.733 -1.75306 0.867586 0
M  V30 4148 O 429.939 -2.49262 1.07614 0
M  V30 4149 C 428.395 -1.2821 3.36289 0
M  V30 4150 C 428.003 -0.256291 4.47266 0
M  V30 4151 C 429.747 -1.94608 3.77264 0
M  V30 4152 C 427.654 -0.855927 5.85173 0
M  V30 4153 H 426.584 -0.262252 0.706923 0
M  V30 4154 H 429.235 0.052769 1.83424 0
M  V30 4155 H 427.617 -2.0774 3.37135 0
M  V30 4156 H 428.791 0.513923 4.57925 0
M  V30 4157 H 427.106 0.306862 4.15268 0
M  V30 4158 H 429.703 -2.40364 4.77629 0
M  V30 4159 H 430.046 -2.77382 3.10427 0
M  V30 4160 H 430.579 -1.21822 3.78688 0
M  V30 4161 H 427.318 -0.0671161 6.55466 0
M  V30 4162 H 426.838 -1.59546 5.78191 0
M  V30 4163 H 428.517 -1.35658 6.32618 0
M  V30 4164 N 428.649 -1.55105 -0.279332 0
M  V30 4165 C 429.877 -1.7943 -1.03017 0
M  V30 4166 C 430.292 -0.564456 -1.80165 0
M  V30 4167 O 429.649 0.466326 -1.76442 0
M  V30 4168 C 429.7 -3.0155 -1.99374 0
M  V30 4169 O 429.421 -4.19784 -1.25352 0
M  V30 4170 C 430.922 -3.3843 -2.86321 0
M  V30 4171 H 428.142 -0.597882 -0.304594 0
M  V30 4172 H 430.686 -2.02105 -0.312035 0
M  V30 4173 H 428.841 -2.81019 -2.66659 0
M  V30 4174 H 429.255 -4.88781 -1.90246 0
M  V30 4175 H 430.729 -4.27066 -3.49741 0
M  V30 4176 H 431.206 -2.57549 -3.5576 0
M  V30 4177 H 431.812 -3.61197 -2.24536 0
M  V30 4178 N 430.127 0.543554 -1.4793 0
M  V30 4179 C 431.057 1.65888 -1.64327 0
M  V30 4180 C 432.038 1.62818 -0.492383 0
M  V30 4181 O 433.223 1.80226 -0.723338 0
M  V30 4182 C 430.353 3.04506 -1.67013 0
M  V30 4183 C 429.307 3.2243 -2.81466 0
M  V30 4184 C 428.633 4.61972 -2.69233 0
M  V30 4185 C 429.933 3.06496 -4.22915 0
M  V30 4186 H 431.627 1.52421 -2.57698 0
M  V30 4187 H 429.173 0.731849 -1.24016 0
M  V30 4188 H 431.126 3.82391 -1.77074 0
M  V30 4189 H 429.85 3.18964 -0.70212 0
M  V30 4190 H 428.509 2.46957 -2.70938 0
M  V30 4191 H 428.157 4.73247 -1.7043 0
M  V30 4192 H 427.857 4.74911 -3.46025 0
M  V30 4193 H 429.381 5.41974 -2.81242 0
M  V30 4194 H 430.795 3.74186 -4.34348 0
M  V30 4195 H 429.192 3.30938 -5.006 0
M  V30 4196 H 430.262 2.03077 -4.40327 0
M  V30 4197 N 431.605 1.3629 0.791371 0
M  V30 4198 C 432.882 1.20962 1.53712 0
M  V30 4199 C 433.262 -0.205021 2.10102 0
M  V30 4200 O 432.61 -1.21042 1.93807 0
M  V30 4201 C 432.82 2.29002 2.63361 0
M  V30 4202 C 434.168 2.65572 3.31295 0
M  V30 4203 O 435.192 2.2803 2.73643 0
M  V30 4204 O 434.051 3.3018 4.35481 0
M  V30 4205 H 431.145 0.47086 0.679867 0
M  V30 4206 H 433.691 1.48016 0.830021 0
M  V30 4207 H 432.463 3.2382 2.19674 0
M  V30 4208 H 432.086 2.03303 3.41692 0
M  V30 4209 N 433.083 -1.0153 1.20538 0
M  V30 4210 C 434.03 -2.10098 0.955383 0
M  V30 4211 C 435 -1.65702 -0.114878 0
M  V30 4212 O 436.185 -1.90776 0.0301118 0
M  V30 4213 C 433.325 -3.41236 0.514969 0
M  V30 4214 C 432.438 -3.99102 1.65353 0
M  V30 4215 C 431.573 -5.18306 1.16329 0
M  V30 4216 C 430.612 -5.68258 2.27485 0
M  V30 4217 N 429.749 -6.78722 1.7967 0
M  V30 4218 H 434.589 -2.30818 1.88486 0
M  V30 4219 H 432.126 -1.13189 0.939499 0
M  V30 4220 H 434.084 -4.16504 0.240935 0
M  V30 4221 H 432.714 -3.20585 -0.377512 0
M  V30 4222 H 431.766 -3.20918 2.04245 0
M  V30 4223 H 433.078 -4.32177 2.49047 0
M  V30 4224 H 432.232 -6.00782 0.845302 0
M  V30 4225 H 430.971 -4.86799 0.296254 0
M  V30 4226 H 429.976 -4.84385 2.60099 0
M  V30 4227 H 431.201 -6.01798 3.14667 0
M  V30 4228 H 429.147 -6.49042 0.95295 0
M  V30 4229 H 429.064 -7.10996 2.56944 0
M  V30 4230 H 430.332 -7.64759 1.50875 0
M  V30 4231 N 434.561 -1.01147 -1.20859 0
M  V30 4232 C 435.807 -0.698899 -1.90377 0
M  V30 4233 C 436.14 0.76904 -1.78324 0
M  V30 4234 O 435.415 1.55817 -1.16409 0
M  V30 4235 C 435.698 -1.12878 -3.41951 0
M  V30 4236 C 435.551 -2.65665 -3.62963 0
M  V30 4237 C 436.87 -0.696114 -4.3456 0
M  V30 4238 H 433.989 -0.255372 -0.691342 0
M  V30 4239 H 436.631 -1.25831 -1.42361 0
M  V30 4240 H 434.781 -0.652827 -3.82976 0
M  V30 4241 H 436.453 -3.21074 -3.31224 0
M  V30 4242 H 434.696 -3.06878 -3.06608 0
M  V30 4243 H 435.367 -2.90797 -4.69192 0
M  V30 4244 H 437.843 -1.10521 -4.01154 0
M  V30 4245 H 436.719 -1.025 -5.39245 0
M  V30 4246 H 436.98 0.402465 -4.40264 0
M  V30 4247 N 436.039 1.36541 -0.78704 0
M  V30 4248 C 437.279 2.01138 -0.363714 0
M  V30 4249 C 437.643 1.61114 1.04433 0
M  V30 4250 O 438.844 2.18285 1.56861 0
M  V30 4251 C 437.115 3.53603 -0.519582 0
M  V30 4252 S 438.674 4.38415 -0.183782 0
M  V30 4253 H 435.492 0.697263 -0.13909 0
M  V30 4254 H 438.094 1.66475 -1.02501 0
M  V30 4255 H 436.798 3.8022 -1.5447 0
M  V30 4256 H 436.329 3.93084 0.15773 0
M  V30 4257 H 438.344 4.85698 1.01547 0
M  V30 4258 N 437.518 0.538854 1.48102 0
M  V30 4259 C 438.466 -0.232325 2.31437 0
M  V30 4260 C 439.46 -0.927004 1.41785 0
M  V30 4261 O 440.666 -0.850378 1.58646 0
M  V30 4262 H 437.041 -0.0937916 0.746128 0
M  V30 4263 H 439.012 0.489986 2.9435 0
M  V30 4264 C 437.761 -1.26074 3.24038 0
M  V30 4265 H 437.084 -0.735609 3.92974 0
M  V30 4266 H 438.524 -1.77157 3.85216 0
M  V30 4267 C 436.983 -2.29902 2.46265 0
M  V30 4268 O 437.513 -3.36502 2.19384 0
M  V30 4269 N 435.719 -2.03348 2.07601 0
M  V30 4270 H 435.266 -1.16675 2.29662 0
M  V30 4271 H 435.224 -2.73038 1.55877 0
M  V30 4272 N 438.996 -1.55193 0.274407 0
M  V30 4273 C 439.929 -2.18606 -0.654712 0
M  V30 4274 C 440.907 -1.14677 -1.15273 0
M  V30 4275 O 442.091 -1.43198 -1.22583 0
M  V30 4276 C 439.218 -2.80875 -1.89281 0
M  V30 4277 C 438.264 -3.981 -1.53032 0
M  V30 4278 S 439.097 -5.32025 -0.609107 0
M  V30 4279 C 440.253 -5.97761 -1.85559 0
M  V30 4280 H 440.486 -2.97074 -0.115894 0
M  V30 4281 H 438.019 -1.54288 0.05867 0
M  V30 4282 H 439.977 -3.17381 -2.60345 0
M  V30 4283 H 438.638 -2.02302 -2.40277 0
M  V30 4284 H 437.831 -4.40356 -2.45158 0
M  V30 4285 H 437.433 -3.63013 -0.899874 0
M  V30 4286 H 439.725 -6.16951 -2.7996 0
M  V30 4287 H 440.668 -6.92545 -1.47605 0
M  V30 4288 H 441.076 -5.27113 -2.02021 0
M  V30 4289 N 440.474 -0.00167713 -1.576 0
M  V30 4290 C 441.437 0.974046 -2.07473 0
M  V30 4291 C 442.437 1.27143 -0.984444 0
M  V30 4292 O 443.627 1.21633 -1.24703 0
M  V30 4293 C 440.759 2.29849 -2.51759 0
M  V30 4294 H 441.952 0.54262 -2.9495 0
M  V30 4295 H 439.505 0.245829 -1.54355 0
M  V30 4296 H 440.24 2.77677 -1.67529 0
M  V30 4297 H 440.025 2.09584 -3.31386 0
M  V30 4298 H 441.515 2.9984 -2.90664 0
M  V30 4299 N 441.952 1.55251 0.271103 0
M  V30 4300 C 443.368 1.47133 0.618393 0
M  V30 4301 C 443.568 0.686994 1.89427 0
M  V30 4302 O 442.624 0.206609 2.51653 0
M  V30 4303 C 443.937 2.91361 0.743593 0
M  V30 4304 C 445.485 3.01587 0.837522 0
M  V30 4305 C 445.96 4.47073 0.994483 0
M  V30 4306 N 447.451 4.50909 1.05996 0
M  V30 4307 C 448.186 5.60698 1.20024 0
M  V30 4308 N 447.682 6.80348 1.30759 0
M  V30 4309 N 449.475 5.48444 1.23149 0
M  V30 4310 H 441.626 2.04698 -0.566784 0
M  V30 4311 H 443.889 0.928319 -0.192165 0
M  V30 4312 H 443.595 3.51483 -0.123493 0
M  V30 4313 H 443.469 3.40484 1.62328 0
M  V30 4314 H 445.856 2.4156 1.69507 0
M  V30 4315 H 445.937 2.55713 -0.0668086 0
M  V30 4316 H 445.581 5.07703 0.141582 0
M  V30 4317 H 445.511 4.90605 1.91349 0
M  V30 4318 H 448.002 3.6472 0.989316 0
M  V30 4319 H 448.315 7.59772 1.41303 0
M  V30 4320 H 446.66 6.83156 1.27761 0
M  V30 4321 H 449.851 4.53907 1.14394 0
M  V30 4322 H 450.024 6.34049 1.33738 0
M  V30 4323 N 443.43 -0.535701 1.48216 0
M  V30 4324 C 444.707 -1.29683 1.46429 0
M  V30 4325 C 445.087 -2.10391 0.172852 0
M  V30 4326 O 444.435 -2.12282 -0.845488 0
M  V30 4327 C 444.645 -2.18313 2.72287 0
M  V30 4328 C 445.993 -2.78639 3.20383 0
M  V30 4329 O 447.017 -2.28604 2.73164 0
M  V30 4330 O 445.876 -3.69636 4.02531 0
M  V30 4331 H 442.97 -0.585026 0.584529 0
M  V30 4332 H 445.516 -0.552827 1.60443 0
M  V30 4333 H 444.288 -1.58421 3.57797 0
M  V30 4334 H 443.911 -2.99971 2.60966 0
M  V30 4335 N 444.908 -1.36708 -0.784132 0
M  V30 4336 C 446.148 -1.32618 -1.55537 0
M  V30 4337 C 446.512 0.0920681 -1.91779 0
M  V30 4338 O 447.713 0.257573 -2.67563 0
M  V30 4339 C 445.984 -2.22788 -2.79464 0
M  V30 4340 S 447.543 -2.36432 -3.69656 0
M  V30 4341 H 444.361 -0.470973 -0.53264 0
M  V30 4342 H 446.963 -1.72333 -0.92312 0
M  V30 4343 H 445.667 -3.24774 -2.50899 0
M  V30 4344 H 445.198 -1.84112 -3.47658 0
M  V30 4345 H 447.213 -1.56573 -4.7085 0
M  V30 4346 N 446.386 1.0089 -1.21074 0
M  V30 4347 C 447.802 1.2695 -0.967257 0
M  V30 4348 C 448.002 1.9846 0.348673 0
M  V30 4349 O 447.058 2.28459 1.0753 0
M  V30 4350 C 448.371 2.09697 -2.15517 0
M  V30 4351 C 449.919 2.22937 -2.197 0
M  V30 4352 C 450.394 3.09064 -3.37999 0
M  V30 4353 N 451.885 3.16653 -3.38061 0
M  V30 4354 C 452.62 3.8354 -4.26245 0
M  V30 4355 N 452.116 4.52488 -5.2462 0
M  V30 4356 N 453.909 3.80141 -4.14064 0
M  V30 4357 H 446.06 0.529005 -2.05707 0
M  V30 4358 H 448.323 0.296148 -0.900556 0
M  V30 4359 H 448.029 1.64497 -3.10859 0
M  V30 4360 H 447.903 3.10444 -2.14253 0
M  V30 4361 H 450.29 2.67357 -1.24916 0
M  V30 4362 H 450.371 1.21673 -2.2501 0
M  V30 4363 H 450.015 2.65347 -4.33074 0
M  V30 4364 H 449.945 4.10433 -3.29928 0
M  V30 4365 H 452.436 2.67566 -2.66865 0
M  V30 4366 H 452.749 5.01219 -5.88217 0
M  V30 4367 H 451.094 4.51288 -5.28549 0
M  V30 4368 H 454.285 3.25427 -3.36474 0
M  V30 4369 H 454.458 4.31992 -4.82998 0
M  V30 4370 N 447.864 1.01787 1.20321 0
M  V30 4371 C 449.141 0.622978 1.85414 0
M  V30 4372 C 449.521 -0.898887 1.91006 0
M  V30 4373 O 448.869 -1.79112 1.41884 0
M  V30 4374 C 449.079 1.27226 3.24984 0
M  V30 4375 C 450.427 1.3885 4.01255 0
M  V30 4376 O 451.451 1.22857 3.34342 0
M  V30 4377 O 450.31 1.64705 5.2109 0
M  V30 4378 H 447.404 0.215116 0.798533 0
M  V30 4379 H 449.95 1.11533 1.27901 0
M  V30 4380 H 448.722 2.31209 3.15687 0
M  V30 4381 H 448.345 0.767069 3.90131 0
M  V30 4382 N 449.342 -1.36122 0.79427 0
M  V30 4383 C 450.588 -1.99846 0.378542 0
M  V30 4384 C 450.943 -1.61898 -1.03955 0
M  V30 4385 O 450.236 -0.866013 -1.70912 0
M  V30 4386 C 450.43 -3.5409 0.48527 0
M  V30 4387 C 450.259 -4.0702 1.91219 0
M  V30 4388 C 449.029 -4.36944 2.53787 0
M  V30 4389 C 451.227 -4.26435 2.87502 0
M  V30 4390 N 449.209 -4.75727 3.88017 0
M  V30 4391 C 450.58 -4.68077 4.06576 0
M  V30 4392 C 452.635 -4.08616 2.84495 0
M  V30 4393 C 451.338 -4.93765 5.23057 0
M  V30 4394 C 453.364 -4.35453 4.00169 0
M  V30 4395 C 452.726 -4.77355 5.17988 0
M  V30 4396 H 448.825 -0.759549 0.186034 0
M  V30 4397 H 451.409 -1.65043 1.0329 0
M  V30 4398 H 449.58 -3.88151 -0.139023 0
M  V30 4399 H 451.312 -4.04675 0.0453192 0
M  V30 4400 H 448.067 -4.26822 2.05231 0
M  V30 4401 H 448.491 -4.99396 4.57092 0
M  V30 4402 H 453.133 -3.75373 1.94564 0
M  V30 4403 H 450.851 -5.25887 6.1357 0
M  V30 4404 H 454.437 -4.2323 3.99208 0
M  V30 4405 H 453.317 -4.97718 6.06008 0
M  V30 4406 N 450.82 -0.546701 -1.47814 0
M  V30 4407 C 452.045 -0.021268 -2.07389 0
M  V30 4408 C 452.47 1.25822 -1.39822 0
M  V30 4409 O 451.828 1.75111 -0.46968 0
M  V30 4410 C 451.876 0.168502 -3.60206 0
M  V30 4411 O 450.98 1.23347 -3.93522 0
M  V30 4412 H 450.321 -0.0466108 -0.662362 0
M  V30 4413 H 452.851 -0.759387 -1.89985 0
M  V30 4414 H 452.861 0.385982 -4.0617 0
M  V30 4415 H 451.536 -0.766075 -4.08784 0
M  V30 4416 H 450.113 0.997319 -3.59316 0
M  V30 4417 N 452.299 1.55045 -0.282633 0
M  V30 4418 C 453.576 1.9179 0.384166 0
M  V30 4419 C 453.956 1.20778 1.73136 0
M  V30 4420 O 453.304 0.33719 2.25998 0
M  V30 4421 C 453.514 3.45149 0.517014 0
M  V30 4422 C 454.862 4.17064 0.796427 0
M  V30 4423 O 455.886 3.51084 0.601535 0
M  V30 4424 O 454.745 5.33837 1.16962 0
M  V30 4425 H 451.839 0.799483 0.211558 0
M  V30 4426 H 454.385 1.66474 -0.32934 0
M  V30 4427 H 453.157 3.88922 -0.430772 0
M  V30 4428 H 452.78 3.76443 1.2797 0
M  V30 4429 N 453.777 0.010035 1.57597 0
M  V30 4430 C 454.687 -0.994226 2.12491 0
M  V30 4431 C 455.703 -1.37013 1.07254 0
M  V30 4432 O 456.879 -1.45542 1.3921 0
M  V30 4433 C 453.944 -2.2642 2.62555 0
M  V30 4434 C 453.005 -1.95049 3.82432 0
M  V30 4435 C 452.238 -3.15991 4.30099 0
M  V30 4436 O 452.461 -4.28015 3.7704 0
M  V30 4437 O 451.395 -2.99403 5.22151 0
M  V30 4438 H 455.221 -0.557549 2.98538 0
M  V30 4439 H 452.806 -0.209413 1.47925 0
M  V30 4440 H 454.688 -3.01009 2.9491 0
M  V30 4441 H 453.363 -2.69306 1.796 0
M  V30 4442 H 452.27 -1.17904 3.55034 0
M  V30 4443 H 453.603 -1.56992 4.66491 0
M  V30 4444 N 455.255 -1.55392 -0.262866 0
M  V30 4445 C 456.666 -1.67079 -0.833158 0
M  V30 4446 C 457.017 -0.604539 -1.86654 0
M  V30 4447 O 456.142 0.252138 -2.14926 0
M  V30 4448 C 456.737 -3.02891 -1.51797 0
M  V30 4449 C 455.296 -3.16571 -2.03617 0
M  V30 4450 C 454.443 -2.62909 -0.881701 0
M  V30 4451 H 457.394 -1.58652 -0.0389986 0
M  V30 4452 H 457.415 -2.96445 -2.38538 0
M  V30 4453 H 456.927 -3.80473 -0.765619 0
M  V30 4454 H 455.028 -2.43782 -2.81782 0
M  V30 4455 H 455.141 -4.23271 -2.24452 0
M  V30 4456 H 453.505 -2.20324 -1.27786 0
M  V30 4457 H 454.288 -3.43003 -0.14269 0
M  V30 4458 N 456.733 0.527833 -1.48498 0
M  V30 4459 C 457.982 1.28003 -1.55878 0
M  V30 4460 C 458.295 1.9414 -0.238577 0
M  V30 4461 O 459.501 2.7083 -0.190643 0
M  V30 4462 C 457.957 2.32272 -2.74914 0
M  V30 4463 C 457.565 1.72196 -4.13585 0
M  V30 4464 C 459.309 3.08488 -2.91608 0
M  V30 4465 C 457.216 2.74417 -5.23879 0
M  V30 4466 H 456.146 0.481413 -0.580308 0
M  V30 4467 H 458.797 0.557195 -1.74836 0
M  V30 4468 H 457.179 3.07601 -2.49395 0
M  V30 4469 H 458.353 1.03041 -4.49132 0
M  V30 4470 H 456.668 1.08464 -4.02025 0
M  V30 4471 H 459.265 3.84879 -3.71177 0
M  V30 4472 H 459.608 3.64481 -2.01145 0
M  V30 4473 H 460.141 2.40274 -3.17038 0
M  V30 4474 H 456.88 2.23242 -6.16314 0
M  V30 4475 H 456.4 3.41893 -4.92818 0
M  V30 4476 H 458.079 3.37362 -5.52083 0
M  V30 4477 N 458.211 1.37122 0.776871 0
M  V30 4478 C 459.158 1.3247 1.88998 0
M  V30 4479 C 460.128 0.191143 1.64997 0
M  V30 4480 O 461.313 0.379683 1.86984 0
M  V30 4481 C 458.453 1.13241 3.25992 0
M  V30 4482 C 457.566 2.35782 3.61982 0
M  V30 4483 C 456.701 2.09465 4.88158 0
M  V30 4484 C 455.74 3.279 5.16864 0
M  V30 4485 N 454.877 3.01167 6.34226 0
M  V30 4486 H 459.717 2.27642 1.9231 0
M  V30 4487 H 457.254 1.13125 0.94027 0
M  V30 4488 H 459.212 1.00115 4.0501 0
M  V30 4489 H 457.842 0.217186 3.22069 0
M  V30 4490 H 456.894 2.59666 2.77989 0
M  V30 4491 H 458.206 3.24125 3.79137 0
M  V30 4492 H 457.36 1.93341 5.75069 0
M  V30 4493 H 456.099 1.18452 4.73097 0
M  V30 4494 H 455.104 3.44569 4.2843 0
M  V30 4495 H 456.329 4.19757 5.33836 0
M  V30 4496 H 454.275 2.12779 6.20533 0
M  V30 4497 H 454.192 3.83052 6.51772 0
M  V30 4498 H 455.46 2.88649 7.24087 0
M  V30 4499 N 459.689 -1.00246 1.21608 0
M  V30 4500 C 460.599 -2.12515 0.993709 0
M  V30 4501 C 461.615 -1.73913 -0.0549939 0
M  V30 4502 O 462.791 -2.00943 0.135619 0
M  V30 4503 C 459.856 -3.42083 0.563953 0
M  V30 4504 C 458.917 -3.94843 1.68516 0
M  V30 4505 C 458.15 -5.18226 1.27582 0
M  V30 4506 O 458.373 -5.70201 0.150506 0
M  V30 4507 O 457.307 -5.64497 2.0887 0
M  V30 4508 H 461.133 -2.34152 1.93407 0
M  V30 4509 H 458.718 -1.10891 1.00118 0
M  V30 4510 H 460.6 -4.20073 0.334194 0
M  V30 4511 H 459.275 -3.21828 -0.347665 0
M  V30 4512 H 458.182 -3.18068 1.96935 0
M  V30 4513 H 459.515 -4.19512 2.5743 0
M  V30 4514 N 461.167 -1.02423 -1.1978 0
M  V30 4515 C 462.407 -0.726635 -1.91048 0
M  V30 4516 C 462.771 0.730947 -1.77542 0
M  V30 4517 O 463.972 1.14141 -2.43362 0
M  V30 4518 C 462.243 -1.15964 -3.38064 0
M  V30 4519 S 463.802 -0.985172 -4.27598 0
M  V30 4520 H 460.62 -0.264679 -0.659899 0
M  V30 4521 H 463.222 -1.31309 -1.44838 0
M  V30 4522 H 461.926 -2.21619 -3.45417 0
M  V30 4523 H 461.457 -0.566274 -3.89303 0
M  V30 4524 H 463.472 0.106946 -4.96085 0
M  V30 4525 N 462.645 1.35699 -0.801477 0
M  V30 4526 C 463.893 1.9852 -0.37871 0
M  V30 4527 C 464.214 1.63907 1.05638 0
M  V30 4528 O 463.484 0.919013 1.73006 0
M  V30 4529 H 462.064 0.734322 -0.137042 0
M  V30 4530 H 464.726 1.65697 -1.02619 0
M  V30 4531 H 463.822 3.08382 -0.480284 0
M  V30 4532 N 464.123 0.554532 1.47522 0
M  V30 4533 C 465.351 0.034257 2.06872 0
M  V30 4534 C 465.766 -1.25826 1.40759 0
M  V30 4535 O 465.123 -1.75425 0.503217 0
M  V30 4536 C 465.174 -0.167827 3.6111 0
M  V30 4537 O 464.895 1.07351 4.24744 0
M  V30 4538 C 466.396 -0.72569 4.3732 0
M  V30 4539 H 463.616 0.0446275 0.669514 0
M  V30 4540 H 466.16 0.767181 1.89564 0
M  V30 4541 H 464.315 -0.850872 3.7794 0
M  V30 4542 H 464.729 0.869563 5.17242 0
M  V30 4543 H 466.203 -0.816394 5.45929 0
M  V30 4544 H 466.68 -1.73635 4.0342 0
M  V30 4545 H 467.286 -0.0784292 4.25228 0
M  V30 4546 N 465.601 -1.54893 0.290851 0
M  V30 4547 C 466.549 -2.24579 -0.605576 0
M  V30 4548 C 467.543 -1.24824 -1.14522 0
M  V30 4549 O 468.749 -1.42706 -1.09704 0
M  V30 4550 H 465.124 -0.720946 -0.213872 0
M  V30 4551 H 467.095 -2.984 0.0048173 0
M  V30 4552 C 465.844 -2.99224 -1.77088 0
M  V30 4553 H 465.167 -3.75782 -1.36484 0
M  V30 4554 H 466.607 -3.51281 -2.3744 0
M  V30 4555 C 465.066 -2.05602 -2.66888 0
M  V30 4556 O 465.596 -1.61745 -3.67698 0
M  V30 4557 N 463.802 -1.71771 -2.34399 0
M  V30 4558 H 463.349 -2.07633 -1.52468 0
M  V30 4559 H 463.307 -1.09403 -2.94751 0
M  V30 4560 N 467.08 -0.0183926 -1.57589 0
M  V30 4561 C 467.99 0.982943 -2.13015 0
M  V30 4562 C 469.006 1.36443 -1.07979 0
M  V30 4563 O 470.182 1.44802 -1.3998 0
M  V30 4564 C 467.247 2.25024 -2.63752 0
M  V30 4565 C 466.308 1.93018 -3.83461 0
M  V30 4566 C 465.541 3.13706 -4.31769 0
M  V30 4567 O 465.764 4.2601 -3.79305 0
M  V30 4568 O 464.698 2.96629 -5.23732 0
M  V30 4569 H 468.524 0.541709 -2.9883 0
M  V30 4570 H 466.109 0.201565 -1.48034 0
M  V30 4571 H 467.991 2.99441 -2.96502 0
M  V30 4572 H 466.666 2.68349 -1.81026 0
M  V30 4573 H 465.573 1.16019 -3.55655 0
M  V30 4574 H 466.906 1.54516 -4.67317 0
M  V30 4575 N 468.558 1.5553 0.254621 0
M  V30 4576 C 469.798 1.7876 0.991179 0
M  V30 4577 C 470.162 0.586669 1.82817 0
M  V30 4578 O 471.363 0.697585 2.5959 0
M  V30 4579 C 469.634 3.06679 1.83529 0
M  V30 4580 S 471.193 3.511 2.632 0
M  V30 4581 H 468.011 0.627916 0.333531 0
M  V30 4582 H 470.613 1.93766 0.259778 0
M  V30 4583 H 469.317 3.92158 1.20996 0
M  V30 4584 H 468.848 2.94388 2.60958 0
M  V30 4585 H 470.863 3.11823 3.8598 0
M  V30 4586 N 470.036 -0.519951 1.48776 0
M  V30 4587 C 470.966 -1.63253 1.66945 0
M  V30 4588 C 471.947 -1.62014 0.518224 0
M  V30 4589 O 473.132 -1.79053 0.751919 0
M  V30 4590 C 470.262 -3.0181 1.71836 0
M  V30 4591 C 469.216 -3.17911 2.8656 0
M  V30 4592 C 468.542 -4.5763 2.76548 0
M  V30 4593 C 469.842 -2.99729 4.27738 0
M  V30 4594 H 471.536 -1.48302 2.6009 0
M  V30 4595 H 469.082 -0.712026 1.25165 0
M  V30 4596 H 471.035 -3.79525 1.83135 0
M  V30 4597 H 469.759 -3.17806 0.752775 0
M  V30 4598 H 468.418 -2.42616 2.74833 0
M  V30 4599 H 468.066 -4.70476 1.77937 0
M  V30 4600 H 467.766 -4.69346 3.53536 0
M  V30 4601 H 469.29 -5.37431 2.89828 0
M  V30 4602 H 470.704 -3.67228 4.40246 0
M  V30 4603 H 469.101 -3.22932 5.05801 0
M  V30 4604 H 470.171 -1.96047 4.43502 0
M  V30 4605 N 471.514 -1.37532 -0.769588 0
M  V30 4606 C 472.791 -1.23392 -1.51768 0
M  V30 4607 C 473.171 0.17157 -2.10402 0
M  V30 4608 O 472.519 1.17943 -1.95708 0
M  V30 4609 C 472.729 -2.33163 -2.59685 0
M  V30 4610 C 474.077 -2.70809 -3.27028 0
M  V30 4611 O 475.101 -2.32355 -2.69981 0
M  V30 4612 O 473.96 -3.37066 -4.30173 0
M  V30 4613 H 471.054 -0.481617 -0.67229 0
M  V30 4614 H 473.6 -1.49318 -0.806368 0
M  V30 4615 H 472.372 -3.27273 -2.14494 0
M  V30 4616 H 471.995 -2.08713 -3.38415 0
M  V30 4617 N 472.992 0.995999 -1.22138 0
M  V30 4618 C 473.94 2.10673 -0.985876 0
M  V30 4619 C 474.934 1.69255 0.0699553 0
M  V30 4620 O 476.14 1.79812 -0.0822176 0
M  V30 4621 H 472.515 0.688865 -0.30161 0
M  V30 4622 H 474.486 2.27711 -1.92848 0
M  V30 4623 C 473.235 3.42881 -0.576909 0
M  V30 4624 H 472.558 3.75191 -1.38101 0
M  V30 4625 H 473.998 4.21589 -0.451518 0
M  V30 4626 C 472.457 3.29265 0.713196 0
M  V30 4627 O 472.987 3.60777 1.76643 0
M  V30 4628 N 471.193 2.82456 0.683162 0
M  V30 4629 H 470.74 2.5701 -0.174242 0
M  V30 4630 H 470.698 2.73727 1.54663 0
M  V30 4631 N 474.47 1.03057 1.19235 0
M  V30 4632 C 475.418 0.606391 2.24557 0
M  V30 4633 C 476.412 -0.361826 1.65491 0
M  V30 4634 O 477.618 -0.23022 1.78522 0
M  V30 4635 H 473.993 0.177838 0.730669 0
M  V30 4636 H 475.964 1.50529 2.5765 0
M  V30 4637 C 474.713 -0.0252127 3.47691 0
M  V30 4638 H 474.036 0.710838 3.9343 0
M  V30 4639 H 475.476 -0.284931 4.23042 0
M  V30 4640 C 473.935 -1.27229 3.11953 0
M  V30 4641 O 474.465 -2.36416 3.24762 0
M  V30 4642 N 472.671 -1.16169 2.6637 0
M  V30 4643 H 472.218 -0.273189 2.56147 0
M  V30 4644 H 472.176 -1.99703 2.42829 0
M  V30 4645 N 475.948 -1.35272 0.808662 0
M  V30 4646 C 477.196 -1.98316 0.389233 0
M  V30 4647 C 477.517 -1.64465 -1.04767 0
M  V30 4648 O 476.787 -0.928175 -1.72516 0
M  V30 4649 H 475.367 -0.733585 0.140935 0
M  V30 4650 H 478.029 -1.6515 1.03496 0
M  V30 4651 H 477.125 -3.08123 0.496631 0
M  V30 4652 N 477.426 -0.562348 -1.47226 0
M  V30 4653 C 478.674 -0.0401371 -2.0206 0
M  V30 4654 C 478.995 1.3165 -1.43852 0
M  V30 4655 O 478.265 1.85976 -0.615599 0
M  V30 4656 H 476.845 -0.0118479 -0.746906 0
M  V30 4657 H 479.507 -0.73352 -1.8057 0
M  V30 4658 H 478.603 0.0441254 -3.12069 0
M  V30 4659 N 478.904 1.54736 -0.299062 0
M  V30 4660 C 480.144 2.0201 0.31168 0
M  V30 4661 C 480.508 1.18281 1.5124 0
M  V30 4662 O 481.709 1.55243 2.19438 0
M  V30 4663 C 479.98 3.5123 0.661227 0
M  V30 4664 S 481.539 4.20467 1.2551 0
M  V30 4665 H 478.357 0.704523 0.0957517 0
M  V30 4666 H 480.959 1.90791 -0.426482 0
M  V30 4667 H 479.663 4.09804 -0.221171 0
M  V30 4668 H 479.194 3.66481 1.43023 0
M  V30 4669 H 481.209 4.26083 2.54298 0
M  V30 4670 N 480.382 0.0267497 1.57577 0
M  V30 4671 C 481.607 -0.666227 1.96408 0
M  V30 4672 C 482.032 -1.65004 0.903071 0
M  V30 4673 O 481.39 -1.80787 -0.136263 0
M  V30 4674 C 481.438 -1.35101 3.34335 0
M  V30 4675 O 480.542 -2.46623 3.30531 0
M  V30 4676 H 479.883 -0.175206 0.640468 0
M  V30 4677 H 482.413 0.0878977 2.04411 0
M  V30 4678 H 482.423 -1.70834 3.70513 0
M  V30 4679 H 481.098 -0.629844 4.11103 0
M  V30 4680 H 479.675 -2.13019 3.06068 0
M  V30 4681 N 481.861 -1.55662 -0.24637 0
M  V30 4682 C 482.811 -1.86753 -1.30795 0
M  V30 4683 C 483.795 -0.728445 -1.43466 0
M  V30 4684 O 484.987 -0.99038 -1.46699 0
M  V30 4685 C 482.116 -2.16618 -2.66329 0
M  V30 4686 C 481.202 -3.36855 -2.57661 0
M  V30 4687 N 481.593 -4.56111 -2.18624 0
M  V30 4688 C 479.891 -3.39976 -2.88673 0
M  V30 4689 C 480.592 -5.38247 -2.20601 0
M  V30 4690 N 479.568 -4.77322 -2.60124 0
M  V30 4691 H 483.37 -2.76486 -0.996642 0
M  V30 4692 H 480.884 -1.55896 -0.454994 0
M  V30 4693 H 482.881 -2.37057 -3.42942 0
M  V30 4694 H 481.541 -1.28185 -2.98327 0
M  V30 4695 H 482.552 -4.81726 -1.9016 0
M  V30 4696 H 479.229 -2.61815 -3.25206 0
M  V30 4697 H 480.619 -6.43657 -1.92756 0
M  V30 4698 N 483.339 0.512053 -1.4905 0
M  V30 4699 C 484.585 1.26874 -1.58212 0
M  V30 4700 C 484.918 1.9241 -0.263073 0
M  V30 4701 O 484.193 1.80181 0.732476 0
M  V30 4702 C 484.476 2.34428 -2.73341 0
M  V30 4703 C 484.329 1.73466 -4.15006 0
M  V30 4704 C 485.648 3.36073 -2.84154 0
M  V30 4705 H 482.767 0.459924 -0.575881 0
M  V30 4706 H 485.409 0.568587 -1.81293 0
M  V30 4707 H 483.559 2.94146 -2.53792 0
M  V30 4708 H 485.231 1.17661 -4.46042 0
M  V30 4709 H 483.474 1.03921 -4.21168 0
M  V30 4710 H 484.145 2.51426 -4.91415 0
M  V30 4711 H 486.621 2.86332 -3.01916 0
M  V30 4712 H 485.497 4.08703 -3.66406 0
M  V30 4713 H 485.758 3.97725 -1.93048 0
M  V30 4714 N 484.817 1.37938 0.762283 0
M  V30 4715 C 486.057 1.35076 1.53407 0
M  V30 4716 C 486.421 -0.061546 1.91901 0
M  V30 4717 O 487.622 -0.214973 2.67939 0
M  V30 4718 C 485.893 2.27206 2.75884 0
M  V30 4719 S 487.452 2.42283 3.65848 0
M  V30 4720 H 484.27 0.479387 0.52508 0
M  V30 4721 H 486.872 1.7378 0.895586 0
M  V30 4722 H 485.576 3.28724 2.457 0
M  V30 4723 H 485.107 1.8962 3.44685 0
M  V30 4724 H 487.122 1.64044 4.68299 0
M  V30 4725 N 486.295 -0.989507 1.22664 0
M  V30 4726 C 487.243 -2.10148 0.997035 0
M  V30 4727 C 488.237 -1.6929 -0.0609783 0
M  V30 4728 O 489.443 -1.79766 0.0917523 0
M  V30 4729 H 485.818 -0.687256 0.305259 0
M  V30 4730 H 487.789 -2.26685 1.94053 0
M  V30 4731 C 486.538 -3.4257 0.595085 0
M  V30 4732 H 485.861 -3.74453 1.40089 0
M  V30 4733 H 487.301 -4.21344 0.473869 0
M  V30 4734 C 485.76 -3.29638 -0.695725 0
M  V30 4735 O 486.29 -3.61709 -1.74727 0
M  V30 4736 N 484.496 -2.82814 -0.668173 0
M  V30 4737 H 484.043 -2.56914 0.18787 0
M  V30 4738 H 484.001 -2.74544 -1.5321 0
M  V30 4739 N 487.773 -1.03688 -1.18687 0
M  V30 4740 C 489.05 -0.652397 -1.84399 0
M  V30 4741 C 489.43 0.868386 -1.92412 0
M  V30 4742 O 488.778 1.76832 -1.44716 0
M  V30 4743 C 488.988 -1.3238 -3.22919 0
M  V30 4744 C 490.336 -1.45216 -3.98996 0
M  V30 4745 O 491.36 -1.2816 -3.32345 0
M  V30 4746 O 490.219 -1.72975 -5.18403 0
M  V30 4747 H 487.313 -0.227793 -0.795009 0
M  V30 4748 H 489.859 -1.13553 -1.2611 0
M  V30 4749 H 488.631 -2.36202 -3.11968 0
M  V30 4750 H 488.254 -0.829039 -3.88861 0
M  V30 4751 N 489.251 1.34841 -0.815825 0
M  V30 4752 C 490.181 2.32187 -0.247298 0
M  V30 4753 C 491.162 1.5791 0.632344 0
M  V30 4754 O 492.347 1.8593 0.560698 0
M  V30 4755 C 489.477 3.42122 0.597466 0
M  V30 4756 C 488.431 4.27602 -0.184446 0
M  V30 4757 C 487.757 5.28942 0.782609 0
M  V30 4758 C 489.057 5.03502 -1.38865 0
M  V30 4759 H 490.751 2.79985 -1.06061 0
M  V30 4760 H 488.297 1.34611 -0.511461 0
M  V30 4761 H 490.25 4.09232 1.00533 0
M  V30 4762 H 488.974 2.92956 1.44376 0
M  V30 4763 H 487.633 3.62085 -0.573592 0
M  V30 4764 H 487.281 4.7604 1.62466 0
M  V30 4765 H 486.981 5.87008 0.263695 0
M  V30 4766 H 488.505 5.98922 1.18848 0
M  V30 4767 H 489.919 5.63506 -1.05518 0
M  V30 4768 H 488.316 5.71108 -1.8427 0
M  V30 4769 H 489.386 4.33608 -2.17054 0
M  V30 4770 N 490.729 0.570148 1.46925 0
M  V30 4771 C 491.676 -0.170257 2.30171 0
M  V30 4772 C 492.646 -0.896099 1.39855 0
M  V30 4773 O 493.831 -0.889248 1.68811 0
M  V30 4774 C 490.971 -1.18605 3.24079 0
M  V30 4775 C 490.084 -0.464947 4.29491 0
M  V30 4776 C 489.219 -1.46716 5.10537 0
M  V30 4777 C 488.258 -0.731758 6.0771 0
M  V30 4778 N 487.395 -1.68142 6.81669 0
M  V30 4779 H 492.235 0.545713 2.92961 0
M  V30 4780 H 489.772 0.280938 1.44392 0
M  V30 4781 H 491.73 -1.78771 3.76957 0
M  V30 4782 H 490.36 -1.86989 2.63125 0
M  V30 4783 H 489.412 0.251506 3.79568 0
M  V30 4784 H 490.724 0.110548 4.98677 0
M  V30 4785 H 489.878 -2.14199 5.6763 0
M  V30 4786 H 488.617 -2.07658 4.41282 0
M  V30 4787 H 487.622 -0.0430787 5.49783 0
M  V30 4788 H 488.847 -0.127904 6.7898 0
M  V30 4789 H 486.793 -2.27918 6.15134 0
M  V30 4790 H 486.71 -1.15841 7.47072 0
M  V30 4791 H 487.978 -2.347 7.43328 0
M  V30 4792 N 492.207 -1.54576 0.307264 0
M  V30 4793 C 493.456 -1.99442 -0.300976 0
M  V30 4794 C 493.769 -1.19928 -1.5452 0
M  V30 4795 O 494.975 -1.55092 -2.22842 0
M  V30 4796 C 493.431 -3.55084 -0.586809 0
M  V30 4797 C 493.039 -4.43413 0.639438 0
M  V30 4798 C 494.783 -4.0846 -1.1559 0
M  V30 4799 C 492.69 -5.90499 0.326411 0
M  V30 4800 H 491.62 -0.744986 -0.116238 0
M  V30 4801 H 494.271 -1.787 0.416947 0
M  V30 4802 H 492.653 -3.71749 -1.36449 0
M  V30 4803 H 493.827 -4.38522 1.41545 0
M  V30 4804 H 492.142 -4.00842 1.1276 0
M  V30 4805 H 494.739 -5.15926 -1.40445 0
M  V30 4806 H 495.082 -3.59443 -2.10015 0
M  V30 4807 H 495.615 -3.95362 -0.439778 0
M  V30 4808 H 492.354 -6.43676 1.23939 0
M  V30 4809 H 491.874 -5.98382 -0.412212 0
M  V30 4810 H 493.553 -6.46962 -0.0697393 0
M  V30 4811 N 493.685 -0.035106 -1.57561 0
M  V30 4812 C 494.933 0.64096 -1.91667 0
M  V30 4813 C 495.254 1.72323 -0.912681 0
M  V30 4814 O 494.524 1.95849 0.0449089 0
M  V30 4815 H 493.104 0.239743 -0.707483 0
M  V30 4816 H 495.766 -0.084321 -1.94718 0
M  V30 4817 H 494.862 1.08987 -2.92452 0
M  V30 4818 N 495.163 1.55791 0.238111 0
M  V30 4819 C 496.393 1.81834 0.980809 0
M  V30 4820 C 496.801 0.609741 1.79106 0
M  V30 4821 O 496.144 -0.431073 1.78571 0
M  V30 4822 C 496.206 3.01363 1.96011 0
M  V30 4823 C 495.87 4.37037 1.33597 0
M  V30 4824 C 496.867 5.14692 0.734063 0
M  V30 4825 C 494.552 4.83743 1.3527 0
M  V30 4826 C 496.546 6.37206 0.157208 0
M  V30 4827 C 494.233 6.06204 0.77199 0
M  V30 4828 C 495.231 6.82775 0.175282 0
M  V30 4829 O 494.919 8.02922 -0.396432 0
M  V30 4830 H 494.651 0.6088 0.293834 0
M  V30 4831 H 497.205 2.03702 0.263552 0
M  V30 4832 H 495.435 2.75273 2.71591 0
M  V30 4833 H 497.124 3.14422 2.56697 0
M  V30 4834 H 497.89 4.79722 0.713582 0
M  V30 4835 H 493.769 4.24129 1.80653 0
M  V30 4836 H 497.313 6.96915 -0.30917 0
M  V30 4837 H 493.21 6.4065 0.789828 0
M  V30 4838 H 493.978 8.17989 -0.289145 0
M  V30 4839 N 496.642 -0.504142 1.49319 0
M  V30 4840 C 497.552 -1.63248 1.68486 0
M  V30 4841 C 498.568 -1.64488 0.567432 0
M  V30 4842 O 499.744 -1.82966 0.841749 0
M  V30 4843 C 496.809 -2.99627 1.74426 0
M  V30 4844 C 495.87 -3.09039 2.97982 0
M  V30 4845 C 495.103 -4.38913 3.0363 0
M  V30 4846 O 495.326 -5.27528 2.16958 0
M  V30 4847 O 494.26 -4.53231 3.96062 0
M  V30 4848 H 498.086 -1.50008 2.64067 0
M  V30 4849 H 495.671 -0.680086 1.33023 0
M  V30 4850 H 497.553 -3.80689 1.80705 0
M  V30 4851 H 496.228 -3.13136 0.820233 0
M  V30 4852 H 495.135 -2.27177 2.97223 0
M  V30 4853 H 496.468 -3.00456 3.89855 0
M  V30 4854 N 498.12 -1.38341 -0.754957 0
M  V30 4855 C 499.36 -1.35888 -1.52689 0
M  V30 4856 C 499.724 0.0513682 -1.91931 0
M  V30 4857 O 500.925 0.200761 -2.68049 0
M  V30 4858 C 499.196 -2.28666 -2.74676 0
M  V30 4859 S 500.755 -2.4422 -3.64558 0
M  V30 4860 H 497.573 -0.482165 -0.522531 0
M  V30 4861 H 500.175 -1.74253 -0.886358 0
M  V30 4862 H 498.879 -3.30023 -2.43953 0
M  V30 4863 H 498.41 -1.91445 -3.43675 0
M  V30 4864 H 500.425 -1.66525 -4.67423 0
M  V30 4865 N 499.598 0.982988 -1.23187 0
M  V30 4866 C 500.528 2.09301 -1.03515 0
M  V30 4867 C 501.509 1.70035 0.0471136 0
M  V30 4868 O 502.694 1.93847 -0.117029 0
M  V30 4869 C 499.824 3.4167 -0.622791 0
M  V30 4870 C 498.778 3.94828 -1.65211 0
M  V30 4871 C 498.104 5.23362 -1.09527 0
M  V30 4872 C 499.404 4.2439 -3.04451 0
M  V30 4873 H 501.098 2.26016 -1.96359 0
M  V30 4874 H 498.644 1.08611 -0.945501 0
M  V30 4875 H 500.597 4.18746 -0.472233 0
M  V30 4876 H 499.321 3.24811 0.341329 0
M  V30 4877 H 497.98 3.19895 -1.79061 0
M  V30 4878 H 497.628 5.02852 -0.122211 0
M  V30 4879 H 497.328 5.59895 -1.783 0
M  V30 4880 H 498.852 6.03062 -0.956511 0
M  V30 4881 H 500.266 4.92225 -2.93917 0
M  V30 4882 H 498.663 4.72118 -3.70438 0
M  V30 4883 H 499.733 3.31765 -3.53638 0
M  V30 4884 N 501.076 1.04316 1.18135 0
M  V30 4885 C 502.316 0.756937 1.89868 0
M  V30 4886 C 502.68 -0.702609 1.78682 0
M  V30 4887 O 503.881 -1.10255 2.45148 0
M  V30 4888 C 502.152 1.21327 3.36176 0
M  V30 4889 S 503.711 1.05307 4.25976 0
M  V30 4890 H 500.529 0.275143 0.655604 0
M  V30 4891 H 503.131 1.33597 1.42731 0
M  V30 4892 H 501.835 2.27086 3.41848 0
M  V30 4893 H 501.366 0.628137 3.88353 0
M  V30 4894 H 503.381 -0.0280093 4.96192 0
M  V30 4895 N 502.554 -1.34406 0.822964 0
M  V30 4896 C 503.965 -1.8069 0.469879 0
M  V30 4897 C 504.316 -1.68223 -1.00972 0
M  V30 4898 O 503.441 -1.22226 -1.78577 0
M  V30 4899 C 504.036 -3.28064 0.846118 0
M  V30 4900 C 502.595 -3.72428 0.545402 0
M  V30 4901 C 501.742 -2.56116 1.06301 0
M  V30 4902 H 504.693 -1.22153 1.01313 0
M  V30 4903 H 504.714 -3.80205 0.149922 0
M  V30 4904 H 504.226 -3.37107 1.92304 0
M  V30 4905 H 502.327 -3.68924 -0.522109 0
M  V30 4906 H 502.44 -4.66548 1.0895 0
M  V30 4907 H 500.804 -2.50048 0.484554 0
M  V30 4908 H 501.587 -2.67928 2.14638 0
M  V30 4909 N 504.032 -0.577932 -1.46621 0
M  V30 4910 C 505.309 0.00495287 -1.95599 0
M  V30 4911 C 505.689 1.46428 -1.5206 0
M  V30 4912 O 505.037 2.1517 -0.769046 0
M  V30 4913 C 505.247 -0.162114 -3.48623 0
M  V30 4914 C 506.595 -0.0274623 -4.24591 0
M  V30 4915 O 507.619 -0.0907067 -3.56084 0
M  V30 4916 O 506.478 0.1122 -5.46385 0
M  V30 4917 H 503.572 0.0525057 -0.825332 0
M  V30 4918 H 506.118 -0.645914 -1.56927 0
M  V30 4919 H 504.89 -1.17679 -3.73185 0
M  V30 4920 H 504.513 0.525407 -3.94113 0
M  V30 4921 N 505.51 1.54411 -0.315457 0
M  V30 4922 C 506.758 2.00023 0.288971 0
M  V30 4923 C 507.079 1.20529 1.5329 0
M  V30 4924 O 506.349 0.304986 1.93511 0
M  V30 4925 H 504.929 0.738891 0.109766 0
M  V30 4926 H 507.591 1.90094 -0.430129 0
M  V30 4927 H 506.687 3.07198 0.550999 0
M  V30 4928 N 506.988 0.0434614 1.5754 0
M  V30 4929 C 508.235 -0.632035 1.92384 0
M  V30 4930 C 508.563 -1.71304 0.921157 0
M  V30 4931 O 507.818 -1.95583 -0.067744 0
M  V30 4932 C 508.117 -1.2738 3.3393 0
M  V30 4933 C 507.783 -0.321757 4.49751 0
M  V30 4934 C 506.445 -0.0597611 4.81163 0
M  V30 4935 C 508.797 0.331158 5.20147 0
M  V30 4936 C 506.125 0.862715 5.80322 0
M  V30 4937 C 508.477 1.24178 6.20292 0
M  V30 4938 C 507.141 1.51252 6.50138 0
M  V30 4939 H 506.411 -0.231278 0.703983 0
M  V30 4940 H 509.058 0.108294 1.91194 0
M  V30 4941 H 507.363 -2.08921 3.3145 0
M  V30 4942 H 509.06 -1.80326 3.58167 0
M  V30 4943 H 505.65 -0.53614 4.25233 0
M  V30 4944 H 509.834 0.141826 4.96097 0
M  V30 4945 H 505.09 1.08003 6.01785 0
M  V30 4946 H 509.264 1.75381 6.73954 0
M  V30 4947 H 506.891 2.22897 7.26788 0
M  V30 4948 N 508.466 -1.55915 -0.229846 0
M  V30 4949 C 509.398 -1.88209 -1.30805 0
M  V30 4950 C 510.411 -0.769672 -1.43457 0
M  V30 4951 O 511.6 -1.04792 -1.44502 0
M  V30 4952 C 508.7 -2.06829 -2.68468 0
M  V30 4953 C 507.873 -3.37798 -2.77869 0
M  V30 4954 C 506.932 -3.45952 -3.96489 0
M  V30 4955 O 505.958 -4.19043 -3.85216 0
M  V30 4956 N 507.16 -2.76488 -5.10426 0
M  V30 4957 H 509.925 -2.81286 -1.03431 0
M  V30 4958 H 507.486 -1.5636 -0.41991 0
M  V30 4959 H 509.478 -2.09608 -3.46189 0
M  V30 4960 H 508.048 -1.20416 -2.88477 0
M  V30 4961 H 507.268 -3.4719 -1.86689 0
M  V30 4962 H 508.556 -4.24091 -2.81113 0
M  V30 4963 H 507.954 -2.16868 -5.2248 0
M  V30 4964 H 506.511 -2.84938 -5.8622 0
M  V30 4965 N 509.944 0.496216 -1.49584 0
M  V30 4966 C 510.874 1.60576 -1.69521 0
M  V30 4967 C 511.855 1.61169 -0.543933 0
M  V30 4968 O 513.04 1.77834 -0.78031 0
M  V30 4969 C 510.17 2.99038 -1.76616 0
M  V30 4970 C 509.124 3.13312 -2.91581 0
M  V30 4971 C 508.45 4.53172 -2.83794 0
M  V30 4972 C 509.75 2.92886 -4.32452 0
M  V30 4973 H 511.444 1.44146 -2.62416 0
M  V30 4974 H 508.99 0.692024 -1.26282 0
M  V30 4975 H 510.943 3.76564 -1.8915 0
M  V30 4976 H 509.667 3.16568 -0.80324 0
M  V30 4977 H 508.326 2.38213 -2.78658 0
M  V30 4978 H 507.974 4.67585 -1.854 0
M  V30 4979 H 507.674 4.63662 -3.60958 0
M  V30 4980 H 509.198 5.32752 -2.98342 0
M  V30 4981 H 510.612 3.60178 -4.46032 0
M  V30 4982 H 509.009 3.14844 -5.10875 0
M  V30 4983 H 510.079 1.88966 -4.46565 0
M  V30 4984 N 511.423 1.38739 0.74761 0
M  V30 4985 C 512.669 1.35475 1.50912 0
M  V30 4986 C 513.002 -0.0533093 1.94127 0
M  V30 4987 O 512.277 -1.01572 1.65871 0
M  V30 4988 C 512.56 2.31582 2.75757 0
M  V30 4989 C 512.413 3.81274 2.38642 0
M  V30 4990 C 513.732 2.25722 3.77806 0
M  V30 4991 H 510.851 0.493427 0.547447 0
M  V30 4992 H 513.493 1.69634 0.855823 0
M  V30 4993 H 511.643 2.02582 3.31501 0
M  V30 4994 H 513.315 4.20972 1.88626 0
M  V30 4995 H 511.558 3.98664 1.71025 0
M  V30 4996 H 512.229 4.4399 3.27989 0
M  V30 4997 H 514.705 2.51336 3.31616 0
M  V30 4998 H 513.581 2.95069 4.62845 0
M  V30 4999 H 513.842 1.25803 4.23823 0
M  V30 5000 N 512.901 -0.976442 1.23707 0
M  V30 5001 C 513.864 -2.0511 1.02287 0
M  V30 5002 C 514.864 -1.60791 -0.0167195 0
M  V30 5003 O 516.054 -1.72761 0.223408 0
M  V30 5004 C 513.186 -3.36458 0.548507 0
M  V30 5005 H 514.379 -2.25545 1.9766 0
M  V30 5006 H 511.932 -1.15042 1.05806 0
M  V30 5007 H 512.667 -3.21713 -0.408818 0
M  V30 5008 H 512.452 -3.69967 1.29874 0
M  V30 5009 H 513.942 -4.15489 0.419406 0
M  V30 5010 N 514.379 -1.04941 -1.1758 0
M  V30 5011 C 515.311 -0.606174 -2.21039 0
M  V30 5012 C 516.324 0.328763 -1.59446 0
M  V30 5013 O 517.513 0.121895 -1.78083 0
M  V30 5014 C 514.613 0.133294 -3.38638 0
M  V30 5015 C 513.786 -0.811711 -4.29802 0
M  V30 5016 C 512.845 -0.113958 -5.26077 0
M  V30 5017 O 511.871 -0.747237 -5.64274 0
M  V30 5018 N 513.073 1.14953 -5.69004 0
M  V30 5019 H 515.838 -1.49606 -2.59689 0
M  V30 5020 H 513.399 -0.930997 -1.32454 0
M  V30 5021 H 515.391 0.610144 -4.00074 0
M  V30 5022 H 513.961 0.924816 -2.98607 0
M  V30 5023 H 513.181 -1.46824 -3.65837 0
M  V30 5024 H 514.469 -1.45326 -4.87604 0
M  V30 5025 H 513.867 1.68441 -5.40041 0
M  V30 5026 H 512.424 1.57049 -6.32597 0
M  V30 5027 N 515.857 1.33968 -0.830081 0
M  V30 5028 C 517.273 1.51003 -0.516742 0
M  V30 5029 C 517.473 1.77286 0.957694 0
M  V30 5030 O 516.529 1.82797 1.74188 0
M  V30 5031 C 517.842 2.67036 -1.38247 0
M  V30 5032 C 519.39 2.80919 -1.38034 0
M  V30 5033 C 519.865 4.00004 -2.23071 0
M  V30 5034 N 521.356 4.07224 -2.20733 0
M  V30 5035 C 522.091 4.98541 -2.83275 0
M  V30 5036 N 521.587 5.95033 -3.54835 0
M  V30 5037 N 523.38 4.91469 -2.72791 0
M  V30 5038 H 515.531 1.15168 -1.78466 0
M  V30 5039 H 517.794 0.565443 -0.760906 0
M  V30 5040 H 517.5 2.54266 -2.42985 0
M  V30 5041 H 517.374 3.62226 -1.05225 0
M  V30 5042 H 519.761 2.93127 -0.340713 0
M  V30 5043 H 519.842 1.86517 -1.75057 0
M  V30 5044 H 519.486 3.88557 -3.27087 0
M  V30 5045 H 519.416 4.93634 -1.83394 0
M  V30 5046 H 521.907 3.38162 -1.68687 0
M  V30 5047 H 522.22 6.61357 -3.99784 0
M  V30 5048 H 520.565 5.95135 -3.58942 0
M  V30 5049 H 523.756 4.15048 -2.16456 0
M  V30 5050 H 523.929 5.62439 -3.21818 0
M  V30 5051 N 517.335 0.585699 1.46312 0
M  V30 5052 C 518.751 0.247607 1.57668 0
M  V30 5053 C 518.951 -1.25007 1.58037 0
M  V30 5054 O 518.007 -2.03196 1.49893 0
M  V30 5055 C 519.32 0.899456 2.86933 0
M  V30 5056 C 520.868 0.873326 3.00569 0
M  V30 5057 C 521.343 1.50477 4.32574 0
M  V30 5058 N 522.834 1.46925 4.3928 0
M  V30 5059 C 523.569 1.92719 5.40044 0
M  V30 5060 N 523.065 2.46499 6.47464 0
M  V30 5061 N 524.858 1.83617 5.31264 0
M  V30 5062 H 517.009 1.55841 1.44317 0
M  V30 5063 H 519.272 0.651564 0.688599 0
M  V30 5064 H 518.978 1.95313 2.92482 0
M  V30 5065 H 518.852 0.409476 3.74971 0
M  V30 5066 H 521.239 -0.171736 2.946 0
M  V30 5067 H 521.32 1.40136 2.13999 0
M  V30 5068 H 520.964 2.54905 4.39302 0
M  V30 5069 H 520.894 0.951944 5.17924 0
M  V30 5070 H 523.385 1.07616 3.62253 0
M  V30 5071 H 523.698 2.79291 7.20567 0
M  V30 5072 H 522.043 2.50526 6.48276 0
M  V30 5073 H 525.234 1.41358 4.46246 0
M  V30 5074 H 525.407 2.19622 6.09648 0
M  V30 5075 N 518.813 -1.54241 0.323641 0
M  V30 5076 C 520.053 -2.0248 -0.279502 0
M  V30 5077 C 520.417 -1.20672 -1.49339 0
M  V30 5078 O 521.618 -1.58715 -2.1694 0
M  V30 5079 C 519.889 -3.52238 -0.605266 0
M  V30 5080 S 521.448 -4.22411 -1.18805 0
M  V30 5081 H 518.266 -0.705957 -0.0845313 0
M  V30 5082 H 520.868 -1.90089 0.456781 0
M  V30 5083 H 519.572 -4.094 0.286339 0
M  V30 5084 H 519.103 -3.6871 -1.37174 0
M  V30 5085 H 521.118 -4.30075 -2.47487 0
M  V30 5086 N 520.291 -0.0518155 -1.57515 0
M  V30 5087 C 521.201 0.937539 -2.15052 0
M  V30 5088 C 522.217 1.34121 -1.10849 0
M  V30 5089 O 523.393 1.418 -1.4302 0
M  V30 5090 C 520.458 2.19379 -2.68466 0
M  V30 5091 C 519.519 1.84841 -3.87469 0
M  V30 5092 C 518.752 3.04477 -4.38326 0
M  V30 5093 O 518.975 4.17868 -3.88256 0
M  V30 5094 O 517.909 2.85453 -5.29906 0
M  V30 5095 H 521.735 0.478201 -2.99912 0
M  V30 5096 H 519.32 0.17012 -1.48428 0
M  V30 5097 H 521.202 2.93084 -3.02787 0
M  V30 5098 H 519.877 2.64449 -1.86677 0
M  V30 5099 H 518.784 1.08449 -3.58036 0
M  V30 5100 H 520.117 1.44569 -4.7049 0
M  V30 5101 N 521.769 1.56035 0.221574 0
M  V30 5102 C 523.046 1.69837 0.970301 0
M  V30 5103 C 523.426 0.599065 2.02421 0
M  V30 5104 O 522.774 -0.393929 2.25079 0
M  V30 5105 C 522.984 3.11148 1.58076 0
M  V30 5106 C 524.332 3.70555 2.07302 0
M  V30 5107 O 525.356 3.14109 1.6797 0
M  V30 5108 O 524.215 4.69562 2.79596 0
M  V30 5109 H 521.309 0.691727 0.453257 0
M  V30 5110 H 523.855 1.68353 0.213358 0
M  V30 5111 H 522.627 3.82617 0.819759 0
M  V30 5112 H 522.25 3.16749 2.40324 0
M  V30 5113 N 523.247 -0.488276 1.49845 0
M  V30 5114 C 524.496 -1.23826 1.59217 0
M  V30 5115 C 524.809 -1.93439 0.289966 0
M  V30 5116 O 526.015 -2.70229 0.262382 0
M  V30 5117 C 524.471 -2.24902 2.80976 0
M  V30 5118 C 524.079 -1.6117 4.18005 0
M  V30 5119 C 525.823 -3.00648 2.99685 0
M  V30 5120 C 523.73 -2.60431 5.3097 0
M  V30 5121 H 522.66 -0.465858 0.592868 0
M  V30 5122 H 525.311 -0.510645 1.76252 0
M  V30 5123 H 523.693 -3.0088 2.57463 0
M  V30 5124 H 524.867 -0.910968 4.51706 0
M  V30 5125 H 523.182 -0.97767 4.0476 0
M  V30 5126 H 525.779 -3.74903 3.81251 0
M  V30 5127 H 526.122 -3.5902 2.10738 0
M  V30 5128 H 526.655 -2.31784 3.23297 0
M  V30 5129 H 523.394 -2.06823 6.22017 0
M  V30 5130 H 522.914 -3.28707 5.01709 0
M  V30 5131 H 524.593 -3.22606 5.60834 0
M  V30 5132 N 524.725 -1.39134 -0.740242 0
M  V30 5133 C 526.002 -1.26584 -1.49117 0
M  V30 5134 C 526.382 0.126902 -2.10718 0
M  V30 5135 O 525.73 1.13765 -1.98166 0
M  V30 5136 C 525.94 -2.38619 -2.54681 0
M  V30 5137 C 527.288 -2.77685 -3.21211 0
M  V30 5138 O 528.312 -2.38029 -2.64991 0
M  V30 5139 O 527.171 -3.46115 -4.22926 0
M  V30 5140 H 524.265 -0.495769 -0.661923 0
M  V30 5141 H 526.811 -1.50995 -0.774514 0
M  V30 5142 H 525.583 -3.3175 -2.07504 0
M  V30 5143 H 525.206 -2.15845 -3.33911 0
M  V30 5144 N 526.204 0.969867 -1.24223 0
M  V30 5145 C 527.114 2.09806 -1.0497 0
M  V30 5146 C 528.13 1.73998 0.00886455 0
M  V30 5147 O 529.306 2.00513 -0.188848 0
M  V30 5148 C 526.371 3.40467 -0.654452 0
M  V30 5149 C 525.432 3.90236 -1.78926 0
M  V30 5150 C 524.665 5.14662 -1.41277 0
M  V30 5151 O 524.888 5.69602 -0.301632 0
M  V30 5152 O 523.822 5.58761 -2.23763 0
M  V30 5153 H 527.648 2.28942 -1.99548 0
M  V30 5154 H 525.233 1.08197 -1.03023 0
M  V30 5155 H 527.115 4.19039 -0.445452 0
M  V30 5156 H 525.79 3.22636 0.262216 0
M  V30 5157 H 524.697 3.12735 -2.05299 0
M  V30 5158 H 526.03 4.1254 -2.68462 0
M  V30 5159 N 527.682 1.05563 1.17022 0
M  V30 5160 C 528.922 0.777033 1.89054 0
M  V30 5161 C 529.286 -0.683617 1.79418 0
M  V30 5162 O 530.487 -1.07648 2.46303 0
M  V30 5163 C 528.758 1.24886 3.34871 0
M  V30 5164 S 530.317 1.0982 4.24835 0
M  V30 5165 H 527.135 0.282082 0.652649 0
M  V30 5166 H 529.737 1.35103 1.41306 0
M  V30 5167 H 528.441 2.30699 3.3942 0
M  V30 5168 H 527.972 0.669292 3.87665 0
M  V30 5169 H 529.987 0.02462 4.96194 0
M  V30 5170 N 529.16 -1.33526 0.837174 0
M  V30 5171 C 530.092 -2.28077 0.226579 0
M  V30 5172 C 531.105 -1.51666 -0.591717 0
M  V30 5173 O 532.294 -1.73511 -0.419064 0
M  V30 5174 C 529.394 -3.31597 -0.69978 0
M  V30 5175 C 528.567 -4.37329 0.0788067 0
M  V30 5176 C 527.626 -5.20526 -0.770637 0
M  V30 5177 O 526.652 -5.68811 -0.210453 0
M  V30 5178 N 527.854 -5.41639 -2.08825 0
M  V30 5179 H 530.619 -2.81115 1.03897 0
M  V30 5180 H 528.18 -1.46201 0.695476 0
M  V30 5181 H 530.172 -3.84158 -1.27298 0
M  V30 5182 H 528.742 -2.78848 -1.41288 0
M  V30 5183 H 527.962 -3.8529 0.833381 0
M  V30 5184 H 529.25 -5.05079 0.614238 0
M  V30 5185 H 528.648 -5.04108 -2.56693 0
M  V30 5186 H 527.205 -5.97263 -2.60998 0
M  V30 5187 N 530.638 -0.59345 -1.46 0
M  V30 5188 C 531.915 -0.0157933 -1.95594 0
M  V30 5189 C 532.295 1.44807 -1.53604 0
M  V30 5190 O 531.643 2.14342 -0.791824 0
M  V30 5191 C 531.853 -0.199081 -3.48432 0
M  V30 5192 C 533.201 -0.0724943 -4.24538 0
M  V30 5193 O 534.225 -0.128469 -3.55968 0
M  V30 5194 O 533.084 0.0542426 -5.46473 0
M  V30 5195 H 530.178 0.043749 -0.825842 0
M  V30 5196 H 532.724 -0.662522 -1.56233 0
M  V30 5197 H 531.496 -1.21631 -3.71916 0
M  V30 5198 H 531.119 0.483576 -3.94648 0
M  V30 5199 N 532.116 1.54067 -0.331816 0
M  V30 5200 C 533.527 1.86059 0.15454 0
M  V30 5201 C 533.878 1.25331 1.50952 0
M  V30 5202 O 533.003 0.562441 2.08963 0
M  V30 5203 C 533.598 3.37581 0.287192 0
M  V30 5204 C 532.157 3.69493 0.717773 0
M  V30 5205 C 531.304 2.76863 -0.155569 0
M  V30 5206 H 534.255 1.48797 -0.55182 0
M  V30 5207 H 534.276 3.63744 1.11671 0
M  V30 5208 H 533.788 3.81751 -0.699131 0
M  V30 5209 H 531.889 3.3086 1.71354 0
M  V30 5210 H 532.002 4.76315 0.5158 0
M  V30 5211 H 530.366 2.51995 0.370213 0
M  V30 5212 H 531.149 3.23861 -1.13881 0
M  V30 5213 N 533.594 0.0601682 1.57485 0
M  V30 5214 C 534.871 -0.651956 1.84415 0
M  V30 5215 C 535.251 -1.88498 0.950361 0
M  V30 5216 O 534.599 -2.28496 0.0136719 0
M  V30 5217 C 534.809 -1.00069 3.34346 0
M  V30 5218 C 536.157 -1.37915 4.01578 0
M  V30 5219 O 537.181 -1.09277 3.39024 0
M  V30 5220 O 536.04 -1.91399 5.11887 0
M  V30 5221 H 533.134 -0.322668 0.761455 0
M  V30 5222 H 535.68 0.0902159 1.6946 0
M  V30 5223 H 534.452 -0.124463 3.91102 0
M  V30 5224 H 534.075 -1.80001 3.54521 0
M  V30 5225 N 535.072 -1.5615 -0.213296 0
M  V30 5226 C 536.3 -1.83638 -0.953139 0
M  V30 5227 C 536.715 -0.640362 -1.77609 0
M  V30 5228 O 536.072 0.391071 -1.78261 0
M  V30 5229 C 536.123 -3.09735 -1.86405 0
M  V30 5230 O 535.844 -4.24723 -1.07435 0
M  V30 5231 C 537.345 -3.5027 -2.71709 0
M  V30 5232 H 534.565 -0.610263 -0.278962 0
M  V30 5233 H 537.109 -2.03247 -0.226035 0
M  V30 5234 H 535.264 -2.92077 -2.545 0
M  V30 5235 H 535.678 -4.9641 -1.69343 0
M  V30 5236 H 537.152 -4.41515 -3.31313 0
M  V30 5237 H 537.629 -2.72406 -3.44516 0
M  V30 5238 H 538.235 -3.70396 -2.09015 0
M  V30 5239 N 536.55 0.480323 -1.50102 0
M  V30 5240 C 537.79 1.24301 -1.62261 0
M  V30 5241 C 538.154 1.89452 -0.311758 0
M  V30 5242 O 539.355 2.67022 -0.308696 0
M  V30 5243 C 537.626 2.26588 -2.76392 0
M  V30 5244 S 539.185 3.11919 -3.08629 0
M  V30 5245 H 536.003 0.42215 -0.57211 0
M  V30 5246 H 538.605 0.541591 -1.87848 0
M  V30 5247 H 537.309 1.7729 -3.70131 0
M  V30 5248 H 536.84 3.01371 -2.52862 0
M  V30 5249 H 538.855 4.27598 -2.51742 0
M  V30 5250 N 538.028 1.39524 0.732853 0
M  V30 5251 C 539.253 1.40329 1.52717 0
M  V30 5252 C 539.678 0.000286574 1.881 0
M  V30 5253 O 539.036 -0.987262 1.52062 0
M  V30 5254 C 539.084 2.28464 2.78992 0
M  V30 5255 O 538.188 1.716 3.75003 0
M  V30 5256 H 537.529 0.47778 0.461109 0
M  V30 5257 H 540.059 1.83546 0.903996 0
M  V30 5258 H 540.069 2.43051 3.27705 0
M  V30 5259 H 538.744 3.30425 2.52572 0
M  V30 5260 H 537.321 1.66267 3.33781 0
M  V30 5261 N 539.506 -0.963266 1.24736 0
M  V30 5262 C 540.438 -2.06162 1.0015 0
M  V30 5263 C 541.451 -1.62771 -0.0305905 0
M  V30 5264 O 542.64 -1.77296 0.206966 0
M  V30 5265 C 539.74 -3.35333 0.490385 0
M  V30 5266 C 538.913 -4.07609 1.58663 0
M  V30 5267 C 537.972 -5.15052 1.0774 0
M  V30 5268 O 536.998 -5.4098 1.77002 0
M  V30 5269 N 538.2 -5.80436 -0.0858605 0
M  V30 5270 H 540.965 -2.27825 1.94719 0
M  V30 5271 H 538.526 -1.13121 1.15825 0
M  V30 5272 H 540.518 -4.04477 0.134371 0
M  V30 5273 H 539.088 -3.10507 -0.361155 0
M  V30 5274 H 538.308 -3.32681 2.11463 0
M  V30 5275 H 539.596 -4.52656 2.32336 0
M  V30 5276 H 538.994 -5.6178 -0.664806 0
M  V30 5277 H 537.551 -6.50674 -0.382981 0
M  V30 5278 N 540.985 -1.06182 -1.16461 0
M  V30 5279 C 541.915 -0.692861 -2.22984 0
M  V30 5280 C 542.896 0.314122 -1.67174 0
M  V30 5281 O 544.081 0.189499 -1.93273 0
M  V30 5282 C 541.211 -0.07732 -3.47214 0
M  V30 5283 C 540.165 -1.01015 -4.15909 0
M  V30 5284 C 539.491 -0.257973 -5.34077 0
M  V30 5285 C 540.791 -2.33868 -4.67015 0
M  V30 5286 H 542.485 -1.58343 -2.54102 0
M  V30 5287 H 540.031 -0.76279 -1.22137 0
M  V30 5288 H 541.984 0.19266 -4.20959 0
M  V30 5289 H 540.708 0.848254 -3.15392 0
M  V30 5290 H 539.367 -1.26486 -3.44088 0
M  V30 5291 H 539.015 0.670684 -4.98509 0
M  V30 5292 H 538.715 -0.879638 -5.80979 0
M  V30 5293 H 540.239 0.00448788 -6.106 0
M  V30 5294 H 541.653 -2.1279 -5.32347 0
M  V30 5295 H 540.05 -2.91522 -5.24533 0
M  V30 5296 H 541.12 -2.97019 -3.83286 0
M  V30 5297 N 542.463 1.3308 -0.844243 0
M  V30 5298 C 543.703 1.99414 -0.448697 0
M  V30 5299 C 544.067 1.65398 0.975058 0
M  V30 5300 O 545.268 2.24741 1.47461 0
M  V30 5301 C 543.539 3.51081 -0.669089 0
M  V30 5302 S 545.098 4.37241 -0.369564 0
M  V30 5303 H 541.916 0.690736 -0.168538 0
M  V30 5304 H 544.518 1.61977 -1.0947 0
M  V30 5305 H 543.222 3.73326 -1.70457 0
M  V30 5306 H 542.753 3.93399 -0.00913211 0
M  V30 5307 H 544.768 4.89568 0.808552 0
M  V30 5308 N 543.941 0.601185 1.45683 0
M  V30 5309 C 545.187 0.0940202 2.02582 0
M  V30 5310 C 545.52 -1.26972 1.46941 0
M  V30 5311 O 544.795 -1.83613 0.641612 0
M  V30 5312 C 545.078 0.0481715 3.60068 0
M  V30 5313 C 544.931 1.44212 4.26055 0
M  V30 5314 C 546.25 -0.642975 4.35378 0
M  V30 5315 H 543.369 0.0356404 0.736138 0
M  V30 5316 H 546.011 0.771929 1.73612 0
M  V30 5317 H 544.161 -0.529128 3.8488 0
M  V30 5318 H 545.833 2.06601 4.12449 0
M  V30 5319 H 544.076 2.00465 3.84703 0
M  V30 5320 H 544.747 1.36234 5.34925 0
M  V30 5321 H 547.223 -0.152351 4.15821 0
M  V30 5322 H 546.099 -0.644141 5.45107 0
M  V30 5323 H 546.36 -1.70785 4.0778 0
M  V30 5324 N 545.419 -1.53889 0.339982 0
M  V30 5325 C 546.367 -2.26391 -0.533822 0
M  V30 5326 C 547.361 -1.28404 -1.10493 0
M  V30 5327 O 548.567 -1.46124 -1.05108 0
M  V30 5328 H 544.942 -0.727385 -0.190828 0
M  V30 5329 H 546.913 -2.98233 0.0997484 0
M  V30 5330 C 545.662 -3.04707 -1.67479 0
M  V30 5331 H 544.985 -3.79934 -1.2446 0
M  V30 5332 H 546.425 -3.58657 -2.26144 0
M  V30 5333 C 544.884 -2.13989 -2.60212 0
M  V30 5334 O 545.414 -1.73361 -3.62366 0
M  V30 5335 N 543.62 -1.79141 -2.28816 0
M  V30 5336 H 543.167 -2.12378 -1.45785 0
M  V30 5337 H 543.125 -1.18725 -2.91121 0
M  V30 5338 N 546.897 -0.0685191 -1.57451 0
M  V30 5339 C 547.827 0.89747 -2.15564 0
M  V30 5340 C 548.808 1.31266 -1.08181 0
M  V30 5341 O 549.993 1.38429 -1.36202 0
M  V30 5342 C 547.123 2.16623 -2.71463 0
M  V30 5343 C 546.077 1.89054 -3.83982 0
M  V30 5344 C 545.403 3.22532 -4.26471 0
M  V30 5345 C 546.703 1.1984 -5.08366 0
M  V30 5346 H 548.397 0.413373 -2.96533 0
M  V30 5347 H 545.943 0.197391 -1.42641 0
M  V30 5348 H 547.896 2.84614 -3.10761 0
M  V30 5349 H 546.62 2.67269 -1.8771 0
M  V30 5350 H 545.279 1.23469 -3.45183 0
M  V30 5351 H 544.927 3.71013 -3.39644 0
M  V30 5352 H 544.627 3.04879 -5.02317 0
M  V30 5353 H 546.151 3.91727 -4.68383 0
M  V30 5354 H 547.565 1.77896 -5.45001 0
M  V30 5355 H 545.962 1.12456 -5.89469 0
M  V30 5356 H 547.032 0.176996 -4.84577 0
M  V30 5357 N 548.375 1.56261 0.205012 0
M  V30 5358 C 549.285 1.96944 1.27476 0
M  V30 5359 C 550.301 0.875636 1.50362 0
M  V30 5360 O 551.477 1.18058 1.6317 0
M  V30 5361 C 548.542 2.29219 2.60115 0
M  V30 5362 C 547.603 3.52255 2.45387 0
M  V30 5363 C 546.836 3.8298 3.71701 0
M  V30 5364 O 547.059 3.15138 4.75441 0
M  V30 5365 O 545.993 4.76435 3.67823 0
M  V30 5366 H 549.819 2.88144 0.959527 0
M  V30 5367 H 547.404 1.43686 0.409217 0
M  V30 5368 H 549.286 2.51098 3.3842 0
M  V30 5369 H 547.961 1.4119 2.91285 0
M  V30 5370 H 546.868 3.35635 1.65227 0
M  V30 5371 H 548.201 4.40719 2.19152 0
M  V30 5372 N 549.853 -0.472356 1.50355 0
M  V30 5373 C 551.101 -1.22211 1.60962 0
M  V30 5374 C 551.422 -1.92497 0.311439 0
M  V30 5375 O 550.692 -1.8405 -0.671002 0
M  V30 5376 H 549.272 -0.454092 0.593135 0
M  V30 5377 H 551.934 -0.544977 1.87126 0
M  V30 5378 H 551.03 -1.9707 2.42012 0
M  V30 5379 N 551.331 -1.39911 -0.725443 0
M  V30 5380 C 552.579 -1.37382 -1.48224 0
M  V30 5381 C 552.9 0.0264107 -1.94982 0
M  V30 5382 O 552.17 0.979408 -1.6966 0
M  V30 5383 H 550.75 -0.505596 -0.549892 0
M  V30 5384 H 553.412 -1.7487 -0.860608 0
M  V30 5385 H 552.508 -2.04254 -2.3598 0
M  V30 5386 N 552.809 0.956637 -1.25245 0
M  V30 5387 C 554.039 1.7332 -1.12445 0
M  V30 5388 C 554.447 1.86392 0.324732 0
M  V30 5389 O 553.79 1.35967 1.23526 0
M  V30 5390 C 553.852 3.16603 -1.70303 0
M  V30 5391 C 553.516 3.26966 -3.19284 0
M  V30 5392 C 554.513 3.11434 -4.16299 0
M  V30 5393 C 552.198 3.50851 -3.59456 0
M  V30 5394 C 554.192 3.1963 -5.51467 0
M  V30 5395 C 551.879 3.58684 -4.94761 0
M  V30 5396 C 552.877 3.43087 -5.90576 0
M  V30 5397 O 552.565 3.50598 -7.2342 0
M  V30 5398 H 552.297 0.549981 -0.393061 0
M  V30 5399 H 554.851 1.20892 -1.66055 0
M  V30 5400 H 553.081 3.70385 -1.11138 0
M  V30 5401 H 554.77 3.76109 -1.52632 0
M  V30 5402 H 555.536 2.92853 -3.86604 0
M  V30 5403 H 551.415 3.62053 -2.85375 0
M  V30 5404 H 554.959 3.07373 -6.26233 0
M  V30 5405 H 550.856 3.76782 -5.24124 0
M  V30 5406 H 551.624 3.67242 -7.31489 0
M  V30 5407 N 554.287 1.06798 1.15896 0
M  V30 5408 C 555.234 0.683314 2.20453 0
M  V30 5409 C 556.204 -0.32255 1.62938 0
M  V30 5410 O 557.389 -0.210276 1.89638 0
M  V30 5411 C 554.529 0.0813266 3.45004 0
M  V30 5412 C 553.642 1.13799 4.16742 0
M  V30 5413 C 552.777 0.501598 5.28826 0
M  V30 5414 C 551.816 1.54144 5.92373 0
M  V30 5415 N 550.953 0.928038 6.9594 0
M  V30 5416 H 555.793 1.57932 2.52708 0
M  V30 5417 H 553.33 0.789544 1.24115 0
M  V30 5418 H 555.288 -0.285274 4.16224 0
M  V30 5419 H 553.918 -0.77806 3.13283 0
M  V30 5420 H 552.97 1.62223 3.44075 0
M  V30 5421 H 554.282 1.92664 4.60089 0
M  V30 5422 H 553.436 0.0823162 6.06644 0
M  V30 5423 H 552.175 -0.318883 4.86656 0
M  V30 5424 H 551.18 1.97056 5.13273 0
M  V30 5425 H 552.405 2.3641 6.36621 0
M  V30 5426 H 550.351 0.12836 6.55874 0
M  V30 5427 H 550.268 1.65401 7.37685 0
M  V30 5428 H 551.536 0.534071 7.77668 0
M  V30 5429 N 555.766 -1.3263 0.851289 0
M  V30 5430 C 557.006 -1.99174 0.459266 0
M  V30 5431 C 557.37 -1.65913 -0.966273 0
M  V30 5432 O 558.571 -2.2552 -1.46267 0
M  V30 5433 C 556.842 -3.50721 0.687698 0
M  V30 5434 S 558.401 -4.37039 0.392746 0
M  V30 5435 H 555.219 -0.689832 0.172199 0
M  V30 5436 H 557.821 -1.61395 1.10327 0
M  V30 5437 H 556.525 -3.72417 1.72435 0
M  V30 5438 H 556.056 -3.93389 0.0299949 0
M  V30 5439 H 558.071 -4.8999 -0.782578 0
M  V30 5440 N 557.244 -0.608902 -1.45362 0
M  V30 5441 C 558.176 0.147318 -2.28726 0
M  V30 5442 C 559.189 0.830468 -1.40025 0
M  V30 5443 O 560.378 0.695636 -1.64387 0
M  V30 5444 C 557.478 1.22968 -3.15804 0
M  V30 5445 C 556.651 0.633391 -4.3279 0
M  V30 5446 C 555.71 1.60682 -5.01067 0
M  V30 5447 O 554.736 1.13261 -5.57818 0
M  V30 5448 N 555.938 2.94123 -5.00472 0
M  V30 5449 H 558.703 -0.568014 -2.94268 0
M  V30 5450 H 556.264 -0.448479 -1.55564 0
M  V30 5451 H 558.256 1.88072 -3.58345 0
M  V30 5452 H 556.826 1.84752 -2.52162 0
M  V30 5453 H 556.046 -0.195762 -3.93714 0
M  V30 5454 H 557.334 0.215255 -5.08344 0
M  V30 5455 H 556.732 3.3525 -4.55657 0
M  V30 5456 H 555.289 3.54646 -5.46872 0
M  V30 5457 N 558.722 1.53707 -0.348139 0
M  V30 5458 C 559.962 2.02899 0.247254 0
M  V30 5459 C 560.326 1.23033 1.47401 0
M  V30 5460 O 561.527 1.62146 2.14388 0
M  V30 5461 C 559.798 3.53156 0.549151 0
M  V30 5462 S 561.357 4.24247 1.1207 0
M  V30 5463 H 558.175 0.707213 0.0732894 0
M  V30 5464 H 560.777 1.89338 -0.486965 0
M  V30 5465 H 559.481 4.08893 -0.351435 0
M  V30 5466 H 559.012 3.70845 1.31291 0
M  V30 5467 H 561.027 4.33958 2.40613 0
M  V30 5468 N 560.2 0.0768682 1.57412 0
M  V30 5469 C 561.11 -0.903207 2.16516 0
M  V30 5470 C 562.126 -1.32341 1.12968 0
M  V30 5471 O 563.302 -1.39507 1.45258 0
M  V30 5472 C 560.367 -2.1508 2.71922 0
M  V30 5473 C 559.428 -1.78653 3.90361 0
M  V30 5474 C 558.661 -2.97465 4.43114 0
M  V30 5475 O 558.884 -4.11638 3.94854 0
M  V30 5476 O 557.818 -2.76987 5.3438 0
M  V30 5477 H 561.644 -0.430427 3.00634 0
M  V30 5478 H 559.229 -0.146485 1.4868 0
M  V30 5479 H 561.111 -2.8823 3.07411 0
M  V30 5480 H 559.786 -2.61446 1.9086 0
M  V30 5481 H 558.693 -1.0274 3.59716 0
M  V30 5482 H 560.026 -1.37066 4.7273 0
M  V30 5483 N 561.678 -1.56367 -0.196722 0
M  V30 5484 C 562.588 -1.97617 -1.2643 0
M  V30 5485 C 563.604 -0.883598 -1.49895 0
M  V30 5486 O 564.78 -1.18921 -1.62541 0
M  V30 5487 C 561.845 -2.30595 -2.58895 0
M  V30 5488 C 560.906 -3.53551 -2.43516 0
M  V30 5489 C 560.139 -3.84946 -3.69665 0
M  V30 5490 O 560.362 -3.17655 -4.73763 0
M  V30 5491 O 559.296 -4.78379 -3.65291 0
M  V30 5492 H 563.122 -2.88648 -0.944233 0
M  V30 5493 H 560.707 -1.43901 -0.401592 0
M  V30 5494 H 562.589 -2.52889 -3.37083 0
M  V30 5495 H 561.264 -1.42732 -2.90533 0
M  V30 5496 H 560.171 -3.36507 -1.63445 0
M  V30 5497 H 561.504 -4.41875 -2.16812 0
M  V30 5498 N 563.156 0.464375 -1.50603 0
M  V30 5499 C 564.404 1.21356 -1.61608 0
M  V30 5500 C 564.725 1.92329 -0.321643 0
M  V30 5501 O 563.995 1.84403 0.661232 0
M  V30 5502 H 562.575 0.45094 -0.595535 0
M  V30 5503 H 565.237 0.535046 -1.87412 0
M  V30 5504 H 564.333 1.95783 -2.43054 0
M  V30 5505 N 564.634 1.40294 0.718013 0
M  V30 5506 C 565.881 1.3844 1.47786 0
M  V30 5507 C 566.209 -0.0140838 1.94495 0
M  V30 5508 O 565.464 -0.998165 1.68331 0
M  V30 5509 C 565.763 2.31814 2.72024 0
M  V30 5510 C 565.429 3.79117 2.44093 0
M  V30 5511 C 564.091 4.19249 2.36185 0
M  V30 5512 C 566.443 4.72212 2.20602 0
M  V30 5513 C 563.771 5.50516 2.02851 0
M  V30 5514 C 566.123 6.03775 1.88781 0
M  V30 5515 C 564.787 6.42953 1.79354 0
M  V30 5516 H 564.057 0.506588 0.540786 0
M  V30 5517 H 566.704 1.72929 0.822663 0
M  V30 5518 H 565.009 1.90501 3.42369 0
M  V30 5519 H 566.706 2.27664 3.30106 0
M  V30 5520 H 563.296 3.47318 2.51133 0
M  V30 5521 H 567.48 4.42026 2.25669 0
M  V30 5522 H 562.736 5.79776 1.94088 0
M  V30 5523 H 566.91 6.75428 1.69617 0
M  V30 5524 H 564.537 7.44584 1.53291 0
M  V30 5525 N 566.112 -0.949982 1.2575 0
M  V30 5526 C 567.044 -2.05088 1.02331 0
M  V30 5527 C 568.057 -1.62795 -0.0133247 0
M  V30 5528 O 569.246 -1.77067 0.225759 0
M  V30 5529 C 566.346 -3.34794 0.525924 0
M  V30 5530 C 565.519 -4.05903 1.62978 0
M  V30 5531 C 564.578 -5.1388 1.13196 0
M  V30 5532 O 563.604 -5.39072 1.82729 0
M  V30 5533 N 564.806 -5.80495 -0.0242926 0
M  V30 5534 H 567.571 -2.25747 1.97125 0
M  V30 5535 H 565.132 -1.11886 1.17018 0
M  V30 5536 H 567.124 -4.04312 0.177263 0
M  V30 5537 H 565.694 -3.10872 -0.328202 0
M  V30 5538 H 564.914 -3.3042 2.1498 0
M  V30 5539 H 566.202 -4.50166 2.37124 0
M  V30 5540 H 565.6 -5.62454 -0.605184 0
M  V30 5541 H 564.157 -6.51043 -0.313947 0
M  V30 5542 N 567.59 -1.07411 -1.15328 0
M  V30 5543 C 568.52 -0.716472 -2.22236 0
M  V30 5544 C 569.501 0.296373 -1.67498 0
M  V30 5545 O 570.686 0.168989 -1.93463 0
M  V30 5546 C 567.816 -0.114142 -3.47112 0
M  V30 5547 C 566.77 -1.05421 -4.14814 0
M  V30 5548 C 566.096 -0.314604 -5.33774 0
M  V30 5549 C 567.396 -2.38808 -4.64508 0
M  V30 5550 H 569.09 -1.61029 -2.52408 0
M  V30 5551 H 566.636 -0.775702 -1.21321 0
M  V30 5552 H 568.589 0.148001 -4.2114 0
M  V30 5553 H 567.313 0.814755 -3.16274 0
M  V30 5554 H 565.972 -1.30128 -3.42728 0
M  V30 5555 H 565.62 0.617772 -4.99192 0
M  V30 5556 H 565.32 -0.941209 -5.80013 0
M  V30 5557 H 566.844 -0.0602747 -6.1057 0
M  V30 5558 H 568.258 -2.18424 -5.3006 0
M  V30 5559 H 566.655 -2.97069 -5.21412 0
M  V30 5560 H 567.725 -3.01067 -3.80114 0
M  V30 5561 N 569.068 1.32177 -0.85831 0
M  V30 5562 C 570.345 1.91781 -0.384624 0
M  V30 5563 C 570.725 1.78171 1.13217 0
M  V30 5564 O 570.073 1.18209 1.95548 0
M  V30 5565 C 570.283 3.38414 -0.853047 0
M  V30 5566 C 571.631 4.15542 -0.872359 0
M  V30 5567 O 572.655 3.47148 -0.797926 0
M  V30 5568 O 571.514 5.37678 -0.978009 0
M  V30 5569 H 568.608 0.819259 -0.112886 0
M  V30 5570 H 571.154 1.40923 -0.945453 0
M  V30 5571 H 569.926 3.4228 -1.89632 0
M  V30 5572 H 569.549 3.96683 -0.269874 0
M  V30 5573 N 570.547 0.616602 1.45037 0
M  V30 5574 C 571.958 0.199359 1.85633 0
M  V30 5575 C 572.309 -1.24588 1.51566 0
M  V30 5576 O 571.434 -1.94594 0.94668 0
M  V30 5577 C 572.029 0.355033 3.36935 0
M  V30 5578 C 570.588 -0.00758748 3.76399 0
M  V30 5579 C 569.735 0.675256 2.68953 0
M  V30 5580 H 572.686 0.822708 1.3571 0
M  V30 5581 H 572.707 -0.410201 3.78282 0
M  V30 5582 H 572.219 1.40699 3.61698 0
M  V30 5583 H 570.32 -1.05837 3.57252 0
M  V30 5584 H 570.433 0.392346 4.77491 0
M  V30 5585 H 568.797 0.111992 2.54454 0
M  V30 5586 H 569.58 1.72952 2.96551 0
M  V30 5587 N 572.025 -1.5352 0.356285 0
M  V30 5588 C 572.975 -2.22204 -0.510815 0
M  V30 5589 C 573.959 -1.21393 -1.05605 0
M  V30 5590 O 575.151 -1.46883 -0.987639 0
M  V30 5591 C 572.28 -3.00786 -1.65478 0
M  V30 5592 C 571.366 -4.08965 -1.12287 0
M  V30 5593 N 571.757 -5.04829 -0.313191 0
M  V30 5594 C 570.055 -4.23505 -1.39856 0
M  V30 5595 C 570.756 -5.81695 -0.0230322 0
M  V30 5596 N 569.732 -5.40074 -0.618144 0
M  V30 5597 H 573.534 -2.93676 0.114711 0
M  V30 5598 H 571.048 -1.61572 0.163811 0
M  V30 5599 H 573.045 -3.48502 -2.28806 0
M  V30 5600 H 571.705 -2.30843 -2.28345 0
M  V30 5601 H 572.716 -5.17879 0.0468202 0
M  V30 5602 H 569.393 -3.64786 -2.0307 0
M  V30 5603 H 570.783 -6.68931 0.630927 0
M  V30 5604 N 573.503 -0.0852151 -1.57369 0
M  V30 5605 C 574.731 0.58946 -1.98325 0
M  V30 5606 C 575.146 1.62333 -0.96403 0
M  V30 5607 O 574.503 1.82438 0.0476395 0
M  V30 5608 C 574.554 1.24604 -3.39347 0
M  V30 5609 O 574.275 0.253532 -4.37366 0
M  V30 5610 C 575.776 2.00726 -3.95252 0
M  V30 5611 H 572.996 0.158783 -0.651942 0
M  V30 5612 H 575.54 -0.161584 -2.03861 0
M  V30 5613 H 573.695 1.94808 -3.34856 0
M  V30 5614 H 574.109 0.726207 -5.19448 0
M  V30 5615 H 575.583 2.42039 -4.96106 0
M  V30 5616 H 576.06 2.86919 -3.32527 0
M  V30 5617 H 576.666 1.3536 -4.03185 0
M  V30 5618 N 574.981 1.5647 0.188427 0
M  V30 5619 C 575.928 1.95073 1.23349 0
M  V30 5620 C 576.898 0.812238 1.44886 0
M  V30 5621 O 578.083 1.07095 1.57909 0
M  V30 5622 C 575.223 2.30124 2.57171 0
M  V30 5623 C 574.336 3.57069 2.43157 0
M  V30 5624 C 573.471 3.81411 3.69729 0
M  V30 5625 C 572.51 5.0176 3.50575 0
M  V30 5626 N 571.647 5.22321 4.69175 0
M  V30 5627 H 576.487 2.84171 0.89728 0
M  V30 5628 H 574.024 1.40623 0.431683 0
M  V30 5629 H 575.982 2.48463 3.35145 0
M  V30 5630 H 574.612 1.44159 2.88822 0
M  V30 5631 H 573.664 3.4674 1.56447 0
M  V30 5632 H 574.976 4.452 2.24942 0
M  V30 5633 H 574.13 4.00026 4.56141 0
M  V30 5634 H 572.869 2.91624 3.90905 0
M  V30 5635 H 571.874 4.83061 2.62549 0
M  V30 5636 H 573.099 5.93063 3.30837 0
M  V30 5637 H 571.045 4.35483 4.90602 0
M  V30 5638 H 570.962 6.04643 4.53809 0
M  V30 5639 H 572.23 5.45401 5.56919 0
M  V30 5640 N 576.459 -0.456382 1.50847 0
M  V30 5641 C 577.422 -1.53493 1.70213 0
M  V30 5642 C 578.422 -1.50264 0.572481 0
M  V30 5643 O 579.612 -1.52623 0.839751 0
M  V30 5644 C 576.744 -2.93091 1.741 0
M  V30 5645 H 577.937 -1.37633 2.66453 0
M  V30 5646 H 575.49 -0.683776 1.4055 0
M  V30 5647 H 576.225 -3.14378 0.796063 0
M  V30 5648 H 576.01 -2.9684 2.5618 0
M  V30 5649 H 577.5 -3.71368 1.90987 0
M  V30 5650 N 577.937 -1.40673 -0.710563 0
M  V30 5651 C 579.177 -1.40677 -1.48288 0
M  V30 5652 C 579.541 -0.0097193 -1.91998 0
M  V30 5653 O 580.742 0.115381 -2.68552 0
M  V30 5654 C 579.013 -2.37289 -2.67262 0
M  V30 5655 S 580.572 -2.55694 -3.56603 0
M  V30 5656 H 577.39 -0.498545 -0.506926 0
M  V30 5657 H 579.992 -1.76984 -0.830472 0
M  V30 5658 H 578.696 -3.37617 -2.3333 0
M  V30 5659 H 578.227 -2.02282 -3.3741 0
M  V30 5660 H 580.242 -1.81311 -4.61888 0
M  V30 5661 N 579.415 0.9433 -1.26252 0
M  V30 5662 C 580.362 2.0417 -1.07625 0
M  V30 5663 C 581.332 1.6609 0.0180738 0
M  V30 5664 O 582.517 1.90276 -0.141289 0
M  V30 5665 C 579.657 3.37653 -0.713043 0
M  V30 5666 C 578.77 3.88783 -1.8834 0
M  V30 5667 C 577.905 5.10642 -1.4635 0
M  V30 5668 C 576.944 5.54028 -2.60229 0
M  V30 5669 N 576.081 6.67092 -2.18936 0
M  V30 5670 H 580.921 2.19436 -2.01623 0
M  V30 5671 H 578.458 1.07519 -1.00389 0
M  V30 5672 H 580.416 4.14391 -0.483358 0
M  V30 5673 H 579.046 3.22241 0.18996 0
M  V30 5674 H 578.098 3.08464 -2.22608 0
M  V30 5675 H 579.41 4.16922 -2.73821 0
M  V30 5676 H 578.564 5.94832 -1.19414 0
M  V30 5677 H 577.303 4.84244 -0.579568 0
M  V30 5678 H 576.308 4.68396 -2.87898 0
M  V30 5679 H 577.533 5.82429 -3.49219 0
M  V30 5680 H 575.479 6.42381 -1.32974 0
M  V30 5681 H 575.396 6.94806 -2.97961 0
M  V30 5682 H 576.664 7.54662 -1.95206 0
M  V30 5683 N 580.893 1.08022 1.14757 0
M  V30 5684 C 581.856 0.71048 2.1791 0
M  V30 5685 C 582.856 -0.252731 1.58801 0
M  V30 5686 O 584.046 -0.0327915 1.74169 0
M  V30 5687 C 581.178 0.0483203 3.40866 0
M  V30 5688 H 582.371 1.62384 2.52134 0
M  V30 5689 H 579.924 0.877595 1.29337 0
M  V30 5690 H 580.659 -0.876959 3.12218 0
M  V30 5691 H 580.444 0.741189 3.85031 0
M  V30 5692 H 581.934 -0.195471 4.17142 0
M  V30 5693 N 582.371 -1.3172 0.865308 0
M  V30 5694 C 583.617 -1.97168 0.474633 0
M  V30 5695 C 583.95 -1.68263 -0.969604 0
M  V30 5696 O 583.225 -0.976588 -1.68205 0
M  V30 5697 C 583.508 -3.52689 0.726808 0
M  V30 5698 C 583.361 -3.91185 2.22024 0
M  V30 5699 C 584.68 -4.39689 0.190201 0
M  V30 5700 H 581.799 -0.716185 0.17392 0
M  V30 5701 H 584.441 -1.55925 1.08569 0
M  V30 5702 H 582.591 -3.8795 0.206705 0
M  V30 5703 H 584.263 -3.66049 2.80724 0
M  V30 5704 H 582.506 -3.3996 2.69462 0
M  V30 5705 H 583.177 -4.99604 2.34735 0
M  V30 5706 H 585.653 -4.11225 0.635103 0
M  V30 5707 H 584.529 -5.47469 0.396132 0
M  V30 5708 H 584.79 -4.32683 -0.907625 0
M  V30 5709 N 583.85 -0.624285 -1.44708 0
M  V30 5710 C 585.098 -0.125802 -2.01708 0
M  V30 5711 C 585.418 1.2543 -1.49306 0
M  V30 5712 O 584.689 1.83198 -0.693924 0
M  V30 5713 H 583.269 -0.0435161 -0.745731 0
M  V30 5714 H 585.931 -0.809446 -1.77296 0
M  V30 5715 H 585.027 -0.0882734 -3.11975 0
M  V30 5716 N 585.328 1.53329 -0.364422 0
M  V30 5717 C 586.553 2.06132 0.229033 0
M  V30 5718 C 586.978 1.23625 1.41769 0
M  V30 5719 O 586.336 0.255038 1.79497 0
M  V30 5720 C 586.384 3.55544 0.60174 0
M  V30 5721 O 585.488 3.75771 1.69912 0
M  V30 5722 H 584.829 0.663148 0.0336213 0
M  V30 5723 H 587.359 1.97758 -0.524689 0
M  V30 5724 H 587.369 3.98549 0.873073 0
M  V30 5725 H 586.044 4.15039 -0.267421 0
M  V30 5726 H 584.621 3.44663 1.42343 0
M  V30 5727 N 586.806 0.0935595 1.57322 0
M  V30 5728 C 588.055 -0.570191 1.93473 0
M  V30 5729 C 588.368 -1.69434 0.977318 0
M  V30 5730 O 589.574 -2.41914 1.23248 0
M  V30 5731 C 588.03 -1.06564 3.43762 0
M  V30 5732 C 587.638 0.0286723 4.47991 0
M  V30 5733 C 589.382 -1.70221 3.88877 0
M  V30 5734 C 587.289 -0.482046 5.89432 0
M  V30 5735 H 586.219 -0.216764 0.72217 0
M  V30 5736 H 588.87 0.169313 1.82717 0
M  V30 5737 H 587.252 -1.85878 3.49664 0
M  V30 5738 H 588.426 0.804106 4.5373 0
M  V30 5739 H 586.741 0.570336 4.12476 0
M  V30 5740 H 589.338 -2.09502 4.91948 0
M  V30 5741 H 589.681 -2.57078 3.27439 0
M  V30 5742 H 590.214 -0.974919 3.85668 0
M  V30 5743 H 586.953 0.349871 6.54566 0
M  V30 5744 H 586.473 -1.22452 5.87167 0
M  V30 5745 H 588.152 -0.951508 6.39965 0
M  V30 5746 N 588.284 -1.56567 -0.180126 0
M  V30 5747 C 589.247 -1.94852 -1.20686 0
M  V30 5748 C 590.247 -0.831212 -1.3765 0
M  V30 5749 O 591.437 -1.09841 -1.35206 0
M  V30 5750 C 588.569 -2.23565 -2.57355 0
M  V30 5751 H 589.762 -2.86722 -0.879225 0
M  V30 5752 H 587.315 -1.50489 -0.422237 0
M  V30 5753 H 588.05 -1.34381 -2.95148 0
M  V30 5754 H 587.835 -3.04999 -2.46411 0
M  V30 5755 H 589.325 -2.54137 -3.31367 0
M  V30 5756 N 589.762 0.448376 -1.51087 0
M  V30 5757 C 590.992 1.21965 -1.66757 0
M  V30 5758 C 591.4 1.85748 -0.359753 0
M  V30 5759 O 590.743 1.71022 0.670604 0
M  V30 5760 C 590.805 2.35284 -2.71812 0
M  V30 5761 C 590.469 1.91957 -4.1473 0
M  V30 5762 C 591.466 1.42921 -4.9987 0
M  V30 5763 C 589.151 1.99985 -4.60772 0
M  V30 5764 C 591.145 1.02485 -6.29107 0
M  V30 5765 C 588.832 1.5916 -5.90009 0
M  V30 5766 C 589.83 1.10491 -6.74004 0
M  V30 5767 O 589.518 0.702413 -8.00825 0
M  V30 5768 H 589.25 0.374125 -0.563034 0
M  V30 5769 H 591.804 0.538927 -1.98204 0
M  V30 5770 H 590.034 3.06599 -2.35657 0
M  V30 5771 H 591.723 2.97184 -2.76472 0
M  V30 5772 H 592.489 1.36123 -4.65506 0
M  V30 5773 H 588.368 2.36814 -3.95525 0
M  V30 5774 H 591.912 0.644271 -6.94619 0
M  V30 5775 H 587.809 1.65626 -6.2389 0
M  V30 5776 H 588.577 0.829248 -8.14288 0
M  V30 5777 N 591.24 1.41047 0.703093 0
M  V30 5778 C 592.17 1.45067 1.82969 0
M  V30 5779 C 593.151 0.31016 1.67248 0
M  V30 5780 O 594.336 0.520548 1.87093 0
M  V30 5781 C 591.466 1.32478 3.2104 0
M  V30 5782 C 590.42 2.44262 3.51454 0
M  V30 5783 C 589.746 2.16742 4.88801 0
M  V30 5784 C 591.046 3.86606 3.51189 0
M  V30 5785 H 592.74 2.39353 1.79863 0
M  V30 5786 H 590.286 1.15206 0.863919 0
M  V30 5787 H 592.239 1.33904 3.99559 0
M  V30 5788 H 590.963 0.346735 3.24754 0
M  V30 5789 H 589.622 2.42107 2.75282 0
M  V30 5790 H 589.27 1.17299 4.89132 0
M  V30 5791 H 588.97 2.91643 5.10116 0
M  V30 5792 H 590.494 2.19872 5.69639 0
M  V30 5793 H 591.908 3.90517 4.19725 0
M  V30 5794 H 590.305 4.61128 3.84033 0
M  V30 5795 H 591.375 4.15296 2.50315 0
M  V30 5796 N 592.718 -0.936591 1.26751 0
M  V30 5797 C 593.965 -1.68331 1.12566 0
M  V30 5798 C 594.293 -1.91677 -0.330168 0
M  V30 5799 O 593.548 -1.49859 -1.2586 0
M  V30 5800 C 593.847 -3.06099 1.84494 0
M  V30 5801 C 593.513 -3.02493 3.34378 0
M  V30 5802 C 592.175 -3.01217 3.75262 0
M  V30 5803 C 594.527 -2.94453 4.30055 0
M  V30 5804 C 591.855 -2.89672 5.10203 0
M  V30 5805 C 594.207 -2.84449 5.65041 0
M  V30 5806 C 592.871 -2.81518 6.0523 0
M  V30 5807 H 592.141 -0.615965 0.411907 0
M  V30 5808 H 594.788 -1.09292 1.5725 0
M  V30 5809 H 593.093 -3.6879 1.32292 0
M  V30 5810 H 594.79 -3.62733 1.70955 0
M  V30 5811 H 591.38 -3.04269 3.01858 0
M  V30 5812 H 595.564 -2.94544 3.99447 0
M  V30 5813 H 590.82 -2.85783 5.40498 0
M  V30 5814 H 594.994 -2.77192 6.38856 0
M  V30 5815 H 592.621 -2.72329 7.09747 0
M  V30 5816 N 594.196 -1.08629 -1.14182 0
M  V30 5817 C 595.443 -0.817345 -1.85272 0
M  V30 5818 C 595.771 0.656917 -1.83071 0
M  V30 5819 O 595.026 1.49897 -1.25815 0
M  V30 5820 C 595.325 -1.28734 -3.3341 0
M  V30 5821 C 594.991 -2.76981 -3.55798 0
M  V30 5822 C 593.653 -3.17469 -3.61617 0
M  V30 5823 C 596.005 -3.72605 -3.64438 0
M  V30 5824 C 593.333 -4.52371 -3.736 0
M  V30 5825 C 595.685 -5.07286 -3.77947 0
M  V30 5826 C 594.349 -5.47376 -3.82016 0
M  V30 5827 H 593.619 -0.299088 -0.677958 0
M  V30 5828 H 596.266 -1.35962 -1.34857 0
M  V30 5829 H 594.571 -0.664702 -3.8612 0
M  V30 5830 H 596.268 -1.05598 -3.86846 0
M  V30 5831 H 592.858 -2.44644 -3.51919 0
M  V30 5832 H 597.042 -3.42443 -3.5923 0
M  V30 5833 H 592.298 -4.82882 -3.75013 0
M  V30 5834 H 596.472 -5.81243 -3.83575 0
M  V30 5835 H 594.099 -6.51906 -3.91054 0
M  V30 5836 N 595.674 1.31259 -0.872281 0
M  V30 5837 C 596.902 2.00795 -0.498907 0
M  V30 5838 C 597.317 1.65464 0.909238 0
M  V30 5839 O 596.674 0.885073 1.59602 0
M  V30 5840 C 596.725 3.55625 -0.649092 0
M  V30 5841 O 596.446 3.89692 -2.00179 0
M  V30 5842 C 597.947 4.42434 -0.277034 0
M  V30 5843 H 595.167 0.642299 -0.194145 0
M  V30 5844 H 597.711 1.67438 -1.17408 0
M  V30 5845 H 595.866 3.87394 -0.0214402 0
M  V30 5846 H 596.28 4.84407 -2.01122 0
M  V30 5847 H 597.754 5.50299 -0.433064 0
M  V30 5848 H 598.231 4.32146 0.783989 0
M  V30 5849 H 598.837 4.16086 -0.880483 0
M  V30 5850 N 597.152 0.631951 1.44375 0
M  V30 5851 C 598.1 -0.0846693 2.32446 0
M  V30 5852 C 599.094 -0.834957 1.47393 0
M  V30 5853 O 600.3 -0.747764 1.63733 0
M  V30 5854 H 596.675 -0.0461508 0.750583 0
M  V30 5855 H 598.646 0.67619 2.90638 0
M  V30 5856 C 597.395 -1.05211 3.314 0
M  V30 5857 H 596.718 -0.484203 3.96857 0
M  V30 5858 H 598.158 -1.523 3.95703 0
M  V30 5859 C 596.617 -2.13776 2.60387 0
M  V30 5860 O 597.147 -3.21869 2.4034 0
M  V30 5861 N 595.353 -1.89733 2.20113 0
M  V30 5862 H 594.9 -1.01833 2.36618 0
M  V30 5863 H 594.858 -2.62572 1.72926 0
M  V30 5864 N 598.631 -1.53133 0.372548 0
M  V30 5865 C 600.047 -1.59585 0.02178 0
M  V30 5866 C 600.247 -1.38736 -1.46132 0
M  V30 5867 O 599.303 -1.19599 -2.22379 0
M  V30 5868 C 600.616 -2.9678 0.483959 0
M  V30 5869 C 602.164 -3.09909 0.438775 0
M  V30 5870 C 602.639 -4.49527 0.876876 0
M  V30 5871 N 604.13 -4.55663 0.832214 0
M  V30 5872 C 604.865 -5.61896 1.14281 0
M  V30 5873 N 604.361 -6.75852 1.52303 0
M  V30 5874 N 606.154 -5.51916 1.06515 0
M  V30 5875 H 598.305 -1.64936 1.33827 0
M  V30 5876 H 600.568 -0.773947 0.547458 0
M  V30 5877 H 600.274 -3.17198 1.51915 0
M  V30 5878 H 600.148 -3.7699 -0.125784 0
M  V30 5879 H 602.535 -2.89197 -0.587294 0
M  V30 5880 H 602.616 -2.31691 1.0841 0
M  V30 5881 H 602.26 -4.70979 1.90109 0
M  V30 5882 H 602.19 -5.26186 0.208727 0
M  V30 5883 H 604.681 -3.73844 0.552195 0
M  V30 5884 H 604.994 -7.52862 1.7441 0
M  V30 5885 H 603.339 -6.77226 1.56175 0
M  V30 5886 H 606.53 -4.6177 0.767235 0
M  V30 5887 H 606.703 -6.34609 1.31053 0
M  V30 5888 N 600.109 -0.101901 -1.5727 0
M  V30 5889 C 601.059 0.865346 -2.1094 0
M  V30 5890 C 602.043 1.2394 -1.02605 0
M  V30 5891 O 603.235 1.21334 -1.28868 0
M  V30 5892 C 600.364 2.12187 -2.69874 0
M  V30 5893 C 599.45 1.77295 -3.85263 0
M  V30 5894 N 599.841 1.12993 -4.93017 0
M  V30 5895 C 598.139 2.06862 -3.95126 0
M  V30 5896 C 598.84 0.968631 -5.73579 0
M  V30 5897 N 597.816 1.48814 -5.22834 0
M  V30 5898 H 601.618 0.364368 -2.91633 0
M  V30 5899 H 599.132 0.101104 -1.62085 0
M  V30 5900 H 601.129 2.82431 -3.06657 0
M  V30 5901 H 599.789 2.62844 -1.90639 0
M  V30 5902 H 600.8 0.795935 -5.11747 0
M  V30 5903 H 597.477 2.59686 -3.26909 0
M  V30 5904 H 598.867 0.465231 -6.70287 0
M  V30 5905 N 601.587 1.56661 0.17182 0
M  V30 5906 C 602.497 1.99604 1.2327 0
M  V30 5907 C 603.513 0.907333 1.4847 0
M  V30 5908 O 604.689 1.21492 1.60629 0
M  V30 5909 C 601.754 2.34685 2.55194 0
M  V30 5910 C 600.815 3.57381 2.3786 0
M  V30 5911 C 600.048 3.90779 3.63494 0
M  V30 5912 O 600.271 3.25152 4.6865 0
M  V30 5913 O 599.205 4.84129 3.57634 0
M  V30 5914 H 603.031 2.90114 0.898192 0
M  V30 5915 H 600.616 1.44522 0.378647 0
M  V30 5916 H 602.498 2.5822 3.33017 0
M  V30 5917 H 601.173 1.47336 2.88225 0
M  V30 5918 H 600.08 3.39064 1.5807 0
M  V30 5919 H 601.413 4.45268 2.09754 0
M  V30 5920 N 603.065 -0.440357 1.51323 0
M  V30 5921 C 604.311 -1.19181 1.64085 0
M  V30 5922 C 604.644 -1.90936 0.354575 0
M  V30 5923 O 603.919 -1.8347 -0.645675 0
M  V30 5924 C 604.202 -2.2112 2.84215 0
M  V30 5925 C 604.055 -1.53468 4.22809 0
M  V30 5926 C 605.374 -3.22133 2.99864 0
M  V30 5927 H 602.493 -0.431924 0.597169 0
M  V30 5928 H 605.135 -0.481443 1.83799 0
M  V30 5929 H 603.285 -2.81703 2.67537 0
M  V30 5930 H 604.957 -0.962455 4.51148 0
M  V30 5931 H 603.2 -0.837086 4.25647 0
M  V30 5932 H 603.871 -2.27694 5.02852 0
M  V30 5933 H 606.347 -2.71601 3.15233 0
M  V30 5934 H 605.223 -3.90756 3.85488 0
M  V30 5935 H 605.484 -3.88061 2.11804 0
M  V30 5936 N 604.543 -1.41418 -0.695603 0
M  V30 5937 C 605.959 -1.23887 -1.00619 0
M  V30 5938 C 606.159 -0.128206 -2.01092 0
M  V30 5939 O 605.215 0.507408 -2.47349 0
M  V30 5940 C 606.528 -2.58816 -1.53083 0
M  V30 5941 C 608.076 -2.65998 -1.64967 0
M  V30 5942 C 608.551 -4.01244 -2.20833 0
M  V30 5943 N 610.042 -4.0309 -2.28194 0
M  V30 5944 C 610.777 -5.04539 -2.72448 0
M  V30 5945 N 610.273 -6.16378 -3.16306 0
M  V30 5946 N 612.066 -4.91901 -2.72011 0
M  V30 5947 H 604.217 -2.12379 -0.0300061 0
M  V30 5948 H 606.48 -0.944958 -0.0758797 0
M  V30 5949 H 606.186 -3.40842 -0.867147 0
M  V30 5950 H 606.06 -2.81299 -2.51298 0
M  V30 5951 H 608.447 -1.84331 -2.30448 0
M  V30 5952 H 608.528 -2.47325 -0.652982 0
M  V30 5953 H 608.172 -4.83359 -1.55968 0
M  V30 5954 H 608.102 -4.17257 -3.21254 0
M  V30 5955 H 610.593 -3.22341 -1.97242 0
M  V30 5956 H 610.906 -6.89658 -3.487 0
M  V30 5957 H 609.251 -6.19914 -3.14215 0
M  V30 5958 H 612.442 -4.03613 -2.37095 0
M  V30 5959 H 612.615 -5.71102 -3.06181 0
M  V30 5960 N 606.021 0.929856 -1.27246 0
M  V30 5961 C 606.968 2.03017 -1.09785 0
M  V30 5962 C 607.938 1.661 0.000456744 0
M  V30 5963 O 609.123 1.90116 -0.161462 0
M  V30 5964 C 606.263 3.36878 -0.748816 0
M  V30 5965 C 605.376 3.86763 -1.92453 0
M  V30 5966 C 604.511 5.09061 -1.51758 0
M  V30 5967 C 603.55 5.51237 -2.66091 0
M  V30 5968 N 602.687 6.64732 -2.25999 0
M  V30 5969 H 607.527 2.17285 -2.03939 0
M  V30 5970 H 605.064 1.06448 -1.01524 0
M  V30 5971 H 607.022 4.13855 -0.527283 0
M  V30 5972 H 605.652 3.22424 0.155771 0
M  V30 5973 H 604.704 3.06086 -2.25867 0
M  V30 5974 H 606.016 4.13994 -2.78227 0
M  V30 5975 H 605.17 5.93532 -1.25716 0
M  V30 5976 H 603.909 4.83602 -0.630896 0
M  V30 5977 H 602.914 4.65316 -2.92849 0
M  V30 5978 H 604.139 5.78692 -3.55377 0
M  V30 5979 H 602.085 6.40935 -1.3978 0
M  V30 5980 H 602.002 6.91607 -3.05313 0
M  V30 5981 H 603.27 7.52549 -2.03199 0
M  V30 5982 N 607.499 1.09233 1.13605 0
M  V30 5983 C 608.432 0.6739 2.18023 0
M  V30 5984 C 609.41 -0.318603 1.59448 0
M  V30 5985 O 610.594 -0.220452 1.87206 0
M  V30 5986 C 607.721 -0.00751458 3.38699 0
M  V30 5987 C 606.767 0.946481 4.15865 0
M  V30 5988 S 607.6 2.45753 4.75779 0
M  V30 5989 C 608.756 1.78846 5.99804 0
M  V30 5990 H 608.989 1.55846 2.53178 0
M  V30 5991 H 606.522 0.908118 1.2487 0
M  V30 5992 H 608.48 -0.394368 4.08601 0
M  V30 5993 H 607.141 -0.868693 3.01849 0
M  V30 5994 H 606.334 0.416742 5.02274 0
M  V30 5995 H 605.936 1.27464 3.51609 0
M  V30 5996 H 608.228 1.11135 6.68323 0
M  V30 5997 H 609.171 2.63163 6.57382 0
M  V30 5998 H 609.579 1.25823 5.50299 0
M  V30 5999 N 608.977 -1.30795 0.87923 0
M  V30 6000 C 610.205 -2.00527 0.509548 0
M  V30 6001 C 610.62 -1.65944 -0.90045 0
M  V30 6002 O 609.977 -0.893525 -1.5913 0
M  V30 6003 C 610.028 -3.55276 0.667943 0
M  V30 6004 O 609.749 -3.88625 2.02242 0
M  V30 6005 C 611.25 -4.4228 0.300494 0
M  V30 6006 H 608.47 -0.641261 0.197549 0
M  V30 6007 H 611.014 -1.66813 1.18295 0
M  V30 6008 H 609.169 -3.87377 0.0419843 0
M  V30 6009 H 609.583 -4.83334 2.03688 0
M  V30 6010 H 611.057 -5.50061 0.462242 0
M  V30 6011 H 611.534 -4.32556 -0.76106 0
M  V30 6012 H 612.14 -4.15613 0.902536 0
M  V30 6013 N 610.455 -0.639598 -1.44038 0
M  V30 6014 C 611.385 0.0469443 -2.33453 0
M  V30 6015 C 612.366 0.82609 -1.48694 0
M  V30 6016 O 613.551 0.790285 -1.77393 0
M  V30 6017 C 610.681 1.02338 -3.3188 0
M  V30 6018 C 609.635 0.355284 -4.26523 0
M  V30 6019 C 608.961 1.44221 -5.14883 0
M  V30 6020 C 610.261 -0.743798 -5.16977 0
M  V30 6021 H 611.955 -0.699735 -2.91108 0
M  V30 6022 H 609.501 -0.337946 -1.39978 0
M  V30 6023 H 611.454 1.51247 -3.93322 0
M  V30 6024 H 610.178 1.80105 -2.72451 0
M  V30 6025 H 608.837 -0.113239 -3.66425 0
M  V30 6026 H 608.485 2.21097 -4.51802 0
M  V30 6027 H 608.185 1.00052 -5.79019 0
M  V30 6028 H 609.709 1.93295 -5.79197 0
M  V30 6029 H 611.123 -0.337444 -5.72306 0
M  V30 6030 H 609.52 -1.10914 -5.89761 0
M  V30 6031 H 610.59 -1.60745 -4.57481 0
M  V30 6032 N 611.933 1.52934 -0.380664 0
M  V30 6033 C 613.21 1.93845 0.261417 0
M  V30 6034 C 613.59 1.31544 1.65104 0
M  V30 6035 O 612.938 0.480234 2.23397 0
M  V30 6036 C 613.148 3.47739 0.296466 0
M  V30 6037 C 614.496 4.21284 0.529578 0
M  V30 6038 O 615.52 3.54199 0.377041 0
M  V30 6039 O 614.379 5.40195 0.827753 0
M  V30 6040 H 611.473 0.811318 0.160285 0
M  V30 6041 H 614.019 1.64042 -0.434544 0
M  V30 6042 H 612.791 3.85395 -0.67724 0
M  V30 6043 H 612.414 3.8382 1.0377 0
M  V30 6044 N 613.412 0.11024 1.57214 0
M  V30 6045 C 614.828 -0.24638 1.57687 0
M  V30 6046 C 615.028 -1.67344 1.12241 0
M  V30 6047 O 614.084 -2.39298 0.805783 0
M  V30 6048 C 615.397 -0.0210288 3.00693 0
M  V30 6049 C 616.945 -0.0876077 3.12877 0
M  V30 6050 C 617.42 0.10994 4.57868 0
M  V30 6051 N 618.911 0.0556135 4.63167 0
M  V30 6052 C 619.646 0.183495 5.73106 0
M  V30 6053 N 619.142 0.367058 6.91827 0
M  V30 6054 N 620.935 0.123689 5.61964 0
M  V30 6055 H 613.086 1.04246 1.85058 0
M  V30 6056 H 615.349 0.40979 0.854854 0
M  V30 6057 H 615.055 0.965203 3.38196 0
M  V30 6058 H 614.929 -0.756748 3.69531 0
M  V30 6059 H 617.316 -1.06436 2.75237 0
M  V30 6060 H 617.397 0.67985 2.466 0
M  V30 6061 H 617.041 1.08362 4.96206 0
M  V30 6062 H 616.971 -0.677397 5.22225 0
M  V30 6063 H 619.462 -0.0831062 3.77809 0
M  V30 6064 H 619.775 0.455739 7.71455 0
M  V30 6065 H 618.12 0.40292 6.93831 0
M  V30 6066 H 621.311 -0.0186928 4.68096 0
M  V30 6067 H 621.484 0.226797 6.47603 0
M  V30 6068 N 614.89 -1.56749 -0.16351 0
M  V30 6069 C 616.115 -1.86938 -0.898264 0
M  V30 6070 C 616.54 -0.697456 -1.74692 0
M  V30 6071 O 615.898 0.353327 -1.77824 0
M  V30 6072 C 615.946 -3.15599 -1.74441 0
M  V30 6073 O 615.05 -2.98371 -2.8469 0
M  V30 6074 H 614.391 -0.614659 -0.251178 0
M  V30 6075 H 616.921 -2.03979 -0.159298 0
M  V30 6076 H 616.931 -3.47202 -2.14277 0
M  V30 6077 H 615.606 -4.00505 -1.1211 0
M  V30 6078 H 614.183 -2.7814 -2.4838 0
M  V30 6079 N 616.368 0.432326 -1.51554 0
M  V30 6080 C 617.278 1.55023 -1.76082 0
M  V30 6081 C 618.294 1.61593 -0.645265 0
M  V30 6082 O 619.47 1.78742 -0.928086 0
M  V30 6083 C 616.535 2.90964 -1.88523 0
M  V30 6084 C 615.596 2.9447 -3.12388 0
M  V30 6085 C 614.829 4.23926 -3.24225 0
M  V30 6086 O 615.052 5.16576 -2.4188 0
M  V30 6087 O 613.986 4.33818 -4.17235 0
M  V30 6088 H 617.812 1.37238 -2.70923 0
M  V30 6089 H 615.397 0.615845 -1.36117 0
M  V30 6090 H 617.279 3.71633 -1.98662 0
M  V30 6091 H 615.954 3.08865 -0.9687 0
M  V30 6092 H 614.861 2.12737 -3.07723 0
M  V30 6093 H 616.194 2.81514 -4.03746 0
M  V30 6094 N 617.846 1.41785 0.688094 0
M  V30 6095 C 619.076 1.44705 1.47459 0
M  V30 6096 C 619.484 0.052916 1.89126 0
M  V30 6097 O 618.827 -0.939781 1.57841 0
M  V30 6098 C 618.889 2.29935 2.76352 0
M  V30 6099 C 618.553 3.77996 2.56843 0
M  V30 6100 C 619.55 4.69976 2.22304 0
M  V30 6101 C 617.235 4.2212 2.7225 0
M  V30 6102 C 619.229 6.04068 2.03421 0
M  V30 6103 C 616.916 5.56275 2.52985 0
M  V30 6104 C 617.914 6.47065 2.18621 0
M  V30 6105 O 617.602 7.78744 1.9953 0
M  V30 6106 H 617.334 0.494703 0.460701 0
M  V30 6107 H 619.888 1.86802 0.854057 0
M  V30 6108 H 618.118 1.82664 3.40839 0
M  V30 6109 H 619.807 2.24467 3.38186 0
M  V30 6110 H 620.573 4.37175 2.10008 0
M  V30 6111 H 616.452 3.51752 2.97979 0
M  V30 6112 H 619.996 6.74897 1.76523 0
M  V30 6113 H 615.893 5.88653 2.64873 0
M  V30 6114 H 616.661 7.89966 2.14234 0
M  V30 6115 N 619.324 -0.923095 1.27737 0
M  V30 6116 C 620.552 -1.70525 1.17171 0
M  V30 6117 C 620.967 -1.86847 -0.270881 0
M  V30 6118 O 620.324 -1.38879 -1.18401 0
M  V30 6119 C 620.375 -3.10242 1.85559 0
M  V30 6120 O 620.096 -2.94683 3.24182 0
M  V30 6121 C 621.597 -4.04586 1.81176 0
M  V30 6122 H 618.817 -0.533347 0.407163 0
M  V30 6123 H 621.361 -1.15599 1.68692 0
M  V30 6124 H 619.516 -3.62014 1.3793 0
M  V30 6125 H 619.93 -3.83045 3.58297 0
M  V30 6126 H 621.404 -5.00119 2.33633 0
M  V30 6127 H 621.881 -4.3218 0.782099 0
M  V30 6128 H 622.487 -3.58741 2.2844 0
M  V30 6129 N 620.802 -1.09834 -1.13024 0
M  V30 6130 C 622.027 -0.85909 -1.88771 0
M  V30 6131 C 622.452 0.584402 -1.78791 0
M  V30 6132 O 621.81 1.41101 -1.13842 0
M  V30 6133 C 621.858 -1.30427 -3.36186 0
M  V30 6134 O 620.962 -0.465368 -4.09766 0
M  V30 6135 H 620.303 -0.310786 -0.586778 0
M  V30 6136 H 622.833 -1.46355 -1.42973 0
M  V30 6137 H 622.843 -1.2915 -3.8702 0
M  V30 6138 H 621.518 -2.3555 -3.42767 0
M  V30 6139 H 620.095 -0.542814 -3.68928 0
M  V30 6140 N 622.28 1.30327 -0.886154 0
M  V30 6141 C 623.21 2.30549 -0.370028 0
M  V30 6142 C 624.191 1.61039 0.547751 0
M  V30 6143 O 625.376 1.8864 0.461353 0
M  V30 6144 C 622.506 3.44808 0.415275 0
M  V30 6145 C 621.46 4.26024 -0.41085 0
M  V30 6146 C 620.786 5.32347 0.501128 0
M  V30 6147 C 622.086 4.95433 -1.65359 0
M  V30 6148 H 623.78 2.73969 -1.20754 0
M  V30 6149 H 621.326 1.3171 -0.582097 0
M  V30 6150 H 623.279 4.13986 0.78699 0
M  V30 6151 H 622.003 3.00197 1.28644 0
M  V30 6152 H 620.662 3.58535 -0.764719 0
M  V30 6153 H 620.31 4.83982 1.37004 0
M  V30 6154 H 620.01 5.87581 -0.0478356 0
M  V30 6155 H 621.534 6.0438 0.869333 0
M  V30 6156 H 622.948 5.5712 -1.35239 0
M  V30 6157 H 621.345 5.60537 -2.14284 0
M  V30 6158 H 622.415 4.21493 -2.39733 0
M  V30 6159 N 623.758 0.647228 1.43697 0
M  V30 6160 C 625.007 0.155552 2.01099 0
M  V30 6161 C 625.32 -1.23569 1.51624 0
M  V30 6162 O 626.526 -1.82226 2.01261 0
M  V30 6163 C 624.982 0.227296 3.59182 0
M  V30 6164 C 624.59 1.62086 4.17651 0
M  V30 6165 C 626.334 -0.207085 4.23995 0
M  V30 6166 C 624.241 1.64685 5.68008 0
M  V30 6167 H 623.171 0.0543895 0.752036 0
M  V30 6168 H 625.822 0.808386 1.64734 0
M  V30 6169 H 624.204 -0.492937 3.9292 0
M  V30 6170 H 625.378 2.36597 3.95422 0
M  V30 6171 H 623.693 2.0007 3.65186 0
M  V30 6172 H 626.29 -0.207426 5.34298 0
M  V30 6173 H 626.633 -1.23742 3.97484 0
M  V30 6174 H 627.166 0.461193 3.95118 0
M  V30 6175 H 623.905 2.65608 5.99277 0
M  V30 6176 H 623.425 0.944914 5.9231 0
M  V30 6177 H 625.104 1.38792 6.31938 0
M  V30 6178 N 625.236 -1.5273 0.388769 0
M  V30 6179 C 626.647 -1.86505 -0.0853788 0
M  V30 6180 C 626.998 -1.30847 -1.46197 0
M  V30 6181 O 626.123 -0.639609 -2.06732 0
M  V30 6182 C 626.718 -3.38414 -0.161703 0
M  V30 6183 C 625.277 -3.71902 -0.580144 0
M  V30 6184 C 624.424 -2.76095 0.258218 0
M  V30 6185 H 627.375 -1.46647 0.606665 0
M  V30 6186 H 627.396 -3.67638 -0.980936 0
M  V30 6187 H 626.908 -3.78893 0.840333 0
M  V30 6188 H 625.009 -3.36992 -1.58957 0
M  V30 6189 H 625.122 -4.77902 -0.338663 0
M  V30 6190 H 623.486 -2.53195 -0.276432 0
M  V30 6191 H 624.269 -3.19411 1.25822 0
M  V30 6192 N 626.714 -0.118576 -1.57153 0
M  V30 6193 C 627.662 0.849114 -2.16547 0
M  V30 6194 C 628.656 1.27567 -1.11458 0
M  V30 6195 O 629.862 1.24746 -1.29763 0
M  V30 6196 H 626.237 0.291935 -0.693021 0
M  V30 6197 H 628.208 0.323693 -2.96639 0
M  V30 6198 C 626.957 2.08951 -2.77912 0
M  V30 6199 H 626.28 1.77021 -3.58474 0
M  V30 6200 H 627.72 2.74666 -3.23008 0
M  V30 6201 C 626.179 2.87899 -1.74974 0
M  V30 6202 O 626.709 3.83268 -1.20285 0
M  V30 6203 N 624.915 2.51884 -1.44924 0
M  V30 6204 H 624.462 1.74397 -1.89587 0
M  V30 6205 H 624.42 3.05003 -0.762921 0
M  V30 6206 N 628.193 1.56834 0.155195 0
M  V30 6207 C 629.123 2.00678 1.19376 0
M  V30 6208 C 630.104 0.884973 1.45266 0
M  V30 6209 O 631.289 1.1522 1.56326 0
M  V30 6210 C 628.419 2.38042 2.5289 0
M  V30 6211 C 627.373 3.53332 2.41538 0
M  V30 6212 C 626.699 3.76485 3.79688 0
M  V30 6213 C 627.999 4.86265 1.9064 0
M  V30 6214 H 629.693 2.87688 0.829232 0
M  V30 6215 H 627.239 1.38407 0.397445 0
M  V30 6216 H 629.192 2.67314 3.25763 0
M  V30 6217 H 627.916 1.4796 2.91162 0
M  V30 6218 H 626.575 3.24213 1.71117 0
M  V30 6219 H 626.223 2.83667 4.15382 0
M  V30 6220 H 625.923 4.54068 3.72956 0
M  V30 6221 H 627.447 4.08174 4.54122 0
M  V30 6222 H 628.861 5.14308 2.53299 0
M  V30 6223 H 627.258 5.67597 1.94818 0
M  V30 6224 H 628.328 4.77184 0.861596 0
M  V30 6225 N 629.671 -0.424282 1.51781 0
M  V30 6226 C 631.087 -0.761768 1.40247 0
M  V30 6227 C 631.287 -1.95324 0.495041 0
M  V30 6228 O 630.343 -2.5246 -0.0448949 0
M  V30 6229 C 631.656 -1.0299 2.82513 0
M  V30 6230 C 633.204 -1.13354 2.91753 0
M  V30 6231 C 633.679 -1.43453 4.34954 0
M  V30 6232 N 635.17 -1.5035 4.3812 0
M  V30 6233 C 635.905 -1.75236 5.45967 0
M  V30 6234 N 635.401 -1.97827 6.63955 0
M  V30 6235 N 637.194 -1.77126 5.33463 0
M  V30 6236 H 629.345 0.360228 2.09323 0
M  V30 6237 H 631.608 0.0988128 0.942836 0
M  V30 6238 H 631.314 -0.226961 3.50967 0
M  V30 6239 H 631.188 -1.95411 3.22637 0
M  V30 6240 H 633.575 -1.92709 2.23489 0
M  V30 6241 H 633.656 -0.188041 2.55108 0
M  V30 6242 H 633.3 -0.646209 5.03772 0
M  V30 6243 H 633.23 -2.3923 4.69123 0
M  V30 6244 H 635.721 -1.34742 3.53062 0
M  V30 6245 H 636.034 -2.16223 7.41935 0
M  V30 6246 H 634.379 -1.95123 6.67047 0
M  V30 6247 H 637.57 -1.59005 4.40267 0
M  V30 6248 H 637.743 -1.96182 6.17589 0
M  V30 6249 N 631.149 -1.42148 -0.680565 0
M  V30 6250 C 632.097 -1.45401 -1.81552 0
M  V30 6251 C 633.091 -0.33036 -1.66147 0
M  V30 6252 O 634.297 -0.503103 -1.72826 0
M  V30 6253 H 630.672 -0.455265 -0.59853 0
M  V30 6254 H 632.643 -2.41024 -1.75926 0
M  V30 6255 C 631.392 -1.36769 -3.19671 0
M  V30 6256 H 630.715 -2.22525 -3.32149 0
M  V30 6257 H 632.155 -1.43106 -3.9912 0
M  V30 6258 C 630.614 -0.0817752 -3.36801 0
M  V30 6259 O 631.144 0.867707 -3.92216 0
M  V30 6260 N 629.35 -0.000799811 -2.906 0
M  V30 6261 H 628.897 -0.774231 -2.4569 0
M  V30 6262 H 628.855 0.858961 -3.02439 0
M  V30 6263 N 632.627 0.916307 -1.28225 0
M  V30 6264 C 633.873 1.66765 -1.154 0
M  V30 6265 C 634.206 1.91912 0.297251 0
M  V30 6266 O 633.481 1.51766 1.21644 0
M  V30 6267 C 633.764 3.02715 -1.95028 0
M  V30 6268 C 633.617 2.84738 -3.48201 0
M  V30 6269 C 634.936 4.03215 -1.76369 0
M  V30 6270 H 632.055 0.605205 -0.42059 0
M  V30 6271 H 634.697 1.06255 -1.57512 0
M  V30 6272 H 632.847 3.54365 -1.59242 0
M  V30 6273 H 634.519 2.40118 -3.9388 0
M  V30 6274 H 632.762 2.19848 -3.73964 0
M  V30 6275 H 633.433 3.8127 -3.99171 0
M  V30 6276 H 635.909 3.60617 -2.07593 0
M  V30 6277 H 634.785 4.96306 -2.34459 0
M  V30 6278 H 635.046 4.36288 -0.71452 0
M  V30 6279 N 634.105 1.10431 1.1244 0
M  V30 6280 C 635.351 0.847972 1.84221 0
M  V30 6281 C 635.684 -0.624903 1.83871 0
M  V30 6282 O 634.959 -1.46074 1.28423 0
M  V30 6283 C 635.242 1.39695 3.319 0
M  V30 6284 C 635.095 2.93668 3.40704 0
M  V30 6285 C 636.414 1.03924 4.27654 0
M  V30 6286 H 633.533 0.309502 0.668863 0
M  V30 6287 H 636.175 1.36745 1.31912 0
M  V30 6288 H 634.325 0.955095 3.76577 0
M  V30 6289 H 635.997 3.46379 3.04662 0
M  V30 6290 H 634.24 3.30272 2.81252 0
M  V30 6291 H 634.911 3.27162 4.446 0
M  V30 6292 H 637.387 1.42049 3.91102 0
M  V30 6293 H 636.263 1.45027 5.29394 0
M  V30 6294 H 636.524 -0.051336 4.4207 0
M  V30 6295 N 635.583 -1.29855 0.893053 0
M  V30 6296 C 636.546 -2.26183 0.370687 0
M  V30 6297 C 637.546 -1.53108 -0.491385 0
M  V30 6298 O 638.736 -1.71643 -0.297386 0
M  V30 6299 C 635.868 -3.37633 -0.470827 0
M  V30 6300 H 637.061 -2.73903 1.22135 0
M  V30 6301 H 634.614 -1.41183 0.67061 0
M  V30 6302 H 635.349 -2.95241 -1.34175 0
M  V30 6303 H 635.134 -3.91825 0.146784 0
M  V30 6304 H 636.624 -4.09313 -0.827825 0
M  V30 6305 N 637.061 -0.65484 -1.43351 0
M  V30 6306 C 637.991 0.0221809 -2.33489 0
M  V30 6307 C 638.972 0.810272 -1.49561 0
M  V30 6308 O 640.157 0.771426 -1.78221 0
M  V30 6309 C 637.287 0.988117 -3.32947 0
M  V30 6310 C 636.241 0.310026 -4.26876 0
M  V30 6311 C 635.567 1.38752 -5.16384 0
M  V30 6312 C 636.867 -0.798589 -5.16159 0
M  V30 6313 H 638.561 -0.730571 -2.9035 0
M  V30 6314 H 636.107 -0.352773 -1.39612 0
M  V30 6315 H 638.06 1.47067 -3.94904 0
M  V30 6316 H 636.784 1.77205 -2.74346 0
M  V30 6317 H 635.443 -0.152097 -3.66284 0
M  V30 6318 H 635.091 2.16293 -4.54121 0
M  V30 6319 H 634.791 0.939051 -5.80048 0
M  V30 6320 H 636.315 1.87141 -5.81215 0
M  V30 6321 H 637.729 -0.398126 -5.71916 0
M  V30 6322 H 636.126 -1.17163 -5.88552 0
M  V30 6323 H 637.196 -1.65588 -4.55751 0
M  V30 6324 N 638.539 1.52521 -0.396863 0
M  V30 6325 C 639.816 1.94112 0.240842 0
M  V30 6326 C 640.196 1.33288 1.637 0
M  V30 6327 O 639.544 0.503901 2.22875 0
M  V30 6328 C 639.754 3.48033 0.259567 0
M  V30 6329 C 641.102 4.21822 0.484866 0
M  V30 6330 O 642.126 3.54579 0.339453 0
M  V30 6331 O 640.985 5.41042 0.770412 0
M  V30 6332 H 638.079 0.812973 0.151671 0
M  V30 6333 H 640.625 1.63572 -0.451918 0
M  V30 6334 H 639.397 3.84655 -0.718078 0
M  V30 6335 H 639.02 3.84899 0.996937 0
M  V30 6336 N 640.017 0.126909 1.57088 0
M  V30 6337 C 641.245 -0.53667 1.99819 0
M  V30 6338 C 641.66 -1.5972 1.00673 0
M  V30 6339 O 641.017 -1.825 0.000747365 0
M  V30 6340 C 641.068 -1.15563 3.42531 0
M  V30 6341 O 640.789 -0.137483 4.37884 0
M  V30 6342 C 642.29 -1.90176 4.00435 0
M  V30 6343 H 639.51 -0.141443 0.655923 0
M  V30 6344 H 642.054 0.215578 2.03361 0
M  V30 6345 H 640.209 -1.85861 3.39904 0
M  V30 6346 H 640.623 -0.588229 5.21191 0
M  V30 6347 H 642.097 -2.28801 5.02349 0
M  V30 6348 H 642.574 -2.78002 3.40017 0
M  V30 6349 H 643.18 -1.24623 4.06632 0
M  V30 6350 N 641.495 -1.56914 -0.146875 0
M  V30 6351 C 642.405 -2.0154 -1.20079 0
M  V30 6352 C 643.421 -0.930838 -1.47008 0
M  V30 6353 O 644.597 -1.24032 -1.58676 0
M  V30 6354 C 641.662 -2.38715 -2.51428 0
M  V30 6355 C 640.723 -3.6112 -2.32145 0
M  V30 6356 C 639.956 -3.96512 -3.57231 0
M  V30 6357 O 640.179 -3.32566 -4.63418 0
M  V30 6358 O 639.113 -4.89758 -3.49887 0
M  V30 6359 H 642.939 -2.91506 -0.851924 0
M  V30 6360 H 640.524 -1.45106 -0.355607 0
M  V30 6361 H 642.406 -2.63485 -3.28867 0
M  V30 6362 H 641.081 -1.51903 -2.85845 0
M  V30 6363 H 639.988 -3.41536 -1.52656 0
M  V30 6364 H 641.321 -4.48549 -2.02644 0
M  V30 6365 N 642.974 0.416227 -1.52004 0
M  V30 6366 C 644.22 1.16555 -1.6596 0
M  V30 6367 C 644.553 1.90347 -0.384906 0
M  V30 6368 O 643.828 1.84474 0.616405 0
M  V30 6369 C 644.111 2.1657 -2.87696 0
M  V30 6370 C 643.964 1.46722 -4.25197 0
M  V30 6371 C 645.283 3.17321 -3.04951 0
M  V30 6372 H 642.402 0.422369 -0.603965 0
M  V30 6373 H 645.044 0.452141 -1.84542 0
M  V30 6374 H 643.194 2.77411 -2.71985 0
M  V30 6375 H 644.866 0.89056 -4.52622 0
M  V30 6376 H 643.109 0.769263 -4.26925 0
M  V30 6377 H 643.78 2.19665 -5.0641 0
M  V30 6378 H 646.256 2.66552 -3.19514 0
M  V30 6379 H 645.132 3.84573 -3.91656 0
M  V30 6380 H 645.393 3.84643 -2.17951 0
M  V30 6381 N 644.452 1.42507 0.673017 0
M  V30 6382 C 645.415 1.4582 1.76831 0
M  V30 6383 C 646.415 0.345542 1.57043 0
M  V30 6384 O 647.605 0.606447 1.63303 0
M  V30 6385 C 644.737 1.29158 3.15485 0
M  V30 6386 H 645.93 2.43345 1.7528 0
M  V30 6387 H 643.483 1.28981 0.882817 0
M  V30 6388 H 644.218 0.325626 3.22661 0
M  V30 6389 H 644.003 2.09797 3.31252 0
M  V30 6390 H 645.493 1.34363 3.95394 0
M  V30 6391 N 645.93 -0.909495 1.28709 0
M  V30 6392 C 647.155 -1.69801 1.1909 0
M  V30 6393 C 647.58 -1.86479 -0.246388 0
M  V30 6394 O 646.938 -1.37802 -1.17815 0
M  V30 6395 C 646.986 -3.06543 1.89904 0
M  V30 6396 O 646.09 -3.94268 1.2094 0
M  V30 6397 H 645.431 -0.519783 0.413185 0
M  V30 6398 H 647.961 -1.13689 1.70106 0
M  V30 6399 H 647.971 -3.56748 1.97977 0
M  V30 6400 H 646.646 -2.93722 2.94449 0
M  V30 6401 H 645.223 -3.52702 1.2106 0
M  V30 6402 N 647.408 -1.11026 -1.11852 0
M  V30 6403 C 648.356 -0.759643 -2.19846 0
M  V30 6404 C 649.35 0.246964 -1.6759 0
M  V30 6405 O 650.556 0.106693 -1.79684 0
M  V30 6406 H 646.931 -0.22775 -0.716683 0
M  V30 6407 H 648.902 -1.6792 -2.46669 0
M  V30 6408 C 647.651 -0.214364 -3.47039 0
M  V30 6409 H 646.974 -0.980175 -3.87599 0
M  V30 6410 H 648.414 -0.00717047 -4.23999 0
M  V30 6411 C 646.873 1.05436 -3.19976 0
M  V30 6412 O 647.403 2.13483 -3.40276 0
M  V30 6413 N 645.609 0.975436 -2.7374 0
M  V30 6414 H 645.156 0.0960853 -2.57421 0
M  V30 6415 H 645.114 1.82501 -2.5601 0
M  V30 6416 N 648.886 1.2938 -0.899927 0
M  V30 6417 C 650.302 1.48052 -0.596059 0
M  V30 6418 C 650.502 1.82114 0.862372 0
M  V30 6419 O 649.558 1.91774 1.64253 0
M  V30 6420 C 650.871 2.59332 -1.52208 0
M  V30 6421 C 652.419 2.73208 -1.5273 0
M  V30 6422 C 652.894 3.87617 -2.43961 0
M  V30 6423 N 654.385 3.9495 -2.42009 0
M  V30 6424 C 655.12 4.82824 -3.09303 0
M  V30 6425 N 654.616 5.75387 -3.85877 0
M  V30 6426 N 656.409 4.76317 -2.98459 0
M  V30 6427 H 648.56 1.05546 -1.8432 0
M  V30 6428 H 650.823 0.524314 -0.78981 0
M  V30 6429 H 650.529 2.41029 -2.56121 0
M  V30 6430 H 650.403 3.56139 -1.24278 0
M  V30 6431 H 652.79 2.90908 -0.495614 0
M  V30 6432 H 652.871 1.76975 -1.84698 0
M  V30 6433 H 652.515 3.70672 -3.47224 0
M  V30 6434 H 652.445 4.83218 -2.09303 0
M  V30 6435 H 654.936 3.28744 -1.86375 0
M  V30 6436 H 655.249 6.39235 -4.34279 0
M  V30 6437 H 653.594 5.75272 -3.89984 0
M  V30 6438 H 656.785 4.0299 -2.38152 0
M  V30 6439 H 656.958 5.44589 -3.51179 0
M  V30 6440 N 650.364 0.662433 1.43002 0
M  V30 6441 C 651.613 0.176873 2.00923 0
M  V30 6442 C 651.926 -1.21954 1.52927 0
M  V30 6443 O 653.132 -1.80081 2.03182 0
M  V30 6444 C 651.588 0.265379 3.5892 0
M  V30 6445 C 651.196 1.66507 4.15908 0
M  V30 6446 C 652.94 -0.162103 4.2419 0
M  V30 6447 C 650.847 1.707 5.66229 0
M  V30 6448 H 649.777 0.0623627 0.751417 0
M  V30 6449 H 652.428 0.825813 1.63868 0
M  V30 6450 H 650.81 -0.451235 3.93421 0
M  V30 6451 H 651.984 2.40777 3.92891 0
M  V30 6452 H 650.299 2.03932 3.63044 0
M  V30 6453 H 652.896 -0.150745 5.34487 0
M  V30 6454 H 653.239 -1.19519 3.98774 0
M  V30 6455 H 653.772 0.503075 3.94606 0
M  V30 6456 H 650.511 2.7195 5.96426 0
M  V30 6457 H 650.031 1.00768 5.91275 0
M  V30 6458 H 651.71 1.45487 6.3043 0
M  V30 6459 N 651.842 -1.52309 0.404946 0
M  V30 6460 C 653.072 -2.05886 -0.171569 0
M  V30 6461 C 653.48 -1.27527 -1.39762 0
M  V30 6462 O 652.823 -0.319215 -1.80905 0
M  V30 6463 C 652.885 -3.54609 -0.590983 0
M  V30 6464 C 652.549 -4.53989 0.523757 0
M  V30 6465 C 653.546 -5.01084 1.38604 0
M  V30 6466 C 651.231 -4.97465 0.695255 0
M  V30 6467 C 653.225 -5.90295 2.4048 0
M  V30 6468 C 650.912 -5.86473 1.71733 0
M  V30 6469 C 651.91 -6.32782 2.57051 0
M  V30 6470 O 651.598 -7.20029 3.57509 0
M  V30 6471 H 651.33 -0.675508 -0.0257763 0
M  V30 6472 H 653.884 -1.97238 0.573278 0
M  V30 6473 H 652.114 -3.60929 -1.38805 0
M  V30 6474 H 653.803 -3.90853 -1.09494 0
M  V30 6475 H 654.569 -4.68214 1.26492 0
M  V30 6476 H 650.448 -4.60982 0.0408447 0
M  V30 6477 H 653.992 -6.26363 3.07108 0
M  V30 6478 H 649.889 -6.18756 1.83877 0
M  V30 6479 H 650.657 -7.3813 3.53703 0
M  V30 6480 N 653.32 -0.135238 -1.57019 0
M  V30 6481 C 654.566 0.513232 -1.96818 0
M  V30 6482 C 654.921 1.63245 -1.01827 0
M  V30 6483 O 654.214 1.91532 -0.0511756 0
M  V30 6484 C 654.408 1.07694 -3.40788 0
M  V30 6485 C 654.237 0.0138667 -4.49698 0
M  V30 6486 C 653.007 -0.423532 -5.03522 0
M  V30 6487 C 655.205 -0.77322 -5.08454 0
M  V30 6488 N 653.187 -1.47068 -5.96024 0
M  V30 6489 C 654.558 -1.67115 -5.97053 0
M  V30 6490 C 656.613 -0.822313 -4.91063 0
M  V30 6491 C 655.316 -2.61395 -6.70123 0
M  V30 6492 C 657.342 -1.75288 -5.64826 0
M  V30 6493 C 656.704 -2.63836 -6.53123 0
M  V30 6494 H 652.803 0.156956 -0.766087 0
M  V30 6495 H 655.387 -0.227118 -1.93371 0
M  V30 6496 H 653.558 1.78694 -3.44852 0
M  V30 6497 H 655.29 1.69106 -3.67675 0
M  V30 6498 H 652.045 -0.0280202 -4.73592 0
M  V30 6499 H 652.469 -1.99366 -6.46979 0
M  V30 6500 H 657.111 -0.151822 -4.22527 0
M  V30 6501 H 654.829 -3.2945 -7.37895 0
M  V30 6502 H 658.415 -1.79652 -5.53368 0
M  V30 6503 H 657.295 -3.34672 -7.092 0
M  V30 6504 N 654.798 1.5699 0.138552 0
M  V30 6505 C 656.023 1.88344 0.86841 0
M  V30 6506 C 656.448 0.725159 1.7356 0
M  V30 6507 O 655.806 -0.324992 1.78363 0
M  V30 6508 C 655.854 3.18334 1.69398 0
M  V30 6509 O 654.958 3.02863 2.79907 0
M  V30 6510 H 654.299 0.618577 0.241367 0
M  V30 6511 H 656.829 2.04207 0.126826 0
M  V30 6512 H 656.839 3.50567 2.08726 0
M  V30 6513 H 655.514 4.02238 1.05725 0
M  V30 6514 H 654.091 2.82056 2.43924 0
M  V30 6515 N 656.276 -0.40816 1.52223 0
M  V30 6516 C 657.553 -1.16807 1.56893 0
M  V30 6517 C 657.933 -2.08169 0.350537 0
M  V30 6518 O 657.281 -2.18684 -0.662536 0
M  V30 6519 C 657.491 -1.94451 2.8981 0
M  V30 6520 C 658.839 -2.50484 3.42845 0
M  V30 6521 O 659.863 -2.0463 2.91556 0
M  V30 6522 O 658.722 -3.34192 4.3241 0
M  V30 6523 H 655.816 -0.533382 0.632007 0
M  V30 6524 H 658.362 -0.414862 1.64551 0
M  V30 6525 H 657.134 -1.27527 3.69936 0
M  V30 6526 H 656.757 -2.76775 2.85449 0
M  V30 6527 N 657.755 -1.42862 -0.66545 0
M  V30 6528 C 658.685 -1.49867 -1.79059 0
M  V30 6529 C 659.666 -0.354394 -1.66367 0
M  V30 6530 O 660.851 -0.569969 -1.85647 0
M  V30 6531 C 657.981 -1.40943 -3.17415 0
M  V30 6532 C 656.935 -2.53495 -3.44854 0
M  V30 6533 C 656.261 -2.29626 -4.82883 0
M  V30 6534 C 657.561 -3.95781 -3.40815 0
M  V30 6535 H 659.255 -2.44037 -1.73453 0
M  V30 6536 H 656.801 -1.17456 -0.833071 0
M  V30 6537 H 658.754 -1.4445 -3.95869 0
M  V30 6538 H 657.478 -0.432716 -3.23721 0
M  V30 6539 H 656.137 -2.4932 -2.68766 0
M  V30 6540 H 655.785 -1.30226 -4.8585 0
M  V30 6541 H 655.485 -3.05065 -5.02204 0
M  V30 6542 H 657.009 -2.34897 -5.63609 0
M  V30 6543 H 658.423 -4.01508 -4.09224 0
M  V30 6544 H 656.82 -4.71148 -3.71672 0
M  V30 6545 H 657.89 -4.21786 -2.39216 0
M  V30 6546 N 659.233 0.902656 -1.29189 0
M  V30 6547 C 660.458 1.69167 -1.19989 0
M  V30 6548 C 660.883 1.86607 0.236495 0
M  V30 6549 O 660.241 1.38425 1.17082 0
M  V30 6550 C 660.289 3.05532 -1.91527 0
M  V30 6551 O 659.393 3.93621 -1.2303 0
M  V30 6552 H 658.734 0.517584 -0.415936 0
M  V30 6553 H 661.264 1.12785 -1.70706 0
M  V30 6554 H 661.274 3.55693 -1.99866 0
M  V30 6555 H 659.949 2.92156 -2.96003 0
M  V30 6556 H 658.526 3.52055 -1.22928 0
M  V30 6557 N 660.711 1.11618 1.11262 0
M  V30 6558 C 661.643 0.734015 2.17129 0
M  V30 6559 C 662.656 -0.235243 1.61091 0
M  V30 6560 O 663.845 -0.0178597 1.78491 0
M  V30 6561 C 660.945 0.0643682 3.38839 0
M  V30 6562 C 660.118 1.06092 4.24339 0
M  V30 6563 C 659.177 0.420482 5.24517 0
M  V30 6564 O 658.203 1.07495 5.58957 0
M  V30 6565 N 659.405 -0.815828 5.74739 0
M  V30 6566 H 662.17 1.64492 2.50524 0
M  V30 6567 H 659.731 1.00664 1.26801 0
M  V30 6568 H 661.723 -0.375851 4.02951 0
M  V30 6569 H 660.293 -0.749147 3.03491 0
M  V30 6570 H 659.513 1.67903 3.56654 0
M  V30 6571 H 660.801 1.73507 4.78302 0
M  V30 6572 H 660.199 -1.36668 5.48943 0
M  V30 6573 H 658.756 -1.199 6.40677 0
M  V30 6574 N 662.189 -1.289 0.906776 0
M  V30 6575 C 663.605 -1.47733 0.603902 0
M  V30 6576 C 663.805 -1.82568 -0.852702 0
M  V30 6577 O 662.861 -1.92642 -1.63234 0
M  V30 6578 C 664.174 -2.58522 1.53581 0
M  V30 6579 C 665.722 -2.72394 1.54177 0
M  V30 6580 C 666.197 -3.86318 2.46013 0
M  V30 6581 N 667.688 -3.93661 2.441 0
M  V30 6582 C 668.423 -4.81177 3.11859 0
M  V30 6583 N 667.919 -5.73333 3.88923 0
M  V30 6584 N 669.712 -4.74728 3.00981 0
M  V30 6585 H 661.863 -1.04567 1.84877 0
M  V30 6586 H 664.126 -0.520118 0.792579 0
M  V30 6587 H 663.832 -2.39667 2.57396 0
M  V30 6588 H 663.706 -3.55475 1.26165 0
M  V30 6589 H 666.093 -2.90641 0.511034 0
M  V30 6590 H 666.174 -1.75993 1.85634 0
M  V30 6591 H 665.818 -3.68826 3.49185 0
M  V30 6592 H 665.748 -4.82102 2.11862 0
M  V30 6593 H 668.239 -3.27751 1.88115 0
M  V30 6594 H 668.552 -6.36923 4.37663 0
M  V30 6595 H 666.897 -5.73196 3.93029 0
M  V30 6596 H 670.088 -4.01722 2.40286 0
M  V30 6597 H 670.261 -5.42719 3.54062 0
M  V30 6598 N 663.667 -0.670007 -1.42649 0
M  V30 6599 C 664.6 0.0613623 -2.28117 0
M  V30 6600 C 665.578 0.813414 -1.40792 0
M  V30 6601 O 666.762 0.809529 -1.70232 0
M  V30 6602 C 663.889 1.09399 -3.20546 0
M  V30 6603 C 662.935 0.438064 -4.24244 0
M  V30 6604 S 663.768 -0.800808 -5.29478 0
M  V30 6605 C 664.924 0.23086 -6.25474 0
M  V30 6606 H 665.157 -0.663606 -2.89799 0
M  V30 6607 H 662.69 -0.45939 -1.47407 0
M  V30 6608 H 664.648 1.68469 -3.74337 0
M  V30 6609 H 663.309 1.79137 -2.58009 0
M  V30 6610 H 662.502 1.21707 -4.89084 0
M  V30 6611 H 662.104 -0.0789346 -3.73917 0
M  V30 6612 H 664.396 1.09204 -6.68641 0
M  V30 6613 H 665.339 -0.382945 -7.07064 0
M  V30 6614 H 665.747 0.574191 -5.61572 0
M  V30 6615 N 665.145 1.52092 -0.413018 0
M  V30 6616 C 666.394 2.01041 0.16287 0
M  V30 6617 C 666.707 1.30288 1.45892 0
M  V30 6618 O 667.913 1.70075 2.11629 0
M  V30 6619 C 666.369 3.58283 0.340806 0
M  V30 6620 C 665.977 4.37955 -0.943377 0
M  V30 6621 C 667.721 4.15452 0.871774 0
M  V30 6622 C 665.628 5.86847 -0.732417 0
M  V30 6623 H 664.558 0.751224 0.0646414 0
M  V30 6624 H 667.209 1.75404 -0.539059 0
M  V30 6625 H 665.591 3.80266 1.10516 0
M  V30 6626 H 666.765 4.2773 -1.71418 0
M  V30 6627 H 665.08 3.92122 -1.40105 0
M  V30 6628 H 667.677 5.24375 1.0457 0
M  V30 6629 H 668.02 3.73057 1.84755 0
M  V30 6630 H 668.553 3.97452 0.166377 0
M  V30 6631 H 665.292 6.33609 -1.67986 0
M  V30 6632 H 664.812 5.998 -0.000980058 0
M  V30 6633 H 666.491 6.45906 -0.376105 0
M  V30 6634 N 666.623 0.143563 1.56945 0
M  V30 6635 C 667.863 -0.511198 1.97904 0
M  V30 6636 C 668.227 -1.62262 1.0264 0
M  V30 6637 O 669.428 -2.338 1.32631 0
M  V30 6638 C 667.699 -1.00753 3.42905 0
M  V30 6639 S 669.258 -1.66737 4.05887 0
M  V30 6640 H 666.076 -0.165399 0.691494 0
M  V30 6641 H 668.678 0.234464 1.94089 0
M  V30 6642 H 667.382 -0.187817 4.0997 0
M  V30 6643 H 666.913 -1.7879 3.50425 0
M  V30 6644 H 668.928 -2.95444 3.98657 0
M  V30 6645 N 668.101 -1.57061 -0.130224 0
M  V30 6646 C 669.326 -1.88802 -0.858409 0
M  V30 6647 C 669.751 -0.734353 -1.73173 0
M  V30 6648 O 669.109 0.315529 -1.78533 0
M  V30 6649 C 669.157 -3.19228 -1.67708 0
M  V30 6650 O 668.261 -3.04343 -2.78297 0
M  V30 6651 H 667.602 -0.619849 -0.238083 0
M  V30 6652 H 670.132 -2.04271 -0.115995 0
M  V30 6653 H 670.142 -3.51669 -2.06864 0
M  V30 6654 H 668.817 -4.02793 -1.0359 0
M  V30 6655 H 667.394 -2.83346 -2.42425 0
M  V30 6656 N 669.579 0.400081 -1.52437 0
M  V30 6657 C 670.807 1.16768 -1.70801 0
M  V30 6658 C 671.222 1.84036 -0.421462 0
M  V30 6659 O 670.579 1.72242 0.603228 0
M  V30 6660 C 670.63 2.22403 -2.8499 0
M  V30 6661 O 670.351 1.57879 -4.08663 0
M  V30 6662 C 671.852 3.11974 -3.1494 0
M  V30 6663 H 669.072 0.350533 -0.57216 0
M  V30 6664 H 671.616 0.469534 -1.99037 0
M  V30 6665 H 669.771 2.87871 -2.59247 0
M  V30 6666 H 670.185 2.27982 -4.7236 0
M  V30 6667 H 671.659 3.82148 -3.9833 0
M  V30 6668 H 672.136 3.74858 -2.28863 0
M  V30 6669 H 672.742 2.52165 -3.42481 0
M  V30 6670 N 671.057 1.43213 0.657864 0
M  V30 6671 C 671.989 1.43974 1.78337 0
M  V30 6672 C 673.002 0.336482 1.59285 0
M  V30 6673 O 674.191 0.600631 1.68091 0
M  V30 6674 C 671.291 1.23242 3.15697 0
M  V30 6675 C 670.464 2.46319 3.61449 0
M  V30 6676 C 669.523 2.2088 4.77597 0
M  V30 6677 O 668.549 2.942 4.87273 0
M  V30 6678 N 669.751 1.22251 5.67481 0
M  V30 6679 H 672.516 2.40993 1.78164 0
M  V30 6680 H 670.077 1.3831 0.841549 0
M  V30 6681 H 672.069 1.04113 3.91079 0
M  V30 6682 H 670.639 0.346849 3.1067 0
M  V30 6683 H 669.859 2.80904 2.76563 0
M  V30 6684 H 671.147 3.28239 3.88763 0
M  V30 6685 H 670.545 0.616433 5.62331 0
M  V30 6686 H 669.102 1.09107 6.42603 0
M  V30 6687 N 672.536 -0.895792 1.29666 0
M  V30 6688 C 673.466 -2.01673 1.17688 0
M  V30 6689 C 674.447 -1.69955 0.0701317 0
M  V30 6690 O 675.632 -1.9258 0.250289 0
M  V30 6691 C 672.762 -3.36568 0.856681 0
M  V30 6692 C 671.716 -3.82509 1.92017 0
M  V30 6693 C 671.042 -5.14574 1.4532 0
M  V30 6694 C 672.342 -4.02409 3.32963 0
M  V30 6695 H 674.036 -2.11953 2.11463 0
M  V30 6696 H 671.582 -1.01839 1.01807 0
M  V30 6697 H 673.535 -4.14498 0.759577 0
M  V30 6698 H 672.259 -3.26391 -0.116763 0
M  V30 6699 H 670.918 -3.068 2.00673 0
M  V30 6700 H 670.566 -5.00815 0.468325 0
M  V30 6701 H 670.266 -5.46283 2.16447 0
M  V30 6702 H 671.79 -5.9504 1.36968 0
M  V30 6703 H 673.204 -4.70808 3.27127 0
M  V30 6704 H 671.601 -4.45478 4.02082 0
M  V30 6705 H 672.671 -3.06616 3.75652 0
M  V30 6706 N 674.014 -1.12206 -1.10668 0
M  V30 6707 C 675.291 -0.787382 -1.79052 0
M  V30 6708 C 675.671 0.723267 -1.98323 0
M  V30 6709 O 675.019 1.6561 -1.57434 0
M  V30 6710 C 675.229 -1.55968 -3.1221 0
M  V30 6711 C 676.577 -1.74413 -3.87125 0
M  V30 6712 O 677.601 -1.5246 -3.21923 0
M  V30 6713 O 676.46 -2.10952 -5.04144 0
M  V30 6714 H 673.554 -0.286137 -0.775922 0
M  V30 6715 H 676.1 -1.22595 -1.1734 0
M  V30 6716 H 674.872 -2.58692 -2.93588 0
M  V30 6717 H 674.495 -1.1152 -3.8164 0
M  V30 6718 N 675.492 1.28418 -0.913599 0
M  V30 6719 C 676.908 1.47411 -0.611728 0
M  V30 6720 C 677.108 1.83018 0.843008 0
M  V30 6721 O 676.164 1.93505 1.6221 0
M  V30 6722 C 677.477 2.57703 -1.5495 0
M  V30 6723 C 679.025 2.71572 -1.5562 0
M  V30 6724 C 679.5 3.85008 -2.48058 0
M  V30 6725 N 680.991 3.92361 -2.46184 0
M  V30 6726 C 681.726 4.79516 -3.14407 0
M  V30 6727 N 681.222 5.71262 -3.91958 0
M  V30 6728 N 683.015 4.73125 -3.03495 0
M  V30 6729 H 675.166 1.03585 -1.85429 0
M  V30 6730 H 677.429 0.515907 -0.795326 0
M  V30 6731 H 677.135 2.38298 -2.58663 0
M  V30 6732 H 677.009 3.54801 -1.28048 0
M  V30 6733 H 679.396 2.90366 -0.526441 0
M  V30 6734 H 679.477 1.75006 -1.86565 0
M  V30 6735 H 679.121 3.66969 -3.51136 0
M  V30 6736 H 679.051 4.80971 -2.14416 0
M  V30 6737 H 681.542 3.26749 -1.89851 0
M  V30 6738 H 681.855 6.34593 -4.41034 0
M  V30 6739 H 680.2 5.71103 -3.96063 0
M  V30 6740 H 683.391 4.00442 -2.42413 0
M  V30 6741 H 683.564 5.40834 -3.56935 0
M  V30 6742 N 676.97 0.677563 1.42291 0
M  V30 6743 C 677.933 0.0101085 2.29198 0
M  V30 6744 C 678.933 -0.726219 1.43467 0
M  V30 6745 O 680.123 -0.563807 1.64824 0
M  V30 6746 C 677.255 -0.996316 3.26016 0
M  V30 6747 H 678.448 0.775071 2.89711 0
M  V30 6748 H 676.001 0.440065 1.49977 0
M  V30 6749 H 676.736 -1.78967 2.70446 0
M  V30 6750 H 676.521 -0.471687 3.89253 0
M  V30 6751 H 678.011 -1.46167 3.91184 0
M  V30 6752 N 678.448 -1.51871 0.421078 0
M  V30 6753 C 679.398 -2.24171 -0.416111 0
M  V30 6754 C 680.382 -1.25763 -1.00362 0
M  V30 6755 O 681.574 -1.5094 -0.924452 0
M  V30 6756 C 678.703 -3.07533 -1.52571 0
M  V30 6757 C 677.789 -4.1336 -0.948399 0
M  V30 6758 N 678.18 -5.05704 -0.0987933 0
M  V30 6759 C 676.478 -4.29055 -1.21768 0
M  V30 6760 C 677.179 -5.8127 0.223705 0
M  V30 6761 N 676.155 -5.4221 -0.388524 0
M  V30 6762 H 679.957 -2.92925 0.239166 0
M  V30 6763 H 677.471 -1.60732 0.232191 0
M  V30 6764 H 679.468 -3.57893 -2.13819 0
M  V30 6765 H 678.128 -2.4032 -2.18349 0
M  V30 6766 H 679.139 -5.17214 0.266428 0
M  V30 6767 H 675.816 -3.73071 -1.87416 0
M  V30 6768 H 677.206 -6.65653 0.914076 0
M  V30 6769 N 679.926 -0.151884 -1.56866 0
M  V30 6770 C 681.174 0.497021 -1.95893 0
M  V30 6771 C 681.495 1.65078 -1.03799 0
M  V30 6772 O 680.765 1.95642 -0.10049 0
M  V30 6773 H 679.345 0.186603 -0.723318 0
M  V30 6774 H 682.007 -0.228525 -1.93556 0
M  V30 6775 H 681.103 0.869933 -2.99731 0
M  V30 6776 N 681.404 1.57128 0.121893 0
M  V30 6777 C 682.65 1.84974 0.831418 0
M  V30 6778 C 682.983 0.737204 1.79663 0
M  V30 6779 O 682.258 -0.257199 1.92792 0
M  V30 6780 C 682.541 3.23397 1.58386 0
M  V30 6781 C 682.394 4.45246 0.638445 0
M  V30 6782 C 683.713 3.59355 2.54071 0
M  V30 6783 H 680.832 0.67282 0.300803 0
M  V30 6784 H 683.474 1.89759 0.0957587 0
M  V30 6785 H 681.624 3.19449 2.21098 0
M  V30 6786 H 683.296 4.61295 0.0203925 0
M  V30 6787 H 681.539 4.33771 -0.05023 0
M  V30 6788 H 682.21 5.38765 1.20151 0
M  V30 6789 H 684.686 3.64075 2.01465 0
M  V30 6790 H 683.562 4.57193 3.03752 0
M  V30 6791 H 683.823 2.86622 3.36601 0
M  V30 6792 N 682.882 -0.391992 1.52647 0
M  V30 6793 C 684.107 -1.16312 1.71716 0
M  V30 6794 C 684.532 -1.83042 0.433279 0
M  V30 6795 O 683.89 -1.70705 -0.610707 0
M  V30 6796 C 683.938 -2.18908 2.86551 0
M  V30 6797 O 683.042 -3.2543 2.53316 0
M  V30 6798 H 682.383 -0.338743 0.571095 0
M  V30 6799 H 684.913 -0.457202 1.99426 0
M  V30 6800 H 684.923 -2.62954 3.1196 0
M  V30 6801 H 683.598 -1.69726 3.79692 0
M  V30 6802 H 682.175 -2.86543 2.38637 0
M  V30 6803 N 684.36 -1.4356 -0.65026 0
M  V30 6804 C 685.585 -1.48995 -1.44275 0
M  V30 6805 C 686.01 -0.109954 -1.87778 0
M  V30 6806 O 685.368 0.896926 -1.57559 0
M  V30 6807 C 685.416 -2.44341 -2.65198 0
M  V30 6808 O 684.52 -1.93172 -3.6436 0
M  V30 6809 H 683.861 -0.503852 -0.432469 0
M  V30 6810 H 686.391 -1.88504 -0.795446 0
M  V30 6811 H 686.401 -2.61743 -3.12977 0
M  V30 6812 H 685.076 -3.44588 -2.32877 0
M  V30 6813 H 683.653 -1.85445 -3.23519 0
M  V30 6814 N 685.838 0.888903 -1.30139 0
M  V30 6815 C 687.068 1.67115 -1.21474 0
M  V30 6816 C 687.476 1.87852 0.225472 0
M  V30 6817 O 686.819 1.42324 1.16145 0
M  V30 6818 C 686.881 3.0713 -1.86846 0
M  V30 6819 C 686.545 3.09582 -3.36167 0
M  V30 6820 C 687.542 2.88929 -4.32222 0
M  V30 6821 C 685.227 3.31304 -3.77549 0
M  V30 6822 C 687.221 2.89949 -5.67634 0
M  V30 6823 C 684.908 3.31954 -5.13079 0
M  V30 6824 C 685.906 3.113 -6.07932 0
M  V30 6825 O 685.594 3.11758 -7.40987 0
M  V30 6826 H 685.326 0.528372 -0.421662 0
M  V30 6827 H 687.88 1.11919 -1.7223 0
M  V30 6828 H 686.11 3.63973 -1.30615 0
M  V30 6829 H 687.799 3.6749 -1.72354 0
M  V30 6830 H 688.565 2.71948 -4.01584 0
M  V30 6831 H 684.444 3.46417 -3.04165 0
M  V30 6832 H 687.988 2.73746 -6.41645 0
M  V30 6833 H 683.885 3.48469 -5.43359 0
M  V30 6834 H 684.653 3.27951 -7.49927 0
M  V30 6835 N 687.317 1.12792 1.10072 0
M  V30 6836 C 688.594 0.796867 1.78632 0
M  V30 6837 C 688.974 -0.712739 1.98704 0
M  V30 6838 O 688.322 -1.64773 1.5831 0
M  V30 6839 C 688.532 1.57622 3.11378 0
M  V30 6840 C 689.88 1.76463 3.86194 0
M  V30 6841 O 690.904 1.54165 3.2111 0
M  V30 6842 O 689.763 2.13623 5.03018 0
M  V30 6843 H 686.857 0.290248 0.774394 0
M  V30 6844 H 689.403 1.23215 1.16688 0
M  V30 6845 H 688.175 2.60246 2.92212 0
M  V30 6846 H 687.798 1.13543 3.81043 0
M  V30 6847 N 688.795 -1.27931 0.920396 0
M  V30 6848 C 690.023 -1.98805 0.573087 0
M  V30 6849 C 690.438 -1.68724 -0.847201 0
M  V30 6850 O 689.795 -0.943699 -1.56207 0
M  V30 6851 C 689.846 -3.52971 0.780633 0
M  V30 6852 O 689.567 -3.81994 2.14504 0
M  V30 6853 C 691.068 -4.411 0.44105 0
M  V30 6854 H 688.288 -0.634651 0.21785 0
M  V30 6855 H 690.832 -1.62965 1.23542 0
M  V30 6856 H 688.987 -3.87048 0.165204 0
M  V30 6857 H 689.401 -4.76609 2.18962 0
M  V30 6858 H 690.875 -5.48312 0.637006 0
M  V30 6859 H 691.352 -4.34758 -0.62306 0
M  V30 6860 H 691.958 -4.12532 1.0343 0
M  V30 6861 N 690.273 -0.685099 -1.4193 0
M  V30 6862 C 691.519 -0.211971 -2.01689 0
M  V30 6863 C 691.852 1.18189 -1.54094 0
M  V30 6864 O 691.127 1.79559 -0.747572 0
M  V30 6865 C 691.41 -0.258019 -3.59174 0
M  V30 6866 C 691.263 -1.68807 -4.16922 0
M  V30 6867 C 692.582 0.388044 -4.38386 0
M  V30 6868 H 689.701 -0.0784987 -0.732808 0
M  V30 6869 H 692.343 -0.871837 -1.68816 0
M  V30 6870 H 690.493 0.303832 -3.8731 0
M  V30 6871 H 692.165 -2.30296 -3.99702 0
M  V30 6872 H 690.408 -2.22553 -3.72361 0
M  V30 6873 H 691.079 -1.6719 -5.26072 0
M  V30 6874 H 693.555 -0.0903432 -4.16002 0
M  V30 6875 H 692.431 0.325232 -5.47936 0
M  V30 6876 H 692.692 1.4672 -4.17044 0
M  V30 6877 N 691.751 1.51645 -0.429126 0
M  V30 6878 C 693 2.01203 0.141538 0
M  V30 6879 C 693.313 1.31828 1.44502 0
M  V30 6880 O 694.519 1.7231 2.09813 0
M  V30 6881 C 692.975 3.58624 0.302786 0
M  V30 6882 C 692.583 4.3693 -0.989775 0
M  V30 6883 C 694.327 4.16353 0.827661 0
M  V30 6884 C 692.234 5.86037 -0.794619 0
M  V30 6885 H 691.164 0.751867 0.05667 0
M  V30 6886 H 693.815 1.74822 -0.557633 0
M  V30 6887 H 692.197 3.81417 1.06476 0
M  V30 6888 H 693.371 4.25887 -1.75945 0
M  V30 6889 H 691.686 3.90614 -1.44256 0
M  V30 6890 H 694.283 5.25455 0.990026 0
M  V30 6891 H 694.626 3.74995 1.80787 0
M  V30 6892 H 695.159 3.97606 0.124213 0
M  V30 6893 H 691.898 6.31792 -1.74697 0
M  V30 6894 H 691.418 5.99765 -0.0645968 0
M  V30 6895 H 693.097 6.45471 -0.444591 0
M  V30 6896 N 693.229 0.160201 1.56784 0
M  V30 6897 C 694.454 -0.497373 2.01348 0
M  V30 6898 C 694.879 -1.56757 1.03966 0
M  V30 6899 O 694.237 -1.81292 0.0174455 0
M  V30 6900 C 694.285 -1.0628 3.44582 0
M  V30 6901 O 693.389 -2.17723 3.50244 0
M  V30 6902 H 692.73 -0.120295 0.653012 0
M  V30 6903 H 695.26 0.260821 2.02931 0
M  V30 6904 H 695.27 -1.38819 3.83658 0
M  V30 6905 H 693.945 -0.279166 4.14962 0
M  V30 6906 H 692.522 -1.86313 3.2302 0
M  V30 6907 N 694.707 -1.5719 -0.113559 0
M  V30 6908 C 696.123 -1.52607 -0.467253 0
M  V30 6909 C 696.323 -0.874058 -1.81556 0
M  V30 6910 O 695.379 -0.458703 -2.48299 0
M  V30 6911 C 696.692 -2.97363 -0.446736 0
M  V30 6912 C 698.24 -3.08482 -0.529903 0
M  V30 6913 C 698.715 -4.54809 -0.539721 0
M  V30 6914 N 700.206 -4.59284 -0.601005 0
M  V30 6915 C 700.941 -5.69927 -0.630138 0
M  V30 6916 N 700.437 -6.90051 -0.616589 0
M  V30 6917 N 702.23 -5.5805 -0.673558 0
M  V30 6918 H 694.381 -1.97958 0.769819 0
M  V30 6919 H 696.644 -0.90428 0.284572 0
M  V30 6920 H 696.35 -3.48458 0.47643 0
M  V30 6921 H 696.224 -3.55086 -1.27254 0
M  V30 6922 H 698.611 -2.57386 -1.44349 0
M  V30 6923 H 698.692 -2.53744 0.323695 0
M  V30 6924 H 698.336 -5.06552 0.369843 0
M  V30 6925 H 698.266 -5.07364 -1.41028 0
M  V30 6926 H 700.757 -3.72822 -0.617419 0
M  V30 6927 H 701.07 -7.70132 -0.641592 0
M  V30 6928 H 699.415 -6.92543 -0.583927 0
M  V30 6929 H 702.606 -4.63112 -0.681544 0
M  V30 6930 H 702.779 -6.44286 -0.692794 0
M  V30 6931 N 696.185 0.383891 -1.52853 0
M  V30 6932 C 697.462 1.14296 -1.58732 0
M  V30 6933 C 697.842 2.07585 -0.383611 0
M  V30 6934 O 697.19 2.1971 0.627661 0
M  V30 6935 C 697.4 1.89816 -2.92867 0
M  V30 6936 C 698.748 2.44998 -3.46787 0
M  V30 6937 O 699.772 1.99966 -2.94774 0
M  V30 6938 O 698.631 3.2727 -4.37672 0
M  V30 6939 H 695.725 0.52326 -0.640413 0
M  V30 6940 H 698.271 0.388631 -1.6519 0
M  V30 6941 H 697.043 1.21626 -3.71918 0
M  V30 6942 H 696.666 2.72199 -2.89816 0
M  V30 6943 N 697.663 1.43903 0.642637 0
M  V30 6944 C 698.912 1.45362 1.39831 0
M  V30 6945 C 699.225 0.0856289 1.95412 0
M  V30 6946 O 700.431 -0.0222856 2.71491 0
M  V30 6947 C 698.887 2.55857 2.53111 0
M  V30 6948 C 698.495 3.98811 2.04092 0
M  V30 6949 C 700.239 2.66524 3.30402 0
M  V30 6950 C 698.146 5.00751 3.14647 0
M  V30 6951 H 697.076 0.540777 0.52543 0
M  V30 6952 H 699.727 1.69929 0.692559 0
M  V30 6953 H 698.109 2.2451 3.26207 0
M  V30 6954 H 699.283 4.3967 1.37938 0
M  V30 6955 H 697.598 3.92284 1.39651 0
M  V30 6956 H 700.195 3.39858 4.12796 0
M  V30 6957 H 700.538 1.71949 3.79129 0
M  V30 6958 H 701.071 2.97224 2.64392 0
M  V30 6959 H 697.81 5.96914 2.70876 0
M  V30 6960 H 697.33 4.64495 3.79479 0
M  V30 6961 H 699.009 5.23933 3.79609 0
M  V30 6962 N 699.141 -0.881989 1.30609 0
M  V30 6963 C 700.073 -1.99375 1.13058 0
M  V30 6964 C 701.086 -1.62636 0.0729879 0
M  V30 6965 O 702.275 -1.75621 0.319301 0
M  V30 6966 C 699.375 -3.31536 0.702651 0
M  V30 6967 C 698.548 -3.96693 1.84265 0
M  V30 6968 C 697.607 -5.07158 1.40277 0
M  V30 6969 O 696.633 -5.28628 2.11048 0
M  V30 6970 N 697.835 -5.79808 0.283449 0
M  V30 6971 H 700.6 -2.14981 2.08814 0
M  V30 6972 H 698.161 -1.05526 1.22784 0
M  V30 6973 H 700.153 -4.02804 0.391331 0
M  V30 6974 H 698.723 -3.12175 -0.162954 0
M  V30 6975 H 697.943 -3.1856 2.32192 0
M  V30 6976 H 699.231 -4.36964 2.60653 0
M  V30 6977 H 698.629 -5.64871 -0.306189 0
M  V30 6978 H 697.186 -6.51792 0.0315985 0
M  V30 6979 N 700.619 -1.13374 -1.09472 0
M  V30 6980 C 701.582 -0.813639 -2.14272 0
M  V30 6981 C 702.582 0.176677 -1.59826 0
M  V30 6982 O 703.772 -0.0503441 -1.74127 0
M  V30 6983 C 700.904 -0.210897 -3.40247 0
M  V30 6984 H 702.097 -1.74229 -2.44099 0
M  V30 6985 H 699.65 -0.938304 -1.25002 0
M  V30 6986 H 700.385 0.726998 -3.16046 0
M  V30 6987 H 700.17 -0.924048 -3.81056 0
M  V30 6988 H 701.66 -0.00377603 -4.176 0
M  V30 6989 N 702.098 1.27442 -0.927168 0
M  V30 6990 C 703.509 1.76385 -0.611979 0
M  V30 6991 C 703.86 1.75715 0.872853 0
M  V30 6992 O 702.985 1.3603 1.683 0
M  V30 6993 C 703.58 3.20303 -1.10414 0
M  V30 6994 C 702.139 3.66916 -0.839628 0
M  V30 6995 C 701.286 2.46859 -1.26317 0
M  V30 6996 H 704.237 1.13716 -1.107 0
M  V30 6997 H 704.258 3.77811 -0.451578 0
M  V30 6998 H 703.77 3.20759 -2.18484 0
M  V30 6999 H 701.871 3.71906 0.227292 0
M  V30 7000 H 701.984 4.56415 -1.45679 0
M  V30 7001 H 700.348 2.45407 -0.681723 0
M  V30 7002 H 701.131 2.50025 -2.3525 0
M  V30 7003 N 703.576 0.692616 1.41565 0
M  V30 7004 C 704.853 0.150496 1.9502 0
M  V30 7005 C 705.233 -1.33881 1.63215 0
M  V30 7006 O 704.581 -2.08378 0.937598 0
M  V30 7007 C 704.791 0.438636 3.46233 0
M  V30 7008 C 706.139 0.364777 4.2303 0
M  V30 7009 O 707.163 0.373383 3.54238 0
M  V30 7010 O 706.022 0.32234 5.45549 0
M  V30 7011 H 703.116 0.0132454 0.826894 0
M  V30 7012 H 705.662 0.768574 1.51298 0
M  V30 7013 H 704.434 1.46962 3.62654 0
M  V30 7014 H 704.057 -0.210562 3.97042 0
M  V30 7015 N 705.054 -1.51416 0.437162 0
M  V30 7016 C 706.302 -2.01687 -0.129108 0
M  V30 7017 C 706.623 -1.32329 -1.43227 0
M  V30 7018 O 705.893 -0.457796 -1.90476 0
M  V30 7019 H 704.473 -0.745277 -0.0507023 0
M  V30 7020 H 707.135 -1.86075 0.579828 0
M  V30 7021 H 706.231 -3.10605 -0.305141 0
M  V30 7022 N 706.532 -0.168513 -1.56696 0
M  V30 7023 C 707.462 0.758563 -2.20835 0
M  V30 7024 C 708.443 1.24121 -1.1631 0
M  V30 7025 O 709.628 1.29487 -1.4473 0
M  V30 7026 C 706.758 1.9892 -2.8469 0
M  V30 7027 C 705.712 1.64252 -3.95228 0
M  V30 7028 C 705.038 2.94757 -4.46119 0
M  V30 7029 C 706.338 0.872675 -5.14958 0
M  V30 7030 H 708.032 0.223953 -2.98561 0
M  V30 7031 H 705.578 0.106277 -1.43607 0
M  V30 7032 H 707.531 2.64275 -3.28233 0
M  V30 7033 H 706.255 2.5479 -2.04327 0
M  V30 7034 H 704.914 1.01266 -3.52336 0
M  V30 7035 H 704.562 3.48662 -3.62552 0
M  V30 7036 H 704.262 2.72316 -5.2069 0
M  V30 7037 H 705.786 3.61147 -4.92347 0
M  V30 7038 H 707.2 1.42875 -5.55211 0
M  V30 7039 H 705.597 0.747402 -5.95428 0
M  V30 7040 H 706.667 -0.131535 -4.84722 0
M  V30 7041 N 708.01 1.57248 0.105221 0
M  V30 7042 C 708.973 2.00388 1.11252 0
M  V30 7043 C 709.973 0.89594 1.33527 0
M  V30 7044 O 711.163 1.16166 1.29811 0
M  V30 7045 C 708.295 2.35589 2.46395 0
M  V30 7046 H 709.488 2.90591 0.741424 0
M  V30 7047 H 707.041 1.52332 0.349956 0
M  V30 7048 H 707.776 1.4831 2.884 0
M  V30 7049 H 707.561 3.16408 2.31578 0
M  V30 7050 H 709.051 2.69658 3.18864 0
M  V30 7051 N 709.488 -0.375779 1.53054 0
M  V30 7052 C 710.734 -1.12114 1.68992 0
M  V30 7053 C 711.067 -1.8926 0.435238 0
M  V30 7054 O 710.342 -1.86044 -0.567278 0
M  V30 7055 C 710.625 -2.08867 2.93337 0
M  V30 7056 C 710.478 -1.35397 4.28938 0
M  V30 7057 C 711.797 -3.09124 3.13257 0
M  V30 7058 H 708.916 -0.406207 0.614951 0
M  V30 7059 H 711.558 -0.403054 1.85676 0
M  V30 7060 H 709.708 -2.70102 2.79244 0
M  V30 7061 H 711.38 -0.770242 4.54824 0
M  V30 7062 H 709.623 -0.655801 4.28814 0
M  V30 7063 H 710.294 -2.06161 5.12056 0
M  V30 7064 H 712.77 -2.57987 3.26469 0
M  V30 7065 H 711.646 -3.74054 4.01715 0
M  V30 7066 H 711.907 -3.78729 2.28072 0
M  V30 7067 N 710.966 -1.44241 -0.634997 0
M  V30 7068 C 712.243 -1.37296 -1.39317 0
M  V30 7069 C 712.623 -0.0297532 -2.11079 0
M  V30 7070 O 711.971 0.987524 -2.06059 0
M  V30 7071 C 712.181 -2.56853 -2.36279 0
M  V30 7072 C 713.529 -3.00747 -2.99728 0
M  V30 7073 O 714.553 -2.5703 -2.46605 0
M  V30 7074 O 713.412 -3.76533 -3.96087 0
M  V30 7075 H 710.506 -0.543503 -0.623325 0
M  V30 7076 H 713.052 -1.56324 -0.660376 0
M  V30 7077 H 711.824 -3.46228 -1.82324 0
M  V30 7078 H 711.447 -2.40019 -3.16981 0
M  V30 7079 N 712.444 0.87505 -1.31075 0
M  V30 7080 C 713.69 1.63006 -1.21657 0
M  V30 7081 C 714.045 1.91088 0.224306 0
M  V30 7082 O 713.338 1.52779 1.15625 0
M  V30 7083 C 713.532 2.96948 -1.98888 0
M  V30 7084 C 713.361 2.81944 -3.50339 0
M  V30 7085 C 712.131 2.814 -4.19693 0
M  V30 7086 C 714.329 2.57171 -4.45385 0
M  V30 7087 N 712.311 2.57392 -5.57335 0
M  V30 7088 C 713.682 2.42379 -5.7066 0
M  V30 7089 C 715.737 2.42474 -4.34868 0
M  V30 7090 C 714.44 2.14385 -6.86609 0
M  V30 7091 C 716.466 2.15868 -5.50595 0
M  V30 7092 C 715.828 2.0186 -6.74857 0
M  V30 7093 H 711.927 0.601043 -0.500271 0
M  V30 7094 H 714.511 1.03033 -1.65204 0
M  V30 7095 H 712.682 3.54936 -1.57718 0
M  V30 7096 H 714.414 3.61702 -1.81531 0
M  V30 7097 H 711.169 2.93596 -3.71616 0
M  V30 7098 H 711.593 2.48373 -6.29794 0
M  V30 7099 H 716.235 2.52035 -3.39468 0
M  V30 7100 H 713.953 2.03562 -7.82041 0
M  V30 7101 H 717.539 2.05304 -5.44372 0
M  V30 7102 H 716.419 1.81562 -7.62892 0
M  V30 7103 N 713.922 1.13953 1.08869 0
M  V30 7104 C 715.171 0.899431 1.80536 0
M  V30 7105 C 715.484 -0.575781 1.86933 0
M  V30 7106 O 716.69 -0.932988 2.54966 0
M  V30 7107 C 715.146 1.55963 3.24351 0
M  V30 7108 C 714.754 3.07077 3.26202 0
M  V30 7109 C 716.498 1.40046 4.00733 0
M  V30 7110 C 714.405 3.65955 4.64576 0
M  V30 7111 H 713.335 0.332849 0.676556 0
M  V30 7112 H 715.986 1.3679 1.22314 0
M  V30 7113 H 714.368 1.01883 3.82669 0
M  V30 7114 H 715.542 3.67785 2.77617 0
M  V30 7115 H 713.857 3.22576 2.63312 0
M  V30 7116 H 716.454 1.81441 5.02974 0
M  V30 7117 H 716.797 0.345993 4.1486 0
M  V30 7118 H 717.33 1.91137 3.48872 0
M  V30 7119 H 714.069 4.71234 4.55652 0
M  V30 7120 H 713.589 3.10027 5.13462 0
M  V30 7121 H 715.268 3.65968 5.33551 0
M  V30 7122 N 715.4 -1.26948 0.933913 0
M  V30 7123 C 716.35 -2.24306 0.408779 0
M  V30 7124 C 717.334 -1.53243 -0.490435 0
M  V30 7125 O 718.526 -1.73956 -0.326866 0
M  V30 7126 C 715.655 -3.41695 -0.331578 0
M  V30 7127 C 714.741 -4.20053 0.58451 0
M  V30 7128 N 715.132 -4.76122 1.70709 0
M  V30 7129 C 713.43 -4.44303 0.388703 0
M  V30 7130 C 714.131 -5.35267 2.27737 0
M  V30 7131 N 713.107 -5.20548 1.56622 0
M  V30 7132 H 716.909 -2.65244 1.26582 0
M  V30 7133 H 714.423 -1.4195 0.788919 0
M  V30 7134 H 716.42 -4.10552 -0.724774 0
M  V30 7135 H 715.08 -3.02286 -1.18547 0
M  V30 7136 H 716.091 -4.73884 2.08937 0
M  V30 7137 H 712.768 -4.15341 -0.424016 0
M  V30 7138 H 714.158 -5.89563 3.22282 0
M  V30 7139 N 716.879 -0.700114 -1.41195 0
M  V30 7140 C 718.104 -0.240704 -2.05998 0
M  V30 7141 C 718.529 1.10313 -1.52357 0
M  V30 7142 O 717.887 1.69154 -0.652424 0
M  V30 7143 C 717.935 -0.213783 -3.59966 0
M  V30 7144 O 717.039 0.809933 -4.04368 0
M  V30 7145 H 716.38 -0.116471 -0.653705 0
M  V30 7146 H 718.91 -0.956251 -1.80878 0
M  V30 7147 H 718.92 -0.0461852 -4.07974 0
M  V30 7148 H 717.595 -1.19454 -3.98376 0
M  V30 7149 H 716.172 0.611319 -3.67855 0
M  V30 7150 N 718.357 1.51182 -0.445186 0
M  V30 7151 C 719.305 2.29531 0.376597 0
M  V30 7152 C 720.299 1.35711 1.01385 0
M  V30 7153 O 721.505 1.53018 0.947922 0
M  V30 7154 H 717.88 0.738803 0.140267 0
M  V30 7155 H 719.851 2.96838 -0.304958 0
M  V30 7156 C 718.6 3.1552 1.4609 0
M  V30 7157 H 717.923 3.87605 0.979912 0
M  V30 7158 H 719.363 3.73384 2.009 0
M  V30 7159 C 717.822 2.31406 2.44852 0
M  V30 7160 O 718.352 1.97912 3.49562 0
M  V30 7161 N 716.558 1.94478 2.15932 0
M  V30 7162 H 716.105 2.21917 1.30808 0
M  V30 7163 H 716.063 1.38498 2.82251 0
M  V30 7164 N 719.835 0.176821 1.56605 0
M  V30 7165 C 721.084 -0.466833 1.96223 0
M  V30 7166 C 721.397 -1.64015 1.06576 0
M  V30 7167 O 722.603 -2.3504 1.35898 0
M  V30 7168 C 721.059 -0.881921 3.48927 0
M  V30 7169 C 720.667 0.266102 4.47209 0
M  V30 7170 C 722.411 -1.49368 3.97353 0
M  V30 7171 C 720.318 -0.168923 5.91159 0
M  V30 7172 H 719.248 -0.178178 0.732645 0
M  V30 7173 H 721.899 0.265929 1.81563 0
M  V30 7174 H 720.281 -1.67082 3.59026 0
M  V30 7175 H 721.455 1.04349 4.4883 0
M  V30 7176 H 719.77 0.788178 4.08872 0
M  V30 7177 H 722.367 -1.8313 5.02362 0
M  V30 7178 H 722.71 -2.3936 3.40606 0
M  V30 7179 H 723.243 -0.769114 3.90294 0
M  V30 7180 H 719.982 0.696351 6.51791 0
M  V30 7181 H 719.502 -0.911552 5.92833 0
M  V30 7182 H 721.181 -0.610938 6.44109 0
M  V30 7183 N 721.313 -1.57302 -0.09688 0
M  V30 7184 C 722.543 -1.89926 -0.813114 0
M  V30 7185 C 722.951 -0.76852 -1.72888 0
M  V30 7186 O 722.294 0.268549 -1.81726 0
M  V30 7187 C 722.356 -3.17787 -1.68082 0
M  V30 7188 C 722.02 -4.4729 -0.937061 0
M  V30 7189 C 723.017 -5.1921 -0.267687 0
M  V30 7190 C 720.702 -4.93957 -0.911671 0
M  V30 7191 C 722.696 -6.36034 0.417129 0
M  V30 7192 C 720.383 -6.10693 -0.223068 0
M  V30 7193 C 721.381 -6.8158 0.440155 0
M  V30 7194 O 721.069 -7.96092 1.11772 0
M  V30 7195 H 720.801 -0.632783 -0.237828 0
M  V30 7196 H 723.355 -2.05248 -0.0790818 0
M  V30 7197 H 721.585 -2.98607 -2.45705 0
M  V30 7198 H 723.274 -3.36257 -2.27346 0
M  V30 7199 H 724.04 -4.84198 -0.278774 0
M  V30 7200 H 719.919 -4.38671 -1.41734 0
M  V30 7201 H 723.463 -6.91301 0.93537 0
M  V30 7202 H 719.36 -6.45159 -0.209821 0
M  V30 7203 H 720.128 -8.12064 1.02443 0
M  V30 7204 N 722.791 0.367657 -1.53252 0
M  V30 7205 C 724.037 1.10864 -1.70531 0
M  V30 7206 C 724.392 1.87051 -0.4505 0
M  V30 7207 O 723.685 1.83342 0.556431 0
M  V30 7208 C 723.879 2.09825 -2.89324 0
M  V30 7209 C 723.708 1.43361 -4.26237 0
M  V30 7210 C 722.478 1.18861 -4.91121 0
M  V30 7211 C 724.676 0.872409 -5.06847 0
M  V30 7212 N 722.658 0.487258 -6.11963 0
M  V30 7213 C 724.029 0.300301 -6.19272 0
M  V30 7214 C 726.084 0.770895 -4.91896 0
M  V30 7215 C 724.787 -0.363419 -7.18381 0
M  V30 7216 C 726.813 0.12096 -5.91276 0
M  V30 7217 C 726.175 -0.440283 -7.03023 0
M  V30 7218 H 722.274 0.390902 -0.677288 0
M  V30 7219 H 724.858 0.395305 -1.90645 0
M  V30 7220 H 723.029 2.78473 -2.70753 0
M  V30 7221 H 724.761 2.76585 -2.95436 0
M  V30 7222 H 721.516 1.46934 -4.5023 0
M  V30 7223 H 721.94 0.152005 -6.76829 0
M  V30 7224 H 726.582 1.19058 -4.05691 0
M  V30 7225 H 724.3 -0.795057 -8.04179 0
M  V30 7226 H 727.886 0.0433702 -5.81784 0
M  V30 7227 H 726.766 -0.935244 -7.78603 0
M  V30 7228 N 724.269 1.44576 0.627338 0
M  V30 7229 C 725.497 1.51048 1.41394 0
M  V30 7230 C 725.912 0.136568 1.88305 0
M  V30 7231 O 725.269 -0.858251 1.6106 0
M  V30 7232 C 725.32 2.47837 2.63172 0
M  V30 7233 O 725.041 3.79887 2.18215 0
M  V30 7234 C 726.542 2.63811 3.56257 0
M  V30 7235 H 723.762 0.512171 0.4335 0
M  V30 7236 H 726.306 1.89576 0.766878 0
M  V30 7237 H 724.461 2.12433 3.23961 0
M  V30 7238 H 724.875 4.32177 2.97192 0
M  V30 7239 H 726.349 3.35554 4.38301 0
M  V30 7240 H 726.826 1.69169 4.05313 0
M  V30 7241 H 727.432 3.0013 3.01333 0
M  V30 7242 N 725.747 -0.868086 1.31537 0
M  V30 7243 C 727.024 -1.60384 1.11965 0
M  V30 7244 C 727.404 -2.08584 -0.324949 0
M  V30 7245 O 726.752 -1.86561 -1.31937 0
M  V30 7246 C 726.962 -2.76038 2.13551 0
M  V30 7247 C 728.31 -3.45954 2.46173 0
M  V30 7248 O 729.334 -2.86247 2.11993 0
M  V30 7249 O 728.193 -4.53666 3.04711 0
M  V30 7250 H 725.287 -0.705705 0.431172 0
M  V30 7251 H 727.833 -0.913385 1.43022 0
M  V30 7252 H 726.605 -2.37849 3.10714 0
M  V30 7253 H 726.228 -3.52769 1.83411 0
M  V30 7254 N 727.225 -1.14528 -1.08264 0
M  V30 7255 C 728.45 -0.938381 -1.84957 0
M  V30 7256 C 728.875 0.508044 -1.81109 0
M  V30 7257 O 728.233 1.36146 -1.19724 0
M  V30 7258 C 728.281 -1.44568 -3.30352 0
M  V30 7259 O 727.385 -0.638745 -4.07423 0
M  V30 7260 H 726.726 -0.335394 -0.573068 0
M  V30 7261 H 729.256 -1.52287 -1.36637 0
M  V30 7262 H 729.266 -1.45449 -3.81194 0
M  V30 7263 H 727.941 -2.49876 -3.32468 0
M  V30 7264 H 726.518 -0.698801 -3.66294 0
M  V30 7265 N 728.703 1.26451 -0.940633 0
M  V30 7266 C 729.949 1.94065 -0.58878 0
M  V30 7267 C 730.282 1.7363 0.869853 0
M  V30 7268 O 729.557 1.073 1.62225 0
M  V30 7269 C 729.84 3.47852 -0.931199 0
M  V30 7270 C 729.693 3.77575 -2.44453 0
M  V30 7271 C 731.012 4.37832 -0.446229 0
M  V30 7272 H 728.131 0.704827 -0.21538 0
M  V30 7273 H 730.773 1.4933 -1.17475 0
M  V30 7274 H 728.923 3.86085 -0.432539 0
M  V30 7275 H 730.595 3.49059 -3.01588 0
M  V30 7276 H 728.838 3.23671 -2.88825 0
M  V30 7277 H 729.509 4.85068 -2.63464 0
M  V30 7278 H 731.985 4.06822 -0.873778 0
M  V30 7279 H 730.861 5.44228 -0.714648 0
M  V30 7280 H 731.122 4.37239 0.653815 0
M  V30 7281 N 730.181 0.707592 1.40822 0
M  V30 7282 C 731.111 0.0644925 2.33411 0
M  V30 7283 C 732.092 -0.754205 1.52466 0
M  V30 7284 O 733.277 -0.704749 1.80961 0
M  V30 7285 C 730.407 -0.863865 3.36385 0
M  V30 7286 C 729.361 -0.15138 4.27732 0
M  V30 7287 C 728.687 -1.19491 5.21177 0
M  V30 7288 C 729.987 0.989607 5.12839 0
M  V30 7289 H 731.681 0.837829 2.87438 0
M  V30 7290 H 729.227 0.404346 1.38207 0
M  V30 7291 H 731.18 -1.32309 4.0009 0
M  V30 7292 H 729.904 -1.66901 2.80734 0
M  V30 7293 H 728.563 0.287937 3.65467 0
M  V30 7294 H 728.211 -1.9929 4.61836 0
M  V30 7295 H 727.911 -0.723123 5.83134 0
M  V30 7296 H 729.435 -1.6544 5.8776 0
M  V30 7297 H 730.849 0.610114 5.70044 0
M  V30 7298 H 729.246 1.38926 5.83798 0
M  V30 7299 H 730.316 1.82389 4.49291 0
M  V30 7300 N 731.66 -1.50943 0.453197 0
M  V30 7301 C 732.908 -2.01813 -0.107709 0
M  V30 7302 C 733.229 -1.33841 -1.41816 0
M  V30 7303 O 732.499 -0.477973 -1.8998 0
M  V30 7304 H 731.079 -0.745773 -0.0427948 0
M  V30 7305 H 733.741 -1.8545 0.599531 0
M  V30 7306 H 732.837 -3.10911 -0.27218 0
M  V30 7307 N 733.138 -0.185124 -1.56509 0
M  V30 7308 C 734.366 0.462139 -2.01673 0
M  V30 7309 C 734.781 1.55873 -1.06532 0
M  V30 7310 O 734.138 1.82371 -0.0684805 0
M  V30 7311 C 734.189 1.0277 -3.46584 0
M  V30 7312 O 733.91 -0.0251296 -4.38093 0
M  V30 7313 C 735.411 1.75183 -4.07217 0
M  V30 7314 H 732.631 0.117001 -0.660721 0
M  V30 7315 H 735.175 -0.290905 -2.0242 0
M  V30 7316 H 733.33 1.73118 -3.46568 0
M  V30 7317 H 733.744 0.394387 -5.23015 0
M  V30 7318 H 735.218 2.09999 -5.10494 0
M  V30 7319 H 735.695 2.6519 -3.50101 0
M  V30 7320 H 736.301 1.09445 -4.10977 0
M  V30 7321 N 734.616 1.57351 0.0885366 0
M  V30 7322 C 735.862 1.86696 0.791996 0
M  V30 7323 C 736.195 0.775148 1.78059 0
M  V30 7324 O 735.47 -0.216247 1.93294 0
M  V30 7325 C 735.753 3.26684 1.51491 0
M  V30 7326 C 735.606 4.465 0.543858 0
M  V30 7327 C 736.925 3.64664 2.46391 0
M  V30 7328 H 734.044 0.679049 0.286463 0
M  V30 7329 H 736.686 1.89919 0.0554866 0
M  V30 7330 H 734.836 3.24067 2.14273 0
M  V30 7331 H 736.508 4.61235 -0.0774597 0
M  V30 7332 H 734.751 4.33567 -0.142228 0
M  V30 7333 H 735.422 5.41192 1.08696 0
M  V30 7334 H 737.898 3.68267 1.93698 0
M  V30 7335 H 736.774 4.63534 2.93986 0
M  V30 7336 H 737.035 2.93698 3.30445 0
M  V30 7337 N 736.094 -0.359525 1.53444 0
M  V30 7338 C 737.319 -1.12644 1.74144 0
M  V30 7339 C 737.744 -1.82082 0.472007 0
M  V30 7340 O 737.102 -1.71962 -0.57436 0
M  V30 7341 C 737.15 -2.12781 2.9113 0
M  V30 7342 O 736.254 -3.19984 2.60162 0
M  V30 7343 H 735.595 -0.326553 0.578152 0
M  V30 7344 H 738.125 -0.414798 2.00351 0
M  V30 7345 H 738.135 -2.56278 3.17467 0
M  V30 7346 H 736.81 -1.61634 3.83207 0
M  V30 7347 H 735.387 -2.81417 2.44661 0
M  V30 7348 N 737.572 -1.44907 -0.619662 0
M  V30 7349 C 738.818 -1.48512 -1.38102 0
M  V30 7350 C 739.151 -0.121686 -1.93818 0
M  V30 7351 O 738.426 0.862256 -1.74343 0
M  V30 7352 C 738.709 -2.55469 -2.53787 0
M  V30 7353 C 738.562 -4.01212 -2.03345 0
M  V30 7354 C 739.881 -2.58821 -3.55949 0
M  V30 7355 H 737 -0.540712 -0.500799 0
M  V30 7356 H 739.642 -1.7665 -0.69962 0
M  V30 7357 H 737.792 -2.31606 -3.11915 0
M  V30 7358 H 739.464 -4.36245 -1.49959 0
M  V30 7359 H 737.707 -4.12443 -1.34438 0
M  V30 7360 H 738.378 -4.71717 -2.86683 0
M  V30 7361 H 740.854 -2.80172 -3.07641 0
M  V30 7362 H 739.73 -3.35542 -4.34399 0
M  V30 7363 H 739.991 -1.63451 -4.10775 0
M  V30 7364 N 739.05 0.861098 -1.31996 0
M  V30 7365 C 740.013 1.95068 -1.20338 0
M  V30 7366 C 741.013 1.60289 -0.128114 0
M  V30 7367 O 742.203 1.70048 -0.378044 0
M  V30 7368 C 739.335 3.30153 -0.849205 0
M  V30 7369 H 740.528 2.06833 -2.17164 0
M  V30 7370 H 738.081 1.05049 -1.15734 0
M  V30 7371 H 738.816 3.24087 0.117508 0
M  V30 7372 H 738.601 3.56771 -1.62655 0
M  V30 7373 H 740.091 4.10025 -0.791782 0
M  V30 7374 N 740.528 1.15101 1.07655 0
M  V30 7375 C 741.805 0.834578 1.76902 0
M  V30 7376 C 742.185 -0.670431 2.00171 0
M  V30 7377 O 741.533 -1.61378 1.6177 0
M  V30 7378 C 741.743 1.64191 3.07965 0
M  V30 7379 C 743.091 1.84615 3.82364 0
M  V30 7380 O 744.115 1.60941 3.17768 0
M  V30 7381 O 742.974 2.24244 4.98374 0
M  V30 7382 H 740.068 0.306608 0.768063 0
M  V30 7383 H 742.614 1.25663 1.14048 0
M  V30 7384 H 741.386 2.66386 2.86626 0
M  V30 7385 H 741.009 1.216 3.78549 0
M  V30 7386 N 742.006 -1.2595 0.947325 0
M  V30 7387 C 743.234 -1.97544 0.615127 0
M  V30 7388 C 743.649 -1.70484 -0.811221 0
M  V30 7389 O 743.006 -0.97662 -1.5417 0
M  V30 7390 C 743.057 -3.51236 0.855328 0
M  V30 7391 O 742.778 -3.77359 2.22558 0
M  V30 7392 C 744.279 -4.40066 0.534515 0
M  V30 7393 H 741.499 -0.629888 0.231263 0
M  V30 7394 H 744.043 -1.60308 1.26971 0
M  V30 7395 H 742.198 -3.8661 0.247266 0
M  V30 7396 H 742.612 -4.71857 2.29022 0
M  V30 7397 H 744.086 -5.46838 0.753168 0
M  V30 7398 H 744.563 -4.35982 -0.530701 0
M  V30 7399 H 745.169 -4.10245 1.12158 0
M  V30 7400 N 743.484 -0.715051 -1.40445 0
M  V30 7401 C 744.431 -0.0621393 -2.30716 0
M  V30 7402 C 745.401 0.750871 -1.48159 0
M  V30 7403 O 746.586 0.714928 -1.76899 0
M  V30 7404 C 743.726 0.854036 -3.34365 0
M  V30 7405 C 742.839 0.0305565 -4.31989 0
M  V30 7406 C 741.974 0.946162 -5.22706 0
M  V30 7407 C 741.013 0.116741 -6.11989 0
M  V30 7408 N 740.15 0.987194 -6.95125 0
M  V30 7409 H 744.99 -0.83764 -2.85985 0
M  V30 7410 H 742.527 -0.424759 -1.40834 0
M  V30 7411 H 744.485 1.39946 -3.93028 0
M  V30 7412 H 743.115 1.59572 -2.806 0
M  V30 7413 H 742.167 -0.632044 -3.75112 0
M  V30 7414 H 743.479 -0.611615 -4.95036 0
M  V30 7415 H 742.633 1.56014 -5.86297 0
M  V30 7416 H 741.372 1.62216 -4.59932 0
M  V30 7417 H 740.377 -0.510176 -5.47428 0
M  V30 7418 H 741.602 -0.555742 -6.76822 0
M  V30 7419 H 739.548 1.64885 -6.3494 0
M  V30 7420 H 739.465 0.401046 -7.54936 0
M  V30 7421 H 740.733 1.58737 -7.63166 0
M  V30 7422 N 744.962 1.50701 -0.461195 0
M  V30 7423 C 746.21 2.01867 0.0970051 0
M  V30 7424 C 746.531 1.34591 1.41104 0
M  V30 7425 O 745.801 0.488041 1.89723 0
M  V30 7426 H 744.381 0.74599 0.0388392 0
M  V30 7427 H 747.043 1.85129 -0.609357 0
M  V30 7428 H 746.139 3.11051 0.255688 0
M  V30 7429 N 746.441 0.193421 1.56409 0
M  V30 7430 C 747.687 -0.446449 1.97825 0
M  V30 7431 C 748.02 -1.61386 1.08019 0
M  V30 7432 O 747.295 -1.94053 0.131839 0
M  V30 7433 C 747.578 -0.908199 3.48459 0
M  V30 7434 C 747.431 0.260914 4.49043 0
M  V30 7435 C 748.75 -1.77428 4.0275 0
M  V30 7436 H 745.869 -0.160807 0.719243 0
M  V30 7437 H 748.511 0.284006 1.87865 0
M  V30 7438 H 746.661 -1.53062 3.57077 0
M  V30 7439 H 748.333 0.898548 4.52464 0
M  V30 7440 H 746.576 0.912949 4.24085 0
M  V30 7441 H 747.247 -0.104657 5.51901 0
M  V30 7442 H 749.723 -1.24936 3.96901 0
M  V30 7443 H 748.599 -2.06633 5.08521 0
M  V30 7444 H 748.86 -2.72788 3.47907 0
M  V30 7445 N 747.919 -1.57396 -0.0801906 0
M  V30 7446 C 748.866 -2.03107 -1.09618 0
M  V30 7447 C 749.836 -0.910118 -1.38946 0
M  V30 7448 O 751.021 -1.17719 -1.50156 0
M  V30 7449 C 748.161 -2.47293 -2.40708 0
M  V30 7450 C 747.274 -3.72972 -2.17982 0
M  V30 7451 C 746.409 -4.05975 -3.42576 0
M  V30 7452 C 745.448 -5.24719 -3.15177 0
M  V30 7453 N 744.585 -5.53401 -4.32078 0
M  V30 7454 H 749.425 -2.89677 -0.69939 0
M  V30 7455 H 746.962 -1.43263 -0.333785 0
M  V30 7456 H 748.92 -2.7096 -3.17232 0
M  V30 7457 H 747.55 -1.63713 -2.78205 0
M  V30 7458 H 746.602 -3.56693 -1.32189 0
M  V30 7459 H 747.914 -4.59638 -1.93738 0
M  V30 7460 H 747.068 -4.30498 -4.275 0
M  V30 7461 H 745.807 -3.17859 -3.69887 0
M  V30 7462 H 744.812 -5 -2.28648 0
M  V30 7463 H 746.037 -6.14445 -2.89197 0
M  V30 7464 H 743.983 -4.68245 -4.59437 0
M  V30 7465 H 743.9 -6.34469 -4.11078 0
M  V30 7466 H 745.168 -5.8247 -5.18024 0
M  V30 7467 N 749.397 0.351382 -1.53633 0
M  V30 7468 C 750.813 0.693987 -1.43722 0
M  V30 7469 C 751.013 1.9274 -0.587669 0
M  V30 7470 O 750.069 2.52387 -0.0756082 0
M  V30 7471 C 751.382 0.893937 -2.87105 0
M  V30 7472 C 752.93 0.993051 -2.96829 0
M  V30 7473 C 753.405 1.22537 -4.41303 0
M  V30 7474 N 754.896 1.29275 -4.44795 0
M  V30 7475 C 755.631 1.48988 -5.53706 0
M  V30 7476 N 755.127 1.65924 -6.72637 0
M  V30 7477 N 756.92 1.51472 -5.41306 0
M  V30 7478 H 749.071 -0.459688 -2.07366 0
M  V30 7479 H 751.334 -0.143684 -0.937048 0
M  V30 7480 H 751.04 0.0592517 -3.5165 0
M  V30 7481 H 750.914 1.79795 -3.31592 0
M  V30 7482 H 753.301 1.81827 -2.32429 0
M  V30 7483 H 753.382 0.0661119 -2.55715 0
M  V30 7484 H 753.026 0.405117 -5.06282 0
M  V30 7485 H 752.956 2.16575 -4.80003 0
M  V30 7486 H 755.447 1.17743 -3.59089 0
M  V30 7487 H 755.76 1.80578 -7.51406 0
M  V30 7488 H 754.105 1.63075 -6.75597 0
M  V30 7489 H 757.296 1.37818 -4.47352 0
M  V30 7490 H 757.469 1.66493 -6.26246 0
M  V30 7491 N 750.875 1.45233 0.611969 0
M  V30 7492 C 751.822 1.5357 1.72293 0
M  V30 7493 C 752.792 0.381912 1.6165 0
M  V30 7494 O 753.977 0.594765 1.81293 0
M  V30 7495 C 751.117 1.50419 3.10593 0
M  V30 7496 C 750.23 2.76316 3.32074 0
M  V30 7497 C 749.365 2.64866 4.60456 0
M  V30 7498 C 748.404 3.85838 4.7518 0
M  V30 7499 N 747.541 3.72949 5.94856 0
M  V30 7500 H 752.381 2.4848 1.64504 0
M  V30 7501 H 749.918 1.23302 0.802191 0
M  V30 7502 H 751.876 1.4658 3.90602 0
M  V30 7503 H 750.506 0.590621 3.17351 0
M  V30 7504 H 749.558 2.90261 2.45872 0
M  V30 7505 H 750.87 3.66055 3.38829 0
M  V30 7506 H 750.024 2.58969 5.48653 0
M  V30 7507 H 748.763 1.72719 4.56092 0
M  V30 7508 H 747.768 3.92099 3.85407 0
M  V30 7509 H 748.993 4.79045 4.81344 0
M  V30 7510 H 746.939 2.83567 5.91545 0
M  V30 7511 H 746.856 4.56319 6.02751 0
M  V30 7512 H 748.124 3.70976 6.85563 0
M  V30 7513 N 752.353 -0.854086 1.3245 0
M  V30 7514 C 753.581 -1.64074 1.26045 0
M  V30 7515 C 753.996 -1.8802 -0.171456 0
M  V30 7516 O 753.353 -1.4496 -1.10873 0
M  V30 7517 C 753.404 -2.9997 2.01743 0
M  V30 7518 O 753.125 -2.77084 3.39346 0
M  V30 7519 C 754.626 -3.94414 2.02368 0
M  V30 7520 H 751.846 -0.511015 0.434862 0
M  V30 7521 H 754.39 -1.06494 1.74583 0
M  V30 7522 H 752.545 -3.54193 1.56926 0
M  V30 7523 H 752.959 -3.63514 3.78098 0
M  V30 7524 H 754.433 -4.87032 2.59815 0
M  V30 7525 H 754.91 -4.27427 1.01009 0
M  V30 7526 H 755.516 -3.46127 2.47135 0
M  V30 7527 N 753.831 -1.1567 -1.07043 0
M  V30 7528 C 754.761 -0.879348 -2.16309 0
M  V30 7529 C 755.742 0.171311 -1.69235 0
M  V30 7530 O 756.927 0.0250175 -1.94184 0
M  V30 7531 C 754.057 -0.371307 -3.45309 0
M  V30 7532 C 753.011 -1.359 -4.05851 0
M  V30 7533 C 752.337 -0.709678 -5.29969 0
M  V30 7534 C 753.637 -2.72606 -4.45514 0
M  V30 7535 H 755.331 -1.79308 -2.39768 0
M  V30 7536 H 752.877 -0.863558 -1.15233 0
M  V30 7537 H 754.83 -0.164798 -4.21078 0
M  V30 7538 H 753.554 0.577906 -3.21446 0
M  V30 7539 H 752.213 -1.55193 -3.32131 0
M  V30 7540 H 751.861 0.245782 -5.02399 0
M  V30 7541 H 751.561 -1.36886 -5.71433 0
M  V30 7542 H 753.085 -0.513015 -6.08441 0
M  V30 7543 H 754.499 -2.57141 -5.12398 0
M  V30 7544 H 752.896 -3.34927 -4.97939 0
M  V30 7545 H 753.966 -3.28434 -3.56734 0
M  V30 7546 N 755.309 1.25446 -0.953992 0
M  V30 7547 C 756.556 1.93143 -0.608429 0
M  V30 7548 C 756.884 1.74727 0.854451 0
M  V30 7549 O 756.139 1.0855 1.62836 0
M  V30 7550 C 756.438 3.45555 -0.912496 0
M  V30 7551 C 756.104 3.84126 -2.36131 0
M  V30 7552 C 754.766 3.94367 -2.75732 0
M  V30 7553 C 757.118 4.0324 -3.30223 0
M  V30 7554 C 754.446 4.21127 -4.08496 0
M  V30 7555 C 756.798 4.31493 -4.62598 0
M  V30 7556 C 755.462 4.3995 -5.01996 0
M  V30 7557 H 754.732 0.706762 -0.22264 0
M  V30 7558 H 757.379 1.49005 -1.20291 0
M  V30 7559 H 755.684 3.91091 -0.235618 0
M  V30 7560 H 757.381 3.9612 -0.623714 0
M  V30 7561 H 753.971 3.76711 -2.04418 0
M  V30 7562 H 758.155 3.94744 -3.00817 0
M  V30 7563 H 753.411 4.2589 -4.38665 0
M  V30 7564 H 757.585 4.45227 -5.35486 0
M  V30 7565 H 755.212 4.60439 -6.04896 0
M  V30 7566 N 756.787 0.722489 1.40064 0
M  V30 7567 C 758.203 0.396758 1.5459 0
M  V30 7568 C 758.403 -1.09375 1.69232 0
M  V30 7569 O 757.459 -1.87984 1.68578 0
M  V30 7570 C 758.772 1.16885 2.77053 0
M  V30 7571 C 760.32 1.15583 2.90877 0
M  V30 7572 C 760.795 1.91023 4.16262 0
M  V30 7573 N 762.286 1.88126 4.23276 0
M  V30 7574 C 763.021 2.43315 5.19216 0
M  V30 7575 N 762.517 3.07089 6.21022 0
M  V30 7576 N 764.31 2.33418 5.11344 0
M  V30 7577 H 756.461 1.68887 1.28806 0
M  V30 7578 H 758.724 0.714231 0.62336 0
M  V30 7579 H 758.43 2.22301 2.72534 0
M  V30 7580 H 758.304 0.765011 3.69361 0
M  V30 7581 H 760.691 0.10984 2.94896 0
M  V30 7582 H 760.772 1.59895 1.99668 0
M  V30 7583 H 760.416 2.95616 4.13006 0
M  V30 7584 H 760.346 1.44126 5.06493 0
M  V30 7585 H 762.837 1.41654 3.50346 0
M  V30 7586 H 763.15 3.467 6.90666 0
M  V30 7587 H 761.495 3.11175 6.21446 0
M  V30 7588 H 764.686 1.83248 4.30741 0
M  V30 7589 H 764.859 2.7673 5.85939 0
M  V30 7590 N 758.265 -1.50454 0.469181 0
M  V30 7591 C 759.175 -2.32248 -0.331349 0
M  V30 7592 C 760.191 -1.42548 -0.997807 0
M  V30 7593 O 761.367 -1.75602 -0.9862 0
M  V30 7594 C 758.432 -3.17171 -1.40012 0
M  V30 7595 C 757.493 -4.2269 -0.750463 0
M  V30 7596 C 756.726 -5.03554 -1.76831 0
M  V30 7597 O 756.949 -4.85469 -2.99459 0
M  V30 7598 O 755.883 -5.86767 -1.3412 0
M  V30 7599 H 759.709 -3.01821 0.337279 0
M  V30 7600 H 757.294 -1.47602 0.231066 0
M  V30 7601 H 759.176 -3.69871 -2.01924 0
M  V30 7602 H 757.851 -2.50328 -2.05226 0
M  V30 7603 H 756.758 -3.73986 -0.0924446 0
M  V30 7604 H 758.091 -4.91997 -0.14131 0
M  V30 7605 N 759.743 -0.201713 -1.56304 0
M  V30 7606 C 760.691 0.733133 -2.20744 0
M  V30 7607 C 761.685 1.2148 -1.18064 0
M  V30 7608 O 762.891 1.17692 -1.36193 0
M  V30 7609 H 759.266 0.254789 -0.707521 0
M  V30 7610 H 761.237 0.165996 -2.97938 0
M  V30 7611 C 759.986 1.93925 -2.88597 0
M  V30 7612 H 759.309 1.5777 -3.67353 0
M  V30 7613 H 760.749 2.57158 -3.37114 0
M  V30 7614 C 759.208 2.78219 -1.89989 0
M  V30 7615 O 759.738 3.76353 -1.40432 0
M  V30 7616 N 757.944 2.43847 -1.58072 0
M  V30 7617 H 757.491 1.64103 -1.98565 0
M  V30 7618 H 757.449 3.0053 -0.923524 0
M  V30 7619 N 761.222 1.57436 0.0718424 0
M  V30 7620 C 762.47 1.86878 0.769484 0
M  V30 7621 C 762.791 0.7937 1.78116 0
M  V30 7622 O 762.061 -0.177642 1.95093 0
M  V30 7623 H 760.641 0.689593 0.287177 0
M  V30 7624 H 763.303 1.94841 0.0479427 0
M  V30 7625 H 762.399 2.84387 1.28572 0
M  V30 7626 N 762.7 -0.34323 1.53817 0
M  V30 7627 C 763.925 -1.1079 1.75329 0
M  V30 7628 C 764.35 -1.81571 0.491293 0
M  V30 7629 O 763.708 -1.72561 -0.556089 0
M  V30 7630 C 763.756 -2.09681 2.9337 0
M  V30 7631 O 762.86 -3.17207 2.63541 0
M  V30 7632 H 762.201 -0.320402 0.581583 0
M  V30 7633 H 764.731 -0.393525 2.0078 0
M  V30 7634 H 764.741 -2.52897 3.20168 0
M  V30 7635 H 763.416 -1.5756 3.84899 0
M  V30 7636 H 761.993 -2.78806 2.47632 0
M  V30 7637 N 764.178 -1.45556 -0.604258 0
M  V30 7638 C 765.125 -1.54482 -1.71476 0
M  V30 7639 C 766.095 -0.390479 -1.61445 0
M  V30 7640 O 767.28 -0.604371 -1.80975 0
M  V30 7641 C 764.42 -1.52064 -3.09791 0
M  V30 7642 C 763.533 -2.78073 -3.30604 0
M  V30 7643 C 762.668 -2.67304 -4.59044 0
M  V30 7644 C 761.707 -3.88352 -4.73127 0
M  V30 7645 N 760.844 -3.76098 -5.9287 0
M  V30 7646 H 765.684 -2.49349 -1.63184 0
M  V30 7647 H 763.221 -1.23725 -0.795641 0
M  V30 7648 H 765.179 -1.48649 -3.89819 0
M  V30 7649 H 763.809 -0.607442 -3.17033 0
M  V30 7650 H 762.861 -2.91561 -2.44329 0
M  V30 7651 H 764.173 -3.67847 -3.36883 0
M  V30 7652 H 763.327 -2.61875 -5.47272 0
M  V30 7653 H 762.066 -1.75135 -4.55169 0
M  V30 7654 H 761.071 -3.94137 -3.83322 0
M  V30 7655 H 762.296 -4.81591 -4.78797 0
M  V30 7656 H 760.242 -2.867 -5.90033 0
M  V30 7657 H 760.159 -4.59509 -6.00323 0
M  V30 7658 H 761.427 -3.74607 -6.83586 0
M  V30 7659 N 765.656 0.84705 -1.32902 0
M  V30 7660 C 767.067 1.41785 -1.21466 0
M  V30 7661 C 767.418 1.95464 0.169767 0
M  V30 7662 O 766.543 1.88157 1.06892 0
M  V30 7663 C 767.138 2.57734 -2.19906 0
M  V30 7664 C 765.697 3.10791 -2.12334 0
M  V30 7665 C 764.844 1.83562 -2.07847 0
M  V30 7666 H 767.795 0.653532 -1.44619 0
M  V30 7667 H 767.816 3.35123 -1.80202 0
M  V30 7668 H 767.328 2.18635 -3.20656 0
M  V30 7669 H 765.429 3.54455 -1.14858 0
M  V30 7670 H 765.542 3.71519 -3.02506 0
M  V30 7671 H 763.906 2.03475 -1.53199 0
M  V30 7672 H 764.689 1.4667 -3.10392 0
M  V30 7673 N 767.134 1.16236 1.06428 0
M  V30 7674 C 768.55 0.906983 1.31324 0
M  V30 7675 C 768.75 -0.440872 1.96618 0
M  V30 7676 O 767.806 -1.1807 2.23194 0
M  V30 7677 C 769.119 2.05501 2.19522 0
M  V30 7678 C 770.667 2.09061 2.32943 0
M  V30 7679 C 771.142 3.23214 3.24495 0
M  V30 7680 N 772.633 3.22922 3.32078 0
M  V30 7681 C 773.368 4.07889 4.03006 0
M  V30 7682 N 772.864 5.02941 4.76469 0
M  V30 7683 N 774.657 3.95881 3.99043 0
M  V30 7684 H 766.808 2.03015 0.624388 0
M  V30 7685 H 769.071 0.88576 0.337835 0
M  V30 7686 H 768.777 3.02847 1.78819 0
M  V30 7687 H 768.651 1.99538 3.201 0
M  V30 7688 H 771.038 1.12308 2.72893 0
M  V30 7689 H 771.119 2.19089 1.32037 0
M  V30 7690 H 770.763 4.20225 2.85261 0
M  V30 7691 H 770.693 3.10423 4.25377 0
M  V30 7692 H 773.184 2.54093 2.79724 0
M  V30 7693 H 773.497 5.64196 5.28112 0
M  V30 7694 H 771.842 5.06922 4.75453 0
M  V30 7695 H 775.033 3.20927 3.40769 0
M  V30 7696 H 775.206 4.62321 4.54052 0
M  V30 7697 N 768.612 -1.24939 0.960631 0
M  V30 7698 C 769.575 -2.239 0.49006 0
M  V30 7699 C 770.575 -1.55497 -0.409535 0
M  V30 7700 O 771.765 -1.72978 -0.205984 0
M  V30 7701 C 768.897 -3.39654 -0.291193 0
M  V30 7702 H 770.09 -2.67044 1.36482 0
M  V30 7703 H 767.643 -1.37429 0.744505 0
M  V30 7704 H 768.378 -3.01939 -1.18336 0
M  V30 7705 H 768.163 -3.90496 0.354276 0
M  V30 7706 H 769.653 -4.13125 -0.609693 0
M  V30 7707 N 770.09 -0.729906 -1.39679 0
M  V30 7708 C 771.339 -0.272534 -1.9985 0
M  V30 7709 C 771.652 1.14519 -1.58571 0
M  V30 7710 O 772.858 1.70182 -2.11543 0
M  V30 7711 C 771.314 -0.436322 -3.57245 0
M  V30 7712 C 770.922 -1.86161 -4.0749 0
M  V30 7713 C 772.666 -0.0404679 -4.24481 0
M  V30 7714 C 770.573 -1.97522 -5.5744 0
M  V30 7715 H 769.503 -0.0981428 -0.747585 0
M  V30 7716 H 772.154 -0.903056 -1.59741 0
M  V30 7717 H 770.536 0.263015 -3.95126 0
M  V30 7718 H 771.71 -2.59248 -3.80955 0
M  V30 7719 H 770.025 -2.21021 -3.529 0
M  V30 7720 H 772.622 -0.104437 -5.34598 0
M  V30 7721 H 772.965 1.00357 -4.04023 0
M  V30 7722 H 773.498 -0.690774 -3.91757 0
M  V30 7723 H 770.237 -3.00096 -5.82771 0
M  V30 7724 H 769.757 -1.28864 -5.85794 0
M  V30 7725 H 771.436 -1.754 -6.22771 0
M  V30 7726 N 771.568 1.50203 -0.477153 0
M  V30 7727 C 772.814 2.02658 0.0758507 0
M  V30 7728 C 773.147 1.358 1.38824 0
M  V30 7729 O 772.422 0.485696 1.88338 0
M  V30 7730 C 772.705 3.59208 0.253339 0
M  V30 7731 C 772.558 4.36629 -1.0805 0
M  V30 7732 C 773.877 4.28469 1.00509 0
M  V30 7733 H 770.996 0.736538 0.0260921 0
M  V30 7734 H 773.638 1.79464 -0.623925 0
M  V30 7735 H 771.788 3.79101 0.849378 0
M  V30 7736 H 773.46 4.28292 -1.71358 0
M  V30 7737 H 771.703 4.0013 -1.67566 0
M  V30 7738 H 772.374 5.44449 -0.909883 0
M  V30 7739 H 774.85 4.13087 0.499818 0
M  V30 7740 H 773.726 5.37804 1.09808 0
M  V30 7741 H 773.987 3.92057 2.04314 0
M  V30 7742 N 773.046 0.209999 1.56195 0
M  V30 7743 C 774.292 -0.425442 1.98287 0
M  V30 7744 C 774.625 -1.60232 1.09724 0
M  V30 7745 O 773.9 -1.93902 0.152414 0
M  V30 7746 C 774.183 -0.871189 3.49403 0
M  V30 7747 C 774.036 0.308527 4.48741 0
M  V30 7748 C 775.355 -1.73146 4.04609 0
M  V30 7749 H 772.474 -0.153169 0.720908 0
M  V30 7750 H 775.116 0.303916 1.87554 0
M  V30 7751 H 773.266 -1.49266 3.58681 0
M  V30 7752 H 774.938 0.946487 4.51486 0
M  V30 7753 H 773.181 0.957878 4.23092 0
M  V30 7754 H 773.852 -0.0461143 5.51981 0
M  V30 7755 H 776.328 -1.2072 3.98203 0
M  V30 7756 H 775.204 -2.01228 5.10684 0
M  V30 7757 H 775.465 -2.69083 3.5078 0
M  V30 7758 N 774.524 -1.57472 -0.0634922 0
M  V30 7759 C 775.801 -1.78736 -0.794538 0
M  V30 7760 C 776.181 -0.799645 -1.95369 0
M  V30 7761 O 775.529 0.165521 -2.279 0
M  V30 7762 C 775.739 -3.25471 -1.25975 0
M  V30 7763 C 777.087 -3.89528 -1.68976 0
M  V30 7764 O 778.111 -3.29412 -1.35521 0
M  V30 7765 O 776.97 -4.95305 -2.30944 0
M  V30 7766 H 774.064 -0.733813 -0.381376 0
M  V30 7767 H 776.61 -1.69646 -0.0429258 0
M  V30 7768 H 775.382 -3.88922 -0.430721 0
M  V30 7769 H 775.005 -3.39317 -2.07243 0
M  V30 7770 N 776.003 0.335068 -1.53997 0
M  V30 7771 C 777.414 0.910191 -1.6301 0
M  V30 7772 C 777.765 1.89271 -0.516809 0
M  V30 7773 O 776.89 2.13516 0.352123 0
M  V30 7774 C 777.485 1.65761 -2.9548 0
M  V30 7775 C 776.044 2.18163 -3.06728 0
M  V30 7776 C 775.191 1.00338 -2.5851 0
M  V30 7777 H 778.142 0.112965 -1.58297 0
M  V30 7778 H 778.163 2.52107 -2.84995 0
M  V30 7779 H 777.675 0.94227 -3.76488 0
M  V30 7780 H 775.776 2.92847 -2.30372 0
M  V30 7781 H 775.889 2.43952 -4.1234 0
M  V30 7782 H 774.253 1.37925 -2.14124 0
M  V30 7783 H 775.036 0.30254 -3.41964 0
M  V30 7784 N 777.481 1.45874 0.596531 0
M  V30 7785 C 778.727 1.5069 1.35722 0
M  V30 7786 C 779.06 0.152506 1.936 0
M  V30 7787 O 778.335 -0.834411 1.75692 0
M  V30 7788 C 778.618 2.59474 2.4969 0
M  V30 7789 C 778.471 4.04396 1.96937 0
M  V30 7790 C 779.79 2.64451 3.51787 0
M  V30 7791 H 776.909 0.548611 0.492133 0
M  V30 7792 H 779.551 1.77741 0.671428 0
M  V30 7793 H 777.701 2.36539 3.08191 0
M  V30 7794 H 779.373 4.38576 1.43 0
M  V30 7795 H 777.616 4.14529 1.27859 0
M  V30 7796 H 778.287 4.76218 2.79143 0
M  V30 7797 H 780.763 2.85031 3.03145 0
M  V30 7798 H 779.639 3.42411 4.29006 0
M  V30 7799 H 779.9 1.69965 4.08123 0
M  V30 7800 N 778.959 -0.83999 1.33349 0
M  V30 7801 C 779.909 -1.93817 1.20079 0
M  V30 7802 C 780.893 -1.60564 0.103978 0
M  V30 7803 O 782.085 -1.73859 0.331964 0
M  V30 7804 C 779.214 -3.30151 0.941031 0
M  V30 7805 C 778.3 -3.69577 2.08023 0
M  V30 7806 N 778.691 -3.80707 3.3301 0
M  V30 7807 C 776.989 -3.99309 1.98667 0
M  V30 7808 C 777.69 -4.14899 4.07717 0
M  V30 7809 N 776.666 -4.27208 3.36146 0
M  V30 7810 H 780.468 -2.00576 2.14817 0
M  V30 7811 H 777.982 -1.03264 1.2534 0
M  V30 7812 H 779.979 -4.08617 0.826894 0
M  V30 7813 H 778.639 -3.247 0.00216738 0
M  V30 7814 H 779.65 -3.64644 3.67771 0
M  V30 7815 H 776.327 -4.02076 1.12433 0
M  V30 7816 H 777.717 -4.30857 5.15569 0
M  V30 7817 N 780.437 -1.16799 -1.0581 0
M  V30 7818 C 781.685 -0.950642 -1.78346 0
M  V30 7819 C 782.006 0.522524 -1.87869 0
M  V30 7820 O 781.276 1.3795 -1.39092 0
M  V30 7821 H 779.856 -0.348736 -0.6606 0
M  V30 7822 H 782.518 -1.47158 -1.27791 0
M  V30 7823 H 781.614 -1.37359 -2.80248 0
M  V30 7824 N 781.915 1.24427 -0.967243 0
M  V30 7825 C 783.162 1.92487 -0.62888 0
M  V30 7826 C 783.49 1.75623 0.835871 0
M  V30 7827 O 782.745 1.1027 1.61675 0
M  V30 7828 C 783.044 3.44568 -0.949096 0
M  V30 7829 C 782.71 3.816 -2.40192 0
M  V30 7830 C 781.372 3.9142 -2.799 0
M  V30 7831 C 783.724 3.99715 -3.34481 0
M  V30 7832 C 781.052 4.16771 -4.12939 0
M  V30 7833 C 783.404 4.26562 -4.67148 0
M  V30 7834 C 782.068 4.34601 -5.06634 0
M  V30 7835 H 781.338 0.704361 -0.230124 0
M  V30 7836 H 783.985 1.4772 -1.21864 0
M  V30 7837 H 782.29 3.90819 -0.277085 0
M  V30 7838 H 783.987 3.95436 -0.665692 0
M  V30 7839 H 780.577 3.74522 -2.08402 0
M  V30 7840 H 784.761 3.91531 -3.04987 0
M  V30 7841 H 780.017 4.21214 -4.43158 0
M  V30 7842 H 784.191 4.39523 -5.40178 0
M  V30 7843 H 781.818 4.53998 -6.09746 0
M  V30 7844 N 783.393 0.737304 1.3929 0
M  V30 7845 C 784.326 0.0475454 2.2815 0
M  V30 7846 C 785.304 -0.745314 1.44512 0
M  V30 7847 O 786.488 -0.727387 1.739 0
M  V30 7848 C 783.615 -0.939803 3.254 0
M  V30 7849 C 782.661 -0.235153 4.25851 0
M  V30 7850 S 783.494 1.05252 5.25055 0
M  V30 7851 C 784.65 0.0678242 6.25863 0
M  V30 7852 H 784.883 0.801117 2.86303 0
M  V30 7853 H 782.416 0.529197 1.45048 0
M  V30 7854 H 784.374 -1.50417 3.81949 0
M  V30 7855 H 783.035 -1.66623 2.66262 0
M  V30 7856 H 782.228 -0.982336 4.94334 0
M  V30 7857 H 781.83 0.257245 3.73114 0
M  V30 7858 H 784.122 -0.771779 6.7309 0
M  V30 7859 H 785.065 0.719858 7.04431 0
M  V30 7860 H 785.473 -0.305604 5.63672 0
M  V30 7861 N 784.871 -1.49948 0.485112 0
M  V30 7862 C 786.101 -2.06506 -0.0621921 0
M  V30 7863 C 786.509 -1.34756 -1.32806 0
M  V30 7864 O 785.852 -0.41466 -1.78959 0
M  V30 7865 C 785.914 -3.57243 -0.402182 0
M  V30 7866 C 785.578 -4.50574 0.763671 0
M  V30 7867 C 786.575 -4.93032 1.6497 0
M  V30 7868 C 784.26 -4.9308 0.957973 0
M  V30 7869 C 786.254 -5.76718 2.71432 0
M  V30 7870 C 783.941 -5.76546 2.0258 0
M  V30 7871 C 784.939 -6.18267 2.90232 0
M  V30 7872 O 784.627 -7.00066 3.95174 0
M  V30 7873 H 784.359 -0.675925 0.0100672 0
M  V30 7874 H 786.913 -1.93922 0.677023 0
M  V30 7875 H 785.143 -3.6778 -1.19478 0
M  V30 7876 H 786.832 -3.96107 -0.886219 0
M  V30 7877 H 787.598 -4.60851 1.51134 0
M  V30 7878 H 783.477 -4.60117 0.285144 0
M  V30 7879 H 787.021 -6.09203 3.39878 0
M  V30 7880 H 782.918 -6.0814 2.16417 0
M  V30 7881 H 783.686 -7.18343 3.92333 0
M  V30 7882 N 786.349 -0.21828 -1.56081 0
M  V30 7883 C 787.595 0.408181 -1.99262 0
M  V30 7884 C 787.95 1.57618 -1.10337 0
M  V30 7885 O 787.243 1.90991 -0.15263 0
M  V30 7886 C 787.437 0.894782 -3.46018 0
M  V30 7887 C 787.266 -0.224528 -4.49139 0
M  V30 7888 C 786.036 -0.689843 -5.00569 0
M  V30 7889 C 788.234 -1.04165 -5.03641 0
M  V30 7890 N 786.216 -1.78455 -5.8739 0
M  V30 7891 C 787.587 -1.98529 -5.87355 0
M  V30 7892 C 789.642 -1.08146 -4.86013 0
M  V30 7893 C 788.345 -2.96549 -6.55325 0
M  V30 7894 C 790.371 -2.04982 -5.5474 0
M  V30 7895 C 789.733 -2.98086 -6.38219 0
M  V30 7896 H 785.832 0.116127 -0.77333 0
M  V30 7897 H 788.416 -0.3293 -1.91895 0
M  V30 7898 H 786.587 1.60163 -3.53839 0
M  V30 7899 H 788.319 1.49379 -3.76122 0
M  V30 7900 H 785.074 -0.279021 -4.72777 0
M  V30 7901 H 785.498 -2.33381 -6.35502 0
M  V30 7902 H 790.14 -0.375581 -4.21129 0
M  V30 7903 H 787.858 -3.68101 -7.19394 0
M  V30 7904 H 791.444 -2.08732 -5.43067 0
M  V30 7905 H 790.324 -3.71794 -6.90463 0
M  V30 7906 N 787.827 1.57504 0.0551401 0
M  V30 7907 C 789.055 1.92294 0.76358 0
M  V30 7908 C 789.47 0.815774 1.70266 0
M  V30 7909 O 788.827 -0.209772 1.8129 0
M  V30 7910 C 788.878 3.26914 1.54302 0
M  V30 7911 O 788.599 4.33375 0.641666 0
M  V30 7912 C 790.1 3.75825 2.35097 0
M  V30 7913 H 787.32 0.635229 0.216159 0
M  V30 7914 H 789.864 2.0449 0.0204385 0
M  V30 7915 H 788.019 3.16196 2.23828 0
M  V30 7916 H 788.433 5.10927 1.1855 0
M  V30 7917 H 789.907 4.72603 2.8522 0
M  V30 7918 H 790.384 3.0568 3.15367 0
M  V30 7919 H 790.99 3.89542 1.70696 0
M  V30 7920 N 789.305 -0.326896 1.54172 0
M  V30 7921 C 790.582 -1.08326 1.62864 0
M  V30 7922 C 790.962 -2.06018 0.46039 0
M  V30 7923 O 790.31 -2.21889 -0.545685 0
M  V30 7924 C 790.52 -1.78816 2.9971 0
M  V30 7925 C 791.868 -2.31958 3.55641 0
M  V30 7926 O 792.892 -1.88888 3.01993 0
M  V30 7927 O 791.751 -3.10801 4.49517 0
M  V30 7928 H 788.845 -0.499131 0.659392 0
M  V30 7929 H 791.391 -0.327054 1.66519 0
M  V30 7930 H 790.163 -1.07739 3.76176 0
M  V30 7931 H 789.786 -2.61255 2.99719 0
M  V30 7932 N 790.784 -1.46188 -0.588786 0
M  V30 7933 C 792.03 -1.52396 -1.34711 0
M  V30 7934 C 792.385 -0.170846 -1.9164 0
M  V30 7935 O 791.678 0.819714 -1.7318 0
M  V30 7936 C 791.872 -2.55364 -2.50048 0
M  V30 7937 C 791.701 -4.00554 -2.04417 0
M  V30 7938 C 790.471 -4.68334 -1.89715 0
M  V30 7939 C 792.669 -4.88533 -1.60747 0
M  V30 7940 N 790.651 -5.98167 -1.38091 0
M  V30 7941 C 792.022 -6.08143 -1.20672 0
M  V30 7942 C 794.077 -4.75236 -1.4851 0
M  V30 7943 C 792.78 -7.15927 -0.695782 0
M  V30 7944 C 794.806 -5.83085 -0.988196 0
M  V30 7945 C 794.168 -7.01864 -0.59719 0
M  V30 7946 H 790.267 -0.61252 -0.486151 0
M  V30 7947 H 792.851 -1.8277 -0.671063 0
M  V30 7948 H 791.022 -2.2691 -3.15225 0
M  V30 7949 H 792.754 -2.51603 -3.16983 0
M  V30 7950 H 789.509 -4.23763 -2.11476 0
M  V30 7951 H 789.933 -6.67254 -1.14458 0
M  V30 7952 H 794.575 -3.83801 -1.7736 0
M  V30 7953 H 792.293 -8.07135 -0.394857 0
M  V30 7954 H 795.879 -5.74836 -0.897504 0
M  V30 7955 H 794.759 -7.83895 -0.218621 0
M  V30 7956 N 792.262 0.832906 -1.33792 0
M  V30 7957 C 793.51 1.58539 -1.25338 0
M  V30 7958 C 793.831 1.94175 0.179204 0
M  V30 7959 O 793.101 1.61458 1.10941 0
M  V30 7960 H 791.681 0.58784 -0.460926 0
M  V30 7961 H 794.343 0.995064 -1.67584 0
M  V30 7962 H 793.439 2.51268 -1.85123 0
M  V30 7963 N 793.74 1.17359 1.05189 0
M  V30 7964 C 794.968 0.986529 1.81866 0
M  V30 7965 C 795.383 -0.46522 1.82979 0
M  V30 7966 O 794.74 -1.32305 1.25705 0
M  V30 7967 C 794.791 1.52021 3.27982 0
M  V30 7968 O 794.512 2.91511 3.27037 0
M  V30 7969 C 796.013 1.37774 4.21347 0
M  V30 7970 H 793.233 0.349021 0.573084 0
M  V30 7971 H 795.777 1.55648 1.32643 0
M  V30 7972 H 793.932 0.992287 3.74476 0
M  V30 7973 H 794.346 3.16178 4.18488 0
M  V30 7974 H 795.82 1.7993 5.21852 0
M  V30 7975 H 796.297 0.32483 4.37997 0
M  V30 7976 H 796.903 1.89583 3.80708 0
M  V30 7977 N 795.218 -1.23913 0.973828 0
M  V30 7978 C 796.629 -1.73992 0.677021 0
M  V30 7979 C 796.98 -1.78833 -0.807036 0
M  V30 7980 O 796.105 -1.42183 -1.63135 0
M  V30 7981 C 796.7 -3.15985 1.22226 0
M  V30 7982 C 795.259 -3.63547 0.975228 0
M  V30 7983 C 794.406 -2.42001 1.35392 0
M  V30 7984 H 797.357 -1.09529 1.14844 0
M  V30 7985 H 797.378 -3.75875 0.591489 0
M  V30 7986 H 796.89 -3.12429 2.30238 0
M  V30 7987 H 794.991 -3.72493 -0.0891047 0
M  V30 7988 H 795.104 -4.50693 1.62518 0
M  V30 7989 H 793.468 -2.42708 0.772334 0
M  V30 7990 H 794.251 -2.41122 2.44367 0
M  V30 7991 N 796.696 -0.74468 -1.38897 0
M  V30 7992 C 797.659 -0.11945 -2.28889 0
M  V30 7993 C 798.659 0.656942 -1.46768 0
M  V30 7994 O 799.849 0.484525 -1.67326 0
M  V30 7995 C 796.981 0.839635 -3.30398 0
M  V30 7996 H 798.174 -0.912414 -2.85683 0
M  V30 7997 H 795.727 -0.511119 -1.47707 0
M  V30 7998 H 796.462 1.6586 -2.78677 0
M  V30 7999 H 796.247 0.285432 -3.9106 0
M  V30 8000 H 797.737 1.27337 -3.97712 0
M  V30 8001 N 798.174 1.49689 -0.493057 0
M  V30 8002 C 799.121 2.28976 0.28959 0
M  V30 8003 C 800.091 1.35011 0.967536 0
M  V30 8004 O 801.276 1.63964 0.975736 0
M  V30 8005 C 798.416 3.1748 1.35279 0
M  V30 8006 C 797.529 4.26496 0.687418 0
M  V30 8007 C 796.664 5.02226 1.73038 0
M  V30 8008 C 795.703 6.03089 1.04645 0
M  V30 8009 N 794.84 6.72014 2.03325 0
M  V30 8010 H 799.68 2.954 -0.392798 0
M  V30 8011 H 797.217 1.45657 -0.205554 0
M  V30 8012 H 799.175 3.67162 1.98111 0
M  V30 8013 H 797.805 2.53057 2.00405 0
M  V30 8014 H 796.857 3.80362 -0.0540001 0
M  V30 8015 H 798.169 4.98578 0.14864 0
M  V30 8016 H 797.323 5.55737 2.43395 0
M  V30 8017 H 796.062 4.29899 2.303 0
M  V30 8018 H 795.067 5.48817 0.328606 0
M  V30 8019 H 796.292 6.77398 0.480428 0
M  V30 8020 H 794.238 6.02464 2.59564 0
M  V30 8021 H 794.155 7.40046 1.54492 0
M  V30 8022 H 795.423 7.30133 2.72995 0
M  V30 8023 N 799.652 0.226554 1.55963 0
M  V30 8024 C 800.901 -0.40417 1.97609 0
M  V30 8025 C 801.214 -1.60541 1.1174 0
M  V30 8026 O 802.42 -2.30598 1.43307 0
M  V30 8027 C 800.876 -0.770466 3.51556 0
M  V30 8028 C 800.484 0.408244 4.46136 0
M  V30 8029 C 802.228 -1.36651 4.01904 0
M  V30 8030 C 800.135 0.0192347 5.91397 0
M  V30 8031 H 799.065 -0.15478 0.737943 0
M  V30 8032 H 801.716 0.323558 1.80625 0
M  V30 8033 H 800.098 -1.55575 3.6416 0
M  V30 8034 H 801.272 1.18575 4.45283 0
M  V30 8035 H 799.587 0.917859 4.06158 0
M  V30 8036 H 802.184 -1.67055 5.07934 0
M  V30 8037 H 802.527 -2.28403 3.48049 0
M  V30 8038 H 803.06 -0.644556 3.92543 0
M  V30 8039 H 799.799 0.90336 6.49245 0
M  V30 8040 H 799.319 -0.722485 5.95433 0
M  V30 8041 H 800.998 -0.405711 6.45727 0
M  V30 8042 N 801.13 -1.57531 -0.0467866 0
M  V30 8043 C 802.077 -2.05387 -1.05285 0
M  V30 8044 C 803.047 -0.939385 -1.36985 0
M  V30 8045 O 804.232 -1.20877 -1.47626 0
M  V30 8046 C 801.372 -2.52343 -2.35408 0
M  V30 8047 C 800.485 -3.77512 -2.10022 0
M  V30 8048 C 799.62 -4.1315 -3.33887 0
M  V30 8049 C 798.659 -5.31286 -3.03976 0
M  V30 8050 N 797.796 -5.62441 -4.20243 0
M  V30 8051 H 802.636 -2.91095 -0.637788 0
M  V30 8052 H 800.173 -1.43939 -0.303322 0
M  V30 8053 H 802.131 -2.77628 -3.11413 0
M  V30 8054 H 800.761 -1.69577 -2.7467 0
M  V30 8055 H 799.813 -3.59417 -1.24594 0
M  V30 8056 H 801.125 -4.63644 -1.83945 0
M  V30 8057 H 800.279 -4.39469 -4.18273 0
M  V30 8058 H 799.018 -3.25634 -3.63062 0
M  V30 8059 H 798.023 -5.04738 -2.17991 0
M  V30 8060 H 799.248 -6.20441 -2.76098 0
M  V30 8061 H 797.194 -4.77885 -4.49402 0
M  V30 8062 H 797.111 -6.43046 -3.97528 0
M  V30 8063 H 798.379 -5.93327 -5.05553 0
M  V30 8064 N 802.608 0.318715 -1.54344 0
M  V30 8065 C 803.555 1.39242 -1.84066 0
M  V30 8066 C 804.525 1.51175 -0.688134 0
M  V30 8067 O 805.71 1.66318 -0.935039 0
M  V30 8068 C 802.85 2.75528 -2.07794 0
M  V30 8069 C 801.963 2.72187 -3.35467 0
M  V30 8070 C 801.098 4.00352 -3.4913 0
M  V30 8071 C 800.137 3.91338 -4.7066 0
M  V30 8072 N 799.274 5.11242 -4.81224 0
M  V30 8073 H 804.114 1.13196 -2.75664 0
M  V30 8074 H 801.651 0.547857 -1.36517 0
M  V30 8075 H 803.609 3.54763 -2.19543 0
M  V30 8076 H 802.239 2.99873 -1.19482 0
M  V30 8077 H 801.291 1.84917 -3.3243 0
M  V30 8078 H 802.603 2.61411 -4.24812 0
M  V30 8079 H 801.757 4.88019 -3.60448 0
M  V30 8080 H 800.496 4.1394 -2.57886 0
M  V30 8081 H 799.501 3.02055 -4.59394 0
M  V30 8082 H 800.726 3.7931 -5.63294 0
M  V30 8083 H 798.672 5.25327 -3.92897 0
M  V30 8084 H 798.589 5.0282 -5.64543 0
M  V30 8085 H 799.857 6.0061 -4.96879 0
M  V30 8086 N 804.086 1.46499 0.581025 0
M  V30 8087 C 805.334 1.51596 1.33653 0
M  V30 8088 C 805.655 0.169859 1.94259 0
M  V30 8089 O 804.925 -0.803776 1.78651 0
M  V30 8090 H 803.505 0.558346 0.496244 0
M  V30 8091 H 806.167 1.8264 0.680338 0
M  V30 8092 H 805.263 2.26956 2.14237 0
M  V30 8093 N 805.565 -0.825799 1.34232 0
M  V30 8094 C 806.813 -1.57873 1.26177 0
M  V30 8095 C 807.134 -1.94267 -0.168904 0
M  V30 8096 O 806.404 -1.62045 -1.10084 0
M  V30 8097 H 804.984 -0.585388 0.464037 0
M  V30 8098 H 807.646 -0.986163 1.6811 0
M  V30 8099 H 806.742 -2.50283 1.86453 0
M  V30 8100 N 807.043 -1.17915 -1.04565 0
M  V30 8101 C 807.973 -0.925033 -2.14395 0
M  V30 8102 C 808.954 0.135375 -1.6956 0
M  V30 8103 O 810.139 -0.0161774 -1.94193 0
M  V30 8104 C 807.269 -0.444469 -3.44444 0
M  V30 8105 C 806.223 -1.44478 -4.02877 0
M  V30 8106 C 805.549 -0.821933 -5.28345 0
M  V30 8107 C 806.849 -2.81995 -4.39632 0
M  V30 8108 H 808.543 -1.84354 -2.35911 0
M  V30 8109 H 806.089 -0.887806 -1.13375 0
M  V30 8110 H 808.042 -0.254078 -4.20633 0
M  V30 8111 H 806.766 0.509592 -3.226 0
M  V30 8112 H 805.425 -1.62203 -3.28764 0
M  V30 8113 H 805.073 0.139161 -5.02807 0
M  V30 8114 H 804.773 -1.48976 -5.68401 0
M  V30 8115 H 806.297 -0.641959 -6.07216 0
M  V30 8116 H 807.711 -2.67952 -5.06828 0
M  V30 8117 H 806.108 -3.45414 -4.90723 0
M  V30 8118 H 807.178 -3.35927 -3.49687 0
M  V30 8119 N 808.521 1.23394 -0.980386 0
M  V30 8120 C 809.469 2.26872 -0.513018 0
M  V30 8121 C 810.463 1.63853 0.429948 0
M  V30 8122 O 811.669 1.77417 0.303842 0
M  V30 8123 H 808.044 0.737398 -0.147473 0
M  V30 8124 H 810.015 2.63654 -1.39746 0
M  V30 8125 C 808.764 3.47289 0.168962 0
M  V30 8126 H 808.087 3.96033 -0.547546 0
M  V30 8127 H 809.527 4.21502 0.459616 0
M  V30 8128 C 807.986 3.06425 1.40019 0
M  V30 8129 O 808.516 3.14708 2.49643 0
M  V30 8130 N 806.722 2.61339 1.27084 0
M  V30 8131 H 806.269 2.54799 0.378872 0
M  V30 8132 H 806.227 2.34364 2.09573 0
M  V30 8133 N 809.999 0.752036 1.385 0
M  V30 8134 C 811.247 0.306895 1.99756 0
M  V30 8135 C 811.568 -1.11478 1.59992 0
M  V30 8136 O 810.838 -1.76206 0.856045 0
M  V30 8137 H 809.418 0.11048 0.738785 0
M  V30 8138 H 812.08 0.965785 1.69289 0
M  V30 8139 H 811.176 0.368797 3.09913 0
M  V30 8140 N 811.477 -1.49425 0.500989 0
M  V30 8141 C 812.723 -2.02753 -0.0436 0
M  V30 8142 C 813.056 -1.37991 -1.36646 0
M  V30 8143 O 812.331 -0.515597 -1.87542 0
M  V30 8144 C 812.614 -3.59565 -0.19616 0
M  V30 8145 C 812.467 -4.34855 1.14982 0
M  V30 8146 C 813.786 -4.30014 -0.936795 0
M  V30 8147 H 810.905 -0.73686 -0.0143711 0
M  V30 8148 H 813.547 -1.78448 0.652397 0
M  V30 8149 H 811.697 -3.80405 -0.788959 0
M  V30 8150 H 813.369 -4.25512 1.7815 0
M  V30 8151 H 811.612 -3.97414 1.73911 0
M  V30 8152 H 812.283 -5.42933 0.996385 0
M  V30 8153 H 814.759 -4.1383 -0.434036 0
M  V30 8154 H 813.635 -5.39483 -1.01238 0
M  V30 8155 H 813.896 -3.95257 -1.9805 0
M  V30 8156 N 812.955 -0.234822 -1.55841 0
M  V30 8157 C 814.232 0.442961 -1.90518 0
M  V30 8158 C 814.612 1.76768 -1.15397 0
M  V30 8159 O 813.96 2.26928 -0.267534 0
M  V30 8160 C 814.17 0.622905 -3.43396 0
M  V30 8161 C 815.518 0.9243 -4.14417 0
M  V30 8162 O 816.542 0.709211 -3.49068 0
M  V30 8163 O 815.401 1.33323 -5.29988 0
M  V30 8164 H 812.495 0.236042 -0.792599 0
M  V30 8165 H 815.041 -0.277992 -1.67408 0
M  V30 8166 H 813.813 -0.310973 -3.90062 0
M  V30 8167 H 813.436 1.39485 -3.7233 0
M  V30 8168 N 814.433 1.57553 0.0384317 0
M  V30 8169 C 815.682 1.88022 0.730108 0
M  V30 8170 C 815.995 0.83209 1.77019 0
M  V30 8171 O 817.201 1.0257 2.51379 0
M  V30 8172 C 815.657 3.33637 1.3496 0
M  V30 8173 C 815.265 4.46659 0.346352 0
M  V30 8174 C 817.009 3.73266 2.02169 0
M  V30 8175 C 814.916 5.8333 0.973652 0
M  V30 8176 H 813.846 0.701496 0.276442 0
M  V30 8177 H 816.497 1.83493 -0.0158028 0
M  V30 8178 H 814.879 3.32882 2.1449 0
M  V30 8179 H 816.053 4.58868 -0.421558 0
M  V30 8180 H 814.368 4.15802 -0.223133 0
M  V30 8181 H 816.965 4.72689 2.49938 0
M  V30 8182 H 817.308 3.04776 2.8358 0
M  V30 8183 H 817.841 3.76156 1.29427 0
M  V30 8184 H 814.58 6.55197 0.199163 0
M  V30 8185 H 814.1 5.7486 1.71162 0
M  V30 8186 H 815.779 6.29757 1.48376 0
M  V30 8187 N 815.911 -0.310526 1.54511 0
M  V30 8188 C 817.141 -1.06456 1.77061 0
M  V30 8189 C 817.549 -1.81755 0.525528 0
M  V30 8190 O 816.892 -1.76365 -0.513904 0
M  V30 8191 C 816.954 -2.09856 2.91892 0
M  V30 8192 C 816.618 -1.53838 4.30329 0
M  V30 8193 C 817.615 -0.973358 5.10707 0
M  V30 8194 C 815.3 -1.57688 4.76906 0
M  V30 8195 C 817.294 -0.454283 6.35779 0
M  V30 8196 C 814.981 -1.05393 6.01943 0
M  V30 8197 C 815.979 -0.493595 6.81214 0
M  V30 8198 O 815.667 0.0214506 8.03897 0
M  V30 8199 H 815.399 -0.321913 0.594431 0
M  V30 8200 H 817.953 -0.358289 2.02251 0
M  V30 8201 H 816.183 -2.84137 2.62304 0
M  V30 8202 H 817.872 -2.71085 3.02106 0
M  V30 8203 H 818.638 -0.936588 4.75871 0
M  V30 8204 H 814.517 -2.00242 4.1524 0
M  V30 8205 H 818.061 -0.0162657 6.97598 0
M  V30 8206 H 813.958 -1.08782 6.36268 0
M  V30 8207 H 814.726 -0.0927478 8.18447 0
M  V30 8208 N 817.389 -1.46805 -0.573248 0
M  V30 8209 C 818.614 -1.56433 -1.36175 0
M  V30 8210 C 819.039 -0.209336 -1.86932 0
M  V30 8211 O 818.397 0.812146 -1.62092 0
M  V30 8212 C 818.445 -2.58055 -2.51873 0
M  V30 8213 O 817.549 -2.12214 -3.53609 0
M  V30 8214 H 816.89 -0.526068 -0.405153 0
M  V30 8215 H 819.42 -1.92456 -0.694405 0
M  V30 8216 H 819.43 -2.77966 -2.98662 0
M  V30 8217 H 818.105 -3.56448 -2.14284 0
M  V30 8218 H 816.682 -2.02333 -3.13234 0
M  V30 8219 N 818.867 0.818669 -1.34668 0
M  V30 8220 C 819.797 1.94468 -1.29245 0
M  V30 8221 C 820.778 1.69257 -0.169101 0
M  V30 8222 O 821.963 1.90794 -0.362143 0
M  V30 8223 C 819.093 3.31001 -1.05145 0
M  V30 8224 C 818.047 3.70663 -2.13992 0
M  V30 8225 C 817.373 5.05226 -1.75074 0
M  V30 8226 C 818.673 3.82312 -3.55858 0
M  V30 8227 H 820.367 1.99263 -2.2346 0
M  V30 8228 H 817.913 0.957304 -1.07572 0
M  V30 8229 H 819.866 4.09364 -0.999949 0
M  V30 8230 H 818.59 3.26517 -0.0737312 0
M  V30 8231 H 817.249 2.94578 -2.18219 0
M  V30 8232 H 816.897 4.97233 -0.759518 0
M  V30 8233 H 816.597 5.32734 -2.47928 0
M  V30 8234 H 818.121 5.86042 -1.71427 0
M  V30 8235 H 819.535 4.50935 -3.5402 0
M  V30 8236 H 817.932 4.21278 -4.2737 0
M  V30 8237 H 819.002 2.84193 -3.9289 0
M  V30 8238 N 820.346 1.18468 1.03938 0
M  V30 8239 C 821.592 0.982286 1.77423 0
M  V30 8240 C 821.925 -0.48679 1.88 0
M  V30 8241 O 821.2 -1.36146 1.38905 0
M  V30 8242 C 821.483 1.63929 3.20623 0
M  V30 8243 C 821.336 3.18132 3.17982 0
M  V30 8244 C 822.655 1.3536 4.18767 0
M  V30 8245 H 819.774 0.358264 0.644062 0
M  V30 8246 H 822.416 1.46154 1.21405 0
M  V30 8247 H 820.566 1.2318 3.68455 0
M  V30 8248 H 822.238 3.68024 2.78129 0
M  V30 8249 H 820.481 3.50225 2.55978 0
M  V30 8250 H 821.152 3.5924 4.19107 0
M  V30 8251 H 823.628 1.70669 3.79488 0
M  V30 8252 H 822.504 1.83896 5.17178 0
M  V30 8253 H 822.765 0.276722 4.41233 0
M  V30 8254 N 821.824 -1.22873 0.986916 0
M  V30 8255 C 823.052 -1.95487 0.677663 0
M  V30 8256 C 823.467 -1.72978 -0.756572 0
M  V30 8257 O 822.824 -1.02517 -1.50985 0
M  V30 8258 C 822.875 -3.48337 0.966638 0
M  V30 8259 O 822.596 -3.70087 2.34451 0
M  V30 8260 C 824.097 -4.38142 0.674248 0
M  V30 8261 H 821.317 -0.622211 0.251185 0
M  V30 8262 H 823.861 -1.56187 1.32007 0
M  V30 8263 H 822.016 -3.85628 0.370137 0
M  V30 8264 H 822.43 -4.64332 2.43918 0
M  V30 8265 H 823.904 -5.44165 0.926759 0
M  V30 8266 H 824.381 -4.3745 -0.391728 0
M  V30 8267 H 824.987 -4.06469 1.25152 0
M  V30 8268 N 823.302 -0.75937 -1.38099 0
M  V30 8269 C 824.212 -0.13774 -2.34195 0
M  V30 8270 C 825.228 0.693985 -1.59561 0
M  V30 8271 O 826.404 0.616792 -1.91723 0
M  V30 8272 C 823.469 0.740535 -3.38699 0
M  V30 8273 C 822.53 -0.106225 -4.29169 0
M  V30 8274 C 821.763 0.730225 -5.28681 0
M  V30 8275 O 821.986 1.96796 -5.35376 0
M  V30 8276 O 820.92 0.145969 -6.01723 0
M  V30 8277 H 824.746 -0.931512 -2.89061 0
M  V30 8278 H 822.331 -0.520345 -1.40046 0
M  V30 8279 H 824.213 1.24232 -4.02672 0
M  V30 8280 H 822.888 1.51271 -2.8618 0
M  V30 8281 H 821.795 -0.654088 -3.68337 0
M  V30 8282 H 823.128 -0.841186 -4.84959 0
M  V30 8283 N 824.78 1.49157 -0.508906 0
M  V30 8284 C 825.728 2.30922 0.278906 0
M  V30 8285 C 826.722 1.39889 0.955382 0
M  V30 8286 O 827.928 1.56901 0.882169 0
M  V30 8287 H 824.303 0.744087 0.108805 0
M  V30 8288 H 826.274 2.95277 -0.430583 0
M  V30 8289 C 825.023 3.21432 1.32576 0
M  V30 8290 H 824.346 3.91413 0.814634 0
M  V30 8291 H 825.786 3.81568 1.84882 0
M  V30 8292 C 824.245 2.41583 2.34817 0
M  V30 8293 O 824.775 2.1256 3.40854 0
M  V30 8294 N 822.981 2.03462 2.07489 0
M  V30 8295 H 822.528 2.27265 1.21278 0
M  V30 8296 H 822.486 1.50345 2.76123 0
M  V30 8297 N 826.258 0.243083 1.55714 0
M  V30 8298 C 827.507 -0.383188 1.98027 0
M  V30 8299 C 827.82 -1.59347 1.13436 0
M  V30 8300 O 829.026 -2.29065 1.45745 0
M  V30 8301 C 827.482 -0.733135 3.52354 0
M  V30 8302 C 827.09 0.455539 4.45678 0
M  V30 8303 C 828.834 -1.32381 4.03331 0
M  V30 8304 C 826.741 0.0819591 5.91343 0
M  V30 8305 H 825.671 -0.146944 0.739543 0
M  V30 8306 H 828.322 0.342697 1.80272 0
M  V30 8307 H 826.704 -1.51704 3.65789 0
M  V30 8308 H 827.878 1.23291 4.44 0
M  V30 8309 H 826.193 0.960886 4.05162 0
M  V30 8310 H 828.79 -1.61658 5.09677 0
M  V30 8311 H 829.133 -2.24698 3.50452 0
M  V30 8312 H 829.666 -0.602885 3.93205 0
M  V30 8313 H 826.405 0.972171 6.48251 0
M  V30 8314 H 825.925 -0.659291 5.96166 0
M  V30 8315 H 827.604 -0.3372 6.46121 0
M  V30 8316 N 827.736 -1.57571 -0.0300757 0
M  V30 8317 C 828.668 -2.0329 -1.05857 0
M  V30 8318 C 829.681 -0.945543 -1.32527 0
M  V30 8319 O 830.87 -1.22287 -1.30032 0
M  V30 8320 C 827.97 -2.39234 -2.40042 0
M  V30 8321 C 827.143 -3.70337 -2.32743 0
M  V30 8322 C 826.202 -3.93482 -3.49369 0
M  V30 8323 O 825.228 -4.64551 -3.28909 0
M  V30 8324 N 826.43 -3.39042 -4.71201 0
M  V30 8325 H 829.195 -2.9214 -0.668897 0
M  V30 8326 H 826.756 -1.60425 -0.218038 0
M  V30 8327 H 828.748 -2.51856 -3.16782 0
M  V30 8328 H 827.318 -1.5606 -2.70858 0
M  V30 8329 H 826.538 -3.68079 -1.41109 0
M  V30 8330 H 827.826 -4.56343 -2.25007 0
M  V30 8331 H 827.224 -2.81434 -4.90725 0
M  V30 8332 H 825.781 -3.57045 -5.45309 0
M  V30 8333 N 829.214 0.302327 -1.54673 0
M  V30 8334 C 830.46 1.03532 -1.75079 0
M  V30 8335 C 830.815 1.84972 -0.52943 0
M  V30 8336 O 830.108 1.85537 0.478169 0
M  V30 8337 C 830.302 1.97365 -2.97963 0
M  V30 8338 C 830.131 1.25154 -4.31934 0
M  V30 8339 C 828.901 0.979243 -4.95721 0
M  V30 8340 C 831.099 0.656653 -5.10091 0
M  V30 8341 N 829.081 0.227265 -6.13479 0
M  V30 8342 C 830.452 0.0373759 -6.19989 0
M  V30 8343 C 832.507 0.561571 -4.94723 0
M  V30 8344 C 831.21 -0.667782 -7.16194 0
M  V30 8345 C 833.236 -0.12993 -5.91257 0
M  V30 8346 C 832.598 -0.738063 -7.00523 0
M  V30 8347 H 828.697 0.361824 -0.693258 0
M  V30 8348 H 831.281 0.314091 -1.9215 0
M  V30 8349 H 829.452 2.66739 -2.8232 0
M  V30 8350 H 831.184 2.63806 -3.06902 0
M  V30 8351 H 827.939 1.27706 -4.56057 0
M  V30 8352 H 828.363 -0.135199 -6.76865 0
M  V30 8353 H 833.005 1.01744 -4.10375 0
M  V30 8354 H 830.723 -1.13542 -8.00084 0
M  V30 8355 H 834.309 -0.203423 -5.81444 0
M  V30 8356 H 833.189 -1.26463 -7.73936 0
M  V30 8357 N 830.692 1.47107 0.565454 0
M  V30 8358 C 832.103 1.47266 1.1476 0
M  V30 8359 C 832.454 0.222841 1.9493 0
M  V30 8360 O 831.579 -0.672862 2.05673 0
M  V30 8361 C 832.174 2.66822 2.08785 0
M  V30 8362 C 830.733 2.69967 2.62288 0
M  V30 8363 C 829.88 2.40236 1.38499 0
M  V30 8364 H 832.831 1.54736 0.352479 0
M  V30 8365 H 832.852 2.43323 2.92531 0
M  V30 8366 H 832.364 3.5777 1.50408 0
M  V30 8367 H 830.465 1.83137 3.24487 0
M  V30 8368 H 830.578 3.70426 3.03845 0
M  V30 8369 H 828.942 1.90648 1.68895 0
M  V30 8370 H 829.725 3.33381 0.819274 0
M  V30 8371 N 832.17 -0.811516 1.35101 0
M  V30 8372 C 833.118 -1.94449 1.27642 0
M  V30 8373 C 834.112 -1.68522 0.172287 0
M  V30 8374 O 835.318 -1.76799 0.337967 0
M  V30 8375 H 831.693 -0.638776 0.396824 0
M  V30 8376 H 833.664 -1.97861 2.23369 0
M  V30 8377 C 832.413 -3.31139 1.06029 0
M  V30 8378 H 831.736 -3.51644 1.90227 0
M  V30 8379 H 833.176 -4.10831 1.0485 0
M  V30 8380 C 831.635 -3.36072 -0.236039 0
M  V30 8381 O 832.165 -3.82292 -1.23353 0
M  V30 8382 N 830.371 -2.89314 -0.273107 0
M  V30 8383 H 829.918 -2.51893 0.539211 0
M  V30 8384 H 829.876 -2.92996 -1.1402 0
M  V30 8385 N 833.648 -1.19017 -1.03309 0
M  V30 8386 C 834.896 -0.988258 -1.76289 0
M  V30 8387 C 835.217 0.482557 -1.88935 0
M  V30 8388 O 834.487 1.34969 -1.41987 0
M  V30 8389 H 833.067 -0.36267 -0.653054 0
M  V30 8390 H 835.729 -1.49836 -1.2464 0
M  V30 8391 H 834.825 -1.43273 -2.77271 0
M  V30 8392 N 835.127 1.22348 -0.993418 0
M  V30 8393 C 836.376 1.90422 -0.665019 0
M  V30 8394 C 836.689 1.78199 0.806512 0
M  V30 8395 O 837.895 2.41193 1.24652 0
M  V30 8396 C 836.351 3.41403 -1.13893 0
M  V30 8397 C 835.959 3.62262 -2.63572 0
M  V30 8398 C 837.703 4.15175 -0.884884 0
M  V30 8399 C 835.61 5.06947 -3.04564 0
M  V30 8400 H 834.54 0.713073 -0.245037 0
M  V30 8401 H 837.191 1.3856 -1.20305 0
M  V30 8402 H 835.573 3.9245 -0.529027 0
M  V30 8403 H 836.747 3.21705 -3.29913 0
M  V30 8404 H 835.062 3.01824 -2.86865 0
M  V30 8405 H 837.659 5.21813 -1.16684 0
M  V30 8406 H 838.002 4.15915 0.178982 0
M  V30 8407 H 838.535 3.70157 -1.45701 0
M  V30 8408 H 835.274 5.11346 -4.10128 0
M  V30 8409 H 834.794 5.48404 -2.42927 0
M  V30 8410 H 836.473 5.75374 -2.95894 0
M  V30 8411 N 836.605 0.766683 1.37694 0
M  V30 8412 C 837.833 0.339939 2.04088 0
M  V30 8413 C 838.248 -1.03617 1.57826 0
M  V30 8414 O 837.605 -1.6605 0.757214 0
M  V30 8415 C 837.656 0.368269 3.59619 0
M  V30 8416 O 837.377 1.69009 4.04188 0
M  V30 8417 C 838.878 -0.0707053 4.43244 0
M  V30 8418 H 836.098 0.143189 0.655544 0
M  V30 8419 H 838.642 1.03919 1.76128 0
M  V30 8420 H 836.797 -0.282359 3.8637 0
M  V30 8421 H 837.211 1.62523 4.98685 0
M  V30 8422 H 838.685 0.000273538 5.52 0
M  V30 8423 H 839.162 -1.1204 4.24669 0
M  V30 8424 H 839.768 0.551543 4.21709 0
M  V30 8425 N 838.083 -1.48885 0.516809 0
M  V30 8426 C 839.013 -2.32241 -0.242157 0
M  V30 8427 C 839.994 -1.41258 -0.947633 0
M  V30 8428 O 841.179 -1.70156 -0.935973 0
M  V30 8429 C 838.309 -3.22151 -1.29754 0
M  V30 8430 C 837.263 -4.22053 -0.710995 0
M  V30 8431 C 836.589 -5.01007 -1.86806 0
M  V30 8432 C 837.889 -5.21388 0.30853 0
M  V30 8433 H 839.583 -2.95943 0.453651 0
M  V30 8434 H 837.129 -1.42316 0.219612 0
M  V30 8435 H 839.082 -3.79284 -1.83634 0
M  V30 8436 H 837.806 -2.56423 -2.02274 0
M  V30 8437 H 836.465 -3.66087 -0.193819 0
M  V30 8438 H 836.113 -4.31713 -2.58133 0
M  V30 8439 H 835.813 -5.68615 -1.48159 0
M  V30 8440 H 837.337 -5.60989 -2.4109 0
M  V30 8441 H 838.751 -5.73122 -0.142703 0
M  V30 8442 H 837.148 -5.96975 0.611673 0
M  V30 8443 H 838.218 -4.69329 1.21894 0
M  V30 8444 N 839.561 -0.251338 -1.55583 0
M  V30 8445 C 840.838 0.422729 -1.90977 0
M  V30 8446 C 841.218 1.75534 -1.17265 0
M  V30 8447 O 840.566 2.26632 -0.291588 0
M  V30 8448 C 840.776 0.586448 -3.44037 0
M  V30 8449 C 842.124 0.880294 -4.15375 0
M  V30 8450 O 843.148 0.672148 -3.49801 0
M  V30 8451 O 842.007 1.27694 -5.31372 0
M  V30 8452 H 839.101 0.227622 -0.795058 0
M  V30 8453 H 841.647 -0.295733 -1.67103 0
M  V30 8454 H 840.419 -0.352327 -3.89711 0
M  V30 8455 H 840.042 1.35528 -3.73789 0
M  V30 8456 N 841.039 1.57585 0.0217189 0
M  V30 8457 C 841.969 2.10073 1.01939 0
M  V30 8458 C 842.95 1.0049 1.37243 0
M  V30 8459 O 844.135 1.28055 1.45999 0
M  V30 8460 C 841.265 2.58618 2.31806 0
M  V30 8461 C 840.219 3.72531 2.10724 0
M  V30 8462 C 839.545 4.07309 3.46415 0
M  V30 8463 C 840.845 5.00672 1.48743 0
M  V30 8464 H 842.539 2.9368 0.582432 0
M  V30 8465 H 840.085 1.41277 0.278715 0
M  V30 8466 H 842.038 2.9396 3.01936 0
M  V30 8467 H 840.762 1.72104 2.77575 0
M  V30 8468 H 839.421 3.37549 1.43025 0
M  V30 8469 H 839.069 3.17851 3.89846 0
M  V30 8470 H 838.769 4.84042 3.33132 0
M  V30 8471 H 840.293 4.45192 4.17895 0
M  V30 8472 H 841.707 5.33925 2.088 0
M  V30 8473 H 840.104 5.82065 1.46013 0
M  V30 8474 H 841.174 4.82769 0.45408 0
M  V30 8475 N 842.517 -0.29412 1.54831 0
M  V30 8476 C 843.447 -1.36757 1.89261 0
M  V30 8477 C 844.428 -1.52564 0.752214 0
M  V30 8478 O 845.613 -1.65958 1.00855 0
M  V30 8479 C 842.743 -2.73066 2.14597 0
M  V30 8480 C 841.697 -2.72017 3.3044 0
M  V30 8481 C 841.023 -4.11679 3.4121 0
M  V30 8482 C 842.323 -2.33149 4.67375 0
M  V30 8483 H 844.017 -1.08191 2.79169 0
M  V30 8484 H 841.563 -0.519014 1.34321 0
M  V30 8485 H 843.516 -3.48255 2.37269 0
M  V30 8486 H 842.24 -3.03172 1.21467 0
M  V30 8487 H 840.899 -1.99285 3.07703 0
M  V30 8488 H 840.547 -4.38973 2.45584 0
M  V30 8489 H 840.247 -4.11877 4.19084 0
M  V30 8490 H 841.771 -4.88637 3.6615 0
M  V30 8491 H 843.185 -2.98054 4.89731 0
M  V30 8492 H 841.582 -2.44546 5.48012 0
M  V30 8493 H 842.652 -1.28275 4.67626 0
M  V30 8494 N 843.995 -1.47404 -0.557645 0
M  V30 8495 C 845.22 -1.57868 -1.34508 0
M  V30 8496 C 845.645 -0.229151 -1.86699 0
M  V30 8497 O 845.003 0.794908 -1.62944 0
M  V30 8498 C 845.051 -2.60712 -2.49122 0
M  V30 8499 O 844.155 -2.15952 -3.51338 0
M  V30 8500 H 843.496 -0.530335 -0.399551 0
M  V30 8501 H 846.026 -1.93181 -0.673954 0
M  V30 8502 H 846.036 -2.81118 -2.95697 0
M  V30 8503 H 844.711 -3.58701 -2.10491 0
M  V30 8504 H 843.288 -2.05644 -3.11071 0
M  V30 8505 N 845.473 0.80434 -1.35529 0
M  V30 8506 C 846.721 1.55845 -1.28673 0
M  V30 8507 C 847.042 1.94511 0.137976 0
M  V30 8508 O 846.312 1.63775 1.07492 0
M  V30 8509 H 844.892 0.577931 -0.473291 0
M  V30 8510 H 847.554 0.959293 -1.69657 0
M  V30 8511 H 846.65 2.47285 -1.90411 0
M  V30 8512 N 846.951 1.19563 1.02676 0
M  V30 8513 C 848.367 0.948304 1.28372 0
M  V30 8514 C 848.567 -0.378096 1.97921 0
M  V30 8515 O 847.623 -1.1091 2.26838 0
M  V30 8516 C 848.936 2.12381 2.12873 0
M  V30 8517 C 850.484 2.16366 2.26174 0
M  V30 8518 C 850.959 3.33374 3.14048 0
M  V30 8519 N 852.45 3.33323 3.21636 0
M  V30 8520 C 853.185 4.20504 3.89825 0
M  V30 8521 N 852.681 5.17845 4.60227 0
M  V30 8522 N 854.474 4.08375 3.86246 0
M  V30 8523 H 846.625 2.04899 0.559485 0
M  V30 8524 H 848.888 0.89606 0.309484 0
M  V30 8525 H 848.594 3.08383 1.69094 0
M  V30 8526 H 848.468 2.09621 3.1359 0
M  V30 8527 H 850.855 1.20933 2.69182 0
M  V30 8528 H 850.936 2.23179 1.25 0
M  V30 8529 H 850.58 4.29087 2.71747 0
M  V30 8530 H 850.51 3.23798 4.15286 0
M  V30 8531 H 853.001 2.62863 2.71498 0
M  V30 8532 H 853.314 5.80712 5.09896 0
M  V30 8533 H 851.659 5.21791 4.59085 0
M  V30 8534 H 854.85 3.31606 3.30386 0
M  V30 8535 H 855.023 4.76532 4.39114 0
M  V30 8536 N 848.429 -1.21819 0.999893 0
M  V30 8537 C 849.359 -2.26282 0.576096 0
M  V30 8538 C 850.34 -1.65317 -0.400537 0
M  V30 8539 O 851.525 -1.92028 -0.28964 0
M  V30 8540 C 848.655 -3.47147 -0.103145 0
M  V30 8541 C 847.609 -4.20594 0.792745 0
M  V30 8542 C 846.935 -5.34696 -0.0198026 0
M  V30 8543 C 848.235 -4.78533 2.09293 0
M  V30 8544 H 849.929 -2.61984 1.4493 0
M  V30 8545 H 847.475 -1.25935 0.698316 0
M  V30 8546 H 849.428 -4.1939 -0.411068 0
M  V30 8547 H 848.152 -3.1056 -1.01094 0
M  V30 8548 H 846.811 -3.50194 1.08442 0
M  V30 8549 H 846.459 -4.94352 -0.928729 0
M  V30 8550 H 846.159 -5.84764 0.576661 0
M  V30 8551 H 847.683 -6.09752 -0.321659 0
M  V30 8552 H 849.097 -5.42682 1.8485 0
M  V30 8553 H 847.494 -5.38968 2.63881 0
M  V30 8554 H 848.564 -3.98197 2.76708 0
M  V30 8555 N 849.908 -0.773975 -1.37286 0
M  V30 8556 C 851.138 -0.350249 -2.03609 0
M  V30 8557 C 851.546 1.03313 -1.58502 0
M  V30 8558 O 850.889 1.67118 -0.7627 0
M  V30 8559 C 850.951 -0.317215 -3.58098 0
M  V30 8560 C 850.615 -1.64556 -4.26345 0
M  V30 8561 C 851.612 -2.59839 -4.50311 0
M  V30 8562 C 849.297 -1.92061 -4.64131 0
M  V30 8563 C 851.291 -3.80833 -5.11122 0
M  V30 8564 C 848.978 -3.13325 -5.24663 0
M  V30 8565 C 849.976 -4.0753 -5.48095 0
M  V30 8566 O 849.664 -5.26658 -6.0736 0
M  V30 8567 H 849.396 -0.144456 -0.660385 0
M  V30 8568 H 851.95 -1.0496 -1.76557 0
M  V30 8569 H 850.18 0.438528 -3.84205 0
M  V30 8570 H 851.869 0.0797428 -4.05822 0
M  V30 8571 H 852.635 -2.39872 -4.21529 0
M  V30 8572 H 848.514 -1.19562 -4.45226 0
M  V30 8573 H 852.058 -4.54377 -5.29327 0
M  V30 8574 H 847.955 -3.33177 -5.52869 0
M  V30 8575 H 848.723 -5.27513 -6.25837 0
M  V30 8576 N 851.386 1.48609 -0.524698 0
M  V30 8577 C 852.632 2.034 0.00323579 0
M  V30 8578 C 852.987 1.39513 1.32491 0
M  V30 8579 O 852.28 0.529876 1.84127 0
M  V30 8580 C 852.474 3.56906 0.187873 0
M  V30 8581 C 852.303 4.35674 -1.11436 0
M  V30 8582 C 851.073 4.76809 -1.67276 0
M  V30 8583 C 853.271 4.72814 -2.02365 0
M  V30 8584 N 851.253 5.40093 -2.91843 0
M  V30 8585 C 852.624 5.36062 -3.11508 0
M  V30 8586 C 854.679 4.54747 -2.02755 0
M  V30 8587 C 853.382 5.83154 -4.21099 0
M  V30 8588 C 855.408 5.02815 -3.11337 0
M  V30 8589 C 854.77 5.66084 -4.19199 0
M  V30 8590 H 850.869 0.780967 -0.0401842 0
M  V30 8591 H 853.453 1.81495 -0.704808 0
M  V30 8592 H 851.624 3.78645 0.864996 0
M  V30 8593 H 853.356 3.98335 0.714938 0
M  V30 8594 H 850.111 4.57754 -1.21483 0
M  V30 8595 H 850.535 5.76305 -3.55249 0
M  V30 8596 H 855.177 4.05217 -1.20661 0
M  V30 8597 H 852.895 6.31692 -5.03975 0
M  V30 8598 H 856.481 4.9063 -3.12688 0
M  V30 8599 H 855.361 6.02604 -5.01834 0
M  V30 8600 N 852.864 0.259585 1.55447 0
M  V30 8601 C 854.11 -0.362143 1.9954 0
M  V30 8602 C 854.443 -1.5666 1.14767 0
M  V30 8603 O 853.718 -1.93319 0.214025 0
M  V30 8604 C 854.001 -0.759588 3.51998 0
M  V30 8605 C 853.854 0.451134 4.47532 0
M  V30 8606 C 855.173 -1.60186 4.09913 0
M  V30 8607 H 852.292 -0.130157 0.725416 0
M  V30 8608 H 854.934 0.363431 1.86492 0
M  V30 8609 H 853.084 -1.3778 3.63248 0
M  V30 8610 H 854.756 1.08965 4.48246 0
M  V30 8611 H 852.999 1.092 4.19831 0
M  V30 8612 H 853.67 0.129518 5.51848 0
M  V30 8613 H 856.146 -1.0799 4.01842 0
M  V30 8614 H 855.022 -1.84879 5.16828 0
M  V30 8615 H 855.283 -2.57787 3.59163 0
M  V30 8616 N 854.342 -1.57594 -0.0133615 0
M  V30 8617 C 855.619 -1.81173 -0.737273 0
M  V30 8618 C 855.999 -0.861395 -1.92726 0
M  V30 8619 O 855.347 0.0929324 -2.28311 0
M  V30 8620 C 855.557 -3.29314 -1.15557 0
M  V30 8621 C 856.905 -3.94707 -1.56498 0
M  V30 8622 O 857.929 -3.33557 -1.24973 0
M  V30 8623 O 856.788 -5.02402 -2.15069 0
M  V30 8624 H 853.882 -0.745575 -0.357837 0
M  V30 8625 H 856.428 -1.69696 0.0110674 0
M  V30 8626 H 855.2 -3.90096 -0.30677 0
M  V30 8627 H 854.823 -3.45739 -1.96343 0
M  V30 8628 N 855.82 0.285905 -1.54985 0
M  V30 8629 C 857.045 1.04207 -1.7932 0
M  V30 8630 C 857.47 1.79622 -0.558343 0
M  V30 8631 O 856.828 1.74506 0.491661 0
M  V30 8632 C 856.876 1.98648 -3.0095 0
M  V30 8633 O 855.98 3.07207 -2.75132 0
M  V30 8634 H 855.321 0.298596 -0.593074 0
M  V30 8635 H 857.851 0.318736 -2.02102 0
M  V30 8636 H 857.861 2.4084 -3.29333 0
M  V30 8637 H 856.536 1.43167 -3.90482 0
M  V30 8638 H 855.113 2.69423 -2.57809 0
M  V30 8639 N 857.298 1.47698 0.54982 0
M  V30 8640 C 858.245 1.60739 1.65625 0
M  V30 8641 C 859.215 0.450129 1.59884 0
M  V30 8642 O 860.4 0.671123 1.78607 0
M  V30 8643 C 857.54 1.63457 3.03934 0
M  V30 8644 C 856.653 2.90152 3.20056 0
M  V30 8645 C 855.788 2.84157 4.48807 0
M  V30 8646 C 854.827 4.05644 4.58387 0
M  V30 8647 N 853.964 3.97843 5.78503 0
M  V30 8648 H 858.804 2.55234 1.53817 0
M  V30 8649 H 856.341 1.26593 0.749173 0
M  V30 8650 H 858.299 1.63015 3.84034 0
M  V30 8651 H 856.929 0.724689 3.1456 0
M  V30 8652 H 855.981 3.00428 2.33339 0
M  V30 8653 H 857.293 3.80097 3.22998 0
M  V30 8654 H 856.447 2.82006 5.37175 0
M  V30 8655 H 855.186 1.91908 4.48356 0
M  V30 8656 H 854.191 4.08092 3.6843 0
M  V30 8657 H 855.416 4.9903 4.60593 0
M  V30 8658 H 853.362 3.08401 5.78986 0
M  V30 8659 H 853.279 4.81473 5.82855 0
M  V30 8660 H 854.547 3.99719 6.69212 0
M  V30 8661 N 858.776 -0.797141 1.35954 0
M  V30 8662 C 859.706 -1.92387 1.32323 0
M  V30 8663 C 860.687 -1.68967 0.196007 0
M  V30 8664 O 861.872 -1.90193 0.39245 0
M  V30 8665 C 859.002 -3.29286 1.10398 0
M  V30 8666 C 857.956 -3.67212 2.19862 0
M  V30 8667 C 857.282 -5.02377 1.8309 0
M  V30 8668 C 858.582 -3.76602 3.61896 0
M  V30 8669 H 860.276 -1.95683 2.26602 0
M  V30 8670 H 857.822 -0.94007 1.09081 0
M  V30 8671 H 859.775 -4.07721 1.06495 0
M  V30 8672 H 858.499 -3.26358 0.125668 0
M  V30 8673 H 857.158 -2.91069 2.22878 0
M  V30 8674 H 856.806 -4.95961 0.838527 0
M  V30 8675 H 856.506 -5.28722 2.56372 0
M  V30 8676 H 858.03 -5.8324 1.80729 0
M  V30 8677 H 859.444 -4.45246 3.6115 0
M  V30 8678 H 857.841 -4.14425 4.34018 0
M  V30 8679 H 858.911 -2.77906 3.97361 0
M  V30 8680 N 860.254 -1.20106 -1.0204 0
M  V30 8681 C 861.204 -0.914145 -2.08872 0
M  V30 8682 C 862.188 0.124503 -1.60418 0
M  V30 8683 O 863.38 -0.0823521 -1.76808 0
M  V30 8684 C 860.509 -0.463897 -3.40151 0
M  V30 8685 C 859.595 -1.53576 -3.95317 0
M  V30 8686 N 859.986 -2.75726 -4.24038 0
M  V30 8687 C 858.284 -1.40103 -4.23423 0
M  V30 8688 C 858.985 -3.44838 -4.68468 0
M  V30 8689 N 857.961 -2.72245 -4.70514 0
M  V30 8690 H 861.763 -1.8424 -2.28982 0
M  V30 8691 H 859.277 -1.0945 -1.19977 0
M  V30 8692 H 861.274 -0.239766 -4.1621 0
M  V30 8693 H 859.934 0.457779 -3.21457 0
M  V30 8694 H 860.945 -3.12412 -4.13061 0
M  V30 8695 H 857.622 -0.543472 -4.13948 0
M  V30 8696 H 859.012 -4.49342 -4.99541 0
M  V30 8697 N 861.732 1.21287 -1.00634 0
M  V30 8698 C 862.957 1.94925 -0.708441 0
M  V30 8699 C 863.382 1.73659 0.722783 0
M  V30 8700 O 862.74 1.02429 1.49593 0
M  V30 8701 C 862.788 3.45377 -1.03667 0
M  V30 8702 O 861.892 4.12153 -0.142661 0
M  V30 8703 H 861.233 0.609338 -0.263824 0
M  V30 8704 H 863.763 1.54008 -1.34695 0
M  V30 8705 H 863.773 3.95954 -0.984086 0
M  V30 8706 H 862.448 3.6018 -2.0795 0
M  V30 8707 H 861.025 3.72048 -0.251888 0
M  V30 8708 N 863.21 0.781244 1.36873 0
M  V30 8709 C 864.459 0.34652 1.98701 0
M  V30 8710 C 864.772 -1.08555 1.62712 0
M  V30 8711 O 865.978 -1.62213 2.17713 0
M  V30 8712 C 864.434 0.568611 3.5538 0
M  V30 8713 C 864.042 2.01156 4.003 0
M  V30 8714 C 865.786 0.197983 4.24038 0
M  V30 8715 C 863.693 2.18074 5.49725 0
M  V30 8716 H 862.623 0.125821 0.743428 0
M  V30 8717 H 865.274 0.961721 1.56279 0
M  V30 8718 H 863.656 -0.116185 3.9583 0
M  V30 8719 H 864.83 2.73209 3.71071 0
M  V30 8720 H 863.145 2.33967 3.44454 0
M  V30 8721 H 865.742 0.302778 5.33842 0
M  V30 8722 H 866.085 -0.852927 4.07469 0
M  V30 8723 H 866.618 0.835696 3.88923 0
M  V30 8724 H 863.357 3.21519 5.71232 0
M  V30 8725 H 862.877 1.50517 5.80607 0
M  V30 8726 H 864.556 1.98393 6.15832 0
M  V30 8727 N 864.689 -1.48329 0.532571 0
M  V30 8728 C 865.914 -2.074 0.00147755 0
M  V30 8729 C 866.339 -1.38615 -1.27151 0
M  V30 8730 O 865.697 -0.452949 -1.75551 0
M  V30 8731 C 865.745 -3.60029 -0.202866 0
M  V30 8732 O 864.849 -3.92327 -1.27097 0
M  V30 8733 H 864.19 -0.662777 0.0402883 0
M  V30 8734 H 866.72 -1.90701 0.741224 0
M  V30 8735 H 866.73 -4.05783 -0.424722 0
M  V30 8736 H 865.405 -4.09496 0.727033 0
M  V30 8737 H 863.982 -3.58348 -1.03156 0
M  V30 8738 N 866.167 -0.267825 -1.55308 0
M  V30 8739 C 867.392 0.357487 -2.04296 0
M  V30 8740 C 867.817 1.49222 -1.14518 0
M  V30 8741 O 867.175 1.80741 -0.142292 0
M  V30 8742 C 867.223 0.822899 -3.51085 0
M  V30 8743 O 866.327 1.93078 -3.6441 0
M  V30 8744 H 865.668 0.075025 -0.659748 0
M  V30 8745 H 868.198 -0.399996 -2.00652 0
M  V30 8746 H 868.208 1.12059 -3.92309 0
M  V30 8747 H 866.883 -0.0073562 -4.15899 0
M  V30 8748 H 865.46 1.63618 -3.35087 0
M  V30 8749 N 867.645 1.57599 0.00500368 0
M  V30 8750 C 868.894 1.89528 0.690061 0
M  V30 8751 C 869.207 0.869451 1.75214 0
M  V30 8752 O 870.413 1.07879 2.49147 0
M  V30 8753 C 868.869 3.36425 1.27852 0
M  V30 8754 C 868.477 4.47293 0.251531 0
M  V30 8755 C 870.221 3.77471 1.94206 0
M  V30 8756 C 868.128 5.85264 0.8497 0
M  V30 8757 H 867.058 0.707201 0.2615 0
M  V30 8758 H 869.709 1.83418 -0.0547209 0
M  V30 8759 H 868.091 3.37356 2.07381 0
M  V30 8760 H 869.265 4.5787 -0.518796 0
M  V30 8761 H 867.58 4.15235 -0.311281 0
M  V30 8762 H 870.177 4.77884 2.39855 0
M  V30 8763 H 870.52 3.10722 2.77051 0
M  V30 8764 H 871.053 3.78817 1.21419 0
M  V30 8765 H 867.792 6.55472 0.0601408 0
M  V30 8766 H 867.312 5.78361 1.5893 0
M  V30 8767 H 868.991 6.32762 1.34984 0
M  V30 8768 N 869.123 -0.277682 1.55134 0
M  V30 8769 C 870.4 -1.0309 1.66228 0
M  V30 8770 C 870.78 -2.0445 0.525701 0
M  V30 8771 O 870.128 -2.23512 -0.474816 0
M  V30 8772 C 870.338 -1.6919 3.05247 0
M  V30 8773 C 871.686 -2.20526 3.62841 0
M  V30 8774 O 872.71 -1.79185 3.07849 0
M  V30 8775 O 871.569 -2.96342 4.59177 0
M  V30 8776 H 868.663 -0.4779 0.674937 0
M  V30 8777 H 871.209 -0.273912 1.67475 0
M  V30 8778 H 869.981 -0.957163 3.79413 0
M  V30 8779 H 869.604 -2.51587 3.07879 0
M  V30 8780 N 870.601 -1.47988 -0.541979 0
M  V30 8781 C 871.847 -1.55623 -1.30036 0
M  V30 8782 C 872.18 -0.224254 -1.92901 0
M  V30 8783 O 871.455 0.768629 -1.78668 0
M  V30 8784 C 871.738 -2.68562 -2.39888 0
M  V30 8785 C 871.591 -4.11426 -1.81792 0
M  V30 8786 C 872.91 -2.77325 -3.41729 0
M  V30 8787 H 870.029 -0.566498 -0.471433 0
M  V30 8788 H 872.671 -1.8011 -0.604998 0
M  V30 8789 H 870.821 -2.47814 -2.992 0
M  V30 8790 H 872.493 -4.43581 -1.26624 0
M  V30 8791 H 870.736 -4.18989 -1.12386 0
M  V30 8792 H 871.407 -4.8625 -2.61276 0
M  V30 8793 H 873.883 -2.96085 -2.92357 0
M  V30 8794 H 872.759 -3.58097 -4.16002 0
M  V30 8795 H 873.02 -1.84995 -4.01534 0
M  V30 8796 N 872.079 0.78992 -1.36375 0
M  V30 8797 C 873.027 1.92394 -1.30719 0
M  V30 8798 C 874.021 1.68226 -0.199076 0
M  V30 8799 O 875.227 1.76239 -0.366051 0
M  V30 8800 H 871.602 0.632382 -0.406936 0
M  V30 8801 H 873.573 1.94282 -2.26488 0
M  V30 8802 C 872.322 3.2941 -1.11284 0
M  V30 8803 H 871.645 3.48573 -1.95798 0
M  V30 8804 H 873.085 4.09111 -1.11373 0
M  V30 8805 C 871.544 3.36405 0.182543 0
M  V30 8806 O 872.074 3.84206 1.17255 0
M  V30 8807 N 870.28 2.89712 0.227046 0
M  V30 8808 H 869.827 2.51004 -0.579217 0
M  V30 8809 H 869.785 2.94773 1.09344 0
M  V30 8810 N 873.557 1.20646 1.01402 0
M  V30 8811 C 874.805 1.01618 1.74695 0
M  V30 8812 C 875.126 -0.452438 1.89679 0
M  V30 8813 O 874.396 -1.32693 1.44116 0
M  V30 8814 H 872.976 0.373013 0.647202 0
M  V30 8815 H 875.638 1.518 1.22241 0
M  V30 8816 H 874.734 1.47666 2.74957 0
M  V30 8817 N 875.035 -1.20752 1.01276 0
M  V30 8818 C 876.283 -1.89645 0.698505 0
M  V30 8819 C 876.604 -1.78986 -0.773883 0
M  V30 8820 O 875.874 -1.18977 -1.55632 0
M  V30 8821 H 874.454 -0.701992 0.255375 0
M  V30 8822 H 877.116 -1.46668 1.28353 0
M  V30 8823 H 876.212 -2.96364 0.978512 0
M  V30 8824 N 876.513 -0.788492 -1.36457 0
M  V30 8825 C 877.461 -0.174192 -2.31947 0
M  V30 8826 C 878.455 0.665974 -1.5576 0
M  V30 8827 O 879.661 0.561161 -1.71029 0
M  V30 8828 H 876.036 -0.0375538 -0.751062 0
M  V30 8829 H 878.007 -0.995011 -2.81322 0
M  V30 8830 C 876.756 0.677276 -3.4104 0
M  V30 8831 H 876.079 0.0401418 -3.9978 0
M  V30 8832 H 877.519 1.07379 -4.10178 0
M  V30 8833 C 875.978 1.83512 -2.82533 0
M  V30 8834 O 876.508 2.93164 -2.74623 0
M  V30 8835 N 874.714 1.64095 -2.39836 0
M  V30 8836 H 874.261 0.749046 -2.46469 0
M  V30 8837 H 874.219 2.41726 -2.01037 0
M  V30 8838 N 877.991 1.48044 -0.54043 0
M  V30 8839 C 879.407 1.58354 -0.199006 0
M  V30 8840 C 879.607 1.54118 1.29807 0
M  V30 8841 O 878.663 1.43573 2.07709 0
M  V30 8842 C 879.976 2.89563 -0.810797 0
M  V30 8843 C 881.524 3.03113 -0.780486 0
M  V30 8844 C 881.999 4.36997 -1.37104 0
M  V30 8845 N 883.49 4.43591 -1.33347 0
M  V30 8846 C 884.225 5.45714 -1.76021 0
M  V30 8847 N 883.721 6.54738 -2.26473 0
M  V30 8848 N 885.514 5.36659 -1.67194 0
M  V30 8849 H 877.665 1.49041 -1.51329 0
M  V30 8850 H 879.928 0.708309 -0.630081 0
M  V30 8851 H 879.634 2.9835 -1.86227 0
M  V30 8852 H 879.508 3.76053 -0.293977 0
M  V30 8853 H 881.895 2.93932 0.262246 0
M  V30 8854 H 881.976 2.18207 -1.33489 0
M  V30 8855 H 881.62 4.46932 -2.41276 0
M  V30 8856 H 881.55 5.20607 -0.792229 0
M  V30 8857 H 884.041 3.65391 -0.964259 0
M  V30 8858 H 884.354 7.28814 -2.57002 0
M  V30 8859 H 882.699 6.55673 -2.30473 0
M  V30 8860 H 885.89 4.50382 -1.27569 0
M  V30 8861 H 886.063 6.16113 -2.00771 0
M  V30 8862 N 879.47 0.276058 1.55163 0
M  V30 8863 C 880.417 -0.611006 2.22565 0
M  V30 8864 C 881.387 -1.14902 1.19945 0
M  V30 8865 O 882.572 -1.19815 1.48489 0
M  V30 8866 C 879.712 -1.78885 2.95117 0
M  V30 8867 C 878.825 -1.2846 4.12458 0
M  V30 8868 C 877.96 -2.42432 4.72652 0
M  V30 8869 C 876.999 -1.89015 5.82185 0
M  V30 8870 N 876.136 -2.96463 6.36439 0
M  V30 8871 H 880.976 -0.0295849 2.97985 0
M  V30 8872 H 878.513 -0.00283607 1.471 0
M  V30 8873 H 880.471 -2.48121 3.35398 0
M  V30 8874 H 879.101 -2.34229 2.22119 0
M  V30 8875 H 878.153 -0.485312 3.77292 0
M  V30 8876 H 879.465 -0.853358 4.91446 0
M  V30 8877 H 878.619 -3.19659 5.15658 0
M  V30 8878 H 877.358 -2.88872 3.92943 0
M  V30 8879 H 876.363 -1.10267 5.38629 0
M  V30 8880 H 877.588 -1.43509 6.63763 0
M  V30 8881 H 875.534 -3.42283 5.59623 0
M  V30 8882 H 875.451 -2.57759 7.10701 0
M  V30 8883 H 876.719 -3.73663 6.84103 0
M  V30 8884 N 880.948 -1.576 0.00335426 0
M  V30 8885 C 882.176 -1.94996 -0.691685 0
M  V30 8886 C 882.591 -0.878405 -1.67121 0
M  V30 8887 O 881.948 0.142343 -1.81944 0
M  V30 8888 C 881.999 -3.32416 -1.42063 0
M  V30 8889 O 881.72 -4.35458 -0.48038 0
M  V30 8890 C 883.221 -3.84291 -2.20987 0
M  V30 8891 H 880.441 -0.642814 -0.192434 0
M  V30 8892 H 882.985 -2.04425 0.0554706 0
M  V30 8893 H 881.14 -3.24285 -2.11939 0
M  V30 8894 H 881.554 -5.14975 -0.995054 0
M  V30 8895 H 883.028 -4.82863 -2.67483 0
M  V30 8896 H 883.505 -3.17174 -3.03805 0
M  V30 8897 H 884.111 -3.95609 -1.56121 0
M  V30 8898 N 882.426 0.269451 -1.5528 0
M  V30 8899 C 883.675 0.998381 -1.75258 0
M  V30 8900 C 883.988 1.87321 -0.563034 0
M  V30 8901 O 885.194 2.63719 -0.645313 0
M  V30 8902 C 883.65 1.82505 -3.10193 0
M  V30 8903 C 883.258 0.99871 -4.36726 0
M  V30 8904 C 885.002 2.54807 -3.3952 0
M  V30 8905 C 882.909 1.81997 -5.627 0
M  V30 8906 H 881.839 0.376488 -0.653278 0
M  V30 8907 H 884.49 0.253909 -1.81735 0
M  V30 8908 H 882.872 2.61061 -2.97763 0
M  V30 8909 H 884.046 0.257064 -4.60082 0
M  V30 8910 H 882.361 0.390074 -4.14569 0
M  V30 8911 H 884.958 3.16662 -4.30847 0
M  V30 8912 H 885.301 3.25273 -2.59813 0
M  V30 8913 H 885.834 1.83278 -3.53064 0
M  V30 8914 H 882.573 1.15945 -6.45164 0
M  V30 8915 H 882.093 2.53749 -5.43481 0
M  V30 8916 H 883.772 2.39274 -6.0113 0
M  V30 8917 N 883.904 1.48273 0.534124 0
M  V30 8918 C 884.834 1.6538 1.64839 0
M  V30 8919 C 885.815 0.502741 1.62501 0
M  V30 8920 O 887 0.734799 1.79762 0
M  V30 8921 C 884.13 1.68949 3.03436 0
M  V30 8922 C 883.084 2.83513 3.20631 0
M  V30 8923 C 882.41 2.72169 4.60248 0
M  V30 8924 C 883.71 4.24858 3.03797 0
M  V30 8925 H 885.404 2.58663 1.50777 0
M  V30 8926 H 882.95 1.24479 0.723937 0
M  V30 8927 H 884.903 1.79505 3.81256 0
M  V30 8928 H 883.627 0.722415 3.1851 0
M  V30 8929 H 882.286 2.72505 2.45227 0
M  V30 8930 H 881.934 1.7344 4.72152 0
M  V30 8931 H 881.634 3.49042 4.72698 0
M  V30 8932 H 883.158 2.84687 5.40172 0
M  V30 8933 H 884.572 4.36721 3.71413 0
M  V30 8934 H 882.969 5.02697 3.27743 0
M  V30 8935 H 884.039 4.41611 2.0027 0
M  V30 8936 N 885.382 -0.782676 1.36792 0
M  V30 8937 C 886.292 -1.92679 1.33835 0
M  V30 8938 C 887.308 -1.72344 0.23952 0
M  V30 8939 O 888.484 -1.95766 0.473045 0
M  V30 8940 C 885.549 -3.27644 1.1336 0
M  V30 8941 C 884.61 -3.6071 2.32781 0
M  V30 8942 C 883.843 -4.89234 2.13273 0
M  V30 8943 O 884.066 -5.59468 1.11136 0
M  V30 8944 O 883 -5.21112 3.01208 0
M  V30 8945 H 886.826 -1.98124 2.30175 0
M  V30 8946 H 884.411 -0.923887 1.17408 0
M  V30 8947 H 886.293 -4.08394 1.03886 0
M  V30 8948 H 884.968 -3.23076 0.200868 0
M  V30 8949 H 883.875 -2.80238 2.47825 0
M  V30 8950 H 885.208 -3.70008 3.24584 0
M  V30 8951 N 886.86 -1.21182 -1.00761 0
M  V30 8952 C 888.137 -0.936297 -1.71735 0
M  V30 8953 C 888.517 0.552585 -2.03739 0
M  V30 8954 O 887.865 1.51672 -1.70903 0
M  V30 8955 C 888.075 -1.81867 -2.97868 0
M  V30 8956 C 889.423 -2.06594 -3.7095 0
M  V30 8957 O 890.447 -1.79194 -3.07844 0
M  V30 8958 O 889.306 -2.5292 -4.84452 0
M  V30 8959 H 886.4 -0.350867 -0.74888 0
M  V30 8960 H 888.946 -1.32098 -1.06527 0
M  V30 8961 H 887.718 -2.82643 -2.70607 0
M  V30 8962 H 887.341 -1.43463 -3.70815 0
M  V30 8963 N 888.338 1.20213 -1.01915 0
M  V30 8964 C 889.248 2.26763 -0.601311 0
M  V30 8965 C 890.264 1.70185 0.362369 0
M  V30 8966 O 891.44 2.00165 0.222682 0
M  V30 8967 C 888.505 3.46662 0.0512879 0
M  V30 8968 C 887.566 4.18459 -0.958659 0
M  V30 8969 C 886.799 5.32634 -0.337107 0
M  V30 8970 O 887.022 5.63841 0.86251 0
M  V30 8971 O 885.956 5.9258 -1.05511 0
M  V30 8972 H 889.782 2.64725 -1.48844 0
M  V30 8973 H 887.367 1.2688 -0.788784 0
M  V30 8974 H 889.249 4.19345 0.41564 0
M  V30 8975 H 887.924 3.1057 0.912572 0
M  V30 8976 H 886.831 3.47937 -1.37442 0
M  V30 8977 H 888.164 4.58498 -1.78999 0
M  V30 8978 N 889.816 0.795718 1.36037 0
M  V30 8979 C 890.763 0.196548 2.29962 0
M  V30 8980 C 891.733 -0.663213 1.52285 0
M  V30 8981 O 892.918 -0.610574 1.80767 0
M  V30 8982 C 890.058 -0.657639 3.38776 0
M  V30 8983 C 889.171 0.221358 4.31433 0
M  V30 8984 C 888.306 -0.6398 5.27333 0
M  V30 8985 C 887.345 0.240265 6.11628 0
M  V30 8986 N 886.482 -0.580237 6.99698 0
M  V30 8987 H 891.322 1.00295 2.80615 0
M  V30 8988 H 888.859 0.506147 1.38118 0
M  V30 8989 H 890.817 -1.16793 4.00519 0
M  V30 8990 H 889.447 -1.42941 2.89426 0
M  V30 8991 H 888.499 0.84967 3.70789 0
M  V30 8992 H 889.811 0.899195 4.90628 0
M  V30 8993 H 888.965 -1.21566 5.94396 0
M  V30 8994 H 887.704 -1.35124 4.68607 0
M  V30 8995 H 886.709 0.828474 5.43522 0
M  V30 8996 H 887.934 0.949403 6.72431 0
M  V30 8997 H 885.88 -1.27585 6.43473 0
M  V30 8998 H 885.797 0.0397853 7.5599 0
M  V30 8999 H 887.065 -1.13972 7.71123 0
M  V30 9000 N 891.294 -1.47756 0.548274 0
M  V30 9001 C 892.71 -1.58247 0.207401 0
M  V30 9002 C 892.91 -1.54804 -1.28988 0
M  V30 9003 O 891.966 -1.44673 -2.06944 0
M  V30 9004 C 893.279 -2.89129 0.826142 0
M  V30 9005 C 894.827 -3.02695 0.79655 0
M  V30 9006 C 895.302 -4.36264 1.3942 0
M  V30 9007 N 896.793 -4.42877 1.35698 0
M  V30 9008 C 897.528 -5.44773 1.78913 0
M  V30 9009 N 897.024 -6.53528 2.29942 0
M  V30 9010 N 898.817 -5.35765 1.70038 0
M  V30 9011 H 890.968 -1.48236 1.52117 0
M  V30 9012 H 893.231 -0.704957 0.633829 0
M  V30 9013 H 892.937 -2.97358 1.87806 0
M  V30 9014 H 892.811 -3.75891 0.313916 0
M  V30 9015 H 895.198 -2.94067 -0.246655 0
M  V30 9016 H 895.279 -2.17496 1.34644 0
M  V30 9017 H 894.923 -4.45646 2.43642 0
M  V30 9018 H 894.853 -5.20179 0.819827 0
M  V30 9019 H 897.344 -3.64874 0.983623 0
M  V30 9020 H 897.657 -7.27441 2.60863 0
M  V30 9021 H 896.002 -6.54442 2.33947 0
M  V30 9022 H 899.193 -4.49699 1.29955 0
M  V30 9023 H 899.366 -6.1504 2.04035 0
M  V30 9024 N 892.772 -0.284283 -1.55015 0
M  V30 9025 C 893.702 0.592663 -2.25853 0
M  V30 9026 C 894.683 1.15151 -1.25197 0
M  V30 9027 O 895.868 1.18395 -1.53936 0
M  V30 9028 C 892.998 1.77254 -2.98661 0
M  V30 9029 C 891.952 1.34482 -4.06323 0
M  V30 9030 C 891.278 2.60853 -4.66754 0
M  V30 9031 C 892.578 0.488288 -5.20013 0
M  V30 9032 H 894.272 0.00187041 -2.994 0
M  V30 9033 H 891.818 -0.000540402 -1.44 0
M  V30 9034 H 893.771 2.39199 -3.46932 0
M  V30 9035 H 892.495 2.38931 -2.22664 0
M  V30 9036 H 891.154 0.748519 -3.58877 0
M  V30 9037 H 890.802 3.20808 -3.87416 0
M  V30 9038 H 890.502 2.32942 -5.39455 0
M  V30 9039 H 892.026 3.23631 -5.1778 0
M  V30 9040 H 893.44 1.01298 -5.6428 0
M  V30 9041 H 891.837 0.303669 -5.99331 0
M  V30 9042 H 892.907 -0.490727 -4.8241 0
M  V30 9043 N 894.251 1.57596 -0.0117121 0
M  V30 9044 C 895.214 2.08089 0.960816 0
M  V30 9045 C 896.214 0.992519 1.26514 0
M  V30 9046 O 897.404 1.25475 1.20837 0
M  V30 9047 C 894.536 2.53217 2.28241 0
M  V30 9048 H 895.729 2.9529 0.523829 0
M  V30 9049 H 893.282 1.54508 0.235995 0
M  V30 9050 H 894.017 1.69294 2.76604 0
M  V30 9051 H 893.802 3.32714 2.0747 0
M  V30 9052 H 895.292 2.92568 2.97983 0
M  V30 9053 N 895.729 -0.261212 1.5542 0
M  V30 9054 C 896.679 -1.32571 1.85496 0
M  V30 9055 C 897.663 -1.44155 0.714722 0
M  V30 9056 O 898.855 -1.47637 0.976336 0
M  V30 9057 C 895.984 -2.68384 2.14067 0
M  V30 9058 C 895.07 -2.60864 3.34381 0
M  V30 9059 N 895.461 -2.22967 4.54004 0
M  V30 9060 C 893.759 -2.91904 3.37206 0
M  V30 9061 C 894.46 -2.25727 5.36118 0
M  V30 9062 N 893.436 -2.64667 4.74818 0
M  V30 9063 H 897.238 -1.02298 2.75522 0
M  V30 9064 H 894.752 -0.469849 1.55455 0
M  V30 9065 H 896.749 -3.45189 2.33774 0
M  V30 9066 H 895.409 -2.99536 1.25332 0
M  V30 9067 H 896.42 -1.94748 4.79889 0
M  V30 9068 H 893.097 -3.2769 2.587 0
M  V30 9069 H 894.487 -1.98889 6.41789 0
M  V30 9070 N 897.207 -1.48554 -0.526253 0
M  V30 9071 C 898.618 -1.50256 -1.10815 0
M  V30 9072 C 898.969 -0.274445 -1.94271 0
M  V30 9073 O 898.094 0.618094 -2.07385 0
M  V30 9074 C 898.689 -2.72264 -2.01638 0
M  V30 9075 C 897.248 -2.76826 -2.55038 0
M  V30 9076 C 896.395 -2.43823 -1.32081 0
M  V30 9077 H 899.346 -1.55616 -0.31133 0
M  V30 9078 H 899.367 -2.50993 -2.85977 0
M  V30 9079 H 898.879 -3.61632 -1.4087 0
M  V30 9080 H 896.98 -1.91676 -3.19517 0
M  V30 9081 H 897.093 -3.78351 -2.93917 0
M  V30 9082 H 895.457 -1.95058 -1.63781 0
M  V30 9083 H 896.24 -3.35436 -0.730596 0
M  V30 9084 N 898.685 0.775411 -1.37205 0
M  V30 9085 C 899.932 1.53384 -1.32211 0
M  V30 9086 C 900.26 1.9427 0.0944958 0
M  V30 9087 O 899.515 1.64059 1.06692 0
M  V30 9088 C 899.814 2.81377 -2.20367 0
M  V30 9089 C 899.48 2.59561 -3.68699 0
M  V30 9090 C 898.142 2.53319 -4.09124 0
M  V30 9091 C 900.494 2.39939 -4.62686 0
M  V30 9092 C 897.822 2.25442 -5.41658 0
M  V30 9093 C 900.174 2.13586 -5.95453 0
M  V30 9094 C 898.838 2.05786 -6.34987 0
M  V30 9095 H 898.108 0.561271 -0.483793 0
M  V30 9096 H 900.755 0.893466 -1.6938 0
M  V30 9097 H 899.06 3.49954 -1.76181 0
M  V30 9098 H 900.757 3.39238 -2.13819 0
M  V30 9099 H 897.347 2.6528 -3.36637 0
M  V30 9100 H 901.531 2.43753 -4.32317 0
M  V30 9101 H 896.787 2.17896 -5.71254 0
M  V30 9102 H 900.961 1.97401 -6.67837 0
M  V30 9103 H 898.588 1.83948 -7.37609 0
M  V30 9104 N 900.163 1.21714 1.00117 0
M  V30 9105 C 901.388 1.06357 1.78054 0
M  V30 9106 C 901.813 -0.382075 1.84179 0
M  V30 9107 O 901.171 -1.27575 1.28819 0
M  V30 9108 C 901.219 1.66982 3.19608 0
M  V30 9109 O 900.323 0.917892 4.02055 0
M  V30 9110 H 899.664 0.374074 0.548602 0
M  V30 9111 H 902.194 1.61338 1.25822 0
M  V30 9112 H 902.204 1.71363 3.70268 0
M  V30 9113 H 900.879 2.72185 3.14465 0
M  V30 9114 H 899.456 0.949473 3.6061 0
M  V30 9115 N 901.641 -1.19671 1.02551 0
M  V30 9116 C 902.571 -2.25009 0.623965 0
M  V30 9117 C 903.552 -1.66129 -0.36538 0
M  V30 9118 O 904.737 -1.92599 -0.248842 0
M  V30 9119 C 901.867 -3.47287 -0.0294869 0
M  V30 9120 C 900.821 -4.18818 0.881781 0
M  V30 9121 C 900.147 -5.34618 0.0936189 0
M  V30 9122 C 901.447 -4.73986 2.19396 0
M  V30 9123 H 903.141 -2.58851 1.50454 0
M  V30 9124 H 900.687 -1.24425 0.724872 0
M  V30 9125 H 902.64 -4.20168 -0.322016 0
M  V30 9126 H 901.364 -3.12635 -0.944838 0
M  V30 9127 H 900.023 -3.47815 1.15845 0
M  V30 9128 H 899.671 -4.9621 -0.823661 0
M  V30 9129 H 899.371 -5.83409 0.700568 0
M  V30 9130 H 900.895 -6.10297 -0.192249 0
M  V30 9131 H 902.309 -5.38639 1.96319 0
M  V30 9132 H 900.706 -5.3325 2.75254 0
M  V30 9133 H 901.776 -3.92238 2.85092 0
M  V30 9134 N 903.119 -0.802921 -1.35613 0
M  V30 9135 C 904.082 -0.216422 -2.28176 0
M  V30 9136 C 905.082 0.594101 -1.49422 0
M  V30 9137 O 906.272 0.41312 -1.6923 0
M  V30 9138 C 903.404 0.698746 -3.33662 0
M  V30 9139 H 904.597 -1.03276 -2.81557 0
M  V30 9140 H 902.15 -0.573307 -1.45406 0
M  V30 9141 H 902.885 1.53891 -2.85461 0
M  V30 9142 H 902.67 0.119314 -3.91918 0
M  V30 9143 H 904.16 1.10354 -4.02755 0
M  V30 9144 N 904.597 1.47463 -0.556102 0
M  V30 9145 C 905.843 2.02775 -0.0316806 0
M  V30 9146 C 906.176 1.42967 1.3143 0
M  V30 9147 O 905.451 0.584847 1.85499 0
M  V30 9148 C 905.734 3.60046 0.0625742 0
M  V30 9149 C 905.587 4.30288 -1.31043 0
M  V30 9150 C 906.906 4.33195 0.776553 0
M  V30 9151 H 904.025 0.736886 -0.0129869 0
M  V30 9152 H 906.667 1.75904 -0.718177 0
M  V30 9153 H 904.817 3.83071 0.647231 0
M  V30 9154 H 906.489 4.18607 -1.9382 0
M  V30 9155 H 904.732 3.90685 -1.8854 0
M  V30 9156 H 905.403 5.38861 -1.1972 0
M  V30 9157 H 907.879 4.15156 0.280147 0
M  V30 9158 H 906.755 5.42869 0.81146 0
M  V30 9159 H 907.016 4.02336 1.83244 0
M  V30 9160 N 906.075 0.2925 1.54862 0
M  V30 9161 C 907.322 -0.319263 1.99967 0
M  V30 9162 C 907.65 -1.54547 1.18092 0
M  V30 9163 O 906.905 -1.94186 0.242969 0
M  V30 9164 C 907.204 -0.728674 3.49893 0
M  V30 9165 C 906.87 0.394836 4.49168 0
M  V30 9166 C 905.532 0.703289 4.76033 0
M  V30 9167 C 907.884 1.15103 5.08331 0
M  V30 9168 C 905.212 1.77121 5.59325 0
M  V30 9169 C 907.564 2.20881 5.92785 0
M  V30 9170 C 906.228 2.52342 6.17964 0
M  V30 9171 H 905.498 -0.116827 0.731733 0
M  V30 9172 H 908.145 0.40983 1.87063 0
M  V30 9173 H 906.45 -1.53772 3.60363 0
M  V30 9174 H 908.147 -1.21305 3.82212 0
M  V30 9175 H 904.737 0.144319 4.28357 0
M  V30 9176 H 908.921 0.92599 4.87585 0
M  V30 9177 H 904.177 2.01978 5.77074 0
M  V30 9178 H 908.351 2.79939 6.37657 0
M  V30 9179 H 905.978 3.35225 6.82296 0
M  V30 9180 N 907.553 -1.57587 0.0200696 0
M  V30 9181 C 908.463 -2.13119 -0.980676 0
M  V30 9182 C 909.479 -1.08124 -1.36328 0
M  V30 9183 O 910.655 -1.40134 -1.44653 0
M  V30 9184 C 907.72 -2.63991 -2.24743 0
M  V30 9185 C 906.781 -3.83667 -1.9261 0
M  V30 9186 C 906.014 -4.32103 -3.13246 0
M  V30 9187 O 906.237 -3.79758 -4.25606 0
M  V30 9188 O 905.171 -5.24047 -2.96072 0
M  V30 9189 H 908.997 -2.98887 -0.538528 0
M  V30 9190 H 906.582 -1.48055 -0.19999 0
M  V30 9191 H 908.464 -2.9682 -2.99125 0
M  V30 9192 H 907.139 -1.81311 -2.68157 0
M  V30 9193 H 906.046 -3.55778 -1.15641 0
M  V30 9194 H 907.379 -4.67482 -1.54019 0
M  V30 9195 N 909.032 0.252966 -1.55557 0
M  V30 9196 C 910.309 1.00432 -1.67847 0
M  V30 9197 C 910.689 2.03587 -0.55816 0
M  V30 9198 O 910.037 2.24239 0.439197 0
M  V30 9199 C 910.247 1.64313 -3.079 0
M  V30 9200 C 911.595 2.14726 -3.66303 0
M  V30 9201 O 912.619 1.74264 -3.10661 0
M  V30 9202 O 911.478 2.89 -4.63833 0
M  V30 9203 H 908.572 0.467102 -0.682455 0
M  V30 9204 H 911.118 0.247233 -1.67889 0
M  V30 9205 H 909.89 0.896681 -3.80888 0
M  V30 9206 H 909.513 2.46657 -3.11843 0
M  V30 9207 N 910.51 1.48831 0.518367 0
M  V30 9208 C 911.457 1.64216 1.62178 0
M  V30 9209 C 912.427 0.483942 1.58894 0
M  V30 9210 O 913.612 0.708857 1.77144 0
M  V30 9211 C 910.752 1.69867 3.00399 0
M  V30 9212 C 909.865 2.96875 3.1383 0
M  V30 9213 C 909 2.93613 4.42679 0
M  V30 9214 C 908.039 4.15276 4.4968 0
M  V30 9215 N 907.176 4.10024 5.69934 0
M  V30 9216 H 912.016 2.58439 1.48368 0
M  V30 9217 H 909.553 1.28154 0.722152 0
M  V30 9218 H 911.511 1.71124 3.8049 0
M  V30 9219 H 910.141 0.791249 3.12952 0
M  V30 9220 H 909.193 3.0531 2.26914 0
M  V30 9221 H 910.505 3.86863 3.14863 0
M  V30 9222 H 909.659 2.93337 5.31073 0
M  V30 9223 H 908.398 2.01375 4.44184 0
M  V30 9224 H 907.403 4.15816 3.59691 0
M  V30 9225 H 908.628 5.08687 4.49904 0
M  V30 9226 H 906.574 3.20613 5.72314 0
M  V30 9227 H 906.491 4.93728 5.72511 0
M  V30 9228 H 907.759 4.13824 6.60583 0
M  V30 9229 N 911.988 -0.768124 1.37614 0
M  V30 9230 C 913.234 -1.52907 1.33219 0
M  V30 9231 C 913.567 -1.94026 -0.0821218 0
M  V30 9232 O 912.842 -1.64345 -1.04023 0
M  V30 9233 C 913.125 -2.79164 2.27463 0
M  V30 9234 C 912.978 -2.44276 3.7769 0
M  V30 9235 C 914.297 -3.81115 2.20089 0
M  V30 9236 H 911.416 -0.554712 0.485246 0
M  V30 9237 H 914.058 -0.880911 1.68345 0
M  V30 9238 H 912.208 -3.34472 1.97639 0
M  V30 9239 H 913.88 -1.94855 4.18126 0
M  V30 9240 H 912.123 -1.76925 3.96081 0
M  V30 9241 H 912.794 -3.34544 4.39072 0
M  V30 9242 H 915.27 -3.35311 2.46386 0
M  V30 9243 H 914.146 -4.67174 2.88166 0
M  V30 9244 H 914.407 -4.25644 1.19498 0
M  V30 9245 N 913.466 -1.22244 -0.994698 0
M  V30 9246 C 914.713 -1.04591 -1.73398 0
M  V30 9247 C 915.041 0.419223 -1.89928 0
M  V30 9248 O 914.296 1.32714 -1.43824 0
M  V30 9249 C 914.595 -1.70014 -3.14372 0
M  V30 9250 C 914.261 -3.19903 -3.17762 0
M  V30 9251 C 912.923 -3.60803 -3.18394 0
M  V30 9252 C 915.275 -4.15851 -3.14194 0
M  V30 9253 C 912.603 -4.96135 -3.13157 0
M  V30 9254 C 914.955 -5.51157 -3.10498 0
M  V30 9255 C 913.619 -5.91439 -3.09445 0
M  V30 9256 H 912.889 -0.382725 -0.63451 0
M  V30 9257 H 915.536 -1.51981 -1.16508 0
M  V30 9258 H 913.841 -1.14945 -3.7456 0
M  V30 9259 H 915.538 -1.53848 -3.70313 0
M  V30 9260 H 912.128 -2.87336 -3.18019 0
M  V30 9261 H 916.312 -3.85272 -3.12857 0
M  V30 9262 H 911.568 -5.26578 -3.10685 0
M  V30 9263 H 915.742 -6.2523 -3.06692 0
M  V30 9264 H 913.369 -6.96271 -3.05141 0
M  V30 9265 N 914.944 1.19125 -1.03184 0
M  V30 9266 C 916.19 1.89428 -0.740857 0
M  V30 9267 C 916.545 1.78302 0.72291 0
M  V30 9268 O 915.838 1.16656 1.51994 0
M  V30 9269 C 916.032 3.39052 -1.13041 0
M  V30 9270 C 915.861 3.64739 -2.6305 0
M  V30 9271 C 914.631 3.82603 -3.30066 0
M  V30 9272 C 916.829 3.66052 -3.61262 0
M  V30 9273 N 914.811 3.95947 -4.69147 0
M  V30 9274 C 916.182 3.85003 -4.85976 0
M  V30 9275 C 918.237 3.49093 -3.55019 0
M  V30 9276 C 916.94 3.88753 -6.05197 0
M  V30 9277 C 918.966 3.54122 -4.73658 0
M  V30 9278 C 918.328 3.73561 -5.97187 0
M  V30 9279 H 914.427 0.71217 -0.323014 0
M  V30 9280 H 917.011 1.43146 -1.31974 0
M  V30 9281 H 915.182 3.8405 -0.579699 0
M  V30 9282 H 916.914 3.96887 -0.791369 0
M  V30 9283 H 913.669 3.81615 -2.80476 0
M  V30 9284 H 914.093 4.06461 -5.41404 0
M  V30 9285 H 918.735 3.33018 -2.60497 0
M  V30 9286 H 916.453 4.03619 -7.00084 0
M  V30 9287 H 920.039 3.42286 -4.70459 0
M  V30 9288 H 918.919 3.7733 -6.87453 0
M  V30 9289 N 916.422 0.810101 1.35185 0
M  V30 9290 C 917.65 0.404696 2.02903 0
M  V30 9291 C 918.065 -0.985434 1.61042 0
M  V30 9292 O 917.422 -1.63557 0.809658 0
M  V30 9293 C 917.473 0.482493 3.58266 0
M  V30 9294 O 917.194 1.81782 3.98606 0
M  V30 9295 C 918.695 0.070345 4.43244 0
M  V30 9296 H 915.915 0.163972 0.650657 0
M  V30 9297 H 918.459 1.0947 1.72733 0
M  V30 9298 H 916.614 -0.159296 3.87072 0
M  V30 9299 H 917.028 1.78306 4.93262 0
M  V30 9300 H 918.502 0.175888 5.5172 0
M  V30 9301 H 918.979 -0.984724 4.28018 0
M  V30 9302 H 919.585 0.685427 4.1974 0
M  V30 9303 N 917.9 -1.47166 0.563914 0
M  V30 9304 C 919.177 -1.95586 -0.0236172 0
M  V30 9305 C 919.557 -1.50655 -1.47872 0
M  V30 9306 O 918.905 -0.748479 -2.15894 0
M  V30 9307 C 919.115 -3.48762 0.128841 0
M  V30 9308 C 920.463 -4.24598 -0.0130544 0
M  V30 9309 O 921.487 -3.56155 0.0567242 0
M  V30 9310 O 920.346 -5.46253 -0.164332 0
M  V30 9311 H 917.44 -0.824793 -0.0603789 0
M  V30 9312 H 919.986 -1.57536 0.63091 0
M  V30 9313 H 918.758 -3.74291 1.14113 0
M  V30 9314 H 918.381 -3.93594 -0.56299 0
M  V30 9315 N 919.378 -0.300708 -1.54705 0
M  V30 9316 C 920.627 0.309428 -1.99312 0
M  V30 9317 C 920.94 1.55027 -1.19272 0
M  V30 9318 O 922.146 2.23498 -1.54146 0
M  V30 9319 C 920.602 0.601856 -3.54832 0
M  V30 9320 C 920.21 -0.620636 -4.4368 0
M  V30 9321 C 921.954 1.1732 -4.07966 0
M  V30 9322 C 919.861 -0.301376 -5.90632 0
M  V30 9323 H 918.791 0.119395 -0.744487 0
M  V30 9324 H 921.442 -0.409368 -1.78875 0
M  V30 9325 H 919.824 1.38024 -3.71168 0
M  V30 9326 H 920.998 -1.39685 -4.39118 0
M  V30 9327 H 919.313 -1.1106 -4.01316 0
M  V30 9328 H 921.91 1.42631 -5.15326 0
M  V30 9329 H 922.253 2.11537 -3.5855 0
M  V30 9330 H 922.786 0.456534 -3.95172 0
M  V30 9331 H 919.525 -1.21209 -6.44196 0
M  V30 9332 H 919.045 0.437574 -5.98202 0
M  V30 9333 H 920.724 0.097164 -6.46927 0
M  V30 9334 N 920.856 1.57574 -0.0284266 0
M  V30 9335 C 922.105 1.9095 0.649704 0
M  V30 9336 C 922.418 0.906421 1.7333 0
M  V30 9337 O 923.624 1.1314 2.46803 0
M  V30 9338 C 922.08 3.39061 1.20687 0
M  V30 9339 C 921.688 4.47726 0.156597 0
M  V30 9340 C 923.432 3.81505 1.86156 0
M  V30 9341 C 921.339 5.86935 0.725365 0
M  V30 9342 H 920.269 0.712589 0.24644 0
M  V30 9343 H 922.92 1.83261 -0.0936143 0
M  V30 9344 H 921.302 3.41679 2.00178 0
M  V30 9345 H 922.476 4.56667 -0.6158 0
M  V30 9346 H 920.791 4.14481 -0.399288 0
M  V30 9347 H 923.388 4.82865 2.29665 0
M  V30 9348 H 923.731 3.16529 2.70398 0
M  V30 9349 H 924.264 3.81307 1.13356 0
M  V30 9350 H 921.003 6.55453 -0.0789081 0
M  V30 9351 H 920.523 5.81602 1.46627 0
M  V30 9352 H 922.202 6.35483 1.21532 0
M  V30 9353 N 922.334 -0.244713 1.55689 0
M  V30 9354 C 923.282 -1.32276 1.91326 0
M  V30 9355 C 924.276 -1.49714 0.792589 0
M  V30 9356 O 925.482 -1.51163 0.977227 0
M  V30 9357 H 921.857 -0.442979 0.607679 0
M  V30 9358 H 923.828 -0.99486 2.81327 0
M  V30 9359 C 922.577 -2.67077 2.22633 0
M  V30 9360 H 921.9 -2.54458 3.08368 0
M  V30 9361 H 923.34 -3.41378 2.5147 0
M  V30 9362 C 921.799 -3.20335 1.04342 0
M  V30 9363 O 922.329 -4.00633 0.292543 0
M  V30 9364 N 920.535 -2.78392 0.833457 0
M  V30 9365 H 920.082 -2.13202 1.44577 0
M  V30 9366 H 920.04 -3.1437 0.0436713 0
M  V30 9367 N 923.813 -1.49104 -0.510467 0
M  V30 9368 C 924.723 -1.67792 -1.6396 0
M  V30 9369 C 925.739 -0.560454 -1.64727 0
M  V30 9370 O 926.915 -0.833985 -1.83321 0
M  V30 9371 C 923.98 -1.73154 -3.00364 0
M  V30 9372 C 923.041 -2.9667 -3.10299 0
M  V30 9373 C 922.274 -3.01767 -4.40196 0
M  V30 9374 O 922.497 -2.1472 -5.28443 0
M  V30 9375 O 921.431 -3.94137 -4.54906 0
M  V30 9376 H 925.257 -2.63428 -1.51126 0
M  V30 9377 H 922.842 -1.32734 -0.685719 0
M  V30 9378 H 924.724 -1.79089 -3.81451 0
M  V30 9379 H 923.399 -0.806952 -3.1348 0
M  V30 9380 H 922.306 -2.96257 -2.28435 0
M  V30 9381 H 923.639 -3.88578 -3.02106 0
M  V30 9382 N 925.291 0.760815 -1.38019 0
M  V30 9383 C 926.254 1.85604 -1.34476 0
M  V30 9384 C 927.254 1.58897 -0.24666 0
M  V30 9385 O 928.444 1.66776 -0.50314 0
M  V30 9386 C 925.576 3.22945 -1.09176 0
M  V30 9387 H 926.769 1.90155 -2.31908 0
M  V30 9388 H 924.322 0.961746 -1.23208 0
M  V30 9389 H 925.057 3.24066 -0.123216 0
M  V30 9390 H 924.842 3.43723 -1.88672 0
M  V30 9391 H 926.332 4.03022 -1.09375 0
M  V30 9392 N 926.769 1.22769 0.988202 0
M  V30 9393 C 928.018 1.0492 1.72263 0
M  V30 9394 C 928.331 -0.415282 1.91141 0
M  V30 9395 O 929.537 -0.713547 2.61956 0
M  V30 9396 C 927.993 1.82891 3.09966 0
M  V30 9397 C 927.601 3.33618 2.99003 0
M  V30 9398 C 929.345 1.73505 3.87423 0
M  V30 9399 C 927.252 4.04012 4.3189 0
M  V30 9400 H 926.182 0.38899 0.645912 0
M  V30 9401 H 928.833 1.46664 1.10281 0
M  V30 9402 H 927.215 1.33948 3.72658 0
M  V30 9403 H 928.389 3.8999 2.45448 0
M  V30 9404 H 926.704 3.43732 2.35027 0
M  V30 9405 H 929.301 2.23416 4.85787 0
M  V30 9406 H 929.644 0.696344 4.10435 0
M  V30 9407 H 930.177 2.20016 3.31418 0
M  V30 9408 H 926.916 5.08155 4.14075 0
M  V30 9409 H 926.436 3.52428 4.8534 0
M  V30 9410 H 928.115 4.0987 5.00615 0
M  V30 9411 N 928.247 -1.18576 1.03814 0
M  V30 9412 C 929.494 -1.88493 0.740036 0
M  V30 9413 C 929.822 -1.80198 -0.732056 0
M  V30 9414 O 929.077 -1.19509 -1.54971 0
M  V30 9415 C 929.376 -3.38448 1.14837 0
M  V30 9416 C 929.042 -3.66947 2.62031 0
M  V30 9417 C 927.704 -3.74435 3.02244 0
M  V30 9418 C 930.056 -3.79534 3.57217 0
M  V30 9419 C 927.384 -3.91986 4.36536 0
M  V30 9420 C 929.736 -3.986 4.91223 0
M  V30 9421 C 928.4 -4.04323 5.31111 0
M  V30 9422 H 927.67 -0.689746 0.270798 0
M  V30 9423 H 930.317 -1.40364 1.3027 0
M  V30 9424 H 928.622 -3.88539 0.504472 0
M  V30 9425 H 930.319 -3.90882 0.89511 0
M  V30 9426 H 926.909 -3.61734 2.29883 0
M  V30 9427 H 931.093 -3.73083 3.27296 0
M  V30 9428 H 926.349 -3.9466 4.66962 0
M  V30 9429 H 930.523 -4.07281 5.64885 0
M  V30 9430 H 928.15 -4.17676 6.35178 0
M  V30 9431 N 929.725 -0.817259 -1.34754 0
M  V30 9432 C 930.95 -0.414423 -2.03217 0
M  V30 9433 C 931.375 0.970037 -1.61158 0
M  V30 9434 O 930.733 1.63016 -0.793436 0
M  V30 9435 C 930.781 -0.518087 -3.56859 0
M  V30 9436 O 929.885 0.464314 -4.09778 0
M  V30 9437 H 929.226 -0.171454 -0.641482 0
M  V30 9438 H 931.756 -1.10611 -1.72123 0
M  V30 9439 H 931.766 -0.391779 -4.06115 0
M  V30 9440 H 930.441 -1.52786 -3.86819 0
M  V30 9441 H 929.018 0.297361 -3.71712 0
M  V30 9442 N 931.203 1.46865 -0.571711 0
M  V30 9443 C 932.166 2.28658 0.157499 0
M  V30 9444 C 933.166 1.37773 0.829172 0
M  V30 9445 O 934.356 1.6026 0.682811 0
M  V30 9446 C 931.488 3.17859 1.23202 0
M  V30 9447 H 932.681 2.94603 -0.561171 0
M  V30 9448 H 930.234 1.52793 -0.329229 0
M  V30 9449 H 930.969 2.56637 1.98262 0
M  V30 9450 H 930.754 3.84762 0.755031 0
M  V30 9451 H 932.244 3.7945 1.74378 0
M  V30 9452 N 932.681 0.308908 1.54543 0
M  V30 9453 C 933.629 -0.579326 2.2527 0
M  V30 9454 C 934.623 -1.13058 1.26152 0
M  V30 9455 O 935.829 -1.08031 1.43977 0
M  V30 9456 H 932.204 -0.205444 0.723392 0
M  V30 9457 H 934.175 0.0396415 2.98374 0
M  V30 9458 C 932.924 -1.73584 3.01271 0
M  V30 9459 H 932.247 -1.32089 3.77349 0
M  V30 9460 H 933.687 -2.33324 3.54028 0
M  V30 9461 C 932.146 -2.6447 2.08703 0
M  V30 9462 O 932.676 -3.65785 1.66025 0
M  V30 9463 N 930.882 -2.32379 1.74495 0
M  V30 9464 H 930.429 -1.50034 2.09398 0
M  V30 9465 H 930.387 -2.93454 1.12836 0
M  V30 9466 N 934.159 -1.57557 0.0367827 0
M  V30 9467 C 935.575 -1.56366 -0.31967 0
M  V30 9468 C 935.775 -1.04313 -1.72398 0
M  V30 9469 O 934.831 -0.693278 -2.42796 0
M  V30 9470 C 936.144 -3.00267 -0.161274 0
M  V30 9471 C 937.692 -3.12128 -0.233464 0
M  V30 9472 C 938.167 -4.57882 -0.103767 0
M  V30 9473 N 939.658 -4.62922 -0.160506 0
M  V30 9474 C 940.393 -5.73338 -0.0840493 0
M  V30 9475 N 939.889 -6.92786 0.043933 0
M  V30 9476 N 941.682 -5.61929 -0.138592 0
M  V30 9477 H 933.833 -1.8972 0.954996 0
M  V30 9478 H 936.096 -0.87304 0.369467 0
M  V30 9479 H 935.802 -3.42331 0.80639 0
M  V30 9480 H 935.676 -3.65599 -0.928304 0
M  V30 9481 H 938.063 -2.69972 -1.19159 0
M  V30 9482 H 938.144 -2.49503 0.564075 0
M  V30 9483 H 937.788 -5.0072 0.850973 0
M  V30 9484 H 937.718 -5.18496 -0.920268 0
M  V30 9485 H 940.209 -3.7701 -0.259257 0
M  V30 9486 H 940.522 -7.72741 0.095372 0
M  V30 9487 H 938.867 -6.94955 0.0788211 0
M  V30 9488 H 942.058 -4.67499 -0.237031 0
M  V30 9489 H 942.231 -6.47956 -0.075546 0
M  V30 9490 N 935.637 0.236453 -1.55816 0
M  V30 9491 C 936.567 1.29639 -1.94206 0
M  V30 9492 C 937.548 1.49667 -0.808319 0
M  V30 9493 O 938.733 1.621 -1.06945 0
M  V30 9494 C 935.863 2.64914 -2.24584 0
M  V30 9495 C 934.817 2.59565 -3.40308 0
M  V30 9496 C 934.143 3.98732 -3.56254 0
M  V30 9497 C 935.443 2.15642 -4.75706 0
M  V30 9498 H 937.137 0.977552 -2.82992 0
M  V30 9499 H 934.683 0.468804 -1.36155 0
M  V30 9500 H 936.636 3.39209 -2.50031 0
M  V30 9501 H 935.36 2.98455 -1.32636 0
M  V30 9502 H 934.019 1.87728 -3.14887 0
M  V30 9503 H 933.667 4.29556 -2.61707 0
M  V30 9504 H 933.367 3.96039 -4.34082 0
M  V30 9505 H 934.891 4.74711 -3.84033 0
M  V30 9506 H 936.305 2.79673 -5.00456 0
M  V30 9507 H 934.702 2.24039 -5.56711 0
M  V30 9508 H 935.772 1.10831 -4.72064 0
M  V30 9509 N 937.115 1.49373 0.502552 0
M  V30 9510 C 938.343 1.62488 1.28084 0
M  V30 9511 C 938.758 0.295667 1.86471 0
M  V30 9512 O 938.115 -0.718664 1.67754 0
M  V30 9513 C 938.166 2.69249 2.4122 0
M  V30 9514 O 937.887 3.97014 1.85234 0
M  V30 9515 C 939.388 2.93054 3.32617 0
M  V30 9516 H 936.608 0.547068 0.388533 0
M  V30 9517 H 939.152 1.95394 0.603452 0
M  V30 9518 H 937.307 2.39125 3.04792 0
M  V30 9519 H 937.721 4.55809 2.59496 0
M  V30 9520 H 939.195 3.71493 4.08285 0
M  V30 9521 H 939.672 2.02911 3.89517 0
M  V30 9522 H 940.278 3.24589 2.74813 0
M  V30 9523 N 938.594 -0.753485 1.38421 0
M  V30 9524 C 939.842 -1.50962 1.34368 0
M  V30 9525 C 940.163 -1.94889 -0.0656895 0
M  V30 9526 O 939.433 -1.67652 -1.01339 0
M  V30 9527 H 938.013 -0.559967 0.494415 0
M  V30 9528 H 940.675 -0.895665 1.73101 0
M  V30 9529 H 939.771 -2.40048 1.99458 0
M  V30 9530 N 940.072 -1.23292 -0.981677 0
M  V30 9531 C 941.297 -1.09176 -1.76339 0
M  V30 9532 C 941.722 0.352726 -1.84763 0
M  V30 9533 O 941.08 1.25509 -1.30832 0
M  V30 9534 C 941.128 -1.72046 -3.16911 0
M  V30 9535 O 940.232 -0.98174 -4.00544 0
M  V30 9536 H 939.573 -0.382755 -0.542581 0
M  V30 9537 H 942.103 -1.63319 -1.23239 0
M  V30 9538 H 942.113 -1.77232 -3.67495 0
M  V30 9539 H 940.788 -2.77154 -3.10095 0
M  V30 9540 H 939.365 -1.00672 -3.59054 0
M  V30 9541 N 941.55 1.18024 -1.04442 0
M  V30 9542 C 942.827 1.8398 -0.664125 0
M  V30 9543 C 943.207 1.92961 0.856116 0
M  V30 9544 O 942.555 1.45839 1.75907 0
M  V30 9545 C 942.765 3.22069 -1.34433 0
M  V30 9546 C 944.113 3.98063 -1.47754 0
M  V30 9547 O 945.137 3.31523 -1.30274 0
M  V30 9548 O 943.996 5.17291 -1.76272 0
M  V30 9549 H 941.09 0.793543 -0.23285 0
M  V30 9550 H 943.636 1.25385 -1.14354 0
M  V30 9551 H 942.408 3.10458 -2.38184 0
M  V30 9552 H 942.031 3.88325 -0.853782 0
M  V30 9553 N 943.028 0.824394 1.34319 0
M  V30 9554 C 944.274 0.413779 1.98534 0
M  V30 9555 C 944.607 -1.02089 1.65201 0
M  V30 9556 O 943.882 -1.71129 0.924402 0
M  V30 9557 C 944.165 0.61801 3.54757 0
M  V30 9558 C 944.018 2.0989 3.97827 0
M  V30 9559 C 945.337 0.0549041 4.40066 0
M  V30 9560 H 942.456 0.151815 0.721194 0
M  V30 9561 H 945.098 1.03723 1.5919 0
M  V30 9562 H 943.248 0.0873107 3.88402 0
M  V30 9563 H 944.92 2.69335 3.74508 0
M  V30 9564 H 943.163 2.58881 3.48085 0
M  V30 9565 H 943.834 2.1926 5.06586 0
M  V30 9566 H 946.31 0.508348 4.12983 0
M  V30 9567 H 945.186 0.227595 5.48428 0
M  V30 9568 H 945.447 -1.04025 4.29687 0
M  V30 9569 N 944.506 -1.46559 0.579492 0
M  V30 9570 C 945.454 -2.3199 -0.168413 0
M  V30 9571 C 946.448 -1.44288 -0.887551 0
M  V30 9572 O 947.654 -1.60931 -0.806305 0
M  V30 9573 H 944.029 -0.748431 -0.0731799 0
M  V30 9574 H 946 -2.92886 0.570973 0
M  V30 9575 C 944.749 -3.27392 -1.1709 0
M  V30 9576 H 944.072 -3.94853 -0.626958 0
M  V30 9577 H 945.512 -3.89955 -1.66467 0
M  V30 9578 C 943.971 -2.52511 -2.23024 0
M  V30 9579 O 944.501 -2.2858 -3.30324 0
M  V30 9580 N 942.707 -2.1313 -1.97545 0
M  V30 9581 H 942.254 -2.32793 -1.10297 0
M  V30 9582 H 942.212 -1.63348 -2.68635 0
M  V30 9583 N 945.984 -0.3171 -1.54377 0
M  V30 9584 C 946.914 0.544623 -2.2706 0
M  V30 9585 C 947.895 1.12469 -1.27611 0
M  V30 9586 O 949.08 1.15103 -1.56413 0
M  V30 9587 C 946.21 1.70879 -3.02353 0
M  V30 9588 C 945.164 1.25833 -4.09084 0
M  V30 9589 C 944.49 2.50894 -4.72182 0
M  V30 9590 C 945.79 0.377876 -5.20931 0
M  V30 9591 H 947.484 -0.0616372 -2.99337 0
M  V30 9592 H 945.03 -0.0310848 -1.43966 0
M  V30 9593 H 946.983 2.31787 -3.51927 0
M  V30 9594 H 945.707 2.34155 -2.27682 0
M  V30 9595 H 944.366 0.672228 -3.60384 0
M  V30 9596 H 944.014 3.12518 -3.94134 0
M  V30 9597 H 943.714 2.21447 -5.44275 0
M  V30 9598 H 945.238 3.12575 -5.24528 0
M  V30 9599 H 946.652 0.893056 -5.66302 0
M  V30 9600 H 945.049 0.176474 -5.9984 0
M  V30 9601 H 946.119 -0.592943 -4.81261 0
M  V30 9602 N 947.462 1.57535 -0.0451378 0
M  V30 9603 C 948.392 2.14208 0.929372 0
M  V30 9604 C 949.373 1.06221 1.32858 0
M  V30 9605 O 950.558 1.34132 1.40436 0
M  V30 9606 C 947.688 2.68217 2.20629 0
M  V30 9607 C 946.642 3.81134 1.94734 0
M  V30 9608 C 945.968 4.21636 3.28828 0
M  V30 9609 C 947.268 5.06531 1.27374 0
M  V30 9610 H 948.962 2.95886 0.457348 0
M  V30 9611 H 946.508 1.42332 0.218544 0
M  V30 9612 H 948.461 3.06502 2.89196 0
M  V30 9613 H 947.185 1.83722 2.70026 0
M  V30 9614 H 945.844 3.43312 1.28579 0
M  V30 9615 H 945.492 3.34099 3.76014 0
M  V30 9616 H 945.192 4.97736 3.12302 0
M  V30 9617 H 946.716 4.62516 3.98637 0
M  V30 9618 H 948.13 5.423 1.85967 0
M  V30 9619 H 946.527 5.87735 1.21194 0
M  V30 9620 H 947.597 4.84261 0.248913 0
M  V30 9621 N 948.94 -0.228186 1.55939 0
M  V30 9622 C 949.903 -1.26621 1.91049 0
M  V30 9623 C 950.903 -1.40141 0.788491 0
M  V30 9624 O 952.093 -1.3852 1.05631 0
M  V30 9625 C 949.225 -2.64108 2.15545 0
M  V30 9626 H 950.418 -0.966978 2.83883 0
M  V30 9627 H 947.971 -0.468313 1.49119 0
M  V30 9628 H 948.706 -2.99141 1.25241 0
M  V30 9629 H 948.491 -2.55673 2.97277 0
M  V30 9630 H 949.981 -3.39025 2.43827 0
M  V30 9631 N 950.418 -1.49637 -0.494624 0
M  V30 9632 C 951.328 -1.69522 -1.62172 0
M  V30 9633 C 952.344 -0.577894 -1.64123 0
M  V30 9634 O 953.52 -0.853382 -1.82426 0
M  V30 9635 C 950.585 -1.7633 -2.9851 0
M  V30 9636 C 949.646 -2.99944 -3.07135 0
M  V30 9637 C 948.879 -3.06419 -4.36971 0
M  V30 9638 O 949.102 -2.20312 -5.26136 0
M  V30 9639 O 948.036 -3.9894 -4.507 0
M  V30 9640 H 951.862 -2.65017 -1.48324 0
M  V30 9641 H 949.447 -1.33454 -0.671603 0
M  V30 9642 H 951.329 -1.83125 -3.7953 0
M  V30 9643 H 950.004 -0.840155 -3.12607 0
M  V30 9644 H 948.911 -2.98664 -2.2528 0
M  V30 9645 H 950.244 -3.9176 -2.97968 0
M  V30 9646 N 951.896 0.746133 -1.38819 0
M  V30 9647 C 952.844 1.88137 -1.36774 0
M  V30 9648 C 953.838 1.67508 -0.252495 0
M  V30 9649 O 955.044 1.74985 -0.421935 0
M  V30 9650 H 951.419 0.619116 -0.426849 0
M  V30 9651 H 953.39 1.86978 -2.32555 0
M  V30 9652 C 952.139 3.25703 -1.21708 0
M  V30 9653 H 951.462 3.42168 -2.06788 0
M  V30 9654 H 952.902 4.05361 -1.24332 0
M  V30 9655 C 951.361 3.36816 0.0754257 0
M  V30 9656 O 951.891 3.87742 1.04972 0
M  V30 9657 N 950.097 2.90287 0.134761 0
M  V30 9658 H 949.644 2.49034 -0.658779 0
M  V30 9659 H 949.602 2.98103 0.999109 0
M  V30 9660 N 953.375 1.23811 0.975125 0
M  V30 9661 C 954.305 1.04846 2.08638 0
M  V30 9662 C 955.286 -0.0362859 1.70061 0
M  V30 9663 O 956.471 0.12937 1.93769 0
M  V30 9664 C 953.601 0.644534 3.41267 0
M  V30 9665 C 952.555 1.67722 3.93768 0
M  V30 9666 C 951.881 1.12857 5.22654 0
M  V30 9667 C 953.181 3.07147 4.22443 0
M  V30 9668 H 954.875 1.97795 2.24761 0
M  V30 9669 H 952.421 0.952397 1.08006 0
M  V30 9670 H 954.374 0.498887 4.18436 0
M  V30 9671 H 953.098 -0.320641 3.25022 0
M  V30 9672 H 951.757 1.81095 3.18748 0
M  V30 9673 H 951.405 0.154227 5.02764 0
M  V30 9674 H 951.105 1.81862 5.58749 0
M  V30 9675 H 952.629 0.994891 6.0244 0
M  V30 9676 H 954.043 2.97045 4.90344 0
M  V30 9677 H 952.44 3.73437 4.6975 0
M  V30 9678 H 953.51 3.55743 3.29507 0
M  V30 9679 N 954.853 -1.17469 1.05066 0
M  V30 9680 C 955.783 -2.23635 0.671552 0
M  V30 9681 C 956.764 -1.66867 -0.33006 0
M  V30 9682 O 957.949 -1.93084 -0.207933 0
M  V30 9683 C 955.079 -3.47272 0.0441845 0
M  V30 9684 C 954.033 -4.16854 0.97042 0
M  V30 9685 C 953.359 -5.34299 0.206998 0
M  V30 9686 C 954.659 -4.69225 2.29401 0
M  V30 9687 H 956.353 -2.55602 1.55911 0
M  V30 9688 H 953.899 -1.2286 0.751101 0
M  V30 9689 H 955.852 -4.20756 -0.23282 0
M  V30 9690 H 954.576 -3.14568 -0.878311 0
M  V30 9691 H 953.235 -3.4528 1.23197 0
M  V30 9692 H 952.883 -4.97846 -0.718222 0
M  V30 9693 H 952.583 -5.81792 0.82416 0
M  V30 9694 H 954.107 -6.10568 -0.0627525 0
M  V30 9695 H 955.521 -5.34353 2.077 0
M  V30 9696 H 953.918 -5.27291 2.86503 0
M  V30 9697 H 954.988 -3.86102 2.93348 0
M  V30 9698 N 956.331 -0.831506 -1.3388 0
M  V30 9699 C 957.556 -0.435954 -2.02766 0
M  V30 9700 C 957.981 0.952889 -1.62178 0
M  V30 9701 O 957.339 1.62166 -0.810681 0
M  V30 9702 C 957.387 -0.555907 -3.56289 0
M  V30 9703 O 956.491 0.420826 -4.10247 0
M  V30 9704 H 955.832 -0.178248 -0.639628 0
M  V30 9705 H 958.362 -1.1243 -1.70941 0
M  V30 9706 H 958.372 -0.434831 -4.05676 0
M  V30 9707 H 957.047 -1.56881 -3.85177 0
M  V30 9708 H 955.624 0.257919 -3.72007 0
M  V30 9709 N 957.809 1.4625 -0.587256 0
M  V30 9710 C 959.22 1.85997 -0.161918 0
M  V30 9711 C 959.571 1.49025 1.27616 0
M  V30 9712 O 958.696 0.907282 1.96462 0
M  V30 9713 C 959.291 3.37582 -0.287077 0
M  V30 9714 C 957.85 3.76308 0.0834211 0
M  V30 9715 C 956.997 2.70259 -0.620932 0
M  V30 9716 H 959.948 1.3734 -0.795199 0
M  V30 9717 H 959.969 3.77379 0.486333 0
M  V30 9718 H 959.481 3.64459 -1.33383 0
M  V30 9719 H 957.582 3.55047 1.13013 0
M  V30 9720 H 957.695 4.78184 -0.296064 0
M  V30 9721 H 956.059 2.54628 -0.0607027 0
M  V30 9722 H 956.842 2.99975 -1.66942 0
M  V30 9723 N 959.287 0.325282 1.54207 0
M  V30 9724 C 960.197 -0.548778 2.28091 0
M  V30 9725 C 961.213 -1.12772 1.32508 0
M  V30 9726 O 962.389 -1.14732 1.65525 0
M  V30 9727 C 959.454 -1.69284 3.02562 0
M  V30 9728 C 958.515 -1.14553 4.13734 0
M  V30 9729 C 957.748 -2.23506 4.84645 0
M  V30 9730 O 957.971 -3.43884 4.55082 0
M  V30 9731 O 956.905 -1.88828 5.71513 0
M  V30 9732 H 960.731 0.0512974 3.03657 0
M  V30 9733 H 958.316 0.0909159 1.49123 0
M  V30 9734 H 960.198 -2.35887 3.49192 0
M  V30 9735 H 958.873 -2.27906 2.2987 0
M  V30 9736 H 957.78 -0.444532 3.71449 0
M  V30 9737 H 959.113 -0.60441 4.88475 0
M  V30 9738 N 960.765 -1.57509 0.0534917 0
M  V30 9739 C 962.042 -1.84137 -0.659767 0
M  V30 9740 C 962.422 -0.942362 -1.88899 0
M  V30 9741 O 961.77 -0.00398566 -2.285 0
M  V30 9742 C 961.98 -3.33919 -1.01486 0
M  V30 9743 C 963.328 -4.00989 -1.39616 0
M  V30 9744 O 964.352 -3.38557 -1.10713 0
M  V30 9745 O 963.211 -5.11071 -1.93567 0
M  V30 9746 H 960.305 -0.760081 -0.325893 0
M  V30 9747 H 962.851 -1.69497 0.0830315 0
M  V30 9748 H 961.623 -3.91046 -0.141041 0
M  V30 9749 H 961.246 -3.53755 -1.81503 0
M  V30 9750 N 962.243 0.219913 -1.56058 0
M  V30 9751 C 963.176 1.29978 -1.87566 0
M  V30 9752 C 964.154 1.45131 -0.733203 0
M  V30 9753 O 965.338 1.60917 -0.981729 0
M  V30 9754 C 962.465 2.66988 -2.08411 0
M  V30 9755 C 961.511 2.68842 -3.31099 0
M  V30 9756 S 962.344 2.22745 -4.86975 0
M  V30 9757 C 963.5 3.61627 -5.10859 0
M  V30 9758 H 963.733 1.03059 -2.78866 0
M  V30 9759 H 961.266 0.422233 -1.48514 0
M  V30 9760 H 963.224 3.45866 -2.21104 0
M  V30 9761 H 961.885 2.91131 -1.17905 0
M  V30 9762 H 961.078 3.69526 -3.42734 0
M  V30 9763 H 960.68 1.98028 -3.17271 0
M  V30 9764 H 962.972 4.57328 -4.99857 0
M  V30 9765 H 963.915 3.54906 -6.12737 0
M  V30 9766 H 964.323 3.55391 -4.38586 0
M  V30 9767 N 963.721 1.49897 0.486681 0
M  V30 9768 C 964.967 1.60342 1.2417 0
M  V30 9769 C 965.3 0.295694 1.91936 0
M  V30 9770 O 964.575 -0.701788 1.81398 0
M  V30 9771 C 964.858 2.77281 2.29755 0
M  V30 9772 C 964.711 4.1789 1.66397 0
M  V30 9773 C 966.03 2.89817 3.31201 0
M  V30 9774 H 963.149 0.583605 0.450083 0
M  V30 9775 H 965.791 1.82232 0.537734 0
M  V30 9776 H 963.941 2.58748 2.89796 0
M  V30 9777 H 965.613 4.47975 1.10073 0
M  V30 9778 H 963.856 4.22872 0.967579 0
M  V30 9779 H 964.527 4.95612 2.43049 0
M  V30 9780 H 967.003 3.06732 2.81167 0
M  V30 9781 H 965.879 3.7329 4.02425 0
M  V30 9782 H 966.14 1.9977 3.94391 0
M  V30 9783 N 965.199 -0.738761 1.39212 0
M  V30 9784 C 966.129 -1.86602 1.40364 0
M  V30 9785 C 967.11 -1.67984 0.267495 0
M  V30 9786 O 968.295 -1.88358 0.472765 0
M  V30 9787 C 965.425 -3.24308 1.24265 0
M  V30 9788 C 964.379 -3.57557 2.35239 0
M  V30 9789 C 963.705 -4.94159 2.04233 0
M  V30 9790 C 965.005 -3.60914 3.77543 0
M  V30 9791 H 966.699 -1.85896 2.34698 0
M  V30 9792 H 964.245 -0.892959 1.1297 0
M  V30 9793 H 966.198 -4.02838 1.23692 0
M  V30 9794 H 964.922 -3.25531 0.263974 0
M  V30 9795 H 963.581 -2.81354 2.35022 0
M  V30 9796 H 963.229 -4.91959 1.04813 0
M  V30 9797 H 962.929 -5.17373 2.78567 0
M  V30 9798 H 964.453 -5.7505 2.05303 0
M  V30 9799 H 965.867 -4.29528 3.79709 0
M  V30 9800 H 964.264 -3.95644 4.51205 0
M  V30 9801 H 965.334 -2.60803 4.08791 0
M  V30 9802 N 966.677 -1.24326 -0.968545 0
M  V30 9803 C 967.924 -1.08245 -1.71141 0
M  V30 9804 C 968.252 0.378842 -1.90775 0
M  V30 9805 O 967.507 1.29634 -1.46607 0
M  V30 9806 C 967.806 -1.76644 -3.10695 0
M  V30 9807 C 967.472 -3.26572 -3.10905 0
M  V30 9808 C 966.134 -3.67475 -3.10669 0
M  V30 9809 C 968.486 -4.22422 -3.05302 0
M  V30 9810 C 965.814 -5.02666 -3.02562 0
M  V30 9811 C 968.166 -5.57619 -2.98737 0
M  V30 9812 C 966.83 -5.9787 -2.9683 0
M  V30 9813 H 966.1 -0.396098 -0.626249 0
M  V30 9814 H 968.747 -1.54418 -1.13258 0
M  V30 9815 H 967.052 -1.22864 -3.72037 0
M  V30 9816 H 968.749 -1.61668 -3.66967 0
M  V30 9817 H 965.339 -2.94017 -3.11852 0
M  V30 9818 H 969.523 -3.91821 -3.04614 0
M  V30 9819 H 964.779 -5.3305 -2.99446 0
M  V30 9820 H 968.953 -6.31595 -2.93361 0
M  V30 9821 H 966.58 -7.02587 -2.90303 0
M  V30 9822 N 968.156 1.1691 -1.05688 0
M  V30 9823 C 969.106 2.19056 -0.632339 0
M  V30 9824 C 970.09 1.574 0.333797 0
M  V30 9825 O 971.282 1.76361 0.150223 0
M  V30 9826 C 968.411 3.43297 -0.0138209 0
M  V30 9827 C 967.497 4.12042 -1.00408 0
M  V30 9828 N 967.888 4.56535 -2.17737 0
M  V30 9829 C 966.186 4.38139 -0.833663 0
M  V30 9830 C 966.887 5.09644 -2.80425 0
M  V30 9831 N 965.863 5.02153 -2.08191 0
M  V30 9832 H 969.665 2.51165 -1.52621 0
M  V30 9833 H 967.179 1.33294 -0.927707 0
M  V30 9834 H 969.176 4.1576 0.308117 0
M  V30 9835 H 967.836 3.12677 0.87538 0
M  V30 9836 H 968.847 4.50463 -2.55546 0
M  V30 9837 H 965.524 4.175 0.00406684 0
M  V30 9838 H 966.914 5.54153 -3.79952 0
M  V30 9839 N 969.634 0.838594 1.33437 0
M  V30 9840 C 970.582 0.260158 2.31141 0
M  V30 9841 C 971.576 -0.607706 1.58124 0
M  V30 9842 O 972.782 -0.497298 1.72994 0
M  V30 9843 H 969.157 0.0654031 0.74915 0
M  V30 9844 H 971.128 1.09874 2.77435 0
M  V30 9845 C 969.877 -0.550234 3.43319 0
M  V30 9846 H 969.2 0.108262 3.99653 0
M  V30 9847 H 970.64 -0.920815 4.1388 0
M  V30 9848 C 969.099 -1.729 2.89149 0
M  V30 9849 O 969.629 -2.82769 2.85315 0
M  V30 9850 N 967.835 -1.5508 2.45761 0
M  V30 9851 H 967.382 -0.657055 2.49079 0
M  V30 9852 H 967.34 -2.34099 2.0987 0
M  V30 9853 N 971.112 -1.45937 0.595003 0
M  V30 9854 C 972.042 -2.33198 -0.11871 0
M  V30 9855 C 973.023 -1.46083 -0.871423 0
M  V30 9856 O 974.208 -1.74879 -0.844461 0
M  V30 9857 C 971.338 -3.28576 -1.12495 0
M  V30 9858 C 970.292 -4.25229 -0.486275 0
M  V30 9859 C 969.618 -5.10204 -1.59986 0
M  V30 9860 C 970.918 -5.19019 0.584473 0
M  V30 9861 H 972.612 -2.93122 0.609886 0
M  V30 9862 H 970.158 -1.40951 0.294742 0
M  V30 9863 H 972.111 -3.88485 -1.6327 0
M  V30 9864 H 970.835 -2.66784 -1.88398 0
M  V30 9865 H 969.494 -3.666 0.000507962 0
M  V30 9866 H 969.142 -4.44789 -2.34886 0
M  V30 9867 H 968.842 -5.75669 -1.1781 0
M  V30 9868 H 970.366 -5.7298 -2.11014 0
M  V30 9869 H 971.78 -5.73073 0.161297 0
M  V30 9870 H 970.177 -5.92893 0.927256 0
M  V30 9871 H 971.247 -4.62208 1.46601 0
M  V30 9872 N 972.59 -0.333456 -1.54032 0
M  V30 9873 C 973.818 0.267813 -2.05159 0
M  V30 9874 C 974.233 1.4501 -1.20903 0
M  V30 9875 O 973.59 1.80888 -0.241994 0
M  V30 9876 C 973.641 0.69268 -3.54802 0
M  V30 9877 O 973.362 -0.442579 -4.35859 0
M  V30 9878 C 974.863 1.35572 -4.2206 0
M  V30 9879 H 972.083 0.0534924 -0.668864 0
M  V30 9880 H 974.627 -0.482515 -1.98726 0
M  V30 9881 H 972.782 1.39297 -3.6149 0
M  V30 9882 H 973.196 -0.105915 -5.24393 0
M  V30 9883 H 974.67 1.60385 -5.28186 0
M  V30 9884 H 975.147 2.30614 -3.73783 0
M  V30 9885 H 975.753 0.697748 -4.19537 0
M  V30 9886 N 974.068 1.57479 -0.061844 0
M  V30 9887 C 975 2.09116 0.938245 0
M  V30 9888 C 976.013 1.0212 1.26788 0
M  V30 9889 O 977.202 1.2966 1.22681 0
M  V30 9890 C 974.302 2.52822 2.25686 0
M  V30 9891 C 973.475 3.83277 2.10755 0
M  V30 9892 C 972.534 4.13182 3.25833 0
M  V30 9893 O 971.56 4.82937 3.01265 0
M  V30 9894 N 972.762 3.65938 4.50633 0
M  V30 9895 H 975.527 2.95543 0.497433 0
M  V30 9896 H 973.088 1.61423 0.124134 0
M  V30 9897 H 975.08 2.69896 3.01559 0
M  V30 9898 H 973.65 1.71586 2.61299 0
M  V30 9899 H 972.87 3.7568 1.19409 0
M  V30 9900 H 974.158 4.68686 1.98018 0
M  V30 9901 H 973.556 3.09566 4.73482 0
M  V30 9902 H 972.113 3.8823 5.23565 0
M  V30 9903 N 975.546 -0.211634 1.56173 0
M  V30 9904 C 976.957 -0.777776 1.69728 0
M  V30 9905 C 977.308 -1.84566 0.66558 0
M  V30 9906 O 976.433 -2.15639 -0.181338 0
M  V30 9907 C 977.028 -1.41757 3.07718 0
M  V30 9908 C 975.587 -1.93098 3.23094 0
M  V30 9909 C 974.734 -0.794785 2.65666 0
M  V30 9910 H 977.685 0.0131839 1.58695 0
M  V30 9911 H 977.706 -2.28662 3.04128 0
M  V30 9912 H 977.218 -0.640114 3.82785 0
M  V30 9913 H 975.319 -2.73615 2.52914 0
M  V30 9914 H 975.432 -2.10414 4.30422 0
M  V30 9915 H 973.796 -1.20473 2.24407 0
M  V30 9916 H 974.579 -0.0298408 3.43287 0
M  V30 9917 N 977.024 -1.50153 -0.478725 0
M  V30 9918 C 978.44 -1.3741 -0.811833 0
M  V30 9919 C 978.64 -0.424303 -1.96982 0
M  V30 9920 O 977.696 0.13588 -2.52134 0
M  V30 9921 C 979.009 -2.78616 -1.13108 0
M  V30 9922 C 980.557 -2.87477 -1.23798 0
M  V30 9923 C 981.032 -4.295 -1.5904 0
M  V30 9924 N 982.523 -4.32415 -1.66047 0
M  V30 9925 C 983.258 -5.39295 -1.94805 0
M  V30 9926 N 982.754 -6.56392 -2.21635 0
M  V30 9927 N 984.547 -5.26731 -1.96243 0
M  V30 9928 H 976.698 -2.10486 0.284531 0
M  V30 9929 H 978.961 -0.945786 0.0647585 0
M  V30 9930 H 978.667 -3.49921 -0.35334 0
M  V30 9931 H 978.541 -3.15382 -2.06915 0
M  V30 9932 H 980.928 -2.16396 -2.00641 0
M  V30 9933 H 981.009 -2.54264 -0.279888 0
M  V30 9934 H 980.653 -5.01115 -0.827404 0
M  V30 9935 H 980.583 -4.60194 -2.55987 0
M  V30 9936 H 983.074 -3.47975 -1.47383 0
M  V30 9937 H 983.387 -7.33658 -2.4283 0
M  V30 9938 H 981.732 -6.59579 -2.19043 0
M  V30 9939 H 984.923 -4.34249 -1.74773 0
M  V30 9940 H 985.096 -6.10115 -2.1832 0
M  V30 9941 N 978.502 0.731368 -1.39602 0
M  V30 9942 C 979.75 1.48805 -1.36753 0
M  V30 9943 C 980.071 1.94969 0.034676 0
M  V30 9944 O 979.341 1.69243 0.986591 0
M  V30 9945 H 977.921 0.55203 -0.503261 0
M  V30 9946 H 980.583 0.868013 -1.74504 0
M  V30 9947 H 979.679 2.36844 -2.03252 0
M  V30 9948 N 979.98 1.24838 0.961938 0
M  V30 9949 C 981.226 1.09313 1.70817 0
M  V30 9950 C 981.559 -0.366244 1.90715 0
M  V30 9951 O 980.834 -1.27036 1.47282 0
M  V30 9952 C 981.117 1.83988 3.09549 0
M  V30 9953 C 980.97 3.3771 2.97106 0
M  V30 9954 C 982.289 1.61718 4.09311 0
M  V30 9955 H 979.408 0.398498 0.619974 0
M  V30 9956 H 982.05 1.53579 1.11864 0
M  V30 9957 H 980.2 1.46363 3.59875 0
M  V30 9958 H 981.872 3.84967 2.54161 0
M  V30 9959 H 980.115 3.65795 2.33187 0
M  V30 9960 H 980.786 3.85166 3.95412 0
M  V30 9961 H 983.262 1.94458 3.67866 0
M  V30 9962 H 982.138 2.16415 5.04436 0
M  V30 9963 H 982.399 0.55677 4.3858 0
M  V30 9964 N 981.458 -1.16348 1.06306 0
M  V30 9965 C 982.406 -2.22799 0.668087 0
M  V30 9966 C 983.4 -1.66426 -0.316051 0
M  V30 9967 O 984.606 -1.79089 -0.180902 0
M  V30 9968 H 980.981 -0.725487 0.19792 0
M  V30 9969 H 982.952 -2.53401 1.57577 0
M  V30 9970 C 981.701 -3.47628 0.0706797 0
M  V30 9971 H 981.024 -3.9132 0.819064 0
M  V30 9972 H 982.464 -4.23666 -0.16816 0
M  V30 9973 C 980.923 -3.15343 -1.18577 0
M  V30 9974 O 981.453 -3.31158 -2.27371 0
M  V30 9975 N 979.659 -2.69472 -1.08779 0
M  V30 9976 H 979.206 -2.56803 -0.202447 0
M  V30 9977 H 979.164 -2.48244 -1.92931 0
M  V30 9978 N 982.937 -0.845659 -1.3299 0
M  V30 9979 C 984.183 -0.454563 -1.98256 0
M  V30 9980 C 984.538 0.976983 -1.65749 0
M  V30 9981 O 983.831 1.67481 -0.930631 0
M  V30 9982 C 984.025 -0.6201 -3.51979 0
M  V30 9983 C 983.854 -2.06619 -3.99423 0
M  V30 9984 C 982.624 -2.70283 -4.26937 0
M  V30 9985 C 984.822 -3.03573 -4.15148 0
M  V30 9986 N 982.804 -4.05896 -4.60567 0
M  V30 9987 C 984.175 -4.24149 -4.52214 0
M  V30 9988 C 986.23 -2.99888 -3.97457 0
M  V30 9989 C 984.933 -5.41527 -4.73435 0
M  V30 9990 C 986.959 -4.16502 -4.19858 0
M  V30 9991 C 986.321 -5.35835 -4.57231 0
M  V30 9992 H 982.42 -0.214896 -0.751893 0
M  V30 9993 H 985.004 -1.09515 -1.6098 0
M  V30 9994 H 983.175 -0.00926528 -3.88399 0
M  V30 9995 H 984.907 -0.199782 -4.04207 0
M  V30 9996 H 981.662 -2.21377 -4.18676 0
M  V30 9997 H 982.086 -4.75824 -4.81581 0
M  V30 9998 H 986.728 -2.08753 -3.67671 0
M  V30 9999 H 984.446 -6.332 -5.02079 0
M  V30 10000 H 988.032 -4.15075 -4.07681 0
M  V30 10001 H 986.912 -6.24568 -4.74219 0
M  V30 10002 N 984.415 1.45619 -0.602734 0
M  V30 10003 C 985.655 2.0416 -0.0989764 0
M  V30 10004 C 986.019 1.4616 1.24504 0
M  V30 10005 O 987.22 1.96025 1.83923 0
M  V30 10006 C 985.491 3.57357 -0.0551869 0
M  V30 10007 S 987.05 4.3708 0.388086 0
M  V30 10008 H 983.868 0.709431 -0.0472054 0
M  V30 10009 H 986.47 1.78394 -0.799745 0
M  V30 10010 H 985.174 3.97083 -1.03697 0
M  V30 10011 H 984.705 3.87692 0.667727 0
M  V30 10012 H 986.72 4.68362 1.63865 0
M  V30 10013 N 985.893 0.34162 1.53853 0
M  V30 10014 C 986.803 -0.524555 2.2866 0
M  V30 10015 C 987.819 -1.1136 1.33697 0
M  V30 10016 O 988.995 -1.1297 1.66732 0
M  V30 10017 C 986.06 -1.66065 3.04341 0
M  V30 10018 C 985.121 -1.10158 4.14926 0
M  V30 10019 C 984.354 -2.18353 4.86988 0
M  V30 10020 O 984.577 -3.39038 4.58704 0
M  V30 10021 O 983.511 -1.82756 5.73484 0
M  V30 10022 H 987.337 0.0835014 3.03585 0
M  V30 10023 H 984.922 0.106727 1.49018 0
M  V30 10024 H 986.804 -2.3217 3.51674 0
M  V30 10025 H 985.479 -2.25456 2.32275 0
M  V30 10026 H 984.386 -0.405109 3.719 0
M  V30 10027 H 985.719 -0.552567 4.89088 0
M  V30 10028 N 987.371 -1.57444 0.0701946 0
M  V30 10029 C 988.787 -1.57009 -0.286431 0
M  V30 10030 C 988.987 -1.07946 -1.70147 0
M  V30 10031 O 988.043 -0.744622 -2.41271 0
M  V30 10032 C 989.356 -3.00542 -0.0975466 0
M  V30 10033 C 990.904 -3.12553 -0.167205 0
M  V30 10034 C 991.379 -4.58 -0.00662047 0
M  V30 10035 N 992.87 -4.63158 -0.0622778 0
M  V30 10036 C 993.605 -5.73388 0.0375831 0
M  V30 10037 N 993.101 -6.92537 0.190873 0
M  V30 10038 N 994.894 -5.62097 -0.0193672 0
M  V30 10039 H 987.045 -1.87651 0.995023 0
M  V30 10040 H 989.308 -0.865006 0.387902 0
M  V30 10041 H 989.014 -3.40543 0.878822 0
M  V30 10042 H 988.888 -3.67485 -0.850547 0
M  V30 10043 H 991.275 -2.72439 -1.13406 0
M  V30 10044 H 991.356 -2.48251 0.616871 0
M  V30 10045 H 991 -4.98803 0.956992 0
M  V30 10046 H 990.93 -5.20332 -0.810081 0
M  V30 10047 H 993.421 -3.77475 -0.179229 0
M  V30 10048 H 993.734 -7.72365 0.25926 0
M  V30 10049 H 992.079 -6.94632 0.226214 0
M  V30 10050 H 995.27 -4.67897 -0.137815 0
M  V30 10051 H 995.443 -6.4797 0.0619121 0
M  V30 10052 N 988.849 0.203349 -1.56283 0
M  V30 10053 C 990.077 0.941426 -1.84241 0
M  V30 10054 C 990.492 1.77197 -0.651658 0
M  V30 10055 O 989.849 1.78506 0.379713 0
M  V30 10056 C 989.9 1.84429 -3.10915 0
M  V30 10057 O 989.621 1.04729 -4.25398 0
M  V30 10058 C 991.122 2.69474 -3.51993 0
M  V30 10059 H 988.342 0.27507 -0.612027 0
M  V30 10060 H 990.886 0.213088 -2.03387 0
M  V30 10061 H 989.041 2.52635 -2.93691 0
M  V30 10062 H 989.455 1.66179 -4.97478 0
M  V30 10063 H 990.929 3.28495 -4.43616 0
M  V30 10064 H 991.406 3.42775 -2.74594 0
M  V30 10065 H 992.012 2.06652 -3.71719 0
M  V30 10066 N 990.327 1.50405 0.470755 0
M  V30 10067 C 991.555 1.65168 1.24608 0
M  V30 10068 C 991.97 0.335153 1.85801 0
M  V30 10069 O 991.327 -0.682919 1.69241 0
M  V30 10070 C 991.378 2.74305 2.35455 0
M  V30 10071 O 991.099 4.00854 1.76771 0
M  V30 10072 C 992.6 3.00044 3.26326 0
M  V30 10073 H 989.82 0.555186 0.376842 0
M  V30 10074 H 992.364 1.9663 0.56187 0
M  V30 10075 H 990.519 2.45536 2.99651 0
M  V30 10076 H 990.933 4.61211 2.49769 0
M  V30 10077 H 992.407 3.8007 4.00313 0
M  V30 10078 H 992.884 2.11128 3.85126 0
M  V30 10079 H 993.49 3.30345 2.67866 0
M  V30 10080 N 991.805 -0.723954 1.39988 0
M  V30 10081 C 992.735 -1.85103 1.42335 0
M  V30 10082 C 993.716 -1.6769 0.285297 0
M  V30 10083 O 994.901 -1.87846 0.492716 0
M  V30 10084 C 992.031 -3.22972 1.27697 0
M  V30 10085 C 990.985 -3.55041 2.39018 0
M  V30 10086 C 990.311 -4.91965 2.09462 0
M  V30 10087 C 991.611 -3.56889 3.8135 0
M  V30 10088 H 993.305 -1.83396 2.36656 0
M  V30 10089 H 990.851 -0.880926 1.13911 0
M  V30 10090 H 992.804 -4.01503 1.27958 0
M  V30 10091 H 991.528 -3.25233 0.298487 0
M  V30 10092 H 990.187 -2.78845 2.37993 0
M  V30 10093 H 989.835 -4.90819 1.10025 0
M  V30 10094 H 989.535 -5.14389 2.84038 0
M  V30 10095 H 991.059 -5.7284 2.11391 0
M  V30 10096 H 992.473 -4.25476 3.84243 0
M  V30 10097 H 990.87 -3.90836 4.55376 0
M  V30 10098 H 991.94 -2.56452 4.11534 0
M  V30 10099 N 993.283 -1.25346 -0.955304 0
M  V30 10100 C 994.508 -1.12892 -1.73983 0
M  V30 10101 C 994.933 0.313455 -1.8547 0
M  V30 10102 O 994.291 1.22706 -1.33465 0
M  V30 10103 C 994.339 -1.78729 -3.1319 0
M  V30 10104 O 993.443 -1.06648 -3.98372 0
M  V30 10105 H 992.784 -0.394178 -0.534341 0
M  V30 10106 H 995.314 -1.65897 -1.19747 0
M  V30 10107 H 995.324 -1.84987 -3.63653 0
M  V30 10108 H 993.999 -2.83669 -3.04146 0
M  V30 10109 H 992.576 -1.08266 -3.56837 0
M  V30 10110 N 994.761 1.15782 -1.06922 0
M  V30 10111 C 995.709 2.22441 -0.679893 0
M  V30 10112 C 996.703 1.66591 0.307221 0
M  V30 10113 O 997.909 1.79182 0.171402 0
M  V30 10114 H 994.284 0.724427 -0.201765 0
M  V30 10115 H 996.255 2.52562 -1.58918 0
M  V30 10116 C 995.004 3.47586 -0.0891142 0
M  V30 10117 H 994.327 3.9088 -0.839805 0
M  V30 10118 H 995.767 4.2375 0.14569 0
M  V30 10119 C 994.226 3.15967 1.16903 0
M  V30 10120 O 994.756 3.32359 2.25611 0
M  V30 10121 N 992.962 2.70046 1.07349 0
M  V30 10122 H 992.509 2.56907 0.188825 0
M  V30 10123 H 992.467 2.49264 1.91611 0
M  V30 10124 N 996.239 0.8527 1.3254 0
M  V30 10125 C 997.487 0.454224 1.96929 0
M  V30 10126 C 997.808 -0.993034 1.67821 0
M  V30 10127 O 997.078 -1.69371 0.984393 0
M  V30 10128 H 995.658 0.164977 0.728554 0
M  V30 10129 H 998.32 1.0887 1.61658 0
M  V30 10130 H 997.416 0.597667 3.06324 0
M  V30 10131 N 997.718 -1.45297 0.610449 0
M  V30 10132 C 998.966 -2.01819 0.106548 0
M  V30 10133 C 999.287 -1.48102 -1.26849 0
M  V30 10134 O 998.557 -0.676411 -1.83852 0
M  V30 10135 H 997.137 -0.746113 0.0363982 0
M  V30 10136 H 999.799 -1.78061 0.792491 0
M  V30 10137 H 998.895 -3.12045 0.0585 0
M  V30 10138 N 999.196 -0.349774 -1.5367 0
M  V30 10139 C 1000.44 0.245095 -2.02925 0
M  V30 10140 C 1000.8 1.4727 -1.23189 0
M  V30 10141 O 1002 2.14215 -1.62374 0
M  V30 10142 C 1000.27 0.545392 -3.53214 0
M  V30 10143 S 1001.83 1.11619 -4.24366 0
M  V30 10144 H 998.649 0.0725368 -0.70729 0
M  V30 10145 H 1001.25 -0.488979 -1.89286 0
M  V30 10146 H 999.955 -0.355786 -4.08855 0
M  V30 10147 H 999.486 1.30897 -3.70985 0
M  V30 10148 H 1001.5 2.40151 -4.34214 0
M  V30 10149 N 1000.67 1.57404 -0.0785433 0
M  V30 10150 C 1001.61 2.101 0.916013 0
M  V30 10151 C 1002.62 1.03459 1.25698 0
M  V30 10152 O 1003.81 1.30954 1.21299 0
M  V30 10153 C 1000.91 2.55202 2.22992 0
M  V30 10154 C 1000.08 3.85491 2.06678 0
M  V30 10155 C 999.14 4.16614 3.21433 0
M  V30 10156 O 998.166 4.86105 2.96126 0
M  V30 10157 N 999.368 3.70697 4.46726 0
M  V30 10158 H 1002.13 2.96054 0.466059 0
M  V30 10159 H 999.694 1.61546 0.107006 0
M  V30 10160 H 1001.69 2.7308 2.9868 0
M  V30 10161 H 1000.26 1.74348 2.59464 0
M  V30 10162 H 999.476 3.76925 1.15417 0
M  V30 10163 H 1000.76 4.70759 1.93036 0
M  V30 10164 H 1000.16 3.14571 4.70172 0
M  V30 10165 H 998.719 3.93762 5.19418 0
M  V30 10166 N 1002.15 -0.195058 1.56388 0
M  V30 10167 C 1003.38 -0.930291 1.8447 0
M  V30 10168 C 1003.79 -1.77356 0.658901 0
M  V30 10169 O 1003.13 -1.79691 -0.381664 0
M  V30 10170 C 1003.19 -1.87626 3.06654 0
M  V30 10171 C 1002.86 -1.21494 4.40555 0
M  V30 10172 C 1003.86 -0.591847 5.1652 0
M  V30 10173 C 1001.54 -1.21878 4.8729 0
M  V30 10174 C 1003.53 0.0185743 6.37397 0
M  V30 10175 C 1001.22 -0.604524 6.08103 0
M  V30 10176 C 1002.22 0.0130731 6.82999 0
M  V30 10177 O 1001.91 0.617703 8.01523 0
M  V30 10178 H 1001.64 -0.276933 0.616672 0
M  V30 10179 H 1004.19 -0.207277 2.04351 0
M  V30 10180 H 1002.42 -2.63897 2.82658 0
M  V30 10181 H 1004.11 -2.47929 3.21382 0
M  V30 10182 H 1004.88 -0.581018 4.81507 0
M  V30 10183 H 1000.76 -1.68888 4.2895 0
M  V30 10184 H 1004.3 0.50124 6.95797 0
M  V30 10185 H 1000.2 -0.612855 6.42584 0
M  V30 10186 H 1000.97 0.514612 8.16881 0
M  V30 10187 N 1003.63 -1.50653 -0.462772 0
M  V30 10188 C 1004.56 -1.73056 -1.5676 0
M  V30 10189 C 1005.54 -0.579699 -1.59917 0
M  V30 10190 O 1006.73 -0.819729 -1.76051 0
M  V30 10191 C 1003.86 -1.83234 -2.9503 0
M  V30 10192 C 1002.81 -2.98488 -3.06739 0
M  V30 10193 C 1002.14 -2.93818 -4.46738 0
M  V30 10194 C 1003.44 -4.38869 -2.83181 0
M  V30 10195 H 1005.13 -2.65562 -1.38265 0
M  V30 10196 H 1002.68 -1.27792 -0.663722 0
M  V30 10197 H 1004.63 -1.97491 -3.72257 0
M  V30 10198 H 1003.35 -0.873558 -3.14701 0
M  V30 10199 H 1002.01 -2.83895 -2.31946 0
M  V30 10200 H 1001.66 -1.95769 -4.63339 0
M  V30 10201 H 1001.36 -3.71197 -4.55507 0
M  V30 10202 H 1002.88 -3.10135 -5.25974 0
M  V30 10203 H 1004.3 -4.53945 -3.50153 0
M  V30 10204 H 1002.69 -5.17762 -3.03386 0
M  V30 10205 H 1003.76 -4.50663 -1.78972 0
M  V30 10206 N 1005.11 0.71652 -1.4037 0
M  V30 10207 C 1006.35 1.48883 -1.40047 0
M  V30 10208 C 1006.71 1.92 -0.00158027 0
M  V30 10209 O 1007.91 2.68501 0.126765 0
M  V30 10210 C 1006.18 2.68265 -2.36154 0
M  V30 10211 S 1007.74 3.57684 -2.5418 0
M  V30 10212 H 1004.56 0.509035 -0.496391 0
M  V30 10213 H 1007.16 0.837967 -1.76631 0
M  V30 10214 H 1005.87 2.34759 -3.36625 0
M  V30 10215 H 1005.4 3.38264 -2.0085 0
M  V30 10216 H 1007.41 4.62653 -1.79352 0
M  V30 10217 N 1006.59 1.25851 0.948643 0
M  V30 10218 C 1007.52 1.09248 2.06367 0
M  V30 10219 C 1008.5 -0.000205168 1.701 0
M  V30 10220 O 1009.68 0.170442 1.93451 0
M  V30 10221 C 1006.81 0.716777 3.39823 0
M  V30 10222 C 1005.77 1.76036 3.90122 0
M  V30 10223 C 1005.09 1.23918 5.20143 0
M  V30 10224 C 1006.39 3.16039 4.15833 0
M  V30 10225 H 1008.09 2.02518 2.20515 0
M  V30 10226 H 1005.63 0.975093 1.05962 0
M  V30 10227 H 1007.59 0.587531 4.17284 0
M  V30 10228 H 1006.31 -0.251626 3.25629 0
M  V30 10229 H 1004.97 1.87815 3.14835 0
M  V30 10230 H 1004.62 0.260836 5.02323 0
M  V30 10231 H 1004.32 1.93673 5.54765 0
M  V30 10232 H 1005.84 1.12245 6.00194 0
M  V30 10233 H 1007.25 3.0738 4.83933 0
M  V30 10234 H 1005.65 3.83317 4.61723 0
M  V30 10235 H 1006.72 3.62652 3.21887 0
M  V30 10236 N 1008.06 -1.15214 1.07534 0
M  V30 10237 C 1009.48 -1.67628 0.822045 0
M  V30 10238 C 1009.83 -1.8503 -0.652571 0
M  V30 10239 O 1008.95 -1.55497 -1.50498 0
M  V30 10240 C 1009.55 -3.04489 1.48566 0
M  V30 10241 C 1008.11 -3.53974 1.27983 0
M  V30 10242 C 1007.25 -2.29656 1.55414 0
M  V30 10243 H 1010.2 -0.994016 1.23713 0
M  V30 10244 H 1010.22 -3.69509 0.907916 0
M  V30 10245 H 1009.74 -2.91792 2.55888 0
M  V30 10246 H 1007.84 -3.71908 0.226906 0
M  V30 10247 H 1007.95 -4.35298 2.0013 0
M  V30 10248 H 1006.31 -2.35289 0.975251 0
M  V30 10249 H 1007.1 -2.19544 2.63923 0
M  V30 10250 N 1009.54 -0.859717 -1.32086 0
M  V30 10251 C 1010.51 -0.313005 -2.27053 0
M  V30 10252 C 1011.51 0.530191 -1.51808 0
M  V30 10253 O 1012.7 0.340972 -1.7083 0
M  V30 10254 C 1009.83 0.5566 -3.36325 0
M  V30 10255 H 1011.02 -1.15125 -2.76923 0
M  V30 10256 H 1008.57 -0.634463 -1.42843 0
M  V30 10257 H 1009.31 1.41645 -2.91731 0
M  V30 10258 H 1009.09 -0.0470197 -3.92072 0
M  V30 10259 H 1010.58 0.931725 -4.07073 0
M  V30 10260 N 1011.02 1.44971 -0.618145 0
M  V30 10261 C 1012.43 1.85611 -0.201334 0
M  V30 10262 C 1012.78 1.51698 1.24427 0
M  V30 10263 O 1011.91 0.94875 1.94493 0
M  V30 10264 C 1012.5 3.36897 -0.358619 0
M  V30 10265 C 1011.06 3.764 0.00358196 0
M  V30 10266 C 1010.21 2.68881 -0.678118 0
M  V30 10267 H 1013.16 1.35622 -0.824152 0
M  V30 10268 H 1013.18 3.78326 0.406176 0
M  V30 10269 H 1012.69 3.61548 -1.41084 0
M  V30 10270 H 1010.79 3.57365 1.05457 0
M  V30 10271 H 1010.91 4.77449 -0.397427 0
M  V30 10272 H 1009.27 2.54442 -0.114699 0
M  V30 10273 H 1010.05 2.96367 -1.73268 0
M  V30 10274 N 1012.5 0.357919 1.53482 0
M  V30 10275 C 1013.43 -0.526753 2.23065 0
M  V30 10276 C 1014.44 -1.05239 1.24212 0
M  V30 10277 O 1015.63 -0.960078 1.50482 0
M  V30 10278 C 1012.73 -1.73919 2.9087 0
M  V30 10279 C 1011.91 -1.34638 4.16163 0
M  V30 10280 C 1010.96 -2.42005 4.67247 0
M  V30 10281 O 1009.99 -2.04714 5.31113 0
M  V30 10282 N 1011.19 -3.73478 4.44404 0
M  V30 10283 H 1013.96 0.0692386 2.9962 0
M  V30 10284 H 1011.52 0.182726 1.60866 0
M  V30 10285 H 1013.51 -2.45207 3.21956 0
M  V30 10286 H 1012.08 -2.24223 2.17814 0
M  V30 10287 H 1011.3 -0.463667 3.91464 0
M  V30 10288 H 1012.59 -1.06012 4.97633 0
M  V30 10289 H 1011.99 -4.06555 3.93357 0
M  V30 10290 H 1010.54 -4.40893 4.80059 0
M  V30 10291 N 1013.98 -1.5736 0.0868897 0
M  V30 10292 C 1015.23 -1.93229 -0.578387 0
M  V30 10293 C 1015.54 -0.970127 -1.69847 0
M  V30 10294 O 1016.74 -1.22222 -2.42434 0
M  V30 10295 C 1015.2 -3.43307 -1.0802 0
M  V30 10296 C 1014.81 -4.47999 0.00968135 0
M  V30 10297 C 1016.55 -3.88151 -1.71868 0
M  V30 10298 C 1014.46 -5.89223 -0.507029 0
M  V30 10299 H 1013.39 -0.721245 -0.219823 0
M  V30 10300 H 1016.04 -1.82787 0.161566 0
M  V30 10301 H 1014.42 -3.48873 -1.87359 0
M  V30 10302 H 1015.6 -4.54067 0.784865 0
M  V30 10303 H 1013.91 -4.12714 0.552845 0
M  V30 10304 H 1016.51 -4.91056 -2.11585 0
M  V30 10305 H 1016.85 -3.26347 -2.58464 0
M  V30 10306 H 1017.38 -3.85252 -0.991259 0
M  V30 10307 H 1014.12 -6.54708 0.322121 0
M  V30 10308 H 1013.64 -5.86643 -1.2494 0
M  V30 10309 H 1015.32 -6.39556 -0.978628 0
M  V30 10310 N 1015.45 0.186762 -1.56489 0
M  V30 10311 C 1016.4 1.25084 -1.96104 0
M  V30 10312 C 1017.4 1.4667 -0.847609 0
M  V30 10313 O 1018.6 1.47432 -1.03266 0
M  V30 10314 H 1014.98 0.420121 -0.623701 0
M  V30 10315 H 1016.95 0.889761 -2.84826 0
M  V30 10316 C 1015.7 2.5863 -2.32392 0
M  V30 10317 H 1015.02 2.42838 -3.176 0
M  V30 10318 H 1016.46 3.3181 -2.63967 0
M  V30 10319 C 1014.92 3.16241 -1.16159 0
M  V30 10320 O 1015.45 3.99272 -0.441034 0
M  V30 10321 N 1013.66 2.75106 -0.936206 0
M  V30 10322 H 1013.2 2.0769 -1.5239 0
M  V30 10323 H 1013.16 3.13991 -0.160317 0
M  V30 10324 N 1016.93 1.50896 0.454776 0
M  V30 10325 C 1018.34 1.55372 1.0352 0
M  V30 10326 C 1018.69 0.366822 1.9274 0
M  V30 10327 O 1017.82 -0.518444 2.10098 0
M  V30 10328 C 1018.41 2.81574 1.88418 0
M  V30 10329 C 1016.97 2.88679 2.4154 0
M  V30 10330 C 1016.12 2.49847 1.20298 0
M  V30 10331 H 1019.07 1.56924 0.236729 0
M  V30 10332 H 1019.09 2.64352 2.73676 0
M  V30 10333 H 1018.6 3.67941 1.23455 0
M  V30 10334 H 1016.71 2.06702 3.10008 0
M  V30 10335 H 1016.82 3.91944 2.7553 0
M  V30 10336 H 1015.18 2.02651 1.54288 0
M  V30 10337 H 1015.97 3.3854 0.569723 0
M  V30 10338 N 1018.41 -0.709066 1.40748 0
M  V30 10339 C 1019.36 -1.8149 1.38005 0
M  V30 10340 C 1020.34 -1.58842 0.256544 0
M  V30 10341 O 1021.54 -1.69904 0.496164 0
M  V30 10342 C 1018.67 -3.19678 1.25143 0
M  V30 10343 C 1017.75 -3.48067 2.42301 0
M  V30 10344 N 1018.14 -3.47234 3.6778 0
M  V30 10345 C 1016.44 -3.78555 2.35822 0
M  V30 10346 C 1017.14 -3.74149 4.45407 0
M  V30 10347 N 1016.12 -3.93224 3.75335 0
M  V30 10348 H 1019.92 -1.79188 2.32957 0
M  V30 10349 H 1017.43 -0.908477 1.34612 0
M  V30 10350 H 1019.43 -3.98875 1.2126 0
M  V30 10351 H 1018.09 -3.23201 0.311642 0
M  V30 10352 H 1019.1 -3.2793 4.00852 0
M  V30 10353 H 1015.78 -3.89529 1.50245 0
M  V30 10354 H 1017.17 -3.79755 5.54289 0
M  V30 10355 N 1019.89 -1.26353 -0.941956 0
M  V30 10356 C 1021.11 -1.14731 -1.72776 0
M  V30 10357 C 1021.54 0.293766 -1.85792 0
M  V30 10358 O 1020.9 1.21284 -1.34759 0
M  V30 10359 C 1020.95 -1.82041 -3.11277 0
M  V30 10360 O 1020.05 -1.10867 -3.97218 0
M  V30 10361 H 1019.39 -0.399823 -0.53013 0
M  V30 10362 H 1021.92 -1.67157 -1.17981 0
M  V30 10363 H 1021.93 -1.88834 -3.61671 0
M  V30 10364 H 1020.61 -2.86879 -3.0112 0
M  V30 10365 H 1019.18 -1.12044 -3.55669 0
M  V30 10366 N 1021.37 1.14642 -1.08144 0
M  V30 10367 C 1022.78 1.6719 -0.830923 0
M  V30 10368 C 1023.13 1.85373 0.642749 0
M  V30 10369 O 1022.25 1.56293 1.49671 0
M  V30 10370 C 1022.85 3.03697 -1.50179 0
M  V30 10371 C 1021.41 3.5329 -1.29858 0
M  V30 10372 C 1020.56 2.28828 -1.5663 0
M  V30 10373 H 1023.51 0.987441 -1.24239 0
M  V30 10374 H 1023.53 3.69023 -0.9275 0
M  V30 10375 H 1023.04 2.90431 -2.57432 0
M  V30 10376 H 1021.14 3.71783 -0.246626 0
M  V30 10377 H 1021.25 4.34231 -2.02436 0
M  V30 10378 H 1019.62 2.34769 -0.987716 0
M  V30 10379 H 1020.4 2.18141 -2.65084 0
M  V30 10380 N 1022.85 0.866709 1.31628 0
M  V30 10381 C 1023.79 0.318169 2.28596 0
M  V30 10382 C 1024.76 -0.581558 1.55586 0
M  V30 10383 O 1025.95 -0.513895 1.83749 0
M  V30 10384 C 1023.09 -0.477137 3.41786 0
M  V30 10385 C 1022.2 0.449739 4.29653 0
M  V30 10386 C 1021.34 -0.359373 5.29983 0
M  V30 10387 C 1020.37 0.564138 6.09495 0
M  V30 10388 N 1019.51 -0.208526 7.0179 0
M  V30 10389 H 1024.35 1.15029 2.74904 0
M  V30 10390 H 1021.89 0.578649 1.35241 0
M  V30 10391 H 1023.85 -0.953985 4.06146 0
M  V30 10392 H 1022.48 -1.27398 2.96597 0
M  V30 10393 H 1021.53 1.04502 3.65764 0
M  V30 10394 H 1022.84 1.158 4.85172 0
M  V30 10395 H 1021.99 -0.89887 6.00004 0
M  V30 10396 H 1020.73 -1.10094 4.75111 0
M  V30 10397 H 1019.74 1.11542 5.38366 0
M  V30 10398 H 1020.96 1.30451 6.66453 0
M  V30 10399 H 1018.91 -0.932969 6.49332 0
M  V30 10400 H 1018.83 0.440463 7.54716 0
M  V30 10401 H 1020.09 -0.72936 7.7608 0
M  V30 10402 N 1024.32 -1.44642 0.625825 0
M  V30 10403 C 1025.57 -2.02094 0.128201 0
M  V30 10404 C 1025.9 -1.49181 -1.24801 0
M  V30 10405 O 1025.15 -0.663965 -1.84092 0
M  V30 10406 C 1025.45 -3.57352 0.0584381 0
M  V30 10407 C 1025.12 -4.29496 1.37272 0
M  V30 10408 C 1023.78 -4.48922 1.7327 0
M  V30 10409 C 1026.13 -4.70586 2.2405 0
M  V30 10410 C 1023.46 -5.06697 2.95762 0
M  V30 10411 C 1025.81 -5.29717 3.45807 0
M  V30 10412 C 1024.48 -5.47363 3.82034 0
M  V30 10413 H 1023.75 -0.739514 0.0469122 0
M  V30 10414 H 1026.39 -1.73475 0.811083 0
M  V30 10415 H 1024.7 -3.85354 -0.707791 0
M  V30 10416 H 1026.4 -3.9953 -0.34303 0
M  V30 10417 H 1022.99 -4.14702 1.08258 0
M  V30 10418 H 1027.17 -4.55295 1.97535 0
M  V30 10419 H 1022.43 -5.18546 3.23913 0
M  V30 10420 H 1026.6 -5.60507 4.13286 0
M  V30 10421 H 1024.23 -5.91898 4.77033 0
M  V30 10422 N 1025.8 -0.366053 -1.5329 0
M  V30 10423 C 1027.03 0.224236 -2.05681 0
M  V30 10424 C 1027.44 1.42412 -1.23952 0
M  V30 10425 O 1026.8 1.80334 -0.280309 0
M  V30 10426 C 1026.85 0.617266 -3.56191 0
M  V30 10427 O 1026.57 -0.534931 -4.34822 0
M  V30 10428 C 1028.07 1.26589 -4.24841 0
M  V30 10429 H 1025.29 0.0392928 -0.669849 0
M  V30 10430 H 1027.84 -0.52456 -1.97658 0
M  V30 10431 H 1025.99 1.31598 -3.64364 0
M  V30 10432 H 1026.41 -0.217123 -5.2405 0
M  V30 10433 H 1027.88 1.49146 -5.31469 0
M  V30 10434 H 1028.36 2.22633 -3.78591 0
M  V30 10435 H 1028.96 0.6086 -4.20923 0
M  V30 10436 N 1027.28 1.57312 -0.0952337 0
M  V30 10437 C 1028.52 1.96239 0.571813 0
M  V30 10438 C 1028.88 0.97602 1.65342 0
M  V30 10439 O 1030.08 1.25379 2.37768 0
M  V30 10440 C 1028.36 3.39644 1.1125 0
M  V30 10441 S 1029.91 4.00568 1.7914 0
M  V30 10442 H 1026.73 0.686081 0.186585 0
M  V30 10443 H 1029.33 1.94718 -0.174669 0
M  V30 10444 H 1028.04 4.09199 0.313796 0
M  V30 10445 H 1027.57 3.44762 1.89481 0
M  V30 10446 H 1029.58 3.89383 3.07563 0
M  V30 10447 N 1028.76 -0.17846 1.56586 0
M  V30 10448 C 1029.72 -1.20479 1.94981 0
M  V30 10449 C 1030.72 -1.37561 0.832677 0
M  V30 10450 O 1031.91 -1.35089 1.09984 0
M  V30 10451 C 1029.04 -2.57117 2.23839 0
M  V30 10452 H 1030.24 -0.876173 2.86816 0
M  V30 10453 H 1027.79 -0.420635 1.50534 0
M  V30 10454 H 1028.52 -2.95005 1.34695 0
M  V30 10455 H 1028.31 -2.46086 3.05261 0
M  V30 10456 H 1029.8 -3.31096 2.5449 0
M  V30 10457 N 1030.24 -1.51135 -0.446768 0
M  V30 10458 C 1031.48 -1.64989 -1.20656 0
M  V30 10459 C 1031.84 -0.353882 -1.88711 0
M  V30 10460 O 1033.04 -0.368099 -2.66268 0
M  V30 10461 C 1031.31 -2.81371 -2.20375 0
M  V30 10462 S 1032.87 -3.15501 -3.04967 0
M  V30 10463 H 1029.69 -0.581372 -0.409301 0
M  V30 10464 H 1032.29 -1.89008 -0.499613 0
M  V30 10465 H 1030.99 -3.73988 -1.69001 0
M  V30 10466 H 1030.53 -2.59512 -2.95664 0
M  V30 10467 H 1032.54 -2.61205 -4.21884 0
M  V30 10468 N 1031.71 0.701592 -1.41122 0
M  V30 10469 C 1033.12 1.28129 -1.35793 0
M  V30 10470 C 1033.48 1.96163 -0.0381185 0
M  V30 10471 O 1032.6 1.98416 0.863723 0
M  V30 10472 C 1033.2 2.33005 -2.45955 0
M  V30 10473 C 1031.75 2.86566 -2.44043 0
M  V30 10474 C 1030.9 1.60526 -2.26112 0
M  V30 10475 H 1033.85 0.496756 -1.50725 0
M  V30 10476 H 1033.87 3.14163 -2.14667 0
M  V30 10477 H 1033.39 1.8346 -3.42 0
M  V30 10478 H 1031.49 3.40304 -1.51737 0
M  V30 10479 H 1031.6 3.37406 -3.40138 0
M  V30 10480 H 1029.96 1.86113 -1.7388 0
M  V30 10481 H 1030.75 1.12985 -3.24175 0
M  V30 10482 N 1033.19 1.2685 0.935242 0
M  V30 10483 C 1034.47 1.03483 1.65984 0
M  V30 10484 C 1034.85 -0.432859 2.06614 0
M  V30 10485 O 1034.2 -1.4145 1.79455 0
M  V30 10486 C 1034.41 1.98924 2.86758 0
M  V30 10487 C 1035.75 2.2787 3.58274 0
M  V30 10488 O 1036.78 1.96838 2.96873 0
M  V30 10489 O 1035.64 2.80734 4.68882 0
M  V30 10490 H 1032.73 0.393932 0.72715 0
M  V30 10491 H 1035.28 1.38085 0.986445 0
M  V30 10492 H 1034.05 2.9794 2.53668 0
M  V30 10493 H 1033.67 1.64839 3.6182 0
M  V30 10494 N 1034.67 -1.14067 1.0875 0
M  V30 10495 C 1035.92 -1.84819 0.817698 0
M  V30 10496 C 1036.24 -1.83545 -0.658488 0
M  V30 10497 O 1035.51 -1.28633 -1.47751 0
M  V30 10498 H 1034.09 -0.68433 0.299502 0
M  V30 10499 H 1036.75 -1.38208 1.37421 0
M  V30 10500 H 1035.85 -2.89541 1.16501 0
M  V30 10501 N 1036.15 -0.873678 -1.31166 0
M  V30 10502 C 1037.08 -0.276805 -2.26515 0
M  V30 10503 C 1038.06 0.596166 -1.51277 0
M  V30 10504 O 1039.24 0.548769 -1.80335 0
M  V30 10505 C 1036.37 0.607711 -3.33203 0
M  V30 10506 C 1035.42 -0.194411 -4.26057 0
M  V30 10507 S 1036.25 -1.57534 -5.11804 0
M  V30 10508 C 1037.41 -0.697047 -6.22006 0
M  V30 10509 H 1037.64 -1.08505 -2.76792 0
M  V30 10510 H 1035.17 -0.672419 -1.38989 0
M  V30 10511 H 1037.13 1.11234 -3.95142 0
M  V30 10512 H 1035.79 1.38994 -2.81673 0
M  V30 10513 H 1034.98 0.480094 -5.01708 0
M  V30 10514 H 1034.59 -0.631262 -3.68634 0
M  V30 10515 H 1036.88 0.0907919 -6.77439 0
M  V30 10516 H 1037.82 -1.42481 -6.93617 0
M  V30 10517 H 1038.23 -0.262954 -5.63887 0
M  V30 10518 N 1037.63 1.44308 -0.633487 0
M  V30 10519 C 1038.56 2.33431 0.0568402 0
M  V30 10520 C 1039.54 1.48342 0.832386 0
M  V30 10521 O 1040.72 1.77056 0.797798 0
M  V30 10522 C 1037.85 3.31443 1.03743 0
M  V30 10523 C 1036.81 4.26368 0.373362 0
M  V30 10524 C 1036.13 5.14267 1.46403 0
M  V30 10525 C 1037.43 5.17287 -0.721876 0
M  V30 10526 H 1039.13 2.91402 -0.687388 0
M  V30 10527 H 1036.67 1.4012 -0.332009 0
M  V30 10528 H 1038.63 3.92677 1.52913 0
M  V30 10529 H 1037.35 2.71686 1.81258 0
M  V30 10530 H 1036.01 3.6647 -0.0977053 0
M  V30 10531 H 1035.66 4.50861 2.23011 0
M  V30 10532 H 1035.36 5.7859 1.02506 0
M  V30 10533 H 1036.88 5.78373 1.95748 0
M  V30 10534 H 1038.29 5.72444 -0.313181 0
M  V30 10535 H 1036.69 5.90226 -1.08413 0
M  V30 10536 H 1037.76 4.58159 -1.58804 0
M  V30 10537 N 1039.1 0.374177 1.53094 0
M  V30 10538 C 1040.03 -0.459976 2.28925 0
M  V30 10539 C 1041.02 -1.07656 1.31698 0
M  V30 10540 O 1042.2 -1.09219 1.60577 0
M  V30 10541 C 1039.33 -1.5954 3.08487 0
M  V30 10542 C 1038.28 -1.10563 4.13473 0
M  V30 10543 C 1037.61 -2.33196 4.81169 0
M  V30 10544 C 1038.91 -0.184275 5.21975 0
M  V30 10545 H 1040.6 0.172692 2.98902 0
M  V30 10546 H 1038.15 0.0844956 1.43752 0
M  V30 10547 H 1040.1 -2.18565 3.60288 0
M  V30 10548 H 1038.83 -2.25543 2.36216 0
M  V30 10549 H 1037.49 -0.53801 3.62631 0
M  V30 10550 H 1037.13 -2.97675 4.05461 0
M  V30 10551 H 1036.83 -2.01094 5.52119 0
M  V30 10552 H 1038.36 -2.92892 5.35767 0
M  V30 10553 H 1039.77 -0.682262 5.69226 0
M  V30 10554 H 1038.17 0.0462746 6.00082 0
M  V30 10555 H 1039.24 0.771152 4.78729 0
M  V30 10556 N 1040.58 -1.57259 0.103575 0
M  V30 10557 C 1041.55 -2.13337 -0.837859 0
M  V30 10558 C 1042.55 -1.06459 -1.20512 0
M  V30 10559 O 1043.74 -1.32307 -1.13316 0
M  V30 10560 C 1040.87 -2.66093 -2.13089 0
M  V30 10561 H 1042.06 -2.97842 -0.350775 0
M  V30 10562 H 1039.61 -1.55621 -0.145511 0
M  V30 10563 H 1040.35 -1.85133 -2.66264 0
M  V30 10564 H 1040.13 -3.44244 -1.87719 0
M  V30 10565 H 1041.62 -3.09443 -2.80419 0
M  V30 10566 N 1042.06 0.170153 -1.56679 0
M  V30 10567 C 1043.48 0.521966 -1.50823 0
M  V30 10568 C 1043.68 1.84589 -0.808037 0
M  V30 10569 O 1042.73 2.49791 -0.368891 0
M  V30 10570 C 1044.05 0.553648 -2.95559 0
M  V30 10571 C 1045.59 0.640769 -3.06371 0
M  V30 10572 C 1046.07 0.703332 -4.52567 0
M  V30 10573 N 1047.56 0.76619 -4.56819 0
M  V30 10574 C 1048.29 0.835192 -5.67285 0
M  V30 10575 N 1047.79 0.864957 -6.87379 0
M  V30 10576 N 1049.58 0.874302 -5.55259 0
M  V30 10577 H 1041.73 -0.697952 -2.00605 0
M  V30 10578 H 1044 -0.251787 -0.913952 0
M  V30 10579 H 1043.7 -0.350498 -3.49949 0
M  V30 10580 H 1043.58 1.39973 -3.50268 0
M  V30 10581 H 1045.96 1.53534 -2.52015 0
M  V30 10582 H 1046.05 -0.232008 -2.54746 0
M  V30 10583 H 1045.69 -0.186986 -5.07556 0
M  V30 10584 H 1045.62 1.59227 -5.0195 0
M  V30 10585 H 1048.11 0.751424 -3.70354 0
M  V30 10586 H 1048.42 0.918814 -7.67318 0
M  V30 10587 H 1046.77 0.833215 -6.89987 0
M  V30 10588 H 1049.96 0.848057 -4.60354 0
M  V30 10589 H 1050.13 0.924615 -6.4137 0
M  V30 10590 N 1043.54 1.5137 0.438746 0
M  V30 10591 C 1044.82 1.54508 1.19944 0
M  V30 10592 C 1045.2 0.308525 2.08833 0
M  V30 10593 O 1044.54 -0.706461 2.17305 0
M  V30 10594 C 1044.75 2.85833 2.00251 0
M  V30 10595 C 1046.1 3.37729 2.5734 0
M  V30 10596 O 1047.13 2.87374 2.10463 0
M  V30 10597 O 1045.98 4.25589 3.42836 0
M  V30 10598 H 1043.08 0.621132 0.546007 0
M  V30 10599 H 1045.62 1.63682 0.447931 0
M  V30 10600 H 1044.4 3.67291 1.34955 0
M  V30 10601 H 1044.02 2.79815 2.8247 0
M  V30 10602 N 1045.02 -0.694098 1.41492 0
M  V30 10603 C 1045.95 -1.81841 1.37873 0
M  V30 10604 C 1046.93 -1.60732 0.245772 0
M  V30 10605 O 1048.11 -1.83461 0.432917 0
M  V30 10606 C 1045.24 -3.18543 1.15099 0
M  V30 10607 C 1044.28 -3.5844 2.31133 0
M  V30 10608 S 1045.12 -3.63079 3.93617 0
M  V30 10609 C 1046.27 -5.02505 3.73148 0
M  V30 10610 H 1046.51 -1.84634 2.33018 0
M  V30 10611 H 1044.04 -0.862948 1.28033 0
M  V30 10612 H 1046 -3.9746 1.02646 0
M  V30 10613 H 1044.66 -3.13358 0.21572 0
M  V30 10614 H 1043.85 -4.57754 2.10896 0
M  V30 10615 H 1043.45 -2.86837 2.40002 0
M  V30 10616 H 1045.75 -5.90046 3.32945 0
M  V30 10617 H 1046.69 -5.27784 4.72069 0
M  V30 10618 H 1047.1 -4.74113 3.06394 0
M  V30 10619 N 1046.49 -1.27344 -0.928501 0
M  V30 10620 C 1047.91 -1.04732 -1.2043 0
M  V30 10621 C 1048.11 0.219623 -2.003 0
M  V30 10622 O 1047.17 0.925333 -2.34934 0
M  V30 10623 C 1048.48 -2.28625 -1.95323 0
M  V30 10624 C 1050.03 -2.33655 -2.08265 0
M  V30 10625 C 1050.5 -3.57275 -2.86563 0
M  V30 10626 N 1051.99 -3.57828 -2.94132 0
M  V30 10627 C 1052.73 -4.50152 -3.55177 0
M  V30 10628 N 1052.22 -5.52779 -4.17621 0
M  V30 10629 N 1054.02 -4.37777 -3.52573 0
M  V30 10630 H 1046.17 -2.08697 -0.394892 0
M  V30 10631 H 1048.43 -0.91782 -0.2373 0
M  V30 10632 H 1048.14 -3.20845 -1.44054 0
M  V30 10633 H 1048.01 -2.33878 -2.95941 0
M  V30 10634 H 1050.4 -1.41942 -2.58721 0
M  V30 10635 H 1050.48 -2.32406 -1.0687 0
M  V30 10636 H 1050.12 -4.49325 -2.3679 0
M  V30 10637 H 1050.05 -3.55775 -3.88242 0
M  V30 10638 H 1052.54 -2.83607 -2.49751 0
M  V30 10639 H 1052.86 -6.19394 -4.62137 0
M  V30 10640 H 1051.2 -5.56622 -4.16169 0
M  V30 10641 H 1054.39 -3.56811 -3.02991 0
M  V30 10642 H 1054.57 -5.09919 -3.99858 0
M  V30 10643 N 1047.97 1.13488 -1.09353 0
M  V30 10644 C 1049.2 1.89133 -0.85108 0
M  V30 10645 C 1049.62 1.78542 0.591976 0
M  V30 10646 O 1048.98 1.13243 1.41583 0
M  V30 10647 C 1049.03 3.36736 -1.29001 0
M  V30 10648 O 1048.13 4.09959 -0.447993 0
M  V30 10649 H 1047.47 0.58809 -0.308296 0
M  V30 10650 H 1050 1.43593 -1.45747 0
M  V30 10651 H 1050.01 3.87564 -1.27508 0
M  V30 10652 H 1048.69 3.43762 -2.34095 0
M  V30 10653 H 1047.27 3.69155 -0.52717 0
M  V30 10654 N 1049.45 0.880621 1.30701 0
M  V30 10655 C 1050.69 0.503519 1.98101 0
M  V30 10656 C 1051.06 -0.929075 1.68024 0
M  V30 10657 O 1052.26 -1.41208 2.28722 0
M  V30 10658 C 1050.53 0.765652 3.49102 0
M  V30 10659 S 1052.09 0.490001 4.36056 0
M  V30 10660 H 1048.9 0.187522 0.685825 0
M  V30 10661 H 1051.51 1.13895 1.58897 0
M  V30 10662 H 1050.21 1.80688 3.68484 0
M  V30 10663 H 1049.74 0.117616 3.93224 0
M  V30 10664 H 1051.76 -0.673236 4.91612 0
M  V30 10665 N 1050.93 -1.4397 0.641131 0
M  V30 10666 C 1051.86 -2.33458 -0.04446 0
M  V30 10667 C 1052.84 -1.48781 -0.824507 0
M  V30 10668 O 1054.03 -1.77477 -0.788397 0
M  V30 10669 C 1051.16 -3.31989 -1.01984 0
M  V30 10670 C 1050.11 -4.2656 -0.350745 0
M  V30 10671 C 1049.44 -5.15036 -1.43673 0
M  V30 10672 C 1050.74 -5.16897 0.749299 0
M  V30 10673 H 1052.43 -2.91034 0.702832 0
M  V30 10674 H 1049.98 -1.39942 0.339435 0
M  V30 10675 H 1051.93 -3.93483 -1.50828 0
M  V30 10676 H 1050.65 -2.72643 -1.79815 0
M  V30 10677 H 1049.31 -3.66413 0.117139 0
M  V30 10678 H 1048.96 -4.52037 -2.20617 0
M  V30 10679 H 1048.66 -5.79125 -0.994358 0
M  V30 10680 H 1050.18 -5.79403 -1.92678 0
M  V30 10681 H 1051.6 -5.7227 0.343534 0
M  V30 10682 H 1049.99 -5.89643 1.11541 0
M  V30 10683 H 1051.06 -4.5731 1.61232 0
M  V30 10684 N 1052.41 -0.382291 -1.52893 0
M  V30 10685 C 1053.64 0.202408 -2.05908 0
M  V30 10686 C 1054.05 1.4109 -1.25456 0
M  V30 10687 O 1053.41 1.80027 -0.29942 0
M  V30 10688 C 1053.46 0.579452 -3.56826 0
M  V30 10689 O 1053.18 -0.58102 -4.3423 0
M  V30 10690 C 1054.68 1.22076 -4.2616 0
M  V30 10691 H 1051.9 0.0321859 -0.670228 0
M  V30 10692 H 1054.44 -0.545494 -1.9709 0
M  V30 10693 H 1052.6 1.27726 -3.65739 0
M  V30 10694 H 1053.01 -0.272693 -5.23791 0
M  V30 10695 H 1054.49 1.435 -5.33021 0
M  V30 10696 H 1054.96 2.18605 -3.80931 0
M  V30 10697 H 1055.57 0.563922 -4.21545 0
M  V30 10698 N 1053.89 1.57202 -0.111913 0
M  V30 10699 C 1054.8 2.18475 0.854753 0
M  V30 10700 C 1055.81 1.15888 1.29792 0
M  V30 10701 O 1056.99 1.48329 1.36237 0
M  V30 10702 C 1054.05 2.76645 2.0897 0
M  V30 10703 C 1053.11 3.94244 1.69913 0
M  V30 10704 C 1052.35 4.49631 2.8752 0
M  V30 10705 O 1052.57 4.03926 4.02741 0
M  V30 10706 O 1051.5 5.40417 2.65015 0
M  V30 10707 H 1055.33 3.01519 0.363352 0
M  V30 10708 H 1052.91 1.4897 0.113329 0
M  V30 10709 H 1054.8 3.13755 2.81311 0
M  V30 10710 H 1053.47 1.96637 2.5713 0
M  V30 10711 H 1052.38 3.61915 0.947013 0
M  V30 10712 H 1053.71 4.75666 1.26501 0
M  V30 10713 N 1055.36 -0.161842 1.56767 0
M  V30 10714 C 1056.33 -1.18404 1.96247 0
M  V30 10715 C 1057.33 -1.3667 0.84722 0
M  V30 10716 O 1058.52 -1.33915 1.11411 0
M  V30 10717 C 1055.65 -2.54728 2.26553 0
M  V30 10718 H 1056.84 -0.845703 2.87729 0
M  V30 10719 H 1054.39 -0.404645 1.50971 0
M  V30 10720 H 1055.13 -2.93559 1.37816 0
M  V30 10721 H 1054.91 -2.42834 3.07854 0
M  V30 10722 H 1056.4 -3.28378 2.57987 0
M  V30 10723 N 1056.84 -1.516 -0.430713 0
M  V30 10724 C 1057.75 -1.76247 -1.54836 0
M  V30 10725 C 1058.77 -0.646985 -1.61524 0
M  V30 10726 O 1059.94 -0.929987 -1.78643 0
M  V30 10727 C 1057.01 -1.88833 -2.90763 0
M  V30 10728 C 1056.07 -3.12701 -2.94137 0
M  V30 10729 C 1055.3 -3.24676 -4.23581 0
M  V30 10730 O 1055.53 -2.42429 -5.16318 0
M  V30 10731 O 1054.46 -4.17697 -4.33374 0
M  V30 10732 H 1058.29 -2.71069 -1.3695 0
M  V30 10733 H 1055.87 -1.36182 -0.614396 0
M  V30 10734 H 1057.75 -1.99057 -3.71422 0
M  V30 10735 H 1056.43 -0.971987 -3.08762 0
M  V30 10736 H 1055.33 -3.0795 -2.1241 0
M  V30 10737 H 1056.67 -4.04045 -2.81084 0
M  V30 10738 N 1058.32 0.686584 -1.41858 0
M  V30 10739 C 1059.28 1.78214 -1.44126 0
M  V30 10740 C 1060.28 1.57366 -0.330541 0
M  V30 10741 O 1061.47 1.63874 -0.590837 0
M  V30 10742 C 1058.6 3.16704 -1.26142 0
M  V30 10743 H 1059.8 1.77594 -2.41661 0
M  V30 10744 H 1057.35 0.895085 -1.28132 0
M  V30 10745 H 1058.09 3.22957 -0.294823 0
M  V30 10746 H 1057.87 3.33238 -2.06627 0
M  V30 10747 H 1059.36 3.96658 -1.30584 0
M  V30 10748 N 1059.8 1.27835 0.921735 0
M  V30 10749 C 1060.76 1.11108 2.00469 0
M  V30 10750 C 1061.76 0.053203 1.60712 0
M  V30 10751 O 1062.95 0.298308 1.71627 0
M  V30 10752 C 1060.08 0.694269 3.33755 0
M  V30 10753 H 1061.28 2.07279 2.16738 0
M  V30 10754 H 1058.83 1.10708 1.10333 0
M  V30 10755 H 1059.56 -0.268561 3.23186 0
M  V30 10756 H 1059.35 1.45836 3.6397 0
M  V30 10757 H 1060.84 0.59965 4.13272 0
M  V30 10758 N 1061.28 -1.12907 1.09954 0
M  V30 10759 C 1062.52 -1.84579 0.840155 0
M  V30 10760 C 1062.85 -1.83605 -0.632692 0
M  V30 10761 O 1062.13 -1.27803 -1.46617 0
M  V30 10762 C 1062.41 -3.32489 1.38286 0
M  V30 10763 C 1062.27 -3.41946 2.92221 0
M  V30 10764 C 1063.58 -4.28091 1.0211 0
M  V30 10765 H 1060.7 -0.670169 0.306663 0
M  V30 10766 H 1063.35 -1.3249 1.36185 0
M  V30 10767 H 1061.5 -3.76978 0.939123 0
M  V30 10768 H 1063.17 -3.06128 3.45085 0
M  V30 10769 H 1061.41 -2.8265 3.29077 0
M  V30 10770 H 1062.08 -4.45983 3.25274 0
M  V30 10771 H 1064.56 -3.91701 1.4039 0
M  V30 10772 H 1063.43 -5.30005 1.42781 0
M  V30 10773 H 1063.69 -4.42044 -0.0700753 0
M  V30 10774 N 1062.75 -0.88754 -1.30232 0
M  V30 10775 C 1063.72 -0.361095 -2.26338 0
M  V30 10776 C 1064.72 0.497871 -1.52898 0
M  V30 10777 O 1065.91 0.30466 -1.71515 0
M  V30 10778 C 1063.04 0.485135 -3.3743 0
M  V30 10779 H 1064.23 -1.20973 -2.74419 0
M  V30 10780 H 1061.78 -0.664619 -1.41466 0
M  V30 10781 H 1062.52 1.35425 -2.9467 0
M  V30 10782 H 1062.3 -0.130173 -3.91884 0
M  V30 10783 H 1063.79 0.845169 -4.08958 0
M  V30 10784 N 1064.23 1.43628 -0.648757 0
M  V30 10785 C 1065.46 2.06217 -0.167945 0
M  V30 10786 C 1065.88 1.486 1.16462 0
M  V30 10787 O 1065.23 0.61559 1.71804 0
M  V30 10788 C 1065.28 3.6144 -0.0660114 0
M  V30 10789 O 1065 4.16914 -1.34589 0
M  V30 10790 C 1066.51 4.41097 0.441408 0
M  V30 10791 H 1063.73 0.665228 -0.0878237 0
M  V30 10792 H 1066.27 1.84207 -0.888144 0
M  V30 10793 H 1064.42 3.82651 0.604722 0
M  V30 10794 H 1064.84 5.10537 -1.20218 0
M  V30 10795 H 1066.31 5.50066 0.461697 0
M  V30 10796 H 1066.79 4.13803 1.47187 0
M  V30 10797 H 1067.4 4.24845 -0.19668 0
M  V30 10798 N 1065.71 0.390394 1.52688 0
M  V30 10799 C 1066.64 -0.479319 2.24132 0
M  V30 10800 C 1067.66 -1.0258 1.26416 0
M  V30 10801 O 1068.84 -0.927943 1.52484 0
M  V30 10802 C 1065.94 -1.67711 2.94493 0
M  V30 10803 C 1065.12 -1.2578 4.18925 0
M  V30 10804 C 1064.18 -2.3204 4.72275 0
M  V30 10805 O 1063.2 -1.93402 5.35336 0
M  V30 10806 N 1064.4 -3.63967 4.52226 0
M  V30 10807 H 1067.17 0.132777 2.99406 0
M  V30 10808 H 1064.73 0.216807 1.60442 0
M  V30 10809 H 1066.72 -2.38323 3.27084 0
M  V30 10810 H 1065.29 -2.19552 2.22521 0
M  V30 10811 H 1064.51 -0.380528 3.92359 0
M  V30 10812 H 1065.8 -0.954329 4.9977 0
M  V30 10813 H 1065.2 -3.98119 4.01892 0
M  V30 10814 H 1063.76 -4.30611 4.89303 0
M  V30 10815 N 1067.19 -1.57141 0.120249 0
M  V30 10816 C 1068.1 -2.18925 -0.843155 0
M  V30 10817 C 1069.11 -1.16575 -1.29175 0
M  V30 10818 O 1070.29 -1.4905 -1.35448 0
M  V30 10819 C 1067.36 -2.7775 -2.075 0
M  V30 10820 C 1066.42 -3.95139 -1.6782 0
M  V30 10821 C 1065.65 -4.51149 -2.85132 0
M  V30 10822 O 1065.87 -4.06056 -4.00593 0
M  V30 10823 O 1064.81 -5.41815 -2.62145 0
M  V30 10824 H 1068.63 -3.01707 -0.347357 0
M  V30 10825 H 1066.22 -1.49028 -0.105427 0
M  V30 10826 H 1068.1 -3.15243 -2.79643 0
M  V30 10827 H 1066.77 -1.97998 -2.56083 0
M  V30 10828 H 1065.68 -3.62412 -0.927807 0
M  V30 10829 H 1067.01 -4.7633 -1.23977 0
M  V30 10830 N 1068.67 0.153526 -1.5685 0
M  V30 10831 C 1069.89 0.882335 -1.87143 0
M  V30 10832 C 1070.31 1.75034 -0.707702 0
M  V30 10833 O 1069.67 1.79624 0.32273 0
M  V30 10834 C 1069.72 1.74444 -3.16625 0
M  V30 10835 O 1069.44 0.911419 -4.28515 0
M  V30 10836 C 1070.94 2.58139 -3.60388 0
M  V30 10837 H 1068.16 0.25546 -0.620469 0
M  V30 10838 H 1070.7 0.148275 -2.03962 0
M  V30 10839 H 1068.86 2.43163 -3.0158 0
M  V30 10840 H 1069.27 1.50268 -5.02513 0
M  V30 10841 H 1070.75 3.14215 -4.53842 0
M  V30 10842 H 1071.22 3.33865 -2.85361 0
M  V30 10843 H 1071.83 1.94721 -3.78105 0
M  V30 10844 N 1070.14 1.51827 0.422667 0
M  V30 10845 C 1071.37 1.69337 1.19748 0
M  V30 10846 C 1071.79 0.396312 1.83878 0
M  V30 10847 O 1071.15 -0.644976 1.6944 0
M  V30 10848 C 1071.2 2.82082 2.24637 0
M  V30 10849 O 1070.3 2.46708 3.30468 0
M  V30 10850 H 1069.65 0.564154 0.35018 0
M  V30 10851 H 1072.18 1.98465 0.497289 0
M  V30 10852 H 1072.19 3.06599 2.69186 0
M  V30 10853 H 1070.86 3.76195 1.77341 0
M  V30 10854 H 1069.44 2.32815 2.91293 0
M  V30 10855 N 1071.62 -0.679052 1.4222 0
M  V30 10856 C 1072.85 -1.46747 1.45852 0
M  V30 10857 C 1073.27 -1.88675 0.0685937 0
M  V30 10858 O 1072.62 -1.57861 -0.915757 0
M  V30 10859 C 1072.67 -2.71935 2.38188 0
M  V30 10860 O 1072.39 -2.31768 3.71773 0
M  V30 10861 C 1073.9 -3.65536 2.50796 0
M  V30 10862 H 1071.12 -0.451682 0.49621 0
M  V30 10863 H 1073.66 -0.834723 1.86689 0
M  V30 10864 H 1071.81 -3.31409 2.00616 0
M  V30 10865 H 1072.23 -3.12579 4.21182 0
M  V30 10866 H 1073.7 -4.50113 3.19535 0
M  V30 10867 H 1074.18 -4.11148 1.54447 0
M  V30 10868 H 1074.79 -3.11957 2.89072 0
M  V30 10869 N 1073.1 -1.28322 -0.914942 0
M  V30 10870 C 1074.35 -1.15578 -1.66642 0
M  V30 10871 C 1074.68 0.295209 -1.91943 0
M  V30 10872 O 1073.95 1.21482 -1.51896 0
M  V30 10873 C 1074.24 -1.9535 -3.02507 0
M  V30 10874 C 1074.09 -3.48504 -2.84367 0
M  V30 10875 C 1075.41 -1.76798 -4.03027 0
M  V30 10876 H 1072.53 -0.421234 -0.604757 0
M  V30 10877 H 1075.17 -1.57625 -1.06087 0
M  V30 10878 H 1073.32 -1.59619 -3.54195 0
M  V30 10879 H 1074.99 -3.94135 -2.39699 0
M  V30 10880 H 1073.24 -3.74198 -2.1945 0
M  V30 10881 H 1073.91 -3.99576 -3.80845 0
M  V30 10882 H 1076.38 -2.07977 -3.60395 0
M  V30 10883 H 1075.26 -2.34987 -4.96057 0
M  V30 10884 H 1075.52 -0.719162 -4.36211 0
M  V30 10885 N 1074.58 1.12322 -1.10551 0
M  V30 10886 C 1075.99 1.35858 -0.837543 0
M  V30 10887 C 1076.19 1.94062 0.54241 0
M  V30 10888 O 1075.25 2.1676 1.29505 0
M  V30 10889 C 1076.56 2.299 -1.9382 0
M  V30 10890 C 1078.11 2.43488 -1.96679 0
M  V30 10891 C 1078.59 3.40846 -3.05922 0
M  V30 10892 N 1080.08 3.48404 -3.05236 0
M  V30 10893 C 1080.81 4.2365 -3.86405 0
M  V30 10894 N 1080.31 5.01951 -4.77512 0
M  V30 10895 N 1082.1 4.19068 -3.74618 0
M  V30 10896 H 1074.25 0.729002 -1.99498 0
M  V30 10897 H 1076.52 0.38339 -0.867016 0
M  V30 10898 H 1076.22 1.94309 -2.9315 0
M  V30 10899 H 1076.1 3.30033 -1.82641 0
M  V30 10900 H 1078.48 2.78359 -0.979813 0
M  V30 10901 H 1078.56 1.43239 -2.11934 0
M  V30 10902 H 1078.21 3.06704 -4.04839 0
M  V30 10903 H 1078.14 4.40927 -2.87907 0
M  V30 10904 H 1080.63 2.92545 -2.39219 0
M  V30 10905 H 1080.94 5.56707 -5.36002 0
M  V30 10906 H 1079.29 5.01143 -4.8154 0
M  V30 10907 H 1082.48 3.5698 -3.02792 0
M  V30 10908 H 1082.65 4.77455 -4.38111 0
M  V30 10909 N 1076.06 0.894434 1.2976 0
M  V30 10910 C 1076.99 0.3847 2.30309 0
M  V30 10911 C 1077.97 -0.537486 1.61385 0
M  V30 10912 O 1079.15 -0.449332 1.8893 0
M  V30 10913 C 1076.28 -0.393311 3.45066 0
M  V30 10914 C 1075.24 0.437968 4.25753 0
M  V30 10915 C 1074.56 -0.467221 5.32655 0
M  V30 10916 C 1075.86 1.6851 4.9437 0
M  V30 10917 H 1077.56 1.22496 2.73194 0
M  V30 10918 H 1075.1 0.590471 1.31337 0
M  V30 10919 H 1077.06 -0.760614 4.14479 0
M  V30 10920 H 1075.78 -1.2673 3.0101 0
M  V30 10921 H 1074.44 0.787533 3.58041 0
M  V30 10922 H 1074.09 -1.33919 4.84845 0
M  V30 10923 H 1073.79 0.0852482 5.87538 0
M  V30 10924 H 1075.31 -0.830833 6.04921 0
M  V30 10925 H 1076.72 1.38784 5.56248 0
M  V30 10926 H 1075.12 2.17849 5.59162 0
M  V30 10927 H 1076.19 2.42412 4.19958 0
M  V30 10928 N 1077.53 -1.43282 0.656365 0
M  V30 10929 C 1078.48 -2.30776 -0.0333155 0
M  V30 10930 C 1079.45 -1.44928 -0.811493 0
M  V30 10931 O 1080.64 -1.73792 -0.787465 0
M  V30 10932 C 1077.78 -3.30548 -0.991566 0
M  V30 10933 C 1076.89 -4.31493 -0.209159 0
M  V30 10934 C 1076.02 -5.18346 -1.16149 0
M  V30 10935 C 1075.06 -6.10983 -0.369699 0
M  V30 10936 N 1074.2 -6.90449 -1.27378 0
M  V30 10937 H 1079.04 -2.89204 0.718668 0
M  V30 10938 H 1076.58 -1.4247 0.366161 0
M  V30 10939 H 1078.54 -3.86905 -1.56078 0
M  V30 10940 H 1077.17 -2.73762 -1.71039 0
M  V30 10941 H 1076.22 -3.77405 0.476394 0
M  V30 10942 H 1077.53 -4.97142 0.406394 0
M  V30 10943 H 1076.68 -5.79345 -1.80124 0
M  V30 10944 H 1075.42 -4.52831 -1.81095 0
M  V30 10945 H 1074.43 -5.49069 0.283377 0
M  V30 10946 H 1075.65 -6.78541 0.275399 0
M  V30 10947 H 1073.6 -6.27579 -1.90999 0
M  V30 10948 H 1073.52 -7.52631 -0.71287 0
M  V30 10949 H 1074.78 -7.5595 -1.90158 0
M  V30 10950 N 1079.01 -0.398486 -1.52479 0
M  V30 10951 C 1080.26 0.181019 -2.0199 0
M  V30 10952 C 1080.59 1.45691 -1.28405 0
M  V30 10953 O 1079.87 1.90607 -0.387207 0
M  V30 10954 C 1080.15 0.439587 -3.57407 0
M  V30 10955 C 1080 -0.85223 -4.41653 0
M  V30 10956 C 1081.32 1.2263 -4.2267 0
M  V30 10957 H 1078.44 0.0643164 -0.734188 0
M  V30 10958 H 1081.08 -0.52986 -1.82462 0
M  V30 10959 H 1079.23 1.04516 -3.74177 0
M  V30 10960 H 1080.91 -1.48879 -4.36615 0
M  V30 10961 H 1079.15 -1.46555 -4.08294 0
M  V30 10962 H 1079.82 -0.625839 -5.48441 0
M  V30 10963 H 1082.3 0.713722 -4.09933 0
M  V30 10964 H 1081.17 1.37596 -5.31374 0
M  V30 10965 H 1081.43 2.24403 -3.80914 0
M  V30 10966 N 1080.49 1.57075 -0.12858 0
M  V30 10967 C 1081.72 2.00305 0.537839 0
M  V30 10968 C 1082.14 1.00787 1.58819 0
M  V30 10969 O 1081.5 -0.0190839 1.8129 0
M  V30 10970 C 1081.55 3.42371 1.13201 0
M  V30 10971 O 1080.65 3.45786 2.24735 0
M  V30 10972 H 1079.99 0.650456 0.133428 0
M  V30 10973 H 1082.52 2.03415 -0.219882 0
M  V30 10974 H 1082.53 3.80783 1.4652 0
M  V30 10975 H 1081.21 4.14315 0.362713 0
M  V30 10976 H 1079.78 3.19201 1.92783 0
M  V30 10977 N 1081.97 -0.145205 1.5693 0
M  V30 10978 C 1083.19 -0.876386 1.87974 0
M  V30 10979 C 1083.62 -1.73866 0.717795 0
M  V30 10980 O 1082.98 -1.78224 -0.332551 0
M  V30 10981 C 1083.03 -1.70746 3.17613 0
M  V30 10982 O 1082.13 -2.81188 3.01674 0
M  V30 10983 H 1081.47 -0.243987 0.617549 0
M  V30 10984 H 1084 -0.135482 2.04151 0
M  V30 10985 H 1084.01 -2.1021 3.49679 0
M  V30 10986 H 1082.69 -1.07429 4.01786 0
M  V30 10987 H 1081.26 -2.45117 2.81019 0
M  V30 10988 N 1083.45 -1.52049 -0.414609 0
M  V30 10989 C 1084.68 -1.69679 -1.18392 0
M  V30 10990 C 1085.09 -0.403881 -1.84429 0
M  V30 10991 O 1084.45 0.619636 -1.71659 0
M  V30 10992 C 1084.5 -2.82855 -2.25112 0
M  V30 10993 O 1084.22 -4.07138 -1.61772 0
M  V30 10994 C 1085.72 -3.11948 -3.14965 0
M  V30 10995 H 1082.94 -0.56879 -0.355977 0
M  V30 10996 H 1085.48 -1.9858 -0.488505 0
M  V30 10997 H 1083.64 -2.56488 -2.90332 0
M  V30 10998 H 1084.05 -4.70163 -2.32479 0
M  V30 10999 H 1085.53 -3.94665 -3.85932 0
M  V30 11000 H 1086 -2.25276 -3.77024 0
M  V30 11001 H 1086.61 -3.40059 -2.55421 0
M  V30 11002 N 1084.93 0.6715 -1.42579 0
M  V30 11003 C 1085.89 1.76676 -1.46008 0
M  V30 11004 C 1086.89 1.57007 -0.347213 0
M  V30 11005 O 1088.08 1.63238 -0.608185 0
M  V30 11006 C 1085.21 3.15348 -1.29494 0
M  V30 11007 H 1086.4 1.75021 -2.43531 0
M  V30 11008 H 1083.96 0.881444 -1.29075 0
M  V30 11009 H 1084.69 3.22626 -0.32906 0
M  V30 11010 H 1084.48 3.31028 -2.10149 0
M  V30 11011 H 1085.97 3.95251 -1.34784 0
M  V30 11012 N 1086.4 1.28806 0.908124 0
M  V30 11013 C 1087.65 1.1646 1.66027 0
M  V30 11014 C 1087.98 -0.285025 1.92097 0
M  V30 11015 O 1087.26 -1.20675 1.52538 0
M  V30 11016 C 1087.54 1.96951 3.01467 0
M  V30 11017 C 1087.39 3.50007 2.82515 0
M  V30 11018 C 1088.71 1.78932 4.02084 0
M  V30 11019 H 1085.83 0.424435 0.602515 0
M  V30 11020 H 1088.47 1.58185 1.0525 0
M  V30 11021 H 1086.62 1.61495 3.53344 0
M  V30 11022 H 1088.3 3.95401 2.37605 0
M  V30 11023 H 1086.54 3.75356 2.17463 0
M  V30 11024 H 1087.21 4.01591 3.7872 0
M  V30 11025 H 1089.69 2.09885 3.59287 0
M  V30 11026 H 1088.56 2.37615 4.94803 0
M  V30 11027 H 1088.82 0.742286 4.35824 0
M  V30 11028 N 1087.88 -1.11734 1.11145 0
M  V30 11029 C 1089.3 -1.35412 0.844736 0
M  V30 11030 C 1089.5 -1.94347 -0.532111 0
M  V30 11031 O 1088.55 -2.17443 -1.28353 0
M  V30 11032 C 1089.87 -2.28869 1.95037 0
M  V30 11033 C 1091.41 -2.42442 1.97967 0
M  V30 11034 C 1091.89 -3.39219 3.07725 0
M  V30 11035 N 1093.38 -3.4678 3.07079 0
M  V30 11036 C 1094.12 -4.21595 3.88646 0
M  V30 11037 N 1093.61 -4.99411 4.80167 0
M  V30 11038 N 1095.4 -4.17075 3.76835 0
M  V30 11039 H 1087.56 -0.718412 1.99881 0
M  V30 11040 H 1089.82 -0.378787 0.869037 0
M  V30 11041 H 1089.52 -1.92752 2.94176 0
M  V30 11042 H 1089.4 -3.2906 1.84389 0
M  V30 11043 H 1091.79 -2.77835 0.994561 0
M  V30 11044 H 1091.87 -1.42113 2.12691 0
M  V30 11045 H 1091.51 -3.04553 4.0646 0
M  V30 11046 H 1091.44 -4.39394 2.90242 0
M  V30 11047 H 1093.93 -2.91272 2.40767 0
M  V30 11048 H 1094.24 -5.53856 5.38946 0
M  V30 11049 H 1092.59 -4.98582 4.84191 0
M  V30 11050 H 1095.78 -3.55369 3.04681 0
M  V30 11051 H 1095.95 -4.75125 4.40637 0
M  V30 11052 N 1089.36 -0.901303 -1.29284 0
M  V30 11053 C 1090.59 -0.543511 -1.99634 0
M  V30 11054 C 1091 0.872154 -1.67448 0
M  V30 11055 O 1090.36 1.57591 -0.920406 0
M  V30 11056 C 1090.41 -0.728148 -3.54091 0
M  V30 11057 O 1090.13 -2.08809 -3.85137 0
M  V30 11058 C 1091.63 -0.375519 -4.41707 0
M  V30 11059 H 1088.85 -0.208405 -0.637815 0
M  V30 11060 H 1091.4 -1.21109 -1.64781 0
M  V30 11061 H 1089.55 -0.107728 -3.8725 0
M  V30 11062 H 1089.97 -2.11863 -4.79807 0
M  V30 11063 H 1091.44 -0.555538 -5.49197 0
M  V30 11064 H 1091.92 0.687532 -4.33785 0
M  V30 11065 H 1092.52 -0.972949 -4.14021 0
M  V30 11066 N 1090.84 1.42931 -0.663954 0
M  V30 11067 C 1091.77 2.29122 0.0598878 0
M  V30 11068 C 1092.78 1.43094 0.776404 0
M  V30 11069 O 1093.97 1.66923 0.63237 0
M  V30 11070 C 1091.07 3.20268 1.10822 0
M  V30 11071 C 1090.24 4.34892 0.4677 0
M  V30 11072 C 1089.3 5.06836 1.41435 0
M  V30 11073 O 1088.33 5.61735 0.918818 0
M  V30 11074 N 1089.53 5.11336 2.74801 0
M  V30 11075 H 1092.3 2.91885 -0.679945 0
M  V30 11076 H 1089.86 1.53739 -0.507543 0
M  V30 11077 H 1091.85 3.65264 1.74255 0
M  V30 11078 H 1090.42 2.59031 1.7499 0
M  V30 11079 H 1089.64 3.92679 -0.34593 0
M  V30 11080 H 1090.93 5.08796 0.0210237 0
M  V30 11081 H 1090.33 4.68124 3.1761 0
M  V30 11082 H 1088.88 5.60013 3.33509 0
M  V30 11083 N 1092.32 0.406567 1.52266 0
M  V30 11084 C 1093.27 -0.437483 2.23763 0
M  V30 11085 C 1094.25 -1.01557 1.248 0
M  V30 11086 O 1095.44 -0.938813 1.50051 0
M  V30 11087 C 1092.57 -1.55499 3.06064 0
M  V30 11088 C 1091.66 -0.987799 4.12436 0
M  V30 11089 N 1092.05 -0.147044 5.05586 0
M  V30 11090 C 1090.35 -1.25857 4.27874 0
M  V30 11091 C 1091.05 0.168229 5.81457 0
M  V30 11092 N 1090.02 -0.440245 5.41814 0
M  V30 11093 H 1093.82 0.211203 2.9314 0
M  V30 11094 H 1091.34 0.216843 1.60946 0
M  V30 11095 H 1093.34 -2.17224 3.55836 0
M  V30 11096 H 1092 -2.20632 2.38226 0
M  V30 11097 H 1093.01 0.217062 5.17445 0
M  V30 11098 H 1089.68 -1.90967 3.71265 0
M  V30 11099 H 1091.07 0.850516 6.66495 0
M  V30 11100 N 1093.79 -1.57004 0.136909 0
M  V30 11101 C 1095.02 -2.00156 -0.523936 0
M  V30 11102 C 1095.44 -1.01688 -1.59075 0
M  V30 11103 O 1094.79 -0.0123678 -1.82496 0
M  V30 11104 C 1094.85 -3.4326 -1.13379 0
M  V30 11105 O 1094.57 -4.37963 -0.109598 0
M  V30 11106 C 1096.07 -4.01637 -1.87623 0
M  V30 11107 H 1093.29 -0.65681 -0.137263 0
M  V30 11108 H 1095.83 -2.03219 0.228522 0
M  V30 11109 H 1093.99 -3.4108 -1.83693 0
M  V30 11110 H 1094.4 -5.21555 -0.55503 0
M  V30 11111 H 1095.87 -5.03795 -2.25597 0
M  V30 11112 H 1096.35 -3.41781 -2.75831 0
M  V30 11113 H 1096.96 -4.07417 -1.22031 0
M  V30 11114 N 1095.27 0.136881 -1.57004 0
M  V30 11115 C 1096.5 0.862436 -1.88068 0
M  V30 11116 C 1096.92 1.74274 -0.726227 0
M  V30 11117 O 1096.27 1.79956 0.30366 0
M  V30 11118 C 1096.32 1.71076 -3.18458 0
M  V30 11119 O 1096.04 0.865918 -4.29457 0
M  V30 11120 C 1097.55 2.54302 -3.63105 0
M  V30 11121 H 1094.77 0.248865 -0.623143 0
M  V30 11122 H 1097.31 0.126633 -2.04108 0
M  V30 11123 H 1095.46 2.39951 -3.04142 0
M  V30 11124 H 1095.88 1.4493 -5.04079 0
M  V30 11125 H 1097.35 3.09384 -4.57149 0
M  V30 11126 H 1097.83 3.3082 -2.88886 0
M  V30 11127 H 1098.44 1.907 -3.80149 0
M  V30 11128 N 1096.75 1.52266 0.40654 0
M  V30 11129 C 1097.98 1.70304 1.17491 0
M  V30 11130 C 1098.39 0.413656 1.84213 0
M  V30 11131 O 1097.75 -0.610524 1.71985 0
M  V30 11132 C 1097.8 2.84045 2.23609 0
M  V30 11133 O 1097.52 4.0799 1.5961 0
M  V30 11134 C 1099.02 3.13614 3.13306 0
M  V30 11135 H 1096.24 0.570669 0.352955 0
M  V30 11136 H 1098.79 1.98836 0.477967 0
M  V30 11137 H 1096.94 2.58025 2.88967 0
M  V30 11138 H 1097.36 4.7139 2.29983 0
M  V30 11139 H 1098.83 3.96707 3.83833 0
M  V30 11140 H 1099.31 2.27272 3.75824 0
M  V30 11141 H 1099.91 3.41409 2.53614 0
M  V30 11142 N 1098.23 -0.663929 1.42933 0
M  V30 11143 C 1099.64 -0.978346 1.26097 0
M  V30 11144 C 1099.84 -2.00756 0.172968 0
M  V30 11145 O 1098.9 -2.48418 -0.452184 0
M  V30 11146 C 1100.21 -1.4728 2.62162 0
M  V30 11147 C 1101.76 -1.59001 2.69606 0
M  V30 11148 C 1102.24 -2.1184 4.06064 0
M  V30 11149 N 1103.73 -2.19158 4.08074 0
M  V30 11150 C 1104.46 -2.61141 5.10483 0
M  V30 11151 N 1103.96 -3.02498 6.23271 0
M  V30 11152 N 1105.75 -2.60986 4.97838 0
M  V30 11153 H 1097.9 0.0173096 2.12393 0
M  V30 11154 H 1100.17 -0.0548116 0.946414 0
M  V30 11155 H 1099.87 -0.791008 3.42689 0
M  V30 11156 H 1099.75 -2.4497 2.86827 0
M  V30 11157 H 1102.13 -2.26284 1.89418 0
M  V30 11158 H 1102.21 -0.597728 2.48718 0
M  V30 11159 H 1101.86 -1.45162 4.86714 0
M  V30 11160 H 1101.79 -3.1188 4.2431 0
M  V30 11161 H 1104.28 -1.90013 3.26655 0
M  V30 11162 H 1104.59 -3.33251 6.97254 0
M  V30 11163 H 1102.94 -3.00328 6.2676 0
M  V30 11164 H 1106.13 -2.28046 4.08794 0
M  V30 11165 H 1106.3 -2.93384 5.7778 0
M  V30 11166 N 1099.71 -1.29285 -0.901281 0
M  V30 11167 C 1101.12 -1.15499 -1.46686 0
M  V30 11168 C 1101.47 0.250446 -1.94595 0
M  V30 11169 O 1100.59 1.14581 -1.83576 0
M  V30 11170 C 1101.19 -2.0906 -2.66607 0
M  V30 11171 C 1099.75 -1.99301 -3.19306 0
M  V30 11172 C 1098.89 -2.00079 -1.91999 0
M  V30 11173 H 1101.85 -1.41793 -0.712773 0
M  V30 11174 H 1101.87 -1.6619 -3.42288 0
M  V30 11175 H 1101.38 -3.11341 -2.31707 0
M  V30 11176 H 1099.48 -1.00103 -3.58901 0
M  V30 11177 H 1099.59 -2.86885 -3.8371 0
M  V30 11178 H 1097.96 -1.44655 -2.09636 0
M  V30 11179 H 1098.74 -3.04061 -1.59379 0
M  V30 11180 N 1101.18 1.11143 -1.11736 0
M  V30 11181 C 1102.43 1.83219 -0.869413 0
M  V30 11182 C 1102.76 1.84588 0.603402 0
M  V30 11183 O 1102.04 1.30119 1.44566 0
M  V30 11184 C 1102.32 3.30247 -1.43559 0
M  V30 11185 C 1102.17 3.37253 -2.97624 0
M  V30 11186 C 1103.49 4.26412 -1.08907 0
M  V30 11187 H 1100.61 0.665205 -0.317286 0
M  V30 11188 H 1103.25 1.30307 -1.38275 0
M  V30 11189 H 1101.4 3.75437 -0.998978 0
M  V30 11190 H 1103.08 3.00599 -3.49911 0
M  V30 11191 H 1101.32 2.77378 -3.33532 0
M  V30 11192 H 1101.99 4.40752 -3.32328 0
M  V30 11193 H 1104.47 3.89418 -1.46604 0
M  V30 11194 H 1103.34 5.27666 -1.51195 0
M  V30 11195 H 1103.6 4.421 -0.000259009 0
M  V30 11196 N 1102.66 0.908147 1.28804 0
M  V30 11197 C 1104.07 0.585727 1.77274 0
M  V30 11198 C 1104.42 -0.898842 1.744 0
M  V30 11199 O 1103.55 -1.70301 1.33516 0
M  V30 11200 C 1104.14 1.05647 3.21907 0
M  V30 11201 C 1102.7 0.785066 3.68122 0
M  V30 11202 C 1101.85 1.22638 2.48707 0
M  V30 11203 H 1104.8 1.09 1.15346 0
M  V30 11204 H 1104.82 0.395442 3.7844 0
M  V30 11205 H 1104.33 2.13698 3.23967 0
M  V30 11206 H 1102.44 -0.282477 3.71528 0
M  V30 11207 H 1102.55 1.38888 4.58527 0
M  V30 11208 H 1100.91 0.645217 2.46392 0
M  V30 11209 H 1101.7 2.31512 2.5349 0
M  V30 11210 N 1104.14 -1.42577 0.671525 0
M  V30 11211 C 1105.42 -1.95222 0.121529 0
M  V30 11212 C 1105.8 -1.61209 -1.36289 0
M  V30 11213 O 1105.15 -0.906561 -2.09747 0
M  V30 11214 C 1105.36 -3.46846 0.387189 0
M  V30 11215 C 1106.7 -4.23525 0.301938 0
M  V30 11216 O 1107.73 -3.54753 0.320755 0
M  V30 11217 O 1106.59 -5.45967 0.241317 0
M  V30 11218 H 1103.68 -0.826999 0.000968615 0
M  V30 11219 H 1106.23 -1.52422 0.746029 0
M  V30 11220 H 1105 -3.64795 1.41563 0
M  V30 11221 H 1104.62 -3.96686 -0.26948 0
M  V30 11222 N 1105.62 -0.414636 -1.52048 0
M  V30 11223 C 1106.85 0.158686 -2.06291 0
M  V30 11224 C 1107.26 1.38397 -1.2842 0
M  V30 11225 O 1106.62 1.79351 -0.337539 0
M  V30 11226 C 1106.67 0.503634 -3.57975 0
M  V30 11227 O 1106.39 -0.672996 -4.329 0
M  V30 11228 C 1107.89 1.13009 -4.28653 0
M  V30 11229 H 1105.11 0.0179622 -0.67076 0
M  V30 11230 H 1107.66 -0.587177 -1.95889 0
M  V30 11231 H 1105.81 1.19939 -3.68366 0
M  V30 11232 H 1106.22 -0.383735 -5.23094 0
M  V30 11233 H 1107.7 1.32162 -5.35945 0
M  V30 11234 H 1108.18 2.10476 -3.85482 0
M  V30 11235 H 1108.78 0.474379 -4.22646 0
M  V30 11236 N 1107.1 1.56929 -0.145233 0
M  V30 11237 C 1108.32 2.00864 0.516564 0
M  V30 11238 C 1108.75 1.02466 1.57741 0
M  V30 11239 O 1108.1 0.000145439 1.813 0
M  V30 11240 C 1108.15 3.43552 1.09563 0
M  V30 11241 O 1107.26 3.4815 2.21055 0
M  V30 11242 H 1106.6 0.651835 0.126521 0
M  V30 11243 H 1109.13 2.0317 -0.241445 0
M  V30 11244 H 1109.14 3.82316 1.42473 0
M  V30 11245 H 1107.81 4.14677 0.318749 0
M  V30 11246 H 1106.39 3.21228 1.89387 0
M  V30 11247 N 1108.58 -0.128553 1.57075 0
M  V30 11248 C 1109.99 -0.481794 1.52154 0
M  V30 11249 C 1110.19 -1.82381 0.856694 0
M  V30 11250 O 1109.25 -2.48725 0.434989 0
M  V30 11251 C 1110.56 -0.475091 2.96923 0
M  V30 11252 C 1112.11 -0.559315 3.07962 0
M  V30 11253 C 1112.58 -0.583095 4.54273 0
M  V30 11254 N 1114.07 -0.644803 4.5869 0
M  V30 11255 C 1114.81 -0.684493 5.693 0
M  V30 11256 N 1114.31 -0.682407 6.89431 0
M  V30 11257 N 1116.1 -0.726777 5.57382 0
M  V30 11258 H 1108.25 0.750894 1.98684 0
M  V30 11259 H 1110.51 0.27593 0.906955 0
M  V30 11260 H 1110.22 0.443157 3.48897 0
M  V30 11261 H 1110.09 -1.30637 3.53856 0
M  V30 11262 H 1112.48 -1.46798 2.55997 0
M  V30 11263 H 1112.56 0.299468 2.54041 0
M  V30 11264 H 1112.2 0.32149 5.06881 0
M  V30 11265 H 1112.13 -1.45863 5.05996 0
M  V30 11266 H 1114.63 -0.652967 3.72216 0
M  V30 11267 H 1114.94 -0.715051 7.69485 0
M  V30 11268 H 1113.28 -0.649984 6.91954 0
M  V30 11269 H 1116.47 -0.725704 4.6244 0
M  V30 11270 H 1116.65 -0.754242 6.43596 0
M  V30 11271 N 1110.05 -1.5248 -0.398459 0
M  V30 11272 C 1110.98 -1.79549 -1.49279 0
M  V30 11273 C 1111.96 -0.647004 -1.57315 0
M  V30 11274 O 1113.15 -0.893661 -1.72416 0
M  V30 11275 C 1110.28 -1.95582 -2.86993 0
M  V30 11276 C 1109.23 -3.1123 -2.93803 0
M  V30 11277 C 1108.56 -3.12501 -4.33874 0
M  V30 11278 C 1109.86 -4.50485 -2.64312 0
M  V30 11279 H 1111.55 -2.71187 -1.26877 0
M  V30 11280 H 1109.1 -1.30492 -0.608924 0
M  V30 11281 H 1111.05 -2.13102 -3.63546 0
M  V30 11282 H 1109.78 -1.00625 -3.10712 0
M  V30 11283 H 1108.44 -2.93477 -2.19697 0
M  V30 11284 H 1108.08 -2.15245 -4.54619 0
M  V30 11285 H 1107.78 -3.90183 -4.39353 0
M  V30 11286 H 1109.31 -3.32164 -5.12347 0
M  V30 11287 H 1110.72 -4.68387 -3.30585 0
M  V30 11288 H 1109.12 -5.30163 -2.81153 0
M  V30 11289 H 1110.19 -4.57848 -1.59696 0
M  V30 11290 N 1111.53 0.65634 -1.43283 0
M  V30 11291 C 1112.94 1.23744 -1.39801 0
M  V30 11292 C 1113.29 1.95942 -0.100507 0
M  V30 11293 O 1112.42 2.01063 0.800161 0
M  V30 11294 C 1113.01 2.25062 -2.53244 0
M  V30 11295 C 1111.57 2.78657 -2.53036 0
M  V30 11296 C 1110.72 1.53251 -2.31105 0
M  V30 11297 H 1113.67 0.448553 -1.52229 0
M  V30 11298 H 1113.69 3.07174 -2.24553 0
M  V30 11299 H 1113.2 1.72487 -3.47664 0
M  V30 11300 H 1111.3 3.35304 -1.62487 0
M  V30 11301 H 1111.42 3.26414 -3.507 0
M  V30 11302 H 1109.78 1.80487 -1.79713 0
M  V30 11303 H 1110.56 1.02615 -3.27605 0
M  V30 11304 N 1113.01 1.29761 0.894412 0
M  V30 11305 C 1114.26 1.17806 1.64214 0
M  V30 11306 C 1114.58 -0.269588 1.93127 0
M  V30 11307 O 1113.85 -1.18352 1.56107 0
M  V30 11308 H 1112.43 0.433002 0.608702 0
M  V30 11309 H 1115.09 1.6276 1.07216 0
M  V30 11310 H 1114.19 1.73201 2.5963 0
M  V30 11311 N 1114.49 -1.10549 1.12324 0
M  V30 11312 C 1115.45 -2.15039 0.793156 0
M  V30 11313 C 1116.45 -1.59651 -0.19192 0
M  V30 11314 O 1117.64 -1.74167 0.0337262 0
M  V30 11315 C 1114.77 -3.40433 0.17842 0
M  V30 11316 H 1115.97 -2.4575 1.71892 0
M  V30 11317 H 1113.52 -1.25892 0.926333 0
M  V30 11318 H 1114.25 -3.15338 -0.757122 0
M  V30 11319 H 1114.04 -3.81921 0.887645 0
M  V30 11320 H 1115.53 -4.17584 -0.0360724 0
M  V30 11321 N 1115.97 -0.914965 -1.28321 0
M  V30 11322 C 1117.19 -0.564654 -1.99046 0
M  V30 11323 C 1117.61 0.854345 -1.68364 0
M  V30 11324 O 1116.97 1.56605 -0.937068 0
M  V30 11325 C 1117.02 -0.765663 -3.53299 0
M  V30 11326 O 1116.74 -2.12883 -3.829 0
M  V30 11327 C 1118.24 -0.422347 -4.41283 0
M  V30 11328 H 1115.46 -0.215158 -0.635569 0
M  V30 11329 H 1118 -1.2285 -1.63487 0
M  V30 11330 H 1116.16 -0.148795 -3.87114 0
M  V30 11331 H 1116.57 -2.1694 -4.77533 0
M  V30 11332 H 1118.05 -0.613757 -5.48577 0
M  V30 11333 H 1118.52 0.641484 -4.3449 0
M  V30 11334 H 1119.13 -1.01681 -4.12966 0
M  V30 11335 N 1117.44 1.42219 -0.679077 0
M  V30 11336 C 1118.85 1.8459 -0.279877 0
M  V30 11337 C 1119.21 1.56839 1.17881 0
M  V30 11338 O 1118.33 1.03039 1.90294 0
M  V30 11339 C 1118.93 3.35072 -0.501185 0
M  V30 11340 C 1117.48 3.76076 -0.156065 0
M  V30 11341 C 1116.63 2.65763 -0.791549 0
M  V30 11342 H 1119.58 1.32005 -0.880932 0
M  V30 11343 H 1119.6 3.79708 0.245349 0
M  V30 11344 H 1119.12 3.55239 -1.56291 0
M  V30 11345 H 1117.22 3.61516 0.90205 0
M  V30 11346 H 1117.33 4.75334 -0.599572 0
M  V30 11347 H 1115.69 2.53726 -0.222514 0
M  V30 11348 H 1116.48 2.88751 -1.85682 0
M  V30 11349 N 1118.92 0.422693 1.51826 0
M  V30 11350 C 1120.17 -0.148348 2.01555 0
M  V30 11351 C 1120.49 -1.44483 1.30956 0
M  V30 11352 O 1119.76 -1.90904 0.439599 0
M  V30 11353 H 1118.34 -0.0578116 0.74476 0
M  V30 11354 H 1121 0.562046 1.8662 0
M  V30 11355 H 1120.1 -0.334766 3.10299 0
M  V30 11356 N 1120.4 -1.5685 0.153553 0
M  V30 11357 C 1121.33 -2.20101 -0.779601 0
M  V30 11358 C 1122.31 -1.15121 -1.25225 0
M  V30 11359 O 1123.5 -1.43487 -1.30862 0
M  V30 11360 C 1120.63 -2.82778 -2.01628 0
M  V30 11361 C 1119.58 -3.93643 -1.68015 0
M  V30 11362 C 1118.91 -4.43286 -2.99001 0
M  V30 11363 C 1120.21 -5.14102 -0.921774 0
M  V30 11364 H 1121.9 -2.98334 -0.252432 0
M  V30 11365 H 1119.45 -1.43499 -0.119975 0
M  V30 11366 H 1121.4 -3.25696 -2.67395 0
M  V30 11367 H 1120.12 -2.01887 -2.56728 0
M  V30 11368 H 1118.78 -3.51354 -1.04624 0
M  V30 11369 H 1118.43 -3.59208 -3.52106 0
M  V30 11370 H 1118.13 -5.18068 -2.77272 0
M  V30 11371 H 1119.65 -4.88878 -3.65828 0
M  V30 11372 H 1121.07 -5.53823 -1.48167 0
M  V30 11373 H 1119.46 -5.94687 -0.804185 0
M  V30 11374 H 1120.53 -4.84825 0.0852757 0
M  V30 11375 N 1121.88 0.120221 -1.57141 0
M  V30 11376 C 1123.11 0.842441 -1.88972 0
M  V30 11377 C 1123.52 1.73494 -0.744671 0
M  V30 11378 O 1122.88 1.80268 0.284557 0
M  V30 11379 C 1122.93 1.67688 -3.20254 0
M  V30 11380 O 1122.65 0.820319 -4.30351 0
M  V30 11381 C 1124.15 2.50436 -3.65782 0
M  V30 11382 H 1121.37 0.242241 -0.625748 0
M  V30 11383 H 1123.91 0.104978 -2.0423 0
M  V30 11384 H 1122.07 2.36712 -3.0667 0
M  V30 11385 H 1122.48 1.39575 -5.05588 0
M  V30 11386 H 1123.96 3.04518 -4.60405 0
M  V30 11387 H 1124.43 3.27737 -2.92378 0
M  V30 11388 H 1125.04 1.86657 -3.82151 0
M  V30 11389 N 1123.36 1.52689 0.390367 0
M  V30 11390 C 1124.58 1.71541 1.15678 0
M  V30 11391 C 1125 0.433171 1.83764 0
M  V30 11392 O 1124.36 -0.592248 1.72623 0
M  V30 11393 C 1124.41 2.864 2.20584 0
M  V30 11394 O 1124.13 4.0966 1.55274 0
M  V30 11395 C 1125.63 3.1692 3.09962 0
M  V30 11396 H 1122.85 0.574381 0.346883 0
M  V30 11397 H 1125.39 1.99332 0.456851 0
M  V30 11398 H 1123.55 2.61075 2.86214 0
M  V30 11399 H 1123.96 4.73802 2.2497 0
M  V30 11400 H 1125.44 4.00755 3.79604 0
M  V30 11401 H 1125.91 2.31245 3.73393 0
M  V30 11402 H 1126.52 3.4408 2.49979 0
M  V30 11403 N 1124.83 -0.648732 1.43629 0
M  V30 11404 C 1126.08 -1.41066 1.45699 0
M  V30 11405 C 1126.41 -1.94024 0.082612 0
M  V30 11406 O 1125.69 -1.7257 -0.897207 0
M  V30 11407 C 1125.97 -2.58882 2.50304 0
M  V30 11408 C 1125.82 -2.11387 3.97033 0
M  V30 11409 C 1127.14 -3.61092 2.51597 0
M  V30 11410 H 1124.26 -0.511591 0.530512 0
M  V30 11411 H 1126.9 -0.735069 1.75205 0
M  V30 11412 H 1125.05 -3.16518 2.25274 0
M  V30 11413 H 1126.73 -1.58718 4.33136 0
M  V30 11414 H 1124.97 -1.4272 4.0965 0
M  V30 11415 H 1125.64 -2.96129 4.65845 0
M  V30 11416 H 1128.12 -3.13223 2.73917 0
M  V30 11417 H 1126.99 -4.41071 3.26722 0
M  V30 11418 H 1127.25 -4.13985 1.55141 0
M  V30 11419 N 1126.31 -1.30234 -0.887518 0
M  V30 11420 C 1127.22 -1.18316 -2.02579 0
M  V30 11421 C 1128.24 -0.103658 -1.73691 0
M  V30 11422 O 1129.41 -0.3181 -1.98872 0
M  V30 11423 C 1126.48 -0.873222 -3.35523 0
M  V30 11424 C 1125.54 -2.03783 -3.7785 0
M  V30 11425 C 1124.77 -1.74258 -5.0445 0
M  V30 11426 O 1125 -0.669295 -5.6646 0
M  V30 11427 O 1123.93 -2.59423 -5.43124 0
M  V30 11428 H 1127.76 -2.13933 -2.15561 0
M  V30 11429 H 1125.34 -1.09803 -1.0131 0
M  V30 11430 H 1127.22 -0.715463 -4.15282 0
M  V30 11431 H 1125.9 0.053056 -3.23657 0
M  V30 11432 H 1124.81 -2.2509 -2.98806 0
M  V30 11433 H 1126.14 -2.94574 -3.94318 0
M  V30 11434 N 1127.79 1.09952 -1.12909 0
M  V30 11435 C 1129.04 1.81386 -0.882163 0
M  V30 11436 C 1129.35 1.86376 0.593592 0
M  V30 11437 O 1130.56 2.54064 0.957275 0
M  V30 11438 C 1129.01 3.25824 -1.52861 0
M  V30 11439 C 1128.62 3.29117 -3.0395 0
M  V30 11440 C 1130.37 4.02051 -1.36216 0
M  V30 11441 C 1128.27 4.68047 -3.61505 0
M  V30 11442 H 1127.2 0.679701 -0.326378 0
M  V30 11443 H 1129.85 1.23614 -1.35616 0
M  V30 11444 H 1128.24 3.83624 -0.982271 0
M  V30 11445 H 1129.41 2.81114 -3.65119 0
M  V30 11446 H 1127.73 2.66379 -3.20049 0
M  V30 11447 H 1130.32 5.04683 -1.76633 0
M  V30 11448 H 1130.67 4.15171 -0.306391 0
M  V30 11449 H 1131.2 3.5068 -1.87799 0
M  V30 11450 H 1127.94 4.60128 -4.66865 0
M  V30 11451 H 1127.46 5.16397 -3.05114 0
M  V30 11452 H 1129.14 5.37018 -3.6086 0
M  V30 11453 N 1129.27 0.921757 1.27833 0
M  V30 11454 C 1130.51 0.559906 1.94918 0
M  V30 11455 C 1130.85 -0.895532 1.72319 0
M  V30 11456 O 1130.12 -1.638 1.04879 0
M  V30 11457 C 1130.41 0.879458 3.49196 0
M  V30 11458 C 1130.26 2.38821 3.81162 0
M  V30 11459 C 1131.58 0.381183 4.38446 0
M  V30 11460 H 1128.7 0.204893 0.707946 0
M  V30 11461 H 1131.34 1.15246 1.51058 0
M  V30 11462 H 1129.49 0.375177 3.86684 0
M  V30 11463 H 1131.16 2.96373 3.53498 0
M  V30 11464 H 1129.4 2.83988 3.27923 0
M  V30 11465 H 1130.07 2.56234 4.88926 0
M  V30 11466 H 1132.55 0.813289 4.08075 0
M  V30 11467 H 1131.43 0.633778 5.45229 0
M  V30 11468 H 1131.69 -0.718651 4.3622 0
M  V30 11469 N 1130.75 -1.41857 0.686609 0
M  V30 11470 C 1131.97 -2.05699 0.222561 0
M  V30 11471 C 1132.39 -1.51636 -1.12481 0
M  V30 11472 O 1131.75 -0.660925 -1.70112 0
M  V30 11473 C 1131.8 -3.61138 0.161818 0
M  V30 11474 O 1131.52 -4.13199 1.45596 0
M  V30 11475 C 1133.02 -4.42112 -0.324304 0
M  V30 11476 H 1130.24 -0.662665 0.10543 0
M  V30 11477 H 1132.78 -1.81788 0.936671 0
M  V30 11478 H 1130.94 -3.8412 -0.503056 0
M  V30 11479 H 1131.35 -5.0717 1.33712 0
M  V30 11480 H 1132.83 -5.51097 -0.315694 0
M  V30 11481 H 1133.3 -4.1756 -1.36164 0
M  V30 11482 H 1133.91 -4.24174 0.309251 0
M  V30 11483 N 1132.22 -0.430739 -1.51599 0
M  V30 11484 C 1133.16 0.429107 -2.24129 0
M  V30 11485 C 1134.14 1.03019 -1.25801 0
M  V30 11486 O 1135.32 1.07392 -1.54917 0
M  V30 11487 C 1132.45 1.59749 -2.9866 0
M  V30 11488 C 1131.49 1.11773 -4.11593 0
M  V30 11489 S 1132.33 0.0651468 -5.3546 0
M  V30 11490 C 1133.48 1.23835 -6.13527 0
M  V30 11491 H 1133.71 -0.186683 -2.96713 0
M  V30 11492 H 1131.25 -0.215201 -1.52893 0
M  V30 11493 H 1133.21 2.26735 -3.42201 0
M  V30 11494 H 1131.87 2.18468 -2.25678 0
M  V30 11495 H 1131.06 1.99125 -4.62996 0
M  V30 11496 H 1130.66 0.526209 -3.7028 0
M  V30 11497 H 1132.95 2.15796 -6.42214 0
M  V30 11498 H 1133.9 0.76443 -7.03962 0
M  V30 11499 H 1134.3 1.47393 -5.44918 0
M  V30 11500 N 1133.7 1.56767 -0.161869 0
M  V30 11501 C 1134.93 2.01401 0.49523 0
M  V30 11502 C 1135.35 1.04133 1.56646 0
M  V30 11503 O 1134.71 0.0193747 1.8129 0
M  V30 11504 C 1134.76 3.44695 1.05913 0
M  V30 11505 O 1133.86 3.50475 2.1735 0
M  V30 11506 H 1133.2 0.65314 0.1196 0
M  V30 11507 H 1135.73 2.02903 -0.26298 0
M  V30 11508 H 1135.74 3.83805 1.3841 0
M  V30 11509 H 1134.42 4.14991 0.274749 0
M  V30 11510 H 1133 3.23218 1.85969 0
M  V30 11511 N 1135.18 -0.111886 1.57202 0
M  V30 11512 C 1136.13 -1.14287 1.97288 0
M  V30 11513 C 1137.11 -1.36686 0.848868 0
M  V30 11514 O 1138.31 -1.37659 1.11261 0
M  V30 11515 C 1135.44 -2.46759 2.38673 0
M  V30 11516 C 1134.52 -2.27805 3.57723 0
M  V30 11517 N 1134.91 -1.78679 4.73189 0
M  V30 11518 C 1133.21 -2.58435 3.63494 0
M  V30 11519 C 1133.91 -1.736 5.55192 0
M  V30 11520 N 1132.89 -2.18205 4.97883 0
M  V30 11521 H 1136.69 -0.755711 2.84018 0
M  V30 11522 H 1134.2 -0.31954 1.59225 0
M  V30 11523 H 1136.2 -3.21335 2.65611 0
M  V30 11524 H 1134.86 -2.86227 1.53311 0
M  V30 11525 H 1135.87 -1.48121 4.96267 0
M  V30 11526 H 1132.55 -3.0154 2.88755 0
M  V30 11527 H 1133.94 -1.36812 6.57824 0
M  V30 11528 N 1136.66 -1.52894 -0.382264 0
M  V30 11529 C 1137.59 -1.74413 -1.48703 0
M  V30 11530 C 1138.6 -0.624663 -1.50339 0
M  V30 11531 O 1139.79 -0.900527 -1.54119 0
M  V30 11532 C 1136.89 -1.79387 -2.8753 0
M  V30 11533 C 1136.07 -3.08794 -3.09783 0
M  V30 11534 C 1135.12 -3.05226 -4.2863 0
M  V30 11535 O 1134.15 -3.79073 -4.24609 0
M  V30 11536 N 1135.35 -2.2488 -5.35172 0
M  V30 11537 H 1138.12 -2.69734 -1.30628 0
M  V30 11538 H 1135.68 -1.51465 -0.571842 0
M  V30 11539 H 1137.67 -1.74498 -3.65147 0
M  V30 11540 H 1136.24 -0.914233 -2.98932 0
M  V30 11541 H 1135.46 -3.27118 -2.19971 0
M  V30 11542 H 1136.75 -3.94347 -3.21509 0
M  V30 11543 H 1136.15 -1.64363 -5.41296 0
M  V30 11544 H 1134.7 -2.25825 -6.1143 0
M  V30 11545 N 1138.14 0.641106 -1.43971 0
M  V30 11546 C 1139.1 1.73539 -1.49723 0
M  V30 11547 C 1140.1 1.56235 -0.380438 0
M  V30 11548 O 1141.29 1.61912 -0.642673 0
M  V30 11549 C 1138.42 3.1253 -1.36153 0
M  V30 11550 H 1139.62 1.69816 -2.47189 0
M  V30 11551 H 1137.17 0.853867 -1.30915 0
M  V30 11552 H 1137.9 3.21856 -0.39742 0
M  V30 11553 H 1137.69 3.26496 -2.17124 0
M  V30 11554 H 1139.18 3.92303 -1.43138 0
M  V30 11555 N 1139.62 1.30703 0.880598 0
M  V30 11556 C 1140.55 1.20033 2.00286 0
M  V30 11557 C 1141.53 0.0899614 1.69862 0
M  V30 11558 O 1142.71 0.272747 1.92275 0
M  V30 11559 C 1139.84 0.895902 3.35546 0
M  V30 11560 C 1138.8 1.96468 3.80242 0
M  V30 11561 C 1138.12 1.51316 5.12843 0
M  V30 11562 C 1139.42 3.37637 3.98496 0
M  V30 11563 H 1141.12 2.13922 2.0947 0
M  V30 11564 H 1138.66 1.02989 1.00644 0
M  V30 11565 H 1140.61 0.807899 4.13583 0
M  V30 11566 H 1139.34 -0.0786636 3.26505 0
M  V30 11567 H 1138 2.0424 3.04437 0
M  V30 11568 H 1137.65 0.52674 5.00234 0
M  V30 11569 H 1137.35 2.22807 5.43719 0
M  V30 11570 H 1138.87 1.43903 5.93401 0
M  V30 11571 H 1140.28 3.326 4.66959 0
M  V30 11572 H 1138.68 4.07253 4.40755 0
M  V30 11573 H 1139.75 3.79205 3.02211 0
M  V30 11574 N 1141.09 -1.09351 1.1349 0
M  V30 11575 C 1142.34 -1.81185 0.89535 0
M  V30 11576 C 1142.66 -1.86173 -0.580048 0
M  V30 11577 O 1141.93 -1.34784 -1.42162 0
M  V30 11578 H 1140.51 -0.671011 0.328257 0
M  V30 11579 H 1143.17 -1.32255 1.43159 0
M  V30 11580 H 1142.27 -2.84339 1.28676 0
M  V30 11581 N 1142.57 -0.928524 -1.27343 0
M  V30 11582 C 1143.85 -0.487758 -1.89421 0
M  V30 11583 C 1144.23 1.03418 -1.84032 0
M  V30 11584 O 1143.58 1.8887 -1.2861 0
M  V30 11585 C 1143.79 -1.03478 -3.33307 0
M  V30 11586 C 1145.13 -1.09577 -4.10217 0
M  V30 11587 O 1146.16 -0.984463 -3.42326 0
M  V30 11588 O 1145.02 -1.2673 -5.31603 0
M  V30 11589 H 1142.11 -0.157018 -0.811957 0
M  V30 11590 H 1144.66 -1.02027 -1.35605 0
M  V30 11591 H 1143.43 -2.07861 -3.31526 0
M  V30 11592 H 1143.05 -0.483967 -3.94644 0
M  V30 11593 N 1144.05 1.41491 -0.694123 0
M  V30 11594 C 1145.3 2.0155 -0.224809 0
M  V30 11595 C 1145.63 1.54844 1.17205 0
M  V30 11596 O 1144.9 0.75899 1.7908 0
M  V30 11597 C 1145.19 3.59003 -0.280884 0
M  V30 11598 C 1145.04 4.15839 -1.71458 0
M  V30 11599 C 1146.36 4.38624 0.360122 0
M  V30 11600 H 1143.48 0.732293 -0.0831632 0
M  V30 11601 H 1146.12 1.68258 -0.882569 0
M  V30 11602 H 1144.27 3.87496 0.279164 0
M  V30 11603 H 1145.94 3.98227 -2.32837 0
M  V30 11604 H 1144.18 3.70936 -2.2492 0
M  V30 11605 H 1144.86 5.24997 -1.70536 0
M  V30 11606 H 1147.33 4.15936 -0.11683 0
M  V30 11607 H 1146.21 5.48132 0.290337 0
M  V30 11608 H 1146.47 4.1797 1.44062 0
M  V30 11609 N 1145.53 0.438773 1.51369 0
M  V30 11610 C 1146.49 -0.36032 2.2635 0
M  V30 11611 C 1147.49 -0.948465 1.29849 0
M  V30 11612 O 1148.68 -0.822692 1.53549 0
M  V30 11613 C 1145.81 -1.50994 3.05636 0
M  V30 11614 H 1147.01 0.296826 2.98427 0
M  V30 11615 H 1144.56 0.191978 1.55117 0
M  V30 11616 H 1145.29 -2.2031 2.37979 0
M  V30 11617 H 1145.08 -1.09437 3.76518 0
M  V30 11618 H 1146.57 -2.07447 3.6243 0
M  V30 11619 N 1147.01 -1.56678 0.170181 0
M  V30 11620 C 1148.25 -1.9646 -0.474125 0
M  V30 11621 C 1148.57 -1.05719 -1.63855 0
M  V30 11622 O 1147.84 -0.123316 -1.95511 0
M  V30 11623 H 1146.42 -0.725446 -0.178149 0
M  V30 11624 H 1149.09 -1.93276 0.251099 0
M  V30 11625 H 1148.18 -3.00726 -0.834894 0
M  V30 11626 N 1148.48 0.103547 -1.57259 0
M  V30 11627 C 1149.9 0.457527 -1.52901 0
M  V30 11628 C 1150.1 1.80995 -0.8856 0
M  V30 11629 O 1149.16 2.48001 -0.474504 0
M  V30 11630 C 1150.47 0.427793 -2.97641 0
M  V30 11631 C 1152.02 0.51025 -3.08813 0
M  V30 11632 C 1152.49 0.51075 -4.55143 0
M  V30 11633 N 1153.98 0.571748 -4.59658 0
M  V30 11634 C 1154.72 0.593836 -5.70317 0
M  V30 11635 N 1154.21 0.572638 -6.90429 0
M  V30 11636 N 1156.01 0.638011 -5.58467 0
M  V30 11637 H 1148.16 -0.782408 -1.97464 0
M  V30 11638 H 1150.42 -0.290324 -0.90245 0
M  V30 11639 H 1150.13 -0.498608 -3.48148 0
M  V30 11640 H 1150 1.24991 -3.55889 0
M  V30 11641 H 1152.39 1.42707 -2.583 0
M  V30 11642 H 1152.47 -0.339846 -2.53532 0
M  V30 11643 H 1152.11 -0.40209 -5.06306 0
M  V30 11644 H 1152.04 1.37794 -5.08252 0
M  V30 11645 H 1154.53 0.593668 -3.73208 0
M  V30 11646 H 1154.85 0.592542 -7.70525 0
M  V30 11647 H 1153.19 0.539818 -6.929 0
M  V30 11648 H 1156.38 0.652042 -4.63536 0
M  V30 11649 H 1156.56 0.651756 -6.44714 0
M  V30 11650 N 1149.96 1.53094 0.37415 0
M  V30 11651 C 1151.21 1.68527 1.11548 0
M  V30 11652 C 1151.53 0.435253 1.9008 0
M  V30 11653 O 1150.8 -0.550594 1.88003 0
M  V30 11654 H 1149.38 0.621255 0.41479 0
M  V30 11655 H 1152.04 1.90258 0.422844 0
M  V30 11656 H 1151.14 2.54248 1.81009 0
M  V30 11657 N 1151.44 -0.633461 1.44309 0
M  V30 11658 C 1152.39 -1.76674 1.51292 0
M  V30 11659 C 1153.38 -1.64972 0.384807 0
M  V30 11660 O 1154.59 -1.71079 0.559653 0
M  V30 11661 H 1150.96 -0.583238 0.474697 0
M  V30 11662 H 1152.93 -1.67907 2.46678 0
M  V30 11663 C 1151.68 -3.15002 1.47205 0
M  V30 11664 H 1151.01 -3.24653 2.33325 0
M  V30 11665 H 1152.45 -3.94199 1.56151 0
M  V30 11666 C 1150.9 -3.3635 0.192464 0
M  V30 11667 O 1151.43 -3.94857 -0.738285 0
M  V30 11668 N 1149.64 -2.9044 0.0963424 0
M  V30 11669 H 1149.19 -2.43011 0.85459 0
M  V30 11670 H 1149.15 -3.05099 -0.759061 0
M  V30 11671 N 1152.92 -1.31168 -0.873655 0
M  V30 11672 C 1153.83 -1.20458 -2.01313 0
M  V30 11673 C 1154.84 -0.122074 -1.73571 0
M  V30 11674 O 1156.02 -0.339176 -1.98523 0
M  V30 11675 C 1153.09 -0.90876 -3.34578 0
M  V30 11676 C 1152.15 -2.07779 -3.75668 0
M  V30 11677 C 1151.38 -1.79599 -5.02573 0
M  V30 11678 O 1151.6 -0.729338 -5.65718 0
M  V30 11679 O 1150.54 -2.65169 -5.40341 0
M  V30 11680 H 1154.36 -2.16207 -2.13279 0
M  V30 11681 H 1151.95 -1.10871 -1.00139 0
M  V30 11682 H 1153.83 -0.759469 -4.145 0
M  V30 11683 H 1152.5 0.0187249 -3.23695 0
M  V30 11684 H 1151.41 -2.28247 -2.96402 0
M  V30 11685 H 1152.74 -2.9874 -3.91172 0
M  V30 11686 N 1154.4 1.08748 -1.14068 0
M  V30 11687 C 1155.34 2.15573 -0.824425 0
M  V30 11688 C 1156.31 1.64683 0.216522 0
M  V30 11689 O 1157.5 1.90601 0.0872193 0
M  V30 11690 C 1154.64 3.43756 -0.30423 0
M  V30 11691 C 1153.75 4.08512 -1.40506 0
M  V30 11692 C 1152.89 5.24477 -0.842479 0
M  V30 11693 C 1151.93 5.81167 -1.92123 0
M  V30 11694 N 1151.06 6.88483 -1.37608 0
M  V30 11695 H 1155.9 2.41968 -1.73941 0
M  V30 11696 H 1153.44 1.18751 -0.868143 0
M  V30 11697 H 1155.4 4.17197 0.0155546 0
M  V30 11698 H 1154.03 3.17658 0.573868 0
M  V30 11699 H 1153.08 3.32866 -1.84131 0
M  V30 11700 H 1154.39 4.46669 -2.2201 0
M  V30 11701 H 1153.55 6.04842 -0.474389 0
M  V30 11702 H 1152.28 4.877 0.00355212 0
M  V30 11703 H 1151.29 4.99458 -2.29831 0
M  V30 11704 H 1152.51 6.20003 -2.77079 0
M  V30 11705 H 1150.46 6.53672 -0.552168 0
M  V30 11706 H 1150.38 7.25446 -2.12752 0
M  V30 11707 H 1151.65 7.72588 -1.03578 0
M  V30 11708 N 1155.87 0.935264 1.26849 0
M  V30 11709 C 1156.82 0.438896 2.26588 0
M  V30 11710 C 1157.79 -0.498267 1.5845 0
M  V30 11711 O 1158.98 -0.415771 1.86215 0
M  V30 11712 C 1156.12 -0.295293 3.43834 0
M  V30 11713 C 1155.23 0.676857 4.26665 0
M  V30 11714 C 1154.36 -0.0779349 5.31143 0
M  V30 11715 C 1153.4 0.886425 6.05648 0
M  V30 11716 N 1152.54 0.163771 7.01909 0
M  V30 11717 H 1157.38 1.29439 2.6842 0
M  V30 11718 H 1154.92 0.649523 1.31983 0
M  V30 11719 H 1156.88 -0.737354 4.10632 0
M  V30 11720 H 1155.51 -1.11497 3.02933 0
M  V30 11721 H 1154.56 1.23744 3.5971 0
M  V30 11722 H 1155.87 1.41355 4.78351 0
M  V30 11723 H 1155.02 -0.579557 6.03926 0
M  V30 11724 H 1153.76 -0.84755 4.80279 0
M  V30 11725 H 1152.77 1.39923 5.31697 0
M  V30 11726 H 1153.99 1.65595 6.58601 0
M  V30 11727 H 1151.94 -0.58746 6.53364 0
M  V30 11728 H 1151.86 0.839902 7.5132 0
M  V30 11729 H 1153.12 -0.316951 7.78855 0
M  V30 11730 N 1157.35 -1.41121 0.701616 0
M  V30 11731 C 1158.76 -1.84122 0.309208 0
M  V30 11732 C 1159.11 -1.58695 -1.15371 0
M  V30 11733 O 1158.24 -1.06053 -1.88631 0
M  V30 11734 C 1158.83 -3.34233 0.554429 0
M  V30 11735 C 1157.39 -3.7578 0.215876 0
M  V30 11736 C 1156.54 -2.6447 0.833729 0
M  V30 11737 H 1159.49 -1.30587 0.901822 0
M  V30 11738 H 1159.51 -3.8005 -0.18491 0
M  V30 11739 H 1159.02 -3.52707 1.61923 0
M  V30 11740 H 1157.13 -3.62905 -0.844421 0
M  V30 11741 H 1157.24 -4.74319 0.675118 0
M  V30 11742 H 1155.6 -2.5334 0.262851 0
M  V30 11743 H 1156.39 -2.85761 1.90252 0
M  V30 11744 N 1158.83 -0.446794 -1.51134 0
M  V30 11745 C 1160.06 0.117242 -2.07068 0
M  V30 11746 C 1160.48 1.34877 -1.3111 0
M  V30 11747 O 1159.84 1.77856 -0.35172 0
M  V30 11748 C 1159.89 0.408616 -3.58277 0
M  V30 11749 O 1158.99 1.49345 -3.84408 0
M  V30 11750 H 1158.33 -0.00228458 -0.663996 0
M  V30 11751 H 1160.86 -0.63085 -1.94632 0
M  V30 11752 H 1160.87 0.656298 -4.02687 0
M  V30 11753 H 1159.55 -0.491444 -4.12986 0
M  V30 11754 H 1158.12 1.23499 -3.51856 0
M  V30 11755 N 1160.31 1.56586 -0.178487 0
M  V30 11756 C 1161.53 2.01915 0.473841 0
M  V30 11757 C 1161.96 1.05789 1.55533 0
M  V30 11758 O 1161.32 0.0386018 1.81259 0
M  V30 11759 C 1161.36 3.45799 1.02251 0
M  V30 11760 O 1160.47 3.52761 2.1362 0
M  V30 11761 H 1159.81 0.654372 0.112666 0
M  V30 11762 H 1162.34 2.02613 -0.284486 0
M  V30 11763 H 1162.35 3.85252 1.34332 0
M  V30 11764 H 1161.02 4.1526 0.230719 0
M  V30 11765 H 1159.6 3.25172 1.8253 0
M  V30 11766 N 1161.79 -0.095206 1.57312 0
M  V30 11767 C 1163.03 -0.799903 1.86358 0
M  V30 11768 C 1163.37 -1.78386 0.767593 0
M  V30 11769 O 1162.64 -1.93201 -0.224439 0
M  V30 11770 C 1162.92 -1.52875 3.26039 0
M  V30 11771 C 1162.78 -0.562781 4.46265 0
M  V30 11772 C 1164.1 -2.47935 3.63616 0
M  V30 11773 H 1161.21 -0.289339 0.677829 0
M  V30 11774 H 1163.86 -0.0635369 1.89894 0
M  V30 11775 H 1162.01 -2.15645 3.23156 0
M  V30 11776 H 1163.68 0.0579068 4.61264 0
M  V30 11777 H 1161.92 0.123847 4.33623 0
M  V30 11778 H 1162.59 -1.10989 5.40727 0
M  V30 11779 H 1165.07 -1.95257 3.67442 0
M  V30 11780 H 1163.94 -2.95948 4.62283 0
M  V30 11781 H 1164.21 -3.31687 2.92294 0
M  V30 11782 N 1163.26 -1.53291 -0.366026 0
M  V30 11783 C 1164.68 -1.43053 -0.707669 0
M  V30 11784 C 1164.88 -0.56925 -1.93292 0
M  V30 11785 O 1163.94 -0.0515214 -2.52447 0
M  V30 11786 C 1165.25 -2.86239 -0.921292 0
M  V30 11787 C 1166.8 -2.95868 -1.02133 0
M  V30 11788 C 1167.27 -4.40114 -1.26743 0
M  V30 11789 N 1168.76 -4.43541 -1.33514 0
M  V30 11790 C 1169.5 -5.52259 -1.54264 0
M  V30 11791 N 1168.99 -6.71024 -1.72335 0
M  V30 11792 N 1170.79 -5.39836 -1.5663 0
M  V30 11793 H 1162.94 -2.07795 0.43988 0
M  V30 11794 H 1165.2 -0.938376 0.134736 0
M  V30 11795 H 1164.91 -3.51578 -0.0928042 0
M  V30 11796 H 1164.78 -3.29862 -1.82951 0
M  V30 11797 H 1167.17 -2.30683 -1.84036 0
M  V30 11798 H 1167.25 -2.5564 -0.0905097 0
M  V30 11799 H 1166.89 -5.05872 -0.453409 0
M  V30 11800 H 1166.82 -4.77914 -2.21146 0
M  V30 11801 H 1169.31 -3.57949 -1.21165 0
M  V30 11802 H 1169.63 -7.49649 -1.8774 0
M  V30 11803 H 1167.97 -6.7401 -1.69514 0
M  V30 11804 H 1171.16 -4.46017 -1.4208 0
M  V30 11805 H 1171.34 -6.24629 -1.72461 0
M  V30 11806 N 1164.74 0.6258 -1.44643 0
M  V30 11807 C 1165.71 1.71941 -1.51555 0
M  V30 11808 C 1166.71 1.55822 -0.396988 0
M  V30 11809 O 1167.9 1.61221 -0.65981 0
M  V30 11810 C 1165.03 3.11068 -1.39461 0
M  V30 11811 H 1166.22 1.67185 -2.48976 0
M  V30 11812 H 1163.77 0.839934 -1.31814 0
M  V30 11813 H 1164.51 3.21416 -0.431534 0
M  V30 11814 H 1164.29 3.24175 -2.20574 0
M  V30 11815 H 1165.78 3.90762 -1.4729 0
M  V30 11816 N 1166.22 1.31629 0.866686 0
M  V30 11817 C 1167.15 1.22151 1.99001 0
M  V30 11818 C 1168.13 0.107972 1.69757 0
M  V30 11819 O 1169.32 0.293125 1.91975 0
M  V30 11820 C 1166.45 0.93144 3.34577 0
M  V30 11821 C 1165.4 2.0049 3.78137 0
M  V30 11822 C 1164.73 1.56747 5.11209 0
M  V30 11823 C 1166.03 3.41844 3.94892 0
M  V30 11824 H 1167.72 2.16132 2.0719 0
M  V30 11825 H 1165.27 1.04051 0.995463 0
M  V30 11826 H 1167.22 0.851719 4.12703 0
M  V30 11827 H 1165.94 -0.0440289 3.2657 0
M  V30 11828 H 1164.6 2.07457 3.02253 0
M  V30 11829 H 1164.25 0.579767 4.99648 0
M  V30 11830 H 1163.95 2.28562 5.41326 0
M  V30 11831 H 1165.47 1.50188 5.91841 0
M  V30 11832 H 1166.89 3.37534 4.63405 0
M  V30 11833 H 1165.29 4.11905 4.36411 0
M  V30 11834 H 1166.36 3.82389 2.98172 0
M  V30 11835 N 1167.7 -1.08142 1.14644 0
M  V30 11836 C 1168.92 -1.84857 0.940349 0
M  V30 11837 C 1169.35 -1.81163 -0.506117 0
M  V30 11838 O 1168.71 -1.19869 -1.36019 0
M  V30 11839 C 1168.76 -3.30198 1.4492 0
M  V30 11840 O 1167.86 -4.07355 0.64308 0
M  V30 11841 H 1167.2 -0.572711 0.336003 0
M  V30 11842 H 1169.73 -1.36475 1.52432 0
M  V30 11843 H 1169.74 -3.81039 1.45854 0
M  V30 11844 H 1168.42 -3.32202 2.50229 0
M  V30 11845 H 1166.99 -3.66219 0.702698 0
M  V30 11846 N 1169.18 -0.941978 -1.26351 0
M  V30 11847 C 1170.43 -0.585711 -1.93009 0
M  V30 11848 C 1170.74 0.879507 -1.74711 0
M  V30 11849 O 1171.95 1.34518 -2.35833 0
M  V30 11850 C 1170.4 -0.996787 -3.45821 0
M  V30 11851 C 1170.01 -2.48367 -3.72851 0
M  V30 11852 C 1171.75 -0.712452 -4.18479 0
M  V30 11853 C 1169.66 -2.83341 -5.19107 0
M  V30 11854 H 1168.59 -0.215342 -0.722595 0
M  V30 11855 H 1171.24 -1.14472 -1.43417 0
M  V30 11856 H 1169.62 -0.366295 -3.94302 0
M  V30 11857 H 1170.8 -3.16328 -3.35072 0
M  V30 11858 H 1169.11 -2.74139 -3.13427 0
M  V30 11859 H 1171.71 -0.95007 -5.26192 0
M  V30 11860 H 1172.05 0.350811 -4.14819 0
M  V30 11861 H 1172.59 -1.3027 -3.75865 0
M  V30 11862 H 1169.32 -3.88633 -5.27868 0
M  V30 11863 H 1168.84 -2.20043 -5.5798 0
M  V30 11864 H 1170.52 -2.71849 -5.87118 0
M  V30 11865 N 1170.66 1.40747 -0.709091 0
M  V30 11866 C 1171.9 2.013 -0.246174 0
M  V30 11867 C 1172.23 1.56078 1.15556 0
M  V30 11868 O 1171.51 0.777941 1.78265 0
M  V30 11869 C 1171.79 3.58685 -0.318945 0
M  V30 11870 C 1171.65 4.13997 -1.75859 0
M  V30 11871 C 1172.96 4.38981 0.31358 0
M  V30 11872 H 1170.08 0.73137 -0.0909255 0
M  V30 11873 H 1172.73 1.67312 -0.900365 0
M  V30 11874 H 1170.88 3.8777 0.23805 0
M  V30 11875 H 1172.55 3.95735 -2.37047 0
M  V30 11876 H 1170.79 3.6853 -2.28841 0
M  V30 11877 H 1171.46 5.23158 -1.76095 0
M  V30 11878 H 1173.94 4.15789 -0.160939 0
M  V30 11879 H 1172.81 5.48409 0.232184 0
M  V30 11880 H 1173.07 4.19474 1.39621 0
M  V30 11881 N 1172.13 0.454803 1.50895 0
M  V30 11882 C 1173.06 -0.337982 2.31041 0
M  V30 11883 C 1174.04 -1.00523 1.37219 0
M  V30 11884 O 1175.23 -1.00553 1.66141 0
M  V30 11885 C 1172.36 -1.42964 3.1651 0
M  V30 11886 C 1171.31 -0.884907 4.18752 0
M  V30 11887 C 1170.64 -2.07363 4.92854 0
M  V30 11888 C 1171.94 0.0926716 5.22218 0
M  V30 11889 H 1173.63 0.33089 2.97566 0
M  V30 11890 H 1171.18 0.160577 1.43102 0
M  V30 11891 H 1173.13 -1.9916 3.71367 0
M  V30 11892 H 1171.86 -2.12705 2.47839 0
M  V30 11893 H 1170.52 -0.345031 3.64973 0
M  V30 11894 H 1170.16 -2.75764 4.2067 0
M  V30 11895 H 1169.86 -1.71545 5.62002 0
M  V30 11896 H 1171.39 -2.6408 5.5054 0
M  V30 11897 H 1172.8 -0.379568 5.72042 0
M  V30 11898 H 1171.2 0.3643 5.98993 0
M  V30 11899 H 1172.27 1.02383 4.73968 0
M  V30 11900 N 1173.61 -1.56489 0.186789 0
M  V30 11901 C 1175.02 -1.83809 -0.327265 0
M  V30 11902 C 1175.37 -1.10718 -1.61976 0
M  V30 11903 O 1174.5 -0.36525 -2.13295 0
M  V30 11904 C 1175.09 -3.33435 -0.600551 0
M  V30 11905 C 1173.65 -3.61195 -1.059 0
M  V30 11906 C 1172.8 -2.77108 -0.103131 0
M  V30 11907 H 1175.75 -1.53292 0.410747 0
M  V30 11908 H 1175.77 -3.51754 -1.45084 0
M  V30 11909 H 1175.28 -3.86605 0.340315 0
M  V30 11910 H 1173.38 -3.13451 -2.01443 0
M  V30 11911 H 1173.5 -4.69435 -0.957458 0
M  V30 11912 H 1171.86 -2.47448 -0.603449 0
M  V30 11913 H 1172.64 -3.33065 0.832031 0
M  V30 11914 N 1175.09 0.086862 -1.5736 0
M  V30 11915 C 1176.34 0.787581 -1.85688 0
M  V30 11916 C 1176.65 1.79494 -0.777263 0
M  V30 11917 O 1177.86 2.54415 -0.947914 0
M  V30 11918 C 1176.31 1.45155 -3.2933 0
M  V30 11919 C 1175.92 0.483539 -4.45383 0
M  V30 11920 C 1177.67 2.13552 -3.66873 0
M  V30 11921 C 1175.57 1.15257 -5.8006 0
M  V30 11922 H 1174.5 0.297882 -0.692663 0
M  V30 11923 H 1177.15 0.0406299 -1.83455 0
M  V30 11924 H 1175.54 2.24625 -3.26128 0
M  V30 11925 H 1176.71 -0.280254 -4.59947 0
M  V30 11926 H 1175.02 -0.0951664 -4.16291 0
M  V30 11927 H 1177.62 2.64355 -4.6478 0
M  V30 11928 H 1177.96 2.92818 -2.95911 0
M  V30 11929 H 1178.5 1.40932 -3.71999 0
M  V30 11930 H 1175.24 0.400546 -6.54275 0
M  V30 11931 H 1174.76 1.88759 -5.69324 0
M  V30 11932 H 1176.44 1.67671 -6.24896 0
M  V30 11933 N 1176.57 1.53483 0.357892 0
M  V30 11934 C 1177.81 1.70289 1.10134 0
M  V30 11935 C 1178.15 0.457296 1.88739 0
M  V30 11936 O 1177.42 -0.545527 1.86693 0
M  V30 11937 C 1177.7 2.95755 2.05429 0
M  V30 11938 C 1177.56 4.30489 1.30382 0
M  V30 11939 C 1178.88 3.16844 3.05447 0
M  V30 11940 H 1176 0.61965 0.399003 0
M  V30 11941 H 1178.64 1.86133 0.381357 0
M  V30 11942 H 1176.79 2.82377 2.66825 0
M  V30 11943 H 1178.46 4.55692 0.71711 0
M  V30 11944 H 1176.7 4.2955 0.605712 0
M  V30 11945 H 1177.37 5.14427 2.00171 0
M  V30 11946 H 1179.85 3.29458 2.54159 0
M  V30 11947 H 1178.73 4.06053 3.69341 0
M  V30 11948 H 1178.99 2.32476 3.76041 0
M  V30 11949 N 1178.05 -0.61812 1.44973 0
M  V30 11950 C 1178.98 -1.74035 1.55673 0
M  V30 11951 C 1179.96 -1.65112 0.4089 0
M  V30 11952 O 1181.14 -1.83673 0.630698 0
M  V30 11953 C 1178.27 -3.1261 1.51303 0
M  V30 11954 C 1177.23 -3.36334 2.64696 0
M  V30 11955 C 1176.55 -4.75072 2.45378 0
M  V30 11956 C 1177.85 -3.27618 4.06772 0
M  V30 11957 H 1179.55 -1.65336 2.49608 0
M  V30 11958 H 1177.09 -0.794003 1.20132 0
M  V30 11959 H 1179.04 -3.90906 1.57388 0
M  V30 11960 H 1177.77 -3.22123 0.538914 0
M  V30 11961 H 1176.43 -2.60423 2.58022 0
M  V30 11962 H 1176.08 -4.81306 1.46129 0
M  V30 11963 H 1175.78 -4.91903 3.21412 0
M  V30 11964 H 1177.3 -5.55582 2.53301 0
M  V30 11965 H 1178.71 -3.95802 4.14746 0
M  V30 11966 H 1177.11 -3.55981 4.83113 0
M  V30 11967 H 1178.18 -2.25219 4.29423 0
M  V30 11968 N 1179.52 -1.32087 -0.859693 0
M  V30 11969 C 1180.45 -1.23204 -1.98351 0
M  V30 11970 C 1181.43 -0.116974 -1.69697 0
M  V30 11971 O 1182.62 -0.303301 -1.91817 0
M  V30 11972 C 1179.75 -0.949171 -3.34078 0
M  V30 11973 C 1178.7 -2.02493 -3.77069 0
M  V30 11974 C 1178.03 -1.59455 -5.1037 0
M  V30 11975 C 1179.33 -3.43934 -3.93074 0
M  V30 11976 H 1181.02 -2.17227 -2.0604 0
M  V30 11977 H 1178.57 -1.04577 -0.989931 0
M  V30 11978 H 1180.52 -0.873594 -4.12245 0
M  V30 11979 H 1179.25 0.0267095 -3.26589 0
M  V30 11980 H 1177.91 -2.09057 -3.01149 0
M  V30 11981 H 1177.55 -0.606256 -4.99333 0
M  V30 11982 H 1177.25 -2.31429 -5.40106 0
M  V30 11983 H 1178.78 -1.53325 -5.91036 0
M  V30 11984 H 1180.19 -3.39986 -4.61608 0
M  V30 11985 H 1178.59 -4.14214 -4.3422 0
M  V30 11986 H 1179.66 -3.83965 -2.9614 0
M  V30 11987 N 1181 1.07532 -1.15215 0
M  V30 11988 C 1182.25 1.8036 -0.927263 0
M  V30 11989 C 1182.58 1.86414 0.544371 0
M  V30 11990 O 1181.86 1.34653 1.40353 0
M  V30 11991 C 1182.14 3.25512 -1.53992 0
M  V30 11992 C 1181.99 3.27614 -3.08203 0
M  V30 11993 C 1183.31 4.22731 -1.22418 0
M  V30 11994 H 1180.43 0.654775 -0.338289 0
M  V30 11995 H 1183.07 1.25842 -1.42351 0
M  V30 11996 H 1181.22 3.72068 -1.11791 0
M  V30 11997 H 1182.89 2.89315 -3.59297 0
M  V30 11998 H 1181.14 2.66627 -3.42188 0
M  V30 11999 H 1181.81 4.29956 -3.46182 0
M  V30 12000 H 1184.28 3.84557 -1.58919 0
M  V30 12001 H 1183.16 5.22589 -1.67906 0
M  V30 12002 H 1183.42 4.41875 -0.14091 0
M  V30 12003 N 1182.48 0.948665 1.2585 0
M  V30 12004 C 1183.73 0.600236 1.934 0
M  V30 12005 C 1184.06 -0.86185 1.74363 0
M  V30 12006 O 1183.31 -1.63294 1.07858 0
M  V30 12007 C 1183.61 0.89784 3.45939 0
M  V30 12008 C 1183.28 2.345 3.85124 0
M  V30 12009 C 1181.94 2.74058 3.95532 0
M  V30 12010 C 1184.29 3.2851 4.04636 0
M  V30 12011 C 1181.62 4.06707 4.22855 0
M  V30 12012 C 1183.97 4.60764 4.3345 0
M  V30 12013 C 1182.63 5.00127 4.42074 0
M  V30 12014 H 1181.9 0.219642 0.707699 0
M  V30 12015 H 1184.55 1.19658 1.49513 0
M  V30 12016 H 1182.86 0.219037 3.91187 0
M  V30 12017 H 1184.55 0.606916 3.96381 0
M  V30 12018 H 1181.14 2.02819 3.77574 0
M  V30 12019 H 1185.33 2.99141 3.96015 0
M  V30 12020 H 1180.58 4.36856 4.27746 0
M  V30 12021 H 1184.76 5.33594 4.47493 0
M  V30 12022 H 1182.38 6.02939 4.63 0
M  V30 12023 N 1183.96 -1.40369 0.716545 0
M  V30 12024 C 1184.89 -2.33365 0.0793533 0
M  V30 12025 C 1185.87 -1.52943 -0.744482 0
M  V30 12026 O 1187.05 -1.81406 -0.693212 0
M  V30 12027 C 1184.18 -3.36928 -0.842429 0
M  V30 12028 C 1183.14 -4.2782 -0.124142 0
M  V30 12029 C 1182.46 -5.21928 -1.1617 0
M  V30 12030 C 1183.76 -5.12199 1.02224 0
M  V30 12031 H 1185.46 -2.86899 0.856115 0
M  V30 12032 H 1183 -1.37946 0.413138 0
M  V30 12033 H 1184.96 -4.00925 -1.29759 0
M  V30 12034 H 1183.68 -2.81791 -1.6511 0
M  V30 12035 H 1182.34 -3.65277 0.311201 0
M  V30 12036 H 1181.99 -4.63096 -1.96345 0
M  V30 12037 H 1181.69 -5.83582 -0.685978 0
M  V30 12038 H 1183.21 -5.88802 -1.61694 0
M  V30 12039 H 1184.63 -5.69644 0.646399 0
M  V30 12040 H 1183.02 -5.82901 1.4264 0
M  V30 12041 H 1184.09 -4.4812 1.85246 0
M  V30 12042 N 1185.44 -0.462799 -1.50652 0
M  V30 12043 C 1186.68 0.0938945 -2.04184 0
M  V30 12044 C 1187.04 1.37726 -1.33774 0
M  V30 12045 O 1188.24 2.01581 -1.77817 0
M  V30 12046 C 1186.51 0.281884 -3.56287 0
M  V30 12047 S 1188.07 0.798326 -4.31477 0
M  V30 12048 H 1184.89 0.0198719 -0.710722 0
M  V30 12049 H 1187.49 -0.62804 -1.85138 0
M  V30 12050 H 1186.2 -0.658084 -4.05089 0
M  V30 12051 H 1185.73 1.03017 -3.79672 0
M  V30 12052 H 1187.74 2.07281 -4.50832 0
M  V30 12053 N 1186.91 1.56388 -0.195085 0
M  V30 12054 C 1187.84 2.22091 0.720971 0
M  V30 12055 C 1188.83 1.184 1.22128 0
M  V30 12056 O 1190.01 1.46907 1.27012 0
M  V30 12057 C 1187.14 2.88025 1.94059 0
M  V30 12058 C 1186.09 3.97959 1.5752 0
M  V30 12059 C 1185.42 4.51058 2.87143 0
M  V30 12060 C 1186.72 5.16365 0.785145 0
M  V30 12061 H 1188.41 2.98898 0.173245 0
M  V30 12062 H 1185.96 1.43767 0.0818868 0
M  V30 12063 H 1187.91 3.32671 2.58666 0
M  V30 12064 H 1186.64 2.08623 2.51285 0
M  V30 12065 H 1185.3 3.54004 0.952715 0
M  V30 12066 H 1184.94 3.68418 3.42458 0
M  V30 12067 H 1184.64 5.25237 2.63439 0
M  V30 12068 H 1186.17 4.98406 3.52738 0
M  V30 12069 H 1187.58 5.57556 1.33431 0
M  V30 12070 H 1185.98 5.9661 0.646231 0
M  V30 12071 H 1187.05 4.84428 -0.213789 0
M  V30 12072 N 1188.39 -0.0785156 1.57404 0
M  V30 12073 C 1189.64 -0.777399 1.8655 0
M  V30 12074 C 1189.96 -1.78451 0.786142 0
M  V30 12075 O 1189.23 -1.95016 -0.185911 0
M  V30 12076 H 1187.81 -0.290097 0.688369 0
M  V30 12077 H 1190.47 -0.0562017 1.94819 0
M  V30 12078 H 1189.57 -1.29776 2.83839 0
M  V30 12079 N 1189.87 -1.5367 -0.349747 0
M  V30 12080 C 1191.12 -1.7087 -1.0923 0
M  V30 12081 C 1191.45 -0.467299 -1.88494 0
M  V30 12082 O 1190.72 0.535619 -1.8698 0
M  V30 12083 C 1191.01 -2.9684 -2.03858 0
M  V30 12084 C 1190.86 -4.31174 -1.28097 0
M  V30 12085 C 1192.18 -3.18459 -3.03763 0
M  V30 12086 H 1189.3 -0.621757 -0.395711 0
M  V30 12087 H 1191.94 -1.86333 -0.371481 0
M  V30 12088 H 1190.09 -2.83788 -2.65323 0
M  V30 12089 H 1191.76 -4.56066 -0.692933 0
M  V30 12090 H 1190.01 -4.29866 -0.582924 0
M  V30 12091 H 1190.68 -5.15482 -1.9744 0
M  V30 12092 H 1193.15 -3.30801 -2.52409 0
M  V30 12093 H 1192.03 -4.08006 -3.67182 0
M  V30 12094 H 1192.29 -2.34467 -3.74803 0
M  V30 12095 N 1191.35 0.610423 -1.45298 0
M  V30 12096 C 1192.6 1.36951 -1.49167 0
M  V30 12097 C 1192.92 1.9405 -0.132292 0
M  V30 12098 O 1192.18 1.75363 0.868686 0
M  V30 12099 C 1192.48 2.53812 -2.51623 0
M  V30 12100 C 1192.14 2.14877 -3.96407 0
M  V30 12101 C 1190.81 2.03972 -4.35831 0
M  V30 12102 C 1193.16 1.84448 -4.87472 0
M  V30 12103 C 1190.49 1.60856 -5.64218 0
M  V30 12104 C 1192.84 1.42818 -6.16268 0
M  V30 12105 C 1191.5 1.3047 -6.54625 0
M  V30 12106 H 1190.77 0.501138 -0.54584 0
M  V30 12107 H 1193.42 0.690221 -1.78629 0
M  V30 12108 H 1191.72 3.27066 -2.1572 0
M  V30 12109 H 1193.42 3.12041 -2.51856 0
M  V30 12110 H 1190.01 2.2429 -3.65229 0
M  V30 12111 H 1194.19 1.91771 -4.57753 0
M  V30 12112 H 1189.45 1.49916 -5.92735 0
M  V30 12113 H 1193.62 1.18318 -6.86275 0
M  V30 12114 H 1191.25 0.968347 -7.54007 0
M  V30 12115 N 1192.83 1.32541 0.852676 0
M  V30 12116 C 1193.76 1.24254 1.97694 0
M  V30 12117 C 1194.74 0.125971 1.69633 0
M  V30 12118 O 1195.92 0.31347 1.91653 0
M  V30 12119 C 1193.05 0.966874 3.3357 0
M  V30 12120 C 1192.01 2.0449 3.75989 0
M  V30 12121 C 1191.33 1.6216 5.09518 0
M  V30 12122 C 1192.63 3.46013 3.91244 0
M  V30 12123 H 1194.33 2.18317 2.04886 0
M  V30 12124 H 1191.87 1.05101 0.984371 0
M  V30 12125 H 1193.83 0.895444 4.11776 0
M  V30 12126 H 1192.55 -0.0093893 3.26599 0
M  V30 12127 H 1191.21 2.10651 3.00036 0
M  V30 12128 H 1190.86 0.632729 4.99005 0
M  V30 12129 H 1190.56 2.3429 5.38871 0
M  V30 12130 H 1192.08 1.56457 5.90215 0
M  V30 12131 H 1193.49 3.4243 4.59799 0
M  V30 12132 H 1191.89 4.1651 4.32017 0
M  V30 12133 H 1192.96 3.8553 2.941 0
M  V30 12134 N 1194.3 -1.0692 1.15784 0
M  V30 12135 C 1195.23 -2.16216 0.881649 0
M  V30 12136 C 1196.22 -1.69253 -0.16951 0
M  V30 12137 O 1197.4 -1.94186 -0.0229511 0
M  V30 12138 C 1194.53 -3.4527 0.374982 0
M  V30 12139 C 1193.48 -4.05706 1.36332 0
M  V30 12140 C 1192.81 -5.29894 0.715317 0
M  V30 12141 C 1194.11 -4.45224 2.7308 0
M  V30 12142 H 1195.8 -2.39577 1.79563 0
M  V30 12143 H 1193.35 -1.15141 0.864784 0
M  V30 12144 H 1195.3 -4.2106 0.169279 0
M  V30 12145 H 1194.03 -3.21508 -0.574485 0
M  V30 12146 H 1192.69 -3.31965 1.55546 0
M  V30 12147 H 1192.33 -5.02425 -0.240436 0
M  V30 12148 H 1192.03 -5.71287 1.37494 0
M  V30 12149 H 1193.56 -6.08386 0.519489 0
M  V30 12150 H 1194.97 -5.12124 2.57686 0
M  V30 12151 H 1193.37 -4.97583 3.35457 0
M  V30 12152 H 1194.44 -3.56384 3.28813 0
M  V30 12153 N 1195.78 -0.955326 -1.25345 0
M  V30 12154 C 1197.03 -0.62095 -1.9369 0
M  V30 12155 C 1197.38 0.832995 -1.73433 0
M  V30 12156 O 1196.68 1.58991 -1.06922 0
M  V30 12157 C 1196.87 -0.916173 -3.45458 0
M  V30 12158 C 1196.7 -2.39726 -3.80475 0
M  V30 12159 C 1195.47 -3.05494 -4.02494 0
M  V30 12160 C 1197.67 -3.37664 -3.87927 0
M  V30 12161 N 1195.65 -4.43469 -4.2451 0
M  V30 12162 C 1197.02 -4.60949 -4.1464 0
M  V30 12163 C 1199.08 -3.32493 -3.70611 0
M  V30 12164 C 1197.78 -5.79703 -4.25837 0
M  V30 12165 C 1199.8 -4.50586 -3.83048 0
M  V30 12166 C 1199.17 -5.72657 -4.10174 0
M  V30 12167 H 1195.27 -0.277847 -0.730976 0
M  V30 12168 H 1197.85 -1.22764 -1.51119 0
M  V30 12169 H 1196.02 -0.338402 -3.86923 0
M  V30 12170 H 1197.75 -0.54163 -4.01059 0
M  V30 12171 H 1194.51 -2.56063 -3.98408 0
M  V30 12172 H 1194.93 -5.14927 -4.39522 0
M  V30 12173 H 1199.57 -2.39163 -3.48656 0
M  V30 12174 H 1197.29 -6.73473 -4.46609 0
M  V30 12175 H 1200.88 -4.48133 -3.71036 0
M  V30 12176 H 1199.76 -6.62512 -4.19581 0
M  V30 12177 N 1197.26 1.39987 -0.723979 0
M  V30 12178 C 1198.21 2.30672 -0.0768286 0
M  V30 12179 C 1199.18 1.48634 0.741422 0
M  V30 12180 O 1200.36 1.77351 0.703649 0
M  V30 12181 C 1197.5 3.34902 0.832729 0
M  V30 12182 C 1196.62 4.32 0.00304942 0
M  V30 12183 C 1195.75 5.23298 0.91286 0
M  V30 12184 C 1194.79 6.12051 0.0777706 0
M  V30 12185 N 1193.93 6.9574 0.942912 0
M  V30 12186 H 1198.77 2.85446 -0.855832 0
M  V30 12187 H 1196.3 1.40561 -0.433718 0
M  V30 12188 H 1198.26 3.93911 1.37441 0
M  V30 12189 H 1196.89 2.81611 1.57782 0
M  V30 12190 H 1195.94 3.74702 -0.655916 0
M  V30 12191 H 1197.26 4.94637 -0.643124 0
M  V30 12192 H 1196.41 5.87279 1.52277 0
M  V30 12193 H 1195.15 4.60956 1.59284 0
M  V30 12194 H 1194.15 5.47092 -0.545022 0
M  V30 12195 H 1195.38 6.76455 -0.598827 0
M  V30 12196 H 1193.33 6.35977 1.60838 0
M  V30 12197 H 1193.24 7.55176 0.352968 0
M  V30 12198 H 1194.51 7.64162 1.53874 0
M  V30 12199 N 1198.74 0.470782 1.50404 0
M  V30 12200 C 1199.69 -0.337584 2.30137 0
M  V30 12201 C 1200.68 -0.990673 1.37412 0
M  V30 12202 O 1201.89 -0.921813 1.54605 0
M  V30 12203 H 1198.26 -0.127707 0.741077 0
M  V30 12204 H 1200.23 0.355297 2.96277 0
M  V30 12205 C 1198.98 -1.40714 3.17954 0
M  V30 12206 H 1198.31 -0.913982 3.89213 0
M  V30 12207 H 1199.75 -1.94533 3.7674 0
M  V30 12208 C 1198.2 -2.40889 2.35529 0
M  V30 12209 O 1198.73 -3.46153 2.03816 0
M  V30 12210 N 1196.94 -2.126 1.98115 0
M  V30 12211 H 1196.49 -1.27023 2.24105 0
M  V30 12212 H 1196.45 -2.7986 1.43269 0
M  V30 12213 N 1200.22 -1.56282 0.203376 0
M  V30 12214 C 1201.46 -1.98864 -0.427176 0
M  V30 12215 C 1201.82 -1.08828 -1.58664 0
M  V30 12216 O 1201.11 -0.134399 -1.91128 0
M  V30 12217 C 1201.31 -3.45148 -0.927759 0
M  V30 12218 C 1201.13 -4.49333 0.18166 0
M  V30 12219 C 1199.9 -5.01204 0.642046 0
M  V30 12220 C 1202.1 -5.04612 0.993548 0
M  V30 12221 N 1200.08 -5.89066 1.72842 0
M  V30 12222 C 1201.46 -5.89223 1.92915 0
M  V30 12223 C 1203.51 -4.87023 1.03503 0
M  V30 12224 C 1202.21 -6.58125 2.90282 0
M  V30 12225 C 1204.24 -5.56671 1.99679 0
M  V30 12226 C 1203.6 -6.41035 2.91982 0
M  V30 12227 H 1199.7 -0.772186 -0.123501 0
M  V30 12228 H 1202.28 -1.92201 0.310974 0
M  V30 12229 H 1200.46 -3.52295 -1.63533 0
M  V30 12230 H 1202.19 -3.7468 -1.52961 0
M  V30 12231 H 1198.94 -4.73022 0.233895 0
M  V30 12232 H 1199.37 -6.377 2.27306 0
M  V30 12233 H 1204.01 -4.21468 0.335379 0
M  V30 12234 H 1201.73 -7.22874 3.61219 0
M  V30 12235 H 1205.31 -5.45034 2.0354 0
M  V30 12236 H 1204.19 -6.93979 3.65189 0
M  V30 12237 N 1201.7 0.070167 -1.57444 0
M  V30 12238 C 1203.11 0.424991 -1.53838 0
M  V30 12239 C 1203.31 1.79076 -0.923793 0
M  V30 12240 O 1202.37 2.46939 -0.527002 0
M  V30 12241 C 1203.68 0.364562 -2.98482 0
M  V30 12242 C 1205.23 0.444631 -3.09826 0
M  V30 12243 C 1205.7 0.414093 -4.56124 0
M  V30 12244 N 1207.19 0.474119 -4.60767 0
M  V30 12245 C 1207.93 0.472729 -5.71448 0
M  V30 12246 N 1207.43 0.426059 -6.91489 0
M  V30 12247 N 1209.22 0.519408 -5.59695 0
M  V30 12248 H 1201.37 -0.824117 -1.9576 0
M  V30 12249 H 1203.63 -0.309401 -0.896089 0
M  V30 12250 H 1203.34 -0.572343 -3.47012 0
M  V30 12251 H 1203.21 1.17414 -3.5846 0
M  V30 12252 H 1205.6 1.37196 -2.61269 0
M  V30 12253 H 1205.68 -0.393547 -2.52755 0
M  V30 12254 H 1205.32 -0.509394 -5.05339 0
M  V30 12255 H 1205.25 1.26983 -5.11061 0
M  V30 12256 H 1207.75 0.514371 -3.74383 0
M  V30 12257 H 1208.06 0.428969 -7.71609 0
M  V30 12258 H 1206.4 0.392722 -6.9389 0
M  V30 12259 H 1209.59 0.553573 -4.64815 0
M  V30 12260 H 1209.77 0.514856 -6.45951 0
M  V30 12261 N 1203.17 1.53854 0.341593 0
M  V30 12262 C 1204.1 1.84966 1.42513 0
M  V30 12263 C 1205.08 0.704944 1.54805 0
M  V30 12264 O 1206.27 0.957036 1.68981 0
M  V30 12265 C 1203.4 2.06099 2.79536 0
M  V30 12266 C 1202.35 3.21919 2.82049 0
M  V30 12267 C 1201.68 3.28389 4.21977 0
M  V30 12268 C 1202.98 4.59984 2.4741 0
M  V30 12269 H 1204.67 2.7571 1.16724 0
M  V30 12270 H 1202.22 1.32662 0.560073 0
M  V30 12271 H 1204.17 2.26448 3.55386 0
M  V30 12272 H 1202.9 1.12087 3.06764 0
M  V30 12273 H 1201.56 3.01429 2.08653 0
M  V30 12274 H 1201.2 2.3197 4.46317 0
M  V30 12275 H 1200.9 4.0622 4.24569 0
M  V30 12276 H 1202.43 3.50951 4.99666 0
M  V30 12277 H 1203.84 4.80334 3.12973 0
M  V30 12278 H 1202.24 5.40233 2.61282 0
M  V30 12279 H 1203.31 4.6346 1.42594 0
M  V30 12280 N 1204.65 -0.602709 1.4562 0
M  V30 12281 C 1205.6 -1.71312 1.54664 0
M  V30 12282 C 1206.57 -1.61403 0.392197 0
M  V30 12283 O 1207.75 -1.80911 0.606297 0
M  V30 12284 C 1204.89 -3.09629 1.52393 0
M  V30 12285 C 1204.01 -3.30308 2.78425 0
M  V30 12286 C 1203.14 -4.5876 2.67793 0
M  V30 12287 C 1202.18 -4.72713 3.88855 0
M  V30 12288 N 1201.32 -5.92469 3.76729 0
M  V30 12289 H 1206.16 -1.62918 2.49523 0
M  V30 12290 H 1203.69 -0.794324 1.2381 0
M  V30 12291 H 1205.65 -3.89661 1.49064 0
M  V30 12292 H 1204.28 -3.16968 0.610816 0
M  V30 12293 H 1203.33 -2.44018 2.9182 0
M  V30 12294 H 1204.65 -3.36491 3.68205 0
M  V30 12295 H 1203.8 -5.46993 2.62457 0
M  V30 12296 H 1202.54 -4.54983 1.75619 0
M  V30 12297 H 1201.54 -3.82903 3.94545 0
M  V30 12298 H 1202.77 -4.78284 4.82101 0
M  V30 12299 H 1200.72 -5.89728 2.87328 0
M  V30 12300 H 1200.63 -5.99833 4.60148 0
M  V30 12301 H 1201.9 -6.83187 3.75334 0
M  V30 12302 N 1206.13 -1.32992 -0.845635 0
M  V30 12303 C 1207.08 -1.22652 -1.97634 0
M  V30 12304 C 1208.07 -0.129344 -1.68905 0
M  V30 12305 O 1209.28 -0.292863 -1.77602 0
M  V30 12306 H 1205.65 -0.380439 -0.648668 0
M  V30 12307 H 1207.62 -2.18261 -2.03481 0
M  V30 12308 C 1206.37 -0.975677 -3.3373 0
M  V30 12309 H 1205.7 -1.81217 -3.56371 0
M  V30 12310 H 1207.14 -0.943608 -4.13367 0
M  V30 12311 C 1205.59 0.321491 -3.35363 0
M  V30 12312 O 1206.12 1.33042 -3.79029 0
M  V30 12313 N 1204.33 0.346648 -2.88525 0
M  V30 12314 H 1203.88 -0.474931 -2.53184 0
M  V30 12315 H 1203.84 1.2144 -2.9 0
M  V30 12316 N 1207.61 1.06304 -1.1635 0
M  V30 12317 C 1208.86 1.78487 -0.939423 0
M  V30 12318 C 1209.17 1.8817 0.533998 0
M  V30 12319 O 1210.38 2.56981 0.875962 0
M  V30 12320 C 1208.83 3.20796 -1.63149 0
M  V30 12321 C 1208.44 3.19281 -3.14267 0
M  V30 12322 C 1210.18 3.97514 -1.48938 0
M  V30 12323 C 1208.09 4.56309 -3.76213 0
M  V30 12324 H 1207.02 0.668973 -0.347837 0
M  V30 12325 H 1209.67 1.19237 -1.3948 0
M  V30 12326 H 1208.05 3.80305 -1.10382 0
M  V30 12327 H 1209.23 2.69356 -3.73877 0
M  V30 12328 H 1207.54 2.56062 -3.28362 0
M  V30 12329 H 1210.14 4.98808 -1.926 0
M  V30 12330 H 1210.48 4.13986 -0.438319 0
M  V30 12331 H 1211.02 3.44528 -1.98861 0
M  V30 12332 H 1207.75 4.45042 -4.81267 0
M  V30 12333 H 1207.27 5.06429 -3.21388 0
M  V30 12334 H 1208.95 5.25266 -3.77762 0
M  V30 12335 N 1209.09 0.96196 1.24836 0
M  V30 12336 C 1210.03 0.479282 2.27609 0
M  V30 12337 C 1211.03 -0.454224 1.63197 0
M  V30 12338 O 1212.23 -0.330146 1.76946 0
M  V30 12339 H 1208.61 0.13651 0.739506 0
M  V30 12340 H 1210.58 1.35817 2.657 0
M  V30 12341 C 1209.33 -0.220499 3.47 0
M  V30 12342 H 1208.65 0.488694 3.96802 0
M  V30 12343 H 1210.09 -0.522137 4.20773 0
M  V30 12344 C 1208.55 -1.44552 3.04313 0
M  V30 12345 O 1209.08 -2.54287 3.10967 0
M  V30 12346 N 1207.29 -1.3095 2.59423 0
M  V30 12347 H 1206.83 -0.416656 2.54208 0
M  V30 12348 H 1206.79 -2.13029 2.31227 0
M  V30 12349 N 1210.56 -1.39601 0.731392 0
M  V30 12350 C 1211.79 -2.05411 0.286532 0
M  V30 12351 C 1212.21 -1.54777 -1.06892 0
M  V30 12352 O 1211.57 -0.689942 -1.67659 0
M  V30 12353 C 1211.62 -3.594 0.293914 0
M  V30 12354 O 1210.72 -4.06072 -0.719657 0
M  V30 12355 H 1210.06 -0.650949 0.131004 0
M  V30 12356 H 1212.59 -1.78703 0.996305 0
M  V30 12357 H 1212.6 -4.0777 0.137052 0
M  V30 12358 H 1211.28 -3.95617 1.28298 0
M  V30 12359 H 1209.86 -3.69125 -0.529226 0
M  V30 12360 N 1212.04 -0.478751 -1.50152 0
M  V30 12361 C 1213.29 0.07531 -2.01559 0
M  V30 12362 C 1213.6 1.40089 -1.36508 0
M  V30 12363 O 1214.81 2.04035 -1.79115 0
M  V30 12364 C 1213.27 0.184714 -3.59426 0
M  V30 12365 C 1212.87 -1.13289 -4.33439 0
M  V30 12366 C 1214.62 0.690326 -4.18849 0
M  V30 12367 C 1212.53 -0.986866 -5.83108 0
M  V30 12368 H 1211.46 0.0319196 -0.753324 0
M  V30 12369 H 1214.11 -0.614809 -1.72894 0
M  V30 12370 H 1212.49 0.938788 -3.84711 0
M  V30 12371 H 1213.66 -1.89852 -4.19872 0
M  V30 12372 H 1211.98 -1.57021 -3.8566 0
M  V30 12373 H 1214.57 0.816733 -5.28426 0
M  V30 12374 H 1214.92 1.68361 -3.80737 0
M  V30 12375 H 1215.45 -0.00657846 -3.97799 0
M  V30 12376 H 1212.19 -1.95375 -6.25707 0
M  V30 12377 H 1211.71 -0.261752 -5.99229 0
M  V30 12378 H 1213.39 -0.656567 -6.4366 0
M  V30 12379 N 1213.52 1.56172 -0.211661 0
M  V30 12380 C 1214.47 2.21206 0.719063 0
M  V30 12381 C 1215.46 1.18835 1.20725 0
M  V30 12382 O 1216.67 1.36939 1.16823 0
M  V30 12383 H 1213.04 0.709129 0.250279 0
M  V30 12384 H 1215.01 2.98038 0.147022 0
M  V30 12385 C 1213.76 2.89826 1.92084 0
M  V30 12386 H 1213.09 3.68351 1.55428 0
M  V30 12387 H 1214.53 3.38744 2.55006 0
M  V30 12388 C 1212.99 1.91756 2.77004 0
M  V30 12389 O 1213.52 1.42826 3.75451 0
M  V30 12390 N 1211.72 1.59622 2.42836 0
M  V30 12391 H 1211.27 1.99606 1.62835 0
M  V30 12392 H 1211.23 0.942641 2.99936 0
M  V30 12393 N 1215 -0.0618163 1.57479 0
M  V30 12394 C 1216.25 -0.759069 1.87735 0
M  V30 12395 C 1216.57 -1.77071 0.804732 0
M  V30 12396 O 1215.83 -1.94694 -0.198173 0
M  V30 12397 C 1216.13 -1.4939 3.2468 0
M  V30 12398 C 1215.79 -0.621312 4.46599 0
M  V30 12399 C 1214.46 -0.380873 4.7969 0
M  V30 12400 C 1216.81 -0.0168537 5.21197 0
M  V30 12401 C 1214.14 0.473341 5.84787 0
M  V30 12402 C 1216.49 0.824872 6.27199 0
M  V30 12403 C 1215.15 1.07509 6.58785 0
M  V30 12404 H 1214.42 -0.277763 0.686971 0
M  V30 12405 H 1217.07 -0.0195971 1.9149 0
M  V30 12406 H 1215.37 -2.30584 3.16762 0
M  V30 12407 H 1217.07 -2.03837 3.45328 0
M  V30 12408 H 1213.66 -0.818848 4.20705 0
M  V30 12409 H 1217.84 -0.189707 4.95937 0
M  V30 12410 H 1213.1 0.675842 6.07653 0
M  V30 12411 H 1217.27 1.29993 6.8416 0
M  V30 12412 H 1214.9 1.73876 7.40048 0
M  V30 12413 N 1216.48 -1.54033 -0.333429 0
M  V30 12414 C 1217.75 -1.62404 -1.09015 0
M  V30 12415 C 1218.13 -0.451653 -2.06212 0
M  V30 12416 O 1217.48 0.555086 -2.21655 0
M  V30 12417 C 1217.69 -2.98949 -1.80085 0
M  V30 12418 C 1219.04 -3.54655 -2.33464 0
M  V30 12419 O 1220.06 -3.0119 -1.90166 0
M  V30 12420 O 1218.92 -4.48195 -3.12703 0
M  V30 12421 H 1216.02 -0.65727 -0.501921 0
M  V30 12422 H 1218.56 -1.66378 -0.33411 0
M  V30 12423 H 1217.33 -3.75716 -1.09332 0
M  V30 12424 H 1216.96 -2.98609 -2.62523 0
M  V30 12425 N 1217.95 0.594978 -1.45938 0
M  V30 12426 C 1218.9 1.726 -1.55923 0
M  V30 12427 C 1219.9 1.63893 -0.428411 0
M  V30 12428 O 1221.1 1.69535 -0.604815 0
M  V30 12429 H 1217.48 0.570447 -0.489994 0
M  V30 12430 H 1219.45 1.61308 -2.51043 0
M  V30 12431 C 1218.2 3.10988 -1.55505 0
M  V30 12432 H 1217.52 3.18353 -2.4185 0
M  V30 12433 H 1218.96 3.8992 -1.66548 0
M  V30 12434 C 1217.42 3.35721 -0.281573 0
M  V30 12435 O 1217.95 3.96676 0.633336 0
M  V30 12436 N 1216.16 2.90083 -0.173314 0
M  V30 12437 H 1215.7 2.4066 -0.91872 0
M  V30 12438 H 1215.66 3.07005 0.677903 0
M  V30 12439 N 1219.43 1.33438 0.838571 0
M  V30 12440 C 1220.84 1.22366 1.41009 0
M  V30 12441 C 1221.19 -0.157317 1.95568 0
M  V30 12442 O 1220.32 -1.05692 1.88834 0
M  V30 12443 C 1220.91 2.21542 2.56329 0
M  V30 12444 C 1219.47 2.14309 3.09433 0
M  V30 12445 C 1218.62 2.09012 1.82235 0
M  V30 12446 H 1221.57 1.45032 0.64431 0
M  V30 12447 H 1221.59 1.82332 3.33969 0
M  V30 12448 H 1221.1 3.22042 2.16589 0
M  V30 12449 H 1219.21 1.17113 3.53717 0
M  V30 12450 H 1219.32 3.04866 3.69586 0
M  V30 12451 H 1217.68 1.54492 2.02495 0
M  V30 12452 H 1218.47 3.11319 1.4469 0
M  V30 12453 N 1220.91 -1.05686 1.16912 0
M  V30 12454 C 1222.16 -1.78862 0.955839 0
M  V30 12455 C 1222.49 -1.87257 -0.514645 0
M  V30 12456 O 1221.76 -1.36869 -1.38193 0
M  V30 12457 C 1222.05 -3.23021 1.59152 0
M  V30 12458 C 1221.9 -3.22669 3.13376 0
M  V30 12459 C 1223.22 -4.2073 1.29128 0
M  V30 12460 H 1220.34 -0.64931 0.348663 0
M  V30 12461 H 1222.98 -1.23561 1.44335 0
M  V30 12462 H 1221.13 -3.70243 1.17697 0
M  V30 12463 H 1222.8 -2.83562 3.63855 0
M  V30 12464 H 1221.05 -2.61149 3.46386 0
M  V30 12465 H 1221.72 -4.24394 3.52979 0
M  V30 12466 H 1224.19 -3.8198 1.65017 0
M  V30 12467 H 1223.07 -5.19851 1.76198 0
M  V30 12468 H 1223.33 -4.41595 0.21119 0
M  V30 12469 N 1222.39 -0.968567 -1.24324 0
M  V30 12470 C 1223.62 -0.647628 -1.96187 0
M  V30 12471 C 1224.03 0.787267 -1.72043 0
M  V30 12472 O 1223.37 1.53996 -1.00155 0
M  V30 12473 C 1223.43 -0.843517 -3.49464 0
M  V30 12474 C 1223.1 -2.25822 -3.97308 0
M  V30 12475 C 1224.09 -3.23602 -4.06913 0
M  V30 12476 C 1221.78 -2.58614 -4.30609 0
M  V30 12477 C 1223.77 -4.5226 -4.49154 0
M  V30 12478 C 1221.46 -3.87499 -4.72534 0
M  V30 12479 C 1222.46 -4.84134 -4.81771 0
M  V30 12480 O 1222.14 -6.10719 -5.2276 0
M  V30 12481 H 1221.88 -0.240568 -0.631746 0
M  V30 12482 H 1224.43 -1.29926 -1.59086 0
M  V30 12483 H 1222.66 -0.134716 -3.86465 0
M  V30 12484 H 1224.35 -0.521533 -4.02536 0
M  V30 12485 H 1225.12 -2.99596 -3.81402 0
M  V30 12486 H 1220.99 -1.84116 -4.22637 0
M  V30 12487 H 1224.54 -5.27689 -4.56279 0
M  V30 12488 H 1220.44 -4.11305 -4.97492 0
M  V30 12489 H 1221.2 -6.14298 -5.40906 0
M  V30 12490 N 1223.87 1.39211 -0.738786 0
M  V30 12491 C 1224.8 2.29117 -0.0616489 0
M  V30 12492 C 1225.81 1.47008 0.699462 0
M  V30 12493 O 1227 1.70041 0.542998 0
M  V30 12494 C 1224.1 3.25692 0.936893 0
M  V30 12495 C 1223.27 4.3676 0.236515 0
M  V30 12496 C 1222.33 5.1362 1.1437 0
M  V30 12497 O 1221.36 5.65816 0.619762 0
M  V30 12498 N 1222.56 5.25184 2.4731 0
M  V30 12499 H 1225.33 2.8787 -0.833711 0
M  V30 12500 H 1222.89 1.50832 -0.588323 0
M  V30 12501 H 1224.88 3.73987 1.54648 0
M  V30 12502 H 1223.45 2.67943 1.61014 0
M  V30 12503 H 1222.67 3.90293 -0.553594 0
M  V30 12504 H 1223.96 5.08192 -0.248707 0
M  V30 12505 H 1223.35 4.84302 2.92349 0
M  V30 12506 H 1221.91 5.76905 3.03355 0
M  V30 12507 N 1225.34 0.486708 1.49896 0
M  V30 12508 C 1226.29 -0.299294 2.28851 0
M  V30 12509 C 1227.26 -0.973251 1.346 0
M  V30 12510 O 1228.45 -0.982678 1.63548 0
M  V30 12511 C 1225.59 -1.36624 3.16904 0
M  V30 12512 C 1224.7 -0.705492 4.262 0
M  V30 12513 C 1223.83 -1.75165 5.01488 0
M  V30 12514 C 1222.87 -1.072 6.0264 0
M  V30 12515 N 1222.01 -2.06172 6.71147 0
M  V30 12516 H 1226.85 0.380272 2.95564 0
M  V30 12517 H 1224.39 0.199377 1.45743 0
M  V30 12518 H 1226.35 -1.99666 3.66319 0
M  V30 12519 H 1224.98 -2.01476 2.52205 0
M  V30 12520 H 1224.03 0.0378757 3.80381 0
M  V30 12521 H 1225.34 -0.169774 4.98511 0
M  V30 12522 H 1224.49 -2.45749 5.547 0
M  V30 12523 H 1223.23 -2.3212 4.28919 0
M  V30 12524 H 1222.24 -0.351868 5.48673 0
M  V30 12525 H 1223.46 -0.509139 6.77189 0
M  V30 12526 H 1221.41 -2.62115 6.01358 0
M  V30 12527 H 1221.33 -1.57627 7.39385 0
M  V30 12528 H 1222.59 -2.76088 7.28969 0
M  V30 12529 N 1226.82 -1.56058 0.219941 0
M  V30 12530 C 1228.05 -2.02652 -0.417101 0
M  V30 12531 C 1228.47 -1.09977 -1.53461 0
M  V30 12532 O 1227.82 -0.109088 -1.82174 0
M  V30 12533 C 1227.87 -3.48787 -0.950244 0
M  V30 12534 O 1227.6 -4.37928 0.12271 0
M  V30 12535 C 1229.1 -4.11018 -1.66069 0
M  V30 12536 H 1226.32 -0.663163 -0.102254 0
M  V30 12537 H 1228.86 -2.01722 0.335923 0
M  V30 12538 H 1227.02 -3.50338 -1.65355 0
M  V30 12539 H 1227.43 -5.23764 -0.277785 0
M  V30 12540 H 1228.9 -5.15046 -1.98575 0
M  V30 12541 H 1229.38 -3.55921 -2.57326 0
M  V30 12542 H 1229.99 -4.13313 -1.00263 0
M  V30 12543 N 1228.3 0.053464 -1.57509 0
M  V30 12544 C 1229.53 0.761533 -1.92375 0
M  V30 12545 C 1229.94 1.70179 -0.817585 0
M  V30 12546 O 1229.3 1.81313 0.207843 0
M  V30 12547 C 1229.35 1.53954 -3.27078 0
M  V30 12548 O 1229.07 0.637054 -4.33443 0
M  V30 12549 C 1230.57 2.34697 -3.76075 0
M  V30 12550 H 1227.79 0.215483 -0.635459 0
M  V30 12551 H 1230.34 0.0182624 -2.04492 0
M  V30 12552 H 1228.49 2.23492 -3.16434 0
M  V30 12553 H 1228.91 1.18006 -5.11053 0
M  V30 12554 H 1230.38 2.84716 -4.72906 0
M  V30 12555 H 1230.86 3.15041 -3.06016 0
M  V30 12556 H 1231.46 1.70281 -3.89724 0
M  V30 12557 N 1229.78 1.54207 0.325255 0
M  V30 12558 C 1230.69 1.86495 1.42326 0
M  V30 12559 C 1231.71 0.756718 1.56684 0
M  V30 12560 O 1232.88 1.05084 1.71812 0
M  V30 12561 C 1229.95 2.08414 2.77064 0
M  V30 12562 C 1229.01 3.32221 2.71897 0
M  V30 12563 C 1228.24 3.53085 4.00209 0
M  V30 12564 O 1228.46 2.77421 4.98391 0
M  V30 12565 O 1227.4 4.46559 4.0357 0
M  V30 12566 H 1231.22 2.79859 1.17951 0
M  V30 12567 H 1228.81 1.40091 0.519124 0
M  V30 12568 H 1230.69 2.24171 3.56827 0
M  V30 12569 H 1229.37 1.18238 3.01333 0
M  V30 12570 H 1228.27 3.21851 1.90691 0
M  V30 12571 H 1229.61 4.22449 2.52582 0
M  V30 12572 N 1231.26 -0.58723 1.46251 0
M  V30 12573 C 1232.53 -1.34727 1.41802 0
M  V30 12574 C 1232.91 -2.10867 0.0991354 0
M  V30 12575 O 1232.26 -2.09194 -0.919242 0
M  V30 12576 C 1232.47 -2.27706 2.64482 0
M  V30 12577 C 1233.82 -2.89678 3.10438 0
M  V30 12578 O 1234.84 -2.38021 2.64999 0
M  V30 12579 O 1233.7 -3.83493 3.89352 0
M  V30 12580 H 1230.8 -0.605119 0.563702 0
M  V30 12581 H 1233.34 -0.608623 1.5841 0
M  V30 12582 H 1232.12 -1.70842 3.52035 0
M  V30 12583 H 1231.74 -3.08918 2.50311 0
M  V30 12584 N 1232.74 -1.33881 -0.831482 0
M  V30 12585 C 1233.65 -1.26802 -1.97379 0
M  V30 12586 C 1234.66 -0.177233 -1.73095 0
M  V30 12587 O 1235.84 -0.402163 -1.97344 0
M  V30 12588 C 1232.9 -1.01474 -3.31517 0
M  V30 12589 C 1231.96 -2.19626 -3.68867 0
M  V30 12590 C 1231.2 -1.95497 -4.96605 0
M  V30 12591 O 1231.42 -0.908948 -5.63111 0
M  V30 12592 O 1230.35 -2.82226 -5.31632 0
M  V30 12593 H 1234.18 -2.22883 -2.06293 0
M  V30 12594 H 1231.76 -1.14001 -0.965613 0
M  V30 12595 H 1233.65 -0.890954 -4.11874 0
M  V30 12596 H 1232.32 -0.0842656 -3.2359 0
M  V30 12597 H 1231.23 -2.37561 -2.88991 0
M  V30 12598 H 1232.56 -3.11034 -3.81469 0
M  V30 12599 N 1234.21 1.05064 -1.1747 0
M  V30 12600 C 1235.46 1.78352 -0.965311 0
M  V30 12601 C 1235.79 1.87527 0.504707 0
M  V30 12602 O 1235.07 1.376 1.37465 0
M  V30 12603 C 1235.35 3.22173 -1.60862 0
M  V30 12604 C 1235.2 3.21003 -3.15083 0
M  V30 12605 C 1236.52 4.2004 -1.31358 0
M  V30 12606 H 1233.64 0.647452 -0.352101 0
M  V30 12607 H 1236.28 1.22794 -1.44988 0
M  V30 12608 H 1234.43 3.69613 -1.19658 0
M  V30 12609 H 1236.11 2.81629 -3.65353 0
M  V30 12610 H 1234.35 2.59309 -3.47766 0
M  V30 12611 H 1235.02 4.22516 -3.55224 0
M  V30 12612 H 1237.5 3.81099 -1.6704 0
M  V30 12613 H 1236.37 5.1891 -1.78953 0
M  V30 12614 H 1236.63 4.41477 -0.234606 0
M  V30 12615 N 1235.69 0.975146 1.23809 0
M  V30 12616 C 1236.64 0.482305 2.2284 0
M  V30 12617 C 1237.63 -0.439787 1.54773 0
M  V30 12618 O 1238.82 -0.269496 1.74936 0
M  V30 12619 C 1235.95 -0.219056 3.426 0
M  V30 12620 C 1235.03 0.722299 4.17904 0
M  V30 12621 N 1235.42 1.86271 4.70252 0
M  V30 12622 C 1233.72 0.53457 4.42785 0
M  V30 12623 C 1234.42 2.45212 5.2749 0
M  V30 12624 N 1233.4 1.73652 5.15117 0
M  V30 12625 H 1237.2 1.35234 2.60939 0
M  V30 12626 H 1234.71 0.835162 1.3928 0
M  V30 12627 H 1236.71 -0.589401 4.12713 0
M  V30 12628 H 1235.37 -1.08544 3.0602 0
M  V30 12629 H 1236.38 2.24404 4.66758 0
M  V30 12630 H 1233.06 -0.287232 4.16511 0
M  V30 12631 H 1234.45 3.41491 5.78648 0
M  V30 12632 N 1237.17 -1.38817 0.746158 0
M  V30 12633 C 1238.42 -1.99519 0.295839 0
M  V30 12634 C 1238.73 -1.59897 -1.12661 0
M  V30 12635 O 1239.94 -2.13514 -1.67702 0
M  V30 12636 C 1238.39 -3.56712 0.477984 0
M  V30 12637 C 1238 -4.0529 1.90904 0
M  V30 12638 C 1239.75 -4.24405 0.0900039 0
M  V30 12639 C 1237.65 -5.55097 2.04014 0
M  V30 12640 H 1236.58 -0.746389 0.106861 0
M  V30 12641 H 1239.23 -1.58676 0.921637 0
M  V30 12642 H 1237.62 -3.95406 -0.216884 0
M  V30 12643 H 1238.79 -3.77904 2.63677 0
M  V30 12644 H 1237.1 -3.50297 2.25125 0
M  V30 12645 H 1239.7 -5.3444 0.16682 0
M  V30 12646 H 1240.04 -4.05166 -0.956349 0
M  V30 12647 H 1240.58 -3.90924 0.736446 0
M  V30 12648 H 1237.32 -5.7923 3.06877 0
M  V30 12649 H 1236.84 -5.8425 1.35692 0
M  V30 12650 H 1238.52 -6.20682 1.82656 0
M  V30 12651 N 1238.65 -0.49465 -1.49636 0
M  V30 12652 C 1239.89 0.0505629 -2.04337 0
M  V30 12653 C 1240.25 1.34858 -1.36665 0
M  V30 12654 O 1241.45 1.97763 -1.82052 0
M  V30 12655 C 1239.72 0.206247 -3.56804 0
M  V30 12656 S 1241.28 0.706624 -4.33073 0
M  V30 12657 H 1238.1 0.00479193 -0.710984 0
M  V30 12658 H 1240.7 -0.667169 -1.83764 0
M  V30 12659 H 1239.41 -0.743862 -4.03602 0
M  V30 12660 H 1238.94 0.949406 -3.81772 0
M  V30 12661 H 1240.95 1.97672 -4.55127 0
M  V30 12662 N 1240.13 1.55939 -0.228214 0
M  V30 12663 C 1241.08 2.17223 0.692674 0
M  V30 12664 C 1242.06 1.12252 1.15275 0
M  V30 12665 O 1243.25 1.3822 1.10563 0
M  V30 12666 C 1240.38 2.86084 1.89766 0
M  V30 12667 C 1239.47 3.98288 1.45695 0
M  V30 12668 N 1239.86 5.00515 0.729258 0
M  V30 12669 C 1238.16 4.105 1.74372 0
M  V30 12670 C 1238.86 5.79516 0.503606 0
M  V30 12671 N 1237.83 5.33119 1.06229 0
M  V30 12672 H 1241.63 2.9362 0.128345 0
M  V30 12673 H 1239.15 1.62373 -0.0297445 0
M  V30 12674 H 1241.15 3.28404 2.5682 0
M  V30 12675 H 1239.81 2.11185 2.46639 0
M  V30 12676 H 1240.82 5.16495 0.381261 0
M  V30 12677 H 1237.49 3.46759 2.32518 0
M  V30 12678 H 1238.88 6.71857 -0.0760344 0
M  V30 12679 N 1241.6 -0.0451101 1.57535 0
M  V30 12680 C 1242.55 -1.0692 2.06569 0
M  V30 12681 C 1243.55 -1.38443 0.976218 0
M  V30 12682 O 1244.75 -1.37536 1.1612 0
M  V30 12683 H 1241.13 -0.36226 0.658993 0
M  V30 12684 H 1243.1 -0.629709 2.9168 0
M  V30 12685 C 1241.85 -2.36656 2.54733 0
M  V30 12686 H 1241.17 -2.13257 3.38174 0
M  V30 12687 H 1242.61 -3.06696 2.92769 0
M  V30 12688 C 1241.07 -3.04499 1.4416 0
M  V30 12689 O 1241.6 -3.93679 0.798721 0
M  V30 12690 N 1239.81 -2.6556 1.18009 0
M  V30 12691 H 1239.35 -1.93126 1.7047 0
M  V30 12692 H 1239.31 -3.11272 0.442363 0
M  V30 12693 N 1243.08 -1.54377 -0.317073 0
M  V30 12694 C 1244.01 -1.80563 -1.41172 0
M  V30 12695 C 1245.03 -0.687865 -1.47554 0
M  V30 12696 O 1246.22 -0.965084 -1.50161 0
M  V30 12697 C 1243.32 -1.9142 -2.79663 0
M  V30 12698 C 1242.49 -3.21655 -2.96407 0
M  V30 12699 C 1241.55 -3.23131 -4.15298 0
M  V30 12700 O 1240.57 -3.96741 -4.08149 0
M  V30 12701 N 1241.78 -2.47376 -5.25153 0
M  V30 12702 H 1244.54 -2.75032 -1.1907 0
M  V30 12703 H 1242.1 -1.53754 -0.507086 0
M  V30 12704 H 1244.09 -1.89828 -3.57418 0
M  V30 12705 H 1242.66 -1.0402 -2.94786 0
M  V30 12706 H 1241.88 -3.36154 -2.05899 0
M  V30 12707 H 1243.17 -4.07629 -3.04494 0
M  V30 12708 H 1242.57 -1.87173 -5.33838 0
M  V30 12709 H 1241.13 -2.51555 -6.01301 0
M  V30 12710 N 1244.56 0.579466 -1.4656 0
M  V30 12711 C 1245.84 1.33973 -1.42515 0
M  V30 12712 C 1246.22 2.10812 -0.110317 0
M  V30 12713 O 1245.57 2.09679 0.908135 0
M  V30 12714 C 1245.78 2.26301 -2.65686 0
M  V30 12715 C 1247.12 2.88027 -3.1197 0
M  V30 12716 O 1248.15 2.36612 -2.66257 0
M  V30 12717 O 1247.01 3.81423 -3.9138 0
M  V30 12718 H 1244.1 0.602121 -0.566903 0
M  V30 12719 H 1246.65 0.600214 -1.58731 0
M  V30 12720 H 1245.42 1.68973 -3.52936 0
M  V30 12721 H 1245.04 3.07586 -2.51945 0
M  V30 12722 N 1246.04 1.3432 0.824371 0
M  V30 12723 C 1247.29 1.26345 1.57738 0
M  V30 12724 C 1247.61 -0.166836 1.94285 0
M  V30 12725 O 1246.88 -1.09911 1.62162 0
M  V30 12726 H 1245.46 0.46466 0.584893 0
M  V30 12727 H 1248.12 1.68214 0.984373 0
M  V30 12728 H 1247.22 1.8672 2.50084 0
M  V30 12729 N 1247.52 -1.0444 1.18026 0
M  V30 12730 C 1248.75 -1.80971 0.996642 0
M  V30 12731 C 1249.15 -1.83568 -0.458192 0
M  V30 12732 O 1248.5 -1.26713 -1.33002 0
M  V30 12733 C 1248.56 -3.28051 1.47048 0
M  V30 12734 C 1248.22 -3.49122 2.94895 0
M  V30 12735 C 1249.22 -3.40621 3.92777 0
M  V30 12736 C 1246.91 -3.7584 3.33241 0
M  V30 12737 C 1248.9 -3.58535 5.27002 0
M  V30 12738 C 1246.59 -3.93402 4.6763 0
M  V30 12739 C 1247.58 -3.84749 5.6432 0
M  V30 12740 O 1247.27 -4.01813 6.96277 0
M  V30 12741 H 1247 -0.576873 0.352411 0
M  V30 12742 H 1249.56 -1.32542 1.56913 0
M  V30 12743 H 1247.79 -3.77431 0.841609 0
M  V30 12744 H 1249.48 -3.8613 1.25135 0
M  V30 12745 H 1250.24 -3.19948 3.64497 0
M  V30 12746 H 1246.12 -3.81674 2.58545 0
M  V30 12747 H 1249.67 -3.51698 6.02457 0
M  V30 12748 H 1245.56 -4.13568 4.95613 0
M  V30 12749 H 1246.33 -4.18995 7.03126 0
M  V30 12750 N 1248.99 -0.981699 -1.2329 0
M  V30 12751 C 1250.22 -0.669025 -1.96313 0
M  V30 12752 C 1250.64 0.757624 -1.72168 0
M  V30 12753 O 1250 1.51626 -0.993942 0
M  V30 12754 C 1250.05 -0.966875 -3.47396 0
M  V30 12755 O 1249.15 -0.0595933 -4.12357 0
M  V30 12756 H 1248.5 -0.251493 -0.61453 0
M  V30 12757 H 1251.03 -1.31564 -1.56691 0
M  V30 12758 H 1251.04 -0.904112 -3.97857 0
M  V30 12759 H 1249.71 -2.00651 -3.64296 0
M  V30 12760 H 1248.29 -0.176878 -3.7248 0
M  V30 12761 N 1250.47 1.3842 -0.753509 0
M  V30 12762 C 1251.7 2.04107 -0.319985 0
M  V30 12763 C 1252.11 1.56951 1.05655 0
M  V30 12764 O 1251.45 0.737807 1.68232 0
M  V30 12765 C 1251.52 3.58529 -0.26402 0
M  V30 12766 C 1251.18 4.28741 -1.58209 0
M  V30 12767 C 1252.18 4.54118 -2.53126 0
M  V30 12768 C 1249.86 4.66931 -1.8515 0
M  V30 12769 C 1251.86 5.16719 -3.73203 0
M  V30 12770 C 1249.54 5.29256 -3.05502 0
M  V30 12771 C 1250.54 5.54085 -3.99348 0
M  V30 12772 O 1250.23 6.15112 -5.17584 0
M  V30 12773 H 1249.96 0.662457 -0.134636 0
M  V30 12774 H 1252.51 1.78096 -1.02328 0
M  V30 12775 H 1250.74 3.83512 0.495516 0
M  V30 12776 H 1252.43 4.05659 0.139979 0
M  V30 12777 H 1253.2 4.25043 -2.33588 0
M  V30 12778 H 1249.08 4.46952 -1.12939 0
M  V30 12779 H 1252.62 5.36014 -4.46469 0
M  V30 12780 H 1248.52 5.57754 -3.24932 0
M  V30 12781 H 1249.29 6.33599 -5.18164 0
M  V30 12782 N 1251.95 0.502579 1.49372 0
M  V30 12783 C 1253.36 0.055187 1.86618 0
M  V30 12784 C 1253.71 -1.35938 1.41476 0
M  V30 12785 O 1252.84 -2.01333 0.793338 0
M  V30 12786 C 1253.43 0.0933734 3.38671 0
M  V30 12787 C 1251.99 -0.298685 3.75213 0
M  V30 12788 C 1251.14 0.465216 2.7337 0
M  V30 12789 H 1254.09 0.715281 1.41667 0
M  V30 12790 H 1254.11 -0.701549 3.73977 0
M  V30 12791 H 1253.62 1.12303 3.71497 0
M  V30 12792 H 1251.72 -1.33151 3.47996 0
M  V30 12793 H 1251.84 0.0218637 4.79095 0
M  V30 12794 H 1250.2 -0.0851469 2.54558 0
M  V30 12795 H 1250.98 1.49498 3.09039 0
M  V30 12796 N 1253.43 -1.55816 0.23648 0
M  V30 12797 C 1254.65 -2.03534 -0.398575 0
M  V30 12798 C 1255.08 -1.11488 -1.51499 0
M  V30 12799 O 1254.44 -0.105848 -1.80991 0
M  V30 12800 C 1254.48 -3.49356 -0.893467 0
M  V30 12801 O 1253.59 -3.60446 -2.00381 0
M  V30 12802 H 1252.93 -0.658102 -0.0883021 0
M  V30 12803 H 1255.46 -2.01417 0.359488 0
M  V30 12804 H 1255.47 -3.89972 -1.19941 0
M  V30 12805 H 1254.14 -4.1583 -0.0764388 0
M  V30 12806 H 1252.72 -3.31723 -1.70336 0
M  V30 12807 N 1254.91 0.036755 -1.57557 0
M  V30 12808 C 1256.32 0.392264 -1.54704 0
M  V30 12809 C 1256.52 1.77076 -0.96157 0
M  V30 12810 O 1255.58 2.45766 -0.579263 0
M  V30 12811 C 1256.89 0.301168 -2.99188 0
M  V30 12812 C 1258.44 0.378813 -3.10699 0
M  V30 12813 C 1258.91 0.317249 -4.569 0
M  V30 12814 N 1260.41 0.376277 -4.61669 0
M  V30 12815 C 1261.14 0.351411 -5.72322 0
M  V30 12816 N 1260.64 0.279288 -6.92237 0
M  V30 12817 N 1262.43 0.400571 -5.60671 0
M  V30 12818 H 1254.58 -0.865455 -1.93968 0
M  V30 12819 H 1256.84 -0.328339 -0.889324 0
M  V30 12820 H 1256.55 -0.64582 -3.4572 0
M  V30 12821 H 1256.42 1.09784 -3.6087 0
M  V30 12822 H 1258.81 1.31623 -2.6412 0
M  V30 12823 H 1258.89 -0.447072 -2.51863 0
M  V30 12824 H 1258.54 -0.616469 -5.04145 0
M  V30 12825 H 1258.47 1.16114 -5.13639 0
M  V30 12826 H 1260.96 0.434843 -3.7539 0
M  V30 12827 H 1261.27 0.265202 -7.72345 0
M  V30 12828 H 1259.61 0.24545 -6.94566 0
M  V30 12829 H 1262.81 0.454854 -4.65885 0
M  V30 12830 H 1262.98 0.377724 -6.46898 0
M  V30 12831 N 1256.39 1.54543 0.308881 0
M  V30 12832 C 1257.32 1.81309 1.40212 0
M  V30 12833 C 1258.33 0.69568 1.47187 0
M  V30 12834 O 1259.52 0.973034 1.49647 0
M  V30 12835 C 1256.62 1.92901 2.78644 0
M  V30 12836 C 1255.79 3.23222 2.94697 0
M  V30 12837 C 1254.85 3.25329 4.13579 0
M  V30 12838 O 1253.88 3.989 4.06039 0
M  V30 12839 N 1255.08 2.50158 5.23833 0
M  V30 12840 H 1257.84 2.75659 1.1761 0
M  V30 12841 H 1255.41 1.54021 0.498925 0
M  V30 12842 H 1257.4 1.91721 3.56406 0
M  V30 12843 H 1255.97 1.05582 2.9423 0
M  V30 12844 H 1255.19 3.37241 2.04113 0
M  V30 12845 H 1256.48 4.09238 3.02328 0
M  V30 12846 H 1255.87 1.90002 5.32838 0
M  V30 12847 H 1254.43 2.5474 5.99959 0
M  V30 12848 N 1257.86 -0.571685 1.46866 0
M  V30 12849 C 1258.8 -1.69502 1.52788 0
M  V30 12850 C 1259.77 -1.58071 0.381109 0
M  V30 12851 O 1260.96 -1.79132 0.586844 0
M  V30 12852 C 1258.09 -3.07642 1.41682 0
M  V30 12853 C 1257.13 -3.37562 2.6068 0
M  V30 12854 S 1257.96 -3.28413 4.22971 0
M  V30 12855 C 1259.12 -4.69073 4.14393 0
M  V30 12856 H 1259.35 -1.64221 2.47828 0
M  V30 12857 H 1256.89 -0.751334 1.34886 0
M  V30 12858 H 1258.84 -3.8733 1.35962 0
M  V30 12859 H 1257.51 -3.10403 0.480517 0
M  V30 12860 H 1256.7 -4.38233 2.48933 0
M  V30 12861 H 1256.3 -2.65464 2.63448 0
M  V30 12862 H 1258.59 -5.59706 3.81754 0
M  V30 12863 H 1259.54 -4.85877 5.15101 0
M  V30 12864 H 1259.94 -4.4644 3.45473 0
M  V30 12865 N 1259.34 -1.34755 -0.817236 0
M  V30 12866 C 1260.59 -1.2762 -1.5761 0
M  V30 12867 C 1260.92 0.152017 -1.93604 0
M  V30 12868 O 1260.2 1.09881 -1.60488 0
M  V30 12869 C 1260.48 -2.17251 -2.87183 0
M  V30 12870 C 1260.33 -3.68638 -2.57733 0
M  V30 12871 C 1261.65 -2.06206 -3.88802 0
M  V30 12872 H 1258.77 -0.464933 -0.571845 0
M  V30 12873 H 1261.41 -1.6506 -0.941028 0
M  V30 12874 H 1259.56 -1.85452 -3.41379 0
M  V30 12875 H 1261.23 -4.10829 -2.09802 0
M  V30 12876 H 1259.48 -3.89445 -1.91089 0
M  V30 12877 H 1260.15 -4.26726 -3.50156 0
M  V30 12878 H 1262.62 -2.34137 -3.43975 0
M  V30 12879 H 1261.5 -2.71136 -4.77259 0
M  V30 12880 H 1261.76 -1.04075 -4.29675 0
M  V30 12881 N 1260.82 1.03812 -1.18578 0
M  V30 12882 C 1262.04 1.8124 -1.00831 0
M  V30 12883 C 1262.47 1.82917 0.43853 0
M  V30 12884 O 1261.83 1.24835 1.31476 0
M  V30 12885 C 1261.88 3.24592 -1.57075 0
M  V30 12886 O 1260.98 4.04688 -0.793824 0
M  V30 12887 H 1260.32 0.559846 -0.357028 0
M  V30 12888 H 1262.85 1.30724 -1.57393 0
M  V30 12889 H 1262.86 3.75363 -1.59896 0
M  V30 12890 H 1261.54 3.22686 -2.62387 0
M  V30 12891 H 1260.11 3.63359 -0.838134 0
M  V30 12892 N 1262.3 0.988223 1.22768 0
M  V30 12893 C 1263.23 0.554478 2.26821 0
M  V30 12894 C 1264.21 -0.416293 1.64927 0
M  V30 12895 O 1265.39 -0.30795 1.91743 0
M  V30 12896 C 1262.52 -0.136266 3.47033 0
M  V30 12897 C 1261.48 0.752575 4.21332 0
M  V30 12898 C 1260.8 -0.0708236 5.34653 0
M  V30 12899 C 1262.1 2.04717 4.80508 0
M  V30 12900 H 1263.8 1.42423 2.63355 0
M  V30 12901 H 1261.34 0.686267 1.26595 0
M  V30 12902 H 1263.3 -0.451068 4.18979 0
M  V30 12903 H 1262.02 -1.04053 3.09581 0
M  V30 12904 H 1260.68 1.05095 3.51213 0
M  V30 12905 H 1260.33 -0.975859 4.93443 0
M  V30 12906 H 1260.03 0.520835 5.85287 0
M  V30 12907 H 1261.55 -0.379828 6.09417 0
M  V30 12908 H 1262.97 1.79663 5.44421 0
M  V30 12909 H 1261.36 2.58726 5.41462 0
M  V30 12910 H 1262.43 2.72896 4.00819 0
M  V30 12911 N 1263.78 -1.38018 0.760839 0
M  V30 12912 C 1264.69 -2.34181 0.140232 0
M  V30 12913 C 1265.7 -1.59635 -0.692287 0
M  V30 12914 O 1266.88 -1.91788 -0.614752 0
M  V30 12915 C 1263.94 -3.38778 -0.73693 0
M  V30 12916 C 1263 -4.29157 0.110792 0
M  V30 12917 C 1262.24 -5.28758 -0.724599 0
M  V30 12918 O 1262.46 -5.35585 -1.96226 0
M  V30 12919 O 1261.39 -6.01738 -0.139565 0
M  V30 12920 H 1265.22 -2.88962 0.934588 0
M  V30 12921 H 1262.8 -1.3999 0.521835 0
M  V30 12922 H 1264.69 -4.02804 -1.23803 0
M  V30 12923 H 1263.36 -2.86341 -1.50966 0
M  V30 12924 H 1262.27 -3.68268 0.658007 0
M  V30 12925 H 1263.6 -4.84869 0.846346 0
M  V30 12926 N 1265.25 -0.510493 -1.49103 0
M  V30 12927 C 1266.53 0.0941122 -1.95373 0
M  V30 12928 C 1266.91 1.53207 -1.45227 0
M  V30 12929 O 1266.26 2.18452 -0.670161 0
M  V30 12930 C 1266.47 -0.00302507 -3.49 0
M  V30 12931 C 1267.82 0.166117 -4.24275 0
M  V30 12932 O 1268.84 0.0717097 -3.56128 0
M  V30 12933 O 1267.7 0.361155 -5.45305 0
M  V30 12934 H 1264.79 0.0900741 -0.82208 0
M  V30 12935 H 1267.34 -0.573707 -1.59708 0
M  V30 12936 H 1266.11 -1.00545 -3.78162 0
M  V30 12937 H 1265.73 0.704518 -3.91308 0
M  V30 12938 N 1266.73 1.55688 -0.24474 0
M  V30 12939 C 1268.01 1.90796 0.430821 0
M  V30 12940 C 1268.39 1.1652 1.76029 0
M  V30 12941 O 1267.74 0.281978 2.26753 0
M  V30 12942 C 1267.95 3.43786 0.601027 0
M  V30 12943 C 1269.29 4.14998 0.897894 0
M  V30 12944 O 1270.32 3.49513 0.68697 0
M  V30 12945 O 1269.18 5.30826 1.29945 0
M  V30 12946 H 1266.27 0.794086 0.230991 0
M  V30 12947 H 1268.82 1.67227 -0.288646 0
M  V30 12948 H 1267.59 3.89856 -0.335804 0
M  V30 12949 H 1267.21 3.73211 1.37112 0
M  V30 12950 N 1268.21 -0.0283989 1.57574 0
M  V30 12951 C 1269.46 -0.720142 1.89583 0
M  V30 12952 C 1269.79 -1.7497 0.842562 0
M  V30 12953 O 1269.06 -1.93979 -0.142294 0
M  V30 12954 C 1269.35 -1.38909 3.32229 0
M  V30 12955 C 1269.2 -0.372998 4.48251 0
M  V30 12956 C 1270.52 -2.32289 3.73804 0
M  V30 12957 H 1267.64 -0.26033 0.689491 0
M  V30 12958 H 1270.28 0.0170607 1.89992 0
M  V30 12959 H 1268.43 -2.01744 3.32011 0
M  V30 12960 H 1270.1 0.253492 4.60603 0
M  V30 12961 H 1268.34 0.30765 4.32708 0
M  V30 12962 H 1269.02 -0.879549 5.44948 0
M  V30 12963 H 1271.49 -1.79497 3.75393 0
M  V30 12964 H 1270.37 -2.76075 4.74419 0
M  V30 12965 H 1270.63 -3.18992 3.06099 0
M  V30 12966 N 1269.69 -1.54705 -0.300681 0
M  V30 12967 C 1270.65 -1.84934 -1.35395 0
M  V30 12968 C 1271.65 -0.72226 -1.43666 0
M  V30 12969 O 1272.84 -0.990543 -1.43296 0
M  V30 12970 C 1269.97 -2.02991 -2.73875 0
M  V30 12971 H 1271.17 -2.79063 -1.09835 0
M  V30 12972 H 1268.72 -1.46772 -0.537365 0
M  V30 12973 H 1269.45 -1.11151 -3.04657 0
M  V30 12974 H 1269.24 -2.85027 -2.69262 0
M  V30 12975 H 1270.73 -2.27747 -3.5003 0
M  V30 12976 O 1271.2 0.446575 -1.55203 0
M  V30 12977 H 1271.9 1.10037 -1.5941 0
M  V30 END ATOM
M  V30 BEGIN BOND
M  V30 END BOND
M  V30 END CTAB
M  END
$$$$
