drugbank_target|P01127 Platelet-derived growth factor subunit B (DB06325)
 OpenBabel12092120333D

  0  0  0     0  0            999 V3000
M  V30 BEGIN CTAB
M  V30 COUNTS 3855 3887 0 0 0
M  V30 BEGIN ATOM
M  V30 1 H -0.908 1.98254 -0.117106 0
M  V30 2 N 0 1.576 0 0
M  V30 3 C 0.933 2.03868 1.02534 0
M  V30 4 C 1.911 0.928543 1.3348 0
M  V30 5 O 3.095 1.19667 1.45644 0
M  V30 6 C 0.222 2.43627 2.35294 0
M  V30 7 C -0.732 3.65373 2.2001 0
M  V30 8 S 0.101 5.13292 1.52614 0
M  V30 9 C 1.257 5.56322 2.86805 0
M  V30 10 H 1.49 2.90518 0.631377 0
M  V30 11 H -0.977 1.52953 0.210867 0
M  V30 12 H 0.981 2.67203 3.11629 0
M  V30 13 H -0.358 1.57376 2.7183 0
M  V30 14 H -1.165 3.90944 3.18086 0
M  V30 15 H -1.563 3.418 1.51819 0
M  V30 16 H 0.729 5.58782 3.83104 0
M  V30 17 H 1.672 6.56266 2.65933 0
M  V30 18 H 2.08 4.83886 2.90714 0
M  V30 19 N 1.4781 -0.272755 1.55222 0
M  V30 20 C 2.4261 -1.35705 1.88909 0
M  V30 21 C 3.4201 -1.5112 0.765456 0
M  V30 22 O 4.6261 -1.52901 0.949802 0
M  V30 23 H 1.0011 -0.453868 0.59959 0
M  V30 24 H 2.9721 -1.04544 2.79487 0
M  V30 25 C 1.7211 -2.71049 2.17779 0
M  V30 26 H 1.0441 -2.59979 3.03728 0
M  V30 27 H 2.4841 -3.45858 2.45272 0
M  V30 28 C 0.9431 -3.22165 0.985473 0
M  V30 29 O 1.4731 -4.01096 0.220233 0
M  V30 30 N -0.3209 -2.7985 0.783108 0
M  V30 31 H -0.7739 -2.15775 1.40708 0
M  V30 32 H -0.8159 -3.14397 -0.0130392 0
M  V30 33 N 2.9562 -1.48159 -0.537278 0
M  V30 34 C 4.3722 -1.34118 -0.865129 0
M  V30 35 C 4.5722 -0.346678 -1.98495 0
M  V30 36 O 3.6282 0.234715 -2.51407 0
M  V30 37 C 4.9412 -2.73963 -1.23954 0
M  V30 38 C 6.4892 -2.82397 -1.34984 0
M  V30 39 C 6.9642 -4.22928 -1.75772 0
M  V30 40 N 8.4552 -4.25566 -1.82887 0
M  V30 41 C 9.1902 -5.31235 -2.15817 0
M  V30 42 N 8.6862 -6.47189 -2.47222 0
M  V30 43 N 10.4792 -5.18624 -2.16761 0
M  V30 44 H 2.6302 -2.1144 0.201715 0
M  V30 45 H 4.8932 -0.947598 0.0275949 0
M  V30 46 H 4.5992 -3.48264 -0.490381 0
M  V30 47 H 4.4732 -3.0702 -2.19132 0
M  V30 48 H 6.8602 -2.08356 -2.08978 0
M  V30 49 H 6.9412 -2.5297 -0.379448 0
M  V30 50 H 6.5852 -4.97482 -1.02341 0
M  V30 51 H 6.5152 -4.49794 -2.73848 0
M  V30 52 H 9.0062 -3.41924 -1.60924 0
M  V30 53 H 9.3192 -7.23564 -2.71433 0
M  V30 54 H 7.6642 -6.50476 -2.44757 0
M  V30 55 H 10.8552 -4.27056 -1.91679 0
M  V30 56 H 11.0282 -6.01078 -2.42093 0
M  V30 57 N 4.4343 0.785586 -1.36625 0
M  V30 58 C 5.6743 1.55678 -1.32453 0
M  V30 59 C 6.0383 1.91769 0.0941089 0
M  V30 60 O 7.2393 2.67536 0.26042 0
M  V30 61 C 5.5103 2.79701 -2.22491 0
M  V30 62 S 7.0693 3.69907 -2.36038 0
M  V30 63 H 3.8873 0.533141 -0.470405 0
M  V30 64 H 6.4893 0.924953 -1.72235 0
M  V30 65 H 5.1933 2.51244 -3.24507 0
M  V30 66 H 4.7243 3.47854 -1.83742 0
M  V30 67 H 6.7393 4.71016 -1.56072 0
M  V30 68 N 5.9124 1.20967 1.01018 0
M  V30 69 C 7.1584 1.0353 1.7508 0
M  V30 70 C 7.5134 -0.42734 1.87594 0
M  V30 71 O 6.8064 -1.31298 1.3954 0
M  V30 72 C 7.0004 1.65997 3.16512 0
M  V30 73 C 6.8294 3.18184 3.17788 0
M  V30 74 C 5.5994 3.87198 3.24662 0
M  V30 75 C 7.7974 4.15334 3.03319 0
M  V30 76 N 5.7794 5.26618 3.15509 0
M  V30 77 C 7.1504 5.41472 3.02007 0
M  V30 78 C 9.2054 4.06449 2.87583 0
M  V30 79 C 7.9084 6.5975 2.86571 0
M  V30 80 C 9.9344 5.24357 2.73503 0
M  V30 81 C 9.2964 6.49404 2.72862 0
M  V30 82 H 5.3954 0.433137 0.651089 0
M  V30 83 H 7.9794 1.5324 1.20107 0
M  V30 84 H 6.1504 1.18863 3.69765 0
M  V30 85 H 7.8824 1.41816 3.79039 0
M  V30 86 H 4.6374 3.38093 3.31648 0
M  V30 87 H 5.0614 5.99626 3.14289 0
M  V30 88 H 9.7034 3.10573 2.86887 0
M  V30 89 H 7.4214 7.55792 2.86015 0
M  V30 90 H 11.0074 5.19299 2.62334 0
M  V30 91 H 9.8874 7.39105 2.62093 0
M  V30 92 N 7.3905 -1.2043 1.01659 0
M  V30 93 C 8.3535 -2.21433 0.591616 0
M  V30 94 C 9.3535 -1.57203 -0.338226 0
M  V30 95 O 10.5435 -1.73737 -0.126918 0
M  V30 96 C 7.6755 -3.40628 -0.136058 0
M  V30 97 H 8.8685 -2.60545 1.48514 0
M  V30 98 H 6.4215 -1.33893 0.806379 0
M  V30 99 H 7.1565 -3.07019 -1.04449 0
M  V30 100 H 6.9415 -3.88475 0.531917 0
M  V30 101 H 8.4315 -4.15475 -0.420735 0
M  V30 102 N 8.8686 -0.792821 -1.36206 0
M  V30 103 C 9.7986 -0.207853 -2.32573 0
M  V30 104 C 10.7796 0.659055 -1.56813 0
M  V30 105 O 11.9646 0.592176 -1.84951 0
M  V30 106 C 9.0946 0.655449 -3.41059 0
M  V30 107 C 8.0486 -0.111842 -4.27854 0
M  V30 108 C 7.3746 0.872274 -5.27537 0
M  V30 109 C 8.6746 -1.30299 -5.05786 0
M  V30 110 H 10.3686 -1.01294 -2.81744 0
M  V30 111 H 7.9146 -0.48854 -1.3546 0
M  V30 112 H 9.8676 1.07464 -4.07467 0
M  V30 113 H 8.5916 1.49328 -2.90463 0
M  V30 114 H 7.2506 -0.512053 -3.63006 0
M  V30 115 H 6.8986 1.70523 -4.73214 0
M  V30 116 H 6.5986 0.363291 -5.86476 0
M  V30 117 H 8.1226 1.28996 -5.96818 0
M  V30 118 H 9.5366 -0.959379 -5.65216 0
M  V30 119 H 7.9336 -1.7455 -5.74154 0
M  V30 120 H 9.0036 -2.09663 -4.37229 0
M  V30 121 N 10.3467 1.47872 -0.545128 0
M  V30 122 C 11.5937 2.02493 -0.0165858 0
M  V30 123 C 11.9217 1.42073 1.32836 0
M  V30 124 O 11.1767 0.561459 1.87473 0
M  V30 125 C 11.4757 3.57131 0.13867 0
M  V30 126 C 11.1417 4.36411 -1.13384 0
M  V30 127 C 9.8037 4.57792 -1.48256 0
M  V30 128 C 12.1557 4.82223 -1.97764 0
M  V30 129 C 9.4837 5.22233 -2.67376 0
M  V30 130 C 11.8357 5.47977 -3.16076 0
M  V30 131 C 10.4997 5.67593 -3.51275 0
M  V30 132 H 9.7697 0.740975 -0.00606918 0
M  V30 133 H 12.4167 1.77683 -0.714207 0
M  V30 134 H 10.7217 3.80865 0.919172 0
M  V30 135 H 12.4187 3.97031 0.562782 0
M  V30 136 H 9.0087 4.2004 -0.852297 0
M  V30 137 H 13.1927 4.65493 -1.72132 0
M  V30 138 H 8.4487 5.35616 -2.94831 0
M  V30 139 H 12.6227 5.8244 -3.81755 0
M  V30 140 H 10.2497 6.17298 -4.43675 0
M  V30 141 N 11.8248 0.280983 1.55075 0
M  V30 142 C 12.7548 -0.597469 2.25727 0
M  V30 143 C 13.7358 -1.15417 1.24952 0
M  V30 144 O 14.9208 -1.18722 1.53684 0
M  V30 145 C 12.0508 -1.7789 2.98283 0
M  V30 146 C 11.0048 -1.35347 4.06036 0
M  V30 147 C 10.3308 -2.61846 4.66198 0
M  V30 148 C 11.6308 -0.499354 5.19907 0
M  V30 149 H 13.3248 -0.00824265 2.99399 0
M  V30 150 H 10.8708 -0.0025244 1.44 0
M  V30 151 H 12.8238 -2.39937 3.46422 0
M  V30 152 H 11.5478 -2.39405 2.22155 0
M  V30 153 H 10.2068 -0.756156 3.58717 0
M  V30 154 H 9.8548 -3.21632 3.86732 0
M  V30 155 H 9.5548 -2.3409 5.38958 0
M  V30 156 H 11.0788 -3.24732 5.1709 0
M  V30 157 H 12.4928 -1.02498 5.64063 0
M  V30 158 H 10.8898 -0.316424 5.99265 0
M  V30 159 H 11.9598 0.480459 4.82514 0
M  V30 160 N 13.3029 -1.57598 0.00835791 0
M  V30 161 C 14.5279 -1.95617 -0.689103 0
M  V30 162 C 14.9529 -0.883753 -1.66046 0
M  V30 163 O 14.3109 0.157352 -1.80616 0
M  V30 164 C 14.3589 -3.32736 -1.38994 0
M  V30 165 O 13.4629 -3.27631 -2.50463 0
M  V30 166 H 12.8039 -0.638379 -0.182668 0
M  V30 167 H 15.3339 -2.045 0.064036 0
M  V30 168 H 15.3439 -3.68494 -1.75147 0
M  V30 169 H 14.0189 -4.1034 -0.677778 0
M  V30 170 H 12.5959 -3.03561 -2.16576 0
M  V30 171 N 14.781 0.264519 -1.55364 0
M  V30 172 C 15.711 1.33121 -1.91836 0
M  V30 173 C 16.692 1.51101 -0.781192 0
M  V30 174 O 17.877 1.64003 -1.04003 0
M  V30 175 C 15.007 2.68921 -2.19769 0
M  V30 176 C 13.961 2.65661 -3.35571 0
M  V30 177 C 13.287 4.05093 -3.49004 0
M  V30 178 C 14.587 2.24187 -4.71739 0
M  V30 179 H 16.281 1.02844 -2.81182 0
M  V30 180 H 13.827 0.493286 -1.35287 0
M  V30 181 H 15.78 3.43663 -2.43872 0
M  V30 182 H 14.504 3.00799 -1.27231 0
M  V30 183 H 13.163 1.93377 -3.1145 0
M  V30 184 H 12.811 4.34206 -2.53917 0
M  V30 185 H 12.511 4.03804 -4.26868 0
M  V30 186 H 14.035 4.81561 -3.75408 0
M  V30 187 H 15.449 2.88654 -4.9533 0
M  V30 188 H 13.846 2.34044 -5.52579 0
M  V30 189 H 14.916 1.19327 -4.69988 0
M  V30 190 N 16.2591 1.48442 0.529413 0
M  V30 191 C 17.4991 1.58086 1.29569 0
M  V30 192 C 17.8631 0.249302 1.90375 0
M  V30 193 O 19.0641 0.220738 2.67892 0
M  V30 194 C 17.3351 2.68793 2.35552 0
M  V30 195 S 18.8941 2.98207 3.21898 0
M  V30 196 H 15.7121 0.557922 0.440732 0
M  V30 197 H 18.3141 1.85966 0.603059 0
M  V30 198 H 17.0181 3.64102 1.89363 0
M  V30 199 H 16.5491 2.42817 3.09522 0
M  V30 200 H 18.5641 2.37548 4.35644 0
M  V30 201 N 17.7372 -0.778329 1.37039 0
M  V30 202 C 18.9772 -1.54973 1.33276 0
M  V30 203 C 19.3412 -1.91816 -0.0839376 0
M  V30 204 O 20.5422 -2.6767 -0.246228 0
M  V30 205 C 18.8132 -2.78517 2.23971 0
M  V30 206 S 20.3722 -3.6865 2.37997 0
M  V30 207 H 17.1902 -0.530639 0.473226 0
M  V30 208 H 19.7922 -0.915806 1.72723 0
M  V30 209 H 18.4962 -2.4952 3.25835 0
M  V30 210 H 18.0272 -3.46875 1.85584 0
M  V30 211 H 20.0422 -4.70182 1.58567 0
M  V30 212 N 19.2153 -1.21501 -1.00376 0
M  V30 213 C 20.4453 -1.05746 -1.77486 0
M  V30 214 C 20.8533 0.395655 -1.85017 0
M  V30 215 O 20.1963 1.28626 -1.31152 0
M  V30 216 C 20.2583 -1.58092 -3.22873 0
M  V30 217 C 19.9223 -3.06568 -3.38917 0
M  V30 218 C 20.9193 -4.04106 -3.271 0
M  V30 219 C 18.6043 -3.45799 -3.64319 0
M  V30 220 C 20.5983 -5.38862 -3.40451 0
M  V30 221 C 18.2853 -4.80707 -3.77311 0
M  V30 222 C 19.2833 -5.77047 -3.65384 0
M  V30 223 O 18.9713 -7.09507 -3.77961 0
M  V30 224 H 18.7033 -0.371778 -0.564586 0
M  V30 225 H 21.2573 -1.61319 -1.27143 0
M  V30 226 H 19.4873 -0.969163 -3.74358 0
M  V30 227 H 21.1763 -1.38162 -3.81662 0
M  V30 228 H 21.9423 -3.75141 -3.07399 0
M  V30 229 H 17.8213 -2.71344 -3.72684 0
M  V30 230 H 21.3653 -6.14041 -3.31058 0
M  V30 231 H 17.2623 -5.09357 -3.96517 0
M  V30 232 H 18.0303 -7.16935 -3.94901 0
M  V30 233 N 20.6934 1.19889 -1.02296 0
M  V30 234 C 21.6234 2.25141 -0.619174 0
M  V30 235 C 22.6044 1.66051 0.368915 0
M  V30 236 O 23.7894 1.92546 0.252941 0
M  V30 237 C 20.9194 3.4728 0.0368783 0
M  V30 238 C 19.8734 4.19005 -0.872865 0
M  V30 239 C 19.1994 5.34637 -0.0822402 0
M  V30 240 C 20.4994 4.74452 -2.18387 0
M  V30 241 H 22.1934 2.59171 -1.49903 0
M  V30 242 H 19.7394 1.24579 -0.722222 0
M  V30 243 H 21.6924 4.20098 0.330958 0
M  V30 244 H 20.4164 3.12433 0.95149 0
M  V30 245 H 19.0754 3.48061 -1.15105 0
M  V30 246 H 18.7234 4.96034 0.83422 0
M  V30 247 H 18.4234 5.83557 -0.688149 0
M  V30 248 H 19.9474 6.10255 0.205238 0
M  V30 249 H 21.3614 5.39055 -1.95172 0
M  V30 250 H 19.7584 5.33834 -2.74119 0
M  V30 251 H 20.8284 3.92844 -2.84257 0
M  V30 252 N 22.1715 0.800033 1.35784 0
M  V30 253 C 23.5875 0.482977 1.52117 0
M  V30 254 C 23.7875 -0.996948 1.75109 0
M  V30 255 O 22.8435 -1.78216 1.78872 0
M  V30 256 C 24.1565 1.32264 2.70049 0
M  V30 257 C 25.7045 1.31742 2.83924 0
M  V30 258 C 26.1795 2.14106 4.04874 0
M  V30 259 N 27.6705 2.11607 4.12039 0
M  V30 260 C 28.4055 2.72099 5.04727 0
M  V30 261 N 27.9015 3.41492 6.02789 0
M  V30 262 N 29.6945 2.61776 4.97423 0
M  V30 263 H 21.8455 1.75856 1.19115 0
M  V30 264 H 24.1085 0.748122 0.582252 0
M  V30 265 H 23.8145 2.37261 2.59616 0
M  V30 266 H 23.6885 0.971303 3.6448 0
M  V30 267 H 26.0755 0.275333 2.93813 0
M  V30 268 H 26.1565 1.70859 1.9037 0
M  V30 269 H 25.8005 3.18351 3.95746 0
M  V30 270 H 25.7305 1.72353 4.97596 0
M  V30 271 H 28.2215 1.61112 3.41835 0
M  V30 272 H 28.5345 3.84953 6.70098 0
M  V30 273 H 26.8795 3.45596 6.02983 0
M  V30 274 H 30.0705 2.07157 4.19766 0
M  V30 275 H 30.2435 3.0921 5.69468 0
M  V30 276 N 23.6496 -1.47581 0.552962 0
M  V30 277 C 24.5796 -2.32762 -0.185451 0
M  V30 278 C 25.5606 -1.43527 -0.912905 0
M  V30 279 O 26.7456 -1.72388 -0.894201 0
M  V30 280 C 23.8756 -3.25219 -1.21859 0
M  V30 281 C 22.8296 -4.23661 -0.607864 0
M  V30 282 C 22.1556 -5.05413 -1.74533 0
M  V30 283 C 23.4556 -5.20481 0.435582 0
M  V30 284 H 25.1496 -2.94749 0.525684 0
M  V30 285 H 22.6956 -1.41738 0.254251 0
M  V30 286 H 24.6486 -3.8365 -1.7433 0
M  V30 287 H 23.3726 -2.61279 -1.95961 0
M  V30 288 H 22.0316 -3.66451 -0.104489 0
M  V30 289 H 21.6796 -4.3788 -2.47529 0
M  V30 290 H 21.3796 -5.72059 -1.34249 0
M  V30 291 H 22.9036 -5.66701 -2.27338 0
M  V30 292 H 24.3176 -5.733 -0.00290157 0
M  V30 293 H 22.7146 -5.95305 0.757067 0
M  V30 294 H 23.7846 -4.66217 1.33303 0
M  V30 295 N 25.1277 -0.289203 -1.54924 0
M  V30 296 C 26.3737 0.323998 -2.00195 0
M  V30 297 C 26.7067 1.54441 -1.17735 0
M  V30 298 O 25.9817 1.92875 -0.250878 0
M  V30 299 C 26.2647 0.692276 -3.53383 0
M  V30 300 C 26.1177 -0.536457 -4.46589 0
M  V30 301 C 27.4367 1.52335 -4.12895 0
M  V30 302 H 24.5557 0.116289 -0.727768 0
M  V30 303 H 27.1977 -0.398954 -1.85764 0
M  V30 304 H 25.3477 1.30822 -3.65811 0
M  V30 305 H 27.0197 -1.17499 -4.46085 0
M  V30 306 H 25.2627 -1.17192 -4.1767 0
M  V30 307 H 25.9337 -0.234806 -5.515 0
M  V30 308 H 28.4097 1.00302 -4.0383 0
M  V30 309 H 27.2857 1.74982 -5.20262 0
M  V30 310 H 27.5467 2.50886 -3.64018 0
M  V30 311 N 26.6058 1.57591 -0.0167156 0
M  V30 312 C 27.8308 1.9598 0.67872 0
M  V30 313 C 28.2558 0.892546 1.65575 0
M  V30 314 O 27.6138 -0.147772 1.80697 0
M  V30 315 C 27.6618 3.33468 1.37227 0
M  V30 316 O 26.7658 3.28954 2.48722 0
M  V30 317 H 26.1068 0.639339 0.17928 0
M  V30 318 H 28.6368 2.04463 -0.0748802 0
M  V30 319 H 28.6468 3.69417 1.7319 0
M  V30 320 H 27.3218 4.10694 0.656007 0
M  V30 321 H 25.8988 3.04705 2.14963 0
M  V30 322 N 28.0839 -0.256276 1.55502 0
M  V30 323 C 29.0469 -1.30047 1.88734 0
M  V30 324 C 30.0469 -1.4154 0.763086 0
M  V30 325 O 31.2369 -1.40403 1.03115 0
M  V30 326 C 28.3689 -2.67953 2.10747 0
M  V30 327 H 29.5619 -1.01802 2.82093 0
M  V30 328 H 27.1149 -0.495134 1.4825 0
M  V30 329 H 27.8499 -3.01351 1.19825 0
M  V30 330 H 27.6349 -2.60993 2.92617 0
M  V30 331 H 29.1249 -3.43368 2.37673 0
M  V30 332 N 29.562 -1.4872 -0.521534 0
M  V30 333 C 30.472 -1.66569 -1.65203 0
M  V30 334 C 31.488 -0.548197 -1.65139 0
M  V30 335 O 32.664 -0.820339 -1.83936 0
M  V30 336 C 29.729 -1.70917 -3.01642 0
M  V30 337 C 28.79 -2.94356 -3.12495 0
M  V30 338 C 28.023 -2.98487 -4.42426 0
M  V30 339 O 28.246 -2.10786 -5.30024 0
M  V30 340 O 27.18 -3.90746 -4.57822 0
M  V30 341 H 31.006 -2.62298 -1.5308 0
M  V30 342 H 28.591 -1.3222 -0.695565 0
M  V30 343 H 30.473 -1.7625 -3.82771 0
M  V30 344 H 29.148 -0.783633 -3.14071 0
M  V30 345 H 28.055 -2.94552 -2.3063 0
M  V30 346 H 29.388 -3.86322 -3.04986 0
M  V30 347 N 31.0401 0.771051 -1.3745 0
M  V30 348 C 32.2881 1.52661 -1.32435 0
M  V30 349 C 32.6091 1.9479 0.0905024 0
M  V30 350 O 31.8791 1.66348 1.03466 0
M  V30 351 H 30.4591 0.566218 -0.487244 0
M  V30 352 H 33.1211 0.917636 -1.71946 0
M  V30 353 H 32.2171 2.42568 -1.96385 0
M  V30 354 N 32.5182 1.22032 0.997298 0
M  V30 355 C 33.7952 0.950823 1.70935 0
M  V30 356 C 34.1752 -0.535292 2.042 0
M  V30 357 O 33.5232 -1.50217 1.72183 0
M  V30 358 C 33.7332 1.84386 2.96315 0
M  V30 359 C 35.0812 2.09732 3.69185 0
M  V30 360 O 36.1052 1.81798 3.06314 0
M  V30 361 O 34.9642 2.57018 4.82291 0
M  V30 362 H 32.0582 0.357204 0.745878 0
M  V30 363 H 34.6042 1.32997 1.05404 0
M  V30 364 H 33.3762 2.84928 2.68201 0
M  V30 365 H 32.9992 1.46602 3.69586 0
M  V30 366 N 33.9963 -1.19345 1.0293 0
M  V30 367 C 35.4073 -1.70725 0.755633 0
M  V30 368 C 35.7583 -1.82326 -0.724676 0
M  V30 369 O 34.8833 -1.49471 -1.56484 0
M  V30 370 C 35.4783 -3.10084 1.36503 0
M  V30 371 C 34.0373 -3.58723 1.13994 0
M  V30 372 C 33.1843 -2.35577 1.46283 0
M  V30 373 H 36.1353 -1.0418 1.19718 0
M  V30 374 H 36.1563 -3.72787 0.762217 0
M  V30 375 H 35.6683 -3.01609 2.44241 0
M  V30 376 H 33.7693 -3.72512 0.0807901 0
M  V30 377 H 33.8823 -4.42816 1.82894 0
M  V30 378 H 32.2463 -2.38935 0.88217 0
M  V30 379 H 33.0293 -2.29731 2.55105 0
M  V30 380 N 35.4744 -0.807222 -1.35358 0
M  V30 381 C 36.7234 -0.384376 -1.98004 0
M  V30 382 C 37.0364 1.0543 -1.64754 0
M  V30 383 O 38.2424 1.58029 -2.20769 0
M  V30 384 C 36.6984 -0.636326 -3.5423 0
M  V30 385 C 36.3064 -2.08759 -3.96388 0
M  V30 386 C 38.0504 -0.278869 -4.23583 0
M  V30 387 C 35.9574 -2.28525 -5.45463 0
M  V30 388 H 34.8874 -0.139986 -0.740891 0
M  V30 389 H 37.5384 -0.991369 -1.54415 0
M  V30 390 H 35.9204 0.0406256 -3.95979 0
M  V30 391 H 37.0944 -2.8024 -3.6579 0
M  V30 392 H 35.4094 -2.40497 -3.39926 0
M  V30 393 H 38.0064 -0.404599 -5.33167 0
M  V30 394 H 38.3494 0.775012 -4.09022 0
M  V30 395 H 38.8824 -0.909764 -3.87257 0
M  V30 396 H 35.6214 -3.32361 -5.64992 0
M  V30 397 H 35.1414 -1.61569 -5.77629 0
M  V30 398 H 36.8204 -2.10109 -6.11934 0
M  V30 399 N 36.9525 1.47285 -0.560781 0
M  V30 400 C 38.3635 1.86258 -0.128343 0
M  V30 401 C 38.7145 1.46699 1.30284 0
M  V30 402 O 37.8395 0.871698 1.98067 0
M  V30 403 C 38.4345 3.38044 -0.22614 0
M  V30 404 C 36.9935 3.76096 0.151283 0
M  V30 405 C 36.1405 2.71335 -0.572084 0
M  V30 406 H 39.0915 1.38752 -0.770297 0
M  V30 407 H 39.1125 3.76441 0.554322 0
M  V30 408 H 38.6245 3.66806 -1.26788 0
M  V30 409 H 36.7255 3.52951 1.19399 0
M  V30 410 H 36.8385 4.78641 -0.209765 0
M  V30 411 H 35.2025 2.54696 -0.0147653 0
M  V30 412 H 35.9855 3.02938 -1.61504 0
M  V30 413 N 38.4306 0.297415 1.54768 0
M  V30 414 C 39.3406 -0.58983 2.27064 0
M  V30 415 C 40.3566 -1.15144 1.30453 0
M  V30 416 O 41.5326 -1.17699 1.63428 0
M  V30 417 C 38.5976 -1.74714 2.9946 0
M  V30 418 C 37.6586 -1.21997 4.11601 0
M  V30 419 C 36.8916 -2.32212 4.80535 0
M  V30 420 O 37.1146 -3.52036 4.48806 0
M  V30 421 O 36.0486 -1.99106 5.68014 0
M  V30 422 H 39.8746 -0.00348199 3.037 0
M  V30 423 H 37.4596 0.0640035 1.49263 0
M  V30 424 H 39.3416 -2.42147 3.44881 0
M  V30 425 H 38.0166 -2.32016 2.25722 0
M  V30 426 H 36.9236 -0.511458 3.70587 0
M  V30 427 H 38.2566 -0.692419 4.87305 0
M  V30 428 N 39.9087 -1.5758 0.0250728 0
M  V30 429 C 40.8187 -2.1343 -0.973905 0
M  V30 430 C 41.8347 -1.08556 -1.35984 0
M  V30 431 O 43.0107 -1.40592 -1.44207 0
M  V30 432 C 40.0757 -2.64703 -2.23904 0
M  V30 433 C 39.1367 -3.84276 -1.91391 0
M  V30 434 C 38.3697 -4.33095 -3.11873 0
M  V30 435 O 38.5927 -3.81107 -4.24398 0
M  V30 436 O 37.5267 -5.24984 -2.94406 0
M  V30 437 H 41.3527 -2.99057 -0.529036 0
M  V30 438 H 38.9377 -1.48118 -0.195288 0
M  V30 439 H 40.8197 -2.97769 -2.98181 0
M  V30 440 H 39.4947 -1.82161 -2.6758 0
M  V30 441 H 38.4017 -3.56143 -1.14511 0
M  V30 442 H 39.7347 -4.67968 -1.52534 0
M  V30 443 N 41.3868 0.248026 -1.55636 0
M  V30 444 C 42.3168 1.31079 -1.93237 0
M  V30 445 C 43.2978 1.50264 -0.797174 0
M  V30 446 O 44.4828 1.62891 -1.05737 0
M  V30 447 C 41.6128 2.66575 -2.22609 0
M  V30 448 C 40.5668 2.62087 -3.3837 0
M  V30 449 C 39.8928 4.01369 -3.53281 0
M  V30 450 C 41.1928 2.19171 -4.7409 0
M  V30 451 H 42.8868 0.998556 -2.82257 0
M  V30 452 H 40.4328 0.47891 -1.35803 0
M  V30 453 H 42.3858 3.41057 -2.47503 0
M  V30 454 H 41.1098 2.99432 -1.30414 0
M  V30 455 H 39.7688 1.90063 -3.13483 0
M  V30 456 H 39.4168 4.31489 -2.58508 0
M  V30 457 H 39.1168 3.99254 -4.31127 0
M  V30 458 H 40.6408 4.77552 -3.80495 0
M  V30 459 H 42.0548 2.83384 -4.98363 0
M  V30 460 H 40.4518 2.2817 -5.5503 0
M  V30 461 H 41.5218 1.14336 -4.71227 0
M  V30 462 N 42.8649 1.48995 0.513639 0
M  V30 463 C 44.0949 1.61297 1.291 0
M  V30 464 C 44.5029 0.278656 1.87137 0
M  V30 465 O 43.8459 -0.744325 1.67945 0
M  V30 466 C 43.9079 2.61326 2.46879 0
M  V30 467 C 43.5719 4.05993 2.09807 0
M  V30 468 C 44.5689 4.93183 1.64519 0
M  V30 469 C 42.2539 4.51642 2.19829 0
M  V30 470 C 44.2479 6.24056 1.2974 0
M  V30 471 C 41.9349 5.82532 1.84662 0
M  V30 472 C 42.9329 6.68562 1.3969 0
M  V30 473 O 42.6209 7.97014 1.04992 0
M  V30 474 H 42.3529 0.546236 0.39825 0
M  V30 475 H 44.9069 1.95673 0.62459 0
M  V30 476 H 43.1369 2.22104 3.16554 0
M  V30 477 H 44.8259 2.6329 3.08923 0
M  V30 478 H 45.5919 4.59147 1.56233 0
M  V30 479 H 41.4709 3.84855 2.53786 0
M  V30 480 H 45.0149 6.91161 0.945659 0
M  V30 481 H 40.9119 6.16099 1.92594 0
M  V30 482 H 41.6799 8.09913 1.18249 0
M  V30 483 N 44.343 -0.763751 1.37857 0
M  V30 484 C 45.253 -1.90817 1.36478 0
M  V30 485 C 46.269 -1.71997 0.263248 0
M  V30 486 O 47.445 -1.95095 0.499979 0
M  V30 487 C 44.51 -3.2605 1.17864 0
M  V30 488 C 43.571 -3.57467 2.3773 0
M  V30 489 C 42.804 -4.86249 2.19995 0
M  V30 490 O 43.027 -5.57884 1.18836 0
M  V30 491 O 41.961 -5.16911 3.08361 0
M  V30 492 H 45.787 -1.94933 2.32884 0
M  V30 493 H 43.372 -0.907619 1.1867 0
M  V30 494 H 45.254 -4.06924 1.09504 0
M  V30 495 H 43.929 -3.22769 0.245372 0
M  V30 496 H 42.836 -2.76796 2.51664 0
M  V30 497 H 44.169 -3.655 3.29652 0
M  V30 498 N 45.8211 -1.22559 -0.990812 0
M  V30 499 C 46.7541 -0.940773 -2.07905 0
M  V30 500 C 47.7321 0.117082 -1.62178 0
M  V30 501 O 48.9161 -0.0149506 -1.88494 0
M  V30 502 C 46.0431 -0.415321 -3.36144 0
M  V30 503 C 45.0891 -1.45818 -4.00799 0
M  V30 504 S 45.9221 -3.03219 -4.41382 0
M  V30 505 C 47.0781 -2.52317 -5.72789 0
M  V30 506 H 47.3111 -1.8623 -2.31745 0
M  V30 507 H 44.8441 -1.05688 -1.12558 0
M  V30 508 H 46.8021 -0.118747 -4.10328 0
M  V30 509 H 45.4631 0.485121 -3.10331 0
M  V30 510 H 44.6561 -1.04044 -4.93144 0
M  V30 511 H 44.2581 -1.70356 -3.32949 0
M  V30 512 H 46.5501 -1.93688 -6.49224 0
M  V30 513 H 47.4931 -3.43161 -6.19392 0
M  V30 514 H 47.9011 -1.93529 -5.30289 0
M  V30 515 N 47.2992 1.18797 -1.03562 0
M  V30 516 C 48.2292 2.24472 -0.643019 0
M  V30 517 C 49.2102 1.66433 0.351283 0
M  V30 518 O 50.3952 1.92803 0.232505 0
M  V30 519 C 47.5252 3.473 4.24935e-05 0
M  V30 520 C 46.4792 4.18055 -0.917257 0
M  V30 521 C 45.8052 5.34519 -0.138941 0
M  V30 522 C 47.1052 4.72109 -2.23407 0
M  V30 523 H 48.7992 2.57566 -1.52643 0
M  V30 524 H 46.3452 1.23806 -0.735394 0
M  V30 525 H 48.2982 4.20426 0.286383 0
M  V30 526 H 47.0222 3.13424 0.918299 0
M  V30 527 H 45.6812 3.46821 -1.1879 0
M  V30 528 H 45.3292 4.96891 0.781562 0
M  V30 529 H 45.0292 5.82794 -0.750005 0
M  V30 530 H 46.5532 6.10438 0.1405 0
M  V30 531 H 47.9672 5.36955 -2.00879 0
M  V30 532 H 46.3642 5.30897 -2.79765 0
M  V30 533 H 47.4342 3.89807 -2.88407 0
M  V30 534 N 48.7773 0.814389 1.34928 0
M  V30 535 C 50.0023 0.410097 2.03305 0
M  V30 536 C 50.4273 -0.973464 1.60951 0
M  V30 537 O 49.7853 -1.63185 0.789964 0
M  V30 538 C 49.8333 0.51049 3.56968 0
M  V30 539 O 48.9373 -0.473035 4.09678 0
M  V30 540 H 48.2783 0.170088 0.641846 0
M  V30 541 H 50.8083 1.10244 1.72358 0
M  V30 542 H 50.8183 0.383135 4.06197 0
M  V30 543 H 49.4933 1.51963 3.87144 0
M  V30 544 H 48.0703 -0.305272 3.71648 0
M  V30 545 N 50.2554 -1.46986 0.568584 0
M  V30 546 C 51.5324 -1.95592 -0.0174074 0
M  V30 547 C 51.9124 -1.51124 -1.47393 0
M  V30 548 O 51.2604 -0.755329 -2.15655 0
M  V30 549 C 51.4704 -3.48719 0.139913 0
M  V30 550 C 52.8184 -4.246 0.000426376 0
M  V30 551 O 53.8424 -3.56135 0.0680316 0
M  V30 552 O 52.7014 -5.46302 -0.146988 0
M  V30 553 H 49.7954 -0.82498 -0.0577599 0
M  V30 554 H 52.3414 -1.57335 0.635909 0
M  V30 555 H 51.1134 -3.73927 1.15301 0
M  V30 556 H 50.7364 -3.93771 -0.550491 0
M  V30 557 N 51.7335 -0.305618 -1.54608 0
M  V30 558 C 52.6835 0.583595 -2.20405 0
M  V30 559 C 53.6675 1.09539 -1.17856 0
M  V30 560 O 54.8595 1.0354 -1.43557 0
M  V30 561 C 51.9885 1.75277 -2.95183 0
M  V30 562 C 51.0745 1.25672 -4.05052 0
M  V30 563 N 51.4655 0.478998 -5.03527 0
M  V30 564 C 49.7635 1.53704 -4.18678 0
M  V30 565 C 50.4645 0.214269 -5.81305 0
M  V30 566 N 49.4405 0.795374 -5.3775 0
M  V30 567 H 53.2425 -0.0180946 -2.93894 0
M  V30 568 H 50.7565 -0.110601 -1.62023 0
M  V30 569 H 52.7535 2.4014 -3.40791 0
M  V30 570 H 51.4135 2.35812 -2.23211 0
M  V30 571 H 52.4245 0.123473 -5.17753 0
M  V30 572 H 49.1015 2.14954 -3.57912 0
M  V30 573 H 50.4915 -0.410656 -6.70644 0
M  V30 574 N 53.2116 1.57565 -0.0334293 0
M  V30 575 C 54.4366 1.96689 0.657895 0
M  V30 576 C 54.8616 0.910057 1.64619 0
M  V30 577 O 54.2196 -0.128598 1.80843 0
M  V30 578 C 54.2676 3.34905 1.33683 0
M  V30 579 O 53.3716 3.31574 2.45219 0
M  V30 580 H 52.7126 0.641205 0.172489 0
M  V30 581 H 55.2426 2.04372 -0.0965621 0
M  V30 582 H 55.2526 3.71234 1.69262 0
M  V30 583 H 53.9276 4.11366 0.612411 0
M  V30 584 H 52.5046 3.06968 2.11719 0
M  V30 585 N 54.6897 -0.239769 1.55765 0
M  V30 586 C 55.9387 -0.964754 1.77131 0
M  V30 587 C 56.2517 -1.86213 0.59868 0
M  V30 588 O 57.4577 -2.6244 0.695522 0
M  V30 589 C 55.9137 -1.76552 3.1362 0
M  V30 590 C 55.5217 -0.915185 4.38553 0
M  V30 591 C 57.2657 -2.48281 3.44321 0
M  V30 592 C 55.1727 -1.71225 5.66071 0
M  V30 593 H 54.1027 -0.363953 0.660344 0
M  V30 594 H 56.7537 -0.219181 1.82186 0
M  V30 595 H 55.1357 -2.55331 3.02691 0
M  V30 596 H 56.3097 -0.169217 4.60489 0
M  V30 597 H 54.6247 -0.310889 4.15238 0
M  V30 598 H 57.2217 -3.08382 4.36812 0
M  V30 599 H 57.5647 -3.20256 2.65973 0
M  V30 600 H 58.0977 -1.76507 3.56497 0
M  V30 601 H 54.8367 -1.03612 6.4726 0
M  V30 602 H 54.3567 -2.43331 5.48224 0
M  V30 603 H 56.0357 -2.27758 6.05587 0
M  V30 604 N 56.1678 -1.49265 -0.50573 0
M  V30 605 C 57.5838 -1.35923 -0.836486 0
M  V30 606 C 57.7838 -0.388704 -1.97715 0
M  V30 607 O 56.8398 0.181336 -2.51848 0
M  V30 608 C 58.1528 -2.76531 -1.18115 0
M  V30 609 C 59.7008 -2.85197 -1.28964 0
M  V30 610 C 60.1758 -4.26561 -1.66761 0
M  V30 611 N 61.6668 -4.2935 -1.73819 0
M  V30 612 C 62.4018 -5.35693 -2.045 0
M  V30 613 N 61.8978 -6.52287 -2.33438 0
M  V30 614 N 63.6908 -5.23105 -2.05711 0
M  V30 615 H 55.8418 -2.10965 0.246519 0
M  V30 616 H 58.1048 -0.9468 0.0476887 0
M  V30 617 H 57.8108 -3.49226 -0.416398 0
M  V30 618 H 57.6848 -3.11599 -2.1257 0
M  V30 619 H 60.0718 -2.12742 -2.04511 0
M  V30 620 H 60.1528 -2.53718 -0.325704 0
M  V30 621 H 59.7968 -4.99541 -0.917656 0
M  V30 622 H 59.7268 -4.55502 -2.64246 0
M  V30 623 H 62.2178 -3.4526 -1.53635 0
M  V30 624 H 62.5308 -7.29158 -2.56024 0
M  V30 625 H 60.8758 -6.55521 -2.30905 0
M  V30 626 H 64.0668 -4.31026 -1.82577 0
M  V30 627 H 64.2398 -6.06078 -2.29289 0
M  V30 628 N 57.6459 0.756429 -1.3826 0
M  V30 629 C 58.8709 1.55077 -1.37717 0
M  V30 630 C 59.2959 1.88073 0.03164 0
M  V30 631 O 58.6539 1.50364 1.01293 0
M  V30 632 C 58.7019 2.8283 -2.23695 0
M  V30 633 O 57.8059 3.77862 -1.6521 0
M  V30 634 H 57.1469 0.469152 -0.469885 0
M  V30 635 H 59.6769 0.935019 -1.81985 0
M  V30 636 H 59.6869 3.31783 -2.37453 0
M  V30 637 H 58.3619 2.58144 -3.2609 0
M  V30 638 H 56.9389 3.36555 -1.60578 0
M  V30 639 N 59.124 1.23083 0.984299 0
M  V30 640 C 60.371 1.06057 1.72505 0
M  V30 641 C 60.699 -0.403105 1.90277 0
M  V30 642 O 59.954 -1.3149 1.44944 0
M  V30 643 C 60.253 1.72673 3.1292 0
M  V30 644 C 59.919 3.22586 3.15038 0
M  V30 645 C 58.581 3.63489 3.15324 0
M  V30 646 C 60.933 4.185 3.10657 0
M  V30 647 C 58.261 4.98772 3.08939 0
M  V30 648 C 60.613 5.53769 3.05814 0
M  V30 649 C 59.277 5.94041 3.04419 0
M  V30 650 H 58.547 0.388091 0.631242 0
M  V30 651 H 61.194 1.52963 1.15215 0
M  V30 652 H 59.499 1.18116 3.73572 0
M  V30 653 H 61.196 1.56982 3.68996 0
M  V30 654 H 57.786 2.90022 3.15571 0
M  V30 655 H 61.97 3.87911 3.09579 0
M  V30 656 H 57.226 5.29193 3.0621 0
M  V30 657 H 61.4 6.27808 3.0138 0
M  V30 658 H 59.027 6.98833 2.99227 0
M  V30 659 N 60.6021 -1.18246 1.0419 0
M  V30 660 C 61.8791 -1.84121 0.660208 0
M  V30 661 C 62.2591 -1.92778 -0.860221 0
M  V30 662 O 61.6071 -1.45464 -1.76217 0
M  V30 663 C 61.8171 -3.22355 1.33747 0
M  V30 664 C 63.1651 -3.98376 1.46906 0
M  V30 665 O 64.1891 -3.31799 1.29568 0
M  V30 666 O 63.0481 -5.17665 1.75171 0
M  V30 667 H 60.1421 -0.794036 0.231161 0
M  V30 668 H 62.6881 -1.25628 1.14087 0
M  V30 669 H 61.4601 -3.10964 2.37522 0
M  V30 670 H 61.0831 -3.88506 0.845515 0
M  V30 671 N 62.0802 -0.821533 -1.34494 0
M  V30 672 C 63.3572 -0.33159 -1.92769 0
M  V30 673 C 63.7372 1.18088 -1.74981 0
M  V30 674 O 63.0852 1.98733 -1.12772 0
M  V30 675 C 63.2952 -0.759398 -3.40638 0
M  V30 676 C 64.6432 -0.757433 -4.1779 0
M  V30 677 O 65.6672 -0.70189 -3.49216 0
M  V30 678 O 64.5262 -0.829361 -5.4017 0
M  V30 679 H 61.6202 -0.0902502 -0.822061 0
M  V30 680 H 64.1662 -0.906231 -1.43477 0
M  V30 681 H 62.9382 -1.8012 -3.47379 0
M  V30 682 H 62.5612 -0.160378 -3.97276 0
M  V30 683 N 63.5583 1.46682 -0.576371 0
M  V30 684 C 64.4883 2.33028 0.148397 0
M  V30 685 C 65.4693 1.44961 0.889956 0
M  V30 686 O 66.6543 1.73789 0.866662 0
M  V30 687 C 63.7843 3.27117 1.1667 0
M  V30 688 C 62.7383 4.24575 0.540386 0
M  V30 689 C 62.0643 5.08126 1.6647 0
M  V30 690 C 63.3643 5.19722 -0.518331 0
M  V30 691 H 65.0583 2.93875 -0.572509 0
M  V30 692 H 62.6043 1.41315 -0.276768 0
M  V30 693 H 64.5573 3.86374 1.68204 0
M  V30 694 H 63.2813 2.64364 1.9178 0
M  V30 695 H 61.9403 3.66571 0.0461769 0
M  V30 696 H 61.5883 4.41762 2.40531 0
M  V30 697 H 61.2883 5.74122 1.25131 0
M  V30 698 H 62.8123 5.70246 2.18293 0
M  V30 699 H 64.2263 5.73232 -0.0883058 0
M  V30 700 H 62.6233 5.94026 -0.851679 0
M  V30 701 H 63.6933 4.64037 -1.40703 0
M  V30 702 N 65.0364 0.313813 1.54444 0
M  V30 703 C 65.9684 -0.590425 2.21465 0
M  V30 704 C 66.9814 -1.08753 1.21147 0
M  V30 705 O 68.1704 -1.00278 1.4767 0
M  V30 706 C 65.2704 -1.82179 2.85769 0
M  V30 707 C 64.4434 -1.46502 4.12136 0
M  V30 708 C 63.5024 -2.55288 4.60124 0
M  V30 709 O 62.5284 -2.19842 5.25032 0
M  V30 710 N 63.7304 -3.86053 4.33525 0
M  V30 711 H 66.4954 -0.0166033 2.99695 0
M  V30 712 H 64.0564 0.136578 1.61323 0
M  V30 713 H 66.0484 -2.54328 3.14801 0
M  V30 714 H 64.6184 -2.30369 2.11303 0
M  V30 715 H 63.8384 -0.575595 3.89975 0
M  V30 716 H 65.1264 -1.20221 4.94393 0
M  V30 717 H 64.5244 -4.17654 3.81552 0
M  V30 718 H 63.0814 -4.54461 4.67235 0
M  V30 719 N 66.5145 -1.57545 0.0417849 0
M  V30 720 C 67.9305 -1.56467 -0.314704 0
M  V30 721 C 68.1305 -1.04859 -1.72066 0
M  V30 722 O 67.1865 -0.700983 -2.42575 0
M  V30 723 C 68.4995 -3.00317 -0.15174 0
M  V30 724 C 70.0475 -3.12201 -0.223553 0
M  V30 725 C 70.5225 -4.57913 -0.0892295 0
M  V30 726 N 72.0135 -4.6297 -0.145808 0
M  V30 727 C 72.7485 -5.73362 -0.0658459 0
M  V30 728 N 72.2445 -6.92769 0.0659282 0
M  V30 729 N 74.0375 -5.6197 -0.12075 0
M  V30 730 H 66.1885 -1.89416 0.961014 0
M  V30 731 H 68.4515 -0.871862 0.372237 0
M  V30 732 H 68.1575 -3.42073 0.817254 0
M  V30 733 H 68.0315 -3.65892 -0.916692 0
M  V30 734 H 70.4185 -2.70349 -1.18301 0
M  V30 735 H 70.4995 -2.49323 0.571994 0
M  V30 736 H 70.1435 -5.00448 0.866867 0
M  V30 737 H 70.0735 -5.18786 -0.903802 0
M  V30 738 H 72.5645 -3.7709 -0.247286 0
M  V30 739 H 72.8775 -7.72707 0.119905 0
M  V30 740 H 71.2225 -6.94927 0.100885 0
M  V30 741 H 74.4135 -4.67572 -0.222187 0
M  V30 742 H 74.5865 -6.47977 -0.0549735 0
M  V30 743 N 67.9926 0.231505 -1.5589 0
M  V30 744 C 68.9226 1.29022 -1.94617 0
M  V30 745 C 69.9036 1.4941 -0.813067 0
M  V30 746 O 71.0886 1.6176 -1.07459 0
M  V30 747 C 68.2186 2.64199 -2.25424 0
M  V30 748 C 67.1726 2.58484 -3.41131 0
M  V30 749 C 66.4986 3.97599 -3.57518 0
M  V30 750 C 67.7986 2.1413 -4.76388 0
M  V30 751 H 69.4926 0.968563 -2.83301 0
M  V30 752 H 67.0386 0.464479 -1.36303 0
M  V30 753 H 68.9916 3.38413 -2.51107 0
M  V30 754 H 67.7156 2.98032 -1.33583 0
M  V30 755 H 66.3746 1.86727 -3.15481 0
M  V30 756 H 66.0226 4.28723 -2.6307 0
M  V30 757 H 65.7226 3.94659 -4.35337 0
M  V30 758 H 67.2466 4.7349 -3.85538 0
M  V30 759 H 68.6606 2.78083 -5.01341 0
M  V30 760 H 67.0576 2.2227 -5.57419 0
M  V30 761 H 68.1276 1.09331 -4.72414 0
M  V30 762 N 69.4707 1.49531 0.497807 0
M  V30 763 C 70.4007 1.6935 1.60757 0
M  V30 764 C 71.3817 0.542218 1.61227 0
M  V30 765 O 72.5667 0.778417 1.77917 0
M  V30 766 C 69.6967 1.76298 2.99226 0
M  V30 767 C 68.6507 2.91248 3.13622 0
M  V30 768 C 67.9767 2.83312 4.53474 0
M  V30 769 C 69.2767 4.3214 2.93346 0
M  V30 770 H 70.9707 2.62263 1.44425 0
M  V30 771 H 68.5167 1.26208 0.693367 0
M  V30 772 H 70.4697 1.88749 3.76765 0
M  V30 773 H 69.1937 0.799871 3.16654 0
M  V30 774 H 67.8527 2.78404 2.38509 0
M  V30 775 H 67.5007 1.84902 4.67782 0
M  V30 776 H 67.2007 3.60465 4.64046 0
M  V30 777 H 68.7247 2.97775 5.33069 0
M  V30 778 H 70.1387 4.45649 3.60652 0
M  V30 779 H 68.5357 5.1054 3.15387 0
M  V30 780 H 69.6057 4.46363 1.89441 0
M  V30 781 N 70.9488 -0.749086 1.3866 0
M  V30 782 C 71.8988 -1.85368 1.32751 0
M  V30 783 C 72.8828 -1.59511 0.210945 0
M  V30 784 O 74.0748 -1.71255 0.447299 0
M  V30 785 C 71.2038 -3.23131 1.15935 0
M  V30 786 C 70.2898 -3.54864 2.32233 0
M  V30 787 N 70.6808 -3.57625 3.57684 0
M  V30 788 C 68.9788 -3.85154 2.24883 0
M  V30 789 C 69.6798 -3.86753 4.34508 0
M  V30 790 N 68.6558 -4.03812 3.63918 0
M  V30 791 H 72.4578 -1.85787 2.27729 0
M  V30 792 H 69.9718 -0.946658 1.31955 0
M  V30 793 H 71.9688 -4.02185 1.09786 0
M  V30 794 H 70.6288 -3.23961 0.218947 0
M  V30 795 H 71.6398 -3.39276 3.91295 0
M  V30 796 H 68.3168 -3.93672 1.39027 0
M  V30 797 H 69.7068 -3.95474 5.43185 0
M  V30 798 N 72.4269 -1.23603 -0.977757 0
M  V30 799 C 73.6749 -1.06759 -1.71601 0
M  V30 800 C 73.9959 0.395929 -1.90938 0
M  V30 801 O 73.2659 1.28356 -1.47992 0
M  V30 802 H 71.8459 -0.392062 -0.635843 0
M  V30 803 H 74.5079 -1.55362 -1.1768 0
M  V30 804 H 73.6039 -1.55763 -2.70452 0
M  V30 805 N 73.905 1.17692 -1.04816 0
M  V30 806 C 75.182 1.83768 -0.669963 0
M  V30 807 C 75.562 1.93232 0.849986 0
M  V30 808 O 74.91 1.46397 1.75443 0
M  V30 809 C 75.12 3.21641 -1.35455 0
M  V30 810 C 76.468 3.97592 -1.49017 0
M  V30 811 O 77.492 3.31107 -1.31326 0
M  V30 812 O 76.351 5.16729 -1.77914 0
M  V30 813 H 73.445 0.792799 -0.235368 0
M  V30 814 H 75.991 1.25021 -1.14751 0
M  V30 815 H 74.763 3.097 -2.39168 0
M  V30 816 H 74.386 3.88052 -0.866107 0
M  V30 817 N 75.3831 0.828654 1.34056 0
M  V30 818 C 76.7941 0.477534 1.8049 0
M  V30 819 C 77.1451 -1.00258 1.6865 0
M  V30 820 O 76.2701 -1.78057 1.22982 0
M  V30 821 C 76.8651 0.860018 3.27703 0
M  V30 822 C 75.4241 0.561185 3.72193 0
M  V30 823 C 74.5711 1.07385 2.55663 0
M  V30 824 H 77.5221 1.0183 1.21722 0
M  V30 825 H 77.5431 0.166038 3.80138 0
M  V30 826 H 77.0551 1.93731 3.36288 0
M  V30 827 H 75.1561 -0.506465 3.69142 0
M  V30 828 H 75.2691 1.10926 4.66082 0
M  V30 829 H 73.6331 0.495149 2.49841 0
M  V30 830 H 74.4161 2.15771 2.67016 0
M  V30 831 N 76.8612 -1.46375 0.584142 0
M  V30 832 C 78.1092 -2.01978 0.0701287 0
M  V30 833 C 78.4302 -1.4579 -1.295 0
M  V30 834 O 77.7002 -0.64314 -1.85042 0
M  V30 835 H 76.2802 -0.746648 0.0229345 0
M  V30 836 H 78.9422 -1.79461 0.760245 0
M  V30 837 H 78.0382 -3.121 0.0022064 0
M  V30 838 N 78.3393 -0.321999 -1.54275 0
M  V30 839 C 79.2493 0.553631 -2.27974 0
M  V30 840 C 80.2653 1.13054 -1.32268 0
M  V30 841 O 81.4413 1.15084 -1.6528 0
M  V30 842 C 78.5063 1.69927 -3.02201 0
M  V30 843 C 77.5673 1.15433 -4.1349 0
M  V30 844 C 76.8003 2.24537 -4.84168 0
M  V30 845 O 77.0233 3.44852 -4.5435 0
M  V30 846 O 75.9573 1.90044 -5.7111 0
M  V30 847 H 79.7833 -0.0448345 -3.03667 0
M  V30 848 H 77.3683 -0.0877418 -1.49142 0
M  V30 849 H 79.2503 2.3663 -3.48689 0
M  V30 850 H 77.9253 2.28395 -2.29385 0
M  V30 851 H 76.8323 0.452436 -3.71354 0
M  V30 852 H 78.1653 0.614805 -4.88345 0
M  V30 853 N 79.8174 1.5752 -0.0501392 0
M  V30 854 C 80.7274 2.14952 0.939827 0
M  V30 855 C 81.7434 1.10706 1.34239 0
M  V30 856 O 82.9194 1.42869 1.41952 0
M  V30 857 C 79.9844 2.68232 2.19665 0
M  V30 858 C 79.0454 3.87272 1.85253 0
M  V30 859 C 78.2784 4.38002 3.04943 0
M  V30 860 O 78.5014 3.87811 4.18281 0
M  V30 861 O 77.4354 5.29602 2.86017 0
M  V30 862 H 81.2614 2.9986 0.481392 0
M  V30 863 H 78.8464 1.4841 0.171699 0
M  V30 864 H 80.7284 3.02475 2.93406 0
M  V30 865 H 79.4034 1.86395 2.64648 0
M  V30 866 H 78.3104 3.5792 1.0883 0
M  V30 867 H 79.6434 4.70336 1.4507 0
M  V30 868 N 81.2955 -0.223234 1.56011 0
M  V30 869 C 82.5725 -0.972108 1.69733 0
M  V30 870 C 82.9525 -2.02485 0.59691 0
M  V30 871 O 82.3005 -2.25037 -0.396324 0
M  V30 872 C 82.5105 -1.58407 3.10979 0
M  V30 873 C 83.8585 -2.07696 3.70334 0
M  V30 874 O 84.8825 -1.68304 3.1393 0
M  V30 875 O 83.7415 -2.80096 4.69264 0
M  V30 876 H 80.8355 -0.453993 0.691245 0
M  V30 877 H 83.3815 -0.215149 1.68331 0
M  V30 878 H 82.1535 -0.823831 3.82529 0
M  V30 879 H 81.7765 -2.40661 3.16493 0
M  V30 880 N 82.7736 -1.49793 -0.48987 0
M  V30 881 C 84.0216 -1.59525 -1.24081 0
M  V30 882 C 84.3426 -0.288953 -1.92847 0
M  V30 883 O 83.6126 0.692436 -1.83254 0
M  V30 884 H 82.1926 -0.587796 -0.460983 0
M  V30 885 H 84.8546 -1.86477 -0.566778 0
M  V30 886 H 83.9506 -2.39696 -1.99881 0
M  V30 887 N 84.2517 0.741722 -1.39055 0
M  V30 888 C 85.2147 1.83733 -1.37021 0
M  V30 889 C 86.2147 1.58542 -0.268534 0
M  V30 890 O 87.4047 1.66067 -0.526076 0
M  V30 891 C 84.5367 3.2141 -1.13617 0
M  V30 892 H 85.7297 1.86941 -2.34506 0
M  V30 893 H 83.2827 0.944676 -1.24521 0
M  V30 894 H 84.0177 3.23865 -0.167863 0
M  V30 895 H 83.8027 3.4109 -1.93391 0
M  V30 896 H 85.2927 4.01477 -1.14918 0
M  V30 897 N 85.7298 1.2412 0.971189 0
M  V30 898 C 86.6398 1.04747 2.09917 0
M  V30 899 C 87.6558 -0.0107162 1.73997 0
M  V30 900 O 88.8318 0.186714 2.00533 0
M  V30 901 C 85.8968 0.650828 3.40537 0
M  V30 902 C 84.9578 1.7851 3.90426 0
M  V30 903 C 84.1908 1.40729 5.14812 0
M  V30 904 O 84.4138 0.29557 5.69634 0
M  V30 905 O 83.3478 2.23168 5.58999 0
M  V30 906 H 87.1738 1.99304 2.29154 0
M  V30 907 H 84.7588 1.02908 1.08307 0
M  V30 908 H 86.6408 0.440992 4.19086 0
M  V30 909 H 85.3158 -0.265649 3.22608 0
M  V30 910 H 84.2228 2.04966 3.12953 0
M  V30 911 H 85.5558 2.68023 4.12825 0
M  V30 912 N 87.2079 -1.17134 1.05439 0
M  V30 913 C 88.1379 -2.2342 0.678649 0
M  V30 914 C 89.1189 -1.66971 -0.32476 0
M  V30 915 O 90.3039 -1.93149 -0.201802 0
M  V30 916 C 87.4339 -3.47256 0.0552099 0
M  V30 917 C 86.3879 -4.16543 0.98365 0
M  V30 918 C 85.7139 -5.34231 0.223961 0
M  V30 919 C 87.0139 -4.68495 2.3089 0
M  V30 920 H 88.7079 -2.55105 1.56722 0
M  V30 921 H 86.2539 -1.2262 0.754998 0
M  V30 922 H 88.2069 -4.20828 -0.21946 0
M  V30 923 H 86.9309 -3.14846 -0.868319 0
M  V30 924 H 85.5899 -3.44887 1.24293 0
M  V30 925 H 85.2379 -4.98071 -0.702412 0
M  V30 926 H 84.9379 -5.81527 0.842627 0
M  V30 927 H 86.4619 -6.10585 -0.0433671 0
M  V30 928 H 87.8759 -5.33691 2.09396 0
M  V30 929 H 86.2729 -5.26379 2.88176 0
M  V30 930 H 87.3429 -3.85169 2.94572 0
M  V30 931 N 88.686 -0.835752 -1.33615 0
M  V30 932 C 89.963 -0.352017 -1.92406 0
M  V30 933 C 90.343 1.16225 -1.76224 0
M  V30 934 O 89.691 1.97526 -1.14873 0
M  V30 935 C 89.901 -0.795485 -3.39813 0
M  V30 936 C 91.249 -0.801703 -4.16963 0
M  V30 937 O 92.273 -0.738889 -3.48452 0
M  V30 938 O 91.132 -0.886607 -5.3926 0
M  V30 939 H 88.226 -0.0989641 -0.821057 0
M  V30 940 H 90.772 -0.921397 -1.42507 0
M  V30 941 H 89.544 -1.83795 -3.45449 0
M  V30 942 H 89.167 -0.202505 -3.97084 0
M  V30 943 N 90.1641 1.46063 -0.591896 0
M  V30 944 C 91.0941 2.33172 0.123673 0
M  V30 945 C 92.0751 1.45897 0.87453 0
M  V30 946 O 93.2601 1.74698 0.848181 0
M  V30 947 C 90.3901 3.28336 1.13194 0
M  V30 948 C 89.3441 4.25124 0.495324 0
M  V30 949 C 88.6701 5.09863 1.61071 0
M  V30 950 C 89.9701 5.19143 -0.573425 0
M  V30 951 H 91.6641 2.93252 -0.603646 0
M  V30 952 H 89.2101 1.41014 -0.291741 0
M  V30 953 H 91.1631 3.88137 1.64097 0
M  V30 954 H 89.8871 2.66383 1.88965 0
M  V30 955 H 88.5461 3.66599 0.00729452 0
M  V30 956 H 88.1941 4.44288 2.35832 0
M  V30 957 H 87.8941 5.75417 1.19035 0
M  V30 958 H 89.4181 5.72529 2.12233 0
M  V30 959 H 90.8321 5.73106 -0.1491 0
M  V30 960 H 89.2291 5.93089 -0.914636 0
M  V30 961 H 90.2991 4.62519 -1.45617 0
M  V30 962 N 91.6422 0.330177 1.54103 0
M  V30 963 C 92.5902 -0.548226 2.26047 0
M  V30 964 C 93.5842 -1.11309 1.27698 0
M  V30 965 O 94.7902 -1.06036 1.45452 0
M  V30 966 H 91.1652 -0.195456 0.726155 0
M  V30 967 H 93.1362 0.0807567 2.98291 0
M  V30 968 C 91.8852 -1.69415 3.03634 0
M  V30 969 H 91.2082 -1.26876 3.79134 0
M  V30 970 H 92.6482 -2.28423 3.5721 0
M  V30 971 C 91.1072 -2.61569 2.12328 0
M  V30 972 O 91.6372 -3.63462 1.7105 0
M  V30 973 N 89.8432 -2.29952 1.77681 0
M  V30 974 H 89.3902 -1.47134 2.11446 0
M  V30 975 H 89.3482 -2.91871 1.16869 0
M  V30 976 N 93.1203 -1.57491 0.0584922 0
M  V30 977 C 94.0533 -2.07533 -0.948969 0
M  V30 978 C 95.0313 -0.977444 -1.29942 0
M  V30 979 O 96.2153 -1.2499 -1.41102 0
M  V30 980 C 93.3423 -2.52192 -2.2609 0
M  V30 981 C 92.3883 -3.73287 -2.06298 0
M  V30 982 S 93.2213 -5.18603 -1.33459 0
M  V30 983 C 94.3773 -5.66583 -2.65959 0
M  V30 984 H 94.6103 -2.92662 -0.523118 0
M  V30 985 H 92.1433 -1.53631 -0.153954 0
M  V30 986 H 94.1013 -2.78585 -3.01498 0
M  V30 987 H 92.7623 -1.67356 -2.65802 0
M  V30 988 H 91.9553 -4.0248 -3.03357 0
M  V30 989 H 91.5573 -3.47199 -1.39029 0
M  V30 990 H 93.8493 -5.72616 -3.62101 0
M  V30 991 H 94.7923 -6.65684 -2.41393 0
M  V30 992 H 95.2003 -4.94342 -2.72554 0
M  V30 993 N 94.5984 0.214957 -1.56127 0
M  V30 994 C 95.8264 0.955092 -1.83536 0
M  V30 995 C 96.2414 1.77677 -0.638472 0
M  V30 996 O 95.5984 1.78219 0.392968 0
M  V30 997 C 95.6494 1.86734 -3.09536 0
M  V30 998 O 95.3704 1.07887 -4.24608 0
M  V30 999 C 96.8714 2.72082 -3.4998 0
M  V30 1000 H 94.0914 0.279611 -0.609966 0
M  V30 1001 H 96.6354 0.228197 -2.03223 0
M  V30 1002 H 94.7904 2.5481 -2.91806 0
M  V30 1003 H 95.2044 1.69872 -4.9623 0
M  V30 1004 H 96.6784 3.31782 -4.41163 0
M  V30 1005 H 97.1554 3.44806 -2.7204 0
M  V30 1006 H 97.7614 2.09409 -3.70173 0
M  V30 1007 N 96.0765 1.50051 0.48192 0
M  V30 1008 C 97.4925 1.37237 0.814756 0
M  V30 1009 C 97.6925 0.420109 1.97072 0
M  V30 1010 O 96.7485 -0.141246 2.52105 0
M  V30 1011 C 98.0615 2.78375 1.13701 0
M  V30 1012 C 99.6095 2.87213 1.2441 0
M  V30 1013 C 100.084 4.29161 1.59954 0
M  V30 1014 N 101.575 4.32061 1.66967 0
M  V30 1015 C 102.31 5.38879 1.95952 0
M  V30 1016 N 101.806 6.55918 2.23031 0
M  V30 1017 N 103.599 5.26312 1.97363 0
M  V30 1018 H 95.7505 2.10546 -0.28005 0
M  V30 1019 H 98.0135 0.945921 -0.0627454 0
M  V30 1020 H 97.7195 3.49845 0.360787 0
M  V30 1021 H 97.5935 3.14941 2.07586 0
M  V30 1022 H 99.9805 2.15969 2.01101 0
M  V30 1023 H 100.061 2.54204 0.285299 0
M  V30 1024 H 99.7055 5.00938 0.838067 0
M  V30 1025 H 99.6355 4.59648 2.56966 0
M  V30 1026 H 102.126 3.47661 1.48123 0
M  V30 1027 H 102.439 7.33139 2.44391 0
M  V30 1028 H 100.784 6.59112 2.20447 0
M  V30 1029 H 103.975 4.33876 1.75697 0
M  V30 1030 H 104.148 6.09649 2.19618 0
M  V30 1031 N 97.5546 -0.734337 1.39446 0
M  V30 1032 C 98.7796 -1.52866 1.40167 0
M  V30 1033 C 99.2046 -1.881 -0.00171513 0
M  V30 1034 O 98.5626 -1.51957 -0.988879 0
M  V30 1035 C 98.6106 -2.79235 2.28167 0
M  V30 1036 O 97.7146 -3.75185 1.71201 0
M  V30 1037 H 97.0556 -0.461618 0.477289 0
M  V30 1038 H 99.5856 -0.905949 1.8345 0
M  V30 1039 H 99.5956 -3.27963 2.42702 0
M  V30 1040 H 98.2706 -2.52923 3.30156 0
M  V30 1041 H 96.8476 -3.33958 1.65912 0
M  V30 1042 N 99.0327 -1.24633 -0.964593 0
M  V30 1043 C 99.9827 -1.00841 -2.04487 0
M  V30 1044 C 100.967 0.0512468 -1.60818 0
M  V30 1045 O 102.159 -0.162865 -1.76249 0
M  V30 1046 C 99.2877 -0.618474 -3.37683 0
M  V30 1047 C 98.3737 -1.71437 -3.87905 0
M  V30 1048 N 98.7647 -2.9477 -4.11029 0
M  V30 1049 C 97.0627 -1.5926 -4.16596 0
M  V30 1050 C 97.7637 -3.65834 -4.52261 0
M  V30 1051 N 96.7397 -2.9341 -4.57615 0
M  V30 1052 H 100.542 -1.94487 -2.20345 0
M  V30 1053 H 98.0557 -1.14805 -1.14863 0
M  V30 1054 H 100.053 -0.429247 -4.14684 0
M  V30 1055 H 98.7127 0.310766 -3.23209 0
M  V30 1056 H 99.7237 -3.30917 -3.9839 0
M  V30 1057 H 96.4007 -0.731606 -4.1104 0
M  V30 1058 H 97.7907 -4.71646 -4.78539 0
M  V30 1059 N 100.511 1.16574 -1.06058 0
M  V30 1060 C 101.736 1.91493 -0.796562 0
M  V30 1061 C 102.161 1.76773 0.642868 0
M  V30 1062 O 101.519 1.09142 1.44768 0
M  V30 1063 C 101.567 3.40293 -1.19303 0
M  V30 1064 O 100.671 4.11074 -0.330394 0
M  V30 1065 H 100.012 0.596678 -0.291326 0
M  V30 1066 H 102.542 1.47708 -1.41575 0
M  V30 1067 H 102.552 3.91057 -1.16356 0
M  V30 1068 H 101.227 3.50326 -2.24153 0
M  V30 1069 H 99.8038 3.70513 -0.421225 0
M  V30 1070 N 101.989 0.842826 1.3317 0
M  V30 1071 C 103.237 0.439577 1.97262 0
M  V30 1072 C 103.558 -1.00548 1.67078 0
M  V30 1073 O 102.828 -1.70098 0.971779 0
M  V30 1074 H 101.408 0.159558 0.72976 0
M  V30 1075 H 104.07 1.07665 1.62463 0
M  V30 1076 H 103.166 0.574886 3.0676 0
M  V30 1077 N 103.467 -1.45747 0.599634 0
M  V30 1078 C 104.715 -2.01893 0.0915472 0
M  V30 1079 C 105.036 -1.47155 -1.27946 0
M  V30 1080 O 104.306 -0.66273 -1.84349 0
M  V30 1081 H 102.886 -0.746363 0.0308524 0
M  V30 1082 H 105.548 -1.78645 0.779237 0
M  V30 1083 H 104.644 -3.1208 0.0353086 0
M  V30 1084 N 104.945 -0.338344 -1.53925 0
M  V30 1085 C 105.855 0.529421 -2.28548 0
M  V30 1086 C 106.871 1.11645 -1.3346 0
M  V30 1087 O 108.047 1.13325 -1.66492 0
M  V30 1088 C 105.112 1.66713 -3.03987 0
M  V30 1089 C 104.173 1.11041 -4.14691 0
M  V30 1090 C 103.406 2.19389 -4.86522 0
M  V30 1091 O 103.629 3.40013 -4.57982 0
M  V30 1092 O 102.563 1.83976 -5.73094 0
M  V30 1093 H 106.389 -0.0770399 -3.03602 0
M  V30 1094 H 103.974 -0.103555 -1.49041 0
M  V30 1095 H 105.856 2.32918 -3.5118 0
M  V30 1096 H 104.531 2.25949 -2.31794 0
M  V30 1097 H 103.438 0.413024 -3.71813 0
M  V30 1098 H 104.771 0.562975 -4.8897 0
M  V30 1099 N 106.423 1.57458 -0.0668435 0
M  V30 1100 C 107.353 2.15468 0.899764 0
M  V30 1101 C 108.334 1.08042 1.31381 0
M  V30 1102 O 109.519 1.36054 1.38574 0
M  V30 1103 C 106.649 2.71232 2.16911 0
M  V30 1104 C 105.603 3.83781 1.89463 0
M  V30 1105 C 104.929 4.26127 3.22986 0
M  V30 1106 C 106.229 5.08238 1.20381 0
M  V30 1107 H 107.923 2.96488 0.416529 0
M  V30 1108 H 105.469 1.4262 0.198908 0
M  V30 1109 H 107.422 3.10458 2.84945 0
M  V30 1110 H 106.146 1.87426 2.67468 0
M  V30 1111 H 104.805 3.45051 1.23836 0
M  V30 1112 H 104.453 3.39249 3.71374 0
M  V30 1113 H 104.153 5.01993 3.05413 0
M  V30 1114 H 105.677 4.67966 3.92225 0
M  V30 1115 H 107.091 5.44811 1.78475 0
M  V30 1116 H 105.488 5.89349 1.13083 0
M  V30 1117 H 106.558 4.84558 0.182153 0
M  V30 1118 N 107.901 -0.206675 1.56239 0
M  V30 1119 C 108.811 -1.27686 1.96808 0
M  V30 1120 C 109.827 -1.50455 0.874035 0
M  V30 1121 O 111.003 -1.63295 1.17884 0
M  V30 1122 C 108.068 -2.60358 2.28942 0
M  V30 1123 C 107.129 -2.45762 3.51994 0
M  V30 1124 C 106.362 -3.72108 3.82585 0
M  V30 1125 O 106.585 -4.75776 3.14631 0
M  V30 1126 O 105.519 -3.6833 4.76043 0
M  V30 1127 H 109.345 -0.962593 2.88041 0
M  V30 1128 H 106.93 -0.410746 1.43643 0
M  V30 1129 H 108.812 -3.38687 2.50737 0
M  V30 1130 H 107.487 -2.91435 1.4088 0
M  V30 1131 H 106.394 -1.65584 3.35459 0
M  V30 1132 H 107.727 -2.19621 4.40486 0
M  V30 1133 N 109.379 -1.50304 -0.473955 0
M  V30 1134 C 110.604 -1.65175 -1.25427 0
M  V30 1135 C 111.029 -0.333673 -1.85117 0
M  V30 1136 O 110.387 0.702114 -1.67153 0
M  V30 1137 C 110.435 -2.74295 -2.34082 0
M  V30 1138 O 109.539 -2.35349 -3.38651 0
M  V30 1139 H 108.88 -0.551944 -0.369126 0
M  V30 1140 H 111.41 -1.96662 -0.564364 0
M  V30 1141 H 111.42 -2.97285 -2.79438 0
M  V30 1142 H 110.095 -3.69959 -1.90008 0
M  V30 1143 H 108.672 -2.22794 -2.99027 0
M  V30 1144 N 110.857 0.726932 -1.39834 0
M  V30 1145 C 111.787 1.85405 -1.41941 0
M  V30 1146 C 112.768 1.67751 -0.281728 0
M  V30 1147 O 113.953 1.8795 -0.488717 0
M  V30 1148 C 111.083 3.23243 -1.2701 0
M  V30 1149 C 110.037 3.55549 -2.38262 0
M  V30 1150 C 109.363 4.9241 -2.08415 0
M  V30 1151 C 110.663 3.577 -3.80589 0
M  V30 1152 H 112.357 1.83899 -2.36266 0
M  V30 1153 H 109.903 0.883349 -1.13723 0
M  V30 1154 H 111.856 4.01775 -1.27103 0
M  V30 1155 H 110.58 3.25296 -0.291564 0
M  V30 1156 H 109.239 2.79351 -2.37399 0
M  V30 1157 H 108.887 4.91052 -1.0898 0
M  V30 1158 H 108.587 5.14992 -2.82943 0
M  V30 1159 H 110.111 5.73289 -2.10171 0
M  V30 1160 H 111.525 4.26293 -3.83337 0
M  V30 1161 H 109.922 3.91804 -4.54543 0
M  V30 1162 H 110.992 2.57328 -4.10987 0
M  V30 1163 N 112.336 1.25143 0.95797 0
M  V30 1164 C 113.299 1.05321 2.03569 0
M  V30 1165 C 114.299 0.007152 1.60798 0
M  V30 1166 O 115.489 0.24903 1.72411 0
M  V30 1167 C 112.621 0.598394 3.35607 0
M  V30 1168 H 113.814 2.00986 2.22586 0
M  V30 1169 H 111.367 1.07502 1.13459 0
M  V30 1170 H 112.102 -0.361014 3.22284 0
M  V30 1171 H 111.887 1.35351 3.67998 0
M  V30 1172 H 113.377 0.48104 4.1482 0
M  V30 1173 N 113.814 -1.1601 1.06675 0
M  V30 1174 C 115.23 -1.38622 0.790948 0
M  V30 1175 C 115.43 -1.92109 -0.607965 0
M  V30 1176 O 114.486 -2.12239 -1.36787 0
M  V30 1177 C 115.799 -2.36347 1.85905 0
M  V30 1178 C 117.347 -2.50023 1.88301 0
M  V30 1179 C 117.822 -3.51033 2.94176 0
M  V30 1180 N 119.313 -3.58563 2.93235 0
M  V30 1181 C 120.048 -4.36521 3.71803 0
M  V30 1182 N 119.544 -5.17869 4.602 0
M  V30 1183 N 121.337 -4.31541 3.60178 0
M  V30 1184 H 113.488 -0.796294 1.96908 0
M  V30 1185 H 115.751 -0.412597 0.853503 0
M  V30 1186 H 115.457 -2.04147 2.86386 0
M  V30 1187 H 115.331 -3.36042 1.71334 0
M  V30 1188 H 117.718 -2.81524 0.884769 0
M  V30 1189 H 117.799 -1.5035 2.06951 0
M  V30 1190 H 117.443 -3.20268 3.94196 0
M  V30 1191 H 117.373 -4.50445 2.72776 0
M  V30 1192 H 119.864 -3.00496 2.29152 0
M  V30 1193 H 120.177 -5.74578 5.16797 0
M  V30 1194 H 118.522 -5.17199 4.64253 0
M  V30 1195 H 121.713 -3.67051 2.90502 0
M  V30 1196 H 121.886 -4.9205 4.21653 0
M  V30 1197 N 115.292 -0.849877 -1.32721 0
M  V30 1198 C 116.54 -0.450032 -1.97026 0
M  V30 1199 C 116.861 0.996604 -1.67609 0
M  V30 1200 O 116.131 1.6958 -0.980786 0
M  V30 1201 H 114.711 -0.163426 -0.728904 0
M  V30 1202 H 117.373 -1.08526 -1.6189 0
M  V30 1203 H 116.469 -0.591146 -3.0645 0
M  V30 1204 N 116.77 1.45427 -0.607355 0
M  V30 1205 C 118.186 1.57283 -0.270985 0
M  V30 1206 C 118.386 1.59875 1.22647 0
M  V30 1207 O 117.442 1.52893 2.00948 0
M  V30 1208 C 118.755 2.85566 -0.941952 0
M  V30 1209 C 120.303 2.9924 -0.917849 0
M  V30 1210 C 120.778 4.30293 -1.56882 0
M  V30 1211 N 122.269 4.37051 -1.5343 0
M  V30 1212 C 123.004 5.37123 -2.00715 0
M  V30 1213 N 122.5 6.43734 -2.56084 0
M  V30 1214 N 124.293 5.28479 -1.91484 0
M  V30 1215 H 116.444 1.41988 -1.57966 0
M  V30 1216 H 118.707 0.67885 -0.661715 0
M  V30 1217 H 118.413 2.8955 -1.99633 0
M  V30 1218 H 118.287 3.74322 -0.465096 0
M  V30 1219 H 120.674 2.94822 0.127984 0
M  V30 1220 H 120.755 2.11895 -1.43297 0
M  V30 1221 H 120.399 4.35469 -2.61398 0
M  V30 1222 H 120.329 5.16454 -1.02873 0
M  V30 1223 H 122.82 3.60615 -1.12982 0
M  V30 1224 H 123.133 7.16341 -2.89958 0
M  V30 1225 H 121.478 6.44485 -2.60122 0
M  V30 1226 H 124.669 4.44098 -1.47967 0
M  V30 1227 H 124.842 6.0632 -2.28648 0
M  V30 1228 N 118.248 0.346503 1.53744 0
M  V30 1229 C 119.664 -0.00530975 1.59599 0
M  V30 1230 C 119.864 -1.48465 1.36236 0
M  V30 1231 O 118.92 -2.24376 1.15808 0
M  V30 1232 C 120.233 0.433516 2.97559 0
M  V30 1233 C 121.781 0.386111 3.10609 0
M  V30 1234 C 122.256 0.800451 4.50951 0
M  V30 1235 N 123.747 0.754753 4.5701 0
M  V30 1236 C 124.482 1.04727 5.63755 0
M  V30 1237 N 123.978 1.4081 6.7834 0
M  V30 1238 N 125.771 0.971316 5.53644 0
M  V30 1239 H 117.922 1.31009 1.67184 0
M  V30 1240 H 120.185 0.534242 0.783128 0
M  V30 1241 H 119.891 1.46509 3.19731 0
M  V30 1242 H 119.765 -0.189753 3.76722 0
M  V30 1243 H 122.152 -0.636295 2.88158 0
M  V30 1244 H 122.233 1.04462 2.33498 0
M  V30 1245 H 121.877 1.82088 4.74137 0
M  V30 1246 H 121.807 0.119386 5.26465 0
M  V30 1247 H 124.298 0.488662 3.74727 0
M  V30 1248 H 124.611 1.61607 7.55714 0
M  V30 1249 H 122.956 1.44657 6.79779 0
M  V30 1250 H 126.147 0.688748 4.63005 0
M  V30 1251 H 126.32 1.20263 6.36742 0
M  V30 1252 N 119.726 -1.57421 0.075193 0
M  V30 1253 C 120.951 -1.98364 -0.605515 0
M  V30 1254 C 121.376 -0.953383 -1.62149 0
M  V30 1255 O 120.734 0.0806053 -1.81121 0
M  V30 1256 C 120.782 -3.38332 -1.24756 0
M  V30 1257 O 119.886 -3.37959 -2.36342 0
M  V30 1258 H 119.227 -0.645553 -0.155428 0
M  V30 1259 H 121.757 -2.04044 0.150714 0
M  V30 1260 H 121.767 -3.75591 -1.5936 0
M  V30 1261 H 120.442 -4.12846 -0.503129 0
M  V30 1262 H 119.019 -3.12474 -2.03506 0
M  V30 1263 N 121.204 0.198386 -1.56346 0
M  V30 1264 C 122.134 1.24865 -1.9731 0
M  V30 1265 C 123.115 1.47651 -0.844576 0
M  V30 1266 O 124.3 1.59444 -1.10866 0
M  V30 1267 C 121.43 2.59358 -2.30977 0
M  V30 1268 C 120.384 2.5119 -3.46537 0
M  V30 1269 C 119.71 3.89926 -3.65871 0
M  V30 1270 C 121.01 2.03977 -4.80823 0
M  V30 1271 H 122.704 0.908252 -2.85291 0
M  V30 1272 H 120.25 0.435462 -1.37258 0
M  V30 1273 H 122.203 3.33011 -2.58228 0
M  V30 1274 H 120.927 2.95132 -1.39874 0
M  V30 1275 H 119.586 1.79993 -3.19371 0
M  V30 1276 H 119.234 4.23046 -2.72105 0
M  V30 1277 H 118.934 3.85336 -4.4361 0
M  V30 1278 H 120.458 4.65205 -3.95495 0
M  V30 1279 H 121.872 2.67386 -5.07127 0
M  V30 1280 H 120.269 2.10397 -5.62008 0
M  V30 1281 H 121.339 0.992861 -4.74626 0
M  V30 1282 N 122.682 1.50554 0.465978 0
M  V30 1283 C 123.93 1.61479 1.21528 0
M  V30 1284 C 124.251 0.319596 1.92363 0
M  V30 1285 O 123.521 -0.663194 1.84333 0
M  V30 1286 H 122.101 0.595055 0.451573 0
M  V30 1287 H 124.763 1.87355 0.53704 0
M  V30 1288 H 123.859 2.42846 1.96042 0
M  V30 1289 N 124.16 -0.719506 1.40217 0
M  V30 1290 C 125.385 -1.51371 1.4178 0
M  V30 1291 C 125.81 -1.88091 0.0182355 0
M  V30 1292 O 125.168 -1.52997 -0.972707 0
M  V30 1293 C 125.216 -2.768 2.31115 0
M  V30 1294 O 124.32 -3.73349 1.7517 0
M  V30 1295 H 123.661 -0.456529 0.482159 0
M  V30 1296 H 126.191 -0.88644 1.844 0
M  V30 1297 H 126.201 -3.25371 2.46167 0
M  V30 1298 H 124.876 -2.49407 3.3282 0
M  V30 1299 H 123.453 -3.32179 1.69444 0
M  V30 1300 N 125.638 -1.25649 -0.95132 0
M  V30 1301 C 126.568 -1.08808 -2.06599 0
M  V30 1302 C 127.549 0.00382547 -1.701 0
M  V30 1303 O 128.734 -0.166325 -1.93486 0
M  V30 1304 C 125.864 -0.709542 -3.39975 0
M  V30 1305 C 124.818 -1.75206 -3.90496 0
M  V30 1306 C 124.144 -1.22811 -5.20405 0
M  V30 1307 C 125.444 -3.15153 -4.16504 0
M  V30 1308 H 127.138 -2.02048 -2.20946 0
M  V30 1309 H 124.684 -0.972835 -1.06169 0
M  V30 1310 H 126.637 -0.578649 -4.17408 0
M  V30 1311 H 125.361 0.258556 -3.25575 0
M  V30 1312 H 124.02 -1.87145 -3.15234 0
M  V30 1313 H 123.668 -0.250145 -5.02378 0
M  V30 1314 H 123.368 -1.92492 -5.55176 0
M  V30 1315 H 124.892 -1.10968 -6.00432 0
M  V30 1316 H 126.306 -3.06349 -4.84586 0
M  V30 1317 H 124.703 -3.82333 -4.62538 0
M  V30 1318 H 125.773 -3.61966 -3.22658 0
M  V30 1319 N 127.117 1.15442 -1.07289 0
M  V30 1320 C 128.345 1.90096 -0.81676 0
M  V30 1321 C 128.76 1.7798 0.629966 0
M  V30 1322 O 128.117 1.1313 1.43206 0
M  V30 1323 C 128.168 3.40466 -1.21512 0
M  V30 1324 O 127.889 3.52232 -2.60508 0
M  V30 1325 C 129.39 4.32145 -0.988198 0
M  V30 1326 H 126.61 0.602495 -0.295366 0
M  V30 1327 H 129.154 1.4627 -1.42918 0
M  V30 1328 H 127.309 3.81958 -0.647039 0
M  V30 1329 H 127.723 4.45549 -2.76742 0
M  V30 1330 H 129.197 5.36072 -1.31645 0
M  V30 1331 H 129.674 4.39135 0.0755063 0
M  V30 1332 H 130.28 3.96395 -1.54115 0
M  V30 1333 N 128.595 0.856903 1.32268 0
M  V30 1334 C 129.844 0.457599 1.96441 0
M  V30 1335 C 130.157 -0.992426 1.68553 0
M  V30 1336 O 131.363 -1.49727 2.26482 0
M  V30 1337 C 129.819 0.767358 3.51624 0
M  V30 1338 C 129.427 2.23326 3.88367 0
M  V30 1339 C 131.171 0.435887 4.22256 0
M  V30 1340 C 129.078 2.48613 5.36606 0
M  V30 1341 H 128.008 0.167387 0.735185 0
M  V30 1342 H 130.659 1.048 1.5063 0
M  V30 1343 H 129.041 0.106367 3.95857 0
M  V30 1344 H 130.215 2.93623 3.55137 0
M  V30 1345 H 128.53 2.52948 3.30766 0
M  V30 1346 H 131.127 0.602202 5.31298 0
M  V30 1347 H 131.47 -0.622672 4.11617 0
M  V30 1348 H 132.003 1.05286 3.83614 0
M  V30 1349 H 128.742 3.53101 5.52268 0
M  V30 1350 H 128.262 1.82896 5.71235 0
M  V30 1351 H 129.941 2.32676 6.03714 0
M  V30 1352 N 130.073 -1.45103 0.615059 0
M  V30 1353 C 131.036 -2.29025 -0.0895485 0
M  V30 1354 C 132.036 -1.40174 -0.787906 0
M  V30 1355 O 133.226 -1.62217 -0.634933 0
M  V30 1356 C 130.358 -3.21376 -1.13711 0
M  V30 1357 H 131.551 -2.92807 0.648382 0
M  V30 1358 H 129.104 -1.51749 0.374444 0
M  V30 1359 H 129.839 -2.6241 -1.90556 0
M  V30 1360 H 129.624 -3.86834 -0.640475 0
M  V30 1361 H 131.114 -3.84459 -1.63036 0
M  V30 1362 N 131.551 -0.354651 -1.53558 0
M  V30 1363 C 132.461 0.50515 -2.29097 0
M  V30 1364 C 133.477 1.10223 -1.34636 0
M  V30 1365 O 134.653 1.11553 -1.67684 0
M  V30 1366 C 131.718 1.63479 -3.05738 0
M  V30 1367 C 130.779 1.06636 -4.15845 0
M  V30 1368 C 130.012 2.14217 -4.88822 0
M  V30 1369 O 130.235 3.35137 -4.61562 0
M  V30 1370 O 129.169 1.77887 -5.75013 0
M  V30 1371 H 132.995 -0.109237 -3.03503 0
M  V30 1372 H 130.58 -0.119357 -1.48922 0
M  V30 1373 H 132.462 2.2918 -3.5363 0
M  V30 1374 H 131.137 2.23478 -2.34178 0
M  V30 1375 H 130.044 0.373565 -3.7223 0
M  V30 1376 H 131.377 0.511081 -4.89539 0
M  V30 1377 N 133.029 1.57378 -0.0835403 0
M  V30 1378 C 134.44 1.81261 0.447358 0
M  V30 1379 C 134.791 0.998331 1.68902 0
M  V30 1380 O 133.916 0.224282 2.15235 0
M  V30 1381 C 134.511 3.28767 0.818386 0
M  V30 1382 C 133.07 3.53455 1.29409 0
M  V30 1383 C 132.217 2.75831 0.285024 0
M  V30 1384 H 135.168 1.5566 -0.309115 0
M  V30 1385 H 135.189 3.41459 1.67887 0
M  V30 1386 H 134.701 3.88006 -0.0855019 0
M  V30 1387 H 132.802 2.99534 2.21608 0
M  V30 1388 H 132.915 4.62128 1.2639 0
M  V30 1389 H 131.279 2.42947 0.764767 0
M  V30 1390 H 132.062 3.37813 -0.611341 0
M  V30 1391 N 134.507 -0.190092 1.56449 0
M  V30 1392 C 135.47 -1.21925 1.9408 0
M  V30 1393 C 136.47 -1.38176 0.822431 0
M  V30 1394 O 137.66 -1.35903 1.08977 0
M  V30 1395 C 134.792 -2.58773 2.21922 0
M  V30 1396 H 135.985 -0.897464 2.86157 0
M  V30 1397 H 133.538 -0.43181 1.50217 0
M  V30 1398 H 134.273 -2.95998 1.32499 0
M  V30 1399 H 134.058 -2.48348 3.03424 0
M  V30 1400 H 135.548 -3.32978 2.52022 0
M  V30 1401 N 135.985 -1.50799 -0.457987 0
M  V30 1402 C 136.918 -1.65273 -1.57353 0
M  V30 1403 C 137.896 -0.500578 -1.54703 0
M  V30 1404 O 139.08 -0.721781 -1.74134 0
M  V30 1405 C 136.207 -1.64737 -2.95938 0
M  V30 1406 C 135.253 -2.8567 -3.16693 0
M  V30 1407 S 136.086 -4.46791 -2.95191 0
M  V30 1408 C 137.242 -4.48968 -4.36095 0
M  V30 1409 H 137.475 -2.59633 -1.44838 0
M  V30 1410 H 135.008 -1.40225 -0.64625 0
M  V30 1411 H 136.966 -1.65112 -3.7583 0
M  V30 1412 H 135.627 -0.715899 -3.05833 0
M  V30 1413 H 134.82 -2.81637 -4.17967 0
M  V30 1414 H 134.422 -2.8293 -2.44594 0
M  V30 1415 H 136.714 -4.23337 -5.28954 0
M  V30 1416 H 137.657 -5.50664 -4.45168 0
M  V30 1417 H 138.065 -3.78522 -4.18786 0
M  V30 1418 N 137.463 0.71206 -1.40597 0
M  V30 1419 C 138.712 1.46754 -1.38369 0
M  V30 1420 C 139.025 1.95598 0.0097839 0
M  V30 1421 O 140.231 2.71059 0.154677 0
M  V30 1422 C 138.687 2.65289 -2.43207 0
M  V30 1423 C 138.295 2.23301 -3.88382 0
M  V30 1424 C 140.039 3.43008 -2.50091 0
M  V30 1425 C 137.946 3.38696 -4.84808 0
M  V30 1426 H 136.876 0.55118 -0.514506 0
M  V30 1427 H 139.527 0.774616 -1.66349 0
M  V30 1428 H 137.909 3.36769 -2.08332 0
M  V30 1429 H 139.083 1.59218 -4.32419 0
M  V30 1430 H 137.398 1.58618 -3.85006 0
M  V30 1431 H 139.995 4.28881 -3.1932 0
M  V30 1432 H 140.338 3.87065 -1.53253 0
M  V30 1433 H 140.871 2.78574 -2.83974 0
M  V30 1434 H 137.61 2.99668 -5.82992 0
M  V30 1435 H 137.13 4.01683 -4.45433 0
M  V30 1436 H 138.809 4.04712 -5.04794 0
M  V30 1437 N 138.941 1.26152 0.944643 0
M  V30 1438 C 139.904 1.07474 2.0244 0
M  V30 1439 C 140.904 0.0242064 1.60782 0
M  V30 1440 O 142.094 0.267302 1.72137 0
M  V30 1441 C 139.226 0.633956 3.34953 0
M  V30 1442 H 140.419 2.03336 2.20442 0
M  V30 1443 H 137.972 1.087 1.12312 0
M  V30 1444 H 138.707 -0.326811 3.22649 0
M  V30 1445 H 138.492 1.39247 3.66542 0
M  V30 1446 H 139.982 0.52501 4.14287 0
M  V30 1447 N 140.419 -1.14872 1.07899 0
M  V30 1448 C 141.329 -2.2341 0.715915 0
M  V30 1449 C 142.345 -1.71808 -0.275306 0
M  V30 1450 O 143.521 -2.01039 -0.120545 0
M  V30 1451 C 140.586 -3.46474 0.125168 0
M  V30 1452 C 139.647 -4.13039 1.17034 0
M  V30 1453 C 138.88 -5.30229 0.607688 0
M  V30 1454 O 139.103 -5.675 -0.574497 0
M  V30 1455 O 138.037 -5.86444 1.35526 0
M  V30 1456 H 141.863 -2.56808 1.62121 0
M  V30 1457 H 139.448 -1.22702 0.852322 0
M  V30 1458 H 141.33 -4.20917 -0.201729 0
M  V30 1459 H 140.005 -3.14811 -0.753364 0
M  V30 1460 H 138.912 -3.40493 1.54968 0
M  V30 1461 H 140.245 -4.48796 2.02097 0
M  V30 1462 N 141.898 -0.863906 -1.31812 0
M  V30 1463 C 143.138 -0.47825 -1.98726 0
M  V30 1464 C 143.502 0.950397 -1.66828 0
M  V30 1465 O 144.703 1.44109 -2.26905 0
M  V30 1466 C 142.974 -0.721134 -3.50049 0
M  V30 1467 S 144.533 -0.434432 -4.36644 0
M  V30 1468 H 141.351 -0.178773 -0.688158 0
M  V30 1469 H 143.953 -1.11862 -1.60334 0
M  V30 1470 H 142.657 -1.75981 -3.70755 0
M  V30 1471 H 142.188 -0.0675315 -3.93342 0
M  V30 1472 H 144.203 0.735786 -4.90714 0
M  V30 1473 N 143.376 1.44774 -0.622745 0
M  V30 1474 C 144.323 2.30635 0.0871679 0
M  V30 1475 C 145.293 1.42994 0.845097 0
M  V30 1476 O 146.478 1.71907 0.827812 0
M  V30 1477 C 143.618 3.28144 1.06844 0
M  V30 1478 C 142.731 4.30888 0.309809 0
M  V30 1479 C 141.866 5.15494 1.28215 0
M  V30 1480 C 140.905 6.09953 0.512198 0
M  V30 1481 N 140.042 6.87287 1.43458 0
M  V30 1482 H 144.882 2.90803 -0.650974 0
M  V30 1483 H 142.419 1.43286 -0.33281 0
M  V30 1484 H 144.377 3.83157 1.65066 0
M  V30 1485 H 143.007 2.69695 1.77382 0
M  V30 1486 H 142.059 3.78414 -0.388181 0
M  V30 1487 H 143.371 4.97955 -0.290254 0
M  V30 1488 H 142.525 5.74983 1.93596 0
M  V30 1489 H 141.264 4.48481 1.91614 0
M  V30 1490 H 140.269 5.49581 -0.155151 0
M  V30 1491 H 141.494 6.78999 -0.116958 0
M  V30 1492 H 139.44 6.2295 2.05594 0
M  V30 1493 H 139.357 7.50763 0.888335 0
M  V30 1494 H 140.625 7.51306 2.07749 0
M  V30 1495 N 144.854 0.36279 1.53368 0
M  V30 1496 C 146.082 -0.228613 2.05633 0
M  V30 1497 C 146.497 -1.42676 1.23649 0
M  V30 1498 O 145.854 -1.80394 0.27647 0
M  V30 1499 C 145.905 -0.624845 3.56059 0
M  V30 1500 O 145.626 0.525675 4.34935 0
M  V30 1501 C 147.127 -1.27493 4.24571 0
M  V30 1502 H 144.347 -0.0407183 0.669763 0
M  V30 1503 H 146.891 0.520352 1.97769 0
M  V30 1504 H 145.046 -1.32373 3.64083 0
M  V30 1505 H 145.46 0.205969 5.24095 0
M  V30 1506 H 146.934 -1.50277 5.31151 0
M  V30 1507 H 147.411 -2.23439 3.78116 0
M  V30 1508 H 148.017 -0.617558 4.20792 0
M  V30 1509 N 146.332 -1.57332 0.0918853 0
M  V30 1510 C 147.748 -1.57389 -0.264766 0
M  V30 1511 C 147.948 -1.10281 -1.68643 0
M  V30 1512 O 147.004 -0.777801 -2.40222 0
M  V30 1513 C 148.317 -3.00648 -0.0561195 0
M  V30 1514 C 149.865 -3.12754 -0.124116 0
M  V30 1515 C 150.34 -4.57965 0.0564972 0
M  V30 1516 N 151.831 -4.632 0.00155611 0
M  V30 1517 C 152.566 -5.73281 0.116598 0
M  V30 1518 N 152.062 -6.92208 0.286294 0
M  V30 1519 N 153.855 -5.6207 0.0580973 0
M  V30 1520 H 146.006 -1.86262 1.02079 0
M  V30 1521 H 148.269 -0.859579 0.399786 0
M  V30 1522 H 147.975 -3.393 0.925669 0
M  V30 1523 H 147.849 -3.68623 -0.799823 0
M  V30 1524 H 150.236 -2.73976 -1.09641 0
M  V30 1525 H 150.317 -2.47377 0.651024 0
M  V30 1526 H 149.961 -4.97436 1.02564 0
M  V30 1527 H 149.891 -5.21399 -0.738297 0
M  V30 1528 H 152.382 -3.77686 -0.127192 0
M  V30 1529 H 152.695 -7.71934 0.365676 0
M  V30 1530 H 151.04 -6.94254 0.32192 0
M  V30 1531 H 154.231 -4.68043 -0.0733204 0
M  V30 1532 H 154.404 -6.47824 0.151203 0
M  V30 1533 N 147.81 0.181792 -1.56548 0
M  V30 1534 C 149.038 0.915947 -1.85521 0
M  V30 1535 C 149.453 1.76282 -0.676016 0
M  V30 1536 O 148.81 1.79012 0.355077 0
M  V30 1537 C 148.861 1.80126 -3.13427 0
M  V30 1538 O 148.582 0.988562 -4.26801 0
M  V30 1539 C 150.083 2.64597 -3.55673 0
M  V30 1540 H 147.303 0.26661 -0.61576 0
M  V30 1541 H 149.847 0.185039 -2.03661 0
M  V30 1542 H 148.002 2.48563 -2.97145 0
M  V30 1543 H 148.416 1.59308 -4.99721 0
M  V30 1544 H 149.89 3.2235 -4.48101 0
M  V30 1545 H 150.367 3.38958 -2.79292 0
M  V30 1546 H 150.973 2.0151 -3.74532 0
M  V30 1547 N 149.288 1.51039 0.449983 0
M  V30 1548 C 150.198 1.74261 1.57067 0
M  V30 1549 C 151.214 0.626363 1.62335 0
M  V30 1550 O 152.39 0.907162 1.79812 0
M  V30 1551 C 149.455 1.85114 2.93144 0
M  V30 1552 C 148.516 3.0893 2.98095 0
M  V30 1553 C 147.749 3.19256 4.27681 0
M  V30 1554 O 147.972 2.35835 5.19363 0
M  V30 1555 O 146.906 4.12144 4.38658 0
M  V30 1556 H 150.732 2.69303 1.40391 0
M  V30 1557 H 148.317 1.35389 0.631688 0
M  V30 1558 H 150.199 1.94311 3.73926 0
M  V30 1559 H 148.874 0.932588 3.09975 0
M  V30 1560 H 147.781 3.0522 2.16314 0
M  V30 1561 H 149.114 4.00433 2.86206 0
M  V30 1562 N 150.766 -0.704594 1.40972 0
M  V30 1563 C 152.012 -1.46675 1.40051 0
M  V30 1564 C 152.345 -1.94199 0.00641102 0
M  V30 1565 O 151.62 -1.68916 -0.964235 0
M  V30 1566 C 151.903 -2.68505 2.39952 0
M  V30 1567 C 151.756 -2.26805 3.88432 0
M  V30 1568 C 153.075 -3.70686 2.37233 0
M  V30 1569 H 150.194 -0.532015 0.510028 0
M  V30 1570 H 152.836 -0.803255 1.72185 0
M  V30 1571 H 150.986 -3.25114 2.1268 0
M  V30 1572 H 152.658 -1.75592 4.26574 0
M  V30 1573 H 150.901 -1.58685 4.03734 0
M  V30 1574 H 151.572 -3.14181 4.53866 0
M  V30 1575 H 154.048 -3.23731 2.61415 0
M  V30 1576 H 152.924 -4.53553 3.09162 0
M  V30 1577 H 153.185 -4.19754 1.38777 0
M  V30 1578 N 152.244 -1.26651 -0.937939 0
M  V30 1579 C 153.491 -1.12387 -1.6845 0
M  V30 1580 C 153.819 0.332208 -1.91642 0
M  V30 1581 O 153.074 1.2602 -1.49725 0
M  V30 1582 C 153.373 -1.84168 -3.06295 0
M  V30 1583 C 153.039 -3.34056 -3.02849 0
M  V30 1584 C 151.701 -3.74942 -3.01616 0
M  V30 1585 C 154.053 -4.29741 -2.9491 0
M  V30 1586 C 151.381 -5.09894 -2.90215 0
M  V30 1587 C 153.733 -5.64738 -2.8505 0
M  V30 1588 C 152.397 -6.0493 -2.82162 0
M  V30 1589 H 151.667 -0.411252 -0.616403 0
M  V30 1590 H 154.314 -1.57134 -1.09459 0
M  V30 1591 H 152.619 -1.319 -3.6893 0
M  V30 1592 H 154.316 -1.70569 -3.62915 0
M  V30 1593 H 150.906 -3.01534 -3.0459 0
M  V30 1594 H 155.09 -3.99133 -2.94969 0
M  V30 1595 H 150.346 -5.40194 -2.86358 0
M  V30 1596 H 154.52 -6.38561 -2.77872 0
M  V30 1597 H 152.147 -7.09457 -2.73084 0
M  V30 1598 N 153.722 1.14298 -1.08507 0
M  V30 1599 C 154.632 2.23027 -0.727753 0
M  V30 1600 C 155.648 1.71952 0.26619 0
M  V30 1601 O 156.824 2.011 0.109882 0
M  V30 1602 C 153.889 3.46403 -0.143541 0
M  V30 1603 C 152.95 4.12413 -1.19223 0
M  V30 1604 C 152.183 5.29899 -0.635798 0
M  V30 1605 O 152.406 5.67796 0.544393 0
M  V30 1606 O 151.34 5.85717 -1.38634 0
M  V30 1607 H 155.166 2.55945 -1.63481 0
M  V30 1608 H 152.751 1.22248 -0.858817 0
M  V30 1609 H 154.633 4.21018 0.179404 0
M  V30 1610 H 153.308 3.15206 0.736659 0
M  V30 1611 H 152.215 3.39667 -1.56772 0
M  V30 1612 H 153.548 4.47718 -2.04474 0
M  V30 1613 N 155.201 0.870884 1.31352 0
M  V30 1614 C 156.45 0.478408 1.95944 0
M  V30 1615 C 156.763 -0.974493 1.69597 0
M  V30 1616 O 157.969 -1.47316 2.28058 0
M  V30 1617 C 156.425 0.804609 3.50791 0
M  V30 1618 C 156.033 2.27433 3.85977 0
M  V30 1619 C 157.777 0.480648 4.2177 0
M  V30 1620 C 155.684 2.5429 5.33939 0
M  V30 1621 H 154.614 0.175175 0.733369 0
M  V30 1622 H 157.265 1.06391 1.4951 0
M  V30 1623 H 155.647 0.148347 3.95722 0
M  V30 1624 H 156.821 2.97373 3.52002 0
M  V30 1625 H 155.136 2.56442 3.28065 0
M  V30 1626 H 157.733 0.658519 5.30629 0
M  V30 1627 H 158.076 -0.578979 4.12254 0
M  V30 1628 H 158.609 1.09349 3.82476 0
M  V30 1629 H 155.348 3.58939 5.48491 0
M  V30 1630 H 154.868 1.88945 5.69263 0
M  V30 1631 H 156.547 2.39066 6.01212 0
M  V30 1632 N 156.679 -1.44442 0.630414 0
M  V30 1633 C 157.904 -2.06927 0.139944 0
M  V30 1634 C 158.329 -1.46795 -1.17613 0
M  V30 1635 O 157.687 -0.569144 -1.72135 0
M  V30 1636 C 157.735 -3.6058 0.0379581 0
M  V30 1637 O 156.839 -3.99937 -1.0062 0
M  V30 1638 H 156.18 -0.658608 0.0844483 0
M  V30 1639 H 158.71 -1.85327 0.866891 0
M  V30 1640 H 158.72 -4.07714 -0.152856 0
M  V30 1641 H 157.395 -4.03728 0.998809 0
M  V30 1642 H 155.972 -3.64436 -0.79001 0
M  V30 1643 N 158.157 -0.370918 -1.53173 0
M  V30 1644 C 159.573 -0.0200818 -1.59587 0
M  V30 1645 C 159.773 1.46279 -1.38581 0
M  V30 1646 O 158.829 2.22506 -1.19363 0
M  V30 1647 C 160.142 -0.4808 -2.96831 0
M  V30 1648 C 161.69 -0.435477 -3.09956 0
M  V30 1649 C 162.165 -0.872092 -4.4962 0
M  V30 1650 N 163.656 -0.827364 -4.55751 0
M  V30 1651 C 164.391 -1.13683 -5.62018 0
M  V30 1652 N 163.887 -1.51584 -6.76014 0
M  V30 1653 N 165.68 -1.05927 -5.52029 0
M  V30 1654 H 157.831 -1.33652 -1.65079 0
M  V30 1655 H 160.094 -0.546634 -0.774529 0
M  V30 1656 H 159.8 -1.51577 -3.1736 0
M  V30 1657 H 159.674 0.129796 -3.76977 0
M  V30 1658 H 162.061 0.590371 -2.89134 0
M  V30 1659 H 162.142 -1.08164 -2.31806 0
M  V30 1660 H 161.786 -1.89608 -4.71181 0
M  V30 1661 H 161.716 -0.203127 -5.26208 0
M  V30 1662 H 164.207 -0.548216 -3.73902 0
M  V30 1663 H 164.52 -1.73609 -7.53047 0
M  V30 1664 H 162.865 -1.55454 -6.77391 0
M  V30 1665 H 166.056 -0.762321 -4.61851 0
M  V30 1666 H 166.229 -1.30378 -6.34749 0
M  V30 1667 N 159.635 1.57281 -0.100228 0
M  V30 1668 C 161.051 1.57527 0.256416 0
M  V30 1669 C 161.251 1.11173 1.68056 0
M  V30 1670 O 160.307 0.79053 2.39806 0
M  V30 1671 C 161.62 3.00673 0.0401747 0
M  V30 1672 C 163.168 3.12815 0.107528 0
M  V30 1673 C 163.643 4.57929 -0.0807834 0
M  V30 1674 N 165.134 4.63193 -0.0261207 0
M  V30 1675 C 165.869 5.73212 -0.146999 0
M  V30 1676 N 165.365 6.92047 -0.322999 0
M  V30 1677 N 167.158 5.62031 -0.0879044 0
M  V30 1678 H 159.309 1.85718 -1.03065 0
M  V30 1679 H 161.572 0.857446 -0.404339 0
M  V30 1680 H 161.278 3.38804 -0.943649 0
M  V30 1681 H 161.152 3.69042 0.780262 0
M  V30 1682 H 163.539 2.74554 1.08186 0
M  V30 1683 H 163.62 2.47028 -0.664134 0
M  V30 1684 H 163.264 4.96886 -1.05201 0
M  V30 1685 H 163.194 5.21783 0.710635 0
M  V30 1686 H 165.685 3.77748 0.107161 0
M  V30 1687 H 165.998 7.7173 -0.406608 0
M  V30 1688 H 164.343 6.94074 -0.358733 0
M  V30 1689 H 167.534 4.68075 0.048498 0
M  V30 1690 H 167.707 6.47734 -0.185557 0
M  V30 1691 N 161.113 -0.173488 1.56642 0
M  V30 1692 C 162.043 -1.2171 1.99271 0
M  V30 1693 C 163.024 -1.46289 0.867959 0
M  V30 1694 O 164.209 -1.5766 1.13388 0
M  V30 1695 C 161.339 -2.55651 2.35074 0
M  V30 1696 C 160.293 -2.45645 3.50489 0
M  V30 1697 C 159.619 -3.84056 3.72028 0
M  V30 1698 C 160.919 -1.96302 4.84007 0
M  V30 1699 H 162.613 -0.86275 2.867 0
M  V30 1700 H 160.159 -0.413571 1.37933 0
M  V30 1701 H 162.112 -3.2886 2.63494 0
M  V30 1702 H 160.836 -2.92869 1.44552 0
M  V30 1703 H 159.495 -1.7489 3.22194 0
M  V30 1704 H 159.143 -4.18664 2.788 0
M  V30 1705 H 158.843 -3.7823 4.49684 0
M  V30 1706 H 160.367 -4.58854 4.02846 0
M  V30 1707 H 161.781 -2.59284 5.11317 0
M  V30 1708 H 160.178 -2.01429 5.65284 0
M  V30 1709 H 161.248 -0.917226 4.76146 0
M  V30 1710 N 162.591 -1.51276 -0.441967 0
M  V30 1711 C 163.84 -1.6295 -1.18871 0
M  V30 1712 C 164.153 -0.349312 -1.92456 0
M  V30 1713 O 165.359 -0.345355 -2.69295 0
M  V30 1714 C 163.815 -2.87759 -2.16155 0
M  V30 1715 C 163.423 -4.22764 -1.48239 0
M  V30 1716 C 165.167 -3.08788 -2.91291 0
M  V30 1717 C 163.074 -5.38728 -2.4398 0
M  V30 1718 H 162.004 -0.606913 -0.447406 0
M  V30 1719 H 164.655 -1.77739 -0.456205 0
M  V30 1720 H 163.037 -2.66593 -2.92821 0
M  V30 1721 H 164.211 -4.54293 -0.771635 0
M  V30 1722 H 162.526 -4.07575 -0.852741 0
M  V30 1723 H 165.123 -3.92599 -3.63002 0
M  V30 1724 H 165.466 -2.21679 -3.5237 0
M  V30 1725 H 165.999 -3.30272 -2.21733 0
M  V30 1726 H 162.738 -6.28082 -1.87598 0
M  V30 1727 H 162.258 -5.1158 -3.13123 0
M  V30 1728 H 163.937 -5.70489 -3.05207 0
M  V30 1729 N 164.069 0.697108 -1.41344 0
M  V30 1730 C 165.346 1.45154 -1.31109 0
M  V30 1731 C 165.726 2.11009 0.0620449 0
M  V30 1732 O 165.074 2.01571 1.07618 0
M  V30 1733 C 165.284 2.47223 -2.46337 0
M  V30 1734 C 166.632 3.1252 -2.87431 0
M  V30 1735 O 167.656 2.57547 -2.46065 0
M  V30 1736 O 166.515 4.12083 -3.58957 0
M  V30 1737 H 163.609 0.646365 -0.515889 0
M  V30 1738 H 166.155 0.727716 -1.53305 0
M  V30 1739 H 164.927 1.97204 -3.37974 0
M  V30 1740 H 164.55 3.27116 -2.2601 0
M  V30 1741 N 165.547 1.27147 0.931209 0
M  V30 1742 C 166.963 1.04475 1.20653 0
M  V30 1743 C 167.163 -0.223885 2.00252 0
M  V30 1744 O 166.219 -0.930332 2.34736 0
M  V30 1745 C 167.532 2.28209 1.95809 0
M  V30 1746 C 169.08 2.33211 2.08762 0
M  V30 1747 C 169.555 3.56665 2.87323 0
M  V30 1748 N 171.046 3.57201 2.94892 0
M  V30 1749 C 171.781 4.49395 3.56134 0
M  V30 1750 N 171.277 5.51889 4.18796 0
M  V30 1751 N 173.07 4.37026 3.53504 0
M  V30 1752 H 165.221 2.08612 0.399333 0
M  V30 1753 H 167.484 0.917312 0.239253 0
M  V30 1754 H 167.19 3.20538 1.44736 0
M  V30 1755 H 167.064 2.33247 2.96438 0
M  V30 1756 H 169.451 1.41391 2.59023 0
M  V30 1757 H 169.532 2.32178 1.07364 0
M  V30 1758 H 169.176 4.4882 2.37746 0
M  V30 1759 H 169.106 3.54948 3.88998 0
M  V30 1760 H 171.597 2.83074 2.50354 0
M  V30 1761 H 171.91 6.18409 4.63454 0
M  V30 1762 H 170.255 5.55735 4.17353 0
M  V30 1763 H 173.446 3.56166 3.03749 0
M  V30 1764 H 173.619 5.09067 4.00942 0
M  V30 1765 N 167.025 -1.13721 1.09112 0
M  V30 1766 C 168.253 -1.88773 0.846899 0
M  V30 1767 C 168.668 -1.7896 -0.601572 0
M  V30 1768 O 168.025 -1.15394 -1.41388 0
M  V30 1769 C 168.076 -3.3849 1.26913 0
M  V30 1770 O 167.797 -3.48043 2.66079 0
M  V30 1771 C 169.298 -4.30518 1.05682 0
M  V30 1772 H 166.518 -0.59772 0.304914 0
M  V30 1773 H 169.062 -1.43977 1.45227 0
M  V30 1774 H 167.217 -3.80881 0.707723 0
M  V30 1775 H 167.631 -4.4109 2.83795 0
M  V30 1776 H 169.105 -5.3391 1.40156 0
M  V30 1777 H 169.582 -4.392 -0.00563416 0
M  V30 1778 H 170.188 -3.93893 1.60402 0
M  V30 1779 N 168.503 -0.877838 -1.30888 0
M  V30 1780 C 169.451 -0.328662 -2.30266 0
M  V30 1781 C 170.445 0.560496 -1.59859 0
M  V30 1782 O 171.651 0.445722 -1.74394 0
M  V30 1783 H 168.026 -0.0876142 -0.746879 0
M  V30 1784 H 169.997 -1.18061 -2.74051 0
M  V30 1785 C 168.746 0.448071 -3.44801 0
M  V30 1786 H 168.069 -0.226859 -3.99156 0
M  V30 1787 H 169.509 0.797541 -4.16432 0
M  V30 1788 C 167.968 1.64239 -2.94155 0
M  V30 1789 O 168.498 2.74175 -2.93583 0
M  V30 1790 N 166.704 1.47716 -2.50256 0
M  V30 1791 H 166.251 0.582821 -2.5092 0
M  V30 1792 H 166.209 2.27765 -2.16727 0
M  V30 1793 N 169.982 1.44106 -0.638065 0
M  V30 1794 C 170.945 2.29138 0.0531013 0
M  V30 1795 C 171.945 1.41409 0.765506 0
M  V30 1796 O 173.135 1.63206 0.609046 0
M  V30 1797 C 170.267 3.23144 1.08584 0
M  V30 1798 H 171.46 2.91739 -0.694883 0
M  V30 1799 H 169.013 1.51134 -0.398538 0
M  V30 1800 H 169.748 2.65408 1.86357 0
M  V30 1801 H 169.533 3.87804 0.578852 0
M  V30 1802 H 171.023 3.87004 1.56899 0
M  V30 1803 N 171.46 0.379036 1.52974 0
M  V30 1804 C 172.408 -0.476033 2.27677 0
M  V30 1805 C 173.402 -1.0719 1.31174 0
M  V30 1806 O 174.608 -1.01355 1.48752 0
M  V30 1807 H 170.983 -0.172255 0.732006 0
M  V30 1808 H 172.954 0.175615 2.97883 0
M  V30 1809 C 171.703 -1.5967 3.0887 0
M  V30 1810 H 171.026 -1.1475 3.82978 0
M  V30 1811 H 172.466 -2.16943 3.64296 0
M  V30 1812 C 170.925 -2.54682 2.20542 0
M  V30 1813 O 171.455 -3.57836 1.82527 0
M  V30 1814 N 169.661 -2.24183 1.84907 0
M  V30 1815 H 169.208 -1.40333 2.1602 0
M  V30 1816 H 169.166 -2.88006 1.26096 0
M  V30 1817 N 172.938 -1.57226 0.108567 0
M  V30 1818 C 174.185 -1.94833 -0.551943 0
M  V30 1819 C 174.513 -0.991204 -1.67348 0
M  V30 1820 O 173.768 -0.0131878 -1.95696 0
M  V30 1821 C 174.067 -3.38911 -1.13463 0
M  V30 1822 C 173.733 -4.50696 -0.135509 0
M  V30 1823 C 172.395 -4.80998 0.139252 0
M  V30 1824 C 174.747 -5.18333 0.545957 0
M  V30 1825 C 172.075 -5.76259 1.10194 0
M  V30 1826 C 174.427 -6.14627 1.49721 0
M  V30 1827 C 173.091 -6.43327 1.78006 0
M  V30 1828 H 172.361 -0.712944 -0.20197 0
M  V30 1829 H 175.008 -1.90582 0.18726 0
M  V30 1830 H 173.313 -3.39805 -1.95037 0
M  V30 1831 H 175.01 -3.65317 -1.65362 0
M  V30 1832 H 171.6 -4.27087 -0.359846 0
M  V30 1833 H 175.784 -4.95087 0.346842 0
M  V30 1834 H 171.04 -5.96804 1.32795 0
M  V30 1835 H 175.214 -6.66126 2.03099 0
M  V30 1836 H 172.841 -7.1695 2.52759 0
M  V30 1837 N 174.416 0.165178 -1.56732 0
M  V30 1838 C 175.346 1.20651 -1.99914 0
M  V30 1839 C 176.327 1.45827 -0.875705 0
M  V30 1840 O 177.512 1.57057 -1.14223 0
M  V30 1841 C 174.642 2.54401 -2.36427 0
M  V30 1842 C 173.596 2.43782 -3.51787 0
M  V30 1843 C 172.922 3.82078 -3.7406 0
M  V30 1844 C 174.222 1.93732 -4.85041 0
M  V30 1845 H 175.916 0.847534 -2.87154 0
M  V30 1846 H 173.462 0.40625 -1.38151 0
M  V30 1847 H 175.415 3.27458 -2.65234 0
M  V30 1848 H 174.139 2.92098 -1.46103 0
M  V30 1849 H 172.798 1.73178 -3.23117 0
M  V30 1850 H 172.446 4.17179 -2.81017 0
M  V30 1851 H 172.146 3.7584 -4.51684 0
M  V30 1852 H 173.67 4.56712 -4.05274 0
M  V30 1853 H 175.084 2.56569 -5.12684 0
M  V30 1854 H 173.481 1.98428 -5.66345 0
M  V30 1855 H 174.551 0.891962 -4.76626 0
M  V30 1856 N 175.894 1.51508 0.433938 0
M  V30 1857 C 177.14 1.64588 1.18484 0
M  V30 1858 C 177.473 0.362666 1.90784 0
M  V30 1859 O 176.748 -0.637892 1.83742 0
M  V30 1860 C 177.031 2.85149 2.19913 0
M  V30 1861 C 176.884 4.23456 1.51674 0
M  V30 1862 C 178.203 3.01227 3.20858 0
M  V30 1863 H 175.322 0.598994 0.429389 0
M  V30 1864 H 177.964 1.84002 0.473647 0
M  V30 1865 H 176.114 2.68729 2.80566 0
M  V30 1866 H 177.786 4.51552 0.943322 0
M  V30 1867 H 176.029 4.25998 0.819035 0
M  V30 1868 H 176.7 5.03812 2.2556 0
M  V30 1869 H 179.176 3.16382 2.70263 0
M  V30 1870 H 178.052 3.87141 3.89118 0
M  V30 1871 H 178.313 2.13447 3.8716 0
M  V30 1872 N 177.372 -0.689602 1.41712 0
M  V30 1873 C 178.618 -1.45041 1.42599 0
M  V30 1874 C 178.973 -1.92366 0.0363764 0
M  V30 1875 O 178.266 -1.67022 -0.938844 0
M  V30 1876 C 178.46 -2.67298 2.37247 0
M  V30 1877 C 178.289 -2.31935 3.85274 0
M  V30 1878 C 177.059 -2.2201 4.53916 0
M  V30 1879 C 179.257 -1.94526 4.76093 0
M  V30 1880 N 177.239 -1.79594 5.87043 0
M  V30 1881 C 178.61 -1.62915 5.98213 0
M  V30 1882 C 180.665 -1.81388 4.63684 0
M  V30 1883 C 179.368 -1.19486 7.09306 0
M  V30 1884 C 181.394 -1.39364 5.74745 0
M  V30 1885 C 180.756 -1.08668 6.95967 0
M  V30 1886 H 176.855 -0.527806 0.577014 0
M  V30 1887 H 179.439 -0.797266 1.77628 0
M  V30 1888 H 177.61 -3.30325 2.04304 0
M  V30 1889 H 179.342 -3.33806 2.28814 0
M  V30 1890 H 176.097 -2.406 4.07932 0
M  V30 1891 H 176.521 -1.60851 6.57614 0
M  V30 1892 H 181.163 -2.03772 3.70455 0
M  V30 1893 H 178.881 -0.958477 8.02396 0
M  V30 1894 H 182.467 -1.2974 5.6715 0
M  V30 1895 H 181.347 -0.766417 7.80446 0
M  V30 1896 N 178.85 -1.27639 -0.924453 0
M  V30 1897 C 180.261 -1.12834 -1.48746 0
M  V30 1898 C 180.612 0.285505 -1.94112 0
M  V30 1899 O 179.737 1.17874 -1.81479 0
M  V30 1900 C 180.332 -2.04217 -2.70334 0
M  V30 1901 C 178.891 -1.93509 -3.22848 0
M  V30 1902 C 178.038 -1.96583 -1.95577 0
M  V30 1903 H 180.989 -1.40484 -0.738233 0
M  V30 1904 H 181.01 -1.59989 -3.4523 0
M  V30 1905 H 180.522 -3.07111 -2.37285 0
M  V30 1906 H 178.623 -0.936131 -3.60649 0
M  V30 1907 H 178.736 -2.79917 -3.88823 0
M  V30 1908 H 177.1 -1.4085 -2.12211 0
M  V30 1909 H 177.883 -3.01137 -1.64837 0
M  V30 1910 N 180.328 1.1314 -1.09713 0
M  V30 1911 C 181.739 1.66029 -0.853885 0
M  V30 1912 C 182.09 1.86241 0.617142 0
M  V30 1913 O 181.215 1.5834 1.47503 0
M  V30 1914 C 181.81 3.01599 -1.5435 0
M  V30 1915 C 180.369 3.51467 -1.34714 0
M  V30 1916 C 179.516 2.26648 -1.59769 0
M  V30 1917 H 182.467 0.970226 -1.25588 0
M  V30 1918 H 182.488 3.67709 -0.978267 0
M  V30 1919 H 182 2.86856 -2.6141 0
M  V30 1920 H 180.101 3.71408 -0.297838 0
M  V30 1921 H 180.214 4.314 -2.08401 0
M  V30 1922 H 178.578 2.33385 -1.01998 0
M  V30 1923 H 179.361 2.14467 -2.68065 0
M  V30 1924 N 181.806 0.884767 1.30421 0
M  V30 1925 C 183.046 0.509806 1.9794 0
M  V30 1926 C 183.41 -0.923736 1.68319 0
M  V30 1927 O 184.611 -1.40481 2.29169 0
M  V30 1928 C 182.882 0.776732 3.48858 0
M  V30 1929 S 184.441 0.503843 4.35898 0
M  V30 1930 H 181.259 0.189699 0.685227 0
M  V30 1931 H 183.861 1.14399 1.58535 0
M  V30 1932 H 182.565 1.81857 3.67908 0
M  V30 1933 H 182.096 0.1301 3.93185 0
M  V30 1934 H 184.111 -0.657625 4.91823 0
M  V30 1935 N 183.284 -1.43765 0.645699 0
M  V30 1936 C 184.53 -2.02197 0.156271 0
M  V30 1937 C 184.863 -1.50776 -1.22393 0
M  V30 1938 O 184.138 -0.697771 -1.81553 0
M  V30 1939 C 184.421 -3.59749 0.158872 0
M  V30 1940 C 184.274 -4.21419 1.57245 0
M  V30 1941 C 185.593 -4.37149 -0.50879 0
M  V30 1942 H 182.712 -0.734694 0.0582602 0
M  V30 1943 H 185.354 -1.71157 0.824951 0
M  V30 1944 H 183.504 -3.86325 -0.410525 0
M  V30 1945 H 185.176 -4.059 2.19186 0
M  V30 1946 H 183.419 -3.78356 2.122 0
M  V30 1947 H 184.09 -5.30482 1.52619 0
M  V30 1948 H 186.566 -4.16093 -0.024412 0
M  V30 1949 H 185.442 -5.4683 -0.476213 0
M  V30 1950 H 185.703 -4.12839 -1.58165 0
M  V30 1951 N 184.763 -0.387143 -1.52771 0
M  V30 1952 C 185.673 0.456442 -2.30117 0
M  V30 1953 C 186.689 1.07342 -1.36944 0
M  V30 1954 O 187.865 1.07971 -1.70013 0
M  V30 1955 C 184.93 1.56957 -3.09136 0
M  V30 1956 C 183.991 0.977916 -4.18014 0
M  V30 1957 C 183.224 2.038 -4.93256 0
M  V30 1958 O 183.447 3.25271 -4.68567 0
M  V30 1959 O 182.381 1.6565 -5.78657 0
M  V30 1960 H 186.207 -0.17359 -3.03203 0
M  V30 1961 H 183.792 -0.150919 -1.48636 0
M  V30 1962 H 185.674 2.21628 -3.58412 0
M  V30 1963 H 184.349 2.18461 -2.38865 0
M  V30 1964 H 183.256 0.294525 -3.72939 0
M  V30 1965 H 184.589 0.407128 -4.90513 0
M  V30 1966 N 186.241 1.57166 -0.116904 0
M  V30 1967 C 187.487 1.95412 0.542405 0
M  V30 1968 C 187.82 1.00019 1.66463 0
M  V30 1969 O 187.095 0.0370346 1.94465 0
M  V30 1970 C 187.378 3.43615 1.07708 0
M  V30 1971 C 187.231 4.49781 -0.0415868 0
M  V30 1972 C 188.55 3.93616 1.96861 0
M  V30 1973 H 185.669 0.710543 0.195696 0
M  V30 1974 H 188.311 1.89027 -0.192038 0
M  V30 1975 H 186.461 3.49187 1.70296 0
M  V30 1976 H 188.133 4.56308 -0.676793 0
M  V30 1977 H 186.376 4.28033 -0.705019 0
M  V30 1978 H 187.047 5.50733 0.373717 0
M  V30 1979 H 189.523 3.90335 1.44146 0
M  V30 1980 H 188.399 4.97838 2.3119 0
M  V30 1981 H 188.66 3.34188 2.89432 0
M  V30 1982 N 187.719 -0.156864 1.56817 0
M  V30 1983 C 188.651 -1.21883 1.94106 0
M  V30 1984 C 189.664 -1.3971 0.835754 0
M  V30 1985 O 190.853 -1.39457 1.11418 0
M  V30 1986 C 187.953 -2.58527 2.19127 0
M  V30 1987 C 187.126 -2.61809 3.50393 0
M  V30 1988 C 186.185 -3.7992 3.64071 0
M  V30 1989 O 185.211 -3.65249 4.36557 0
M  V30 1990 N 186.413 -4.96973 2.99997 0
M  V30 1991 H 189.178 -0.901974 2.85805 0
M  V30 1992 H 186.739 -0.346513 1.58148 0
M  V30 1993 H 188.731 -3.36034 2.25529 0
M  V30 1994 H 187.301 -2.82545 1.33742 0
M  V30 1995 H 186.521 -1.7029 3.5552 0
M  V30 1996 H 187.809 -2.61024 4.36742 0
M  V30 1997 H 187.207 -5.11794 2.41004 0
M  V30 1998 H 185.764 -5.7229 3.11974 0
M  V30 1999 N 189.197 -1.51736 -0.425897 0
M  V30 2000 C 190.613 -1.40166 -0.76326 0
M  V30 2001 C 190.813 -0.492962 -1.95377 0
M  V30 2002 O 189.869 0.0475815 -2.52455 0
M  V30 2003 C 191.182 -2.82403 -1.03291 0
M  V30 2004 C 192.73 -2.91632 -1.13665 0
M  V30 2005 C 193.205 -4.34801 -1.43916 0
M  V30 2006 N 194.696 -4.3796 -1.50816 0
M  V30 2007 C 195.431 -5.4578 -1.75817 0
M  V30 2008 N 194.927 -6.63744 -1.98534 0
M  V30 2009 N 196.72 -5.33274 -1.77694 0
M  V30 2010 H 188.871 -2.09361 0.358 0
M  V30 2011 H 191.134 -0.942941 0.0978094 0
M  V30 2012 H 190.84 -3.50943 -0.230696 0
M  V30 2013 H 190.714 -3.22428 -1.95754 0
M  V30 2014 H 193.101 -2.23284 -1.92947 0
M  V30 2015 H 193.182 -2.55088 -0.190756 0
M  V30 2016 H 192.826 -5.03703 -0.65157 0
M  V30 2017 H 192.756 -4.68868 -2.39729 0
M  V30 2018 H 195.247 -3.52919 -1.35118 0
M  V30 2019 H 195.56 -7.41704 -2.17013 0
M  V30 2020 H 193.905 -6.66839 -1.95832 0
M  V30 2021 H 197.096 -4.40098 -1.59473 0
M  V30 2022 H 197.269 -6.1738 -1.9684 0
M  V30 2023 N 190.675 0.682077 -1.42076 0
M  V30 2024 C 191.915 1.45424 -1.43636 0
M  V30 2025 C 192.279 1.91939 -0.0484001 0
M  V30 2026 O 193.48 2.6873 0.0612514 0
M  V30 2027 C 191.751 2.62427 -2.42625 0
M  V30 2028 S 193.31 3.51379 -2.62827 0
M  V30 2029 H 190.128 0.496779 -0.508657 0
M  V30 2030 H 192.73 0.794645 -1.78621 0
M  V30 2031 H 191.434 2.26481 -3.42249 0
M  V30 2032 H 190.965 3.33266 -2.09039 0
M  V30 2033 H 192.98 4.58141 -1.9058 0
M  V30 2034 N 192.153 1.28127 0.917671 0
M  V30 2035 C 193.378 1.18007 1.70555 0
M  V30 2036 C 193.803 -0.258257 1.86319 0
M  V30 2037 O 193.161 -1.1869 1.37049 0
M  V30 2038 C 193.209 1.87948 3.07746 0
M  V30 2039 O 192.313 1.18427 3.9503 0
M  V30 2040 H 191.654 0.409867 0.522403 0
M  V30 2041 H 194.184 1.69379 1.1477 0
M  V30 2042 H 194.194 1.95701 3.58001 0
M  V30 2043 H 192.869 2.92573 2.95591 0
M  V30 2044 H 191.446 1.18811 3.53466 0
M  V30 2045 N 193.631 -1.12557 1.10312 0
M  V30 2046 C 194.879 -1.83675 0.843091 0
M  V30 2047 C 195.2 -1.84435 -0.633131 0
M  V30 2048 O 194.47 -1.30657 -1.45964 0
M  V30 2049 H 193.05 -0.680138 0.308904 0
M  V30 2050 H 195.712 -1.36301 1.39313 0
M  V30 2051 H 194.808 -2.87908 1.2048 0
M  V30 2052 N 195.109 -0.891671 -1.2995 0
M  V30 2053 C 196.349 -0.520296 -1.97667 0
M  V30 2054 C 196.713 0.914797 -1.68806 0
M  V30 2055 O 197.914 1.39263 -2.29911 0
M  V30 2056 C 196.185 -0.795222 -3.48441 0
M  V30 2057 S 197.744 -0.526953 -4.35624 0
M  V30 2058 H 194.562 -0.19333 -0.684211 0
M  V30 2059 H 197.164 -1.15238 -1.57926 0
M  V30 2060 H 195.868 -1.83805 -3.66938 0
M  V30 2061 H 195.399 -0.15095 -3.9311 0
M  V30 2062 H 197.414 0.631533 -4.92165 0
M  V30 2063 N 196.587 1.43421 -0.653314 0
M  V30 2064 C 197.827 2.03689 -0.170346 0
M  V30 2065 C 198.191 1.50427 1.19314 0
M  V30 2066 O 199.392 2.0234 1.76952 0
M  V30 2067 C 197.663 3.56946 -0.180183 0
M  V30 2068 S 199.222 4.38171 0.234925 0
M  V30 2069 H 196.04 0.707345 -0.0719976 0
M  V30 2070 H 198.642 1.75486 -0.86167 0
M  V30 2071 H 197.346 3.93212 -1.17526 0
M  V30 2072 H 196.877 3.89791 0.531675 0
M  V30 2073 H 198.892 4.73808 1.47378 0
M  V30 2074 N 198.065 0.39524 1.52563 0
M  V30 2075 C 199.013 -0.451859 2.28169 0
M  V30 2076 C 200.007 -1.05792 1.32304 0
M  V30 2077 O 201.213 -0.997718 1.49818 0
M  V30 2078 H 197.588 -0.164481 0.733792 0
M  V30 2079 H 199.559 0.207199 2.9768 0
M  V30 2080 C 198.308 -1.56385 3.10546 0
M  V30 2081 H 197.631 -1.10682 3.84174 0
M  V30 2082 H 199.071 -2.13067 3.66577 0
M  V30 2083 C 197.53 -2.52328 2.23231 0
M  V30 2084 O 198.06 -3.5588 1.86312 0
M  V30 2085 N 196.266 -2.22209 1.87274 0
M  V30 2086 H 195.813 -1.38033 2.17496 0
M  V30 2087 H 195.771 -2.86652 1.29143 0
M  V30 2088 N 199.544 -1.57102 0.125237 0
M  V30 2089 C 200.492 -2.16905 -0.839927 0
M  V30 2090 C 201.486 -1.11998 -1.27094 0
M  V30 2091 O 202.692 -1.3029 -1.24195 0
M  V30 2092 H 199.067 -0.694252 -0.288995 0
M  V30 2093 H 201.038 -2.96774 -0.311115 0
M  V30 2094 C 199.787 -2.78795 -2.07771 0
M  V30 2095 H 199.11 -3.59221 -1.755 0
M  V30 2096 H 200.55 -3.2417 -2.73295 0
M  V30 2097 C 199.009 -1.76193 -2.87155 0
M  V30 2098 O 199.539 -1.21909 -3.82755 0
M  V30 2099 N 197.745 -1.45991 -2.51267 0
M  V30 2100 H 197.292 -1.90325 -1.73592 0
M  V30 2101 H 197.25 -0.775844 -3.04677 0
M  V30 2102 N 201.022 0.148545 -1.56898 0
M  V30 2103 C 202.438 0.501131 -1.51528 0
M  V30 2104 C 202.638 1.83458 -0.833399 0
M  V30 2105 O 201.694 2.49259 -0.40328 0
M  V30 2106 C 203.007 0.512864 -2.96294 0
M  V30 2107 C 204.555 0.598487 -3.07225 0
M  V30 2108 C 205.03 0.640897 -4.53494 0
M  V30 2109 N 206.521 0.703163 -4.57832 0
M  V30 2110 C 207.256 0.756935 -5.68382 0
M  V30 2111 N 206.752 0.770147 -6.88506 0
M  V30 2112 N 208.545 0.797698 -5.56411 0
M  V30 2113 H 200.696 -0.725532 -1.99624 0
M  V30 2114 H 202.959 -0.264358 -0.910395 0
M  V30 2115 H 202.665 -0.398691 -3.49433 0
M  V30 2116 H 202.539 1.35133 -3.52163 0
M  V30 2117 H 204.926 1.50046 -2.54106 0
M  V30 2118 H 205.007 -0.267093 -2.54402 0
M  V30 2119 H 204.651 -0.256915 -5.0725 0
M  V30 2120 H 204.581 1.52295 -5.04097 0
M  V30 2121 H 207.072 0.700314 -3.71354 0
M  V30 2122 H 207.385 0.812983 -7.68512 0
M  V30 2123 H 205.73 0.738049 -6.9107 0
M  V30 2124 H 208.921 0.784535 -4.61479 0
M  V30 2125 H 209.094 0.83614 -6.42583 0
M  V30 2126 N 202.5 1.5196 0.417844 0
M  V30 2127 C 203.448 1.75278 1.52907 0
M  V30 2128 C 204.442 0.619611 1.57662 0
M  V30 2129 O 205.648 0.801457 1.61173 0
M  V30 2130 H 202.023 0.554141 0.508362 0
M  V30 2131 H 203.994 2.68389 1.30422 0
M  V30 2132 C 202.743 1.91262 2.90369 0
M  V30 2133 H 202.066 2.77872 2.8745 0
M  V30 2134 H 203.506 2.11581 3.67436 0
M  V30 2135 C 201.965 0.677431 3.30019 0
M  V30 2136 O 202.495 -0.158799 4.01386 0
M  V30 2137 N 200.701 0.515851 2.85985 0
M  V30 2138 H 200.248 1.19744 2.28077 0
M  V30 2139 H 200.206 -0.309315 3.12875 0
M  V30 2140 N 203.978 -0.674533 1.42435 0
M  V30 2141 C 205.224 -1.43671 1.43131 0
M  V30 2142 C 205.557 -1.94142 0.0476021 0
M  V30 2143 O 204.832 -1.70924 -0.928188 0
M  V30 2144 C 205.115 -2.63355 2.45594 0
M  V30 2145 C 204.968 -2.18514 3.93156 0
M  V30 2146 C 206.287 -3.65571 2.45043 0
M  V30 2147 H 203.406 -0.521077 0.521198 0
M  V30 2148 H 206.048 -0.766551 1.7385 0
M  V30 2149 H 204.198 -3.2053 2.19528 0
M  V30 2150 H 205.87 -1.66504 4.30202 0
M  V30 2151 H 204.113 -1.50086 4.07009 0
M  V30 2152 H 204.784 -3.04484 4.60428 0
M  V30 2153 H 207.26 -3.18113 2.68223 0
M  V30 2154 H 206.136 -4.46893 3.18713 0
M  V30 2155 H 206.397 -4.16716 1.47649 0
M  V30 2156 N 205.456 -1.28612 -0.910864 0
M  V30 2157 C 206.388 -1.08589 -2.01844 0
M  V30 2158 C 207.401 -0.0367419 -1.62759 0
M  V30 2159 O 208.59 -0.280101 -1.76289 0
M  V30 2160 C 205.69 -0.628626 -3.33019 0
M  V30 2161 C 204.863 -1.75382 -4.00699 0
M  V30 2162 C 203.922 -1.28945 -5.10156 0
M  V30 2163 O 202.948 -1.9922 -5.33198 0
M  V30 2164 N 204.15 -0.154224 -5.80295 0
M  V30 2165 H 206.915 -2.03973 -2.19579 0
M  V30 2166 H 204.476 -1.20403 -1.08234 0
M  V30 2167 H 206.468 -0.301508 -4.03575 0
M  V30 2168 H 205.038 0.232451 -3.11735 0
M  V30 2169 H 204.258 -2.25039 -3.23653 0
M  V30 2170 H 205.546 -2.50854 -4.42662 0
M  V30 2171 H 204.944 0.43194 -5.64049 0
M  V30 2172 H 203.501 0.113599 -6.51701 0
M  V30 2173 N 206.934 1.1197 -1.10907 0
M  V30 2174 C 208.174 1.85224 -0.864378 0
M  V30 2175 C 208.538 1.82411 0.599178 0
M  V30 2176 O 209.739 2.51057 0.960416 0
M  V30 2177 C 208.01 3.2868 -1.40371 0
M  V30 2178 S 209.569 4.1925 -1.29518 0
M  V30 2179 H 206.387 0.63878 -0.312219 0
M  V30 2180 H 208.989 1.3485 -1.41548 0
M  V30 2181 H 207.693 3.28289 -2.46281 0
M  V30 2182 H 207.224 3.84121 -0.849402 0
M  V30 2183 H 209.239 4.95539 -0.256059 0
M  V30 2184 N 208.412 0.89855 1.29475 0
M  V30 2185 C 209.828 0.594483 1.48115 0
M  V30 2186 C 210.028 -0.86431 1.82022 0
M  V30 2187 O 209.084 -1.64457 1.91599 0
M  V30 2188 C 210.397 1.51932 2.59494 0
M  V30 2189 C 211.945 1.5244 2.7337 0
M  V30 2190 C 212.42 2.43548 3.87877 0
M  V30 2191 N 213.911 2.41589 3.95208 0
M  V30 2192 C 214.646 3.08789 4.83153 0
M  V30 2193 N 214.142 3.85265 5.75798 0
M  V30 2194 N 215.935 2.97952 4.76635 0
M  V30 2195 H 208.086 1.84207 1.05742 0
M  V30 2196 H 210.349 0.789251 0.525154 0
M  V30 2197 H 210.055 2.55865 2.41301 0
M  V30 2198 H 209.929 1.23899 3.56271 0
M  V30 2199 H 212.316 0.492518 2.90961 0
M  V30 2200 H 212.397 1.8451 1.77172 0
M  V30 2201 H 212.041 3.46829 3.71041 0
M  V30 2202 H 211.971 2.08788 4.83441 0
M  V30 2203 H 214.462 1.86025 3.28943 0
M  V30 2204 H 214.775 4.33598 6.39697 0
M  V30 2205 H 213.12 3.89371 5.75687 0
M  V30 2206 H 216.311 2.37723 4.03244 0
M  V30 2207 H 216.484 3.50599 5.44962 0
M  V30 2208 N 209.89 -1.43072 0.660911 0
M  V30 2209 C 211.301 -1.84932 0.256348 0
M  V30 2210 C 211.652 -1.55325 -1.19868 0
M  V30 2211 O 210.777 -1.00607 -1.91591 0
M  V30 2212 C 211.372 -3.35684 0.458475 0
M  V30 2213 C 209.931 -3.76245 0.108161 0
M  V30 2214 C 209.078 -2.66749 0.757641 0
M  V30 2215 H 212.029 -1.33116 0.864051 0
M  V30 2216 H 212.05 -3.79365 -0.293683 0
M  V30 2217 H 211.562 -3.572 1.51755 0
M  V30 2218 H 209.663 -3.60338 -0.948014 0
M  V30 2219 H 209.776 -4.76058 0.538992 0
M  V30 2220 H 208.14 -2.53989 0.190185 0
M  V30 2221 H 208.923 -2.91092 1.81989 0
M  V30 2222 N 211.368 -0.403325 -1.52352 0
M  V30 2223 C 212.596 0.174012 -2.06167 0
M  V30 2224 C 213.011 1.39347 -1.27388 0
M  V30 2225 O 212.368 1.79597 -0.324201 0
M  V30 2226 C 212.419 0.530223 -3.5759 0
M  V30 2227 O 212.14 -0.640806 -4.33388 0
M  V30 2228 C 213.641 1.16192 -4.27802 0
M  V30 2229 H 210.861 0.0229464 -0.670608 0
M  V30 2230 H 213.405 -0.572604 -1.9632 0
M  V30 2231 H 211.56 1.22673 -3.67464 0
M  V30 2232 H 211.974 -0.344851 -5.23365 0
M  V30 2233 H 213.448 1.36141 -5.34948 0
M  V30 2234 H 213.925 2.13335 -3.83907 0
M  V30 2235 H 214.531 0.505775 -4.22282 0
M  V30 2236 N 212.846 1.57033 -0.133567 0
M  V30 2237 C 213.778 2.13176 0.841944 0
M  V30 2238 C 214.791 1.07794 1.22001 0
M  V30 2239 O 215.98 1.35117 1.16643 0
M  V30 2240 C 213.08 2.62847 2.13926 0
M  V30 2241 C 212.253 3.92486 1.93064 0
M  V30 2242 C 211.312 4.27605 3.0666 0
M  V30 2243 O 210.338 4.96168 2.78937 0
M  V30 2244 N 211.54 3.861 4.33483 0
M  V30 2245 H 214.305 2.97503 0.362192 0
M  V30 2246 H 211.866 1.61821 0.05042 0
M  V30 2247 H 213.858 2.83363 2.88942 0
M  V30 2248 H 212.428 1.83319 2.53205 0
M  V30 2249 H 211.648 3.80732 1.02159 0
M  V30 2250 H 212.936 4.77225 1.76447 0
M  V30 2251 H 212.334 3.30828 4.58878 0
M  V30 2252 H 210.891 4.11694 5.05323 0
M  V30 2253 N 214.325 -0.140222 1.56975 0
M  V30 2254 C 215.571 -0.852949 1.83991 0
M  V30 2255 C 215.904 -1.80512 0.716187 0
M  V30 2256 O 215.179 -1.92479 -0.279681 0
M  V30 2257 C 215.462 -1.6215 3.21527 0
M  V30 2258 C 215.315 -0.690363 4.4447 0
M  V30 2259 C 216.634 -2.58247 3.56366 0
M  V30 2260 H 213.753 -0.308634 0.669264 0
M  V30 2261 H 216.395 -0.117898 1.89634 0
M  V30 2262 H 214.545 -2.24812 3.16847 0
M  V30 2263 H 216.217 -0.0742264 4.6124 0
M  V30 2264 H 214.46 -0.000396433 4.338 0
M  V30 2265 H 215.131 -1.2643 5.37326 0
M  V30 2266 H 217.607 -2.05701 3.61699 0
M  V30 2267 H 216.483 -3.09067 4.53617 0
M  V30 2268 H 216.744 -3.39923 2.82674 0
M  V30 2269 N 215.803 -1.52179 -0.40978 0
M  V30 2270 C 216.735 -1.71703 -1.51825 0
M  V30 2271 C 217.748 -0.597445 -1.51441 0
M  V30 2272 O 218.937 -0.872582 -1.55719 0
M  V30 2273 C 216.037 -1.74171 -2.90719 0
M  V30 2274 C 215.21 -3.03156 -3.15302 0
M  V30 2275 C 214.269 -2.97445 -4.34065 0
M  V30 2276 O 213.295 -3.71352 -4.31377 0
M  V30 2277 N 214.497 -2.15191 -5.39141 0
M  V30 2278 H 217.262 -2.67334 -1.35472 0
M  V30 2279 H 214.823 -1.50409 -0.599069 0
M  V30 2280 H 216.815 -1.67884 -3.68235 0
M  V30 2281 H 215.385 -0.860166 -3.00533 0
M  V30 2282 H 214.605 -3.23097 -2.25836 0
M  V30 2283 H 215.893 -3.88484 -3.28569 0
M  V30 2284 H 215.291 -1.54573 -5.44173 0
M  V30 2285 H 213.848 -2.1476 -6.15403 0
M  V30 2286 N 217.281 0.66697 -1.42791 0
M  V30 2287 C 218.211 1.79218 -1.49677 0
M  V30 2288 C 219.192 1.66405 -0.352623 0
M  V30 2289 O 220.377 1.85708 -0.567993 0
M  V30 2290 C 217.507 3.17565 -1.40605 0
M  V30 2291 C 216.461 3.45124 -2.53127 0
M  V30 2292 C 215.787 4.83127 -2.29112 0
M  V30 2293 C 217.087 3.41236 -3.95418 0
M  V30 2294 H 218.781 1.73713 -2.43853 0
M  V30 2295 H 216.327 0.83432 -1.17367 0
M  V30 2296 H 218.28 3.96022 -1.44029 0
M  V30 2297 H 217.004 3.23767 -0.429271 0
M  V30 2298 H 215.663 2.69031 -2.49034 0
M  V30 2299 H 215.311 4.85988 -1.29709 0
M  V30 2300 H 215.011 5.02528 -3.04531 0
M  V30 2301 H 216.535 5.63859 -2.34297 0
M  V30 2302 H 217.949 4.09651 -4.01073 0
M  V30 2303 H 216.346 3.72173 -4.70752 0
M  V30 2304 H 217.416 2.39665 -4.21532 0
M  V30 2305 N 218.759 1.29093 0.90403 0
M  V30 2306 C 220.175 1.07011 1.1841 0
M  V30 2307 C 220.375 -0.181358 2.00682 0
M  V30 2308 O 219.431 -0.880331 2.36657 0
M  V30 2309 C 220.744 2.32311 1.90924 0
M  V30 2310 C 222.292 2.37587 2.03768 0
M  V30 2311 C 222.767 3.62679 2.79693 0
M  V30 2312 N 224.258 3.63376 2.87249 0
M  V30 2313 C 224.993 4.56848 3.46522 0
M  V30 2314 N 224.489 5.60648 4.06996 0
M  V30 2315 N 226.282 4.44426 3.44154 0
M  V30 2316 H 218.433 2.09412 0.354993 0
M  V30 2317 H 220.696 0.922181 0.219742 0
M  V30 2318 H 220.402 3.23536 1.37905 0
M  V30 2319 H 220.276 2.39483 2.91424 0
M  V30 2320 H 222.663 1.46853 2.55965 0
M  V30 2321 H 222.744 2.34403 1.02415 0
M  V30 2322 H 222.388 4.53762 2.28173 0
M  V30 2323 H 222.318 3.63119 3.81381 0
M  V30 2324 H 224.809 2.88321 2.44293 0
M  V30 2325 H 225.122 6.28101 4.50232 0
M  V30 2326 H 223.467 5.64463 4.05471 0
M  V30 2327 H 226.658 3.62529 2.96126 0
M  V30 2328 H 226.831 5.17457 3.90054 0
M  V30 2329 N 220.237 -1.11381 1.11499 0
M  V30 2330 C 221.648 -1.6465 0.880191 0
M  V30 2331 C 221.999 -1.87199 -0.587434 0
M  V30 2332 O 221.124 -1.60667 -1.44966 0
M  V30 2333 C 221.719 -2.99105 1.59128 0
M  V30 2334 C 220.278 -3.49279 1.40289 0
M  V30 2335 C 219.425 -2.24077 1.63354 0
M  V30 2336 H 222.376 -0.950123 1.27116 0
M  V30 2337 H 222.397 -3.66107 1.03664 0
M  V30 2338 H 221.909 -2.82661 2.65941 0
M  V30 2339 H 220.01 -3.70887 0.356888 0
M  V30 2340 H 220.123 -4.2803 2.15238 0
M  V30 2341 H 218.487 -2.31733 1.05698 0
M  V30 2342 H 219.27 -2.10175 2.71443 0
M  V30 2343 N 221.715 -0.905404 -1.28997 0
M  V30 2344 C 222.961 -0.535039 -1.95615 0
M  V30 2345 C 223.294 0.917404 -1.71165 0
M  V30 2346 O 222.569 1.65123 -1.02785 0
M  V30 2347 C 222.852 -0.834918 -3.50287 0
M  V30 2348 C 222.705 -2.33948 -3.84172 0
M  V30 2349 C 224.024 -0.325318 -4.38896 0
M  V30 2350 H 221.143 -0.195861 -0.710498 0
M  V30 2351 H 223.785 -1.13313 -1.52513 0
M  V30 2352 H 221.935 -0.325904 -3.87131 0
M  V30 2353 H 223.607 -2.91847 -3.57243 0
M  V30 2354 H 221.85 -2.79789 -3.31513 0
M  V30 2355 H 222.521 -2.49987 -4.92149 0
M  V30 2356 H 224.997 -0.761256 -4.09077 0
M  V30 2357 H 223.873 -0.564295 -5.45992 0
M  V30 2358 H 224.134 0.774144 -4.35269 0
M  V30 2359 N 223.193 1.4272 -0.668489 0
M  V30 2360 C 224.125 2.2914 0.052613 0
M  V30 2361 C 225.138 1.43339 0.771857 0
M  V30 2362 O 226.327 1.67123 0.627067 0
M  V30 2363 C 223.427 3.20618 1.09804 0
M  V30 2364 C 222.6 4.35039 0.45389 0
M  V30 2365 C 221.659 5.07282 1.39825 0
M  V30 2366 O 220.685 5.62024 0.900978 0
M  V30 2367 N 221.887 5.12206 2.73176 0
M  V30 2368 H 224.652 2.91668 -0.689209 0
M  V30 2369 H 222.213 1.53577 -0.512422 0
M  V30 2370 H 224.205 3.65815 1.73094 0
M  V30 2371 H 222.775 2.59585 1.74167 0
M  V30 2372 H 221.995 3.92567 -0.358396 0
M  V30 2373 H 223.283 5.088 0.00486972 0
M  V30 2374 H 222.681 4.6913 3.16122 0
M  V30 2375 H 221.238 5.61069 3.31729 0
M  V30 2376 N 224.671 0.411399 1.52136 0
M  V30 2377 C 225.917 -0.163888 2.02137 0
M  V30 2378 C 226.25 -1.44597 1.29636 0
M  V30 2379 O 225.525 -1.90272 0.403353 0
M  V30 2380 C 225.808 -0.40927 3.57767 0
M  V30 2381 C 225.661 0.889643 4.40914 0
M  V30 2382 C 226.98 -1.19042 4.23694 0
M  V30 2383 H 224.099 -0.0580896 0.734707 0
M  V30 2384 H 226.741 0.54531 1.82007 0
M  V30 2385 H 224.891 -1.0134 3.7505 0
M  V30 2386 H 226.563 1.52575 4.35337 0
M  V30 2387 H 224.806 1.50011 4.07037 0
M  V30 2388 H 225.477 0.672314 5.4789 0
M  V30 2389 H 227.953 -0.678942 4.10524 0
M  V30 2390 H 226.829 -1.33086 5.32522 0
M  V30 2391 H 227.09 -2.21166 3.82803 0
M  V30 2392 N 226.149 -1.5696 0.141893 0
M  V30 2393 C 227.565 -1.58151 -0.21456 0
M  V30 2394 C 227.765 -1.1559 -1.65049 0
M  V30 2395 O 226.821 -0.853832 -2.37626 0
M  V30 2396 C 228.134 -3.00674 0.0395576 0
M  V30 2397 C 229.682 -3.1299 -0.0245529 0
M  V30 2398 C 230.157 -4.57554 0.202167 0
M  V30 2399 N 231.648 -4.62961 0.148919 0
M  V30 2400 C 232.383 -5.7262 0.298924 0
M  V30 2401 N 231.879 -6.90947 0.50637 0
M  V30 2402 N 233.672 -5.61601 0.236886 0
M  V30 2403 H 225.823 -1.8292 1.07953 0
M  V30 2404 H 228.086 -0.846425 0.42693 0
M  V30 2405 H 227.792 -3.36183 1.03315 0
M  V30 2406 H 227.666 -3.70981 -0.682143 0
M  V30 2407 H 230.053 -2.77326 -1.00869 0
M  V30 2408 H 230.134 -2.4518 0.729396 0
M  V30 2409 H 229.778 -4.93922 1.18338 0
M  V30 2410 H 229.708 -5.23484 -0.572044 0
M  V30 2411 H 232.199 -3.77899 -0.00697015 0
M  V30 2412 H 232.512 -7.7038 0.611076 0
M  V30 2413 H 230.857 -6.92878 0.542628 0
M  V30 2414 H 234.048 -4.68039 0.0756209 0
M  V30 2415 H 234.221 -6.47015 0.357227 0
M  V30 2416 N 227.627 0.131896 -1.57047 0
M  V30 2417 C 228.574 1.16236 -1.99393 0
M  V30 2418 C 229.544 1.41863 -0.863943 0
M  V30 2419 O 230.729 1.53946 -1.12718 0
M  V30 2420 C 227.869 2.48708 -2.39245 0
M  V30 2421 C 226.982 2.30127 -3.65603 0
M  V30 2422 C 226.117 3.55738 -3.94492 0
M  V30 2423 C 225.156 3.32259 -5.14073 0
M  V30 2424 N 224.293 4.50039 -5.38896 0
M  V30 2425 H 229.133 0.794251 -2.87221 0
M  V30 2426 H 226.67 0.380707 -1.42088 0
M  V30 2427 H 228.628 3.25969 -2.60384 0
M  V30 2428 H 227.258 2.83437 -1.54478 0
M  V30 2429 H 226.31 1.43845 -3.52154 0
M  V30 2430 H 227.622 2.08746 -4.5302 0
M  V30 2431 H 226.776 4.41423 -4.1621 0
M  V30 2432 H 225.515 3.80138 -3.05526 0
M  V30 2433 H 224.52 2.44963 -4.92212 0
M  V30 2434 H 225.745 3.09242 -6.04604 0
M  V30 2435 H 223.691 4.74584 -4.52886 0
M  V30 2436 H 223.608 4.31716 -6.2061 0
M  V30 2437 H 224.876 5.36895 -5.65123 0
M  V30 2438 N 229.106 1.52395 0.401703 0
M  V30 2439 C 230.355 1.66044 1.14509 0
M  V30 2440 C 230.668 0.400216 1.91462 0
M  V30 2441 O 231.874 0.416632 2.68284 0
M  V30 2442 C 230.33 2.93388 2.0845 0
M  V30 2443 C 229.938 4.26545 1.36978 0
M  V30 2444 C 231.682 3.16402 2.83001 0
M  V30 2445 C 229.589 5.45007 2.29611 0
M  V30 2446 H 228.519 0.618562 0.431158 0
M  V30 2447 H 231.17 1.78886 0.40892 0
M  V30 2448 H 229.552 2.74263 2.8565 0
M  V30 2449 H 230.726 4.56179 0.650916 0
M  V30 2450 H 229.041 4.09692 0.74438 0
M  V30 2451 H 231.638 4.02085 3.52465 0
M  V30 2452 H 231.981 2.30943 3.46368 0
M  V30 2453 H 232.514 3.36034 2.12898 0
M  V30 2454 H 229.253 6.32835 1.70879 0
M  V30 2455 H 228.773 5.19702 2.9945 0
M  V30 2456 H 230.452 5.7838 2.89974 0
M  V30 2457 N 230.584 -0.659388 1.43143 0
M  V30 2458 C 231.494 -1.80167 1.50256 0
M  V30 2459 C 232.51 -1.69571 0.390106 0
M  V30 2460 O 233.686 -1.90849 0.643319 0
M  V30 2461 C 230.751 -3.16409 1.41725 0
M  V30 2462 C 229.812 -3.38848 2.63591 0
M  V30 2463 C 229.045 -4.68591 2.55458 0
M  V30 2464 O 229.268 -5.47532 1.59891 0
M  V30 2465 O 228.202 -4.92614 3.45854 0
M  V30 2466 H 232.028 -1.77121 2.46702 0
M  V30 2467 H 229.613 -0.817092 1.25076 0
M  V30 2468 H 231.495 -3.9768 1.39387 0
M  V30 2469 H 230.17 -3.20059 0.484118 0
M  V30 2470 H 229.077 -2.57366 2.71502 0
M  V30 2471 H 230.41 -3.4004 3.55856 0
M  V30 2472 N 232.062 -1.29571 -0.897171 0
M  V30 2473 C 233.311 -1.1706 -1.64256 0
M  V30 2474 C 233.624 0.276476 -1.93636 0
M  V30 2475 O 234.83 0.52294 -2.66416 0
M  V30 2476 C 233.286 -2.0475 -2.95982 0
M  V30 2477 C 232.894 -3.54295 -2.74187 0
M  V30 2478 C 234.638 -2.0097 -3.73914 0
M  V30 2479 C 232.545 -4.34081 -4.01656 0
M  V30 2480 H 231.475 -0.43452 -0.616205 0
M  V30 2481 H 234.126 -1.54229 -0.994268 0
M  V30 2482 H 232.508 -1.60452 -3.62038 0
M  V30 2483 H 233.682 -4.06662 -2.1671 0
M  V30 2484 H 231.997 -3.59773 -2.09648 0
M  V30 2485 H 234.594 -2.57838 -4.68427 0
M  V30 2486 H 234.937 -0.990273 -4.0435 0
M  V30 2487 H 235.47 -2.43325 -3.14703 0
M  V30 2488 H 232.209 -5.36671 -3.76384 0
M  V30 2489 H 231.729 -3.86483 -4.58684 0
M  V30 2490 H 233.408 -4.44877 -4.69781 0
M  V30 2491 N 233.54 1.10788 -1.12088 0
M  V30 2492 C 234.786 1.82942 -0.875226 0
M  V30 2493 C 235.119 1.84779 0.597538 0
M  V30 2494 O 234.394 1.30578 1.44152 0
M  V30 2495 C 234.677 3.29789 -1.44606 0
M  V30 2496 C 234.53 3.36307 -2.98693 0
M  V30 2497 C 235.849 4.26064 -1.10261 0
M  V30 2498 H 232.968 0.664195 -0.319397 0
M  V30 2499 H 235.61 1.29867 -1.38689 0
M  V30 2500 H 233.76 3.75118 -1.01089 0
M  V30 2501 H 235.432 2.99487 -3.50864 0
M  V30 2502 H 233.675 2.76318 -3.34411 0
M  V30 2503 H 234.346 4.39694 -3.33726 0
M  V30 2504 H 236.822 3.88951 -1.4784 0
M  V30 2505 H 235.698 5.27183 -1.52869 0
M  V30 2506 H 235.959 4.42098 -0.0142953 0
M  V30 2507 N 235.018 0.912232 1.28515 0
M  V30 2508 C 236.434 0.610159 1.47476 0
M  V30 2509 C 236.634 -0.844955 1.82928 0
M  V30 2510 O 235.69 -1.62416 1.93332 0
M  V30 2511 C 237.003 1.54675 2.57868 0
M  V30 2512 C 238.551 1.55331 2.71738 0
M  V30 2513 C 239.026 2.47649 3.85272 0
M  V30 2514 N 240.517 2.45767 3.92623 0
M  V30 2515 C 241.252 3.13896 4.79851 0
M  V30 2516 N 240.748 3.9135 5.71679 0
M  V30 2517 N 242.541 3.02991 4.73448 0
M  V30 2518 H 234.692 1.85318 1.03783 0
M  V30 2519 H 236.955 0.794777 0.516753 0
M  V30 2520 H 236.661 2.5841 2.38574 0
M  V30 2521 H 236.535 1.27671 3.54937 0
M  V30 2522 H 238.922 0.52335 2.90422 0
M  V30 2523 H 239.003 1.86378 1.75205 0
M  V30 2524 H 238.647 3.50745 3.67342 0
M  V30 2525 H 238.577 2.13904 4.81199 0
M  V30 2526 H 241.068 1.89503 3.26951 0
M  V30 2527 H 241.381 4.40359 6.35062 0
M  V30 2528 H 239.726 3.95455 5.71524 0
M  V30 2529 H 242.917 2.41987 4.007 0
M  V30 2530 H 243.09 3.5636 5.41213 0
M  V30 2531 N 236.496 -1.42363 0.676048 0
M  V30 2532 C 237.443 -2.308 -0.00150904 0
M  V30 2533 C 238.413 -1.46032 -0.791444 0
M  V30 2534 O 239.598 -1.74861 -0.76344 0
M  V30 2535 C 236.738 -3.31883 -0.945919 0
M  V30 2536 C 235.851 -4.31741 -0.149675 0
M  V30 2537 C 234.986 -5.19898 -1.08995 0
M  V30 2538 C 234.025 -6.11434 -0.285465 0
M  V30 2539 N 233.162 -6.92138 -1.17851 0
M  V30 2540 H 238.002 -2.88187 0.758455 0
M  V30 2541 H 235.539 -1.41952 0.38576 0
M  V30 2542 H 237.497 -3.89019 -1.50731 0
M  V30 2543 H 236.127 -2.76093 -1.6725 0
M  V30 2544 H 235.179 -3.76713 0.528359 0
M  V30 2545 H 236.491 -4.96534 0.474866 0
M  V30 2546 H 235.645 -5.81772 -1.72123 0
M  V30 2547 H 234.384 -4.55284 -1.74837 0
M  V30 2548 H 233.389 -5.48627 0.359018 0
M  V30 2549 H 234.614 -6.78097 0.368883 0
M  V30 2550 H 232.56 -6.30152 -1.82332 0
M  V30 2551 H 232.477 -7.53542 -0.609082 0
M  V30 2552 H 233.745 -7.58499 -1.79722 0
M  V30 2553 N 237.974 -0.419461 -1.51915 0
M  V30 2554 C 238.921 0.400927 -2.27291 0
M  V30 2555 C 239.891 1.03224 -1.30131 0
M  V30 2556 O 241.076 1.05455 -1.59009 0
M  V30 2557 C 238.216 1.50603 -3.10504 0
M  V30 2558 C 237.329 0.89462 -4.22635 0
M  V30 2559 C 236.464 1.97328 -4.93189 0
M  V30 2560 C 235.503 1.33935 -5.97267 0
M  V30 2561 N 234.64 2.3586 -6.61298 0
M  V30 2562 H 239.48 -0.248251 -2.96964 0
M  V30 2563 H 237.017 -0.134266 -1.46486 0
M  V30 2564 H 238.975 2.15783 -3.57062 0
M  V30 2565 H 237.605 2.12509 -2.42981 0
M  V30 2566 H 236.657 0.131583 -3.80172 0
M  V30 2567 H 237.969 0.391641 -4.9726 0
M  V30 2568 H 237.123 2.70211 -5.43204 0
M  V30 2569 H 235.862 2.50994 -4.18155 0
M  V30 2570 H 234.867 0.595896 -5.46561 0
M  V30 2571 H 236.092 0.810252 -6.74249 0
M  V30 2572 H 234.038 2.88639 -5.89087 0
M  V30 2573 H 233.955 1.90403 -7.3163 0
M  V30 2574 H 235.223 3.08282 -7.15949 0
M  V30 2575 N 239.452 1.56882 -0.150215 0
M  V30 2576 C 240.863 1.82995 0.370076 0
M  V30 2577 C 241.214 1.06907 1.64515 0
M  V30 2578 O 240.339 0.315369 2.1409 0
M  V30 2579 C 240.934 3.31942 0.678208 0
M  V30 2580 C 239.493 3.58625 1.14301 0
M  V30 2581 C 238.64 2.76792 0.167778 0
M  V30 2582 H 241.591 1.54209 -0.374858 0
M  V30 2583 H 241.612 3.48272 1.53254 0
M  V30 2584 H 241.124 3.87294 -0.249991 0
M  V30 2585 H 239.225 3.08664 2.08704 0
M  V30 2586 H 239.338 4.67073 1.06676 0
M  V30 2587 H 237.702 2.45972 0.661037 0
M  V30 2588 H 238.485 3.34916 -0.754069 0
M  V30 2589 N 240.93 -0.123565 1.57115 0
M  V30 2590 C 242.179 -0.830704 1.83799 0
M  V30 2591 C 242.492 -1.81259 0.735158 0
M  V30 2592 O 243.698 -2.56558 0.888278 0
M  V30 2593 C 242.154 -1.52802 3.25852 0
M  V30 2594 C 241.762 -0.587356 4.44133 0
M  V30 2595 C 243.506 -2.22056 3.61789 0
M  V30 2596 C 241.413 -1.28764 5.77212 0
M  V30 2597 H 240.343 -0.313967 0.685522 0
M  V30 2598 H 242.994 -0.0834359 1.8331 0
M  V30 2599 H 241.376 -2.32175 3.20797 0
M  V30 2600 H 242.55 0.172829 4.60476 0
M  V30 2601 H 240.865 -0.00201892 4.164 0
M  V30 2602 H 243.462 -2.75131 4.58483 0
M  V30 2603 H 243.805 -2.99644 2.88997 0
M  V30 2604 H 244.338 -1.49576 3.68608 0
M  V30 2605 H 241.077 -0.55314 6.53162 0
M  V30 2606 H 240.597 -2.01995 5.64764 0
M  V30 2607 H 242.276 -1.8221 6.20813 0
M  V30 2608 N 242.408 -1.52605 -0.393616 0
M  V30 2609 C 243.655 -1.67424 -1.1391 0
M  V30 2610 C 243.983 -0.411859 -1.90089 0
M  V30 2611 O 243.238 0.605626 -1.86093 0
M  V30 2612 C 243.537 -2.85721 -2.14705 0
M  V30 2613 C 243.203 -4.23342 -1.55218 0
M  V30 2614 C 241.865 -4.60771 -1.3872 0
M  V30 2615 C 244.217 -5.09041 -1.11924 0
M  V30 2616 C 241.545 -5.81563 -0.774689 0
M  V30 2617 C 243.897 -6.30452 -0.520853 0
M  V30 2618 C 242.561 -6.66617 -0.343134 0
M  V30 2619 H 241.831 -0.612648 -0.416826 0
M  V30 2620 H 244.478 -1.8674 -0.424315 0
M  V30 2621 H 242.783 -2.60803 -2.92385 0
M  V30 2622 H 244.48 -2.94382 -2.72288 0
M  V30 2623 H 241.07 -3.93855 -1.69045 0
M  V30 2624 H 245.254 -4.80695 -1.23473 0
M  V30 2625 H 240.51 -6.08196 -0.625154 0
M  V30 2626 H 244.684 -6.96175 -0.177065 0
M  V30 2627 H 242.311 -7.60083 0.133571 0
M  V30 2628 N 243.887 0.651787 -1.4349 0
M  V30 2629 C 244.834 1.76462 -1.4876 0
M  V30 2630 C 245.804 1.62641 -0.337189 0
M  V30 2631 O 246.989 1.82864 -0.544544 0
M  V30 2632 C 244.129 3.14623 -1.41796 0
M  V30 2633 C 243.242 3.39568 -2.67053 0
M  V30 2634 C 242.377 4.67585 -2.52068 0
M  V30 2635 C 241.416 4.85639 -3.72587 0
M  V30 2636 N 240.553 6.04915 -3.56402 0
M  V30 2637 H 245.393 1.71293 -2.43849 0
M  V30 2638 H 242.93 0.835889 -1.21043 0
M  V30 2639 H 244.888 3.94496 -1.35753 0
M  V30 2640 H 243.518 3.18859 -0.50288 0
M  V30 2641 H 242.57 2.53783 -2.8337 0
M  V30 2642 H 243.882 3.48795 -3.56572 0
M  V30 2643 H 243.036 5.55586 -2.4374 0
M  V30 2644 H 241.775 4.60681 -1.60075 0
M  V30 2645 H 240.78 3.96073 -3.81321 0
M  V30 2646 H 242.005 4.94372 -4.65589 0
M  V30 2647 H 239.951 5.9914 -2.67146 0
M  V30 2648 H 239.868 6.15106 -4.39524 0
M  V30 2649 H 241.136 6.95533 -3.51929 0
M  V30 2650 N 245.365 1.30045 0.890287 0
M  V30 2651 C 246.312 1.15976 1.99545 0
M  V30 2652 C 247.282 0.0506202 1.66023 0
M  V30 2653 O 248.467 0.219847 1.89529 0
M  V30 2654 C 245.607 0.852054 3.34416 0
M  V30 2655 C 244.72 2.04255 3.80662 0
M  V30 2656 C 243.855 1.6734 5.04154 0
M  V30 2657 C 242.894 2.82916 5.42794 0
M  V30 2658 N 242.031 2.46333 6.57468 0
M  V30 2659 H 246.871 2.10524 2.10911 0
M  V30 2660 H 244.408 1.04749 1.03276 0
M  V30 2661 H 246.366 0.654296 4.12037 0
M  V30 2662 H 244.996 -0.0565502 3.2275 0
M  V30 2663 H 244.048 2.35172 2.98995 0
M  V30 2664 H 245.36 2.90826 4.05242 0
M  V30 2665 H 244.514 1.43908 5.89386 0
M  V30 2666 H 243.253 0.779308 4.81433 0
M  V30 2667 H 242.258 3.0702 4.56091 0
M  V30 2668 H 243.483 3.73004 5.6749 0
M  V30 2669 H 241.429 1.59423 6.36334 0
M  V30 2670 H 241.346 3.26436 6.81891 0
M  V30 2671 H 242.614 2.26244 7.45945 0
M  V30 2672 N 246.843 -1.10192 1.12674 0
M  V30 2673 C 247.806 -2.14786 0.799979 0
M  V30 2674 C 248.806 -1.59711 -0.18685 0
M  V30 2675 O 249.996 -1.74156 0.0392558 0
M  V30 2676 C 247.128 -3.40374 0.189228 0
M  V30 2677 H 248.321 -2.45203 1.72671 0
M  V30 2678 H 245.874 -1.25597 0.930326 0
M  V30 2679 H 246.609 -3.15577 -0.747107 0
M  V30 2680 H 246.394 -3.81637 0.899766 0
M  V30 2681 H 247.884 -4.17594 -0.0228143 0
M  V30 2682 N 248.321 -0.919034 -1.28029 0
M  V30 2683 C 249.549 -0.570971 -1.98866 0
M  V30 2684 C 249.964 0.848996 -1.68634 0
M  V30 2685 O 249.321 1.56307 -0.942036 0
M  V30 2686 C 249.372 -0.776876 -3.53054 0
M  V30 2687 O 249.093 -2.14097 -3.82222 0
M  V30 2688 C 250.594 -0.436356 -4.41147 0
M  V30 2689 H 247.814 -0.217175 -0.634883 0
M  V30 2690 H 250.358 -1.23368 -1.63097 0
M  V30 2691 H 248.513 -0.161085 -3.87065 0
M  V30 2692 H 248.927 -2.18455 -4.76841 0
M  V30 2693 H 250.401 -0.63117 -5.4838 0
M  V30 2694 H 250.878 0.627686 -4.34692 0
M  V30 2695 H 251.484 -1.02991 -4.12641 0
M  V30 2696 N 249.799 1.42003 -0.683588 0
M  V30 2697 C 251.045 2.01712 -0.209825 0
M  V30 2698 C 251.378 1.53968 1.18353 0
M  V30 2699 O 250.653 0.745661 1.79639 0
M  V30 2700 C 250.936 3.59202 -0.254197 0
M  V30 2701 C 250.789 4.17102 -1.68363 0
M  V30 2702 C 252.108 4.38344 0.392709 0
M  V30 2703 H 249.227 0.732891 -0.0777189 0
M  V30 2704 H 251.869 1.68909 -0.87004 0
M  V30 2705 H 250.019 3.87278 0.307954 0
M  V30 2706 H 251.691 3.99946 -2.29871 0
M  V30 2707 H 249.934 3.72597 -2.22157 0
M  V30 2708 H 250.605 5.26249 -1.6663 0
M  V30 2709 H 253.081 4.16011 -0.0859162 0
M  V30 2710 H 251.957 5.47901 0.331063 0
M  V30 2711 H 252.218 4.16887 1.47164 0
M  V30 2712 N 251.277 0.427512 1.51691 0
M  V30 2713 C 252.505 -0.141191 2.06418 0
M  V30 2714 C 252.92 -1.37303 1.29589 0
M  V30 2715 O 252.277 -1.79059 0.352732 0
M  V30 2716 C 252.328 -0.473266 3.58389 0
M  V30 2717 O 252.049 0.709673 4.32314 0
M  V30 2718 C 253.55 -1.09371 4.29596 0
M  V30 2719 H 250.77 -0.0122747 0.670888 0
M  V30 2720 H 253.314 0.603764 1.95384 0
M  V30 2721 H 251.469 -1.16812 3.69369 0
M  V30 2722 H 251.883 0.42807 5.2275 0
M  V30 2723 H 253.357 -1.27613 5.37046 0
M  V30 2724 H 253.834 -2.072 3.87253 0
M  V30 2725 H 254.44 -0.43853 4.23033 0
M  V30 2726 N 252.755 -1.56801 0.158532 0
M  V30 2727 C 253.685 -2.20347 -0.772609 0
M  V30 2728 C 254.666 -1.15518 -1.24859 0
M  V30 2729 O 255.851 -1.43902 -1.30406 0
M  V30 2730 C 252.981 -2.83417 -2.00729 0
M  V30 2731 C 251.935 -3.94174 -1.66765 0
M  V30 2732 C 251.261 -4.44233 -2.97592 0
M  V30 2733 C 252.561 -5.14392 -0.905447 0
M  V30 2734 H 254.255 -2.98413 -0.242959 0
M  V30 2735 H 251.801 -1.43537 -0.115419 0
M  V30 2736 H 253.754 -3.26543 -2.6636 0
M  V30 2737 H 252.478 -2.02701 -2.56086 0
M  V30 2738 H 251.137 -3.51684 -1.03508 0
M  V30 2739 H 250.785 -3.60325 -3.50963 0
M  V30 2740 H 250.485 -5.18945 -2.75626 0
M  V30 2741 H 252.009 -4.90037 -3.64274 0
M  V30 2742 H 253.423 -5.5429 -1.46408 0
M  V30 2743 H 251.82 -5.9494 -0.7853 0
M  V30 2744 H 252.89 -4.84795 0.100668 0
M  V30 2745 N 254.233 0.115231 -1.57178 0
M  V30 2746 C 255.143 1.15994 -2.03918 0
M  V30 2747 C 256.159 1.45103 -0.960268 0
M  V30 2748 O 257.335 1.56144 -1.27204 0
M  V30 2749 C 254.4 2.46568 -2.43732 0
M  V30 2750 C 253.461 2.24822 -3.65723 0
M  V30 2751 C 252.694 3.4917 -4.03629 0
M  V30 2752 O 252.917 4.56623 -3.41835 0
M  V30 2753 O 251.851 3.39949 -4.96708 0
M  V30 2754 H 255.677 0.793019 -2.93164 0
M  V30 2755 H 253.262 0.3263 -1.45793 0
M  V30 2756 H 255.144 3.23492 -2.70057 0
M  V30 2757 H 253.819 2.82726 -1.57631 0
M  V30 2758 H 252.726 1.45744 -3.44542 0
M  V30 2759 H 254.059 1.93566 -4.52541 0
M  V30 2760 N 255.711 1.52812 0.385517 0
M  V30 2761 C 256.988 1.5861 1.14465 0
M  V30 2762 C 257.368 0.381402 2.07626 0
M  V30 2763 O 256.716 -0.629999 2.19643 0
M  V30 2764 C 256.926 2.92664 1.90128 0
M  V30 2765 C 258.274 3.46526 2.45367 0
M  V30 2766 O 259.298 2.94562 2.0028 0
M  V30 2767 O 258.157 4.37323 3.27736 0
M  V30 2768 H 255.251 0.639855 0.523941 0
M  V30 2769 H 257.797 1.65149 0.390389 0
M  V30 2770 H 256.569 3.71788 1.22022 0
M  V30 2771 H 256.192 2.89527 2.72507 0
M  V30 2772 N 257.189 -0.644168 1.43834 0
M  V30 2773 C 258.139 -1.7501 1.46135 0
M  V30 2774 C 259.123 -1.57507 0.328685 0
M  V30 2775 O 260.315 -1.67465 0.5731 0
M  V30 2776 C 257.444 -3.13641 1.39585 0
M  V30 2777 C 256.53 -3.3666 2.57916 0
M  V30 2778 N 256.921 -3.30107 3.83227 0
M  V30 2779 C 255.219 -3.67411 2.52834 0
M  V30 2780 C 255.92 -3.53456 4.61999 0
M  V30 2781 N 254.896 -3.75705 3.9287 0
M  V30 2782 H 258.698 -1.68382 2.40883 0
M  V30 2783 H 256.212 -0.846169 1.38614 0
M  V30 2784 H 258.209 -3.92933 1.39317 0
M  V30 2785 H 256.869 -3.21444 0.45865 0
M  V30 2786 H 257.88 -3.09316 4.15384 0
M  V30 2787 H 254.557 -3.82275 1.67845 0
M  V30 2788 H 255.947 -3.54093 5.71024 0
M  V30 2789 N 258.668 -1.30515 -0.883378 0
M  V30 2790 C 259.598 -1.19607 -2.00541 0
M  V30 2791 C 260.579 -0.086346 -1.69881 0
M  V30 2792 O 261.764 -0.268654 -1.92333 0
M  V30 2793 C 258.894 -0.888758 -3.35736 0
M  V30 2794 C 257.848 -1.95659 -3.8066 0
M  V30 2795 C 257.174 -1.50224 -5.13164 0
M  V30 2796 C 258.474 -3.36788 -3.99213 0
M  V30 2797 H 260.168 -2.13476 -2.09925 0
M  V30 2798 H 257.714 -1.02775 -1.00863 0
M  V30 2799 H 259.667 -0.799094 -4.13754 0
M  V30 2800 H 258.391 0.0856125 -3.26488 0
M  V30 2801 H 257.05 -2.03591 -3.04871 0
M  V30 2802 H 256.698 -0.516092 -5.00345 0
M  V30 2803 H 256.398 -2.2165 -5.44192 0
M  V30 2804 H 257.922 -1.42639 -5.93706 0
M  V30 2805 H 259.336 -3.31605 -4.67665 0
M  V30 2806 H 257.733 -4.06314 -4.41621 0
M  V30 2807 H 258.803 -3.78561 -3.03017 0
M  V30 2808 N 260.146 1.09593 -1.13257 0
M  V30 2809 C 261.109 2.14359 -0.811358 0
M  V30 2810 C 262.109 1.59808 0.178377 0
M  V30 2811 O 263.299 1.74132 -0.0484911 0
M  V30 2812 C 260.431 3.40269 -0.207276 0
M  V30 2813 H 261.624 2.44284 -1.73969 0
M  V30 2814 H 259.177 1.25102 -0.936973 0
M  V30 2815 H 259.912 3.15969 0.73036 0
M  V30 2816 H 259.697 3.81154 -0.919992 0
M  V30 2817 H 261.187 4.176 0.000667944 0
M  V30 2818 N 261.624 0.925811 1.2754 0
M  V30 2819 C 262.864 0.572521 1.96218 0
M  V30 2820 C 263.228 -0.869719 1.71172 0
M  V30 2821 O 264.429 -1.33119 2.33523 0
M  V30 2822 C 262.7 0.887325 3.4621 0
M  V30 2823 S 264.259 0.642266 4.34074 0
M  V30 2824 H 261.077 0.211403 0.678845 0
M  V30 2825 H 263.679 1.19384 1.54815 0
M  V30 2826 H 262.383 1.93469 3.61936 0
M  V30 2827 H 261.914 0.255123 3.92572 0
M  V30 2828 H 263.929 -0.500822 4.93666 0
M  V30 2829 N 263.102 -1.41638 0.69111 0
M  V30 2830 C 264.049 -2.30789 0.0229705 0
M  V30 2831 C 265.019 -1.46863 -0.775911 0
M  V30 2832 O 266.204 -1.75661 -0.74485 0
M  V30 2833 C 263.344 -3.32868 -0.910666 0
M  V30 2834 C 262.457 -4.31875 -0.103874 0
M  V30 2835 C 261.592 -5.21024 -1.03475 0
M  V30 2836 C 260.631 -6.11702 -0.220598 0
M  V30 2837 N 259.768 -6.93349 -1.10504 0
M  V30 2838 H 264.608 -2.87366 0.788978 0
M  V30 2839 H 262.145 -1.41535 0.400794 0
M  V30 2840 H 264.103 -3.90596 -1.46597 0
M  V30 2841 H 262.733 -2.77851 -1.64312 0
M  V30 2842 H 261.785 -3.76131 0.568285 0
M  V30 2843 H 263.097 -4.96003 0.527504 0
M  V30 2844 H 262.251 -5.83565 -1.65943 0
M  V30 2845 H 260.99 -4.57112 -1.69999 0
M  V30 2846 H 259.995 -5.48215 0.417187 0
M  V30 2847 H 261.22 -6.77668 0.440784 0
M  V30 2848 H 259.166 -6.3205 -1.75638 0
M  V30 2849 H 259.083 -7.54146 -0.529125 0
M  V30 2850 H 260.351 -7.60362 -1.71667 0
M  V30 2851 N 264.58 -0.43555 -1.51462 0
M  V30 2852 C 265.82 0.130708 -2.03982 0
M  V30 2853 C 266.184 1.40117 -1.31268 0
M  V30 2854 O 267.385 2.04755 -1.74152 0
M  V30 2855 C 265.656 0.346102 -3.5572 0
M  V30 2856 S 267.215 0.876022 -4.29967 0
M  V30 2857 H 264.033 0.0326881 -0.710248 0
M  V30 2858 H 266.635 -0.594544 -1.8624 0
M  V30 2859 H 265.339 -0.584911 -4.0621 0
M  V30 2860 H 264.87 1.09849 -3.77752 0
M  V30 2861 H 266.885 2.15379 -4.47019 0
M  V30 2862 N 266.058 1.56714 -0.166846 0
M  V30 2863 C 266.968 2.21331 0.777791 0
M  V30 2864 C 267.984 1.20358 1.25658 0
M  V30 2865 O 269.16 1.53005 1.30964 0
M  V30 2866 C 266.225 2.83787 1.99163 0
M  V30 2867 C 265.286 3.99947 1.56016 0
M  V30 2868 C 264.519 4.59415 2.71613 0
M  V30 2869 O 264.742 4.17769 3.88362 0
M  V30 2870 O 263.676 5.49359 2.45945 0
M  V30 2871 H 267.502 3.02605 0.257636 0
M  V30 2872 H 265.087 1.49275 0.0611393 0
M  V30 2873 H 266.969 3.23405 2.70161 0
M  V30 2874 H 265.644 2.05513 2.50092 0
M  V30 2875 H 264.551 3.65007 0.819809 0
M  V30 2876 H 265.884 4.79801 1.09782 0
M  V30 2877 N 267.536 -0.106894 1.57237 0
M  V30 2878 C 268.764 -0.826389 1.8968 0
M  V30 2879 C 269.179 -1.72856 0.759353 0
M  V30 2880 O 268.536 -1.80503 -0.269263 0
M  V30 2881 C 268.587 -1.64967 3.21665 0
M  V30 2882 O 268.308 -0.783804 4.31031 0
M  V30 2883 C 269.809 -2.47326 3.67892 0
M  V30 2884 H 267.029 -0.236927 0.627779 0
M  V30 2885 H 269.573 -0.0876593 2.04312 0
M  V30 2886 H 267.728 -2.34103 3.08666 0
M  V30 2887 H 268.142 -1.35284 5.06753 0
M  V30 2888 H 269.616 -3.00604 4.6297 0
M  V30 2889 H 270.093 -3.25247 2.95146 0
M  V30 2890 H 270.699 -1.83411 3.83719 0
M  V30 2891 N 269.014 -1.53014 -0.377408 0
M  V30 2892 C 270.26 -1.68872 -1.12294 0
M  V30 2893 C 270.593 -0.433224 -1.89306 0
M  V30 2894 O 269.868 0.569258 -1.85983 0
M  V30 2895 C 270.151 -2.93115 -2.09179 0
M  V30 2896 C 270.004 -4.28794 -1.35853 0
M  V30 2897 C 271.323 -3.12928 -3.09458 0
M  V30 2898 H 268.442 -0.614518 -0.406862 0
M  V30 2899 H 271.084 -1.85633 -0.40503 0
M  V30 2900 H 269.234 -2.78956 -2.70399 0
M  V30 2901 H 270.906 -4.54742 -0.775082 0
M  V30 2902 H 269.149 -4.28744 -0.660364 0
M  V30 2903 H 269.82 -5.11837 -2.06706 0
M  V30 2904 H 272.296 -3.26194 -2.58334 0
M  V30 2905 H 271.172 -4.01316 -3.74482 0
M  V30 2906 H 271.433 -2.27669 -3.78971 0
M  V30 2907 N 270.492 0.636531 -1.44174 0
M  V30 2908 C 271.455 1.73063 -1.50273 0
M  V30 2909 C 272.455 1.56113 -0.385397 0
M  V30 2910 O 273.645 1.61707 -0.64781 0
M  V30 2911 C 270.777 3.12096 -1.37145 0
M  V30 2912 H 271.97 1.69031 -2.47727 0
M  V30 2913 H 269.523 0.849706 -1.31186 0
M  V30 2914 H 270.258 3.21728 -0.407636 0
M  V30 2915 H 270.043 3.25805 -2.18159 0
M  V30 2916 H 271.533 3.91846 -1.44382 0
M  V30 2917 N 271.97 1.30982 0.876444 0
M  V30 2918 C 272.933 1.18054 1.96459 0
M  V30 2919 C 273.933 0.109399 1.60427 0
M  V30 2920 O 275.123 0.358173 1.70478 0
M  V30 2921 C 272.255 0.810616 3.31122 0
M  V30 2922 H 273.448 2.14735 2.09354 0
M  V30 2923 H 271.001 1.145 1.06392 0
M  V30 2924 H 271.736 -0.155322 3.23928 0
M  V30 2925 H 271.521 1.58481 3.58645 0
M  V30 2926 H 273.011 0.743876 4.10921 0
M  V30 2927 N 273.449 -1.08991 1.13837 0
M  V30 2928 C 274.412 -2.13925 0.822715 0
M  V30 2929 C 275.412 -1.599 -0.1699 0
M  V30 2930 O 276.602 -1.74104 0.0577251 0
M  V30 2931 C 273.734 -3.40155 0.225318 0
M  V30 2932 H 274.927 -2.43358 1.75262 0
M  V30 2933 H 272.48 -1.24603 0.943594 0
M  V30 2934 H 273.215 -3.16352 -0.713594 0
M  V30 2935 H 273 -3.80661 0.940193 0
M  V30 2936 H 274.49 -4.17594 0.0214784 0
M  V30 2937 N 274.927 -0.932562 -1.27047 0
M  V30 2938 C 276.343 -0.633544 -1.46487 0
M  V30 2939 C 276.543 0.815746 -1.84249 0
M  V30 2940 O 275.599 1.59319 -1.95892 0
M  V30 2941 C 276.912 -1.58758 -2.55375 0
M  V30 2942 C 278.46 -1.59634 -2.69232 0
M  V30 2943 C 278.935 -2.53747 -3.81283 0
M  V30 2944 N 280.426 -2.51982 -3.88664 0
M  V30 2945 C 281.161 -3.21491 -4.74796 0
M  V30 2946 N 280.657 -4.00395 -5.65381 0
M  V30 2947 N 282.45 -3.10485 -4.68568 0
M  V30 2948 H 274.601 -1.86946 -1.00821 0
M  V30 2949 H 276.864 -0.802897 -0.504044 0
M  V30 2950 H 276.57 -2.62172 -2.34432 0
M  V30 2951 H 276.444 -1.33301 -3.52861 0
M  V30 2952 H 278.831 -0.569488 -2.89553 0
M  V30 2953 H 278.912 -1.89142 -1.72218 0
M  V30 2954 H 278.556 -3.56545 -3.61715 0
M  V30 2955 H 278.486 -2.21532 -4.77735 0
M  V30 2956 H 280.977 -1.94681 -3.23895 0
M  V30 2957 H 281.29 -4.50406 -6.27976 0
M  V30 2958 H 279.635 -4.04498 -5.65161 0
M  V30 2959 H 282.826 -2.48331 -3.96799 0
M  V30 2960 H 282.999 -3.64925 -5.35475 0
M  V30 2961 N 276.405 1.4127 -0.698611 0
M  V30 2962 C 277.816 1.84187 -0.305289 0
M  V30 2963 C 278.167 1.58449 1.15708 0
M  V30 2964 O 277.292 1.05651 1.88856 0
M  V30 2965 C 277.887 3.3435 -0.547314 0
M  V30 2966 C 276.446 3.75826 -0.207878 0
M  V30 2967 C 275.593 2.64647 -0.828099 0
M  V30 2968 H 278.544 1.30778 -0.89904 0
M  V30 2969 H 278.565 3.8001 0.192998 0
M  V30 2970 H 278.077 3.53051 -1.61172 0
M  V30 2971 H 276.178 3.62725 0.852143 0
M  V30 2972 H 276.291 4.74462 -0.665021 0
M  V30 2973 H 274.655 2.53395 -0.257458 0
M  V30 2974 H 275.438 2.86165 -1.89643 0
M  V30 2975 N 277.883 0.443576 1.51229 0
M  V30 2976 C 279.129 -0.120975 2.02439 0
M  V30 2977 C 279.462 -1.41815 1.32674 0
M  V30 2978 O 278.737 -1.89373 0.443622 0
M  V30 2979 C 279.02 -0.333291 3.58554 0
M  V30 2980 C 278.873 0.982968 4.38928 0
M  V30 2981 C 280.192 -1.10028 4.26124 0
M  V30 2982 H 277.311 -0.0424923 0.735774 0
M  V30 2983 H 279.953 0.583794 1.80809 0
M  V30 2984 H 278.103 -0.933614 3.77115 0
M  V30 2985 H 279.775 1.61775 4.32003 0
M  V30 2986 H 278.018 1.58611 4.03763 0
M  V30 2987 H 278.689 0.788379 5.46341 0
M  V30 2988 H 281.165 -0.591711 4.11871 0
M  V30 2989 H 280.041 -1.21761 5.35225 0
M  V30 2990 H 280.302 -2.12996 3.87408 0
M  V30 2991 N 279.361 -1.56624 0.175154 0
M  V30 2992 C 280.589 -2.01374 -0.474971 0
M  V30 2993 C 281.004 -1.05537 -1.56548 0
M  V30 2994 O 280.361 -0.0568668 -1.82411 0
M  V30 2995 C 280.412 -3.45923 -1.04975 0
M  V30 2996 O 280.133 -4.381 -0.00276605 0
M  V30 2997 C 281.634 -4.06093 -1.77773 0
M  V30 2998 H 278.854 -0.659962 -0.121206 0
M  V30 2999 H 281.398 -2.02601 0.27801 0
M  V30 3000 H 279.553 -3.45458 -1.75321 0
M  V30 3001 H 279.967 -5.22753 -0.427681 0
M  V30 3002 H 281.441 -5.09147 -2.13245 0
M  V30 3003 H 281.918 -3.48405 -2.67414 0
M  V30 3004 H 282.524 -4.10272 -1.12059 0
M  V30 3005 N 280.839 0.0985539 -1.57292 0
M  V30 3006 C 282.255 0.45267 -1.53046 0
M  V30 3007 C 282.455 1.80713 -0.891342 0
M  V30 3008 O 281.511 2.4785 -0.482375 0
M  V30 3009 C 282.824 0.418341 -2.97776 0
M  V30 3010 C 284.372 0.500443 -3.08973 0
M  V30 3011 C 284.847 0.496297 -4.55303 0
M  V30 3012 N 286.338 0.557151 -4.59837 0
M  V30 3013 C 287.073 0.575726 -5.70502 0
M  V30 3014 N 286.569 0.550714 -6.90608 0
M  V30 3015 N 288.362 0.620277 -5.58667 0
M  V30 3016 H 280.513 -0.788673 -1.97215 0
M  V30 3017 H 282.776 -0.293188 -0.901524 0
M  V30 3018 H 282.482 -0.509659 -3.47988 0
M  V30 3019 H 282.356 1.2386 -3.56284 0
M  V30 3020 H 284.743 1.41886 -2.58751 0
M  V30 3021 H 284.824 -0.347894 -2.53423 0
M  V30 3022 H 284.468 -0.418162 -5.06176 0
M  V30 3023 H 284.398 1.3618 -5.08687 0
M  V30 3024 H 286.889 0.581816 -3.73394 0
M  V30 3025 H 287.202 0.568075 -7.70709 0
M  V30 3026 H 285.547 0.517816 -6.93068 0
M  V30 3027 H 288.738 0.637322 -4.63741 0
M  V30 3028 H 288.911 0.631283 -6.44918 0
M  V30 3029 N 282.317 1.53212 0.369288 0
M  V30 3030 C 283.542 1.73423 1.1375 0
M  V30 3031 C 283.967 0.460404 1.82378 0
M  V30 3032 O 283.325 -0.585298 1.71592 0
M  V30 3033 C 283.373 2.89769 2.1463 0
M  V30 3034 O 282.477 2.58119 3.21634 0
M  V30 3035 H 281.818 0.576061 0.330227 0
M  V30 3036 H 284.348 2.00083 0.427547 0
M  V30 3037 H 284.358 3.15829 2.58294 0
M  V30 3038 H 283.033 3.8217 1.64071 0
M  V30 3039 H 281.61 2.42864 2.82969 0
M  V30 3040 N 283.795 -0.628877 1.44509 0
M  V30 3041 C 285.206 -1.21054 1.42137 0
M  V30 3042 C 285.557 -1.95715 0.137881 0
M  V30 3043 O 284.682 -2.02554 -0.761645 0
M  V30 3044 C 285.277 -2.20189 2.57493 0
M  V30 3045 C 283.836 -2.73777 2.58308 0
M  V30 3046 C 282.983 -1.48813 2.33987 0
M  V30 3047 H 285.934 -0.41942 1.53057 0
M  V30 3048 H 285.955 -3.02833 2.30375 0
M  V30 3049 H 285.467 -1.6582 3.50892 0
M  V30 3050 H 283.568 -3.32142 1.68856 0
M  V30 3051 H 283.681 -3.19662 3.56865 0
M  V30 3052 H 282.045 -1.77024 1.83124 0
M  V30 3053 H 282.828 -0.963442 3.29504 0
M  V30 3054 N 285.273 -1.31445 -0.869486 0
M  V30 3055 C 286.521 -1.20918 -1.61936 0
M  V30 3056 C 286.842 0.232683 -1.93607 0
M  V30 3057 O 286.112 1.15352 -1.58338 0
M  V30 3058 H 284.692 -0.44454 -0.600328 0
M  V30 3059 H 287.354 -1.64776 -1.0409 0
M  V30 3060 H 286.45 -1.78124 -2.56278 0
M  V30 3061 N 286.751 1.08385 -1.14413 0
M  V30 3062 C 287.999 1.80419 -0.910679 0
M  V30 3063 C 288.32 1.86658 0.564243 0
M  V30 3064 O 287.59 1.35985 1.41014 0
M  V30 3065 H 286.17 0.668204 -0.333934 0
M  V30 3066 H 288.832 1.31037 -1.44275 0
M  V30 3067 H 287.928 2.83238 -1.31082 0
M  V30 3068 N 288.23 0.939286 1.26551 0
M  V30 3069 C 289.455 0.602008 1.98471 0
M  V30 3070 C 289.88 -0.815624 1.69497 0
M  V30 3071 O 289.238 -1.54912 0.941905 0
M  V30 3072 C 289.286 0.848407 3.50477 0
M  V30 3073 O 288.39 -0.0804009 4.12322 0
M  V30 3074 H 287.731 0.23049 0.622712 0
M  V30 3075 H 290.261 1.2617 1.61066 0
M  V30 3076 H 290.271 0.768553 4.00696 0
M  V30 3077 H 288.946 1.88171 3.70897 0
M  V30 3078 H 287.523 0.0503508 3.72866 0
M  V30 3079 N 289.708 -1.40897 0.706093 0
M  V30 3080 C 290.64 -2.29199 0.00815776 0
M  V30 3081 C 291.653 -1.45336 -0.733582 0
M  V30 3082 O 292.842 -1.68727 -0.582537 0
M  V30 3083 C 289.942 -3.23417 -1.01265 0
M  V30 3084 C 289.115 -4.36089 -0.338387 0
M  V30 3085 C 288.174 -5.10811 -1.26326 0
M  V30 3086 O 287.2 -5.64215 -0.751651 0
M  V30 3087 N 288.402 -5.19269 -2.595 0
M  V30 3088 H 291.167 -2.89738 0.766297 0
M  V30 3089 H 288.728 -1.52164 0.55296 0
M  V30 3090 H 290.72 -3.70276 -1.63334 0
M  V30 3091 H 289.29 -2.64112 -1.67223 0
M  V30 3092 H 288.51 -3.91479 0.462352 0
M  V30 3093 H 289.798 -5.08634 0.130031 0
M  V30 3094 H 289.196 -4.77347 -3.03573 0
M  V30 3095 H 287.753 -5.69667 -3.16737 0
M  V30 3096 N 291.186 -0.45159 -1.50991 0
M  V30 3097 C 292.096 0.358431 -2.31846 0
M  V30 3098 C 293.112 1.01438 -1.41373 0
M  V30 3099 O 294.288 1.00663 -1.74439 0
M  V30 3100 C 291.353 1.43704 -3.15515 0
M  V30 3101 C 290.414 0.799742 -4.21785 0
M  V30 3102 C 289.647 1.82696 -5.01456 0
M  V30 3103 O 289.87 3.05105 -4.81941 0
M  V30 3104 O 288.804 1.40958 -5.85162 0
M  V30 3105 H 292.63 -0.302032 -3.02194 0
M  V30 3106 H 290.215 -0.213825 -1.47862 0
M  V30 3107 H 292.097 2.06227 -3.67489 0
M  V30 3108 H 290.772 2.08133 -2.47916 0
M  V30 3109 H 289.679 0.136084 -3.73852 0
M  V30 3110 H 291.012 0.198718 -4.91799 0
M  V30 3111 N 292.664 1.56529 -0.183458 0
M  V30 3112 C 293.596 2.15747 0.773697 0
M  V30 3113 C 294.609 1.1162 1.1851 0
M  V30 3114 O 295.798 1.3876 1.12285 0
M  V30 3115 C 292.898 2.6952 2.05456 0
M  V30 3116 C 292.071 3.98429 1.8048 0
M  V30 3117 C 291.13 4.37145 2.92901 0
M  V30 3118 O 290.156 5.04791 2.6301 0
M  V30 3119 N 291.358 3.99695 4.2098 0
M  V30 3120 H 294.123 2.98505 0.26736 0
M  V30 3121 H 291.684 1.619 -0.0010878 0
M  V30 3122 H 293.676 2.92412 2.79781 0
M  V30 3123 H 292.246 1.91282 2.47245 0
M  V30 3124 H 291.466 3.8379 0.899947 0
M  V30 3125 H 292.754 4.82597 1.61175 0
M  V30 3126 H 292.152 3.4526 4.48121 0
M  V30 3127 H 290.709 4.27562 4.9197 0
M  V30 3128 N 294.142 -0.090211 1.57342 0
M  V30 3129 C 295.558 -0.444547 1.53284 0
M  V30 3130 C 295.758 -1.80238 0.900914 0
M  V30 3131 O 294.814 -2.4759 0.495513 0
M  V30 3132 C 296.127 -0.402543 2.97993 0
M  V30 3133 C 297.675 -0.48405 3.09234 0
M  V30 3134 C 298.15 -0.472144 4.5556 0
M  V30 3135 N 299.641 -0.532757 4.60126 0
M  V30 3136 C 300.376 -0.545462 5.708 0
M  V30 3137 N 299.872 -0.514082 6.9089 0
M  V30 3138 N 301.665 -0.59064 5.58988 0
M  V30 3139 H 293.816 0.799121 1.96794 0
M  V30 3140 H 296.079 0.297965 0.899956 0
M  V30 3141 H 295.785 0.528106 3.47712 0
M  V30 3142 H 295.659 -1.21969 3.56936 0
M  V30 3143 H 298.046 -1.40512 2.595 0
M  V30 3144 H 298.127 0.361328 2.53235 0
M  V30 3145 H 297.771 0.445 5.05947 0
M  V30 3146 H 297.701 -1.3348 5.09402 0
M  V30 3147 H 300.192 -0.562006 3.73698 0
M  V30 3148 H 300.505 -0.527195 7.71 0
M  V30 3149 H 298.85 -0.481054 6.93333 0
M  V30 3150 H 302.041 -0.61272 4.64073 0
M  V30 3151 H 302.214 -0.597073 6.45243 0
M  V30 3152 N 295.62 -1.53406 -0.361157 0
M  V30 3153 C 296.583 -1.79479 -1.42548 0
M  V30 3154 C 297.583 -0.665327 -1.4639 0
M  V30 3155 O 298.773 -0.933549 -1.47073 0
M  V30 3156 C 295.905 -1.92087 -2.8163 0
M  V30 3157 H 297.098 -2.74538 -1.20701 0
M  V30 3158 H 294.651 -1.4455 -0.594546 0
M  V30 3159 H 295.386 -0.991099 -3.08784 0
M  V30 3160 H 295.171 -2.74241 -2.80239 0
M  V30 3161 H 296.661 -2.13836 -3.58697 0
M  V30 3162 N 297.098 0.621204 -1.44841 0
M  V30 3163 C 298.045 1.73267 -1.5247 0
M  V30 3164 C 299.015 1.6189 -0.371611 0
M  V30 3165 O 300.2 1.81668 -0.58321 0
M  V30 3166 C 297.34 3.11545 -1.48438 0
M  V30 3167 C 296.453 3.33827 -2.74196 0
M  V30 3168 C 295.588 4.62133 -2.61929 0
M  V30 3169 C 294.627 4.77627 -3.82804 0
M  V30 3170 N 293.764 5.97219 -3.69153 0
M  V30 3171 H 298.604 1.66082 -2.47428 0
M  V30 3172 H 296.141 0.810026 -1.22788 0
M  V30 3173 H 298.099 3.91528 -1.4409 0
M  V30 3174 H 296.729 3.1772 -0.570402 0
M  V30 3175 H 295.781 2.47715 -2.88689 0
M  V30 3176 H 297.093 3.41153 -3.6389 0
M  V30 3177 H 296.247 5.50291 -2.5547 0
M  V30 3178 H 294.986 4.57182 -1.69811 0
M  V30 3179 H 293.991 3.87896 -3.89637 0
M  V30 3180 H 295.216 4.84385 -4.75971 0
M  V30 3181 H 293.162 5.93339 -2.79794 0
M  V30 3182 H 293.079 6.05644 -4.52472 0
M  V30 3183 H 294.347 6.87912 -3.66603 0
M  V30 3184 N 298.576 1.31904 0.862503 0
M  V30 3185 C 299.804 1.24998 1.64873 0
M  V30 3186 C 300.219 -0.183425 1.87907 0
M  V30 3187 O 299.576 -1.11794 1.44251 0
M  V30 3188 C 299.627 1.99829 3.01248 0
M  V30 3189 O 299.348 3.37575 2.79239 0
M  V30 3190 C 300.849 1.99852 3.95694 0
M  V30 3191 H 298.069 0.431599 0.513773 0
M  V30 3192 H 300.613 1.73901 1.07604 0
M  V30 3193 H 298.768 1.54668 3.55185 0
M  V30 3194 H 299.182 3.75776 3.65914 0
M  V30 3195 H 300.656 2.56709 4.88676 0
M  V30 3196 H 301.133 0.982852 4.28062 0
M  V30 3197 H 301.739 2.44926 3.47694 0
M  V30 3198 N 300.054 -1.07777 1.14986 0
M  V30 3199 C 301.465 -1.61766 0.932127 0
M  V30 3200 C 301.816 -1.88974 -0.527581 0
M  V30 3201 O 300.941 -1.65198 -1.39781 0
M  V30 3202 C 301.536 -2.93891 1.68563 0
M  V30 3203 C 300.095 -3.44639 1.5133 0
M  V30 3204 C 299.242 -2.18767 1.704 0
M  V30 3205 H 302.193 -0.909201 1.30074 0
M  V30 3206 H 302.214 -3.62623 1.15259 0
M  V30 3207 H 301.726 -2.74057 2.74799 0
M  V30 3208 H 299.827 -3.69564 0.474702 0
M  V30 3209 H 299.94 -4.20966 2.28746 0
M  V30 3210 H 298.304 -2.28253 1.13016 0
M  V30 3211 H 299.087 -2.01433 2.77992 0
M  V30 3212 N 301.532 -0.945985 -1.26051 0
M  V30 3213 C 302.464 -0.416662 -2.25381 0
M  V30 3214 C 303.477 0.462712 -1.56086 0
M  V30 3215 O 304.666 0.272383 -1.7641 0
M  V30 3216 C 301.766 0.419812 -3.3629 0
M  V30 3217 C 300.939 -0.444531 -4.35135 0
M  V30 3218 C 299.998 0.332305 -5.2515 0
M  V30 3219 O 299.024 -0.266324 -5.68577 0
M  V30 3220 N 300.226 1.62763 -5.57215 0
M  V30 3221 H 302.991 -1.27059 -2.71433 0
M  V30 3222 H 300.552 -0.815392 -1.39868 0
M  V30 3223 H 302.544 0.947013 -3.93464 0
M  V30 3224 H 301.114 1.17456 -2.89694 0
M  V30 3225 H 300.334 -1.15291 -3.76964 0
M  V30 3226 H 301.622 -1.03478 -4.98166 0
M  V30 3227 H 301.02 2.13603 -5.23823 0
M  V30 3228 H 299.577 2.10097 -6.17011 0
M  V30 3229 N 303.011 1.40521 -0.713556 0
M  V30 3230 C 304.239 2.05237 -0.261775 0
M  V30 3231 C 304.654 1.53755 1.09567 0
M  V30 3232 O 304.011 0.693268 1.6882 0
M  V30 3233 C 304.062 3.60763 -0.230706 0
M  V30 3234 O 303.783 4.10345 -1.53455 0
M  V30 3235 C 305.284 4.42651 0.239874 0
M  V30 3236 H 302.504 0.660533 -0.118057 0
M  V30 3237 H 305.048 1.79967 -0.971192 0
M  V30 3238 H 303.203 3.8501 0.429661 0
M  V30 3239 H 303.617 5.04526 -1.43366 0
M  V30 3240 H 305.091 5.51599 0.210468 0
M  V30 3241 H 305.568 4.20082 1.28171 0
M  V30 3242 H 306.174 4.23507 -0.390142 0
M  V30 3243 N 304.489 0.459591 1.5075 0
M  V30 3244 C 305.905 0.113092 1.59199 0
M  V30 3245 C 306.105 -1.37951 1.46874 0
M  V30 3246 O 305.161 -2.15168 1.32132 0
M  V30 3247 C 306.474 0.653043 2.93523 0
M  V30 3248 C 308.022 0.615449 3.0689 0
M  V30 3249 C 308.497 1.13275 4.43771 0
M  V30 3250 N 309.988 1.09167 4.50152 0
M  V30 3251 C 310.723 1.46256 5.54434 0
M  V30 3252 N 310.219 1.90739 6.66026 0
M  V30 3253 N 312.012 1.37932 5.44914 0
M  V30 3254 H 304.163 1.43049 1.57005 0
M  V30 3255 H 306.426 0.590861 0.741341 0
M  V30 3256 H 306.132 1.69822 3.07983 0
M  V30 3257 H 306.006 0.0902132 3.77092 0
M  V30 3258 H 308.393 -0.420793 2.92084 0
M  V30 3259 H 308.474 1.21495 2.25106 0
M  V30 3260 H 308.118 2.16757 4.59324 0
M  V30 3261 H 308.048 0.509576 5.24129 0
M  V30 3262 H 310.539 0.76528 3.7007 0
M  V30 3263 H 310.852 2.17218 7.41644 0
M  V30 3264 H 309.197 1.94683 6.67176 0
M  V30 3265 H 312.388 1.0303 4.56621 0
M  V30 3266 H 312.561 1.67164 6.26067 0
M  V30 3267 N 305.967 -1.56429 0.191757 0
M  V30 3268 C 307.213 -1.97777 -0.448554 0
M  V30 3269 C 307.546 -1.07847 -1.61501 0
M  V30 3270 O 306.821 -0.129774 -1.94067 0
M  V30 3271 C 307.104 -3.48362 -0.911906 0
M  V30 3272 C 306.957 -4.4907 0.256136 0
M  V30 3273 C 308.276 -4.02561 -1.77857 0
M  V30 3274 H 305.395 -0.719071 -0.161572 0
M  V30 3275 H 308.037 -1.87896 0.282007 0
M  V30 3276 H 306.187 -3.56914 -1.53442 0
M  V30 3277 H 307.859 -4.5256 0.893733 0
M  V30 3278 H 306.102 -4.24181 0.908436 0
M  V30 3279 H 306.773 -5.51889 -0.11053 0
M  V30 3280 H 309.249 -3.96767 -1.25359 0
M  V30 3281 H 308.125 -5.08301 -2.07174 0
M  V30 3282 H 308.386 -3.47616 -2.73158 0
M  V30 3283 N 307.445 0.0818655 -1.57387 0
M  V30 3284 C 308.673 0.796108 -1.9097 0
M  V30 3285 C 309.088 1.71626 -0.786757 0
M  V30 3286 O 308.445 1.80908 0.240513 0
M  V30 3287 C 308.496 1.59829 -3.24248 0
M  V30 3288 O 308.217 0.715131 -4.32224 0
M  V30 3289 C 309.718 2.41442 -3.7178 0
M  V30 3290 H 306.938 0.22691 -0.631469 0
M  V30 3291 H 309.482 0.0551439 -2.04426 0
M  V30 3292 H 307.637 2.29163 -3.12351 0
M  V30 3293 H 308.051 1.27205 -5.08841 0
M  V30 3294 H 309.525 2.932 -4.67694 0
M  V30 3295 H 310.002 3.2051 -3.00283 0
M  V30 3296 H 310.608 1.77283 -3.86589 0
M  V30 3297 N 308.923 1.53595 0.353017 0
M  V30 3298 C 310.172 1.69603 1.09168 0
M  V30 3299 C 310.485 0.460925 1.90092 0
M  V30 3300 O 311.691 0.501774 2.66823 0
M  V30 3301 C 310.147 2.99872 1.9901 0
M  V30 3302 C 309.755 4.30687 1.23339 0
M  V30 3303 C 311.499 3.25246 2.72792 0
M  V30 3304 C 309.406 5.52036 2.12156 0
M  V30 3305 H 308.336 0.631966 0.411261 0
M  V30 3306 H 310.987 1.80096 0.351802 0
M  V30 3307 H 309.369 2.83212 2.7678 0
M  V30 3308 H 310.543 4.58019 0.505456 0
M  V30 3309 H 308.858 4.11853 0.613663 0
M  V30 3310 H 311.455 4.13095 3.39495 0
M  V30 3311 H 311.798 2.41846 3.38846 0
M  V30 3312 H 312.331 3.42638 2.021 0
M  V30 3313 H 309.07 6.37951 1.50659 0
M  V30 3314 H 308.59 5.28966 2.82764 0
M  V30 3315 H 310.269 5.87313 2.71427 0
M  V30 3316 N 310.401 -0.613514 1.45168 0
M  V30 3317 C 311.817 -0.933629 1.29443 0
M  V30 3318 C 312.017 -2.00028 0.243101 0
M  V30 3319 O 311.073 -2.49848 -0.364992 0
M  V30 3320 C 312.386 -1.38018 2.67155 0
M  V30 3321 C 313.934 -1.49471 2.75004 0
M  V30 3322 C 314.409 -1.97503 4.13227 0
M  V30 3323 N 315.9 -2.04746 4.15491 0
M  V30 3324 C 316.635 -2.43121 5.19307 0
M  V30 3325 N 316.131 -2.80506 6.33473 0
M  V30 3326 N 317.924 -2.43408 5.06664 0
M  V30 3327 H 310.075 0.0916097 2.12202 0
M  V30 3328 H 312.338 -0.0216655 0.947752 0
M  V30 3329 H 312.044 -0.670625 3.45247 0
M  V30 3330 H 311.918 -2.34784 2.95222 0
M  V30 3331 H 314.305 -2.19519 1.9722 0
M  V30 3332 H 314.386 -0.510342 2.50657 0
M  V30 3333 H 314.03 -1.28045 4.91495 0
M  V30 3334 H 313.96 -2.96843 4.34962 0
M  V30 3335 H 316.451 -1.78468 3.33103 0
M  V30 3336 H 316.764 -3.08652 7.08487 0
M  V30 3337 H 315.109 -2.78216 6.36884 0
M  V30 3338 H 318.3 -2.13604 4.16523 0
M  V30 3339 H 318.473 -2.72989 5.87691 0
M  V30 3340 N 311.879 -1.3236 -0.855495 0
M  V30 3341 C 313.107 -1.2587 -1.64208 0
M  V30 3342 C 313.522 0.173457 -1.88002 0
M  V30 3343 O 312.879 1.11027 -1.44842 0
M  V30 3344 C 312.93 -2.01424 -3.00184 0
M  V30 3345 O 312.651 -3.39051 -2.77445 0
M  V30 3346 C 314.152 -2.01948 -3.94629 0
M  V30 3347 H 311.372 -0.434318 -0.511477 0
M  V30 3348 H 313.916 -1.74469 -1.0668 0
M  V30 3349 H 312.071 -1.56549 -3.5436 0
M  V30 3350 H 312.485 -3.77711 -3.63916 0
M  V30 3351 H 313.959 -2.59297 -4.87308 0
M  V30 3352 H 314.436 -1.00554 -4.27534 0
M  V30 3353 H 315.042 -2.46767 -3.4639 0
M  V30 3354 N 313.357 1.07166 -1.15556 0
M  V30 3355 C 314.603 1.80065 -0.932984 0
M  V30 3356 C 314.936 1.86586 0.53845 0
M  V30 3357 O 314.211 1.35098 1.39924 0
M  V30 3358 C 314.494 3.25022 -1.55025 0
M  V30 3359 C 314.347 3.26634 -3.09242 0
M  V30 3360 C 315.666 4.22341 -1.2376 0
M  V30 3361 H 312.785 0.653697 -0.340366 0
M  V30 3362 H 315.427 1.25389 -1.4275 0
M  V30 3363 H 313.577 3.71712 -1.12972 0
M  V30 3364 H 315.249 2.88173 -3.60214 0
M  V30 3365 H 313.492 2.65539 -3.43033 0
M  V30 3366 H 314.163 4.28854 -3.47546 0
M  V30 3367 H 316.639 3.8405 -1.60139 0
M  V30 3368 H 315.515 5.22053 -1.69564 0
M  V30 3369 H 315.776 4.41828 -0.154938 0
M  V30 3370 N 314.835 0.952656 1.25548 0
M  V30 3371 C 316.251 0.656769 1.4546 0
M  V30 3372 C 316.451 -0.78633 1.85524 0
M  V30 3373 O 315.507 -1.56183 1.98402 0
M  V30 3374 C 316.82 1.62801 2.52817 0
M  V30 3375 C 318.368 1.63897 2.66659 0
M  V30 3376 C 318.843 2.5978 3.77198 0
M  V30 3377 N 320.334 2.58133 3.84606 0
M  V30 3378 C 321.069 3.29003 4.69621 0
M  V30 3379 N 320.565 4.09339 5.58939 0
M  V30 3380 N 322.358 3.179 4.63569 0
M  V30 3381 H 314.509 1.88526 0.978344 0
M  V30 3382 H 316.772 0.810815 0.491206 0
M  V30 3383 H 316.478 2.65869 2.30232 0
M  V30 3384 H 316.352 1.38898 3.50695 0
M  V30 3385 H 318.739 0.615481 2.8861 0
M  V30 3386 H 318.82 1.91858 1.69187 0
M  V30 3387 H 318.464 3.62254 3.55997 0
M  V30 3388 H 318.394 2.29105 4.7415 0
M  V30 3389 H 320.885 1.99809 3.20757 0
M  V30 3390 H 321.198 4.6034 6.20731 0
M  V30 3391 H 319.543 4.13438 5.58654 0
M  V30 3392 H 322.734 2.54612 3.92798 0
M  V30 3393 H 322.907 3.73398 5.29602 0
M  V30 3394 N 316.313 -1.40141 0.720998 0
M  V30 3395 C 317.559 -2.01084 0.263231 0
M  V30 3396 C 317.892 -1.57052 -1.14229 0
M  V30 3397 O 317.167 -0.793027 -1.77599 0
M  V30 3398 C 317.45 -3.58401 0.349344 0
M  V30 3399 C 317.303 -4.12491 1.79363 0
M  V30 3400 C 318.622 -4.39231 -0.276351 0
M  V30 3401 H 315.741 -0.730572 0.0971228 0
M  V30 3402 H 318.383 -1.66543 0.914518 0
M  V30 3403 H 316.533 -3.87958 -0.205165 0
M  V30 3404 H 318.205 -3.93711 2.40394 0
M  V30 3405 H 316.448 -3.66576 2.31958 0
M  V30 3406 H 317.119 -5.21646 1.80524 0
M  V30 3407 H 319.595 -4.15637 0.196184 0
M  V30 3408 H 318.471 -5.48586 -0.185681 0
M  V30 3409 H 318.732 -4.20643 -1.36059 0
M  V30 3410 N 317.792 -0.46758 -1.50504 0
M  V30 3411 C 319.208 -0.121533 -1.59137 0
M  V30 3412 C 319.408 1.3717 -1.47603 0
M  V30 3413 O 318.464 2.14464 -1.33272 0
M  V30 3414 C 319.777 -0.6686 -2.93173 0
M  V30 3415 C 321.325 -0.631716 -3.06559 0
M  V30 3416 C 321.8 -1.15627 -4.43164 0
M  V30 3417 N 323.291 -1.11553 -4.49567 0
M  V30 3418 C 324.026 -1.49195 -5.5365 0
M  V30 3419 N 323.522 -1.94269 -6.65005 0
M  V30 3420 N 325.315 -1.4082 -5.44175 0
M  V30 3421 H 317.466 -1.4388 -1.56245 0
M  V30 3422 H 319.729 -0.594784 -0.738198 0
M  V30 3423 H 319.435 -1.71453 -3.07078 0
M  V30 3424 H 319.309 -0.11021 -3.77039 0
M  V30 3425 H 321.696 0.405297 -2.92304 0
M  V30 3426 H 321.777 -1.22687 -2.24458 0
M  V30 3427 H 321.421 -2.1919 -4.58168 0
M  V30 3428 H 321.351 -0.537365 -5.23851 0
M  V30 3429 H 323.842 -0.784895 -3.69659 0
M  V30 3430 H 324.155 -2.21148 -7.40482 0
M  V30 3431 H 322.5 -1.98219 -6.66134 0
M  V30 3432 H 325.691 -1.0545 -4.56068 0
M  V30 3433 H 325.864 -1.70481 -6.25172 0
M  V30 3434 N 319.27 1.56325 -0.20005 0
M  V30 3435 C 320.686 1.58839 0.155716 0
M  V30 3436 C 320.886 1.21636 1.60645 0
M  V30 3437 O 319.942 0.941437 2.34293 0
M  V30 3438 C 321.255 3.0032 -0.151124 0
M  V30 3439 C 322.803 3.12866 -0.0916284 0
M  V30 3440 C 323.278 4.56488 -0.371845 0
M  V30 3441 N 324.769 4.62089 -0.320641 0
M  V30 3442 C 325.504 5.71116 -0.511243 0
M  V30 3443 N 325 6.88592 -0.762461 0
M  V30 3444 N 326.793 5.60335 -0.445157 0
M  V30 3445 H 318.944 1.78788 -1.14668 0
M  V30 3446 H 321.207 0.829996 -0.458051 0
M  V30 3447 H 320.913 3.32117 -1.15721 0
M  V30 3448 H 320.787 3.73257 0.543986 0
M  V30 3449 H 323.174 2.80878 0.905065 0
M  V30 3450 H 323.255 2.42304 -0.81989 0
M  V30 3451 H 322.899 4.89189 -1.36588 0
M  V30 3452 H 322.829 5.25246 0.377362 0
M  V30 3453 H 325.32 3.77665 -0.13329 0
M  V30 3454 H 325.633 7.67581 -0.896576 0
M  V30 3455 H 323.978 6.90387 -0.799412 0
M  V30 3456 H 327.169 4.67436 -0.249278 0
M  V30 3457 H 327.342 6.45243 -0.597116 0
M  V30 3458 N 320.748 -0.0735177 1.57428 0
M  V30 3459 C 322.159 -0.625551 1.75908 0
M  V30 3460 C 322.51 -1.78 0.825261 0
M  V30 3461 O 321.635 -2.16398 0.00893964 0
M  V30 3462 C 322.23 -1.14155 3.18989 0
M  V30 3463 C 320.789 -1.63946 3.38819 0
M  V30 3464 C 319.936 -0.558151 2.71625 0
M  V30 3465 H 322.887 0.152647 1.57964 0
M  V30 3466 H 322.908 -2.0104 3.23053 0
M  V30 3467 H 322.42 -0.301116 3.8693 0
M  V30 3468 H 320.521 -2.50321 2.7599 0
M  V30 3469 H 320.634 -1.71759 4.47253 0
M  V30 3470 H 318.998 -1.00278 2.34129 0
M  V30 3471 H 319.781 0.272071 3.4222 0
M  V30 3472 N 322.226 -1.5378 -0.344866 0
M  V30 3473 C 323.637 -1.62428 -0.920552 0
M  V30 3474 C 323.988 -0.504747 -1.89596 0
M  V30 3475 O 323.113 0.365711 -2.13287 0
M  V30 3476 C 323.708 -2.94419 -1.67639 0
M  V30 3477 C 322.267 -3.05333 -2.20111 0
M  V30 3478 C 321.414 -2.57866 -1.01982 0
M  V30 3479 H 324.365 -1.58222 -0.123042 0
M  V30 3480 H 324.386 -2.83384 -2.53917 0
M  V30 3481 H 323.898 -3.7588 -0.966224 0
M  V30 3482 H 321.999 -2.28502 -2.94308 0
M  V30 3483 H 322.112 -4.10778 -2.46573 0
M  V30 3484 H 320.476 -2.13241 -1.39285 0
M  V30 3485 H 321.259 -3.41765 -0.324308 0
M  V30 3486 N 323.704 0.605807 -1.45491 0
M  V30 3487 C 324.651 1.7164 -1.54299 0
M  V30 3488 C 325.621 1.61486 -0.388761 0
M  V30 3489 O 326.806 1.81039 -0.602445 0
M  V30 3490 C 323.946 3.09953 -1.51734 0
M  V30 3491 C 323.059 3.309 -2.77721 0
M  V30 3492 C 322.194 4.59329 -2.66816 0
M  V30 3493 C 321.233 4.7354 -3.87848 0
M  V30 3494 N 320.37 5.9327 -3.75467 0
M  V30 3495 H 325.21 1.63449 -2.49176 0
M  V30 3496 H 322.747 0.796957 -1.23641 0
M  V30 3497 H 324.705 3.89977 -1.48235 0
M  V30 3498 H 323.335 3.17098 -0.604068 0
M  V30 3499 H 322.387 2.44639 -2.913 0
M  V30 3500 H 323.699 3.37274 -3.67488 0
M  V30 3501 H 322.853 5.4755 -2.61292 0
M  V30 3502 H 321.592 4.55355 -1.74651 0
M  V30 3503 H 320.597 3.83741 -3.93729 0
M  V30 3504 H 321.822 4.79309 -4.81082 0
M  V30 3505 H 319.768 5.90338 -2.86072 0
M  V30 3506 H 319.685 6.00811 -4.5887 0
M  V30 3507 H 320.953 6.83984 -3.73879 0
M  V30 3508 N 325.182 1.32811 0.848464 0
M  V30 3509 C 326.43 1.23479 1.59991 0
M  V30 3510 C 326.751 -0.201853 1.93952 0
M  V30 3511 O 326.021 -1.12818 1.60153 0
M  V30 3512 H 324.601 0.454034 0.593179 0
M  V30 3513 H 327.263 1.66412 1.01455 0
M  V30 3514 H 326.359 1.82178 2.53412 0
M  V30 3515 N 326.66 -1.06551 1.16123 0
M  V30 3516 C 327.607 -2.13961 0.865414 0
M  V30 3517 C 328.577 -1.65066 -0.185055 0
M  V30 3518 O 329.762 -1.90732 -0.05083 0
M  V30 3519 C 326.902 -3.43113 0.369776 0
M  V30 3520 C 326.015 -4.05756 1.48276 0
M  V30 3521 C 325.15 -5.22773 0.942414 0
M  V30 3522 C 324.189 -5.77395 2.03179 0
M  V30 3523 N 323.326 -6.85731 1.50721 0
M  V30 3524 H 328.166 -2.38605 1.78527 0
M  V30 3525 H 325.703 -1.17072 0.890646 0
M  V30 3526 H 327.661 -4.17151 0.0640643 0
M  V30 3527 H 326.291 -3.18695 -0.513143 0
M  V30 3528 H 325.343 -3.29292 1.9045 0
M  V30 3529 H 326.655 -4.42351 2.30493 0
M  V30 3530 H 325.809 -6.03827 0.589729 0
M  V30 3531 H 324.548 -4.87618 0.0895191 0
M  V30 3532 H 323.553 -4.94981 2.3932 0
M  V30 3533 H 324.778 -6.14603 2.8886 0
M  V30 3534 H 322.724 -6.52499 0.676811 0
M  V30 3535 H 322.641 -7.21254 2.26557 0
M  V30 3536 H 323.909 -7.7047 1.18303 0
M  V30 3537 N 328.138 -0.959301 -1.25041 0
M  V30 3538 C 329.088 -0.453888 -2.23436 0
M  V30 3539 C 330.072 0.459461 -1.542 0
M  V30 3540 O 331.264 0.291752 -1.74579 0
M  V30 3541 C 328.393 0.262667 -3.42294 0
M  V30 3542 C 327.479 -0.669022 -4.1879 0
M  V30 3543 N 327.87 -1.80267 -4.72586 0
M  V30 3544 C 326.168 -0.47814 -4.4343 0
M  V30 3545 C 326.869 -2.38475 -5.3057 0
M  V30 3546 N 325.845 -1.67078 -5.17287 0
M  V30 3547 H 329.647 -1.319 -2.6264 0
M  V30 3548 H 327.161 -0.817358 -1.40332 0
M  V30 3549 H 329.158 0.641911 -4.11929 0
M  V30 3550 H 327.818 1.12432 -3.04613 0
M  V30 3551 H 328.829 -2.18442 -4.69578 0
M  V30 3552 H 325.506 0.340249 -4.16111 0
M  V30 3553 H 326.896 -3.34094 -5.8295 0
M  V30 3554 N 329.616 1.39756 -0.72842 0
M  V30 3555 C 331.032 1.5442 -0.403308 0
M  V30 3556 C 331.232 1.69694 1.08656 0
M  V30 3557 O 330.288 1.69373 1.87267 0
M  V30 3558 C 331.601 2.76555 -1.18058 0
M  V30 3559 C 333.149 2.90384 -1.16815 0
M  V30 3560 C 333.624 4.15449 -1.92785 0
M  V30 3561 N 335.115 4.22475 -1.89918 0
M  V30 3562 C 335.85 5.1818 -2.45514 0
M  V30 3563 N 335.346 6.19714 -3.09719 0
M  V30 3564 N 337.139 5.1035 -2.35584 0
M  V30 3565 H 329.29 1.28089 -1.69431 0
M  V30 3566 H 331.553 0.620327 -0.716867 0
M  V30 3567 H 331.259 2.7159 -2.23455 0
M  V30 3568 H 331.133 3.69033 -0.780662 0
M  V30 3569 H 333.52 2.94846 -0.12234 0
M  V30 3570 H 333.601 1.98988 -1.6074 0
M  V30 3571 H 333.245 4.11749 -2.97364 0
M  V30 3572 H 333.175 5.05877 -1.46272 0
M  V30 3573 H 335.666 3.49743 -1.43138 0
M  V30 3574 H 335.979 6.8919 -3.49625 0
M  V30 3575 H 334.324 6.20121 -3.13807 0
M  V30 3576 H 337.515 4.2996 -1.85072 0
M  V30 3577 H 337.688 5.84761 -2.79211 0
M  V30 3578 N 331.094 0.475555 1.50254 0
M  V30 3579 C 332.041 -0.316293 2.28622 0
M  V30 3580 C 333.011 -0.983227 1.33873 0
M  V30 3581 O 334.196 -0.994805 1.62814 0
M  V30 3582 C 331.336 -1.38975 3.1588 0
M  V30 3583 C 330.449 -0.737146 4.25664 0
M  V30 3584 C 329.584 -1.78887 5.00173 0
M  V30 3585 C 328.623 -1.11676 6.01826 0
M  V30 3586 N 327.76 -2.11154 6.69596 0
M  V30 3587 H 332.6 0.358297 2.95838 0
M  V30 3588 H 330.137 0.188541 1.45887 0
M  V30 3589 H 332.095 -2.02383 3.64825 0
M  V30 3590 H 330.725 -2.03344 2.50701 0
M  V30 3591 H 329.777 0.0096065 3.80399 0
M  V30 3592 H 331.089 -0.206816 4.98371 0
M  V30 3593 H 330.243 -2.49865 5.52859 0
M  V30 3594 H 328.982 -2.35302 4.27182 0
M  V30 3595 H 327.987 -0.392633 5.48396 0
M  V30 3596 H 329.212 -0.55945 6.76792 0
M  V30 3597 H 327.158 -2.66577 5.99394 0
M  V30 3598 H 327.075 -1.63118 7.38193 0
M  V30 3599 H 328.343 -2.81497 7.26897 0
M  V30 3600 N 332.573 -1.56217 0.208337 0
M  V30 3601 C 333.82 -1.97949 -0.42692 0
M  V30 3602 C 334.148 -1.09562 -1.60706 0
M  V30 3603 O 333.403 -0.137616 -1.95216 0
M  V30 3604 C 333.702 -3.45441 -0.916797 0
M  V30 3605 C 333.368 -4.50646 0.151391 0
M  V30 3606 C 332.03 -4.79139 0.444867 0
M  V30 3607 C 334.382 -5.13811 0.874492 0
M  V30 3608 C 331.71 -5.68084 1.46619 0
M  V30 3609 C 334.062 -6.03861 1.88506 0
M  V30 3610 C 332.726 -6.30704 2.18559 0
M  V30 3611 H 331.996 -0.724345 -0.156221 0
M  V30 3612 H 334.643 -1.89006 0.308084 0
M  V30 3613 H 332.948 -3.51521 -1.73032 0
M  V30 3614 H 334.645 -3.75094 -1.41794 0
M  V30 3615 H 331.235 -4.28511 -0.0875068 0
M  V30 3616 H 335.419 -4.91879 0.660996 0
M  V30 3617 H 330.675 -5.87151 1.7048 0
M  V30 3618 H 334.849 -6.51861 2.45051 0
M  V30 3619 H 332.476 -6.99424 2.97843 0
M  V30 3620 N 334.051 0.0651679 -1.57465 0
M  V30 3621 C 334.998 1.07675 -2.04144 0
M  V30 3622 C 335.968 1.38071 -0.923335 0
M  V30 3623 O 337.153 1.49026 -1.19146 0
M  V30 3624 C 334.293 2.38337 -2.49579 0
M  V30 3625 C 333.406 2.14413 -3.75035 0
M  V30 3626 C 332.541 3.38686 -4.09225 0
M  V30 3627 C 331.58 3.10156 -5.27702 0
M  V30 3628 N 330.717 4.26778 -5.57499 0
M  V30 3629 H 335.557 0.671716 -2.90331 0
M  V30 3630 H 333.094 0.3201 -1.43575 0
M  V30 3631 H 335.052 3.14632 -2.73975 0
M  V30 3632 H 333.682 2.7663 -1.6636 0
M  V30 3633 H 332.734 1.2878 -3.57939 0
M  V30 3634 H 334.046 1.89344 -4.61466 0
M  V30 3635 H 333.2 4.23373 -4.34558 0
M  V30 3636 H 331.939 3.66837 -3.21374 0
M  V30 3637 H 330.944 2.23866 -5.02159 0
M  V30 3638 H 332.169 2.8332 -6.17176 0
M  V30 3639 H 330.115 4.54948 -4.72608 0
M  V30 3640 H 330.032 4.05005 -6.38362 0
M  V30 3641 H 331.3 5.12443 -5.87386 0
M  V30 3642 N 335.529 1.53961 0.336706 0
M  V30 3643 C 336.479 1.7881 1.41461 0
M  V30 3644 C 337.463 0.643561 1.47469 0
M  V30 3645 O 338.655 0.903166 1.52223 0
M  V30 3646 C 335.784 2.00722 2.78506 0
M  V30 3647 C 334.87 3.2126 2.76862 0
M  V30 3648 N 335.261 4.42588 2.44845 0
M  V30 3649 C 333.559 3.22568 3.08004 0
M  V30 3650 C 334.26 5.2447 2.51607 0
M  V30 3651 N 333.236 4.61344 2.87511 0
M  V30 3652 H 337.038 2.70205 1.15615 0
M  V30 3653 H 334.552 1.52978 0.545112 0
M  V30 3654 H 336.549 2.1666 3.5618 0
M  V30 3655 H 335.209 1.10573 3.05293 0
M  V30 3656 H 336.22 4.69819 2.17922 0
M  V30 3657 H 332.897 2.42409 3.39918 0
M  V30 3658 H 334.287 6.31324 2.29955 0
M  V30 3659 N 337.007 -0.598083 1.45811 0
M  V30 3660 C 338.235 -1.38322 1.53866 0
M  V30 3661 C 338.65 -1.87992 0.174479 0
M  V30 3662 O 338.007 -1.62756 -0.825627 0
M  V30 3663 C 338.058 -2.58125 2.53089 0
M  V30 3664 O 337.779 -2.10516 3.84206 0
M  V30 3665 C 339.28 -3.50869 2.70935 0
M  V30 3666 H 336.5 -0.423093 0.520801 0
M  V30 3667 H 339.044 -0.728527 1.91083 0
M  V30 3668 H 337.199 -3.19615 2.18917 0
M  V30 3669 H 337.613 -2.88425 4.38077 0
M  V30 3670 H 339.087 -4.31451 3.44317 0
M  V30 3671 H 339.564 -4.01822 1.77301 0
M  V30 3672 H 340.17 -2.95225 3.06141 0
M  V30 3673 N 338.485 -1.33259 -0.841409 0
M  V30 3674 C 339.435 -1.19872 -1.93945 0
M  V30 3675 C 340.419 -0.102269 -1.60575 0
M  V30 3676 O 341.611 -0.330114 -1.73894 0
M  V30 3677 C 338.74 -0.937517 -3.30251 0
M  V30 3678 C 337.826 -2.07629 -3.69799 0
M  V30 3679 N 338.217 -3.32604 -3.81062 0
M  V30 3680 C 336.515 -1.98242 -3.9952 0
M  V30 3681 C 337.216 -4.07275 -4.15333 0
M  V30 3682 N 336.192 -3.35691 -4.27566 0
M  V30 3683 H 339.994 -2.14604 -2.00805 0
M  V30 3684 H 337.508 -1.2523 -1.03398 0
M  V30 3685 H 339.505 -0.822545 -4.08705 0
M  V30 3686 H 338.165 0.00128798 -3.247 0
M  V30 3687 H 339.176 -3.67382 -3.65035 0
M  V30 3688 H 335.853 -1.12005 -4.02195 0
M  V30 3689 H 337.243 -5.1511 -4.31406 0
M  V30 3690 N 339.963 1.05934 -1.16686 0
M  V30 3691 C 341.24 1.75643 -0.860747 0
M  V30 3692 C 341.62 2.01144 0.640641 0
M  V30 3693 O 340.968 1.64147 1.58959 0
M  V30 3694 C 341.178 3.05493 -1.68745 0
M  V30 3695 C 342.526 3.79581 -1.90271 0
M  V30 3696 O 343.55 3.15344 -1.65641 0
M  V30 3697 O 342.409 4.9499 -2.31618 0
M  V30 3698 H 339.503 0.763426 -0.317977 0
M  V30 3699 H 342.049 1.1217 -1.27342 0
M  V30 3700 H 340.821 2.8264 -2.70611 0
M  V30 3701 H 340.444 3.76702 -1.27206 0
M  V30 3702 N 341.441 0.965919 1.2453 0
M  V30 3703 C 342.388 0.49402 2.25451 0
M  V30 3704 C 343.358 -0.45948 1.59618 0
M  V30 3705 O 344.543 -0.370238 1.87173 0
M  V30 3706 C 341.683 -0.211359 3.44452 0
M  V30 3707 C 340.796 0.7807 4.24887 0
M  V30 3708 C 339.931 0.0516105 5.31175 0
M  V30 3709 C 338.97 1.03385 6.03306 0
M  V30 3710 N 338.107 0.334887 7.01301 0
M  V30 3711 H 342.947 1.35946 2.65184 0
M  V30 3712 H 340.484 0.681515 1.3036 0
M  V30 3713 H 342.442 -0.637 4.12308 0
M  V30 3714 H 341.072 -1.04077 3.05562 0
M  V30 3715 H 340.124 1.32479 3.56586 0
M  V30 3716 H 341.436 1.52978 4.74762 0
M  V30 3717 H 340.59 -0.432114 6.05159 0
M  V30 3718 H 339.329 -0.730179 4.82203 0
M  V30 3719 H 338.334 1.52847 5.28127 0
M  V30 3720 H 339.559 1.81606 6.54367 0
M  V30 3721 H 337.505 -0.427959 6.54603 0
M  V30 3722 H 337.422 1.02287 7.49048 0
M  V30 3723 H 338.69 -0.126928 7.79397 0
M  V30 3724 N 342.919 -1.39368 0.735821 0
M  V30 3725 C 344.147 -2.04795 0.294393 0
M  V30 3726 C 344.562 -1.55478 -1.07107 0
M  V30 3727 O 343.919 -0.720038 -1.67695 0
M  V30 3728 C 343.97 -3.6035 0.288071 0
M  V30 3729 O 343.691 -4.07852 1.59963 0
M  V30 3730 C 345.192 -4.42976 -0.169422 0
M  V30 3731 H 342.412 -0.658571 0.128551 0
M  V30 3732 H 344.956 -1.78399 0.999701 0
M  V30 3733 H 343.111 -3.85645 -0.368355 0
M  V30 3734 H 343.525 -5.02181 1.51375 0
M  V30 3735 H 344.999 -5.51864 -0.122687 0
M  V30 3736 H 345.476 -4.22068 -1.21472 0
M  V30 3737 H 346.082 -4.22832 0.457469 0
M  V30 3738 N 344.397 -0.483516 -1.5 0
M  V30 3739 C 345.36 0.292965 -2.2732 0
M  V30 3740 C 346.36 0.909499 -1.32608 0
M  V30 3741 O 347.55 0.776745 -1.55924 0
M  V30 3742 C 344.682 1.41854 -3.09984 0
M  V30 3743 H 345.875 -0.385289 -2.97415 0
M  V30 3744 H 343.428 -0.237942 -1.54478 0
M  V30 3745 H 344.163 2.13148 -2.44414 0
M  V30 3746 H 343.948 0.982114 -3.79601 0
M  V30 3747 H 345.438 1.96597 -3.68429 0
M  V30 3748 N 345.875 1.56104 -0.216619 0
M  V30 3749 C 346.805 2.23063 0.690296 0
M  V30 3750 C 347.786 1.20072 1.20485 0
M  V30 3751 O 348.971 1.48643 1.24976 0
M  V30 3752 C 346.101 2.90672 1.90072 0
M  V30 3753 C 345.055 4.00092 1.5202 0
M  V30 3754 C 344.381 4.54972 2.80899 0
M  V30 3755 C 345.681 5.17398 0.71391 0
M  V30 3756 H 347.375 2.99109 0.132038 0
M  V30 3757 H 344.921 1.43866 0.0620664 0
M  V30 3758 H 346.874 3.36204 2.54057 0
M  V30 3759 H 345.598 2.12066 2.48386 0
M  V30 3760 H 344.257 3.55283 0.903839 0
M  V30 3761 H 343.905 3.73102 3.37348 0
M  V30 3762 H 343.605 5.28817 2.56176 0
M  V30 3763 H 345.129 5.0322 3.45836 0
M  V30 3764 H 346.543 5.59342 1.25735 0
M  V30 3765 H 344.94 5.97444 0.563951 0
M  V30 3766 H 346.01 4.84088 -0.280527 0
M  V30 3767 N 347.353 -0.0568162 1.57498 0
M  V30 3768 C 348.3 -1.06591 2.04712 0
M  V30 3769 C 349.27 -1.3758 0.930644 0
M  V30 3770 O 350.455 -1.48392 1.19935 0
M  V30 3771 C 347.595 -2.3701 2.50839 0
M  V30 3772 C 346.708 -2.12421 3.76167 0
M  V30 3773 C 345.843 -3.36511 4.11015 0
M  V30 3774 C 344.882 -3.07353 5.2934 0
M  V30 3775 N 344.019 -4.23816 5.59754 0
M  V30 3776 H 348.859 -0.65631 2.90683 0
M  V30 3777 H 346.396 -0.312481 1.43743 0
M  V30 3778 H 348.354 -3.13175 2.7564 0
M  V30 3779 H 346.984 -2.75744 1.67825 0
M  V30 3780 H 346.036 -1.2688 3.58616 0
M  V30 3781 H 347.348 -1.86894 4.62463 0
M  V30 3782 H 346.502 -4.21062 4.36797 0
M  V30 3783 H 345.241 -3.65128 3.23315 0
M  V30 3784 H 344.246 -2.212 5.03339 0
M  V30 3785 H 345.471 -2.80043 6.1867 0
M  V30 3786 H 343.417 -4.52436 4.75014 0
M  V30 3787 H 343.334 -4.01614 6.40501 0
M  V30 3788 H 344.602 -5.0932 5.90096 0
M  V30 3789 N 348.832 -1.54138 -0.328536 0
M  V30 3790 C 349.742 -1.86192 -1.42723 0
M  V30 3791 C 350.758 -0.753382 -1.56844 0
M  V30 3792 O 351.934 -1.04718 -1.72035 0
M  V30 3793 C 348.999 -2.07824 -2.77507 0
M  V30 3794 C 348.06 -3.31641 -2.72603 0
M  V30 3795 C 347.293 -3.52232 -4.00959 0
M  V30 3796 O 347.516 -2.7636 -4.9898 0
M  V30 3797 O 346.45 -4.45699 -4.0452 0
M  V30 3798 H 350.276 -2.79608 -1.18547 0
M  V30 3799 H 347.861 -1.3998 -0.522104 0
M  V30 3800 H 349.743 -2.23411 -3.57303 0
M  V30 3801 H 348.418 -1.17596 -3.01584 0
M  V30 3802 H 347.325 -3.21444 -1.91376 0
M  V30 3803 H 348.658 -4.2191 -2.53481 0
M  V30 3804 N 350.31 0.590341 -1.46126 0
M  V30 3805 C 351.538 1.37504 -1.54597 0
M  V30 3806 C 351.953 1.87897 -0.184447 0
M  V30 3807 O 351.31 1.63192 0.816984 0
M  V30 3808 C 351.361 2.56779 -2.54454 0
M  V30 3809 O 351.082 2.08476 -3.85317 0
M  V30 3810 C 352.583 3.49427 -2.72792 0
M  V30 3811 H 349.803 0.420325 -0.523037 0
M  V30 3812 H 352.347 0.718383 -1.91467 0
M  V30 3813 H 350.502 3.1845 -2.20609 0
M  V30 3814 H 350.916 2.86097 -4.396 0
M  V30 3815 H 352.39 4.29619 -3.466 0
M  V30 3816 H 352.867 4.00876 -1.79429 0
M  V30 3817 H 353.473 2.93598 -3.07702 0
M  V30 3818 N 351.788 1.33704 0.83433 0
M  V30 3819 C 352.718 1.26967 1.95963 0
M  V30 3820 C 353.699 0.149337 1.69443 0
M  V30 3821 O 354.884 0.339852 1.91203 0
M  V30 3822 C 352.014 1.01275 3.32206 0
M  V30 3823 C 350.968 2.09652 3.73136 0
M  V30 3824 C 350.294 1.69166 5.07235 0
M  V30 3825 C 351.594 3.51372 3.86439 0
M  V30 3826 H 353.288 2.2112 2.01857 0
M  V30 3827 H 350.834 1.06447 0.969793 0
M  V30 3828 H 352.787 0.952106 4.10503 0
M  V30 3829 H 351.511 0.0356203 3.26581 0
M  V30 3830 H 350.17 2.14766 2.97104 0
M  V30 3831 H 349.818 0.701437 4.98085 0
M  V30 3832 H 349.518 2.41694 5.35591 0
M  V30 3833 H 351.042 1.64576 5.88003 0
M  V30 3834 H 352.456 3.48734 4.55036 0
M  V30 3835 H 350.853 4.22425 4.26236 0
M  V30 3836 H 351.923 3.89546 2.88759 0
M  V30 3837 N 353.266 -1.05314 1.17247 0
M  V30 3838 C 354.514 -1.77941 0.958194 0
M  V30 3839 C 354.835 -1.88089 -0.514556 0
M  V30 3840 O 354.105 -1.39676 -1.37359 0
M  V30 3841 H 352.685 -0.659116 0.351533 0
M  V30 3842 H 355.347 -1.27166 1.47699 0
M  V30 3843 H 354.443 -2.79663 1.38546 0
M  V30 3844 N 354.744 -0.972509 -1.24016 0
M  V30 3845 C 355.707 -0.511403 -2.23422 0
M  V30 3846 C 356.707 0.394679 -1.55881 0
M  V30 3847 O 357.897 0.189469 -1.73167 0
M  V30 3848 C 355.029 0.258769 -3.39916 0
M  V30 3849 H 356.222 -1.39024 -2.6573 0
M  V30 3850 H 353.775 -0.757585 -1.36713 0
M  V30 3851 H 354.51 1.1545 -3.03054 0
M  V30 3852 H 354.295 -0.391522 -3.9014 0
M  V30 3853 H 355.785 0.570244 -4.13688 0
M  V30 3854 O 356.261 1.3537 -0.880752 0
M  V30 3855 H 356.952 1.87543 -0.484504 0
M  V30 END ATOM
M  V30 BEGIN BOND
M  V30 END BOND
M  V30 END CTAB
M  END
$$$$
