drugbank_target|P01137 Transforming growth factor beta-1 (DB00070; DB01162; DB06205; DB10770; DB10772; DB14740)
 OpenBabel12092119443D

  0  0  0     0  0            999 V3000
M  V30 BEGIN CTAB
M  V30 COUNTS 6256 6334 0 0 0
M  V30 BEGIN ATOM
M  V30 1 H -0.908 1.98254 -0.117106 0
M  V30 2 N 0 1.576 0 0
M  V30 3 C 0.933 2.03868 1.02534 0
M  V30 4 C 1.911 0.928543 1.3348 0
M  V30 5 O 3.095 1.19667 1.45644 0
M  V30 6 C 0.222 2.43627 2.35294 0
M  V30 7 C -0.732 3.65373 2.2001 0
M  V30 8 S 0.101 5.13292 1.52614 0
M  V30 9 C 1.257 5.56322 2.86805 0
M  V30 10 H 1.49 2.90518 0.631377 0
M  V30 11 H -0.977 1.52953 0.210867 0
M  V30 12 H 0.981 2.67203 3.11629 0
M  V30 13 H -0.358 1.57376 2.7183 0
M  V30 14 H -1.165 3.90944 3.18086 0
M  V30 15 H -1.563 3.418 1.51819 0
M  V30 16 H 0.729 5.58782 3.83104 0
M  V30 17 H 1.672 6.56266 2.65933 0
M  V30 18 H 2.08 4.83886 2.90714 0
M  V30 19 N 1.4781 -0.272755 1.55222 0
M  V30 20 C 2.8891 -0.84378 1.66545 0
M  V30 21 C 3.2401 -1.87035 0.592641 0
M  V30 22 O 2.3651 -2.14761 -0.265818 0
M  V30 23 C 2.9601 -1.53723 3.01918 0
M  V30 24 C 1.5191 -2.05628 3.15268 0
M  V30 25 C 0.6661 -0.898424 2.62343 0
M  V30 26 H 3.6171 -0.0490998 1.58624 0
M  V30 27 H 3.6381 -2.40421 2.94921 0
M  V30 28 H 3.1501 -0.78983 3.79978 0
M  V30 29 H 1.2511 -2.83329 2.41983 0
M  V30 30 H 1.3641 -2.27142 4.21833 0
M  V30 31 H -0.2719 -1.29186 2.19506 0
M  V30 32 H 0.5111 -0.164528 3.42906 0
M  V30 33 N 2.9562 -1.48159 -0.537278 0
M  V30 34 C 4.3672 -1.49429 -1.11928 0
M  V30 35 C 4.7182 -0.26 -1.9447 0
M  V30 36 O 3.8432 0.633489 -2.0692 0
M  V30 37 C 4.4382 -2.70758 -2.03656 0
M  V30 38 C 2.9972 -2.74923 -2.57088 0
M  V30 39 C 2.1442 -2.42835 -1.3389 0
M  V30 40 H 5.0952 -1.55381 -0.322886 0
M  V30 41 H 5.1162 -2.48861 -2.87834 0
M  V30 42 H 4.6282 -3.60575 -1.43553 0
M  V30 43 H 2.7292 -1.89296 -3.20933 0
M  V30 44 H 2.8422 -3.76157 -2.9672 0
M  V30 45 H 1.2062 -1.93836 -1.65226 0
M  V30 46 H 1.9892 -3.34884 -0.755504 0
M  V30 47 N 4.4343 0.785586 -1.36625 0
M  V30 48 C 5.6593 1.57963 -1.34397 0
M  V30 49 C 6.0843 1.87964 0.071526 0
M  V30 50 O 5.4423 1.48182 1.0446 0
M  V30 51 C 5.4903 2.87511 -2.17646 0
M  V30 52 O 4.5943 3.81281 -1.57158 0
M  V30 53 H 3.9353 0.479014 -0.459828 0
M  V30 54 H 6.4653 0.973411 -1.79961 0
M  V30 55 H 6.4753 3.36745 -2.30362 0
M  V30 56 H 5.1503 2.65002 -3.20541 0
M  V30 57 H 3.7273 3.39885 -1.53403 0
M  V30 58 N 5.9124 1.20967 1.01018 0
M  V30 59 C 7.1604 1.02172 1.74371 0
M  V30 60 C 7.4814 -0.446414 1.89821 0
M  V30 61 O 6.7514 -1.32234 1.44537 0
M  V30 62 H 5.3314 0.375066 0.646014 0
M  V30 63 H 7.9934 1.52187 1.21758 0
M  V30 64 H 7.0894 1.48538 2.74487 0
M  V30 65 N 7.3905 -1.2043 1.01659 0
M  V30 66 C 8.3205 -2.25466 0.607226 0
M  V30 67 C 9.3015 -1.65853 -0.377716 0
M  V30 68 O 10.4865 -1.92409 -0.263149 0
M  V30 69 C 7.6165 -3.47256 -0.0552949 0
M  V30 70 C 6.5705 -4.19462 0.850632 0
M  V30 71 C 5.8965 -5.34673 0.0538859 0
M  V30 72 C 7.1965 -4.75603 2.15868 0
M  V30 73 H 8.8905 -2.59962 1.48526 0
M  V30 74 H 6.4365 -1.2496 0.715605 0
M  V30 75 H 8.3895 -4.19917 -0.353233 0
M  V30 76 H 7.1135 -3.11924 -0.968045 0
M  V30 77 H 5.7725 -3.48667 1.13257 0
M  V30 78 H 5.4205 -4.95585 -0.860514 0
M  V30 79 H 5.1205 -5.83913 0.657192 0
M  V30 80 H 6.6445 -6.10138 -0.237598 0
M  V30 81 H 8.0585 -5.40083 1.92311 0
M  V30 82 H 6.4555 -5.3528 2.71284 0
M  V30 83 H 7.5255 -3.94346 2.82169 0
M  V30 84 N 8.8686 -0.792821 -1.36206 0
M  V30 85 C 10.2846 -0.474903 -1.52371 0
M  V30 86 C 10.4846 1.00622 -1.74578 0
M  V30 87 O 9.5406 1.79162 -1.77924 0
M  V30 88 C 10.8536 -1.3083 -2.70747 0
M  V30 89 C 12.4016 -1.30234 -2.84619 0
M  V30 90 C 12.8766 -2.11956 -4.06004 0
M  V30 91 N 14.3676 -2.09419 -4.13156 0
M  V30 92 C 15.1026 -2.69419 -5.06163 0
M  V30 93 N 14.5986 -3.3829 -6.04592 0
M  V30 94 N 16.3916 -2.59134 -4.98804 0
M  V30 95 H 8.5426 -1.75222 -1.20046 0
M  V30 96 H 10.8056 -0.745024 -0.586211 0
M  V30 97 H 10.5116 -2.35881 -2.6087 0
M  V30 98 H 10.3856 -0.95196 -3.6499 0
M  V30 99 H 12.7726 -0.259748 -2.93955 0
M  V30 100 H 12.8536 -1.69847 -1.91274 0
M  V30 101 H 12.4976 -3.16248 -3.97429 0
M  V30 102 H 12.4276 -1.69711 -4.98503 0
M  V30 103 H 14.9186 -1.59297 -3.42685 0
M  V30 104 H 15.2316 -3.81394 -6.7213 0
M  V30 105 H 13.5766 -3.42393 -6.04807 0
M  V30 106 H 16.7676 -2.04927 -4.20859 0
M  V30 107 H 16.9406 -3.06185 -5.711 0
M  V30 108 N 10.3467 1.47872 -0.545128 0
M  V30 109 C 11.2767 2.32661 0.197793 0
M  V30 110 C 12.2577 1.43041 0.920504 0
M  V30 111 O 13.4427 1.71912 0.90333 0
M  V30 112 C 10.5727 3.24569 1.23582 0
M  V30 113 C 9.5267 4.23333 0.630323 0
M  V30 114 C 8.8527 5.0448 1.77211 0
M  V30 115 C 10.1527 5.20704 -0.407974 0
M  V30 116 H 11.8467 2.95024 -0.510045 0
M  V30 117 H 9.3927 1.4187 -0.246731 0
M  V30 118 H 11.3457 3.8272 1.76362 0
M  V30 119 H 10.0697 2.60236 1.97344 0
M  V30 120 H 8.7287 3.6639 0.123922 0
M  V30 121 H 8.3767 4.36561 2.49847 0
M  V30 122 H 8.0767 5.71339 1.37281 0
M  V30 123 H 9.6007 5.65487 2.3034 0
M  V30 124 H 11.0147 5.7329 0.033305 0
M  V30 125 H 9.4117 5.95699 -0.725486 0
M  V30 126 H 10.4817 4.66917 -1.30828 0
M  V30 127 N 11.8248 0.280983 1.55075 0
M  V30 128 C 12.7548 -0.597469 2.25727 0
M  V30 129 C 13.7358 -1.15417 1.24952 0
M  V30 130 O 14.9208 -1.18722 1.53684 0
M  V30 131 C 12.0508 -1.7789 2.98283 0
M  V30 132 C 11.0048 -1.35347 4.06036 0
M  V30 133 C 10.3308 -2.61846 4.66198 0
M  V30 134 C 11.6308 -0.499354 5.19907 0
M  V30 135 H 13.3248 -0.00824265 2.99399 0
M  V30 136 H 10.8708 -0.0025244 1.44 0
M  V30 137 H 12.8238 -2.39937 3.46422 0
M  V30 138 H 11.5478 -2.39405 2.22155 0
M  V30 139 H 10.2068 -0.756156 3.58717 0
M  V30 140 H 9.8548 -3.21632 3.86732 0
M  V30 141 H 9.5548 -2.3409 5.38958 0
M  V30 142 H 11.0788 -3.24732 5.1709 0
M  V30 143 H 12.4928 -1.02498 5.64063 0
M  V30 144 H 10.8898 -0.316424 5.99265 0
M  V30 145 H 11.9598 0.480459 4.82514 0
M  V30 146 N 13.3029 -1.57598 0.00835791 0
M  V30 147 C 14.2329 -2.1198 -0.979113 0
M  V30 148 C 15.2139 -1.03091 -1.35301 0
M  V30 149 O 16.3989 -1.30818 -1.43528 0
M  V30 150 C 13.5289 -2.62995 -2.26828 0
M  V30 151 C 12.4829 -3.76485 -2.03576 0
M  V30 152 C 11.8089 -4.13846 -3.38579 0
M  V30 153 C 13.1089 -5.0342 -1.39161 0
M  V30 154 H 14.8029 -2.94738 -0.526281 0
M  V30 155 H 12.3489 -1.41783 -0.251704 0
M  V30 156 H 14.3019 -2.99669 -2.96271 0
M  V30 157 H 13.0259 -1.7737 -2.7424 0
M  V30 158 H 11.6849 -3.40217 -1.36557 0
M  V30 159 H 11.3329 -3.25232 -3.83709 0
M  V30 160 H 11.0329 -4.90312 -3.23834 0
M  V30 161 H 12.5569 -4.53086 -4.09323 0
M  V30 162 H 13.9709 -5.37812 -1.98573 0
M  V30 163 H 12.3679 -5.84746 -1.34878 0
M  V30 164 H 13.4379 -4.83548 -0.361868 0
M  V30 165 N 14.781 0.264519 -1.55364 0
M  V30 166 C 15.711 1.33121 -1.91836 0
M  V30 167 C 16.692 1.51101 -0.781192 0
M  V30 168 O 17.877 1.64003 -1.04003 0
M  V30 169 C 15.007 2.68921 -2.19769 0
M  V30 170 C 13.961 2.65661 -3.35571 0
M  V30 171 C 13.287 4.05093 -3.49004 0
M  V30 172 C 14.587 2.24187 -4.71739 0
M  V30 173 H 16.281 1.02844 -2.81182 0
M  V30 174 H 13.827 0.493286 -1.35287 0
M  V30 175 H 15.78 3.43663 -2.43872 0
M  V30 176 H 14.504 3.00799 -1.27231 0
M  V30 177 H 13.163 1.93377 -3.1145 0
M  V30 178 H 12.811 4.34206 -2.53917 0
M  V30 179 H 12.511 4.03804 -4.26868 0
M  V30 180 H 14.035 4.81561 -3.75408 0
M  V30 181 H 15.449 2.88654 -4.9533 0
M  V30 182 H 13.846 2.34044 -5.52579 0
M  V30 183 H 14.916 1.19327 -4.69988 0
M  V30 184 N 16.2591 1.48442 0.529413 0
M  V30 185 C 17.1891 1.65902 1.64313 0
M  V30 186 C 18.1701 0.507897 1.6234 0
M  V30 187 O 19.3551 0.740503 1.79528 0
M  V30 188 C 16.4851 1.69911 3.02898 0
M  V30 189 C 15.4391 2.8453 3.19729 0
M  V30 190 C 14.7651 2.73629 4.59381 0
M  V30 191 C 16.0651 4.25821 3.02447 0
M  V30 192 H 17.7591 2.5914 1.49955 0
M  V30 193 H 15.3051 1.24709 0.719982 0
M  V30 194 H 17.2581 1.80715 3.80684 0
M  V30 195 H 15.9821 0.732524 3.18279 0
M  V30 196 H 14.6411 2.73283 2.44361 0
M  V30 197 H 14.2891 1.74938 4.71599 0
M  V30 198 H 13.9891 3.50541 4.71588 0
M  V30 199 H 15.5131 2.86401 5.39265 0
M  V30 200 H 16.9271 4.37898 3.70024 0
M  V30 201 H 15.3241 5.03735 3.26146 0
M  V30 202 H 16.3941 4.42244 1.98867 0
M  V30 203 N 17.7372 -0.778329 1.37039 0
M  V30 204 C 18.6672 -1.90546 1.34962 0
M  V30 205 C 19.6482 -1.68681 0.219274 0
M  V30 206 O 20.8332 -1.89634 0.418624 0
M  V30 207 C 17.9632 -3.27734 1.14925 0
M  V30 208 C 16.9172 -3.64147 2.24902 0
M  V30 209 C 16.2432 -4.99806 1.89996 0
M  V30 210 C 17.5432 -3.71579 3.67051 0
M  V30 211 H 19.2372 -1.92541 2.29277 0
M  V30 212 H 16.7832 -0.924948 1.10366 0
M  V30 213 H 18.7362 -4.06215 1.12104 0
M  V30 214 H 17.4602 -3.26154 0.170631 0
M  V30 215 H 16.1192 -2.8797 2.26868 0
M  V30 216 H 15.7672 -4.94759 0.906796 0
M  V30 217 H 15.4672 -5.25139 2.63634 0
M  V30 218 H 16.9912 -5.80694 1.88749 0
M  V30 219 H 18.4052 -4.40227 3.67251 0
M  V30 220 H 16.8022 -4.08405 4.39688 0
M  V30 221 H 17.8722 -2.72404 4.01154 0
M  V30 222 N 19.2153 -1.21501 -1.00376 0
M  V30 223 C 20.6263 -1.03146 -1.55621 0
M  V30 224 C 20.9773 0.408375 -1.91903 0
M  V30 225 O 20.1023 1.29177 -1.73616 0
M  V30 226 C 20.6973 -1.86612 -2.82775 0
M  V30 227 C 19.2563 -1.72586 -3.34501 0
M  V30 228 C 18.4033 -1.83747 -2.07683 0
M  V30 229 H 21.3543 -1.35505 -0.826081 0
M  V30 230 H 21.3753 -1.3771 -3.54706 0
M  V30 231 H 20.8873 -2.91399 -2.56336 0
M  V30 232 H 18.9883 -0.704877 -3.65872 0
M  V30 233 H 19.1013 -2.54623 -4.05837 0
M  V30 234 H 17.4653 -1.27069 -2.20739 0
M  V30 235 H 18.2483 -2.90044 -1.83655 0
M  V30 236 N 20.6934 1.19889 -1.02296 0
M  V30 237 C 21.6234 2.25141 -0.619174 0
M  V30 238 C 22.6044 1.66051 0.368915 0
M  V30 239 O 23.7894 1.92546 0.252941 0
M  V30 240 C 20.9194 3.4728 0.0368783 0
M  V30 241 C 19.8734 4.19005 -0.872865 0
M  V30 242 C 19.1994 5.34637 -0.0822402 0
M  V30 243 C 20.4994 4.74452 -2.18387 0
M  V30 244 H 22.1934 2.59171 -1.49903 0
M  V30 245 H 19.7394 1.24579 -0.722222 0
M  V30 246 H 21.6924 4.20098 0.330958 0
M  V30 247 H 20.4164 3.12433 0.95149 0
M  V30 248 H 19.0754 3.48061 -1.15105 0
M  V30 249 H 18.7234 4.96034 0.83422 0
M  V30 250 H 18.4234 5.83557 -0.688149 0
M  V30 251 H 19.9474 6.10255 0.205238 0
M  V30 252 H 21.3614 5.39055 -1.95172 0
M  V30 253 H 19.7584 5.33834 -2.74119 0
M  V30 254 H 20.8284 3.92844 -2.84257 0
M  V30 255 N 22.1715 0.800033 1.35784 0
M  V30 256 C 23.1015 0.220184 2.3246 0
M  V30 257 C 24.0825 -0.65073 1.57161 0
M  V30 258 O 25.2675 -0.582359 1.85263 0
M  V30 259 C 22.3975 -0.637353 3.41402 0
M  V30 260 C 21.3515 0.134531 4.27789 0
M  V30 261 C 20.6775 -0.844285 5.27992 0
M  V30 262 C 21.9775 1.32979 5.05088 0
M  V30 263 H 23.6715 1.02787 2.81203 0
M  V30 264 H 21.2175 0.495717 1.35199 0
M  V30 265 H 23.1705 -1.05302 4.08031 0
M  V30 266 H 21.8945 -1.47785 2.91251 0
M  V30 267 H 20.5535 0.531296 3.6273 0
M  V30 268 H 20.2015 -1.68011 4.74111 0
M  V30 269 H 19.9015 -0.332184 5.8666 0
M  V30 270 H 21.4255 -1.2583 5.97494 0
M  V30 271 H 22.8395 0.98934 5.64699 0
M  V30 272 H 21.2365 1.77593 5.7322 0
M  V30 273 H 22.3065 2.11978 4.36111 0
M  V30 274 N 23.6496 -1.47581 0.552962 0
M  V30 275 C 24.8956 -2.03369 0.0355807 0
M  V30 276 C 25.2506 -1.42016 -1.29805 0
M  V30 277 O 24.5436 -0.564917 -1.83083 0
M  V30 278 C 24.7376 -3.57199 -0.119728 0
M  V30 279 C 24.5666 -4.33468 1.1973 0
M  V30 280 C 23.3366 -4.7353 1.76345 0
M  V30 281 C 25.5346 -4.68866 2.11351 0
M  V30 282 N 23.5166 -5.34426 3.02097 0
M  V30 283 C 24.8876 -5.3002 3.21681 0
M  V30 284 C 26.9426 -4.50795 2.11397 0
M  V30 285 C 25.6456 -5.75011 4.32151 0
M  V30 286 C 27.6716 -4.96782 3.20876 0
M  V30 287 C 27.0336 -5.57981 4.29926 0
M  V30 288 H 23.1326 -0.780058 0.0550806 0
M  V30 289 H 25.7166 -1.80117 0.739315 0
M  V30 290 H 23.8876 -3.80227 -0.792579 0
M  V30 291 H 25.6196 -3.99627 -0.638792 0
M  V30 292 H 22.3746 -4.55352 1.30196 0
M  V30 293 H 22.7986 -5.69421 3.66182 0
M  V30 294 H 27.4406 -4.0284 1.28372 0
M  V30 295 H 25.1586 -6.21959 5.15938 0
M  V30 296 H 28.7446 -4.84573 3.21994 0
M  V30 297 H 27.6246 -5.92918 5.13243 0
M  V30 298 N 25.1277 -0.289203 -1.54924 0
M  V30 299 C 26.0577 0.58549 -2.2604 0
M  V30 300 C 27.0387 1.14753 -1.25562 0
M  V30 301 O 28.2237 1.17906 -1.54311 0
M  V30 302 C 25.3537 1.76305 -2.99222 0
M  V30 303 C 24.3077 1.33191 -4.06748 0
M  V30 304 C 23.6337 2.5937 -4.6758 0
M  V30 305 C 24.9337 0.471775 -5.20165 0
M  V30 306 H 26.6277 -0.00763532 -2.99399 0
M  V30 307 H 24.1737 -0.00511229 -1.43999 0
M  V30 308 H 26.1267 2.38097 -3.47689 0
M  V30 309 H 24.8507 2.38223 -2.23422 0
M  V30 310 H 23.5097 0.737121 -3.59113 0
M  V30 311 H 23.1577 3.19576 -3.88433 0
M  V30 312 H 22.8577 2.31228 -5.40192 0
M  V30 313 H 24.3817 3.21985 -5.18804 0
M  V30 314 H 25.7957 0.995056 -5.64599 0
M  V30 315 H 24.1927 0.284639 -5.99425 0
M  V30 316 H 25.2627 -0.506041 -4.82252 0
M  V30 317 N 26.6058 1.57591 -0.0167156 0
M  V30 318 C 27.5358 2.12496 0.967858 0
M  V30 319 C 28.5168 1.03807 1.34752 0
M  V30 320 O 29.7018 1.31577 1.42833 0
M  V30 321 C 26.8318 2.64194 2.25431 0
M  V30 322 C 25.7858 3.77559 2.01576 0
M  V30 323 C 25.1118 4.15636 3.36379 0
M  V30 324 C 26.4118 5.04151 1.36489 0
M  V30 325 H 28.1058 2.95013 0.510643 0
M  V30 326 H 25.6518 1.41915 0.244181 0
M  V30 327 H 27.6048 3.01236 2.94678 0
M  V30 328 H 26.3288 1.78821 2.73296 0
M  V30 329 H 24.9878 3.40937 1.34751 0
M  V30 330 H 24.6358 3.27263 3.81979 0
M  V30 331 H 24.3358 4.92022 3.21229 0
M  V30 332 H 25.8598 4.5525 4.06915 0
M  V30 333 H 27.2738 5.38857 1.95718 0
M  V30 334 H 25.6708 5.85453 1.31776 0
M  V30 335 H 26.7408 4.83733 0.336219 0
M  V30 336 N 28.0839 -0.256276 1.55502 0
M  V30 337 C 29.3299 -0.987079 1.77157 0
M  V30 338 C 29.6629 -1.85327 0.580315 0
M  V30 339 O 28.9379 -1.89874 -0.421686 0
M  V30 340 C 29.2209 -1.85553 3.08613 0
M  V30 341 C 29.0739 -1.01816 4.38125 0
M  V30 342 C 30.3929 -2.8397 3.36228 0
M  V30 343 H 27.5119 -0.357428 0.644526 0
M  V30 344 H 30.1539 -0.258239 1.88237 0
M  V30 345 H 28.3039 -2.47695 2.99298 0
M  V30 346 H 29.9759 -0.416159 4.59419 0
M  V30 347 H 28.2189 -0.322178 4.32602 0
M  V30 348 H 28.8899 -1.65939 5.26468 0
M  V30 349 H 31.3659 -2.31964 3.45445 0
M  V30 350 H 30.2419 -3.41864 4.29442 0
M  V30 351 H 30.5029 -3.59955 2.56681 0
M  V30 352 N 29.562 -1.4872 -0.521534 0
M  V30 353 C 30.492 -1.66771 -1.63431 0
M  V30 354 C 31.473 -0.516499 -1.62069 0
M  V30 355 O 32.658 -0.750013 -1.79132 0
M  V30 356 C 29.788 -1.71515 -3.01993 0
M  V30 357 C 28.742 -2.86222 -3.18216 0
M  V30 358 C 28.068 -2.76061 -4.57924 0
M  V30 359 C 29.368 -4.27419 -3.00184 0
M  V30 360 H 31.062 -2.59932 -1.48579 0
M  V30 361 H 28.608 -1.25089 -0.713358 0
M  V30 362 H 30.561 -1.82731 -3.7972 0
M  V30 363 H 29.285 -0.749393 -3.17886 0
M  V30 364 H 27.944 -2.74575 -2.42908 0
M  V30 365 H 27.592 -1.77437 -4.70665 0
M  V30 366 H 27.292 -3.53037 -4.69722 0
M  V30 367 H 28.816 -2.89256 -5.37739 0
M  V30 368 H 30.23 -4.39855 -3.67697 0
M  V30 369 H 28.627 -5.05458 -3.2347 0
M  V30 370 H 29.697 -4.43293 -1.96518 0
M  V30 371 N 31.0401 0.771051 -1.3745 0
M  V30 372 C 32.2681 1.56015 -1.35893 0
M  V30 373 C 32.6831 1.88718 0.0555523 0
M  V30 374 O 32.0401 1.51502 1.01752 0
M  V30 375 C 32.0911 2.87001 -2.19801 0
M  V30 376 O 31.8121 2.557 -3.55738 0
M  V30 377 C 33.3131 3.81228 -2.26231 0
M  V30 378 H 30.5331 0.483317 -0.465453 0
M  V30 379 H 33.0771 0.955611 -1.80799 0
M  V30 380 H 31.2321 3.43877 -1.78402 0
M  V30 381 H 31.6461 3.39584 -3.99729 0
M  V30 382 H 33.1201 4.70139 -2.89263 0
M  V30 383 H 33.5971 4.20409 -1.27093 0
M  V30 384 H 34.2031 3.30281 -2.67945 0
M  V30 385 N 32.5182 1.22032 0.997298 0
M  V30 386 C 33.9292 1.0397 1.55071 0
M  V30 387 C 34.2802 -0.398192 1.92117 0
M  V30 388 O 33.4052 -1.28254 1.74298 0
M  V30 389 C 34.0002 1.88109 2.81781 0
M  V30 390 C 32.5592 1.74357 3.33581 0
M  V30 391 C 31.7062 1.84846 2.06706 0
M  V30 392 H 34.6572 1.35941 0.818883 0
M  V30 393 H 34.6782 1.39589 3.53971 0
M  V30 394 H 34.1902 2.92754 2.54787 0
M  V30 395 H 32.2912 0.72427 3.65493 0
M  V30 396 H 32.4042 2.56772 4.04481 0
M  V30 397 H 30.7682 1.28238 2.20062 0
M  V30 398 H 31.5512 2.91014 1.82114 0
M  V30 399 N 33.9963 -1.19345 1.0293 0
M  V30 400 C 35.2443 -1.88665 0.724574 0
M  V30 401 C 35.5653 -1.80036 -0.749144 0
M  V30 402 O 34.8353 -1.2111 -1.53978 0
M  V30 403 H 33.4153 -0.698406 0.265025 0
M  V30 404 H 36.0773 -1.44885 1.30362 0
M  V30 405 H 35.1733 -2.94987 1.01926 0
M  V30 406 N 35.4744 -0.807222 -1.35358 0
M  V30 407 C 36.8904 -0.491038 -1.51858 0
M  V30 408 C 37.0904 0.987648 -1.75635 0
M  V30 409 O 36.1464 1.77265 -1.79815 0
M  V30 410 C 37.4594 -1.33695 -2.69344 0
M  V30 411 C 39.0074 -1.33246 -2.83222 0
M  V30 412 C 39.4824 -2.1625 -4.03733 0
M  V30 413 N 40.9734 -2.1379 -4.10911 0
M  V30 414 C 41.7084 -2.74772 -5.03277 0
M  V30 415 N 41.2044 -3.44684 -6.0097 0
M  V30 416 N 42.9974 -2.6441 -4.96028 0
M  V30 417 H 35.1484 -1.76485 -1.18181 0
M  V30 418 H 37.4114 -0.751199 -0.578276 0
M  V30 419 H 37.1174 -2.38634 -2.58354 0
M  V30 420 H 36.9914 -0.990618 -3.6396 0
M  V30 421 H 39.3784 -0.290911 -2.93663 0
M  V30 422 H 39.4594 -1.71866 -1.89461 0
M  V30 423 H 39.1034 -3.20445 -3.94052 0
M  V30 424 H 39.0334 -1.74989 -4.96675 0
M  V30 425 H 41.5244 -1.62923 -3.40976 0
M  V30 426 H 41.8374 -3.88501 -6.68047 0
M  V30 427 H 40.1824 -3.48788 -6.01142 0
M  V30 428 H 43.3734 -2.0938 -4.18662 0
M  V30 429 H 43.5464 -3.12225 -5.6782 0
M  V30 430 N 36.9525 1.47285 -0.560781 0
M  V30 431 C 38.3635 1.86258 -0.128343 0
M  V30 432 C 38.7145 1.46699 1.30284 0
M  V30 433 O 37.8395 0.871698 1.98067 0
M  V30 434 C 38.4345 3.38044 -0.22614 0
M  V30 435 C 36.9935 3.76096 0.151283 0
M  V30 436 C 36.1405 2.71335 -0.572084 0
M  V30 437 H 39.0915 1.38752 -0.770297 0
M  V30 438 H 39.1125 3.76441 0.554322 0
M  V30 439 H 38.6245 3.66806 -1.26788 0
M  V30 440 H 36.7255 3.52951 1.19399 0
M  V30 441 H 36.8385 4.78641 -0.209765 0
M  V30 442 H 35.2025 2.54696 -0.0147653 0
M  V30 443 H 35.9855 3.02938 -1.61504 0
M  V30 444 N 38.4306 0.297415 1.54768 0
M  V30 445 C 39.3936 -0.567375 2.22066 0
M  V30 446 C 40.3936 -1.06409 1.20556 0
M  V30 447 O 41.5836 -0.960691 1.45315 0
M  V30 448 C 38.7156 -1.78517 2.90421 0
M  V30 449 H 39.9086 0.0205534 2.99893 0
M  V30 450 H 37.4616 0.0482163 1.56226 0
M  V30 451 H 38.1966 -2.41303 2.16664 0
M  V30 452 H 37.9816 -1.43669 3.64831 0
M  V30 453 H 39.4716 -2.39964 3.41771 0
M  V30 454 N 39.9087 -1.5758 0.0250728 0
M  V30 455 C 40.8717 -2.08896 -0.943139 0
M  V30 456 C 41.8717 -1.00321 -1.25668 0
M  V30 457 O 43.0617 -1.26495 -1.19769 0
M  V30 458 C 40.1937 -2.55143 -2.26086 0
M  V30 459 H 41.3867 -2.95723 -0.498775 0
M  V30 460 H 38.9397 -1.54703 -0.222888 0
M  V30 461 H 39.6747 -1.71633 -2.75159 0
M  V30 462 H 39.4597 -3.34461 -2.04641 0
M  V30 463 H 40.9497 -2.95083 -2.95492 0
M  V30 464 N 41.3868 0.248026 -1.55636 0
M  V30 465 C 42.6348 0.974295 -1.77065 0
M  V30 466 C 42.9558 1.85897 -0.588849 0
M  V30 467 O 42.2258 1.91868 0.395407 0
M  V30 468 H 40.8058 0.362733 -0.653019 0
M  V30 469 H 43.4678 0.266244 -1.93073 0
M  V30 470 H 42.5638 1.59667 -2.68166 0
M  V30 471 N 42.8649 1.48995 0.513639 0
M  V30 472 C 43.7949 1.67636 1.62544 0
M  V30 473 C 44.7759 0.525087 1.61793 0
M  V30 474 O 45.9609 0.759502 1.78732 0
M  V30 475 C 43.0909 1.73114 3.01079 0
M  V30 476 C 42.0449 2.87905 3.16693 0
M  V30 477 C 41.3709 2.78486 4.56453 0
M  V30 478 C 42.6709 4.29005 2.97913 0
M  V30 479 H 44.3649 2.60716 1.47198 0
M  V30 480 H 41.9109 1.25465 0.706714 0
M  V30 481 H 43.8639 1.84742 3.78746 0
M  V30 482 H 42.5879 0.766241 3.17484 0
M  V30 483 H 41.2469 2.75859 2.41448 0
M  V30 484 H 40.8949 1.7993 4.69717 0
M  V30 485 H 40.5949 3.55523 4.67843 0
M  V30 486 H 42.1189 2.92104 5.36197 0
M  V30 487 H 43.5329 4.41798 3.65359 0
M  V30 488 H 41.9299 5.07166 3.20785 0
M  V30 489 H 42.9999 4.44329 1.94165 0
M  V30 490 N 44.343 -0.763751 1.37857 0
M  V30 491 C 45.568 -1.55805 1.36893 0
M  V30 492 C 45.993 -1.88054 -0.0416135 0
M  V30 493 O 45.351 -1.49825 -1.02089 0
M  V30 494 C 45.399 -2.84012 2.22192 0
M  V30 495 O 44.503 -3.78732 1.63204 0
M  V30 496 H 43.844 -0.471638 0.46739 0
M  V30 497 H 46.374 -0.944657 1.81487 0
M  V30 498 H 46.384 -3.33037 2.35691 0
M  V30 499 H 45.059 -2.59869 3.24716 0
M  V30 500 H 43.636 -3.37402 1.58791 0
M  V30 501 N 45.8211 -1.22559 -0.990812 0
M  V30 502 C 47.0491 -1.07779 -1.76611 0
M  V30 503 C 47.4641 0.371513 -1.85109 0
M  V30 504 O 46.8211 1.25737 -1.32274 0
M  V30 505 C 46.8721 -1.68512 -3.19822 0
M  V30 506 O 46.5931 -3.07774 -3.1178 0
M  V30 507 C 48.0941 -1.59035 -4.13791 0
M  V30 508 H 45.3141 -0.377729 -0.554583 0
M  V30 509 H 47.8581 -1.62195 -1.24551 0
M  V30 510 H 46.0131 -1.18154 -3.68942 0
M  V30 511 H 46.4271 -3.37062 -4.01858 0
M  V30 512 H 47.9011 -2.0625 -5.1202 0
M  V30 513 H 48.3781 -0.547273 -4.35777 0
M  V30 514 H 48.9841 -2.08709 -3.70568 0
M  V30 515 N 47.2992 1.18797 -1.03562 0
M  V30 516 C 48.5392 1.90346 -0.744832 0
M  V30 517 C 48.9032 1.78231 0.713972 0
M  V30 518 O 50.1042 2.44441 1.11813 0
M  V30 519 C 48.3752 3.36942 -1.19184 0
M  V30 520 S 49.9342 4.26638 -1.02593 0
M  V30 521 H 46.7522 0.657343 -0.270963 0
M  V30 522 H 49.3542 1.43579 -1.32685 0
M  V30 523 H 48.0582 3.43287 -2.24905 0
M  V30 524 H 47.5892 3.88745 -0.603397 0
M  V30 525 H 49.6042 4.96164 0.0596033 0
M  V30 526 N 48.7773 0.814389 1.34928 0
M  V30 527 C 49.7243 0.22822 2.29669 0
M  V30 528 C 50.6943 -0.642164 1.53184 0
M  V30 529 O 51.8793 -0.585605 1.81591 0
M  V30 530 C 49.0193 -0.61089 3.3965 0
M  V30 531 C 48.1323 0.280792 4.31086 0
M  V30 532 C 47.2673 -0.567067 5.28165 0
M  V30 533 C 46.3063 0.324531 6.11239 0
M  V30 534 N 45.4433 -0.483756 7.00431 0
M  V30 535 H 50.2833 1.04153 2.79206 0
M  V30 536 H 47.8203 0.525133 1.37407 0
M  V30 537 H 49.7783 -1.11263 4.0209 0
M  V30 538 H 48.4083 -1.38939 2.91369 0
M  V30 539 H 47.4603 0.900688 3.69583 0
M  V30 540 H 48.7723 0.966723 4.89342 0
M  V30 541 H 47.9263 -1.13363 5.96015 0
M  V30 542 H 46.6653 -1.28654 4.70425 0
M  V30 543 H 45.6703 0.903298 5.42329 0
M  V30 544 H 46.8953 1.04198 6.71059 0
M  V30 545 H 44.8413 -1.18706 6.45171 0
M  V30 546 H 44.7583 0.143965 7.55863 0
M  V30 547 H 46.0263 -1.03334 7.7262 0
M  V30 548 N 50.2554 -1.46986 0.568584 0
M  V30 549 C 51.4834 -2.0683 0.0539956 0
M  V30 550 C 51.8984 -1.41953 -1.24478 0
M  V30 551 O 51.2554 -0.519933 -1.74937 0
M  V30 552 C 51.3064 -3.61254 -0.133362 0
M  V30 553 O 51.0274 -4.237 1.11399 0
M  V30 554 C 52.5284 -4.37992 -0.683927 0
M  V30 555 H 49.7484 -0.669058 0.0510141 0
M  V30 556 H 52.2924 -1.88824 0.785234 0
M  V30 557 H 50.4474 -3.78735 -0.81477 0
M  V30 558 H 50.8614 -5.16388 0.91888 0
M  V30 559 H 52.3354 -5.46684 -0.764263 0
M  V30 560 H 52.8124 -4.05058 -1.69778 0
M  V30 561 H 53.4184 -4.25283 -0.0378494 0
M  V30 562 N 51.7335 -0.305618 -1.54608 0
M  V30 563 C 52.9825 0.303098 -1.9941 0
M  V30 564 C 53.2955 1.54648 -1.19764 0
M  V30 565 O 54.5015 2.23007 -1.54855 0
M  V30 566 C 52.9575 0.590588 -3.55021 0
M  V30 567 C 52.5655 -0.634719 -4.43481 0
M  V30 568 C 54.3095 1.16025 -4.08336 0
M  V30 569 C 52.2165 -0.320126 -5.90533 0
M  V30 570 H 51.1465 0.117031 -0.744862 0
M  V30 571 H 53.7975 -0.415045 -1.78745 0
M  V30 572 H 52.1795 1.36845 -3.71604 0
M  V30 573 H 53.3535 -1.41079 -4.38672 0
M  V30 574 H 51.6685 -1.12333 -4.00962 0
M  V30 575 H 54.2655 1.40994 -5.15776 0
M  V30 576 H 54.6085 2.10397 -3.5922 0
M  V30 577 H 55.1415 0.443985 -3.95315 0
M  V30 578 H 51.8805 -1.23254 -6.43808 0
M  V30 579 H 51.4005 0.418579 -5.98338 0
M  V30 580 H 53.0795 0.0766241 -6.46955 0
M  V30 581 N 53.2116 1.57565 -0.0334293 0
M  V30 582 C 54.4886 1.83282 0.683163 0
M  V30 583 C 54.8686 0.91823 1.90084 0
M  V30 584 O 54.2166 -0.025113 2.28486 0
M  V30 585 C 54.4266 3.32599 1.0573 0
M  V30 586 C 55.7746 3.99179 1.44711 0
M  V30 587 O 56.7986 3.3712 1.15015 0
M  V30 588 O 55.6576 5.08565 2.0006 0
M  V30 589 H 52.7516 0.755869 0.335546 0
M  V30 590 H 55.2976 1.69589 -0.0614402 0
M  V30 591 H 54.0696 3.90834 0.190828 0
M  V30 592 H 53.6926 3.51415 1.85993 0
M  V30 593 N 54.6897 -0.239769 1.55765 0
M  V30 594 C 55.6227 -1.32356 1.85895 0
M  V30 595 C 56.6007 -1.46053 0.714662 0
M  V30 596 O 57.7847 -1.62154 0.961157 0
M  V30 597 C 54.9117 -2.6962 2.04994 0
M  V30 598 C 53.9577 -2.73036 3.27648 0
M  V30 599 S 54.7907 -2.28929 4.84099 0
M  V30 600 C 55.9467 -3.68103 5.06212 0
M  V30 601 H 56.1797 -1.06601 2.77531 0
M  V30 602 H 53.7127 -0.441112 1.47965 0
M  V30 603 H 55.6707 -3.48653 2.16682 0
M  V30 604 H 54.3317 -2.92609 1.14188 0
M  V30 605 H 53.5247 -3.7386 3.38 0
M  V30 606 H 53.1267 -2.02052 3.14723 0
M  V30 607 H 55.4187 -4.63656 4.93993 0
M  V30 608 H 56.3617 -3.6268 6.08168 0
M  V30 609 H 56.7697 -3.60947 4.34025 0
M  V30 610 N 56.1678 -1.49265 -0.50573 0
M  V30 611 C 57.0778 -1.68312 -1.63427 0
M  V30 612 C 58.0938 -0.565682 -1.64548 0
M  V30 613 O 59.2698 -0.839801 -1.83055 0
M  V30 614 C 56.3348 -1.74107 -2.99813 0
M  V30 615 C 55.3958 -2.97653 -3.09356 0
M  V30 616 C 54.6288 -3.03163 -4.39236 0
M  V30 617 O 54.8518 -2.16396 -5.27758 0
M  V30 618 O 53.7858 -3.9558 -4.53652 0
M  V30 619 H 57.6118 -2.63907 -1.50289 0
M  V30 620 H 55.1968 -1.32951 -0.681502 0
M  V30 621 H 57.0788 -1.803 -3.80881 0
M  V30 622 H 55.7538 -0.816901 -3.13223 0
M  V30 623 H 54.6608 -2.96981 -2.27493 0
M  V30 624 H 55.9938 -3.89535 -3.00871 0
M  V30 625 N 57.6459 0.756429 -1.3826 0
M  V30 626 C 58.5759 1.88374 -1.37976 0
M  V30 627 C 59.5569 1.68311 -0.246082 0
M  V30 628 O 60.7419 1.88944 -0.44874 0
M  V30 629 C 57.8719 3.25864 -1.20125 0
M  V30 630 C 56.8259 3.60523 -2.30666 0
M  V30 631 C 56.1519 4.9672 -1.97923 0
M  V30 632 C 57.4519 3.65692 -3.72916 0
M  V30 633 H 59.1459 1.88869 -2.32312 0
M  V30 634 H 56.6919 0.907272 -1.11824 0
M  V30 635 H 58.6449 4.0438 -1.18552 0
M  V30 636 H 57.3689 3.25841 -0.222498 0
M  V30 637 H 56.0279 2.84324 -2.3142 0
M  V30 638 H 55.6759 4.93253 -0.985393 0
M  V30 639 H 55.3759 5.20878 -2.71955 0
M  V30 640 H 56.8999 5.77618 -1.97964 0
M  V30 641 H 58.3139 4.34328 -3.74208 0
M  V30 642 H 56.7109 4.01358 -4.4613 0
M  V30 643 H 57.7809 2.65987 -4.05436 0
M  V30 644 N 59.124 1.23083 0.984299 0
M  V30 645 C 60.37 1.06214 1.72761 0
M  V30 646 C 60.703 -0.400584 1.90024 0
M  V30 647 O 59.978 -1.29672 1.44967 0
M  V30 648 C 60.261 1.78375 3.12817 0
M  V30 649 C 60.114 3.32296 3.03149 0
M  V30 650 C 61.433 1.54309 4.12161 0
M  V30 651 H 58.552 0.387251 0.627061 0
M  V30 652 H 61.194 1.51536 1.14616 0
M  V30 653 H 59.344 1.39848 3.62457 0
M  V30 654 H 61.016 3.8032 2.61064 0
M  V30 655 H 59.259 3.6153 2.39747 0
M  V30 656 H 59.93 3.77972 4.02295 0
M  V30 657 H 62.406 1.87791 3.71314 0
M  V30 658 H 61.282 2.07281 5.08258 0
M  V30 659 H 61.543 0.477572 4.39513 0
M  V30 660 N 60.6021 -1.18246 1.0419 0
M  V30 661 C 61.5491 -2.2192 0.634037 0
M  V30 662 C 62.5191 -1.62179 -0.358765 0
M  V30 663 O 63.7041 -1.89122 -0.252466 0
M  V30 664 C 60.8441 -3.451 0.00445535 0
M  V30 665 C 59.9571 -4.19174 1.04487 0
M  V30 666 C 59.0921 -5.29813 0.383676 0
M  V30 667 C 58.1311 -5.9566 1.4091 0
M  V30 668 N 57.2681 -6.97834 0.772784 0
M  V30 669 H 62.1081 -2.56164 1.52263 0
M  V30 670 H 59.6451 -1.25843 0.761701 0
M  V30 671 H 61.6031 -4.15485 -0.377919 0
M  V30 672 H 60.2331 -3.11472 -0.847652 0
M  V30 673 H 59.2851 -3.47604 1.54518 0
M  V30 674 H 60.5971 -4.64267 1.82368 0
M  V30 675 H 59.7511 -6.06677 -0.0528366 0
M  V30 676 H 58.4901 -4.85825 -0.427208 0
M  V30 677 H 57.4951 -5.17535 1.85574 0
M  V30 678 H 58.7201 -6.4173 2.22171 0
M  V30 679 H 56.6661 -6.55998 -0.0177708 0
M  V30 680 H 56.5831 -7.41186 1.48928 0
M  V30 681 H 57.8511 -7.78665 0.36071 0
M  V30 682 N 62.0802 -0.821533 -1.34494 0
M  V30 683 C 63.4962 -0.507117 -1.51329 0
M  V30 684 C 63.6962 0.968964 -1.76673 0
M  V30 685 O 62.7522 1.75348 -1.81685 0
M  V30 686 C 64.0652 -1.36544 -2.67911 0
M  V30 687 C 65.6132 -1.36242 -2.81793 0
M  V30 688 C 66.0882 -2.2052 -4.01416 0
M  V30 689 N 67.5792 -2.18136 -4.08621 0
M  V30 690 C 68.3142 -2.80095 -5.00334 0
M  V30 691 N 67.8102 -3.51039 -5.9728 0
M  V30 692 N 69.6032 -2.69656 -4.93196 0
M  V30 693 H 61.7542 -1.77729 -1.16302 0
M  V30 694 H 64.0172 -0.757291 -0.570276 0
M  V30 695 H 63.7232 -2.41361 -2.55808 0
M  V30 696 H 63.5972 -1.02917 -3.62888 0
M  V30 697 H 65.9842 -0.322041 -2.93338 0
M  V30 698 H 66.0652 -1.73866 -1.87628 0
M  V30 699 H 65.7092 -3.24607 -3.90631 0
M  V30 700 H 65.6392 -1.80247 -4.94791 0
M  V30 701 H 68.1302 -1.6653 -3.39229 0
M  V30 702 H 68.4432 -3.95565 -6.63889 0
M  V30 703 H 66.7882 -3.55145 -5.97409 0
M  V30 704 H 69.9792 -2.13808 -4.16418 0
M  V30 705 H 70.1522 -3.1823 -5.64476 0
M  V30 706 N 63.5583 1.46682 -0.576371 0
M  V30 707 C 64.5053 2.30241 0.160499 0
M  V30 708 C 65.4753 1.40233 0.890162 0
M  V30 709 O 66.6603 1.69186 0.882084 0
M  V30 710 C 63.8003 3.24578 1.1723 0
M  V30 711 C 62.9133 4.29684 0.446736 0
M  V30 712 C 62.0483 5.11154 1.44551 0
M  V30 713 C 61.0873 6.08015 0.70599 0
M  V30 714 N 60.2243 6.82376 1.65251 0
M  V30 715 H 65.0643 2.92727 -0.558127 0
M  V30 716 H 62.6013 1.44272 -0.287056 0
M  V30 717 H 64.5593 3.77711 1.77172 0
M  V30 718 H 63.1893 2.63916 1.85872 0
M  V30 719 H 62.2413 3.79458 -0.267594 0
M  V30 720 H 63.5533 4.98626 -0.131686 0
M  V30 721 H 62.7073 5.68533 2.11791 0
M  V30 722 H 61.4463 4.42158 2.05786 0
M  V30 723 H 60.4513 5.49796 0.0197725 0
M  V30 724 H 61.6763 6.79028 0.09912 0
M  V30 725 H 59.6223 6.16094 2.25308 0
M  V30 726 H 59.5393 7.47556 1.12673 0
M  V30 727 H 60.8073 7.44316 2.31546 0
M  V30 728 N 65.0364 0.313813 1.54444 0
M  V30 729 C 66.4524 -0.0391619 1.59552 0
M  V30 730 C 66.6524 -1.51322 1.33056 0
M  V30 731 O 65.7084 -2.26782 1.11022 0
M  V30 732 C 67.0214 0.370302 2.98411 0
M  V30 733 C 68.5694 0.320139 3.11358 0
M  V30 734 C 69.0444 0.704617 4.52547 0
M  V30 735 N 70.5354 0.657645 4.58508 0
M  V30 736 C 71.2704 0.927453 5.6585 0
M  V30 737 N 70.7664 1.26389 6.81174 0
M  V30 738 N 72.5594 0.853662 5.5558 0
M  V30 739 H 64.7104 1.27433 1.69925 0
M  V30 740 H 66.9734 0.517511 0.794284 0
M  V30 741 H 66.6794 1.39694 3.22767 0
M  V30 742 H 66.5534 -0.269619 3.76235 0
M  V30 743 H 68.9404 -0.697275 2.86744 0
M  V30 744 H 69.0214 0.99486 2.35661 0
M  V30 745 H 68.6654 1.7199 4.77893 0
M  V30 746 H 68.5954 0.00768843 5.26599 0
M  V30 747 H 71.0864 0.409067 3.75679 0
M  V30 748 H 71.3994 1.4554 7.58972 0
M  V30 749 H 69.7444 1.30206 6.82694 0
M  V30 750 H 72.9354 0.590383 4.64362 0
M  V30 751 H 73.1084 1.0673 6.3915 0
M  V30 752 N 66.5145 -1.57545 0.0417849 0
M  V30 753 C 67.7635 -1.91494 -0.633492 0
M  V30 754 C 68.0765 -0.921084 -1.72556 0
M  V30 755 O 69.2825 -1.15228 -2.45835 0
M  V30 756 C 67.7385 -3.40072 -1.17808 0
M  V30 757 C 67.3465 -4.47843 -0.118633 0
M  V30 758 C 69.0905 -3.8307 -1.82915 0
M  V30 759 C 66.9975 -5.87529 -0.675578 0
M  V30 760 H 65.9275 -0.714653 -0.24039 0
M  V30 761 H 68.5785 -1.83175 0.109148 0
M  V30 762 H 66.9605 -3.43364 -1.97274 0
M  V30 763 H 68.1345 -4.56128 0.654494 0
M  V30 764 H 66.4495 -4.14128 0.434414 0
M  V30 765 H 69.0465 -4.84794 -2.25563 0
M  V30 766 H 69.3895 -3.1881 -2.67705 0
M  V30 767 H 69.9225 -3.82255 -1.10119 0
M  V30 768 H 66.6615 -6.55362 0.134475 0
M  V30 769 H 66.1815 -5.82824 -1.4169 0
M  V30 770 H 67.8605 -6.36491 -1.1614 0
M  V30 771 N 67.9926 0.231505 -1.5589 0
M  V30 772 C 68.9026 1.308 -1.94752 0
M  V30 773 C 69.9186 1.51826 -0.849989 0
M  V30 774 O 71.0946 1.6515 -1.15271 0
M  V30 775 C 68.1596 2.63968 -2.24771 0
M  V30 776 C 67.2206 2.51331 -3.48039 0
M  V30 777 C 66.4536 3.78148 -3.76616 0
M  V30 778 O 66.6766 4.80722 -3.07022 0
M  V30 779 O 65.6106 3.75857 -4.70123 0
M  V30 780 H 69.4366 1.0083 -2.86474 0
M  V30 781 H 67.0216 0.433547 -1.42971 0
M  V30 782 H 68.9036 3.42633 -2.45318 0
M  V30 783 H 67.5786 2.9364 -1.36225 0
M  V30 784 H 66.4856 1.709 -3.32782 0
M  V30 785 H 67.8186 2.26601 -4.36936 0
M  V30 786 N 69.4707 1.49531 0.497807 0
M  V30 787 C 70.4337 1.65916 1.58128 0
M  V30 788 C 71.4337 0.530825 1.51786 0
M  V30 789 O 72.6237 0.797342 1.54881 0
M  V30 790 C 69.7557 1.65951 2.9778 0
M  V30 791 H 70.9487 2.62556 1.44929 0
M  V30 792 H 68.5017 1.38611 0.722275 0
M  V30 793 H 69.2367 0.709065 3.16453 0
M  V30 794 H 69.0217 2.47897 3.03792 0
M  V30 795 H 70.5117 1.80673 3.76493 0
M  V30 796 N 70.9488 -0.749086 1.3866 0
M  V30 797 C 72.1978 -1.50371 1.3443 0
M  V30 798 C 72.5108 -1.95503 -0.0616397 0
M  V30 799 O 73.7168 -2.70554 -0.226489 0
M  V30 800 C 72.1728 -2.71644 2.36088 0
M  V30 801 C 71.7808 -2.3352 3.82325 0
M  V30 802 C 73.5248 -3.49518 2.40909 0
M  V30 803 C 71.4318 -3.51431 4.75658 0
M  V30 804 H 70.3618 -0.564628 0.499712 0
M  V30 805 H 73.0128 -0.818449 1.64237 0
M  V30 806 H 71.3948 -3.42175 1.9933 0
M  V30 807 H 72.5688 -1.70627 4.28046 0
M  V30 808 H 70.8838 -1.6877 3.80665 0
M  V30 809 H 73.4808 -4.37197 3.07836 0
M  V30 810 H 73.8238 -3.90992 1.42937 0
M  V30 811 H 74.3568 -2.86005 2.76489 0
M  V30 812 H 71.0958 -3.15019 5.74842 0
M  V30 813 H 70.6158 -4.13352 4.34627 0
M  V30 814 H 72.2948 -4.17953 4.93887 0
M  V30 815 N 72.4269 -1.23603 -0.977757 0
M  V30 816 C 73.8429 -0.999251 -1.24447 0
M  V30 817 C 74.0429 0.298053 -1.99283 0
M  V30 818 O 73.0989 1.01681 -2.31122 0
M  V30 819 C 74.4119 -2.20784 -2.04144 0
M  V30 820 C 75.9599 -2.25303 -2.17273 0
M  V30 821 C 76.4349 -3.45755 -3.00362 0
M  V30 822 N 77.9259 -3.4601 -3.07947 0
M  V30 823 C 78.6609 -4.35868 -3.72568 0
M  V30 824 N 78.1569 -5.35966 -4.38991 0
M  V30 825 N 79.9499 -4.23605 -3.6948 0
M  V30 826 H 72.1009 -2.06986 -0.476483 0
M  V30 827 H 74.3639 -0.907801 -0.273134 0
M  V30 828 H 74.0699 -3.14945 -1.56533 0
M  V30 829 H 73.9439 -2.22085 -3.04891 0
M  V30 830 H 76.3309 -1.3168 -2.64092 0
M  V30 831 H 76.4119 -2.28033 -1.15907 0
M  V30 832 H 76.0559 -4.39687 -2.5424 0
M  V30 833 H 75.9859 -3.40266 -4.01904 0
M  V30 834 H 78.4769 -2.73588 -2.60688 0
M  V30 835 H 78.7899 -6.00783 -4.86086 0
M  V30 836 H 77.1349 -5.39863 -4.37691 0
M  V30 837 H 80.3259 -3.44647 -3.16759 0
M  V30 838 H 80.4989 -4.93836 -4.1956 0
M  V30 839 N 73.905 1.17692 -1.04816 0
M  V30 840 C 75.153 1.87488 -0.754497 0
M  V30 841 C 75.474 1.81205 0.720407 0
M  V30 842 O 74.744 1.23544 1.52032 0
M  V30 843 H 73.324 0.694101 -0.276102 0
M  V30 844 H 75.986 1.42793 -1.32651 0
M  V30 845 H 75.082 2.93328 -1.06606 0
M  V30 846 N 75.3831 0.828654 1.34056 0
M  V30 847 C 76.3151 0.212052 2.28217 0
M  V30 848 C 77.3281 -0.601362 1.51286 0
M  V30 849 O 78.5171 -0.430104 1.73241 0
M  V30 850 C 75.6171 -0.72088 3.31144 0
M  V30 851 C 74.7901 0.0509587 4.3737 0
M  V30 852 C 73.8491 -0.803766 5.20025 0
M  V30 853 O 72.8751 -0.246667 5.68665 0
M  V30 854 N 74.0771 -2.1227 5.40298 0
M  V30 855 H 76.8421 1.02105 2.81771 0
M  V30 856 H 74.4031 0.686153 1.46641 0
M  V30 857 H 76.3951 -1.29742 3.8334 0
M  V30 858 H 74.9651 -1.43061 2.77943 0
M  V30 859 H 74.1851 0.808831 3.85813 0
M  V30 860 H 75.4731 0.582065 5.0546 0
M  V30 861 H 74.8711 -2.59898 5.02464 0
M  V30 862 H 73.4281 -2.64796 5.95589 0
M  V30 863 N 76.8612 -1.46375 0.584142 0
M  V30 864 C 78.1102 -2.01585 0.0679741 0
M  V30 865 C 78.4232 -1.46109 -1.30045 0
M  V30 866 O 79.6292 -1.93148 -1.90804 0
M  V30 867 C 78.0852 -3.5983 0.0709207 0
M  V30 868 C 77.6932 -4.24303 1.43775 0
M  V30 869 C 79.4372 -4.22693 -0.391228 0
M  V30 870 C 77.3442 -5.74631 1.39834 0
M  V30 871 H 76.2742 -0.753689 0.0216421 0
M  V30 872 H 78.9252 -1.68093 0.736001 0
M  V30 873 H 77.3072 -3.90405 -0.663299 0
M  V30 874 H 78.4812 -4.05335 2.19181 0
M  V30 875 H 76.7962 -3.73539 1.84004 0
M  V30 876 H 79.3932 -5.3289 -0.439524 0
M  V30 877 H 79.7362 -3.91728 -1.40906 0
M  V30 878 H 80.2692 -3.96749 0.288974 0
M  V30 879 H 77.0082 -6.10258 2.39303 0
M  V30 880 H 76.5282 -5.95858 0.686505 0
M  V30 881 H 78.2072 -6.37375 1.11187 0
M  V30 882 N 78.3393 -0.321999 -1.54275 0
M  V30 883 C 79.2693 0.537411 -2.27231 0
M  V30 884 C 80.2503 1.12064 -1.27968 0
M  V30 885 O 81.4353 1.14606 -1.56777 0
M  V30 886 C 78.5653 1.69919 -3.02894 0
M  V30 887 C 77.5193 1.24534 -4.09482 0
M  V30 888 C 76.8453 2.49394 -4.72977 0
M  V30 889 C 78.1453 0.361335 -5.21049 0
M  V30 890 H 79.8393 -0.0711406 -2.99315 0
M  V30 891 H 77.3853 -0.0356555 -1.43956 0
M  V30 892 H 79.3383 2.30668 -3.52662 0
M  V30 893 H 78.0623 2.33431 -2.28424 0
M  V30 894 H 76.7213 0.660782 -3.60596 0
M  V30 895 H 76.3693 3.11265 -3.95124 0
M  V30 896 H 76.0693 2.19718 -5.44975 0
M  V30 897 H 77.5933 3.10908 -5.25517 0
M  V30 898 H 79.0073 0.875072 -5.66582 0
M  V30 899 H 77.4043 0.157428 -5.99893 0
M  V30 900 H 78.4743 -0.60822 -4.8107 0
M  V30 901 N 79.8174 1.5752 -0.0501392 0
M  V30 902 C 81.0424 1.97376 0.636997 0
M  V30 903 C 81.4674 0.927466 1.63645 0
M  V30 904 O 80.8254 -0.10941 1.8097 0
M  V30 905 C 80.8734 3.36304 1.30123 0
M  V30 906 O 79.9774 3.34156 2.41689 0
M  V30 907 H 79.3184 0.642998 0.165679 0
M  V30 908 H 81.8484 2.04258 -0.118233 0
M  V30 909 H 81.8584 3.73008 1.65315 0
M  V30 910 H 80.5334 4.11993 0.568746 0
M  V30 911 H 79.1104 3.09196 2.08451 0
M  V30 912 N 81.2955 -0.223234 1.56011 0
M  V30 913 C 82.2425 -1.27664 1.92277 0
M  V30 914 C 83.2125 -1.46659 0.779763 0
M  V30 915 O 84.3975 -1.60256 1.03551 0
M  V30 916 C 81.5375 -2.62234 2.24338 0
M  V30 917 C 80.6505 -2.51051 3.51564 0
M  V30 918 C 79.7855 -3.78133 3.7308 0
M  V30 919 C 78.8245 -3.61665 4.93827 0
M  V30 920 N 77.9615 -4.80693 5.11741 0
M  V30 921 H 82.8015 -0.960358 2.82101 0
M  V30 922 H 80.3385 -0.462901 1.39627 0
M  V30 923 H 82.2965 -3.40596 2.40936 0
M  V30 924 H 80.9265 -2.91961 1.3769 0
M  V30 925 H 79.9785 -1.64132 3.43169 0
M  V30 926 H 81.2905 -2.34803 4.40079 0
M  V30 927 H 80.4445 -4.64938 3.89766 0
M  V30 928 H 79.1835 -3.97304 2.82844 0
M  V30 929 H 78.1885 -2.73244 4.77093 0
M  V30 930 H 79.4135 -3.43966 5.85546 0
M  V30 931 H 77.3595 -5.00181 4.24446 0
M  V30 932 H 77.2765 -4.67165 5.94384 0
M  V30 933 H 78.5445 -5.6893 5.3286 0
M  V30 934 N 82.7736 -1.49793 -0.48987 0
M  V30 935 C 83.7036 -1.70201 -1.59856 0
M  V30 936 C 84.6846 -0.55076 -1.60937 0
M  V30 937 O 85.8696 -0.787841 -1.77501 0
M  V30 938 C 82.9996 -1.77882 -2.98287 0
M  V30 939 C 81.9536 -2.92907 -3.12073 0
M  V30 940 C 81.2796 -2.85712 -4.51965 0
M  V30 941 C 82.5796 -4.3369 -2.91051 0
M  V30 942 H 84.2736 -2.63025 -1.43032 0
M  V30 943 H 81.8196 -1.26574 -0.686664 0
M  V30 944 H 83.7726 -1.90744 -3.75759 0
M  V30 945 H 82.4966 -0.816653 -3.16225 0
M  V30 946 H 81.1556 -2.79665 -2.37029 0
M  V30 947 H 80.8036 -1.8738 -4.66795 0
M  V30 948 H 80.5036 -3.62921 -4.62128 0
M  V30 949 H 82.0276 -3.00598 -5.31482 0
M  V30 950 H 83.4416 -4.47555 -3.58284 0
M  V30 951 H 81.8386 -5.12205 -3.12675 0
M  V30 952 H 82.9086 -4.47362 -1.87071 0
M  V30 953 N 84.2517 0.741722 -1.39055 0
M  V30 954 C 85.6677 1.04638 -1.20512 0
M  V30 955 C 85.8677 2.01405 -0.0620218 0
M  V30 956 O 84.9237 2.45547 0.588457 0
M  V30 957 C 86.2367 1.6151 -2.53643 0
M  V30 958 C 87.7847 1.73623 -2.6043 0
M  V30 959 C 88.2597 2.33906 -3.93767 0
M  V30 960 N 89.7507 2.41323 -3.9537 0
M  V30 961 C 90.4857 2.88888 -4.95309 0
M  V30 962 N 89.9817 3.36401 -6.05645 0
M  V30 963 N 91.7747 2.88037 -4.82692 0
M  V30 964 H 83.9257 0.0998155 -2.12165 0
M  V30 965 H 86.1887 0.106907 -0.941953 0
M  V30 966 H 85.8947 0.978739 -3.37807 0
M  V30 967 H 85.7687 2.60411 -2.72885 0
M  V30 968 H 88.1557 2.36384 -1.76655 0
M  V30 969 H 88.2367 0.733945 -2.45045 0
M  V30 970 H 87.8807 1.71776 -4.7797 0
M  V30 971 H 87.8107 3.34799 -4.06469 0
M  V30 972 H 90.3017 2.07734 -3.15682 0
M  V30 973 H 90.6147 3.71186 -6.77821 0
M  V30 974 H 88.9597 3.34427 -6.09248 0
M  V30 975 H 92.1507 2.50237 -3.95599 0
M  V30 976 H 92.3237 3.24792 -5.60726 0
M  V30 977 N 85.7298 1.2412 0.971189 0
M  V30 978 C 86.6598 1.05508 2.08304 0
M  V30 979 C 87.6408 -0.0308864 1.70072 0
M  V30 980 O 88.8258 0.135521 1.93727 0
M  V30 981 C 85.9558 0.655365 3.4106 0
M  V30 982 C 84.9098 1.68971 3.93234 0
M  V30 983 C 84.2358 1.14516 5.22293 0
M  V30 984 C 85.5358 3.08487 4.21465 0
M  V30 985 H 87.2298 1.98507 2.24132 0
M  V30 986 H 84.7758 0.955821 1.07704 0
M  V30 987 H 86.7288 0.51217 4.18276 0
M  V30 988 H 85.4528 -0.31032 3.25122 0
M  V30 989 H 84.1118 1.82106 3.18171 0
M  V30 990 H 83.7598 0.170189 5.02712 0
M  V30 991 H 83.4598 1.83635 5.58168 0
M  V30 992 H 84.9838 1.01401 6.02121 0
M  V30 993 H 86.3978 2.98601 4.89398 0
M  V30 994 H 84.7948 3.74926 4.68562 0
M  V30 995 H 85.8648 3.56787 3.28376 0
M  V30 996 N 87.2079 -1.17134 1.05439 0
M  V30 997 C 88.1709 -2.19439 0.661764 0
M  V30 998 C 89.1709 -1.58199 -0.288042 0
M  V30 999 O 90.3609 -1.74053 -0.0715803 0
M  V30 1000 C 87.4929 -3.40889 -0.0276209 0
M  V30 1001 H 88.6859 -2.55688 1.56728 0
M  V30 1002 H 86.2389 -1.31259 0.848567 0
M  V30 1003 H 86.9739 -3.10187 -0.94629 0
M  V30 1004 H 86.7589 -3.86586 0.655238 0
M  V30 1005 H 88.2489 -4.16603 -0.288342 0
M  V30 1006 N 88.686 -0.835752 -1.33615 0
M  V30 1007 C 89.911 -0.442389 -2.02627 0
M  V30 1008 C 90.336 0.947735 -1.62479 0
M  V30 1009 O 89.694 1.61907 -0.815826 0
M  V30 1010 C 89.742 -0.567216 -3.56111 0
M  V30 1011 O 88.846 0.407799 -4.10379 0
M  V30 1012 H 88.187 -0.180278 -0.639059 0
M  V30 1013 H 90.717 -1.12972 -1.70583 0
M  V30 1014 H 90.727 -0.447708 -4.05536 0
M  V30 1015 H 89.402 -1.58103 -3.84677 0
M  V30 1016 H 87.979 0.246107 -3.72087 0
M  V30 1017 N 90.1641 1.46063 -0.591896 0
M  V30 1018 C 91.5751 1.85944 -0.167822 0
M  V30 1019 C 91.9261 1.49429 1.27143 0
M  V30 1020 O 91.0511 0.913515 1.96173 0
M  V30 1021 C 91.6461 3.37489 -0.297794 0
M  V30 1022 C 90.2051 3.76332 0.0714732 0
M  V30 1023 C 89.3521 2.7006 -0.629509 0
M  V30 1024 H 92.3031 1.37087 -0.799555 0
M  V30 1025 H 92.3241 3.77532 0.474349 0
M  V30 1026 H 91.8361 3.64034 -1.3454 0
M  V30 1027 H 89.9371 3.55405 1.11886 0
M  V30 1028 H 90.0501 4.78088 -0.311245 0
M  V30 1029 H 88.4141 2.54607 -0.0687867 0
M  V30 1030 H 89.1971 2.99444 -1.67894 0
M  V30 1031 N 91.6422 0.330177 1.54103 0
M  V30 1032 C 93.0532 -0.15652 1.86043 0
M  V30 1033 C 93.4042 -1.51086 1.2517 0
M  V30 1034 O 92.5292 -2.09023 0.560217 0
M  V30 1035 C 93.1242 -0.290784 3.3755 0
M  V30 1036 C 91.6832 -0.721705 3.69416 0
M  V30 1037 C 90.8302 0.152622 2.7688 0
M  V30 1038 H 93.7812 0.550237 1.48856 0
M  V30 1039 H 93.8022 -1.12058 3.63625 0
M  V30 1040 H 93.3142 0.695068 3.81825 0
M  V30 1041 H 91.4152 -1.71706 3.30678 0
M  V30 1042 H 91.5282 -0.520869 4.7626 0
M  V30 1043 H 89.8922 -0.372894 2.51956 0
M  V30 1044 H 90.6752 1.13536 3.23982 0
M  V30 1045 N 93.1203 -1.57491 0.0584922 0
M  V30 1046 C 94.3453 -1.97711 -0.62652 0
M  V30 1047 C 94.7703 -0.936132 -1.63151 0
M  V30 1048 O 94.1283 0.099811 -1.81025 0
M  V30 1049 C 94.1763 -3.36989 -1.28338 0
M  V30 1050 O 93.2803 -3.35433 -2.39913 0
M  V30 1051 H 92.6213 -0.643868 -0.162266 0
M  V30 1052 H 95.1513 -2.04193 0.129064 0
M  V30 1053 H 95.1613 -3.73879 -1.63335 0
M  V30 1054 H 93.8363 -4.12289 -0.546889 0
M  V30 1055 H 92.4133 -3.10298 -2.06809 0
M  V30 1056 N 94.5984 0.214957 -1.56127 0
M  V30 1057 C 95.5304 1.29004 -1.89448 0
M  V30 1058 C 96.5434 1.42716 -0.783326 0
M  V30 1059 O 97.7324 1.43496 -1.06166 0
M  V30 1060 C 94.8324 2.66482 -2.09381 0
M  V30 1061 C 94.0054 2.74633 -3.40434 0
M  V30 1062 C 93.0644 3.9317 -3.49719 0
M  V30 1063 O 92.0904 3.812 -4.227 0
M  V30 1064 N 93.2924 5.07765 -2.81346 0
M  V30 1065 H 96.0574 1.00743 -2.82261 0
M  V30 1066 H 93.6184 0.40497 -1.56753 0
M  V30 1067 H 95.6104 3.44173 -2.12901 0
M  V30 1068 H 94.1804 2.87314 -1.23163 0
M  V30 1069 H 93.4004 1.83368 -3.48955 0
M  V30 1070 H 94.6884 2.77054 -4.26754 0
M  V30 1071 H 94.0864 5.20386 -2.21843 0
M  V30 1072 H 92.6434 5.83474 -2.90519 0
M  V30 1073 N 96.0765 1.50051 0.48192 0
M  V30 1074 C 97.3245 1.60181 1.23234 0
M  V30 1075 C 97.6455 0.299176 1.92691 0
M  V30 1076 O 96.9155 -0.682708 1.83619 0
M  V30 1077 H 95.4955 0.590232 0.457859 0
M  V30 1078 H 98.1575 1.86775 0.556881 0
M  V30 1079 H 97.2535 2.40753 1.98607 0
M  V30 1080 N 97.5546 -0.734337 1.39446 0
M  V30 1081 C 98.4646 -1.87879 1.40495 0
M  V30 1082 C 99.4806 -1.714 0.299672 0
M  V30 1083 O 100.657 -1.93991 0.541249 0
M  V30 1084 C 97.7216 -3.23477 1.24754 0
M  V30 1085 C 96.7826 -3.52344 2.45259 0
M  V30 1086 C 96.0156 -4.81473 2.30259 0
M  V30 1087 O 96.2386 -5.55237 1.30643 0
M  V30 1088 O 95.1726 -5.10254 3.19256 0
M  V30 1089 H 98.9986 -1.89949 2.36966 0
M  V30 1090 H 96.5836 -0.882243 1.20569 0
M  V30 1091 H 98.4656 -4.04509 1.18111 0
M  V30 1092 H 97.1406 -3.22176 0.313781 0
M  V30 1093 H 96.0476 -2.71396 2.57478 0
M  V30 1094 H 97.3806 -3.58426 3.37331 0
M  V30 1095 N 99.0327 -1.24633 -0.964593 0
M  V30 1096 C 100.279 -1.08949 -1.71049 0
M  V30 1097 C 100.612 0.370302 -1.90637 0
M  V30 1098 O 99.8867 1.27349 -1.47011 0
M  V30 1099 C 100.17 -1.83329 -3.0994 0
M  V30 1100 C 100.023 -3.37077 -2.97824 0
M  V30 1101 C 101.342 -1.60846 -4.09654 0
M  V30 1102 H 98.4607 -0.397178 -0.620821 0
M  V30 1103 H 101.103 -1.5334 -1.12191 0
M  V30 1104 H 99.2527 -1.45597 -3.60186 0
M  V30 1105 H 100.925 -3.84425 -2.5498 0
M  V30 1106 H 99.1677 -3.65298 -2.33965 0
M  V30 1107 H 99.8387 -3.84324 -3.96231 0
M  V30 1108 H 102.315 -1.93674 -3.68279 0
M  V30 1109 H 101.191 -2.1534 -5.04896 0
M  V30 1110 H 101.452 -0.547434 -4.38698 0
M  V30 1111 N 100.511 1.16574 -1.06058 0
M  V30 1112 C 101.922 1.68662 -0.800632 0
M  V30 1113 C 102.273 1.84184 0.67608 0
M  V30 1114 O 101.398 1.53568 1.52466 0
M  V30 1115 C 101.993 3.06356 -1.44676 0
M  V30 1116 C 100.552 3.55575 -1.23465 0
M  V30 1117 C 99.6988 2.31616 -1.52477 0
M  V30 1118 H 102.65 1.00969 -1.22438 0
M  V30 1119 H 102.671 3.70636 -0.860788 0
M  V30 1120 H 102.183 2.95027 -2.52152 0
M  V30 1121 H 100.284 3.72167 -0.179527 0
M  V30 1122 H 100.397 4.37812 -1.94571 0
M  V30 1123 H 98.7608 2.36512 -0.945209 0
M  V30 1124 H 99.5438 2.22887 -2.61106 0
M  V30 1125 N 101.989 0.842826 1.3317 0
M  V30 1126 C 103.4 0.496651 1.79973 0
M  V30 1127 C 103.751 -0.984641 1.69703 0
M  V30 1128 O 102.876 -1.76743 1.24863 0
M  V30 1129 C 103.471 0.894727 3.26772 0
M  V30 1130 C 102.03 0.600629 3.71577 0
M  V30 1131 C 101.177 1.10091 2.5451 0
M  V30 1132 H 104.128 1.03116 1.20635 0
M  V30 1133 H 104.149 0.206347 3.7994 0
M  V30 1134 H 103.661 1.97287 3.34215 0
M  V30 1135 H 101.762 -0.467284 3.69658 0
M  V30 1136 H 101.875 1.15863 4.64879 0
M  V30 1137 H 100.239 0.52162 2.49301 0
M  V30 1138 H 101.022 2.18591 2.64713 0
M  V30 1139 N 103.467 -1.45747 0.599634 0
M  V30 1140 C 104.715 -2.01893 0.0915472 0
M  V30 1141 C 105.036 -1.47155 -1.27946 0
M  V30 1142 O 104.306 -0.66273 -1.84349 0
M  V30 1143 H 102.886 -0.746363 0.0308524 0
M  V30 1144 H 105.548 -1.78645 0.779237 0
M  V30 1145 H 104.644 -3.1208 0.0353086 0
M  V30 1146 N 104.945 -0.338344 -1.53925 0
M  V30 1147 C 106.356 0.146651 -1.86123 0
M  V30 1148 C 106.707 1.5042 -1.2597 0
M  V30 1149 O 105.832 2.08723 -0.571294 0
M  V30 1150 C 106.427 0.272879 -3.37699 0
M  V30 1151 C 104.986 0.702103 -3.69794 0
M  V30 1152 C 104.133 -0.167304 -2.76795 0
M  V30 1153 H 107.084 -0.558123 -1.48562 0
M  V30 1154 H 107.105 1.10128 -3.64214 0
M  V30 1155 H 106.617 -0.715307 -3.81451 0
M  V30 1156 H 104.718 1.6995 -3.31584 0
M  V30 1157 H 104.831 0.495604 -4.7653 0
M  V30 1158 H 103.195 0.359527 -2.5215 0
M  V30 1159 H 103.978 -1.15253 -3.23375 0
M  V30 1160 N 106.423 1.57458 -0.0668435 0
M  V30 1161 C 107.353 2.15468 0.899764 0
M  V30 1162 C 108.334 1.08042 1.31381 0
M  V30 1163 O 109.519 1.36054 1.38574 0
M  V30 1164 C 106.649 2.71232 2.16911 0
M  V30 1165 C 105.603 3.83781 1.89463 0
M  V30 1166 C 104.929 4.26127 3.22986 0
M  V30 1167 C 106.229 5.08238 1.20381 0
M  V30 1168 H 107.923 2.96488 0.416529 0
M  V30 1169 H 105.469 1.4262 0.198908 0
M  V30 1170 H 107.422 3.10458 2.84945 0
M  V30 1171 H 106.146 1.87426 2.67468 0
M  V30 1172 H 104.805 3.45051 1.23836 0
M  V30 1173 H 104.453 3.39249 3.71374 0
M  V30 1174 H 104.153 5.01993 3.05413 0
M  V30 1175 H 105.677 4.67966 3.92225 0
M  V30 1176 H 107.091 5.44811 1.78475 0
M  V30 1177 H 105.488 5.89349 1.13083 0
M  V30 1178 H 106.558 4.84558 0.182153 0
M  V30 1179 N 107.901 -0.206675 1.56239 0
M  V30 1180 C 109.312 -0.772383 1.69974 0
M  V30 1181 C 109.663 -1.84353 0.671436 0
M  V30 1182 O 108.788 -2.15695 -0.174491 0
M  V30 1183 C 109.383 -1.40779 3.08167 0
M  V30 1184 C 107.942 -1.92072 3.23706 0
M  V30 1185 C 107.089 -0.786347 2.65917 0
M  V30 1186 H 110.04 0.0182223 1.5869 0
M  V30 1187 H 110.061 -2.27696 3.04852 0
M  V30 1188 H 109.573 -0.627958 3.82986 0
M  V30 1189 H 107.674 -2.7281 2.53782 0
M  V30 1190 H 107.787 -2.09046 4.31087 0
M  V30 1191 H 106.151 -1.1976 2.24788 0
M  V30 1192 H 106.934 -0.0189416 3.43295 0
M  V30 1193 N 109.379 -1.50304 -0.473955 0
M  V30 1194 C 110.289 -1.7174 -1.5982 0
M  V30 1195 C 111.305 -0.600457 -1.63311 0
M  V30 1196 O 112.481 -0.878441 -1.81233 0
M  V30 1197 C 109.546 -1.80427 -2.96052 0
M  V30 1198 C 108.607 -3.04148 -3.02972 0
M  V30 1199 C 107.84 -3.12411 -4.32706 0
M  V30 1200 O 108.063 -2.27542 -5.23049 0
M  V30 1201 O 106.997 -4.05113 -4.45159 0
M  V30 1202 H 110.823 -2.67035 -1.44657 0
M  V30 1203 H 108.408 -1.34366 -0.653148 0
M  V30 1204 H 110.29 -1.88338 -3.7697 0
M  V30 1205 H 108.965 -0.883156 -3.11419 0
M  V30 1206 H 107.872 -3.0174 -2.21142 0
M  V30 1207 H 109.205 -3.95829 -2.92541 0
M  V30 1208 N 110.857 0.726932 -1.39834 0
M  V30 1209 C 111.82 1.82269 -1.38962 0
M  V30 1210 C 112.82 1.58248 -0.285334 0
M  V30 1211 O 114.01 1.65499 -0.54366 0
M  V30 1212 C 111.142 3.20186 -1.17019 0
M  V30 1213 H 112.335 1.84443 -2.36476 0
M  V30 1214 H 109.888 0.931416 -1.25516 0
M  V30 1215 H 110.623 3.23669 -0.202204 0
M  V30 1216 H 110.408 3.3902 -1.96998 0
M  V30 1217 H 111.898 4.00235 -1.1917 0
M  V30 1218 N 112.336 1.25143 0.95797 0
M  V30 1219 C 113.582 1.09855 1.70469 0
M  V30 1220 C 113.915 -0.360187 1.90831 0
M  V30 1221 O 113.19 -1.26568 1.47685 0
M  V30 1222 C 113.473 1.8497 3.08963 0
M  V30 1223 C 113.326 3.38652 2.96032 0
M  V30 1224 C 114.645 1.63016 4.08795 0
M  V30 1225 H 111.764 0.400465 0.618706 0
M  V30 1226 H 114.406 1.53933 1.11376 0
M  V30 1227 H 112.556 1.47505 3.59409 0
M  V30 1228 H 114.228 3.85772 2.52938 0
M  V30 1229 H 112.471 3.66534 2.32025 0
M  V30 1230 H 113.142 3.8642 3.94187 0
M  V30 1231 H 115.618 1.95625 3.67247 0
M  V30 1232 H 114.494 2.18015 5.03747 0
M  V30 1233 H 114.755 0.570692 4.38401 0
M  V30 1234 N 113.814 -1.1601 1.06675 0
M  V30 1235 C 114.744 -2.22688 0.702307 0
M  V30 1236 C 115.725 -1.67306 -0.307032 0
M  V30 1237 O 116.91 -1.93352 -0.181305 0
M  V30 1238 C 114.04 -3.47178 0.092038 0
M  V30 1239 C 112.994 -4.15477 1.02777 0
M  V30 1240 C 112.32 -5.33963 0.28061 0
M  V30 1241 C 113.62 -4.66019 2.35846 0
M  V30 1242 H 115.314 -2.53429 1.59419 0
M  V30 1243 H 112.86 -1.21813 0.767961 0
M  V30 1244 H 114.813 -4.21037 -0.174814 0
M  V30 1245 H 113.537 -3.15749 -0.834877 0
M  V30 1246 H 112.196 -3.43549 1.27944 0
M  V30 1247 H 111.844 -4.98788 -0.649545 0
M  V30 1248 H 111.544 -5.806 0.904258 0
M  V30 1249 H 113.068 -6.10596 0.021396 0
M  V30 1250 H 114.482 -5.3144 2.15045 0
M  V30 1251 H 112.879 -5.23293 2.93743 0
M  V30 1252 H 113.949 -3.82023 2.98641 0
M  V30 1253 N 115.292 -0.849877 -1.32721 0
M  V30 1254 C 116.255 -0.296122 -2.27279 0
M  V30 1255 C 117.255 0.541458 -1.5141 0
M  V30 1256 O 118.445 0.353658 -1.70572 0
M  V30 1257 C 115.577 0.581579 -3.35902 0
M  V30 1258 H 116.77 -1.13064 -2.77771 0
M  V30 1259 H 114.323 -0.62383 -1.43311 0
M  V30 1260 H 115.058 1.43809 -2.9067 0
M  V30 1261 H 114.843 -0.0178814 -3.92096 0
M  V30 1262 H 116.333 0.961951 -4.0637 0
M  V30 1263 N 116.77 1.45427 -0.607355 0
M  V30 1264 C 117.7 2.3329 0.0989352 0
M  V30 1265 C 118.681 1.46816 0.859007 0
M  V30 1266 O 119.866 1.75588 0.829604 0
M  V30 1267 C 116.996 3.29518 1.09705 0
M  V30 1268 C 115.95 4.25626 0.450206 0
M  V30 1269 C 115.276 5.11542 1.55655 0
M  V30 1270 C 116.576 5.18505 -0.628455 0
M  V30 1271 H 118.27 2.92595 -0.634716 0
M  V30 1272 H 115.816 1.40696 -0.306681 0
M  V30 1273 H 117.769 3.89855 1.59971 0
M  V30 1274 H 116.493 2.68372 1.86129 0
M  V30 1275 H 115.152 3.66586 -0.0315886 0
M  V30 1276 H 114.8 4.46765 2.31107 0
M  V30 1277 H 114.5 5.76647 1.12925 0
M  V30 1278 H 116.024 5.74748 2.06148 0
M  V30 1279 H 117.438 5.72916 -0.209877 0
M  V30 1280 H 115.835 5.92085 -0.977489 0
M  V30 1281 H 116.905 4.60948 -1.50514 0
M  V30 1282 N 118.248 0.346503 1.53744 0
M  V30 1283 C 119.478 -0.250047 2.05081 0
M  V30 1284 C 119.886 -1.44529 1.22098 0
M  V30 1285 O 119.229 -1.81992 0.249917 0
M  V30 1286 C 119.291 -0.725934 3.52094 0
M  V30 1287 C 118.955 0.350053 4.55657 0
M  V30 1288 C 119.952 1.19372 5.0601 0
M  V30 1289 C 117.637 0.504827 4.99757 0
M  V30 1290 C 119.631 2.17768 5.99046 0
M  V30 1291 C 117.318 1.49218 5.92602 0
M  V30 1292 C 118.316 2.32706 6.42135 0
M  V30 1293 O 118.004 3.2976 7.33153 0
M  V30 1294 H 117.736 -0.0515469 0.674032 0
M  V30 1295 H 120.29 0.497559 1.99282 0
M  V30 1296 H 118.52 -1.52483 3.55367 0
M  V30 1297 H 120.209 -1.24336 3.86388 0
M  V30 1298 H 120.975 1.08525 4.72702 0
M  V30 1299 H 116.854 -0.135178 4.60802 0
M  V30 1300 H 120.398 2.82971 6.37631 0
M  V30 1301 H 116.295 1.6012 6.25325 0
M  V30 1302 H 117.063 3.25265 7.51096 0
M  V30 1303 N 119.726 -1.57421 0.075193 0
M  V30 1304 C 120.674 -2.14124 -0.908508 0
M  V30 1305 C 121.668 -1.07898 -1.30592 0
M  V30 1306 O 122.874 -1.26273 -1.28277 0
M  V30 1307 H 119.249 -0.684707 -0.310935 0
M  V30 1308 H 121.22 -2.95634 -0.405374 0
M  V30 1309 C 119.969 -2.72044 -2.16535 0
M  V30 1310 H 119.292 -3.53456 -1.86839 0
M  V30 1311 H 120.732 -3.15311 -2.83469 0
M  V30 1312 C 119.191 -1.66968 -2.92615 0
M  V30 1313 O 119.721 -1.0967 -3.86439 0
M  V30 1314 N 117.927 -1.37923 -2.55784 0
M  V30 1315 H 117.474 -1.84706 -1.79559 0
M  V30 1316 H 117.432 -0.67852 -3.06991 0
M  V30 1317 N 121.204 0.198386 -1.56346 0
M  V30 1318 C 122.429 0.939682 -1.84891 0
M  V30 1319 C 122.854 1.76202 -0.658369 0
M  V30 1320 O 122.212 1.76993 0.392851 0
M  V30 1321 C 122.26 1.81428 -3.11635 0
M  V30 1322 O 121.364 2.91265 -2.91956 0
M  V30 1323 H 120.705 0.264807 -0.608912 0
M  V30 1324 H 123.235 0.204695 -2.03573 0
M  V30 1325 H 123.245 2.21958 -3.42343 0
M  V30 1326 H 121.92 1.21004 -3.97908 0
M  V30 1327 H 120.497 2.54514 -2.72538 0
M  V30 1328 N 122.682 1.50554 0.465978 0
M  V30 1329 C 123.91 1.65563 1.24083 0
M  V30 1330 C 124.325 0.341051 1.85694 0
M  V30 1331 O 123.682 -0.677543 1.69457 0
M  V30 1332 C 123.733 2.75051 2.34583 0
M  V30 1333 O 123.454 4.01413 1.75497 0
M  V30 1334 C 124.955 3.01078 3.25372 0
M  V30 1335 H 122.175 0.55638 0.375077 0
M  V30 1336 H 124.719 1.96807 0.555624 0
M  V30 1337 H 122.874 2.46486 2.9887 0
M  V30 1338 H 123.288 4.62002 2.48303 0
M  V30 1339 H 124.762 3.81339 3.99105 0
M  V30 1340 H 125.239 2.12349 3.84453 0
M  V30 1341 H 125.845 3.31194 2.66816 0
M  V30 1342 N 124.16 -0.719506 1.40217 0
M  V30 1343 C 125.576 -1.02707 1.22161 0
M  V30 1344 C 125.776 -2.0128 0.0940557 0
M  V30 1345 O 124.832 -2.46452 -0.549318 0
M  V30 1346 C 126.145 -1.57454 2.56181 0
M  V30 1347 C 127.693 -1.69458 2.63159 0
M  V30 1348 C 128.168 -2.27611 3.97438 0
M  V30 1349 N 129.659 -2.35002 3.99159 0
M  V30 1350 C 130.394 -2.80972 4.99842 0
M  V30 1351 N 129.89 -3.26723 6.10921 0
M  V30 1352 N 131.683 -2.80321 4.87213 0
M  V30 1353 H 123.834 -0.0660492 2.12297 0
M  V30 1354 H 126.097 -0.0919077 0.943534 0
M  V30 1355 H 125.803 -0.924873 3.39321 0
M  V30 1356 H 125.677 -2.56036 2.76993 0
M  V30 1357 H 128.064 -2.33543 1.80393 0
M  V30 1358 H 128.145 -0.694867 2.46181 0
M  V30 1359 H 127.789 -1.6415 4.80643 0
M  V30 1360 H 127.719 -3.2829 4.11744 0
M  V30 1361 H 130.21 -2.02685 3.18947 0
M  V30 1362 H 130.523 -3.60355 6.8364 0
M  V30 1363 H 128.868 -3.24692 6.14492 0
M  V30 1364 H 132.059 -2.43912 3.9953 0
M  V30 1365 H 132.232 -3.15831 5.65822 0
M  V30 1366 N 125.638 -1.25649 -0.95132 0
M  V30 1367 C 126.915 -1.01361 -1.67288 0
M  V30 1368 C 127.295 0.459135 -2.06046 0
M  V30 1369 O 126.643 1.43723 -1.7764 0
M  V30 1370 C 126.853 -1.95256 -2.89268 0
M  V30 1371 C 128.201 -2.23289 -3.61147 0
M  V30 1372 O 129.225 -1.93041 -2.99355 0
M  V30 1373 O 128.084 -2.74741 -4.72419 0
M  V30 1374 H 125.178 -0.38464 -0.732107 0
M  V30 1375 H 127.724 -1.36817 -1.00395 0
M  V30 1376 H 126.496 -2.94685 -2.57442 0
M  V30 1377 H 126.119 -1.60218 -3.6389 0
M  V30 1378 N 127.117 1.15442 -1.07289 0
M  V30 1379 C 128.533 1.38201 -0.798288 0
M  V30 1380 C 128.733 1.92429 0.597769 0
M  V30 1381 O 127.789 2.12962 1.3566 0
M  V30 1382 C 129.102 2.35357 -1.87156 0
M  V30 1383 C 130.65 2.49021 -1.89624 0
M  V30 1384 C 131.125 3.49468 -2.96034 0
M  V30 1385 N 132.616 3.57003 -2.95132 0
M  V30 1386 C 133.351 4.34543 -3.74112 0
M  V30 1387 N 132.847 5.15421 -4.6294 0
M  V30 1388 N 134.64 4.29625 -3.62462 0
M  V30 1389 H 126.791 0.78584 -1.97328 0
M  V30 1390 H 129.054 0.408065 -0.855679 0
M  V30 1391 H 128.76 2.02626 -2.87464 0
M  V30 1392 H 128.634 3.35129 -1.73114 0
M  V30 1393 H 131.021 2.81051 -0.899687 0
M  V30 1394 H 131.102 1.4925 -2.07745 0
M  V30 1395 H 130.746 3.18173 -3.95889 0
M  V30 1396 H 130.676 4.48992 -2.75161 0
M  V30 1397 H 133.167 2.99276 -2.30743 0
M  V30 1398 H 133.48 5.7183 -5.19837 0
M  V30 1399 H 131.825 5.14729 -4.66989 0
M  V30 1400 H 135.016 3.65505 -2.92444 0
M  V30 1401 H 135.189 4.89807 -4.24256 0
M  V30 1402 N 128.595 0.856903 1.32268 0
M  V30 1403 C 129.841 0.462069 1.97466 0
M  V30 1404 C 130.174 -0.980298 1.67642 0
M  V30 1405 O 129.449 -1.68824 0.965858 0
M  V30 1406 C 129.732 0.704336 3.53145 0
M  V30 1407 C 129.585 2.19529 3.9259 0
M  V30 1408 C 130.904 0.1622 4.39801 0
M  V30 1409 H 128.023 0.169357 0.717278 0
M  V30 1410 H 130.665 1.07574 1.56614 0
M  V30 1411 H 128.815 0.181999 3.88073 0
M  V30 1412 H 130.487 2.78387 3.67829 0
M  V30 1413 H 128.73 2.67292 3.41668 0
M  V30 1414 H 129.401 2.31549 5.01088 0
M  V30 1415 H 131.877 0.608905 4.11621 0
M  V30 1416 H 130.753 0.361265 5.4771 0
M  V30 1417 H 131.014 -0.935158 4.32096 0
M  V30 1418 N 130.073 -1.45103 0.615059 0
M  V30 1419 C 131.036 -2.29025 -0.0895485 0
M  V30 1420 C 132.036 -1.40174 -0.787906 0
M  V30 1421 O 133.226 -1.62217 -0.634933 0
M  V30 1422 C 130.358 -3.21376 -1.13711 0
M  V30 1423 H 131.551 -2.92807 0.648382 0
M  V30 1424 H 129.104 -1.51749 0.374444 0
M  V30 1425 H 129.839 -2.6241 -1.90556 0
M  V30 1426 H 129.624 -3.86834 -0.640475 0
M  V30 1427 H 131.114 -3.84459 -1.63036 0
M  V30 1428 N 131.551 -0.354651 -1.53558 0
M  V30 1429 C 132.799 0.237972 -2.00694 0
M  V30 1430 C 133.12 1.50173 -1.24391 0
M  V30 1431 O 132.39 1.92673 -0.354135 0
M  V30 1432 H 130.97 0.0909256 -0.741446 0
M  V30 1433 H 133.632 -0.478368 -1.88938 0
M  V30 1434 H 132.728 0.47264 -3.085 0
M  V30 1435 N 133.029 1.57378 -0.0835403 0
M  V30 1436 C 133.939 2.16897 0.894021 0
M  V30 1437 C 134.955 1.13528 1.31861 0
M  V30 1438 O 136.131 1.45848 1.3889 0
M  V30 1439 C 133.196 2.72831 2.13925 0
M  V30 1440 C 132.257 3.91115 1.76997 0
M  V30 1441 C 131.49 4.44371 2.95584 0
M  V30 1442 O 131.713 3.96596 4.09961 0
M  V30 1443 O 130.647 5.35549 2.74719 0
M  V30 1444 H 134.473 3.00814 0.417679 0
M  V30 1445 H 132.058 1.48741 0.140181 0
M  V30 1446 H 133.94 3.0863 2.86924 0
M  V30 1447 H 132.615 1.91967 2.60635 0
M  V30 1448 H 131.522 3.60148 1.01214 0
M  V30 1449 H 132.855 4.73307 1.3506 0
M  V30 1450 N 134.507 -0.190092 1.56449 0
M  V30 1451 C 135.732 -0.929864 1.85387 0
M  V30 1452 C 136.157 -1.7585 0.667704 0
M  V30 1453 O 135.515 -1.77198 -0.383459 0
M  V30 1454 C 135.563 -1.79773 3.12593 0
M  V30 1455 O 134.667 -2.89713 2.93496 0
M  V30 1456 H 134.008 -0.261574 0.610307 0
M  V30 1457 H 136.538 -0.193896 2.03679 0
M  V30 1458 H 136.548 -2.20139 3.43515 0
M  V30 1459 H 135.223 -1.18892 3.98544 0
M  V30 1460 H 133.8 -2.53065 2.73884 0
M  V30 1461 N 135.985 -1.50799 -0.457987 0
M  V30 1462 C 136.948 -1.7005 -1.53674 0
M  V30 1463 C 137.948 -0.570881 -1.50325 0
M  V30 1464 O 139.138 -0.838126 -1.52712 0
M  V30 1465 C 136.27 -1.73788 -2.93276 0
M  V30 1466 H 137.463 -2.66306 -1.37917 0
M  V30 1467 H 135.016 -1.40477 -0.685271 0
M  V30 1468 H 135.751 -0.792717 -3.14462 0
M  V30 1469 H 135.536 -2.55864 -2.97113 0
M  V30 1470 H 137.026 -1.90591 -3.71571 0
M  V30 1471 N 137.463 0.71206 -1.40597 0
M  V30 1472 C 138.373 1.8562 -1.43466 0
M  V30 1473 C 139.389 1.70902 -0.326902 0
M  V30 1474 O 140.565 1.93105 -0.572043 0
M  V30 1475 C 137.63 3.21451 -1.29884 0
M  V30 1476 C 136.691 3.48398 -2.50833 0
M  V30 1477 C 135.924 4.77749 -2.3789 0
M  V30 1478 O 136.147 5.53089 -1.39459 0
M  V30 1479 O 135.081 5.05111 -3.27333 0
M  V30 1480 H 138.907 1.86155 -2.39958 0
M  V30 1481 H 136.492 0.86295 -1.21957 0
M  V30 1482 H 138.374 4.02579 -1.24531 0
M  V30 1483 H 137.049 3.21636 -0.364997 0
M  V30 1484 H 135.956 2.67265 -2.61763 0
M  V30 1485 H 137.289 3.53014 -3.4299 0
M  V30 1486 N 138.941 1.26152 0.944643 0
M  V30 1487 C 140.352 1.10454 1.50522 0
M  V30 1488 C 140.703 -0.31635 1.93633 0
M  V30 1489 O 139.828 -1.20746 1.79581 0
M  V30 1490 C 140.423 1.99891 2.73549 0
M  V30 1491 C 138.982 1.88348 3.25886 0
M  V30 1492 C 138.129 1.93447 1.9868 0
M  V30 1493 H 141.08 1.39292 0.760489 0
M  V30 1494 H 141.101 1.54477 3.47732 0
M  V30 1495 H 140.613 3.03297 2.42141 0
M  V30 1496 H 138.714 0.878636 3.62092 0
M  V30 1497 H 138.827 2.73696 3.93227 0
M  V30 1498 H 137.191 1.37456 2.14425 0
M  V30 1499 H 137.974 2.98476 1.69607 0
M  V30 1500 N 140.419 -1.14872 1.07899 0
M  V30 1501 C 141.329 -2.2341 0.715915 0
M  V30 1502 C 142.345 -1.71808 -0.275306 0
M  V30 1503 O 143.521 -2.01039 -0.120545 0
M  V30 1504 C 140.586 -3.46474 0.125168 0
M  V30 1505 C 139.647 -4.13039 1.17034 0
M  V30 1506 C 138.88 -5.30229 0.607688 0
M  V30 1507 O 139.103 -5.675 -0.574497 0
M  V30 1508 O 138.037 -5.86444 1.35526 0
M  V30 1509 H 141.863 -2.56808 1.62121 0
M  V30 1510 H 139.448 -1.22702 0.852322 0
M  V30 1511 H 141.33 -4.20917 -0.201729 0
M  V30 1512 H 140.005 -3.14811 -0.753364 0
M  V30 1513 H 138.912 -3.40493 1.54968 0
M  V30 1514 H 140.245 -4.48796 2.02097 0
M  V30 1515 N 141.898 -0.863906 -1.31812 0
M  V30 1516 C 143.309 -0.52522 -1.7916 0
M  V30 1517 C 143.66 0.957518 -1.71248 0
M  V30 1518 O 142.785 1.74734 -1.27659 0
M  V30 1519 C 143.38 -0.9466 -3.25307 0
M  V30 1520 C 141.939 -0.659668 -3.70574 0
M  V30 1521 C 141.086 -1.14126 -2.52726 0
M  V30 1522 H 144.037 -1.05022 -1.1898 0
M  V30 1523 H 144.058 -0.266766 -3.79564 0
M  V30 1524 H 143.57 -2.02579 -3.31034 0
M  V30 1525 H 141.671 0.408416 -3.70355 0
M  V30 1526 H 141.784 -1.23245 -4.62977 0
M  V30 1527 H 140.148 -0.561216 -2.4844 0
M  V30 1528 H 140.931 -2.22775 -2.61201 0
M  V30 1529 N 143.376 1.44774 -0.622745 0
M  V30 1530 C 144.286 2.34433 0.0886031 0
M  V30 1531 C 145.302 1.52131 0.844529 0
M  V30 1532 O 146.478 1.84886 0.798691 0
M  V30 1533 C 143.543 3.29986 1.0635 0
M  V30 1534 C 142.604 4.28195 0.307873 0
M  V30 1535 C 141.837 5.19183 1.23633 0
M  V30 1536 O 142.06 5.13918 2.47476 0
M  V30 1537 O 140.994 5.97515 0.725189 0
M  V30 1538 H 144.82 2.96693 -0.648599 0
M  V30 1539 H 142.405 1.44408 -0.382957 0
M  V30 1540 H 144.287 3.88825 1.6246 0
M  V30 1541 H 142.962 2.70269 1.78146 0
M  V30 1542 H 141.869 3.72927 -0.296064 0
M  V30 1543 H 143.202 4.90808 -0.3699 0
M  V30 1544 N 144.854 0.36279 1.53368 0
M  V30 1545 C 146.265 -0.117022 1.86333 0
M  V30 1546 C 146.616 -1.48397 1.28347 0
M  V30 1547 O 145.741 -2.07787 0.604428 0
M  V30 1548 C 146.336 -0.21912 3.38091 0
M  V30 1549 C 144.895 -0.643184 3.70864 0
M  V30 1550 C 144.042 0.211318 2.76494 0
M  V30 1551 H 146.993 0.581687 1.47655 0
M  V30 1552 H 147.014 -1.04319 3.6592 0
M  V30 1553 H 146.526 0.775902 3.80265 0
M  V30 1554 H 144.627 -1.64654 3.34245 0
M  V30 1555 H 144.74 -0.41973 4.77258 0
M  V30 1556 H 143.104 -0.319367 2.5269 0
M  V30 1557 H 143.887 1.20383 3.21501 0
M  V30 1558 N 146.332 -1.57332 0.0918853 0
M  V30 1559 C 147.242 -2.17368 -0.882505 0
M  V30 1560 C 148.258 -1.14226 -1.31257 0
M  V30 1561 O 149.434 -1.46582 -1.38115 0
M  V30 1562 C 146.499 -2.73962 -2.12476 0
M  V30 1563 C 145.56 -3.92048 -1.7492 0
M  V30 1564 C 144.793 -4.45933 -2.93223 0
M  V30 1565 O 145.016 -3.98764 -4.07852 0
M  V30 1566 O 143.95 -5.36999 -2.71875 0
M  V30 1567 H 147.776 -3.01031 -0.40172 0
M  V30 1568 H 145.361 -1.48813 -0.132291 0
M  V30 1569 H 147.243 -3.10147 -2.85283 0
M  V30 1570 H 145.918 -1.93347 -2.59613 0
M  V30 1571 H 144.825 -3.6068 -0.993025 0
M  V30 1572 H 146.158 -4.74017 -1.32548 0
M  V30 1573 N 147.81 0.181792 -1.56548 0
M  V30 1574 C 148.773 1.20894 -1.94724 0
M  V30 1575 C 149.773 1.37738 -0.829747 0
M  V30 1576 O 150.963 1.35323 -1.09697 0
M  V30 1577 C 148.095 2.57593 -2.23291 0
M  V30 1578 H 149.288 0.882275 -2.86629 0
M  V30 1579 H 146.841 0.423838 -1.50444 0
M  V30 1580 H 147.576 2.95291 -1.34067 0
M  V30 1581 H 147.361 2.46735 -3.04736 0
M  V30 1582 H 148.851 3.31637 -2.53785 0
M  V30 1583 N 149.288 1.51039 0.449983 0
M  V30 1584 C 150.565 1.53612 1.21089 0
M  V30 1585 C 150.945 0.292997 2.09057 0
M  V30 1586 O 150.293 -0.72259 2.16774 0
M  V30 1587 C 150.503 2.84337 2.0237 0
M  V30 1588 C 151.851 3.35807 2.59843 0
M  V30 1589 O 152.875 2.85802 2.12593 0
M  V30 1590 O 151.734 4.23029 3.45989 0
M  V30 1591 H 148.828 0.617057 0.550608 0
M  V30 1592 H 151.374 1.63344 0.460082 0
M  V30 1593 H 150.146 3.66278 1.37681 0
M  V30 1594 H 149.769 2.77708 2.84542 0
M  V30 1595 N 150.766 -0.704594 1.40972 0
M  V30 1596 C 151.996 -1.49138 1.42974 0
M  V30 1597 C 152.404 -1.89175 0.0308406 0
M  V30 1598 O 151.747 -1.56734 -0.958138 0
M  V30 1599 C 151.809 -2.79016 2.26694 0
M  V30 1600 C 151.473 -2.61236 3.74973 0
M  V30 1601 C 152.47 -2.27773 4.67349 0
M  V30 1602 C 150.155 -2.77158 4.18914 0
M  V30 1603 C 152.149 -2.10457 6.01653 0
M  V30 1604 C 149.836 -2.59459 5.53285 0
M  V30 1605 C 150.834 -2.26158 6.4447 0
M  V30 1606 O 150.522 -2.08605 7.76363 0
M  V30 1607 H 150.254 -0.466443 0.489292 0
M  V30 1608 H 152.808 -0.8758 1.85793 0
M  V30 1609 H 151.038 -3.42947 1.78673 0
M  V30 1610 H 152.727 -3.40782 2.20504 0
M  V30 1611 H 153.493 -2.15095 4.34694 0
M  V30 1612 H 149.372 -3.02064 3.48251 0
M  V30 1613 H 152.916 -1.84387 6.72791 0
M  V30 1614 H 148.813 -2.71725 5.85522 0
M  V30 1615 H 149.581 -2.23439 7.87412 0
M  V30 1616 N 152.244 -1.26651 -0.937939 0
M  V30 1617 C 153.474 -1.15006 -1.71631 0
M  V30 1618 C 153.882 0.297026 -1.86854 0
M  V30 1619 O 153.225 1.21493 -1.37786 0
M  V30 1620 C 153.287 -1.74984 -3.14039 0
M  V30 1621 C 152.951 -3.24103 -3.2219 0
M  V30 1622 C 153.948 -4.20877 -3.05219 0
M  V30 1623 C 151.633 -3.64625 -3.45476 0
M  V30 1624 C 153.627 -5.56151 -3.11408 0
M  V30 1625 C 151.314 -5.00032 -3.513 0
M  V30 1626 C 152.312 -5.95604 -3.34282 0
M  V30 1627 O 152 -7.28545 -3.3982 0
M  V30 1628 H 151.732 -0.401183 -0.544085 0
M  V30 1629 H 154.286 -1.67832 -1.18413 0
M  V30 1630 H 152.516 -1.16624 -3.68695 0
M  V30 1631 H 154.205 -1.58199 -3.73802 0
M  V30 1632 H 154.971 -3.90908 -2.87081 0
M  V30 1633 H 150.85 -2.90718 -3.57777 0
M  V30 1634 H 154.394 -6.30727 -2.98043 0
M  V30 1635 H 150.291 -5.29659 -3.68959 0
M  V30 1636 H 151.059 -7.3686 -3.56343 0
M  V30 1637 N 153.722 1.14298 -1.08507 0
M  V30 1638 C 154.685 2.17607 -0.719711 0
M  V30 1639 C 155.685 1.58907 0.245997 0
M  V30 1640 O 156.875 1.74181 0.0254081 0
M  V30 1641 C 154.007 3.40842 -0.0627695 0
M  V30 1642 H 155.2 2.51443 -1.63452 0
M  V30 1643 H 152.753 1.28963 -0.88307 0
M  V30 1644 H 153.488 3.12587 0.863716 0
M  V30 1645 H 153.273 3.84713 -0.757504 0
M  V30 1646 H 154.763 4.17221 0.177786 0
M  V30 1647 N 155.201 0.870884 1.31352 0
M  V30 1648 C 156.148 0.325425 2.28494 0
M  V30 1649 C 157.118 -0.576615 1.5577 0
M  V30 1650 O 158.303 -0.508059 1.83911 0
M  V30 1651 C 155.443 -0.466283 3.41935 0
M  V30 1652 C 154.556 0.463378 4.29508 0
M  V30 1653 C 153.691 -0.342544 5.30094 0
M  V30 1654 C 152.73 0.583486 6.09313 0
M  V30 1655 N 151.867 -0.186244 7.01853 0
M  V30 1656 H 156.707 1.15901 2.74538 0
M  V30 1657 H 154.244 0.58294 1.35056 0
M  V30 1658 H 156.202 -0.941085 4.06447 0
M  V30 1659 H 154.832 -1.26456 2.97 0
M  V30 1660 H 153.884 1.05663 3.65431 0
M  V30 1661 H 155.196 1.1734 4.84802 0
M  V30 1662 H 154.35 -0.879816 6.00287 0
M  V30 1663 H 153.089 -1.08585 4.75458 0
M  V30 1664 H 152.094 1.13251 5.3801 0
M  V30 1665 H 153.319 1.32566 6.66035 0
M  V30 1666 H 151.265 -0.912348 6.49625 0
M  V30 1667 H 151.182 0.464422 7.54572 0
M  V30 1668 H 152.45 -0.704716 7.76308 0
M  V30 1669 N 156.679 -1.44442 0.630414 0
M  V30 1670 C 157.589 -2.34476 -0.0761693 0
M  V30 1671 C 158.605 -1.52576 -0.836449 0
M  V30 1672 O 159.781 -1.85307 -0.788874 0
M  V30 1673 C 156.846 -3.30545 -1.04599 0
M  V30 1674 C 155.907 -4.28352 -0.28516 0
M  V30 1675 C 155.14 -5.19831 -1.20878 0
M  V30 1676 O 155.363 -5.15223 -2.44747 0
M  V30 1677 O 154.297 -5.97892 -0.693491 0
M  V30 1678 H 158.123 -2.96345 0.664324 0
M  V30 1679 H 155.708 -1.44203 0.39061 0
M  V30 1680 H 157.59 -3.89681 -1.60396 0
M  V30 1681 H 156.265 -2.7121 -1.76711 0
M  V30 1682 H 155.172 -3.72764 0.315837 0
M  V30 1683 H 156.505 -4.90605 0.395924 0
M  V30 1684 N 158.157 -0.370918 -1.53173 0
M  V30 1685 C 159.403 0.217423 -2.01631 0
M  V30 1686 C 159.736 1.47983 -1.25756 0
M  V30 1687 O 159.011 1.91274 -0.352764 0
M  V30 1688 C 159.294 0.503982 -3.56556 0
M  V30 1689 C 159.147 -0.77243 -4.43118 0
M  V30 1690 C 160.466 1.30234 -4.20389 0
M  V30 1691 H 157.585 0.0775486 -0.732909 0
M  V30 1692 H 160.227 -0.496863 -1.83388 0
M  V30 1693 H 158.377 1.11248 -3.72231 0
M  V30 1694 H 160.049 -1.4098 -4.39229 0
M  V30 1695 H 158.292 -1.39167 -4.10871 0
M  V30 1696 H 158.963 -0.526815 -5.4948 0
M  V30 1697 H 161.439 0.787546 -4.08579 0
M  V30 1698 H 160.315 1.47158 -5.28806 0
M  V30 1699 H 160.576 2.31237 -3.76805 0
M  V30 1700 N 159.635 1.57281 -0.100228 0
M  V30 1701 C 160.863 1.98879 0.570509 0
M  V30 1702 C 161.278 0.979476 1.61405 0
M  V30 1703 O 160.635 -0.0302288 1.82475 0
M  V30 1704 C 160.686 3.4052 1.2136 0
M  V30 1705 O 160.407 4.37588 0.211786 0
M  V30 1706 C 161.908 3.97149 1.96945 0
M  V30 1707 H 159.128 0.653428 0.152555 0
M  V30 1708 H 161.672 2.03697 -0.18103 0
M  V30 1709 H 159.827 3.367 1.91603 0
M  V30 1710 H 160.241 5.20118 0.676607 0
M  V30 1711 H 161.715 4.98393 2.37294 0
M  V30 1712 H 162.192 3.3525 2.83733 0
M  V30 1713 H 162.798 4.04458 1.31506 0
M  V30 1714 N 161.113 -0.173488 1.56642 0
M  V30 1715 C 162.529 -0.525174 1.50712 0
M  V30 1716 C 162.729 -1.8476 0.804107 0
M  V30 1717 O 161.785 -2.49869 0.363574 0
M  V30 1718 C 163.098 -0.559937 2.95441 0
M  V30 1719 C 164.646 -0.647288 3.06234 0
M  V30 1720 C 165.121 -0.712963 4.52417 0
M  V30 1721 N 166.612 -0.775911 4.56655 0
M  V30 1722 C 167.347 -0.847264 5.67106 0
M  V30 1723 N 166.843 -0.879585 6.87194 0
M  V30 1724 N 168.636 -0.886117 5.55071 0
M  V30 1725 H 160.787 0.693681 2.00753 0
M  V30 1726 H 163.05 0.249841 0.914485 0
M  V30 1727 H 162.756 0.343049 3.50023 0
M  V30 1728 H 162.63 -1.40718 3.49969 0
M  V30 1729 H 165.017 -1.5407 2.51687 0
M  V30 1730 H 165.098 0.226586 2.54794 0
M  V30 1731 H 164.742 0.176183 5.07594 0
M  V30 1732 H 164.672 -1.60295 5.0161 0
M  V30 1733 H 167.163 -0.759304 3.70193 0
M  V30 1734 H 167.476 -0.935144 7.67121 0
M  V30 1735 H 165.821 -0.847898 6.89808 0
M  V30 1736 H 169.012 -0.857853 4.60172 0
M  V30 1737 H 169.185 -0.938263 6.41171 0
M  V30 1738 N 162.591 -1.51276 -0.441967 0
M  V30 1739 C 163.837 -1.63958 -1.19355 0
M  V30 1740 C 164.17 -0.352543 -1.90973 0
M  V30 1741 O 163.445 0.647627 -1.83401 0
M  V30 1742 C 163.728 -2.83979 -2.21422 0
M  V30 1743 C 163.581 -4.22646 -1.53918 0
M  V30 1744 C 164.9 -2.99521 -3.22451 0
M  V30 1745 H 162.019 -0.596709 -0.432559 0
M  V30 1746 H 164.661 -1.83748 -0.483398 0
M  V30 1747 H 162.811 -2.67237 -2.81987 0
M  V30 1748 H 164.483 -4.51045 -0.967256 0
M  V30 1749 H 162.726 -4.25558 -0.841615 0
M  V30 1750 H 163.397 -5.02609 -2.28229 0
M  V30 1751 H 165.873 -3.14944 -2.71937 0
M  V30 1752 H 164.749 -3.85072 -3.91166 0
M  V30 1753 H 165.01 -2.11391 -3.88287 0
M  V30 1754 N 164.069 0.697108 -1.41344 0
M  V30 1755 C 164.999 1.82353 -1.45841 0
M  V30 1756 C 165.98 1.67115 -0.317247 0
M  V30 1757 O 167.165 1.86871 -0.528474 0
M  V30 1758 C 164.295 3.20476 -1.33838 0
M  V30 1759 C 163.249 3.50415 -2.4575 0
M  V30 1760 C 162.575 4.87878 -2.18813 0
M  V30 1761 C 163.875 3.49546 -3.88091 0
M  V30 1762 H 165.569 1.78846 -2.40113 0
M  V30 1763 H 163.115 0.859028 -1.15571 0
M  V30 1764 H 165.068 3.98988 -1.35596 0
M  V30 1765 H 163.792 3.24604 -0.360498 0
M  V30 1766 H 162.451 2.74253 -2.43271 0
M  V30 1767 H 162.099 4.8863 -1.19371 0
M  V30 1768 H 161.799 5.08875 -2.93803 0
M  V30 1769 H 163.323 5.68702 -2.22284 0
M  V30 1770 H 164.737 4.18066 -3.92293 0
M  V30 1771 H 163.134 3.82075 -4.62751 0
M  V30 1772 H 164.204 2.48552 -4.16353 0
M  V30 1773 N 165.547 1.27147 0.931209 0
M  V30 1774 C 166.48 1.0389 2.0318 0
M  V30 1775 C 167.458 -0.0395716 1.62552 0
M  V30 1776 O 168.642 0.104867 1.88208 0
M  V30 1777 C 165.769 0.575227 3.3378 0
M  V30 1778 C 164.815 1.64774 3.93385 0
M  V30 1779 S 165.648 3.23933 4.26413 0
M  V30 1780 C 166.804 2.79358 5.60098 0
M  V30 1781 H 167.037 1.97075 2.22596 0
M  V30 1782 H 164.57 1.10938 1.07387 0
M  V30 1783 H 166.528 0.314385 4.09294 0
M  V30 1784 H 165.189 -0.336505 3.12292 0
M  V30 1785 H 164.382 1.27454 4.87618 0
M  V30 1786 H 163.984 1.86048 3.24441 0
M  V30 1787 H 166.276 2.24443 6.39243 0
M  V30 1788 H 167.219 3.72322 6.02314 0
M  V30 1789 H 167.627 2.1861 5.20452 0
M  V30 1790 N 167.025 -1.13721 1.09112 0
M  V30 1791 C 168.271 -1.85198 0.826414 0
M  V30 1792 C 168.604 -1.83129 -0.646319 0
M  V30 1793 O 167.879 -1.2671 -1.47563 0
M  V30 1794 C 168.162 -3.33507 1.35812 0
M  V30 1795 C 168.015 -3.44108 2.89672 0
M  V30 1796 C 169.334 -4.28838 0.989256 0
M  V30 1797 H 166.453 -0.67243 0.301675 0
M  V30 1798 H 169.095 -1.33499 1.35197 0
M  V30 1799 H 167.245 -3.77666 0.911082 0
M  V30 1800 H 168.917 -3.08684 3.428 0
M  V30 1801 H 167.16 -2.85087 3.26967 0
M  V30 1802 H 167.831 -4.48388 3.21951 0
M  V30 1803 H 170.307 -3.92734 1.37475 0
M  V30 1804 H 169.183 -5.31051 1.38838 0
M  V30 1805 H 169.444 -4.4198 -0.102924 0
M  V30 1806 N 168.503 -0.877838 -1.30888 0
M  V30 1807 C 169.413 -0.343096 -2.32078 0
M  V30 1808 C 170.429 0.551022 -1.65045 0
M  V30 1809 O 171.605 0.445854 -1.96403 0
M  V30 1810 C 168.67 0.439905 -3.43898 0
M  V30 1811 C 167.731 -0.483111 -4.26573 0
M  V30 1812 C 166.964 0.262616 -5.33053 0
M  V30 1813 O 167.187 1.48967 -5.50604 0
M  V30 1814 O 166.121 -0.383593 -6.00676 0
M  V30 1815 H 169.947 -1.18203 -2.79753 0
M  V30 1816 H 167.532 -0.64145 -1.34929 0
M  V30 1817 H 169.414 0.883504 -4.12034 0
M  V30 1818 H 168.089 1.25526 -2.98371 0
M  V30 1819 H 166.996 -0.975374 -3.61161 0
M  V30 1820 H 168.329 -1.26427 -4.75686 0
M  V30 1821 N 169.982 1.44106 -0.638065 0
M  V30 1822 C 171.21 2.06336 -0.152615 0
M  V30 1823 C 171.625 1.47731 1.17563 0
M  V30 1824 O 170.982 0.602806 1.72257 0
M  V30 1825 C 171.033 3.61479 -0.0391491 0
M  V30 1826 O 170.754 4.17903 -1.31487 0
M  V30 1827 C 172.255 4.40757 0.474176 0
M  V30 1828 H 169.475 0.665862 -0.0828776 0
M  V30 1829 H 172.019 1.84862 -0.87443 0
M  V30 1830 H 170.174 3.82191 0.633142 0
M  V30 1831 H 170.588 5.11416 -1.16421 0
M  V30 1832 H 172.062 5.49707 0.502562 0
M  V30 1833 H 172.539 4.12697 1.50258 0
M  V30 1834 H 173.145 4.24979 -0.165102 0
M  V30 1835 N 171.46 0.379036 1.52974 0
M  V30 1836 C 172.41 -0.477772 2.22938 0
M  V30 1837 C 173.394 -1.03792 1.22948 0
M  V30 1838 O 174.586 -0.965725 1.48333 0
M  V30 1839 C 171.715 -1.60994 3.03209 0
M  V30 1840 C 170.801 -1.06203 4.10587 0
M  V30 1841 N 171.192 -0.238214 5.05239 0
M  V30 1842 C 169.49 -1.33554 4.25534 0
M  V30 1843 C 170.191 0.0633235 5.81666 0
M  V30 1844 N 169.167 -0.537901 5.40932 0
M  V30 1845 H 172.969 0.158295 2.93473 0
M  V30 1846 H 170.483 0.187778 1.61311 0
M  V30 1847 H 172.48 -2.23607 3.5186 0
M  V30 1848 H 171.14 -2.24893 2.34207 0
M  V30 1849 H 172.151 0.123695 5.17752 0
M  V30 1850 H 168.828 -1.97632 3.6776 0
M  V30 1851 H 170.218 0.730161 6.67921 0
M  V30 1852 N 172.938 -1.57226 0.108567 0
M  V30 1853 C 173.886 -2.16002 -0.862885 0
M  V30 1854 C 174.88 -1.10644 -1.28274 0
M  V30 1855 O 176.086 -1.28966 -1.2557 0
M  V30 1856 H 172.461 -0.691148 -0.296342 0
M  V30 1857 H 174.432 -2.96427 -0.342575 0
M  V30 1858 C 173.181 -2.76576 -2.10716 0
M  V30 1859 H 172.504 -3.5734 -1.793 0
M  V30 1860 H 173.944 -3.21253 -2.76717 0
M  V30 1861 C 172.403 -1.73137 -2.89007 0
M  V30 1862 O 172.933 -1.17842 -3.84026 0
M  V30 1863 N 171.139 -1.43317 -2.52801 0
M  V30 1864 H 170.686 -1.88473 -1.75601 0
M  V30 1865 H 170.644 -0.743485 -3.05483 0
M  V30 1866 N 174.416 0.165178 -1.56732 0
M  V30 1867 C 175.326 1.22423 -2.00125 0
M  V30 1868 C 176.342 1.48084 -0.913619 0
M  V30 1869 O 177.518 1.60112 -1.22172 0
M  V30 1870 C 174.583 2.54197 -2.35764 0
M  V30 1871 C 173.644 2.36343 -3.58386 0
M  V30 1872 C 172.877 3.61834 -3.92316 0
M  V30 1873 O 173.1 4.67267 -3.27135 0
M  V30 1874 O 172.034 3.55579 -4.85641 0
M  V30 1875 H 175.86 0.885886 -2.90492 0
M  V30 1876 H 173.445 0.372518 -1.44681 0
M  V30 1877 H 175.327 3.3192 -2.59629 0
M  V30 1878 H 174.002 2.87598 -1.48557 0
M  V30 1879 H 172.909 1.56632 -3.39731 0
M  V30 1880 H 174.242 2.07865 -4.46154 0
M  V30 1881 N 175.894 1.51508 0.433938 0
M  V30 1882 C 177.143 1.63578 1.18005 0
M  V30 1883 C 177.456 0.359514 1.92268 0
M  V30 1884 O 178.662 0.359632 2.69108 0
M  V30 1885 C 177.118 2.88901 2.14626 0
M  V30 1886 C 176.726 4.23544 1.45995 0
M  V30 1887 C 178.47 3.10328 2.89649 0
M  V30 1888 C 176.377 5.40014 2.4112 0
M  V30 1889 H 175.307 0.609277 0.444182 0
M  V30 1890 H 177.958 1.77978 0.446773 0
M  V30 1891 H 176.34 2.68142 2.91403 0
M  V30 1892 H 177.514 4.54696 0.747532 0
M  V30 1893 H 175.829 4.08021 0.831115 0
M  V30 1894 H 178.426 3.94518 3.60915 0
M  V30 1895 H 178.769 2.23544 3.51189 0
M  V30 1896 H 179.302 3.31443 2.19978 0
M  V30 1897 H 176.041 6.29068 1.84264 0
M  V30 1898 H 175.561 5.13233 3.10406 0
M  V30 1899 H 177.24 5.72099 3.02177 0
M  V30 1900 N 177.372 -0.689602 1.41712 0
M  V30 1901 C 178.602 -1.47613 1.44548 0
M  V30 1902 C 179.01 -1.89132 0.0509034 0
M  V30 1903 O 178.353 -1.57741 -0.94146 0
M  V30 1904 C 178.415 -2.76596 2.2964 0
M  V30 1905 C 178.079 -2.57245 3.77722 0
M  V30 1906 C 179.076 -2.22804 4.69739 0
M  V30 1907 C 176.761 -2.727 4.2183 0
M  V30 1908 C 178.755 -2.04064 6.03851 0
M  V30 1909 C 176.442 -2.53576 5.56006 0
M  V30 1910 C 177.44 -2.1931 6.46832 0
M  V30 1911 O 177.128 -2.00359 7.78532 0
M  V30 1912 H 176.86 -0.461227 0.494212 0
M  V30 1913 H 179.414 -0.856045 1.86711 0
M  V30 1914 H 177.644 -3.41033 1.82301 0
M  V30 1915 H 179.333 -3.38424 2.24107 0
M  V30 1916 H 180.099 -2.10473 4.36951 0
M  V30 1917 H 175.978 -2.98353 3.51435 0
M  V30 1918 H 179.522 -1.77241 6.74708 0
M  V30 1919 H 175.419 -2.65499 5.88371 0
M  V30 1920 H 176.187 -2.15075 7.89737 0
M  V30 1921 N 178.85 -1.27639 -0.924453 0
M  V30 1922 C 180.127 -1.04887 -1.651 0
M  V30 1923 C 180.507 0.415327 -2.06974 0
M  V30 1924 O 179.855 1.39923 -1.80648 0
M  V30 1925 C 180.065 -2.01348 -2.85061 0
M  V30 1926 C 181.413 -2.30899 -3.56329 0
M  V30 1927 O 182.437 -1.99348 -2.95193 0
M  V30 1928 O 181.296 -2.84699 -4.66485 0
M  V30 1929 H 178.39 -0.400083 -0.723784 0
M  V30 1930 H 180.936 -1.38916 -0.974703 0
M  V30 1931 H 179.708 -3.0008 -2.51133 0
M  V30 1932 H 179.331 -1.679 -3.6041 0
M  V30 1933 N 180.328 1.1314 -1.09713 0
M  V30 1934 C 181.275 2.18642 -0.739196 0
M  V30 1935 C 182.245 1.63706 0.280978 0
M  V30 1936 O 183.43 1.90111 0.161946 0
M  V30 1937 C 180.57 3.44685 -0.169102 0
M  V30 1938 C 179.683 4.13711 -1.24367 0
M  V30 1939 C 178.818 5.27379 -0.636019 0
M  V30 1940 C 177.857 5.88259 -1.69169 0
M  V30 1941 N 176.994 6.93352 -1.10485 0
M  V30 1942 H 181.834 2.48607 -1.64312 0
M  V30 1943 H 179.371 1.22066 -0.820875 0
M  V30 1944 H 181.329 4.16815 0.179256 0
M  V30 1945 H 179.959 3.15161 0.698079 0
M  V30 1946 H 179.011 3.39835 -1.70927 0
M  V30 1947 H 180.323 4.55037 -2.04311 0
M  V30 1948 H 179.477 6.06238 -0.236677 0
M  V30 1949 H 178.216 4.8731 0.194928 0
M  V30 1950 H 177.221 5.08092 -2.10055 0
M  V30 1951 H 178.446 6.30399 -2.52536 0
M  V30 1952 H 176.392 6.55335 -0.295234 0
M  V30 1953 H 176.309 7.33236 -1.84121 0
M  V30 1954 H 177.577 7.76057 -0.73181 0
M  V30 1955 N 181.806 0.884767 1.30421 0
M  V30 1956 C 183.053 0.503105 1.96151 0
M  V30 1957 C 183.381 -0.947676 1.69851 0
M  V30 1958 O 182.636 -1.68467 0.995861 0
M  V30 1959 C 182.935 0.724318 3.49983 0
M  V30 1960 C 182.601 2.15015 3.96332 0
M  V30 1961 C 181.263 2.54005 4.08699 0
M  V30 1962 C 183.615 3.07936 4.20505 0
M  V30 1963 C 180.943 3.85128 4.42599 0
M  V30 1964 C 183.295 4.3859 4.55874 0
M  V30 1965 C 181.959 4.77474 4.66449 0
M  V30 1966 H 181.229 0.184099 0.717766 0
M  V30 1967 H 183.876 1.12058 1.55291 0
M  V30 1968 H 182.181 0.0238086 3.91793 0
M  V30 1969 H 183.878 0.408617 3.98913 0
M  V30 1970 H 180.468 1.8375 3.87213 0
M  V30 1971 H 184.652 2.79033 4.10431 0
M  V30 1972 H 179.908 4.14996 4.48986 0
M  V30 1973 H 184.082 5.10629 4.7353 0
M  V30 1974 H 181.709 5.79115 4.92473 0
M  V30 1975 N 183.284 -1.43765 0.645699 0
M  V30 1976 C 184.231 -2.30745 -0.0504648 0
M  V30 1977 C 185.201 -1.4432 -0.822241 0
M  V30 1978 O 186.386 -1.73202 -0.800358 0
M  V30 1979 C 183.526 -3.29802 -1.0161 0
M  V30 1980 C 182.639 -4.31326 -0.241219 0
M  V30 1981 C 181.774 -5.17469 -1.19998 0
M  V30 1982 C 180.813 -6.10691 -0.415094 0
M  V30 1983 N 179.95 -6.89483 -1.32506 0
M  V30 1984 H 184.79 -2.8973 0.697155 0
M  V30 1985 H 182.327 -1.42738 0.355563 0
M  V30 1986 H 184.285 -3.85734 -1.58949 0
M  V30 1987 H 182.915 -2.72483 -1.73069 0
M  V30 1988 H 181.967 -3.77749 0.448334 0
M  V30 1989 H 183.279 -4.9743 0.369437 0
M  V30 1990 H 182.433 -5.7799 -1.84424 0
M  V30 1991 H 181.172 -4.51473 -1.84455 0
M  V30 1992 H 180.177 -5.49265 0.242565 0
M  V30 1993 H 181.402 -6.78727 0.224966 0
M  V30 1994 H 179.348 -6.26142 -1.95657 0
M  V30 1995 H 179.265 -7.52081 -0.768783 0
M  V30 1996 H 180.533 -7.54516 -1.9577 0
M  V30 1997 N 184.763 -0.387143 -1.52771 0
M  V30 1998 C 185.695 0.484089 -2.2403 0
M  V30 1999 C 186.708 1.02849 -1.26198 0
M  V30 2000 O 187.897 0.931186 -1.52286 0
M  V30 2001 C 184.997 1.68337 -2.94136 0
M  V30 2002 C 184.17 1.26672 -4.18656 0
M  V30 2003 C 183.229 2.33045 -4.7178 0
M  V30 2004 O 182.255 1.94541 -5.34923 0
M  V30 2005 N 183.457 3.64929 -4.5145 0
M  V30 2006 H 186.222 -0.126404 -2.99433 0
M  V30 2007 H 183.783 -0.213392 -1.60488 0
M  V30 2008 H 185.775 2.39019 -3.26577 0
M  V30 2009 H 184.345 2.20025 -2.22053 0
M  V30 2010 H 183.565 0.388878 -3.92277 0
M  V30 2011 H 184.853 0.964964 -4.99566 0
M  V30 2012 H 184.251 3.98974 -4.01044 0
M  V30 2013 H 182.808 4.31651 -4.88386 0
M  V30 2014 N 186.241 1.57166 -0.116904 0
M  V30 2015 C 187.466 1.999 0.55271 0
M  V30 2016 C 187.891 0.996039 1.59564 0
M  V30 2017 O 187.249 -0.032556 1.81271 0
M  V30 2018 C 187.297 3.4152 1.15742 0
M  V30 2019 O 186.401 3.44106 2.27299 0
M  V30 2020 H 185.742 0.649447 0.138258 0
M  V30 2021 H 188.272 2.03573 -0.204759 0
M  V30 2022 H 188.282 3.79684 1.49346 0
M  V30 2023 H 186.957 4.14034 0.393493 0
M  V30 2024 H 185.534 3.17759 1.9515 0
M  V30 2025 N 187.719 -0.156864 1.56817 0
M  V30 2026 C 188.947 -0.886316 1.86955 0
M  V30 2027 C 189.362 -1.75185 0.703975 0
M  V30 2028 O 188.719 -1.79555 -0.326552 0
M  V30 2029 C 188.77 -1.75117 3.16253 0
M  V30 2030 O 188.491 -0.920537 4.2832 0
M  V30 2031 C 189.992 -2.58905 3.59837 0
M  V30 2032 H 187.212 -0.25678 0.619923 0
M  V30 2033 H 189.756 -0.152615 2.0393 0
M  V30 2034 H 187.911 -2.43805 3.01062 0
M  V30 2035 H 188.325 -1.51337 5.02192 0
M  V30 2036 H 189.799 -3.1518 4.53172 0
M  V30 2037 H 190.276 -3.34472 2.84649 0
M  V30 2038 H 190.882 -1.95526 3.7769 0
M  V30 2039 N 189.197 -1.51736 -0.425897 0
M  V30 2040 C 190.147 -1.70258 -1.51645 0
M  V30 2041 C 191.131 -0.556488 -1.5097 0
M  V30 2042 O 192.323 -0.812879 -1.5723 0
M  V30 2043 C 189.452 -1.84143 -2.89735 0
M  V30 2044 C 188.538 -3.04572 -2.95122 0
M  V30 2045 N 188.929 -4.2756 -2.70233 0
M  V30 2046 C 187.227 -3.04061 -3.26286 0
M  V30 2047 C 187.928 -5.08908 -2.81757 0
M  V30 2048 N 186.904 -4.43797 -3.13919 0
M  V30 2049 H 190.706 -2.63004 -1.31172 0
M  V30 2050 H 188.22 -1.4954 -0.633375 0
M  V30 2051 H 190.217 -1.95525 -3.68206 0
M  V30 2052 H 188.877 -0.925857 -3.1122 0
M  V30 2053 H 189.888 -4.56315 -2.44943 0
M  V30 2054 H 186.565 -2.22179 -3.53473 0
M  V30 2055 H 187.955 -6.16843 -2.66372 0
M  V30 2056 N 190.675 0.682077 -1.42076 0
M  V30 2057 C 191.9 1.47558 -1.45744 0
M  V30 2058 C 192.325 1.87977 -0.0680981 0
M  V30 2059 O 191.683 1.55522 0.9318 0
M  V30 2060 C 191.731 2.70575 -2.38373 0
M  V30 2061 O 190.835 3.68573 -1.85007 0
M  V30 2062 H 190.176 0.443585 -0.494093 0
M  V30 2063 H 192.706 0.837238 -1.86686 0
M  V30 2064 H 192.716 3.18729 -2.54707 0
M  V30 2065 H 191.391 2.40495 -3.39315 0
M  V30 2066 H 189.968 3.2757 -1.78192 0
M  V30 2067 N 192.153 1.28127 0.917671 0
M  V30 2068 C 193.402 1.14432 1.66097 0
M  V30 2069 C 193.715 -0.307247 1.93172 0
M  V30 2070 O 194.921 -0.565259 2.65551 0
M  V30 2071 C 193.377 2.00015 2.99202 0
M  V30 2072 C 192.985 3.49889 2.79789 0
M  V30 2073 C 194.729 1.94996 3.77064 0
M  V30 2074 C 192.636 4.27636 4.08511 0
M  V30 2075 H 191.566 0.424662 0.62304 0
M  V30 2076 H 194.217 1.52628 1.01868 0
M  V30 2077 H 192.599 1.54672 3.64544 0
M  V30 2078 H 193.773 4.03162 2.23152 0
M  V30 2079 H 192.088 3.56392 2.15345 0
M  V30 2080 H 194.685 2.50354 4.72469 0
M  V30 2081 H 195.028 0.925819 4.05875 0
M  V30 2082 H 195.561 2.38287 3.18534 0
M  V30 2083 H 192.3 5.30615 3.84874 0
M  V30 2084 H 191.82 3.79137 4.64774 0
M  V30 2085 H 193.499 4.37346 4.76799 0
M  V30 2086 N 193.631 -1.12557 1.10312 0
M  V30 2087 C 194.861 -1.87592 0.865617 0
M  V30 2088 C 195.269 -1.79851 -0.587389 0
M  V30 2089 O 194.612 -1.16949 -1.41664 0
M  V30 2090 C 194.674 -3.37665 1.23381 0
M  V30 2091 C 194.338 -3.69181 2.69359 0
M  V30 2092 C 195.335 -3.67652 3.67597 0
M  V30 2093 C 193.02 -3.98555 3.05711 0
M  V30 2094 C 195.014 -3.95053 5.00212 0
M  V30 2095 C 192.701 -4.25616 4.38514 0
M  V30 2096 C 193.699 -4.23851 5.35574 0
M  V30 2097 O 193.387 -4.50242 6.65986 0
M  V30 2098 H 193.119 -0.600442 0.310557 0
M  V30 2099 H 195.673 -1.4335 1.47105 0
M  V30 2100 H 193.903 -3.82454 0.571467 0
M  V30 2101 H 195.592 -3.94041 0.973994 0
M  V30 2102 H 196.358 -3.45024 3.40857 0
M  V30 2103 H 192.237 -3.99071 2.30789 0
M  V30 2104 H 195.781 -3.93591 5.75962 0
M  V30 2105 H 191.678 -4.47718 4.64994 0
M  V30 2106 H 192.446 -4.67867 6.71597 0
M  V30 2107 N 195.109 -0.891671 -1.2995 0
M  V30 2108 C 196.042 -0.307994 -2.26112 0
M  V30 2109 C 197.02 0.575262 -1.52084 0
M  V30 2110 O 198.204 0.523864 -1.81074 0
M  V30 2111 C 195.331 0.561734 -3.34009 0
M  V30 2112 C 194.377 -0.253107 -4.25748 0
M  V30 2113 S 195.21 -1.64572 -5.09584 0
M  V30 2114 C 196.366 -0.782699 -6.20987 0
M  V30 2115 H 196.599 -1.12309 -2.75271 0
M  V30 2116 H 194.132 -0.691509 -1.38049 0
M  V30 2117 H 196.09 1.05777 -3.96638 0
M  V30 2118 H 194.751 1.35099 -2.83561 0
M  V30 2119 H 193.944 0.410908 -5.02322 0
M  V30 2120 H 193.546 -0.682004 -3.67729 0
M  V30 2121 H 195.838 -0.00257476 -6.775 0
M  V30 2122 H 196.781 -1.52026 -6.91588 0
M  V30 2123 H 197.189 -0.340638 -5.63471 0
M  V30 2124 N 196.587 1.43421 -0.653314 0
M  V30 2125 C 197.834 2.01812 -0.166745 0
M  V30 2126 C 198.162 1.51535 1.21931 0
M  V30 2127 O 197.417 0.698975 1.82792 0
M  V30 2128 C 197.716 3.57176 -0.126623 0
M  V30 2129 C 197.382 4.26798 -1.45444 0
M  V30 2130 C 196.044 4.45534 -1.81805 0
M  V30 2131 C 198.396 4.66225 -2.32989 0
M  V30 2132 C 195.724 5.00961 -3.05377 0
M  V30 2133 C 198.076 5.23021 -3.55853 0
M  V30 2134 C 196.74 5.39973 -3.9241 0
M  V30 2135 H 196.01 0.738484 -0.0610162 0
M  V30 2136 H 198.657 1.71896 -0.84404 0
M  V30 2137 H 196.962 3.86634 0.634123 0
M  V30 2138 H 198.659 4.00112 0.266723 0
M  V30 2139 H 195.249 4.12561 -1.16153 0
M  V30 2140 H 199.433 4.51443 -2.06187 0
M  V30 2141 H 194.689 5.12271 -3.3375 0
M  V30 2142 H 198.863 5.52518 -4.23907 0
M  V30 2143 H 196.49 5.82687 -4.88242 0
M  V30 2144 N 198.065 0.39524 1.52563 0
M  V30 2145 C 199.312 -0.185044 2.01653 0
M  V30 2146 C 199.64 -1.46317 1.28146 0
M  V30 2147 O 198.895 -1.9213 0.372074 0
M  V30 2148 C 199.194 -0.493444 3.53977 0
M  V30 2149 C 198.86 0.69384 4.4553 0
M  V30 2150 C 197.522 1.01954 4.70275 0
M  V30 2151 C 199.874 1.48785 4.99512 0
M  V30 2152 C 197.202 2.14069 5.46252 0
M  V30 2153 C 199.554 2.59965 5.76716 0
M  V30 2154 C 198.218 2.93037 5.99738 0
M  V30 2155 H 197.488 -0.0677123 0.7379 0
M  V30 2156 H 200.135 0.533807 1.8391 0
M  V30 2157 H 198.44 -1.29369 3.69825 0
M  V30 2158 H 200.137 -0.955163 3.89458 0
M  V30 2159 H 196.727 0.429987 4.26438 0
M  V30 2160 H 200.911 1.24946 4.80315 0
M  V30 2161 H 196.167 2.40056 5.62302 0
M  V30 2162 H 200.341 3.21887 6.17545 0
M  V30 2163 H 197.968 3.8003 6.58393 0
M  V30 2164 N 199.544 -1.57102 0.125237 0
M  V30 2165 C 200.492 -2.16905 -0.839927 0
M  V30 2166 C 201.486 -1.11998 -1.27094 0
M  V30 2167 O 202.692 -1.3029 -1.24195 0
M  V30 2168 H 199.067 -0.694252 -0.288995 0
M  V30 2169 H 201.038 -2.96774 -0.311115 0
M  V30 2170 C 199.787 -2.78795 -2.07771 0
M  V30 2171 H 199.11 -3.59221 -1.755 0
M  V30 2172 H 200.55 -3.2417 -2.73295 0
M  V30 2173 C 199.009 -1.76193 -2.87155 0
M  V30 2174 O 199.539 -1.21909 -3.82755 0
M  V30 2175 N 197.745 -1.45991 -2.51267 0
M  V30 2176 H 197.292 -1.90325 -1.73592 0
M  V30 2177 H 197.25 -0.775844 -3.04677 0
M  V30 2178 N 201.022 0.148545 -1.56898 0
M  V30 2179 C 202.25 0.876389 -1.87422 0
M  V30 2180 C 202.665 1.74809 -0.713256 0
M  V30 2181 O 202.022 1.79725 0.317025 0
M  V30 2182 C 202.073 1.73438 -3.17178 0
M  V30 2183 O 201.794 0.897809 -4.28802 0
M  V30 2184 C 203.295 2.56993 -3.61205 0
M  V30 2185 H 200.515 0.253489 -0.621277 0
M  V30 2186 H 203.059 0.141798 -2.04008 0
M  V30 2187 H 201.214 2.42205 -3.0235 0
M  V30 2188 H 201.628 1.48672 -5.02988 0
M  V30 2189 H 203.102 3.12773 -4.54838 0
M  V30 2190 H 203.579 3.32958 -2.86419 0
M  V30 2191 H 204.185 1.9352 -3.78722 0
M  V30 2192 N 202.5 1.5196 0.417844 0
M  V30 2193 C 203.725 1.69717 1.1921 0
M  V30 2194 C 204.15 0.402148 1.83751 0
M  V30 2195 O 203.508 -0.639593 1.69643 0
M  V30 2196 C 203.556 2.82794 2.2374 0
M  V30 2197 O 202.66 2.47756 3.29683 0
M  V30 2198 H 202.001 0.565263 0.348387 0
M  V30 2199 H 204.531 1.98621 0.490985 0
M  V30 2200 H 204.541 3.07452 2.68212 0
M  V30 2201 H 203.216 3.76756 1.76146 0
M  V30 2202 H 201.793 2.33739 2.90552 0
M  V30 2203 N 203.978 -0.674533 1.42435 0
M  V30 2204 C 204.888 -1.81751 1.48337 0
M  V30 2205 C 205.904 -1.69975 0.372099 0
M  V30 2206 O 207.08 -1.91521 0.62304 0
M  V30 2207 C 204.145 -3.17895 1.38361 0
M  V30 2208 C 203.206 -3.41625 2.59982 0
M  V30 2209 C 202.439 -4.71274 2.50473 0
M  V30 2210 O 202.662 -5.49197 1.54075 0
M  V30 2211 O 201.596 -4.96254 3.4061 0
M  V30 2212 H 205.422 -1.79728 2.44809 0
M  V30 2213 H 203.007 -0.830312 1.24202 0
M  V30 2214 H 204.889 -3.99136 1.35161 0
M  V30 2215 H 203.564 -3.20555 0.450144 0
M  V30 2216 H 202.471 -2.60231 2.68757 0
M  V30 2217 H 203.804 -3.43796 3.52229 0
M  V30 2218 N 205.456 -1.28612 -0.910864 0
M  V30 2219 C 206.386 -1.15326 -2.03032 0
M  V30 2220 C 207.367 -0.0502924 -1.70026 0
M  V30 2221 O 208.552 -0.227797 -1.92859 0
M  V30 2222 C 205.682 -0.817343 -3.37545 0
M  V30 2223 C 204.636 -1.8754 -3.84724 0
M  V30 2224 C 203.962 -1.39305 -5.16235 0
M  V30 2225 C 205.262 -3.28244 -4.06267 0
M  V30 2226 H 206.956 -2.08975 -2.14406 0
M  V30 2227 H 204.502 -1.00612 -1.03021 0
M  V30 2228 H 206.455 -0.711151 -4.15356 0
M  V30 2229 H 205.179 0.154846 -3.26233 0
M  V30 2230 H 203.838 -1.97079 -3.09121 0
M  V30 2231 H 203.486 -0.409846 -5.01328 0
M  V30 2232 H 203.186 -2.10057 -5.48771 0
M  V30 2233 H 204.71 -1.30014 -5.96598 0
M  V30 2234 H 206.124 -3.21611 -4.74594 0
M  V30 2235 H 204.521 -3.96855 -4.5014 0
M  V30 2236 H 205.591 -3.72048 -3.10979 0
M  V30 2237 N 206.934 1.1197 -1.10907 0
M  V30 2238 C 208.35 1.35591 -0.841852 0
M  V30 2239 C 208.55 1.94233 0.536246 0
M  V30 2240 O 207.606 2.1717 1.28816 0
M  V30 2241 C 208.919 2.29284 -1.94549 0
M  V30 2242 C 210.467 2.42862 -1.97451 0
M  V30 2243 C 210.942 3.39873 -3.07002 0
M  V30 2244 N 212.433 3.47433 -3.06341 0
M  V30 2245 C 213.168 4.22421 -3.87748 0
M  V30 2246 N 212.664 5.00432 -4.79103 0
M  V30 2247 N 214.457 4.17876 -3.75946 0
M  V30 2248 H 206.608 0.722664 -1.99728 0
M  V30 2249 H 208.871 0.380635 -0.868229 0
M  V30 2250 H 208.577 1.93378 -2.93765 0
M  V30 2251 H 208.451 3.29452 -1.83688 0
M  V30 2252 H 210.838 2.78046 -0.988645 0
M  V30 2253 H 210.919 1.42566 -2.12388 0
M  V30 2254 H 210.563 3.05417 -4.05811 0
M  V30 2255 H 210.493 4.40011 -2.89306 0
M  V30 2256 H 212.984 2.91784 -2.40147 0
M  V30 2257 H 213.297 5.55002 -5.37766 0
M  V30 2258 H 211.642 4.99612 -4.83128 0
M  V30 2259 H 214.833 3.56016 -3.03924 0
M  V30 2260 H 215.006 4.76061 -4.39624 0
M  V30 2261 N 208.412 0.89855 1.29475 0
M  V30 2262 C 209.322 0.379974 2.31502 0
M  V30 2263 C 210.338 -0.524695 1.659 0
M  V30 2264 O 211.514 -0.414551 1.97087 0
M  V30 2265 C 208.579 -0.385138 3.44554 0
M  V30 2266 C 207.64 0.550914 4.2575 0
M  V30 2267 C 206.873 -0.177778 5.33404 0
M  V30 2268 O 207.096 -1.40189 5.52904 0
M  V30 2269 O 206.03 0.479106 5.9999 0
M  V30 2270 H 209.856 1.22639 2.77837 0
M  V30 2271 H 207.441 0.662834 1.33891 0
M  V30 2272 H 209.323 -0.817841 4.13388 0
M  V30 2273 H 207.998 -1.20763 3.0033 0
M  V30 2274 H 206.905 1.03271 3.59564 0
M  V30 2275 H 208.238 1.33979 4.73614 0
M  V30 2276 N 209.89 -1.43072 0.660911 0
M  V30 2277 C 210.853 -2.29194 -0.0166406 0
M  V30 2278 C 211.853 -1.42609 -0.742912 0
M  V30 2279 O 213.043 -1.64155 -0.583004 0
M  V30 2280 C 210.175 -3.24831 -1.0343 0
M  V30 2281 H 211.368 -2.90596 0.741208 0
M  V30 2282 H 208.921 -1.5048 0.422532 0
M  V30 2283 H 209.656 -2.68339 -1.82111 0
M  V30 2284 H 209.441 -3.88676 -0.517082 0
M  V30 2285 H 210.931 -3.89451 -1.50723 0
M  V30 2286 N 211.368 -0.403325 -1.52352 0
M  V30 2287 C 212.614 0.174605 -2.02047 0
M  V30 2288 C 212.947 1.45282 -1.28867 0
M  V30 2289 O 212.222 1.90483 -0.393257 0
M  V30 2290 C 212.505 0.428238 -3.57545 0
M  V30 2291 C 212.358 -0.866248 -4.4138 0
M  V30 2292 C 213.677 1.21287 -4.23057 0
M  V30 2293 H 210.796 0.0619851 -0.734389 0
M  V30 2294 H 213.438 -0.53565 -1.82293 0
M  V30 2295 H 211.588 1.03327 -3.74507 0
M  V30 2296 H 213.26 -1.50265 -4.3614 0
M  V30 2297 H 211.503 -1.47851 -4.07827 0
M  V30 2298 H 212.174 -0.643249 -5.48239 0
M  V30 2299 H 214.65 0.700703 -4.10158 0
M  V30 2300 H 213.526 1.35909 -5.31808 0
M  V30 2301 H 213.787 2.23193 -3.81625 0
M  V30 2302 N 212.846 1.57033 -0.133567 0
M  V30 2303 C 214.257 1.82593 0.389464 0
M  V30 2304 C 214.608 1.05156 1.6564 0
M  V30 2305 O 213.733 0.292644 2.14412 0
M  V30 2306 C 214.328 3.31204 0.713377 0
M  V30 2307 C 212.887 3.57393 1.18098 0
M  V30 2308 C 212.034 2.76598 0.197126 0
M  V30 2309 H 214.985 1.54598 -0.358481 0
M  V30 2310 H 215.006 3.46627 1.56939 0
M  V30 2311 H 214.518 3.87537 -0.2089 0
M  V30 2312 H 212.619 3.06433 2.11966 0
M  V30 2313 H 212.732 4.65915 1.11624 0
M  V30 2314 H 211.096 2.45257 0.687088 0
M  V30 2315 H 211.879 3.35697 -0.718504 0
M  V30 2316 N 214.325 -0.140222 1.56975 0
M  V30 2317 C 215.235 -1.19223 2.02047 0
M  V30 2318 C 216.251 -1.46612 0.937062 0
M  V30 2319 O 217.427 -1.58148 1.24704 0
M  V30 2320 C 214.492 -2.50414 2.39778 0
M  V30 2321 C 213.553 -2.30612 3.621 0
M  V30 2322 C 212.786 -3.55547 3.98023 0
M  V30 2323 O 213.009 -4.62004 3.34528 0
M  V30 2324 O 211.943 -3.47808 4.91237 0
M  V30 2325 H 215.769 -0.839559 2.91865 0
M  V30 2326 H 213.354 -0.349453 1.45256 0
M  V30 2327 H 215.236 -3.27747 2.64877 0
M  V30 2328 H 213.911 -2.85198 1.53114 0
M  V30 2329 H 212.818 -1.51207 3.4218 0
M  V30 2330 H 214.151 -2.00741 4.49404 0
M  V30 2331 N 215.803 -1.52179 -0.40978 0
M  V30 2332 C 217.214 -1.58377 -0.988615 0
M  V30 2333 C 217.565 -0.423879 -1.91566 0
M  V30 2334 O 216.69 0.455844 -2.11544 0
M  V30 2335 C 217.285 -2.87044 -1.79976 0
M  V30 2336 C 215.844 -2.95722 -2.32863 0
M  V30 2337 C 214.991 -2.53309 -1.12828 0
M  V30 2338 H 217.942 -1.57558 -0.190039 0
M  V30 2339 H 217.963 -2.7236 -2.65707 0
M  V30 2340 H 217.475 -3.71444 -1.12478 0
M  V30 2341 H 215.576 -2.15814 -3.03735 0
M  V30 2342 H 215.689 -3.99951 -2.63773 0
M  V30 2343 H 214.053 -2.07142 -1.48204 0
M  V30 2344 H 214.836 -3.40082 -0.46897 0
M  V30 2345 N 217.281 0.66697 -1.42791 0
M  V30 2346 C 218.527 1.4291 -1.43891 0
M  V30 2347 C 218.86 1.94114 -0.0578972 0
M  V30 2348 O 218.135 1.71414 0.91911 0
M  V30 2349 C 218.418 2.62049 -2.46987 0
M  V30 2350 C 218.271 2.16426 -3.94309 0
M  V30 2351 C 219.59 3.64266 -2.46978 0
M  V30 2352 H 216.709 0.518306 -0.523954 0
M  V30 2353 H 219.351 0.757321 -1.74255 0
M  V30 2354 H 217.501 3.19361 -2.21225 0
M  V30 2355 H 219.173 1.64221 -4.31079 0
M  V30 2356 H 217.416 1.47925 -4.078 0
M  V30 2357 H 218.087 3.02038 -4.62036 0
M  V30 2358 H 220.563 3.16686 -2.69906 0
M  V30 2359 H 219.439 4.45196 -3.21079 0
M  V30 2360 H 219.7 4.15927 -1.49857 0
M  V30 2361 N 218.759 1.29093 0.90403 0
M  V30 2362 C 219.689 1.16401 2.02418 0
M  V30 2363 C 220.67 0.0593085 1.69997 0
M  V30 2364 O 221.855 0.238021 1.92736 0
M  V30 2365 C 218.985 0.835233 3.37107 0
M  V30 2366 C 217.939 1.89578 3.83724 0
M  V30 2367 C 217.265 1.42041 5.15489 0
M  V30 2368 C 218.565 3.30394 4.04521 0
M  V30 2369 H 220.259 2.10109 2.13295 0
M  V30 2370 H 217.805 1.01157 1.02486 0
M  V30 2371 H 219.758 0.733169 4.14973 0
M  V30 2372 H 218.482 -0.137543 3.2631 0
M  V30 2373 H 217.141 1.98715 3.08071 0
M  V30 2374 H 216.789 0.436426 5.01103 0
M  V30 2375 H 216.489 2.12964 5.4765 0
M  V30 2376 H 218.013 1.33176 5.959 0
M  V30 2377 H 219.427 3.24123 4.72882 0
M  V30 2378 H 217.824 3.99237 4.48029 0
M  V30 2379 H 218.894 3.73692 3.09002 0
M  V30 2380 N 220.237 -1.11381 1.11499 0
M  V30 2381 C 221.167 -2.19509 0.796125 0
M  V30 2382 C 222.148 -1.68458 -0.235796 0
M  V30 2383 O 223.333 -1.93947 -0.0991344 0
M  V30 2384 C 220.463 -3.46475 0.239205 0
M  V30 2385 C 219.417 -4.10744 1.20307 0
M  V30 2386 C 218.743 -5.32293 0.50683 0
M  V30 2387 C 220.043 -4.55597 2.55399 0
M  V30 2388 H 221.737 -2.46439 1.70024 0
M  V30 2389 H 219.283 -1.18446 0.818935 0
M  V30 2390 H 221.236 -4.214 0.00392006 0
M  V30 2391 H 219.96 -3.19006 -0.700206 0
M  V30 2392 H 218.619 -3.37813 1.42399 0
M  V30 2393 H 218.267 -5.01095 -0.437408 0
M  V30 2394 H 217.967 -5.76243 1.1497 0
M  V30 2395 H 219.491 -6.09956 0.280351 0
M  V30 2396 H 220.905 -5.21841 2.37391 0
M  V30 2397 H 219.302 -5.10363 3.15673 0
M  V30 2398 H 220.372 -3.69013 3.14575 0
M  V30 2399 N 221.715 -0.905404 -1.28997 0
M  V30 2400 C 222.94 -0.549175 -1.99997 0
M  V30 2401 C 223.365 0.860276 -1.67275 0
M  V30 2402 O 222.723 1.57355 -0.900502 0
M  V30 2403 C 222.771 -0.755185 -3.52604 0
M  V30 2404 O 221.875 0.189692 -4.11964 0
M  V30 2405 H 221.216 -0.213899 -0.628604 0
M  V30 2406 H 223.746 -1.21856 -1.64354 0
M  V30 2407 H 223.756 -0.662045 -4.02593 0
M  V30 2408 H 222.431 -1.78271 -3.75755 0
M  V30 2409 H 221.008 0.0485257 -3.72868 0
M  V30 2410 N 223.193 1.4272 -0.668489 0
M  V30 2411 C 224.609 1.55992 -0.33745 0
M  V30 2412 C 224.809 1.64933 1.15756 0
M  V30 2413 O 223.865 1.61278 1.94282 0
M  V30 2414 C 225.178 2.81314 -1.06222 0
M  V30 2415 C 226.726 2.95078 -1.04394 0
M  V30 2416 C 227.201 4.23252 -1.74991 0
M  V30 2417 N 228.692 4.3015 -1.71829 0
M  V30 2418 C 229.427 5.28127 -2.23315 0
M  V30 2419 N 228.923 6.32293 -2.83156 0
M  V30 2420 N 230.716 5.19882 -2.13726 0
M  V30 2421 H 222.867 1.3516 -1.63846 0
M  V30 2422 H 225.13 0.650174 -0.689912 0
M  V30 2423 H 224.836 2.80823 -2.11734 0
M  V30 2424 H 224.71 3.72012 -0.62344 0
M  V30 2425 H 227.097 2.951 0.0028244 0
M  V30 2426 H 227.178 2.05627 -1.52155 0
M  V30 2427 H 226.822 4.2399 -2.79633 0
M  V30 2428 H 226.752 5.11626 -1.24685 0
M  V30 2429 H 229.243 3.55499 -1.28175 0
M  V30 2430 H 229.556 7.03398 -3.20079 0
M  V30 2431 H 227.901 6.32873 -2.87223 0
M  V30 2432 H 231.092 4.37423 -1.66669 0
M  V30 2433 H 231.265 5.96077 -2.54158 0
M  V30 2434 N 224.671 0.411399 1.52136 0
M  V30 2435 C 225.634 -0.401089 2.25663 0
M  V30 2436 C 226.634 -0.971732 1.28117 0
M  V30 2437 O 227.824 -0.850254 1.52041 0
M  V30 2438 C 224.956 -1.56483 3.02863 0
M  V30 2439 H 226.149 0.24295 2.98914 0
M  V30 2440 H 223.702 0.163968 1.55438 0
M  V30 2441 H 224.437 -2.24567 2.33967 0
M  V30 2442 H 224.222 -1.16211 3.74483 0
M  V30 2443 H 225.712 -2.13951 3.58629 0
M  V30 2444 N 226.149 -1.5696 0.141893 0
M  V30 2445 C 227.059 -2.20066 -0.812905 0
M  V30 2446 C 228.075 -1.18344 -1.27557 0
M  V30 2447 O 229.251 -1.50902 -1.33381 0
M  V30 2448 C 226.316 -2.80583 -2.03652 0
M  V30 2449 C 225.377 -3.97414 -1.62359 0
M  V30 2450 C 224.61 -4.55036 -2.78887 0
M  V30 2451 O 224.833 -4.11538 -3.94959 0
M  V30 2452 O 223.767 -5.45376 -2.54653 0
M  V30 2453 H 227.593 -3.02157 -0.305746 0
M  V30 2454 H 225.178 -1.49159 -0.0848799 0
M  V30 2455 H 227.06 -3.19067 -2.75272 0
M  V30 2456 H 225.735 -2.01508 -2.5333 0
M  V30 2457 H 224.642 -3.63656 -0.877775 0
M  V30 2458 H 225.975 -4.77994 -1.17401 0
M  V30 2459 N 227.627 0.131896 -1.57047 0
M  V30 2460 C 228.557 1.16384 -2.02428 0
M  V30 2461 C 229.538 1.43936 -0.90644 0
M  V30 2462 O 230.723 1.54599 -1.17528 0
M  V30 2463 C 227.853 2.49328 -2.4177 0
M  V30 2464 C 226.807 2.36266 -3.56879 0
M  V30 2465 C 226.133 3.74057 -3.8208 0
M  V30 2466 C 227.433 1.834 -4.89042 0
M  V30 2467 H 229.127 0.786433 -2.88887 0
M  V30 2468 H 226.673 0.376855 -1.38981 0
M  V30 2469 H 228.626 3.21759 -2.7212 0
M  V30 2470 H 227.35 2.88934 -1.52266 0
M  V30 2471 H 226.009 1.66286 -3.26718 0
M  V30 2472 H 225.657 4.11125 -2.89803 0
M  V30 2473 H 225.357 3.66174 -4.59554 0
M  V30 2474 H 226.881 4.48012 -4.1487 0
M  V30 2475 H 228.295 2.45636 -5.18011 0
M  V30 2476 H 226.692 1.8637 -5.70426 0
M  V30 2477 H 227.762 0.790662 -4.7841 0
M  V30 2478 N 229.106 1.52395 0.401703 0
M  V30 2479 C 230.522 1.41363 0.740864 0
M  V30 2480 C 230.722 0.523982 1.94568 0
M  V30 2481 O 229.778 -0.00741204 2.52499 0
M  V30 2482 C 231.091 2.84011 0.987847 0
M  V30 2483 C 232.639 2.93404 1.09011 0
M  V30 2484 C 233.114 4.37036 1.3698 0
M  V30 2485 N 234.605 4.40304 1.43829 0
M  V30 2486 C 235.34 5.48508 1.67112 0
M  V30 2487 N 234.836 6.66819 1.87949 0
M  V30 2488 N 236.629 5.36034 1.69187 0
M  V30 2489 H 228.78 2.08765 -0.391262 0
M  V30 2490 H 231.043 0.941265 -0.112798 0
M  V30 2491 H 230.749 3.51265 0.174835 0
M  V30 2492 H 230.623 3.25502 1.906 0
M  V30 2493 H 233.01 2.26325 1.8937 0
M  V30 2494 H 233.091 2.55359 0.15015 0
M  V30 2495 H 232.735 5.04676 0.571353 0
M  V30 2496 H 232.665 4.72623 2.3224 0
M  V30 2497 H 235.156 3.55024 1.29486 0
M  V30 2498 H 235.469 7.45063 2.05185 0
M  V30 2499 H 233.814 6.6987 1.85199 0
M  V30 2500 H 237.005 4.42579 1.52451 0
M  V30 2501 H 237.178 6.20434 1.86993 0
M  V30 2502 N 230.584 -0.659388 1.43143 0
M  V30 2503 C 231.514 -1.78422 1.50625 0
M  V30 2504 C 232.495 -1.66216 0.361443 0
M  V30 2505 O 233.68 -1.85404 0.577834 0
M  V30 2506 C 230.81 -3.16815 1.42287 0
M  V30 2507 C 229.764 -3.43777 2.54954 0
M  V30 2508 C 229.09 -4.81905 2.31671 0
M  V30 2509 C 230.39 -3.39134 3.97222 0
M  V30 2510 H 232.084 -1.72417 2.44771 0
M  V30 2511 H 229.63 -0.828084 1.17808 0
M  V30 2512 H 231.583 -3.95253 1.46127 0
M  V30 2513 H 230.307 -3.23534 0.446435 0
M  V30 2514 H 228.966 -2.67707 2.50457 0
M  V30 2515 H 228.614 -4.85294 1.32284 0
M  V30 2516 H 228.314 -5.00906 3.07192 0
M  V30 2517 H 229.838 -5.62609 2.37284 0
M  V30 2518 H 231.252 -4.07518 4.03239 0
M  V30 2519 H 229.649 -3.69671 4.72719 0
M  V30 2520 H 230.719 -2.37426 4.22797 0
M  V30 2521 N 232.062 -1.29571 -0.897171 0
M  V30 2522 C 232.992 -1.17473 -2.01798 0
M  V30 2523 C 233.973 -0.068323 -1.69963 0
M  V30 2524 O 235.158 -0.248239 -1.92607 0
M  V30 2525 C 232.288 -0.853099 -3.36659 0
M  V30 2526 C 231.242 -1.9161 -3.82713 0
M  V30 2527 C 230.568 -1.44773 -5.14728 0
M  V30 2528 C 231.868 -3.32535 -4.02763 0
M  V30 2529 H 233.562 -2.11237 -2.12177 0
M  V30 2530 H 231.108 -1.01699 -1.01948 0
M  V30 2531 H 233.061 -0.755165 -4.14578 0
M  V30 2532 H 231.785 0.120236 -3.26379 0
M  V30 2533 H 230.444 -2.00346 -3.07013 0
M  V30 2534 H 230.092 -0.462995 -5.00865 0
M  V30 2535 H 229.792 -2.15865 -5.46513 0
M  V30 2536 H 231.316 -1.36334 -5.95185 0
M  V30 2537 H 232.73 -3.26626 -4.71156 0
M  V30 2538 H 231.127 -4.01607 -4.45905 0
M  V30 2539 H 232.197 -3.75326 -3.07016 0
M  V30 2540 N 233.54 1.10788 -1.12088 0
M  V30 2541 C 234.956 1.34691 -0.856186 0
M  V30 2542 C 235.156 1.94791 0.515615 0
M  V30 2543 O 234.212 2.18524 1.26505 0
M  V30 2544 C 235.525 2.27208 -1.9697 0
M  V30 2545 C 237.073 2.40755 -2.00016 0
M  V30 2546 C 237.548 3.36598 -3.1059 0
M  V30 2547 N 239.039 3.44164 -3.10008 0
M  V30 2548 C 239.774 4.18284 -3.92206 0
M  V30 2549 N 239.27 4.95322 -4.84384 0
M  V30 2550 N 241.063 4.13865 -3.80357 0
M  V30 2551 H 233.214 0.70144 -2.00483 0
M  V30 2552 H 235.477 0.371405 -0.872217 0
M  V30 2553 H 235.183 1.90251 -2.958 0
M  V30 2554 H 235.057 3.27485 -1.87172 0
M  V30 2555 H 237.444 2.76982 -1.01808 0
M  V30 2556 H 237.525 1.40305 -2.13888 0
M  V30 2557 H 237.169 3.01096 -4.09028 0
M  V30 2558 H 237.099 4.36918 -2.93956 0
M  V30 2559 H 239.59 2.8922 -2.43228 0
M  V30 2560 H 239.903 5.49267 -5.43623 0
M  V30 2561 H 238.248 4.94459 -4.884 0
M  V30 2562 H 241.439 3.52773 -3.07683 0
M  V30 2563 H 241.612 4.71372 -4.44649 0
M  V30 2564 N 235.018 0.912232 1.28515 0
M  V30 2565 C 235.948 0.416403 2.29757 0
M  V30 2566 C 236.929 -0.515194 1.6211 0
M  V30 2567 O 238.114 -0.423253 1.89532 0
M  V30 2568 C 235.244 -0.34572 3.45575 0
M  V30 2569 C 234.198 0.496599 4.25109 0
M  V30 2570 C 233.524 -0.393771 5.33248 0
M  V30 2571 C 234.824 1.75307 4.92001 0
M  V30 2572 H 236.518 1.26249 2.7148 0
M  V30 2573 H 234.064 0.608515 1.30511 0
M  V30 2574 H 236.017 -0.703422 4.15488 0
M  V30 2575 H 234.741 -1.2257 3.02728 0
M  V30 2576 H 233.4 0.8368 3.56922 0
M  V30 2577 H 233.048 -1.27225 4.86644 0
M  V30 2578 H 232.748 0.166209 5.87365 0
M  V30 2579 H 234.272 -0.747389 6.06009 0
M  V30 2580 H 235.686 1.46437 5.54283 0
M  V30 2581 H 234.083 2.25534 5.56106 0
M  V30 2582 H 235.153 2.48176 4.16577 0
M  V30 2583 N 236.496 -1.42363 0.676048 0
M  V30 2584 C 237.443 -2.308 -0.00150904 0
M  V30 2585 C 238.413 -1.46032 -0.791444 0
M  V30 2586 O 239.598 -1.74861 -0.76344 0
M  V30 2587 C 236.738 -3.31883 -0.945919 0
M  V30 2588 C 235.851 -4.31741 -0.149675 0
M  V30 2589 C 234.986 -5.19898 -1.08995 0
M  V30 2590 C 234.025 -6.11434 -0.285465 0
M  V30 2591 N 233.162 -6.92138 -1.17851 0
M  V30 2592 H 238.002 -2.88187 0.758455 0
M  V30 2593 H 235.539 -1.41952 0.38576 0
M  V30 2594 H 237.497 -3.89019 -1.50731 0
M  V30 2595 H 236.127 -2.76093 -1.6725 0
M  V30 2596 H 235.179 -3.76713 0.528359 0
M  V30 2597 H 236.491 -4.96534 0.474866 0
M  V30 2598 H 235.645 -5.81772 -1.72123 0
M  V30 2599 H 234.384 -4.55284 -1.74837 0
M  V30 2600 H 233.389 -5.48627 0.359018 0
M  V30 2601 H 234.614 -6.78097 0.368883 0
M  V30 2602 H 232.56 -6.30152 -1.82332 0
M  V30 2603 H 232.477 -7.53542 -0.609082 0
M  V30 2604 H 233.745 -7.58499 -1.79722 0
M  V30 2605 N 237.974 -0.419461 -1.51915 0
M  V30 2606 C 238.904 0.391813 -2.30189 0
M  V30 2607 C 239.885 1.03699 -1.34836 0
M  V30 2608 O 241.07 1.04403 -1.63748 0
M  V30 2609 C 238.2 1.50312 -3.13087 0
M  V30 2610 C 237.154 0.9824 -4.16573 0
M  V30 2611 C 236.48 2.18809 -4.8788 0
M  V30 2612 C 237.78 0.0292356 -5.22292 0
M  V30 2613 H 239.474 -0.26135 -2.98257 0
M  V30 2614 H 237.02 -0.127134 -1.43438 0
M  V30 2615 H 238.973 2.07773 -3.66617 0
M  V30 2616 H 237.697 2.18431 -2.42807 0
M  V30 2617 H 236.356 0.430119 -3.64068 0
M  V30 2618 H 236.004 2.85507 -4.14119 0
M  V30 2619 H 235.704 1.84615 -5.57845 0
M  V30 2620 H 237.228 2.76858 -5.44226 0
M  V30 2621 H 238.642 0.512976 -5.71 0
M  V30 2622 H 237.039 -0.2244 -5.9968 0
M  V30 2623 H 238.109 -0.912931 -4.76228 0
M  V30 2624 N 239.452 1.56882 -0.150215 0
M  V30 2625 C 240.399 2.16922 0.788244 0
M  V30 2626 C 241.369 1.10303 1.24187 0
M  V30 2627 O 242.554 1.38359 1.31383 0
M  V30 2628 C 239.694 2.79754 2.02068 0
M  V30 2629 C 238.807 4.00775 1.61257 0
M  V30 2630 C 237.942 4.51595 2.79705 0
M  V30 2631 C 236.981 5.65074 2.35282 0
M  V30 2632 N 236.118 6.10499 3.4675 0
M  V30 2633 H 240.958 2.96779 0.269444 0
M  V30 2634 H 238.495 1.46599 0.12128 0
M  V30 2635 H 240.453 3.14329 2.74323 0
M  V30 2636 H 239.083 2.02536 2.51354 0
M  V30 2637 H 238.135 3.72158 0.787553 0
M  V30 2638 H 239.447 4.82978 1.24633 0
M  V30 2639 H 238.601 4.88242 3.60145 0
M  V30 2640 H 237.34 3.68406 3.19576 0
M  V30 2641 H 236.345 5.28 1.53283 0
M  V30 2642 H 237.57 6.50052 1.96493 0
M  V30 2643 H 235.516 5.30243 3.86236 0
M  V30 2644 H 235.433 6.87637 3.14152 0
M  V30 2645 H 236.701 6.51791 4.27537 0
M  V30 2646 N 240.93 -0.123565 1.57115 0
M  V30 2647 C 242.176 -0.833386 1.84885 0
M  V30 2648 C 242.509 -1.79742 0.735292 0
M  V30 2649 O 241.784 -1.92764 -0.25925 0
M  V30 2650 C 242.067 -1.5873 3.23228 0
M  V30 2651 C 241.92 -0.643183 4.45178 0
M  V30 2652 C 243.239 -2.54453 3.59085 0
M  V30 2653 H 240.358 -0.301518 0.6725 0
M  V30 2654 H 243 -0.097778 1.89748 0
M  V30 2655 H 241.15 -2.21438 3.19214 0
M  V30 2656 H 242.822 -0.0253015 4.61293 0
M  V30 2657 H 241.065 0.0456139 4.33776 0
M  V30 2658 H 241.736 -1.20724 5.38637 0
M  V30 2659 H 244.212 -2.01853 3.63861 0
M  V30 2660 H 243.088 -3.04238 4.5687 0
M  V30 2661 H 243.349 -3.36906 2.86264 0
M  V30 2662 N 242.408 -1.52605 -0.393616 0
M  V30 2663 C 243.318 -1.79971 -1.50492 0
M  V30 2664 C 244.334 -0.686181 -1.59899 0
M  V30 2665 O 245.51 -0.973274 -1.76322 0
M  V30 2666 C 242.575 -1.95867 -2.86072 0
M  V30 2667 C 241.636 -3.19781 -2.86424 0
M  V30 2668 C 240.869 -3.34909 -4.15538 0
M  V30 2669 O 241.092 -2.54948 -5.10253 0
M  V30 2670 O 240.026 -4.28141 -4.23059 0
M  V30 2671 H 243.852 -2.74328 -1.30299 0
M  V30 2672 H 241.437 -1.3764 -0.581005 0
M  V30 2673 H 243.319 -2.08056 -3.66457 0
M  V30 2674 H 241.994 -1.04699 -3.063 0
M  V30 2675 H 240.901 -3.13038 -2.04837 0
M  V30 2676 H 242.234 -4.1078 -2.71147 0
M  V30 2677 N 243.887 0.651787 -1.4349 0
M  V30 2678 C 244.819 1.77725 -1.44729 0
M  V30 2679 C 245.832 1.59141 -0.343231 0
M  V30 2680 O 247.021 1.67835 -0.607751 0
M  V30 2681 C 244.121 3.15172 -1.24579 0
M  V30 2682 C 243.294 3.60402 -2.47849 0
M  V30 2683 C 242.353 4.76656 -2.22902 0
M  V30 2684 O 241.379 4.86022 -2.96263 0
M  V30 2685 N 242.581 5.66958 -1.24656 0
M  V30 2686 H 245.346 1.77141 -2.41746 0
M  V30 2687 H 242.907 0.835678 -1.38665 0
M  V30 2688 H 244.899 3.90634 -1.0577 0
M  V30 2689 H 243.469 3.1052 -0.360015 0
M  V30 2690 H 242.689 2.75369 -2.82073 0
M  V30 2691 H 243.977 3.87368 -3.29884 0
M  V30 2692 H 243.375 5.62065 -0.640265 0
M  V30 2693 H 241.932 6.42135 -1.1183 0
M  V30 2694 N 245.365 1.30045 0.890287 0
M  V30 2695 C 246.315 1.12592 1.9826 0
M  V30 2696 C 247.299 0.0426021 1.60844 0
M  V30 2697 O 248.491 0.265346 1.75 0
M  V30 2698 C 245.62 0.814301 3.33503 0
M  V30 2699 C 244.706 1.93761 3.7725 0
M  V30 2700 N 245.097 3.18232 3.93143 0
M  V30 2701 C 243.395 1.83277 4.06602 0
M  V30 2702 C 244.096 3.9158 4.30163 0
M  V30 2703 N 243.072 3.19591 4.3973 0
M  V30 2704 H 246.874 2.07003 2.08631 0
M  V30 2705 H 244.388 1.21307 1.07974 0
M  V30 2706 H 246.385 0.67029 4.11476 0
M  V30 2707 H 245.045 -0.121797 3.24471 0
M  V30 2708 H 246.056 3.53581 3.78419 0
M  V30 2709 H 242.733 0.97001 4.06075 0
M  V30 2710 H 244.123 4.98744 4.50226 0
M  V30 2711 N 246.843 -1.10192 1.12674 0
M  V30 2712 C 248.089 -1.82475 0.884915 0
M  V30 2713 C 248.422 -1.85093 -0.58773 0
M  V30 2714 O 247.697 -1.3134 -1.43457 0
M  V30 2715 C 247.98 -3.29018 1.46353 0
M  V30 2716 C 247.833 -3.34718 3.00473 0
M  V30 2717 C 249.152 -4.25473 1.12519 0
M  V30 2718 H 246.271 -0.662492 0.322915 0
M  V30 2719 H 248.913 -1.2913 1.39375 0
M  V30 2720 H 247.063 -3.74576 1.03077 0
M  V30 2721 H 248.735 -2.97622 3.52447 0
M  V30 2722 H 246.978 -2.74541 3.35872 0
M  V30 2723 H 247.649 -4.37918 3.36053 0
M  V30 2724 H 250.125 -3.88161 1.499 0
M  V30 2725 H 249.001 -5.26365 1.55663 0
M  V30 2726 H 249.262 -4.42084 0.0377407 0
M  V30 2727 N 248.321 -0.919034 -1.28029 0
M  V30 2728 C 249.231 -0.416756 -2.30869 0
M  V30 2729 C 250.247 0.498235 -1.66714 0
M  V30 2730 O 251.423 0.383144 -1.97722 0
M  V30 2731 C 248.488 0.330274 -3.45123 0
M  V30 2732 C 247.549 -0.618578 -4.2482 0
M  V30 2733 C 246.782 0.0928959 -5.33619 0
M  V30 2734 O 247.005 1.31375 -5.55065 0
M  V30 2735 O 245.939 -0.574499 -5.99152 0
M  V30 2736 H 249.765 -1.27043 -2.75851 0
M  V30 2737 H 247.35 -0.684052 -1.3282 0
M  V30 2738 H 249.232 0.751972 -4.14636 0
M  V30 2739 H 247.907 1.1597 -3.02213 0
M  V30 2740 H 246.814 -1.08978 -3.57875 0
M  V30 2741 H 248.147 -1.41497 -4.71423 0
M  V30 2742 N 249.799 1.42003 -0.683588 0
M  V30 2743 C 250.729 2.33487 -0.024866 0
M  V30 2744 C 251.71 1.51163 0.779975 0
M  V30 2745 O 252.895 1.79739 0.735362 0
M  V30 2746 C 250.025 3.3487 0.920836 0
M  V30 2747 C 248.979 4.27414 0.223958 0
M  V30 2748 C 248.305 5.19074 1.2832 0
M  V30 2749 C 249.605 5.14445 -0.90242 0
M  V30 2750 H 251.299 2.88819 -0.788921 0
M  V30 2751 H 248.845 1.38873 -0.38083 0
M  V30 2752 H 250.798 3.97787 1.39081 0
M  V30 2753 H 249.522 2.77861 1.71642 0
M  V30 2754 H 248.181 3.65904 -0.225864 0
M  V30 2755 H 247.829 4.58387 2.071 0
M  V30 2756 H 247.529 5.81822 0.821995 0
M  V30 2757 H 249.053 5.84867 1.75392 0
M  V30 2758 H 250.467 5.70998 -0.513272 0
M  V30 2759 H 248.864 5.86072 -1.28997 0
M  V30 2760 H 249.934 4.52322 -1.74737 0
M  V30 2761 N 251.277 0.427512 1.51691 0
M  V30 2762 C 252.507 -0.140986 2.06118 0
M  V30 2763 C 252.915 -1.37854 1.29588 0
M  V30 2764 O 252.258 -1.80411 0.346036 0
M  V30 2765 C 252.32 -0.538276 3.55447 0
M  V30 2766 C 251.984 0.591095 4.53161 0
M  V30 2767 C 252.981 1.46027 4.98971 0
M  V30 2768 C 250.666 0.769028 4.96378 0
M  V30 2769 C 252.66 2.49216 5.8666 0
M  V30 2770 C 250.347 1.80421 5.83859 0
M  V30 2771 C 251.345 2.66417 6.28897 0
M  V30 2772 O 251.033 3.68159 7.14643 0
M  V30 2773 H 250.765 -0.0157455 0.675817 0
M  V30 2774 H 253.319 0.602495 1.96365 0
M  V30 2775 H 251.549 -1.33432 3.6295 0
M  V30 2776 H 253.238 -1.0368 3.92435 0
M  V30 2777 H 254.004 1.33429 4.66285 0
M  V30 2778 H 249.883 0.109273 4.6087 0
M  V30 2779 H 253.427 3.16372 6.21735 0
M  V30 2780 H 249.324 1.93042 6.15959 0
M  V30 2781 H 250.092 3.64622 7.32798 0
M  V30 2782 N 252.755 -1.56801 0.158532 0
M  V30 2783 C 253.687 -2.14488 -0.807923 0
M  V30 2784 C 254.7 -1.09721 -1.20271 0
M  V30 2785 O 255.889 -1.36956 -1.14478 0
M  V30 2786 C 252.989 -2.66217 -2.09718 0
M  V30 2787 C 252.162 -3.95507 -1.86796 0
M  V30 2788 C 251.221 -4.3243 -2.99818 0
M  V30 2789 O 250.247 -5.00543 -2.71008 0
M  V30 2790 N 251.449 -3.92947 -4.27285 0
M  V30 2791 H 254.214 -2.98042 -0.314816 0
M  V30 2792 H 251.775 -1.61881 -0.0246692 0
M  V30 2793 H 253.767 -2.87924 -2.84398 0
M  V30 2794 H 252.337 -1.87324 -2.50257 0
M  V30 2795 H 251.557 -3.82309 -0.96089 0
M  V30 2796 H 252.845 -4.79972 -1.68833 0
M  V30 2797 H 252.243 -3.38087 -4.53557 0
M  V30 2798 H 250.8 -4.19681 -4.9871 0
M  V30 2799 N 254.233 0.115231 -1.57178 0
M  V30 2800 C 255.18 1.14115 -2.00615 0
M  V30 2801 C 256.15 1.40939 -0.878941 0
M  V30 2802 O 257.335 1.52741 -1.14345 0
M  V30 2803 C 254.475 2.46156 -2.4187 0
M  V30 2804 C 253.588 2.26236 -3.68024 0
M  V30 2805 C 252.723 3.51534 -3.98243 0
M  V30 2806 C 251.762 3.26787 -5.17568 0
M  V30 2807 N 250.899 4.44298 -5.43639 0
M  V30 2808 H 255.739 0.763743 -2.88047 0
M  V30 2809 H 253.276 0.365615 -1.42484 0
M  V30 2810 H 255.234 3.23189 -2.63827 0
M  V30 2811 H 253.864 2.81783 -1.57475 0
M  V30 2812 H 252.916 1.40102 -3.5366 0
M  V30 2813 H 254.228 2.03929 -4.55208 0
M  V30 2814 H 253.382 4.36984 -4.20868 0
M  V30 2815 H 252.121 3.76876 -3.09541 0
M  V30 2816 H 251.126 2.39729 -4.94783 0
M  V30 2817 H 252.351 3.02812 -6.0785 0
M  V30 2818 H 250.297 4.69754 -4.57895 0
M  V30 2819 H 250.214 4.25109 -6.25154 0
M  V30 2820 H 251.482 5.3087 -5.70786 0
M  V30 2821 N 255.711 1.52812 0.385517 0
M  V30 2822 C 256.941 1.71658 1.14966 0
M  V30 2823 C 257.349 0.436253 1.84102 0
M  V30 2824 O 256.692 -0.599313 1.73649 0
M  V30 2825 C 256.754 2.81309 2.23843 0
M  V30 2826 C 256.418 4.22313 1.74644 0
M  V30 2827 C 257.415 5.05352 1.22129 0
M  V30 2828 C 255.1 4.68648 1.80761 0
M  V30 2829 C 257.094 6.32807 0.763838 0
M  V30 2830 C 254.781 5.96086 1.34627 0
M  V30 2831 C 255.779 6.77996 0.825264 0
M  V30 2832 O 255.467 8.03045 0.370669 0
M  V30 2833 H 255.199 0.578022 0.350523 0
M  V30 2834 H 257.753 2.00263 0.456509 0
M  V30 2835 H 255.983 2.48133 2.96592 0
M  V30 2836 H 257.672 2.88524 2.85497 0
M  V30 2837 H 258.438 4.70736 1.16758 0
M  V30 2838 H 254.317 4.04979 2.20256 0
M  V30 2839 H 257.861 6.96689 0.356494 0
M  V30 2840 H 253.758 6.30205 1.39686 0
M  V30 2841 H 254.526 8.17021 0.491829 0
M  V30 2842 N 257.189 -0.644168 1.43834 0
M  V30 2843 C 258.414 -1.43642 1.49605 0
M  V30 2844 C 258.839 -1.8773 0.117913 0
M  V30 2845 O 258.197 -1.57938 -0.890239 0
M  V30 2846 C 258.245 -2.6416 2.45463 0
M  V30 2847 O 257.349 -3.63538 1.94714 0
M  V30 2848 H 256.69 -0.430329 0.50568 0
M  V30 2849 H 259.22 -0.787448 1.8884 0
M  V30 2850 H 259.23 -3.11864 2.63068 0
M  V30 2851 H 257.905 -2.31414 3.45572 0
M  V30 2852 H 256.482 -3.2273 1.86814 0
M  V30 2853 N 258.668 -1.30515 -0.883378 0
M  V30 2854 C 259.616 -1.16941 -2.01066 0
M  V30 2855 C 260.61 -0.0809148 -1.69207 0
M  V30 2856 O 261.816 -0.241877 -1.78367 0
M  V30 2857 H 258.191 -0.361705 -0.659298 0
M  V30 2858 H 260.162 -2.12344 -2.09649 0
M  V30 2859 C 258.911 -0.879694 -3.36388 0
M  V30 2860 H 258.234 -1.70936 -3.61415 0
M  V30 2861 H 259.674 -0.82483 -4.159 0
M  V30 2862 C 258.133 0.417409 -3.34304 0
M  V30 2863 O 258.663 1.43843 -3.75063 0
M  V30 2864 N 256.869 0.429141 -2.87414 0
M  V30 2865 H 256.416 -0.402222 -2.5444 0
M  V30 2866 H 256.374 1.29696 -2.86403 0
M  V30 2867 N 260.146 1.09593 -1.13257 0
M  V30 2868 C 261.094 2.18271 -0.803783 0
M  V30 2869 C 262.088 1.68054 0.213148 0
M  V30 2870 O 263.294 1.79862 0.0704699 0
M  V30 2871 H 259.669 0.711949 -0.242143 0
M  V30 2872 H 261.64 2.43235 -1.72856 0
M  V30 2873 C 260.389 3.46536 -0.28424 0
M  V30 2874 H 259.712 3.85545 -1.05807 0
M  V30 2875 H 261.152 4.23899 -0.0925945 0
M  V30 2876 C 259.611 3.22036 0.989684 0
M  V30 2877 O 260.141 3.44509 2.06584 0
M  V30 2878 N 258.347 2.7565 0.920086 0
M  V30 2879 H 257.894 2.57562 0.0442019 0
M  V30 2880 H 257.852 2.59635 1.77306 0
M  V30 2881 N 261.624 0.925811 1.2754 0
M  V30 2882 C 262.849 0.580924 1.99098 0
M  V30 2883 C 263.274 -0.833555 1.68622 0
M  V30 2884 O 262.632 -1.55903 0.925422 0
M  V30 2885 C 262.68 0.811186 3.51358 0
M  V30 2886 O 261.784 -0.124129 4.12213 0
M  V30 2887 H 261.125 0.223873 0.625122 0
M  V30 2888 H 263.655 1.24455 1.62395 0
M  V30 2889 H 263.665 0.72601 4.01489 0
M  V30 2890 H 262.34 1.84227 3.72872 0
M  V30 2891 H 260.917 0.0108006 3.72898 0
M  V30 2892 N 263.102 -1.41638 0.69111 0
M  V30 2893 C 264.348 -2.02104 0.229258 0
M  V30 2894 C 264.703 -1.53741 -1.15678 0
M  V30 2895 O 263.996 -0.736849 -1.76865 0
M  V30 2896 C 264.19 -3.56714 0.221277 0
M  V30 2897 C 264.019 -4.20083 1.605 0
M  V30 2898 C 262.789 -4.54566 2.20676 0
M  V30 2899 C 264.987 -4.46587 2.55078 0
M  V30 2900 N 262.969 -5.03199 3.5166 0
M  V30 2901 C 264.34 -4.96946 3.70735 0
M  V30 2902 C 266.395 -4.28593 2.53401 0
M  V30 2903 C 265.098 -5.31203 4.8499 0
M  V30 2904 C 267.124 -4.63936 3.66765 0
M  V30 2905 C 266.486 -5.14463 4.81152 0
M  V30 2906 H 262.585 -0.771256 0.12918 0
M  V30 2907 H 265.169 -1.72251 0.907626 0
M  V30 2908 H 263.34 -3.86051 -0.426562 0
M  V30 2909 H 265.072 -4.03896 -0.254983 0
M  V30 2910 H 261.827 -4.4087 1.73005 0
M  V30 2911 H 262.251 -5.31926 4.18789 0
M  V30 2912 H 266.893 -3.88771 1.66184 0
M  V30 2913 H 264.611 -5.69951 5.72871 0
M  V30 2914 H 268.197 -4.51677 3.66714 0
M  V30 2915 H 267.077 -5.41299 5.67419 0
M  V30 2916 N 264.58 -0.43555 -1.51462 0
M  V30 2917 C 265.996 -0.0877501 -1.59359 0
M  V30 2918 C 266.196 1.4027 -1.4466 0
M  V30 2919 O 265.252 2.17243 -1.28693 0
M  V30 2920 C 266.565 -0.606264 -2.94525 0
M  V30 2921 C 268.113 -0.566548 -3.0783 0
M  V30 2922 C 268.588 -1.06201 -4.45517 0
M  V30 2923 N 270.079 -1.01992 -4.51832 0
M  V30 2924 C 270.814 -1.37417 -5.5669 0
M  V30 2925 N 270.31 -1.80119 -6.68976 0
M  V30 2926 N 272.103 -1.29245 -5.47039 0
M  V30 2927 H 264.254 -1.40533 -1.59261 0
M  V30 2928 H 266.517 -0.578992 -0.750648 0
M  V30 2929 H 266.223 -1.64901 -3.10645 0
M  V30 2930 H 266.097 -0.0302097 -3.77188 0
M  V30 2931 H 268.484 0.467208 -2.91378 0
M  V30 2932 H 268.565 -1.17898 -2.2701 0
M  V30 2933 H 268.209 -2.09422 -4.62715 0
M  V30 2934 H 268.139 -0.426127 -5.24873 0
M  V30 2935 H 270.63 -0.706308 -3.71241 0
M  V30 2936 H 270.943 -2.05392 -7.45006 0
M  V30 2937 H 269.288 -1.84044 -6.70189 0
M  V30 2938 H 272.479 -0.957522 -4.58202 0
M  V30 2939 H 272.652 -1.57182 -6.28648 0
M  V30 2940 N 266.058 1.56714 -0.166846 0
M  V30 2941 C 267.288 2.00828 0.48494 0
M  V30 2942 C 267.696 1.04612 1.57648 0
M  V30 2943 O 267.039 0.0383201 1.8366 0
M  V30 2944 C 267.101 3.4137 1.12723 0
M  V30 2945 C 266.765 4.56654 0.177886 0
M  V30 2946 C 267.762 5.16402 -0.60207 0
M  V30 2947 C 265.447 5.02244 0.0750139 0
M  V30 2948 C 267.441 6.20167 -1.47215 0
M  V30 2949 C 265.128 6.05859 -0.798649 0
M  V30 2950 C 266.126 6.64691 -1.57082 0
M  V30 2951 O 265.814 7.66297 -2.42989 0
M  V30 2952 H 265.546 0.663587 0.128953 0
M  V30 2953 H 268.1 2.03692 -0.264365 0
M  V30 2954 H 266.33 3.35406 1.92457 0
M  V30 2955 H 268.019 3.69466 1.68076 0
M  V30 2956 H 268.785 4.82065 -0.53274 0
M  V30 2957 H 264.664 4.56167 0.665812 0
M  V30 2958 H 268.208 6.66016 -2.07531 0
M  V30 2959 H 264.105 6.39621 -0.869199 0
M  V30 2960 H 264.873 7.83601 -2.36455 0
M  V30 2961 N 267.536 -0.106894 1.57237 0
M  V30 2962 C 268.466 -1.13148 2.04254 0
M  V30 2963 C 269.447 -1.42476 0.929224 0
M  V30 2964 O 270.632 -1.52709 1.19973 0
M  V30 2965 C 267.762 -2.4545 2.45706 0
M  V30 2966 C 266.716 -2.30558 3.60592 0
M  V30 2967 C 266.042 -3.67931 3.87983 0
M  V30 2968 C 267.342 -1.75597 4.91897 0
M  V30 2969 H 269.036 -0.740374 2.90101 0
M  V30 2970 H 266.582 -0.354696 1.39563 0
M  V30 2971 H 268.535 -3.17389 2.77205 0
M  V30 2972 H 267.259 -2.86475 1.56843 0
M  V30 2973 H 265.918 -1.61067 3.29322 0
M  V30 2974 H 265.566 -4.06462 2.96306 0
M  V30 2975 H 265.266 -3.58817 4.65322 0
M  V30 2976 H 266.79 -4.41356 4.21945 0
M  V30 2977 H 268.204 -2.37364 5.21854 0
M  V30 2978 H 266.601 -1.77272 5.73319 0
M  V30 2979 H 267.671 -0.714451 4.79608 0
M  V30 2980 N 269.014 -1.53014 -0.377408 0
M  V30 2981 C 270.239 -1.72818 -1.14668 0
M  V30 2982 C 270.664 -0.450725 -1.8262 0
M  V30 2983 O 270.022 0.59439 -1.7128 0
M  V30 2984 C 270.07 -2.88627 -2.16164 0
M  V30 2985 O 269.174 -2.56409 -3.22998 0
M  V30 2986 H 268.515 -0.574301 -0.333278 0
M  V30 2987 H 271.045 -1.99853 -0.438152 0
M  V30 2988 H 271.055 -3.14455 -2.59966 0
M  V30 2989 H 269.73 -3.81294 -1.66095 0
M  V30 2990 H 268.307 -2.4136 -2.84253 0
M  V30 2991 N 270.492 0.636531 -1.44174 0
M  V30 2992 C 271.44 1.76995 -1.50915 0
M  V30 2993 C 272.434 1.65053 -0.381295 0
M  V30 2994 O 273.64 1.71197 -0.55601 0
M  V30 2995 H 270.015 0.584247 -0.473455 0
M  V30 2996 H 271.986 1.68432 -2.4632 0
M  V30 2997 C 270.735 3.15314 -1.46534 0
M  V30 2998 H 270.058 3.25149 -2.32633 0
M  V30 2999 H 271.498 3.9453 -1.55312 0
M  V30 3000 C 269.957 3.3639 -0.185305 0
M  V30 3001 O 270.487 3.94699 0.746688 0
M  V30 3002 N 268.693 2.9046 -0.0901606 0
M  V30 3003 H 268.24 2.43193 -0.849416 0
M  V30 3004 H 268.198 3.04937 0.765553 0
M  V30 3005 N 271.97 1.30982 0.876444 0
M  V30 3006 C 273.386 1.09498 1.16113 0
M  V30 3007 C 273.586 -0.13875 2.01022 0
M  V30 3008 O 272.642 -0.829935 2.38471 0
M  V30 3009 C 273.955 2.36308 1.85954 0
M  V30 3010 C 275.503 2.41856 1.98683 0
M  V30 3011 C 275.978 3.6853 2.71937 0
M  V30 3012 N 277.469 3.69387 2.79477 0
M  V30 3013 C 278.204 4.64096 3.36753 0
M  V30 3014 N 277.7 5.69155 3.95012 0
M  V30 3015 N 279.493 4.51626 3.3465 0
M  V30 3016 H 271.644 2.10118 0.310494 0
M  V30 3017 H 273.907 0.926634 0.200131 0
M  V30 3018 H 273.613 3.26388 1.31011 0
M  V30 3019 H 273.487 2.4561 2.86278 0
M  V30 3020 H 275.874 1.52249 2.52793 0
M  V30 3021 H 275.955 2.36523 0.9742 0
M  V30 3022 H 275.599 4.58499 2.18496 0
M  V30 3023 H 275.529 3.71127 3.73593 0
M  V30 3024 H 278.02 2.93438 2.38123 0
M  V30 3025 H 278.333 6.3751 4.36808 0
M  V30 3026 H 276.678 5.72937 3.93406 0
M  V30 3027 H 279.869 3.68728 2.8837 0
M  V30 3028 H 280.042 5.25614 3.7899 0
M  V30 3029 N 273.449 -1.08991 1.13837 0
M  V30 3030 C 274.379 -2.17771 0.842507 0
M  V30 3031 C 275.36 -1.6892 -0.20001 0
M  V30 3032 O 276.545 -1.94113 -0.0579731 0
M  V30 3033 C 273.675 -3.4589 0.312644 0
M  V30 3034 C 272.629 -4.08099 1.28992 0
M  V30 3035 C 271.955 -5.31098 0.619623 0
M  V30 3036 C 273.255 -4.50077 2.65005 0
M  V30 3037 H 274.949 -2.42777 1.75213 0
M  V30 3038 H 272.495 -1.16682 0.843875 0
M  V30 3039 H 274.448 -4.21297 0.0933043 0
M  V30 3040 H 273.172 -3.20419 -0.632382 0
M  V30 3041 H 271.831 -3.34717 1.49533 0
M  V30 3042 H 271.479 -5.0191 -0.33102 0
M  V30 3043 H 271.179 -5.73674 1.27167 0
M  V30 3044 H 272.703 -6.09224 0.409669 0
M  V30 3045 H 274.117 -5.16688 2.48407 0
M  V30 3046 H 272.514 -5.03553 3.26427 0
M  V30 3047 H 273.584 -3.62257 3.22332 0
M  V30 3048 N 274.927 -0.932562 -1.27047 0
M  V30 3049 C 275.857 -0.452902 -2.29066 0
M  V30 3050 C 276.838 0.489338 -1.62909 0
M  V30 3051 O 278.023 0.393046 -1.90181 0
M  V30 3052 C 275.153 0.290698 -3.46081 0
M  V30 3053 C 274.107 -0.564168 -4.24265 0
M  V30 3054 C 273.433 0.308886 -5.33807 0
M  V30 3055 C 274.733 -1.83112 -4.89149 0
M  V30 3056 H 276.427 -1.30552 -2.69437 0
M  V30 3057 H 273.973 -0.629201 -1.29526 0
M  V30 3058 H 275.926 0.637233 -4.16554 0
M  V30 3059 H 274.65 1.17738 -3.0464 0
M  V30 3060 H 273.309 -0.893477 -3.55545 0
M  V30 3061 H 272.957 1.19467 -4.88607 0
M  V30 3062 H 272.657 -0.259633 -5.87026 0
M  V30 3063 H 274.181 0.650884 -6.07121 0
M  V30 3064 H 275.595 -1.55236 -5.51883 0
M  V30 3065 H 273.992 -2.34353 -5.52448 0
M  V30 3066 H 275.062 -2.54772 -4.12576 0
M  V30 3067 N 276.405 1.4127 -0.698611 0
M  V30 3068 C 277.368 2.29158 -0.044132 0
M  V30 3069 C 278.368 1.44529 0.704841 0
M  V30 3070 O 279.558 1.65643 0.539276 0
M  V30 3071 C 276.69 3.27459 0.947809 0
M  V30 3072 H 277.883 2.88529 -0.817994 0
M  V30 3073 H 275.436 1.49307 -0.46228 0
M  V30 3074 H 276.171 2.73073 1.74933 0
M  V30 3075 H 275.956 3.8991 0.41385 0
M  V30 3076 H 277.446 3.93311 1.40344 0
M  V30 3077 N 277.883 0.443576 1.51229 0
M  V30 3078 C 279.294 -0.0180867 1.86691 0
M  V30 3079 C 279.645 -1.41384 1.36033 0
M  V30 3080 O 278.77 -2.04291 0.713722 0
M  V30 3081 C 279.365 -0.039597 3.38777 0
M  V30 3082 C 277.924 -0.445692 3.73752 0
M  V30 3083 C 277.071 0.357584 2.74985 0
M  V30 3084 H 280.022 0.659138 1.44364 0
M  V30 3085 H 280.043 -0.847761 3.70936 0
M  V30 3086 H 279.555 0.976382 3.75617 0
M  V30 3087 H 277.656 -1.46704 3.42503 0
M  V30 3088 H 277.769 -0.166155 4.78812 0
M  V30 3089 H 276.133 -0.184973 2.54027 0
M  V30 3090 H 276.916 1.37256 3.14668 0
M  V30 3091 N 279.361 -1.56624 0.175154 0
M  V30 3092 C 280.586 -2.01813 -0.478137 0
M  V30 3093 C 281.011 -1.05457 -1.55757 0
M  V30 3094 O 280.369 -0.0347439 -1.81267 0
M  V30 3095 C 280.417 -3.45581 -1.02987 0
M  V30 3096 O 279.521 -3.52305 -2.14371 0
M  V30 3097 H 278.862 -0.65413 -0.114059 0
M  V30 3098 H 281.392 -2.02673 0.280173 0
M  V30 3099 H 281.402 -3.84965 -1.35151 0
M  V30 3100 H 280.077 -4.1521 -0.239556 0
M  V30 3101 H 278.654 -3.24783 -1.83222 0
M  V30 3102 N 280.839 0.0985539 -1.57292 0
M  V30 3103 C 282.116 0.834155 -1.76921 0
M  V30 3104 C 282.496 1.97101 -0.755928 0
M  V30 3105 O 281.844 2.27474 0.216245 0
M  V30 3106 C 282.054 1.33194 -3.22584 0
M  V30 3107 C 283.402 1.77611 -3.85668 0
M  V30 3108 O 284.426 1.42825 -3.26312 0
M  V30 3109 O 283.285 2.4192 -4.90038 0
M  V30 3110 H 280.379 0.397628 -0.725135 0
M  V30 3111 H 282.925 0.0807044 -1.69508 0
M  V30 3112 H 281.697 0.517248 -3.87866 0
M  V30 3113 H 281.32 2.1475 -3.34616 0
M  V30 3114 N 282.317 1.53212 0.369288 0
M  V30 3115 C 283.542 1.73423 1.1375 0
M  V30 3116 C 283.967 0.460404 1.82378 0
M  V30 3117 O 283.325 -0.585298 1.71592 0
M  V30 3118 C 283.373 2.89769 2.1463 0
M  V30 3119 O 282.477 2.58119 3.21634 0
M  V30 3120 H 281.818 0.576061 0.330227 0
M  V30 3121 H 284.348 2.00083 0.427547 0
M  V30 3122 H 284.358 3.15829 2.58294 0
M  V30 3123 H 283.033 3.8217 1.64071 0
M  V30 3124 H 281.61 2.42864 2.82969 0
M  V30 3125 N 283.795 -0.628877 1.44509 0
M  V30 3126 C 285.206 -1.21054 1.42137 0
M  V30 3127 C 285.557 -1.95715 0.137881 0
M  V30 3128 O 284.682 -2.02554 -0.761645 0
M  V30 3129 C 285.277 -2.20189 2.57493 0
M  V30 3130 C 283.836 -2.73777 2.58308 0
M  V30 3131 C 282.983 -1.48813 2.33987 0
M  V30 3132 H 285.934 -0.41942 1.53057 0
M  V30 3133 H 285.955 -3.02833 2.30375 0
M  V30 3134 H 285.467 -1.6582 3.50892 0
M  V30 3135 H 283.568 -3.32142 1.68856 0
M  V30 3136 H 283.681 -3.19662 3.56865 0
M  V30 3137 H 282.045 -1.77024 1.83124 0
M  V30 3138 H 282.828 -0.963442 3.29504 0
M  V30 3139 N 285.273 -1.31445 -0.869486 0
M  V30 3140 C 286.183 -1.21097 -2.0093 0
M  V30 3141 C 287.199 -0.127584 -1.73532 0
M  V30 3142 O 288.375 -0.345477 -1.98415 0
M  V30 3143 C 285.44 -0.919378 -3.34288 0
M  V30 3144 C 284.501 -2.08971 -3.75006 0
M  V30 3145 C 283.734 -1.81194 -5.02001 0
M  V30 3146 O 283.957 -0.747296 -5.65484 0
M  V30 3147 O 282.891 -2.66883 -5.39497 0
M  V30 3148 H 286.717 -2.16883 -2.12592 0
M  V30 3149 H 284.302 -1.11189 -0.997868 0
M  V30 3150 H 286.184 -0.772625 -4.14257 0
M  V30 3151 H 284.859 0.00844772 -3.23699 0
M  V30 3152 H 283.766 -2.29187 -2.95676 0
M  V30 3153 H 285.099 -2.9998 -3.90221 0
M  V30 3154 N 286.751 1.08385 -1.14413 0
M  V30 3155 C 287.997 1.81212 -0.923793 0
M  V30 3156 C 288.352 1.84555 0.543814 0
M  V30 3157 O 287.645 1.31056 1.39767 0
M  V30 3158 C 287.839 3.26273 -1.45879 0
M  V30 3159 C 287.668 3.37063 -2.97689 0
M  V30 3160 C 286.438 3.4824 -3.66138 0
M  V30 3161 C 288.636 3.28698 -3.95553 0
M  V30 3162 N 286.618 3.47824 -5.05858 0
M  V30 3163 C 287.989 3.35276 -5.21527 0
M  V30 3164 C 290.044 3.12437 -3.8767 0
M  V30 3165 C 288.747 3.27267 -6.40538 0
M  V30 3166 C 290.773 3.05757 -5.06228 0
M  V30 3167 C 290.135 3.12938 -6.3107 0
M  V30 3168 H 286.234 0.6769 -0.391574 0
M  V30 3169 H 288.818 1.29455 -1.45429 0
M  V30 3170 H 286.989 3.76474 -0.95507 0
M  V30 3171 H 288.721 3.87165 -1.17835 0
M  V30 3172 H 285.476 3.52141 -3.16692 0
M  V30 3173 H 285.9 3.51171 -5.78798 0
M  V30 3174 H 290.542 3.05747 -2.92025 0
M  V30 3175 H 288.26 3.32718 -7.36427 0
M  V30 3176 H 291.846 2.94295 -5.01878 0
M  V30 3177 H 290.726 3.078 -7.21269 0
M  V30 3178 N 288.23 0.939286 1.26551 0
M  V30 3179 C 289.16 0.465044 2.28822 0
M  V30 3180 C 290.141 -0.480692 1.63167 0
M  V30 3181 O 291.326 -0.382955 1.90387 0
M  V30 3182 C 288.456 -0.27234 3.46231 0
M  V30 3183 C 287.41 0.58666 4.2396 0
M  V30 3184 C 286.736 -0.280573 5.33963 0
M  V30 3185 C 288.036 1.85704 4.88171 0
M  V30 3186 H 289.73 1.31979 2.68741 0
M  V30 3187 H 287.276 0.636061 1.29191 0
M  V30 3188 H 289.229 -0.615133 4.16886 0
M  V30 3189 H 287.953 -1.16121 3.0526 0
M  V30 3190 H 286.612 0.91232 3.55067 0
M  V30 3191 H 286.26 -1.16874 4.89234 0
M  V30 3192 H 285.96 0.29076 5.8688 0
M  V30 3193 H 287.484 -0.618678 6.07458 0
M  V30 3194 H 288.898 1.58161 5.51052 0
M  V30 3195 H 287.295 2.37279 5.51197 0
M  V30 3196 H 288.365 2.56957 4.11219 0
M  V30 3197 N 289.708 -1.40897 0.706093 0
M  V30 3198 C 290.933 -2.05895 0.249435 0
M  V30 3199 C 291.358 -1.52823 -1.09666 0
M  V30 3200 O 290.716 -0.659589 -1.68876 0
M  V30 3201 C 290.764 -3.59872 0.22904 0
M  V30 3202 O 289.868 -4.04708 -0.792784 0
M  V30 3203 H 289.209 -0.653206 0.119241 0
M  V30 3204 H 291.739 -1.80471 0.96391 0
M  V30 3205 H 291.749 -4.07951 0.0634791 0
M  V30 3206 H 290.424 -3.97866 1.21141 0
M  V30 3207 H 289.001 -3.68111 -0.59572 0
M  V30 3208 N 291.186 -0.45159 -1.50991 0
M  V30 3209 C 292.433 0.110074 -2.02201 0
M  V30 3210 C 292.761 1.4146 -1.33489 0
M  V30 3211 O 292.016 1.90617 -0.443125 0
M  V30 3212 C 292.315 0.361728 -3.55565 0
M  V30 3213 C 291.981 -0.858717 -4.42648 0
M  V30 3214 C 290.643 -1.19338 -4.66167 0
M  V30 3215 C 292.995 -1.67221 -4.93646 0
M  V30 3216 C 290.323 -2.34195 -5.37931 0
M  V30 3217 C 292.675 -2.8119 -5.6667 0
M  V30 3218 C 291.339 -3.15094 -5.88449 0
M  V30 3219 H 290.609 0.040279 -0.739904 0
M  V30 3220 H 293.256 -0.601696 -1.81802 0
M  V30 3221 H 291.561 1.15554 -3.74372 0
M  V30 3222 H 293.258 0.80996 -3.92735 0
M  V30 3223 H 289.848 -0.58796 -4.24548 0
M  V30 3224 H 294.032 -1.42686 -4.75347 0
M  V30 3225 H 289.288 -2.6076 -5.53005 0
M  V30 3226 H 293.462 -3.44585 -6.05173 0
M  V30 3227 H 291.089 -4.04204 -6.43835 0
M  V30 3228 N 292.664 1.56529 -0.183458 0
M  V30 3229 C 293.941 1.88959 0.50536 0
M  V30 3230 C 294.321 1.09523 1.80466 0
M  V30 3231 O 293.669 0.19278 2.27685 0
M  V30 3232 C 293.879 3.41162 0.73547 0
M  V30 3233 C 295.227 4.11155 1.06005 0
M  V30 3234 O 296.251 3.46548 0.823594 0
M  V30 3235 O 295.11 5.25318 1.50675 0
M  V30 3236 H 292.204 0.78441 0.261973 0
M  V30 3237 H 294.75 1.68231 -0.222802 0
M  V30 3238 H 293.522 3.90874 -0.182561 0
M  V30 3239 H 293.145 3.67543 1.51651 0
M  V30 3240 N 294.142 -0.090211 1.57342 0
M  V30 3241 C 295.388 -0.793982 1.86611 0
M  V30 3242 C 295.721 -1.78142 0.773252 0
M  V30 3243 O 294.996 -1.93271 -0.218304 0
M  V30 3244 C 295.279 -1.51839 3.26523 0
M  V30 3245 C 295.132 -0.548609 4.46442 0
M  V30 3246 C 296.451 -2.46779 3.64401 0
M  V30 3247 H 293.57 -0.287186 0.678744 0
M  V30 3248 H 296.212 -0.0575076 1.89913 0
M  V30 3249 H 294.362 -2.14617 3.23839 0
M  V30 3250 H 296.034 0.0725513 4.61243 0
M  V30 3251 H 294.277 0.137614 4.33582 0
M  V30 3252 H 294.948 -1.09271 5.41076 0
M  V30 3253 H 297.424 -1.94089 3.68061 0
M  V30 3254 H 296.3 -2.94479 4.63221 0
M  V30 3255 H 296.561 -3.30758 2.93346 0
M  V30 3256 N 295.62 -1.53406 -0.361157 0
M  V30 3257 C 296.848 -1.73717 -1.12383 0
M  V30 3258 C 297.263 -0.468161 -1.82904 0
M  V30 3259 O 296.62 0.559198 -1.73722 0
M  V30 3260 C 296.671 -2.90558 -2.15078 0
M  V30 3261 O 296.392 -4.12549 -1.47428 0
M  V30 3262 C 297.893 -3.22777 -3.03858 0
M  V30 3263 H 295.113 -0.580896 -0.335858 0
M  V30 3264 H 297.657 -2.00167 -0.418728 0
M  V30 3265 H 295.812 -2.66489 -2.8118 0
M  V30 3266 H 296.226 -4.78009 -2.15887 0
M  V30 3267 H 297.7 -4.07927 -3.71887 0
M  V30 3268 H 298.177 -2.38329 -3.68912 0
M  V30 3269 H 298.783 -3.48787 -2.43367 0
M  V30 3270 N 297.098 0.621204 -1.44841 0
M  V30 3271 C 298.346 1.37783 -1.47852 0
M  V30 3272 C 298.667 1.94653 -0.116224 0
M  V30 3273 O 297.937 1.76367 0.852737 0
M  V30 3274 H 296.517 0.511453 -0.544449 0
M  V30 3275 H 299.179 0.730446 -1.80694 0
M  V30 3276 H 298.275 2.20414 -2.20961 0
M  V30 3277 N 298.576 1.31904 0.862503 0
M  V30 3278 C 299.822 1.22197 1.61851 0
M  V30 3279 C 300.155 -0.217641 1.92977 0
M  V30 3280 O 299.43 -1.15264 1.56666 0
M  V30 3281 C 299.713 2.07378 2.94391 0
M  V30 3282 C 299.566 3.59678 2.70096 0
M  V30 3283 C 300.885 1.92891 3.95577 0
M  V30 3284 H 298.004 0.445255 0.587296 0
M  V30 3285 H 300.646 1.6177 0.99651 0
M  V30 3286 H 298.796 1.73758 3.47477 0
M  V30 3287 H 300.468 4.03472 2.23625 0
M  V30 3288 H 298.711 3.82735 2.04197 0
M  V30 3289 H 299.382 4.14595 3.64438 0
M  V30 3290 H 301.858 2.22327 3.51724 0
M  V30 3291 H 300.734 2.54781 4.86187 0
M  V30 3292 H 300.995 0.894315 4.3296 0
M  V30 3293 N 300.054 -1.07777 1.14986 0
M  V30 3294 C 301.3 -1.80557 0.923422 0
M  V30 3295 C 301.633 -1.86298 -0.548337 0
M  V30 3296 O 300.908 -1.34354 -1.40639 0
M  V30 3297 C 301.191 -3.25839 1.53299 0
M  V30 3298 C 301.044 -3.28269 3.07505 0
M  V30 3299 C 302.363 -4.22991 1.21518 0
M  V30 3300 H 299.482 -0.655493 0.336894 0
M  V30 3301 H 302.124 -1.26144 1.42083 0
M  V30 3302 H 300.274 -3.72306 1.10999 0
M  V30 3303 H 301.946 -2.90079 3.58681 0
M  V30 3304 H 300.189 -2.67355 3.4162 0
M  V30 3305 H 300.86 -4.30691 3.45266 0
M  V30 3306 H 303.336 -3.84894 1.581 0
M  V30 3307 H 302.212 -5.22945 1.66793 0
M  V30 3308 H 302.473 -4.41904 0.131505 0
M  V30 3309 N 301.532 -0.945985 -1.26051 0
M  V30 3310 C 302.948 -0.649045 -1.45807 0
M  V30 3311 C 303.148 0.796158 -1.85104 0
M  V30 3312 O 302.204 1.57233 -1.97571 0
M  V30 3313 C 303.517 -1.61458 -2.53677 0
M  V30 3314 C 305.065 -1.62481 -2.67524 0
M  V30 3315 C 305.54 -2.57776 -3.7857 0
M  V30 3316 N 307.031 -2.5609 -3.85969 0
M  V30 3317 C 307.766 -3.26508 -4.7136 0
M  V30 3318 N 307.262 -4.0637 -5.61102 0
M  V30 3319 N 309.055 -3.15437 -4.65248 0
M  V30 3320 H 301.206 -1.88005 -0.988328 0
M  V30 3321 H 303.469 -0.808198 -0.4955 0
M  V30 3322 H 303.175 -2.64644 -2.31638 0
M  V30 3323 H 303.049 -1.37036 -3.51427 0
M  V30 3324 H 305.436 -0.600167 -2.88933 0
M  V30 3325 H 305.517 -1.90958 -1.70202 0
M  V30 3326 H 305.161 -3.60361 -3.57913 0
M  V30 3327 H 305.091 -2.26587 -4.75359 0
M  V30 3328 H 307.582 -1.98105 -3.21812 0
M  V30 3329 H 307.895 -4.57042 -6.23164 0
M  V30 3330 H 306.24 -4.10469 -5.60839 0
M  V30 3331 H 309.431 -2.52525 -3.94143 0
M  V30 3332 H 309.604 -3.70584 -5.31575 0
M  V30 3333 N 303.011 1.40521 -0.713556 0
M  V30 3334 C 303.943 2.29191 -0.0203126 0
M  V30 3335 C 304.956 1.45723 0.725864 0
M  V30 3336 O 306.145 1.69033 0.573581 0
M  V30 3337 C 303.245 3.2395 0.995486 0
M  V30 3338 C 302.418 4.36262 0.315256 0
M  V30 3339 C 301.477 5.11474 1.23616 0
M  V30 3340 O 300.503 5.64606 0.721719 0
M  V30 3341 N 301.705 5.20638 2.56743 0
M  V30 3342 H 304.47 2.89327 -0.781652 0
M  V30 3343 H 302.031 1.51869 -0.561022 0
M  V30 3344 H 304.023 3.71137 1.61368 0
M  V30 3345 H 302.593 2.64995 1.6582 0
M  V30 3346 H 301.813 3.91228 -0.483106 0
M  V30 3347 H 303.101 5.08558 -0.157004 0
M  V30 3348 H 302.499 4.7895 3.01037 0
M  V30 3349 H 301.056 5.71339 3.13712 0
M  V30 3350 N 304.489 0.459591 1.5075 0
M  V30 3351 C 305.735 -0.091664 2.03193 0
M  V30 3352 C 306.09 -1.38432 1.3362 0
M  V30 3353 O 305.383 -1.86257 0.449322 0
M  V30 3354 C 305.577 -0.342866 3.55752 0
M  V30 3355 C 305.406 0.923888 4.40107 0
M  V30 3356 C 304.176 1.46388 4.83631 0
M  V30 3357 C 306.374 1.81617 4.81165 0
M  V30 3358 N 304.356 2.68086 5.52271 0
M  V30 3359 C 305.727 2.87907 5.49099 0
M  V30 3360 C 307.782 1.82793 4.63132 0
M  V30 3361 C 306.485 3.95347 6.0091 0
M  V30 3362 C 308.511 2.89182 5.15876 0
M  V30 3363 C 307.873 3.94191 5.83774 0
M  V30 3364 H 303.972 0.00619247 0.781975 0
M  V30 3365 H 306.556 0.625233 1.84388 0
M  V30 3366 H 304.727 -1.0288 3.74527 0
M  V30 3367 H 306.459 -0.887445 3.9485 0
M  V30 3368 H 303.214 1.01466 4.62603 0
M  V30 3369 H 303.638 3.29857 5.91205 0
M  V30 3370 H 308.28 1.0293 4.1008 0
M  V30 3371 H 305.998 4.76035 6.53006 0
M  V30 3372 H 309.584 2.91061 5.0376 0
M  V30 3373 H 308.464 4.75161 6.23853 0
M  V30 3374 N 305.967 -1.56429 0.191757 0
M  V30 3375 C 306.897 -2.21937 -0.725696 0
M  V30 3376 C 307.878 -1.1814 -1.2238 0
M  V30 3377 O 309.063 -1.46636 -1.27325 0
M  V30 3378 C 306.193 -2.87611 -1.94672 0
M  V30 3379 C 305.147 -3.97623 -1.58366 0
M  V30 3380 C 304.473 -4.50446 -2.88102 0
M  V30 3381 C 305.773 -5.16197 -0.796133 0
M  V30 3382 H 307.467 -2.98861 -0.179606 0
M  V30 3383 H 305.013 -1.43749 -0.0849464 0
M  V30 3384 H 306.966 -3.3212 -2.59373 0
M  V30 3385 H 305.69 -2.08087 -2.51728 0
M  V30 3386 H 304.349 -3.53801 -0.960247 0
M  V30 3387 H 303.997 -3.67688 -3.43241 0
M  V30 3388 H 303.697 -5.24675 -2.64556 0
M  V30 3389 H 305.221 -4.97654 -3.53798 0
M  V30 3390 H 306.635 -5.57271 -1.34618 0
M  V30 3391 H 305.032 -5.96471 -0.658928 0
M  V30 3392 H 306.102 -4.84473 0.203478 0
M  V30 3393 N 307.445 0.0818655 -1.57387 0
M  V30 3394 C 308.67 0.799946 -1.91352 0
M  V30 3395 C 309.095 1.70833 -0.787258 0
M  V30 3396 O 308.453 1.79419 0.26048 0
M  V30 3397 C 308.501 1.57812 -3.24234 0
M  V30 3398 O 307.605 2.68806 -3.12757 0
M  V30 3399 H 306.946 0.21891 -0.626877 0
M  V30 3400 H 309.476 0.0531256 -2.04531 0
M  V30 3401 H 309.486 1.95952 -3.57864 0
M  V30 3402 H 308.161 0.911548 -4.05788 0
M  V30 3403 H 306.738 2.33597 -2.90666 0
M  V30 3404 N 308.923 1.53595 0.353017 0
M  V30 3405 C 310.339 1.43648 0.695516 0
M  V30 3406 C 310.539 0.585617 1.92802 0
M  V30 3407 O 309.595 0.0729223 2.52395 0
M  V30 3408 C 310.908 2.8701 0.896991 0
M  V30 3409 C 312.456 2.96723 0.996209 0
M  V30 3410 C 312.931 4.41173 1.23007 0
M  V30 3411 N 314.422 4.44657 1.29749 0
M  V30 3412 C 315.157 5.53547 1.49577 0
M  V30 3413 N 314.653 6.72461 1.66639 0
M  V30 3414 N 316.446 5.41145 1.52048 0
M  V30 3415 H 308.597 2.07415 -0.457481 0
M  V30 3416 H 310.86 0.9372 -0.142687 0
M  V30 3417 H 310.566 3.51644 0.0629938 0
M  V30 3418 H 310.44 3.31401 1.80148 0
M  V30 3419 H 312.827 2.32235 1.82074 0
M  V30 3420 H 312.908 2.55707 0.0688331 0
M  V30 3421 H 312.552 5.06238 0.410505 0
M  V30 3422 H 312.482 4.79772 2.17086 0
M  V30 3423 H 314.973 3.58963 1.18126 0
M  V30 3424 H 315.286 7.51214 1.81378 0
M  V30 3425 H 313.631 6.75423 1.63794 0
M  V30 3426 H 316.822 4.47205 1.38294 0
M  V30 3427 H 316.995 6.26068 1.67159 0
M  V30 3428 N 310.401 -0.613514 1.45168 0
M  V30 3429 C 311.649 -1.36997 1.48581 0
M  V30 3430 C 311.97 -1.94589 0.126545 0
M  V30 3431 O 311.24 -1.76816 -0.843372 0
M  V30 3432 H 309.82 -0.508558 0.547154 0
M  V30 3433 H 312.482 -0.720853 1.81079 0
M  V30 3434 H 311.578 -2.1924 2.22127 0
M  V30 3435 N 311.879 -1.3236 -0.855495 0
M  V30 3436 C 313.127 -1.22629 -1.60644 0
M  V30 3437 C 313.448 0.212136 -1.93843 0
M  V30 3438 O 312.718 1.13666 -1.59552 0
M  V30 3439 H 311.298 -0.450882 -0.595579 0
M  V30 3440 H 313.96 -1.65871 -1.02337 0
M  V30 3441 H 313.056 -1.80832 -2.54374 0
M  V30 3442 N 313.357 1.07166 -1.15556 0
M  V30 3443 C 314.267 2.17947 -0.868116 0
M  V30 3444 C 315.283 1.73297 0.156297 0
M  V30 3445 O 316.459 2.01392 -0.0182327 0
M  V30 3446 C 313.524 3.44789 -0.36355 0
M  V30 3447 C 312.585 4.03996 -1.45209 0
M  V30 3448 C 311.818 5.24783 -0.971508 0
M  V30 3449 O 312.041 5.70109 0.182194 0
M  V30 3450 O 310.975 5.75715 -1.75603 0
M  V30 3451 H 314.801 2.4503 -1.79427 0
M  V30 3452 H 312.386 1.16539 -0.934824 0
M  V30 3453 H 314.268 4.21307 -0.0887113 0
M  V30 3454 H 312.943 3.19253 0.534708 0
M  V30 3455 H 311.85 3.29009 -1.78056 0
M  V30 3456 H 313.183 4.33808 -2.32533 0
M  V30 3457 N 314.835 0.952656 1.25548 0
M  V30 3458 C 316.084 0.602053 1.92505 0
M  V30 3459 C 316.397 -0.864663 1.75451 0
M  V30 3460 O 317.603 -1.32514 2.36965 0
M  V30 3461 C 316.059 1.02607 3.44963 0
M  V30 3462 C 315.667 2.51519 3.70732 0
M  V30 3463 C 317.411 0.747905 4.1786 0
M  V30 3464 C 315.318 2.87732 5.16686 0
M  V30 3465 H 314.248 0.22146 0.720744 0
M  V30 3466 H 316.899 1.15684 1.42441 0
M  V30 3467 H 315.281 0.399712 3.93978 0
M  V30 3468 H 316.455 3.19157 3.32378 0
M  V30 3469 H 314.77 2.76786 3.11092 0
M  V30 3470 H 317.367 0.994647 5.25367 0
M  V30 3471 H 317.71 -0.315629 4.15102 0
M  V30 3472 H 318.243 1.33452 3.74747 0
M  V30 3473 H 314.982 3.93095 5.24554 0
M  V30 3474 H 314.502 2.24765 5.56094 0
M  V30 3475 H 316.181 2.76817 5.84792 0
M  V30 3476 N 316.313 -1.40141 0.720998 0
M  V30 3477 C 317.223 -2.34486 0.0731031 0
M  V30 3478 C 318.239 -1.57587 -0.737723 0
M  V30 3479 O 319.415 -1.89949 -0.669429 0
M  V30 3480 C 316.48 -3.36528 -0.833656 0
M  V30 3481 C 315.541 -4.29298 -0.0121673 0
M  V30 3482 C 314.774 -5.26466 -0.875742 0
M  V30 3483 O 314.997 -5.29745 -2.11485 0
M  V30 3484 O 313.931 -6.01092 -0.31185 0
M  V30 3485 H 317.757 -2.9152 0.851444 0
M  V30 3486 H 315.342 -1.41427 0.481527 0
M  V30 3487 H 317.224 -3.99093 -1.35289 0
M  V30 3488 H 315.899 -2.81899 -1.59105 0
M  V30 3489 H 314.806 -3.70001 0.552262 0
M  V30 3490 H 316.139 -4.87094 0.707129 0
M  V30 3491 N 317.792 -0.46758 -1.50504 0
M  V30 3492 C 319.04 0.0884469 -2.01906 0
M  V30 3493 C 319.361 1.40532 -1.35188 0
M  V30 3494 O 318.631 1.89515 -0.496079 0
M  V30 3495 H 317.211 0.0356765 -0.746148 0
M  V30 3496 H 319.873 -0.6172 -1.84869 0
M  V30 3497 H 318.969 0.2425 -3.11156 0
M  V30 3498 N 319.27 1.56325 -0.20005 0
M  V30 3499 C 320.517 1.97719 0.437411 0
M  V30 3500 C 320.845 1.08709 1.61284 0
M  V30 3501 O 320.1 0.127261 1.95286 0
M  V30 3502 C 320.399 3.4495 0.935103 0
M  V30 3503 C 320.065 4.5072 -0.12749 0
M  V30 3504 C 318.727 4.79368 -0.419451 0
M  V30 3505 C 321.079 5.14268 -0.847231 0
M  V30 3506 C 318.407 5.68854 -1.43604 0
M  V30 3507 C 320.759 6.04852 -1.85301 0
M  V30 3508 C 319.423 6.31855 -2.15211 0
M  V30 3509 H 318.693 0.723507 0.16006 0
M  V30 3510 H 321.34 1.89166 -0.298056 0
M  V30 3511 H 319.645 3.50599 1.74894 0
M  V30 3512 H 321.342 3.74337 1.43781 0
M  V30 3513 H 317.932 4.28458 0.11023 0
M  V30 3514 H 322.116 4.92222 -0.634901 0
M  V30 3515 H 317.372 5.88047 -1.67364 0
M  V30 3516 H 321.546 6.53152 -2.41591 0
M  V30 3517 H 319.173 7.00994 -2.94129 0
M  V30 3518 N 320.748 -0.0735177 1.57428 0
M  V30 3519 C 322.164 -0.428264 1.53747 0
M  V30 3520 C 322.364 -1.79272 0.91998 0
M  V30 3521 O 321.42 -2.47051 0.521745 0
M  V30 3522 C 322.733 -0.370914 2.98404 0
M  V30 3523 C 324.281 -0.451224 3.0973 0
M  V30 3524 C 324.756 -0.4238 4.56035 0
M  V30 3525 N 326.247 -0.483925 4.60665 0
M  V30 3526 C 326.982 -0.484891 5.71346 0
M  V30 3527 N 326.478 -0.440775 6.91396 0
M  V30 3528 N 328.271 -0.531319 5.59583 0
M  V30 3529 H 320.422 0.819949 1.95935 0
M  V30 3530 H 322.685 0.307493 0.896745 0
M  V30 3531 H 322.391 0.564956 3.47133 0
M  V30 3532 H 322.265 -1.18176 3.5821 0
M  V30 3533 H 324.652 -1.37752 2.60976 0
M  V30 3534 H 324.733 0.388167 2.52838 0
M  V30 3535 H 324.377 0.498638 5.05446 0
M  V30 3536 H 324.307 -1.2807 5.10789 0
M  V30 3537 H 326.798 -0.522338 3.74273 0
M  V30 3538 H 327.111 -0.44539 7.71515 0
M  V30 3539 H 325.456 -0.40749 6.93804 0
M  V30 3540 H 328.647 -0.563464 4.64696 0
M  V30 3541 H 328.82 -0.528603 6.4584 0
M  V30 3542 N 322.226 -1.5378 -0.344866 0
M  V30 3543 C 323.156 -1.84662 -1.42906 0
M  V30 3544 C 324.137 -0.701648 -1.54955 0
M  V30 3545 O 325.322 -0.953438 -1.69184 0
M  V30 3546 C 322.452 -2.05503 -2.79974 0
M  V30 3547 C 321.406 -3.21318 -2.82734 0
M  V30 3548 C 320.732 -3.2749 -4.22675 0
M  V30 3549 C 322.032 -4.59456 -2.48389 0
M  V30 3550 H 323.726 -2.75461 -1.17311 0
M  V30 3551 H 321.272 -1.32542 -0.562896 0
M  V30 3552 H 323.225 -2.25691 -3.55867 0
M  V30 3553 H 321.949 -1.11434 -3.07002 0
M  V30 3554 H 320.608 -3.00984 -2.09294 0
M  V30 3555 H 320.256 -2.31019 -4.4681 0
M  V30 3556 H 319.956 -4.05316 -4.25433 0
M  V30 3557 H 321.48 -3.49887 -5.00412 0
M  V30 3558 H 322.894 -4.79667 -3.13995 0
M  V30 3559 H 321.291 -5.39675 -2.62432 0
M  V30 3560 H 322.361 -4.63155 -1.4358 0
M  V30 3561 N 323.704 0.605807 -1.45491 0
M  V30 3562 C 324.929 1.39625 -1.53361 0
M  V30 3563 C 325.354 1.87351 -0.167645 0
M  V30 3564 O 324.712 1.60243 0.848051 0
M  V30 3565 C 324.76 2.57559 -2.5238 0
M  V30 3566 O 323.864 3.58248 -2.04285 0
M  V30 3567 H 323.205 0.416771 -0.516912 0
M  V30 3568 H 325.735 0.737103 -1.90861 0
M  V30 3569 H 325.745 3.0478 -2.71244 0
M  V30 3570 H 324.42 2.22171 -3.51586 0
M  V30 3571 H 322.997 3.17664 -1.95305 0
M  V30 3572 N 325.182 1.32811 0.848464 0
M  V30 3573 C 326.145 1.22194 1.9391 0
M  V30 3574 C 327.145 0.143404 1.60159 0
M  V30 3575 O 328.335 0.394253 1.6968 0
M  V30 3576 C 325.467 0.88067 3.29328 0
M  V30 3577 H 326.66 2.19127 2.04752 0
M  V30 3578 H 324.213 1.16731 1.0394 0
M  V30 3579 H 324.948 -0.0865776 3.24184 0
M  V30 3580 H 324.733 1.66052 3.55203 0
M  V30 3581 H 326.223 0.830871 4.09251 0
M  V30 3582 N 326.66 -1.06551 1.16123 0
M  V30 3583 C 327.61 -2.12209 0.833736 0
M  V30 3584 C 328.594 -1.59825 -0.185656 0
M  V30 3585 O 329.786 -1.76994 0.0147906 0
M  V30 3586 C 326.915 -3.41674 0.333697 0
M  V30 3587 C 326.001 -4.00892 1.38372 0
M  V30 3588 N 326.392 -4.34256 2.59337 0
M  V30 3589 C 324.69 -4.28463 1.23836 0
M  V30 3590 C 325.391 -4.81291 3.26701 0
M  V30 3591 N 324.367 -4.80565 2.54083 0
M  V30 3592 H 328.169 -2.35849 1.75364 0
M  V30 3593 H 325.683 -1.24068 1.04789 0
M  V30 3594 H 327.68 -4.16822 0.0806918 0
M  V30 3595 H 326.34 -3.19475 -0.58017 0
M  V30 3596 H 327.351 -4.24687 2.96415 0
M  V30 3597 H 324.028 -4.15721 0.38504 0
M  V30 3598 H 325.418 -5.16332 4.29943 0
M  V30 3599 N 328.138 -0.959301 -1.25041 0
M  V30 3600 C 329.378 -0.624343 -1.94631 0
M  V30 3601 C 329.742 0.82403 -1.73418 0
M  V30 3602 O 330.943 1.26881 -2.3697 0
M  V30 3603 C 329.214 -0.978805 -3.43736 0
M  V30 3604 S 330.773 -0.757127 -4.32219 0
M  V30 3605 H 327.591 -0.229327 -0.673001 0
M  V30 3606 H 330.193 -1.23447 -1.51595 0
M  V30 3607 H 328.897 -2.02997 -3.56679 0
M  V30 3608 H 328.428 -0.359117 -3.91757 0
M  V30 3609 H 330.443 0.369759 -4.9482 0
M  V30 3610 N 329.616 1.39756 -0.72842 0
M  V30 3611 C 330.841 2.05472 -0.282159 0
M  V30 3612 C 331.266 1.54549 1.07221 0
M  V30 3613 O 330.624 0.686372 1.67805 0
M  V30 3614 C 330.672 3.59462 -0.286264 0
M  V30 3615 O 329.776 4.05918 0.728298 0
M  V30 3616 H 329.117 0.651226 -0.129618 0
M  V30 3617 H 331.647 1.78915 -0.992499 0
M  V30 3618 H 331.657 4.07798 -0.128373 0
M  V30 3619 H 330.332 3.95889 -1.27456 0
M  V30 3620 H 328.909 3.69012 0.537081 0
M  V30 3621 N 331.094 0.475555 1.50254 0
M  V30 3622 C 332.334 -0.0765802 2.04256 0
M  V30 3623 C 332.698 -1.36587 1.34937 0
M  V30 3624 O 333.899 -2.00066 1.79519 0
M  V30 3625 C 332.17 -0.251668 3.56513 0
M  V30 3626 S 333.729 -0.761716 4.32138 0
M  V30 3627 H 330.547 -0.0138456 0.710865 0
M  V30 3628 H 333.149 0.643714 1.84598 0
M  V30 3629 H 331.853 0.692404 4.04517 0
M  V30 3630 H 331.384 -0.997946 3.80532 0
M  V30 3631 H 333.399 -2.03451 4.52573 0
M  V30 3632 N 332.573 -1.56217 0.208337 0
M  V30 3633 C 333.85 -1.89739 -0.475234 0
M  V30 3634 C 334.23 -1.1238 -1.78701 0
M  V30 3635 O 333.578 -0.228979 -2.2735 0
M  V30 3636 C 333.788 -3.42289 -0.681101 0
M  V30 3637 C 335.136 -4.12789 -0.994507 0
M  V30 3638 O 336.16 -3.47814 -0.768357 0
M  V30 3639 O 335.019 -5.27649 -1.42299 0
M  V30 3640 H 332.113 -0.788478 -0.249461 0
M  V30 3641 H 334.659 -1.67855 0.249538 0
M  V30 3642 H 333.431 -3.90534 0.244722 0
M  V30 3643 H 333.054 -3.69909 -1.45785 0
M  V30 3644 N 334.051 0.0651679 -1.57465 0
M  V30 3645 C 335.276 0.779605 -1.9219 0
M  V30 3646 C 335.701 1.69988 -0.805333 0
M  V30 3647 O 335.059 1.79685 0.241435 0
M  V30 3648 C 335.107 1.54364 -3.2589 0
M  V30 3649 O 334.211 2.65474 -3.1559 0
M  V30 3650 H 333.552 0.212249 -0.629163 0
M  V30 3651 H 336.082 0.0314294 -2.04576 0
M  V30 3652 H 336.092 1.92146 -3.59922 0
M  V30 3653 H 334.767 0.868457 -4.06732 0
M  V30 3654 H 333.344 2.30501 -2.93128 0
M  V30 3655 N 335.529 1.53961 0.336706 0
M  V30 3656 C 336.945 1.44378 0.680241 0
M  V30 3657 C 337.145 0.606034 1.9217 0
M  V30 3658 O 336.201 0.099688 2.52303 0
M  V30 3659 C 337.514 2.87945 0.8665 0
M  V30 3660 C 339.062 2.97763 0.964682 0
M  V30 3661 C 339.537 4.42453 1.18321 0
M  V30 3662 N 341.028 4.46008 1.25025 0
M  V30 3663 C 341.763 5.55102 1.43697 0
M  V30 3664 N 341.259 6.7419 1.59498 0
M  V30 3665 N 343.052 5.42727 1.463 0
M  V30 3666 H 335.203 2.06918 -0.479455 0
M  V30 3667 H 337.466 0.935634 -0.152619 0
M  V30 3668 H 337.172 3.51691 0.0256937 0
M  V30 3669 H 337.046 3.33293 1.76623 0
M  V30 3670 H 339.433 2.34153 1.796 0
M  V30 3671 H 339.514 2.55766 0.041708 0
M  V30 3672 H 339.158 5.06645 0.356788 0
M  V30 3673 H 339.088 4.82048 2.11985 0
M  V30 3674 H 341.579 3.60196 1.14312 0
M  V30 3675 H 341.892 7.53095 1.734 0
M  V30 3676 H 340.237 6.77123 1.56621 0
M  V30 3677 H 343.428 4.48647 1.33543 0
M  V30 3678 H 343.601 6.27806 1.6051 0
M  V30 3679 N 337.007 -0.598083 1.45811 0
M  V30 3680 C 338.284 -1.35777 1.40797 0
M  V30 3681 C 338.664 -2.10935 0.083462 0
M  V30 3682 O 338.012 -2.08505 -0.934763 0
M  V30 3683 C 338.222 -2.29666 2.62783 0
M  V30 3684 C 339.57 -2.91977 3.08277 0
M  V30 3685 O 340.594 -2.39984 2.63223 0
M  V30 3686 O 339.453 -3.86376 3.86491 0
M  V30 3687 H 336.547 -0.609291 0.55919 0
M  V30 3688 H 339.093 -0.620379 1.57954 0
M  V30 3689 H 337.865 -1.73454 3.50756 0
M  V30 3690 H 337.488 -3.1077 2.48008 0
M  V30 3691 N 338.485 -1.33259 -0.841409 0
M  V30 3692 C 339.433 -1.23279 -1.97244 0
M  V30 3693 C 340.427 -0.134706 -1.68864 0
M  V30 3694 O 341.633 -0.298501 -1.77508 0
M  V30 3695 H 338.008 -0.382497 -0.647457 0
M  V30 3696 H 339.979 -2.18906 -2.02787 0
M  V30 3697 C 338.728 -0.986268 -3.33419 0
M  V30 3698 H 338.051 -1.82347 -3.55794 0
M  V30 3699 H 339.491 -0.956728 -4.13065 0
M  V30 3700 C 337.95 0.310842 -3.35463 0
M  V30 3701 O 338.48 1.31838 -3.79449 0
M  V30 3702 N 336.686 0.337485 -2.88634 0
M  V30 3703 H 336.233 -0.482967 -2.53032 0
M  V30 3704 H 336.191 1.20518 -2.90384 0
M  V30 3705 N 339.963 1.05934 -1.16686 0
M  V30 3706 C 341.191 1.8249 -0.974929 0
M  V30 3707 C 341.606 1.82679 0.476861 0
M  V30 3708 O 340.963 1.2486 1.33103 0
M  V30 3709 C 341.014 3.28943 -1.49929 0
M  V30 3710 O 340.735 3.28886 -2.89423 0
M  V30 3711 C 342.236 4.22215 -1.35089 0
M  V30 3712 H 339.456 0.575295 -0.345365 0
M  V30 3713 H 342 1.33631 -1.548 0
M  V30 3714 H 340.155 3.751 -0.968423 0
M  V30 3715 H 340.569 4.20493 -3.13506 0
M  V30 3716 H 342.043 5.22987 -1.76603 0
M  V30 3717 H 342.52 4.38195 -0.296935 0
M  V30 3718 H 343.126 3.81907 -1.87155 0
M  V30 3719 N 341.441 0.965919 1.2453 0
M  V30 3720 C 342.371 0.513476 2.27784 0
M  V30 3721 C 343.352 -0.445974 1.6415 0
M  V30 3722 O 344.537 -0.342485 1.91156 0
M  V30 3723 C 341.667 -0.198839 3.4673 0
M  V30 3724 C 340.621 0.676456 4.2262 0
M  V30 3725 C 339.947 -0.167248 5.34438 0
M  V30 3726 C 341.247 1.96017 4.84123 0
M  V30 3727 H 342.941 1.3765 2.65881 0
M  V30 3728 H 340.487 0.663321 1.27813 0
M  V30 3729 H 342.44 -0.526567 4.18097 0
M  V30 3730 H 341.164 -1.0962 3.07654 0
M  V30 3731 H 339.823 0.98743 3.53052 0
M  V30 3732 H 339.471 -1.0647 4.91603 0
M  V30 3733 H 339.171 0.415181 5.86131 0
M  V30 3734 H 340.695 -0.489688 6.08633 0
M  V30 3735 H 342.109 1.69814 5.47573 0
M  V30 3736 H 340.506 2.48918 5.4604 0
M  V30 3737 H 341.576 2.65622 4.05676 0
M  V30 3738 N 342.919 -1.39368 0.735821 0
M  V30 3739 C 343.851 -2.2913 0.0567723 0
M  V30 3740 C 344.864 -1.46859 -0.702589 0
M  V30 3741 O 346.053 -1.69925 -0.546616 0
M  V30 3742 C 343.153 -3.25492 -0.943823 0
M  V30 3743 C 342.326 -4.36709 -0.24581 0
M  V30 3744 C 341.385 -5.13376 -1.15463 0
M  V30 3745 O 340.411 -5.65683 -0.631803 0
M  V30 3746 N 341.613 -5.24656 -2.48427 0
M  V30 3747 H 344.378 -2.88047 0.827582 0
M  V30 3748 H 341.939 -1.50957 0.585112 0
M  V30 3749 H 343.931 -3.73657 -1.55443 0
M  V30 3750 H 342.501 -2.676 -1.61583 0
M  V30 3751 H 341.721 -3.9041 0.545286 0
M  V30 3752 H 343.009 -5.08244 0.237891 0
M  V30 3753 H 342.407 -4.83679 -2.93379 0
M  V30 3754 H 340.964 -5.76258 -3.04582 0
M  V30 3755 N 344.397 -0.483516 -1.5 0
M  V30 3756 C 345.643 0.0672592 -2.02688 0
M  V30 3757 C 345.976 1.38247 -1.36387 0
M  V30 3758 O 345.251 1.88131 -0.493675 0
M  V30 3759 C 345.534 0.238109 -3.59312 0
M  V30 3760 C 345.387 -1.099 -4.36168 0
M  V30 3761 C 346.706 0.986916 -4.28892 0
M  V30 3762 H 343.825 0.0229696 -0.736642 0
M  V30 3763 H 346.467 -0.631527 -1.79197 0
M  V30 3764 H 344.617 0.8333 -3.79458 0
M  V30 3765 H 346.289 -1.73172 -4.27562 0
M  V30 3766 H 344.532 -1.69261 -3.99416 0
M  V30 3767 H 345.203 -0.932954 -5.44059 0
M  V30 3768 H 347.679 0.482302 -4.13295 0
M  V30 3769 H 346.555 1.07527 -5.38265 0
M  V30 3770 H 346.816 2.0265 -3.92919 0
M  V30 3771 N 345.875 1.56104 -0.216619 0
M  V30 3772 C 347.152 1.89988 0.465165 0
M  V30 3773 C 347.532 1.13326 1.78102 0
M  V30 3774 O 346.88 0.241033 2.27225 0
M  V30 3775 C 347.09 3.42646 0.662939 0
M  V30 3776 C 348.438 4.13311 0.972602 0
M  V30 3777 O 349.462 3.48217 0.749901 0
M  V30 3778 O 348.321 5.28396 1.39499 0
M  V30 3779 H 345.415 0.78979 0.245276 0
M  V30 3780 H 347.961 1.67721 -0.258436 0
M  V30 3781 H 346.733 3.90399 -0.26543 0
M  V30 3782 H 346.356 3.70677 1.43821 0
M  V30 3783 N 347.353 -0.0568162 1.57498 0
M  V30 3784 C 348.602 -0.752001 1.87157 0
M  V30 3785 C 348.915 -1.77978 0.811375 0
M  V30 3786 O 350.121 -2.52559 0.996293 0
M  V30 3787 C 348.577 -1.38844 3.3204 0
M  V30 3788 C 348.185 -0.398456 4.46225 0
M  V30 3789 C 349.929 -2.06512 3.70882 0
M  V30 3790 C 347.836 -1.04166 5.82154 0
M  V30 3791 H 346.766 -0.28461 0.698222 0
M  V30 3792 H 349.417 -0.00561272 1.83499 0
M  V30 3793 H 347.799 -2.1836 3.30356 0
M  V30 3794 H 348.973 0.367977 4.59328 0
M  V30 3795 H 347.288 0.174592 4.16034 0
M  V30 3796 H 349.885 -2.55437 4.6974 0
M  V30 3797 H 350.228 -2.87117 3.01445 0
M  V30 3798 H 350.761 -1.33808 3.7462 0
M  V30 3799 H 347.5 -0.275614 6.5492 0
M  V30 3800 H 347.02 -1.7786 5.72823 0
M  V30 3801 H 348.699 -1.55715 6.27982 0
M  V30 3802 N 348.832 -1.54138 -0.328536 0
M  V30 3803 C 349.78 -1.83894 -1.42428 0
M  V30 3804 C 350.774 -0.710478 -1.53781 0
M  V30 3805 O 351.98 -0.894062 -1.56226 0
M  V30 3806 H 348.355 -0.582837 -0.475189 0
M  V30 3807 H 350.326 -2.75537 -1.14552 0
M  V30 3808 C 349.075 -2.07866 -2.78724 0
M  V30 3809 H 348.398 -2.94158 -2.7076 0
M  V30 3810 H 349.838 -2.32644 -3.54476 0
M  V30 3811 C 348.297 -0.868689 -3.25508 0
M  V30 3812 O 348.827 -0.0754908 -4.01629 0
M  V30 3813 N 347.033 -0.681711 -2.82491 0
M  V30 3814 H 346.58 -1.32838 -2.20708 0
M  V30 3815 H 346.538 0.126374 -3.14146 0
M  V30 3816 N 350.31 0.590341 -1.46126 0
M  V30 3817 C 351.558 1.34616 -1.50742 0
M  V30 3818 C 351.879 1.94363 -0.157486 0
M  V30 3819 O 351.149 1.78136 0.815136 0
M  V30 3820 H 349.729 0.499789 -0.555175 0
M  V30 3821 H 352.391 0.691953 -1.82203 0
M  V30 3822 H 351.487 2.15678 -2.25587 0
M  V30 3823 N 351.788 1.33704 0.83433 0
M  V30 3824 C 353.035 1.25417 1.58987 0
M  V30 3825 C 353.363 -0.178869 1.93676 0
M  V30 3826 O 352.618 -1.13723 1.59265 0
M  V30 3827 C 352.917 2.07926 2.90692 0
M  V30 3828 C 352.583 3.57066 2.75345 0
M  V30 3829 C 351.245 3.97724 2.70867 0
M  V30 3830 C 353.597 4.51817 2.59828 0
M  V30 3831 C 350.925 5.31344 2.48778 0
M  V30 3832 C 353.277 5.85604 2.39272 0
M  V30 3833 C 351.941 6.25439 2.33199 0
M  V30 3834 H 351.211 0.458934 0.581774 0
M  V30 3835 H 353.858 1.65335 0.966261 0
M  V30 3836 H 352.163 1.608 3.57282 0
M  V30 3837 H 353.86 1.98868 3.48213 0
M  V30 3838 H 350.45 3.24785 2.79665 0
M  V30 3839 H 354.634 4.21311 2.62319 0
M  V30 3840 H 349.89 5.61241 2.42526 0
M  V30 3841 H 354.064 6.58623 2.2625 0
M  V30 3842 H 351.691 7.28914 2.15843 0
M  V30 3843 N 353.266 -1.05314 1.17247 0
M  V30 3844 C 354.494 -1.81971 0.984593 0
M  V30 3845 C 354.909 -1.82929 -0.467166 0
M  V30 3846 O 354.266 -1.25564 -1.32438 0
M  V30 3847 C 354.317 -3.28143 1.51672 0
M  V30 3848 O 354.038 -3.27347 2.91163 0
M  V30 3849 C 355.539 -4.21493 1.37326 0
M  V30 3850 H 352.759 -0.573455 0.348411 0
M  V30 3851 H 355.303 -1.32808 1.55506 0
M  V30 3852 H 353.458 -3.74582 0.988302 0
M  V30 3853 H 353.872 -4.18824 3.15732 0
M  V30 3854 H 355.346 -5.22043 1.79375 0
M  V30 3855 H 355.823 -4.38031 0.320169 0
M  V30 3856 H 356.429 -3.80909 1.89178 0
M  V30 3857 N 354.744 -0.972509 -1.24016 0
M  V30 3858 C 355.972 -0.654803 -1.96265 0
M  V30 3859 C 356.387 0.776708 -1.72083 0
M  V30 3860 O 355.744 1.52171 -1.00748 0
M  V30 3861 C 355.795 -0.92592 -3.49441 0
M  V30 3862 O 355.516 -2.30116 -3.72798 0
M  V30 3863 C 357.017 -0.623068 -4.38899 0
M  V30 3864 H 354.237 -0.243907 -0.6251 0
M  V30 3865 H 356.781 -1.30175 -1.57717 0
M  V30 3866 H 354.936 -0.325108 -3.86033 0
M  V30 3867 H 355.35 -2.38483 -4.67147 0
M  V30 3868 H 356.824 -0.863189 -5.45209 0
M  V30 3869 H 357.301 0.442754 -4.36963 0
M  V30 3870 H 357.907 -1.204 -4.07902 0
M  V30 3871 N 356.222 1.38976 -0.743202 0
M  V30 3872 C 357.47 1.99948 -0.29417 0
M  V30 3873 C 357.791 1.59279 1.12495 0
M  V30 3874 O 357.061 0.844808 1.76748 0
M  V30 3875 H 355.641 0.739473 -0.105774 0
M  V30 3876 H 358.303 1.699 -0.954986 0
M  V30 3877 H 357.399 3.10142 -0.349056 0
M  V30 3878 N 357.7 0.491464 1.49741 0
M  V30 3879 C 359.116 0.146835 1.58923 0
M  V30 3880 C 359.316 -1.34804 1.49767 0
M  V30 3881 O 358.372 -2.12317 1.36667 0
M  V30 3882 C 359.685 0.715157 2.92072 0
M  V30 3883 C 361.233 0.680407 3.05515 0
M  V30 3884 C 361.708 1.22663 4.41269 0
M  V30 3885 N 363.199 1.18691 4.47735 0
M  V30 3886 C 363.934 1.57984 5.51207 0
M  V30 3887 N 363.43 2.04824 6.6183 0
M  V30 3888 N 365.223 1.49459 5.41866 0
M  V30 3889 H 357.374 1.46347 1.53936 0
M  V30 3890 H 359.637 0.606453 0.728642 0
M  V30 3891 H 359.343 1.76317 3.04311 0
M  V30 3892 H 359.217 0.17018 3.76816 0
M  V30 3893 H 361.604 -0.358743 2.92911 0
M  V30 3894 H 361.685 1.26242 2.22478 0
M  V30 3895 H 361.329 2.26451 4.54623 0
M  V30 3896 H 361.259 0.620637 5.2293 0
M  V30 3897 H 363.75 0.843605 3.68364 0
M  V30 3898 H 364.063 2.32901 7.3687 0
M  V30 3899 H 362.408 2.08791 6.62896 0
M  V30 3900 H 365.599 1.12692 4.54333 0
M  V30 3901 H 365.772 1.80406 6.22381 0
M  V30 3902 N 359.178 -1.55987 0.224894 0
M  V30 3903 C 360.594 -1.59066 -0.130426 0
M  V30 3904 C 360.794 -1.24176 -1.5869 0
M  V30 3905 O 359.85 -0.978592 -2.32766 0
M  V30 3906 C 361.163 -3.00042 0.198883 0
M  V30 3907 C 362.711 -3.1268 0.141391 0
M  V30 3908 C 363.186 -4.55839 0.444422 0
M  V30 3909 N 364.677 -4.6152 0.394115 0
M  V30 3910 C 365.412 -5.70231 0.602038 0
M  V30 3911 N 364.908 -6.87291 0.871914 0
M  V30 3912 N 366.701 -5.59555 0.534245 0
M  V30 3913 H 358.852 -1.76941 1.17497 0
M  V30 3914 H 361.115 -0.822604 0.471197 0
M  V30 3915 H 360.821 -3.30234 1.2099 0
M  V30 3916 H 360.695 -3.74075 -0.484535 0
M  V30 3917 H 363.082 -2.82283 -0.860265 0
M  V30 3918 H 363.163 -2.40969 0.858335 0
M  V30 3919 H 362.807 -4.86954 1.44353 0
M  V30 3920 H 362.737 -5.2578 -0.293752 0
M  V30 3921 H 365.228 -3.77405 0.193356 0
M  V30 3922 H 365.541 -7.66058 1.01858 0
M  V30 3923 H 363.886 -6.89028 0.909145 0
M  V30 3924 H 367.077 -4.6698 0.323612 0
M  V30 3925 H 367.25 -6.44211 0.699693 0
M  V30 3926 N 360.656 0.0484629 -1.57525 0
M  V30 3927 C 361.904 0.741657 -1.88 0
M  V30 3928 C 362.225 1.76918 -0.820054 0
M  V30 3929 O 361.495 1.95335 0.148661 0
M  V30 3930 H 360.075 0.276908 -0.69378 0
M  V30 3931 H 362.737 0.019013 -1.94891 0
M  V30 3932 H 361.833 1.24336 -2.86264 0
M  V30 3933 N 362.134 1.5431 0.320358 0
M  V30 3934 C 363.411 1.63322 1.07635 0
M  V30 3935 C 363.791 0.46912 2.05821 0
M  V30 3936 O 363.139 -0.536274 2.22118 0
M  V30 3937 C 363.349 3.00465 1.77544 0
M  V30 3938 C 364.697 3.56621 2.30449 0
M  V30 3939 O 365.721 3.02791 1.87606 0
M  V30 3940 O 364.58 4.5083 3.08892 0
M  V30 3941 H 361.674 0.661502 0.496331 0
M  V30 3942 H 364.22 1.66656 0.319992 0
M  V30 3943 H 362.992 3.76629 1.06143 0
M  V30 3944 H 362.615 3.00824 2.59982 0
M  V30 3945 N 363.613 -0.582584 1.46437 0
M  V30 3946 C 364.543 -1.70187 1.59871 0
M  V30 3947 C 365.524 -1.64066 0.449042 0
M  V30 3948 O 366.709 -1.82081 0.6753 0
M  V30 3949 C 363.839 -3.08827 1.58881 0
M  V30 3950 C 362.793 -3.29779 2.72819 0
M  V30 3951 C 362.119 -4.68947 2.5689 0
M  V30 3952 C 363.419 -3.17601 4.1464 0
M  V30 3953 H 365.113 -1.592 2.53566 0
M  V30 3954 H 362.659 -0.764472 1.22032 0
M  V30 3955 H 364.612 -3.86951 1.66873 0
M  V30 3956 H 363.336 -3.20713 0.617306 0
M  V30 3957 H 361.995 -2.54054 2.64296 0
M  V30 3958 H 361.643 -4.77599 1.57823 0
M  V30 3959 H 361.343 -4.83919 3.33312 0
M  V30 3960 H 362.867 -5.4924 2.66773 0
M  V30 3961 H 364.281 -3.8557 4.24274 0
M  V30 3962 H 362.678 -3.44094 4.9165 0
M  V30 3963 H 363.748 -2.14681 4.34788 0
M  V30 3964 N 365.091 -1.34144 -0.827227 0
M  V30 3965 C 366.054 -1.25264 -1.91942 0
M  V30 3966 C 367.054 -0.168866 -1.59911 0
M  V30 3967 O 368.244 -0.421198 -1.69031 0
M  V30 3968 C 365.376 -0.932952 -3.27885 0
M  V30 3969 H 366.569 -2.22357 -2.0124 0
M  V30 3970 H 364.122 -1.1837 -1.0207 0
M  V30 3971 H 364.857 0.0349917 -3.24281 0
M  V30 3972 H 364.642 -1.71682 -3.52516 0
M  V30 3973 H 366.132 -0.895874 -4.07877 0
M  V30 3974 N 366.569 1.04691 -1.17803 0
M  V30 3975 C 367.797 1.81446 -0.99423 0
M  V30 3976 C 368.212 1.83174 0.457459 0
M  V30 3977 O 367.569 1.26265 1.31771 0
M  V30 3978 C 367.62 3.27334 -1.5341 0
M  V30 3979 O 367.341 3.25798 -2.92895 0
M  V30 3980 C 368.842 4.20759 -1.39559 0
M  V30 3981 H 366.062 0.571599 -0.351447 0
M  V30 3982 H 368.606 1.31982 -1.56208 0
M  V30 3983 H 366.761 3.74052 -1.00815 0
M  V30 3984 H 367.175 4.17144 -3.17949 0
M  V30 3985 H 368.649 5.21084 -1.82141 0
M  V30 3986 H 369.126 4.37856 -0.343394 0
M  V30 3987 H 369.732 3.79901 -1.91195 0
M  V30 3988 N 368.047 0.979072 1.23499 0
M  V30 3989 C 369.296 0.642751 1.91185 0
M  V30 3990 C 369.609 -0.827253 1.77245 0
M  V30 3991 O 370.815 -1.27458 2.39722 0
M  V30 3992 C 369.271 1.09901 3.42709 0
M  V30 3993 C 368.879 2.59327 3.65313 0
M  V30 3994 C 370.623 0.836371 4.16179 0
M  V30 3995 C 368.53 2.98627 5.10467 0
M  V30 3996 H 367.46 0.236698 0.715884 0
M  V30 3997 H 370.111 1.1868 1.39955 0
M  V30 3998 H 368.493 0.48319 3.93041 0
M  V30 3999 H 369.667 3.26136 3.25533 0
M  V30 4000 H 367.982 2.83323 3.05151 0
M  V30 4001 H 370.579 1.10586 5.23139 0
M  V30 4002 H 370.922 -0.227509 4.15678 0
M  V30 4003 H 371.455 1.41371 3.71832 0
M  V30 4004 H 368.194 4.04133 5.16098 0
M  V30 4005 H 367.714 2.3651 5.51201 0
M  V30 4006 H 369.393 2.89159 5.78788 0
M  V30 4007 N 369.525 -1.3858 0.750561 0
M  V30 4008 C 370.475 -2.27795 0.0965949 0
M  V30 4009 C 371.459 -1.45048 -0.696411 0
M  V30 4010 O 372.651 -1.67812 -0.562863 0
M  V30 4011 C 369.78 -3.33894 -0.798085 0
M  V30 4012 C 368.866 -4.241 0.0016067 0
M  V30 4013 N 369.257 -4.95067 1.03647 0
M  V30 4014 C 367.555 -4.45429 -0.225674 0
M  V30 4015 C 368.256 -5.61489 1.52004 0
M  V30 4016 N 367.232 -5.37135 0.835874 0
M  V30 4017 H 371.034 -2.80125 0.889228 0
M  V30 4018 H 368.548 -1.51446 0.586323 0
M  V30 4019 H 370.545 -3.96693 -1.28219 0
M  V30 4020 H 369.205 -2.83123 -1.5897 0
M  V30 4021 H 370.216 -4.98104 1.41819 0
M  V30 4022 H 366.893 -4.05571 -0.990872 0
M  V30 4023 H 368.283 -6.28264 2.38188 0
M  V30 4024 N 371.003 -0.499398 -1.49478 0
M  V30 4025 C 372.251 0.0455996 -2.02049 0
M  V30 4026 C 372.572 1.37633 -1.38138 0
M  V30 4027 O 371.842 1.8842 -0.536166 0
M  V30 4028 H 370.422 0.0198416 -0.746736 0
M  V30 4029 H 373.084 -0.656274 -1.83519 0
M  V30 4030 H 372.18 0.176445 -3.11601 0
M  V30 4031 N 372.481 1.55866 -0.233164 0
M  V30 4032 C 373.414 2.16794 0.712442 0
M  V30 4033 C 374.392 1.1158 1.18273 0
M  V30 4034 O 375.576 1.39897 1.26337 0
M  V30 4035 C 372.703 2.75757 1.96661 0
M  V30 4036 C 371.749 3.93902 1.63533 0
M  V30 4037 S 372.582 5.30223 0.74995 0
M  V30 4038 C 373.738 5.92631 2.01343 0
M  V30 4039 H 373.971 2.96662 0.194617 0
M  V30 4040 H 371.504 1.5439 -0.0177425 0
M  V30 4041 H 373.462 3.10367 2.68668 0
M  V30 4042 H 372.123 1.9586 2.45556 0
M  V30 4043 H 371.316 4.33702 2.56747 0
M  V30 4044 H 370.918 3.60499 0.995804 0
M  V30 4045 H 373.21 6.09312 2.96219 0
M  V30 4046 H 374.153 6.88388 1.65915 0
M  V30 4047 H 374.561 5.21571 2.15925 0
M  V30 4048 N 373.959 -0.0401083 1.57549 0
M  V30 4049 C 374.907 -1.06264 2.06908 0
M  V30 4050 C 375.901 -1.38132 0.980608 0
M  V30 4051 O 377.107 -1.37167 1.16556 0
M  V30 4052 H 373.482 -0.360166 0.660139 0
M  V30 4053 H 375.453 -0.620445 2.91878 0
M  V30 4054 C 374.202 -2.35846 2.55483 0
M  V30 4055 H 373.525 -2.12183 3.38849 0
M  V30 4056 H 374.965 -3.05765 2.93741 0
M  V30 4057 C 373.424 -3.0404 1.45126 0
M  V30 4058 O 373.954 -3.93424 0.811216 0
M  V30 4059 N 372.16 -2.65184 1.18852 0
M  V30 4060 H 371.707 -1.92584 1.71083 0
M  V30 4061 H 371.665 -3.1113 0.452244 0
M  V30 4062 N 375.437 -1.54477 -0.31217 0
M  V30 4063 C 376.853 -1.45442 -0.657185 0
M  V30 4064 C 377.053 -0.63653 -1.91182 0
M  V30 4065 O 376.109 -0.139815 -2.52113 0
M  V30 4066 C 377.422 -2.89287 -0.82058 0
M  V30 4067 C 378.97 -2.9926 -0.917188 0
M  V30 4068 C 379.445 -4.44279 -1.11267 0
M  V30 4069 N 380.936 -4.4794 -1.17914 0
M  V30 4070 C 381.671 -5.57318 -1.34848 0
M  V30 4071 N 381.167 -6.76642 -1.48752 0
M  V30 4072 N 382.96 -5.44986 -1.37647 0
M  V30 4073 H 375.111 -2.06129 0.512313 0
M  V30 4074 H 377.374 -0.933088 0.167485 0
M  V30 4075 H 377.08 -3.51687 0.0302604 0
M  V30 4076 H 376.954 -3.36061 -1.71298 0
M  V30 4077 H 379.341 -2.36981 -1.75852 0
M  V30 4078 H 379.422 -2.558 -0.00101257 0
M  V30 4079 H 379.066 -5.07149 -0.27614 0
M  V30 4080 H 378.996 -4.85359 -2.04289 0
M  V30 4081 H 381.487 -3.61969 -1.08567 0
M  V30 4082 H 381.8 -7.55758 -1.61397 0
M  V30 4083 H 380.145 -6.79529 -1.45828 0
M  V30 4084 H 383.336 -4.50715 -1.26388 0
M  V30 4085 H 383.509 -6.3028 -1.50501 0
M  V30 4086 N 376.915 0.57481 -1.46744 0
M  V30 4087 C 378.326 1.15695 -1.46532 0
M  V30 4088 C 378.677 1.95068 -0.210425 0
M  V30 4089 O 377.802 2.05241 0.685944 0
M  V30 4090 C 378.397 2.1048 -2.65487 0
M  V30 4091 C 376.956 2.64002 -2.68291 0
M  V30 4092 C 376.103 1.40026 -2.39349 0
M  V30 4093 H 379.054 0.362325 -1.54509 0
M  V30 4094 H 379.075 2.94074 -2.41455 0
M  V30 4095 H 378.587 1.52683 -3.56805 0
M  V30 4096 H 376.688 3.25646 -1.81067 0
M  V30 4097 H 376.801 3.06197 -3.68483 0
M  V30 4098 H 375.165 1.70106 -1.89568 0
M  V30 4099 H 375.948 0.840485 -3.32852 0
M  V30 4100 N 378.394 1.34581 0.820102 0
M  V30 4101 C 379.641 1.27096 1.57648 0
M  V30 4102 C 379.969 -0.158317 1.93855 0
M  V30 4103 O 379.224 -1.12028 1.60463 0
M  V30 4104 C 379.523 2.10997 2.8847 0
M  V30 4105 C 379.189 3.59966 2.71543 0
M  V30 4106 C 377.851 4.00575 2.66634 0
M  V30 4107 C 380.203 4.54548 2.55021 0
M  V30 4108 C 377.531 5.33953 2.43128 0
M  V30 4109 C 379.883 5.88109 2.33047 0
M  V30 4110 C 378.547 6.27878 2.26552 0
M  V30 4111 H 377.817 0.465078 0.576874 0
M  V30 4112 H 380.464 1.6635 0.948671 0
M  V30 4113 H 378.769 1.6458 3.55557 0
M  V30 4114 H 380.466 2.0255 3.46084 0
M  V30 4115 H 377.056 3.27733 2.76205 0
M  V30 4116 H 381.24 4.24069 2.57835 0
M  V30 4117 H 376.496 5.63781 2.3656 0
M  V30 4118 H 380.67 6.60985 2.19251 0
M  V30 4119 H 378.297 7.31162 2.081 0
M  V30 4120 N 379.872 -1.04064 1.18357 0
M  V30 4121 C 380.802 -2.14001 0.934113 0
M  V30 4122 C 381.783 -1.69616 -0.128186 0
M  V30 4123 O 382.968 -1.94185 0.0244093 0
M  V30 4124 C 380.098 -3.44253 0.459066 0
M  V30 4125 C 379.052 -4.02261 1.46185 0
M  V30 4126 C 378.378 -5.27992 0.844322 0
M  V30 4127 C 379.678 -4.38432 2.83856 0
M  V30 4128 H 381.372 -2.35127 1.85352 0
M  V30 4129 H 378.918 -1.12998 0.892604 0
M  V30 4130 H 380.871 -4.20522 0.271907 0
M  V30 4131 H 379.595 -3.22813 -0.495912 0
M  V30 4132 H 378.254 -3.28074 1.63595 0
M  V30 4133 H 377.902 -5.02862 -0.117845 0
M  V30 4134 H 377.602 -5.67765 1.51384 0
M  V30 4135 H 379.126 -6.06938 0.667693 0
M  V30 4136 H 380.54 -5.05688 2.70098 0
M  V30 4137 H 378.937 -4.89254 3.47491 0
M  V30 4138 H 380.007 -3.4826 3.37406 0
M  V30 4139 N 381.35 -0.985608 -1.22978 0
M  V30 4140 C 382.28 -0.549649 -2.26939 0
M  V30 4141 C 383.261 0.419803 -1.64838 0
M  V30 4142 O 384.446 0.31203 -1.91677 0
M  V30 4143 C 381.576 0.143652 -3.47003 0
M  V30 4144 C 380.53 -0.743606 -4.21491 0
M  V30 4145 C 379.856 0.0822027 -5.34637 0
M  V30 4146 C 381.156 -2.03694 -4.80943 0
M  V30 4147 H 382.85 -1.41862 -2.63658 0
M  V30 4148 H 380.396 -0.683571 -1.26741 0
M  V30 4149 H 382.349 0.459985 -4.18882 0
M  V30 4150 H 381.073 1.04711 -3.09359 0
M  V30 4151 H 379.732 -1.04347 -3.51436 0
M  V30 4152 H 379.38 0.986359 -4.93234 0
M  V30 4153 H 379.08 -0.508377 -5.85397 0
M  V30 4154 H 380.604 0.392797 -6.09335 0
M  V30 4155 H 382.018 -1.78504 -5.44802 0
M  V30 4156 H 380.415 -2.57573 -5.42011 0
M  V30 4157 H 381.485 -2.72042 -4.01399 0
M  V30 4158 N 382.828 1.3818 -0.7579 0
M  V30 4159 C 383.758 2.33027 -0.148597 0
M  V30 4160 C 384.739 1.55085 0.69875 0
M  V30 4161 O 385.924 1.83384 0.639053 0
M  V30 4162 C 383.054 3.3928 0.742034 0
M  V30 4163 C 382.008 4.28 -0.00291946 0
M  V30 4164 C 381.334 5.25146 1.00625 0
M  V30 4165 C 382.634 5.08938 -1.17385 0
M  V30 4166 H 384.328 2.84231 -0.940909 0
M  V30 4167 H 381.874 1.36659 -0.453908 0
M  V30 4168 H 383.827 4.046 1.17799 0
M  V30 4169 H 382.551 2.86569 1.56671 0
M  V30 4170 H 381.21 3.64192 -0.419504 0
M  V30 4171 H 380.858 4.68721 1.8251 0
M  V30 4172 H 380.558 5.85361 0.512428 0
M  V30 4173 H 382.082 5.93342 1.44143 0
M  V30 4174 H 383.496 5.67474 -0.815224 0
M  V30 4175 H 381.893 5.7841 -1.59882 0
M  V30 4176 H 382.963 4.42424 -1.98468 0
M  V30 4177 N 384.306 0.507319 1.49211 0
M  V30 4178 C 385.239 -0.314509 2.26022 0
M  V30 4179 C 386.217 -0.964849 1.30879 0
M  V30 4180 O 387.401 -0.993707 1.6018 0
M  V30 4181 C 384.528 -1.44346 3.06402 0
M  V30 4182 C 383.574 -0.90685 4.16748 0
M  V30 4183 S 384.407 0.207392 5.35098 0
M  V30 4184 C 385.563 -0.924573 6.19033 0
M  V30 4185 H 385.796 0.337416 2.95379 0
M  V30 4186 H 383.329 0.292718 1.516 0
M  V30 4187 H 385.287 -2.09029 3.53295 0
M  V30 4188 H 383.948 -2.06702 2.36502 0
M  V30 4189 H 383.141 -1.75309 4.72528 0
M  V30 4190 H 382.743 -0.33712 3.72478 0
M  V30 4191 H 385.035 -1.82839 6.52362 0
M  V30 4192 H 385.978 -0.405248 7.06939 0
M  V30 4193 H 386.386 -1.19476 5.51712 0
M  V30 4194 N 385.784 -1.5574 0.241426 0
M  V30 4195 C 386.747 -2.19877 -0.647063 0
M  V30 4196 C 387.747 -1.16642 -1.10686 0
M  V30 4197 O 388.937 -1.41757 -1.01245 0
M  V30 4198 C 386.069 -2.83797 -1.88871 0
M  V30 4199 H 387.262 -2.99772 -0.087574 0
M  V30 4200 H 384.815 -1.56298 -0.00813574 0
M  V30 4201 H 385.55 -2.07824 -2.48957 0
M  V30 4202 H 385.335 -3.59414 -1.56728 0
M  V30 4203 H 386.825 -3.32898 -2.52129 0
M  V30 4204 N 387.262 0.0317525 -1.57568 0
M  V30 4205 C 388.49 0.734949 -1.93407 0
M  V30 4206 C 388.905 1.69036 -0.84096 0
M  V30 4207 O 388.262 1.81582 0.182836 0
M  V30 4208 C 388.313 1.49432 -3.29169 0
M  V30 4209 O 388.034 0.577261 -4.3428 0
M  V30 4210 C 389.535 2.29492 -3.79273 0
M  V30 4211 H 386.755 0.206706 -0.638368 0
M  V30 4212 H 389.299 -0.00992046 -2.04498 0
M  V30 4213 H 387.454 2.1911 -3.19483 0
M  V30 4214 H 387.868 1.10952 -5.1263 0
M  V30 4215 H 389.342 2.78172 -4.76785 0
M  V30 4216 H 389.819 3.10794 -3.10328 0
M  V30 4217 H 390.425 1.64894 -3.92033 0
M  V30 4218 N 388.74 1.54641 0.303973 0
M  V30 4219 C 390.151 1.64811 0.877163 0
M  V30 4220 C 390.502 0.554838 1.88191 0
M  V30 4221 O 389.627 -0.309033 2.14182 0
M  V30 4222 C 390.222 2.9876 1.59775 0
M  V30 4223 C 388.781 3.11061 2.11938 0
M  V30 4224 C 387.928 2.60479 0.951097 0
M  V30 4225 H 390.879 1.58493 0.0810486 0
M  V30 4226 H 390.9 2.90017 2.46314 0
M  V30 4227 H 390.412 3.7831 0.866226 0
M  V30 4228 H 388.513 2.36225 2.88146 0
M  V30 4229 H 388.626 4.17171 2.35595 0
M  V30 4230 H 386.99 2.16859 1.33583 0
M  V30 4231 H 387.773 3.42504 0.233581 0
M  V30 4232 N 390.218 -0.567019 1.47046 0
M  V30 4233 C 391.148 -1.68482 1.61667 0
M  V30 4234 C 392.129 -1.6358 0.466418 0
M  V30 4235 O 393.314 -1.81354 0.694574 0
M  V30 4236 C 390.444 -3.07124 1.62148 0
M  V30 4237 C 389.398 -3.26867 2.76301 0
M  V30 4238 C 388.724 -4.66196 2.61849 0
M  V30 4239 C 390.024 -3.13186 4.17986 0
M  V30 4240 H 391.718 -1.56502 2.5524 0
M  V30 4241 H 389.264 -0.751486 1.22836 0
M  V30 4242 H 391.217 -3.8516 1.70968 0
M  V30 4243 H 389.941 -3.2004 0.651287 0
M  V30 4244 H 388.6 -2.51237 2.66975 0
M  V30 4245 H 388.248 -4.75898 1.62879 0
M  V30 4246 H 387.948 -4.80356 3.38425 0
M  V30 4247 H 389.472 -5.46379 2.72584 0
M  V30 4248 H 390.886 -3.81049 4.2834 0
M  V30 4249 H 389.283 -3.3886 4.95272 0
M  V30 4250 H 390.353 -2.10057 4.3704 0
M  V30 4251 N 391.696 -1.35014 -0.812953 0
M  V30 4252 C 392.606 -1.2951 -1.95613 0
M  V30 4253 C 393.622 -0.20107 -1.72834 0
M  V30 4254 O 394.798 -0.42932 -1.96771 0
M  V30 4255 C 391.863 -1.06033 -3.30088 0
M  V30 4256 C 390.924 -2.24688 -3.65805 0
M  V30 4257 C 390.157 -2.02322 -4.93864 0
M  V30 4258 O 390.38 -0.986464 -5.61805 0
M  V30 4259 O 389.314 -2.89525 -5.27692 0
M  V30 4260 H 393.14 -2.25705 -2.03202 0
M  V30 4261 H 390.725 -1.15321 -0.949811 0
M  V30 4262 H 392.607 -0.94763 -4.10607 0
M  V30 4263 H 391.282 -0.128852 -3.23443 0
M  V30 4264 H 390.189 -2.41521 -2.85689 0
M  V30 4265 H 391.522 -3.16261 -3.77147 0
M  V30 4266 N 393.175 1.03435 -1.18907 0
M  V30 4267 C 394.591 1.28973 -0.940111 0
M  V30 4268 C 394.791 1.97676 0.390691 0
M  V30 4269 O 393.847 2.26127 1.12352 0
M  V30 4270 C 395.16 2.14221 -2.11021 0
M  V30 4271 C 396.708 2.27547 -2.14922 0
M  V30 4272 C 397.183 3.16164 -3.31367 0
M  V30 4273 N 398.674 3.23752 -3.31269 0
M  V30 4274 C 399.409 3.92495 -4.18014 0
M  V30 4275 N 398.905 4.63515 -5.14904 0
M  V30 4276 N 400.698 3.88838 -4.05908 0
M  V30 4277 H 392.849 0.57252 -2.04538 0
M  V30 4278 H 395.112 0.315184 -0.894071 0
M  V30 4279 H 394.818 1.71054 -3.073 0
M  V30 4280 H 394.692 3.14919 -2.0762 0
M  V30 4281 H 397.079 2.69947 -1.19217 0
M  V30 4282 H 397.16 1.26418 -2.22378 0
M  V30 4283 H 396.804 2.74474 -4.27348 0
M  V30 4284 H 396.734 4.17339 -3.21148 0
M  V30 4285 H 399.225 2.73167 -2.61129 0
M  V30 4286 H 399.538 5.13583 -5.77453 0
M  V30 4287 H 397.883 4.62398 -5.18857 0
M  V30 4288 H 401.074 3.32491 -3.29495 0
M  V30 4289 H 401.247 4.4214 -4.73726 0
M  V30 4290 N 394.653 0.992116 1.22453 0
M  V30 4291 C 395.616 0.546883 2.2258 0
M  V30 4292 C 396.616 -0.369829 1.56489 0
M  V30 4293 O 397.806 -0.161896 1.73446 0
M  V30 4294 C 394.938 -0.204659 3.40285 0
M  V30 4295 H 396.131 1.43234 2.63484 0
M  V30 4296 H 393.684 0.779239 1.3549 0
M  V30 4297 H 394.419 -1.10614 3.04853 0
M  V30 4298 H 394.204 0.45354 3.89468 0
M  V30 4299 H 395.694 -0.504358 4.14543 0
M  V30 4300 N 396.131 -1.37776 0.765217 0
M  V30 4301 C 397.063 -2.28958 0.105361 0
M  V30 4302 C 398.076 -1.48316 -0.67128 0
M  V30 4303 O 399.265 -1.71046 -0.51045 0
M  V30 4304 C 396.365 -3.27421 -0.874569 0
M  V30 4305 C 395.538 -4.37132 -0.153123 0
M  V30 4306 C 394.597 -5.1571 -1.04547 0
M  V30 4307 O 393.623 -5.66896 -0.511672 0
M  V30 4308 N 394.825 -5.29808 -2.37243 0
M  V30 4309 H 397.59 -2.86227 0.888495 0
M  V30 4310 H 395.151 -1.49682 0.617 0
M  V30 4311 H 397.143 -3.7687 -1.47483 0
M  V30 4312 H 395.713 -2.70967 -1.55871 0
M  V30 4313 H 394.933 -3.89166 0.627975 0
M  V30 4314 H 396.221 -5.07625 0.345643 0
M  V30 4315 H 395.619 -4.89793 -2.83054 0
M  V30 4316 H 394.176 -5.82589 -2.9229 0
M  V30 4317 N 397.609 -0.515225 -1.4894 0
M  V30 4318 C 398.559 0.275113 -2.26334 0
M  V30 4319 C 399.543 0.923007 -1.31793 0
M  V30 4320 O 400.735 0.828254 -1.56426 0
M  V30 4321 C 397.864 1.33041 -3.16473 0
M  V30 4322 C 396.95 0.688051 -4.18481 0
M  V30 4323 N 397.341 -0.217638 -5.05332 0
M  V30 4324 C 395.639 0.94699 -4.3583 0
M  V30 4325 C 396.34 -0.58676 -5.78733 0
M  V30 4326 N 395.316 0.0486966 -5.43578 0
M  V30 4327 H 399.118 -0.421876 -2.90856 0
M  V30 4328 H 396.632 -0.332249 -1.58965 0
M  V30 4329 H 398.629 1.9102 -3.70563 0
M  V30 4330 H 397.289 2.02894 -2.53504 0
M  V30 4331 H 398.3 -0.589343 -5.14536 0
M  V30 4332 H 394.977 1.63719 -3.8406 0
M  V30 4333 H 396.367 -1.32855 -6.58634 0
M  V30 4334 N 399.087 1.5561 -0.249682 0
M  V30 4335 C 400.017 2.24477 0.642826 0
M  V30 4336 C 400.998 1.22601 1.17911 0
M  V30 4337 O 402.183 1.5126 1.21795 0
M  V30 4338 C 399.313 2.94638 1.83863 0
M  V30 4339 C 398.267 4.03227 1.435 0
M  V30 4340 C 397.593 4.60828 2.71186 0
M  V30 4341 C 398.893 5.18796 0.604002 0
M  V30 4342 H 400.587 2.99321 0.0685625 0
M  V30 4343 H 398.133 1.43965 0.0315363 0
M  V30 4344 H 400.086 3.41517 2.46868 0
M  V30 4345 H 398.81 2.17287 2.43832 0
M  V30 4346 H 397.469 3.57121 0.828275 0
M  V30 4347 H 397.117 3.80174 3.29358 0
M  V30 4348 H 396.817 5.34132 2.44901 0
M  V30 4349 H 398.341 5.10442 3.35084 0
M  V30 4350 H 399.755 5.61883 1.13842 0
M  V30 4351 H 398.152 5.98506 0.437097 0
M  V30 4352 H 399.222 4.83384 -0.383147 0
M  V30 4353 N 400.565 -0.0233959 1.57583 0
M  V30 4354 C 401.497 -1.04994 2.03737 0
M  V30 4355 C 402.51 -1.32125 0.951152 0
M  V30 4356 O 403.699 -1.29512 1.22837 0
M  V30 4357 C 400.799 -2.39026 2.40249 0
M  V30 4358 C 399.972 -2.31171 3.7132 0
M  V30 4359 C 399.031 -3.47698 3.94959 0
M  V30 4360 O 398.057 -3.26937 4.65941 0
M  V30 4361 N 399.259 -4.6976 3.41037 0
M  V30 4362 H 402.024 -0.656507 2.92421 0
M  V30 4363 H 399.585 -0.211235 1.60516 0
M  V30 4364 H 401.577 -3.15712 2.53196 0
M  V30 4365 H 400.147 -2.70194 1.57207 0
M  V30 4366 H 399.367 -1.39547 3.68674 0
M  V30 4367 H 400.655 -2.23071 4.57293 0
M  V30 4368 H 400.053 -4.89528 2.83512 0
M  V30 4369 H 398.61 -5.43791 3.59353 0
M  V30 4370 N 402.043 -1.548 -0.295768 0
M  V30 4371 C 403.268 -1.78653 -1.05346 0
M  V30 4372 C 403.693 -0.546894 -1.79974 0
M  V30 4373 O 403.051 0.502763 -1.7419 0
M  V30 4374 C 403.099 -2.99679 -2.00561 0
M  V30 4375 O 402.203 -2.7317 -3.08953 0
M  V30 4376 H 401.544 -0.59116 -0.302367 0
M  V30 4377 H 404.074 -2.01895 -0.331598 0
M  V30 4378 H 404.084 -3.27793 -2.42932 0
M  V30 4379 H 402.759 -3.89562 -1.4565 0
M  V30 4380 H 401.336 -2.56089 -2.71059 0
M  V30 4381 N 403.521 0.559213 -1.47345 0
M  V30 4382 C 404.746 1.34676 -1.57725 0
M  V30 4383 C 405.171 1.86723 -0.227164 0
M  V30 4384 O 404.529 1.6286 0.796642 0
M  V30 4385 C 404.577 2.49399 -2.60447 0
M  V30 4386 O 403.681 3.51567 -2.15578 0
M  V30 4387 H 403.022 0.400115 -0.52991 0
M  V30 4388 H 405.552 0.676009 -1.93109 0
M  V30 4389 H 405.562 2.95996 -2.80803 0
M  V30 4390 H 404.237 2.10873 -3.58477 0
M  V30 4391 H 402.814 3.11289 -2.05313 0
M  V30 4392 N 404.999 1.35443 0.805782 0
M  V30 4393 C 406.415 1.15499 1.10146 0
M  V30 4394 C 406.615 -0.0319975 2.01475 0
M  V30 4395 O 405.671 -0.70236 2.42535 0
M  V30 4396 C 406.984 2.45833 1.73166 0
M  V30 4397 C 408.532 2.52047 1.85583 0
M  V30 4398 C 409.007 3.82427 2.52019 0
M  V30 4399 N 410.498 3.83682 2.59504 0
M  V30 4400 C 411.233 4.81294 3.11679 0
M  V30 4401 N 410.729 5.89294 3.64287 0
M  V30 4402 N 412.522 4.6873 3.1024 0
M  V30 4403 H 404.673 2.11469 0.198678 0
M  V30 4404 H 406.936 0.93594 0.150731 0
M  V30 4405 H 406.642 3.32874 1.13526 0
M  V30 4406 H 406.516 2.6044 2.72857 0
M  V30 4407 H 408.903 1.65435 2.44367 0
M  V30 4408 H 408.984 2.41354 0.847455 0
M  V30 4409 H 408.628 4.69437 1.93885 0
M  V30 4410 H 408.558 3.90409 3.53395 0
M  V30 4411 H 411.049 3.05648 2.22234 0
M  V30 4412 H 411.362 6.59768 4.02401 0
M  V30 4413 H 409.707 5.92985 3.62483 0
M  V30 4414 H 412.898 3.83496 2.68419 0
M  V30 4415 H 413.071 5.44965 3.50596 0
M  V30 4416 N 406.477 -1.02803 1.19454 0
M  V30 4417 C 407.427 -2.0945 0.900827 0
M  V30 4418 C 408.411 -1.60335 -0.134715 0
M  V30 4419 O 409.603 -1.76857 0.0710924 0
M  V30 4420 C 406.732 -3.4044 0.442229 0
M  V30 4421 C 405.818 -3.96286 1.51056 0
M  V30 4422 N 406.209 -4.25785 2.73021 0
M  V30 4423 C 404.507 -4.24307 1.37404 0
M  V30 4424 C 405.208 -4.70654 3.41848 0
M  V30 4425 N 404.184 -4.72238 2.69243 0
M  V30 4426 H 407.986 -2.3015 1.82779 0
M  V30 4427 H 405.5 -1.20672 1.08683 0
M  V30 4428 H 407.497 -4.16354 0.21326 0
M  V30 4429 H 406.157 -3.21159 -0.478238 0
M  V30 4430 H 407.168 -4.15041 3.09776 0
M  V30 4431 H 403.845 -4.14285 0.517103 0
M  V30 4432 H 405.235 -5.02392 4.46152 0
M  V30 4433 N 407.956 -0.998596 -1.21925 0
M  V30 4434 C 409.372 -0.710303 -1.42923 0
M  V30 4435 C 409.572 0.716933 -1.88314 0
M  V30 4436 O 408.628 1.48712 -2.04062 0
M  V30 4437 C 409.941 -1.72072 -2.466 0
M  V30 4438 C 411.489 -1.73681 -2.60392 0
M  V30 4439 C 411.964 -2.73601 -3.67296 0
M  V30 4440 N 413.455 -2.7223 -3.7476 0
M  V30 4441 C 414.19 -3.46206 -4.57087 0
M  V30 4442 N 413.686 -4.29802 -5.43362 0
M  V30 4443 N 415.479 -3.34886 -4.51451 0
M  V30 4444 H 407.63 -1.92028 -0.9077 0
M  V30 4445 H 409.893 -0.828487 -0.460775 0
M  V30 4446 H 409.599 -2.74231 -2.20206 0
M  V30 4447 H 409.473 -1.51818 -3.45299 0
M  V30 4448 H 411.86 -0.722173 -2.86127 0
M  V30 4449 H 411.941 -1.98005 -1.61949 0
M  V30 4450 H 411.585 -3.75217 -3.42307 0
M  V30 4451 H 411.515 -2.46545 -4.65321 0
M  V30 4452 H 414.006 -2.11576 -3.1312 0
M  V30 4453 H 414.319 -4.83061 -6.03218 0
M  V30 4454 H 412.664 -4.33887 -5.42925 0
M  V30 4455 H 415.855 -2.69015 -3.83078 0
M  V30 4456 H 416.028 -3.92796 -5.15379 0
M  V30 4457 N 409.434 1.37368 -0.772513 0
M  V30 4458 C 410.85 1.53059 -0.452231 0
M  V30 4459 C 411.05 1.73065 1.03203 0
M  V30 4460 O 410.106 1.75245 1.81784 0
M  V30 4461 C 411.419 2.72659 -1.26797 0
M  V30 4462 C 412.967 2.86521 -1.25995 0
M  V30 4463 C 413.442 4.09105 -2.05905 0
M  V30 4464 N 414.933 4.16219 -2.03263 0
M  V30 4465 C 415.668 5.10107 -2.61875 0
M  V30 4466 N 415.164 6.09547 -3.29278 0
M  V30 4467 N 416.957 5.02596 -2.51701 0
M  V30 4468 H 409.108 1.22634 -1.7342 0
M  V30 4469 H 411.371 0.597206 -0.736239 0
M  V30 4470 H 411.077 2.64343 -2.31982 0
M  V30 4471 H 410.951 3.66363 -0.897672 0
M  V30 4472 H 413.338 2.94308 -0.216081 0
M  V30 4473 H 413.419 1.93774 -1.66989 0
M  V30 4474 H 413.063 4.0208 -3.10313 0
M  V30 4475 H 412.993 5.00968 -1.62292 0
M  V30 4476 H 415.484 3.45012 -1.54192 0
M  V30 4477 H 415.797 6.77718 -3.71374 0
M  V30 4478 H 414.142 6.09824 -3.33377 0
M  V30 4479 H 417.333 4.23855 -1.98657 0
M  V30 4480 H 417.506 5.75582 -2.97673 0
M  V30 4481 N 410.912 0.523116 1.48665 0
M  V30 4482 C 411.875 -0.232592 2.28017 0
M  V30 4483 C 412.875 -0.874021 1.34972 0
M  V30 4484 O 414.065 -0.735132 1.57929 0
M  V30 4485 C 411.197 -1.33586 3.13636 0
M  V30 4486 H 412.39 0.464008 2.96289 0
M  V30 4487 H 409.943 0.278816 1.53793 0
M  V30 4488 H 410.678 -2.06593 2.4998 0
M  V30 4489 H 410.463 -0.881125 3.82071 0
M  V30 4490 H 411.953 -1.86759 3.73511 0
M  V30 4491 N 412.39 -1.55475 0.257931 0
M  V30 4492 C 413.32 -2.24815 -0.630912 0
M  V30 4493 C 414.301 -1.23224 -1.17259 0
M  V30 4494 O 415.486 -1.51904 -1.20991 0
M  V30 4495 C 412.616 -2.95609 -1.82298 0
M  V30 4496 C 411.57 -4.03982 -1.41359 0
M  V30 4497 C 410.896 -4.6226 -2.68738 0
M  V30 4498 C 412.196 -5.19109 -0.57648 0
M  V30 4499 H 413.89 -2.99354 -0.0526878 0
M  V30 4500 H 411.436 -1.4398 -0.023901 0
M  V30 4501 H 413.389 -3.42822 -2.45054 0
M  V30 4502 H 412.113 -2.18577 -2.42676 0
M  V30 4503 H 410.772 -3.57555 -0.809324 0
M  V30 4504 H 410.42 -3.81915 -3.27338 0
M  V30 4505 H 410.12 -5.35424 -2.42065 0
M  V30 4506 H 411.644 -5.12212 -3.32372 0
M  V30 4507 H 413.058 -5.62479 -1.10861 0
M  V30 4508 H 411.455 -5.98729 -0.405351 0
M  V30 4509 H 412.525 -4.83174 0.408776 0
M  V30 4510 N 413.868 0.0150385 -1.57593 0
M  V30 4511 C 415.145 0.7392 -1.81094 0
M  V30 4512 C 415.525 1.92817 -0.859344 0
M  V30 4513 O 414.873 2.28301 0.095362 0
M  V30 4514 C 415.083 1.15907 -3.29191 0
M  V30 4515 C 416.431 1.56918 -3.9454 0
M  V30 4516 O 417.455 1.25328 -3.33424 0
M  V30 4517 O 416.314 2.15604 -5.02173 0
M  V30 4518 H 413.408 0.358631 -0.745193 0
M  V30 4519 H 415.954 -0.00926156 -1.69697 0
M  V30 4520 H 414.726 0.310921 -3.90063 0
M  V30 4521 H 414.349 1.96711 -3.45529 0
M  V30 4522 N 415.346 1.54954 0.287554 0
M  V30 4523 C 416.574 1.78881 1.03967 0
M  V30 4524 C 416.989 0.554894 1.80462 0
M  V30 4525 O 416.346 -0.475676 1.76192 0
M  V30 4526 C 416.397 3.00488 2.0097 0
M  V30 4527 O 416.118 4.19113 1.27577 0
M  V30 4528 C 417.619 3.36907 2.88112 0
M  V30 4529 H 414.839 0.596259 0.307761 0
M  V30 4530 H 417.383 2.01937 0.322749 0
M  V30 4531 H 415.538 2.79601 2.68145 0
M  V30 4532 H 415.952 4.87765 1.92835 0
M  V30 4533 H 417.426 4.25205 3.52001 0
M  V30 4534 H 417.903 2.55659 3.57121 0
M  V30 4535 H 418.509 3.60001 2.26449 0
M  V30 4536 N 416.824 -0.551391 1.4764 0
M  V30 4537 C 417.772 -1.67896 1.60978 0
M  V30 4538 C 418.766 -1.62549 0.476877 0
M  V30 4539 O 419.972 -1.67664 0.654878 0
M  V30 4540 H 416.347 -0.555649 0.506713 0
M  V30 4541 H 418.318 -1.53784 2.55721 0
M  V30 4542 C 417.067 -3.06234 1.64669 0
M  V30 4543 H 416.39 -3.11033 2.51194 0
M  V30 4544 H 417.83 -3.84804 1.7805 0
M  V30 4545 C 416.289 -3.34737 0.381115 0
M  V30 4546 O 416.819 -3.98381 -0.515297 0
M  V30 4547 N 415.025 -2.8944 0.259354 0
M  V30 4548 H 414.572 -2.37827 0.98976 0
M  V30 4549 H 414.53 -3.08882 -0.586464 0
M  V30 4550 N 418.302 -1.35869 -0.798587 0
M  V30 4551 C 419.532 -1.32529 -1.58491 0
M  V30 4552 C 419.94 0.0975405 -1.88948 0
M  V30 4553 O 419.283 1.06224 -1.49874 0
M  V30 4554 C 419.345 -2.07247 -2.9375 0
M  V30 4555 C 419.009 -3.56391 -2.86068 0
M  V30 4556 C 420.006 -4.50824 -2.58947 0
M  V30 4557 C 417.691 -3.9915 -3.04933 0
M  V30 4558 C 419.685 -5.85993 -2.5078 0
M  V30 4559 C 417.372 -5.34413 -2.96389 0
M  V30 4560 C 418.37 -6.27646 -2.69349 0
M  V30 4561 O 418.058 -7.60426 -2.60782 0
M  V30 4562 H 417.79 -0.456529 -0.498556 0
M  V30 4563 H 420.344 -1.79425 -0.999799 0
M  V30 4564 H 418.574 -1.55001 -3.54276 0
M  V30 4565 H 420.263 -1.96883 -3.54954 0
M  V30 4566 H 421.029 -4.19104 -2.44084 0
M  V30 4567 H 416.908 -3.26961 -3.24989 0
M  V30 4568 H 420.452 -6.58735 -2.29595 0
M  V30 4569 H 416.349 -5.65743 -3.10813 0
M  V30 4570 H 417.117 -7.70444 -2.76331 0
M  V30 4571 N 419.78 1.02168 -1.19998 0
M  V30 4572 C 421.02 1.77232 -1.01825 0
M  V30 4573 C 421.384 1.86833 0.442428 0
M  V30 4574 O 422.585 2.58293 0.744189 0
M  V30 4575 C 420.856 3.15601 -1.67722 0
M  V30 4576 S 422.415 4.06765 -1.64584 0
M  V30 4577 H 419.233 0.610021 -0.365233 0
M  V30 4578 H 421.835 1.22368 -1.52467 0
M  V30 4579 H 420.539 3.06235 -2.73218 0
M  V30 4580 H 420.07 3.7554 -1.17189 0
M  V30 4581 H 422.085 4.91586 -0.67511 0
M  V30 4582 N 421.258 1.00505 1.21394 0
M  V30 4583 C 422.505 0.687774 1.90462 0
M  V30 4584 C 422.833 -0.78147 1.7811 0
M  V30 4585 O 422.088 -1.58208 1.1519 0
M  V30 4586 C 422.387 1.0546 3.41486 0
M  V30 4587 C 422.053 2.51812 3.74034 0
M  V30 4588 C 420.715 2.91804 3.82628 0
M  V30 4589 C 423.067 3.46614 3.8924 0
M  V30 4590 C 420.395 4.2556 4.03876 0
M  V30 4591 C 422.747 4.80044 4.11995 0
M  V30 4592 C 421.411 5.19759 4.18816 0
M  V30 4593 H 420.681 0.251674 0.696951 0
M  V30 4594 H 423.328 1.26349 1.43903 0
M  V30 4595 H 421.633 0.397133 3.89782 0
M  V30 4596 H 423.33 0.786976 3.93202 0
M  V30 4597 H 419.92 2.1982 3.67936 0
M  V30 4598 H 424.104 3.16883 3.81967 0
M  V30 4599 H 419.36 4.55901 4.07387 0
M  V30 4600 H 423.534 5.53439 4.22704 0
M  V30 4601 H 421.161 6.23418 4.35033 0
M  V30 4602 N 422.737 -1.36956 0.779787 0
M  V30 4603 C 423.962 -2.04283 0.358224 0
M  V30 4604 C 424.387 -1.58422 -1.01411 0
M  V30 4605 O 423.745 -0.748179 -1.65142 0
M  V30 4606 C 423.793 -3.58152 0.419479 0
M  V30 4607 O 422.897 -4.08342 -0.577142 0
M  V30 4608 H 422.238 -0.645967 0.153698 0
M  V30 4609 H 424.768 -1.75108 1.05822 0
M  V30 4610 H 424.778 -4.07041 0.279636 0
M  V30 4611 H 423.453 -3.90886 1.42061 0
M  V30 4612 H 422.03 -3.70751 -0.399755 0
M  V30 4613 N 424.215 -0.530993 -1.48385 0
M  V30 4614 C 425.44 0.000729535 -2.074 0
M  V30 4615 C 425.865 1.27298 -1.3848 0
M  V30 4616 O 425.223 1.75599 -0.451081 0
M  V30 4617 C 425.271 0.206697 -3.60007 0
M  V30 4618 O 424.375 1.27514 -3.92191 0
M  V30 4619 H 423.716 -0.039583 -0.662819 0
M  V30 4620 H 426.246 -0.739194 -1.9078 0
M  V30 4621 H 426.256 0.42904 -4.05738 0
M  V30 4622 H 424.931 -0.722675 -4.09573 0
M  V30 4623 H 423.508 1.03537 -3.58238 0
M  V30 4624 N 425.693 1.55336 -0.266172 0
M  V30 4625 C 426.921 2.03801 0.356756 0
M  V30 4626 C 427.336 1.14485 1.50129 0
M  V30 4627 O 426.693 0.163121 1.8177 0
M  V30 4628 C 426.744 3.51455 0.846281 0
M  V30 4629 O 426.465 4.37371 -0.252663 0
M  V30 4630 C 427.966 4.15767 1.53794 0
M  V30 4631 H 425.186 0.665906 0.0825218 0
M  V30 4632 H 427.73 2.00636 -0.39566 0
M  V30 4633 H 425.885 3.55092 1.54881 0
M  V30 4634 H 426.299 5.24358 0.122173 0
M  V30 4635 H 427.773 5.20714 1.83198 0
M  V30 4636 H 428.25 3.63404 2.46646 0
M  V30 4637 H 428.856 4.16107 0.879488 0
M  V30 4638 N 427.171 -0.0066808 1.57599 0
M  V30 4639 C 428.081 -1.01671 2.11424 0
M  V30 4640 C 429.097 -1.38143 1.05795 0
M  V30 4641 O 430.273 -1.47011 1.37658 0
M  V30 4642 C 427.338 -2.29192 2.60139 0
M  V30 4643 C 426.399 -1.99094 3.80342 0
M  V30 4644 C 425.632 -3.20535 4.26724 0
M  V30 4645 O 425.855 -4.3199 3.72479 0
M  V30 4646 O 424.789 -3.04924 5.18946 0
M  V30 4647 H 428.615 -0.589181 2.9793 0
M  V30 4648 H 426.2 -0.225091 1.47695 0
M  V30 4649 H 428.082 -3.0412 2.917 0
M  V30 4650 H 426.757 -2.71195 1.76733 0
M  V30 4651 H 425.664 -1.21663 3.53764 0
M  V30 4652 H 426.997 -1.61931 4.648 0
M  V30 4653 N 428.649 -1.55105 -0.279332 0
M  V30 4654 C 429.596 -1.8755 -1.34513 0
M  V30 4655 C 430.566 -0.726384 -1.49375 0
M  V30 4656 O 431.751 -0.977063 -1.63884 0
M  V30 4657 C 428.891 -2.14738 -2.70151 0
M  V30 4658 C 428.004 -3.42285 -2.63562 0
M  V30 4659 C 427.139 -3.59206 -3.91337 0
M  V30 4660 C 426.178 -4.80467 -3.79233 0
M  V30 4661 N 425.315 -4.94079 -4.98829 0
M  V30 4662 H 430.155 -2.78456 -1.06143 0
M  V30 4663 H 427.692 -1.37867 -0.512936 0
M  V30 4664 H 429.65 -2.28501 -3.49061 0
M  V30 4665 H 428.28 -1.27075 -2.96735 0
M  V30 4666 H 427.332 -3.37029 -1.76397 0
M  V30 4667 H 428.644 -4.31328 -2.50515 0
M  V30 4668 H 427.798 -3.72751 -4.78687 0
M  V30 4669 H 426.537 -2.68337 -4.07243 0
M  V30 4670 H 425.542 -4.66932 -2.90266 0
M  V30 4671 H 426.767 -5.72765 -3.64852 0
M  V30 4672 H 424.713 -4.06139 -5.15158 0
M  V30 4673 H 424.63 -5.77156 -4.8829 0
M  V30 4674 H 425.898 -5.12003 -5.8777 0
M  V30 4675 N 430.127 0.543554 -1.4793 0
M  V30 4676 C 431.075 1.67039 -1.61866 0
M  V30 4677 C 432.069 1.62294 -0.48549 0
M  V30 4678 O 433.275 1.67315 -0.66376 0
M  V30 4679 H 429.65 0.552954 -0.509652 0
M  V30 4680 H 431.621 1.52426 -2.56533 0
M  V30 4681 C 430.37 3.05357 -1.6629 0
M  V30 4682 H 429.693 3.09696 -2.5284 0
M  V30 4683 H 431.133 3.83855 -1.80088 0
M  V30 4684 C 429.592 3.34531 -0.398861 0
M  V30 4685 O 430.122 3.98649 0.494162 0
M  V30 4686 N 428.328 2.89299 -0.2747 0
M  V30 4687 H 427.875 2.37298 -1.00236 0
M  V30 4688 H 427.833 3.09188 0.570075 0
M  V30 4689 N 431.605 1.3629 0.791371 0
M  V30 4690 C 432.845 1.31792 1.56238 0
M  V30 4691 C 433.209 -0.102237 1.91728 0
M  V30 4692 O 434.41 -0.271759 2.67423 0
M  V30 4693 C 432.681 2.21303 2.80642 0
M  V30 4694 S 434.24 2.34468 3.70904 0
M  V30 4695 H 431.058 0.468141 0.535131 0
M  V30 4696 H 433.66 1.71841 0.932246 0
M  V30 4697 H 432.364 3.23439 2.52617 0
M  V30 4698 H 431.895 1.82266 3.4863 0
M  V30 4699 H 433.91 1.54074 4.71673 0
M  V30 4700 N 433.083 -1.0153 1.20538 0
M  V30 4701 C 434.323 -1.76689 1.02763 0
M  V30 4702 C 434.687 -1.87065 -0.432513 0
M  V30 4703 O 435.888 -2.58684 -0.730481 0
M  V30 4704 C 434.159 -3.14707 1.69393 0
M  V30 4705 S 435.718 -4.05886 1.66738 0
M  V30 4706 H 432.536 -0.608076 0.368463 0
M  V30 4707 H 435.138 -1.21558 1.53114 0
M  V30 4708 H 433.842 -3.04782 2.74838 0
M  V30 4709 H 433.373 -3.74913 1.19179 0
M  V30 4710 H 435.388 -4.91221 0.70117 0
M  V30 4711 N 434.561 -1.01147 -1.20859 0
M  V30 4712 C 435.807 -0.698899 -1.90377 0
M  V30 4713 C 436.14 0.76904 -1.78324 0
M  V30 4714 O 435.415 1.55817 -1.16409 0
M  V30 4715 C 435.698 -1.12878 -3.41951 0
M  V30 4716 C 435.551 -2.65665 -3.62963 0
M  V30 4717 C 436.87 -0.696114 -4.3456 0
M  V30 4718 H 433.989 -0.255372 -0.691342 0
M  V30 4719 H 436.631 -1.25831 -1.42361 0
M  V30 4720 H 434.781 -0.652827 -3.82976 0
M  V30 4721 H 436.453 -3.21074 -3.31224 0
M  V30 4722 H 434.696 -3.06878 -3.06608 0
M  V30 4723 H 435.367 -2.90797 -4.69192 0
M  V30 4724 H 437.843 -1.10521 -4.01154 0
M  V30 4725 H 436.719 -1.025 -5.39245 0
M  V30 4726 H 436.98 0.402465 -4.40264 0
M  V30 4727 N 436.039 1.36541 -0.78704 0
M  V30 4728 C 437.455 1.52571 -0.46844 0
M  V30 4729 C 437.655 1.7415 1.01361 0
M  V30 4730 O 436.711 1.77163 1.79915 0
M  V30 4731 C 438.024 2.71299 -1.29682 0
M  V30 4732 C 439.572 2.85169 -1.29027 0
M  V30 4733 C 440.047 4.06898 -2.10233 0
M  V30 4734 N 441.538 4.1404 -2.07666 0
M  V30 4735 C 442.273 5.07301 -2.67271 0
M  V30 4736 N 441.769 6.06021 -3.35724 0
M  V30 4737 N 443.562 4.99898 -2.57018 0
M  V30 4738 H 435.713 1.20788 -1.74711 0
M  V30 4739 H 437.976 0.589364 -0.742532 0
M  V30 4740 H 437.682 2.61868 -2.34773 0
M  V30 4741 H 437.556 3.6539 -0.936479 0
M  V30 4742 H 439.943 2.94062 -0.247284 0
M  V30 4743 H 440.024 1.91992 -1.69035 0
M  V30 4744 H 439.668 3.98766 -3.1456 0
M  V30 4745 H 439.598 4.99218 -1.67597 0
M  V30 4746 H 442.089 3.43357 -1.57843 0
M  V30 4747 H 442.402 6.73741 -3.78541 0
M  V30 4748 H 440.747 6.06253 -3.39826 0
M  V30 4749 H 443.938 4.21724 -2.03142 0
M  V30 4750 H 444.111 5.72392 -3.03761 0
M  V30 4751 N 437.518 0.538854 1.48102 0
M  V30 4752 C 438.45 -0.256278 2.27763 0
M  V30 4753 C 439.463 -0.89633 1.35904 0
M  V30 4754 O 440.652 -0.773275 1.60881 0
M  V30 4755 C 437.752 -1.37896 3.09577 0
M  V30 4756 C 436.925 -0.839159 4.29275 0
M  V30 4757 C 435.984 -1.84405 4.9283 0
M  V30 4758 O 435.01 -1.39746 5.51779 0
M  V30 4759 N 436.212 -3.17666 4.85869 0
M  V30 4760 H 438.977 0.426968 2.96643 0
M  V30 4761 H 436.538 0.373747 1.57527 0
M  V30 4762 H 438.53 -2.04955 3.48963 0
M  V30 4763 H 437.1 -1.96572 2.4306 0
M  V30 4764 H 436.32 0.00769287 3.94199 0
M  V30 4765 H 437.608 -0.457548 5.06739 0
M  V30 4766 H 437.006 -3.56609 4.39143 0
M  V30 4767 H 435.563 -3.80334 5.29329 0
M  V30 4768 N 438.996 -1.55193 0.274407 0
M  V30 4769 C 439.926 -2.25471 -0.607032 0
M  V30 4770 C 440.907 -1.24461 -1.15946 0
M  V30 4771 O 442.092 -1.53179 -1.19373 0
M  V30 4772 C 439.222 -2.97526 -1.79153 0
M  V30 4773 C 438.176 -4.05459 -1.37067 0
M  V30 4774 C 437.502 -4.65084 -2.6382 0
M  V30 4775 C 438.802 -5.19691 -0.521389 0
M  V30 4776 H 440.496 -2.99393 -0.0209343 0
M  V30 4777 H 438.042 -1.43997 -0.00862866 0
M  V30 4778 H 439.995 -3.45402 -2.41404 0
M  V30 4779 H 438.719 -2.21138 -2.40344 0
M  V30 4780 H 437.378 -3.58393 -0.771355 0
M  V30 4781 H 437.026 -3.85365 -3.23268 0
M  V30 4782 H 436.726 -5.37961 -2.36372 0
M  V30 4783 H 438.25 -5.15708 -3.26921 0
M  V30 4784 H 439.664 -5.63623 -1.04889 0
M  V30 4785 H 438.061 -5.99126 -0.341825 0
M  V30 4786 H 439.131 -4.82713 0.46 0
M  V30 4787 N 440.474 -0.00167713 -1.576 0
M  V30 4788 C 441.704 0.692754 -1.94639 0
M  V30 4789 C 442.112 1.67744 -0.87513 0
M  V30 4790 O 441.455 1.8305 0.154382 0
M  V30 4791 C 441.517 1.47881 -3.27676 0
M  V30 4792 C 441.181 0.655518 -4.52274 0
M  V30 4793 C 442.178 -0.0575214 -5.19868 0
M  V30 4794 C 439.863 0.600994 -4.98692 0
M  V30 4795 C 441.857 -0.814052 -6.3218 0
M  V30 4796 C 439.544 -0.15926 -6.10892 0
M  V30 4797 C 440.542 -0.865515 -6.77494 0
M  V30 4798 O 440.23 -1.61336 -7.87544 0
M  V30 4799 H 439.962 0.197792 -0.646417 0
M  V30 4800 H 442.516 -0.049423 -2.05341 0
M  V30 4801 H 440.746 2.2655 -3.13388 0
M  V30 4802 H 442.435 2.05874 -3.49816 0
M  V30 4803 H 443.201 -0.0245611 -4.84994 0
M  V30 4804 H 439.08 1.14025 -4.46676 0
M  V30 4805 H 442.624 -1.36584 -6.84098 0
M  V30 4806 H 438.521 -0.194035 -6.45208 0
M  V30 4807 H 439.289 -1.53025 -8.04068 0
M  V30 4808 N 441.952 1.55251 0.271103 0
M  V30 4809 C 443.201 1.75151 1.00025 0
M  V30 4810 C 443.514 0.561041 1.87381 0
M  V30 4811 O 444.72 0.642506 2.63788 0
M  V30 4812 C 443.176 3.09999 1.82835 0
M  V30 4813 C 442.784 4.3662 1.00336 0
M  V30 4814 C 444.528 3.39249 2.55168 0
M  V30 4815 C 442.435 5.62506 1.82595 0
M  V30 4816 H 441.365 0.652877 0.377183 0
M  V30 4817 H 444.016 1.81708 0.255843 0
M  V30 4818 H 442.398 2.97485 2.61378 0
M  V30 4819 H 443.572 4.60055 0.261959 0
M  V30 4820 H 441.887 4.14527 0.394486 0
M  V30 4821 H 444.484 4.3051 3.1712 0
M  V30 4822 H 444.827 2.59467 3.2555 0
M  V30 4823 H 445.36 3.52869 1.83653 0
M  V30 4824 H 442.099 6.45041 1.16631 0
M  V30 4825 H 441.619 5.43211 2.54327 0
M  V30 4826 H 443.298 6.00875 2.39913 0
M  V30 4827 N 443.43 -0.535701 1.48216 0
M  V30 4828 C 444.707 -1.29683 1.46429 0
M  V30 4829 C 445.087 -2.10391 0.172852 0
M  V30 4830 O 444.435 -2.12282 -0.845488 0
M  V30 4831 C 444.645 -2.18313 2.72287 0
M  V30 4832 C 445.993 -2.78639 3.20383 0
M  V30 4833 O 447.017 -2.28604 2.73164 0
M  V30 4834 O 445.876 -3.69636 4.02531 0
M  V30 4835 H 442.97 -0.585026 0.584529 0
M  V30 4836 H 445.516 -0.552827 1.60443 0
M  V30 4837 H 444.288 -1.58421 3.57797 0
M  V30 4838 H 443.911 -2.99971 2.60966 0
M  V30 4839 N 444.908 -1.36708 -0.784132 0
M  V30 4840 C 446.155 -1.31231 -1.54222 0
M  V30 4841 C 446.483 0.106864 -1.94206 0
M  V30 4842 O 445.738 1.07734 -1.63376 0
M  V30 4843 C 446.037 -2.18571 -2.82774 0
M  V30 4844 C 445.703 -3.67039 -2.61903 0
M  V30 4845 C 444.365 -4.07503 -2.55919 0
M  V30 4846 C 446.717 -4.61149 -2.4288 0
M  V30 4847 C 444.045 -5.40211 -2.28886 0
M  V30 4848 C 446.397 -5.94081 -2.17373 0
M  V30 4849 C 445.061 -6.33664 -2.09825 0
M  V30 4850 H 444.331 -0.48021 -0.56434 0
M  V30 4851 H 446.978 -1.68807 -0.904233 0
M  V30 4852 H 445.283 -1.73949 -3.51068 0
M  V30 4853 H 446.98 -2.11655 -3.40592 0
M  V30 4854 H 443.57 -3.34941 -2.67418 0
M  V30 4855 H 447.754 -4.30756 -2.46501 0
M  V30 4856 H 443.01 -5.69855 -2.21529 0
M  V30 4857 H 447.184 -6.66566 -2.01649 0
M  V30 4858 H 444.811 -7.36423 -1.88641 0
M  V30 4859 N 446.386 1.0089 -1.21074 0
M  V30 4860 C 447.802 1.2695 -0.967257 0
M  V30 4861 C 448.002 1.9846 0.348673 0
M  V30 4862 O 447.058 2.28459 1.0753 0
M  V30 4863 C 448.371 2.09697 -2.15517 0
M  V30 4864 C 449.919 2.22937 -2.197 0
M  V30 4865 C 450.394 3.09064 -3.37999 0
M  V30 4866 N 451.885 3.16653 -3.38061 0
M  V30 4867 C 452.62 3.8354 -4.26245 0
M  V30 4868 N 452.116 4.52488 -5.2462 0
M  V30 4869 N 453.909 3.80141 -4.14064 0
M  V30 4870 H 446.06 0.529005 -2.05707 0
M  V30 4871 H 448.323 0.296148 -0.900556 0
M  V30 4872 H 448.029 1.64497 -3.10859 0
M  V30 4873 H 447.903 3.10444 -2.14253 0
M  V30 4874 H 450.29 2.67357 -1.24916 0
M  V30 4875 H 450.371 1.21673 -2.2501 0
M  V30 4876 H 450.015 2.65347 -4.33074 0
M  V30 4877 H 449.945 4.10433 -3.29928 0
M  V30 4878 H 452.436 2.67566 -2.66865 0
M  V30 4879 H 452.749 5.01219 -5.88217 0
M  V30 4880 H 451.094 4.51288 -5.28549 0
M  V30 4881 H 454.285 3.25427 -3.36474 0
M  V30 4882 H 454.458 4.31992 -4.82998 0
M  V30 4883 N 447.864 1.01787 1.20321 0
M  V30 4884 C 448.811 0.589197 2.23153 0
M  V30 4885 C 449.781 -0.391367 1.61423 0
M  V30 4886 O 450.966 -0.290518 1.88575 0
M  V30 4887 C 448.106 -0.0650747 3.45039 0
M  V30 4888 C 447.219 0.960207 4.21194 0
M  V30 4889 C 446.354 0.276854 5.30478 0
M  V30 4890 C 445.393 1.2888 5.98378 0
M  V30 4891 N 444.53 0.632031 6.99249 0
M  V30 4892 H 449.37 1.47071 2.59179 0
M  V30 4893 H 446.907 0.736192 1.27352 0
M  V30 4894 H 448.865 -0.461552 4.14639 0
M  V30 4895 H 447.495 -0.910233 3.09701 0
M  V30 4896 H 446.547 1.47484 3.50646 0
M  V30 4897 H 447.859 1.72977 4.67847 0
M  V30 4898 H 447.013 -0.175056 6.06447 0
M  V30 4899 H 445.752 -0.525004 4.84866 0
M  V30 4900 H 444.757 1.75109 5.21169 0
M  V30 4901 H 445.982 2.09196 6.46076 0
M  V30 4902 H 443.928 -0.149935 6.55829 0
M  V30 4903 H 443.845 1.33964 7.44036 0
M  V30 4904 H 445.113 0.203755 7.79234 0
M  V30 4905 N 449.342 -1.36122 0.79427 0
M  V30 4906 C 450.619 -1.93398 0.292685 0
M  V30 4907 C 450.999 -1.72567 -1.21589 0
M  V30 4908 O 450.347 -1.08745 -2.00965 0
M  V30 4909 C 450.557 -3.42099 0.690614 0
M  V30 4910 C 451.905 -4.19231 0.673105 0
M  V30 4911 O 452.929 -3.50559 0.631389 0
M  V30 4912 O 451.788 -5.41732 0.720362 0
M  V30 4913 H 448.882 -0.823712 0.0736693 0
M  V30 4914 H 451.428 -1.45273 0.87714 0
M  V30 4915 H 450.2 -3.50938 1.73085 0
M  V30 4916 H 449.823 -3.97519 0.0803036 0
M  V30 4917 N 450.82 -0.546701 -1.47814 0
M  V30 4918 C 451.75 0.195317 -2.32682 0
M  V30 4919 C 452.731 0.918981 -1.43139 0
M  V30 4920 O 453.916 0.901501 -1.72008 0
M  V30 4921 C 451.046 1.23237 -3.247 0
M  V30 4922 C 450 0.625818 -4.234 0
M  V30 4923 C 449.326 1.76674 -5.04669 0
M  V30 4924 C 450.626 -0.413515 -5.2066 0
M  V30 4925 H 452.32 -0.513184 -2.94969 0
M  V30 4926 H 449.866 -0.248241 -1.41844 0
M  V30 4927 H 451.819 1.75955 -3.82907 0
M  V30 4928 H 450.543 1.97067 -2.60446 0
M  V30 4929 H 449.202 0.120023 -3.66403 0
M  V30 4930 H 448.85 2.49383 -4.36826 0
M  V30 4931 H 448.55 1.36673 -5.71484 0
M  V30 4932 H 450.074 2.29738 -5.65732 0
M  V30 4933 H 451.488 0.0272042 -5.73294 0
M  V30 4934 H 449.885 -0.731825 -5.95621 0
M  V30 4935 H 450.955 -1.31325 -4.66778 0
M  V30 4936 N 452.299 1.55045 -0.282633 0
M  V30 4937 C 453.547 1.99365 0.331334 0
M  V30 4938 C 453.868 1.1725 1.55812 0
M  V30 4939 O 453.138 0.263871 1.94115 0
M  V30 4940 H 451.718 0.736397 0.125414 0
M  V30 4941 H 454.38 1.90964 -0.389711 0
M  V30 4942 H 453.476 3.0596 0.616036 0
M  V30 4943 N 453.777 0.010035 1.57597 0
M  V30 4944 C 455.023 -0.668011 1.92118 0
M  V30 4945 C 455.378 -1.70821 0.885328 0
M  V30 4946 O 454.671 -1.91333 -0.101187 0
M  V30 4947 C 454.865 -1.34434 3.31153 0
M  V30 4948 C 454.694 -0.371176 4.48166 0
M  V30 4949 C 453.464 0.0220686 5.05295 0
M  V30 4950 C 455.662 0.366731 5.12991 0
M  V30 4951 N 453.644 0.9924 6.05826 0
M  V30 4952 C 455.015 1.19142 6.08445 0
M  V30 4953 C 457.07 0.429489 4.96044 0
M  V30 4954 C 455.773 2.07317 6.88776 0
M  V30 4955 C 457.799 1.2985 5.76969 0
M  V30 4956 C 457.161 2.11101 6.72023 0
M  V30 4957 H 453.26 -0.217337 0.751192 0
M  V30 4958 H 455.844 0.0727375 1.94564 0
M  V30 4959 H 454.015 -2.05533 3.29561 0
M  V30 4960 H 455.747 -1.97789 3.53075 0
M  V30 4961 H 452.502 -0.348409 4.72317 0
M  V30 4962 H 452.926 1.47324 6.60776 0
M  V30 4963 H 457.568 -0.18442 4.22398 0
M  V30 4964 H 455.286 2.69771 7.61741 0
M  V30 4965 H 458.872 1.3511 5.65894 0
M  V30 4966 H 457.752 2.77257 7.33552 0
M  V30 4967 N 455.255 -1.55392 -0.262866 0
M  V30 4968 C 456.202 -1.88966 -1.32516 0
M  V30 4969 C 457.172 -0.742187 -1.48596 0
M  V30 4970 O 458.357 -0.99439 -1.62839 0
M  V30 4971 C 455.497 -2.17592 -2.67858 0
M  V30 4972 C 454.61 -3.45061 -2.59917 0
M  V30 4973 C 453.745 -3.63336 -3.87505 0
M  V30 4974 C 452.784 -4.84462 -3.74116 0
M  V30 4975 N 451.921 -4.99342 -4.93561 0
M  V30 4976 H 456.761 -2.79566 -1.03184 0
M  V30 4977 H 454.298 -1.38404 -0.498285 0
M  V30 4978 H 456.256 -2.3219 -3.46617 0
M  V30 4979 H 454.886 -1.30215 -2.95371 0
M  V30 4980 H 453.938 -3.38881 -1.72812 0
M  V30 4981 H 455.25 -4.3396 -2.45926 0
M  V30 4982 H 454.404 -3.77807 -4.74707 0
M  V30 4983 H 453.143 -2.72641 -4.04374 0
M  V30 4984 H 452.148 -4.69985 -2.85297 0
M  V30 4985 H 453.373 -5.76603 -3.58757 0
M  V30 4986 H 451.319 -4.1158 -5.10821 0
M  V30 4987 H 451.236 -5.82303 -4.82141 0
M  V30 4988 H 452.504 -5.18208 -5.82306 0
M  V30 4989 N 456.733 0.527833 -1.48498 0
M  V30 4990 C 457.979 1.28295 -1.57836 0
M  V30 4991 C 458.334 1.9077 -0.249943 0
M  V30 4992 O 457.627 1.76421 0.747402 0
M  V30 4993 C 457.821 2.39275 -2.65485 0
M  V30 4994 C 457.65 1.87679 -4.08664 0
M  V30 4995 C 456.42 1.70187 -4.75778 0
M  V30 4996 C 458.618 1.40409 -4.94762 0
M  V30 4997 N 456.6 1.13238 -6.03366 0
M  V30 4998 C 457.971 0.954216 -6.12613 0
M  V30 4999 C 460.026 1.28732 -4.8097 0
M  V30 5000 C 458.729 0.39915 -7.18192 0
M  V30 5001 C 460.755 0.746244 -5.86673 0
M  V30 5002 C 460.117 0.306457 -7.03733 0
M  V30 5003 H 456.216 0.460408 -0.632099 0
M  V30 5004 H 458.8 0.594913 -1.85388 0
M  V30 5005 H 456.971 3.05572 -2.3975 0
M  V30 5006 H 458.703 3.06308 -2.64495 0
M  V30 5007 H 455.458 1.93772 -4.32145 0
M  V30 5008 H 455.882 0.867687 -6.71417 0
M  V30 5009 H 460.524 1.61338 -3.90807 0
M  V30 5010 H 458.242 0.0607678 -8.08077 0
M  V30 5011 H 461.828 0.659041 -5.78055 0
M  V30 5012 H 460.708 -0.105708 -7.84129 0
M  V30 5013 N 458.211 1.37122 0.776871 0
M  V30 5014 C 459.46 1.31373 1.53049 0
M  V30 5015 C 459.773 -0.101016 1.95339 0
M  V30 5016 O 460.979 -0.280953 2.70042 0
M  V30 5017 C 459.435 2.30567 2.76346 0
M  V30 5018 C 459.043 3.77543 2.41175 0
M  V30 5019 C 460.787 2.33818 3.54301 0
M  V30 5020 C 458.694 4.68481 3.60943 0
M  V30 5021 H 457.624 0.488234 0.574581 0
M  V30 5022 H 460.275 1.62554 0.851372 0
M  V30 5023 H 458.657 1.92396 3.46121 0
M  V30 5024 H 459.831 4.24521 1.79216 0
M  V30 5025 H 458.146 3.77187 1.76405 0
M  V30 5026 H 460.743 2.98965 4.4331 0
M  V30 5027 H 461.086 1.3503 3.93793 0
M  V30 5028 H 461.619 2.7067 2.91518 0
M  V30 5029 H 458.358 5.68378 3.26537 0
M  V30 5030 H 457.878 4.2621 4.22025 0
M  V30 5031 H 459.557 4.85366 4.27819 0
M  V30 5032 N 459.689 -1.00246 1.21608 0
M  V30 5033 C 460.639 -2.07492 0.945051 0
M  V30 5034 C 461.623 -1.60585 -0.100675 0
M  V30 5035 O 462.815 -1.76667 0.10859 0
M  V30 5036 C 459.944 -3.39425 0.514342 0
M  V30 5037 C 459.03 -3.92993 1.59428 0
M  V30 5038 N 459.421 -4.19898 2.81991 0
M  V30 5039 C 457.719 -4.21297 1.46374 0
M  V30 5040 C 458.42 -4.63297 3.51754 0
M  V30 5041 N 457.396 -4.66421 2.79199 0
M  V30 5042 H 461.198 -2.26222 1.87619 0
M  V30 5043 H 458.712 -1.18339 1.11219 0
M  V30 5044 H 460.709 -4.15808 0.301527 0
M  V30 5045 H 459.369 -3.22101 -0.410008 0
M  V30 5046 H 460.38 -4.08377 3.1851 0
M  V30 5047 H 457.057 -4.13095 0.604863 0
M  V30 5048 H 458.447 -4.92816 4.56708 0
M  V30 5049 N 461.167 -1.02423 -1.1978 0
M  V30 5050 C 462.077 -0.610919 -2.26506 0
M  V30 5051 C 463.093 0.355152 -1.70337 0
M  V30 5052 O 464.269 0.214195 -2.00258 0
M  V30 5053 C 461.334 0.0365921 -3.46681 0
M  V30 5054 C 460.395 -0.976389 -4.18049 0
M  V30 5055 C 459.628 -0.359683 -5.32487 0
M  V30 5056 O 459.851 0.838601 -5.64202 0
M  V30 5057 O 458.785 -1.08022 -5.92127 0
M  V30 5058 H 462.611 -1.49965 -2.64091 0
M  V30 5059 H 460.196 -0.794156 -1.26545 0
M  V30 5060 H 462.078 0.39786 -4.19518 0
M  V30 5061 H 460.753 0.899398 -3.10954 0
M  V30 5062 H 459.66 -1.38916 -3.47352 0
M  V30 5063 H 460.993 -1.80941 -4.57735 0
M  V30 5064 N 462.645 1.35699 -0.801477 0
M  V30 5065 C 464.056 1.81415 -0.441073 0
M  V30 5066 C 464.407 1.66595 1.03636 0
M  V30 5067 O 463.532 1.19369 1.80499 0
M  V30 5068 C 464.127 3.29369 -0.793819 0
M  V30 5069 C 462.686 3.73248 -0.486083 0
M  V30 5070 C 461.833 2.57775 -1.02213 0
M  V30 5071 H 464.784 1.23749 -0.993572 0
M  V30 5072 H 464.805 3.80395 -0.0894158 0
M  V30 5073 H 464.317 3.40123 -1.86917 0
M  V30 5074 H 462.418 3.68046 0.580735 0
M  V30 5075 H 462.531 4.68222 -1.01513 0
M  V30 5076 H 460.895 2.50788 -0.444712 0
M  V30 5077 H 461.678 2.71309 -2.10348 0
M  V30 5078 N 464.123 0.554532 1.47522 0
M  V30 5079 C 465.07 -0.19466 2.29978 0
M  V30 5080 C 466.04 -0.910882 1.38896 0
M  V30 5081 O 467.225 -0.907102 1.67858 0
M  V30 5082 C 464.365 -1.22035 3.22802 0
M  V30 5083 C 463.478 -0.510474 4.28973 0
M  V30 5084 C 462.613 -1.52123 5.08952 0
M  V30 5085 C 461.652 -0.796173 6.069 0
M  V30 5086 N 460.789 -1.75363 6.79847 0
M  V30 5087 H 465.629 0.51461 2.93523 0
M  V30 5088 H 463.166 0.265607 1.44682 0
M  V30 5089 H 465.124 -1.8276 3.7504 0
M  V30 5090 H 463.754 -1.89769 2.61127 0
M  V30 5091 H 462.806 0.211234 3.79813 0
M  V30 5092 H 464.118 0.0576503 4.98767 0
M  V30 5093 H 463.272 -2.20207 5.65326 0
M  V30 5094 H 462.011 -2.12327 4.39054 0
M  V30 5095 H 461.016 -0.101388 5.49707 0
M  V30 5096 H 462.241 -0.199911 6.78806 0
M  V30 5097 H 460.187 -2.3443 6.12682 0
M  V30 5098 H 460.104 -1.23759 7.45801 0
M  V30 5099 H 461.372 -2.4257 7.40797 0
M  V30 5100 N 465.601 -1.54893 0.290851 0
M  V30 5101 C 466.849 -1.99538 -0.320756 0
M  V30 5102 C 467.17 -1.18075 -1.55188 0
M  V30 5103 O 466.44 -0.274162 -1.93972 0
M  V30 5104 H 465.02 -0.737052 -0.121507 0
M  V30 5105 H 467.682 -1.90755 0.399832 0
M  V30 5106 H 466.778 -3.06282 -0.599802 0
M  V30 5107 N 467.08 -0.0183926 -1.57589 0
M  V30 5108 C 468.31 0.67207 -1.95363 0
M  V30 5109 C 468.718 1.66807 -0.892872 0
M  V30 5110 O 468.061 1.83204 0.134958 0
M  V30 5111 C 468.123 1.44397 -3.29226 0
M  V30 5112 C 467.787 0.607511 -4.52944 0
M  V30 5113 C 468.784 -0.112657 -5.19778 0
M  V30 5114 C 466.469 0.548068 -4.99301 0
M  V30 5115 C 468.463 -0.881057 -6.31281 0
M  V30 5116 C 466.15 -0.224044 -6.10689 0
M  V30 5117 C 467.148 -0.937323 -6.76538 0
M  V30 5118 O 466.836 -1.6968 -7.85789 0
M  V30 5119 H 466.568 0.190925 -0.648478 0
M  V30 5120 H 469.122 -0.0711994 -2.05277 0
M  V30 5121 H 467.352 2.23214 -3.15773 0
M  V30 5122 H 469.041 2.02152 -3.51979 0
M  V30 5123 H 469.807 -0.0759998 -4.8494 0
M  V30 5124 H 465.686 1.09281 -4.4786 0
M  V30 5125 H 469.23 -1.43832 -6.82611 0
M  V30 5126 H 465.127 -0.262457 -6.44966 0
M  V30 5127 H 465.895 -1.61544 -8.024 0
M  V30 5128 N 468.558 1.5553 0.254621 0
M  V30 5129 C 469.508 1.86057 1.31783 0
M  V30 5130 C 470.492 0.720827 1.4385 0
M  V30 5131 O 471.684 0.982586 1.47222 0
M  V30 5132 C 468.813 2.15203 2.67475 0
M  V30 5133 C 467.899 3.35484 2.59444 0
M  V30 5134 N 468.29 4.54945 2.2104 0
M  V30 5135 C 466.588 3.38441 2.90472 0
M  V30 5136 C 467.289 5.3707 2.23453 0
M  V30 5137 N 466.265 4.75936 2.62652 0
M  V30 5138 H 470.067 2.75953 1.01129 0
M  V30 5139 H 467.581 1.55653 0.463255 0
M  V30 5140 H 469.578 2.35235 3.44195 0
M  V30 5141 H 468.238 1.26601 2.99002 0
M  V30 5142 H 469.249 4.8071 1.92712 0
M  V30 5143 H 465.926 2.60087 3.2659 0
M  V30 5144 H 467.316 6.42626 1.96166 0
M  V30 5145 N 470.036 -0.519951 1.48776 0
M  V30 5146 C 470.999 -1.60574 1.6355 0
M  V30 5147 C 471.999 -1.52557 0.508234 0
M  V30 5148 O 473.189 -1.56047 0.774262 0
M  V30 5149 C 470.321 -3.00211 1.61512 0
M  V30 5150 H 471.514 -1.4881 2.60376 0
M  V30 5151 H 469.067 -0.742772 1.37523 0
M  V30 5152 H 469.802 -3.17471 0.662009 0
M  V30 5153 H 469.587 -3.07439 2.43359 0
M  V30 5154 H 471.077 -3.79134 1.75064 0
M  V30 5155 N 471.514 -1.37532 -0.769588 0
M  V30 5156 C 472.462 -1.33561 -1.90432 0
M  V30 5157 C 473.456 -0.224027 -1.67912 0
M  V30 5158 O 474.662 -0.392174 -1.75676 0
M  V30 5159 H 471.037 -0.416279 -0.626271 0
M  V30 5160 H 473.008 -2.29348 -1.90899 0
M  V30 5161 C 471.757 -1.16162 -3.27722 0
M  V30 5162 H 471.08 -2.00951 -3.45628 0
M  V30 5163 H 472.52 -1.17434 -4.07413 0
M  V30 5164 C 470.979 0.132583 -3.36639 0
M  V30 5165 O 471.509 1.11539 -3.85904 0
M  V30 5166 N 469.715 0.184013 -2.90017 0
M  V30 5167 H 469.262 -0.616415 -2.50116 0
M  V30 5168 H 469.22 1.04956 -2.96364 0
M  V30 5169 N 472.992 0.995999 -1.22138 0
M  V30 5170 C 474.239 1.7351 -1.04406 0
M  V30 5171 C 474.567 1.89884 0.421244 0
M  V30 5172 O 473.822 1.43683 1.32867 0
M  V30 5173 C 474.121 3.14553 -1.6968 0
M  V30 5174 C 473.787 3.18102 -3.19565 0
M  V30 5175 C 472.449 3.18778 -3.60464 0
M  V30 5176 C 474.801 3.14636 -4.15516 0
M  V30 5177 C 472.129 3.13684 -4.95801 0
M  V30 5178 C 474.481 3.11084 -5.50826 0
M  V30 5179 C 473.145 3.10074 -5.91109 0
M  V30 5180 H 472.415 0.634916 -0.38205 0
M  V30 5181 H 475.062 1.1667 -1.51857 0
M  V30 5182 H 473.367 3.74682 -1.14546 0
M  V30 5183 H 475.064 3.70477 -1.53454 0
M  V30 5184 H 471.654 3.18324 -2.86998 0
M  V30 5185 H 475.838 3.13266 -3.84939 0
M  V30 5186 H 471.094 3.11245 -5.26247 0
M  V30 5187 H 475.268 3.07357 -6.24904 0
M  V30 5188 H 472.895 3.05882 -6.95946 0
M  V30 5189 N 474.47 1.03057 1.19235 0
M  V30 5190 C 475.71 0.736757 1.9066 0
M  V30 5191 C 476.074 -0.721521 1.77927 0
M  V30 5192 O 477.275 -1.12849 2.43964 0
M  V30 5193 C 475.546 1.17755 3.37444 0
M  V30 5194 S 477.105 1.00783 4.27069 0
M  V30 5195 H 473.923 0.268174 0.658486 0
M  V30 5196 H 476.525 1.32076 1.4414 0
M  V30 5197 H 475.229 2.23448 3.44237 0
M  V30 5198 H 474.76 0.586912 3.88997 0
M  V30 5199 H 476.775 -0.0806356 4.96134 0
M  V30 5200 N 475.948 -1.35272 0.808662 0
M  V30 5201 C 476.878 -2.32315 0.234981 0
M  V30 5202 C 477.859 -1.57572 -0.64071 0
M  V30 5203 O 479.044 -1.8563 -0.570551 0
M  V30 5204 C 476.174 -3.41801 -0.615601 0
M  V30 5205 C 475.128 -4.27694 0.161767 0
M  V30 5206 C 474.454 -5.28519 -0.810649 0
M  V30 5207 C 475.754 -5.04231 1.36193 0
M  V30 5208 H 477.448 -2.80543 1.04575 0
M  V30 5209 H 474.994 -1.3488 0.504315 0
M  V30 5210 H 476.947 -4.08693 -1.02702 0
M  V30 5211 H 475.671 -2.92186 -1.45928 0
M  V30 5212 H 474.33 -3.62384 0.554382 0
M  V30 5213 H 473.978 -4.75171 -1.64988 0
M  V30 5214 H 473.678 -5.8686 -0.294822 0
M  V30 5215 H 475.202 -5.98283 -1.22023 0
M  V30 5216 H 476.616 -5.64058 1.02528 0
M  V30 5217 H 475.013 -5.72077 1.81239 0
M  V30 5218 H 476.083 -4.34753 2.14751 0
M  V30 5219 N 477.426 -0.562348 -1.47226 0
M  V30 5220 C 478.674 -0.0401371 -2.0206 0
M  V30 5221 C 478.995 1.3165 -1.43852 0
M  V30 5222 O 478.265 1.85976 -0.615599 0
M  V30 5223 H 476.845 -0.0118479 -0.746906 0
M  V30 5224 H 479.507 -0.73352 -1.8057 0
M  V30 5225 H 478.603 0.0441254 -3.12069 0
M  V30 5226 N 478.904 1.54736 -0.299062 0
M  V30 5227 C 480.315 1.8569 0.193971 0
M  V30 5228 C 480.666 1.22101 1.53577 0
M  V30 5229 O 479.791 0.51799 2.10109 0
M  V30 5230 C 480.386 3.36895 0.358733 0
M  V30 5231 C 478.945 3.67887 0.795986 0
M  V30 5232 C 478.092 2.77131 -0.096807 0
M  V30 5233 H 481.043 1.49934 -0.520134 0
M  V30 5234 H 481.064 3.61294 1.19361 0
M  V30 5235 H 480.576 3.83148 -0.617998 0
M  V30 5236 H 478.677 3.27151 1.78334 0
M  V30 5237 H 478.79 4.75114 0.616718 0
M  V30 5238 H 477.154 2.51153 0.423581 0
M  V30 5239 H 477.937 3.26204 -1.06986 0
M  V30 5240 N 480.382 0.0267497 1.57577 0
M  V30 5241 C 481.622 -0.65659 1.93567 0
M  V30 5242 C 481.986 -1.69429 0.903213 0
M  V30 5243 O 483.187 -2.42994 1.14923 0
M  V30 5244 C 481.458 -1.25912 3.34486 0
M  V30 5245 S 483.017 -1.96386 3.924 0
M  V30 5246 H 479.835 -0.216237 0.67732 0
M  V30 5247 H 482.437 0.0898475 1.95293 0
M  V30 5248 H 481.141 -0.491405 4.07447 0
M  V30 5249 H 480.672 -2.04291 3.36198 0
M  V30 5250 H 482.687 -3.24202 3.75643 0
M  V30 5251 N 481.861 -1.55662 -0.24637 0
M  V30 5252 C 483.272 -1.67953 -0.81539 0
M  V30 5253 C 483.623 -0.624302 -1.86002 0
M  V30 5254 O 482.748 0.229328 -2.15181 0
M  V30 5255 C 483.343 -3.04484 -1.48576 0
M  V30 5256 C 481.902 -3.18713 -2.00248 0
M  V30 5257 C 481.049 -2.6383 -0.853766 0
M  V30 5258 H 484 -1.58685 -0.0221692 0
M  V30 5259 H 484.021 -2.98959 -2.3538 0
M  V30 5260 H 483.533 -3.81264 -0.725222 0
M  V30 5261 H 481.634 -2.46757 -2.79181 0
M  V30 5262 H 481.747 -4.25628 -2.1995 0
M  V30 5263 H 480.111 -2.21667 -1.25442 0
M  V30 5264 H 480.894 -3.43135 -0.106302 0
M  V30 5265 N 483.339 0.512053 -1.4905 0
M  V30 5266 C 484.569 1.28928 -1.61434 0
M  V30 5267 C 484.977 1.87107 -0.280647 0
M  V30 5268 O 484.32 1.68024 0.742537 0
M  V30 5269 C 484.382 2.466 -2.61588 0
M  V30 5270 C 484.046 2.09375 -4.06216 0
M  V30 5271 C 485.043 1.63994 -4.93358 0
M  V30 5272 C 482.728 2.19348 -4.51876 0
M  V30 5273 C 484.722 1.29076 -6.24194 0
M  V30 5274 C 482.409 1.84041 -5.82728 0
M  V30 5275 C 483.407 1.38978 -6.68711 0
M  V30 5276 O 483.095 1.04144 -7.97126 0
M  V30 5277 H 482.827 0.397668 -0.546659 0
M  V30 5278 H 485.381 0.622507 -1.9574 0
M  V30 5279 H 483.611 3.16318 -2.22441 0
M  V30 5280 H 485.3 3.08642 -2.63619 0
M  V30 5281 H 486.066 1.55744 -4.59313 0
M  V30 5282 H 481.945 2.53376 -3.85125 0
M  V30 5283 H 485.489 0.938303 -6.91261 0
M  V30 5284 H 481.386 1.91938 -6.16304 0
M  V30 5285 H 482.154 1.17387 -8.10039 0
M  V30 5286 N 484.817 1.37938 0.762283 0
M  V30 5287 C 486.066 1.32989 1.51647 0
M  V30 5288 C 486.379 -0.0802922 1.95435 0
M  V30 5289 O 487.585 -0.252295 2.70325 0
M  V30 5290 C 486.041 2.33485 2.73885 0
M  V30 5291 C 485.649 3.80079 2.37157 0
M  V30 5292 C 487.393 2.37563 3.51801 0
M  V30 5293 C 485.3 4.72283 3.55954 0
M  V30 5294 H 484.23 0.494301 0.56937 0
M  V30 5295 H 486.881 1.63448 0.834083 0
M  V30 5296 H 485.263 1.96056 3.44061 0
M  V30 5297 H 486.437 4.26398 1.74704 0
M  V30 5298 H 484.752 3.79037 1.72395 0
M  V30 5299 H 487.349 3.0365 4.40114 0
M  V30 5300 H 487.692 1.39199 3.92338 0
M  V30 5301 H 488.225 2.73747 2.8863 0
M  V30 5302 H 484.964 5.7181 3.2049 0
M  V30 5303 H 484.484 4.30663 4.1748 0
M  V30 5304 H 486.163 4.89876 4.22647 0
M  V30 5305 N 486.295 -0.989507 1.22664 0
M  V30 5306 C 487.541 -1.73298 1.06487 0
M  V30 5307 C 487.896 -1.88292 -0.395438 0
M  V30 5308 O 487.189 -1.41748 -1.28911 0
M  V30 5309 C 487.383 -3.13649 1.71345 0
M  V30 5310 C 487.212 -3.12341 3.23532 0
M  V30 5311 C 485.982 -3.18044 3.92653 0
M  V30 5312 C 488.18 -2.96226 4.20422 0
M  V30 5313 N 486.162 -3.06526 5.31898 0
M  V30 5314 C 487.533 -2.92773 5.4652 0
M  V30 5315 C 489.588 -2.80642 4.11271 0
M  V30 5316 C 488.291 -2.75332 6.64519 0
M  V30 5317 C 490.317 -2.64563 5.28924 0
M  V30 5318 C 489.679 -2.618 6.53942 0
M  V30 5319 H 485.778 -0.643643 0.444126 0
M  V30 5320 H 488.362 -1.17489 1.55256 0
M  V30 5321 H 486.533 -3.67694 1.25122 0
M  V30 5322 H 488.265 -3.76577 1.48229 0
M  V30 5323 H 485.02 -3.25861 3.43673 0
M  V30 5324 H 485.444 -3.04067 6.04874 0
M  V30 5325 H 490.086 -2.81574 3.15398 0
M  V30 5326 H 487.804 -2.73145 7.60538 0
M  V30 5327 H 491.39 -2.53482 5.23677 0
M  V30 5328 H 490.27 -2.49511 7.43447 0
M  V30 5329 N 487.773 -1.03688 -1.18687 0
M  V30 5330 C 488.998 -0.757819 -1.93059 0
M  V30 5331 C 489.423 0.678353 -1.75442 0
M  V30 5332 O 488.781 1.46938 -1.06203 0
M  V30 5333 C 488.829 -1.12423 -3.42627 0
M  V30 5334 O 487.933 -0.247505 -4.11657 0
M  V30 5335 H 487.274 -0.279245 -0.602427 0
M  V30 5336 H 489.804 -1.3857 -1.5053 0
M  V30 5337 H 489.814 -1.08454 -3.93322 0
M  V30 5338 H 488.489 -2.17049 -3.54771 0
M  V30 5339 H 487.066 -0.34649 -3.71287 0
M  V30 5340 N 489.251 1.34841 -0.815825 0
M  V30 5341 C 490.181 2.32187 -0.247298 0
M  V30 5342 C 491.162 1.5791 0.632344 0
M  V30 5343 O 492.347 1.8593 0.560698 0
M  V30 5344 C 489.477 3.42122 0.597466 0
M  V30 5345 C 488.431 4.27602 -0.184446 0
M  V30 5346 C 487.757 5.28942 0.782609 0
M  V30 5347 C 489.057 5.03502 -1.38865 0
M  V30 5348 H 490.751 2.79985 -1.06061 0
M  V30 5349 H 488.297 1.34611 -0.511461 0
M  V30 5350 H 490.25 4.09232 1.00533 0
M  V30 5351 H 488.974 2.92956 1.44376 0
M  V30 5352 H 487.633 3.62085 -0.573592 0
M  V30 5353 H 487.281 4.7604 1.62466 0
M  V30 5354 H 486.981 5.87008 0.263695 0
M  V30 5355 H 488.505 5.98922 1.18848 0
M  V30 5356 H 489.919 5.63506 -1.05518 0
M  V30 5357 H 488.316 5.71108 -1.8427 0
M  V30 5358 H 489.386 4.33608 -2.17054 0
M  V30 5359 N 490.729 0.570148 1.46925 0
M  V30 5360 C 492.006 -0.0153259 1.95594 0
M  V30 5361 C 492.386 -1.47232 1.51281 0
M  V30 5362 O 491.734 -2.15574 0.757624 0
M  V30 5363 C 491.944 0.143624 3.48704 0
M  V30 5364 C 493.292 0.00494484 4.246 0
M  V30 5365 O 494.316 0.0718214 3.56128 0
M  V30 5366 O 493.175 -0.141175 5.46318 0
M  V30 5367 H 490.269 -0.0568819 0.825041 0
M  V30 5368 H 492.815 0.637583 1.57267 0
M  V30 5369 H 491.587 1.15699 3.73804 0
M  V30 5370 H 491.21 -0.5463 3.93829 0
M  V30 5371 N 492.207 -1.54576 0.307264 0
M  V30 5372 C 493.435 -2.04675 -0.302597 0
M  V30 5373 C 493.85 -1.18425 -1.47041 0
M  V30 5374 O 493.207 -0.211257 -1.81273 0
M  V30 5375 C 493.258 -3.53575 -0.752801 0
M  V30 5376 O 492.979 -4.36547 0.368536 0
M  V30 5377 C 494.48 -4.19699 -1.42717 0
M  V30 5378 H 491.7 -0.66786 -0.0648374 0
M  V30 5379 H 494.244 -1.99516 0.448716 0
M  V30 5380 H 492.399 -3.59074 -1.45412 0
M  V30 5381 H 492.813 -5.24497 0.0168937 0
M  V30 5382 H 494.287 -5.25388 -1.69327 0
M  V30 5383 H 494.764 -3.69815 -2.36925 0
M  V30 5384 H 495.37 -4.18293 -0.768856 0
M  V30 5385 N 493.685 -0.035106 -1.57561 0
M  V30 5386 C 494.617 0.973604 -2.07494 0
M  V30 5387 C 495.63 1.28504 -0.999534 0
M  V30 5388 O 496.819 1.24864 -1.27559 0
M  V30 5389 C 493.919 2.29945 -2.48955 0
M  V30 5390 C 493.092 2.1723 -3.79644 0
M  V30 5391 C 492.151 3.328 -4.07592 0
M  V30 5392 O 491.177 3.09418 -4.77754 0
M  V30 5393 N 492.379 4.56779 -3.58236 0
M  V30 5394 H 495.144 0.547525 -2.94656 0
M  V30 5395 H 492.705 0.151515 -1.61189 0
M  V30 5396 H 494.697 3.06097 -2.64739 0
M  V30 5397 H 493.267 2.64173 -1.67126 0
M  V30 5398 H 492.487 1.25768 -3.73599 0
M  V30 5399 H 493.775 2.05945 -4.65257 0
M  V30 5400 H 493.173 4.78668 -3.01485 0
M  V30 5401 H 491.73 5.30079 -3.79288 0
M  V30 5402 N 495.163 1.55791 0.238111 0
M  V30 5403 C 496.393 1.81834 0.980809 0
M  V30 5404 C 496.801 0.609741 1.79106 0
M  V30 5405 O 496.144 -0.431073 1.78571 0
M  V30 5406 C 496.206 3.01363 1.96011 0
M  V30 5407 C 495.87 4.37037 1.33597 0
M  V30 5408 C 496.867 5.14692 0.734063 0
M  V30 5409 C 494.552 4.83743 1.3527 0
M  V30 5410 C 496.546 6.37206 0.157208 0
M  V30 5411 C 494.233 6.06204 0.77199 0
M  V30 5412 C 495.231 6.82775 0.175282 0
M  V30 5413 O 494.919 8.02922 -0.396432 0
M  V30 5414 H 494.651 0.6088 0.293834 0
M  V30 5415 H 497.205 2.03702 0.263552 0
M  V30 5416 H 495.435 2.75273 2.71591 0
M  V30 5417 H 497.124 3.14422 2.56697 0
M  V30 5418 H 497.89 4.79722 0.713582 0
M  V30 5419 H 493.769 4.24129 1.80653 0
M  V30 5420 H 497.313 6.96915 -0.30917 0
M  V30 5421 H 493.21 6.4065 0.789828 0
M  V30 5422 H 493.978 8.17989 -0.289145 0
M  V30 5423 N 496.642 -0.504142 1.49319 0
M  V30 5424 C 497.867 -1.28729 1.62615 0
M  V30 5425 C 498.292 -1.85752 0.296309 0
M  V30 5426 O 497.65 -1.65704 -0.735649 0
M  V30 5427 C 497.698 -2.39561 2.69524 0
M  V30 5428 O 496.802 -3.43324 2.28478 0
M  V30 5429 H 496.143 -0.380172 0.544395 0
M  V30 5430 H 498.673 -0.603872 1.95485 0
M  V30 5431 H 498.683 -2.8537 2.91595 0
M  V30 5432 H 497.358 -1.97423 3.66056 0
M  V30 5433 H 495.935 -3.03455 2.16725 0
M  V30 5434 N 498.12 -1.38341 -0.754957 0
M  V30 5435 C 499.067 -1.3546 -1.86867 0
M  V30 5436 C 500.037 -0.217369 -1.64672 0
M  V30 5437 O 501.222 -0.409383 -1.86356 0
M  V30 5438 C 498.362 -1.18413 -3.24149 0
M  V30 5439 C 497.475 -2.41511 -3.58185 0
M  V30 5440 C 496.61 -2.17205 -4.84763 0
M  V30 5441 C 495.649 -3.36081 -5.11582 0
M  V30 5442 N 494.786 -3.11219 -6.29354 0
M  V30 5443 H 499.626 -2.30672 -1.88664 0
M  V30 5444 H 497.163 -1.14607 -0.922154 0
M  V30 5445 H 499.121 -1.06545 -4.03366 0
M  V30 5446 H 497.751 -0.268397 -3.21682 0
M  V30 5447 H 496.803 -2.64056 -2.73822 0
M  V30 5448 H 498.115 -3.30115 -3.73932 0
M  V30 5449 H 497.269 -2.02465 -5.7192 0
M  V30 5450 H 496.008 -1.25964 -4.71152 0
M  V30 5451 H 495.013 -3.51341 -4.22894 0
M  V30 5452 H 496.238 -4.28196 -5.27091 0
M  V30 5453 H 494.184 -2.22624 -6.17069 0
M  V30 5454 H 494.101 -3.93373 -6.45596 0
M  V30 5455 H 495.369 -3.00132 -7.19403 0
M  V30 5456 N 499.598 0.982988 -1.23187 0
M  V30 5457 C 500.844 1.72648 -1.06398 0
M  V30 5458 C 501.177 1.90066 0.398561 0
M  V30 5459 O 500.452 1.45105 1.29518 0
M  V30 5460 C 500.735 3.12627 -1.78707 0
M  V30 5461 C 500.588 3.02795 -3.32618 0
M  V30 5462 C 501.907 4.11997 -1.54747 0
M  V30 5463 H 499.026 0.626649 -0.387918 0
M  V30 5464 H 501.668 1.14455 -1.51658 0
M  V30 5465 H 499.818 3.62308 -1.40234 0
M  V30 5466 H 501.49 2.60659 -3.80598 0
M  V30 5467 H 499.733 2.39362 -3.61785 0
M  V30 5468 H 500.404 4.01893 -3.78399 0
M  V30 5469 H 502.88 3.71114 -1.88186 0
M  V30 5470 H 501.756 5.08037 -2.07821 0
M  V30 5471 H 502.017 4.39462 -0.482249 0
M  V30 5472 N 501.076 1.04316 1.18135 0
M  V30 5473 C 502.006 0.657299 2.24058 0
M  V30 5474 C 502.987 -0.340678 1.66654 0
M  V30 5475 O 504.172 -0.220223 1.92947 0
M  V30 5476 C 501.302 0.0220715 3.47293 0
M  V30 5477 C 500.256 0.943857 4.17463 0
M  V30 5478 C 499.582 0.172973 5.3442 0
M  V30 5479 C 500.882 2.26409 4.70677 0
M  V30 5480 H 502.576 1.5428 2.56589 0
M  V30 5481 H 500.122 0.743263 1.23335 0
M  V30 5482 H 502.075 -0.259607 4.206 0
M  V30 5483 H 500.799 -0.898323 3.14003 0
M  V30 5484 H 499.458 1.20996 3.46057 0
M  V30 5485 H 499.106 -0.749907 4.97379 0
M  V30 5486 H 498.806 0.787098 5.82304 0
M  V30 5487 H 500.33 -0.101628 6.10515 0
M  V30 5488 H 501.744 2.04294 5.35665 0
M  V30 5489 H 500.141 2.8314 5.29105 0
M  V30 5490 H 501.211 2.90883 3.87962 0
M  V30 5491 N 502.554 -1.34406 0.822964 0
M  V30 5492 C 503.517 -2.2783 0.250271 0
M  V30 5493 C 504.517 -1.50288 -0.571854 0
M  V30 5494 O 505.707 -1.69825 -0.387952 0
M  V30 5495 C 502.839 -3.34663 -0.649137 0
M  V30 5496 H 504.032 -2.79992 1.07444 0
M  V30 5497 H 501.585 -1.44539 0.594829 0
M  V30 5498 H 502.32 -2.87714 -1.49637 0
M  V30 5499 H 502.105 -3.92052 -0.0611199 0
M  V30 5500 H 503.595 -4.04349 -1.04363 0
M  V30 5501 N 504.032 -0.577932 -1.46621 0
M  V30 5502 C 504.962 0.145917 -2.33044 0
M  V30 5503 C 505.943 0.888412 -1.45056 0
M  V30 5504 O 507.128 0.864812 -1.73881 0
M  V30 5505 C 504.258 1.16322 -3.27241 0
M  V30 5506 C 503.212 0.535868 -4.24632 0
M  V30 5507 C 502.538 1.65929 -5.08303 0
M  V30 5508 C 503.838 -0.523861 -5.19666 0
M  V30 5509 H 505.532 -0.575636 -2.93814 0
M  V30 5510 H 503.078 -0.278272 -1.41286 0
M  V30 5511 H 505.031 1.67793 -3.86553 0
M  V30 5512 H 503.755 1.91498 -2.64567 0
M  V30 5513 H 502.414 0.0422759 -3.66576 0
M  V30 5514 H 502.062 2.40061 -4.42018 0
M  V30 5515 H 501.762 1.2452 -5.74255 0
M  V30 5516 H 503.286 2.17686 -5.70478 0
M  V30 5517 H 504.7 -0.0944059 -5.73222 0
M  V30 5518 H 503.097 -0.858 -5.93935 0
M  V30 5519 H 504.167 -1.41197 -4.63887 0
M  V30 5520 N 505.51 1.54411 -0.315457 0
M  V30 5521 C 506.74 2.04536 0.291315 0
M  V30 5522 C 507.148 1.19162 1.4696 0
M  V30 5523 O 506.491 0.213199 1.82459 0
M  V30 5524 C 506.553 3.5056 0.796725 0
M  V30 5525 C 506.217 4.5627 -0.258178 0
M  V30 5526 C 507.214 5.08312 -1.09153 0
M  V30 5527 C 504.899 5.00672 -0.404036 0
M  V30 5528 C 506.893 6.03312 -2.05655 0
M  V30 5529 C 504.58 5.95488 -1.37248 0
M  V30 5530 C 505.578 6.46693 -2.19721 0
M  V30 5531 O 505.266 7.39648 -3.14921 0
M  V30 5532 H 504.998 0.672856 0.0651165 0
M  V30 5533 H 507.552 2.00244 -0.457308 0
M  V30 5534 H 505.782 3.52223 1.59612 0
M  V30 5535 H 507.471 3.83804 1.32096 0
M  V30 5536 H 508.237 4.74793 -0.98979 0
M  V30 5537 H 504.116 4.60436 0.22799 0
M  V30 5538 H 507.66 6.43203 -2.70067 0
M  V30 5539 H 503.557 6.28424 -1.47489 0
M  V30 5540 H 504.325 7.57496 -3.10067 0
M  V30 5541 N 506.988 0.0434614 1.5754 0
M  V30 5542 C 507.936 -0.951465 2.1225 0
M  V30 5543 C 508.93 -1.3274 1.05245 0
M  V30 5544 O 510.136 -1.30795 1.23663 0
M  V30 5545 H 506.511 -0.324667 0.678303 0
M  V30 5546 H 508.482 -0.464855 2.94757 0
M  V30 5547 C 507.231 -2.21972 2.67626 0
M  V30 5548 H 506.554 -1.93923 3.4962 0
M  V30 5549 H 507.994 -2.89765 3.09536 0
M  V30 5550 C 506.453 -2.95919 1.61038 0
M  V30 5551 O 506.983 -3.8857 1.01862 0
M  V30 5552 N 505.189 -2.58511 1.32741 0
M  V30 5553 H 504.736 -1.83244 1.81051 0
M  V30 5554 H 504.694 -3.08296 0.616531 0
M  V30 5555 N 508.466 -1.55915 -0.229846 0
M  V30 5556 C 509.398 -1.88209 -1.30805 0
M  V30 5557 C 510.411 -0.769672 -1.43457 0
M  V30 5558 O 511.6 -1.04792 -1.44502 0
M  V30 5559 C 508.7 -2.06829 -2.68468 0
M  V30 5560 C 507.873 -3.37798 -2.77869 0
M  V30 5561 C 506.932 -3.45952 -3.96489 0
M  V30 5562 O 505.958 -4.19043 -3.85216 0
M  V30 5563 N 507.16 -2.76488 -5.10426 0
M  V30 5564 H 509.925 -2.81286 -1.03431 0
M  V30 5565 H 507.486 -1.5636 -0.41991 0
M  V30 5566 H 509.478 -2.09608 -3.46189 0
M  V30 5567 H 508.048 -1.20416 -2.88477 0
M  V30 5568 H 507.268 -3.4719 -1.86689 0
M  V30 5569 H 508.556 -4.24091 -2.81113 0
M  V30 5570 H 507.954 -2.16868 -5.2248 0
M  V30 5571 H 506.511 -2.84938 -5.8622 0
M  V30 5572 N 509.944 0.496216 -1.49584 0
M  V30 5573 C 510.894 1.59422 -1.62999 0
M  V30 5574 C 511.878 1.53402 -0.485457 0
M  V30 5575 O 513.07 1.60851 -0.738649 0
M  V30 5576 C 510.199 2.98009 -1.70427 0
M  V30 5577 C 509.285 3.09008 -2.90473 0
M  V30 5578 N 509.676 2.89884 -4.14489 0
M  V30 5579 C 507.974 3.40115 -2.8851 0
M  V30 5580 C 508.675 3.0519 -4.95211 0
M  V30 5581 N 507.651 3.3428 -4.2867 0
M  V30 5582 H 511.453 1.43297 -2.56599 0
M  V30 5583 H 508.967 0.702443 -1.46422 0
M  V30 5584 H 510.964 3.76926 -1.78136 0
M  V30 5585 H 509.624 3.152 -0.77967 0
M  V30 5586 H 510.635 2.65963 -4.44392 0
M  V30 5587 H 507.312 3.63452 -2.05448 0
M  V30 5588 H 508.702 2.94856 -6.03746 0
M  V30 5589 N 511.423 1.38739 0.74761 0
M  V30 5590 C 512.371 1.36573 1.88283 0
M  V30 5591 C 513.365 0.250712 1.67534 0
M  V30 5592 O 514.571 0.420073 1.7503 0
M  V30 5593 H 510.946 0.42619 0.619569 0
M  V30 5594 H 512.917 2.32356 1.87226 0
M  V30 5595 C 511.666 1.21361 3.25832 0
M  V30 5596 H 510.989 2.06424 3.42388 0
M  V30 5597 H 512.429 1.23901 4.05493 0
M  V30 5598 C 510.888 -0.0790099 3.36807 0
M  V30 5599 O 511.418 -1.05385 3.8763 0
M  V30 5600 N 509.624 -0.13785 2.90273 0
M  V30 5601 H 509.171 0.656128 2.49104 0
M  V30 5602 H 509.129 -1.00228 2.97996 0
M  V30 5603 N 512.901 -0.976442 1.23707 0
M  V30 5604 C 514.312 -1.53284 1.06587 0
M  V30 5605 C 514.663 -1.92765 -0.365526 0
M  V30 5606 O 513.788 -1.7645 -1.25277 0
M  V30 5607 C 514.383 -2.78548 1.92864 0
M  V30 5608 C 512.942 -3.30574 1.79994 0
M  V30 5609 C 512.089 -2.03538 1.88328 0
M  V30 5610 H 515.04 -0.795692 1.37311 0
M  V30 5611 H 515.061 -3.5155 1.45577 0
M  V30 5612 H 514.573 -2.49782 2.97037 0
M  V30 5613 H 512.674 -3.64211 0.786202 0
M  V30 5614 H 512.787 -4.00065 2.636 0
M  V30 5615 H 511.151 -2.17853 1.31954 0
M  V30 5616 H 511.934 -1.77149 2.94063 0
M  V30 5617 N 514.379 -1.04941 -1.1758 0
M  V30 5618 C 515.627 -0.756492 -1.87408 0
M  V30 5619 C 515.948 0.718478 -1.81281 0
M  V30 5620 O 515.218 1.519 -1.23706 0
M  V30 5621 H 513.798 -0.276841 -0.693807 0
M  V30 5622 H 516.46 -1.32803 -1.42652 0
M  V30 5623 H 515.556 -1.06918 -2.93215 0
M  V30 5624 N 515.857 1.33968 -0.830081 0
M  V30 5625 C 516.82 2.27694 -0.26235 0
M  V30 5626 C 517.82 1.50589 0.563876 0
M  V30 5627 O 519.01 1.70028 0.378941 0
M  V30 5628 C 516.142 3.35002 0.63138 0
M  V30 5629 H 517.335 2.79419 -1.08928 0
M  V30 5630 H 514.888 1.44221 -0.602486 0
M  V30 5631 H 515.623 2.88504 1.48109 0
M  V30 5632 H 515.408 3.92079 0.0403276 0
M  V30 5633 H 516.898 4.04897 1.02217 0
M  V30 5634 N 517.335 0.585699 1.46312 0
M  V30 5635 C 518.56 0.0762461 2.0726 0
M  V30 5636 C 518.985 -1.22071 1.43109 0
M  V30 5637 O 518.343 -1.73804 0.515942 0
M  V30 5638 C 518.391 -0.0729404 3.60526 0
M  V30 5639 O 517.495 -1.1287 3.96654 0
M  V30 5640 H 516.836 0.0641558 0.660893 0
M  V30 5641 H 519.366 0.809492 1.87905 0
M  V30 5642 H 519.376 -0.278158 4.07051 0
M  V30 5643 H 518.051 0.874188 4.06609 0
M  V30 5644 H 516.628 -0.901703 3.61834 0
M  V30 5645 N 518.813 -1.54241 0.323641 0
M  V30 5646 C 519.776 -2.22997 -0.529602 0
M  V30 5647 C 520.776 -1.22345 -1.04347 0
M  V30 5648 O 521.966 -1.46924 -0.935889 0
M  V30 5649 C 519.098 -2.93409 -1.73562 0
M  V30 5650 H 520.291 -2.99815 0.0714518 0
M  V30 5651 H 517.844 -1.56121 0.0747258 0
M  V30 5652 H 518.579 -2.20729 -2.37591 0
M  V30 5653 H 518.364 -3.67217 -1.37456 0
M  V30 5654 H 519.854 -3.45794 -2.34128 0
M  V30 5655 N 520.291 -0.0518155 -1.57515 0
M  V30 5656 C 521.254 0.907547 -2.10467 0
M  V30 5657 C 522.254 1.23947 -1.02439 0
M  V30 5658 O 523.444 1.17604 -1.2851 0
M  V30 5659 C 520.576 2.21723 -2.58944 0
M  V30 5660 H 521.769 0.44851 -2.96527 0
M  V30 5661 H 519.322 0.196598 -1.55059 0
M  V30 5662 H 520.057 2.72206 -1.76279 0
M  V30 5663 H 519.842 1.98935 -3.37886 0
M  V30 5664 H 521.332 2.90441 -3.00056 0
M  V30 5665 N 521.769 1.56035 0.221574 0
M  V30 5666 C 523.18 1.69229 0.788567 0
M  V30 5667 C 523.531 0.653814 1.84986 0
M  V30 5668 O 522.656 -0.195065 2.15519 0
M  V30 5669 C 523.251 3.06809 1.43713 0
M  V30 5670 C 521.81 3.21858 1.95152 0
M  V30 5671 C 520.957 2.65155 0.811685 0
M  V30 5672 H 523.908 1.587 -0.00307894 0
M  V30 5673 H 523.929 3.02666 2.30594 0
M  V30 5674 H 523.441 3.82369 0.664475 0
M  V30 5675 H 521.542 2.51167 2.7522 0
M  V30 5676 H 521.655 4.29073 2.1315 0
M  V30 5677 H 520.019 2.23635 1.21899 0
M  V30 5678 H 520.802 3.43261 0.0516987 0
M  V30 5679 N 523.247 -0.488276 1.49845 0
M  V30 5680 C 524.487 -1.2516 1.61599 0
M  V30 5681 C 524.851 -1.89615 0.301706 0
M  V30 5682 O 526.052 -2.67182 0.29453 0
M  V30 5683 C 524.323 -2.2805 2.75187 0
M  V30 5684 S 525.882 -3.13552 3.0697 0
M  V30 5685 H 522.7 -0.425178 0.569864 0
M  V30 5686 H 525.302 -0.551545 1.87559 0
M  V30 5687 H 524.006 -1.7925 3.69185 0
M  V30 5688 H 523.537 -3.02708 2.5126 0
M  V30 5689 H 525.552 -4.28927 2.49471 0
M  V30 5690 N 524.725 -1.39134 -0.740242 0
M  V30 5691 C 525.965 -1.37499 -1.51239 0
M  V30 5692 C 526.329 0.0310084 -1.91975 0
M  V30 5693 O 527.53 0.172319 -2.68247 0
M  V30 5694 C 525.801 -2.31566 -2.72235 0
M  V30 5695 S 527.36 -2.48073 -3.61947 0
M  V30 5696 H 524.178 -0.48768 -0.517387 0
M  V30 5697 H 526.78 -1.75183 -0.867826 0
M  V30 5698 H 525.484 -3.32592 -2.40439 0
M  V30 5699 H 525.015 -1.9508 -3.41625 0
M  V30 5700 H 527.03 -1.71473 -4.6563 0
M  V30 5701 N 526.204 0.969867 -1.24223 0
M  V30 5702 C 527.45 1.7151 -1.08223 0
M  V30 5703 C 527.783 1.90478 0.37838 0
M  V30 5704 O 527.058 1.4647 1.27971 0
M  V30 5705 C 527.341 3.10714 -1.82013 0
M  V30 5706 C 527.194 2.9925 -3.35811 0
M  V30 5707 C 528.513 4.10332 -1.59108 0
M  V30 5708 H 525.632 0.622499 -0.394543 0
M  V30 5709 H 528.274 1.1284 -1.52863 0
M  V30 5710 H 526.424 3.608 -1.44068 0
M  V30 5711 H 528.096 2.56608 -3.83341 0
M  V30 5712 H 526.339 2.35512 -3.64303 0
M  V30 5713 H 527.01 3.97857 -3.82641 0
M  V30 5714 H 529.486 3.69097 -1.92111 0
M  V30 5715 H 528.362 5.05804 -2.13198 0
M  V30 5716 H 528.623 4.38926 -0.528832 0
M  V30 5717 N 527.682 1.05563 1.17022 0
M  V30 5718 C 529.093 0.793475 1.69 0
M  V30 5719 C 529.444 -0.683882 1.83895 0
M  V30 5720 O 528.569 -1.53116 1.5292 0
M  V30 5721 C 529.164 1.43376 3.06967 0
M  V30 5722 C 527.723 1.21956 3.56095 0
M  V30 5723 C 526.87 1.51494 2.3226 0
M  V30 5724 H 529.821 1.22008 1.01487 0
M  V30 5725 H 529.842 0.845068 3.70997 0
M  V30 5726 H 529.354 2.50899 2.96093 0
M  V30 5727 H 527.455 0.163749 3.7224 0
M  V30 5728 H 527.568 1.92713 4.38633 0
M  V30 5729 H 525.932 0.935175 2.3691 0
M  V30 5730 H 526.715 2.60159 2.23992 0
M  V30 5731 N 529.16 -1.33526 0.837174 0
M  V30 5732 C 530.092 -2.28077 0.226579 0
M  V30 5733 C 531.105 -1.51666 -0.591717 0
M  V30 5734 O 532.294 -1.73511 -0.419064 0
M  V30 5735 C 529.394 -3.31597 -0.69978 0
M  V30 5736 C 528.567 -4.37329 0.0788067 0
M  V30 5737 C 527.626 -5.20526 -0.770637 0
M  V30 5738 O 526.652 -5.68811 -0.210453 0
M  V30 5739 N 527.854 -5.41639 -2.08825 0
M  V30 5740 H 530.619 -2.81115 1.03897 0
M  V30 5741 H 528.18 -1.46201 0.695476 0
M  V30 5742 H 530.172 -3.84158 -1.27298 0
M  V30 5743 H 528.742 -2.78848 -1.41288 0
M  V30 5744 H 527.962 -3.8529 0.833381 0
M  V30 5745 H 529.25 -5.05079 0.614238 0
M  V30 5746 H 528.648 -5.04108 -2.56693 0
M  V30 5747 H 527.205 -5.97263 -2.60998 0
M  V30 5748 N 530.638 -0.59345 -1.46 0
M  V30 5749 C 531.601 0.123538 -2.28867 0
M  V30 5750 C 532.601 0.808628 -1.38989 0
M  V30 5751 O 533.791 0.658945 -1.61256 0
M  V30 5752 C 530.923 1.1847 -3.19653 0
M  V30 5753 H 532.116 -0.604843 -2.93737 0
M  V30 5754 H 529.669 -0.351875 -1.52288 0
M  V30 5755 H 530.404 1.94431 -2.59552 0
M  V30 5756 H 530.189 0.69783 -3.8584 0
M  V30 5757 H 531.679 1.68726 -3.81997 0
M  V30 5758 N 532.116 1.54067 -0.331816 0
M  V30 5759 C 533.046 2.27569 0.522932 0
M  V30 5760 C 534.027 1.28679 1.11247 0
M  V30 5761 O 535.212 1.57504 1.13605 0
M  V30 5762 C 532.342 3.0397 1.67987 0
M  V30 5763 C 531.296 4.10267 1.21924 0
M  V30 5764 C 530.622 4.74555 2.46377 0
M  V30 5765 C 531.922 5.21268 0.32815 0
M  V30 5766 H 533.616 2.99264 -0.0901977 0
M  V30 5767 H 531.162 1.4393 -0.044821 0
M  V30 5768 H 533.115 3.54123 2.28418 0
M  V30 5769 H 531.839 2.29906 2.31971 0
M  V30 5770 H 530.498 3.61009 0.637809 0
M  V30 5771 H 530.146 3.97098 3.08743 0
M  V30 5772 H 529.846 5.46363 2.16243 0
M  V30 5773 H 531.37 5.27487 3.07555 0
M  V30 5774 H 532.784 5.67128 0.838978 0
M  V30 5775 H 531.181 5.99982 0.119228 0
M  V30 5776 H 532.251 4.80673 -0.638839 0
M  V30 5777 N 533.594 0.0601682 1.57485 0
M  V30 5778 C 534.504 -0.926121 2.15546 0
M  V30 5779 C 535.52 -1.33532 1.11558 0
M  V30 5780 O 536.696 -1.4104 1.4377 0
M  V30 5781 C 533.761 -2.17952 2.69625 0
M  V30 5782 C 532.822 -1.82783 3.88444 0
M  V30 5783 C 532.055 -3.02148 4.39935 0
M  V30 5784 O 532.278 -4.15803 3.90466 0
M  V30 5785 O 531.212 -2.82639 5.31412 0
M  V30 5786 H 535.038 -0.462289 3.00161 0
M  V30 5787 H 532.623 -0.162246 1.48516 0
M  V30 5788 H 534.505 -2.91474 3.04337 0
M  V30 5789 H 533.18 -2.63456 1.88077 0
M  V30 5790 H 532.087 -1.06549 3.58606 0
M  V30 5791 H 533.42 -1.42072 4.7125 0
M  V30 5792 N 535.072 -1.5615 -0.213296 0
M  V30 5793 C 536.483 -1.69645 -0.779582 0
M  V30 5794 C 536.834 -0.663615 -1.84636 0
M  V30 5795 O 535.959 0.183633 -2.15619 0
M  V30 5796 C 536.554 -3.07567 -1.42084 0
M  V30 5797 C 535.113 -3.22889 -1.93442 0
M  V30 5798 C 534.26 -2.65581 -0.797612 0
M  V30 5799 H 537.211 -1.58696 0.0114951 0
M  V30 5800 H 537.232 -3.03884 -2.28986 0
M  V30 5801 H 536.744 -3.82716 -0.644187 0
M  V30 5802 H 534.845 -2.52623 -2.73884 0
M  V30 5803 H 534.958 -4.30197 -2.10872 0
M  V30 5804 H 533.322 -2.24278 -1.20712 0
M  V30 5805 H 534.105 -3.43284 -0.033494 0
M  V30 5806 N 536.55 0.480323 -1.50102 0
M  V30 5807 C 537.48 1.58769 -1.71215 0
M  V30 5808 C 538.461 1.60583 -0.560997 0
M  V30 5809 O 539.646 1.76996 -0.799127 0
M  V30 5810 C 536.776 2.97148 -1.79778 0
M  V30 5811 C 535.73 3.10201 -2.94888 0
M  V30 5812 C 535.056 4.50137 -2.88584 0
M  V30 5813 C 536.356 2.88283 -4.35534 0
M  V30 5814 H 538.05 1.41354 -2.6393 0
M  V30 5815 H 535.596 0.678591 -1.27008 0
M  V30 5816 H 537.549 3.74536 -1.93133 0
M  V30 5817 H 536.273 3.15699 -0.836772 0
M  V30 5818 H 534.932 2.35244 -2.81169 0
M  V30 5819 H 534.58 4.65593 -1.90349 0
M  V30 5820 H 534.28 4.59808 -3.65856 0
M  V30 5821 H 535.804 5.29558 -3.03976 0
M  V30 5822 H 537.218 3.55427 -4.49827 0
M  V30 5823 H 535.615 3.09408 -5.14186 0
M  V30 5824 H 536.685 1.84219 -4.48544 0
M  V30 5825 N 538.028 1.39524 0.732853 0
M  V30 5826 C 539.439 1.32905 1.31122 0
M  V30 5827 C 539.79 -0.00558708 1.96199 0
M  V30 5828 O 538.915 -0.907706 1.96443 0
M  V30 5829 C 539.51 2.40704 2.38426 0
M  V30 5830 C 538.069 2.37599 2.91931 0
M  V30 5831 C 537.216 2.2248 1.65523 0
M  V30 5832 H 540.167 1.49581 0.530207 0
M  V30 5833 H 540.188 2.07616 3.18867 0
M  V30 5834 H 539.7 3.37829 1.91033 0
M  V30 5835 H 537.801 1.44119 3.43599 0
M  V30 5836 H 537.914 3.32538 3.44899 0
M  V30 5837 H 536.278 1.69691 1.8994 0
M  V30 5838 H 537.061 3.21577 1.20178 0
M  V30 5839 N 539.506 -0.963266 1.24736 0
M  V30 5840 C 540.755 -1.70115 1.08369 0
M  V30 5841 C 541.068 -1.91939 -0.376688 0
M  V30 5842 O 542.274 -2.6334 -0.660624 0
M  V30 5843 C 540.73 -3.06218 1.89099 0
M  V30 5844 C 540.338 -2.92221 3.39574 0
M  V30 5845 C 542.082 -3.83848 1.81275 0
M  V30 5846 C 539.989 -4.23662 4.12631 0
M  V30 5847 H 538.919 -0.637944 0.401924 0
M  V30 5848 H 541.57 -1.07304 1.48856 0
M  V30 5849 H 539.952 -3.69884 1.41429 0
M  V30 5850 H 541.126 -2.37541 3.94856 0
M  V30 5851 H 539.441 -2.28054 3.48397 0
M  V30 5852 H 542.038 -4.81188 2.33158 0
M  V30 5853 H 542.381 -4.08949 0.778895 0
M  V30 5854 H 542.914 -3.26918 2.26649 0
M  V30 5855 H 539.653 -4.03753 5.16395 0
M  V30 5856 H 539.173 -4.78141 3.62135 0
M  V30 5857 H 540.852 -4.92256 4.19873 0
M  V30 5858 N 540.985 -1.06182 -1.16461 0
M  V30 5859 C 542.231 -0.779015 -1.87241 0
M  V30 5860 C 542.564 0.692715 -1.81425 0
M  V30 5861 O 541.839 1.5074 -1.22913 0
M  V30 5862 C 542.122 -1.2728 -3.36856 0
M  V30 5863 C 541.975 -2.80821 -3.51368 0
M  V30 5864 C 543.294 -0.879799 -4.31216 0
M  V30 5865 H 540.413 -0.284464 -0.679889 0
M  V30 5866 H 543.055 -1.31755 -1.36896 0
M  V30 5867 H 541.205 -0.814673 -3.79862 0
M  V30 5868 H 542.877 -3.34833 -3.17308 0
M  V30 5869 H 541.12 -3.19606 -2.93316 0
M  V30 5870 H 541.791 -3.10435 -4.56436 0
M  V30 5871 H 544.267 -1.27436 -3.96105 0
M  V30 5872 H 543.143 -1.25278 -5.34412 0
M  V30 5873 H 543.404 0.215372 -4.41575 0
M  V30 5874 N 542.463 1.3308 -0.844243 0
M  V30 5875 C 543.693 2.01515 -0.455541 0
M  V30 5876 C 544.101 1.63655 0.949406 0
M  V30 5877 O 543.444 0.84848 1.62931 0
M  V30 5878 C 543.506 3.55967 -0.502801 0
M  V30 5879 C 543.17 4.17222 -1.86481 0
M  V30 5880 C 544.167 4.36205 -2.8288 0
M  V30 5881 C 541.852 4.53528 -2.15911 0
M  V30 5882 C 543.846 4.90649 -4.06869 0
M  V30 5883 C 541.533 5.07679 -3.40155 0
M  V30 5884 C 542.531 5.26186 -4.35451 0
M  V30 5885 O 542.219 5.79183 -5.57496 0
M  V30 5886 H 541.951 0.65199 -0.178565 0
M  V30 5887 H 544.505 1.70867 -1.1399 0
M  V30 5888 H 542.735 3.85965 0.23836 0
M  V30 5889 H 544.424 4.05688 -0.131169 0
M  V30 5890 H 545.19 4.085 -2.61444 0
M  V30 5891 H 541.069 4.38414 -1.42528 0
M  V30 5892 H 544.613 5.0501 -4.81259 0
M  V30 5893 H 540.51 5.34815 -3.61446 0
M  V30 5894 H 541.278 5.97591 -5.5931 0
M  V30 5895 N 543.941 0.601185 1.45683 0
M  V30 5896 C 545.171 0.0999093 2.06358 0
M  V30 5897 C 545.579 -1.21831 1.44754 0
M  V30 5898 O 544.922 -1.75157 0.553695 0
M  V30 5899 C 544.984 -0.12085 3.59297 0
M  V30 5900 C 544.648 1.11459 4.432 0
M  V30 5901 C 545.645 2.03118 4.7858 0
M  V30 5902 C 543.33 1.34162 4.84051 0
M  V30 5903 C 545.324 3.15814 5.53661 0
M  V30 5904 C 543.011 2.4716 5.58888 0
M  V30 5905 C 544.009 3.37814 5.93608 0
M  V30 5906 O 543.697 4.48846 6.66928 0
M  V30 5907 H 543.429 0.0630316 0.673055 0
M  V30 5908 H 545.983 0.826982 1.88016 0
M  V30 5909 H 544.213 -0.902744 3.76015 0
M  V30 5910 H 545.902 -0.572925 4.01836 0
M  V30 5911 H 546.668 1.86801 4.47583 0
M  V30 5912 H 542.547 0.645018 4.56465 0
M  V30 5913 H 546.091 3.86596 5.8068 0
M  V30 5914 H 541.988 2.63432 5.89299 0
M  V30 5915 H 542.756 4.47446 6.85371 0
M  V30 5916 N 545.419 -1.53889 0.339982 0
M  V30 5917 C 546.665 -2.01152 -0.258003 0
M  V30 5918 C 546.998 -1.22749 -1.50487 0
M  V30 5919 O 546.273 -0.314156 -1.91946 0
M  V30 5920 C 546.556 -3.55468 -0.575717 0
M  V30 5921 C 546.409 -4.44584 0.682996 0
M  V30 5922 C 547.728 -4.1768 -1.38677 0
M  V30 5923 H 544.847 -0.731198 -0.0922992 0
M  V30 5924 H 547.489 -1.84352 0.459814 0
M  V30 5925 H 545.639 -3.69914 -1.18725 0
M  V30 5926 H 547.311 -4.41981 1.32102 0
M  V30 5927 H 545.554 -4.13592 1.3086 0
M  V30 5928 H 546.225 -5.5043 0.416001 0
M  V30 5929 H 548.701 -4.0691 -0.869705 0
M  V30 5930 H 547.577 -5.25734 -1.57783 0
M  V30 5931 H 547.838 -3.72069 -2.38782 0
M  V30 5932 N 546.897 -0.0685191 -1.57451 0
M  V30 5933 C 548.145 0.60016 -1.92983 0
M  V30 5934 C 548.466 1.70348 -0.949028 0
M  V30 5935 O 547.736 1.959 0.00335647 0
M  V30 5936 H 546.316 0.224682 -0.712409 0
M  V30 5937 H 548.978 -0.125605 -1.94495 0
M  V30 5938 H 548.074 1.02759 -2.94698 0
M  V30 5939 N 548.375 1.56261 0.205012 0
M  V30 5940 C 549.791 1.49623 0.555433 0
M  V30 5941 C 549.991 0.766719 1.86343 0
M  V30 5942 O 549.047 0.313158 2.50551 0
M  V30 5943 C 550.36 2.94253 0.619347 0
M  V30 5944 C 551.908 3.04868 0.708855 0
M  V30 5945 C 552.383 4.50888 0.803969 0
M  V30 5946 N 553.874 4.54999 0.867758 0
M  V30 5947 C 554.609 5.65284 0.96135 0
M  V30 5948 N 554.105 6.85282 1.01786 0
M  V30 5949 N 555.898 5.53174 0.997771 0
M  V30 5950 H 548.049 2.0211 -0.653094 0
M  V30 5951 H 550.312 0.919333 -0.231366 0
M  V30 5952 H 550.018 3.50643 -0.272458 0
M  V30 5953 H 549.892 3.47063 1.47741 0
M  V30 5954 H 552.279 2.48532 1.5911 0
M  V30 5955 H 552.36 2.55199 -0.175205 0
M  V30 5956 H 552.004 5.07846 -0.0738798 0
M  V30 5957 H 551.934 4.98279 1.70369 0
M  V30 5958 H 554.425 3.68588 0.833735 0
M  V30 5959 H 554.738 7.65081 1.08951 0
M  V30 5960 H 553.083 6.8796 0.986706 0
M  V30 5961 H 556.274 4.5835 0.950392 0
M  V30 5962 H 556.447 6.39151 1.06725 0
M  V30 5963 N 549.853 -0.472356 1.50355 0
M  V30 5964 C 550.8 -1.57051 1.69126 0
M  V30 5965 C 551.77 -1.5733 0.532574 0
M  V30 5966 O 552.955 -1.7488 0.762994 0
M  V30 5967 C 550.095 -2.95033 1.79024 0
M  V30 5968 C 549.208 -3.04552 3.06386 0
M  V30 5969 C 548.343 -4.33441 3.07087 0
M  V30 5970 C 547.382 -4.36697 4.28908 0
M  V30 5971 N 546.519 -5.57056 4.27356 0
M  V30 5972 H 551.359 -1.40351 2.62879 0
M  V30 5973 H 548.896 -0.682403 1.30314 0
M  V30 5974 H 550.854 -3.75048 1.82744 0
M  V30 5975 H 549.484 -3.10371 0.887109 0
M  V30 5976 H 548.536 -2.17419 3.12143 0
M  V30 5977 H 549.848 -3.02818 3.96362 0
M  V30 5978 H 549.002 -5.21801 3.09529 0
M  V30 5979 H 547.741 -4.37782 2.14939 0
M  V30 5980 H 546.746 -3.46734 4.2668 0
M  V30 5981 H 547.971 -4.34049 5.22282 0
M  V30 5982 H 545.917 -5.62184 3.3806 0
M  V30 5983 H 545.834 -5.57058 5.111 0
M  V30 5984 H 547.102 -6.47545 4.33942 0
M  V30 5985 N 551.331 -1.39911 -0.725443 0
M  V30 5986 C 552.742 -1.33599 -1.30415 0
M  V30 5987 C 553.093 -0.00481792 -1.96199 0
M  V30 5988 O 552.218 0.897275 -1.96921 0
M  V30 5989 C 552.813 -2.41965 -2.37146 0
M  V30 5990 C 551.372 -2.39144 -2.90667 0
M  V30 5991 C 550.519 -2.23355 -1.64341 0
M  V30 5992 H 553.47 -1.4986 -0.522267 0
M  V30 5993 H 553.491 -2.09304 -3.17761 0
M  V30 5994 H 553.003 -3.38837 -1.89238 0
M  V30 5995 H 551.104 -1.4594 -3.4283 0
M  V30 5996 H 551.217 -3.34362 -3.43131 0
M  V30 5997 H 549.581 -1.70696 -1.89037 0
M  V30 5998 H 550.364 -3.2221 -1.18471 0
M  V30 5999 N 552.809 0.956637 -1.25245 0
M  V30 6000 C 553.756 2.053 -1.05454 0
M  V30 6001 C 554.726 1.66062 0.0356889 0
M  V30 6002 O 555.911 1.90415 -0.121099 0
M  V30 6003 C 553.051 3.38391 -0.677191 0
M  V30 6004 C 552.164 3.90758 -1.84206 0
M  V30 6005 C 551.299 5.12165 -1.40926 0
M  V30 6006 C 550.338 5.56757 -2.54338 0
M  V30 6007 N 549.475 6.69376 -2.11848 0
M  V30 6008 H 554.315 2.21562 -1.99284 0
M  V30 6009 H 551.852 1.08578 -0.992434 0
M  V30 6010 H 553.81 4.1488 -0.43938 0
M  V30 6011 H 552.44 3.22021 0.224127 0
M  V30 6012 H 551.492 3.10808 -2.19323 0
M  V30 6013 H 552.804 4.19802 -2.69383 0
M  V30 6014 H 551.958 5.96065 -1.13098 0
M  V30 6015 H 550.697 4.84832 -0.528175 0
M  V30 6016 H 549.702 4.71423 -2.82913 0
M  V30 6017 H 550.927 5.861 -3.43022 0
M  V30 6018 H 548.873 6.43756 -1.26153 0
M  V30 6019 H 548.79 6.97927 -2.90574 0
M  V30 6020 H 550.058 7.5669 -1.87191 0
M  V30 6021 N 554.287 1.06798 1.15896 0
M  V30 6022 C 555.533 0.788934 1.86825 0
M  V30 6023 C 555.866 -0.683084 1.8179 0
M  V30 6024 O 555.141 -1.50086 1.23711 0
M  V30 6025 C 555.424 1.29065 3.36176 0
M  V30 6026 C 555.277 2.8268 3.49874 0
M  V30 6027 C 556.596 0.902655 4.30744 0
M  V30 6028 H 553.715 0.288066 0.678371 0
M  V30 6029 H 556.357 1.32479 1.36195 0
M  V30 6030 H 554.507 0.834806 3.79425 0
M  V30 6031 H 556.179 3.36511 3.15528 0
M  V30 6032 H 554.422 3.21157 2.91617 0
M  V30 6033 H 555.093 3.12852 4.54783 0
M  V30 6034 H 557.569 1.29535 3.95424 0
M  V30 6035 H 556.445 1.28111 5.3374 0
M  V30 6036 H 556.706 -0.191951 4.41683 0
M  V30 6037 N 555.766 -1.3263 0.851289 0
M  V30 6038 C 556.676 -2.32722 0.296268 0
M  V30 6039 C 557.692 -1.63901 -0.584162 0
M  V30 6040 O 558.868 -1.95465 -0.485334 0
M  V30 6041 C 555.933 -3.42942 -0.509103 0
M  V30 6042 C 554.994 -4.2746 0.397069 0
M  V30 6043 C 554.227 -5.32416 -0.36996 0
M  V30 6044 O 554.45 -5.47491 -1.6003 0
M  V30 6045 O 553.384 -6.01327 0.262493 0
M  V30 6046 H 557.21 -2.82078 1.12543 0
M  V30 6047 H 554.795 -1.36194 0.614135 0
M  V30 6048 H 556.677 -4.1017 -0.96634 0
M  V30 6049 H 555.352 -2.95781 -1.31512 0
M  V30 6050 H 554.259 -3.63053 0.902411 0
M  V30 6051 H 555.592 -4.78136 1.16818 0
M  V30 6052 N 557.244 -0.608902 -1.45362 0
M  V30 6053 C 558.176 0.147318 -2.28726 0
M  V30 6054 C 559.189 0.830468 -1.40025 0
M  V30 6055 O 560.378 0.695636 -1.64387 0
M  V30 6056 C 557.478 1.22968 -3.15804 0
M  V30 6057 C 556.651 0.633391 -4.3279 0
M  V30 6058 C 555.71 1.60682 -5.01067 0
M  V30 6059 O 554.736 1.13261 -5.57818 0
M  V30 6060 N 555.938 2.94123 -5.00472 0
M  V30 6061 H 558.703 -0.568014 -2.94268 0
M  V30 6062 H 556.264 -0.448479 -1.55564 0
M  V30 6063 H 558.256 1.88072 -3.58345 0
M  V30 6064 H 556.826 1.84752 -2.52162 0
M  V30 6065 H 556.046 -0.195762 -3.93714 0
M  V30 6066 H 557.334 0.215255 -5.08344 0
M  V30 6067 H 556.732 3.3525 -4.55657 0
M  V30 6068 H 555.289 3.54646 -5.46872 0
M  V30 6069 N 558.722 1.53707 -0.348139 0
M  V30 6070 C 559.652 2.28111 0.498766 0
M  V30 6071 C 560.633 1.29851 1.09876 0
M  V30 6072 O 561.818 1.587 1.11928 0
M  V30 6073 C 558.948 3.05735 1.64753 0
M  V30 6074 C 557.902 4.11537 1.17565 0
M  V30 6075 C 557.228 4.77142 2.4133 0
M  V30 6076 C 558.528 5.21587 0.272844 0
M  V30 6077 H 560.222 2.99152 -0.121934 0
M  V30 6078 H 557.768 1.43875 -0.0600842 0
M  V30 6079 H 559.721 3.56526 2.24649 0
M  V30 6080 H 558.445 2.32354 2.2952 0
M  V30 6081 H 557.104 3.61665 0.599483 0
M  V30 6082 H 556.752 4.0035 3.04514 0
M  V30 6083 H 556.452 5.48626 2.10436 0
M  V30 6084 H 557.976 5.30719 3.01943 0
M  V30 6085 H 559.39 5.67986 0.778779 0
M  V30 6086 H 557.787 6.00074 0.0555849 0
M  V30 6087 H 558.857 4.79969 -0.689785 0
M  V30 6088 N 560.2 0.0768682 1.57412 0
M  V30 6089 C 561.425 -0.603404 1.98428 0
M  V30 6090 C 561.85 -1.62047 0.955108 0
M  V30 6091 O 561.208 -1.81129 -0.0786778 0
M  V30 6092 C 561.256 -1.24396 3.38464 0
M  V30 6093 O 560.36 -2.35982 3.3821 0
M  V30 6094 H 559.701 -0.154741 0.645718 0
M  V30 6095 H 562.231 0.152885 2.04028 0
M  V30 6096 H 562.241 -1.5896 3.7576 0
M  V30 6097 H 560.916 -0.498735 4.12899 0
M  V30 6098 H 559.493 -2.03173 3.1269 0
M  V30 6099 N 561.678 -1.56367 -0.196722 0
M  V30 6100 C 562.626 -1.95304 -1.2633 0
M  V30 6101 C 563.62 -0.838252 -1.47206 0
M  V30 6102 O 564.826 -1.02325 -1.48087 0
M  V30 6103 H 561.201 -0.621013 -0.424083 0
M  V30 6104 H 563.172 -2.84254 -0.907879 0
M  V30 6105 C 561.921 -2.3074 -2.60104 0
M  V30 6106 H 561.244 -3.16047 -2.44856 0
M  V30 6107 H 562.684 -2.61849 -3.33484 0
M  V30 6108 C 561.143 -1.14143 -3.16975 0
M  V30 6109 O 561.673 -0.415602 -3.99544 0
M  V30 6110 N 559.879 -0.91867 -2.75697 0
M  V30 6111 H 559.426 -1.51065 -2.08656 0
M  V30 6112 H 559.384 -0.140321 -3.14087 0
M  V30 6113 N 563.156 0.464375 -1.50603 0
M  V30 6114 C 564.089 1.58052 -1.64605 0
M  V30 6115 C 565.067 1.54914 -0.494016 0
M  V30 6116 O 566.251 1.74438 -0.714393 0
M  V30 6117 C 563.378 2.96634 -1.63481 0
M  V30 6118 C 562.424 3.17901 -2.84325 0
M  V30 6119 S 563.257 2.97083 -4.45536 0
M  V30 6120 C 564.413 4.37994 -4.47115 0
M  V30 6121 H 564.646 1.45937 -2.59017 0
M  V30 6122 H 562.179 0.652189 -1.39949 0
M  V30 6123 H 564.137 3.76527 -1.63517 0
M  V30 6124 H 562.798 3.06134 -0.702928 0
M  V30 6125 H 561.991 4.19158 -2.79862 0
M  V30 6126 H 561.593 2.45792 -2.81891 0
M  V30 6127 H 563.885 5.30743 -4.21091 0
M  V30 6128 H 564.828 4.47499 -5.48772 0
M  V30 6129 H 565.236 4.20386 -3.76743 0
M  V30 6130 N 564.634 1.40294 0.718013 0
M  V30 6131 C 565.883 1.37746 1.4734 0
M  V30 6132 C 566.196 -0.0180754 1.95592 0
M  V30 6133 O 567.402 -0.166166 2.70991 0
M  V30 6134 C 565.858 2.4208 2.66318 0
M  V30 6135 C 565.466 3.87432 2.24945 0
M  V30 6136 C 567.21 2.48635 3.44065 0
M  V30 6137 C 565.117 4.83368 3.40748 0
M  V30 6138 H 564.047 0.512165 0.553356 0
M  V30 6139 H 566.698 1.66019 0.781661 0
M  V30 6140 H 565.08 2.06903 3.3765 0
M  V30 6141 H 566.254 4.3174 1.6105 0
M  V30 6142 H 564.569 3.8433 1.60249 0
M  V30 6143 H 567.166 3.17499 4.30231 0
M  V30 6144 H 567.509 1.51611 3.87711 0
M  V30 6145 H 568.042 2.82791 2.79775 0
M  V30 6146 H 564.781 5.81716 3.02136 0
M  V30 6147 H 564.301 4.43726 4.03568 0
M  V30 6148 H 565.98 5.03074 4.06848 0
M  V30 6149 N 566.112 -0.949982 1.2575 0
M  V30 6150 C 567.358 -1.69766 1.10938 0
M  V30 6151 C 567.691 -1.91056 -0.348028 0
M  V30 6152 O 566.966 -1.48488 -1.25625 0
M  V30 6153 C 567.249 -3.07779 1.86933 0
M  V30 6154 C 567.102 -2.9387 3.4053 0
M  V30 6155 C 568.421 -4.07749 1.65616 0
M  V30 6156 H 565.54 -0.616144 0.404396 0
M  V30 6157 H 568.182 -1.10394 1.54639 0
M  V30 6158 H 566.332 -3.58462 1.4979 0
M  V30 6159 H 568.004 -2.50476 3.87375 0
M  V30 6160 H 566.247 -2.29686 3.68004 0
M  V30 6161 H 566.918 -3.91719 3.88922 0
M  V30 6162 H 569.394 -3.65994 1.97959 0
M  V30 6163 H 568.27 -5.02348 2.21218 0
M  V30 6164 H 568.531 -4.38029 0.598595 0
M  V30 6165 N 567.59 -1.07411 -1.15328 0
M  V30 6166 C 569.006 -0.799759 -1.38116 0
M  V30 6167 C 569.206 0.59572 -1.92493 0
M  V30 6168 O 568.262 1.35433 -2.13106 0
M  V30 6169 C 569.575 -1.87407 -2.35158 0
M  V30 6170 C 571.123 -1.89889 -2.48819 0
M  V30 6171 C 571.598 -2.96406 -3.49153 0
M  V30 6172 N 573.089 -2.95512 -3.56689 0
M  V30 6173 C 573.824 -3.74575 -4.34144 0
M  V30 6174 N 573.32 -4.63488 -5.14928 0
M  V30 6175 N 575.113 -3.62919 -4.29239 0
M  V30 6176 H 567.264 -1.97411 -0.78374 0
M  V30 6177 H 569.527 -0.856113 -0.407154 0
M  V30 6178 H 569.233 -2.8768 -2.0232 0
M  V30 6179 H 569.107 -1.73471 -3.34944 0
M  V30 6180 H 571.494 -0.902677 -2.80955 0
M  V30 6181 H 571.575 -2.07904 -1.49029 0
M  V30 6182 H 571.219 -3.96227 -3.17752 0
M  V30 6183 H 571.149 -2.75638 -4.48699 0
M  V30 6184 H 573.64 -2.31061 -2.99031 0
M  V30 6185 H 573.953 -5.20445 -5.71276 0
M  V30 6186 H 572.298 -4.67537 -5.14232 0
M  V30 6187 H 575.489 -2.92833 -3.65194 0
M  V30 6188 H 575.662 -4.24777 -4.89355 0
M  V30 6189 N 569.068 1.32177 -0.85831 0
M  V30 6190 C 570.293 2.01847 -0.476718 0
M  V30 6191 C 570.718 1.64065 0.920021 0
M  V30 6192 O 570.076 0.843189 1.60499 0
M  V30 6193 C 570.124 3.55097 -0.627578 0
M  V30 6194 O 569.228 4.11012 0.338086 0
M  V30 6195 H 568.569 0.635907 -0.191099 0
M  V30 6196 H 571.099 1.68641 -1.15851 0
M  V30 6197 H 571.109 4.04718 -0.516476 0
M  V30 6198 H 569.784 3.81938 -1.64609 0
M  V30 6199 H 568.361 3.72451 0.182917 0
M  V30 6200 N 570.547 0.616602 1.45037 0
M  V30 6201 C 571.787 0.118453 2.04056 0
M  V30 6202 C 572.151 -1.23104 1.47341 0
M  V30 6203 O 573.352 -1.82044 1.97771 0
M  V30 6204 C 571.623 0.0892842 3.57288 0
M  V30 6205 S 573.182 -0.346361 4.37431 0
M  V30 6206 H 570 0.0539728 0.708948 0
M  V30 6207 H 572.602 0.816731 1.77623 0
M  V30 6208 H 571.306 1.07481 3.96076 0
M  V30 6209 H 570.837 -0.630703 3.88311 0
M  V30 6210 H 572.852 -1.59389 4.69904 0
M  V30 6211 N 572.025 -1.5352 0.356285 0
M  V30 6212 C 572.972 -2.25439 -0.494569 0
M  V30 6213 C 573.942 -1.25752 -1.08516 0
M  V30 6214 O 575.127 -1.54513 -1.1194 0
M  V30 6215 C 572.267 -3.04011 -1.63313 0
M  V30 6216 C 571.38 -4.18574 -1.06862 0
M  V30 6217 C 570.515 -4.84607 -2.17552 0
M  V30 6218 C 569.554 -5.91218 -1.58518 0
M  V30 6219 N 568.691 -6.50979 -2.63003 0
M  V30 6220 H 573.531 -2.97737 0.125244 0
M  V30 6221 H 571.068 -1.46916 0.0735789 0
M  V30 6222 H 573.026 -3.47834 -2.30363 0
M  V30 6223 H 571.656 -2.33986 -2.22374 0
M  V30 6224 H 570.708 -3.79303 -0.288672 0
M  V30 6225 H 572.02 -4.95215 -0.596924 0
M  V30 6226 H 571.174 -5.31566 -2.92442 0
M  V30 6227 H 569.913 -4.07418 -2.6807 0
M  V30 6228 H 568.918 -5.4363 -0.821391 0
M  V30 6229 H 570.143 -6.70322 -1.08836 0
M  V30 6230 H 568.089 -5.76648 -3.12751 0
M  V30 6231 H 568.006 -7.23131 -2.20493 0
M  V30 6232 H 569.274 -7.02589 -3.37623 0
M  V30 6233 N 573.503 -0.0852151 -1.57369 0
M  V30 6234 C 574.743 0.584297 -1.95871 0
M  V30 6235 C 575.107 1.6596 -0.965473 0
M  V30 6236 O 576.308 2.38561 -1.23862 0
M  V30 6237 C 574.579 1.13411 -3.38929 0
M  V30 6238 S 576.138 1.81687 -3.99419 0
M  V30 6239 H 572.956 0.19095 -0.684879 0
M  V30 6240 H 575.558 -0.162267 -1.94825 0
M  V30 6241 H 574.262 0.339845 -4.0899 0
M  V30 6242 H 573.793 1.91672 -3.43548 0
M  V30 6243 H 575.808 3.10037 -3.87417 0
M  V30 6244 N 574.981 1.5647 0.188427 0
M  V30 6245 C 576.206 1.85486 0.927891 0
M  V30 6246 C 576.631 0.669575 1.75779 0
M  V30 6247 O 575.989 -0.381573 1.77239 0
M  V30 6248 C 576.037 3.12784 1.7944 0
M  V30 6249 O 575.141 2.93805 2.894 0
M  V30 6250 H 574.482 0.610585 0.260925 0
M  V30 6251 H 577.012 2.037 0.191729 0
M  V30 6252 H 577.022 3.43749 2.19774 0
M  V30 6253 H 575.697 3.98671 1.18468 0
M  V30 6254 H 574.274 2.74153 2.52774 0
M  V30 6255 O 576.498 -0.333583 1.58017 0
M  V30 6256 H 577.189 -0.982643 1.66925 0
M  V30 END ATOM
M  V30 BEGIN BOND
M  V30 END BOND
M  V30 END CTAB
M  END
$$$$
