drugbank_target|P01138 Beta-nerve growth factor (DB01407; DB05892; DB09221)
 OpenBabel12092119473D

  0  0  0     0  0            999 V3000
M  V30 BEGIN CTAB
M  V30 COUNTS 3791 3835 0 0 0
M  V30 BEGIN ATOM
M  V30 1 H -0.908 1.98254 -0.117106 0
M  V30 2 N 0 1.576 0 0
M  V30 3 C 0.933 2.03868 1.02534 0
M  V30 4 C 1.911 0.928543 1.3348 0
M  V30 5 O 3.095 1.19667 1.45644 0
M  V30 6 C 0.222 2.43627 2.35294 0
M  V30 7 C -0.732 3.65373 2.2001 0
M  V30 8 S 0.101 5.13292 1.52614 0
M  V30 9 C 1.257 5.56322 2.86805 0
M  V30 10 H 1.49 2.90518 0.631377 0
M  V30 11 H -0.977 1.52953 0.210867 0
M  V30 12 H 0.981 2.67203 3.11629 0
M  V30 13 H -0.358 1.57376 2.7183 0
M  V30 14 H -1.165 3.90944 3.18086 0
M  V30 15 H -1.563 3.418 1.51819 0
M  V30 16 H 0.729 5.58782 3.83104 0
M  V30 17 H 1.672 6.56266 2.65933 0
M  V30 18 H 2.08 4.83886 2.90714 0
M  V30 19 N 1.4781 -0.272755 1.55222 0
M  V30 20 C 2.7031 -1.02683 1.80197 0
M  V30 21 C 3.1281 -1.79142 0.573551 0
M  V30 22 O 2.4861 -1.74917 -0.476849 0
M  V30 23 C 2.5341 -1.9609 3.02624 0
M  V30 24 O 1.6381 -3.04863 2.77727 0
M  V30 25 H 0.9791 -0.293557 0.595584 0
M  V30 26 H 3.5091 -0.30159 2.02365 0
M  V30 27 H 3.5191 -2.38039 3.31363 0
M  V30 28 H 2.1941 -1.39851 3.91682 0
M  V30 29 H 0.7711 -2.67228 2.60084 0
M  V30 30 N 2.9562 -1.48159 -0.537278 0
M  V30 31 C 3.8892 -1.567 -1.65893 0
M  V30 32 C 4.8672 -0.41787 -1.57139 0
M  V30 33 O 6.0512 -0.628461 -1.77715 0
M  V30 34 C 3.1782 -1.48818 -3.04255 0
M  V30 35 C 2.2242 -2.68482 -3.31391 0
M  V30 36 S 3.0572 -4.30516 -3.1846 0
M  V30 37 C 4.2132 -4.2522 -4.59281 0
M  V30 38 H 4.4462 -2.5159 -1.58397 0
M  V30 39 H 1.9792 -1.36602 -0.719672 0
M  V30 40 H 3.9372 -1.44958 -3.84054 0
M  V30 41 H 2.5982 -0.552777 -3.09198 0
M  V30 42 H 1.7912 -2.59085 -4.32309 0
M  V30 43 H 1.3932 -2.69567 -2.59248 0
M  V30 44 H 3.6852 -3.94703 -5.5065 0
M  V30 45 H 4.6282 -5.26292 -4.73732 0
M  V30 46 H 5.0362 -3.55791 -4.38261 0
M  V30 47 N 4.4343 0.785586 -1.36625 0
M  V30 48 C 5.3643 1.91259 -1.33949 0
M  V30 49 C 6.3453 1.68795 -0.210325 0
M  V30 50 O 7.5303 1.89854 -0.408561 0
M  V30 51 C 4.6603 3.28339 -1.13186 0
M  V30 52 C 3.6143 3.65335 -2.22967 0
M  V30 53 C 2.9403 5.00806 -1.87342 0
M  V30 54 C 4.2403 3.7352 -3.65075 0
M  V30 55 H 5.9343 1.93755 -2.28253 0
M  V30 56 H 3.4803 0.930788 -1.09874 0
M  V30 57 H 5.4333 4.06804 -1.09948 0
M  V30 58 H 4.1573 3.2624 -0.153332 0
M  V30 59 H 2.8163 2.89169 -2.25337 0
M  V30 60 H 2.4643 4.95233 -0.880545 0
M  V30 61 H 2.1643 5.26529 -2.60846 0
M  V30 62 H 3.6883 5.81687 -1.85667 0
M  V30 63 H 5.1023 4.42168 -3.64911 0
M  V30 64 H 3.4993 4.10731 -4.37516 0
M  V30 65 H 4.5693 2.74527 -3.99703 0
M  V30 66 N 5.9124 1.20967 1.01018 0
M  V30 67 C 7.1594 1.02374 1.74716 0
M  V30 68 C 7.4874 -0.443375 1.89379 0
M  V30 69 O 6.7424 -1.34535 1.42123 0
M  V30 70 C 7.0414 1.65997 3.16512 0
M  V30 71 C 6.7074 3.15831 3.2181 0
M  V30 72 C 5.3694 3.56719 3.22963 0
M  V30 73 C 7.7214 4.11816 3.19464 0
M  V30 74 C 5.0494 4.92107 3.19449 0
M  V30 75 C 7.4014 5.47158 3.17491 0
M  V30 76 C 6.0654 5.87451 3.16951 0
M  V30 77 H 5.3354 0.374614 0.639332 0
M  V30 78 H 7.9824 1.50485 1.18434 0
M  V30 79 H 6.2874 1.10166 3.75993 0
M  V30 80 H 7.9844 1.49119 3.72242 0
M  V30 81 H 4.5744 2.83263 3.21652 0
M  V30 82 H 8.7584 3.81257 3.17737 0
M  V30 83 H 4.0144 5.22579 3.17366 0
M  V30 84 H 8.1884 6.21274 3.14629 0
M  V30 85 H 5.8154 6.92329 3.13983 0
M  V30 86 N 7.3905 -1.2043 1.01659 0
M  V30 87 C 8.6205 -1.93496 0.724081 0
M  V30 88 C 9.0285 -1.74998 -0.71918 0
M  V30 89 O 8.3715 -1.06118 -1.49949 0
M  V30 90 C 8.4335 -3.45886 0.97994 0
M  V30 91 C 8.0975 -3.88145 2.41232 0
M  V30 92 C 9.0945 -3.93907 3.39313 0
M  V30 93 C 6.7795 -4.20134 2.75305 0
M  V30 94 C 8.7735 -4.31069 4.6953 0
M  V30 95 C 6.4605 -4.56971 4.05735 0
M  V30 96 C 7.4585 -4.62411 5.02658 0
M  V30 97 O 7.1465 -4.98403 6.30754 0
M  V30 98 H 6.8785 -0.621824 0.265162 0
M  V30 99 H 9.4325 -1.53867 1.36066 0
M  V30 100 H 7.6625 -3.85639 0.286198 0
M  V30 101 H 9.3515 -4.0018 0.679021 0
M  V30 102 H 10.1175 -3.69357 3.14325 0
M  V30 103 H 5.9965 -4.1509 2.00551 0
M  V30 104 H 9.5405 -4.3523 5.45179 0
M  V30 105 H 5.4375 -4.80977 4.30502 0
M  V30 106 H 6.2055 -5.16395 6.35042 0
M  V30 107 N 8.8686 -0.792821 -1.36206 0
M  V30 108 C 10.0966 -0.378825 -2.03402 0
M  V30 109 C 10.5116 1.00586 -1.59774 0
M  V30 110 O 9.8686 1.64574 -0.788764 0
M  V30 111 C 9.9196 -0.43683 -3.58851 0
M  V30 112 O 9.6406 -1.76691 -4.00889 0
M  V30 113 C 11.1416 -0.0138943 -4.43298 0
M  V30 114 H 8.3616 -0.155673 -0.652692 0
M  V30 115 H 10.9056 -1.07261 -1.74113 0
M  V30 116 H 9.0606 0.208575 -3.86838 0
M  V30 117 H 9.4746 -1.72011 -4.95492 0
M  V30 118 H 10.9486 -0.105615 -5.51899 0
M  V30 119 H 11.4256 1.03915 -4.2673 0
M  V30 120 H 12.0316 -0.63192 -4.20579 0
M  V30 121 N 10.3467 1.47872 -0.545128 0
M  V30 122 C 11.2767 2.32661 0.197793 0
M  V30 123 C 12.2577 1.43041 0.920504 0
M  V30 124 O 13.4427 1.71912 0.90333 0
M  V30 125 C 10.5727 3.24569 1.23582 0
M  V30 126 C 9.5267 4.23333 0.630323 0
M  V30 127 C 8.8527 5.0448 1.77211 0
M  V30 128 C 10.1527 5.20704 -0.407974 0
M  V30 129 H 11.8467 2.95024 -0.510045 0
M  V30 130 H 9.3927 1.4187 -0.246731 0
M  V30 131 H 11.3457 3.8272 1.76362 0
M  V30 132 H 10.0697 2.60236 1.97344 0
M  V30 133 H 8.7287 3.6639 0.123922 0
M  V30 134 H 8.3767 4.36561 2.49847 0
M  V30 135 H 8.0767 5.71339 1.37281 0
M  V30 136 H 9.6007 5.65487 2.3034 0
M  V30 137 H 11.0147 5.7329 0.033305 0
M  V30 138 H 9.4117 5.95699 -0.725486 0
M  V30 139 H 10.4817 4.66917 -1.30828 0
M  V30 140 N 11.8248 0.280983 1.55075 0
M  V30 141 C 13.0738 -0.334784 1.98902 0
M  V30 142 C 13.3868 -1.56534 1.17288 0
M  V30 143 O 14.5928 -2.25443 1.51287 0
M  V30 144 C 13.0488 -0.646994 3.54037 0
M  V30 145 C 12.6568 0.564085 4.44435 0
M  V30 146 C 14.4008 -1.22506 4.06439 0
M  V30 147 C 12.3078 0.226137 5.90967 0
M  V30 148 H 11.2378 -0.128866 0.742906 0
M  V30 149 H 13.8888 0.386556 1.79382 0
M  V30 150 H 12.2708 -1.42739 3.6938 0
M  V30 151 H 13.4448 1.34082 4.40861 0
M  V30 152 H 11.7598 1.0594 4.02698 0
M  V30 153 H 14.3568 -1.49182 5.13468 0
M  V30 154 H 14.6998 -2.16085 3.55827 0
M  V30 155 H 15.2328 -0.50682 3.94558 0
M  V30 156 H 11.9718 1.12996 6.45687 0
M  V30 157 H 11.4918 -0.513717 5.97596 0
M  V30 158 H 13.1708 -0.179539 6.46751 0
M  V30 159 N 13.3029 -1.57598 0.00835791 0
M  V30 160 C 14.5309 -1.95214 -0.68549 0
M  V30 161 C 14.9459 -0.883706 -1.66841 0
M  V30 162 O 14.3029 0.136565 -1.81988 0
M  V30 163 C 14.3539 -3.32865 -1.41007 0
M  V30 164 O 14.0749 -4.35609 -0.466552 0
M  V30 165 C 15.5759 -3.84991 -2.19765 0
M  V30 166 H 12.7959 -0.643422 -0.190392 0
M  V30 167 H 15.3399 -2.04406 0.0619607 0
M  V30 168 H 13.4949 -3.24956 -2.10908 0
M  V30 169 H 13.9089 -5.15288 -0.978699 0
M  V30 170 H 15.3829 -4.8371 -2.65948 0
M  V30 171 H 15.8599 -3.18137 -3.02796 0
M  V30 172 H 16.4659 -3.96103 -1.54864 0
M  V30 173 N 14.781 0.264519 -1.55364 0
M  V30 174 C 15.744 1.31046 -1.88042 0
M  V30 175 C 16.744 1.41943 -0.755569 0
M  V30 176 O 17.934 1.40947 -1.02369 0
M  V30 177 C 15.066 2.69067 -2.09323 0
M  V30 178 H 16.259 1.03297 -2.81549 0
M  V30 179 H 13.812 0.502989 -1.47986 0
M  V30 180 H 14.547 3.01982 -1.18226 0
M  V30 181 H 14.332 2.62542 -2.91229 0
M  V30 182 H 15.822 3.44623 -2.35848 0
M  V30 183 N 16.2591 1.48442 0.529413 0
M  V30 184 C 17.5061 1.56488 1.28521 0
M  V30 185 C 17.8341 0.239042 1.93025 0
M  V30 186 O 17.0891 -0.770713 1.79885 0
M  V30 187 C 17.3881 2.6523 2.39558 0
M  V30 188 C 17.0541 4.07648 1.92702 0
M  V30 189 C 15.7161 4.46411 1.79641 0
M  V30 190 C 18.0681 4.96896 1.573 0
M  V30 191 C 15.3961 5.72226 1.29514 0
M  V30 192 C 17.7481 6.23202 1.08636 0
M  V30 193 C 16.4121 6.60821 0.941919 0
M  V30 194 H 15.6821 0.572631 0.470292 0
M  V30 195 H 18.3291 1.82161 0.59072 0
M  V30 196 H 16.6341 2.33419 3.14679 0
M  V30 197 H 18.3311 2.68671 2.97686 0
M  V30 198 H 14.9211 3.77036 2.03819 0
M  V30 199 H 19.1051 4.67626 1.66251 0
M  V30 200 H 14.3611 6.00097 1.17019 0
M  V30 201 H 18.5351 6.91753 0.803136 0
M  V30 202 H 16.1621 7.58198 0.5513 0
M  V30 203 N 17.7372 -0.778329 1.37039 0
M  V30 204 C 18.6672 -1.90546 1.34962 0
M  V30 205 C 19.6482 -1.68681 0.219274 0
M  V30 206 O 20.8332 -1.89634 0.418624 0
M  V30 207 C 17.9632 -3.27734 1.14925 0
M  V30 208 C 16.9172 -3.64147 2.24902 0
M  V30 209 C 16.2432 -4.99806 1.89996 0
M  V30 210 C 17.5432 -3.71579 3.67051 0
M  V30 211 H 19.2372 -1.92541 2.29277 0
M  V30 212 H 16.7832 -0.924948 1.10366 0
M  V30 213 H 18.7362 -4.06215 1.12104 0
M  V30 214 H 17.4602 -3.26154 0.170631 0
M  V30 215 H 16.1192 -2.8797 2.26868 0
M  V30 216 H 15.7672 -4.94759 0.906796 0
M  V30 217 H 15.4672 -5.25139 2.63634 0
M  V30 218 H 16.9912 -5.80694 1.88749 0
M  V30 219 H 18.4052 -4.40227 3.67251 0
M  V30 220 H 16.8022 -4.08405 4.39688 0
M  V30 221 H 17.8722 -2.72404 4.01154 0
M  V30 222 N 19.2153 -1.21501 -1.00376 0
M  V30 223 C 20.4643 -1.02718 -1.73586 0
M  V30 224 C 20.7773 0.439589 -1.90596 0
M  V30 225 O 21.9833 0.746848 -2.61026 0
M  V30 226 C 20.4393 -1.78929 -3.1227 0
M  V30 227 C 20.0473 -3.29783 -3.03228 0
M  V30 228 C 21.7913 -1.68557 -3.89601 0
M  V30 229 C 19.6983 -3.98479 -4.36999 0
M  V30 230 H 18.6283 -0.380733 -0.650814 0
M  V30 231 H 21.2793 -1.45248 -1.1214 0
M  V30 232 H 19.6613 -1.29192 -3.74333 0
M  V30 233 H 20.8353 -3.86832 -2.50395 0
M  V30 234 H 19.1503 -3.40711 -2.39385 0
M  V30 235 H 21.7473 -2.17211 -4.88593 0
M  V30 236 H 22.0903 -0.644021 -4.11288 0
M  V30 237 H 22.6233 -2.15778 -3.34193 0
M  V30 238 H 19.3623 -5.02841 -4.20513 0
M  V30 239 H 18.8823 -3.46219 -4.89788 0
M  V30 240 H 20.5613 -4.03462 -5.05794 0
M  V30 241 N 20.6934 1.19889 -1.02296 0
M  V30 242 C 21.9414 1.89046 -0.714558 0
M  V30 243 C 22.2624 1.79636 0.758681 0
M  V30 244 O 21.5324 1.20292 1.54618 0
M  V30 245 H 20.1124 0.699802 -0.261317 0
M  V30 246 H 22.7744 1.45574 -1.29592 0
M  V30 247 H 21.8704 2.95524 -1.0036 0
M  V30 248 N 22.1715 0.800033 1.35784 0
M  V30 249 C 23.4205 0.37387 1.98205 0
M  V30 250 C 23.7335 -1.06302 1.64193 0
M  V30 251 O 24.9395 -1.59198 2.19928 0
M  V30 252 C 23.3955 0.617532 3.54562 0
M  V30 253 C 23.0035 2.06654 3.9749 0
M  V30 254 C 24.7475 0.256401 4.23725 0
M  V30 255 C 22.6545 2.2563 5.46667 0
M  V30 256 H 21.5845 0.136055 0.741623 0
M  V30 257 H 24.2355 0.983166 1.54939 0
M  V30 258 H 22.6175 -0.0616248 3.95952 0
M  V30 259 H 23.7915 2.78296 3.67271 0
M  V30 260 H 22.1065 2.38691 3.41197 0
M  V30 261 H 24.7035 0.376318 5.33374 0
M  V30 262 H 25.0465 -0.796692 4.08606 0
M  V30 263 H 25.5795 0.889214 3.87734 0
M  V30 264 H 22.3185 3.2936 5.66747 0
M  V30 265 H 21.8385 1.58504 5.78478 0
M  V30 266 H 23.5175 2.06861 6.1304 0
M  V30 267 N 23.6496 -1.47581 0.552962 0
M  V30 268 C 24.5816 -2.27997 -0.234533 0
M  V30 269 C 25.5946 -1.36753 -0.883321 0
M  V30 270 O 26.7836 -1.61612 -0.757889 0
M  V30 271 C 23.8836 -3.10879 -1.34935 0
M  V30 272 C 23.0566 -4.30056 -0.798158 0
M  V30 273 C 22.1156 -4.94567 -1.79694 0
M  V30 274 O 21.1416 -5.53087 -1.34474 0
M  V30 275 N 22.3436 -4.88878 -3.13015 0
M  V30 276 H 25.1086 -2.96222 0.455255 0
M  V30 277 H 22.6696 -1.57163 0.388761 0
M  V30 278 H 24.6616 -3.50903 -2.01616 0
M  V30 279 H 23.2316 -2.44924 -1.94244 0
M  V30 280 H 22.4516 -3.94174 0.0453079 0
M  V30 281 H 23.7396 -5.07152 -0.409173 0
M  V30 282 H 23.1376 -4.42526 -3.52402 0
M  V30 283 H 21.6946 -5.32934 -3.75266 0
M  V30 284 N 25.1277 -0.289203 -1.54924 0
M  V30 285 C 26.0907 0.579144 -2.21762 0
M  V30 286 C 27.0907 1.07047 -1.1999 0
M  V30 287 O 28.2807 0.968384 -1.44803 0
M  V30 288 C 25.4127 1.80055 -2.8947 0
M  V30 289 H 26.6057 -0.00464908 -2.999 0
M  V30 290 H 24.1587 -0.0399306 -1.56249 0
M  V30 291 H 24.8937 2.42449 -2.15381 0
M  V30 292 H 24.6787 1.45602 -3.64064 0
M  V30 293 H 26.1687 2.41773 -3.40493 0
M  V30 294 N 26.6058 1.57591 -0.0167156 0
M  V30 295 C 27.5158 2.1291 0.98521 0
M  V30 296 C 28.5318 1.07834 1.36557 0
M  V30 297 O 29.7078 1.39826 1.44951 0
M  V30 298 C 26.7728 2.63512 2.25305 0
M  V30 299 C 25.8338 3.83256 1.93426 0
M  V30 300 C 25.0668 4.31435 3.14165 0
M  V30 301 O 25.2898 3.78851 4.26413 0
M  V30 302 O 24.2238 5.23416 2.97186 0
M  V30 303 H 28.0498 2.98772 0.544888 0
M  V30 304 H 25.6348 1.48012 0.203141 0
M  V30 305 H 27.5168 2.96183 2.99756 0
M  V30 306 H 26.1918 1.8074 2.68542 0
M  V30 307 H 25.0988 3.55531 1.16398 0
M  V30 308 H 26.4318 4.67153 1.55013 0
M  V30 309 N 28.0839 -0.256276 1.55502 0
M  V30 310 C 29.4949 -0.826068 1.67431 0
M  V30 311 C 29.8459 -1.86396 0.612446 0
M  V30 312 O 28.9709 -2.15031 -0.243025 0
M  V30 313 C 29.5659 -1.50512 3.03532 0
M  V30 314 C 28.1249 -2.02273 3.17431 0
M  V30 315 C 27.2719 -0.870548 2.63281 0
M  V30 316 H 30.2229 -0.0322728 1.58667 0
M  V30 317 H 30.2439 -2.37279 2.97454 0
M  V30 318 H 29.7559 -0.749484 3.80794 0
M  V30 319 H 27.8569 -2.80746 2.44974 0
M  V30 320 H 27.9699 -2.22655 4.24219 0
M  V30 321 H 26.3339 -1.26851 2.20864 0
M  V30 322 H 27.1169 -0.128149 3.43061 0
M  V30 323 N 29.562 -1.4872 -0.521534 0
M  V30 324 C 30.512 -1.60269 -1.62166 0
M  V30 325 C 31.496 -0.45935 -1.54204 0
M  V30 326 O 32.688 -0.711241 -1.62081 0
M  V30 327 C 29.817 -1.65344 -3.00859 0
M  V30 328 C 28.903 -2.85187 -3.13894 0
M  V30 329 N 29.294 -4.09509 -2.96877 0
M  V30 330 C 27.592 -2.82695 -3.44963 0
M  V30 331 C 28.293 -4.89959 -3.13552 0
M  V30 332 N 27.269 -4.22934 -3.41508 0
M  V30 333 H 31.071 -2.5413 -1.47632 0
M  V30 334 H 28.585 -1.45209 -0.727194 0
M  V30 335 H 30.582 -1.71713 -3.79895 0
M  V30 336 H 29.242 -0.726058 -3.16478 0
M  V30 337 H 30.253 -4.39814 -2.73467 0
M  V30 338 H 26.93 -1.99249 -3.66887 0
M  V30 339 H 28.32 -5.98654 -3.05061 0
M  V30 340 N 31.0401 0.771051 -1.3745 0
M  V30 341 C 32.2651 1.56529 -1.36065 0
M  V30 342 C 32.6901 1.88029 0.0515859 0
M  V30 343 O 32.0481 1.49282 1.02882 0
M  V30 344 C 32.0961 2.85187 -2.20683 0
M  V30 345 O 31.2001 3.79593 -1.61193 0
M  V30 346 H 30.5411 0.47411 -0.464883 0
M  V30 347 H 33.0711 0.954269 -1.80983 0
M  V30 348 H 33.0811 3.34283 -2.33921 0
M  V30 349 H 31.7561 2.61588 -3.23334 0
M  V30 350 H 30.3331 3.38239 -1.56999 0
M  V30 351 N 32.5182 1.22032 0.997298 0
M  V30 352 C 33.4282 1.00271 2.12092 0
M  V30 353 C 34.4442 -0.047621 1.73935 0
M  V30 354 O 35.6202 0.144136 2.00884 0
M  V30 355 C 32.6852 0.578449 3.4184 0
M  V30 356 C 31.7462 1.70189 3.94125 0
M  V30 357 C 30.9792 1.29778 5.17681 0
M  V30 358 O 31.2022 0.174676 5.70132 0
M  V30 359 O 30.1362 2.11261 5.63607 0
M  V30 360 H 33.9622 1.94398 2.3333 0
M  V30 361 H 31.5472 1.00587 1.10465 0
M  V30 362 H 33.4292 0.351998 4.19927 0
M  V30 363 H 32.1042 -0.334019 3.21972 0
M  V30 364 H 31.0112 1.98282 3.1723 0
M  V30 365 H 32.3442 2.59206 4.18417 0
M  V30 366 N 33.9963 -1.19345 1.0293 0
M  V30 367 C 35.2213 -1.93538 0.745511 0
M  V30 368 C 35.6463 -1.75007 -0.689511 0
M  V30 369 O 35.0043 -1.05265 -1.47611 0
M  V30 370 C 35.0523 -3.43336 1.10239 0
M  V30 371 O 34.1563 -4.11806 0.221289 0
M  V30 372 H 33.4973 -0.604193 0.275404 0
M  V30 373 H 36.0273 -1.5141 1.37609 0
M  V30 374 H 36.0373 -3.94004 1.05947 0
M  V30 375 H 34.7123 -3.56146 2.14786 0
M  V30 376 H 33.2893 -3.715 0.322842 0
M  V30 377 N 35.4744 -0.807222 -1.35358 0
M  V30 378 C 36.4224 -0.20614 -2.31685 0
M  V30 379 C 37.4164 0.644445 -1.56663 0
M  V30 380 O 38.6224 0.537538 -1.71786 0
M  V30 381 H 34.9974 -0.0479006 -0.750473 0
M  V30 382 H 36.9684 -1.03369 -2.79924 0
M  V30 383 C 35.7174 0.630212 -3.41941 0
M  V30 384 H 35.0404 -0.0149558 -3.99797 0
M  V30 385 H 36.4804 1.01716 -4.11619 0
M  V30 386 C 34.9394 1.79601 -2.85035 0
M  V30 387 O 35.4694 2.89351 -2.78637 0
M  V30 388 N 33.6754 1.60774 -2.42074 0
M  V30 389 H 33.2224 0.715009 -2.47478 0
M  V30 390 H 33.1804 2.38933 -2.04349 0
M  V30 391 N 36.9525 1.47285 -0.560781 0
M  V30 392 C 38.1985 2.02764 -0.0381184 0
M  V30 393 C 38.5315 1.43384 1.30976 0
M  V30 394 O 37.8065 0.590733 1.85312 0
M  V30 395 C 38.0895 3.60064 0.0511427 0
M  V30 396 C 37.9425 4.2987 -1.32408 0
M  V30 397 C 39.2615 4.33439 0.762795 0
M  V30 398 H 36.3805 0.736841 -0.0153264 0
M  V30 399 H 39.0225 1.75675 -0.723759 0
M  V30 400 H 37.1725 3.83274 0.635065 0
M  V30 401 H 38.8445 4.17989 -1.95148 0
M  V30 402 H 37.0875 3.90085 -1.8978 0
M  V30 403 H 37.7585 5.38478 -1.21431 0
M  V30 404 H 40.2345 4.15243 0.266965 0
M  V30 405 H 39.1105 5.43124 0.794221 0
M  V30 406 H 39.3715 4.02915 1.81966 0
M  V30 407 N 38.4306 0.297415 1.54768 0
M  V30 408 C 39.8416 -0.195947 1.85669 0
M  V30 409 C 40.1926 -1.53707 1.21937 0
M  V30 410 O 39.3176 -2.10164 0.515754 0
M  V30 411 C 39.9126 -0.362318 3.36857 0
M  V30 412 C 38.4716 -0.799901 3.67802 0
M  V30 413 C 37.6186 0.0938578 2.77141 0
M  V30 414 H 40.5696 0.518538 1.4999 0
M  V30 415 H 40.5906 -1.19745 3.61167 0
M  V30 416 H 40.1026 0.613921 3.83214 0
M  V30 417 H 38.2036 -1.78682 3.26961 0
M  V30 418 H 38.3166 -0.621773 4.75048 0
M  V30 419 H 36.6806 -0.426254 2.51108 0
M  V30 420 H 37.4636 1.06639 3.26318 0
M  V30 421 N 39.9087 -1.5758 0.0250728 0
M  V30 422 C 40.8717 -2.08896 -0.943139 0
M  V30 423 C 41.8717 -1.00321 -1.25668 0
M  V30 424 O 43.0617 -1.26495 -1.19769 0
M  V30 425 C 40.1937 -2.55143 -2.26086 0
M  V30 426 H 41.3867 -2.95723 -0.498775 0
M  V30 427 H 38.9397 -1.54703 -0.222888 0
M  V30 428 H 39.6747 -1.71633 -2.75159 0
M  V30 429 H 39.4597 -3.34461 -2.04641 0
M  V30 430 H 40.9497 -2.95083 -2.95492 0
M  V30 431 N 41.3868 0.248026 -1.55636 0
M  V30 432 C 42.6348 0.974295 -1.77065 0
M  V30 433 C 42.9558 1.85897 -0.588849 0
M  V30 434 O 42.2258 1.91868 0.395407 0
M  V30 435 H 40.8058 0.362733 -0.653019 0
M  V30 436 H 43.4678 0.266244 -1.93073 0
M  V30 437 H 42.5638 1.59667 -2.68166 0
M  V30 438 N 42.8649 1.48995 0.513639 0
M  V30 439 C 43.8149 1.61127 1.61314 0
M  V30 440 C 44.7989 0.467521 1.53958 0
M  V30 441 O 45.9909 0.719826 1.61702 0
M  V30 442 C 43.1199 1.66937 2.99978 0
M  V30 443 C 42.2059 2.86847 3.12377 0
M  V30 444 N 42.5969 4.11078 2.94701 0
M  V30 445 C 40.8949 2.84521 3.43459 0
M  V30 446 C 41.5959 4.91615 3.10949 0
M  V30 447 N 40.5719 4.24739 3.3926 0
M  V30 448 H 44.3739 2.54909 1.46282 0
M  V30 449 H 41.8879 1.45593 0.719483 0
M  V30 450 H 43.8849 1.73725 3.78979 0
M  V30 451 H 42.5449 0.742831 3.16089 0
M  V30 452 H 43.5559 4.41258 2.71131 0
M  V30 453 H 40.2329 2.01192 3.65825 0
M  V30 454 H 41.6229 6.00264 3.01882 0
M  V30 455 N 44.343 -0.763751 1.37857 0
M  V30 456 C 45.571 -1.55293 1.36718 0
M  V30 457 C 45.986 -1.88745 -0.0455434 0
M  V30 458 O 45.343 -1.52039 -1.00947 0
M  V30 459 C 45.394 -2.85831 2.2132 0
M  V30 460 O 45.115 -2.5381 3.57089 0
M  V30 461 C 46.616 -3.80023 2.28249 0
M  V30 462 H 43.836 -0.480841 0.468009 0
M  V30 463 H 46.38 -0.946009 1.81303 0
M  V30 464 H 44.535 -3.42926 1.80223 0
M  V30 465 H 44.949 -3.37459 4.01524 0
M  V30 466 H 46.423 -4.68599 2.91752 0
M  V30 467 H 46.9 -4.1973 1.2932 0
M  V30 468 H 47.506 -3.28855 2.69693 0
M  V30 469 N 45.8211 -1.22559 -0.990812 0
M  V30 470 C 47.0701 -1.04553 -1.72486 0
M  V30 471 C 47.3831 0.419349 -1.91052 0
M  V30 472 O 48.5891 0.719121 -2.61803 0
M  V30 473 C 47.0451 -1.82231 -3.10355 0
M  V30 474 C 46.6531 -3.32981 -2.99713 0
M  V30 475 C 48.3971 -1.7268 -3.87791 0
M  V30 476 C 46.3041 -4.03091 -4.32748 0
M  V30 477 H 45.2341 -0.387614 -0.646739 0
M  V30 478 H 47.8851 -1.46429 -1.10593 0
M  V30 479 H 46.2671 -1.33155 -3.72942 0
M  V30 480 H 47.4411 -3.89466 -2.46278 0
M  V30 481 H 45.7561 -3.43231 -2.35758 0
M  V30 482 H 48.3531 -2.22381 -4.86262 0
M  V30 483 H 48.6961 -0.687607 -4.10582 0
M  V30 484 H 49.2291 -2.1931 -3.31885 0
M  V30 485 H 45.9681 -5.07273 -4.15156 0
M  V30 486 H 45.4881 -3.51394 -4.86089 0
M  V30 487 H 47.1671 -4.08804 -5.01486 0
M  V30 488 N 47.2992 1.18797 -1.03562 0
M  V30 489 C 48.7102 1.70322 -0.764676 0
M  V30 490 C 49.0612 1.82708 0.714996 0
M  V30 491 O 48.1862 1.50299 1.55689 0
M  V30 492 C 48.7812 3.09356 -1.38145 0
M  V30 493 C 47.3402 3.58114 -1.15895 0
M  V30 494 C 46.4872 2.34798 -1.4753 0
M  V30 495 H 49.4382 1.03543 -1.20268 0
M  V30 496 H 49.4592 3.72378 -0.781977 0
M  V30 497 H 48.9712 3.00309 -2.45837 0
M  V30 498 H 47.0722 3.72464 -0.100544 0
M  V30 499 H 47.1852 4.4184 -1.8524 0
M  V30 500 H 45.5492 2.38464 -0.894829 0
M  V30 501 H 46.3322 2.28375 -2.56319 0
M  V30 502 N 48.7773 0.814389 1.34928 0
M  V30 503 C 49.7093 0.187834 2.28429 0
M  V30 504 C 50.7223 -0.617374 1.5064 0
M  V30 505 O 51.9113 -0.448454 1.72775 0
M  V30 506 C 49.0113 -0.755962 3.30361 0
M  V30 507 C 48.1843 0.00456686 4.374 0
M  V30 508 C 47.2433 -0.858876 5.19143 0
M  V30 509 O 46.2693 -0.306968 5.68372 0
M  V30 510 N 47.4713 -2.17988 5.38016 0
M  V30 511 H 50.2363 0.991105 2.82838 0
M  V30 512 H 47.7973 0.670561 1.4736 0
M  V30 513 H 49.7893 -1.338 3.81942 0
M  V30 514 H 48.3593 -1.46001 2.7641 0
M  V30 515 H 47.5793 0.767865 3.86649 0
M  V30 516 H 48.8673 0.528422 5.06049 0
M  V30 517 H 48.2653 -2.65212 4.99679 0
M  V30 518 H 46.8223 -2.71098 5.92747 0
M  V30 519 N 50.2554 -1.46986 0.568584 0
M  V30 520 C 51.2184 -2.28624 -0.162366 0
M  V30 521 C 52.2184 -1.37596 -0.832103 0
M  V30 522 O 53.4084 -1.60115 -0.68622 0
M  V30 523 C 50.5404 -3.17596 -1.23878 0
M  V30 524 H 51.7334 -2.94722 0.554899 0
M  V30 525 H 49.2864 -1.52863 0.325976 0
M  V30 526 H 50.0214 -2.56214 -1.98808 0
M  V30 527 H 49.8064 -3.846 -0.763219 0
M  V30 528 H 51.2964 -3.79078 -1.75185 0
M  V30 529 N 51.7335 -0.305618 -1.54608 0
M  V30 530 C 52.6835 0.583595 -2.20405 0
M  V30 531 C 53.6675 1.09539 -1.17856 0
M  V30 532 O 54.8595 1.0354 -1.43557 0
M  V30 533 C 51.9885 1.75277 -2.95183 0
M  V30 534 C 51.0745 1.25672 -4.05052 0
M  V30 535 N 51.4655 0.478998 -5.03527 0
M  V30 536 C 49.7635 1.53704 -4.18678 0
M  V30 537 C 50.4645 0.214269 -5.81305 0
M  V30 538 N 49.4405 0.795374 -5.3775 0
M  V30 539 H 53.2425 -0.0180946 -2.93894 0
M  V30 540 H 50.7565 -0.110601 -1.62023 0
M  V30 541 H 52.7535 2.4014 -3.40791 0
M  V30 542 H 51.4135 2.35812 -2.23211 0
M  V30 543 H 52.4245 0.123473 -5.17753 0
M  V30 544 H 49.1015 2.14954 -3.57912 0
M  V30 545 H 50.4915 -0.410656 -6.70644 0
M  V30 546 N 53.2116 1.57565 -0.0334293 0
M  V30 547 C 54.4576 1.93088 0.639417 0
M  V30 548 C 54.8126 0.910589 1.69488 0
M  V30 549 O 54.1056 -0.0727725 1.91462 0
M  V30 550 C 54.2996 3.33112 1.29504 0
M  V30 551 C 54.1286 4.48667 0.304604 0
M  V30 552 C 52.8986 5.05207 -0.0970777 0
M  V30 553 C 55.0966 5.1239 -0.442845 0
M  V30 554 N 53.0786 6.04286 -1.08223 0
M  V30 555 C 54.4496 6.06609 -1.28161 0
M  V30 556 C 56.5046 4.95352 -0.50308 0
M  V30 557 C 55.2076 6.85622 -2.17519 0
M  V30 558 C 57.2336 5.74978 -1.38401 0
M  V30 559 C 56.5956 6.68816 -2.21054 0
M  V30 560 H 52.6946 0.754335 0.206161 0
M  V30 561 H 55.2786 1.94435 -0.101613 0
M  V30 562 H 53.4496 3.32576 2.00618 0
M  V30 563 H 55.1816 3.55972 1.92525 0
M  V30 564 H 51.9366 4.72782 0.278255 0
M  V30 565 H 52.3606 6.58516 -1.57117 0
M  V30 566 H 57.0026 4.22625 0.121694 0
M  V30 567 H 54.7206 7.57652 -2.81049 0
M  V30 568 H 58.3066 5.63826 -1.43496 0
M  V30 569 H 57.1866 7.29355 -2.88116 0
M  V30 570 N 54.6897 -0.239769 1.55765 0
M  V30 571 C 55.9177 -0.98417 1.81994 0
M  V30 572 C 56.3327 -1.7867 0.610124 0
M  V30 573 O 55.6897 -1.77571 -0.421271 0
M  V30 574 C 55.7407 -1.91635 3.06526 0
M  V30 575 O 55.4617 -1.14629 4.22838 0
M  V30 576 C 56.9627 -2.77616 3.45607 0
M  V30 577 H 54.1827 -0.28928 0.605441 0
M  V30 578 H 56.7267 -0.260499 2.02834 0
M  V30 579 H 54.8817 -2.5942 2.87715 0
M  V30 580 H 55.2957 -1.77745 4.93464 0
M  V30 581 H 56.7697 -3.38759 4.35828 0
M  V30 582 H 57.2467 -3.4909 2.6652 0
M  V30 583 H 57.8527 -2.15271 3.66795 0
M  V30 584 N 56.1678 -1.49265 -0.50573 0
M  V30 585 C 57.1148 -1.65585 -1.6078 0
M  V30 586 C 58.0848 -0.497396 -1.58478 0
M  V30 587 O 59.2698 -0.72385 -1.76536 0
M  V30 588 C 56.4098 -1.72408 -2.98948 0
M  V30 589 C 55.5228 -2.99525 -3.11301 0
M  V30 590 C 54.6578 -2.97356 -4.40174 0
M  V30 591 C 53.6968 -4.19074 -4.46143 0
M  V30 592 N 52.8338 -4.14841 -5.66437 0
M  V30 593 H 57.6738 -2.59688 -1.46172 0
M  V30 594 H 55.2108 -1.28761 -0.711261 0
M  V30 595 H 57.1688 -1.74344 -3.79025 0
M  V30 596 H 55.7988 -0.817753 -3.1227 0
M  V30 597 H 54.8508 -3.07222 -2.24318 0
M  V30 598 H 56.1628 -3.89518 -3.11572 0
M  V30 599 H 55.3168 -2.97829 -5.28567 0
M  V30 600 H 54.0558 -2.05133 -4.42461 0
M  V30 601 H 53.0608 -4.1885 -3.56153 0
M  V30 602 H 54.2858 -5.12483 -4.45575 0
M  V30 603 H 52.2318 -3.25453 -5.69575 0
M  V30 604 H 52.1488 -4.98564 -5.68304 0
M  V30 605 H 53.4168 -4.1941 -6.57051 0
M  V30 606 N 57.6459 0.756429 -1.3826 0
M  V30 607 C 58.5759 1.88374 -1.37976 0
M  V30 608 C 59.5569 1.68311 -0.246082 0
M  V30 609 O 60.7419 1.88944 -0.44874 0
M  V30 610 C 57.8719 3.25864 -1.20125 0
M  V30 611 C 56.8259 3.60523 -2.30666 0
M  V30 612 C 56.1519 4.9672 -1.97923 0
M  V30 613 C 57.4519 3.65692 -3.72916 0
M  V30 614 H 59.1459 1.88869 -2.32312 0
M  V30 615 H 56.6919 0.907272 -1.11824 0
M  V30 616 H 58.6449 4.0438 -1.18552 0
M  V30 617 H 57.3689 3.25841 -0.222498 0
M  V30 618 H 56.0279 2.84324 -2.3142 0
M  V30 619 H 55.6759 4.93253 -0.985393 0
M  V30 620 H 55.3759 5.20878 -2.71955 0
M  V30 621 H 56.8999 5.77618 -1.97964 0
M  V30 622 H 58.3139 4.34328 -3.74208 0
M  V30 623 H 56.7109 4.01358 -4.4613 0
M  V30 624 H 57.7809 2.65987 -4.05436 0
M  V30 625 N 59.124 1.23083 0.984299 0
M  V30 626 C 60.056 0.96636 2.07832 0
M  V30 627 C 61.069 -0.0582135 1.62696 0
M  V30 628 O 62.258 0.176843 1.77622 0
M  V30 629 C 59.358 0.433397 3.36117 0
M  V30 630 C 58.531 1.51722 4.10243 0
M  V30 631 C 57.59 0.989821 5.16807 0
M  V30 632 O 56.616 1.67794 5.43906 0
M  V30 633 N 57.818 -0.184367 5.80207 0
M  V30 634 H 60.583 1.90824 2.31098 0
M  V30 635 H 58.144 1.13888 1.1507 0
M  V30 636 H 60.136 0.065699 4.04647 0
M  V30 637 H 58.706 -0.413806 3.09849 0
M  V30 638 H 57.926 2.05786 3.36223 0
M  V30 639 H 59.214 2.24619 4.56534 0
M  V30 640 H 58.612 -0.760062 5.60571 0
M  V30 641 H 57.169 -0.493366 6.4993 0
M  V30 642 N 60.6021 -1.18246 1.0419 0
M  V30 643 C 61.5521 -2.19843 0.604392 0
M  V30 644 C 62.5361 -1.56962 -0.353814 0
M  V30 645 O 63.7281 -1.76156 -0.17267 0
M  V30 646 C 60.8571 -3.43287 -0.0298975 0
M  V30 647 C 59.9431 -4.13288 0.951531 0
M  V30 648 N 60.3341 -4.59271 2.11906 0
M  V30 649 C 58.6321 -4.39165 0.7778 0
M  V30 650 C 59.3331 -5.13173 2.73912 0
M  V30 651 N 58.3091 -5.04763 2.01779 0
M  V30 652 H 62.1111 -2.53089 1.4941 0
M  V30 653 H 59.6251 -1.34465 0.910658 0
M  V30 654 H 61.6221 -4.15334 -0.361037 0
M  V30 655 H 60.2821 -3.11537 -0.915127 0
M  V30 656 H 61.2931 -4.5368 2.49789 0
M  V30 657 H 57.9701 -4.17461 -0.0572331 0
M  V30 658 H 59.3601 -5.58947 3.72864 0
M  V30 659 N 62.0802 -0.821533 -1.34494 0
M  V30 660 C 63.3052 -0.420873 -2.03085 0
M  V30 661 C 63.7302 0.964915 -1.61465 0
M  V30 662 O 63.0882 1.62763 -0.798607 0
M  V30 663 C 63.1362 -0.529414 -3.56693 0
M  V30 664 O 62.2402 0.451302 -4.09923 0
M  V30 665 H 61.5812 -0.173489 -0.640935 0
M  V30 666 H 64.1112 -1.11157 -1.71771 0
M  V30 667 H 64.1212 -0.404671 -4.05988 0
M  V30 668 H 62.7962 -1.54014 -3.86332 0
M  V30 669 H 61.3732 0.285558 -3.71805 0
M  V30 670 N 63.5583 1.46682 -0.576371 0
M  V30 671 C 64.4883 2.33028 0.148397 0
M  V30 672 C 65.4693 1.44961 0.889956 0
M  V30 673 O 66.6543 1.73789 0.866662 0
M  V30 674 C 63.7843 3.27117 1.1667 0
M  V30 675 C 62.7383 4.24575 0.540386 0
M  V30 676 C 62.0643 5.08126 1.6647 0
M  V30 677 C 63.3643 5.19722 -0.518331 0
M  V30 678 H 65.0583 2.93875 -0.572509 0
M  V30 679 H 62.6043 1.41315 -0.276768 0
M  V30 680 H 64.5573 3.86374 1.68204 0
M  V30 681 H 63.2813 2.64364 1.9178 0
M  V30 682 H 61.9403 3.66571 0.0461769 0
M  V30 683 H 61.5883 4.41762 2.40531 0
M  V30 684 H 61.2883 5.74122 1.25131 0
M  V30 685 H 62.8123 5.70246 2.18293 0
M  V30 686 H 64.2263 5.73232 -0.0883058 0
M  V30 687 H 62.6233 5.94026 -0.851679 0
M  V30 688 H 63.6933 4.64037 -1.40703 0
M  V30 689 N 65.0364 0.313813 1.54444 0
M  V30 690 C 66.3134 -0.345447 1.92525 0
M  V30 691 C 66.6934 -1.70667 1.24242 0
M  V30 692 O 66.0414 -2.25273 0.382654 0
M  V30 693 C 66.2514 -0.44737 3.46121 0
M  V30 694 C 67.5994 -0.712238 4.18584 0
M  V30 695 O 68.6234 -0.530678 3.52225 0
M  V30 696 O 67.4824 -1.06183 5.36085 0
M  V30 697 H 64.5764 -0.195407 0.803583 0
M  V30 698 H 67.1224 0.362813 1.65776 0
M  V30 699 H 65.8944 0.509043 3.87975 0
M  V30 700 H 65.5174 -1.20359 3.78945 0
M  V30 701 N 66.5145 -1.57545 0.0417849 0
M  V30 702 C 67.7425 -1.96624 -0.643928 0
M  V30 703 C 68.1575 -0.918897 -1.64929 0
M  V30 704 O 67.5145 0.0979323 -1.82237 0
M  V30 705 C 67.5655 -3.35781 -1.33914 0
M  V30 706 O 67.2865 -4.365 -0.374048 0
M  V30 707 C 68.7875 -3.89566 -2.1155 0
M  V30 708 H 66.0075 -0.647316 -0.176702 0
M  V30 709 H 68.5515 -2.04229 0.105304 0
M  V30 710 H 66.7065 -3.29357 -2.03968 0
M  V30 711 H 67.1205 -5.17248 -0.869179 0
M  V30 712 H 68.5945 -4.89242 -2.55628 0
M  V30 713 H 69.0715 -3.24488 -2.9598 0
M  V30 714 H 69.6775 -3.99298 -1.46427 0
M  V30 715 N 67.9926 0.231505 -1.5589 0
M  V30 716 C 68.9556 1.27028 -1.90779 0
M  V30 717 C 69.9556 1.40308 -0.785507 0
M  V30 718 O 71.1456 1.38744 -1.05336 0
M  V30 719 C 68.2776 2.64566 -2.14983 0
M  V30 720 H 69.4706 0.973017 -2.83677 0
M  V30 721 H 67.0236 0.471486 -1.49019 0
M  V30 722 H 67.7586 2.99406 -1.24604 0
M  V30 723 H 67.5436 2.56305 -2.96732 0
M  V30 724 H 69.0336 3.39543 -2.43105 0
M  V30 725 N 69.4707 1.49531 0.497807 0
M  V30 726 C 70.4007 1.6935 1.60757 0
M  V30 727 C 71.3817 0.542218 1.61227 0
M  V30 728 O 72.5667 0.778417 1.77917 0
M  V30 729 C 69.6967 1.76298 2.99226 0
M  V30 730 C 68.6507 2.91248 3.13622 0
M  V30 731 C 67.9767 2.83312 4.53474 0
M  V30 732 C 69.2767 4.3214 2.93346 0
M  V30 733 H 70.9707 2.62263 1.44425 0
M  V30 734 H 68.5167 1.26208 0.693367 0
M  V30 735 H 70.4697 1.88749 3.76765 0
M  V30 736 H 69.1937 0.799871 3.16654 0
M  V30 737 H 67.8527 2.78404 2.38509 0
M  V30 738 H 67.5007 1.84902 4.67782 0
M  V30 739 H 67.2007 3.60465 4.64046 0
M  V30 740 H 68.7247 2.97775 5.33069 0
M  V30 741 H 70.1387 4.45649 3.60652 0
M  V30 742 H 68.5357 5.1054 3.15387 0
M  V30 743 H 69.6057 4.46363 1.89441 0
M  V30 744 N 70.9488 -0.749086 1.3866 0
M  V30 745 C 72.3648 -1.05276 1.19955 0
M  V30 746 C 72.5648 -2.01435 0.05134 0
M  V30 747 O 71.6208 -2.45232 -0.60147 0
M  V30 748 C 72.9338 -1.62853 2.52783 0
M  V30 749 C 74.4818 -1.75002 2.59506 0
M  V30 750 C 74.9568 -2.35991 3.92521 0
M  V30 751 N 76.4478 -2.43416 3.94085 0
M  V30 752 C 77.1828 -2.91511 4.9377 0
M  V30 753 N 76.6788 -3.39608 6.03853 0
M  V30 754 N 78.4718 -2.90592 4.81157 0
M  V30 755 H 70.6228 -0.111066 2.12109 0
M  V30 756 H 72.8858 -0.111901 0.941373 0
M  V30 757 H 72.5918 -0.99664 3.37283 0
M  V30 758 H 72.4658 -2.61854 2.715 0
M  V30 759 H 74.8528 -2.37317 1.75398 0
M  V30 760 H 74.9338 -0.74693 2.44652 0
M  V30 761 H 74.5778 -1.74308 4.77053 0
M  V30 762 H 74.5078 -3.3695 4.04688 0
M  V30 763 H 76.9988 -2.09405 3.14576 0
M  V30 764 H 77.3118 -3.74775 6.75843 0
M  V30 765 H 75.6568 -3.37653 6.07466 0
M  V30 766 H 78.8478 -2.52332 3.94267 0
M  V30 767 H 79.0208 -3.27762 5.58996 0
M  V30 768 N 72.4269 -1.23603 -0.977757 0
M  V30 769 C 73.8429 -0.999251 -1.24447 0
M  V30 770 C 74.0429 0.298053 -1.99283 0
M  V30 771 O 73.0989 1.01681 -2.31122 0
M  V30 772 C 74.4119 -2.20784 -2.04144 0
M  V30 773 C 75.9599 -2.25303 -2.17273 0
M  V30 774 C 76.4349 -3.45755 -3.00362 0
M  V30 775 N 77.9259 -3.4601 -3.07947 0
M  V30 776 C 78.6609 -4.35868 -3.72568 0
M  V30 777 N 78.1569 -5.35966 -4.38991 0
M  V30 778 N 79.9499 -4.23605 -3.6948 0
M  V30 779 H 72.1009 -2.06986 -0.476483 0
M  V30 780 H 74.3639 -0.907801 -0.273134 0
M  V30 781 H 74.0699 -3.14945 -1.56533 0
M  V30 782 H 73.9439 -2.22085 -3.04891 0
M  V30 783 H 76.3309 -1.3168 -2.64092 0
M  V30 784 H 76.4119 -2.28033 -1.15907 0
M  V30 785 H 76.0559 -4.39687 -2.5424 0
M  V30 786 H 75.9859 -3.40266 -4.01904 0
M  V30 787 H 78.4769 -2.73588 -2.60688 0
M  V30 788 H 78.7899 -6.00783 -4.86086 0
M  V30 789 H 77.1349 -5.39863 -4.37691 0
M  V30 790 H 80.3259 -3.44647 -3.16759 0
M  V30 791 H 80.4989 -4.93836 -4.1956 0
M  V30 792 N 73.905 1.17692 -1.04816 0
M  V30 793 C 74.868 2.19787 -0.650117 0
M  V30 794 C 75.868 1.58044 0.296427 0
M  V30 795 O 77.058 1.74012 0.0808097 0
M  V30 796 C 74.19 3.40869 0.0456987 0
M  V30 797 H 75.383 2.56516 -1.5537 0
M  V30 798 H 72.936 1.31708 -0.841594 0
M  V30 799 H 73.671 3.09681 0.962726 0
M  V30 800 H 73.456 3.86928 -0.634727 0
M  V30 801 H 74.946 4.16445 0.310432 0
M  V30 802 N 75.3831 0.828654 1.34056 0
M  V30 803 C 76.7991 0.515135 1.51058 0
M  V30 804 C 76.9991 -0.959581 1.77184 0
M  V30 805 O 76.0551 -1.74382 1.82612 0
M  V30 806 C 77.3681 1.37963 2.67183 0
M  V30 807 C 78.9161 1.37735 2.81066 0
M  V30 808 C 79.3911 2.22645 4.00241 0
M  V30 809 N 80.8821 2.203 4.07458 0
M  V30 810 C 81.6171 2.82744 4.98842 0
M  V30 811 N 81.1131 3.54201 5.9541 0
M  V30 812 N 82.9061 2.72268 4.91759 0
M  V30 813 H 75.0571 1.78343 1.15358 0
M  V30 814 H 77.3201 0.760304 0.566252 0
M  V30 815 H 77.0261 2.42714 2.54525 0
M  V30 816 H 76.9001 1.0484 3.62338 0
M  V30 817 H 79.2871 0.337593 2.93163 0
M  V30 818 H 79.3681 1.74859 1.86703 0
M  V30 819 H 79.0121 3.26674 3.88905 0
M  V30 820 H 78.9421 1.82869 4.93829 0
M  V30 821 H 81.4331 1.68327 3.38341 0
M  V30 822 H 81.7461 3.9908 6.61782 0
M  V30 823 H 80.0911 3.58308 5.95517 0
M  V30 824 H 83.2821 2.16014 4.15278 0
M  V30 825 H 83.4551 3.21219 5.62781 0
M  V30 826 N 76.8612 -1.46375 0.584142 0
M  V30 827 C 78.0862 -2.07268 0.0740405 0
M  V30 828 C 78.5112 -1.42979 -1.22223 0
M  V30 829 O 77.8692 -0.514092 -1.73859 0
M  V30 830 C 77.9172 -3.60518 -0.0767769 0
M  V30 831 O 77.0212 -3.96533 -1.13292 0
M  V30 832 H 76.3622 -0.660961 0.0634524 0
M  V30 833 H 78.8922 -1.87991 0.807492 0
M  V30 834 H 78.9022 -4.07021 -0.282489 0
M  V30 835 H 77.5772 -4.06702 0.86986 0
M  V30 836 H 76.1542 -3.61738 -0.905553 0
M  V30 837 N 78.3393 -0.321999 -1.54275 0
M  V30 838 C 79.3023 0.531975 -2.22941 0
M  V30 839 C 80.3023 1.04478 -1.22234 0
M  V30 840 O 81.4923 0.937452 -1.46825 0
M  V30 841 C 78.6243 1.73874 -2.93224 0
M  V30 842 H 79.8173 -0.0682612 -2.99822 0
M  V30 843 H 77.3703 -0.0730644 -1.56129 0
M  V30 844 H 78.1053 2.37825 -2.20476 0
M  V30 845 H 77.8903 1.37847 -3.6707 0
M  V30 846 H 79.3803 2.34496 -3.45545 0
M  V30 847 N 79.8174 1.5752 -0.0501392 0
M  V30 848 C 81.2284 1.80271 0.485705 0
M  V30 849 C 81.5794 0.96228 1.70981 0
M  V30 850 O 80.7044 0.178578 2.15662 0
M  V30 851 C 81.2994 3.26957 0.887938 0
M  V30 852 C 79.8584 3.5063 1.36877 0
M  V30 853 C 79.0054 2.75165 0.343468 0
M  V30 854 H 81.9564 1.56281 -0.276028 0
M  V30 855 H 81.9774 3.37821 1.75093 0
M  V30 856 H 81.4894 3.881 -0.0031809 0
M  V30 857 H 79.5904 2.94766 2.27911 0
M  V30 858 H 79.7034 4.59343 1.36164 0
M  V30 859 H 78.0674 2.4127 0.816128 0
M  V30 860 H 78.8504 3.39034 -0.539548 0
M  V30 861 N 81.2955 -0.223234 1.56011 0
M  V30 862 C 82.2585 -1.26014 1.9145 0
M  V30 863 C 83.2585 -1.3989 0.792937 0
M  V30 864 O 84.4485 -1.38184 1.0607 0
M  V30 865 C 81.5805 -2.63422 2.16383 0
M  V30 866 H 82.7735 -0.95796 2.84189 0
M  V30 867 H 80.3265 -0.463576 1.49267 0
M  V30 868 H 81.0615 -2.98741 1.2619 0
M  V30 869 H 80.8465 -2.54728 2.98088 0
M  V30 870 H 82.3365 -3.38249 2.44903 0
M  V30 871 N 82.7736 -1.49793 -0.48987 0
M  V30 872 C 83.7366 -1.66752 -1.57246 0
M  V30 873 C 84.7366 -0.538867 -1.51502 0
M  V30 874 O 85.9266 -0.805545 -1.54456 0
M  V30 875 C 83.0586 -1.67528 -2.96896 0
M  V30 876 H 84.2516 -2.63321 -1.43534 0
M  V30 877 H 81.8046 -1.38992 -0.714914 0
M  V30 878 H 82.5396 -0.725837 -3.16073 0
M  V30 879 H 82.3246 -2.49504 -3.02473 0
M  V30 880 H 83.8146 -1.82667 -3.7553 0
M  V30 881 N 84.2517 0.741722 -1.39055 0
M  V30 882 C 85.2147 1.83733 -1.37021 0
M  V30 883 C 86.2147 1.58542 -0.268534 0
M  V30 884 O 87.4047 1.66067 -0.526076 0
M  V30 885 C 84.5367 3.2141 -1.13617 0
M  V30 886 H 85.7297 1.86941 -2.34506 0
M  V30 887 H 83.2827 0.944676 -1.24521 0
M  V30 888 H 84.0177 3.23865 -0.167863 0
M  V30 889 H 83.8027 3.4109 -1.93391 0
M  V30 890 H 85.2927 4.01477 -1.14918 0
M  V30 891 N 85.7298 1.2412 0.971189 0
M  V30 892 C 86.9788 1.07284 1.70801 0
M  V30 893 C 87.2918 -0.388902 1.91695 0
M  V30 894 O 88.4978 -0.677379 2.62914 0
M  V30 895 C 86.9538 1.87145 3.07416 0
M  V30 896 C 86.5618 3.37707 2.94377 0
M  V30 897 C 88.3058 1.78828 3.84995 0
M  V30 898 C 86.2128 4.09925 4.26281 0
M  V30 899 H 85.1428 0.397854 0.64049 0
M  V30 900 H 87.7938 1.4817 1.0825 0
M  V30 901 H 86.1758 1.39071 3.70777 0
M  V30 902 H 87.3498 3.93335 2.4005 0
M  V30 903 H 85.6648 3.46938 2.30267 0
M  V30 904 H 88.2618 2.30089 4.82662 0
M  V30 905 H 88.6048 0.75284 4.09436 0
M  V30 906 H 89.1378 2.24563 3.28354 0
M  V30 907 H 85.8768 5.13813 4.07033 0
M  V30 908 H 85.3968 3.59083 4.80437 0
M  V30 909 H 87.0758 4.1673 4.94919 0
M  V30 910 N 87.2079 -1.17134 1.05439 0
M  V30 911 C 88.1709 -2.19439 0.661764 0
M  V30 912 C 89.1709 -1.58199 -0.288042 0
M  V30 913 O 90.3609 -1.74053 -0.0715803 0
M  V30 914 C 87.4929 -3.40889 -0.0276209 0
M  V30 915 H 88.6859 -2.55688 1.56728 0
M  V30 916 H 86.2389 -1.31259 0.848567 0
M  V30 917 H 86.9739 -3.10187 -0.94629 0
M  V30 918 H 86.7589 -3.86586 0.655238 0
M  V30 919 H 88.2489 -4.16603 -0.288342 0
M  V30 920 N 88.686 -0.835752 -1.33615 0
M  V30 921 C 89.649 -0.272 -2.2758 0
M  V30 922 C 90.649 0.557487 -1.50827 0
M  V30 923 O 91.839 0.37173 -1.70188 0
M  V30 924 C 88.971 0.617173 -3.35267 0
M  V30 925 H 90.164 -1.10111 -2.78954 0
M  V30 926 H 87.717 -0.608594 -1.43965 0
M  V30 927 H 88.452 1.46884 -2.89129 0
M  V30 928 H 88.237 0.0237066 -3.92093 0
M  V30 929 H 89.727 1.005 -4.05326 0
M  V30 930 N 90.1641 1.46063 -0.591896 0
M  V30 931 C 91.5801 1.57561 -0.254288 0
M  V30 932 C 91.7801 1.58565 1.24336 0
M  V30 933 O 90.8361 1.50753 2.02558 0
M  V30 934 C 92.1491 2.86549 -0.911611 0
M  V30 935 C 93.6971 3.00197 -0.886059 0
M  V30 936 C 94.1721 4.31933 -1.5231 0
M  V30 937 N 95.6631 4.38654 -1.48786 0
M  V30 938 C 96.3981 5.39222 -1.95006 0
M  V30 939 N 95.8941 6.46414 -2.49241 0
M  V30 940 N 97.6871 5.3048 -1.85868 0
M  V30 941 H 89.8381 1.43655 -1.56451 0
M  V30 942 H 92.1011 0.68583 -0.654478 0
M  V30 943 H 91.8071 2.91651 -1.96551 0
M  V30 944 H 91.6811 3.74794 -0.425368 0
M  V30 945 H 94.0681 2.9467 0.159246 0
M  V30 946 H 94.1491 2.13403 -1.41041 0
M  V30 947 H 93.7931 4.38217 -2.56765 0
M  V30 948 H 93.7231 5.17516 -0.973891 0
M  V30 949 H 96.2141 3.61793 -1.09151 0
M  V30 950 H 96.5271 7.19376 -2.82344 0
M  V30 951 H 94.8721 6.47208 -2.53272 0
M  V30 952 H 98.0631 4.45643 -1.43248 0
M  V30 953 H 98.2361 6.08711 -2.22204 0
M  V30 954 N 91.6422 0.330177 1.54103 0
M  V30 955 C 92.8882 -0.270806 2.00984 0
M  V30 956 C 93.2212 -1.51265 1.21789 0
M  V30 957 O 92.4962 -1.92142 0.301927 0
M  V30 958 C 92.7792 -0.598339 3.55094 0
M  V30 959 C 92.6322 0.654674 4.4501 0
M  V30 960 C 93.9512 -1.41334 4.16789 0
M  V30 961 H 91.0702 -0.0969531 0.730595 0
M  V30 962 H 93.7122 0.448066 1.84641 0
M  V30 963 H 91.8622 -1.21078 3.69151 0
M  V30 964 H 93.5342 1.29285 4.42813 0
M  V30 965 H 91.7772 1.28224 4.14416 0
M  V30 966 H 92.4482 0.380944 5.50684 0
M  V30 967 H 94.9242 -0.895597 4.06347 0
M  V30 968 H 93.8002 -1.61127 5.24718 0
M  V30 969 H 94.0612 -2.41146 3.70541 0
M  V30 970 N 93.1203 -1.57491 0.0584922 0
M  V30 971 C 94.0833 -2.1085 -0.898617 0
M  V30 972 C 95.0833 -1.02964 -1.23511 0
M  V30 973 O 96.2733 -1.29007 -1.17059 0
M  V30 974 C 93.4053 -2.59881 -2.20623 0
M  V30 975 H 94.5983 -2.96715 -0.435936 0
M  V30 976 H 92.1513 -1.55141 -0.190023 0
M  V30 977 H 92.8863 -1.77431 -2.71457 0
M  V30 978 H 92.6713 -3.38727 -1.97501 0
M  V30 979 H 94.1613 -3.01285 -2.89166 0
M  V30 980 N 94.5984 0.214957 -1.56127 0
M  V30 981 C 95.8464 0.936518 -1.79091 0
M  V30 982 C 96.1674 1.84606 -0.628148 0
M  V30 983 O 95.4374 1.92664 0.35462 0
M  V30 984 H 94.0174 0.3488 -0.660566 0
M  V30 985 H 96.6794 0.22523 -1.93594 0
M  V30 986 H 95.7754 1.53943 -2.71492 0
M  V30 987 N 96.0765 1.50051 0.48192 0
M  V30 988 C 97.0085 1.64263 1.59844 0
M  V30 989 C 98.0215 0.52451 1.54119 0
M  V30 990 O 99.2105 0.797293 1.59704 0
M  V30 991 C 96.3105 1.60102 2.98698 0
M  V30 992 C 95.4835 2.87767 3.29407 0
M  V30 993 C 94.5425 2.76397 4.47762 0
M  V30 994 O 93.5685 3.50348 4.48603 0
M  V30 995 N 94.7705 1.89222 5.48794 0
M  V30 996 H 97.5355 2.60566 1.48073 0
M  V30 997 H 95.0965 1.47379 0.670149 0
M  V30 998 H 97.0885 1.50123 3.75826 0
M  V30 999 H 95.6585 0.715798 3.04294 0
M  V30 1000 H 94.8785 3.11954 2.40994 0
M  V30 1001 H 96.1665 3.72365 3.4673 0
M  V30 1002 H 95.5645 1.28434 5.50928 0
M  V30 1003 H 94.1215 1.85154 6.24949 0
M  V30 1004 N 97.5546 -0.734337 1.39446 0
M  V30 1005 C 98.7826 -1.52358 1.39981 0
M  V30 1006 C 99.1976 -1.88799 -0.0054975 0
M  V30 1007 O 98.5546 -1.54146 -0.976998 0
M  V30 1008 C 98.6056 -2.81072 2.27333 0
M  V30 1009 O 98.3266 -2.46178 3.62392 0
M  V30 1010 C 99.8276 -3.75096 2.36259 0
M  V30 1011 H 97.0476 -0.470806 0.478103 0
M  V30 1012 H 99.5916 -0.907339 1.83269 0
M  V30 1013 H 97.7466 -3.39026 1.87457 0
M  V30 1014 H 98.1606 -3.28866 4.08592 0
M  V30 1015 H 99.6346 -4.62305 3.01626 0
M  V30 1016 H 100.112 -4.16892 1.38194 0
M  V30 1017 H 100.718 -3.23061 2.76608 0
M  V30 1018 N 99.0327 -1.24633 -0.964593 0
M  V30 1019 C 100.449 -1.01239 -1.2338 0
M  V30 1020 C 100.649 0.2769 -1.99588 0
M  V30 1021 O 99.7047 0.992241 -2.32187 0
M  V30 1022 C 101.018 -2.22937 -2.01791 0
M  V30 1023 C 102.566 -2.27594 -2.14872 0
M  V30 1024 C 103.041 -3.48921 -2.96678 0
M  V30 1025 N 104.532 -3.49257 -3.04259 0
M  V30 1026 C 105.267 -4.39795 -3.67924 0
M  V30 1027 N 104.763 -5.40591 -4.33281 0
M  V30 1028 N 106.556 -4.275 -3.64966 0
M  V30 1029 H 98.7067 -2.0748 -0.454502 0
M  V30 1030 H 100.97 -0.910647 -0.26349 0
M  V30 1031 H 100.676 -3.16587 -1.53184 0
M  V30 1032 H 100.55 -2.25306 -3.02518 0
M  V30 1033 H 102.937 -1.34473 -2.6268 0
M  V30 1034 H 103.018 -2.2925 -1.13482 0
M  V30 1035 H 102.662 -4.42359 -2.49562 0
M  V30 1036 H 102.592 -3.4451 -3.98272 0
M  V30 1037 H 105.083 -2.76337 -2.57771 0
M  V30 1038 H 105.396 -6.05904 -4.79687 0
M  V30 1039 H 103.741 -5.44475 -4.3194 0
M  V30 1040 H 106.932 -3.47987 -3.13086 0
M  V30 1041 H 107.105 -4.98258 -4.14298 0
M  V30 1042 N 100.511 1.16574 -1.06058 0
M  V30 1043 C 101.459 2.22941 -0.663343 0
M  V30 1044 C 102.453 1.66358 0.319593 0
M  V30 1045 O 103.659 1.7905 0.184713 0
M  V30 1046 H 100.034 0.725907 -0.196376 0
M  V30 1047 H 102.005 2.53736 -1.57037 0
M  V30 1048 C 100.754 3.47642 -0.0632808 0
M  V30 1049 H 100.077 3.91493 -0.810733 0
M  V30 1050 H 101.517 4.2363 0.177177 0
M  V30 1051 C 99.9758 3.1509 1.19248 0
M  V30 1052 O 100.506 3.30673 2.28075 0
M  V30 1053 N 98.7118 2.6924 1.09353 0
M  V30 1054 H 98.2588 2.5676 0.207912 0
M  V30 1055 H 98.2168 2.47833 1.93458 0
M  V30 1056 N 101.989 0.842826 1.3317 0
M  V30 1057 C 103.238 0.436738 1.96915 0
M  V30 1058 C 103.551 -1.01025 1.67491 0
M  V30 1059 O 104.757 -1.5212 2.24881 0
M  V30 1060 C 103.213 0.730021 3.52418 0
M  V30 1061 C 102.821 2.19195 3.90714 0
M  V30 1062 C 104.565 0.391076 4.22695 0
M  V30 1063 C 102.472 2.42907 5.39212 0
M  V30 1064 H 101.402 0.15958 0.736919 0
M  V30 1065 H 104.053 1.03196 1.51733 0
M  V30 1066 H 102.435 0.0643755 3.95948 0
M  V30 1067 H 103.609 2.8984 3.58231 0
M  V30 1068 H 101.924 2.49425 3.33431 0
M  V30 1069 H 104.521 0.545817 5.31907 0
M  V30 1070 H 104.864 -0.666294 4.10933 0
M  V30 1071 H 105.397 1.01212 3.84709 0
M  V30 1072 H 102.136 3.47224 5.55982 0
M  V30 1073 H 101.656 1.76827 5.73142 0
M  V30 1074 H 103.335 2.2626 6.06148 0
M  V30 1075 N 103.467 -1.45747 0.599634 0
M  V30 1076 C 104.695 -2.06668 0.0978551 0
M  V30 1077 C 105.11 -1.44562 -1.21439 0
M  V30 1078 O 104.467 -0.556923 -1.73795 0
M  V30 1079 C 104.518 -3.61456 -0.0567044 0
M  V30 1080 O 104.239 -4.21242 1.20361 0
M  V30 1081 C 105.74 -4.39345 -0.590869 0
M  V30 1082 H 102.96 -0.667825 0.0651943 0
M  V30 1083 H 105.504 -1.87115 0.82511 0
M  V30 1084 H 103.659 -3.80378 -0.734251 0
M  V30 1085 H 104.073 -5.14323 1.02821 0
M  V30 1086 H 105.547 -5.48182 -0.648131 0
M  V30 1087 H 106.024 -4.08568 -1.61147 0
M  V30 1088 H 106.63 -4.25268 0.0523679 0
M  V30 1089 N 104.945 -0.338344 -1.53925 0
M  V30 1090 C 106.191 0.260143 -2.01125 0
M  V30 1091 C 106.524 1.50617 -1.22589 0
M  V30 1092 O 105.799 1.91979 -0.312113 0
M  V30 1093 C 106.082 0.579499 -3.55407 0
M  V30 1094 C 105.935 -0.678264 -4.44657 0
M  V30 1095 C 107.254 1.39122 -4.17532 0
M  V30 1096 H 104.373 0.0930772 -0.731099 0
M  V30 1097 H 107.015 -0.457852 -1.84401 0
M  V30 1098 H 105.165 1.19118 -3.69788 0
M  V30 1099 H 106.837 -1.31631 -4.42121 0
M  V30 1100 H 105.08 -1.3042 -4.13731 0
M  V30 1101 H 105.751 -0.410143 -5.50474 0
M  V30 1102 H 108.227 0.874035 -4.06817 0
M  V30 1103 H 107.103 1.58342 -5.25565 0
M  V30 1104 H 107.364 2.39178 -3.71815 0
M  V30 1105 N 106.423 1.57458 -0.0668435 0
M  V30 1106 C 107.7 1.8469 0.644132 0
M  V30 1107 C 108.08 0.958343 1.88093 0
M  V30 1108 O 107.428 0.0233579 2.28488 0
M  V30 1109 C 107.638 3.34767 0.986509 0
M  V30 1110 C 108.986 4.02159 1.36212 0
M  V30 1111 O 110.01 3.39484 1.07839 0
M  V30 1112 O 108.869 5.12694 1.89227 0
M  V30 1113 H 105.963 0.762816 0.319437 0
M  V30 1114 H 108.509 1.6942 -0.0973986 0
M  V30 1115 H 107.281 3.91151 0.107883 0
M  V30 1116 H 106.904 3.55281 1.78497 0
M  V30 1117 N 107.901 -0.206675 1.56239 0
M  V30 1118 C 109.312 -0.772383 1.69974 0
M  V30 1119 C 109.663 -1.84353 0.671436 0
M  V30 1120 O 108.788 -2.15695 -0.174491 0
M  V30 1121 C 109.383 -1.40779 3.08167 0
M  V30 1122 C 107.942 -1.92072 3.23706 0
M  V30 1123 C 107.089 -0.786347 2.65917 0
M  V30 1124 H 110.04 0.0182223 1.5869 0
M  V30 1125 H 110.061 -2.27696 3.04852 0
M  V30 1126 H 109.573 -0.627958 3.82986 0
M  V30 1127 H 107.674 -2.7281 2.53782 0
M  V30 1128 H 107.787 -2.09046 4.31087 0
M  V30 1129 H 106.151 -1.1976 2.24788 0
M  V30 1130 H 106.934 -0.0189416 3.43295 0
M  V30 1131 N 109.379 -1.50304 -0.473955 0
M  V30 1132 C 110.795 -1.37667 -0.807466 0
M  V30 1133 C 110.995 -0.430555 -1.96846 0
M  V30 1134 O 110.051 0.127874 -2.52176 0
M  V30 1135 C 111.364 -2.78974 -1.12223 0
M  V30 1136 C 112.912 -2.87868 -1.22885 0
M  V30 1137 C 113.387 -4.30003 -1.57676 0
M  V30 1138 N 114.878 -4.3294 -1.64673 0
M  V30 1139 C 115.613 -5.3991 -1.93091 0
M  V30 1140 N 115.109 -6.57092 -2.1955 0
M  V30 1141 N 116.902 -5.27351 -1.94569 0
M  V30 1142 H 109.053 -2.10394 0.291212 0
M  V30 1143 H 111.316 -0.945575 0.0677609 0
M  V30 1144 H 111.022 -3.50031 -0.342229 0
M  V30 1145 H 110.896 -3.16038 -2.05913 0
M  V30 1146 H 113.283 -2.17032 -1.99953 0
M  V30 1147 H 113.364 -2.54352 -0.271814 0
M  V30 1148 H 113.008 -5.01375 -0.81149 0
M  V30 1149 H 112.938 -4.61004 -2.54525 0
M  V30 1150 H 115.429 -3.48441 -1.46277 0
M  V30 1151 H 115.742 -7.34425 -2.405 0
M  V30 1152 H 114.087 -6.60272 -2.16948 0
M  V30 1153 H 117.278 -4.34801 -1.73394 0
M  V30 1154 H 117.451 -6.10805 -2.16381 0
M  V30 1155 N 110.857 0.726932 -1.39834 0
M  V30 1156 C 111.787 1.85405 -1.41941 0
M  V30 1157 C 112.768 1.67751 -0.281728 0
M  V30 1158 O 113.953 1.8795 -0.488717 0
M  V30 1159 C 111.083 3.23243 -1.2701 0
M  V30 1160 C 110.037 3.55549 -2.38262 0
M  V30 1161 C 109.363 4.9241 -2.08415 0
M  V30 1162 C 110.663 3.577 -3.80589 0
M  V30 1163 H 112.357 1.83899 -2.36266 0
M  V30 1164 H 109.903 0.883349 -1.13723 0
M  V30 1165 H 111.856 4.01775 -1.27103 0
M  V30 1166 H 110.58 3.25296 -0.291564 0
M  V30 1167 H 109.239 2.79351 -2.37399 0
M  V30 1168 H 108.887 4.91052 -1.0898 0
M  V30 1169 H 108.587 5.14992 -2.82943 0
M  V30 1170 H 110.111 5.73289 -2.10171 0
M  V30 1171 H 111.525 4.26293 -3.83337 0
M  V30 1172 H 109.922 3.91804 -4.54543 0
M  V30 1173 H 110.992 2.57328 -4.10987 0
M  V30 1174 N 112.336 1.25143 0.95797 0
M  V30 1175 C 113.583 1.09692 1.70217 0
M  V30 1176 C 113.911 -0.362654 1.91089 0
M  V30 1177 O 113.166 -1.28386 1.47701 0
M  V30 1178 C 113.465 1.79272 3.09187 0
M  V30 1179 C 113.131 3.29196 3.08125 0
M  V30 1180 C 111.793 3.70096 3.07543 0
M  V30 1181 C 114.145 4.24995 3.0171 0
M  V30 1182 C 111.473 5.05213 2.9829 0
M  V30 1183 C 113.825 5.60132 2.93999 0
M  V30 1184 C 112.489 6.00365 2.9175 0
M  V30 1185 H 111.759 0.401393 0.622868 0
M  V30 1186 H 114.406 1.55372 1.11945 0
M  V30 1187 H 112.711 1.26014 3.70982 0
M  V30 1188 H 114.408 1.64773 3.65583 0
M  V30 1189 H 110.998 2.96651 3.09348 0
M  V30 1190 H 115.182 3.9439 3.01281 0
M  V30 1191 H 110.438 5.35569 2.94916 0
M  V30 1192 H 114.612 6.3406 2.87996 0
M  V30 1193 H 112.239 7.05023 2.84336 0
M  V30 1194 N 113.814 -1.1601 1.06675 0
M  V30 1195 C 114.761 -2.20525 0.680967 0
M  V30 1196 C 115.731 -1.62904 -0.324283 0
M  V30 1197 O 116.916 -1.89615 -0.212294 0
M  V30 1198 C 114.056 -3.45013 0.0776551 0
M  V30 1199 C 113.169 -4.16863 1.13355 0
M  V30 1200 C 112.304 -5.2888 0.49597 0
M  V30 1201 C 111.343 -5.92537 1.53513 0
M  V30 1202 N 110.48 -6.96038 0.920631 0
M  V30 1203 H 115.32 -2.52876 1.57663 0
M  V30 1204 H 112.857 -1.24199 0.788223 0
M  V30 1205 H 114.815 -4.16193 -0.289704 0
M  V30 1206 H 113.445 -3.132 -0.781393 0
M  V30 1207 H 112.497 -3.44248 1.61857 0
M  V30 1208 H 113.809 -4.60294 1.92174 0
M  V30 1209 H 112.963 -6.06653 0.0758604 0
M  V30 1210 H 111.702 -4.86622 -0.324062 0
M  V30 1211 H 110.707 -5.13482 1.9651 0
M  V30 1212 H 111.932 -6.36873 2.35733 0
M  V30 1213 H 109.878 -6.55888 0.12138 0
M  V30 1214 H 109.795 -7.3786 1.64616 0
M  V30 1215 H 111.063 -7.77725 0.525795 0
M  V30 1216 N 115.292 -0.849877 -1.32721 0
M  V30 1217 C 116.239 -0.289033 -2.28983 0
M  V30 1218 C 117.209 0.601324 -1.54833 0
M  V30 1219 O 118.394 0.537253 -1.8308 0
M  V30 1220 C 115.534 0.520623 -3.4115 0
M  V30 1221 C 114.647 -0.394989 -4.3019 0
M  V30 1222 C 113.782 0.426834 -5.29482 0
M  V30 1223 C 112.821 -0.486476 -6.10164 0
M  V30 1224 N 111.958 0.297879 -7.01468 0
M  V30 1225 H 116.798 -1.11519 -2.76347 0
M  V30 1226 H 114.335 -0.56138 -1.35967 0
M  V30 1227 H 116.293 1.00563 -4.04899 0
M  V30 1228 H 114.923 1.31165 -2.9495 0
M  V30 1229 H 113.975 -0.99836 -3.67065 0
M  V30 1230 H 115.287 -1.09612 -4.86607 0
M  V30 1231 H 114.441 0.975205 -5.98811 0
M  V30 1232 H 113.18 1.16136 -4.73671 0
M  V30 1233 H 112.185 -1.04677 -5.39743 0
M  V30 1234 H 113.41 -1.21953 -6.6806 0
M  V30 1235 H 111.356 1.01558 -6.48091 0
M  V30 1236 H 111.273 -0.344318 -7.55216 0
M  V30 1237 H 112.541 0.828131 -7.75089 0
M  V30 1238 N 116.77 1.45427 -0.607355 0
M  V30 1239 C 118.186 1.57283 -0.270985 0
M  V30 1240 C 118.386 1.59875 1.22647 0
M  V30 1241 O 117.442 1.52893 2.00948 0
M  V30 1242 C 118.755 2.85566 -0.941952 0
M  V30 1243 C 120.303 2.9924 -0.917849 0
M  V30 1244 C 120.778 4.30293 -1.56882 0
M  V30 1245 N 122.269 4.37051 -1.5343 0
M  V30 1246 C 123.004 5.37123 -2.00715 0
M  V30 1247 N 122.5 6.43734 -2.56084 0
M  V30 1248 N 124.293 5.28479 -1.91484 0
M  V30 1249 H 116.444 1.41988 -1.57966 0
M  V30 1250 H 118.707 0.67885 -0.661715 0
M  V30 1251 H 118.413 2.8955 -1.99633 0
M  V30 1252 H 118.287 3.74322 -0.465096 0
M  V30 1253 H 120.674 2.94822 0.127984 0
M  V30 1254 H 120.755 2.11895 -1.43297 0
M  V30 1255 H 120.399 4.35469 -2.61398 0
M  V30 1256 H 120.329 5.16454 -1.02873 0
M  V30 1257 H 122.82 3.60615 -1.12982 0
M  V30 1258 H 123.133 7.16341 -2.89958 0
M  V30 1259 H 121.478 6.44485 -2.60122 0
M  V30 1260 H 124.669 4.44098 -1.47967 0
M  V30 1261 H 124.842 6.0632 -2.28648 0
M  V30 1262 N 118.248 0.346503 1.53744 0
M  V30 1263 C 119.664 -0.00530975 1.59599 0
M  V30 1264 C 119.864 -1.48465 1.36236 0
M  V30 1265 O 118.92 -2.24376 1.15808 0
M  V30 1266 C 120.233 0.433516 2.97559 0
M  V30 1267 C 121.781 0.386111 3.10609 0
M  V30 1268 C 122.256 0.800451 4.50951 0
M  V30 1269 N 123.747 0.754753 4.5701 0
M  V30 1270 C 124.482 1.04727 5.63755 0
M  V30 1271 N 123.978 1.4081 6.7834 0
M  V30 1272 N 125.771 0.971316 5.53644 0
M  V30 1273 H 117.922 1.31009 1.67184 0
M  V30 1274 H 120.185 0.534242 0.783128 0
M  V30 1275 H 119.891 1.46509 3.19731 0
M  V30 1276 H 119.765 -0.189753 3.76722 0
M  V30 1277 H 122.152 -0.636295 2.88158 0
M  V30 1278 H 122.233 1.04462 2.33498 0
M  V30 1279 H 121.877 1.82088 4.74137 0
M  V30 1280 H 121.807 0.119386 5.26465 0
M  V30 1281 H 124.298 0.488662 3.74727 0
M  V30 1282 H 124.611 1.61607 7.55714 0
M  V30 1283 H 122.956 1.44657 6.79779 0
M  V30 1284 H 126.147 0.688748 4.63005 0
M  V30 1285 H 126.32 1.20263 6.36742 0
M  V30 1286 N 119.726 -1.57421 0.075193 0
M  V30 1287 C 120.656 -2.15942 -0.888324 0
M  V30 1288 C 121.637 -1.08737 -1.30806 0
M  V30 1289 O 122.822 -1.36787 -1.37851 0
M  V30 1290 C 119.952 -2.72379 -2.1547 0
M  V30 1291 C 118.906 -3.8478 -1.87425 0
M  V30 1292 C 118.232 -4.27834 -3.20721 0
M  V30 1293 C 119.532 -5.08869 -1.17684 0
M  V30 1294 H 121.226 -2.96705 -0.400799 0
M  V30 1295 H 118.772 -1.42723 -0.191342 0
M  V30 1296 H 120.725 -3.11965 -2.83295 0
M  V30 1297 H 119.449 -1.88841 -2.6647 0
M  V30 1298 H 118.108 -3.45703 -1.22004 0
M  V30 1299 H 117.756 -3.41214 -3.6957 0
M  V30 1300 H 117.456 -5.03605 -3.02746 0
M  V30 1301 H 118.98 -4.70039 -3.89738 0
M  V30 1302 H 120.394 -5.4575 -1.75584 0
M  V30 1303 H 118.791 -5.8994 -1.09956 0
M  V30 1304 H 119.861 -4.84648 -0.156453 0
M  V30 1305 N 121.204 0.198386 -1.56346 0
M  V30 1306 C 122.62 0.549085 -1.49857 0
M  V30 1307 C 122.82 1.86016 -0.774611 0
M  V30 1308 O 121.876 2.50416 -0.323776 0
M  V30 1309 C 123.189 0.606868 -2.94512 0
M  V30 1310 C 124.737 0.695925 -3.05165 0
M  V30 1311 C 125.212 0.784848 -4.51225 0
M  V30 1312 N 126.703 0.848463 -4.55363 0
M  V30 1313 C 127.438 0.937378 -5.65686 0
M  V30 1314 N 126.934 0.9888 -6.85707 0
M  V30 1315 N 128.727 0.974312 -5.53592 0
M  V30 1316 H 120.878 -0.661655 -2.01831 0
M  V30 1317 H 123.141 -0.235261 -0.918344 0
M  V30 1318 H 122.847 -0.28732 -3.50524 0
M  V30 1319 H 122.721 1.46268 -3.47686 0
M  V30 1320 H 125.108 1.58055 -2.49204 0
M  V30 1321 H 125.189 -0.186022 -2.55123 0
M  V30 1322 H 124.833 -0.0954072 -5.0781 0
M  V30 1323 H 124.763 1.68255 -4.98997 0
M  V30 1324 H 127.254 0.818103 -3.68938 0
M  V30 1325 H 127.567 1.05707 -7.65536 0
M  V30 1326 H 125.912 0.957534 -6.88372 0
M  V30 1327 H 129.103 0.930954 -4.58749 0
M  V30 1328 H 129.276 1.04015 -6.39597 0
M  V30 1329 N 122.682 1.50554 0.465978 0
M  V30 1330 C 123.907 1.65838 1.24549 0
M  V30 1331 C 124.332 0.343486 1.84937 0
M  V30 1332 O 123.69 -0.69324 1.67523 0
M  V30 1333 C 123.738 2.75533 2.32624 0
M  V30 1334 O 122.842 2.37142 3.37398 0
M  V30 1335 H 122.183 0.553893 0.366194 0
M  V30 1336 H 124.713 1.96959 0.553927 0
M  V30 1337 H 124.723 2.98763 2.77857 0
M  V30 1338 H 123.398 3.70962 1.88043 0
M  V30 1339 H 121.975 2.24377 2.97841 0
M  V30 1340 N 124.16 -0.719506 1.40217 0
M  V30 1341 C 125.571 -1.29848 1.34151 0
M  V30 1342 C 125.922 -1.96196 0.0131349 0
M  V30 1343 O 125.047 -1.973 -0.88892 0
M  V30 1344 C 125.642 -2.36118 2.42968 0
M  V30 1345 C 124.201 -2.8965 2.40374 0
M  V30 1346 C 123.348 -1.63393 2.24049 0
M  V30 1347 H 126.299 -0.51591 1.5008 0
M  V30 1348 H 126.32 -3.16871 2.10649 0
M  V30 1349 H 125.832 -1.878 3.39636 0
M  V30 1350 H 123.933 -3.42208 1.47392 0
M  V30 1351 H 124.046 -3.4171 3.35814 0
M  V30 1352 H 122.41 -1.88312 1.71495 0
M  V30 1353 H 123.193 -1.17104 3.2271 0
M  V30 1354 N 125.638 -1.25649 -0.95132 0
M  V30 1355 C 127.054 -1.02542 -1.223 0
M  V30 1356 C 127.254 0.255715 -1.99871 0
M  V30 1357 O 126.31 0.967558 -2.33226 0
M  V30 1358 C 127.623 -2.25065 -1.99415 0
M  V30 1359 C 129.171 -2.29861 -2.12446 0
M  V30 1360 C 129.646 -3.52048 -2.92961 0
M  V30 1361 N 131.137 -3.52465 -3.00538 0
M  V30 1362 C 131.872 -4.43672 -3.63239 0
M  V30 1363 N 131.368 -5.45157 -4.27523 0
M  V30 1364 N 133.161 -4.31346 -3.60412 0
M  V30 1365 H 125.312 -2.07951 -0.432471 0
M  V30 1366 H 127.575 -0.91339 -0.253816 0
M  V30 1367 H 127.281 -3.18194 -1.49817 0
M  V30 1368 H 127.155 -2.28502 -3.00111 0
M  V30 1369 H 129.542 -1.37252 -2.61239 0
M  V30 1370 H 129.623 -2.3044 -1.11044 0
M  V30 1371 H 129.267 -4.44981 -2.44856 0
M  V30 1372 H 129.197 -3.48715 -3.94596 0
M  V30 1373 H 131.688 -2.79056 -2.54826 0
M  V30 1374 H 132.001 -6.10958 -4.73234 0
M  V30 1375 H 130.346 -5.49025 -4.26141 0
M  V30 1376 H 133.537 -3.51288 -3.09377 0
M  V30 1377 H 133.71 -5.02624 -4.0899 0
M  V30 1378 N 127.117 1.15442 -1.07289 0
M  V30 1379 C 128.363 1.86489 -0.796846 0
M  V30 1380 C 128.696 1.82078 0.675371 0
M  V30 1381 O 127.971 1.24346 1.4956 0
M  V30 1382 C 128.254 3.35626 -1.30489 0
M  V30 1383 C 128.107 3.48673 -2.84161 0
M  V30 1384 C 129.426 4.30357 -0.920907 0
M  V30 1385 H 126.545 0.677144 -0.290939 0
M  V30 1386 H 129.187 1.35633 -1.33056 0
M  V30 1387 H 127.337 3.79068 -0.850883 0
M  V30 1388 H 129.009 3.14099 -3.37846 0
M  V30 1389 H 127.252 2.90253 -3.22391 0
M  V30 1390 H 127.923 4.53453 -3.14777 0
M  V30 1391 H 130.399 3.94871 -1.3121 0
M  V30 1392 H 129.275 5.33193 -1.30372 0
M  V30 1393 H 129.536 4.4176 0.173226 0
M  V30 1394 N 128.595 0.856903 1.32268 0
M  V30 1395 C 129.525 0.31858 2.31316 0
M  V30 1396 C 130.506 -0.583487 1.59779 0
M  V30 1397 O 131.691 -0.503259 1.87566 0
M  V30 1398 C 128.821 -0.491979 3.43798 0
M  V30 1399 C 127.775 0.315849 4.26833 0
M  V30 1400 C 127.101 -0.619586 5.31098 0
M  V30 1401 C 128.401 1.54282 4.98993 0
M  V30 1402 H 130.095 1.14621 2.76591 0
M  V30 1403 H 127.641 0.552613 1.32974 0
M  V30 1404 H 129.594 -0.879012 4.1213 0
M  V30 1405 H 128.318 -1.35299 2.97257 0
M  V30 1406 H 126.977 0.684664 3.6015 0
M  V30 1407 H 126.625 -1.47751 4.8081 0
M  V30 1408 H 126.325 -0.0830621 5.87541 0
M  V30 1409 H 127.849 -1.00375 6.02293 0
M  V30 1410 H 129.263 1.22796 5.59995 0
M  V30 1411 H 127.66 2.01745 5.65172 0
M  V30 1412 H 128.73 2.30285 4.26728 0
M  V30 1413 N 130.073 -1.45103 0.615059 0
M  V30 1414 C 131.32 -2.02183 0.113179 0
M  V30 1415 C 131.648 -1.48249 -1.25906 0
M  V30 1416 O 130.903 -0.650265 -1.84581 0
M  V30 1417 C 131.202 -3.57386 0.0318797 0
M  V30 1418 C 130.868 -4.30505 1.34077 0
M  V30 1419 C 129.53 -4.50197 1.69929 0
M  V30 1420 C 131.882 -4.72238 2.20546 0
M  V30 1421 C 129.21 -5.08881 2.91988 0
M  V30 1422 C 131.562 -5.32272 3.41861 0
M  V30 1423 C 130.226 -5.50187 3.77956 0
M  V30 1424 H 129.496 -0.739842 0.0414151 0
M  V30 1425 H 132.143 -1.74073 0.798168 0
M  V30 1426 H 130.448 -3.84817 -0.736409 0
M  V30 1427 H 132.145 -3.99264 -0.372712 0
M  V30 1428 H 128.735 -4.15496 1.05173 0
M  V30 1429 H 132.919 -4.56751 1.94146 0
M  V30 1430 H 128.175 -5.20939 3.2005 0
M  V30 1431 H 132.349 -5.63563 4.09109 0
M  V30 1432 H 129.976 -5.95427 4.72622 0
M  V30 1433 N 131.551 -0.354651 -1.53558 0
M  V30 1434 C 132.776 0.242153 -2.05981 0
M  V30 1435 C 133.201 1.42553 -1.2272 0
M  V30 1436 O 132.559 1.79656 -0.243604 0
M  V30 1437 C 132.607 0.624367 -3.55154 0
M  V30 1438 O 131.711 1.72301 -3.74681 0
M  V30 1439 H 131.052 0.0378432 -0.662921 0
M  V30 1440 H 133.582 -0.512087 -1.98088 0
M  V30 1441 H 133.592 0.898433 -3.97985 0
M  V30 1442 H 132.267 -0.240989 -4.15201 0
M  V30 1443 H 130.844 1.44535 -3.4375 0
M  V30 1444 N 133.029 1.57378 -0.0835403 0
M  V30 1445 C 134.257 1.98263 0.59157 0
M  V30 1446 C 134.672 0.962302 1.62435 0
M  V30 1447 O 134.029 -0.049581 1.82433 0
M  V30 1448 C 134.08 3.39214 1.24965 0
M  V30 1449 O 133.801 4.37339 0.258186 0
M  V30 1450 C 135.302 3.95038 2.01147 0
M  V30 1451 H 132.522 0.651773 0.159477 0
M  V30 1452 H 135.066 2.03878 -0.159415 0
M  V30 1453 H 133.221 3.34649 1.95164 0
M  V30 1454 H 133.635 5.19371 0.731734 0
M  V30 1455 H 135.109 4.95848 2.42567 0
M  V30 1456 H 135.586 3.32222 2.87272 0
M  V30 1457 H 136.192 4.0304 1.35789 0
M  V30 1458 N 134.507 -0.190092 1.56449 0
M  V30 1459 C 135.439 -1.25973 1.91477 0
M  V30 1460 C 136.452 -1.41452 0.805931 0
M  V30 1461 O 137.641 -1.41789 1.08435 0
M  V30 1462 C 134.741 -2.63117 2.13594 0
M  V30 1463 C 133.914 -2.69182 3.4476 0
M  V30 1464 C 132.973 -3.87557 3.5593 0
M  V30 1465 O 131.999 -3.74427 4.28711 0
M  V30 1466 N 133.201 -5.03224 2.89388 0
M  V30 1467 H 135.966 -0.962394 2.83828 0
M  V30 1468 H 133.527 -0.379981 1.57378 0
M  V30 1469 H 135.519 -3.40742 2.1835 0
M  V30 1470 H 134.089 -2.85319 1.27719 0
M  V30 1471 H 133.309 -1.77793 3.51828 0
M  V30 1472 H 134.597 -2.70229 4.31107 0
M  V30 1473 H 133.995 -5.16791 2.30094 0
M  V30 1474 H 132.552 -5.78778 2.99764 0
M  V30 1475 N 135.985 -1.50799 -0.457987 0
M  V30 1476 C 137.396 -1.55152 -1.0385 0
M  V30 1477 C 137.747 -0.362719 -1.92818 0
M  V30 1478 O 136.872 0.522915 -2.09987 0
M  V30 1479 C 137.467 -2.81173 -1.89017 0
M  V30 1480 C 136.026 -2.88164 -2.42154 0
M  V30 1481 C 135.173 -2.49591 -1.20829 0
M  V30 1482 H 138.124 -1.56874 -0.240068 0
M  V30 1483 H 138.145 -2.63769 -2.74238 0
M  V30 1484 H 137.657 -3.67677 -1.24238 0
M  V30 1485 H 135.758 -2.06042 -3.10447 0
M  V30 1486 H 135.871 -3.91356 -2.76364 0
M  V30 1487 H 134.235 -2.02322 -1.54719 0
M  V30 1488 H 135.018 -3.38418 -0.576927 0
M  V30 1489 N 137.463 0.71206 -1.40597 0
M  V30 1490 C 138.874 1.29135 -1.34837 0
M  V30 1491 C 139.225 1.96186 -0.0235395 0
M  V30 1492 O 138.35 1.97768 0.878444 0
M  V30 1493 C 138.945 2.34827 -2.44217 0
M  V30 1494 C 137.504 2.88371 -2.41907 0
M  V30 1495 C 136.651 1.62202 -2.24913 0
M  V30 1496 H 139.602 0.507944 -1.50352 0
M  V30 1497 H 139.623 3.15749 -2.12327 0
M  V30 1498 H 139.135 1.85996 -3.40627 0
M  V30 1499 H 137.236 3.41422 -1.49204 0
M  V30 1500 H 137.349 3.39925 -3.37621 0
M  V30 1501 H 135.713 1.874 -1.72492 0
M  V30 1502 H 136.496 1.15391 -3.23326 0
M  V30 1503 N 138.941 1.26152 0.944643 0
M  V30 1504 C 140.357 1.03189 1.21754 0
M  V30 1505 C 140.557 -0.245112 2.00004 0
M  V30 1506 O 139.613 -0.955176 2.33736 0
M  V30 1507 C 140.926 2.26119 1.98219 0
M  V30 1508 C 142.474 2.30984 2.11224 0
M  V30 1509 C 142.949 3.53597 2.91089 0
M  V30 1510 N 144.44 3.54053 2.98664 0
M  V30 1511 C 145.175 4.45593 3.60881 0
M  V30 1512 N 144.671 5.47416 4.24626 0
M  V30 1513 N 146.464 4.33252 3.58119 0
M  V30 1514 H 138.615 2.08177 0.421437 0
M  V30 1515 H 140.878 0.914723 0.248969 0
M  V30 1516 H 140.584 3.18984 1.48128 0
M  V30 1517 H 140.458 2.3009 2.98895 0
M  V30 1518 H 142.845 1.38635 2.60508 0
M  V30 1519 H 142.926 2.31026 1.09821 0
M  V30 1520 H 142.57 4.46273 2.42493 0
M  V30 1521 H 142.5 3.50802 3.92741 0
M  V30 1522 H 144.991 2.80403 2.53343 0
M  V30 1523 H 145.304 6.13459 4.69987 0
M  V30 1524 H 143.649 5.51278 4.23223 0
M  V30 1525 H 146.84 3.52924 3.0751 0
M  V30 1526 H 147.013 5.04786 4.06319 0
M  V30 1527 N 140.419 -1.14872 1.07899 0
M  V30 1528 C 141.329 -2.2341 0.715915 0
M  V30 1529 C 142.345 -1.71808 -0.275306 0
M  V30 1530 O 143.521 -2.01039 -0.120545 0
M  V30 1531 C 140.586 -3.46474 0.125168 0
M  V30 1532 C 139.647 -4.13039 1.17034 0
M  V30 1533 C 138.88 -5.30229 0.607688 0
M  V30 1534 O 139.103 -5.675 -0.574497 0
M  V30 1535 O 138.037 -5.86444 1.35526 0
M  V30 1536 H 141.863 -2.56808 1.62121 0
M  V30 1537 H 139.448 -1.22702 0.852322 0
M  V30 1538 H 141.33 -4.20917 -0.201729 0
M  V30 1539 H 140.005 -3.14811 -0.753364 0
M  V30 1540 H 138.912 -3.40493 1.54968 0
M  V30 1541 H 140.245 -4.48796 2.02097 0
M  V30 1542 N 141.898 -0.863906 -1.31812 0
M  V30 1543 C 142.861 -0.320212 -2.26952 0
M  V30 1544 C 143.861 0.525369 -1.51975 0
M  V30 1545 O 145.051 0.335547 -1.70938 0
M  V30 1546 C 142.183 0.545919 -3.365 0
M  V30 1547 H 143.376 -1.16004 -2.76556 0
M  V30 1548 H 140.929 -0.638995 -1.42641 0
M  V30 1549 H 141.664 1.40718 -2.92179 0
M  V30 1550 H 141.449 -0.0594674 -3.92055 0
M  V30 1551 H 142.939 0.918796 -4.07367 0
M  V30 1552 N 143.376 1.44774 -0.622745 0
M  V30 1553 C 144.339 2.29069 0.0774015 0
M  V30 1554 C 145.339 1.4059 0.780461 0
M  V30 1555 O 146.529 1.62551 0.626322 0
M  V30 1556 C 143.661 3.21974 1.12006 0
M  V30 1557 H 144.854 2.92459 -0.663901 0
M  V30 1558 H 142.407 1.51548 -0.382486 0
M  V30 1559 H 143.142 2.63417 1.89162 0
M  V30 1560 H 142.927 3.87168 0.619951 0
M  V30 1561 H 144.417 3.85318 1.60995 0
M  V30 1562 N 144.854 0.36279 1.53368 0
M  V30 1563 C 146.131 -0.284021 1.93527 0
M  V30 1564 C 146.511 -1.66628 1.29608 0
M  V30 1565 O 145.859 -2.23942 0.45413 0
M  V30 1566 C 146.069 -0.337028 3.47369 0
M  V30 1567 C 147.417 -0.578708 4.20638 0
M  V30 1568 O 148.441 -0.418352 3.53735 0
M  V30 1569 O 147.3 -0.89074 5.39192 0
M  V30 1570 H 144.394 -0.169743 0.809393 0
M  V30 1571 H 146.94 0.41537 1.64538 0
M  V30 1572 H 145.712 0.632217 3.86159 0
M  V30 1573 H 145.335 -1.08243 3.82582 0
M  V30 1574 N 146.332 -1.57332 0.0918853 0
M  V30 1575 C 147.56 -1.98574 -0.581048 0
M  V30 1576 C 147.975 -0.970903 -1.61923 0
M  V30 1577 O 147.332 0.0399054 -1.82456 0
M  V30 1578 C 147.383 -3.39872 -1.23164 0
M  V30 1579 O 147.104 -4.37469 -0.234989 0
M  V30 1580 C 148.605 -3.96099 -1.99049 0
M  V30 1581 H 145.825 -0.65261 -0.156018 0
M  V30 1582 H 148.369 -2.0379 0.170225 0
M  V30 1583 H 146.524 -3.35679 -1.93386 0
M  V30 1584 H 146.938 -5.19751 -0.70418 0
M  V30 1585 H 148.412 -4.97127 -2.39934 0
M  V30 1586 H 148.889 -3.3374 -2.85507 0
M  V30 1587 H 149.495 -4.03755 -1.3365 0
M  V30 1588 N 147.81 0.181792 -1.56548 0
M  V30 1589 C 148.742 1.24956 -1.92142 0
M  V30 1590 C 149.755 1.41022 -0.813422 0
M  V30 1591 O 150.944 1.41212 -1.09186 0
M  V30 1592 C 148.044 2.61981 -2.14987 0
M  V30 1593 C 147.217 2.6735 -3.46183 0
M  V30 1594 C 146.276 3.85664 -3.5798 0
M  V30 1595 O 145.302 3.72148 -4.30691 0
M  V30 1596 N 146.504 5.01683 -2.92053 0
M  V30 1597 H 149.269 0.947329 -2.84334 0
M  V30 1598 H 146.83 0.371629 -1.57577 0
M  V30 1599 H 148.822 3.3958 -2.20154 0
M  V30 1600 H 147.392 2.84637 -1.2923 0
M  V30 1601 H 146.612 1.75925 -3.52766 0
M  V30 1602 H 147.9 2.67939 -4.32534 0
M  V30 1603 H 147.298 5.15564 -2.32832 0
M  V30 1604 H 145.855 5.77181 -3.0283 0
M  V30 1605 N 149.288 1.51039 0.449983 0
M  V30 1606 C 150.565 1.53612 1.21089 0
M  V30 1607 C 150.945 0.292997 2.09057 0
M  V30 1608 O 150.293 -0.72259 2.16774 0
M  V30 1609 C 150.503 2.84337 2.0237 0
M  V30 1610 C 151.851 3.35807 2.59843 0
M  V30 1611 O 152.875 2.85802 2.12593 0
M  V30 1612 O 151.734 4.23029 3.45989 0
M  V30 1613 H 148.828 0.617057 0.550608 0
M  V30 1614 H 151.374 1.63344 0.460082 0
M  V30 1615 H 150.146 3.66278 1.37681 0
M  V30 1616 H 149.769 2.77708 2.84542 0
M  V30 1617 N 150.766 -0.704594 1.40972 0
M  V30 1618 C 151.696 -1.83124 1.44872 0
M  V30 1619 C 152.677 -1.67281 0.30838 0
M  V30 1620 O 153.862 -1.87149 0.518556 0
M  V30 1621 C 150.992 -3.21181 1.32136 0
M  V30 1622 C 149.946 -3.51714 2.43888 0
M  V30 1623 C 149.272 -4.89032 2.16222 0
M  V30 1624 C 150.572 -3.516 3.86232 0
M  V30 1625 H 152.266 -1.80117 2.39161 0
M  V30 1626 H 149.812 -0.865145 1.15114 0
M  V30 1627 H 151.765 -3.99702 1.33479 0
M  V30 1628 H 150.489 -3.24791 0.343279 0
M  V30 1629 H 149.148 -2.75539 2.41813 0
M  V30 1630 H 148.796 -4.89256 1.16778 0
M  V30 1631 H 148.496 -5.10426 2.911 0
M  V30 1632 H 150.02 -5.69873 2.19265 0
M  V30 1633 H 151.434 -4.2014 3.9007 0
M  V30 1634 H 149.831 -3.84523 4.60719 0
M  V30 1635 H 150.901 -2.50757 4.15029 0
M  V30 1636 N 152.244 -1.26651 -0.937939 0
M  V30 1637 C 153.521 -1.0313 -1.66204 0
M  V30 1638 C 153.901 0.437256 -2.06522 0
M  V30 1639 O 153.249 1.41831 -1.79154 0
M  V30 1640 C 153.459 -1.98314 -2.87181 0
M  V30 1641 C 154.807 -2.27107 -3.58758 0
M  V30 1642 O 155.831 -1.96205 -2.97291 0
M  V30 1643 O 154.69 -2.79736 -4.69479 0
M  V30 1644 H 151.784 -0.392384 -0.727986 0
M  V30 1645 H 154.33 -1.37874 -0.989382 0
M  V30 1646 H 153.102 -2.97399 -2.54302 0
M  V30 1647 H 152.725 -1.64068 -3.6217 0
M  V30 1648 N 153.722 1.14298 -1.08507 0
M  V30 1649 C 154.969 1.85359 -0.815373 0
M  V30 1650 C 155.297 1.83001 0.658865 0
M  V30 1651 O 154.552 1.25655 1.50031 0
M  V30 1652 C 154.851 3.33547 -1.28379 0
M  V30 1653 C 154.517 3.56093 -2.76602 0
M  V30 1654 C 153.179 3.61955 -3.17084 0
M  V30 1655 C 155.531 3.64834 -3.72217 0
M  V30 1656 C 152.859 3.74082 -4.51973 0
M  V30 1657 C 155.211 3.78487 -5.06883 0
M  V30 1658 C 153.875 3.82598 -5.46969 0
M  V30 1659 H 153.145 0.678276 -0.298366 0
M  V30 1660 H 155.792 1.35002 -1.35819 0
M  V30 1661 H 154.097 3.86191 -0.660593 0
M  V30 1662 H 155.794 3.86959 -1.05186 0
M  V30 1663 H 152.384 3.52179 -2.4427 0
M  V30 1664 H 156.568 3.59595 -3.42061 0
M  V30 1665 H 151.824 3.75527 -4.82483 0
M  V30 1666 H 155.998 3.84193 -5.80834 0
M  V30 1667 H 153.625 3.91747 -6.51489 0
M  V30 1668 N 155.201 0.870884 1.31352 0
M  V30 1669 C 156.111 0.330783 2.32256 0
M  V30 1670 C 157.127 -0.559767 1.6475 0
M  V30 1671 O 158.303 -0.456263 1.96164 0
M  V30 1672 C 155.368 -0.458137 3.4366 0
M  V30 1673 C 154.429 0.460482 4.26823 0
M  V30 1674 C 153.662 -0.290881 5.32907 0
M  V30 1675 O 153.885 -1.51885 5.49806 0
M  V30 1676 O 152.819 0.351732 6.00871 0
M  V30 1677 H 156.645 1.16718 2.80376 0
M  V30 1678 H 154.23 0.634285 1.35267 0
M  V30 1679 H 156.112 -0.905343 4.1156 0
M  V30 1680 H 154.787 -1.27106 2.97701 0
M  V30 1681 H 153.694 0.956207 3.61673 0
M  V30 1682 H 155.027 1.23903 4.7635 0
M  V30 1683 N 156.679 -1.44442 0.630414 0
M  V30 1684 C 157.925 -2.02351 0.134816 0
M  V30 1685 C 158.258 -1.4947 -1.23986 0
M  V30 1686 O 157.533 -0.678475 -1.82283 0
M  V30 1687 C 157.816 -3.59898 0.120707 0
M  V30 1688 C 157.669 -4.23063 1.52767 0
M  V30 1689 C 158.988 -4.36585 -0.555127 0
M  V30 1690 H 156.107 -0.73527 0.0504646 0
M  V30 1691 H 158.749 -1.72022 0.806751 0
M  V30 1692 H 156.899 -3.85868 -0.451477 0
M  V30 1693 H 158.571 -4.08202 2.14869 0
M  V30 1694 H 156.814 -3.80586 2.08175 0
M  V30 1695 H 157.485 -5.32071 1.46984 0
M  V30 1696 H 159.961 -4.16044 -0.0685429 0
M  V30 1697 H 158.837 -5.46294 -0.534185 0
M  V30 1698 H 159.098 -4.11138 -1.62535 0
M  V30 1699 N 158.157 -0.370918 -1.53173 0
M  V30 1700 C 159.405 0.216673 -2.00935 0
M  V30 1701 C 159.726 1.48845 -1.25977 0
M  V30 1702 O 158.996 1.92286 -0.374551 0
M  V30 1703 H 157.576 0.0830565 -0.742368 0
M  V30 1704 H 160.238 -0.49838 -1.8842 0
M  V30 1705 H 159.334 0.439893 -3.08984 0
M  V30 1706 N 159.635 1.57281 -0.100228 0
M  V30 1707 C 160.883 1.94153 0.561157 0
M  V30 1708 C 161.204 0.983157 1.68401 0
M  V30 1709 O 160.474 0.0361132 1.95867 0
M  V30 1710 H 159.054 0.716791 0.210283 0
M  V30 1711 H 161.716 1.94202 -0.164765 0
M  V30 1712 H 160.812 2.96709 0.968008 0
M  V30 1713 N 161.113 -0.173488 1.56642 0
M  V30 1714 C 162.076 -1.19859 1.95362 0
M  V30 1715 C 163.076 -1.37296 0.83704 0
M  V30 1716 O 164.266 -1.34739 1.10413 0
M  V30 1717 C 161.398 -2.56405 2.24654 0
M  V30 1718 H 162.591 -0.867062 2.87092 0
M  V30 1719 H 160.144 -0.415853 1.50666 0
M  V30 1720 H 160.879 -2.94576 1.35631 0
M  V30 1721 H 160.664 -2.45115 3.06041 0
M  V30 1722 H 162.154 -3.30287 2.5554 0
M  V30 1723 N 162.591 -1.51276 -0.441967 0
M  V30 1724 C 163.554 -1.7167 -1.51862 0
M  V30 1725 C 164.554 -0.586793 -1.49711 0
M  V30 1726 O 165.744 -0.854276 -1.51815 0
M  V30 1727 C 162.876 -1.76889 -2.91416 0
M  V30 1728 H 164.069 -2.67754 -1.35084 0
M  V30 1729 H 161.622 -1.41196 -0.670333 0
M  V30 1730 H 162.357 -0.826026 -3.13604 0
M  V30 1731 H 162.142 -2.59001 -2.94382 0
M  V30 1732 H 163.632 -1.94522 -3.69528 0
M  V30 1733 N 164.069 0.697108 -1.41344 0
M  V30 1734 C 165.48 1.27697 -1.36199 0
M  V30 1735 C 165.831 1.9615 -0.0443463 0
M  V30 1736 O 164.956 1.98689 0.857419 0
M  V30 1737 C 165.551 2.32223 -2.46694 0
M  V30 1738 C 164.11 2.8579 -2.44952 0
M  V30 1739 C 163.257 1.59807 -2.26621 0
M  V30 1740 H 166.208 0.491968 -1.50882 0
M  V30 1741 H 166.229 3.1348 -2.15664 0
M  V30 1742 H 165.741 1.82373 -3.42581 0
M  V30 1743 H 163.842 3.3982 -1.52817 0
M  V30 1744 H 163.955 3.36325 -3.41207 0
M  V30 1745 H 162.319 1.8556 -1.7447 0
M  V30 1746 H 163.102 1.11956 -3.24532 0
M  V30 1747 N 165.547 1.27147 0.931209 0
M  V30 1748 C 166.794 1.13278 1.67852 0
M  V30 1749 C 167.122 -0.32204 1.91815 0
M  V30 1750 O 166.377 -1.25224 1.50391 0
M  V30 1751 C 166.676 1.8579 3.05314 0
M  V30 1752 C 166.342 3.35657 3.01073 0
M  V30 1753 C 165.004 3.76536 2.99623 0
M  V30 1754 C 167.356 4.31299 2.92627 0
M  V30 1755 C 164.684 5.11426 2.87506 0
M  V30 1756 C 167.036 5.66242 2.82051 0
M  V30 1757 C 165.7 6.06418 2.7895 0
M  V30 1758 H 164.97 0.414515 0.614214 0
M  V30 1759 H 167.617 1.57712 1.08624 0
M  V30 1760 H 165.922 1.33854 3.68226 0
M  V30 1761 H 167.619 1.72491 3.62005 0
M  V30 1762 H 164.209 3.03146 3.02986 0
M  V30 1763 H 168.393 4.00692 2.92848 0
M  V30 1764 H 163.649 5.41705 2.83489 0
M  V30 1765 H 167.823 6.40026 2.74481 0
M  V30 1766 H 165.45 7.10895 2.69318 0
M  V30 1767 N 167.025 -1.13721 1.09112 0
M  V30 1768 C 167.973 -2.21103 0.722219 0
M  V30 1769 C 168.967 -1.67147 -0.275374 0
M  V30 1770 O 170.173 -1.79477 -0.137176 0
M  V30 1771 H 166.548 -0.720445 0.215553 0
M  V30 1772 H 168.519 -2.49483 1.63709 0
M  V30 1773 C 167.268 -3.47352 0.15543 0
M  V30 1774 H 166.591 -3.89206 0.914246 0
M  V30 1775 H 168.031 -4.2395 -0.0647967 0
M  V30 1776 C 166.49 -3.1814 -1.10852 0
M  V30 1777 O 167.02 -3.36604 -2.19227 0
M  V30 1778 N 165.226 -2.72045 -1.02176 0
M  V30 1779 H 164.773 -2.57221 -0.139764 0
M  V30 1780 H 164.731 -2.52875 -1.8682 0
M  V30 1781 N 168.503 -0.877838 -1.30888 0
M  V30 1782 C 169.919 -0.570844 -1.49042 0
M  V30 1783 C 170.119 0.893159 -1.80624 0
M  V30 1784 O 169.175 1.67485 -1.88958 0
M  V30 1785 C 170.488 -1.47784 -2.61878 0
M  V30 1786 C 172.036 -1.48071 -2.75761 0
M  V30 1787 C 172.511 -2.37347 -3.91702 0
M  V30 1788 N 174.002 -2.35271 -3.99001 0
M  V30 1789 C 174.737 -3.01063 -4.88004 0
M  V30 1790 N 174.233 -3.76055 -5.81854 0
M  V30 1791 N 176.026 -2.90332 -4.81315 0
M  V30 1792 H 168.177 -1.82502 -1.0866 0
M  V30 1793 H 170.44 -0.780797 -0.537644 0
M  V30 1794 H 170.146 -2.51993 -2.45341 0
M  V30 1795 H 170.02 -1.18215 -3.58197 0
M  V30 1796 H 172.407 -0.446166 -2.91708 0
M  V30 1797 H 172.488 -1.81668 -1.80085 0
M  V30 1798 H 172.132 -3.40883 -3.76512 0
M  V30 1799 H 172.062 -2.01071 -4.86701 0
M  V30 1800 H 174.553 -1.80768 -3.3186 0
M  V30 1801 H 174.866 -4.23366 -6.46514 0
M  V30 1802 H 173.211 -3.80163 -5.81808 0
M  V30 1803 H 176.402 -2.31278 -4.06974 0
M  V30 1804 H 176.575 -3.41885 -5.50471 0
M  V30 1805 N 169.982 1.44106 -0.638065 0
M  V30 1806 C 171.21 2.06336 -0.152615 0
M  V30 1807 C 171.625 1.47731 1.17563 0
M  V30 1808 O 170.982 0.602806 1.72257 0
M  V30 1809 C 171.033 3.61479 -0.0391491 0
M  V30 1810 O 170.754 4.17903 -1.31487 0
M  V30 1811 C 172.255 4.40757 0.474176 0
M  V30 1812 H 169.475 0.665862 -0.0828776 0
M  V30 1813 H 172.019 1.84862 -0.87443 0
M  V30 1814 H 170.174 3.82191 0.633142 0
M  V30 1815 H 170.588 5.11416 -1.16421 0
M  V30 1816 H 172.062 5.49707 0.502562 0
M  V30 1817 H 172.539 4.12697 1.50258 0
M  V30 1818 H 173.145 4.24979 -0.165102 0
M  V30 1819 N 171.46 0.379036 1.52974 0
M  V30 1820 C 172.41 -0.477772 2.22938 0
M  V30 1821 C 173.394 -1.03792 1.22948 0
M  V30 1822 O 174.586 -0.965725 1.48333 0
M  V30 1823 C 171.715 -1.60994 3.03209 0
M  V30 1824 C 170.801 -1.06203 4.10587 0
M  V30 1825 N 171.192 -0.238214 5.05239 0
M  V30 1826 C 169.49 -1.33554 4.25534 0
M  V30 1827 C 170.191 0.0633235 5.81666 0
M  V30 1828 N 169.167 -0.537901 5.40932 0
M  V30 1829 H 172.969 0.158295 2.93473 0
M  V30 1830 H 170.483 0.187778 1.61311 0
M  V30 1831 H 172.48 -2.23607 3.5186 0
M  V30 1832 H 171.14 -2.24893 2.34207 0
M  V30 1833 H 172.151 0.123695 5.17752 0
M  V30 1834 H 168.828 -1.97632 3.6776 0
M  V30 1835 H 170.218 0.730161 6.67921 0
M  V30 1836 N 172.938 -1.57226 0.108567 0
M  V30 1837 C 174.354 -1.5766 -0.248058 0
M  V30 1838 C 174.554 -1.12063 -1.67464 0
M  V30 1839 O 173.61 -0.803236 -2.39383 0
M  V30 1840 C 174.923 -3.0069 -0.0242287 0
M  V30 1841 C 176.471 -3.12868 -0.0909372 0
M  V30 1842 C 176.946 -4.57879 0.105067 0
M  V30 1843 N 178.437 -4.63172 0.0506846 0
M  V30 1844 C 179.172 -5.73126 0.177396 0
M  V30 1845 N 178.668 -6.91866 0.359696 0
M  V30 1846 N 180.461 -5.61977 0.117709 0
M  V30 1847 H 172.612 -1.85169 1.04049 0
M  V30 1848 H 174.875 -0.85529 0.40888 0
M  V30 1849 H 174.581 -3.38299 0.961604 0
M  V30 1850 H 174.455 -3.6945 -0.76068 0
M  V30 1851 H 176.842 -2.75124 -1.06729 0
M  V30 1852 H 176.923 -2.46672 0.677225 0
M  V30 1853 H 176.567 -4.96321 1.07834 0
M  V30 1854 H 176.497 -5.22153 -0.682954 0
M  V30 1855 H 178.988 -3.778 -0.0871266 0
M  V30 1856 H 179.301 -7.71503 0.447529 0
M  V30 1857 H 177.646 -6.93874 0.395536 0
M  V30 1858 H 180.837 -4.68094 -0.0236741 0
M  V30 1859 H 181.01 -6.47627 0.219905 0
M  V30 1860 N 174.416 0.165178 -1.56732 0
M  V30 1861 C 175.641 0.900253 -1.86843 0
M  V30 1862 C 176.066 1.74766 -0.695596 0
M  V30 1863 O 175.424 1.77786 0.35522 0
M  V30 1864 C 175.472 1.74777 -3.15413 0
M  V30 1865 O 174.576 2.85007 -2.98068 0
M  V30 1866 H 173.917 0.251832 -0.614391 0
M  V30 1867 H 176.447 0.161468 -2.03962 0
M  V30 1868 H 176.457 2.14646 -3.46974 0
M  V30 1869 H 175.132 1.12537 -4.00385 0
M  V30 1870 H 173.709 2.48676 -2.77875 0
M  V30 1871 N 175.894 1.51508 0.433938 0
M  V30 1872 C 176.841 1.73068 1.52696 0
M  V30 1873 C 177.811 0.572441 1.55924 0
M  V30 1874 O 178.996 0.807253 1.72882 0
M  V30 1875 C 176.136 1.86474 2.90381 0
M  V30 1876 C 175.249 3.14037 2.96656 0
M  V30 1877 C 174.384 3.18019 4.25485 0
M  V30 1878 C 173.423 4.39882 4.2564 0
M  V30 1879 N 172.56 4.41394 5.45999 0
M  V30 1880 H 177.4 2.66366 1.33615 0
M  V30 1881 H 174.937 1.32008 0.649018 0
M  V30 1882 H 176.895 1.92229 3.70275 0
M  V30 1883 H 175.525 0.965809 3.08013 0
M  V30 1884 H 174.577 3.17575 2.09404 0
M  V30 1885 H 175.889 4.0394 2.92633 0
M  V30 1886 H 175.043 3.22708 5.13755 0
M  V30 1887 H 173.782 2.2601 4.3217 0
M  V30 1888 H 172.787 4.35366 3.35763 0
M  V30 1889 H 174.012 5.33159 4.20617 0
M  V30 1890 H 171.958 3.52258 5.53399 0
M  V30 1891 H 171.875 5.25111 5.4387 0
M  V30 1892 H 173.143 4.50281 6.36292 0
M  V30 1893 N 177.372 -0.689602 1.41712 0
M  V30 1894 C 178.788 -1.00093 1.24312 0
M  V30 1895 C 178.988 -2.01036 0.136729 0
M  V30 1896 O 178.044 -2.47562 -0.496918 0
M  V30 1897 C 179.357 -1.51985 2.59463 0
M  V30 1898 C 180.905 -1.63838 2.66695 0
M  V30 1899 C 181.38 -2.1913 4.02177 0
M  V30 1900 N 182.871 -2.26483 4.04054 0
M  V30 1901 C 183.606 -2.70306 5.0569 0
M  V30 1902 N 183.102 -3.13691 6.17713 0
M  V30 1903 N 184.895 -2.69923 4.9305 0
M  V30 1904 H 177.046 -0.0210029 2.1239 0
M  V30 1905 H 179.309 -0.0718733 0.945272 0
M  V30 1906 H 179.015 -0.85269 3.41207 0
M  V30 1907 H 178.889 -2.50103 2.82362 0
M  V30 1908 H 181.276 -2.29664 1.85306 0
M  V30 1909 H 181.357 -0.642492 2.476 0
M  V30 1910 H 181.001 -1.53918 4.84016 0
M  V30 1911 H 180.931 -3.19482 4.18615 0
M  V30 1912 H 183.422 -1.95874 3.23174 0
M  V30 1913 H 183.735 -3.45773 6.9113 0
M  V30 1914 H 182.08 -3.11585 6.21241 0
M  V30 1915 H 185.271 -2.35382 4.04614 0
M  V30 1916 H 185.444 -3.03758 5.72394 0
M  V30 1917 N 178.85 -1.27639 -0.924453 0
M  V30 1918 C 180.075 -1.17101 -1.71179 0
M  V30 1919 C 180.5 0.268134 -1.86179 0
M  V30 1920 O 179.858 1.19415 -1.36418 0
M  V30 1921 C 179.906 -1.86313 -3.08739 0
M  V30 1922 O 179.01 -1.16331 -3.95652 0
M  V30 1923 H 178.351 -0.407091 -0.524569 0
M  V30 1924 H 180.881 -1.68767 -1.15666 0
M  V30 1925 H 180.891 -1.938 -3.59034 0
M  V30 1926 H 179.566 -2.91001 -2.97138 0
M  V30 1927 H 178.143 -1.16935 -3.54091 0
M  V30 1928 N 180.328 1.1314 -1.09713 0
M  V30 1929 C 181.553 1.88862 -0.857081 0
M  V30 1930 C 181.978 1.78729 0.586304 0
M  V30 1931 O 181.336 1.13692 1.41222 0
M  V30 1932 C 181.384 3.36325 -1.30069 0
M  V30 1933 O 180.488 4.09815 -0.461007 0
M  V30 1934 H 179.829 0.587108 -0.310162 0
M  V30 1935 H 182.359 1.43129 -1.46203 0
M  V30 1936 H 182.369 3.87157 -1.28738 0
M  V30 1937 H 181.044 3.43017 -2.35185 0
M  V30 1938 H 179.621 3.68986 -0.538888 0
M  V30 1939 N 181.806 0.884767 1.30421 0
M  V30 1940 C 183.031 0.517288 2.00845 0
M  V30 1941 C 183.456 -0.886779 1.65885 0
M  V30 1942 O 182.814 -1.58768 0.875354 0
M  V30 1943 C 182.862 0.698994 3.5376 0
M  V30 1944 O 181.966 -0.255208 4.1161 0
M  V30 1945 H 181.307 0.203872 0.631927 0
M  V30 1946 H 183.837 1.19225 1.66272 0
M  V30 1947 H 183.847 0.597912 4.03595 0
M  V30 1948 H 182.522 1.72271 3.78544 0
M  V30 1949 H 181.099 -0.10784 3.72744 0
M  V30 1950 N 183.284 -1.43765 0.645699 0
M  V30 1951 C 184.234 -2.27884 -0.0726442 0
M  V30 1952 C 185.218 -1.39483 -0.802086 0
M  V30 1953 O 186.41 -1.63174 -0.685791 0
M  V30 1954 C 183.539 -3.27055 -1.04356 0
M  V30 1955 C 182.625 -4.22944 -0.312985 0
M  V30 1956 N 183.016 -5.01391 0.666386 0
M  V30 1957 C 181.314 -4.42528 -0.55546 0
M  V30 1958 C 182.015 -5.71217 1.09935 0
M  V30 1959 N 180.991 -5.41856 0.435137 0
M  V30 1960 H 184.793 -2.85949 0.678988 0
M  V30 1961 H 182.307 -1.55378 0.472368 0
M  V30 1962 H 184.304 -3.86089 -1.57292 0
M  V30 1963 H 182.964 -2.70551 -1.79534 0
M  V30 1964 H 183.975 -5.07252 1.04481 0
M  V30 1965 H 180.652 -3.97104 -1.28899 0
M  V30 1966 H 182.042 -6.44202 1.90929 0
M  V30 1967 N 184.763 -0.387143 -1.52771 0
M  V30 1968 C 186.174 0.0873634 -1.86495 0
M  V30 1969 C 186.525 1.46336 -1.30691 0
M  V30 1970 O 185.65 2.068 -0.637409 0
M  V30 1971 C 186.245 0.165305 -3.38396 0
M  V30 1972 C 184.804 0.584101 -3.7184 0
M  V30 1973 C 183.951 -0.255279 -2.76122 0
M  V30 1974 H 186.902 -0.605104 -1.46711 0
M  V30 1975 H 186.923 0.984848 -3.67534 0
M  V30 1976 H 186.435 -0.836301 -3.78982 0
M  V30 1977 H 184.536 1.59315 -3.36823 0
M  V30 1978 H 184.649 0.343749 -4.77865 0
M  V30 1979 H 183.013 0.279126 -2.53166 0
M  V30 1980 H 183.796 -1.25482 -3.19545 0
M  V30 1981 N 186.241 1.57166 -0.116904 0
M  V30 1982 C 187.49 1.94298 0.541407 0
M  V30 1983 C 187.803 1.00236 1.67964 0
M  V30 1984 O 189.009 1.26826 2.40057 0
M  V30 1985 C 187.465 3.45306 1.01449 0
M  V30 1986 C 187.073 4.47899 -0.0951738 0
M  V30 1987 C 188.817 3.91361 1.6443 0
M  V30 1988 C 186.724 5.90083 0.394491 0
M  V30 1989 H 185.654 0.725308 0.206019 0
M  V30 1990 H 188.305 1.82446 -0.196419 0
M  V30 1991 H 186.687 3.52385 1.80667 0
M  V30 1992 H 187.861 4.52486 -0.871374 0
M  V30 1993 H 186.176 4.11583 -0.631505 0
M  V30 1994 H 188.773 4.95004 2.02176 0
M  V30 1995 H 189.116 3.3122 2.52189 0
M  V30 1996 H 189.649 3.87073 0.917559 0
M  V30 1997 H 186.388 6.53974 -0.447004 0
M  V30 1998 H 185.908 5.88921 1.13722 0
M  V30 1999 H 187.587 6.41307 0.856399 0
M  V30 2000 N 187.719 -0.156864 1.56817 0
M  V30 2001 C 188.966 -0.871125 1.82805 0
M  V30 2002 C 189.294 -1.81611 0.696262 0
M  V30 2003 O 188.549 -1.93141 -0.315459 0
M  V30 2004 C 188.848 -1.68737 3.1506 0
M  V30 2005 C 188.514 -0.890045 4.42028 0
M  V30 2006 C 187.176 -0.670042 4.76512 0
M  V30 2007 C 189.528 -0.331769 5.20143 0
M  V30 2008 C 186.856 0.119104 5.86579 0
M  V30 2009 C 189.208 0.444365 6.31037 0
M  V30 2010 C 187.872 0.675035 6.64078 0
M  V30 2011 H 187.142 -0.318767 0.668931 0
M  V30 2012 H 189.789 -0.135274 1.91022 0
M  V30 2013 H 188.094 -2.49304 3.0225 0
M  V30 2014 H 189.791 -2.24331 3.3238 0
M  V30 2015 H 186.381 -1.07157 4.14988 0
M  V30 2016 H 190.565 -0.489043 4.93885 0
M  V30 2017 H 185.821 0.307417 6.10627 0
M  V30 2018 H 189.995 0.884139 6.90765 0
M  V30 2019 H 187.622 1.28839 7.49203 0
M  V30 2020 N 189.197 -1.51736 -0.425897 0
M  V30 2021 C 190.147 -1.70258 -1.51645 0
M  V30 2022 C 191.131 -0.556488 -1.5097 0
M  V30 2023 O 192.323 -0.812879 -1.5723 0
M  V30 2024 C 189.452 -1.84143 -2.89735 0
M  V30 2025 C 188.538 -3.04572 -2.95122 0
M  V30 2026 N 188.929 -4.2756 -2.70233 0
M  V30 2027 C 187.227 -3.04061 -3.26286 0
M  V30 2028 C 187.928 -5.08908 -2.81757 0
M  V30 2029 N 186.904 -4.43797 -3.13919 0
M  V30 2030 H 190.706 -2.63004 -1.31172 0
M  V30 2031 H 188.22 -1.4954 -0.633375 0
M  V30 2032 H 190.217 -1.95525 -3.68206 0
M  V30 2033 H 188.877 -0.925857 -3.1122 0
M  V30 2034 H 189.888 -4.56315 -2.44943 0
M  V30 2035 H 186.565 -2.22179 -3.53473 0
M  V30 2036 H 187.955 -6.16843 -2.66372 0
M  V30 2037 N 190.675 0.682077 -1.42076 0
M  V30 2038 C 192.091 0.994324 -1.24841 0
M  V30 2039 C 192.291 2.0096 -0.147389 0
M  V30 2040 O 191.347 2.47822 0.483782 0
M  V30 2041 C 192.66 1.50607 -2.60265 0
M  V30 2042 C 194.208 1.62421 -2.6756 0
M  V30 2043 C 194.683 2.16994 -4.03333 0
M  V30 2044 N 196.174 2.24337 -4.0525 0
M  V30 2045 C 196.909 2.67621 -5.07116 0
M  V30 2046 N 196.405 3.1041 -6.19368 0
M  V30 2047 N 198.198 2.67305 -4.94474 0
M  V30 2048 H 190.349 0.00973908 -2.12398 0
M  V30 2049 H 192.612 0.0668593 -0.945639 0
M  V30 2050 H 192.318 0.834583 -3.41654 0
M  V30 2051 H 192.192 2.48602 -2.83684 0
M  V30 2052 H 194.579 2.28678 -1.86521 0
M  V30 2053 H 194.66 0.629352 -2.47937 0
M  V30 2054 H 194.304 1.51349 -4.84826 0
M  V30 2055 H 194.234 3.17258 -4.20304 0
M  V30 2056 H 196.725 1.94158 -3.24209 0
M  V30 2057 H 197.038 3.42103 -6.92954 0
M  V30 2058 H 195.383 3.08286 -6.22884 0
M  V30 2059 H 198.574 2.33233 -4.05857 0
M  V30 2060 H 198.747 3.00718 -5.73997 0
M  V30 2061 N 192.153 1.28127 0.917671 0
M  V30 2062 C 193.401 1.14825 1.66312 0
M  V30 2063 C 193.722 -0.304379 1.9261 0
M  V30 2064 O 192.992 -1.21149 1.53947 0
M  V30 2065 H 191.572 0.421953 0.616413 0
M  V30 2066 H 194.234 1.608 1.10134 0
M  V30 2067 H 193.33 1.68489 2.62712 0
M  V30 2068 N 193.631 -1.12557 1.10312 0
M  V30 2069 C 194.541 -2.21841 0.763142 0
M  V30 2070 C 195.557 -1.72354 -0.238801 0
M  V30 2071 O 196.733 -2.01249 -0.0778746 0
M  V30 2072 C 193.798 -3.46131 0.198632 0
M  V30 2073 C 192.859 -4.10464 1.25769 0
M  V30 2074 C 192.092 -5.28821 0.72002 0
M  V30 2075 O 192.315 -5.6859 -0.453993 0
M  V30 2076 O 191.249 -5.83437 1.47935 0
M  V30 2077 H 195.075 -2.53312 1.67532 0
M  V30 2078 H 192.66 -1.20867 0.878157 0
M  V30 2079 H 194.542 -4.2125 -0.112401 0
M  V30 2080 H 193.217 -3.16338 -0.686419 0
M  V30 2081 H 192.124 -3.3713 1.62156 0
M  V30 2082 H 193.457 -4.44408 2.11571 0
M  V30 2083 N 195.109 -0.891671 -1.2995 0
M  V30 2084 C 196.356 -0.513501 -1.95881 0
M  V30 2085 C 196.684 0.938655 -1.70351 0
M  V30 2086 O 195.939 1.67936 -1.00478 0
M  V30 2087 C 196.238 -0.742868 -3.49594 0
M  V30 2088 C 195.904 -2.17114 -3.95186 0
M  V30 2089 C 194.566 -2.56169 -4.07346 0
M  V30 2090 C 196.918 -3.10162 -4.18866 0
M  V30 2091 C 194.246 -3.87469 -4.4055 0
M  V30 2092 C 196.598 -4.41001 -4.53542 0
M  V30 2093 C 195.262 -4.79941 -4.63911 0
M  V30 2094 H 194.532 -0.187903 -0.71678 0
M  V30 2095 H 197.179 -1.1288 -1.54694 0
M  V30 2096 H 195.484 -0.044586 -3.91775 0
M  V30 2097 H 197.181 -0.429767 -3.9869 0
M  V30 2098 H 193.771 -1.85801 -3.86233 0
M  V30 2099 H 197.955 -2.81206 -4.08946 0
M  V30 2100 H 193.211 -4.17371 -4.46779 0
M  V30 2101 H 197.385 -5.13133 -4.70815 0
M  V30 2102 H 195.012 -5.81719 -4.89395 0
M  V30 2103 N 196.587 1.43421 -0.653314 0
M  V30 2104 C 197.812 2.06678 -0.172846 0
M  V30 2105 C 198.237 1.48648 1.15262 0
M  V30 2106 O 197.595 0.596457 1.71208 0
M  V30 2107 C 197.643 3.60474 -0.0953184 0
M  V30 2108 O 196.747 4.01487 0.942442 0
M  V30 2109 H 196.088 0.657181 -0.0949155 0
M  V30 2110 H 198.618 1.83925 -0.896265 0
M  V30 2111 H 198.628 4.07905 0.0879728 0
M  V30 2112 H 197.303 4.02088 -1.06291 0
M  V30 2113 H 195.88 3.65646 0.731932 0
M  V30 2114 N 198.065 0.39524 1.52563 0
M  V30 2115 C 199.311 -0.185318 2.01952 0
M  V30 2116 C 199.644 -1.45964 1.28095 0
M  V30 2117 O 198.919 -1.90689 0.38315 0
M  V30 2118 C 199.202 -0.447193 3.57312 0
M  V30 2119 C 199.055 0.842828 4.41833 0
M  V30 2120 C 200.374 -1.23529 4.22408 0
M  V30 2121 H 197.493 -0.0658788 0.73405 0
M  V30 2122 H 200.135 0.525975 1.82575 0
M  V30 2123 H 198.285 -1.05312 3.73954 0
M  V30 2124 H 199.957 1.4795 4.36931 0
M  V30 2125 H 198.2 1.45686 4.08605 0
M  V30 2126 H 198.871 0.614165 5.48573 0
M  V30 2127 H 201.347 -0.722445 4.0978 0
M  V30 2128 H 200.223 -1.38727 5.3108 0
M  V30 2129 H 200.484 -2.25213 3.80436 0
M  V30 2130 N 199.544 -1.57102 0.125237 0
M  V30 2131 C 200.784 -1.97294 -0.534259 0
M  V30 2132 C 201.148 -1.0074 -1.63449 0
M  V30 2133 O 202.349 -1.29893 -2.35332 0
M  V30 2134 C 200.62 -3.41705 -1.04748 0
M  V30 2135 S 202.179 -4.03913 -1.71463 0
M  V30 2136 H 198.997 -0.689517 -0.173458 0
M  V30 2137 H 201.599 -1.94349 0.211797 0
M  V30 2138 H 200.303 -4.09723 -0.235649 0
M  V30 2139 H 199.834 -3.48315 -1.82867 0
M  V30 2140 H 201.849 -3.95182 -3.00077 0
M  V30 2141 N 201.022 0.148545 -1.56898 0
M  V30 2142 C 202.299 0.890019 -1.74178 0
M  V30 2143 C 202.679 1.99407 -0.692839 0
M  V30 2144 O 202.027 2.26671 0.288505 0
M  V30 2145 C 202.237 1.43389 -3.18183 0
M  V30 2146 C 203.585 1.89791 -3.79822 0
M  V30 2147 O 204.609 1.53134 -3.21603 0
M  V30 2148 O 203.468 2.57387 -4.82093 0
M  V30 2149 H 200.562 0.420496 -0.712118 0
M  V30 2150 H 203.108 0.134591 -1.69165 0
M  V30 2151 H 201.88 0.640383 -3.86024 0
M  V30 2152 H 201.503 2.25287 -3.27615 0
M  V30 2153 N 202.5 1.5196 0.417844 0
M  V30 2154 C 203.725 1.69717 1.1921 0
M  V30 2155 C 204.15 0.402148 1.83751 0
M  V30 2156 O 203.508 -0.639593 1.69643 0
M  V30 2157 C 203.556 2.82794 2.2374 0
M  V30 2158 O 202.66 2.47756 3.29683 0
M  V30 2159 H 202.001 0.565263 0.348387 0
M  V30 2160 H 204.531 1.98621 0.490985 0
M  V30 2161 H 204.541 3.07452 2.68212 0
M  V30 2162 H 203.216 3.76756 1.76146 0
M  V30 2163 H 201.793 2.33739 2.90552 0
M  V30 2164 N 203.978 -0.674533 1.42435 0
M  V30 2165 C 205.224 -1.43671 1.43131 0
M  V30 2166 C 205.557 -1.94142 0.0476021 0
M  V30 2167 O 204.832 -1.70924 -0.928188 0
M  V30 2168 C 205.115 -2.63355 2.45594 0
M  V30 2169 C 204.968 -2.18514 3.93156 0
M  V30 2170 C 206.287 -3.65571 2.45043 0
M  V30 2171 H 203.406 -0.521077 0.521198 0
M  V30 2172 H 206.048 -0.766551 1.7385 0
M  V30 2173 H 204.198 -3.2053 2.19528 0
M  V30 2174 H 205.87 -1.66504 4.30202 0
M  V30 2175 H 204.113 -1.50086 4.07009 0
M  V30 2176 H 204.784 -3.04484 4.60428 0
M  V30 2177 H 207.26 -3.18113 2.68223 0
M  V30 2178 H 206.136 -4.46893 3.18713 0
M  V30 2179 H 206.397 -4.16716 1.47649 0
M  V30 2180 N 205.456 -1.28612 -0.910864 0
M  V30 2181 C 206.681 -1.1891 -1.69927 0
M  V30 2182 C 207.106 0.248372 -1.86453 0
M  V30 2183 O 206.464 1.17961 -1.37676 0
M  V30 2184 C 206.512 -1.89578 -3.06745 0
M  V30 2185 O 205.616 -1.20521 -3.94396 0
M  V30 2186 H 204.957 -0.412632 -0.520222 0
M  V30 2187 H 207.487 -1.69985 -1.1387 0
M  V30 2188 H 207.497 -1.97597 -3.56958 0
M  V30 2189 H 206.172 -2.94136 -2.94035 0
M  V30 2190 H 204.749 -1.20684 -3.52831 0
M  V30 2191 N 206.934 1.1197 -1.10907 0
M  V30 2192 C 208.18 1.8386 -0.855773 0
M  V30 2193 C 208.513 1.84134 0.617103 0
M  V30 2194 O 207.788 1.29041 1.45529 0
M  V30 2195 C 208.071 3.31305 -1.411 0
M  V30 2196 C 207.924 3.39456 -2.9511 0
M  V30 2197 C 209.243 4.2721 -1.05736 0
M  V30 2198 H 206.362 0.667545 -0.312334 0
M  V30 2199 H 209.004 1.31331 -1.37303 0
M  V30 2200 H 207.154 3.76169 -0.97105 0
M  V30 2201 H 208.826 3.03191 -3.47668 0
M  V30 2202 H 207.069 2.79849 -3.31462 0
M  V30 2203 H 207.74 4.43209 -3.29044 0
M  V30 2204 H 210.216 3.90497 -1.43706 0
M  V30 2205 H 209.092 5.28775 -1.47269 0
M  V30 2206 H 209.353 4.42088 0.0325958 0
M  V30 2207 N 208.412 0.89855 1.29475 0
M  V30 2208 C 209.658 0.534065 1.96263 0
M  V30 2209 C 210.013 -0.909415 1.69551 0
M  V30 2210 O 209.306 -1.63596 0.997349 0
M  V30 2211 C 209.5 0.761398 3.49195 0
M  V30 2212 C 209.329 2.22542 3.90775 0
M  V30 2213 C 208.099 2.87264 4.15701 0
M  V30 2214 C 210.297 3.20051 4.02581 0
M  V30 2215 N 208.279 4.24121 4.4384 0
M  V30 2216 C 209.65 4.42023 4.34759 0
M  V30 2217 C 211.705 3.15657 3.85052 0
M  V30 2218 C 210.408 5.60161 4.51235 0
M  V30 2219 C 212.434 4.33078 4.02737 0
M  V30 2220 C 211.796 5.5382 4.35273 0
M  V30 2221 H 207.895 0.245013 0.742625 0
M  V30 2222 H 210.479 1.15912 1.56437 0
M  V30 2223 H 208.65 0.165732 3.88046 0
M  V30 2224 H 210.382 0.362462 4.03074 0
M  V30 2225 H 207.137 2.38064 4.09417 0
M  V30 2226 H 207.561 4.94839 4.6202 0
M  V30 2227 H 212.203 2.23396 3.58962 0
M  V30 2228 H 209.921 6.52913 4.76162 0
M  V30 2229 H 213.507 4.31163 3.90628 0
M  V30 2230 H 212.387 6.43166 4.48672 0
M  V30 2231 N 209.89 -1.43072 0.660911 0
M  V30 2232 C 211.136 -2.0202 0.177708 0
M  V30 2233 C 211.469 -1.52066 -1.20787 0
M  V30 2234 O 210.744 -0.716987 -1.80802 0
M  V30 2235 C 211.027 -3.59561 0.197019 0
M  V30 2236 C 210.88 -4.19727 1.61706 0
M  V30 2237 C 212.199 -4.37664 -0.462396 0
M  V30 2238 H 209.318 -0.734034 0.0660494 0
M  V30 2239 H 211.96 -1.70272 0.843058 0
M  V30 2240 H 210.11 -3.86739 -0.369527 0
M  V30 2241 H 211.782 -4.03553 2.23479 0
M  V30 2242 H 210.025 -3.76084 2.16201 0
M  V30 2243 H 210.696 -5.28834 1.58237 0
M  V30 2244 H 213.172 -4.16095 0.0197215 0
M  V30 2245 H 212.048 -5.47305 -0.418188 0
M  V30 2246 H 212.309 -4.14493 -1.53778 0
M  V30 2247 N 211.368 -0.403325 -1.52352 0
M  V30 2248 C 212.616 0.174003 -2.0135 0
M  V30 2249 C 212.937 1.46139 -1.29106 0
M  V30 2250 O 212.207 1.91448 -0.415253 0
M  V30 2251 H 210.787 0.0672911 -0.743963 0
M  V30 2252 H 213.449 -0.538235 -1.87321 0
M  V30 2253 H 212.545 0.374254 -3.09848 0
M  V30 2254 N 212.846 1.57033 -0.133567 0
M  V30 2255 C 214.123 1.87256 0.56522 0
M  V30 2256 C 214.503 1.03726 1.83859 0
M  V30 2257 O 213.851 0.120247 2.28183 0
M  V30 2258 C 214.061 3.3865 0.843636 0
M  V30 2259 C 215.409 4.07574 1.19032 0
M  V30 2260 O 216.433 3.43752 0.933429 0
M  V30 2261 O 215.292 5.20259 1.67312 0
M  V30 2262 H 212.386 0.775678 0.286796 0
M  V30 2263 H 214.932 1.68855 -0.169168 0
M  V30 2264 H 213.704 3.91257 -0.0581149 0
M  V30 2265 H 213.327 3.62532 1.63268 0
M  V30 2266 N 214.325 -0.140222 1.56975 0
M  V30 2267 C 215.272 -1.17292 1.98774 0
M  V30 2268 C 216.242 -1.4232 0.856408 0
M  V30 2269 O 217.427 -1.54541 1.119 0
M  V30 2270 C 214.567 -2.49973 2.37923 0
M  V30 2271 C 213.68 -2.32062 3.64378 0
M  V30 2272 C 212.815 -3.57825 3.926 0
M  V30 2273 C 211.854 -3.3498 5.12303 0
M  V30 2274 N 210.991 -4.52891 5.36502 0
M  V30 2275 H 215.831 -0.809472 2.86795 0
M  V30 2276 H 213.368 -0.388237 1.41884 0
M  V30 2277 H 215.326 -3.27346 2.58652 0
M  V30 2278 H 213.956 -2.84252 1.52972 0
M  V30 2279 H 213.008 -1.45711 3.51387 0
M  V30 2280 H 214.32 -2.11145 4.51906 0
M  V30 2281 H 213.474 -4.43624 4.13863 0
M  V30 2282 H 212.213 -3.81753 3.03506 0
M  V30 2283 H 211.218 -2.4757 4.90906 0
M  V30 2284 H 212.443 -3.12444 6.02956 0
M  V30 2285 H 210.389 -4.76979 4.50363 0
M  V30 2286 H 210.306 -4.35001 6.18312 0
M  V30 2287 H 211.574 -5.39884 5.62268 0
M  V30 2288 N 215.803 -1.52179 -0.40978 0
M  V30 2289 C 217.031 -1.70054 -1.17853 0
M  V30 2290 C 217.446 -0.409735 -1.843 0
M  V30 2291 O 216.803 0.614183 -1.71855 0
M  V30 2292 C 216.854 -2.83568 -2.24213 0
M  V30 2293 O 216.575 -4.0765 -1.60478 0
M  V30 2294 C 218.076 -3.12947 -3.13973 0
M  V30 2295 H 215.296 -0.569917 -0.354169 0
M  V30 2296 H 217.84 -1.98734 -0.482198 0
M  V30 2297 H 215.995 -2.57409 -2.89516 0
M  V30 2298 H 216.409 -4.70899 -2.30986 0
M  V30 2299 H 217.883 -3.95889 -3.84677 0
M  V30 2300 H 218.36 -2.26472 -3.76307 0
M  V30 2301 H 218.966 -3.40868 -2.5434 0
M  V30 2302 N 217.281 0.66697 -1.42791 0
M  V30 2303 C 218.509 1.45505 -1.47091 0
M  V30 2304 C 218.924 1.8861 -0.0845873 0
M  V30 2305 O 218.281 1.58632 0.90234 0
M  V30 2306 C 218.332 2.69906 -2.40485 0
M  V30 2307 O 218.053 2.28608 -3.73725 0
M  V30 2308 C 219.554 3.63396 -2.53886 0
M  V30 2309 H 216.774 0.447459 -0.500022 0
M  V30 2310 H 219.318 0.818866 -1.8739 0
M  V30 2311 H 217.473 3.29696 -2.03419 0
M  V30 2312 H 217.887 3.08997 -4.23817 0
M  V30 2313 H 219.361 4.47387 -3.2334 0
M  V30 2314 H 219.838 4.09824 -1.57927 0
M  V30 2315 H 220.444 3.09495 -2.91706 0
M  V30 2316 N 218.759 1.29093 0.90403 0
M  V30 2317 C 219.722 1.1386 1.98919 0
M  V30 2318 C 220.722 0.0753457 1.60623 0
M  V30 2319 O 221.912 0.321931 1.71199 0
M  V30 2320 C 219.044 0.740198 3.32767 0
M  V30 2321 H 220.237 2.10246 2.13861 0
M  V30 2322 H 217.79 1.12218 1.08797 0
M  V30 2323 H 218.525 -0.223997 3.23525 0
M  V30 2324 H 218.31 1.50838 3.61926 0
M  V30 2325 H 219.8 0.656546 4.12407 0
M  V30 2326 N 220.237 -1.11381 1.11499 0
M  V30 2327 C 221.465 -1.86934 0.88675 0
M  V30 2328 C 221.88 -1.80195 -0.563476 0
M  V30 2329 O 221.237 -1.18367 -1.38908 0
M  V30 2330 C 221.288 -3.35722 1.34064 0
M  V30 2331 O 221.009 -3.4232 2.73401 0
M  V30 2332 C 222.51 -4.2818 1.14791 0
M  V30 2333 H 219.73 -0.591117 0.317523 0
M  V30 2334 H 222.274 -1.40865 1.48248 0
M  V30 2335 H 220.429 -3.79294 0.788355 0
M  V30 2336 H 220.843 -4.34971 2.93087 0
M  V30 2337 H 222.317 -5.30817 1.5145 0
M  V30 2338 H 222.794 -4.39113 0.0875279 0
M  V30 2339 H 223.4 -3.90402 1.68721 0
M  V30 2340 N 221.715 -0.905404 -1.28997 0
M  V30 2341 C 222.992 -0.453513 -1.9027 0
M  V30 2342 C 223.372 1.06721 -1.82137 0
M  V30 2343 O 222.72 1.91159 -1.25182 0
M  V30 2344 C 222.93 -0.974494 -3.35119 0
M  V30 2345 C 224.278 -1.0216 -4.12127 0
M  V30 2346 O 225.302 -0.922557 -3.44046 0
M  V30 2347 O 224.161 -1.17121 -5.33802 0
M  V30 2348 H 221.255 -0.142347 -0.814657 0
M  V30 2349 H 223.801 -0.995642 -1.37423 0
M  V30 2350 H 222.573 -2.01848 -3.35221 0
M  V30 2351 H 222.196 -0.412706 -3.95452 0
M  V30 2352 N 223.193 1.4272 -0.668489 0
M  V30 2353 C 224.442 2.00846 -0.185389 0
M  V30 2354 C 224.755 1.53442 1.21305 0
M  V30 2355 O 225.961 2.03944 1.79218 0
M  V30 2356 C 224.417 3.58805 -0.280591 0
M  V30 2357 C 224.025 4.15198 -1.68268 0
M  V30 2358 C 225.769 4.24255 0.14412 0
M  V30 2359 C 223.676 5.655 -1.73099 0
M  V30 2360 H 222.606 0.751145 -0.0655475 0
M  V30 2361 H 225.257 1.63516 -0.832752 0
M  V30 2362 H 223.639 3.93608 0.434553 0
M  V30 2363 H 224.813 3.91866 -2.42441 0
M  V30 2364 H 223.128 3.62176 -2.05469 0
M  V30 2365 H 225.725 5.34547 0.128086 0
M  V30 2366 H 226.068 3.99277 1.17827 0
M  V30 2367 H 226.601 3.94389 -0.519798 0
M  V30 2368 H 223.34 5.95268 -2.74475 0
M  V30 2369 H 222.86 5.90842 -1.03274 0
M  V30 2370 H 224.539 6.29808 -1.48158 0
M  V30 2371 N 224.671 0.411399 1.52136 0
M  V30 2372 C 225.618 -0.412975 2.27075 0
M  V30 2373 C 226.588 -1.03912 1.29582 0
M  V30 2374 O 227.773 -1.06296 1.58448 0
M  V30 2375 C 224.913 -1.52247 3.09701 0
M  V30 2376 C 224.026 -0.917021 4.22155 0
M  V30 2377 C 223.161 -1.9994 4.92135 0
M  V30 2378 C 222.2 -1.37101 5.96548 0
M  V30 2379 N 221.337 -2.39364 6.60038 0
M  V30 2380 H 226.177 0.232499 2.97092 0
M  V30 2381 H 223.714 0.126496 1.46555 0
M  V30 2382 H 225.672 -2.17674 3.55913 0
M  V30 2383 H 224.302 -2.13794 2.41851 0
M  V30 2384 H 223.354 -0.151742 3.80097 0
M  V30 2385 H 224.666 -0.418006 4.97045 0
M  V30 2386 H 223.82 -2.73088 5.41763 0
M  V30 2387 H 222.559 -2.53208 4.16818 0
M  V30 2388 H 221.564 -0.624873 5.46237 0
M  V30 2389 H 222.789 -0.845998 6.7381 0
M  V30 2390 H 220.735 -2.91759 5.87548 0
M  V30 2391 H 220.652 -1.9428 7.3061 0
M  V30 2392 H 221.92 -3.12074 7.14304 0
M  V30 2393 N 226.149 -1.5696 0.141893 0
M  V30 2394 C 227.397 -1.95573 -0.509484 0
M  V30 2395 C 227.718 -1.02746 -1.65736 0
M  V30 2396 O 226.988 -0.0880311 -1.95702 0
M  V30 2397 H 225.568 -0.722115 -0.191205 0
M  V30 2398 H 228.23 -1.93697 0.216196 0
M  V30 2399 H 227.326 -2.99171 -0.889 0
M  V30 2400 N 227.627 0.131896 -1.57047 0
M  V30 2401 C 228.574 1.16236 -1.99393 0
M  V30 2402 C 229.544 1.41863 -0.863943 0
M  V30 2403 O 230.729 1.53946 -1.12718 0
M  V30 2404 C 227.869 2.48708 -2.39245 0
M  V30 2405 C 226.982 2.30127 -3.65603 0
M  V30 2406 C 226.117 3.55738 -3.94492 0
M  V30 2407 C 225.156 3.32259 -5.14073 0
M  V30 2408 N 224.293 4.50039 -5.38896 0
M  V30 2409 H 229.133 0.794251 -2.87221 0
M  V30 2410 H 226.67 0.380707 -1.42088 0
M  V30 2411 H 228.628 3.25969 -2.60384 0
M  V30 2412 H 227.258 2.83437 -1.54478 0
M  V30 2413 H 226.31 1.43845 -3.52154 0
M  V30 2414 H 227.622 2.08746 -4.5302 0
M  V30 2415 H 226.776 4.41423 -4.1621 0
M  V30 2416 H 225.515 3.80138 -3.05526 0
M  V30 2417 H 224.52 2.44963 -4.92212 0
M  V30 2418 H 225.745 3.09242 -6.04604 0
M  V30 2419 H 223.691 4.74584 -4.52886 0
M  V30 2420 H 223.608 4.31716 -6.2061 0
M  V30 2421 H 224.876 5.36895 -5.65123 0
M  V30 2422 N 229.106 1.52395 0.401703 0
M  V30 2423 C 230.016 1.7917 1.51444 0
M  V30 2424 C 231.032 0.677691 1.6026 0
M  V30 2425 O 232.208 0.963909 1.76835 0
M  V30 2426 C 229.273 1.94347 2.87107 0
M  V30 2427 C 228.334 3.18257 2.88116 0
M  V30 2428 C 227.567 3.32701 4.17308 0
M  V30 2429 O 227.79 2.52238 5.11598 0
M  V30 2430 O 226.724 4.25891 4.25324 0
M  V30 2431 H 230.55 2.73633 1.31752 0
M  V30 2432 H 228.135 1.3733 0.588296 0
M  V30 2433 H 230.017 2.06109 3.67555 0
M  V30 2434 H 228.692 1.03073 3.06851 0
M  V30 2435 H 227.599 3.11947 2.06494 0
M  V30 2436 H 228.932 4.09336 2.73322 0
M  V30 2437 N 230.584 -0.659388 1.43143 0
M  V30 2438 C 231.83 -1.42145 1.44647 0
M  V30 2439 C 232.163 -1.9408 0.0681907 0
M  V30 2440 O 231.438 -1.71899 -0.910007 0
M  V30 2441 C 231.721 -2.60735 2.48373 0
M  V30 2442 C 231.574 -2.14332 3.95451 0
M  V30 2443 C 232.893 -3.62951 2.48906 0
M  V30 2444 H 230.012 -0.51552 0.526696 0
M  V30 2445 H 232.654 -0.748069 1.74654 0
M  V30 2446 H 230.804 -3.18184 2.22916 0
M  V30 2447 H 232.476 -1.61932 4.31944 0
M  V30 2448 H 230.719 -1.4576 4.08578 0
M  V30 2449 H 231.39 -2.99583 4.63631 0
M  V30 2450 H 233.866 -3.1525 2.71582 0
M  V30 2451 H 232.742 -4.43487 3.23435 0
M  V30 2452 H 233.003 -4.15126 1.52061 0
M  V30 2453 N 232.062 -1.29571 -0.897171 0
M  V30 2454 C 232.995 -1.0924 -2.00354 0
M  V30 2455 C 233.973 -0.00354011 -1.626 0
M  V30 2456 O 235.157 -0.15473 -1.87864 0
M  V30 2457 C 232.284 -0.66352 -3.32137 0
M  V30 2458 C 231.33 -1.75146 -3.88878 0
M  V30 2459 S 232.163 -3.35124 -4.17674 0
M  V30 2460 C 233.319 -2.9411 -5.52494 0
M  V30 2461 H 233.552 -2.02907 -2.17292 0
M  V30 2462 H 231.085 -1.13746 -1.04408 0
M  V30 2463 H 233.043 -0.422791 -4.08317 0
M  V30 2464 H 231.704 0.253588 -3.13075 0
M  V30 2465 H 230.897 -1.40337 -4.84068 0
M  V30 2466 H 230.499 -1.94584 -3.19395 0
M  V30 2467 H 232.791 -2.41312 -6.33068 0
M  V30 2468 H 233.734 -3.88161 -5.9223 0
M  V30 2469 H 234.142 -2.32332 -5.14473 0
M  V30 2470 N 233.54 1.10788 -1.12088 0
M  V30 2471 C 234.786 1.82942 -0.875226 0
M  V30 2472 C 235.119 1.84779 0.597538 0
M  V30 2473 O 234.394 1.30578 1.44152 0
M  V30 2474 C 234.677 3.29789 -1.44606 0
M  V30 2475 C 234.53 3.36307 -2.98693 0
M  V30 2476 C 235.849 4.26064 -1.10261 0
M  V30 2477 H 232.968 0.664195 -0.319397 0
M  V30 2478 H 235.61 1.29867 -1.38689 0
M  V30 2479 H 233.76 3.75118 -1.01089 0
M  V30 2480 H 235.432 2.99487 -3.50864 0
M  V30 2481 H 233.675 2.76318 -3.34411 0
M  V30 2482 H 234.346 4.39694 -3.33726 0
M  V30 2483 H 236.822 3.88951 -1.4784 0
M  V30 2484 H 235.698 5.27183 -1.52869 0
M  V30 2485 H 235.959 4.42098 -0.0142953 0
M  V30 2486 N 235.018 0.912232 1.28515 0
M  V30 2487 C 235.948 0.416403 2.29757 0
M  V30 2488 C 236.929 -0.515194 1.6211 0
M  V30 2489 O 238.114 -0.423253 1.89532 0
M  V30 2490 C 235.244 -0.34572 3.45575 0
M  V30 2491 C 234.198 0.496599 4.25109 0
M  V30 2492 C 233.524 -0.393771 5.33248 0
M  V30 2493 C 234.824 1.75307 4.92001 0
M  V30 2494 H 236.518 1.26249 2.7148 0
M  V30 2495 H 234.064 0.608515 1.30511 0
M  V30 2496 H 236.017 -0.703422 4.15488 0
M  V30 2497 H 234.741 -1.2257 3.02728 0
M  V30 2498 H 233.4 0.8368 3.56922 0
M  V30 2499 H 233.048 -1.27225 4.86644 0
M  V30 2500 H 232.748 0.166209 5.87365 0
M  V30 2501 H 234.272 -0.747389 6.06009 0
M  V30 2502 H 235.686 1.46437 5.54283 0
M  V30 2503 H 234.083 2.25534 5.56106 0
M  V30 2504 H 235.153 2.48176 4.16577 0
M  V30 2505 N 236.496 -1.42363 0.676048 0
M  V30 2506 C 237.744 -2.01123 0.198437 0
M  V30 2507 C 238.065 -1.53731 -1.19966 0
M  V30 2508 O 237.335 -0.759518 -1.80577 0
M  V30 2509 H 235.915 -0.743678 0.0703721 0
M  V30 2510 H 238.577 -1.74263 0.872837 0
M  V30 2511 H 237.673 -3.11454 0.200686 0
M  V30 2512 N 237.974 -0.419461 -1.51915 0
M  V30 2513 C 238.884 0.407528 -2.31033 0
M  V30 2514 C 239.9 1.04413 -1.3919 0
M  V30 2515 O 241.076 1.0434 -1.72265 0
M  V30 2516 C 238.141 1.50365 -3.12396 0
M  V30 2517 C 237.202 0.889029 -4.19994 0
M  V30 2518 C 236.435 1.93291 -4.97468 0
M  V30 2519 O 236.658 3.15259 -4.75361 0
M  V30 2520 O 235.592 1.53339 -5.8204 0
M  V30 2521 H 239.418 -0.237865 -3.02767 0
M  V30 2522 H 237.003 -0.182413 -1.48282 0
M  V30 2523 H 238.885 2.13975 -3.63032 0
M  V30 2524 H 237.56 2.13345 -2.43445 0
M  V30 2525 H 236.467 0.215353 -3.7348 0
M  V30 2526 H 237.8 0.302991 -4.91267 0
M  V30 2527 N 239.452 1.56882 -0.150215 0
M  V30 2528 C 240.698 1.96518 0.500834 0
M  V30 2529 C 241.031 1.03527 1.64304 0
M  V30 2530 O 240.306 0.0782751 1.94342 0
M  V30 2531 C 240.589 3.45822 1.00395 0
M  V30 2532 C 240.442 4.49591 -0.136983 0
M  V30 2533 C 241.761 3.97704 1.88467 0
M  V30 2534 H 238.88 0.714535 0.18058 0
M  V30 2535 H 241.522 1.88577 -0.232091 0
M  V30 2536 H 239.672 3.5272 1.62851 0
M  V30 2537 H 241.344 4.5477 -0.77343 0
M  V30 2538 H 239.587 4.26441 -0.795652 0
M  V30 2539 H 240.258 5.51402 0.256815 0
M  V30 2540 H 242.734 3.93304 1.35834 0
M  V30 2541 H 241.61 5.0263 2.20578 0
M  V30 2542 H 241.871 3.40252 2.82279 0
M  V30 2543 N 240.93 -0.123565 1.57115 0
M  V30 2544 C 241.878 -1.17082 2.00984 0
M  V30 2545 C 242.872 -1.43136 0.906009 0
M  V30 2546 O 244.078 -1.43152 1.09121 0
M  V30 2547 H 240.453 -0.394653 0.64012 0
M  V30 2548 H 242.424 -0.774292 2.88179 0
M  V30 2549 C 241.173 -2.49057 2.42623 0
M  V30 2550 H 240.496 -2.29846 3.27125 0
M  V30 2551 H 241.936 -3.20906 2.7712 0
M  V30 2552 C 240.395 -3.11305 1.28805 0
M  V30 2553 O 240.925 -3.97171 0.60153 0
M  V30 2554 N 239.131 -2.71111 1.04628 0
M  V30 2555 H 238.678 -2.01382 1.60634 0
M  V30 2556 H 238.636 -3.1309 0.286685 0
M  V30 2557 N 242.408 -1.52605 -0.393616 0
M  V30 2558 C 243.657 -1.66649 -1.13627 0
M  V30 2559 C 243.97 -0.410364 -1.91247 0
M  V30 2560 O 245.176 -0.430854 -2.68059 0
M  V30 2561 C 243.632 -2.9449 -2.06891 0
M  V30 2562 C 243.24 -4.27266 -1.34714 0
M  V30 2563 C 244.984 -3.17899 -2.81319 0
M  V30 2564 C 242.891 -5.46217 -2.26717 0
M  V30 2565 H 241.821 -0.62084 -0.427871 0
M  V30 2566 H 244.472 -1.791 -0.399428 0
M  V30 2567 H 242.854 -2.75774 -2.84191 0
M  V30 2568 H 244.028 -4.56518 -0.626714 0
M  V30 2569 H 242.343 -4.10081 -0.722643 0
M  V30 2570 H 244.94 -4.03949 -3.50328 0
M  V30 2571 H 245.283 -2.32777 -3.45139 0
M  V30 2572 H 245.816 -3.37159 -2.11113 0
M  V30 2573 H 242.555 -6.33733 -1.67521 0
M  V30 2574 H 242.075 -5.21283 -2.96689 0
M  V30 2575 H 243.754 -5.7991 -2.86903 0
M  V30 2576 N 243.887 0.651787 -1.4349 0
M  V30 2577 C 244.835 1.78586 -1.49029 0
M  V30 2578 C 245.829 1.65448 -0.363767 0
M  V30 2579 O 247.035 1.71777 -0.537821 0
M  V30 2580 H 243.41 0.589236 -0.467231 0
M  V30 2581 H 245.381 1.71035 -2.44519 0
M  V30 2582 C 244.13 3.16851 -1.43181 0
M  V30 2583 H 243.453 3.27598 -2.29171 0
M  V30 2584 H 244.893 3.96156 -1.51118 0
M  V30 2585 C 243.352 3.36568 -0.149616 0
M  V30 2586 O 243.882 3.93885 0.788509 0
M  V30 2587 N 242.088 2.90539 -0.0593484 0
M  V30 2588 H 241.635 2.4408 -0.823575 0
M  V30 2589 H 241.593 3.04108 0.797853 0
M  V30 2590 N 245.365 1.30045 0.890287 0
M  V30 2591 C 246.313 1.15873 2.01683 0
M  V30 2592 C 247.307 0.0719403 1.69247 0
M  V30 2593 O 248.513 0.232414 1.78493 0
M  V30 2594 H 244.888 0.358203 0.661207 0
M  V30 2595 H 246.859 2.11229 2.10772 0
M  V30 2596 C 245.608 0.861842 3.36849 0
M  V30 2597 H 244.931 1.69016 3.62317 0
M  V30 2598 H 246.371 0.802762 4.16331 0
M  V30 2599 C 244.83 -0.435132 3.34078 0
M  V30 2600 O 245.36 -1.4583 3.74295 0
M  V30 2601 N 243.566 -0.444377 2.87182 0
M  V30 2602 H 243.113 0.388723 2.5465 0
M  V30 2603 H 243.071 -1.31213 2.85711 0
M  V30 2604 N 246.843 -1.10192 1.12674 0
M  V30 2605 C 248.068 -1.86523 0.906853 0
M  V30 2606 C 248.493 -1.80221 -0.538711 0
M  V30 2607 O 247.851 -1.17396 -1.38158 0
M  V30 2608 C 247.899 -3.32758 1.3894 0
M  V30 2609 O 247.003 -4.08449 0.5695 0
M  V30 2610 H 246.344 -0.578678 0.325619 0
M  V30 2611 H 248.874 -1.39203 1.49946 0
M  V30 2612 H 248.884 -3.83608 1.38958 0
M  V30 2613 H 247.559 -3.36661 2.44197 0
M  V30 2614 H 246.136 -3.67427 0.636528 0
M  V30 2615 N 248.321 -0.919034 -1.28029 0
M  V30 2616 C 249.567 -0.555757 -1.95036 0
M  V30 2617 C 249.9 0.899198 -1.72128 0
M  V30 2618 O 249.175 1.64023 -1.04531 0
M  V30 2619 C 249.458 -0.872024 -3.49382 0
M  V30 2620 C 249.311 -2.3801 -3.81669 0
M  V30 2621 C 250.63 -0.37185 -4.38526 0
M  V30 2622 H 247.749 -0.203386 -0.708381 0
M  V30 2623 H 250.391 -1.14924 -1.51303 0
M  V30 2624 H 248.541 -0.366946 -3.86763 0
M  V30 2625 H 250.213 -2.9562 -3.54128 0
M  V30 2626 H 248.456 -2.83289 -3.28526 0
M  V30 2627 H 249.127 -2.55192 -4.8947 0
M  V30 2628 H 251.603 -0.804602 -4.08247 0
M  V30 2629 H 250.479 -0.622173 -5.45362 0
M  V30 2630 H 250.74 0.727934 -4.36066 0
M  V30 2631 N 249.799 1.42003 -0.683588 0
M  V30 2632 C 251.046 2.01413 -0.209514 0
M  V30 2633 C 251.374 1.54088 1.1869 0
M  V30 2634 O 250.629 0.737591 1.81268 0
M  V30 2635 C 250.928 3.56827 -0.202357 0
M  V30 2636 C 250.594 4.23617 -1.54464 0
M  V30 2637 C 249.256 4.41577 -1.91215 0
M  V30 2638 C 251.608 4.61178 -2.42826 0
M  V30 2639 C 248.936 4.9437 -3.15935 0
M  V30 2640 C 251.288 5.15355 -3.66867 0
M  V30 2641 C 249.952 5.31528 -4.03776 0
M  V30 2642 H 249.222 0.737023 -0.0766668 0
M  V30 2643 H 251.869 1.70067 -0.880312 0
M  V30 2644 H 250.174 3.87892 0.551969 0
M  V30 2645 H 251.871 4.00588 0.181793 0
M  V30 2646 H 248.461 4.10004 -1.24877 0
M  V30 2647 H 252.645 4.46968 -2.15717 0
M  V30 2648 H 247.901 5.05076 -3.44541 0
M  V30 2649 H 252.075 5.43402 -4.35531 0
M  V30 2650 H 249.702 5.72199 -5.00492 0
M  V30 2651 N 251.277 0.427512 1.51691 0
M  V30 2652 C 252.224 -0.388867 2.275 0
M  V30 2653 C 253.194 -1.02532 1.30677 0
M  V30 2654 O 254.379 -1.0461 1.59566 0
M  V30 2655 C 251.519 -1.48954 3.11298 0
M  V30 2656 C 250.632 -0.872194 4.23104 0
M  V30 2657 C 249.767 -1.94709 4.94228 0
M  V30 2658 C 248.806 -1.30766 5.97969 0
M  V30 2659 N 247.943 -2.32349 6.62539 0
M  V30 2660 H 252.783 0.263997 2.96828 0
M  V30 2661 H 250.32 0.142033 1.46413 0
M  V30 2662 H 252.278 -2.13887 3.58201 0
M  V30 2663 H 250.908 -2.11217 2.44105 0
M  V30 2664 H 249.96 -0.111419 3.80237 0
M  V30 2665 H 251.272 -0.365264 4.97461 0
M  V30 2666 H 250.426 -2.67327 5.44629 0
M  V30 2667 H 249.165 -2.48773 4.1948 0
M  V30 2668 H 248.17 -0.566902 5.4687 0
M  V30 2669 H 249.395 -0.774483 6.74669 0
M  V30 2670 H 247.341 -2.85511 5.90609 0
M  V30 2671 H 247.258 -1.8652 7.3263 0
M  V30 2672 H 248.526 -3.04481 7.17574 0
M  V30 2673 N 252.755 -1.56801 0.158532 0
M  V30 2674 C 253.687 -2.14488 -0.807923 0
M  V30 2675 C 254.7 -1.09721 -1.20271 0
M  V30 2676 O 255.889 -1.36956 -1.14478 0
M  V30 2677 C 252.989 -2.66217 -2.09718 0
M  V30 2678 C 252.162 -3.95507 -1.86796 0
M  V30 2679 C 251.221 -4.3243 -2.99818 0
M  V30 2680 O 250.247 -5.00543 -2.71008 0
M  V30 2681 N 251.449 -3.92947 -4.27285 0
M  V30 2682 H 254.214 -2.98042 -0.314816 0
M  V30 2683 H 251.775 -1.61881 -0.0246692 0
M  V30 2684 H 253.767 -2.87924 -2.84398 0
M  V30 2685 H 252.337 -1.87324 -2.50257 0
M  V30 2686 H 251.557 -3.82309 -0.96089 0
M  V30 2687 H 252.845 -4.79972 -1.68833 0
M  V30 2688 H 252.243 -3.38087 -4.53557 0
M  V30 2689 H 250.8 -4.19681 -4.9871 0
M  V30 2690 N 254.233 0.115231 -1.57178 0
M  V30 2691 C 255.463 0.835224 -1.88964 0
M  V30 2692 C 255.871 1.73774 -0.74829 0
M  V30 2693 O 255.214 1.81401 0.289739 0
M  V30 2694 C 255.276 1.7178 -3.15804 0
M  V30 2695 C 254.94 0.989198 -4.46166 0
M  V30 2696 C 255.937 0.328263 -5.18863 0
M  V30 2697 C 253.622 0.969256 -4.9286 0
M  V30 2698 C 255.616 -0.342873 -6.36477 0
M  V30 2699 C 253.303 0.294324 -6.10391 0
M  V30 2700 C 254.301 -0.360582 -6.82048 0
M  V30 2701 O 253.989 -1.02474 -7.97342 0
M  V30 2702 H 253.721 0.245197 -0.629964 0
M  V30 2703 H 256.275 0.10303 -2.05141 0
M  V30 2704 H 254.505 2.49173 -2.95719 0
M  V30 2705 H 256.194 2.31255 -3.33581 0
M  V30 2706 H 256.96 0.335263 -4.8384 0
M  V30 2707 H 252.839 1.46844 -4.36987 0
M  V30 2708 H 256.383 -0.854629 -6.92345 0
M  V30 2709 H 252.28 0.285099 -6.4487 0
M  V30 2710 H 253.048 -0.929594 -8.13204 0
M  V30 2711 N 255.711 1.52812 0.385517 0
M  V30 2712 C 256.958 1.68026 1.1302 0
M  V30 2713 C 257.286 0.421934 1.89868 0
M  V30 2714 O 256.541 -0.595749 1.86412 0
M  V30 2715 C 256.84 2.86856 2.13187 0
M  V30 2716 C 256.506 4.24159 1.5297 0
M  V30 2717 C 255.168 4.61501 1.36274 0
M  V30 2718 C 257.52 5.09627 1.09223 0
M  V30 2719 C 254.848 5.81966 0.743837 0
M  V30 2720 C 257.2 6.30719 0.487411 0
M  V30 2721 C 255.864 6.6679 0.307777 0
M  V30 2722 H 255.134 0.614849 0.413571 0
M  V30 2723 H 257.781 1.86962 0.414405 0
M  V30 2724 H 256.086 2.6235 2.90998 0
M  V30 2725 H 257.783 2.95821 2.70722 0
M  V30 2726 H 254.373 3.94746 1.66954 0
M  V30 2727 H 258.557 4.81343 1.20922 0
M  V30 2728 H 253.813 6.08519 0.592891 0
M  V30 2729 H 257.987 6.96259 0.140143 0
M  V30 2730 H 255.614 7.60001 -0.173879 0
M  V30 2731 N 257.189 -0.644168 1.43834 0
M  V30 2732 C 258.436 -1.40395 1.4593 0
M  V30 2733 C 258.764 -1.94305 0.0869658 0
M  V30 2734 O 258.019 -1.73288 -0.909378 0
M  V30 2735 C 258.318 -2.59615 2.45631 0
M  V30 2736 C 257.984 -2.2407 3.91284 0
M  V30 2737 C 256.646 -2.14089 4.30952 0
M  V30 2738 C 258.998 -1.95775 4.83034 0
M  V30 2739 C 256.326 -1.73981 5.6031 0
M  V30 2740 C 258.678 -1.57163 6.12766 0
M  V30 2741 C 257.342 -1.45713 6.51402 0
M  V30 2742 H 256.612 -0.513741 0.533995 0
M  V30 2743 H 259.259 -0.731724 1.76969 0
M  V30 2744 H 257.564 -3.32011 2.08028 0
M  V30 2745 H 259.261 -3.17834 2.44504 0
M  V30 2746 H 255.851 -2.32753 3.59895 0
M  V30 2747 H 260.035 -2.02403 4.53152 0
M  V30 2748 H 255.291 -1.63709 5.89075 0
M  V30 2749 H 259.465 -1.34303 6.83327 0
M  V30 2750 H 257.092 -1.14406 7.51542 0
M  V30 2751 N 258.668 -1.30515 -0.883378 0
M  V30 2752 C 259.578 -1.18959 -2.02203 0
M  V30 2753 C 260.594 -0.109172 -1.73657 0
M  V30 2754 O 261.77 -0.324413 -1.9877 0
M  V30 2755 C 258.835 -0.883871 -3.35244 0
M  V30 2756 C 257.896 -2.04982 -3.77201 0
M  V30 2757 C 257.129 -1.75859 -5.03894 0
M  V30 2758 O 257.352 -0.687276 -5.66244 0
M  V30 2759 O 256.286 -2.61146 -5.42297 0
M  V30 2760 H 260.112 -2.14616 -2.1488 0
M  V30 2761 H 257.697 -1.10124 -1.0096 0
M  V30 2762 H 259.579 -0.728644 -4.15053 0
M  V30 2763 H 258.254 0.0427798 -3.23672 0
M  V30 2764 H 257.161 -2.26038 -2.9809 0
M  V30 2765 H 258.494 -2.95825 -3.93381 0
M  V30 2766 N 260.146 1.09593 -1.13257 0
M  V30 2767 C 261.374 1.855 -0.916378 0
M  V30 2768 C 261.789 1.81069 0.534738 0
M  V30 2769 O 261.146 1.20562 1.37007 0
M  V30 2770 C 261.197 3.33546 -1.39388 0
M  V30 2771 O 260.918 3.37927 -2.78813 0
M  V30 2772 C 262.419 4.26299 -1.21588 0
M  V30 2773 H 259.639 0.585991 -0.326887 0
M  V30 2774 H 262.183 1.38488 -1.5047 0
M  V30 2775 H 260.338 3.77992 -0.848597 0
M  V30 2776 H 260.752 4.30254 -2.9997 0
M  V30 2777 H 262.226 5.28341 -1.59876 0
M  V30 2778 H 262.703 4.38918 -0.157376 0
M  V30 2779 H 263.309 3.87668 -1.7491 0
M  V30 2780 N 261.624 0.925811 1.2754 0
M  V30 2781 C 262.571 0.422045 2.26908 0
M  V30 2782 C 263.541 -0.510029 1.58076 0
M  V30 2783 O 264.726 -0.429599 1.85901 0
M  V30 2784 C 261.866 -0.320837 3.43605 0
M  V30 2785 C 260.979 0.64513 4.27156 0
M  V30 2786 C 260.114 -0.117405 5.3107 0
M  V30 2787 C 259.153 0.841391 6.0629 0
M  V30 2788 N 258.29 0.111604 7.02011 0
M  V30 2789 H 263.13 1.27441 2.69375 0
M  V30 2790 H 260.667 0.639697 1.32462 0
M  V30 2791 H 262.625 -0.76785 4.10073 0
M  V30 2792 H 261.255 -1.13745 3.02096 0
M  V30 2793 H 260.307 1.21067 3.6062 0
M  V30 2794 H 261.619 1.37797 4.79389 0
M  V30 2795 H 260.773 -0.624422 6.03478 0
M  V30 2796 H 259.512 -0.883219 4.79636 0
M  V30 2797 H 258.517 1.35967 5.32722 0
M  V30 2798 H 259.742 1.60696 6.59813 0
M  V30 2799 H 257.688 -0.635999 6.5291 0
M  V30 2800 H 257.605 0.784044 7.51923 0
M  V30 2801 H 258.873 -0.374823 7.78598 0
M  V30 2802 N 263.102 -1.41638 0.69111 0
M  V30 2803 C 264.342 -2.03166 0.224291 0
M  V30 2804 C 264.706 -1.53537 -1.15284 0
M  V30 2805 O 265.907 -2.0696 -1.71525 0
M  V30 2806 C 264.178 -3.56342 0.274758 0
M  V30 2807 S 265.737 -4.3864 -0.118669 0
M  V30 2808 H 262.555 -0.705188 0.0907263 0
M  V30 2809 H 265.157 -1.7314 0.907895 0
M  V30 2810 H 263.861 -3.89958 1.2791 0
M  V30 2811 H 263.392 -3.91063 -0.428142 0
M  V30 2812 H 265.407 -4.77549 -1.34764 0
M  V30 2813 N 264.58 -0.43555 -1.51462 0
M  V30 2814 C 265.996 -0.0877501 -1.59359 0
M  V30 2815 C 266.196 1.4027 -1.4466 0
M  V30 2816 O 265.252 2.17243 -1.28693 0
M  V30 2817 C 266.565 -0.606264 -2.94525 0
M  V30 2818 C 268.113 -0.566548 -3.0783 0
M  V30 2819 C 268.588 -1.06201 -4.45517 0
M  V30 2820 N 270.079 -1.01992 -4.51832 0
M  V30 2821 C 270.814 -1.37417 -5.5669 0
M  V30 2822 N 270.31 -1.80119 -6.68976 0
M  V30 2823 N 272.103 -1.29245 -5.47039 0
M  V30 2824 H 264.254 -1.40533 -1.59261 0
M  V30 2825 H 266.517 -0.578992 -0.750648 0
M  V30 2826 H 266.223 -1.64901 -3.10645 0
M  V30 2827 H 266.097 -0.0302097 -3.77188 0
M  V30 2828 H 268.484 0.467208 -2.91378 0
M  V30 2829 H 268.565 -1.17898 -2.2701 0
M  V30 2830 H 268.209 -2.09422 -4.62715 0
M  V30 2831 H 268.139 -0.426127 -5.24873 0
M  V30 2832 H 270.63 -0.706308 -3.71241 0
M  V30 2833 H 270.943 -2.05392 -7.45006 0
M  V30 2834 H 269.288 -1.84044 -6.70189 0
M  V30 2835 H 272.479 -0.957522 -4.58202 0
M  V30 2836 H 272.652 -1.57182 -6.28648 0
M  V30 2837 N 266.058 1.56714 -0.166846 0
M  V30 2838 C 267.335 1.88412 0.525373 0
M  V30 2839 C 267.715 1.07602 1.81618 0
M  V30 2840 O 267.063 0.168621 2.27877 0
M  V30 2841 C 267.273 3.40363 0.771613 0
M  V30 2842 C 268.621 4.10007 1.1036 0
M  V30 2843 O 269.645 3.45655 0.860304 0
M  V30 2844 O 268.504 5.2369 1.56239 0
M  V30 2845 H 265.598 0.781587 0.270278 0
M  V30 2846 H 268.144 1.68458 -0.204946 0
M  V30 2847 H 266.916 3.91046 -0.141093 0
M  V30 2848 H 266.539 3.65914 1.55541 0
M  V30 2849 N 267.536 -0.106894 1.57237 0
M  V30 2850 C 268.947 -0.662723 1.74542 0
M  V30 2851 C 269.298 -1.7971 0.787319 0
M  V30 2852 O 268.423 -2.16368 -0.0369636 0
M  V30 2853 C 269.018 -1.20896 3.16496 0
M  V30 2854 C 267.577 -1.71096 3.35266 0
M  V30 2855 C 266.724 -0.615642 2.7038 0
M  V30 2856 H 269.675 0.119106 1.58252 0
M  V30 2857 H 269.696 -2.07847 3.18716 0
M  V30 2858 H 269.208 -0.383122 3.86204 0
M  V30 2859 H 267.309 -2.56119 2.70618 0
M  V30 2860 H 267.422 -1.81208 4.43509 0
M  V30 2861 H 265.786 -1.05222 2.31949 0
M  V30 2862 H 266.569 0.199419 3.4272 0
M  V30 2863 N 269.014 -1.53014 -0.377408 0
M  V30 2864 C 269.962 -1.7927 -1.48206 0
M  V30 2865 C 270.956 -0.661195 -1.55963 0
M  V30 2866 O 272.162 -0.843908 -1.58991 0
M  V30 2867 H 268.537 -0.567425 -0.493491 0
M  V30 2868 H 270.508 -2.71753 -1.2326 0
M  V30 2869 C 269.257 -1.98894 -2.85196 0
M  V30 2870 H 268.58 -2.85395 -2.79981 0
M  V30 2871 H 270.02 -2.21249 -3.61698 0
M  V30 2872 C 268.479 -0.764691 -3.28107 0
M  V30 2873 O 269.009 0.0523226 -4.01666 0
M  V30 2874 N 267.215 -0.591493 -2.84517 0
M  V30 2875 H 266.762 -1.25749 -2.24822 0
M  V30 2876 H 266.72 0.226253 -3.13585 0
M  V30 2877 N 270.492 0.636531 -1.44174 0
M  V30 2878 C 271.903 1.21806 -1.41493 0
M  V30 2879 C 272.254 1.95785 -0.1275 0
M  V30 2880 O 271.379 2.02147 0.772376 0
M  V30 2881 C 271.974 2.21551 -2.56321 0
M  V30 2882 C 270.533 2.75143 -2.56853 0
M  V30 2883 C 269.68 1.50052 -2.33195 0
M  V30 2884 H 272.631 0.427531 -1.52833 0
M  V30 2885 H 272.652 3.0405 -2.28765 0
M  V30 2886 H 272.164 1.67679 -3.50008 0
M  V30 2887 H 270.265 3.33033 -1.67093 0
M  V30 2888 H 270.378 3.2155 -3.55165 0
M  V30 2889 H 268.742 1.77993 -1.82183 0
M  V30 2890 H 269.525 0.980903 -3.28988 0
M  V30 2891 N 271.97 1.30982 0.876444 0
M  V30 2892 C 273.216 1.20474 1.63138 0
M  V30 2893 C 273.549 -0.238096 1.92735 0
M  V30 2894 O 272.824 -1.1692 1.55435 0
M  V30 2895 C 273.107 2.04244 2.96574 0
M  V30 2896 C 272.96 3.56793 2.73896 0
M  V30 2897 C 274.279 1.88684 3.97601 0
M  V30 2898 H 271.398 0.439001 0.591985 0
M  V30 2899 H 274.04 1.60704 1.01361 0
M  V30 2900 H 272.19 1.70063 3.493 0
M  V30 2901 H 273.862 4.01077 2.27892 0
M  V30 2902 H 272.105 3.80548 2.08245 0
M  V30 2903 H 272.776 4.10706 3.68815 0
M  V30 2904 H 275.252 2.18584 3.54062 0
M  V30 2905 H 274.128 2.4961 4.88862 0
M  V30 2906 H 274.389 0.848343 4.33884 0
M  V30 2907 N 273.449 -1.08991 1.13837 0
M  V30 2908 C 274.726 -1.77863 0.813876 0
M  V30 2909 C 275.106 -1.99375 -0.693746 0
M  V30 2910 O 274.454 -1.59875 -1.63255 0
M  V30 2911 C 274.664 -3.0986 1.60586 0
M  V30 2912 C 276.012 -3.84493 1.8014 0
M  V30 2913 O 277.036 -3.19624 1.57222 0
M  V30 2914 O 275.895 -5.00957 2.18413 0
M  V30 2915 H 272.989 -0.771589 0.297624 0
M  V30 2916 H 275.535 -1.15507 1.24323 0
M  V30 2917 H 274.307 -2.89715 2.63022 0
M  V30 2918 H 273.93 -3.79942 1.17173 0
M  V30 2919 N 274.927 -0.932562 -1.27047 0
M  V30 2920 C 276.152 -0.591474 -1.98787 0
M  V30 2921 C 276.577 0.824601 -1.69062 0
M  V30 2922 O 275.935 1.5541 -0.933677 0
M  V30 2923 C 275.983 -0.829808 -3.50922 0
M  V30 2924 O 275.087 0.102266 -4.12273 0
M  V30 2925 H 274.428 -0.227185 -0.623926 0
M  V30 2926 H 276.958 -1.25314 -1.61733 0
M  V30 2927 H 276.968 -0.747292 -4.01098 0
M  V30 2928 H 275.643 -1.86201 -3.7189 0
M  V30 2929 H 274.22 -0.0305761 -3.72887 0
M  V30 2930 N 276.405 1.4127 -0.698611 0
M  V30 2931 C 277.653 2.00782 -0.230409 0
M  V30 2932 C 277.974 1.5562 1.17505 0
M  V30 2933 O 277.244 0.78815 1.79346 0
M  V30 2934 H 275.824 0.742464 -0.0821944 0
M  V30 2935 H 278.486 1.72852 -0.90045 0
M  V30 2936 H 277.582 3.11095 -0.25021 0
M  V30 2937 N 277.883 0.443576 1.51229 0
M  V30 2938 C 279.123 -0.119889 2.04048 0
M  V30 2939 C 279.487 -1.39418 1.32009 0
M  V30 2940 O 280.688 -2.03829 1.75235 0
M  V30 2941 C 278.959 -0.327233 3.55899 0
M  V30 2942 S 280.518 -0.853208 4.30425 0
M  V30 2943 H 277.336 -0.028921 0.710412 0
M  V30 2944 H 279.938 0.604413 1.85922 0
M  V30 2945 H 278.642 0.606445 4.05895 0
M  V30 2946 H 278.173 -1.07844 3.7833 0
M  V30 2947 H 280.188 -2.13005 4.48155 0
M  V30 2948 N 279.361 -1.56624 0.175154 0
M  V30 2949 C 280.777 -1.58571 -0.180966 0
M  V30 2950 C 280.977 -1.19065 -1.6256 0
M  V30 2951 O 280.033 -0.904044 -2.35761 0
M  V30 2952 C 281.346 -3.00522 0.103326 0
M  V30 2953 C 282.894 -3.12972 0.0418426 0
M  V30 2954 C 283.369 -4.57022 0.299175 0
M  V30 2955 N 284.86 -4.62541 0.247086 0
M  V30 2956 C 285.595 -5.71857 0.420318 0
M  V30 2957 N 285.091 -6.89717 0.652816 0
M  V30 2958 N 286.884 -5.60972 0.355957 0
M  V30 2959 H 279.035 -1.80589 1.11809 0
M  V30 2960 H 281.298 -0.837178 0.444788 0
M  V30 2961 H 281.004 -3.33916 1.10422 0
M  V30 2962 H 280.878 -3.72344 -0.603299 0
M  V30 2963 H 283.265 -2.79403 -0.949636 0
M  V30 2964 H 283.346 -2.43578 0.781238 0
M  V30 2965 H 282.99 -4.913 1.28788 0
M  V30 2966 H 282.92 -5.24579 -0.460876 0
M  V30 2967 H 285.411 -3.77829 0.0731895 0
M  V30 2968 H 285.724 -7.68911 0.774347 0
M  V30 2969 H 284.069 -6.91572 0.689476 0
M  V30 2970 H 287.26 -4.67773 0.174882 0
M  V30 2971 H 287.433 -6.46111 0.494388 0
M  V30 2972 N 280.839 0.0985539 -1.57292 0
M  V30 2973 C 282.087 0.801092 -1.85545 0
M  V30 2974 C 282.408 1.79438 -0.763353 0
M  V30 2975 O 281.678 1.94763 0.21073 0
M  V30 2976 H 280.258 0.29884 -0.684619 0
M  V30 2977 H 282.92 0.0810064 -1.94732 0
M  V30 2978 H 282.016 1.3338 -2.82163 0
M  V30 2979 N 282.317 1.53212 0.369288 0
M  V30 2980 C 283.566 1.68436 1.10961 0
M  V30 2981 C 283.879 0.440738 1.9057 0
M  V30 2982 O 285.085 0.473446 2.6734 0
M  V30 2983 C 283.541 2.97744 2.0218 0
M  V30 2984 C 283.149 4.29355 1.279 0
M  V30 2985 C 284.893 3.22334 2.76226 0
M  V30 2986 C 282.8 5.49755 2.17999 0
M  V30 2987 H 281.73 0.627568 0.41794 0
M  V30 2988 H 284.381 1.79713 0.370884 0
M  V30 2989 H 282.763 2.8026 2.79768 0
M  V30 2990 H 283.937 4.57458 0.554007 0
M  V30 2991 H 282.252 4.11179 0.657311 0
M  V30 2992 H 284.849 4.09471 3.43857 0
M  V30 2993 H 285.192 2.38238 3.41392 0
M  V30 2994 H 285.725 3.40475 2.05723 0
M  V30 2995 H 282.464 6.36318 1.57417 0
M  V30 2996 H 281.984 5.25937 2.88359 0
M  V30 2997 H 283.663 5.84401 2.77641 0
M  V30 2998 N 283.795 -0.628877 1.44509 0
M  V30 2999 C 285.072 -1.38733 1.37886 0
M  V30 3000 C 285.452 -2.11065 0.0387008 0
M  V30 3001 O 284.8 -2.06476 -0.97878 0
M  V30 3002 C 285.01 -2.35188 2.57852 0
M  V30 3003 C 286.358 -2.9845 3.02014 0
M  V30 3004 O 287.382 -2.45513 2.58073 0
M  V30 3005 O 286.241 -3.94487 3.78209 0
M  V30 3006 H 283.335 -0.621015 0.54614 0
M  V30 3007 H 285.881 -0.653744 1.56602 0
M  V30 3008 H 284.653 -1.80855 3.46998 0
M  V30 3009 H 284.276 -3.1596 2.4136 0
M  V30 3010 N 285.273 -1.31445 -0.869486 0
M  V30 3011 C 286.498 -1.24256 -1.66058 0
M  V30 3012 C 286.923 0.188928 -1.87149 0
M  V30 3013 O 286.281 1.13522 -1.4136 0
M  V30 3014 C 286.329 -1.9924 -3.00559 0
M  V30 3015 O 285.433 -1.33007 -3.90362 0
M  V30 3016 H 284.774 -0.428973 -0.506831 0
M  V30 3017 H 287.304 -1.73521 -1.08404 0
M  V30 3018 H 287.314 -2.08854 -3.50491 0
M  V30 3019 H 285.989 -3.03342 -2.84528 0
M  V30 3020 H 284.566 -1.31848 -3.48813 0
M  V30 3021 N 286.751 1.08385 -1.14413 0
M  V30 3022 C 287.698 2.15311 -0.831265 0
M  V30 3023 C 288.668 1.64751 0.211292 0
M  V30 3024 O 289.853 1.90627 0.0811674 0
M  V30 3025 C 286.993 3.43658 -0.315143 0
M  V30 3026 C 286.106 4.08064 -1.41802 0
M  V30 3027 C 285.241 5.24207 -0.859126 0
M  V30 3028 C 284.28 5.80554 -1.93967 0
M  V30 3029 N 283.417 6.88042 -1.39793 0
M  V30 3030 H 288.257 2.41415 -1.74708 0
M  V30 3031 H 285.794 1.18474 -0.871909 0
M  V30 3032 H 287.752 4.172 0.00230884 0
M  V30 3033 H 286.382 3.17839 0.56378 0
M  V30 3034 H 285.434 3.3228 -1.85187 0
M  V30 3035 H 286.746 4.45962 -2.23427 0
M  V30 3036 H 285.9 6.04689 -0.49359 0
M  V30 3037 H 284.639 4.87699 -0.011932 0
M  V30 3038 H 283.644 4.98725 -2.31415 0
M  V30 3039 H 284.869 6.19121 -2.79046 0
M  V30 3040 H 282.815 6.53493 -0.572919 0
M  V30 3041 H 282.732 7.24767 -2.15054 0
M  V30 3042 H 284 7.72255 -1.0603 0
M  V30 3043 N 288.23 0.939286 1.26551 0
M  V30 3044 C 289.18 0.418284 2.2413 0
M  V30 3045 C 290.164 -0.483935 1.5345 0
M  V30 3046 O 291.356 -0.319489 1.74093 0
M  V30 3047 C 288.485 -0.31709 3.41832 0
M  V30 3048 C 287.571 0.602311 4.19801 0
M  V30 3049 N 287.962 1.72726 4.75394 0
M  V30 3050 C 286.26 0.407534 4.44134 0
M  V30 3051 C 286.961 2.30004 5.34297 0
M  V30 3052 N 285.937 1.58828 5.1988 0
M  V30 3053 H 289.739 1.27705 2.64705 0
M  V30 3054 H 287.253 0.794929 1.41614 0
M  V30 3055 H 289.25 -0.707364 4.10855 0
M  V30 3056 H 287.91 -1.17264 3.02786 0
M  V30 3057 H 288.921 2.10944 4.72994 0
M  V30 3058 H 285.598 -0.406406 4.15517 0
M  V30 3059 H 286.988 3.24778 5.88191 0
M  V30 3060 N 289.708 -1.40897 0.706093 0
M  V30 3061 C 290.954 -2.01849 0.250681 0
M  V30 3062 C 291.309 -1.5496 -1.14041 0
M  V30 3063 O 290.602 -0.755566 -1.76073 0
M  V30 3064 C 290.796 -3.5646 0.259099 0
M  V30 3065 C 290.625 -4.18357 1.64947 0
M  V30 3066 C 289.395 -4.522 2.25485 0
M  V30 3067 C 291.593 -4.43856 2.598 0
M  V30 3068 N 289.575 -4.9944 3.56977 0
M  V30 3069 C 290.946 -4.92986 3.75985 0
M  V30 3070 C 293.001 -4.25882 2.57933 0
M  V30 3071 C 291.704 -5.2603 4.90597 0
M  V30 3072 C 293.73 -4.6002 3.71665 0
M  V30 3073 C 293.092 -5.09331 4.86581 0
M  V30 3074 H 289.191 -0.769843 0.137353 0
M  V30 3075 H 291.775 -1.71278 0.925845 0
M  V30 3076 H 289.946 -3.86481 -0.385592 0
M  V30 3077 H 291.678 -4.04144 -0.21213 0
M  V30 3078 H 288.433 -4.3901 1.77671 0
M  V30 3079 H 288.857 -5.27454 4.24407 0
M  V30 3080 H 293.499 -3.86986 1.70298 0
M  V30 3081 H 291.217 -5.63843 5.78884 0
M  V30 3082 H 294.803 -4.47762 3.71484 0
M  V30 3083 H 293.683 -5.35251 5.73129 0
M  V30 3084 N 291.186 -0.45159 -1.50991 0
M  V30 3085 C 292.134 0.366864 -2.29689 0
M  V30 3086 C 293.128 1.00809 -1.36139 0
M  V30 3087 O 294.334 0.941427 -1.53418 0
M  V30 3088 H 290.709 0.137133 -0.739391 0
M  V30 3089 H 292.68 -0.317538 -2.96706 0
M  V30 3090 C 291.429 1.44751 -3.16137 0
M  V30 3091 H 290.752 0.963473 -3.88017 0
M  V30 3092 H 292.192 1.99315 -3.74232 0
M  V30 3093 C 290.651 2.43869 -2.32442 0
M  V30 3094 O 291.181 3.4872 -1.99392 0
M  V30 3095 N 289.387 2.15105 -1.95392 0
M  V30 3096 H 288.934 1.29866 -2.22469 0
M  V30 3097 H 288.892 2.81661 -1.39693 0
M  V30 3098 N 292.664 1.56529 -0.183458 0
M  V30 3099 C 293.889 2.02064 0.467428 0
M  V30 3100 C 294.314 1.06282 1.55196 0
M  V30 3101 O 293.672 0.0443565 1.81246 0
M  V30 3102 C 293.72 3.46122 1.01153 0
M  V30 3103 O 292.824 3.53437 2.12499 0
M  V30 3104 H 292.165 0.654726 0.110588 0
M  V30 3105 H 294.695 2.02521 -0.290917 0
M  V30 3106 H 294.705 3.85676 1.33108 0
M  V30 3107 H 293.38 4.15331 0.217533 0
M  V30 3108 H 291.957 3.2575 1.81497 0
M  V30 3109 N 294.142 -0.090211 1.57342 0
M  V30 3110 C 295.372 -0.805055 1.90269 0
M  V30 3111 C 295.78 -1.72561 0.775842 0
M  V30 3112 O 295.123 -1.81839 -0.260843 0
M  V30 3113 C 295.185 -1.66734 3.18497 0
M  V30 3114 C 294.849 -0.918092 4.47683 0
M  V30 3115 C 295.846 -0.245674 5.19319 0
M  V30 3116 C 293.531 -0.890724 4.94339 0
M  V30 3117 C 295.525 0.444088 6.35851 0
M  V30 3118 C 293.212 -0.197179 6.10782 0
M  V30 3119 C 294.21 0.469044 6.81388 0
M  V30 3120 O 293.898 1.15146 7.95611 0
M  V30 3121 H 293.63 -0.235143 0.633785 0
M  V30 3122 H 296.184 -0.0703805 2.05279 0
M  V30 3123 H 294.414 -2.44437 2.99646 0
M  V30 3124 H 296.103 -2.25919 3.37217 0
M  V30 3125 H 296.869 -0.258246 4.84312 0
M  V30 3126 H 292.748 -1.39873 4.39268 0
M  V30 3127 H 296.292 0.964667 6.90898 0
M  V30 3128 H 292.189 -0.18247 6.45242 0
M  V30 3129 H 292.957 1.05885 8.11622 0
M  V30 3130 N 295.62 -1.53406 -0.361157 0
M  V30 3131 C 296.86 -1.71507 -1.11197 0
M  V30 3132 C 297.224 -0.459337 -1.86425 0
M  V30 3133 O 298.425 -0.517102 -2.63779 0
M  V30 3134 C 296.696 -2.93307 -2.0422 0
M  V30 3135 S 298.255 -3.32135 -2.86761 0
M  V30 3136 H 295.073 -0.603448 -0.375995 0
M  V30 3137 H 297.675 -1.91516 -0.392642 0
M  V30 3138 H 296.379 -3.82891 -1.47724 0
M  V30 3139 H 295.91 -2.75712 -2.80618 0
M  V30 3140 H 297.925 -2.84493 -4.06544 0
M  V30 3141 N 297.098 0.621204 -1.44841 0
M  V30 3142 C 298.326 1.40752 -1.51646 0
M  V30 3143 C 298.741 1.88246 -0.144549 0
M  V30 3144 O 298.098 1.61422 0.851416 0
M  V30 3145 C 298.149 2.62119 -2.4895 0
M  V30 3146 O 297.87 2.16602 -3.80808 0
M  V30 3147 C 299.371 3.55135 -2.65319 0
M  V30 3148 H 296.591 0.431325 -0.514004 0
M  V30 3149 H 299.135 0.758835 -1.899 0
M  V30 3150 H 297.29 3.23058 -2.13805 0
M  V30 3151 H 297.704 2.95358 -4.33433 0
M  V30 3152 H 299.178 4.36874 -3.37409 0
M  V30 3153 H 299.655 4.04592 -1.70886 0
M  V30 3154 H 300.261 3.00058 -3.01405 0
M  V30 3155 N 298.576 1.31904 0.862503 0
M  V30 3156 C 299.804 1.24998 1.64873 0
M  V30 3157 C 300.219 -0.183425 1.87907 0
M  V30 3158 O 299.576 -1.11794 1.44251 0
M  V30 3159 C 299.627 1.99829 3.01248 0
M  V30 3160 O 299.348 3.37575 2.79239 0
M  V30 3161 C 300.849 1.99852 3.95694 0
M  V30 3162 H 298.069 0.431599 0.513773 0
M  V30 3163 H 300.613 1.73901 1.07604 0
M  V30 3164 H 298.768 1.54668 3.55185 0
M  V30 3165 H 299.182 3.75776 3.65914 0
M  V30 3166 H 300.656 2.56709 4.88676 0
M  V30 3167 H 301.133 0.982852 4.28062 0
M  V30 3168 H 301.739 2.44926 3.47694 0
M  V30 3169 N 300.054 -1.07777 1.14986 0
M  V30 3170 C 301.282 -1.84018 0.945773 0
M  V30 3171 C 301.697 -1.81897 -0.505863 0
M  V30 3172 O 301.054 -1.22726 -1.35072 0
M  V30 3173 C 301.105 -3.31287 1.44677 0
M  V30 3174 O 300.826 -3.33449 2.84154 0
M  V30 3175 C 302.327 -4.24311 1.28355 0
M  V30 3176 H 299.547 -0.580716 0.336169 0
M  V30 3177 H 302.091 -1.36077 1.52654 0
M  V30 3178 H 300.246 -3.76594 0.908625 0
M  V30 3179 H 300.66 -4.25427 3.06777 0
M  V30 3180 H 302.134 -5.2573 1.68261 0
M  V30 3181 H 302.611 -4.38612 0.227184 0
M  V30 3182 H 303.217 -3.84836 1.81056 0
M  V30 3183 N 301.532 -0.945985 -1.26051 0
M  V30 3184 C 302.482 -0.430164 -2.23905 0
M  V30 3185 C 303.466 0.47579 -1.53704 0
M  V30 3186 O 304.658 0.310252 -1.7426 0
M  V30 3187 C 301.787 0.298957 -3.41996 0
M  V30 3188 C 300.873 -0.624566 -4.19476 0
M  V30 3189 N 301.264 -1.75245 -4.74471 0
M  V30 3190 C 299.562 -0.431082 -4.43912 0
M  V30 3191 C 300.263 -2.32834 -5.3307 0
M  V30 3192 N 299.239 -1.61583 -5.1903 0
M  V30 3193 H 303.041 -1.29107 -2.64024 0
M  V30 3194 H 300.555 -0.802428 -1.41191 0
M  V30 3195 H 302.552 0.685565 -4.11225 0
M  V30 3196 H 301.212 1.15657 -3.03403 0
M  V30 3197 H 302.223 -2.13449 -4.71868 0
M  V30 3198 H 298.9 0.384364 -4.15727 0
M  V30 3199 H 300.29 -3.27893 -5.86461 0
M  V30 3200 N 303.011 1.40521 -0.713556 0
M  V30 3201 C 304.239 2.05237 -0.261775 0
M  V30 3202 C 304.654 1.53755 1.09567 0
M  V30 3203 O 304.011 0.693268 1.6882 0
M  V30 3204 C 304.062 3.60763 -0.230706 0
M  V30 3205 O 303.783 4.10345 -1.53455 0
M  V30 3206 C 305.284 4.42651 0.239874 0
M  V30 3207 H 302.504 0.660533 -0.118057 0
M  V30 3208 H 305.048 1.79967 -0.971192 0
M  V30 3209 H 303.203 3.8501 0.429661 0
M  V30 3210 H 303.617 5.04526 -1.43366 0
M  V30 3211 H 305.091 5.51599 0.210468 0
M  V30 3212 H 305.568 4.20082 1.28171 0
M  V30 3213 H 306.174 4.23507 -0.390142 0
M  V30 3214 N 304.489 0.459591 1.5075 0
M  V30 3215 C 305.736 -0.0993495 2.02256 0
M  V30 3216 C 306.064 -1.40751 1.34237 0
M  V30 3217 O 305.319 -1.90379 0.453228 0
M  V30 3218 C 305.618 -0.342866 3.55752 0
M  V30 3219 C 305.284 0.88218 4.42186 0
M  V30 3220 C 303.946 1.21808 4.65528 0
M  V30 3221 C 306.298 1.69837 4.92752 0
M  V30 3222 C 303.626 2.37045 5.36681 0
M  V30 3223 C 305.978 2.84192 5.65171 0
M  V30 3224 C 304.642 3.1821 5.8677 0
M  V30 3225 H 303.912 -0.0363545 0.740108 0
M  V30 3226 H 306.559 0.611329 1.8148 0
M  V30 3227 H 304.864 -1.13567 3.7498 0
M  V30 3228 H 306.561 -0.789121 3.93159 0
M  V30 3229 H 303.151 0.610467 4.2423 0
M  V30 3230 H 307.335 1.45205 4.74583 0
M  V30 3231 H 302.591 2.63689 5.51614 0
M  V30 3232 H 306.765 3.4779 6.03337 0
M  V30 3233 H 304.392 4.07613 6.41682 0
M  V30 3234 N 305.967 -1.56429 0.191757 0
M  V30 3235 C 307.213 -1.97777 -0.448554 0
M  V30 3236 C 307.546 -1.07847 -1.61501 0
M  V30 3237 O 306.821 -0.129774 -1.94067 0
M  V30 3238 C 307.104 -3.48362 -0.911906 0
M  V30 3239 C 306.957 -4.4907 0.256136 0
M  V30 3240 C 308.276 -4.02561 -1.77857 0
M  V30 3241 H 305.395 -0.719071 -0.161572 0
M  V30 3242 H 308.037 -1.87896 0.282007 0
M  V30 3243 H 306.187 -3.56914 -1.53442 0
M  V30 3244 H 307.859 -4.5256 0.893733 0
M  V30 3245 H 306.102 -4.24181 0.908436 0
M  V30 3246 H 306.773 -5.51889 -0.11053 0
M  V30 3247 H 309.249 -3.96767 -1.25359 0
M  V30 3248 H 308.125 -5.08301 -2.07174 0
M  V30 3249 H 308.386 -3.47616 -2.73158 0
M  V30 3250 N 307.445 0.0818655 -1.57387 0
M  V30 3251 C 308.392 1.09834 -2.0299 0
M  V30 3252 C 309.362 1.39043 -0.908639 0
M  V30 3253 O 310.547 1.50282 -1.17559 0
M  V30 3254 C 307.687 2.40971 -2.47037 0
M  V30 3255 C 306.8 2.18379 -3.7274 0
M  V30 3256 C 305.935 3.43008 -4.0561 0
M  V30 3257 C 304.974 3.15736 -5.24383 0
M  V30 3258 N 304.111 4.32667 -5.52941 0
M  V30 3259 H 308.951 0.702472 -2.89602 0
M  V30 3260 H 306.488 0.33531 -1.43227 0
M  V30 3261 H 308.446 3.1752 -2.70623 0
M  V30 3262 H 307.076 2.78379 -1.63417 0
M  V30 3263 H 306.128 1.32569 -3.56552 0
M  V30 3264 H 307.44 1.94227 -4.59431 0
M  V30 3265 H 306.594 4.27958 -4.30043 0
M  V30 3266 H 305.333 3.70225 -3.17466 0
M  V30 3267 H 304.338 2.2918 -4.99757 0
M  V30 3268 H 305.563 2.8985 -6.14136 0
M  V30 3269 H 303.509 4.59935 -4.67756 0
M  V30 3270 H 303.426 4.11753 -6.34031 0
M  V30 3271 H 304.694 5.18644 -5.81918 0
M  V30 3272 N 308.923 1.53595 0.353017 0
M  V30 3273 C 309.886 1.80232 1.41594 0
M  V30 3274 C 310.886 0.673081 1.46035 0
M  V30 3275 O 312.076 0.941335 1.46576 0
M  V30 3276 C 309.208 1.93578 2.80607 0
M  V30 3277 H 310.401 2.75174 1.19244 0
M  V30 3278 H 307.954 1.44864 0.586872 0
M  V30 3279 H 308.689 1.00746 3.08254 0
M  V30 3280 H 308.474 2.75724 2.78781 0
M  V30 3281 H 309.964 2.15735 3.57558 0
M  V30 3282 N 310.401 -0.613514 1.45168 0
M  V30 3283 C 311.331 -1.7354 1.56225 0
M  V30 3284 C 312.312 -1.64981 0.41414 0
M  V30 3285 O 313.497 -1.83472 0.636526 0
M  V30 3286 C 310.627 -3.12128 1.52295 0
M  V30 3287 C 309.581 -3.35491 2.65762 0
M  V30 3288 C 308.907 -4.74291 2.46885 0
M  V30 3289 C 310.207 -3.26325 4.0781 0
M  V30 3290 H 311.901 -1.64543 2.50132 0
M  V30 3291 H 309.447 -0.790185 1.20383 0
M  V30 3292 H 311.4 -3.90404 1.58628 0
M  V30 3293 H 310.124 -3.2195 0.549139 0
M  V30 3294 H 308.783 -2.59603 2.58847 0
M  V30 3295 H 308.431 -4.80839 1.47657 0
M  V30 3296 H 308.131 -4.9088 3.22972 0
M  V30 3297 H 309.655 -5.54775 2.55063 0
M  V30 3298 H 311.069 -3.94483 4.16 0
M  V30 3299 H 309.466 -3.54445 4.8424 0
M  V30 3300 H 310.536 -2.23855 4.30136 0
M  V30 3301 N 311.879 -1.3236 -0.855495 0
M  V30 3302 C 313.107 -1.2587 -1.64208 0
M  V30 3303 C 313.522 0.173457 -1.88002 0
M  V30 3304 O 312.879 1.11027 -1.44842 0
M  V30 3305 C 312.93 -2.01424 -3.00184 0
M  V30 3306 O 312.651 -3.39051 -2.77445 0
M  V30 3307 C 314.152 -2.01948 -3.94629 0
M  V30 3308 H 311.372 -0.434318 -0.511477 0
M  V30 3309 H 313.916 -1.74469 -1.0668 0
M  V30 3310 H 312.071 -1.56549 -3.5436 0
M  V30 3311 H 312.485 -3.77711 -3.63916 0
M  V30 3312 H 313.959 -2.59297 -4.87308 0
M  V30 3313 H 314.436 -1.00554 -4.27534 0
M  V30 3314 H 315.042 -2.46767 -3.4639 0
M  V30 3315 N 313.357 1.07166 -1.15556 0
M  V30 3316 C 314.29 2.13808 -0.797593 0
M  V30 3317 C 315.268 1.6101 0.226812 0
M  V30 3318 O 316.452 1.88161 0.112932 0
M  V30 3319 C 313.579 3.38187 -0.186371 0
M  V30 3320 C 312.625 4.09766 -1.18297 0
M  V30 3321 S 313.458 4.60932 -2.72584 0
M  V30 3322 C 314.614 5.88583 -2.12886 0
M  V30 3323 H 314.847 2.43843 -1.70083 0
M  V30 3324 H 312.38 1.19467 -0.978106 0
M  V30 3325 H 314.338 4.10189 0.159837 0
M  V30 3326 H 312.999 3.06326 0.694489 0
M  V30 3327 H 312.192 4.99065 -0.703562 0
M  V30 3328 H 311.794 3.43736 -1.47381 0
M  V30 3329 H 314.086 6.60866 -1.49208 0
M  V30 3330 H 315.029 6.41241 -3.0036 0
M  V30 3331 H 315.437 5.42194 -1.57116 0
M  V30 3332 N 314.835 0.952656 1.25548 0
M  V30 3333 C 316.112 0.523818 1.88456 0
M  V30 3334 C 316.492 -0.998871 1.85973 0
M  V30 3335 O 315.84 -1.86381 1.3219 0
M  V30 3336 C 316.05 1.0982 3.31271 0
M  V30 3337 C 317.398 1.17385 4.08051 0
M  V30 3338 O 318.422 1.04961 3.40384 0
M  V30 3339 O 317.281 1.36852 5.29088 0
M  V30 3340 H 314.375 0.172485 0.808813 0
M  V30 3341 H 316.921 1.04596 1.33633 0
M  V30 3342 H 315.693 2.1415 3.27499 0
M  V30 3343 H 315.316 0.559191 3.93648 0
M  V30 3344 N 316.313 -1.40141 0.720998 0
M  V30 3345 C 317.561 -2.0039 0.262323 0
M  V30 3346 C 317.882 -1.57469 -1.15015 0
M  V30 3347 O 317.152 -0.816582 -1.78069 0
M  V30 3348 H 315.732 -0.741063 0.093996 0
M  V30 3349 H 318.394 -1.71398 0.927835 0
M  V30 3350 H 317.49 -3.10658 0.299671 0
M  V30 3351 N 317.792 -0.46758 -1.50504 0
M  V30 3352 C 318.739 0.328413 -2.28452 0
M  V30 3353 C 319.709 0.990313 -1.33349 0
M  V30 3354 O 320.894 1.00343 -1.62284 0
M  V30 3355 C 318.034 1.40648 -3.15138 0
M  V30 3356 C 317.147 0.759709 -4.25267 0
M  V30 3357 C 316.282 1.81537 -4.99217 0
M  V30 3358 C 315.321 1.14866 -6.01226 0
M  V30 3359 N 314.458 2.14702 -6.68467 0
M  V30 3360 H 319.298 -0.342603 -2.96024 0
M  V30 3361 H 316.835 -0.180801 -1.45985 0
M  V30 3362 H 318.793 2.04315 -3.63746 0
M  V30 3363 H 317.423 2.04671 -2.49619 0
M  V30 3364 H 316.475 0.0105671 -3.80399 0
M  V30 3365 H 317.787 0.233243 -4.98254 0
M  V30 3366 H 316.941 2.52793 -5.51526 0
M  V30 3367 H 315.68 2.37564 -4.25928 0
M  V30 3368 H 314.685 0.42171 -5.4818 0
M  V30 3369 H 315.91 0.595334 -6.76485 0
M  V30 3370 H 313.856 2.69752 -5.97972 0
M  V30 3371 H 313.773 1.6703 -7.37317 0
M  V30 3372 H 315.041 2.85348 -7.25394 0
M  V30 3373 N 319.27 1.56325 -0.20005 0
M  V30 3374 C 320.202 2.16555 0.750771 0
M  V30 3375 C 321.215 1.12871 1.1732 0
M  V30 3376 O 322.404 1.39943 1.10807 0
M  V30 3377 C 319.504 2.71684 2.02586 0
M  V30 3378 C 318.677 4.00321 1.76244 0
M  V30 3379 C 317.736 4.40227 2.88248 0
M  V30 3380 O 316.762 5.07552 2.57642 0
M  V30 3381 N 317.964 4.04138 4.16717 0
M  V30 3382 H 320.729 2.98772 0.235685 0
M  V30 3383 H 318.29 1.6189 -0.0182594 0
M  V30 3384 H 320.282 2.95363 2.76664 0
M  V30 3385 H 318.852 1.93893 2.45202 0
M  V30 3386 H 318.072 3.84723 0.85919 0
M  V30 3387 H 319.36 4.84279 1.56048 0
M  V30 3388 H 318.758 3.49993 4.44434 0
M  V30 3389 H 317.315 4.32756 4.87407 0
M  V30 3390 N 320.748 -0.0735177 1.57428 0
M  V30 3391 C 321.711 -1.07192 2.02589 0
M  V30 3392 C 322.711 -1.31695 0.922661 0
M  V30 3393 O 323.901 -1.27445 1.18758 0
M  V30 3394 C 321.033 -2.41599 2.40506 0
M  V30 3395 H 322.226 -0.682727 2.92025 0
M  V30 3396 H 319.779 -0.319193 1.53006 0
M  V30 3397 H 320.514 -2.85354 1.5409 0
M  V30 3398 H 320.299 -2.25156 3.21009 0
M  V30 3399 H 321.789 -3.13367 2.76027 0
M  V30 3400 N 322.226 -1.5378 -0.344866 0
M  V30 3401 C 323.189 -1.80981 -1.40637 0
M  V30 3402 C 324.189 -0.680816 -1.45676 0
M  V30 3403 O 325.379 -0.949095 -1.46075 0
M  V30 3404 C 322.511 -1.95063 -2.79577 0
M  V30 3405 H 323.704 -2.75803 -1.17783 0
M  V30 3406 H 321.257 -1.45173 -0.579181 0
M  V30 3407 H 321.992 -1.02379 -3.07716 0
M  V30 3408 H 321.777 -2.77198 -2.77315 0
M  V30 3409 H 323.267 -2.17629 -3.56409 0
M  V30 3410 N 323.704 0.605807 -1.45491 0
M  V30 3411 C 324.95 1.36481 -1.50813 0
M  V30 3412 C 325.305 1.91826 -0.148469 0
M  V30 3413 O 324.598 1.72211 0.839869 0
M  V30 3414 C 324.792 2.53012 -2.52428 0
M  V30 3415 C 324.621 2.09078 -3.98141 0
M  V30 3416 C 323.391 1.95167 -4.66088 0
M  V30 3417 C 325.589 1.66438 -4.86624 0
M  V30 3418 N 323.571 1.45062 -5.96515 0
M  V30 3419 C 324.942 1.27761 -6.06694 0
M  V30 3420 C 326.997 1.54046 -4.7347 0
M  V30 3421 C 325.7 0.779286 -7.15066 0
M  V30 3422 C 327.726 1.05618 -5.81892 0
M  V30 3423 C 327.088 0.67906 -7.01119 0
M  V30 3424 H 323.187 0.493267 -0.606805 0
M  V30 3425 H 325.771 0.692347 -1.81974 0
M  V30 3426 H 323.942 3.17851 -2.23215 0
M  V30 3427 H 325.674 3.19897 -2.47887 0
M  V30 3428 H 322.429 2.16407 -4.21266 0
M  V30 3429 H 322.853 1.22237 -6.65873 0
M  V30 3430 H 327.495 1.81827 -3.81705 0
M  V30 3431 H 325.213 0.489026 -8.06619 0
M  V30 3432 H 328.799 0.964529 -5.73749 0
M  V30 3433 H 327.679 0.310091 -7.83587 0
M  V30 3434 N 325.182 1.32811 0.848464 0
M  V30 3435 C 326.598 1.11937 1.13764 0
M  V30 3436 C 326.798 -0.0960789 2.01271 0
M  V30 3437 O 325.854 -0.779165 2.40178 0
M  V30 3438 C 327.167 2.402 1.809 0
M  V30 3439 C 328.715 2.46016 1.93508 0
M  V30 3440 C 329.19 3.74215 2.64059 0
M  V30 3441 N 330.681 3.75232 2.71579 0
M  V30 3442 C 331.416 4.71134 3.26833 0
M  V30 3443 N 330.912 5.77406 3.8285 0
M  V30 3444 N 332.705 4.58623 3.24995 0
M  V30 3445 H 324.856 2.1073 0.265855 0
M  V30 3446 H 327.119 0.930671 0.180431 0
M  V30 3447 H 326.825 3.29093 1.24058 0
M  V30 3448 H 326.699 2.51628 2.81004 0
M  V30 3449 H 329.086 1.57577 2.49506 0
M  V30 3450 H 329.167 2.38536 0.923811 0
M  V30 3451 H 328.811 4.63031 2.08722 0
M  V30 3452 H 328.741 3.78968 3.65637 0
M  V30 3453 H 331.232 2.98423 2.31845 0
M  V30 3454 H 331.545 6.46632 4.23187 0
M  V30 3455 H 329.89 5.81152 3.81165 0
M  V30 3456 H 333.081 3.74762 2.80484 0
M  V30 3457 H 333.254 5.33535 3.67756 0
M  V30 3458 N 326.66 -1.06551 1.16123 0
M  V30 3459 C 327.907 -1.79302 0.941126 0
M  V30 3460 C 328.235 -1.87105 -0.531235 0
M  V30 3461 O 327.49 -1.35692 -1.41018 0
M  V30 3462 C 327.789 -3.23911 1.51052 0
M  V30 3463 C 327.455 -3.36193 3.00475 0
M  V30 3464 C 326.117 -3.39252 3.41265 0
M  V30 3465 C 328.469 -3.38326 3.96465 0
M  V30 3466 C 325.797 -3.42057 4.76669 0
M  V30 3467 C 328.149 -3.4267 5.31752 0
M  V30 3468 C 326.813 -3.4401 5.72026 0
M  V30 3469 H 326.083 -0.656111 0.344382 0
M  V30 3470 H 328.73 -1.25325 1.44796 0
M  V30 3471 H 327.035 -3.80723 0.925063 0
M  V30 3472 H 328.732 -3.78793 1.31593 0
M  V30 3473 H 325.322 -3.34516 2.6795 0
M  V30 3474 H 329.506 -3.35176 3.6602 0
M  V30 3475 H 324.762 -3.41398 5.07206 0
M  V30 3476 H 328.936 -3.43268 6.05921 0
M  V30 3477 H 326.563 -3.45937 6.76928 0
M  V30 3478 N 328.138 -0.959301 -1.25041 0
M  V30 3479 C 329.387 -0.612254 -1.92183 0
M  V30 3480 C 329.7 0.855347 -1.75907 0
M  V30 3481 O 330.906 1.31256 -2.37664 0
M  V30 3482 C 329.362 -1.04435 -3.44414 0
M  V30 3483 C 328.97 -2.53482 -3.69393 0
M  V30 3484 C 330.714 -0.770055 -4.17457 0
M  V30 3485 C 328.621 -2.90468 -5.15153 0
M  V30 3486 H 327.551 -0.225279 -0.719559 0
M  V30 3487 H 330.202 -1.16438 -1.41825 0
M  V30 3488 H 328.584 -0.4206 -3.9376 0
M  V30 3489 H 329.758 -3.20916 -3.30681 0
M  V30 3490 H 328.073 -2.78432 -3.0962 0
M  V30 3491 H 330.67 -1.02249 -5.24832 0
M  V30 3492 H 331.013 0.293611 -4.15263 0
M  V30 3493 H 331.546 -1.35437 -3.74034 0
M  V30 3494 H 328.285 -3.95871 -5.22462 0
M  V30 3495 H 327.805 -2.27711 -5.54894 0
M  V30 3496 H 329.484 -2.79914 -5.83315 0
M  V30 3497 N 329.616 1.39756 -0.72842 0
M  V30 3498 C 331.032 1.5442 -0.403308 0
M  V30 3499 C 331.232 1.69694 1.08656 0
M  V30 3500 O 330.288 1.69373 1.87267 0
M  V30 3501 C 331.601 2.76555 -1.18058 0
M  V30 3502 C 333.149 2.90384 -1.16815 0
M  V30 3503 C 333.624 4.15449 -1.92785 0
M  V30 3504 N 335.115 4.22475 -1.89918 0
M  V30 3505 C 335.85 5.1818 -2.45514 0
M  V30 3506 N 335.346 6.19714 -3.09719 0
M  V30 3507 N 337.139 5.1035 -2.35584 0
M  V30 3508 H 329.29 1.28089 -1.69431 0
M  V30 3509 H 331.553 0.620327 -0.716867 0
M  V30 3510 H 331.259 2.7159 -2.23455 0
M  V30 3511 H 331.133 3.69033 -0.780662 0
M  V30 3512 H 333.52 2.94846 -0.12234 0
M  V30 3513 H 333.601 1.98988 -1.6074 0
M  V30 3514 H 333.245 4.11749 -2.97364 0
M  V30 3515 H 333.175 5.05877 -1.46272 0
M  V30 3516 H 335.666 3.49743 -1.43138 0
M  V30 3517 H 335.979 6.8919 -3.49625 0
M  V30 3518 H 334.324 6.20121 -3.13807 0
M  V30 3519 H 337.515 4.2996 -1.85072 0
M  V30 3520 H 337.688 5.84761 -2.79211 0
M  V30 3521 N 331.094 0.475555 1.50254 0
M  V30 3522 C 332.343 -0.0795996 2.01543 0
M  V30 3523 C 332.656 -1.4038 1.36209 0
M  V30 3524 O 333.862 -2.04415 1.7868 0
M  V30 3525 C 332.318 -0.192363 3.59386 0
M  V30 3526 C 331.926 1.12367 4.33679 0
M  V30 3527 C 333.67 -0.699238 4.18701 0
M  V30 3528 C 331.577 0.974453 5.83317 0
M  V30 3529 H 330.507 -0.0335228 0.753254 0
M  V30 3530 H 333.158 0.611128 1.73025 0
M  V30 3531 H 331.54 -0.946974 3.84511 0
M  V30 3532 H 332.714 1.88958 4.20276 0
M  V30 3533 H 331.029 1.562 3.85993 0
M  V30 3534 H 333.626 -0.827978 5.28251 0
M  V30 3535 H 333.969 -1.69171 3.80377 0
M  V30 3536 H 334.502 -0.00188807 3.978 0
M  V30 3537 H 331.241 1.94042 6.26121 0
M  V30 3538 H 330.761 0.248998 5.99283 0
M  V30 3539 H 332.44 0.642867 6.43798 0
M  V30 3540 N 332.573 -1.56217 0.208337 0
M  V30 3541 C 333.85 -1.89739 -0.475234 0
M  V30 3542 C 334.23 -1.1238 -1.78701 0
M  V30 3543 O 333.578 -0.228979 -2.2735 0
M  V30 3544 C 333.788 -3.42289 -0.681101 0
M  V30 3545 C 335.136 -4.12789 -0.994507 0
M  V30 3546 O 336.16 -3.47814 -0.768357 0
M  V30 3547 O 335.019 -5.27649 -1.42299 0
M  V30 3548 H 332.113 -0.788478 -0.249461 0
M  V30 3549 H 334.659 -1.67855 0.249538 0
M  V30 3550 H 333.431 -3.90534 0.244722 0
M  V30 3551 H 333.054 -3.69909 -1.45785 0
M  V30 3552 N 334.051 0.0651679 -1.57465 0
M  V30 3553 C 335.279 0.775808 -1.91804 0
M  V30 3554 C 335.694 1.70782 -0.804916 0
M  V30 3555 O 335.051 1.81153 0.221311 0
M  V30 3556 C 335.102 1.56381 -3.25925 0
M  V30 3557 O 334.823 0.669248 -4.32958 0
M  V30 3558 C 336.324 2.37485 -3.7432 0
M  V30 3559 H 333.544 0.2202 -0.63384 0
M  V30 3560 H 336.088 0.0334587 -2.04473 0
M  V30 3561 H 334.243 2.25837 -3.14764 0
M  V30 3562 H 334.657 1.21801 -5.10162 0
M  V30 3563 H 336.131 2.88223 -4.70778 0
M  V30 3564 H 336.608 3.17307 -3.03666 0
M  V30 3565 H 337.214 1.73173 -3.88447 0
M  V30 3566 N 335.529 1.53961 0.336706 0
M  V30 3567 C 336.492 1.81724 1.39675 0
M  V30 3568 C 337.492 0.688532 1.45313 0
M  V30 3569 O 338.682 0.956829 1.45569 0
M  V30 3570 C 335.814 1.96543 2.78538 0
M  V30 3571 H 337.007 2.76424 1.16318 0
M  V30 3572 H 334.56 1.45478 0.571474 0
M  V30 3573 H 335.295 1.0401 3.07168 0
M  V30 3574 H 335.08 2.78665 2.75841 0
M  V30 3575 H 336.57 2.19516 3.5525 0
M  V30 3576 N 337.007 -0.598083 1.45811 0
M  V30 3577 C 338.247 -1.36802 1.5187 0
M  V30 3578 C 338.611 -1.9133 0.160224 0
M  V30 3579 O 339.812 -2.6863 0.0955302 0
M  V30 3580 C 338.083 -2.47835 2.57513 0
M  V30 3581 S 339.642 -3.35458 2.82866 0
M  V30 3582 H 336.46 -0.466278 0.536755 0
M  V30 3583 H 339.062 -0.689152 1.82951 0
M  V30 3584 H 337.766 -2.06141 3.54872 0
M  V30 3585 H 337.297 -3.20512 2.28114 0
M  V30 3586 H 339.312 -4.46251 2.16967 0
M  V30 3587 N 338.485 -1.33259 -0.841409 0
M  V30 3588 C 339.731 -1.24757 -1.59886 0
M  V30 3589 C 340.064 0.186913 -1.93298 0
M  V30 3590 O 339.339 1.12757 -1.5848 0
M  V30 3591 C 339.622 -2.12036 -2.91055 0
M  V30 3592 C 339.475 -3.63929 -2.6434 0
M  V30 3593 C 340.794 -1.9916 -3.92458 0
M  V30 3594 H 337.913 -0.454542 -0.580138 0
M  V30 3595 H 340.555 -1.63335 -0.970647 0
M  V30 3596 H 338.705 -1.79265 -3.44669 0
M  V30 3597 H 340.377 -4.06978 -2.17178 0
M  V30 3598 H 338.62 -3.85935 -1.98082 0
M  V30 3599 H 339.291 -4.20341 -3.57796 0
M  V30 3600 H 341.767 -2.27895 -3.48143 0
M  V30 3601 H 340.643 -2.62484 -4.82072 0
M  V30 3602 H 340.904 -0.963082 -4.31482 0
M  V30 3603 N 339.963 1.05934 -1.16686 0
M  V30 3604 C 341.203 1.80382 -0.961345 0
M  V30 3605 C 341.567 1.85331 0.501643 0
M  V30 3606 O 342.768 2.55795 0.825986 0
M  V30 3607 C 341.039 3.20777 -1.57596 0
M  V30 3608 S 342.598 4.11795 -1.51559 0
M  V30 3609 H 339.416 0.621332 -0.345641 0
M  V30 3610 H 342.018 1.27157 -1.48497 0
M  V30 3611 H 340.722 3.14773 -2.63337 0
M  V30 3612 H 340.253 3.79078 -1.05182 0
M  V30 3613 H 342.268 4.93485 -0.518374 0
M  V30 3614 N 341.441 0.965919 1.2453 0
M  V30 3615 C 342.687 0.62776 1.92839 0
M  V30 3616 C 343.02 -0.834694 1.75347 0
M  V30 3617 O 342.295 -1.60031 1.10546 0
M  V30 3618 C 342.578 1.00109 3.45905 0
M  V30 3619 C 342.431 2.52011 3.72573 0
M  V30 3620 C 343.75 0.53435 4.36844 0
M  V30 3621 H 340.869 0.229537 0.700344 0
M  V30 3622 H 343.511 1.2046 1.46933 0
M  V30 3623 H 341.661 0.510238 3.85135 0
M  V30 3624 H 343.333 3.08559 3.42912 0
M  V30 3625 H 341.576 2.95287 3.17786 0
M  V30 3626 H 342.247 2.73183 4.79661 0
M  V30 3627 H 344.723 0.955565 4.04979 0
M  V30 3628 H 343.599 0.824152 5.42678 0
M  V30 3629 H 343.86 -0.565589 4.38467 0
M  V30 3630 N 342.919 -1.39368 0.735821 0
M  V30 3631 C 343.849 -2.33234 0.111506 0
M  V30 3632 C 344.83 -1.53954 -0.723334 0
M  V30 3633 O 346.015 -1.82344 -0.668147 0
M  V30 3634 C 343.145 -3.38057 -0.795917 0
M  V30 3635 C 342.099 -4.2795 -0.065172 0
M  V30 3636 C 341.425 -5.23479 -1.08967 0
M  V30 3637 C 342.725 -5.10741 1.09273 0
M  V30 3638 H 344.419 -2.85692 0.895571 0
M  V30 3639 H 341.965 -1.37364 0.432109 0
M  V30 3640 H 343.918 -4.02675 -1.24221 0
M  V30 3641 H 342.642 -2.8404 -1.61211 0
M  V30 3642 H 341.301 -3.64813 0.361511 0
M  V30 3643 H 340.949 -4.65758 -1.89944 0
M  V30 3644 H 340.649 -5.84472 -0.605489 0
M  V30 3645 H 342.173 -5.90974 -1.53565 0
M  V30 3646 H 343.587 -5.68699 0.724841 0
M  V30 3647 H 341.984 -5.8088 1.50659 0
M  V30 3648 H 343.054 -4.45525 1.91404 0
M  V30 3649 N 344.397 -0.483516 -1.5 0
M  V30 3650 C 345.622 0.0667119 -2.07293 0
M  V30 3651 C 346.047 1.3164 -1.3436 0
M  V30 3652 O 345.405 1.76945 -0.394987 0
M  V30 3653 C 345.453 0.321126 -3.59167 0
M  V30 3654 O 344.557 1.39927 -3.87936 0
M  V30 3655 H 343.898 -0.0184758 -0.663743 0
M  V30 3656 H 346.428 -0.678125 -1.93035 0
M  V30 3657 H 346.438 0.557906 -4.04168 0
M  V30 3658 H 345.113 -0.592007 -4.11665 0
M  V30 3659 H 343.69 1.14882 -3.54763 0
M  V30 3660 N 345.875 1.56104 -0.216619 0
M  V30 3661 C 347.291 1.58995 0.13886 0
M  V30 3662 C 347.491 1.23333 1.59346 0
M  V30 3663 O 346.547 0.966234 2.33281 0
M  V30 3664 C 347.86 3.00143 -0.182968 0
M  V30 3665 C 349.408 3.12751 -0.124807 0
M  V30 3666 C 349.883 4.56068 -0.420241 0
M  V30 3667 N 351.374 4.61723 -0.369634 0
M  V30 3668 C 352.109 5.70542 -0.571789 0
M  V30 3669 N 351.605 6.87744 -0.835453 0
M  V30 3670 N 353.398 5.59831 -0.504563 0
M  V30 3671 H 345.549 1.77562 -1.16557 0
M  V30 3672 H 347.812 0.825091 -0.466828 0
M  V30 3673 H 347.518 3.30871 -1.19237 0
M  V30 3674 H 347.392 3.73813 0.504367 0
M  V30 3675 H 349.779 2.81822 0.875223 0
M  V30 3676 H 349.86 2.41421 -0.845544 0
M  V30 3677 H 349.504 4.87713 -1.41769 0
M  V30 3678 H 349.434 5.25617 0.321631 0
M  V30 3679 H 351.925 3.77502 -0.173338 0
M  V30 3680 H 352.238 7.66587 -0.977938 0
M  V30 3681 H 350.583 6.895 -0.872592 0
M  V30 3682 H 353.774 4.67145 -0.298842 0
M  V30 3683 H 353.947 6.44573 -0.665519 0
M  V30 3684 N 347.353 -0.0568162 1.57498 0
M  V30 3685 C 348.3 -1.06591 2.04712 0
M  V30 3686 C 349.27 -1.3758 0.930644 0
M  V30 3687 O 350.455 -1.48392 1.19935 0
M  V30 3688 C 347.595 -2.3701 2.50839 0
M  V30 3689 C 346.708 -2.12421 3.76167 0
M  V30 3690 C 345.843 -3.36511 4.11015 0
M  V30 3691 C 344.882 -3.07353 5.2934 0
M  V30 3692 N 344.019 -4.23816 5.59754 0
M  V30 3693 H 348.859 -0.65631 2.90683 0
M  V30 3694 H 346.396 -0.312481 1.43743 0
M  V30 3695 H 348.354 -3.13175 2.7564 0
M  V30 3696 H 346.984 -2.75744 1.67825 0
M  V30 3697 H 346.036 -1.2688 3.58616 0
M  V30 3698 H 347.348 -1.86894 4.62463 0
M  V30 3699 H 346.502 -4.21062 4.36797 0
M  V30 3700 H 345.241 -3.65128 3.23315 0
M  V30 3701 H 344.246 -2.212 5.03339 0
M  V30 3702 H 345.471 -2.80043 6.1867 0
M  V30 3703 H 343.417 -4.52436 4.75014 0
M  V30 3704 H 343.334 -4.01614 6.40501 0
M  V30 3705 H 344.602 -5.0932 5.90096 0
M  V30 3706 N 348.832 -1.54138 -0.328536 0
M  V30 3707 C 349.795 -1.82462 -1.38709 0
M  V30 3708 C 350.795 -0.696229 -1.44946 0
M  V30 3709 O 351.985 -0.964535 -1.4506 0
M  V30 3710 C 349.117 -1.98018 -2.77492 0
M  V30 3711 H 350.31 -2.77037 -1.14851 0
M  V30 3712 H 347.863 -1.45779 -0.563751 0
M  V30 3713 H 348.598 -1.05637 -3.06613 0
M  V30 3714 H 348.383 -2.80124 -2.74359 0
M  V30 3715 H 349.873 -2.21396 -3.54081 0
M  V30 3716 N 350.31 0.590341 -1.46126 0
M  V30 3717 C 351.556 1.35082 -1.51264 0
M  V30 3718 C 351.889 1.93534 -0.160711 0
M  V30 3719 O 351.164 1.76045 0.826956 0
M  V30 3720 C 351.447 2.48588 -2.6053 0
M  V30 3721 C 351.3 1.95221 -4.05227 0
M  V30 3722 C 352.619 3.50662 -2.6594 0
M  V30 3723 H 349.738 0.489803 -0.550692 0
M  V30 3724 H 352.38 0.663887 -1.78024 0
M  V30 3725 H 350.53 3.07186 -2.37843 0
M  V30 3726 H 352.202 1.41139 -4.39178 0
M  V30 3727 H 350.445 1.26101 -4.15068 0
M  V30 3728 H 351.116 2.77121 -4.77397 0
M  V30 3729 H 353.592 3.01934 -2.86313 0
M  V30 3730 H 352.468 4.27551 -3.44226 0
M  V30 3731 H 352.729 4.07399 -1.71694 0
M  V30 3732 N 351.788 1.33704 0.83433 0
M  V30 3733 C 353.204 1.13137 1.12571 0
M  V30 3734 C 353.404 -0.0747261 2.01361 0
M  V30 3735 O 352.46 -0.753647 2.4099 0
M  V30 3736 C 353.773 2.42105 1.78342 0
M  V30 3737 C 355.321 2.48054 1.90888 0
M  V30 3738 C 355.796 3.76995 2.60075 0
M  V30 3739 N 357.287 3.78092 2.67584 0
M  V30 3740 C 358.022 4.74574 3.21818 0
M  V30 3741 N 357.518 5.81434 3.76705 0
M  V30 3742 N 359.311 4.62044 3.20112 0
M  V30 3743 H 351.462 2.11 0.243489 0
M  V30 3744 H 353.725 0.932532 0.17055 0
M  V30 3745 H 353.431 3.30391 1.20561 0
M  V30 3746 H 353.305 2.54594 2.7832 0
M  V30 3747 H 355.692 1.60215 2.47821 0
M  V30 3748 H 355.773 2.39502 0.898459 0
M  V30 3749 H 355.417 4.65219 2.03799 0
M  V30 3750 H 355.347 3.82825 3.61597 0
M  V30 3751 H 357.838 3.00865 2.28667 0
M  V30 3752 H 358.151 6.51084 4.16305 0
M  V30 3753 H 356.496 5.85163 3.7498 0
M  V30 3754 H 359.687 3.77716 2.76493 0
M  V30 3755 H 359.86 5.37406 3.62076 0
M  V30 3756 N 353.266 -1.05314 1.17247 0
M  V30 3757 C 354.682 -1.30452 0.919473 0
M  V30 3758 C 354.882 -1.9703 -0.42209 0
M  V30 3759 O 353.938 -2.24311 -1.15935 0
M  V30 3760 C 355.251 -2.17551 2.07586 0
M  V30 3761 C 356.799 -2.30937 2.11275 0
M  V30 3762 C 357.274 -3.21396 3.26296 0
M  V30 3763 N 358.765 -3.28981 3.26076 0
M  V30 3764 C 359.5 -3.99095 4.11716 0
M  V30 3765 N 358.996 -4.71648 5.07465 0
M  V30 3766 N 360.789 -3.95247 3.9967 0
M  V30 3767 H 352.94 -0.604988 2.03602 0
M  V30 3768 H 355.203 -0.329368 0.888944 0
M  V30 3769 H 354.909 -1.75921 3.0454 0
M  V30 3770 H 354.783 -3.18182 2.02584 0
M  V30 3771 H 357.17 -2.71809 1.14907 0
M  V30 3772 H 357.251 -1.2994 2.20339 0
M  V30 3773 H 356.895 -2.81238 4.22927 0
M  V30 3774 H 356.825 -4.22395 3.14467 0
M  V30 3775 H 359.316 -2.77286 2.5675 0
M  V30 3776 H 359.629 -5.22705 5.6921 0
M  V30 3777 H 357.974 -4.70594 5.11435 0
M  V30 3778 H 361.165 -3.37691 3.24164 0
M  V30 3779 H 361.338 -4.4962 4.66632 0
M  V30 3780 N 354.744 -0.972509 -1.24016 0
M  V30 3781 C 355.707 -0.511403 -2.23422 0
M  V30 3782 C 356.707 0.394679 -1.55881 0
M  V30 3783 O 357.897 0.189469 -1.73167 0
M  V30 3784 C 355.029 0.258769 -3.39916 0
M  V30 3785 H 356.222 -1.39024 -2.6573 0
M  V30 3786 H 353.775 -0.757585 -1.36713 0
M  V30 3787 H 354.51 1.1545 -3.03054 0
M  V30 3788 H 354.295 -0.391522 -3.9014 0
M  V30 3789 H 355.785 0.570244 -4.13688 0
M  V30 3790 O 356.261 1.3537 -0.880752 0
M  V30 3791 H 356.952 1.87543 -0.484504 0
M  V30 END ATOM
M  V30 BEGIN BOND
M  V30 END BOND
M  V30 END CTAB
M  END
$$$$
