drugbank_target|P01270 Parathyroid hormone (DB04419; DB05883)
 OpenBabel12092120293D

  0  0  0     0  0            999 V3000
M  V30 BEGIN CTAB
M  V30 COUNTS 1847 1858 0 0 0
M  V30 BEGIN ATOM
M  V30 1 H -0.908 1.98254 -0.117106 0
M  V30 2 N 0 1.576 0 0
M  V30 3 C 0.933 2.03868 1.02534 0
M  V30 4 C 1.911 0.928543 1.3348 0
M  V30 5 O 3.095 1.19667 1.45644 0
M  V30 6 C 0.222 2.43627 2.35294 0
M  V30 7 C -0.732 3.65373 2.2001 0
M  V30 8 S 0.101 5.13292 1.52614 0
M  V30 9 C 1.257 5.56322 2.86805 0
M  V30 10 H 1.49 2.90518 0.631377 0
M  V30 11 H -0.977 1.52953 0.210867 0
M  V30 12 H 0.981 2.67203 3.11629 0
M  V30 13 H -0.358 1.57376 2.7183 0
M  V30 14 H -1.165 3.90944 3.18086 0
M  V30 15 H -1.563 3.418 1.51819 0
M  V30 16 H 0.729 5.58782 3.83104 0
M  V30 17 H 1.672 6.56266 2.65933 0
M  V30 18 H 2.08 4.83886 2.90714 0
M  V30 19 N 1.4781 -0.272755 1.55222 0
M  V30 20 C 2.7271 -1.00211 1.75045 0
M  V30 21 C 3.0401 -1.87441 0.559046 0
M  V30 22 O 4.2461 -2.63856 0.639698 0
M  V30 23 C 2.7021 -1.83165 3.09804 0
M  V30 24 C 2.3101 -1.008 4.36513 0
M  V30 25 C 4.0541 -2.55529 3.38977 0
M  V30 26 C 1.9611 -1.83194 5.62311 0
M  V30 27 H 0.8911 -0.377878 0.652476 0
M  V30 28 H 3.5421 -0.257776 1.8168 0
M  V30 29 H 1.9241 -2.61694 2.97207 0
M  V30 30 H 3.0981 -0.266855 4.60027 0
M  V30 31 H 1.4131 -0.398897 4.14485 0
M  V30 32 H 4.0101 -3.17578 4.30172 0
M  V30 33 H 4.3531 -3.25825 2.59121 0
M  V30 34 H 4.8861 -1.84029 3.52673 0
M  V30 35 H 1.6251 -1.17318 6.44916 0
M  V30 36 H 1.1451 -2.54905 5.4294 0
M  V30 37 H 2.8241 -2.40552 6.00619 0
M  V30 38 N 2.9562 -1.48159 -0.537278 0
M  V30 39 C 4.3672 -1.49429 -1.11928 0
M  V30 40 C 4.7182 -0.26 -1.9447 0
M  V30 41 O 3.8432 0.633489 -2.0692 0
M  V30 42 C 4.4382 -2.70758 -2.03656 0
M  V30 43 C 2.9972 -2.74923 -2.57088 0
M  V30 44 C 2.1442 -2.42835 -1.3389 0
M  V30 45 H 5.0952 -1.55381 -0.322886 0
M  V30 46 H 5.1162 -2.48861 -2.87834 0
M  V30 47 H 4.6282 -3.60575 -1.43553 0
M  V30 48 H 2.7292 -1.89296 -3.20933 0
M  V30 49 H 2.8422 -3.76157 -2.9672 0
M  V30 50 H 1.2062 -1.93836 -1.65226 0
M  V30 51 H 1.9892 -3.34884 -0.755504 0
M  V30 52 N 4.4343 0.785586 -1.36625 0
M  V30 53 C 5.3973 1.87999 -1.31107 0
M  V30 54 C 6.3973 1.59316 -0.217959 0
M  V30 55 O 7.5873 1.67656 -0.472977 0
M  V30 56 C 4.7193 3.24861 -1.03334 0
M  V30 57 H 5.9123 1.94307 -2.2844 0
M  V30 58 H 3.4653 0.983813 -1.21453 0
M  V30 59 H 4.2003 3.24235 -0.0647432 0
M  V30 60 H 3.9853 3.4707 -1.82441 0
M  V30 61 H 5.4753 4.04929 -1.02088 0
M  V30 62 N 5.9124 1.20967 1.01018 0
M  V30 63 C 6.8594 0.964281 2.09691 0
M  V30 64 C 7.8294 -0.107853 1.65749 0
M  V30 65 O 9.0144 0.0381987 1.90762 0
M  V30 66 C 6.1544 0.52943 3.41015 0
M  V30 67 C 5.2674 1.67043 3.98398 0
M  V30 68 C 4.4024 1.18525 5.17808 0
M  V30 69 C 3.4414 2.29892 5.67288 0
M  V30 70 N 2.5784 1.82546 6.77954 0
M  V30 71 H 7.4184 1.89463 2.30017 0
M  V30 72 H 4.9554 0.944289 1.1279 0
M  V30 73 H 6.9134 0.258588 4.16398 0
M  V30 74 H 5.5434 -0.363919 3.20742 0
M  V30 75 H 4.5954 2.05603 3.20049 0
M  V30 76 H 5.9074 2.50877 4.31117 0
M  V30 77 H 5.0614 0.870762 6.00419 0
M  V30 78 H 3.8004 0.316887 4.86669 0
M  V30 79 H 2.8054 2.6215 4.83278 0
M  V30 80 H 4.0304 3.17216 6.00459 0
M  V30 81 H 1.9764 0.980454 6.48632 0
M  V30 82 H 1.8934 2.59956 7.09901 0
M  V30 83 H 3.1614 1.54115 7.64113 0
M  V30 84 N 7.3905 -1.2043 1.01659 0
M  V30 85 C 8.6675 -1.8548 0.621004 0
M  V30 86 C 9.0475 -1.9091 -0.900919 0
M  V30 87 O 8.3955 -1.41694 -1.79263 0
M  V30 88 C 8.6055 -3.25119 1.2688 0
M  V30 89 C 9.9535 -4.01403 1.38423 0
M  V30 90 O 10.9775 -3.34473 1.22501 0
M  V30 91 O 9.8365 -5.21265 1.64151 0
M  V30 92 H 6.9305 -0.798761 0.214266 0
M  V30 93 H 9.4765 -1.28019 1.11396 0
M  V30 94 H 8.2485 -3.15932 2.30873 0
M  V30 95 H 7.8715 -3.90212 0.762917 0
M  V30 96 N 8.8686 -0.792821 -1.36206 0
M  V30 97 C 9.8016 -0.139422 -2.27774 0
M  V30 98 C 10.7796 0.68649 -1.47398 0
M  V30 99 O 11.9636 0.656738 -1.7669 0
M  V30 100 C 9.0906 0.807947 -3.28922 0
M  V30 101 C 8.1366 0.0633999 -4.26453 0
M  V30 102 S 8.9696 -1.26319 -5.20388 0
M  V30 103 C 10.1256 -0.31991 -6.25082 0
M  V30 104 H 10.3586 -0.915809 -2.82843 0
M  V30 105 H 7.8916 -0.587203 -1.42798 0
M  V30 106 H 9.8496 1.34908 -3.87699 0
M  V30 107 H 8.5106 1.55761 -2.72759 0
M  V30 108 H 7.7036 0.782386 -4.9789 0
M  V30 109 H 7.3056 -0.407352 -3.71775 0
M  V30 110 H 9.5976 0.499985 -6.75653 0
M  V30 111 H 10.5406 -1.00307 -7.00959 0
M  V30 112 H 10.9486 0.0782694 -5.64446 0
M  V30 113 N 10.3467 1.47872 -0.545128 0
M  V30 114 C 11.3097 2.28337 0.198717 0
M  V30 115 C 12.3097 1.36255 0.853888 0
M  V30 116 O 13.4997 1.59003 0.711606 0
M  V30 117 C 10.6317 3.15585 1.28915 0
M  V30 118 H 11.8247 2.95567 -0.507941 0
M  V30 119 H 9.3777 1.53362 -0.301616 0
M  V30 120 H 10.1127 2.53019 2.02859 0
M  V30 121 H 9.8977 3.83337 0.824309 0
M  V30 122 H 11.3877 3.76243 1.81194 0
M  V30 123 N 11.8248 0.280983 1.55075 0
M  V30 124 C 12.7718 -0.603937 2.22758 0
M  V30 125 C 13.7418 -1.1452 1.20309 0
M  V30 126 O 14.9268 -1.19343 1.48869 0
M  V30 127 C 12.0668 -1.77947 2.95684 0
M  V30 128 C 11.1798 -1.2715 4.12864 0
M  V30 129 C 10.3148 -2.4093 4.7342 0
M  V30 130 C 9.3538 -1.87165 5.82783 0
M  V30 131 N 8.4908 -2.94441 6.37377 0
M  V30 132 H 13.3308 -0.020124 2.97993 0
M  V30 133 H 10.8678 0.00183425 1.471 0
M  V30 134 H 12.8258 -2.47055 3.36184 0
M  V30 135 H 11.4558 -2.33522 2.22861 0
M  V30 136 H 10.5078 -0.473331 3.77444 0
M  V30 137 H 11.8198 -0.837751 4.91715 0
M  V30 138 H 10.9738 -3.18021 5.1667 0
M  V30 139 H 9.7128 -2.87623 3.93859 0
M  V30 140 H 8.7178 -1.08556 5.38976 0
M  V30 141 H 9.9428 -1.41401 6.64216 0
M  V30 142 H 7.8888 -3.40505 5.60707 0
M  V30 143 H 7.8058 -2.55501 7.11516 0
M  V30 144 H 9.0738 -3.71489 6.85285 0
M  V30 145 N 13.3029 -1.57598 0.00835791 0
M  V30 146 C 14.5489 -1.91211 -0.675732 0
M  V30 147 C 14.8819 -0.883139 -1.72958 0
M  V30 148 O 14.1569 0.097016 -1.94258 0
M  V30 149 C 14.4399 -3.35379 -1.31123 0
M  V30 150 C 14.2929 -4.48999 -0.268356 0
M  V30 151 C 15.6119 -3.7912 -2.23508 0
M  V30 152 H 12.7309 -0.695374 -0.244179 0
M  V30 153 H 15.3729 -1.89901 0.0613655 0
M  V30 154 H 13.5229 -3.36626 -1.93946 0
M  V30 155 H 15.1949 -4.59887 0.360844 0
M  V30 156 H 13.4379 -4.31873 0.408482 0
M  V30 157 H 14.1089 -5.46851 -0.752218 0
M  V30 158 H 16.5849 -3.79477 -1.70693 0
M  V30 159 H 15.4609 -4.80729 -2.64936 0
M  V30 160 H 15.7219 -3.13455 -3.11766 0
M  V30 161 N 14.781 0.264519 -1.55364 0
M  V30 162 C 15.714 1.35297 -1.83766 0
M  V30 163 C 16.692 1.47171 -0.691336 0
M  V30 164 O 17.876 1.63663 -0.935238 0
M  V30 165 C 15.003 2.72847 -2.00679 0
M  V30 166 C 14.049 2.78214 -3.23263 0
M  V30 167 S 14.882 2.36601 -4.80396 0
M  V30 168 C 16.038 3.7611 -5.00292 0
M  V30 169 H 16.271 1.11003 -2.758 0
M  V30 170 H 13.804 0.464596 -1.47244 0
M  V30 171 H 15.762 3.52057 -2.11108 0
M  V30 172 H 14.423 2.94388 -1.09518 0
M  V30 173 H 13.616 3.7919 -3.3201 0
M  V30 174 H 13.218 2.07034 -3.11469 0
M  V30 175 H 15.51 4.71457 -4.86554 0
M  V30 176 H 16.453 3.7231 -6.02321 0
M  V30 177 H 16.861 3.67806 -4.28228 0
M  V30 178 N 16.2591 1.48442 0.529413 0
M  V30 179 C 17.5081 1.55742 1.28169 0
M  V30 180 C 17.8211 0.236511 1.94165 0
M  V30 181 O 19.0271 0.187761 2.7085 0
M  V30 182 C 17.4831 2.74667 2.32564 0
M  V30 183 C 17.0911 4.13402 1.72636 0
M  V30 184 C 18.8351 2.9128 3.08798 0
M  V30 185 C 16.7421 5.23587 2.74975 0
M  V30 186 H 15.6721 0.579796 0.48203 0
M  V30 187 H 18.3231 1.74776 0.559056 0
M  V30 188 H 16.7051 2.49067 3.07866 0
M  V30 189 H 17.8791 4.49022 1.03519 0
M  V30 190 H 16.1941 4.0191 1.08892 0
M  V30 191 H 18.7911 3.70767 3.85274 0
M  V30 192 H 19.1341 2.00757 3.64695 0
M  V30 193 H 19.6671 3.16782 2.40611 0
M  V30 194 H 16.4061 6.16076 2.23897 0
M  V30 195 H 15.9261 4.92454 3.42417 0
M  V30 196 H 17.6051 5.51724 3.37949 0
M  V30 197 N 17.7372 -0.778329 1.37039 0
M  V30 198 C 18.9832 -1.53892 1.32079 0
M  V30 199 C 19.3162 -1.9396 -0.0965386 0
M  V30 200 O 18.5912 -1.63568 -1.05242 0
M  V30 201 C 18.8742 -2.80847 2.25382 0
M  V30 202 C 18.7272 -2.47076 3.75864 0
M  V30 203 C 20.0462 -3.82741 2.1725 0
M  V30 204 H 17.1652 -0.558303 0.48111 0
M  V30 205 H 19.8072 -0.893397 1.67685 0
M  V30 206 H 17.9572 -3.35931 1.95148 0
M  V30 207 H 19.6292 -1.97957 4.16666 0
M  V30 208 H 17.8722 -1.79863 3.94755 0
M  V30 209 H 18.5432 -3.37798 4.36574 0
M  V30 210 H 21.0192 -3.37133 2.43887 0
M  V30 211 H 19.8952 -4.69303 2.84686 0
M  V30 212 H 20.1562 -4.2652 1.16331 0
M  V30 213 N 19.2153 -1.21501 -1.00376 0
M  V30 214 C 20.1483 -0.918669 -2.08892 0
M  V30 215 C 21.1263 0.134277 -1.62045 0
M  V30 216 O 22.3103 0.00504255 -1.88499 0
M  V30 217 C 19.4373 -0.379645 -3.36566 0
M  V30 218 C 18.4833 -1.41559 -4.02323 0
M  V30 219 S 19.3163 -2.98521 -4.44574 0
M  V30 220 C 20.4723 -2.46228 -5.75433 0
M  V30 221 H 20.7053 -1.83761 -2.33707 0
M  V30 222 H 18.2383 -1.04489 -1.13673 0
M  V30 223 H 20.1963 -0.0752195 -4.10431 0
M  V30 224 H 18.8573 0.518008 -3.09799 0
M  V30 225 H 18.0503 -0.988076 -4.9422 0
M  V30 226 H 17.6523 -1.66815 -3.34737 0
M  V30 227 H 19.9443 -1.86791 -6.51241 0
M  V30 228 H 20.8873 -3.36572 -6.22997 0
M  V30 229 H 21.2953 -1.87894 -5.32312 0
M  V30 230 N 20.6934 1.19889 -1.02296 0
M  V30 231 C 21.6234 2.25141 -0.619174 0
M  V30 232 C 22.6044 1.66051 0.368915 0
M  V30 233 O 23.7894 1.92546 0.252941 0
M  V30 234 C 20.9194 3.4728 0.0368783 0
M  V30 235 C 19.8734 4.19005 -0.872865 0
M  V30 236 C 19.1994 5.34637 -0.0822402 0
M  V30 237 C 20.4994 4.74452 -2.18387 0
M  V30 238 H 22.1934 2.59171 -1.49903 0
M  V30 239 H 19.7394 1.24579 -0.722222 0
M  V30 240 H 21.6924 4.20098 0.330958 0
M  V30 241 H 20.4164 3.12433 0.95149 0
M  V30 242 H 19.0754 3.48061 -1.15105 0
M  V30 243 H 18.7234 4.96034 0.83422 0
M  V30 244 H 18.4234 5.83557 -0.688149 0
M  V30 245 H 19.9474 6.10255 0.205238 0
M  V30 246 H 21.3614 5.39055 -1.95172 0
M  V30 247 H 19.7584 5.33834 -2.74119 0
M  V30 248 H 20.8284 3.92844 -2.84257 0
M  V30 249 N 22.1715 0.800033 1.35784 0
M  V30 250 C 23.1345 0.211565 2.28221 0
M  V30 251 C 24.1345 -0.59728 1.49296 0
M  V30 252 O 25.3245 -0.416721 1.69142 0
M  V30 253 C 22.4565 -0.705846 3.33513 0
M  V30 254 H 23.6495 1.02677 2.81776 0
M  V30 255 H 21.2025 0.570211 1.45528 0
M  V30 256 H 21.9375 -1.54498 2.85133 0
M  V30 257 H 21.7225 -0.127655 3.91892 0
M  V30 258 H 23.2125 -1.11211 4.02519 0
M  V30 259 N 23.6496 -1.47581 0.552962 0
M  V30 260 C 24.8986 -2.01684 0.0251995 0
M  V30 261 C 25.2116 -1.43317 -1.33115 0
M  V30 262 O 26.4176 -1.89057 -1.94858 0
M  V30 263 C 24.8736 -3.599 -0.00542052 0
M  V30 264 C 24.4816 -4.27257 1.34742 0
M  V30 265 C 26.2256 -4.21768 -0.4808 0
M  V30 266 C 24.1326 -5.77467 1.27614 0
M  V30 267 H 23.0626 -0.753979 0.00565033 0
M  V30 268 H 25.7136 -1.69616 0.70018 0
M  V30 269 H 24.0956 -3.88911 -0.745961 0
M  V30 270 H 25.2696 -4.09893 2.10534 0
M  V30 271 H 23.5846 -3.77358 1.76039 0
M  V30 272 H 26.1816 -5.31838 -0.55246 0
M  V30 273 H 26.5246 -3.88651 -1.49184 0
M  V30 274 H 27.0576 -3.97273 0.204752 0
M  V30 275 H 23.7966 -6.15196 2.26304 0
M  V30 276 H 23.3166 -5.9718 0.55996 0
M  V30 277 H 24.9956 -6.3959 0.976421 0
M  V30 278 N 25.1277 -0.289203 -1.54924 0
M  V30 279 C 26.3677 0.324536 -2.01807 0
M  V30 280 C 26.7317 1.5199 -1.17316 0
M  V30 281 O 27.9327 2.20422 -1.53843 0
M  V30 282 C 26.2037 0.683578 -3.50802 0
M  V30 283 S 27.7627 1.28185 -4.19659 0
M  V30 284 H 24.5807 0.100236 -0.703899 0
M  V30 285 H 27.1827 -0.414325 -1.91059 0
M  V30 286 H 25.8867 -0.195073 -4.09936 0
M  V30 287 H 25.4177 1.45354 -3.65562 0
M  V30 288 H 27.4327 2.57006 -4.24456 0
M  V30 289 N 26.6058 1.57591 -0.0167156 0
M  V30 290 C 27.8528 1.91283 0.664597 0
M  V30 291 C 28.1808 0.891949 1.72842 0
M  V30 292 O 27.4358 -0.100931 1.9544 0
M  V30 293 C 27.7348 3.3172 1.33029 0
M  V30 294 C 27.4008 4.4914 0.398047 0
M  V30 295 C 26.0628 4.80992 0.141421 0
M  V30 296 C 28.4148 5.20634 -0.242825 0
M  V30 297 C 25.7428 5.81703 -0.764092 0
M  V30 298 C 28.0948 6.22311 -1.13632 0
M  V30 299 C 26.7588 6.52611 -1.40196 0
M  V30 300 H 26.0288 0.699956 0.243193 0
M  V30 301 H 28.6758 1.9135 -0.0758267 0
M  V30 302 H 26.9808 3.27856 2.14517 0
M  V30 303 H 28.6778 3.55055 1.86379 0
M  V30 304 H 25.2678 4.24262 0.608238 0
M  V30 305 H 29.4518 4.96267 -0.0576019 0
M  V30 306 H 24.7078 6.03532 -0.977732 0
M  V30 307 H 28.8818 6.76834 -1.63917 0
M  V30 308 H 26.5088 7.30467 -2.10529 0
M  V30 309 N 28.0839 -0.256276 1.55502 0
M  V30 310 C 29.0139 -1.32102 1.92539 0
M  V30 311 C 29.9949 -1.50684 0.789194 0
M  V30 312 O 31.1799 -1.63449 1.04872 0
M  V30 313 C 28.3099 -2.67752 2.21192 0
M  V30 314 C 27.2639 -2.63878 3.36975 0
M  V30 315 C 26.5899 -4.03236 3.51147 0
M  V30 316 C 27.8899 -2.21682 4.72921 0
M  V30 317 H 29.5839 -1.01351 2.81724 0
M  V30 318 H 27.1299 -0.486105 1.35547 0
M  V30 319 H 29.0829 -3.42365 2.45691 0
M  V30 320 H 27.8069 -3.0012 1.28824 0
M  V30 321 H 26.4659 -1.91722 3.12471 0
M  V30 322 H 26.1139 -4.32854 2.56216 0
M  V30 323 H 25.8139 -4.01535 4.29003 0
M  V30 324 H 27.3379 -4.79563 3.77957 0
M  V30 325 H 28.7519 -2.86023 4.96854 0
M  V30 326 H 27.1489 -2.3111 5.53812 0
M  V30 327 H 28.2189 -1.16833 4.70615 0
M  V30 328 N 29.562 -1.4872 -0.521534 0
M  V30 329 C 30.79 -1.60843 -1.30142 0
M  V30 330 C 31.205 -0.271897 -1.86832 0
M  V30 331 O 30.562 0.739969 -1.66825 0
M  V30 332 C 30.613 -2.66155 -2.4463 0
M  V30 333 O 30.334 -3.94623 -1.90275 0
M  V30 334 C 31.835 -2.88795 -3.36322 0
M  V30 335 H 29.055 -0.542075 -0.395468 0
M  V30 336 H 31.599 -1.94609 -0.628285 0
M  V30 337 H 29.754 -2.35224 -3.07812 0
M  V30 338 H 30.168 -4.52468 -2.65279 0
M  V30 339 H 31.642 -3.66264 -4.12983 0
M  V30 340 H 32.119 -1.97934 -3.9207 0
M  V30 341 H 32.725 -3.21063 -2.78924 0
M  V30 342 N 31.0401 0.771051 -1.3745 0
M  V30 343 C 31.9871 1.88435 -1.3327 0
M  V30 344 C 32.9571 1.64914 -0.198136 0
M  V30 345 O 34.1421 1.86821 -0.387606 0
M  V30 346 C 31.2821 3.25509 -1.14622 0
M  V30 347 C 30.3951 3.60979 -2.37314 0
M  V30 348 C 29.5301 4.87265 -2.11533 0
M  V30 349 C 28.5691 5.15469 -3.30088 0
M  V30 350 N 27.7061 6.32944 -3.03853 0
M  V30 351 H 32.5461 1.91344 -2.28455 0
M  V30 352 H 30.0831 0.935466 -1.13523 0
M  V30 353 H 32.0411 4.04582 -1.01831 0
M  V30 354 H 30.6711 3.21974 -0.230837 0
M  V30 355 H 29.7231 2.76885 -2.60842 0
M  V30 356 H 31.0351 3.77759 -3.25729 0
M  V30 357 H 30.1891 5.74244 -1.95777 0
M  V30 358 H 28.9281 4.7259 -1.20457 0
M  V30 359 H 27.9331 4.26966 -3.46382 0
M  V30 360 H 29.1581 5.32052 -4.22016 0
M  V30 361 H 27.1041 6.19625 -2.15407 0
M  V30 362 H 27.0211 6.50143 -3.85812 0
M  V30 363 H 28.2891 7.22857 -2.91716 0
M  V30 364 N 32.5182 1.22032 0.997298 0
M  V30 365 C 33.7432 1.06921 1.77715 0
M  V30 366 C 34.1682 -0.376226 1.84299 0
M  V30 367 O 33.5262 -1.27165 1.29223 0
M  V30 368 C 33.5742 1.67996 3.19076 0
M  V30 369 O 32.6782 0.930653 4.01762 0
M  V30 370 H 32.0192 0.375814 0.547412 0
M  V30 371 H 34.5492 1.61737 1.25309 0
M  V30 372 H 34.5592 1.72538 3.69723 0
M  V30 373 H 33.2342 2.73182 3.13599 0
M  V30 374 H 31.8112 0.960917 3.60307 0
M  V30 375 N 33.9963 -1.19345 1.0293 0
M  V30 376 C 35.2733 -1.84811 0.640642 0
M  V30 377 C 35.6533 -1.91855 -0.88062 0
M  V30 378 O 35.0013 -1.43587 -1.7775 0
M  V30 379 C 35.2113 -3.23755 1.30321 0
M  V30 380 C 36.5593 -3.99912 1.42673 0
M  V30 381 O 37.5833 -3.33155 1.26041 0
M  V30 382 O 36.4423 -5.19494 1.6967 0
M  V30 383 H 33.5363 -0.796443 0.222726 0
M  V30 384 H 36.0823 -1.26831 1.12748 0
M  V30 385 H 34.8543 -3.13466 2.34211 0
M  V30 386 H 34.4773 -3.89381 0.804261 0
M  V30 387 N 35.4744 -0.807222 -1.35358 0
M  V30 388 C 36.7224 -0.387122 -1.98358 0
M  V30 389 C 37.0434 1.04942 -1.64354 0
M  V30 390 O 36.3134 1.72615 -0.926339 0
M  V30 391 H 34.8934 -0.140154 -0.733734 0
M  V30 392 H 37.5554 -1.0332 -1.6526 0
M  V30 393 H 36.6514 -0.493352 -3.08176 0
M  V30 394 N 36.9525 1.47285 -0.560781 0
M  V30 395 C 37.8995 2.30058 0.18491 0
M  V30 396 C 38.8695 1.39281 0.904986 0
M  V30 397 O 40.0545 1.68241 0.899979 0
M  V30 398 C 37.1945 3.23317 1.20666 0
M  V30 399 C 36.3075 4.29186 0.492285 0
M  V30 400 C 35.4425 5.09592 1.49964 0
M  V30 401 C 34.4815 6.07232 0.770439 0
M  V30 402 N 33.6185 6.80584 1.72479 0
M  V30 403 H 38.4585 2.93302 -0.527048 0
M  V30 404 H 35.9955 1.44568 -0.271738 0
M  V30 405 H 37.9535 3.75811 1.81168 0
M  V30 406 H 36.5835 2.61929 1.88661 0
M  V30 407 H 35.6355 3.7972 -0.227333 0
M  V30 408 H 36.9475 4.98738 -0.0787929 0
M  V30 409 H 36.1015 5.66254 2.17809 0
M  V30 410 H 34.8405 4.3995 2.10464 0
M  V30 411 H 33.8455 5.49745 0.0780846 0
M  V30 412 H 35.0705 6.78884 0.171134 0
M  V30 413 H 33.0165 6.1367 2.3183 0
M  V30 414 H 32.9335 7.46319 1.20596 0
M  V30 415 H 34.2015 7.41818 2.39428 0
M  V30 416 N 38.4306 0.297415 1.54768 0
M  V30 417 C 39.6556 -0.318435 2.04941 0
M  V30 418 C 40.0806 -1.4701 1.17345 0
M  V30 419 O 39.4386 -1.80436 0.176758 0
M  V30 420 C 39.4866 -0.755749 3.52592 0
M  V30 421 O 38.5906 -1.86088 3.68028 0
M  V30 422 H 37.9316 -0.062421 0.661059 0
M  V30 423 H 40.4616 0.438215 1.99852 0
M  V30 424 H 40.4716 -1.04552 3.94376 0
M  V30 425 H 39.1466 0.0867233 4.1581 0
M  V30 426 H 37.7236 -1.57193 3.38149 0
M  V30 427 N 39.9087 -1.5758 0.0250728 0
M  V30 428 C 41.1547 -1.91917 -0.655413 0
M  V30 429 C 41.4877 -0.901433 -1.72011 0
M  V30 430 O 40.7627 0.0764069 -1.9435 0
M  V30 431 C 41.0457 -3.36751 -1.27558 0
M  V30 432 C 40.8987 -4.49258 -0.220719 0
M  V30 433 C 42.2177 -3.81469 -2.19475 0
M  V30 434 H 39.3367 -0.697925 -0.23679 0
M  V30 435 H 41.9787 -1.89825 0.0815036 0
M  V30 436 H 40.1287 -3.38664 -1.90365 0
M  V30 437 H 41.8007 -4.59478 0.409601 0
M  V30 438 H 40.0437 -4.31415 0.454264 0
M  V30 439 H 40.7147 -5.47618 -0.694175 0
M  V30 440 H 43.1907 -3.81266 -1.66659 0
M  V30 441 H 42.0667 -4.83512 -2.59822 0
M  V30 442 H 42.3277 -3.16744 -3.08424 0
M  V30 443 N 41.3868 0.248026 -1.55636 0
M  V30 444 C 42.3338 1.30707 -1.90222 0
M  V30 445 C 43.3038 1.47881 -0.756332 0
M  V30 446 O 44.4888 1.61883 -1.00988 0
M  V30 447 C 41.6288 2.65769 -2.20138 0
M  V30 448 C 40.7418 2.56612 -3.47526 0
M  V30 449 C 39.8768 3.8402 -3.67017 0
M  V30 450 C 38.9158 3.69476 -4.8801 0
M  V30 451 N 38.0528 4.88774 -5.04029 0
M  V30 452 H 42.8928 1.00512 -2.80538 0
M  V30 453 H 40.4298 0.485055 -1.38873 0
M  V30 454 H 42.3878 3.44386 -2.35487 0
M  V30 455 H 41.0178 2.94115 -1.33027 0
M  V30 456 H 40.0698 1.69571 -3.40514 0
M  V30 457 H 41.3818 2.41774 -4.36287 0
M  V30 458 H 40.5358 4.7108 -3.8232 0
M  V30 459 H 39.2748 4.01754 -2.76487 0
M  V30 460 H 38.2798 2.80799 -4.72686 0
M  V30 461 H 39.5048 3.53238 -5.8 0
M  V30 462 H 37.4508 5.0687 -4.16435 0
M  V30 463 H 37.3678 4.76562 -5.86877 0
M  V30 464 H 38.6358 5.77335 -5.23741 0
M  V30 465 N 42.8649 1.48995 0.513639 0
M  V30 466 C 43.8119 1.6473 1.61656 0
M  V30 467 C 44.7819 0.488984 1.58739 0
M  V30 468 O 45.9669 0.714478 1.76918 0
M  V30 469 C 43.1069 1.7082 2.99858 0
M  V30 470 C 42.2199 2.9787 3.12885 0
M  V30 471 C 41.3549 2.95017 4.41744 0
M  V30 472 C 40.3939 4.16702 4.48359 0
M  V30 473 N 39.5309 4.11832 5.68629 0
M  V30 474 H 44.3709 2.58909 1.47547 0
M  V30 475 H 41.9079 1.28382 0.71808 0
M  V30 476 H 43.8659 1.72331 3.79944 0
M  V30 477 H 42.4959 0.801181 3.12699 0
M  V30 478 H 41.5479 3.06029 2.25944 0
M  V30 479 H 42.8599 3.8786 3.13633 0
M  V30 480 H 42.0139 2.95021 5.30139 0
M  V30 481 H 40.7529 2.02784 4.43542 0
M  V30 482 H 39.7579 4.16955 3.58369 0
M  V30 483 H 40.9829 5.10113 4.48287 0
M  V30 484 H 38.9289 3.22428 5.71293 0
M  V30 485 H 38.8459 4.95543 5.7094 0
M  V30 486 H 40.1139 4.1592 6.59266 0
M  V30 487 N 44.343 -0.763751 1.37857 0
M  V30 488 C 45.759 -1.06542 1.18832 0
M  V30 489 C 45.959 -2.01478 0.0299722 0
M  V30 490 O 45.015 -2.4458 -0.627447 0
M  V30 491 C 46.328 -1.65525 2.51042 0
M  V30 492 C 47.876 -1.77745 2.57635 0
M  V30 493 C 48.351 -2.4014 3.89996 0
M  V30 494 N 49.842 -2.47582 3.91481 0
M  V30 495 C 50.577 -2.96732 4.9065 0
M  V30 496 N 50.073 -3.45993 6.00217 0
M  V30 497 N 51.866 -2.95679 4.78048 0
M  V30 498 H 44.017 -0.133556 2.1198 0
M  V30 499 H 46.28 -0.121879 0.940133 0
M  V30 500 H 45.986 -1.03236 3.36207 0
M  V30 501 H 45.86 -2.64719 2.68707 0
M  V30 502 H 48.247 -2.39164 1.72872 0
M  V30 503 H 48.328 -0.772836 2.43846 0
M  V30 504 H 47.972 -1.79358 4.75177 0
M  V30 505 H 47.902 -3.41223 4.01092 0
M  V30 506 H 50.393 -2.1273 3.12337 0
M  V30 507 H 50.706 -3.81922 6.7183 0
M  V30 508 H 49.051 -3.44077 6.03851 0
M  V30 509 H 52.242 -2.56499 3.91568 0
M  V30 510 H 52.415 -3.33672 5.55488 0
M  V30 511 N 45.8211 -1.22559 -0.990812 0
M  V30 512 C 47.0461 -1.07862 -1.77145 0
M  V30 513 C 47.4711 0.366447 -1.84496 0
M  V30 514 O 46.8291 1.26478 -1.29896 0
M  V30 515 C 46.8771 -1.69686 -3.18181 0
M  V30 516 O 45.9811 -0.951946 -4.01263 0
M  V30 517 H 45.3221 -0.378712 -0.545411 0
M  V30 518 H 47.8521 -1.62399 -1.2445 0
M  V30 519 H 47.8621 -1.74496 -3.68802 0
M  V30 520 H 46.5371 -2.74841 -3.12146 0
M  V30 521 H 45.1141 -0.980011 -3.59792 0
M  V30 522 N 47.2992 1.18797 -1.03562 0
M  V30 523 C 48.5452 1.8893 -0.737113 0
M  V30 524 C 48.8782 1.79837 0.732956 0
M  V30 525 O 48.1532 1.19525 1.5344 0
M  V30 526 C 48.4362 3.39607 -1.19745 0
M  V30 527 C 48.2892 3.57537 -2.72924 0
M  V30 528 C 49.6082 4.33069 -0.783526 0
M  V30 529 H 46.7272 0.686057 -0.269249 0
M  V30 530 H 49.3692 1.39797 -1.28673 0
M  V30 531 H 47.5192 3.81583 -0.729855 0
M  V30 532 H 49.1912 3.24688 -3.27682 0
M  V30 533 H 47.4342 3.00363 -3.12993 0
M  V30 534 H 48.1052 4.63238 -3.00191 0
M  V30 535 H 50.5812 3.98846 -1.18581 0
M  V30 536 H 49.4572 5.3707 -1.13343 0
M  V30 537 H 49.7182 4.40986 0.313681 0
M  V30 538 N 48.7773 0.814389 1.34928 0
M  V30 539 C 50.0023 0.410097 2.03305 0
M  V30 540 C 50.4273 -0.973464 1.60951 0
M  V30 541 O 49.7853 -1.63185 0.789964 0
M  V30 542 C 49.8333 0.51049 3.56968 0
M  V30 543 O 48.9373 -0.473035 4.09678 0
M  V30 544 H 48.2783 0.170088 0.641846 0
M  V30 545 H 50.8083 1.10244 1.72358 0
M  V30 546 H 50.8183 0.383135 4.06197 0
M  V30 547 H 49.4933 1.51963 3.87144 0
M  V30 548 H 48.0703 -0.305272 3.71648 0
M  V30 549 N 50.2554 -1.46986 0.568584 0
M  V30 550 C 51.1654 -2.33942 -0.17555 0
M  V30 551 C 52.1814 -1.48891 -0.90041 0
M  V30 552 O 53.3574 -1.81794 -0.86676 0
M  V30 553 C 50.4224 -3.25811 -1.18524 0
M  V30 554 C 49.4834 -4.26757 -0.466582 0
M  V30 555 C 48.7164 -5.14236 -1.42817 0
M  V30 556 O 48.9394 -5.04379 -2.66379 0
M  V30 557 O 47.8734 -5.94412 -0.946453 0
M  V30 558 H 51.6994 -2.98896 0.538036 0
M  V30 559 H 49.2844 -1.4573 0.329097 0
M  V30 560 H 51.1664 -3.82527 -1.76779 0
M  V30 561 H 49.8414 -2.63471 -1.88055 0
M  V30 562 H 48.7484 -3.73769 0.157451 0
M  V30 563 H 50.0814 -4.91843 0.187485 0
M  V30 564 N 51.7335 -0.305618 -1.54608 0
M  V30 565 C 52.9825 0.303098 -1.9941 0
M  V30 566 C 53.2955 1.54648 -1.19764 0
M  V30 567 O 54.5015 2.23007 -1.54855 0
M  V30 568 C 52.9575 0.590588 -3.55021 0
M  V30 569 C 52.5655 -0.634719 -4.43481 0
M  V30 570 C 54.3095 1.16025 -4.08336 0
M  V30 571 C 52.2165 -0.320126 -5.90533 0
M  V30 572 H 51.1465 0.117031 -0.744862 0
M  V30 573 H 53.7975 -0.415045 -1.78745 0
M  V30 574 H 52.1795 1.36845 -3.71604 0
M  V30 575 H 53.3535 -1.41079 -4.38672 0
M  V30 576 H 51.6685 -1.12333 -4.00962 0
M  V30 577 H 54.2655 1.40994 -5.15776 0
M  V30 578 H 54.6085 2.10397 -3.5922 0
M  V30 579 H 55.1415 0.443985 -3.95315 0
M  V30 580 H 51.8805 -1.23254 -6.43808 0
M  V30 581 H 51.4005 0.418579 -5.98338 0
M  V30 582 H 53.0795 0.0766241 -6.46955 0
M  V30 583 N 53.2116 1.57565 -0.0334293 0
M  V30 584 C 54.1436 2.0739 0.975811 0
M  V30 585 C 55.1566 0.998166 1.2861 0
M  V30 586 O 56.3456 1.27426 1.25 0
M  V30 587 C 53.4456 2.4871 2.30209 0
M  V30 588 C 52.6186 3.79413 2.17634 0
M  V30 589 C 51.6776 4.07237 3.33233 0
M  V30 590 O 50.7036 4.77425 3.09927 0
M  V30 591 N 51.9056 3.5775 4.5716 0
M  V30 592 H 54.6706 2.94598 0.55066 0
M  V30 593 H 52.2316 1.61173 0.15323 0
M  V30 594 H 54.2236 2.64413 3.06378 0
M  V30 595 H 52.7936 1.66845 2.64351 0
M  V30 596 H 52.0136 3.73465 1.26165 0
M  V30 597 H 53.3016 4.65038 2.0644 0
M  V30 598 H 52.6996 3.00976 4.78989 0
M  V30 599 H 51.2566 3.78724 5.30482 0
M  V30 600 N 54.6897 -0.239769 1.55765 0
M  V30 601 C 55.6197 -1.30052 1.9393 0
M  V30 602 C 56.6007 -1.49839 0.805132 0
M  V30 603 O 57.7857 -1.62328 1.06599 0
M  V30 604 C 54.9157 -2.65391 2.2402 0
M  V30 605 C 53.8697 -2.60289 3.39755 0
M  V30 606 C 53.1957 -3.99489 3.55405 0
M  V30 607 C 54.4957 -2.16654 4.75246 0
M  V30 608 H 56.1897 -0.983573 2.82783 0
M  V30 609 H 53.7357 -0.471701 1.36055 0
M  V30 610 H 55.6887 -3.3974 2.49308 0
M  V30 611 H 54.4127 -2.98736 1.32 0
M  V30 612 H 53.0717 -1.88398 3.14487 0
M  V30 613 H 52.7197 -4.30112 2.60793 0
M  V30 614 H 52.4197 -3.96962 4.33238 0
M  V30 615 H 53.9437 -4.75528 3.83022 0
M  V30 616 H 55.3577 -2.80737 4.99859 0
M  V30 617 H 53.7547 -2.25223 5.56232 0
M  V30 618 H 54.8247 -1.11835 4.71827 0
M  V30 619 N 56.1678 -1.49265 -0.50573 0
M  V30 620 C 57.1008 -1.60183 -1.62532 0
M  V30 621 C 58.0788 -0.451107 -1.56217 0
M  V30 622 O 59.2628 -0.666016 -1.76342 0
M  V30 623 C 56.3898 -1.55238 -3.01029 0
M  V30 624 C 55.4358 -2.7545 -3.25621 0
M  V30 625 S 56.2688 -4.37174 -3.09256 0
M  V30 626 C 57.4248 -4.34866 -4.50158 0
M  V30 627 H 57.6578 -2.54894 -1.53025 0
M  V30 628 H 55.1908 -1.38098 -0.690535 0
M  V30 629 H 57.1488 -1.53071 -3.80893 0
M  V30 630 H 55.8098 -0.618238 -3.07956 0
M  V30 631 H 55.0028 -2.68197 -4.26716 0
M  V30 632 H 54.6048 -2.75005 -2.53472 0
M  V30 633 H 56.8968 -4.06295 -5.42154 0
M  V30 634 H 57.8398 -5.36223 -4.62462 0
M  V30 635 H 58.2478 -3.65007 -4.30616 0
M  V30 636 N 57.6459 0.756429 -1.3826 0
M  V30 637 C 58.5959 1.86069 -1.31766 0
M  V30 638 C 59.5799 1.59621 -0.202483 0
M  V30 639 O 60.7719 1.7149 -0.438211 0
M  V30 640 C 57.9009 3.23742 -1.1422 0
M  V30 641 C 56.9869 3.56091 -2.30348 0
M  V30 642 N 57.3779 3.59517 -3.55783 0
M  V30 643 C 55.6759 3.86341 -2.22838 0
M  V30 644 C 56.3769 3.89052 -4.32451 0
M  V30 645 N 55.3529 4.05736 -3.61772 0
M  V30 646 H 59.1549 1.86992 -2.26741 0
M  V30 647 H 56.6689 0.953643 -1.31451 0
M  V30 648 H 58.6659 4.02761 -1.07652 0
M  V30 649 H 57.3259 3.24073 -0.201763 0
M  V30 650 H 58.3369 3.41347 -3.89491 0
M  V30 651 H 55.0139 3.94404 -1.36937 0
M  V30 652 H 56.4039 3.98349 -5.4108 0
M  V30 653 N 59.124 1.23083 0.984299 0
M  V30 654 C 60.072 1.00593 2.09723 0
M  V30 655 C 61.066 -0.0538014 1.69315 0
M  V30 656 O 62.272 0.0993719 1.79725 0
M  V30 657 H 58.647 0.30817 0.685956 0
M  V30 658 H 60.618 1.95012 2.2586 0
M  V30 659 C 59.367 0.609601 3.42314 0
M  V30 660 H 58.69 1.41675 3.73856 0
M  V30 661 H 60.13 0.491726 4.21139 0
M  V30 662 C 58.589 -0.681745 3.2993 0
M  V30 663 O 59.119 -1.73192 3.62446 0
M  V30 664 N 57.325 -0.656178 2.83095 0
M  V30 665 H 56.872 0.198759 2.56832 0
M  V30 666 H 56.83 -1.52044 2.75191 0
M  V30 667 N 60.6021 -1.18246 1.0419 0
M  V30 668 C 61.5321 -2.24127 0.654914 0
M  V30 669 C 62.5131 -1.66617 -0.342451 0
M  V30 670 O 63.6981 -1.92924 -0.222277 0
M  V30 671 C 60.8281 -3.47295 0.0183757 0
M  V30 672 C 59.7821 -4.17563 0.939414 0
M  V30 673 C 59.1081 -5.34438 0.167286 0
M  V30 674 C 60.4081 -4.70917 2.25908 0
M  V30 675 H 62.1021 -2.56753 1.54007 0
M  V30 676 H 59.6481 -1.23414 0.74195 0
M  V30 677 H 61.6011 -4.20572 -0.264082 0
M  V30 678 H 60.3251 -3.13907 -0.901664 0
M  V30 679 H 58.9841 -3.46186 1.20628 0
M  V30 680 H 58.6321 -4.97298 -0.7552 0
M  V30 681 H 58.3321 -5.82388 0.780901 0
M  V30 682 H 59.8561 -6.10504 -0.108125 0
M  V30 683 H 61.2701 -5.35882 2.03724 0
M  V30 684 H 59.6671 -5.29406 2.82577 0
M  V30 685 H 60.7371 -3.88272 2.9047 0
M  V30 686 N 62.0802 -0.821533 -1.34494 0
M  V30 687 C 63.3282 -0.408139 -1.97936 0
M  V30 688 C 63.6492 1.03193 -1.65457 0
M  V30 689 O 62.9192 1.71622 -0.944595 0
M  V30 690 H 61.4992 -0.147928 -0.732206 0
M  V30 691 H 64.1612 -1.05067 -1.64155 0
M  V30 692 H 63.2572 -0.52601 -3.07635 0
M  V30 693 N 63.5583 1.46682 -0.576371 0
M  V30 694 C 64.5053 2.30241 0.160499 0
M  V30 695 C 65.4753 1.40233 0.890162 0
M  V30 696 O 66.6603 1.69186 0.882084 0
M  V30 697 C 63.8003 3.24578 1.1723 0
M  V30 698 C 62.9133 4.29684 0.446736 0
M  V30 699 C 62.0483 5.11154 1.44551 0
M  V30 700 C 61.0873 6.08015 0.70599 0
M  V30 701 N 60.2243 6.82376 1.65251 0
M  V30 702 H 65.0643 2.92727 -0.558127 0
M  V30 703 H 62.6013 1.44272 -0.287056 0
M  V30 704 H 64.5593 3.77711 1.77172 0
M  V30 705 H 63.1893 2.63916 1.85872 0
M  V30 706 H 62.2413 3.79458 -0.267594 0
M  V30 707 H 63.5533 4.98626 -0.131686 0
M  V30 708 H 62.7073 5.68533 2.11791 0
M  V30 709 H 61.4463 4.42158 2.05786 0
M  V30 710 H 60.4513 5.49796 0.0197725 0
M  V30 711 H 61.6763 6.79028 0.09912 0
M  V30 712 H 59.6223 6.16094 2.25308 0
M  V30 713 H 59.5393 7.47556 1.12673 0
M  V30 714 H 60.8073 7.44316 2.31546 0
M  V30 715 N 65.0364 0.313813 1.54444 0
M  V30 716 C 65.9864 -0.571898 2.20711 0
M  V30 717 C 66.9704 -1.08913 1.18435 0
M  V30 718 O 68.1624 -1.02777 1.44104 0
M  V30 719 C 65.2914 -1.7371 2.96108 0
M  V30 720 C 64.3774 -1.23522 4.05713 0
M  V30 721 N 64.7684 -0.452288 5.03774 0
M  V30 722 C 63.0664 -1.51482 4.19487 0
M  V30 723 C 63.7674 -0.183438 5.81411 0
M  V30 724 N 62.7434 -0.766845 5.38164 0
M  V30 725 H 66.5454 0.0336802 2.93881 0
M  V30 726 H 64.0594 0.119192 1.61962 0
M  V30 727 H 66.0564 -2.38329 3.4206 0
M  V30 728 H 64.7164 -2.34625 2.24458 0
M  V30 729 H 65.7274 -0.0960131 5.17811 0
M  V30 730 H 62.4044 -2.13053 3.59047 0
M  V30 731 H 63.7944 0.446216 6.70417 0
M  V30 732 N 66.5145 -1.57545 0.0417849 0
M  V30 733 C 67.4445 -2.14009 -0.933929 0
M  V30 734 C 68.4255 -1.05938 -1.33083 0
M  V30 735 O 69.6105 -1.33833 -1.40721 0
M  V30 736 C 66.7405 -2.67747 -2.21199 0
M  V30 737 C 65.6945 -3.80718 -1.95544 0
M  V30 738 C 65.0205 -4.20935 -3.29724 0
M  V30 739 C 66.3205 -5.06258 -1.28452 0
M  V30 740 H 68.0145 -2.95788 -0.463645 0
M  V30 741 H 65.5605 -1.42285 -0.221573 0
M  V30 742 H 67.5135 -3.05886 -2.89848 0
M  V30 743 H 66.2375 -1.83147 -2.70416 0
M  V30 744 H 64.8965 -3.43037 -1.2931 0
M  V30 745 H 64.5445 -3.33298 -3.76724 0
M  V30 746 H 64.2445 -4.9707 -3.13361 0
M  V30 747 H 65.7685 -4.61666 -3.9962 0
M  V30 748 H 67.1825 -5.41903 -1.8712 0
M  V30 749 H 65.5795 -5.87475 -1.22445 0
M  V30 750 H 66.6495 -4.84207 -0.259219 0
M  V30 751 N 67.9926 0.231505 -1.5589 0
M  V30 752 C 68.9406 1.30649 -1.92441 0
M  V30 753 C 69.9346 1.49037 -0.805254 0
M  V30 754 O 71.1406 1.50329 -0.990007 0
M  V30 755 H 67.5156 0.437812 -0.611412 0
M  V30 756 H 69.4866 0.970973 -2.82161 0
M  V30 757 C 68.2356 2.65179 -2.24889 0
M  V30 758 H 67.5586 2.51835 -3.10514 0
M  V30 759 H 68.9986 3.39234 -2.54355 0
M  V30 760 C 67.4576 3.19439 -1.07054 0
M  V30 761 O 67.9876 4.00371 -0.326499 0
M  V30 762 N 66.1936 2.77675 -0.85703 0
M  V30 763 H 65.7406 2.11969 -1.46379 0
M  V30 764 H 65.6986 3.14321 -0.0703223 0
M  V30 765 N 69.4707 1.49531 0.497807 0
M  V30 766 C 70.6957 1.63159 1.28039 0
M  V30 767 C 71.1207 0.30418 1.85624 0
M  V30 768 O 70.4787 -0.728618 1.66015 0
M  V30 769 C 70.5267 2.70537 2.38416 0
M  V30 770 O 69.6307 2.29931 3.42353 0
M  V30 771 H 68.9717 0.546001 0.377861 0
M  V30 772 H 71.5017 1.9574 0.59558 0
M  V30 773 H 71.5117 2.92802 2.84132 0
M  V30 774 H 70.1867 3.6689 1.95869 0
M  V30 775 H 68.7637 2.18009 3.02533 0
M  V30 776 N 70.9488 -0.749086 1.3866 0
M  V30 777 C 71.8818 -1.87111 1.30631 0
M  V30 778 C 72.8598 -1.61572 0.18251 0
M  V30 779 O 74.0438 -1.85019 0.360592 0
M  V30 780 C 71.1708 -3.22815 1.02511 0
M  V30 781 C 70.2168 -3.67234 2.1689 0
M  V30 782 S 71.0498 -3.78245 3.79066 0
M  V30 783 C 72.2058 -5.16761 3.53142 0
M  V30 784 H 72.4388 -1.93636 2.25594 0
M  V30 785 H 69.9718 -0.912525 1.24549 0
M  V30 786 H 71.9298 -4.01181 0.869701 0
M  V30 787 H 70.5908 -3.13964 0.0925884 0
M  V30 788 H 69.7838 -4.65677 1.92771 0
M  V30 789 H 69.3858 -2.96034 2.28561 0
M  V30 790 H 71.6778 -6.02656 3.09534 0
M  V30 791 H 72.6208 -5.45902 4.50995 0
M  V30 792 H 73.0288 -4.85771 2.87554 0
M  V30 793 N 72.4269 -1.23603 -0.977757 0
M  V30 794 C 73.3369 -1.03632 -2.1047 0
M  V30 795 C 74.3529 0.0199435 -1.73989 0
M  V30 796 O 75.5289 -0.176076 -2.00629 0
M  V30 797 C 72.5939 -0.63276 -3.40877 0
M  V30 798 C 71.6549 -1.76437 -3.91367 0
M  V30 799 C 70.8879 -1.37997 -5.15551 0
M  V30 800 O 71.1109 -0.265357 -5.69782 0
M  V30 801 O 70.0449 -2.20201 -5.60174 0
M  V30 802 H 73.8709 -1.98086 -2.30208 0
M  V30 803 H 71.4559 -1.02332 -1.08851 0
M  V30 804 H 73.3379 -0.418761 -4.19314 0
M  V30 805 H 72.0129 0.282754 -3.22463 0
M  V30 806 H 70.9199 -2.03304 -3.14036 0
M  V30 807 H 72.2529 -2.6583 -4.14241 0
M  V30 808 N 73.905 1.17692 -1.04816 0
M  V30 809 C 75.321 1.39863 -0.768794 0
M  V30 810 C 75.521 1.91118 0.638451 0
M  V30 811 O 74.577 2.10036 1.40146 0
M  V30 812 C 75.89 2.39274 -1.82122 0
M  V30 813 C 77.438 2.52987 -1.843 0
M  V30 814 C 77.913 3.55669 -2.88555 0
M  V30 815 N 79.404 3.63183 -2.87493 0
M  V30 816 C 80.139 4.42381 -3.64811 0
M  V30 817 N 79.635 5.25125 -4.51903 0
M  V30 818 N 81.428 4.37217 -3.53267 0
M  V30 819 H 73.579 0.82752 -1.95617 0
M  V30 820 H 75.842 0.426123 -0.846831 0
M  V30 821 H 75.548 2.08678 -2.83102 0
M  V30 822 H 75.422 3.38725 -1.65967 0
M  V30 823 H 77.809 2.82896 -0.839869 0
M  V30 824 H 77.89 1.53623 -2.04532 0
M  V30 825 H 77.534 3.26499 -3.89051 0
M  V30 826 H 77.464 4.54728 -2.65575 0
M  V30 827 H 79.955 3.04103 -2.24343 0
M  V30 828 H 80.268 5.82728 -5.07591 0
M  V30 829 H 78.613 5.24519 -4.55966 0
M  V30 830 H 81.804 3.71626 -2.84625 0
M  V30 831 H 81.977 4.98696 -4.13771 0
M  V30 832 N 75.3831 0.828654 1.34056 0
M  V30 833 C 76.6291 0.42008 1.98402 0
M  V30 834 C 76.9621 -1.01564 1.65525 0
M  V30 835 O 76.2371 -1.70834 0.929831 0
M  V30 836 C 76.5201 0.62927 3.54559 0
M  V30 837 C 76.3731 2.11152 3.97159 0
M  V30 838 C 77.6921 0.0688756 4.40046 0
M  V30 839 H 74.8111 0.154104 0.720709 0
M  V30 840 H 77.4531 1.04228 1.5886 0
M  V30 841 H 75.6031 0.0996418 3.88372 0
M  V30 842 H 77.2751 2.70522 3.73651 0
M  V30 843 H 75.5181 2.59985 3.47261 0
M  V30 844 H 76.1891 2.20868 5.05887 0
M  V30 845 H 78.6651 0.521458 4.1282 0
M  V30 846 H 77.5411 0.245006 5.48353 0
M  V30 847 H 77.8021 -1.0266 4.30015 0
M  V30 848 N 76.8612 -1.46375 0.584142 0
M  V30 849 C 77.7712 -2.34115 -0.150728 0
M  V30 850 C 78.7872 -1.49838 -0.884567 0
M  V30 851 O 79.9632 -1.82704 -0.847429 0
M  V30 852 C 77.0282 -3.2705 -1.15062 0
M  V30 853 C 76.0892 -4.27228 -0.421293 0
M  V30 854 C 75.3222 -5.15722 -1.37355 0
M  V30 855 O 75.5452 -5.07176 -2.61014 0
M  V30 856 O 74.4792 -5.95383 -0.883355 0
M  V30 857 H 78.3052 -2.98309 0.569708 0
M  V30 858 H 75.8902 -1.45373 0.344535 0
M  V30 859 H 77.7722 -3.84381 -1.72712 0
M  V30 860 H 76.4472 -2.65451 -1.8525 0
M  V30 861 H 75.3542 -3.7358 0.197085 0
M  V30 862 H 76.6872 -4.91616 0.239641 0
M  V30 863 N 78.3393 -0.321999 -1.54275 0
M  V30 864 C 79.5853 0.274234 -2.01543 0
M  V30 865 C 79.9403 1.499 -1.20614 0
M  V30 866 O 79.2333 1.89546 -0.279804 0
M  V30 867 C 79.4273 0.661769 -3.5122 0
M  V30 868 C 79.2563 -0.523892 -4.46638 0
M  V30 869 C 78.0263 -1.02251 -4.94846 0
M  V30 870 C 80.2243 -1.37558 -4.95563 0
M  V30 871 N 78.2063 -2.17274 -5.74165 0
M  V30 872 C 79.5773 -2.37301 -5.7279 0
M  V30 873 C 81.6323 -1.40353 -4.77709 0
M  V30 874 C 80.3353 -3.3964 -6.34064 0
M  V30 875 C 82.3613 -2.41562 -5.39817 0
M  V30 876 C 81.7233 -3.40031 -6.16894 0
M  V30 877 H 77.8223 0.0642367 -0.779357 0
M  V30 878 H 80.4063 -0.456683 -1.89268 0
M  V30 879 H 78.5773 1.36182 -3.63743 0
M  V30 880 H 80.3093 1.23934 -3.85256 0
M  V30 881 H 77.0643 -0.594046 -4.6986 0
M  V30 882 H 77.4883 -2.75289 -6.18502 0
M  V30 883 H 82.1303 -0.655907 -4.17681 0
M  V30 884 H 79.8483 -4.15309 -6.93213 0
M  V30 885 H 83.4343 -2.44524 -5.2792 0
M  V30 886 H 82.3143 -4.17063 -6.64099 0
M  V30 887 N 79.8174 1.5752 -0.0501392 0
M  V30 888 C 80.7474 2.14502 0.922566 0
M  V30 889 C 81.7284 1.06642 1.3252 0
M  V30 890 O 82.9134 1.34577 1.4001 0
M  V30 891 C 80.0434 2.68916 2.19776 0
M  V30 892 C 78.9974 3.8175 1.93523 0
M  V30 893 C 78.3234 4.22677 3.27487 0
M  V30 894 C 79.6234 5.06932 1.25765 0
M  V30 895 H 81.3174 2.9603 0.447952 0
M  V30 896 H 78.8634 1.42401 0.214024 0
M  V30 897 H 80.8164 3.07419 2.88222 0
M  V30 898 H 79.5404 1.84578 2.69441 0
M  V30 899 H 78.1994 3.43718 1.27489 0
M  V30 900 H 77.8474 3.35291 3.74952 0
M  V30 901 H 77.5474 4.98725 3.1072 0
M  V30 902 H 79.0714 4.63779 3.97166 0
M  V30 903 H 80.4854 5.42888 1.84244 0
M  V30 904 H 78.8824 5.88116 1.19328 0
M  V30 905 H 79.9524 4.84337 0.233536 0
M  V30 906 N 81.2955 -0.223234 1.56011 0
M  V30 907 C 82.7115 -0.572856 1.48965 0
M  V30 908 C 82.9115 -1.87225 0.74492 0
M  V30 909 O 81.9675 -2.50899 0.283896 0
M  V30 910 C 83.2805 -0.653646 2.9351 0
M  V30 911 C 84.8285 -0.744386 3.0402 0
M  V30 912 C 85.3035 -0.856535 4.49919 0
M  V30 913 N 86.7945 -0.9208 4.53955 0
M  V30 914 C 87.5295 -1.02726 5.64123 0
M  V30 915 N 87.0255 -1.09777 6.84047 0
M  V30 916 N 88.8185 -1.06226 5.51971 0
M  V30 917 H 80.9695 0.629462 2.02858 0
M  V30 918 H 83.2325 0.220621 0.921971 0
M  V30 919 H 82.9385 0.231518 3.50937 0
M  V30 920 H 82.8125 -1.51781 3.45315 0
M  V30 921 H 85.1995 -1.61999 2.46658 0
M  V30 922 H 85.2805 0.14541 2.55386 0
M  V30 923 H 84.9245 0.0146069 5.07898 0
M  V30 924 H 84.8545 -1.76172 4.96257 0
M  V30 925 H 87.3455 -0.876694 3.6759 0
M  V30 926 H 87.6585 -1.17872 7.63758 0
M  V30 927 H 86.0035 -1.06693 6.86762 0
M  V30 928 H 89.1945 -1.00382 4.5721 0
M  V30 929 H 89.3675 -1.14177 6.37862 0
M  V30 930 N 82.7736 -1.49793 -0.48987 0
M  V30 931 C 83.7206 -1.67281 -1.59014 0
M  V30 932 C 84.6906 -0.514177 -1.57941 0
M  V30 933 O 85.8756 -0.742533 -1.75759 0
M  V30 934 C 83.0156 -1.75569 -2.97102 0
M  V30 935 C 82.1286 -3.0281 -3.08107 0
M  V30 936 C 81.2636 -3.02008 -4.36995 0
M  V30 937 C 80.3026 -4.23782 -4.41673 0
M  V30 938 N 79.4396 -4.20826 -5.62005 0
M  V30 939 H 84.2796 -2.61224 -1.43409 0
M  V30 940 H 81.8166 -1.29508 -0.697565 0
M  V30 941 H 83.7746 -1.78354 -3.77155 0
M  V30 942 H 82.4046 -0.850827 -3.11385 0
M  V30 943 H 81.4566 -3.09584 -2.21047 0
M  V30 944 H 82.7686 -3.92801 -3.07423 0
M  V30 945 H 81.9226 -3.03418 -5.25378 0
M  V30 946 H 80.6616 -2.09815 -4.4026 0
M  V30 947 H 79.6666 -4.22604 -3.5169 0
M  V30 948 H 80.8916 -5.17181 -4.40115 0
M  V30 949 H 78.8376 -3.31476 -5.66091 0
M  V30 950 H 78.7546 -5.04564 -5.62984 0
M  V30 951 H 80.0226 -4.26355 -6.52565 0
M  V30 952 N 84.2517 0.741722 -1.39055 0
M  V30 953 C 85.1987 1.85566 -1.37237 0
M  V30 954 C 86.1687 1.64457 -0.233072 0
M  V30 955 O 87.3537 1.85957 -0.427147 0
M  V30 956 C 84.4937 3.23004 -1.215 0
M  V30 957 C 83.6067 3.55864 -2.44918 0
M  V30 958 C 82.7417 4.82669 -2.21821 0
M  V30 959 C 81.7807 5.08351 -3.40948 0
M  V30 960 N 80.9177 6.26356 -3.17211 0
M  V30 961 H 85.7577 1.86455 -2.32462 0
M  V30 962 H 83.2947 0.911176 -1.15482 0
M  V30 963 H 85.2527 4.02331 -1.10389 0
M  V30 964 H 83.8827 3.21411 -0.29908 0
M  V30 965 H 82.9347 2.7129 -2.66657 0
M  V30 966 H 84.2467 3.70765 -3.33668 0
M  V30 967 H 83.4007 5.69962 -2.07914 0
M  V30 968 H 82.1397 4.69929 -1.30454 0
M  V30 969 H 81.1447 4.19522 -3.55361 0
M  V30 970 H 82.3697 5.22981 -4.33207 0
M  V30 971 H 80.3157 6.14917 -2.28502 0
M  V30 972 H 80.2327 6.41813 -3.99515 0
M  V30 973 H 81.5007 7.16506 -3.06984 0
M  V30 974 N 85.7298 1.2412 0.971189 0
M  V30 975 C 86.6598 1.05508 2.08304 0
M  V30 976 C 87.6408 -0.0308864 1.70072 0
M  V30 977 O 88.8258 0.135521 1.93727 0
M  V30 978 C 85.9558 0.655365 3.4106 0
M  V30 979 C 84.9098 1.68971 3.93234 0
M  V30 980 C 84.2358 1.14516 5.22293 0
M  V30 981 C 85.5358 3.08487 4.21465 0
M  V30 982 H 87.2298 1.98507 2.24132 0
M  V30 983 H 84.7758 0.955821 1.07704 0
M  V30 984 H 86.7288 0.51217 4.18276 0
M  V30 985 H 85.4528 -0.31032 3.25122 0
M  V30 986 H 84.1118 1.82106 3.18171 0
M  V30 987 H 83.7598 0.170189 5.02712 0
M  V30 988 H 83.4598 1.83635 5.58168 0
M  V30 989 H 84.9838 1.01401 6.02121 0
M  V30 990 H 86.3978 2.98601 4.89398 0
M  V30 991 H 84.7948 3.74926 4.68562 0
M  V30 992 H 85.8648 3.56787 3.28376 0
M  V30 993 N 87.2079 -1.17134 1.05439 0
M  V30 994 C 88.1399 -2.2078 0.615539 0
M  V30 995 C 89.1529 -1.59584 -0.322001 0
M  V30 996 O 90.3419 -1.78133 -0.114344 0
M  V30 997 C 87.4419 -3.38691 -0.118938 0
M  V30 998 C 86.6149 -4.29454 0.829924 0
M  V30 999 C 85.6739 -5.26024 0.136258 0
M  V30 1000 O 84.6999 -5.63952 0.77115 0
M  V30 1001 N 85.9019 -5.69487 -1.1254 0
M  V30 1002 H 88.6669 -2.59052 1.50705 0
M  V30 1003 H 86.2279 -1.32058 0.936603 0
M  V30 1004 H 88.2199 -4.00329 -0.593179 0
M  V30 1005 H 86.7899 -2.98996 -0.91215 0
M  V30 1006 H 86.0099 -3.65211 1.48373 0
M  V30 1007 H 87.2979 -4.86984 1.47392 0
M  V30 1008 H 86.6959 -5.4075 -1.6615 0
M  V30 1009 H 85.2529 -6.33257 -1.54366 0
M  V30 1010 N 88.686 -0.835752 -1.33615 0
M  V30 1011 C 89.963 -0.352017 -1.92406 0
M  V30 1012 C 90.343 1.16225 -1.76224 0
M  V30 1013 O 89.691 1.97526 -1.14873 0
M  V30 1014 C 89.901 -0.795485 -3.39813 0
M  V30 1015 C 91.249 -0.801703 -4.16963 0
M  V30 1016 O 92.273 -0.738889 -3.48452 0
M  V30 1017 O 91.132 -0.886607 -5.3926 0
M  V30 1018 H 88.226 -0.0989641 -0.821057 0
M  V30 1019 H 90.772 -0.921397 -1.42507 0
M  V30 1020 H 89.544 -1.83795 -3.45449 0
M  V30 1021 H 89.167 -0.202505 -3.97084 0
M  V30 1022 N 90.1641 1.46063 -0.591896 0
M  V30 1023 C 91.4101 2.02638 -0.0811191 0
M  V30 1024 C 91.7431 1.4613 1.27905 0
M  V30 1025 O 91.0181 0.629908 1.84017 0
M  V30 1026 C 91.3011 3.60091 -0.0252436 0
M  V30 1027 C 91.1541 4.26965 -1.41496 0
M  V30 1028 C 92.4731 4.3496 0.670685 0
M  V30 1029 H 89.5921 0.73635 -0.0309524 0
M  V30 1030 H 92.2341 1.741 -0.760859 0
M  V30 1031 H 90.3841 3.84535 0.553624 0
M  V30 1032 H 92.0561 4.13756 -2.0397 0
M  V30 1033 H 90.2991 3.85971 -1.98011 0
M  V30 1034 H 90.9701 5.35781 -1.32825 0
M  V30 1035 H 93.4461 4.15716 0.178825 0
M  V30 1036 H 92.3221 5.44686 0.678837 0
M  V30 1037 H 92.5831 4.06685 1.73379 0
M  V30 1038 N 91.6422 0.330177 1.54103 0
M  V30 1039 C 92.5922 -0.548456 2.21305 0
M  V30 1040 C 93.5762 -1.07651 1.19583 0
M  V30 1041 O 94.7682 -1.01243 1.45186 0
M  V30 1042 C 91.8972 -1.70559 2.97934 0
M  V30 1043 C 90.9832 -1.19212 4.07 0
M  V30 1044 N 91.3742 -0.398831 5.04225 0
M  V30 1045 C 89.6722 -1.47024 4.2107 0
M  V30 1046 C 90.3732 -0.121761 5.81573 0
M  V30 1047 N 89.3492 -0.709722 5.38947 0
M  V30 1048 H 93.1512 0.0648483 2.93828 0
M  V30 1049 H 90.6652 0.136363 1.61826 0
M  V30 1050 H 92.6622 -2.34688 3.44568 0
M  V30 1051 H 91.3222 -2.32231 2.26934 0
M  V30 1052 H 92.3332 -0.0410869 5.17884 0
M  V30 1053 H 89.0102 -2.09232 3.61287 0
M  V30 1054 H 90.4002 0.517298 6.69906 0
M  V30 1055 N 93.1203 -1.57491 0.0584922 0
M  V30 1056 C 94.0683 -2.13148 -0.931168 0
M  V30 1057 C 95.0623 -1.06507 -1.31729 0
M  V30 1058 O 96.2683 -1.24906 -1.29609 0
M  V30 1059 H 92.6433 -0.68137 -0.31818 0
M  V30 1060 H 94.6143 -2.95187 -0.436707 0
M  V30 1061 C 93.3633 -2.69732 -2.19408 0
M  V30 1062 H 92.6863 -3.51454 -1.90578 0
M  V30 1063 H 94.1263 -3.12287 -2.86798 0
M  V30 1064 C 92.5853 -1.63855 -2.94369 0
M  V30 1065 O 93.1153 -1.05565 -3.87581 0
M  V30 1066 N 91.3213 -1.35202 -2.57233 0
M  V30 1067 H 90.8683 -1.82791 -1.81508 0
M  V30 1068 H 90.8263 -0.645922 -3.07693 0
M  V30 1069 N 94.5984 0.214957 -1.56127 0
M  V30 1070 C 95.8454 0.938372 -1.79446 0
M  V30 1071 C 96.1734 1.8407 -0.628378 0
M  V30 1072 O 95.4284 1.91837 0.386925 0
M  V30 1073 C 95.7274 1.80314 -3.0858 0
M  V30 1074 C 95.3934 1.05349 -4.3842 0
M  V30 1075 C 94.0554 0.846435 -4.73697 0
M  V30 1076 C 96.4074 0.524588 -5.18553 0
M  V30 1077 C 93.7354 0.098683 -5.86617 0
M  V30 1078 C 96.0874 -0.209853 -6.32252 0
M  V30 1079 C 94.7514 -0.428102 -6.66126 0
M  V30 1080 H 94.0214 0.343375 -0.656639 0
M  V30 1081 H 96.6684 0.206077 -1.90388 0
M  V30 1082 H 94.9734 2.6035 -2.92789 0
M  V30 1083 H 96.6704 2.36513 -3.23825 0
M  V30 1084 H 93.2604 1.22486 -4.10725 0
M  V30 1085 H 97.4444 0.672008 -4.91729 0
M  V30 1086 H 92.7004 -0.0805753 -6.11347 0
M  V30 1087 H 96.8744 -0.627157 -6.9357 0
M  V30 1088 H 94.5014 -1.00944 -7.53468 0
M  V30 1089 N 96.0765 1.50051 0.48192 0
M  V30 1090 C 97.3225 1.60736 1.2366 0
M  V30 1091 C 97.6555 0.301786 1.91841 0
M  V30 1092 O 96.9305 -0.696025 1.8162 0
M  V30 1093 C 97.2135 2.78009 2.28874 0
M  V30 1094 C 97.0665 4.18416 1.65069 0
M  V30 1095 C 98.3855 2.90867 3.30279 0
M  V30 1096 H 95.5045 0.585031 0.448228 0
M  V30 1097 H 98.1465 1.82402 0.531946 0
M  V30 1098 H 96.2965 2.59667 2.88973 0
M  V30 1099 H 97.9685 4.48322 1.0865 0
M  V30 1100 H 96.2115 4.23177 0.954148 0
M  V30 1101 H 96.8825 4.96381 2.41474 0
M  V30 1102 H 99.3585 3.07623 2.80191 0
M  V30 1103 H 98.2345 3.74566 4.01238 0
M  V30 1104 H 98.4955 2.01021 3.93755 0
M  V30 1105 N 97.5546 -0.734337 1.39446 0
M  V30 1106 C 98.5176 -1.83004 1.37994 0
M  V30 1107 C 99.5176 -1.58397 0.276938 0
M  V30 1108 O 100.708 -1.65785 0.534875 0
M  V30 1109 C 97.8396 -3.20802 1.1532 0
M  V30 1110 H 99.0326 -1.85694 2.35494 0
M  V30 1111 H 96.5856 -0.938059 1.25021 0
M  V30 1112 H 97.3206 -3.23772 0.185036 0
M  V30 1113 H 97.1056 -3.4006 1.95197 0
M  V30 1114 H 98.5956 -4.00862 1.17046 0
M  V30 1115 N 99.0327 -1.24633 -0.964593 0
M  V30 1116 C 99.9627 -1.06611 -2.07741 0
M  V30 1117 C 100.944 0.0218666 -1.70086 0
M  V30 1118 O 102.129 -0.145793 -1.93652 0
M  V30 1119 C 99.2587 -0.673444 -3.40708 0
M  V30 1120 C 98.2127 -1.71054 -3.92332 0
M  V30 1121 C 97.5387 -1.17285 -5.21678 0
M  V30 1122 C 98.8387 -3.10718 -4.19824 0
M  V30 1123 H 100.533 -1.99693 -2.23076 0
M  V30 1124 H 98.0787 -0.96152 -1.07195 0
M  V30 1125 H 100.032 -0.534345 -4.17998 0
M  V30 1126 H 98.7557 0.293073 -3.25282 0
M  V30 1127 H 97.4147 -1.83791 -3.17201 0
M  V30 1128 H 97.0627 -0.196847 -5.02615 0
M  V30 1129 H 96.7627 -1.86592 -5.57187 0
M  V30 1130 H 98.2867 -1.04593 -6.01575 0
M  V30 1131 H 99.7007 -3.01192 -4.87808 0
M  V30 1132 H 98.0977 -3.77406 -4.66567 0
M  V30 1133 H 99.1677 -3.58524 -3.26479 0
M  V30 1134 N 100.511 1.16574 -1.06058 0
M  V30 1135 C 101.759 1.86677 -0.77434 0
M  V30 1136 C 102.08 1.81959 0.701147 0
M  V30 1137 O 101.35 1.2515 1.50713 0
M  V30 1138 H 99.9298 0.691134 -0.283449 0
M  V30 1139 H 102.592 1.41378 -1.34158 0
M  V30 1140 H 101.688 2.92181 -1.09711 0
M  V30 1141 N 101.989 0.842826 1.3317 0
M  V30 1142 C 102.952 0.284065 2.27433 0
M  V30 1143 C 103.952 -0.54948 1.5112 0
M  V30 1144 O 105.142 -0.362699 1.70382 0
M  V30 1145 C 102.274 -0.599384 3.35589 0
M  V30 1146 H 103.467 1.11589 2.78366 0
M  V30 1147 H 101.02 0.616221 1.4364 0
M  V30 1148 H 101.755 -1.45349 2.89904 0
M  V30 1149 H 101.54 -0.00291266 3.921 0
M  V30 1150 H 103.03 -0.983488 4.05854 0
M  V30 1151 N 103.467 -1.45747 0.599634 0
M  V30 1152 C 104.878 -1.85853 0.177681 0
M  V30 1153 C 105.229 -1.50102 -1.26348 0
M  V30 1154 O 104.354 -0.923905 -1.95686 0
M  V30 1155 C 104.949 -3.37326 0.315688 0
M  V30 1156 C 103.508 -3.76365 -0.0515144 0
M  V30 1157 C 102.655 -2.69722 0.643822 0
M  V30 1158 H 105.606 -1.36661 0.806814 0
M  V30 1159 H 105.627 -3.77778 -0.454321 0
M  V30 1160 H 105.139 -3.63315 1.36468 0
M  V30 1161 H 103.24 -3.55993 -1.09999 0
M  V30 1162 H 103.353 -4.77916 0.336594 0
M  V30 1163 H 101.717 -2.54567 0.0822881 0
M  V30 1164 H 102.5 -2.98549 1.6948 0
M  V30 1165 N 104.945 -0.338344 -1.53925 0
M  V30 1166 C 105.875 0.51328 -2.27789 0
M  V30 1167 C 106.856 1.107 -1.29149 0
M  V30 1168 O 108.041 1.12937 -1.57984 0
M  V30 1169 C 105.171 1.66697 -3.04679 0
M  V30 1170 C 104.125 1.20183 -4.1078 0
M  V30 1171 C 103.451 2.44363 -4.75595 0
M  V30 1172 C 104.751 0.30605 -5.21403 0
M  V30 1173 H 106.445 -0.102883 -2.99223 0
M  V30 1174 H 103.991 -0.0509219 -1.4391 0
M  V30 1175 H 105.944 2.26915 -3.55088 0
M  V30 1176 H 104.668 2.30995 -2.30887 0
M  V30 1177 H 103.327 0.622499 -3.61276 0
M  V30 1178 H 102.975 3.07057 -3.98403 0
M  V30 1179 H 102.675 2.13925 -5.47275 0
M  V30 1180 H 104.199 3.05317 -5.28786 0
M  V30 1181 H 105.613 0.814929 -5.67478 0
M  V30 1182 H 104.01 0.0937929 -6.00027 0
M  V30 1183 H 105.08 -0.65921 -4.80398 0
M  V30 1184 N 106.423 1.57458 -0.0668435 0
M  V30 1185 C 107.386 2.11323 0.887422 0
M  V30 1186 C 108.386 1.03618 1.22964 0
M  V30 1187 O 109.576 1.29626 1.16373 0
M  V30 1188 C 106.708 2.61048 2.19242 0
M  V30 1189 H 107.901 2.96942 0.420194 0
M  V30 1190 H 105.454 1.55239 0.181793 0
M  V30 1191 H 106.189 1.78868 2.70512 0
M  V30 1192 H 105.974 3.39769 1.95702 0
M  V30 1193 H 107.464 3.02814 2.87565 0
M  V30 1194 N 107.901 -0.206675 1.56239 0
M  V30 1195 C 109.312 -0.772383 1.69974 0
M  V30 1196 C 109.663 -1.84353 0.671436 0
M  V30 1197 O 108.788 -2.15695 -0.174491 0
M  V30 1198 C 109.383 -1.40779 3.08167 0
M  V30 1199 C 107.942 -1.92072 3.23706 0
M  V30 1200 C 107.089 -0.786347 2.65917 0
M  V30 1201 H 110.04 0.0182223 1.5869 0
M  V30 1202 H 110.061 -2.27696 3.04852 0
M  V30 1203 H 109.573 -0.627958 3.82986 0
M  V30 1204 H 107.674 -2.7281 2.53782 0
M  V30 1205 H 107.787 -2.09046 4.31087 0
M  V30 1206 H 106.151 -1.1976 2.24788 0
M  V30 1207 H 106.934 -0.0189416 3.43295 0
M  V30 1208 N 109.379 -1.50304 -0.473955 0
M  V30 1209 C 110.795 -1.37667 -0.807466 0
M  V30 1210 C 110.995 -0.430555 -1.96846 0
M  V30 1211 O 110.051 0.127874 -2.52176 0
M  V30 1212 C 111.364 -2.78974 -1.12223 0
M  V30 1213 C 112.912 -2.87868 -1.22885 0
M  V30 1214 C 113.387 -4.30003 -1.57676 0
M  V30 1215 N 114.878 -4.3294 -1.64673 0
M  V30 1216 C 115.613 -5.3991 -1.93091 0
M  V30 1217 N 115.109 -6.57092 -2.1955 0
M  V30 1218 N 116.902 -5.27351 -1.94569 0
M  V30 1219 H 109.053 -2.10394 0.291212 0
M  V30 1220 H 111.316 -0.945575 0.0677609 0
M  V30 1221 H 111.022 -3.50031 -0.342229 0
M  V30 1222 H 110.896 -3.16038 -2.05913 0
M  V30 1223 H 113.283 -2.17032 -1.99953 0
M  V30 1224 H 113.364 -2.54352 -0.271814 0
M  V30 1225 H 113.008 -5.01375 -0.81149 0
M  V30 1226 H 112.938 -4.61004 -2.54525 0
M  V30 1227 H 115.429 -3.48441 -1.46277 0
M  V30 1228 H 115.742 -7.34425 -2.405 0
M  V30 1229 H 114.087 -6.60272 -2.16948 0
M  V30 1230 H 117.278 -4.34801 -1.73394 0
M  V30 1231 H 117.451 -6.10805 -2.16381 0
M  V30 1232 N 110.857 0.726932 -1.39834 0
M  V30 1233 C 112.134 1.47902 -1.28001 0
M  V30 1234 C 112.514 2.1083 0.106789 0
M  V30 1235 O 111.862 1.99242 1.11869 0
M  V30 1236 C 112.072 2.52392 -2.41038 0
M  V30 1237 C 113.42 3.18546 -2.80737 0
M  V30 1238 O 114.444 2.62708 -2.40547 0
M  V30 1239 O 113.303 4.19604 -3.50135 0
M  V30 1240 H 110.397 0.657163 -0.502062 0
M  V30 1241 H 112.943 0.760071 -1.51727 0
M  V30 1242 H 111.715 2.04329 -3.33715 0
M  V30 1243 H 111.338 3.31837 -2.19021 0
M  V30 1244 N 112.336 1.25143 0.95797 0
M  V30 1245 C 113.299 1.05321 2.03569 0
M  V30 1246 C 114.299 0.007152 1.60798 0
M  V30 1247 O 115.489 0.24903 1.72411 0
M  V30 1248 C 112.621 0.598394 3.35607 0
M  V30 1249 H 113.814 2.00986 2.22586 0
M  V30 1250 H 111.367 1.07502 1.13459 0
M  V30 1251 H 112.102 -0.361014 3.22284 0
M  V30 1252 H 111.887 1.35351 3.67998 0
M  V30 1253 H 113.377 0.48104 4.1482 0
M  V30 1254 N 113.814 -1.1601 1.06675 0
M  V30 1255 C 115.062 -1.86264 0.784229 0
M  V30 1256 C 115.383 -1.82328 -0.691488 0
M  V30 1257 O 114.653 -1.25947 -1.50047 0
M  V30 1258 H 113.233 -0.689621 0.28711 0
M  V30 1259 H 115.895 -1.40664 1.34906 0
M  V30 1260 H 114.991 -2.91595 1.11259 0
M  V30 1261 N 115.292 -0.849877 -1.32721 0
M  V30 1262 C 116.517 -0.463856 -2.02146 0
M  V30 1263 C 116.942 0.930449 -1.63476 0
M  V30 1264 O 116.3 1.61033 -0.832952 0
M  V30 1265 C 116.348 -0.604955 -3.55489 0
M  V30 1266 O 115.452 0.36425 -4.10788 0
M  V30 1267 H 114.793 -0.187046 -0.637111 0
M  V30 1268 H 117.323 -1.14775 -1.69375 0
M  V30 1269 H 117.333 -0.490696 -4.05038 0
M  V30 1270 H 116.008 -1.62174 -3.82978 0
M  V30 1271 H 114.585 0.206628 -3.72327 0
M  V30 1272 N 116.77 1.45427 -0.607355 0
M  V30 1273 C 117.702 2.2871 0.149752 0
M  V30 1274 C 118.715 1.39937 0.831958 0
M  V30 1275 O 119.904 1.64313 0.697385 0
M  V30 1276 C 117.004 3.15673 1.23304 0
M  V30 1277 C 116.177 4.32722 0.637996 0
M  V30 1278 C 115.236 5.00895 1.61215 0
M  V30 1279 O 114.262 5.57697 1.13854 0
M  V30 1280 N 115.464 5.00159 2.94655 0
M  V30 1281 H 118.229 2.94328 -0.564882 0
M  V30 1282 H 115.79 1.55612 -0.446823 0
M  V30 1283 H 117.782 3.58144 1.88454 0
M  V30 1284 H 116.352 2.51965 1.8502 0
M  V30 1285 H 115.572 3.93734 -0.191572 0
M  V30 1286 H 116.86 5.08321 0.220665 0
M  V30 1287 H 116.258 4.553 3.35735 0
M  V30 1288 H 114.815 5.46495 3.55228 0
M  V30 1289 N 118.248 0.346503 1.53744 0
M  V30 1290 C 119.664 -0.00530975 1.59599 0
M  V30 1291 C 119.864 -1.48465 1.36236 0
M  V30 1292 O 118.92 -2.24376 1.15808 0
M  V30 1293 C 120.233 0.433516 2.97559 0
M  V30 1294 C 121.781 0.386111 3.10609 0
M  V30 1295 C 122.256 0.800451 4.50951 0
M  V30 1296 N 123.747 0.754753 4.5701 0
M  V30 1297 C 124.482 1.04727 5.63755 0
M  V30 1298 N 123.978 1.4081 6.7834 0
M  V30 1299 N 125.771 0.971316 5.53644 0
M  V30 1300 H 117.922 1.31009 1.67184 0
M  V30 1301 H 120.185 0.534242 0.783128 0
M  V30 1302 H 119.891 1.46509 3.19731 0
M  V30 1303 H 119.765 -0.189753 3.76722 0
M  V30 1304 H 122.152 -0.636295 2.88158 0
M  V30 1305 H 122.233 1.04462 2.33498 0
M  V30 1306 H 121.877 1.82088 4.74137 0
M  V30 1307 H 121.807 0.119386 5.26465 0
M  V30 1308 H 124.298 0.488662 3.74727 0
M  V30 1309 H 124.611 1.61607 7.55714 0
M  V30 1310 H 122.956 1.44657 6.79779 0
M  V30 1311 H 126.147 0.688748 4.63005 0
M  V30 1312 H 126.32 1.20263 6.36742 0
M  V30 1313 N 119.726 -1.57421 0.075193 0
M  V30 1314 C 121.137 -1.81021 -0.456964 0
M  V30 1315 C 121.488 -0.98936 -1.69429 0
M  V30 1316 O 120.613 -0.212865 -2.15351 0
M  V30 1317 C 121.208 -3.28329 -0.83581 0
M  V30 1318 C 119.767 -3.52764 -1.31281 0
M  V30 1319 C 118.914 -2.75676 -0.299648 0
M  V30 1320 H 121.865 -1.55822 0.300856 0
M  V30 1321 H 121.886 -3.40564 -1.69696 0
M  V30 1322 H 121.398 -3.88046 0.0649238 0
M  V30 1323 H 119.499 -2.98355 -2.23193 0
M  V30 1324 H 119.612 -4.61451 -1.28839 0
M  V30 1325 H 117.976 -2.42538 -0.777641 0
M  V30 1326 H 118.759 -3.38132 0.593417 0
M  V30 1327 N 121.204 0.198386 -1.56346 0
M  V30 1328 C 122.62 0.549085 -1.49857 0
M  V30 1329 C 122.82 1.86016 -0.774611 0
M  V30 1330 O 121.876 2.50416 -0.323776 0
M  V30 1331 C 123.189 0.606868 -2.94512 0
M  V30 1332 C 124.737 0.695925 -3.05165 0
M  V30 1333 C 125.212 0.784848 -4.51225 0
M  V30 1334 N 126.703 0.848463 -4.55363 0
M  V30 1335 C 127.438 0.937378 -5.65686 0
M  V30 1336 N 126.934 0.9888 -6.85707 0
M  V30 1337 N 128.727 0.974312 -5.53592 0
M  V30 1338 H 120.878 -0.661655 -2.01831 0
M  V30 1339 H 123.141 -0.235261 -0.918344 0
M  V30 1340 H 122.847 -0.28732 -3.50524 0
M  V30 1341 H 122.721 1.46268 -3.47686 0
M  V30 1342 H 125.108 1.58055 -2.49204 0
M  V30 1343 H 125.189 -0.186022 -2.55123 0
M  V30 1344 H 124.833 -0.0954072 -5.0781 0
M  V30 1345 H 124.763 1.68255 -4.98997 0
M  V30 1346 H 127.254 0.818103 -3.68938 0
M  V30 1347 H 127.567 1.05707 -7.65536 0
M  V30 1348 H 125.912 0.957534 -6.88372 0
M  V30 1349 H 129.103 0.930954 -4.58749 0
M  V30 1350 H 129.276 1.04015 -6.39597 0
M  V30 1351 N 122.682 1.50554 0.465978 0
M  V30 1352 C 123.629 1.6979 1.56333 0
M  V30 1353 C 124.599 0.539239 1.57103 0
M  V30 1354 O 125.784 0.770401 1.74555 0
M  V30 1355 C 122.924 1.80273 2.94271 0
M  V30 1356 C 122.037 3.07674 3.0325 0
M  V30 1357 C 121.172 3.08922 4.32135 0
M  V30 1358 C 120.211 4.30755 4.34875 0
M  V30 1359 N 119.348 4.29714 5.55239 0
M  V30 1360 H 124.188 2.63472 1.39235 0
M  V30 1361 H 121.725 1.30602 0.676873 0
M  V30 1362 H 123.683 1.84332 3.74269 0
M  V30 1363 H 122.313 0.900258 3.09992 0
M  V30 1364 H 121.365 3.13062 2.16094 0
M  V30 1365 H 122.677 3.97642 3.01135 0
M  V30 1366 H 121.831 3.11738 5.20485 0
M  V30 1367 H 120.57 2.16792 4.36866 0
M  V30 1368 H 119.575 4.28146 3.44922 0
M  V30 1369 H 120.8 5.24117 4.31831 0
M  V30 1370 H 118.746 3.4044 5.60746 0
M  V30 1371 H 118.663 5.13456 5.54886 0
M  V30 1372 H 119.931 4.36683 6.457 0
M  V30 1373 N 124.16 -0.719506 1.40217 0
M  V30 1374 C 125.107 -1.83359 1.40172 0
M  V30 1375 C 126.077 -1.64065 0.259206 0
M  V30 1376 O 127.262 -1.85254 0.456677 0
M  V30 1377 C 124.402 -3.2103 1.26624 0
M  V30 1378 C 123.515 -3.51923 2.50548 0
M  V30 1379 C 122.65 -4.79079 2.29471 0
M  V30 1380 C 121.689 -5.02863 3.48992 0
M  V30 1381 N 120.826 -6.2123 3.27135 0
M  V30 1382 H 125.666 -1.82733 2.35399 0
M  V30 1383 H 123.203 -0.892688 1.16917 0
M  V30 1384 H 125.161 -4.00524 1.16776 0
M  V30 1385 H 123.791 -3.20895 0.350176 0
M  V30 1386 H 122.843 -2.67014 2.70939 0
M  V30 1387 H 124.155 -3.6541 3.39525 0
M  V30 1388 H 123.309 -5.66582 2.16955 0
M  V30 1389 H 122.048 -4.67794 1.37913 0
M  V30 1390 H 121.053 -4.13816 3.6199 0
M  V30 1391 H 122.278 -5.16023 4.41472 0
M  V30 1392 H 120.224 -6.11204 2.38256 0
M  V30 1393 H 120.141 -6.35375 4.09675 0
M  V30 1394 H 121.409 -7.11532 3.18344 0
M  V30 1395 N 125.638 -1.25649 -0.95132 0
M  V30 1396 C 126.548 -1.08073 -2.08224 0
M  V30 1397 C 127.564 -0.0169666 -1.73992 0
M  V30 1398 O 128.74 -0.218593 -2.0021 0
M  V30 1399 C 125.805 -0.704922 -3.39458 0
M  V30 1400 C 124.866 -1.84699 -3.87537 0
M  V30 1401 C 124.099 -1.48902 -5.12508 0
M  V30 1402 O 124.322 -0.386156 -5.69091 0
M  V30 1403 O 123.256 -2.32033 -5.55378 0
M  V30 1404 H 127.082 -2.02924 -2.25954 0
M  V30 1405 H 124.667 -1.04618 -1.06656 0
M  V30 1406 H 126.549 -0.507609 -4.18332 0
M  V30 1407 H 125.224 0.214291 -3.2299 0
M  V30 1408 H 124.131 -2.09919 -3.09653 0
M  V30 1409 H 125.464 -2.74557 -4.08509 0
M  V30 1410 N 127.117 1.15442 -1.07289 0
M  V30 1411 C 128.394 1.82306 -0.708792 0
M  V30 1412 C 128.774 1.94991 0.808807 0
M  V30 1413 O 128.122 1.50085 1.72298 0
M  V30 1414 C 128.332 3.18695 -1.42247 0
M  V30 1415 C 129.68 3.94341 -1.57417 0
M  V30 1416 O 130.704 3.28247 -1.38319 0
M  V30 1417 O 129.563 5.12839 -1.88834 0
M  V30 1418 H 126.657 0.787628 -0.252132 0
M  V30 1419 H 129.203 1.22559 -1.17377 0
M  V30 1420 H 127.975 3.04557 -2.45684 0
M  V30 1421 H 127.598 3.86128 -0.948223 0
M  V30 1422 N 128.595 0.856903 1.32268 0
M  V30 1423 C 129.543 0.291987 2.3076 0
M  V30 1424 C 130.537 -0.585857 1.58947 0
M  V30 1425 O 131.743 -0.47341 1.73663 0
M  V30 1426 H 128.118 0.075721 0.748178 0
M  V30 1427 H 130.089 1.13687 2.75895 0
M  V30 1428 C 128.838 -0.502869 3.44044 0
M  V30 1429 H 128.161 0.163328 3.99466 0
M  V30 1430 H 129.601 -0.863691 4.1511 0
M  V30 1431 C 128.06 -1.68898 2.91505 0
M  V30 1432 O 128.59 -2.78811 2.89184 0
M  V30 1433 N 126.796 -1.51679 2.47875 0
M  V30 1434 H 126.343 -0.622666 2.49961 0
M  V30 1435 H 126.301 -2.31184 2.13076 0
M  V30 1436 N 130.073 -1.45103 0.615059 0
M  V30 1437 C 131.319 -2.02483 0.113347 0
M  V30 1438 C 131.652 -1.48146 -1.25564 0
M  V30 1439 O 130.927 -0.659104 -1.82992 0
M  V30 1440 C 131.21 -3.60005 0.0825278 0
M  V30 1441 C 131.063 -4.2466 1.48271 0
M  V30 1442 C 132.382 -4.35972 -0.601401 0
M  V30 1443 H 129.501 -0.735764 0.0426632 0
M  V30 1444 H 132.143 -1.72868 0.788461 0
M  V30 1445 H 130.293 -3.85367 -0.492378 0
M  V30 1446 H 131.965 -4.10458 2.10527 0
M  V30 1447 H 130.208 -3.82772 2.04127 0
M  V30 1448 H 130.879 -5.336 1.41332 0
M  V30 1449 H 133.355 -4.15947 -0.112666 0
M  V30 1450 H 132.231 -5.45697 -0.592097 0
M  V30 1451 H 132.492 -4.09391 -1.66887 0
M  V30 1452 N 131.551 -0.354651 -1.53558 0
M  V30 1453 C 132.481 0.489091 -2.2832 0
M  V30 1454 C 133.462 1.09324 -1.30316 0
M  V30 1455 O 134.647 1.11255 -1.59173 0
M  V30 1456 C 131.777 1.63456 -3.0643 0
M  V30 1457 C 130.731 1.1582 -4.12031 0
M  V30 1458 C 130.057 2.39305 -4.7816 0
M  V30 1459 C 131.357 0.250731 -5.21698 0
M  V30 1460 H 133.051 -0.134614 -2.99097 0
M  V30 1461 H 130.597 -0.0661826 -1.43848 0
M  V30 1462 H 132.55 2.23136 -3.57475 0
M  V30 1463 H 131.274 2.28533 -2.33325 0
M  V30 1464 H 129.933 0.584146 -3.61916 0
M  V30 1465 H 129.581 3.02814 -4.01637 0
M  V30 1466 H 129.281 2.08109 -5.49513 0
M  V30 1467 H 130.805 2.99691 -5.31994 0
M  V30 1468 H 132.219 0.754695 -5.68311 0
M  V30 1469 H 130.616 0.0301468 -6.00092 0
M  V30 1470 H 131.686 -0.710125 -4.79672 0
M  V30 1471 N 133.029 1.57378 -0.0835403 0
M  V30 1472 C 134.275 1.94217 0.583733 0
M  V30 1473 C 134.608 0.964653 1.68547 0
M  V30 1474 O 133.883 -0.00422258 1.945 0
M  V30 1475 C 134.166 3.41253 1.14972 0
M  V30 1476 C 134.019 4.49768 0.0538277 0
M  V30 1477 C 135.338 3.89352 2.05166 0
M  V30 1478 H 132.457 0.706233 0.210724 0
M  V30 1479 H 135.099 1.89392 -0.1519 0
M  V30 1480 H 133.249 3.45496 1.77665 0
M  V30 1481 H 134.921 4.57641 -0.579851 0
M  V30 1482 H 133.164 4.29432 -0.614068 0
M  V30 1483 H 133.835 5.49817 0.490452 0
M  V30 1484 H 136.311 3.87189 1.52393 0
M  V30 1485 H 135.187 4.92822 2.41698 0
M  V30 1486 H 135.448 3.27973 2.96456 0
M  V30 1487 N 134.507 -0.190092 1.56449 0
M  V30 1488 C 135.417 -1.25591 1.98152 0
M  V30 1489 C 136.433 -1.49519 0.889944 0
M  V30 1490 O 137.609 -1.62036 1.19609 0
M  V30 1491 C 134.674 -2.57916 2.3169 0
M  V30 1492 C 133.735 -2.42015 3.5458 0
M  V30 1493 C 132.968 -3.6803 3.8651 0
M  V30 1494 O 133.191 -4.72413 3.1966 0
M  V30 1495 O 132.125 -3.6326 4.79923 0
M  V30 1496 H 135.951 -0.931988 2.89046 0
M  V30 1497 H 133.536 -0.395488 1.4407 0
M  V30 1498 H 135.418 -3.36008 2.54316 0
M  V30 1499 H 134.093 -2.89925 1.43963 0
M  V30 1500 H 133 -1.62017 3.37196 0
M  V30 1501 H 134.333 -2.14937 4.4279 0
M  V30 1502 N 135.985 -1.50799 -0.457987 0
M  V30 1503 C 137.21 -1.66496 -1.23668 0
M  V30 1504 C 137.635 -0.353288 -1.84752 0
M  V30 1505 O 136.993 0.684346 -1.67888 0
M  V30 1506 C 137.041 -2.76763 -2.3116 0
M  V30 1507 O 136.145 -2.38928 -3.36136 0
M  V30 1508 H 135.486 -0.555828 -0.363252 0
M  V30 1509 H 138.016 -1.9725 -0.543474 0
M  V30 1510 H 138.026 -3.00232 -2.76269 0
M  V30 1511 H 136.701 -3.71954 -1.86073 0
M  V30 1512 H 135.278 -2.25953 -2.96647 0
M  V30 1513 N 137.463 0.71206 -1.40597 0
M  V30 1514 C 138.413 1.81783 -1.37619 0
M  V30 1515 C 139.397 1.58896 -0.253162 0
M  V30 1516 O 140.589 1.70009 -0.492547 0
M  V30 1517 C 137.718 3.19944 -1.24462 0
M  V30 1518 C 136.804 3.48582 -2.4156 0
M  V30 1519 N 137.195 3.48016 -3.67041 0
M  V30 1520 C 135.493 3.79056 -2.35016 0
M  V30 1521 C 136.194 3.75096 -4.44609 0
M  V30 1522 N 135.17 3.94022 -3.74497 0
M  V30 1523 H 138.972 1.79683 -2.32575 0
M  V30 1524 H 136.486 0.91134 -1.34419 0
M  V30 1525 H 138.483 3.99133 -1.20411 0
M  V30 1526 H 137.143 3.23267 -0.304762 0
M  V30 1527 H 138.154 3.28782 -4.00153 0
M  V30 1528 H 134.831 3.89848 -1.49415 0
M  V30 1529 H 136.221 3.80934 -5.53479 0
M  V30 1530 N 138.941 1.26152 0.944643 0
M  V30 1531 C 139.851 1.09176 2.07648 0
M  V30 1532 C 140.867 0.0261935 1.7398 0
M  V30 1533 O 142.043 0.229208 2.00091 0
M  V30 1534 C 139.108 0.722915 3.39079 0
M  V30 1535 C 138.169 1.86752 3.86552 0
M  V30 1536 C 137.402 1.51617 5.11711 0
M  V30 1537 O 137.625 0.416331 5.68879 0
M  V30 1538 O 136.559 2.34975 5.54139 0
M  V30 1539 H 140.385 2.0412 2.24875 0
M  V30 1540 H 137.97 1.05182 1.061 0
M  V30 1541 H 139.852 0.529787 4.18056 0
M  V30 1542 H 138.527 -0.197159 3.23099 0
M  V30 1543 H 137.434 2.11558 3.08535 0
M  V30 1544 H 138.767 2.76719 4.07047 0
M  V30 1545 N 140.419 -1.14872 1.07899 0
M  V30 1546 C 141.366 -2.19791 0.704319 0
M  V30 1547 C 142.336 -1.63238 -0.306987 0
M  V30 1548 O 143.521 -1.8983 -0.192171 0
M  V30 1549 C 140.661 -3.44911 0.114244 0
M  V30 1550 C 139.774 -4.15637 1.1777 0
M  V30 1551 C 138.909 -5.28324 0.552037 0
M  V30 1552 C 137.948 -5.90875 1.59789 0
M  V30 1553 N 137.085 -6.95022 0.994404 0
M  V30 1554 H 141.925 -2.5119 1.60336 0
M  V30 1555 H 139.462 -1.23356 0.801352 0
M  V30 1556 H 141.42 -4.16477 -0.245544 0
M  V30 1557 H 140.05 -3.14011 -0.74813 0
M  V30 1558 H 139.102 -3.42512 1.65499 0
M  V30 1559 H 140.414 -4.5823 1.97046 0
M  V30 1560 H 139.568 -6.06538 0.1402 0
M  V30 1561 H 138.307 -4.86939 -0.272431 0
M  V30 1562 H 137.312 -5.11369 2.01945 0
M  V30 1563 H 138.537 -6.34337 2.42474 0
M  V30 1564 H 136.483 -6.55722 0.190939 0
M  V30 1565 H 136.4 -7.36073 1.72432 0
M  V30 1566 H 137.668 -7.77123 0.608253 0
M  V30 1567 N 141.898 -0.863906 -1.31812 0
M  V30 1568 C 143.123 -0.48527 -2.01643 0
M  V30 1569 C 143.548 0.913058 -1.64453 0
M  V30 1570 O 142.906 1.6014 -0.849985 0
M  V30 1571 C 142.954 -0.642625 -3.54828 0
M  V30 1572 O 142.058 0.320659 -4.11151 0
M  V30 1573 H 141.399 -0.193793 -0.635091 0
M  V30 1574 H 143.929 -1.16565 -1.68148 0
M  V30 1575 H 143.939 -0.533628 -4.04495 0
M  V30 1576 H 142.614 -1.66227 -3.81237 0
M  V30 1577 H 141.191 0.167126 -3.72525 0
M  V30 1578 N 143.376 1.44774 -0.622745 0
M  V30 1579 C 144.306 2.33382 0.0741861 0
M  V30 1580 C 145.287 1.47719 0.843387 0
M  V30 1581 O 146.472 1.76458 0.810934 0
M  V30 1582 C 143.602 3.30663 1.06204 0
M  V30 1583 C 142.556 4.26079 0.405037 0
M  V30 1584 C 141.882 5.13165 1.5022 0
M  V30 1585 C 143.182 5.1781 -0.683414 0
M  V30 1586 H 144.876 2.91905 -0.665713 0
M  V30 1587 H 142.422 1.40363 -0.321587 0
M  V30 1588 H 144.375 3.9153 1.55827 0
M  V30 1589 H 143.099 2.70331 1.83272 0
M  V30 1590 H 141.758 3.66532 -0.0704683 0
M  V30 1591 H 141.406 4.49191 2.26355 0
M  V30 1592 H 141.106 5.77812 1.06803 0
M  V30 1593 H 142.63 5.76902 2.00041 0
M  V30 1594 H 144.044 5.72661 -0.270631 0
M  V30 1595 H 142.441 5.91015 -1.04023 0
M  V30 1596 H 143.511 4.59326 -1.55395 0
M  V30 1597 N 144.854 0.36279 1.53368 0
M  V30 1598 C 146.102 -0.227326 2.00817 0
M  V30 1599 C 146.423 -1.49511 1.25186 0
M  V30 1600 O 145.693 -1.92482 0.364348 0
M  V30 1601 H 144.273 -0.0869923 0.741917 0
M  V30 1602 H 146.935 0.488381 1.88682 0
M  V30 1603 H 146.031 -0.456273 3.08747 0
M  V30 1604 N 146.332 -1.57332 0.0918853 0
M  V30 1605 C 147.242 -2.17368 -0.882505 0
M  V30 1606 C 148.258 -1.14226 -1.31257 0
M  V30 1607 O 149.434 -1.46582 -1.38115 0
M  V30 1608 C 146.499 -2.73962 -2.12476 0
M  V30 1609 C 145.56 -3.92048 -1.7492 0
M  V30 1610 C 144.793 -4.45933 -2.93223 0
M  V30 1611 O 145.016 -3.98764 -4.07852 0
M  V30 1612 O 143.95 -5.36999 -2.71875 0
M  V30 1613 H 147.776 -3.01031 -0.40172 0
M  V30 1614 H 145.361 -1.48813 -0.132291 0
M  V30 1615 H 147.243 -3.10147 -2.85283 0
M  V30 1616 H 145.918 -1.93347 -2.59613 0
M  V30 1617 H 144.825 -3.6068 -0.993025 0
M  V30 1618 H 146.158 -4.74017 -1.32548 0
M  V30 1619 N 147.81 0.181792 -1.56548 0
M  V30 1620 C 148.773 1.20894 -1.94724 0
M  V30 1621 C 149.773 1.37738 -0.829747 0
M  V30 1622 O 150.963 1.35323 -1.09697 0
M  V30 1623 C 148.095 2.57593 -2.23291 0
M  V30 1624 H 149.288 0.882275 -2.86629 0
M  V30 1625 H 146.841 0.423838 -1.50444 0
M  V30 1626 H 147.576 2.95291 -1.34067 0
M  V30 1627 H 147.361 2.46735 -3.04736 0
M  V30 1628 H 148.851 3.31637 -2.53785 0
M  V30 1629 N 149.288 1.51039 0.449983 0
M  V30 1630 C 150.565 1.53612 1.21089 0
M  V30 1631 C 150.945 0.292997 2.09057 0
M  V30 1632 O 150.293 -0.72259 2.16774 0
M  V30 1633 C 150.503 2.84337 2.0237 0
M  V30 1634 C 151.851 3.35807 2.59843 0
M  V30 1635 O 152.875 2.85802 2.12593 0
M  V30 1636 O 151.734 4.23029 3.45989 0
M  V30 1637 H 148.828 0.617057 0.550608 0
M  V30 1638 H 151.374 1.63344 0.460082 0
M  V30 1639 H 150.146 3.66278 1.37681 0
M  V30 1640 H 149.769 2.77708 2.84542 0
M  V30 1641 N 150.766 -0.704594 1.40972 0
M  V30 1642 C 151.713 -1.81862 1.42109 0
M  V30 1643 C 152.683 -1.63781 0.276593 0
M  V30 1644 O 153.868 -1.84759 0.4763 0
M  V30 1645 C 151.008 -3.19669 1.30022 0
M  V30 1646 C 150.121 -3.49246 2.54267 0
M  V30 1647 C 149.256 -4.76618 2.3454 0
M  V30 1648 C 148.295 -4.99133 3.54306 0
M  V30 1649 N 147.432 -6.17726 3.33706 0
M  V30 1650 H 152.272 -1.80226 2.37324 0
M  V30 1651 H 149.809 -0.880238 1.17857 0
M  V30 1652 H 151.767 -3.99263 1.21018 0
M  V30 1653 H 150.397 -3.20506 0.384192 0
M  V30 1654 H 149.449 -2.64125 2.73756 0
M  V30 1655 H 150.761 -3.61788 3.43381 0
M  V30 1656 H 149.915 -5.64249 2.22952 0
M  V30 1657 H 148.654 -4.66305 1.42867 0
M  V30 1658 H 147.659 -4.09953 3.66359 0
M  V30 1659 H 148.884 -5.11311 4.4692 0
M  V30 1660 H 146.83 -6.08642 2.44725 0
M  V30 1661 H 146.747 -6.30995 4.16391 0
M  V30 1662 H 148.015 -7.08115 3.25873 0
M  V30 1663 N 152.244 -1.26651 -0.937939 0
M  V30 1664 C 153.207 -1.08546 -2.01867 0
M  V30 1665 C 154.207 -0.0327327 -1.60767 0
M  V30 1666 O 155.397 -0.276427 -1.71993 0
M  V30 1667 C 152.529 -0.651711 -3.34613 0
M  V30 1668 H 153.722 -2.04502 -2.1936 0
M  V30 1669 H 151.275 -1.09294 -1.11734 0
M  V30 1670 H 152.01 0.309696 -3.22818 0
M  V30 1671 H 151.795 -1.41189 -3.65798 0
M  V30 1672 H 153.285 -0.546973 -4.14002 0
M  V30 1673 N 153.722 1.14298 -1.08507 0
M  V30 1674 C 154.999 1.81544 -0.728088 0
M  V30 1675 C 155.379 1.95838 0.78808 0
M  V30 1676 O 154.727 1.51904 1.70697 0
M  V30 1677 C 154.937 3.17169 -1.45619 0
M  V30 1678 C 156.285 3.9265 -1.61591 0
M  V30 1679 O 157.309 3.26762 -1.41793 0
M  V30 1680 O 156.168 5.10807 -1.94263 0
M  V30 1681 H 153.262 0.78491 -0.260471 0
M  V30 1682 H 155.808 1.21307 -1.18671 0
M  V30 1683 H 154.58 3.01934 -2.489 0
M  V30 1684 H 154.203 3.851 -0.989124 0
M  V30 1685 N 155.201 0.870884 1.31352 0
M  V30 1686 C 156.447 0.482987 1.96965 0
M  V30 1687 C 156.78 -0.962462 1.68672 0
M  V30 1688 O 156.055 -1.6779 0.98371 0
M  V30 1689 C 156.338 0.741752 3.52378 0
M  V30 1690 C 156.191 2.2368 3.9024 0
M  V30 1691 C 157.51 0.208838 4.39604 0
M  V30 1692 H 154.629 0.176955 0.715441 0
M  V30 1693 H 157.271 1.09229 1.55464 0
M  V30 1694 H 155.421 0.223149 3.87859 0
M  V30 1695 H 157.093 2.82273 3.64856 0
M  V30 1696 H 155.336 2.70901 3.38814 0
M  V30 1697 H 156.007 2.3685 4.98604 0
M  V30 1698 H 158.483 0.652529 4.10952 0
M  V30 1699 H 157.359 0.419336 5.47296 0
M  V30 1700 H 157.62 -0.889275 4.33064 0
M  V30 1701 N 156.679 -1.44442 0.630414 0
M  V30 1702 C 157.627 -2.32437 -0.0871428 0
M  V30 1703 C 158.621 -1.47304 -0.836525 0
M  V30 1704 O 159.827 -1.63653 -0.749506 0
M  V30 1705 H 156.202 -0.750533 -0.0469495 0
M  V30 1706 H 158.173 -2.90709 0.673096 0
M  V30 1707 C 156.922 -3.31288 -1.05563 0
M  V30 1708 H 156.245 -3.96805 -0.488426 0
M  V30 1709 H 157.685 -3.9554 -1.52721 0
M  V30 1710 C 156.144 -2.6016 -2.14052 0
M  V30 1711 O 156.674 -2.39997 -3.22124 0
M  V30 1712 N 154.88 -2.19911 -1.89967 0
M  V30 1713 H 154.427 -2.36509 -1.02085 0
M  V30 1714 H 154.385 -1.72646 -2.62756 0
M  V30 1715 N 158.157 -0.370918 -1.53173 0
M  V30 1716 C 159.403 0.217423 -2.01631 0
M  V30 1717 C 159.736 1.47983 -1.25756 0
M  V30 1718 O 159.011 1.91274 -0.352764 0
M  V30 1719 C 159.294 0.503982 -3.56556 0
M  V30 1720 C 159.147 -0.77243 -4.43118 0
M  V30 1721 C 160.466 1.30234 -4.20389 0
M  V30 1722 H 157.585 0.0775486 -0.732909 0
M  V30 1723 H 160.227 -0.496863 -1.83388 0
M  V30 1724 H 158.377 1.11248 -3.72231 0
M  V30 1725 H 160.049 -1.4098 -4.39229 0
M  V30 1726 H 158.292 -1.39167 -4.10871 0
M  V30 1727 H 158.963 -0.526815 -5.4948 0
M  V30 1728 H 161.439 0.787546 -4.08579 0
M  V30 1729 H 160.315 1.47158 -5.28806 0
M  V30 1730 H 160.576 2.31237 -3.76805 0
M  V30 1731 N 159.635 1.57281 -0.100228 0
M  V30 1732 C 160.565 2.17328 0.853857 0
M  V30 1733 C 161.546 1.10804 1.2906 0
M  V30 1734 O 162.731 1.38963 1.35657 0
M  V30 1735 C 159.861 2.75772 2.11109 0
M  V30 1736 C 158.815 3.87713 1.81279 0
M  V30 1737 C 158.141 4.32882 3.13874 0
M  V30 1738 C 159.441 5.10677 1.09574 0
M  V30 1739 H 161.135 2.97305 0.353545 0
M  V30 1740 H 158.681 1.43009 0.168612 0
M  V30 1741 H 160.634 3.16433 2.78296 0
M  V30 1742 H 159.358 1.93057 2.63432 0
M  V30 1743 H 158.017 3.476 1.16489 0
M  V30 1744 H 157.665 3.47051 3.64095 0
M  V30 1745 H 157.365 5.08358 2.94696 0
M  V30 1746 H 158.889 4.7618 3.82211 0
M  V30 1747 H 160.303 5.48474 1.66879 0
M  V30 1748 H 158.7 5.91615 1.00557 0
M  V30 1749 H 159.77 4.84835 0.0793299 0
M  V30 1750 N 161.113 -0.173488 1.56642 0
M  V30 1751 C 162.341 -0.906095 1.86004 0
M  V30 1752 C 162.756 -1.75921 0.685355 0
M  V30 1753 O 162.113 -1.79198 -0.345578 0
M  V30 1754 C 162.164 -1.78462 3.14378 0
M  V30 1755 O 161.885 -0.965914 4.27319 0
M  V30 1756 C 163.386 -2.62707 3.57071 0
M  V30 1757 H 160.606 -0.263341 0.617165 0
M  V30 1758 H 163.15 -0.174236 2.03756 0
M  V30 1759 H 161.305 -2.46984 2.98459 0
M  V30 1760 H 161.719 -1.56655 5.00559 0
M  V30 1761 H 163.193 -3.19969 4.49804 0
M  V30 1762 H 163.67 -3.37472 2.81086 0
M  V30 1763 H 164.276 -1.99521 3.75595 0
M  V30 1764 N 162.591 -1.51276 -0.441967 0
M  V30 1765 C 163.538 -1.72256 -1.53612 0
M  V30 1766 C 164.508 -0.564164 -1.56225 0
M  V30 1767 O 165.693 -0.798074 -1.73307 0
M  V30 1768 C 162.833 -1.84932 -2.91366 0
M  V30 1769 C 161.946 -3.12459 -2.98317 0
M  V30 1770 C 161.081 -3.15758 -4.27166 0
M  V30 1771 C 160.12 -4.37619 -4.27967 0
M  V30 1772 N 159.257 -4.38493 -5.48333 0
M  V30 1773 H 164.097 -2.65654 -1.35026 0
M  V30 1774 H 161.634 -1.31662 -0.656009 0
M  V30 1775 H 163.592 -1.90263 -3.7129 0
M  V30 1776 H 162.222 -0.949461 -3.08521 0
M  V30 1777 H 161.274 -3.1646 -2.11086 0
M  V30 1778 H 162.586 -4.02382 -2.94771 0
M  V30 1779 H 161.74 -3.19979 -5.15459 0
M  V30 1780 H 160.479 -2.23715 -4.33362 0
M  V30 1781 H 159.484 -4.33579 -3.38067 0
M  V30 1782 H 160.709 -5.30921 -4.23438 0
M  V30 1783 H 158.655 -3.49318 -5.55259 0
M  V30 1784 H 158.572 -5.22219 -5.46647 0
M  V30 1785 H 159.84 -4.469 -6.38671 0
M  V30 1786 N 164.069 0.697108 -1.41344 0
M  V30 1787 C 165.032 1.79281 -1.42797 0
M  V30 1788 C 166.032 1.57607 -0.318837 0
M  V30 1789 O 167.222 1.64309 -0.578642 0
M  V30 1790 C 164.354 3.17632 -1.23785 0
M  V30 1791 H 165.547 1.79385 -2.40335 0
M  V30 1792 H 163.1 0.904582 -1.27464 0
M  V30 1793 H 163.835 3.23167 -0.270814 0
M  V30 1794 H 163.62 3.34765 -2.04144 0
M  V30 1795 H 165.11 3.97617 -1.27633 0
M  V30 1796 N 165.547 1.27147 0.931209 0
M  V30 1797 C 166.494 1.09568 2.03134 0
M  V30 1798 C 167.464 -0.00222433 1.661 0
M  V30 1799 O 168.649 0.159439 1.90133 0
M  V30 1800 C 165.789 0.745231 3.36957 0
M  V30 1801 C 164.902 1.92041 3.86968 0
M  V30 1802 C 164.037 1.51216 5.09222 0
M  V30 1803 C 163.076 2.65504 5.5152 0
M  V30 1804 N 162.213 2.25291 6.64972 0
M  V30 1805 H 167.053 2.03708 2.17502 0
M  V30 1806 H 164.59 1.01411 1.06556 0
M  V30 1807 H 166.548 0.522878 4.1391 0
M  V30 1808 H 165.178 -0.159202 3.22407 0
M  V30 1809 H 164.23 2.25541 3.06326 0
M  V30 1810 H 165.542 2.77787 4.1429 0
M  V30 1811 H 164.696 1.25084 5.93666 0
M  V30 1812 H 163.435 0.625749 4.83669 0
M  V30 1813 H 162.44 2.92354 4.65628 0
M  V30 1814 H 163.665 3.54761 5.7907 0
M  V30 1815 H 161.611 1.39098 6.41083 0
M  V30 1816 H 161.528 3.04577 6.91931 0
M  V30 1817 H 162.796 2.02398 7.52765 0
M  V30 1818 N 167.025 -1.13721 1.09112 0
M  V30 1819 C 168.25 -1.89314 0.847053 0
M  V30 1820 C 168.675 -1.78416 -0.595774 0
M  V30 1821 O 168.033 -1.12942 -1.41823 0
M  V30 1822 C 168.081 -3.3701 1.28284 0
M  V30 1823 O 167.185 -4.10054 0.439267 0
M  V30 1824 H 166.526 -0.588745 0.307044 0
M  V30 1825 H 169.056 -1.43902 1.45442 0
M  V30 1826 H 169.066 -3.87834 1.26683 0
M  V30 1827 H 167.741 -3.4426 2.33363 0
M  V30 1828 H 166.318 -3.69266 0.519312 0
M  V30 1829 N 168.503 -0.877838 -1.30888 0
M  V30 1830 C 169.435 -0.296607 -2.27273 0
M  V30 1831 C 170.448 0.544799 -1.53414 0
M  V30 1832 O 171.637 0.365511 -1.74718 0
M  V30 1833 C 168.737 0.597481 -3.33592 0
M  V30 1834 C 167.91 -0.213251 -4.3688 0
M  V30 1835 C 166.969 0.610208 -5.2265 0
M  V30 1836 O 165.995 0.035441 -5.69189 0
M  V30 1837 N 167.197 1.92071 -5.47804 0
M  V30 1838 H 169.962 -1.12492 -2.77787 0
M  V30 1839 H 167.523 -0.740105 -1.43993 0
M  V30 1840 H 169.515 1.15425 -3.87891 0
M  V30 1841 H 168.085 1.32647 -2.83061 0
M  V30 1842 H 167.305 -0.951466 -3.82545 0
M  V30 1843 H 168.593 -0.769262 -5.02951 0
M  V30 1844 H 167.991 2.4107 -5.11763 0
M  V30 1845 H 166.548 2.42508 -6.05007 0
M  V30 1846 O 170.02 1.4153 -0.777912 0
M  V30 1847 H 170.711 1.9062 -0.344054 0
M  V30 END ATOM
M  V30 BEGIN BOND
M  V30 END BOND
M  V30 END CTAB
M  END
$$$$
