drugbank_target|P01350 Gastrin (DB12532)
 OpenBabel12092121193D

  0  0  0     0  0            999 V3000
M  V30 BEGIN CTAB
M  V30 COUNTS 1567 1592 0 0 0
M  V30 BEGIN ATOM
M  V30 1 H -0.908 1.98254 -0.117106 0
M  V30 2 N 0 1.576 0 0
M  V30 3 C 0.933 2.03868 1.02534 0
M  V30 4 C 1.911 0.928543 1.3348 0
M  V30 5 O 3.095 1.19667 1.45644 0
M  V30 6 C 0.222 2.43627 2.35294 0
M  V30 7 C -0.732 3.65373 2.2001 0
M  V30 8 S 0.101 5.13292 1.52614 0
M  V30 9 C 1.257 5.56322 2.86805 0
M  V30 10 H 1.49 2.90518 0.631377 0
M  V30 11 H -0.977 1.52953 0.210867 0
M  V30 12 H 0.981 2.67203 3.11629 0
M  V30 13 H -0.358 1.57376 2.7183 0
M  V30 14 H -1.165 3.90944 3.18086 0
M  V30 15 H -1.563 3.418 1.51819 0
M  V30 16 H 0.729 5.58782 3.83104 0
M  V30 17 H 1.672 6.56266 2.65933 0
M  V30 18 H 2.08 4.83886 2.90714 0
M  V30 19 N 1.4781 -0.272755 1.55222 0
M  V30 20 C 2.4101 -1.35946 1.8453 0
M  V30 21 C 3.4231 -1.45525 0.729818 0
M  V30 22 O 4.6121 -1.47337 1.00767 0
M  V30 23 C 1.7121 -2.74069 1.99347 0
M  V30 24 C 0.8851 -2.87079 3.30007 0
M  V30 25 C -0.0559 -4.05879 3.34886 0
M  V30 26 O -1.0299 -3.96626 4.08261 0
M  V30 27 N 0.1721 -5.17857 2.62307 0
M  V30 28 H 2.9371 -1.11149 2.78327 0
M  V30 29 H 0.4981 -0.462869 1.55142 0
M  V30 30 H 2.4901 -3.51838 1.99981 0
M  V30 31 H 1.0601 -2.91688 1.12415 0
M  V30 32 H 0.2801 -1.96193 3.41909 0
M  V30 33 H 1.5681 -2.92701 4.16177 0
M  V30 34 H 0.9661 -5.28261 2.02377 0
M  V30 35 H -0.4769 -5.93855 2.68663 0
M  V30 36 N 2.9562 -1.48159 -0.537278 0
M  V30 37 C 4.3722 -1.34118 -0.865129 0
M  V30 38 C 4.5722 -0.346678 -1.98495 0
M  V30 39 O 3.6282 0.234715 -2.51407 0
M  V30 40 C 4.9412 -2.73963 -1.23954 0
M  V30 41 C 6.4892 -2.82397 -1.34984 0
M  V30 42 C 6.9642 -4.22928 -1.75772 0
M  V30 43 N 8.4552 -4.25566 -1.82887 0
M  V30 44 C 9.1902 -5.31235 -2.15817 0
M  V30 45 N 8.6862 -6.47189 -2.47222 0
M  V30 46 N 10.4792 -5.18624 -2.16761 0
M  V30 47 H 2.6302 -2.1144 0.201715 0
M  V30 48 H 4.8932 -0.947598 0.0275949 0
M  V30 49 H 4.5992 -3.48264 -0.490381 0
M  V30 50 H 4.4732 -3.0702 -2.19132 0
M  V30 51 H 6.8602 -2.08356 -2.08978 0
M  V30 52 H 6.9412 -2.5297 -0.379448 0
M  V30 53 H 6.5852 -4.97482 -1.02341 0
M  V30 54 H 6.5152 -4.49794 -2.73848 0
M  V30 55 H 9.0062 -3.41924 -1.60924 0
M  V30 56 H 9.3192 -7.23564 -2.71433 0
M  V30 57 H 7.6642 -6.50476 -2.44757 0
M  V30 58 H 10.8552 -4.27056 -1.91679 0
M  V30 59 H 11.0282 -6.01078 -2.42093 0
M  V30 60 N 4.4343 0.785586 -1.36625 0
M  V30 61 C 5.3643 1.91259 -1.33949 0
M  V30 62 C 6.3453 1.68795 -0.210325 0
M  V30 63 O 7.5303 1.89854 -0.408561 0
M  V30 64 C 4.6603 3.28339 -1.13186 0
M  V30 65 C 3.6143 3.65335 -2.22967 0
M  V30 66 C 2.9403 5.00806 -1.87342 0
M  V30 67 C 4.2403 3.7352 -3.65075 0
M  V30 68 H 5.9343 1.93755 -2.28253 0
M  V30 69 H 3.4803 0.930788 -1.09874 0
M  V30 70 H 5.4333 4.06804 -1.09948 0
M  V30 71 H 4.1573 3.2624 -0.153332 0
M  V30 72 H 2.8163 2.89169 -2.25337 0
M  V30 73 H 2.4643 4.95233 -0.880545 0
M  V30 74 H 2.1643 5.26529 -2.60846 0
M  V30 75 H 3.6883 5.81687 -1.85667 0
M  V30 76 H 5.1023 4.42168 -3.64911 0
M  V30 77 H 3.4993 4.10731 -4.37516 0
M  V30 78 H 4.5693 2.74527 -3.99703 0
M  V30 79 N 5.9124 1.20967 1.01018 0
M  V30 80 C 7.1524 1.03511 1.76252 0
M  V30 81 C 7.5164 -0.42458 1.87247 0
M  V30 82 O 8.7174 -0.719508 2.58991 0
M  V30 83 C 6.9884 1.70726 3.13986 0
M  V30 84 S 8.5474 1.68458 4.05176 0
M  V30 85 H 5.3654 0.371037 0.606508 0
M  V30 86 H 7.9674 1.53628 1.20908 0
M  V30 87 H 6.6714 2.76128 3.03614 0
M  V30 88 H 6.2024 1.20767 3.74405 0
M  V30 89 H 8.2174 0.721987 4.90919 0
M  V30 90 N 7.3905 -1.2043 1.01659 0
M  V30 91 C 8.6365 -1.90079 0.706963 0
M  V30 92 C 8.9695 -1.78648 -0.761474 0
M  V30 93 O 8.2445 -1.17069 -1.55323 0
M  V30 94 C 8.5275 -3.41469 1.14327 0
M  V30 95 C 8.3805 -3.61833 2.67201 0
M  V30 96 C 9.6995 -4.34261 0.714529 0
M  V30 97 H 6.8185 -0.690254 0.2583 0
M  V30 98 H 9.4605 -1.41826 1.26433 0
M  V30 99 H 7.6105 -3.82696 0.669056 0
M  V30 100 H 9.2825 -3.2986 3.22475 0
M  V30 101 H 7.5255 -3.05304 3.08175 0
M  V30 102 H 8.1965 -4.67955 2.92783 0
M  V30 103 H 10.6725 -4.00682 1.12221 0
M  V30 104 H 9.5485 -5.38806 1.04784 0
M  V30 105 H 9.8095 -4.40431 -0.383799 0
M  V30 106 N 8.8686 -0.792821 -1.36206 0
M  V30 107 C 10.0986 -0.378275 -2.03107 0
M  V30 108 C 10.5066 1.01119 -1.59911 0
M  V30 109 O 9.8496 1.66052 -0.785658 0
M  V30 110 C 9.9116 -0.366535 -3.57627 0
M  V30 111 C 9.5756 -1.70416 -4.24037 0
M  V30 112 C 10.5726 -2.6602 -4.46687 0
M  V30 113 C 8.2576 -1.98439 -4.6144 0
M  V30 114 C 10.2516 -3.8784 -5.05825 0
M  V30 115 C 7.9386 -3.20525 -5.20295 0
M  V30 116 C 8.9366 -4.15044 -5.42427 0
M  V30 117 O 8.6246 -5.34978 -6.00045 0
M  V30 118 H 8.3566 -0.153543 -0.658332 0
M  V30 119 H 10.9106 -1.07383 -1.75094 0
M  V30 120 H 9.1406 0.385539 -3.84773 0
M  V30 121 H 10.8296 0.0238088 -4.05893 0
M  V30 122 H 11.5956 -2.45658 -4.18183 0
M  V30 123 H 7.4746 -1.25686 -4.43536 0
M  V30 124 H 11.0186 -4.61628 -5.23015 0
M  V30 125 H 6.9156 -3.40764 -5.48225 0
M  V30 126 H 7.6836 -5.36088 -6.18508 0
M  V30 127 N 10.3467 1.47872 -0.545128 0
M  V30 128 C 11.5927 2.02793 -0.0166104 0
M  V30 129 C 11.9257 1.41987 1.32489 0
M  V30 130 O 11.2007 0.571045 1.85928 0
M  V30 131 C 11.4837 3.59989 0.0893294 0
M  V30 132 C 11.3367 4.3125 -1.27841 0
M  V30 133 C 12.6557 4.32606 0.808724 0
M  V30 134 H 9.7747 0.736962 -0.00751035 0
M  V30 135 H 12.4167 1.76433 -0.705085 0
M  V30 136 H 10.5667 3.82579 0.675681 0
M  V30 137 H 12.2387 4.20035 -1.90704 0
M  V30 138 H 10.4817 3.92076 -1.85632 0
M  V30 139 H 11.1527 5.39736 -1.15713 0
M  V30 140 H 13.6287 4.14936 0.310992 0
M  V30 141 H 12.5047 5.42251 0.851782 0
M  V30 142 H 12.7657 4.00963 1.86229 0
M  V30 143 N 11.8248 0.280983 1.55075 0
M  V30 144 C 12.7548 -0.597469 2.25727 0
M  V30 145 C 13.7358 -1.15417 1.24952 0
M  V30 146 O 14.9208 -1.18722 1.53684 0
M  V30 147 C 12.0508 -1.7789 2.98283 0
M  V30 148 C 11.0048 -1.35347 4.06036 0
M  V30 149 C 10.3308 -2.61846 4.66198 0
M  V30 150 C 11.6308 -0.499354 5.19907 0
M  V30 151 H 13.3248 -0.00824265 2.99399 0
M  V30 152 H 10.8708 -0.0025244 1.44 0
M  V30 153 H 12.8238 -2.39937 3.46422 0
M  V30 154 H 11.5478 -2.39405 2.22155 0
M  V30 155 H 10.2068 -0.756156 3.58717 0
M  V30 156 H 9.8548 -3.21632 3.86732 0
M  V30 157 H 9.5548 -2.3409 5.38958 0
M  V30 158 H 11.0788 -3.24732 5.1709 0
M  V30 159 H 12.4928 -1.02498 5.64063 0
M  V30 160 H 10.8898 -0.316424 5.99265 0
M  V30 161 H 11.9598 0.480459 4.82514 0
M  V30 162 N 13.3029 -1.57598 0.00835791 0
M  V30 163 C 14.5519 -1.90107 -0.673968 0
M  V30 164 C 14.8649 -0.884275 -1.7447 0
M  V30 165 O 16.0709 -1.09987 -2.48224 0
M  V30 166 C 14.5269 -3.37497 -1.24995 0
M  V30 167 C 14.1349 -4.47491 -0.2136 0
M  V30 168 C 15.8789 -3.79104 -1.90999 0
M  V30 169 C 13.7859 -5.85963 -0.80005 0
M  V30 170 H 12.7159 -0.709393 -0.255495 0
M  V30 171 H 15.3669 -1.83365 0.0702693 0
M  V30 172 H 13.7489 -3.39102 -2.04513 0
M  V30 173 H 14.9229 -4.57414 0.557596 0
M  V30 174 H 13.2379 -4.14956 0.346474 0
M  V30 175 H 15.8349 -4.79901 -2.35795 0
M  V30 176 H 16.1779 -3.1306 -2.74407 0
M  V30 177 H 16.7109 -3.79833 -1.18203 0
M  V30 178 H 13.4499 -6.555 -0.00456708 0
M  V30 179 H 12.9699 -5.79687 -1.54021 0
M  V30 180 H 14.6489 -6.33884 -1.29615 0
M  V30 181 N 14.781 0.264519 -1.55364 0
M  V30 182 C 16.028 0.994986 -1.7637 0
M  V30 183 C 16.356 1.85976 -0.5695 0
M  V30 184 O 15.611 1.90509 0.44776 0
M  V30 185 C 15.91 1.9004 -3.02687 0
M  V30 186 C 15.576 1.19243 -4.34847 0
M  V30 187 C 14.238 0.996709 -4.70764 0
M  V30 188 C 16.59 0.689296 -5.16622 0
M  V30 189 C 13.918 0.285261 -5.86006 0
M  V30 190 C 16.27 -0.00860079 -6.32599 0
M  V30 191 C 14.934 -0.215963 -6.67151 0
M  V30 192 H 14.204 0.364091 -0.645383 0
M  V30 193 H 16.851 0.266543 -1.89636 0
M  V30 194 H 15.156 2.69533 -2.84357 0
M  V30 195 H 16.853 2.46695 -3.16137 0
M  V30 196 H 13.443 1.3549 -4.06621 0
M  V30 197 H 17.627 0.828108 -4.89342 0
M  V30 198 H 12.883 0.113961 -6.11294 0
M  V30 199 H 17.057 -0.406186 -6.95214 0
M  V30 200 H 14.684 -0.769217 -7.56298 0
M  V30 201 N 16.2591 1.48442 0.529413 0
M  V30 202 C 17.2221 1.62524 1.61612 0
M  V30 203 C 18.2221 0.498509 1.52877 0
M  V30 204 O 19.4121 0.76431 1.56537 0
M  V30 205 C 16.5441 1.59597 3.01233 0
M  V30 206 H 17.7371 2.59423 1.50465 0
M  V30 207 H 15.2901 1.37047 0.751514 0
M  V30 208 H 16.0251 0.641781 3.17886 0
M  V30 209 H 15.8101 2.41397 3.08982 0
M  V30 210 H 17.3001 1.72646 3.80241 0
M  V30 211 N 17.7372 -0.778329 1.37039 0
M  V30 212 C 18.6672 -1.90546 1.34962 0
M  V30 213 C 19.6482 -1.68681 0.219274 0
M  V30 214 O 20.8332 -1.89634 0.418624 0
M  V30 215 C 17.9632 -3.27734 1.14925 0
M  V30 216 C 16.9172 -3.64147 2.24902 0
M  V30 217 C 16.2432 -4.99806 1.89996 0
M  V30 218 C 17.5432 -3.71579 3.67051 0
M  V30 219 H 19.2372 -1.92541 2.29277 0
M  V30 220 H 16.7832 -0.924948 1.10366 0
M  V30 221 H 18.7362 -4.06215 1.12104 0
M  V30 222 H 17.4602 -3.26154 0.170631 0
M  V30 223 H 16.1192 -2.8797 2.26868 0
M  V30 224 H 15.7672 -4.94759 0.906796 0
M  V30 225 H 15.4672 -5.25139 2.63634 0
M  V30 226 H 16.9912 -5.80694 1.88749 0
M  V30 227 H 18.4052 -4.40227 3.67251 0
M  V30 228 H 16.8022 -4.08405 4.39688 0
M  V30 229 H 17.8722 -2.72404 4.01154 0
M  V30 230 N 19.2153 -1.21501 -1.00376 0
M  V30 231 C 20.1783 -0.976927 -2.07337 0
M  V30 232 C 21.1783 0.0525322 -1.60714 0
M  V30 233 O 22.3683 -0.184869 -1.73216 0
M  V30 234 C 19.5003 -0.473423 -3.37597 0
M  V30 235 H 20.6933 -1.92587 -2.29892 0
M  V30 236 H 18.2463 -1.03217 -1.17371 0
M  V30 237 H 18.9813 0.480379 -3.20722 0
M  V30 238 H 18.7663 -1.216 -3.72768 0
M  V30 239 H 20.2563 -0.32675 -4.1632 0
M  V30 240 N 20.6934 1.19889 -1.02296 0
M  V30 241 C 21.6234 2.25141 -0.619174 0
M  V30 242 C 22.6044 1.66051 0.368915 0
M  V30 243 O 23.7894 1.92546 0.252941 0
M  V30 244 C 20.9194 3.4728 0.0368783 0
M  V30 245 C 19.8734 4.19005 -0.872865 0
M  V30 246 C 19.1994 5.34637 -0.0822402 0
M  V30 247 C 20.4994 4.74452 -2.18387 0
M  V30 248 H 22.1934 2.59171 -1.49903 0
M  V30 249 H 19.7394 1.24579 -0.722222 0
M  V30 250 H 21.6924 4.20098 0.330958 0
M  V30 251 H 20.4164 3.12433 0.95149 0
M  V30 252 H 19.0754 3.48061 -1.15105 0
M  V30 253 H 18.7234 4.96034 0.83422 0
M  V30 254 H 18.4234 5.83557 -0.688149 0
M  V30 255 H 19.9474 6.10255 0.205238 0
M  V30 256 H 21.3614 5.39055 -1.95172 0
M  V30 257 H 19.7584 5.33834 -2.74119 0
M  V30 258 H 20.8284 3.92844 -2.84257 0
M  V30 259 N 22.1715 0.800033 1.35784 0
M  V30 260 C 23.1345 0.211565 2.28221 0
M  V30 261 C 24.1345 -0.59728 1.49296 0
M  V30 262 O 25.3245 -0.416721 1.69142 0
M  V30 263 C 22.4565 -0.705846 3.33513 0
M  V30 264 H 23.6495 1.02677 2.81776 0
M  V30 265 H 21.2025 0.570211 1.45528 0
M  V30 266 H 21.9375 -1.54498 2.85133 0
M  V30 267 H 21.7225 -0.127655 3.91892 0
M  V30 268 H 23.2125 -1.11211 4.02519 0
M  V30 269 N 23.6496 -1.47581 0.552962 0
M  V30 270 C 24.6126 -2.28439 -0.186605 0
M  V30 271 C 25.6126 -1.36706 -0.84665 0
M  V30 272 O 26.8026 -1.59378 -0.703164 0
M  V30 273 C 23.9346 -3.16264 -1.2724 0
M  V30 274 H 25.1276 -2.95294 0.523609 0
M  V30 275 H 22.6806 -1.532 0.309745 0
M  V30 276 H 23.4156 -2.54091 -2.01514 0
M  V30 277 H 23.2006 -3.83769 -0.803968 0
M  V30 278 H 24.6906 -3.77198 -1.79196 0
M  V30 279 N 25.1277 -0.289203 -1.54924 0
M  V30 280 C 26.3747 0.323519 -1.99899 0
M  V30 281 C 26.7027 1.54797 -1.17762 0
M  V30 282 O 25.9577 1.94237 -0.238835 0
M  V30 283 C 26.2567 0.736119 -3.49737 0
M  V30 284 C 25.9227 -0.385276 -4.49251 0
M  V30 285 C 24.5847 -0.693156 -4.76181 0
M  V30 286 C 26.9367 -1.14021 -5.08575 0
M  V30 287 C 24.2647 -1.7593 -5.59701 0
M  V30 288 C 26.6167 -2.19619 -5.93254 0
M  V30 289 C 25.2807 -2.51026 -6.185 0
M  V30 290 H 24.5507 0.118384 -0.731482 0
M  V30 291 H 27.1977 -0.405847 -1.8715 0
M  V30 292 H 25.5027 1.54539 -3.60035 0
M  V30 293 H 27.1997 1.22118 -3.81953 0
M  V30 294 H 23.7897 -0.135202 -4.28387 0
M  V30 295 H 27.9737 -0.915611 -4.87781 0
M  V30 296 H 23.2297 -2.0075 -5.77503 0
M  V30 297 H 27.4037 -2.78581 -6.38252 0
M  V30 298 H 25.0307 -3.33772 -6.83008 0
M  V30 299 N 26.6058 1.57591 -0.0167156 0
M  V30 300 C 27.8308 1.9598 0.67872 0
M  V30 301 C 28.2558 0.892546 1.65575 0
M  V30 302 O 27.6138 -0.147772 1.80697 0
M  V30 303 C 27.6618 3.33468 1.37227 0
M  V30 304 O 26.7658 3.28954 2.48722 0
M  V30 305 H 26.1068 0.639339 0.17928 0
M  V30 306 H 28.6368 2.04463 -0.0748802 0
M  V30 307 H 28.6468 3.69417 1.7319 0
M  V30 308 H 27.3218 4.10694 0.656007 0
M  V30 309 H 25.8988 3.04705 2.14963 0
M  V30 310 N 28.0839 -0.256276 1.55502 0
M  V30 311 C 28.9939 -1.33882 1.92647 0
M  V30 312 C 30.0099 -1.53159 0.825727 0
M  V30 313 O 31.1859 -1.66963 1.12629 0
M  V30 314 C 28.2509 -2.6751 2.20543 0
M  V30 315 C 27.3119 -2.56836 3.43997 0
M  V30 316 C 26.5449 -3.84092 3.70553 0
M  V30 317 O 26.7679 -4.85545 2.99336 0
M  V30 318 O 25.7019 -3.83288 4.64084 0
M  V30 319 H 29.5279 -1.05374 2.84833 0
M  V30 320 H 27.1129 -0.456237 1.42263 0
M  V30 321 H 28.9949 -3.46492 2.39835 0
M  V30 322 H 27.6699 -2.9577 1.31536 0
M  V30 323 H 26.5769 -1.76172 3.30021 0
M  V30 324 H 27.9099 -2.33523 4.33275 0
M  V30 325 N 29.562 -1.4872 -0.521534 0
M  V30 326 C 30.525 -1.63379 -1.60748 0
M  V30 327 C 31.525 -0.50661 -1.52611 0
M  V30 328 O 32.715 -0.772601 -1.5613 0
M  V30 329 C 29.847 -1.61192 -3.00383 0
M  V30 330 H 31.04 -2.60217 -1.49087 0
M  V30 331 H 28.593 -1.37444 -0.744235 0
M  V30 332 H 29.328 -0.65863 -3.17541 0
M  V30 333 H 29.113 -2.43032 -3.07698 0
M  V30 334 H 30.603 -1.7466 -3.7932 0
M  V30 335 N 31.0401 0.771051 -1.3745 0
M  V30 336 C 32.2651 1.56529 -1.36065 0
M  V30 337 C 32.6901 1.88029 0.0515859 0
M  V30 338 O 32.0481 1.49282 1.02882 0
M  V30 339 C 32.0961 2.85187 -2.20683 0
M  V30 340 O 31.2001 3.79593 -1.61193 0
M  V30 341 H 30.5411 0.47411 -0.464883 0
M  V30 342 H 33.0711 0.954269 -1.80983 0
M  V30 343 H 33.0811 3.34283 -2.33921 0
M  V30 344 H 31.7561 2.61588 -3.23334 0
M  V30 345 H 30.3331 3.38239 -1.56999 0
M  V30 346 N 32.5182 1.22032 0.997298 0
M  V30 347 C 33.7642 1.05382 1.73972 0
M  V30 348 C 34.1192 -0.407419 1.88037 0
M  V30 349 O 33.4122 -1.29811 1.40924 0
M  V30 350 C 33.6062 1.69345 3.14733 0
M  V30 351 C 33.4352 3.21537 3.14395 0
M  V30 352 C 32.2052 3.9062 3.20537 0
M  V30 353 C 34.4032 4.18527 2.98897 0
M  V30 354 N 32.3852 5.29935 3.09906 0
M  V30 355 C 33.7562 5.44645 2.96247 0
M  V30 356 C 35.8112 4.09476 2.83255 0
M  V30 357 C 34.5142 6.62752 2.79557 0
M  V30 358 C 36.5402 5.27228 2.67926 0
M  V30 359 C 35.9022 6.52262 2.65959 0
M  V30 360 H 32.0012 0.440018 0.646458 0
M  V30 361 H 34.5852 1.54505 1.18475 0
M  V30 362 H 32.7562 1.22778 3.68484 0
M  V30 363 H 34.4882 1.45828 3.77513 0
M  V30 364 H 31.2432 3.41592 3.28043 0
M  V30 365 H 31.6672 6.02926 3.07912 0
M  V30 366 H 36.3092 3.13598 2.83577 0
M  V30 367 H 34.0272 7.58783 2.77982 0
M  V30 368 H 37.6132 5.22053 2.56812 0
M  V30 369 H 36.4932 7.41844 2.54239 0
M  V30 370 N 33.9963 -1.19345 1.0293 0
M  V30 371 C 34.9433 -2.2258 0.610464 0
M  V30 372 C 35.9133 -1.6179 -0.375946 0
M  V30 373 O 37.0983 -1.88844 -0.272511 0
M  V30 374 C 34.2383 -3.45085 -0.0321473 0
M  V30 375 C 33.3513 -4.20258 1.00035 0
M  V30 376 C 32.4863 -5.3019 0.32746 0
M  V30 377 C 31.5253 -5.97121 1.34584 0
M  V30 378 N 30.6623 -6.98615 0.698726 0
M  V30 379 H 35.5023 -2.57764 1.49538 0
M  V30 380 H 33.0393 -1.26644 0.748311 0
M  V30 381 H 34.9973 -4.15061 -0.421966 0
M  V30 382 H 33.6273 -3.10555 -0.88064 0
M  V30 383 H 32.6793 -3.49223 1.50823 0
M  V30 384 H 33.9913 -4.66175 1.77433 0
M  V30 385 H 33.1453 -6.06587 -0.11718 0
M  V30 386 H 31.8843 -4.85345 -0.478713 0
M  V30 387 H 30.8893 -5.19474 1.80074 0
M  V30 388 H 32.1143 -6.4405 2.15352 0
M  V30 389 H 30.0603 -6.55942 -0.0873471 0
M  V30 390 H 29.9773 -7.42724 1.41058 0
M  V30 391 H 31.2453 -7.79004 0.278102 0
M  V30 392 N 35.4744 -0.807222 -1.35358 0
M  V30 393 C 36.8854 -0.44876 -1.81226 0
M  V30 394 C 37.2364 1.02929 -1.67033 0
M  V30 395 O 36.3614 1.79991 -1.20133 0
M  V30 396 C 36.9564 -0.807774 -3.2903 0
M  V30 397 C 35.5154 -0.501901 -3.73039 0
M  V30 398 C 34.6624 -1.03304 -2.57339 0
M  V30 399 H 37.6134 -0.998808 -1.23327 0
M  V30 400 H 37.6344 -0.10554 -3.80354 0
M  V30 401 H 37.1464 -1.88357 -3.39328 0
M  V30 402 H 35.2474 0.565128 -3.68289 0
M  V30 403 H 35.3604 -1.03497 -4.67787 0
M  V30 404 H 33.7244 -0.455339 -2.50597 0
M  V30 405 H 34.5074 -2.11496 -2.70415 0
M  V30 406 N 36.9525 1.47285 -0.560781 0
M  V30 407 C 38.3685 1.58065 -0.22081 0
M  V30 408 C 38.5685 1.55892 1.27671 0
M  V30 409 O 37.6245 1.46422 2.0571 0
M  V30 410 C 38.9375 2.88418 -0.850625 0
M  V30 411 C 40.4855 3.02009 -0.822184 0
M  V30 412 C 40.9605 4.35066 -1.43113 0
M  V30 413 N 42.4515 4.41711 -1.39448 0
M  V30 414 C 43.1865 5.43237 -1.83525 0
M  V30 415 N 42.6825 6.51555 -2.35474 0
M  V30 416 N 44.4755 5.34304 -1.74574 0
M  V30 417 H 36.6265 1.46941 -1.53369 0
M  V30 418 H 38.8895 0.699558 -0.639783 0
M  V30 419 H 38.5955 2.95755 -1.9032 0
M  V30 420 H 38.4695 3.75612 -0.345773 0
M  V30 421 H 40.8565 2.94266 0.221714 0
M  V30 422 H 40.9375 2.16347 -1.36483 0
M  V30 423 H 40.5815 4.43565 -2.47412 0
M  V30 424 H 40.5115 5.19465 -0.863899 0
M  V30 425 H 43.0025 3.64027 -1.01452 0
M  V30 426 H 43.3155 7.25203 -2.67021 0
M  V30 427 H 41.6605 6.52435 -2.39487 0
M  V30 428 H 44.8515 4.48581 -1.33763 0
M  V30 429 H 45.0245 6.13288 -2.09242 0
M  V30 430 N 38.4306 0.297415 1.54768 0
M  V30 431 C 39.6556 -0.318435 2.04941 0
M  V30 432 C 40.0806 -1.4701 1.17345 0
M  V30 433 O 39.4386 -1.80436 0.176758 0
M  V30 434 C 39.4866 -0.755749 3.52592 0
M  V30 435 O 38.5906 -1.86088 3.68028 0
M  V30 436 H 37.9316 -0.062421 0.661059 0
M  V30 437 H 40.4616 0.438215 1.99852 0
M  V30 438 H 40.4716 -1.04552 3.94376 0
M  V30 439 H 39.1466 0.0867233 4.1581 0
M  V30 440 H 37.7236 -1.57193 3.38149 0
M  V30 441 N 39.9087 -1.5758 0.0250728 0
M  V30 442 C 40.8407 -2.06869 -0.986796 0
M  V30 443 C 41.8537 -0.991332 -1.29137 0
M  V30 444 O 43.0427 -1.26761 -1.25674 0
M  V30 445 C 40.1427 -2.47486 -2.31525 0
M  V30 446 C 39.3157 -3.78253 -2.19643 0
M  V30 447 C 38.3747 -4.05464 -3.35388 0
M  V30 448 O 37.4007 -4.75774 -3.12454 0
M  V30 449 N 38.6027 -3.55321 -4.59051 0
M  V30 450 H 41.3677 -2.94302 -0.566276 0
M  V30 451 H 38.9287 -1.6109 -0.161776 0
M  V30 452 H 40.9207 -2.62785 -3.07776 0
M  V30 453 H 39.4907 -1.65441 -2.65232 0
M  V30 454 H 38.7107 -3.7279 -1.28144 0
M  V30 455 H 39.9987 -4.63936 -2.08903 0
M  V30 456 H 39.3967 -2.98431 -4.80578 0
M  V30 457 H 37.9537 -3.75905 -5.32483 0
M  V30 458 N 41.3868 0.248026 -1.55636 0
M  V30 459 C 42.3188 1.32993 -1.8667 0
M  V30 460 C 43.3318 1.44345 -0.752877 0
M  V30 461 O 44.5208 1.45715 -1.03098 0
M  V30 462 C 41.6208 2.70863 -2.03682 0
M  V30 463 C 40.7938 2.81792 -3.34532 0
M  V30 464 C 39.8528 4.005 -3.41301 0
M  V30 465 O 38.8788 3.9008 -4.14519 0
M  V30 466 N 40.0808 5.13618 -2.70512 0
M  V30 467 H 42.8458 1.06707 -2.8006 0
M  V30 468 H 40.4068 0.438129 -1.55859 0
M  V30 469 H 42.3988 3.48612 -2.05553 0
M  V30 470 H 40.9688 2.89862 -1.17041 0
M  V30 471 H 40.1888 1.90729 -3.44987 0
M  V30 472 H 41.4768 2.86043 -4.20781 0
M  V30 473 H 40.8748 5.24975 -2.10755 0
M  V30 474 H 39.4318 5.89505 -2.78077 0
M  V30 475 N 42.8649 1.48995 0.513639 0
M  V30 476 C 44.2759 1.5119 1.09537 0
M  V30 477 C 44.6269 0.290906 1.94031 0
M  V30 478 O 43.7519 -0.60049 2.07902 0
M  V30 479 C 44.3469 2.73964 1.99322 0
M  V30 480 C 42.9059 2.78978 2.52682 0
M  V30 481 C 42.0529 2.44934 1.30009 0
M  V30 482 H 45.0039 1.55875 0.298125 0
M  V30 483 H 45.0249 2.53409 2.83838 0
M  V30 484 H 44.5369 3.62813 1.37799 0
M  V30 485 H 42.6379 1.94378 3.1788 0
M  V30 486 H 42.7509 3.8083 2.90698 0
M  V30 487 H 41.1149 1.9644 1.62122 0
M  V30 488 H 41.8979 3.36043 0.702131 0
M  V30 489 N 44.343 -0.763751 1.37857 0
M  V30 490 C 45.62 -1.51244 1.24035 0
M  V30 491 C 46 -2.10472 -0.162649 0
M  V30 492 O 45.348 -1.96206 -1.17112 0
M  V30 493 C 45.558 -2.58694 2.34261 0
M  V30 494 C 46.906 -3.25878 2.72193 0
M  V30 495 O 47.93 -2.68993 2.33497 0
M  V30 496 O 46.789 -4.2874 3.38887 0
M  V30 497 H 43.883 -0.670243 0.484462 0
M  V30 498 H 46.429 -0.800031 1.49658 0
M  V30 499 H 45.201 -2.13105 3.2818 0
M  V30 500 H 44.824 -3.37527 2.10146 0
M  V30 501 N 45.8211 -1.22559 -0.990812 0
M  V30 502 C 46.7841 -0.998863 -2.0629 0
M  V30 503 C 47.7841 0.0354834 -1.60761 0
M  V30 504 O 48.9741 -0.203231 -1.7301 0
M  V30 505 C 46.1061 -0.509203 -3.37076 0
M  V30 506 H 47.2991 -1.95014 -2.27837 0
M  V30 507 H 44.8521 -1.04456 -1.16269 0
M  V30 508 H 45.5871 0.446335 -3.21214 0
M  V30 509 H 45.3721 -1.25547 -3.71457 0
M  V30 510 H 46.8621 -0.370888 -4.1595 0
M  V30 511 N 47.2992 1.18797 -1.03562 0
M  V30 512 C 48.7102 1.70322 -0.764676 0
M  V30 513 C 49.0612 1.82708 0.714996 0
M  V30 514 O 48.1862 1.50299 1.55689 0
M  V30 515 C 48.7812 3.09356 -1.38145 0
M  V30 516 C 47.3402 3.58114 -1.15895 0
M  V30 517 C 46.4872 2.34798 -1.4753 0
M  V30 518 H 49.4382 1.03543 -1.20268 0
M  V30 519 H 49.4592 3.72378 -0.781977 0
M  V30 520 H 48.9712 3.00309 -2.45837 0
M  V30 521 H 47.0722 3.72464 -0.100544 0
M  V30 522 H 47.1852 4.4184 -1.8524 0
M  V30 523 H 45.5492 2.38464 -0.894829 0
M  V30 524 H 46.3322 2.28375 -2.56319 0
M  V30 525 N 48.7773 0.814389 1.34928 0
M  V30 526 C 49.7073 0.244827 2.32213 0
M  V30 527 C 50.6883 -0.634024 1.57842 0
M  V30 528 O 51.8733 -0.562676 1.8587 0
M  V30 529 C 49.0033 -0.601106 3.42058 0
M  V30 530 C 47.9573 0.179896 4.27622 0
M  V30 531 C 47.2833 -0.788237 5.28858 0
M  V30 532 C 48.5833 1.38329 5.03649 0
M  V30 533 H 50.2773 1.05763 2.80097 0
M  V30 534 H 47.8233 0.510029 1.34665 0
M  V30 535 H 49.7763 -1.00968 4.09125 0
M  V30 536 H 48.5003 -1.44688 2.92802 0
M  V30 537 H 47.1593 0.569739 3.62146 0
M  V30 538 H 46.8073 -1.62973 4.75866 0
M  V30 539 H 46.5073 -0.269942 5.8698 0
M  V30 540 H 48.0313 -1.19485 5.98795 0
M  V30 541 H 49.4453 1.04918 5.63618 0
M  V30 542 H 47.8423 1.83662 5.71304 0
M  V30 543 H 48.9123 2.16592 4.33839 0
M  V30 544 N 50.2554 -1.46986 0.568584 0
M  V30 545 C 51.5034 -2.02041 0.0487022 0
M  V30 546 C 51.8244 -1.44408 -1.31039 0
M  V30 547 O 51.0944 -0.623477 -1.85714 0
M  V30 548 H 49.6744 -0.746849 0.015014 0
M  V30 549 H 52.3364 -1.80257 0.741168 0
M  V30 550 H 51.4324 -3.12085 -0.0308961 0
M  V30 551 N 51.7335 -0.305618 -1.54608 0
M  V30 552 C 52.9615 0.304775 -2.04643 0
M  V30 553 C 53.3765 1.47167 -1.18268 0
M  V30 554 O 52.7335 1.81296 -0.209328 0
M  V30 555 C 52.7845 0.756564 -3.53495 0
M  V30 556 O 52.5055 -0.36389 -4.36586 0
M  V30 557 C 54.0065 1.43163 -4.19546 0
M  V30 558 H 51.2265 0.0655481 -0.667791 0
M  V30 559 H 53.7705 -0.446592 -1.99564 0
M  V30 560 H 51.9255 1.45794 -3.58919 0
M  V30 561 H 52.3395 -0.0113121 -5.24499 0
M  V30 562 H 53.8135 1.69886 -5.25207 0
M  V30 563 H 54.2905 2.37318 -3.69563 0
M  V30 564 H 54.8965 0.773307 -4.18211 0
M  V30 565 N 53.2116 1.57565 -0.0334293 0
M  V30 566 C 54.4596 1.91598 0.642999 0
M  V30 567 C 54.7806 0.910847 1.7242 0
M  V30 568 O 54.0506 -0.0469931 1.95844 0
M  V30 569 H 52.6306 0.707228 0.240496 0
M  V30 570 H 55.2926 1.94726 -0.0822488 0
M  V30 571 H 54.3886 2.92336 1.09298 0
M  V30 572 N 54.6897 -0.239769 1.55765 0
M  V30 573 C 55.6527 -1.28038 1.90103 0
M  V30 574 C 56.6527 -1.40723 0.778055 0
M  V30 575 O 57.8427 -1.39301 1.04599 0
M  V30 576 C 54.9747 -2.65702 2.13577 0
M  V30 577 H 56.1677 -0.988048 2.83157 0
M  V30 578 H 53.7207 -0.479382 1.48767 0
M  V30 579 H 54.4557 -3.00063 1.23015 0
M  V30 580 H 54.2407 -2.57875 2.95369 0
M  V30 581 H 55.7307 -3.40828 2.41301 0
M  V30 582 N 56.1678 -1.49265 -0.50573 0
M  V30 583 C 57.1158 -1.66065 -1.62866 0
M  V30 584 C 58.1098 -0.526636 -1.61006 0
M  V30 585 O 59.3158 -0.706126 -1.65571 0
M  V30 586 H 55.6908 -0.52356 -0.539805 0
M  V30 587 H 57.6618 -2.60329 -1.45848 0
M  V30 588 C 56.4108 -1.74008 -3.01026 0
M  V30 589 H 55.7338 -2.6064 -3.03161 0
M  V30 590 H 57.1738 -1.89798 -3.79147 0
M  V30 591 C 55.6328 -0.483868 -3.33407 0
M  V30 592 O 56.1628 0.392548 -3.99777 0
M  V30 593 N 54.3688 -0.348236 -2.88506 0
M  V30 594 H 53.9158 -1.06242 -2.34671 0
M  V30 595 H 53.8738 0.491204 -3.10539 0
M  V30 596 N 57.6459 0.756429 -1.3826 0
M  V30 597 C 59.0619 1.0591 -1.19395 0
M  V30 598 C 59.2619 2.01459 -0.0406567 0
M  V30 599 O 58.3179 2.44909 0.614467 0
M  V30 600 C 59.6309 1.64191 -2.51916 0
M  V30 601 C 61.1789 1.76376 -2.58574 0
M  V30 602 C 61.6539 2.38069 -3.91264 0
M  V30 603 N 63.1449 2.45503 -3.92788 0
M  V30 604 C 63.8799 2.94126 -4.92217 0
M  V30 605 N 63.3759 3.42805 -6.02043 0
M  V30 606 N 65.1689 2.9314 -4.7961 0
M  V30 607 H 57.3199 0.122313 -2.12048 0
M  V30 608 H 59.5829 0.116892 -0.940766 0
M  V30 609 H 59.2889 1.01451 -3.3675 0
M  V30 610 H 59.1629 2.6329 -2.70108 0
M  V30 611 H 61.5499 2.38244 -1.74137 0
M  V30 612 H 61.6309 0.759894 -2.44252 0
M  V30 613 H 61.2749 1.76835 -4.76121 0
M  V30 614 H 61.2049 3.39091 -4.02895 0
M  V30 615 H 63.6959 2.1107 -3.13461 0
M  V30 616 H 64.0089 3.78354 -6.73846 0
M  V30 617 H 62.3539 3.4087 -6.05667 0
M  V30 618 H 65.5449 2.54419 -3.92923 0
M  V30 619 H 65.7179 3.30721 -5.5725 0
M  V30 620 N 59.124 1.23083 0.984299 0
M  V30 621 C 60.401 0.9689 1.69917 0
M  V30 622 C 60.781 -0.513604 2.04757 0
M  V30 623 O 60.129 -1.48383 1.73767 0
M  V30 624 C 60.339 1.87518 2.94343 0
M  V30 625 C 61.687 2.13636 3.6694 0
M  V30 626 O 62.711 1.85036 3.04368 0
M  V30 627 O 61.57 2.62119 4.79537 0
M  V30 628 H 58.664 0.365095 0.742048 0
M  V30 629 H 61.21 1.34107 1.03987 0
M  V30 630 H 59.982 2.87756 2.65164 0
M  V30 631 H 59.605 1.50514 3.6801 0
M  V30 632 N 60.6021 -1.18246 1.0419 0
M  V30 633 C 61.5321 -2.24127 0.654914 0
M  V30 634 C 62.5131 -1.66617 -0.342451 0
M  V30 635 O 63.6981 -1.92924 -0.222277 0
M  V30 636 C 60.8281 -3.47295 0.0183757 0
M  V30 637 C 59.7821 -4.17563 0.939414 0
M  V30 638 C 59.1081 -5.34438 0.167286 0
M  V30 639 C 60.4081 -4.70917 2.25908 0
M  V30 640 H 62.1021 -2.56753 1.54007 0
M  V30 641 H 59.6481 -1.23414 0.74195 0
M  V30 642 H 61.6011 -4.20572 -0.264082 0
M  V30 643 H 60.3251 -3.13907 -0.901664 0
M  V30 644 H 58.9841 -3.46186 1.20628 0
M  V30 645 H 58.6321 -4.97298 -0.7552 0
M  V30 646 H 58.3321 -5.82388 0.780901 0
M  V30 647 H 59.8561 -6.10504 -0.108125 0
M  V30 648 H 61.2701 -5.35882 2.03724 0
M  V30 649 H 59.6671 -5.29406 2.82577 0
M  V30 650 H 60.7371 -3.88272 2.9047 0
M  V30 651 N 62.0802 -0.821533 -1.34494 0
M  V30 652 C 62.9902 -0.244355 -2.33324 0
M  V30 653 C 64.0062 0.620527 -1.62559 0
M  V30 654 O 65.1822 0.528754 -1.94335 0
M  V30 655 C 62.2472 0.585368 -3.41723 0
M  V30 656 C 61.3082 -0.301752 -4.28238 0
M  V30 657 C 60.5412 0.488466 -5.3146 0
M  V30 658 O 60.7642 1.72186 -5.4379 0
M  V30 659 O 59.6982 -0.12848 -6.01763 0
M  V30 660 H 63.5242 -1.06231 -2.84515 0
M  V30 661 H 61.1092 -0.583645 -1.37528 0
M  V30 662 H 62.9912 1.05747 -4.07916 0
M  V30 663 H 61.6662 1.38068 -2.92778 0
M  V30 664 H 60.5732 -0.821315 -3.64973 0
M  V30 665 H 61.9062 -1.06138 -4.8062 0
M  V30 666 N 63.5583 1.46682 -0.576371 0
M  V30 667 C 64.4883 2.33028 0.148397 0
M  V30 668 C 65.4693 1.44961 0.889956 0
M  V30 669 O 66.6543 1.73789 0.866662 0
M  V30 670 C 63.7843 3.27117 1.1667 0
M  V30 671 C 62.7383 4.24575 0.540386 0
M  V30 672 C 62.0643 5.08126 1.6647 0
M  V30 673 C 63.3643 5.19722 -0.518331 0
M  V30 674 H 65.0583 2.93875 -0.572509 0
M  V30 675 H 62.6043 1.41315 -0.276768 0
M  V30 676 H 64.5573 3.86374 1.68204 0
M  V30 677 H 63.2813 2.64364 1.9178 0
M  V30 678 H 61.9403 3.66571 0.0461769 0
M  V30 679 H 61.5883 4.41762 2.40531 0
M  V30 680 H 61.2883 5.74122 1.25131 0
M  V30 681 H 62.8123 5.70246 2.18293 0
M  V30 682 H 64.2263 5.73232 -0.0883058 0
M  V30 683 H 62.6233 5.94026 -0.851679 0
M  V30 684 H 63.6933 4.64037 -1.40703 0
M  V30 685 N 65.0364 0.313813 1.54444 0
M  V30 686 C 66.4474 -0.176243 1.85866 0
M  V30 687 C 66.7984 -1.52405 1.23561 0
M  V30 688 O 65.9234 -2.09605 0.538016 0
M  V30 689 C 66.5184 -0.32657 3.37222 0
M  V30 690 C 65.0774 -0.760846 3.6863 0
M  V30 691 C 64.2244 0.123247 2.77026 0
M  V30 692 H 67.1754 0.534418 1.49431 0
M  V30 693 H 67.1964 -1.15908 3.62416 0
M  V30 694 H 66.7084 0.654531 3.82541 0
M  V30 695 H 64.8094 -1.75204 3.28838 0
M  V30 696 H 64.9224 -0.571353 4.75681 0
M  V30 697 H 63.2864 -0.399597 2.51546 0
M  V30 698 H 64.0694 1.10094 3.25168 0
M  V30 699 N 66.5145 -1.57545 0.0417849 0
M  V30 700 C 67.7605 -1.93424 -0.629168 0
M  V30 701 C 68.1155 -0.919564 -1.69002 0
M  V30 702 O 67.4085 0.0626178 -1.91498 0
M  V30 703 C 67.6025 -3.33794 -1.27735 0
M  V30 704 C 67.4315 -4.48822 -0.280806 0
M  V30 705 C 66.2015 -5.05148 0.123869 0
M  V30 706 C 68.3995 -5.12148 0.470012 0
M  V30 707 N 66.3815 -6.03703 1.11426 0
M  V30 708 C 67.7525 -6.05921 1.31377 0
M  V30 709 C 69.8075 -4.95078 0.529343 0
M  V30 710 C 68.5105 -6.84459 2.21152 0
M  V30 711 C 70.5365 -5.74235 1.41448 0
M  V30 712 C 69.8985 -6.67634 2.24598 0
M  V30 713 H 65.9975 -0.755418 -0.202158 0
M  V30 714 H 68.5815 -1.94378 0.111923 0
M  V30 715 H 66.7525 -3.33635 -1.98852 0
M  V30 716 H 68.4845 -3.56988 -1.90635 0
M  V30 717 H 65.2395 -4.72923 -0.253178 0
M  V30 718 H 65.6635 -6.57674 1.60607 0
M  V30 719 H 70.3055 -4.22683 -0.0992798 0
M  V30 720 H 68.0235 -7.56151 2.85063 0
M  V30 721 H 71.6095 -5.63057 1.46484 0
M  V30 722 H 70.4895 -7.27817 2.9198 0
M  V30 723 N 67.9926 0.231505 -1.5589 0
M  V30 724 C 68.9226 1.29022 -1.94617 0
M  V30 725 C 69.9036 1.4941 -0.813067 0
M  V30 726 O 71.0886 1.6176 -1.07459 0
M  V30 727 C 68.2186 2.64199 -2.25424 0
M  V30 728 C 67.1726 2.58484 -3.41131 0
M  V30 729 C 66.4986 3.97599 -3.57518 0
M  V30 730 C 67.7986 2.1413 -4.76388 0
M  V30 731 H 69.4926 0.968563 -2.83301 0
M  V30 732 H 67.0386 0.464479 -1.36303 0
M  V30 733 H 68.9916 3.38413 -2.51107 0
M  V30 734 H 67.7156 2.98032 -1.33583 0
M  V30 735 H 66.3746 1.86727 -3.15481 0
M  V30 736 H 66.0226 4.28723 -2.6307 0
M  V30 737 H 65.7226 3.94659 -4.35337 0
M  V30 738 H 67.2466 4.7349 -3.85538 0
M  V30 739 H 68.6606 2.78083 -5.01341 0
M  V30 740 H 67.0576 2.2227 -5.57419 0
M  V30 741 H 68.1276 1.09331 -4.72414 0
M  V30 742 N 69.4707 1.49531 0.497807 0
M  V30 743 C 70.3807 1.69176 1.62532 0
M  V30 744 C 71.3967 0.5744 1.64246 0
M  V30 745 O 72.5727 0.849497 1.82608 0
M  V30 746 C 69.6377 1.75695 2.98885 0
M  V30 747 C 68.6987 2.9929 3.07773 0
M  V30 748 C 67.9317 3.05488 4.37622 0
M  V30 749 O 68.1547 2.19192 5.26603 0
M  V30 750 O 67.0887 3.9798 4.51548 0
M  V30 751 H 70.9147 2.647 1.48887 0
M  V30 752 H 68.4997 1.3331 0.674441 0
M  V30 753 H 70.3817 1.82317 3.79919 0
M  V30 754 H 69.0567 0.8335 3.12785 0
M  V30 755 H 67.9637 2.98183 2.25915 0
M  V30 756 H 69.2967 3.91125 2.98801 0
M  V30 757 N 70.9488 -0.749086 1.3866 0
M  V30 758 C 71.8808 -1.87273 1.32142 0
M  V30 759 C 72.8938 -1.61127 0.232787 0
M  V30 760 O 74.0828 -1.71623 0.49069 0
M  V30 761 C 71.1828 -3.23005 1.02571 0
M  V30 762 C 70.3558 -3.7662 2.22433 0
M  V30 763 C 69.4148 -4.90879 1.89537 0
M  V30 764 O 68.4408 -5.05276 2.62078 0
M  V30 765 N 69.6428 -5.74198 0.853031 0
M  V30 766 H 72.4078 -1.93373 2.28969 0
M  V30 767 H 69.9688 -0.929216 1.32579 0
M  V30 768 H 71.9608 -3.96992 0.786085 0
M  V30 769 H 70.5308 -3.12262 0.145249 0
M  V30 770 H 69.7508 -2.94147 2.62434 0
M  V30 771 H 71.0388 -4.09173 3.02415 0
M  V30 772 H 70.4368 -5.6514 0.25155 0
M  V30 773 H 68.9938 -6.48313 0.67329 0
M  V30 774 N 72.4269 -1.23603 -0.977757 0
M  V30 775 C 73.3589 -0.977369 -2.07317 0
M  V30 776 C 74.3719 0.0495845 -1.62724 0
M  V30 777 O 75.5609 -0.186261 -1.77526 0
M  V30 778 C 72.6609 -0.451216 -3.35883 0
M  V30 779 C 71.8339 -1.53896 -4.09432 0
M  V30 780 C 70.8929 -1.01721 -5.16274 0
M  V30 781 O 69.9189 -1.70676 -5.43009 0
M  V30 782 N 71.1209 0.153594 -5.80297 0
M  V30 783 H 73.8859 -1.92047 -2.30082 0
M  V30 784 H 71.4469 -1.14497 -1.14465 0
M  V30 785 H 73.4389 -0.0871574 -4.04606 0
M  V30 786 H 72.0089 0.397368 -3.10064 0
M  V30 787 H 71.2289 -2.07566 -3.35127 0
M  V30 788 H 72.5169 -2.27037 -4.55337 0
M  V30 789 H 71.9149 0.730323 -5.60966 0
M  V30 790 H 70.4719 0.458892 -6.50183 0
M  V30 791 N 73.905 1.17692 -1.04816 0
M  V30 792 C 75.153 1.87488 -0.754497 0
M  V30 793 C 75.474 1.81205 0.720407 0
M  V30 794 O 74.744 1.23544 1.52032 0
M  V30 795 H 73.324 0.694101 -0.276102 0
M  V30 796 H 75.986 1.42793 -1.32651 0
M  V30 797 H 75.082 2.93328 -1.06606 0
M  V30 798 N 75.3831 0.828654 1.34056 0
M  V30 799 C 76.7941 0.477534 1.8049 0
M  V30 800 C 77.1451 -1.00258 1.6865 0
M  V30 801 O 76.2701 -1.78057 1.22982 0
M  V30 802 C 76.8651 0.860018 3.27703 0
M  V30 803 C 75.4241 0.561185 3.72193 0
M  V30 804 C 74.5711 1.07385 2.55663 0
M  V30 805 H 77.5221 1.0183 1.21722 0
M  V30 806 H 77.5431 0.166038 3.80138 0
M  V30 807 H 77.0551 1.93731 3.36288 0
M  V30 808 H 75.1561 -0.506465 3.69142 0
M  V30 809 H 75.2691 1.10926 4.66082 0
M  V30 810 H 73.6331 0.495149 2.49841 0
M  V30 811 H 74.4161 2.15771 2.67016 0
M  V30 812 N 76.8612 -1.46375 0.584142 0
M  V30 813 C 77.8242 -2.28784 -0.138108 0
M  V30 814 C 78.8242 -1.38471 -0.817462 0
M  V30 815 O 80.0142 -1.60833 -0.669199 0
M  V30 816 C 77.1462 -3.18892 -1.20503 0
M  V30 817 H 78.3392 -2.94117 0.586127 0
M  V30 818 H 75.8922 -1.52509 0.342171 0
M  V30 819 H 76.6272 -2.58309 -1.96079 0
M  V30 820 H 76.4122 -3.85388 -0.722384 0
M  V30 821 H 77.9022 -3.80914 -1.71155 0
M  V30 822 N 78.3393 -0.321999 -1.54275 0
M  V30 823 C 79.5643 0.285791 -2.05422 0
M  V30 824 C 79.9893 1.45124 -1.19669 0
M  V30 825 O 79.3473 1.80132 -0.205441 0
M  V30 826 C 79.3953 0.69956 -3.53749 0
M  V30 827 O 78.4993 1.8021 -3.70942 0
M  V30 828 H 77.8403 0.0518962 -0.661969 0
M  V30 829 H 80.3703 -0.469954 -1.9913 0
M  V30 830 H 80.3803 0.982649 -3.9599 0
M  V30 831 H 79.0553 -0.152864 -4.15619 0
M  V30 832 H 77.6323 1.51794 -3.40607 0
M  V30 833 N 79.8174 1.5752 -0.0501392 0
M  V30 834 C 80.7674 2.07981 0.934231 0
M  V30 835 C 81.7514 0.984745 1.27246 0
M  V30 836 O 82.9434 1.24809 1.25506 0
M  V30 837 C 80.0724 2.62751 2.20945 0
M  V30 838 C 79.1584 3.79225 1.89865 0
M  V30 839 N 79.5494 4.89036 1.29142 0
M  V30 840 C 77.8474 3.88111 2.19741 0
M  V30 841 C 78.5484 5.70084 1.15669 0
M  V30 842 N 77.5244 5.17659 1.65923 0
M  V30 843 H 81.3264 2.90277 0.460053 0
M  V30 844 H 78.8404 1.61665 0.15434 0
M  V30 845 H 80.8374 2.97205 2.9236 0
M  V30 846 H 79.4974 1.81894 2.6897 0
M  V30 847 H 80.5084 5.08854 0.963756 0
M  V30 848 H 77.1854 3.18194 2.70293 0
M  V30 849 H 78.5754 6.68395 0.685356 0
M  V30 850 N 81.2955 -0.223234 1.56011 0
M  V30 851 C 82.2455 -1.28008 1.88674 0
M  V30 852 C 83.2295 -1.42369 0.749663 0
M  V30 853 O 84.4215 -1.45212 1.01205 0
M  V30 854 C 81.5505 -2.63084 2.20548 0
M  V30 855 C 80.6365 -2.52632 3.40643 0
M  V30 856 N 81.0275 -2.11829 4.59306 0
M  V30 857 C 79.3255 -2.83594 3.44224 0
M  V30 858 C 80.0265 -2.12587 5.41463 0
M  V30 859 N 79.0025 -2.5301 4.81131 0
M  V30 860 H 82.8045 -0.955487 2.77935 0
M  V30 861 H 80.3185 -0.431801 1.56554 0
M  V30 862 H 82.3155 -3.39385 2.42122 0
M  V30 863 H 80.9755 -2.96391 1.32599 0
M  V30 864 H 81.9865 -1.82988 4.84496 0
M  V30 865 H 78.6635 -3.21284 2.66614 0
M  V30 866 H 80.0535 -1.83179 6.46448 0
M  V30 867 N 82.7736 -1.49793 -0.48987 0
M  V30 868 C 84.1896 -1.36803 -0.822022 0
M  V30 869 C 84.3896 -0.409652 -1.97292 0
M  V30 870 O 83.4456 0.154614 -2.52026 0
M  V30 871 C 84.7586 -2.77768 -1.15175 0
M  V30 872 C 86.3066 -2.86549 -1.25931 0
M  V30 873 C 86.7816 -4.28306 -1.62228 0
M  V30 874 N 88.2726 -4.31169 -1.69256 0
M  V30 875 C 89.0076 -5.37832 -1.98807 0
M  V30 876 N 88.5036 -6.54726 -2.26507 0
M  V30 877 N 90.2966 -5.25258 -2.00152 0
M  V30 878 H 82.4476 -2.10691 0.268881 0
M  V30 879 H 84.7106 -0.946241 0.057728 0
M  V30 880 H 84.4166 -3.49648 -0.379335 0
M  V30 881 H 84.2906 -3.13836 -2.09253 0
M  V30 882 H 86.6776 -2.14899 -2.02243 0
M  V30 883 H 86.7586 -2.54049 -0.298776 0
M  V30 884 H 86.4026 -5.00486 -0.864622 0
M  V30 885 H 86.3326 -4.58279 -2.594 0
M  V30 886 H 88.8236 -3.4687 -1.49965 0
M  V30 887 H 89.1366 -7.31833 -2.48276 0
M  V30 888 H 87.4816 -6.57933 -2.23939 0
M  V30 889 H 90.6726 -4.32938 -1.77996 0
M  V30 890 H 90.8456 -6.08476 -2.22848 0
M  V30 891 N 84.2517 0.741722 -1.39055 0
M  V30 892 C 85.6677 1.04638 -1.20512 0
M  V30 893 C 85.8677 2.01405 -0.0620218 0
M  V30 894 O 84.9237 2.45547 0.588457 0
M  V30 895 C 86.2367 1.6151 -2.53643 0
M  V30 896 C 87.7847 1.73623 -2.6043 0
M  V30 897 C 88.2597 2.33906 -3.93767 0
M  V30 898 N 89.7507 2.41323 -3.9537 0
M  V30 899 C 90.4857 2.88888 -4.95309 0
M  V30 900 N 89.9817 3.36401 -6.05645 0
M  V30 901 N 91.7747 2.88037 -4.82692 0
M  V30 902 H 83.9257 0.0998155 -2.12165 0
M  V30 903 H 86.1887 0.106907 -0.941953 0
M  V30 904 H 85.8947 0.978739 -3.37807 0
M  V30 905 H 85.7687 2.60411 -2.72885 0
M  V30 906 H 88.1557 2.36384 -1.76655 0
M  V30 907 H 88.2367 0.733945 -2.45045 0
M  V30 908 H 87.8807 1.71776 -4.7797 0
M  V30 909 H 87.8107 3.34799 -4.06469 0
M  V30 910 H 90.3017 2.07734 -3.15682 0
M  V30 911 H 90.6147 3.71186 -6.77821 0
M  V30 912 H 88.9597 3.34427 -6.09248 0
M  V30 913 H 92.1507 2.50237 -3.95599 0
M  V30 914 H 92.3237 3.24792 -5.60726 0
M  V30 915 N 85.7298 1.2412 0.971189 0
M  V30 916 C 86.6618 0.988349 2.06795 0
M  V30 917 C 87.6748 -0.0409541 1.62748 0
M  V30 918 O 88.8638 0.195673 1.77424 0
M  V30 919 C 85.9638 0.469023 3.35639 0
M  V30 920 C 85.1368 1.56065 4.08611 0
M  V30 921 C 84.1958 1.04458 5.15728 0
M  V30 922 O 83.2218 1.73553 5.42096 0
M  V30 923 N 84.4238 -0.122817 5.8037 0
M  V30 924 H 87.1888 1.93265 2.29061 0
M  V30 925 H 84.7498 1.15102 1.13856 0
M  V30 926 H 86.7418 0.108613 4.04554 0
M  V30 927 H 85.3118 -0.380919 3.1027 0
M  V30 928 H 84.5318 2.09341 3.34021 0
M  V30 929 H 85.8198 2.29449 4.54126 0
M  V30 930 H 85.2178 -0.700563 5.61345 0
M  V30 931 H 83.7748 -0.424404 6.50417 0
M  V30 932 N 87.2079 -1.17134 1.05439 0
M  V30 933 C 88.1379 -2.2342 0.678649 0
M  V30 934 C 89.1189 -1.66971 -0.32476 0
M  V30 935 O 90.3039 -1.93149 -0.201802 0
M  V30 936 C 87.4339 -3.47256 0.0552099 0
M  V30 937 C 86.3879 -4.16543 0.98365 0
M  V30 938 C 85.7139 -5.34231 0.223961 0
M  V30 939 C 87.0139 -4.68495 2.3089 0
M  V30 940 H 88.7079 -2.55105 1.56722 0
M  V30 941 H 86.2539 -1.2262 0.754998 0
M  V30 942 H 88.2069 -4.20828 -0.21946 0
M  V30 943 H 86.9309 -3.14846 -0.868319 0
M  V30 944 H 85.5899 -3.44887 1.24293 0
M  V30 945 H 85.2379 -4.98071 -0.702412 0
M  V30 946 H 84.9379 -5.81527 0.842627 0
M  V30 947 H 86.4619 -6.10585 -0.0433671 0
M  V30 948 H 87.8759 -5.33691 2.09396 0
M  V30 949 H 86.2729 -5.26379 2.88176 0
M  V30 950 H 87.3429 -3.85169 2.94572 0
M  V30 951 N 88.686 -0.835752 -1.33615 0
M  V30 952 C 89.934 -0.429109 -1.97492 0
M  V30 953 C 90.255 1.01433 -1.66543 0
M  V30 954 O 89.525 1.70611 -0.962744 0
M  V30 955 H 88.105 -0.155686 -0.730596 0
M  V30 956 H 90.767 -1.06802 -1.63031 0
M  V30 957 H 89.863 -0.55861 -3.0706 0
M  V30 958 N 90.1641 1.46063 -0.591896 0
M  V30 959 C 91.5751 1.85944 -0.167822 0
M  V30 960 C 91.9261 1.49429 1.27143 0
M  V30 961 O 91.0511 0.913515 1.96173 0
M  V30 962 C 91.6461 3.37489 -0.297794 0
M  V30 963 C 90.2051 3.76332 0.0714732 0
M  V30 964 C 89.3521 2.7006 -0.629509 0
M  V30 965 H 92.3031 1.37087 -0.799555 0
M  V30 966 H 92.3241 3.77532 0.474349 0
M  V30 967 H 91.8361 3.64034 -1.3454 0
M  V30 968 H 89.9371 3.55405 1.11886 0
M  V30 969 H 90.0501 4.78088 -0.311245 0
M  V30 970 H 88.4141 2.54607 -0.0687867 0
M  V30 971 H 89.1971 2.99444 -1.67894 0
M  V30 972 N 91.6422 0.330177 1.54103 0
M  V30 973 C 92.5742 -0.566902 2.22079 0
M  V30 974 C 93.5872 -1.07462 1.22294 0
M  V30 975 O 94.7762 -0.987065 1.48726 0
M  V30 976 C 91.8762 -1.79138 2.87685 0
M  V30 977 C 91.0492 -1.42123 4.13666 0
M  V30 978 C 90.1082 -2.50394 4.62806 0
M  V30 979 O 89.1342 -2.14261 5.27334 0
M  V30 980 N 90.3362 -3.81433 4.37595 0
M  V30 981 H 93.1012 0.0151844 2.99696 0
M  V30 982 H 90.6622 0.153681 1.61169 0
M  V30 983 H 92.6542 -2.50975 3.1748 0
M  V30 984 H 91.2242 -2.28115 2.13734 0
M  V30 985 H 90.4442 -0.534201 3.90564 0
M  V30 986 H 91.7322 -1.14971 4.9564 0
M  V30 987 H 91.1302 -4.13584 3.8596 0
M  V30 988 H 89.6872 -4.4948 4.72029 0
M  V30 989 N 93.1203 -1.57491 0.0584922 0
M  V30 990 C 94.3683 -1.92597 -0.612436 0
M  V30 991 C 94.6893 -0.938162 -1.70949 0
M  V30 992 O 93.9593 0.0158301 -1.95894 0
M  V30 993 H 92.5393 -0.710964 -0.229214 0
M  V30 994 H 95.2013 -1.94571 0.113218 0
M  V30 995 H 94.2973 -2.94038 -1.04633 0
M  V30 996 N 94.5984 0.214957 -1.56127 0
M  V30 997 C 96.0094 0.781386 -1.69562 0
M  V30 998 C 96.3604 1.84707 -0.66165 0
M  V30 999 O 95.4854 2.156 0.185927 0
M  V30 1000 C 96.0804 1.42411 -3.07416 0
M  V30 1001 C 94.6394 1.93786 -3.22683 0
M  V30 1002 C 93.7864 0.800438 -2.65496 0
M  V30 1003 H 96.7374 -0.00980633 -1.58697 0
M  V30 1004 H 96.7584 2.29309 -3.0364 0
M  V30 1005 H 96.2704 0.64826 -3.82648 0
M  V30 1006 H 94.3714 2.74152 -2.52332 0
M  V30 1007 H 94.4844 2.1133 -4.29973 0
M  V30 1008 H 92.8484 1.2095 -2.2415 0
M  V30 1009 H 93.6314 0.0371471 -3.4328 0
M  V30 1010 N 96.0765 1.50051 0.48192 0
M  V30 1011 C 97.4875 1.5348 1.06305 0
M  V30 1012 C 97.8385 0.331997 1.93371 0
M  V30 1013 O 96.9635 -0.556256 2.09129 0
M  V30 1014 C 97.5585 2.7813 1.93466 0
M  V30 1015 C 96.1175 2.84275 2.46707 0
M  V30 1016 C 95.2645 2.47637 1.24785 0
M  V30 1017 H 98.2155 1.56472 0.264995 0
M  V30 1018 H 98.2365 2.59372 2.78399 0
M  V30 1019 H 97.7485 3.65654 1.30072 0
M  V30 1020 H 95.8495 2.01077 3.13686 0
M  V30 1021 H 95.9625 3.8691 2.82555 0
M  V30 1022 H 94.3265 1.99835 1.57918 0
M  V30 1023 H 95.1095 3.37457 0.630694 0
M  V30 1024 N 97.5546 -0.734337 1.39446 0
M  V30 1025 C 98.5046 -1.83949 1.34709 0
M  V30 1026 C 99.4886 -1.59279 0.227851 0
M  V30 1027 O 100.681 -1.70771 0.465438 0
M  V30 1028 C 97.8096 -3.21884 1.19356 0
M  V30 1029 C 96.8956 -3.52381 2.35984 0
M  V30 1030 N 97.2866 -3.53811 3.61457 0
M  V30 1031 C 95.5846 -3.82747 2.28956 0
M  V30 1032 C 96.2856 -3.82122 4.38586 0
M  V30 1033 N 95.2616 -3.9993 3.68181 0
M  V30 1034 H 99.0636 -1.83361 2.29687 0
M  V30 1035 H 96.5776 -0.932609 1.32952 0
M  V30 1036 H 98.5746 -4.00998 1.14046 0
M  V30 1037 H 97.2346 -3.23711 0.253295 0
M  V30 1038 H 98.2456 -3.35107 3.94872 0
M  V30 1039 H 94.9226 -3.92175 1.43194 0
M  V30 1040 H 96.3126 -3.89691 5.47349 0
M  V30 1041 N 99.0327 -1.24633 -0.964593 0
M  V30 1042 C 99.9627 -1.06611 -2.07741 0
M  V30 1043 C 100.944 0.0218666 -1.70086 0
M  V30 1044 O 102.129 -0.145793 -1.93652 0
M  V30 1045 C 99.2587 -0.673444 -3.40708 0
M  V30 1046 C 98.2127 -1.71054 -3.92332 0
M  V30 1047 C 97.5387 -1.17285 -5.21678 0
M  V30 1048 C 98.8387 -3.10718 -4.19824 0
M  V30 1049 H 100.533 -1.99693 -2.23076 0
M  V30 1050 H 98.0787 -0.96152 -1.07195 0
M  V30 1051 H 100.032 -0.534345 -4.17998 0
M  V30 1052 H 98.7557 0.293073 -3.25282 0
M  V30 1053 H 97.4147 -1.83791 -3.17201 0
M  V30 1054 H 97.0627 -0.196847 -5.02615 0
M  V30 1055 H 96.7627 -1.86592 -5.57187 0
M  V30 1056 H 98.2867 -1.04593 -6.01575 0
M  V30 1057 H 99.7007 -3.01192 -4.87808 0
M  V30 1058 H 98.0977 -3.77406 -4.66567 0
M  V30 1059 H 99.1677 -3.58524 -3.26479 0
M  V30 1060 N 100.511 1.16574 -1.06058 0
M  V30 1061 C 101.757 1.87324 -0.777022 0
M  V30 1062 C 102.09 1.81351 0.694645 0
M  V30 1063 O 101.365 1.22753 1.50871 0
M  V30 1064 C 101.648 3.36991 -1.26922 0
M  V30 1065 C 101.501 3.51667 -2.80447 0
M  V30 1066 C 102.82 4.3131 -0.87521 0
M  V30 1067 H 99.9388 0.680191 -0.28374 0
M  V30 1068 H 102.581 1.37036 -1.3161 0
M  V30 1069 H 100.731 3.79949 -0.81063 0
M  V30 1070 H 102.403 3.17664 -3.34495 0
M  V30 1071 H 100.646 2.93656 -3.19294 0
M  V30 1072 H 101.317 4.56766 -3.0995 0
M  V30 1073 H 103.793 3.9624 -1.27014 0
M  V30 1074 H 102.669 5.34545 -1.2471 0
M  V30 1075 H 102.93 4.41552 0.220071 0
M  V30 1076 N 101.989 0.842826 1.3317 0
M  V30 1077 C 102.952 0.284065 2.27433 0
M  V30 1078 C 103.952 -0.54948 1.5112 0
M  V30 1079 O 105.142 -0.362699 1.70382 0
M  V30 1080 C 102.274 -0.599384 3.35589 0
M  V30 1081 H 103.467 1.11589 2.78366 0
M  V30 1082 H 101.02 0.616221 1.4364 0
M  V30 1083 H 101.755 -1.45349 2.89904 0
M  V30 1084 H 101.54 -0.00291266 3.921 0
M  V30 1085 H 103.03 -0.983488 4.05854 0
M  V30 1086 N 103.467 -1.45747 0.599634 0
M  V30 1087 C 104.744 -1.95585 0.0240846 0
M  V30 1088 C 105.124 -1.54217 -1.44154 0
M  V30 1089 O 104.472 -0.800903 -2.14004 0
M  V30 1090 C 104.682 -3.48344 0.21385 0
M  V30 1091 C 106.03 -4.24504 0.0904902 0
M  V30 1092 O 107.054 -3.55911 0.143558 0
M  V30 1093 O 105.913 -5.46491 -0.0310766 0
M  V30 1094 H 103.007 -0.82602 -0.0402478 0
M  V30 1095 H 105.553 -1.55951 0.669139 0
M  V30 1096 H 104.325 -3.71397 1.23206 0
M  V30 1097 H 103.948 -3.9485 -0.466842 0
M  V30 1098 N 104.945 -0.338344 -1.53925 0
M  V30 1099 C 106.356 0.146651 -1.86123 0
M  V30 1100 C 106.707 1.5042 -1.2597 0
M  V30 1101 O 105.832 2.08723 -0.571294 0
M  V30 1102 C 106.427 0.272879 -3.37699 0
M  V30 1103 C 104.986 0.702103 -3.69794 0
M  V30 1104 C 104.133 -0.167304 -2.76795 0
M  V30 1105 H 107.084 -0.558123 -1.48562 0
M  V30 1106 H 107.105 1.10128 -3.64214 0
M  V30 1107 H 106.617 -0.715307 -3.81451 0
M  V30 1108 H 104.718 1.6995 -3.31584 0
M  V30 1109 H 104.831 0.495604 -4.7653 0
M  V30 1110 H 103.195 0.359527 -2.5215 0
M  V30 1111 H 103.978 -1.15253 -3.23375 0
M  V30 1112 N 106.423 1.57458 -0.0668435 0
M  V30 1113 C 107.648 1.9804 0.616027 0
M  V30 1114 C 108.073 0.944771 1.62652 0
M  V30 1115 O 107.431 -0.0902094 1.81075 0
M  V30 1116 C 107.479 3.37665 1.26549 0
M  V30 1117 O 106.583 3.36701 2.38131 0
M  V30 1118 H 105.924 0.644719 0.158849 0
M  V30 1119 H 108.454 2.04121 -0.139891 0
M  V30 1120 H 108.464 3.7474 1.6135 0
M  V30 1121 H 107.139 4.12573 0.525016 0
M  V30 1122 H 105.716 3.1139 2.0516 0
M  V30 1123 N 107.901 -0.206675 1.56239 0
M  V30 1124 C 108.848 -1.25617 1.93621 0
M  V30 1125 C 109.818 -1.45824 0.795274 0
M  V30 1126 O 111.003 -1.59148 1.05245 0
M  V30 1127 C 108.143 -2.59839 2.27107 0
M  V30 1128 C 107.256 -2.47308 3.54207 0
M  V30 1129 C 106.391 -3.74155 3.7707 0
M  V30 1130 C 105.43 -3.56407 4.97635 0
M  V30 1131 N 104.567 -4.75238 5.1681 0
M  V30 1132 H 109.407 -0.930383 2.83104 0
M  V30 1133 H 106.944 -0.448065 1.4011 0
M  V30 1134 H 108.902 -3.38021 2.44535 0
M  V30 1135 H 107.532 -2.90485 1.40778 0
M  V30 1136 H 106.584 -1.60483 3.4489 0
M  V30 1137 H 107.896 -2.30122 4.42544 0
M  V30 1138 H 107.05 -4.60778 3.94675 0
M  V30 1139 H 105.789 -3.94282 2.87042 0
M  V30 1140 H 104.794 -2.68168 4.79964 0
M  V30 1141 H 106.019 -3.37736 5.89161 0
M  V30 1142 H 103.965 -4.95651 4.29728 0
M  V30 1143 H 103.882 -4.60835 5.99306 0
M  V30 1144 H 105.15 -5.63246 5.38864 0
M  V30 1145 N 109.379 -1.50304 -0.473955 0
M  V30 1146 C 110.326 -1.68959 -1.57231 0
M  V30 1147 C 111.296 -0.530899 -1.57387 0
M  V30 1148 O 112.481 -0.761133 -1.74961 0
M  V30 1149 C 109.621 -1.7871 -2.95223 0
M  V30 1150 C 108.734 -3.06061 -3.04878 0
M  V30 1151 C 107.869 -3.06626 -4.33767 0
M  V30 1152 C 106.908 -4.28443 -4.37154 0
M  V30 1153 N 106.045 -4.26763 -5.5751 0
M  V30 1154 H 110.885 -2.6273 -1.40631 0
M  V30 1155 H 108.422 -1.30241 -0.683789 0
M  V30 1156 H 110.38 -1.82344 -3.75242 0
M  V30 1157 H 109.01 -0.883806 -3.10465 0
M  V30 1158 H 108.062 -3.11911 -2.17751 0
M  V30 1159 H 109.374 -3.96039 -3.0324 0
M  V30 1160 H 108.528 -3.08973 -5.22131 0
M  V30 1161 H 107.267 -2.14473 -4.3801 0
M  V30 1162 H 106.272 -4.2631 -3.47188 0
M  V30 1163 H 107.497 -5.2182 -4.34605 0
M  V30 1164 H 105.443 -3.37462 -5.62544 0
M  V30 1165 H 105.36 -5.10507 -5.57601 0
M  V30 1166 H 106.628 -4.33253 -6.48006 0
M  V30 1167 N 110.857 0.726932 -1.39834 0
M  V30 1168 C 111.789 1.85147 -1.35104 0
M  V30 1169 C 112.802 1.60736 -0.258392 0
M  V30 1170 O 113.991 1.70821 -0.517931 0
M  V30 1171 C 111.091 3.21332 -1.07697 0
M  V30 1172 C 110.264 3.73033 -2.28396 0
M  V30 1173 C 109.323 4.87802 -1.97322 0
M  V30 1174 O 108.349 5.01043 -2.70083 0
M  V30 1175 N 109.551 5.72768 -0.944273 0
M  V30 1176 H 112.316 1.89706 -2.32017 0
M  V30 1177 H 109.877 0.908006 -1.3404 0
M  V30 1178 H 111.869 3.95691 -0.849144 0
M  V30 1179 H 110.439 3.11992 -0.194909 0
M  V30 1180 H 109.659 2.89934 -2.6708 0
M  V30 1181 H 110.947 4.0431 -3.08887 0
M  V30 1182 H 110.345 5.64669 -0.341427 0
M  V30 1183 H 108.902 6.4716 -0.776346 0
M  V30 1184 N 112.336 1.25143 0.95797 0
M  V30 1185 C 113.584 1.09476 1.69881 0
M  V30 1186 C 113.905 -0.365502 1.91544 0
M  V30 1187 O 113.175 -1.25985 1.50015 0
M  V30 1188 H 111.755 0.402128 0.629525 0
M  V30 1189 H 114.417 1.57214 1.15194 0
M  V30 1190 H 113.513 1.60046 2.6794 0
M  V30 1191 N 113.814 -1.1601 1.06675 0
M  V30 1192 C 115.225 -1.68235 0.809565 0
M  V30 1193 C 115.576 -1.8454 -0.666303 0
M  V30 1194 O 114.701 -1.54374 -1.5165 0
M  V30 1195 C 115.296 -3.05585 1.46299 0
M  V30 1196 C 113.855 -3.54915 1.25349 0
M  V30 1197 C 113.002 -2.30804 1.53703 0
M  V30 1198 H 115.953 -1.00318 1.22971 0
M  V30 1199 H 115.974 -3.70174 0.880431 0
M  V30 1200 H 115.486 -2.93686 2.53713 0
M  V30 1201 H 113.587 -3.72067 0.199261 0
M  V30 1202 H 113.7 -4.36774 1.9689 0
M  V30 1203 H 112.064 -2.36007 0.957739 0
M  V30 1204 H 112.847 -2.21499 2.62284 0
M  V30 1205 N 115.292 -0.849877 -1.32721 0
M  V30 1206 C 116.538 -0.460855 -1.9811 0
M  V30 1207 C 116.893 0.971716 -1.66059 0
M  V30 1208 O 116.186 1.67184 -0.935944 0
M  V30 1209 C 116.38 -0.631272 -3.51781 0
M  V30 1210 C 116.209 -2.07886 -3.98765 0
M  V30 1211 C 114.979 -2.71637 -4.26077 0
M  V30 1212 C 117.177 -3.04889 -4.14182 0
M  V30 1213 N 115.159 -4.07356 -4.59276 0
M  V30 1214 C 116.53 -4.25583 -4.50865 0
M  V30 1215 C 118.585 -3.01148 -3.96503 0
M  V30 1216 C 117.288 -5.43027 -4.71714 0
M  V30 1217 C 119.314 -4.17832 -4.18533 0
M  V30 1218 C 118.676 -5.37284 -4.55528 0
M  V30 1219 H 114.775 -0.217283 -0.751207 0
M  V30 1220 H 117.359 -1.10026 -1.60631 0
M  V30 1221 H 115.53 -0.0215966 -3.88394 0
M  V30 1222 H 117.262 -0.212614 -4.04141 0
M  V30 1223 H 114.017 -2.22705 -4.17971 0
M  V30 1224 H 114.441 -4.77351 -4.80068 0
M  V30 1225 H 119.083 -2.0992 -3.67006 0
M  V30 1226 H 116.801 -6.34791 -5.00066 0
M  V30 1227 H 120.387 -4.16368 -4.06361 0
M  V30 1228 H 119.267 -6.26071 -4.72234 0
M  V30 1229 N 116.77 1.45427 -0.607355 0
M  V30 1230 C 117.7 2.3329 0.0989352 0
M  V30 1231 C 118.681 1.46816 0.859007 0
M  V30 1232 O 119.866 1.75588 0.829604 0
M  V30 1233 C 116.996 3.29518 1.09705 0
M  V30 1234 C 115.95 4.25626 0.450206 0
M  V30 1235 C 115.276 5.11542 1.55655 0
M  V30 1236 C 116.576 5.18505 -0.628455 0
M  V30 1237 H 118.27 2.92595 -0.634716 0
M  V30 1238 H 115.816 1.40696 -0.306681 0
M  V30 1239 H 117.769 3.89855 1.59971 0
M  V30 1240 H 116.493 2.68372 1.86129 0
M  V30 1241 H 115.152 3.66586 -0.0315886 0
M  V30 1242 H 114.8 4.46765 2.31107 0
M  V30 1243 H 114.5 5.76647 1.12925 0
M  V30 1244 H 116.024 5.74748 2.06148 0
M  V30 1245 H 117.438 5.72916 -0.209877 0
M  V30 1246 H 115.835 5.92085 -0.977489 0
M  V30 1247 H 116.905 4.60948 -1.50514 0
M  V30 1248 N 118.248 0.346503 1.53744 0
M  V30 1249 C 119.158 -0.517293 2.28826 0
M  V30 1250 C 120.174 -1.10935 1.3405 0
M  V30 1251 O 121.35 -1.1244 1.6709 0
M  V30 1252 C 118.415 -1.65098 3.04866 0
M  V30 1253 C 117.476 -1.0884 4.15274 0
M  V30 1254 C 116.709 -2.16806 4.87679 0
M  V30 1255 O 116.932 -3.3758 4.59778 0
M  V30 1256 O 115.866 -1.80934 5.74061 0
M  V30 1257 H 119.692 0.0931396 3.03557 0
M  V30 1258 H 117.277 0.111458 1.48984 0
M  V30 1259 H 119.159 -2.31053 3.5241 0
M  V30 1260 H 117.834 -2.24717 2.32989 0
M  V30 1261 H 116.741 -0.3933 3.72027 0
M  V30 1262 H 118.074 -0.537036 4.89261 0
M  V30 1263 N 119.726 -1.57421 0.075193 0
M  V30 1264 C 120.636 -2.1642 -0.905511 0
M  V30 1265 C 121.652 -1.12828 -1.32461 0
M  V30 1266 O 122.828 -1.45109 -1.39661 0
M  V30 1267 C 119.893 -2.71693 -2.15369 0
M  V30 1268 C 118.954 -3.90171 -1.79068 0
M  V30 1269 C 118.187 -4.42798 -2.97936 0
M  V30 1270 O 118.41 -3.94416 -4.12058 0
M  V30 1271 O 117.344 -5.34085 -2.77555 0
M  V30 1272 H 121.17 -3.00588 -0.433626 0
M  V30 1273 H 118.755 -1.48664 -0.148067 0
M  V30 1274 H 120.637 -3.07104 -2.88557 0
M  V30 1275 H 119.312 -1.90582 -2.61649 0
M  V30 1276 H 118.219 -3.59606 -1.03122 0
M  V30 1277 H 119.552 -4.72584 -1.37569 0
M  V30 1278 N 121.204 0.198386 -1.56346 0
M  V30 1279 C 122.114 1.2664 -1.97483 0
M  V30 1280 C 123.13 1.49989 -0.882002 0
M  V30 1281 O 124.306 1.62668 -1.18748 0
M  V30 1282 C 121.371 2.59141 -2.30319 0
M  V30 1283 C 120.432 2.43892 -3.53292 0
M  V30 1284 C 119.665 3.70074 -3.84553 0
M  V30 1285 O 119.888 4.74101 -3.1715 0
M  V30 1286 O 118.822 3.658 -4.7799 0
M  V30 1287 H 122.648 0.947304 -2.88548 0
M  V30 1288 H 120.233 0.403123 -1.43859 0
M  V30 1289 H 122.115 3.37352 -2.5253 0
M  V30 1290 H 120.79 2.90684 -1.42423 0
M  V30 1291 H 119.697 1.63803 -3.36332 0
M  V30 1292 H 121.03 2.17282 -4.41644 0
M  V30 1293 N 122.682 1.50554 0.465978 0
M  V30 1294 C 123.592 1.72585 1.58907 0
M  V30 1295 C 124.608 0.60911 1.6299 0
M  V30 1296 O 125.784 0.88804 1.80765 0
M  V30 1297 C 122.849 1.81995 2.95091 0
M  V30 1298 C 121.91 3.05751 3.01355 0
M  V30 1299 C 121.143 3.14702 4.31043 0
M  V30 1300 O 121.366 2.30313 5.21835 0
M  V30 1301 O 120.3 4.07468 4.43005 0
M  V30 1302 H 124.126 2.67799 1.43239 0
M  V30 1303 H 121.711 1.34711 0.646013 0
M  V30 1304 H 123.593 1.90335 3.75966 0
M  V30 1305 H 122.268 0.899659 3.10947 0
M  V30 1306 H 121.175 3.02908 2.19539 0
M  V30 1307 H 122.508 3.97375 2.90437 0
M  V30 1308 N 124.16 -0.719506 1.40217 0
M  V30 1309 C 125.07 -1.86378 1.42479 0
M  V30 1310 C 126.086 -1.71073 0.317834 0
M  V30 1311 O 127.262 -1.93406 0.561794 0
M  V30 1312 C 124.327 -3.22136 1.28178 0
M  V30 1313 C 123.388 -3.49723 2.48982 0
M  V30 1314 C 122.621 -4.79004 2.35353 0
M  V30 1315 O 122.844 -5.53821 1.36524 0
M  V30 1316 O 121.778 -5.06839 3.2465 0
M  V30 1317 H 125.604 -1.87425 2.38968 0
M  V30 1318 H 123.189 -0.869405 1.21498 0
M  V30 1319 H 125.071 -4.03234 1.22395 0
M  V30 1320 H 123.746 -3.21825 0.347934 0
M  V30 1321 H 122.653 -2.6865 2.60342 0
M  V30 1322 H 123.986 -3.54828 3.41113 0
M  V30 1323 N 125.638 -1.25649 -0.95132 0
M  V30 1324 C 126.601 -1.06399 -2.03007 0
M  V30 1325 C 127.601 -0.0156794 -1.60792 0
M  V30 1326 O 128.791 -0.25817 -1.72276 0
M  V30 1327 C 125.923 -0.616184 -3.35285 0
M  V30 1328 H 127.116 -2.02164 -2.21517 0
M  V30 1329 H 124.669 -1.08103 -1.12887 0
M  V30 1330 H 125.404 0.343917 -3.22471 0
M  V30 1331 H 125.189 -1.37301 -3.67275 0
M  V30 1332 H 126.679 -0.503032 -4.14559 0
M  V30 1333 N 127.117 1.15442 -1.07289 0
M  V30 1334 C 128.347 1.89821 -0.815576 0
M  V30 1335 C 128.755 1.7823 0.634867 0
M  V30 1336 O 128.098 1.13152 1.44715 0
M  V30 1337 C 128.16 3.40817 -1.14385 0
M  V30 1338 C 127.824 3.76193 -2.59476 0
M  V30 1339 C 128.821 3.77269 -3.57721 0
M  V30 1340 C 126.506 4.0652 -2.95037 0
M  V30 1341 C 128.5 4.08176 -4.89562 0
M  V30 1342 C 126.187 4.37092 -4.27076 0
M  V30 1343 C 127.185 4.37902 -5.24148 0
M  V30 1344 O 126.873 4.67741 -6.53815 0
M  V30 1345 H 126.605 0.608465 -0.294528 0
M  V30 1346 H 129.159 1.472 -1.43252 0
M  V30 1347 H 127.389 3.83835 -0.469865 0
M  V30 1348 H 129.078 3.96485 -0.869179 0
M  V30 1349 H 129.844 3.5394 -3.3159 0
M  V30 1350 H 125.723 4.05049 -2.20128 0
M  V30 1351 H 129.267 4.08723 -5.65324 0
M  V30 1352 H 125.164 4.59889 -4.5296 0
M  V30 1353 H 125.932 4.85509 -6.58957 0
M  V30 1354 N 128.595 0.856903 1.32268 0
M  V30 1355 C 129.843 0.460474 1.96784 0
M  V30 1356 C 130.164 -0.987701 1.68135 0
M  V30 1357 O 129.434 -1.69058 0.989765 0
M  V30 1358 H 128.014 0.167289 0.728027 0
M  V30 1359 H 130.676 1.09383 1.61312 0
M  V30 1360 H 129.772 0.60739 3.06133 0
M  V30 1361 N 130.073 -1.45103 0.615059 0
M  V30 1362 C 131.319 -2.03035 0.121804 0
M  V30 1363 C 131.674 -1.47393 -1.23665 0
M  V30 1364 O 130.967 -0.642061 -1.80522 0
M  V30 1365 C 131.161 -3.57386 0.0318797 0
M  V30 1366 C 130.99 -4.28 1.38007 0
M  V30 1367 C 129.76 -4.65624 1.9627 0
M  V30 1368 C 131.958 -4.5948 2.31047 0
M  V30 1369 N 129.94 -5.21132 3.24492 0
M  V30 1370 C 131.311 -5.159 3.43872 0
M  V30 1371 C 133.366 -4.41423 2.30326 0
M  V30 1372 C 132.069 -5.56165 4.5615 0
M  V30 1373 C 134.095 -4.82726 3.41658 0
M  V30 1374 C 133.457 -5.39245 4.53205 0
M  V30 1375 H 129.556 -0.77702 0.0881159 0
M  V30 1376 H 132.14 -1.76819 0.815044 0
M  V30 1377 H 130.311 -3.83247 -0.630599 0
M  V30 1378 H 132.043 -4.01976 -0.468721 0
M  V30 1379 H 128.798 -4.49421 1.49392 0
M  V30 1380 H 129.222 -5.53377 3.90004 0
M  V30 1381 H 133.864 -3.97033 1.45343 0
M  V30 1382 H 131.582 -5.99517 5.41854 0
M  V30 1383 H 135.168 -4.7048 3.42257 0
M  V30 1384 H 134.048 -5.70616 5.37929 0
M  V30 1385 N 131.551 -0.354651 -1.53558 0
M  V30 1386 C 132.484 0.540273 -2.21712 0
M  V30 1387 C 133.462 1.09161 -1.2051 0
M  V30 1388 O 134.646 1.14979 -1.49372 0
M  V30 1389 C 131.773 1.74435 -2.90328 0
M  V30 1390 C 130.819 1.32146 -4.05512 0
M  V30 1391 S 131.652 0.331924 -5.3447 0
M  V30 1392 C 132.808 1.54258 -6.06593 0
M  V30 1393 H 133.041 -0.0385776 -2.97275 0
M  V30 1394 H 130.574 -0.138736 -1.53775 0
M  V30 1395 H 132.532 2.43507 -3.30476 0
M  V30 1396 H 131.193 2.29444 -2.1451 0
M  V30 1397 H 130.386 2.21952 -4.52497 0
M  V30 1398 H 129.988 0.710091 -3.67197 0
M  V30 1399 H 132.28 2.47534 -6.30661 0
M  V30 1400 H 133.223 1.11431 -6.99277 0
M  V30 1401 H 133.631 1.74367 -5.36895 0
M  V30 1402 N 133.029 1.57378 -0.0835403 0
M  V30 1403 C 134.306 1.85363 0.624507 0
M  V30 1404 C 134.686 0.978239 1.87066 0
M  V30 1405 O 134.034 0.0475908 2.2845 0
M  V30 1406 C 134.244 3.35795 0.950947 0
M  V30 1407 C 135.592 4.03581 1.31939 0
M  V30 1408 O 136.616 3.40609 1.04232 0
M  V30 1409 O 135.475 5.14672 1.83779 0
M  V30 1410 H 132.569 0.766162 0.311329 0
M  V30 1411 H 135.115 1.69307 -0.115362 0
M  V30 1412 H 133.887 3.91244 0.0663899 0
M  V30 1413 H 133.51 3.57154 1.74719 0
M  V30 1414 N 134.507 -0.190092 1.56449 0
M  V30 1415 C 135.754 -0.909705 1.80916 0
M  V30 1416 C 136.082 -1.83047 0.657583 0
M  V30 1417 O 135.337 -1.92428 -0.356356 0
M  V30 1418 C 135.636 -1.75382 3.1141 0
M  V30 1419 C 135.302 -0.983606 4.40041 0
M  V30 1420 C 133.964 -0.770967 4.74984 0
M  V30 1421 C 136.316 -0.442024 5.19322 0
M  V30 1422 C 133.644 -0.0053448 5.867 0
M  V30 1423 C 135.996 0.310412 6.31838 0
M  V30 1424 C 134.66 0.534023 6.6536 0
M  V30 1425 H 133.93 -0.332885 0.662019 0
M  V30 1426 H 136.577 -0.175762 1.90692 0
M  V30 1427 H 134.882 -2.55659 2.96893 0
M  V30 1428 H 136.579 -2.31331 3.27547 0
M  V30 1429 H 133.169 -1.15936 4.12622 0
M  V30 1430 H 137.353 -0.593693 4.92736 0
M  V30 1431 H 132.609 0.177825 6.11141 0
M  V30 1432 H 136.783 0.737419 6.92485 0
M  V30 1433 H 134.41 1.12918 7.51767 0
M  V30 1434 N 135.985 -1.50799 -0.457987 0
M  V30 1435 C 137.233 -1.62121 -1.2067 0
M  V30 1436 C 137.554 -0.329793 -1.92191 0
M  V30 1437 O 136.824 0.653409 -1.84682 0
M  V30 1438 H 135.404 -0.597441 -0.448411 0
M  V30 1439 H 138.066 -1.87637 -0.527096 0
M  V30 1440 H 137.162 -2.43882 -1.94751 0
M  V30 1441 N 137.463 0.71206 -1.40597 0
M  V30 1442 C 138.879 1.02058 -1.22704 0
M  V30 1443 C 139.079 2.01228 -0.104729 0
M  V30 1444 O 138.135 2.4674 0.53624 0
M  V30 1445 C 139.448 1.56094 -2.57012 0
M  V30 1446 C 140.996 1.6806 -2.64054 0
M  V30 1447 C 141.471 2.25501 -3.9864 0
M  V30 1448 N 142.962 2.32882 -4.004 0
M  V30 1449 C 143.697 2.78317 -5.01325 0
M  V30 1450 N 143.193 3.23478 -6.12645 0
M  V30 1451 N 144.986 2.77733 -4.88693 0
M  V30 1452 H 137.137 0.0547896 -2.12329 0
M  V30 1453 H 139.4 0.0869027 -0.944008 0
M  V30 1454 H 139.106 0.906865 -3.39807 0
M  V30 1455 H 138.98 2.54564 -2.78347 0
M  V30 1456 H 141.367 2.32583 -1.81629 0
M  V30 1457 H 141.448 0.681802 -2.46546 0
M  V30 1458 H 141.092 1.61598 -4.81506 0
M  V30 1459 H 141.022 3.26102 -4.13479 0
M  V30 1460 H 143.513 2.00991 -3.20017 0
M  V30 1461 H 143.826 3.56725 -6.85542 0
M  V30 1462 H 142.171 3.21429 -6.16205 0
M  V30 1463 H 145.362 2.4179 -4.00818 0
M  V30 1464 H 145.535 3.12826 -5.67489 0
M  V30 1465 N 138.941 1.26152 0.944643 0
M  V30 1466 C 140.357 1.03189 1.21754 0
M  V30 1467 C 140.557 -0.245112 2.00004 0
M  V30 1468 O 139.613 -0.955176 2.33736 0
M  V30 1469 C 140.926 2.26119 1.98219 0
M  V30 1470 C 142.474 2.30984 2.11224 0
M  V30 1471 C 142.949 3.53597 2.91089 0
M  V30 1472 N 144.44 3.54053 2.98664 0
M  V30 1473 C 145.175 4.45593 3.60881 0
M  V30 1474 N 144.671 5.47416 4.24626 0
M  V30 1475 N 146.464 4.33252 3.58119 0
M  V30 1476 H 138.615 2.08177 0.421437 0
M  V30 1477 H 140.878 0.914723 0.248969 0
M  V30 1478 H 140.584 3.18984 1.48128 0
M  V30 1479 H 140.458 2.3009 2.98895 0
M  V30 1480 H 142.845 1.38635 2.60508 0
M  V30 1481 H 142.926 2.31026 1.09821 0
M  V30 1482 H 142.57 4.46273 2.42493 0
M  V30 1483 H 142.5 3.50802 3.92741 0
M  V30 1484 H 144.991 2.80403 2.53343 0
M  V30 1485 H 145.304 6.13459 4.69987 0
M  V30 1486 H 143.649 5.51278 4.23223 0
M  V30 1487 H 146.84 3.52924 3.0751 0
M  V30 1488 H 147.013 5.04786 4.06319 0
M  V30 1489 N 140.419 -1.14872 1.07899 0
M  V30 1490 C 141.644 -1.90202 0.826926 0
M  V30 1491 C 142.069 -1.77774 -0.614664 0
M  V30 1492 O 141.427 -1.11431 -1.43013 0
M  V30 1493 C 141.475 -3.38352 1.24702 0
M  V30 1494 O 140.579 -4.10497 0.39575 0
M  V30 1495 H 139.92 -0.591968 0.300782 0
M  V30 1496 H 142.45 -1.45437 1.43907 0
M  V30 1497 H 142.46 -3.89156 1.22563 0
M  V30 1498 H 141.135 -3.46715 2.29698 0
M  V30 1499 H 139.712 -3.69796 0.480117 0
M  V30 1500 N 141.898 -0.863906 -1.31812 0
M  V30 1501 C 142.861 -0.320212 -2.26952 0
M  V30 1502 C 143.861 0.525369 -1.51975 0
M  V30 1503 O 145.051 0.335547 -1.70938 0
M  V30 1504 C 142.183 0.545919 -3.365 0
M  V30 1505 H 143.376 -1.16004 -2.76556 0
M  V30 1506 H 140.929 -0.638995 -1.42641 0
M  V30 1507 H 141.664 1.40718 -2.92179 0
M  V30 1508 H 141.449 -0.0594674 -3.92055 0
M  V30 1509 H 142.939 0.918796 -4.07367 0
M  V30 1510 N 143.376 1.44774 -0.622745 0
M  V30 1511 C 144.286 2.34433 0.0886031 0
M  V30 1512 C 145.302 1.52131 0.844529 0
M  V30 1513 O 146.478 1.84886 0.798691 0
M  V30 1514 C 143.543 3.29986 1.0635 0
M  V30 1515 C 142.604 4.28195 0.307873 0
M  V30 1516 C 141.837 5.19183 1.23633 0
M  V30 1517 O 142.06 5.13918 2.47476 0
M  V30 1518 O 140.994 5.97515 0.725189 0
M  V30 1519 H 144.82 2.96693 -0.648599 0
M  V30 1520 H 142.405 1.44408 -0.382957 0
M  V30 1521 H 144.287 3.88825 1.6246 0
M  V30 1522 H 142.962 2.70269 1.78146 0
M  V30 1523 H 141.869 3.72927 -0.296064 0
M  V30 1524 H 143.202 4.90808 -0.3699 0
M  V30 1525 N 144.854 0.36279 1.53368 0
M  V30 1526 C 146.131 -0.284021 1.93527 0
M  V30 1527 C 146.511 -1.66628 1.29608 0
M  V30 1528 O 145.859 -2.23942 0.45413 0
M  V30 1529 C 146.069 -0.337028 3.47369 0
M  V30 1530 C 147.417 -0.578708 4.20638 0
M  V30 1531 O 148.441 -0.418352 3.53735 0
M  V30 1532 O 147.3 -0.89074 5.39192 0
M  V30 1533 H 144.394 -0.169743 0.809393 0
M  V30 1534 H 146.94 0.41537 1.64538 0
M  V30 1535 H 145.712 0.632217 3.86159 0
M  V30 1536 H 145.335 -1.08243 3.82582 0
M  V30 1537 N 146.332 -1.57332 0.0918853 0
M  V30 1538 C 147.242 -2.17368 -0.882505 0
M  V30 1539 C 148.258 -1.14226 -1.31257 0
M  V30 1540 O 149.434 -1.46582 -1.38115 0
M  V30 1541 C 146.499 -2.73962 -2.12476 0
M  V30 1542 C 145.56 -3.92048 -1.7492 0
M  V30 1543 C 144.793 -4.45933 -2.93223 0
M  V30 1544 O 145.016 -3.98764 -4.07852 0
M  V30 1545 O 143.95 -5.36999 -2.71875 0
M  V30 1546 H 147.776 -3.01031 -0.40172 0
M  V30 1547 H 145.361 -1.48813 -0.132291 0
M  V30 1548 H 147.243 -3.10147 -2.85283 0
M  V30 1549 H 145.918 -1.93347 -2.59613 0
M  V30 1550 H 144.825 -3.6068 -0.993025 0
M  V30 1551 H 146.158 -4.74017 -1.32548 0
M  V30 1552 N 147.81 0.181792 -1.56548 0
M  V30 1553 C 148.758 1.24461 -1.965 0
M  V30 1554 C 149.752 1.464 -0.852261 0
M  V30 1555 O 150.958 1.47103 -1.03733 0
M  V30 1556 H 147.333 0.418138 -0.625031 0
M  V30 1557 H 149.304 0.880714 -2.85107 0
M  V30 1558 C 148.053 2.57891 -2.33212 0
M  V30 1559 H 147.376 2.41829 -3.18369 0
M  V30 1560 H 148.816 3.3097 -2.65019 0
M  V30 1561 C 147.275 3.15871 -1.17163 0
M  V30 1562 O 147.805 3.9913 -0.453708 0
M  V30 1563 N 146.011 2.74808 -0.944936 0
M  V30 1564 H 145.558 2.07205 -1.53049 0
M  V30 1565 H 145.516 3.13939 -0.170286 0
M  V30 1566 O 149.327 1.58157 0.326881 0
M  V30 1567 H 150.018 1.6734 0.975558 0
M  V30 END ATOM
M  V30 BEGIN BOND
M  V30 END BOND
M  V30 END CTAB
M  END
$$$$
