drugbank_target|P01374 Lymphotoxin-alpha (DB00005)
 OpenBabel12092119473D

  0  0  0     0  0            999 V3000
M  V30 BEGIN CTAB
M  V30 COUNTS 3162 3212 0 0 0
M  V30 BEGIN ATOM
M  V30 1 H -0.908 1.98254 -0.117106 0
M  V30 2 N 0 1.576 0 0
M  V30 3 C 0.933 2.03868 1.02534 0
M  V30 4 C 1.911 0.928543 1.3348 0
M  V30 5 O 3.095 1.19667 1.45644 0
M  V30 6 C 0.222 2.43627 2.35294 0
M  V30 7 C -0.732 3.65373 2.2001 0
M  V30 8 S 0.101 5.13292 1.52614 0
M  V30 9 C 1.257 5.56322 2.86805 0
M  V30 10 H 1.49 2.90518 0.631377 0
M  V30 11 H -0.977 1.52953 0.210867 0
M  V30 12 H 0.981 2.67203 3.11629 0
M  V30 13 H -0.358 1.57376 2.7183 0
M  V30 14 H -1.165 3.90944 3.18086 0
M  V30 15 H -1.563 3.418 1.51819 0
M  V30 16 H 0.729 5.58782 3.83104 0
M  V30 17 H 1.672 6.56266 2.65933 0
M  V30 18 H 2.08 4.83886 2.90714 0
M  V30 19 N 1.4781 -0.272755 1.55222 0
M  V30 20 C 2.7061 -1.02255 1.79865 0
M  V30 21 C 3.1211 -1.79924 0.572088 0
M  V30 22 O 2.4781 -1.76638 -0.458842 0
M  V30 23 C 2.5291 -1.98094 3.02392 0
M  V30 24 O 2.2501 -1.23572 4.20311 0
M  V30 25 C 3.7511 -2.84884 3.39641 0
M  V30 26 H 0.9711 -0.302057 0.599168 0
M  V30 27 H 3.5151 -0.303465 2.02236 0
M  V30 28 H 1.6701 -2.65465 2.82147 0
M  V30 29 H 2.0841 -1.88172 4.89583 0
M  V30 30 H 3.5581 -3.47927 4.28545 0
M  V30 31 H 4.0351 -3.54665 2.59055 0
M  V30 32 H 4.6411 -2.23003 3.62146 0
M  V30 33 N 2.9562 -1.48159 -0.537278 0
M  V30 34 C 4.3672 -1.49429 -1.11928 0
M  V30 35 C 4.7182 -0.26 -1.9447 0
M  V30 36 O 3.8432 0.633489 -2.0692 0
M  V30 37 C 4.4382 -2.70758 -2.03656 0
M  V30 38 C 2.9972 -2.74923 -2.57088 0
M  V30 39 C 2.1442 -2.42835 -1.3389 0
M  V30 40 H 5.0952 -1.55381 -0.322886 0
M  V30 41 H 5.1162 -2.48861 -2.87834 0
M  V30 42 H 4.6282 -3.60575 -1.43553 0
M  V30 43 H 2.7292 -1.89296 -3.20933 0
M  V30 44 H 2.8422 -3.76157 -2.9672 0
M  V30 45 H 1.2062 -1.93836 -1.65226 0
M  V30 46 H 1.9892 -3.34884 -0.755504 0
M  V30 47 N 4.4343 0.785586 -1.36625 0
M  V30 48 C 5.8453 1.36101 -1.27803 0
M  V30 49 C 6.1963 1.96035 0.0804875 0
M  V30 50 O 5.3213 1.92834 0.982042 0
M  V30 51 C 5.9163 2.47442 -2.31426 0
M  V30 52 C 4.4753 3.00789 -2.26281 0
M  V30 53 C 3.6223 1.73896 -2.15999 0
M  V30 54 H 6.5733 0.586928 -1.47448 0
M  V30 55 H 6.5943 3.2656 -1.95291 0
M  V30 56 H 6.1063 2.03791 -3.30289 0
M  V30 57 H 4.2073 3.48851 -1.30896 0
M  V30 58 H 4.3203 3.57343 -3.19128 0
M  V30 59 H 2.6843 1.9628 -1.62316 0
M  V30 60 H 3.4673 1.32368 -3.16755 0
M  V30 61 N 5.9124 1.20967 1.01018 0
M  V30 62 C 6.8224 0.980157 2.13143 0
M  V30 63 C 7.8384 -0.0660665 1.73875 0
M  V30 64 O 9.0144 0.122821 2.01025 0
M  V30 65 C 6.0794 0.54216 3.42435 0
M  V30 66 C 5.1404 1.65999 3.95908 0
M  V30 67 C 4.3734 1.2428 5.19028 0
M  V30 68 O 4.5964 0.114196 5.70286 0
M  V30 69 O 3.5304 2.05271 5.65816 0
M  V30 70 H 7.3564 1.91913 2.35379 0
M  V30 71 H 4.9414 0.994099 1.11526 0
M  V30 72 H 6.8234 0.30744 4.20277 0
M  V30 73 H 5.4984 -0.36815 3.216 0
M  V30 74 H 4.4054 1.94906 3.19316 0
M  V30 75 H 5.7384 2.54753 4.21143 0
M  V30 76 N 7.3905 -1.2043 1.01659 0
M  V30 77 C 8.8065 -1.41852 0.731442 0
M  V30 78 C 9.0065 -1.89358 -0.688898 0
M  V30 79 O 8.0625 -2.06247 -1.45666 0
M  V30 80 C 9.3755 -2.44019 1.75714 0
M  V30 81 C 10.9235 -2.57785 1.77527 0
M  V30 82 C 11.3985 -3.63194 2.79023 0
M  V30 83 N 12.8895 -3.70678 2.77763 0
M  V30 84 C 13.6245 -4.51897 3.52954 0
M  V30 85 N 13.1205 -5.36921 4.37821 0
M  V30 86 N 14.9135 -4.4643 3.41551 0
M  V30 87 H 7.0645 -0.879093 1.93354 0
M  V30 88 H 9.3275 -0.448425 0.835236 0
M  V30 89 H 9.0335 -2.1611 2.77469 0
M  V30 90 H 8.9075 -3.43007 1.56927 0
M  V30 91 H 11.2945 -2.85023 0.764569 0
M  V30 92 H 11.3755 -1.58992 2.00387 0
M  V30 93 H 11.0195 -3.36699 3.80258 0
M  V30 94 H 10.9495 -4.61609 2.53425 0
M  V30 95 H 13.4405 -3.09944 2.16201 0
M  V30 96 H 13.7535 -5.95981 4.91962 0
M  V30 97 H 12.0985 -5.36424 4.41899 0
M  V30 98 H 15.2895 -3.79042 2.74672 0
M  V30 99 H 15.4625 -5.09491 4.00404 0
M  V30 100 N 8.8686 -0.792821 -1.36206 0
M  V30 101 C 9.7986 -0.207853 -2.32573 0
M  V30 102 C 10.7796 0.659055 -1.56813 0
M  V30 103 O 11.9646 0.592176 -1.84951 0
M  V30 104 C 9.0946 0.655449 -3.41059 0
M  V30 105 C 8.0486 -0.111842 -4.27854 0
M  V30 106 C 7.3746 0.872274 -5.27537 0
M  V30 107 C 8.6746 -1.30299 -5.05786 0
M  V30 108 H 10.3686 -1.01294 -2.81744 0
M  V30 109 H 7.9146 -0.48854 -1.3546 0
M  V30 110 H 9.8676 1.07464 -4.07467 0
M  V30 111 H 8.5916 1.49328 -2.90463 0
M  V30 112 H 7.2506 -0.512053 -3.63006 0
M  V30 113 H 6.8986 1.70523 -4.73214 0
M  V30 114 H 6.5986 0.363291 -5.86476 0
M  V30 115 H 8.1226 1.28996 -5.96818 0
M  V30 116 H 9.5366 -0.959379 -5.65216 0
M  V30 117 H 7.9336 -1.7455 -5.74154 0
M  V30 118 H 9.0036 -2.09663 -4.37229 0
M  V30 119 N 10.3467 1.47872 -0.545128 0
M  V30 120 C 11.5937 2.02493 -0.0165858 0
M  V30 121 C 11.9217 1.42073 1.32836 0
M  V30 122 O 11.1767 0.561459 1.87473 0
M  V30 123 C 11.4757 3.57131 0.13867 0
M  V30 124 C 11.1417 4.36411 -1.13384 0
M  V30 125 C 9.8037 4.57792 -1.48256 0
M  V30 126 C 12.1557 4.82223 -1.97764 0
M  V30 127 C 9.4837 5.22233 -2.67376 0
M  V30 128 C 11.8357 5.47977 -3.16076 0
M  V30 129 C 10.4997 5.67593 -3.51275 0
M  V30 130 H 9.7697 0.740975 -0.00606918 0
M  V30 131 H 12.4167 1.77683 -0.714207 0
M  V30 132 H 10.7217 3.80865 0.919172 0
M  V30 133 H 12.4187 3.97031 0.562782 0
M  V30 134 H 9.0087 4.2004 -0.852297 0
M  V30 135 H 13.1927 4.65493 -1.72132 0
M  V30 136 H 8.4487 5.35616 -2.94831 0
M  V30 137 H 12.6227 5.8244 -3.81755 0
M  V30 138 H 10.2497 6.17298 -4.43675 0
M  V30 139 N 11.8248 0.280983 1.55075 0
M  V30 140 C 12.7548 -0.597469 2.25727 0
M  V30 141 C 13.7358 -1.15417 1.24952 0
M  V30 142 O 14.9208 -1.18722 1.53684 0
M  V30 143 C 12.0508 -1.7789 2.98283 0
M  V30 144 C 11.0048 -1.35347 4.06036 0
M  V30 145 C 10.3308 -2.61846 4.66198 0
M  V30 146 C 11.6308 -0.499354 5.19907 0
M  V30 147 H 13.3248 -0.00824265 2.99399 0
M  V30 148 H 10.8708 -0.0025244 1.44 0
M  V30 149 H 12.8238 -2.39937 3.46422 0
M  V30 150 H 11.5478 -2.39405 2.22155 0
M  V30 151 H 10.2068 -0.756156 3.58717 0
M  V30 152 H 9.8548 -3.21632 3.86732 0
M  V30 153 H 9.5548 -2.3409 5.38958 0
M  V30 154 H 11.0788 -3.24732 5.1709 0
M  V30 155 H 12.4928 -1.02498 5.64063 0
M  V30 156 H 10.8898 -0.316424 5.99265 0
M  V30 157 H 11.9598 0.480459 4.82514 0
M  V30 158 N 13.3029 -1.57598 0.00835791 0
M  V30 159 C 14.7139 -1.7892 -0.53333 0
M  V30 160 C 15.0649 -0.916609 -1.73473 0
M  V30 161 O 14.1899 -0.121336 -2.1606 0
M  V30 162 C 14.7849 -3.24488 -0.974313 0
M  V30 163 C 13.3439 -3.46878 -1.46125 0
M  V30 164 C 12.4909 -2.74157 -0.416302 0
M  V30 165 H 15.4419 -1.56958 0.234495 0
M  V30 166 H 15.4629 -3.3306 -1.83988 0
M  V30 167 H 14.9749 -3.87972 -0.099718 0
M  V30 168 H 13.0759 -2.8862 -2.35646 0
M  V30 169 H 13.1889 -4.55572 -1.48295 0
M  V30 170 H 11.5529 -2.39022 -0.87981 0
M  V30 171 H 12.3359 -3.40345 0.44947 0
M  V30 172 N 14.781 0.264519 -1.55364 0
M  V30 173 C 16.197 0.61215 -1.47394 0
M  V30 174 C 16.397 1.89134 -0.695018 0
M  V30 175 O 15.453 2.51563 -0.217275 0
M  V30 176 C 16.766 0.731235 -2.91674 0
M  V30 177 C 18.314 0.82473 -3.01939 0
M  V30 178 C 18.789 0.975522 -4.4749 0
M  V30 179 N 20.28 1.04083 -4.51354 0
M  V30 180 C 21.015 1.17646 -5.61201 0
M  V30 181 N 20.511 1.27874 -6.80896 0
M  V30 182 N 22.304 1.20823 -5.48961 0
M  V30 183 H 14.455 -0.575456 -2.04456 0
M  V30 184 H 16.718 -0.196099 -0.927496 0
M  V30 185 H 16.424 -0.138392 -3.51428 0
M  V30 186 H 16.298 1.60883 -3.41169 0
M  V30 187 H 18.685 1.68482 -2.42276 0
M  V30 188 H 18.766 -0.0776479 -2.55682 0
M  V30 189 H 18.41 0.120058 -5.07758 0
M  V30 190 H 18.34 1.89268 -4.91412 0
M  V30 191 H 20.831 0.973846 -3.65136 0
M  V30 192 H 21.144 1.38081 -7.60364 0
M  V30 193 H 19.489 1.24863 -6.83692 0
M  V30 194 H 22.68 1.12469 -4.54388 0
M  V30 195 H 22.853 1.31049 -6.3461 0
M  V30 196 N 16.2591 1.48442 0.529413 0
M  V30 197 C 17.5051 1.5672 1.28711 0
M  V30 198 C 17.8381 0.2406 1.92704 0
M  V30 199 O 17.1131 -0.753454 1.79313 0
M  V30 200 C 17.3961 2.70587 2.37603 0
M  V30 201 C 17.2491 4.12953 1.78297 0
M  V30 202 C 18.5681 2.80212 3.39366 0
M  V30 203 H 15.6871 0.570474 0.466613 0
M  V30 204 H 18.3291 1.80617 0.589706 0
M  V30 205 H 16.4791 2.50342 2.97088 0
M  V30 206 H 18.1511 4.44639 1.22858 0
M  V30 207 H 16.3941 4.19927 1.0883 0
M  V30 208 H 17.0651 4.88448 2.57144 0
M  V30 209 H 19.5411 2.98553 2.89836 0
M  V30 210 H 18.4171 3.61611 4.12951 0
M  V30 211 H 18.6781 1.88393 3.99951 0
M  V30 212 N 17.7372 -0.778329 1.37039 0
M  V30 213 C 18.9772 -1.54973 1.33276 0
M  V30 214 C 19.3412 -1.91816 -0.0839376 0
M  V30 215 O 20.5422 -2.6767 -0.246228 0
M  V30 216 C 18.8132 -2.78517 2.23971 0
M  V30 217 S 20.3722 -3.6865 2.37997 0
M  V30 218 H 17.1902 -0.530639 0.473226 0
M  V30 219 H 19.7922 -0.915806 1.72723 0
M  V30 220 H 18.4962 -2.4952 3.25835 0
M  V30 221 H 18.0272 -3.46875 1.85584 0
M  V30 222 H 20.0422 -4.70182 1.58567 0
M  V30 223 N 19.2153 -1.21501 -1.00376 0
M  V30 224 C 20.4633 -1.03095 -1.73827 0
M  V30 225 C 20.7843 0.436341 -1.90055 0
M  V30 226 O 20.0543 1.31466 -1.45236 0
M  V30 227 H 18.6343 -0.378487 -0.644016 0
M  V30 228 H 21.2963 -1.52831 -1.20949 0
M  V30 229 H 20.3923 -1.49991 -2.73695 0
M  V30 230 N 20.6934 1.19889 -1.02296 0
M  V30 231 C 21.9214 1.9339 -0.735399 0
M  V30 232 C 22.3364 1.75148 0.704887 0
M  V30 233 O 21.6934 1.06954 1.47875 0
M  V30 234 C 21.7444 3.45313 -1.06962 0
M  V30 235 O 21.4654 3.62964 -2.45334 0
M  V30 236 C 22.9664 4.35948 -0.804021 0
M  V30 237 H 20.1864 0.61448 -0.269546 0
M  V30 238 H 22.7304 1.522 -1.36585 0
M  V30 239 H 20.8854 3.84359 -0.484455 0
M  V30 240 H 21.2994 4.56886 -2.57595 0
M  V30 241 H 22.7734 5.41174 -1.0879 0
M  V30 242 H 23.2504 4.3842 0.261691 0
M  V30 243 H 23.8564 4.02574 -1.37164 0
M  V30 244 N 22.1715 0.800033 1.35784 0
M  V30 245 C 23.3995 0.389606 2.03199 0
M  V30 246 C 23.8145 -0.997375 1.60306 0
M  V30 247 O 23.1715 -1.64154 0.797481 0
M  V30 248 C 23.2225 0.455855 3.58614 0
M  V30 249 O 22.9435 1.78815 3.99946 0
M  V30 250 C 24.4445 0.0374032 4.43284 0
M  V30 251 H 21.6645 0.159132 0.651857 0
M  V30 252 H 24.2085 1.08183 1.73541 0
M  V30 253 H 22.3635 -0.188057 3.86943 0
M  V30 254 H 22.7775 1.74636 4.94573 0
M  V30 255 H 24.2515 0.134882 5.51835 0
M  V30 256 H 24.7285 -1.01651 4.27275 0
M  V30 257 H 25.3345 0.654215 4.20238 0
M  V30 258 N 23.6496 -1.47581 0.552962 0
M  V30 259 C 24.5796 -2.32762 -0.185451 0
M  V30 260 C 25.5606 -1.43527 -0.912905 0
M  V30 261 O 26.7456 -1.72388 -0.894201 0
M  V30 262 C 23.8756 -3.25219 -1.21859 0
M  V30 263 C 22.8296 -4.23661 -0.607864 0
M  V30 264 C 22.1556 -5.05413 -1.74533 0
M  V30 265 C 23.4556 -5.20481 0.435582 0
M  V30 266 H 25.1496 -2.94749 0.525684 0
M  V30 267 H 22.6956 -1.41738 0.254251 0
M  V30 268 H 24.6486 -3.8365 -1.7433 0
M  V30 269 H 23.3726 -2.61279 -1.95961 0
M  V30 270 H 22.0316 -3.66451 -0.104489 0
M  V30 271 H 21.6796 -4.3788 -2.47529 0
M  V30 272 H 21.3796 -5.72059 -1.34249 0
M  V30 273 H 22.9036 -5.66701 -2.27338 0
M  V30 274 H 24.3176 -5.733 -0.00290157 0
M  V30 275 H 22.7146 -5.95305 0.757067 0
M  V30 276 H 23.7846 -4.66217 1.33303 0
M  V30 277 N 25.1277 -0.289203 -1.54924 0
M  V30 278 C 26.0777 0.606939 -2.19773 0
M  V30 279 C 27.0617 1.10783 -1.16687 0
M  V30 280 O 28.2537 1.05057 -1.4245 0
M  V30 281 C 25.3827 1.78398 -2.93307 0
M  V30 282 C 24.4687 1.29961 -4.03697 0
M  V30 283 N 24.8597 0.532377 -5.0299 0
M  V30 284 C 23.1577 1.58136 -4.17024 0
M  V30 285 C 23.8587 0.275912 -5.81045 0
M  V30 286 N 22.8347 0.852365 -5.36876 0
M  V30 287 H 26.6367 0.0130779 -2.93897 0
M  V30 288 H 24.1507 -0.09341 -1.62131 0
M  V30 289 H 26.1477 2.43741 -3.38225 0
M  V30 290 H 24.8077 2.38166 -2.20697 0
M  V30 291 H 25.8187 0.17838 -5.17593 0
M  V30 292 H 22.4957 2.18738 -3.55612 0
M  V30 293 H 23.8857 -0.339502 -6.71042 0
M  V30 294 N 26.6058 1.57591 -0.0167156 0
M  V30 295 C 27.5358 2.12496 0.967858 0
M  V30 296 C 28.5168 1.03807 1.34752 0
M  V30 297 O 29.7018 1.31577 1.42833 0
M  V30 298 C 26.8318 2.64194 2.25431 0
M  V30 299 C 25.7858 3.77559 2.01576 0
M  V30 300 C 25.1118 4.15636 3.36379 0
M  V30 301 C 26.4118 5.04151 1.36489 0
M  V30 302 H 28.1058 2.95013 0.510643 0
M  V30 303 H 25.6518 1.41915 0.244181 0
M  V30 304 H 27.6048 3.01236 2.94678 0
M  V30 305 H 26.3288 1.78821 2.73296 0
M  V30 306 H 24.9878 3.40937 1.34751 0
M  V30 307 H 24.6358 3.27263 3.81979 0
M  V30 308 H 24.3358 4.92022 3.21229 0
M  V30 309 H 25.8598 4.5525 4.06915 0
M  V30 310 H 27.2738 5.38857 1.95718 0
M  V30 311 H 25.6708 5.85453 1.31776 0
M  V30 312 H 26.7408 4.83733 0.336219 0
M  V30 313 N 28.0839 -0.256276 1.55502 0
M  V30 314 C 29.0139 -1.32102 1.92539 0
M  V30 315 C 29.9949 -1.50684 0.789194 0
M  V30 316 O 31.1799 -1.63449 1.04872 0
M  V30 317 C 28.3099 -2.67752 2.21192 0
M  V30 318 C 27.2639 -2.63878 3.36975 0
M  V30 319 C 26.5899 -4.03236 3.51147 0
M  V30 320 C 27.8899 -2.21682 4.72921 0
M  V30 321 H 29.5839 -1.01351 2.81724 0
M  V30 322 H 27.1299 -0.486105 1.35547 0
M  V30 323 H 29.0829 -3.42365 2.45691 0
M  V30 324 H 27.8069 -3.0012 1.28824 0
M  V30 325 H 26.4659 -1.91722 3.12471 0
M  V30 326 H 26.1139 -4.32854 2.56216 0
M  V30 327 H 25.8139 -4.01535 4.29003 0
M  V30 328 H 27.3379 -4.79563 3.77957 0
M  V30 329 H 28.7519 -2.86023 4.96854 0
M  V30 330 H 27.1489 -2.3111 5.53812 0
M  V30 331 H 28.2189 -1.16833 4.70615 0
M  V30 332 N 29.562 -1.4872 -0.521534 0
M  V30 333 C 30.492 -1.66771 -1.63431 0
M  V30 334 C 31.473 -0.516499 -1.62069 0
M  V30 335 O 32.658 -0.750013 -1.79132 0
M  V30 336 C 29.788 -1.71515 -3.01993 0
M  V30 337 C 28.742 -2.86222 -3.18216 0
M  V30 338 C 28.068 -2.76061 -4.57924 0
M  V30 339 C 29.368 -4.27419 -3.00184 0
M  V30 340 H 31.062 -2.59932 -1.48579 0
M  V30 341 H 28.608 -1.25089 -0.713358 0
M  V30 342 H 30.561 -1.82731 -3.7972 0
M  V30 343 H 29.285 -0.749393 -3.17886 0
M  V30 344 H 27.944 -2.74575 -2.42908 0
M  V30 345 H 27.592 -1.77437 -4.70665 0
M  V30 346 H 27.292 -3.53037 -4.69722 0
M  V30 347 H 28.816 -2.89256 -5.37739 0
M  V30 348 H 30.23 -4.39855 -3.67697 0
M  V30 349 H 28.627 -5.05458 -3.2347 0
M  V30 350 H 29.697 -4.43293 -1.96518 0
M  V30 351 N 31.0401 0.771051 -1.3745 0
M  V30 352 C 31.9701 1.89827 -1.3597 0
M  V30 353 C 32.9511 1.68562 -0.228216 0
M  V30 354 O 34.1361 1.8941 -0.428675 0
M  V30 355 C 31.2661 3.2712 -1.16662 0
M  V30 356 C 30.2201 3.6295 -2.2683 0
M  V30 357 C 29.5461 4.98791 -1.92644 0
M  V30 358 C 30.8461 3.69627 -3.69017 0
M  V30 359 H 32.5401 1.91323 -2.30295 0
M  V30 360 H 30.0861 0.919082 -1.10855 0
M  V30 361 H 32.0391 4.05615 -1.14256 0
M  V30 362 H 30.7631 3.26059 -0.187926 0
M  V30 363 H 29.4221 2.86763 -2.28392 0
M  V30 364 H 29.0701 4.94271 -0.933021 0
M  V30 365 H 28.7701 5.23733 -2.66416 0
M  V30 366 H 30.2941 5.79685 -1.91826 0
M  V30 367 H 31.7081 4.38273 -3.69581 0
M  V30 368 H 30.1051 4.06067 -4.41848 0
M  V30 369 H 31.1751 2.70273 -4.02592 0
M  V30 370 N 32.5182 1.22032 0.997298 0
M  V30 371 C 33.7662 1.04016 1.73278 0
M  V30 372 C 34.0872 -0.426255 1.90284 0
M  V30 373 O 33.3572 -1.30694 1.45931 0
M  V30 374 H 31.9372 0.381897 0.642 0
M  V30 375 H 34.5992 1.5347 1.20137 0
M  V30 376 H 33.6952 1.51441 2.72896 0
M  V30 377 N 33.9963 -1.19345 1.0293 0
M  V30 378 C 34.9263 -2.2481 0.631105 0
M  V30 379 C 35.9073 -1.66245 -0.360104 0
M  V30 380 O 37.0923 -1.92677 -0.242726 0
M  V30 381 C 34.2223 -3.47295 -0.0184607 0
M  V30 382 C 33.1763 -4.18536 0.895073 0
M  V30 383 C 32.5023 -5.34586 0.110592 0
M  V30 384 C 33.8023 -4.73287 2.209 0
M  V30 385 H 35.4963 -2.58372 1.51275 0
M  V30 386 H 33.0423 -1.24194 0.728818 0
M  V30 387 H 34.9953 -4.20268 -0.308675 0
M  V30 388 H 33.7193 -3.12933 -0.934907 0
M  V30 389 H 32.3783 -3.47446 1.16949 0
M  V30 390 H 32.0263 -4.96469 -0.807902 0
M  V30 391 H 31.7263 -5.83183 0.719087 0
M  V30 392 H 33.2503 -6.10355 -0.172871 0
M  V30 393 H 34.6643 -5.38013 1.98028 0
M  V30 394 H 33.0613 -5.32373 2.76946 0
M  V30 395 H 34.1313 -3.91331 2.86336 0
M  V30 396 N 35.4744 -0.807222 -1.35358 0
M  V30 397 C 36.4044 -0.232509 -2.3234 0
M  V30 398 C 37.3854 0.642386 -1.57504 0
M  V30 399 O 38.5704 0.572526 -1.85569 0
M  V30 400 C 35.7004 0.619238 -3.41735 0
M  V30 401 C 34.6544 -0.157215 -4.27711 0
M  V30 402 C 33.9804 0.816273 -5.28433 0
M  V30 403 C 35.2804 -1.35656 -5.04376 0
M  V30 404 H 36.9744 -1.04276 -2.80654 0
M  V30 405 H 34.5204 -0.50288 -1.34934 0
M  V30 406 H 36.4734 1.03137 -4.08584 0
M  V30 407 H 35.1974 1.46239 -2.92031 0
M  V30 408 H 33.8564 -0.550525 -3.62443 0
M  V30 409 H 33.5044 1.65494 -4.74996 0
M  V30 410 H 33.2044 0.301067 -5.86828 0
M  V30 411 H 34.7284 1.22659 -5.98153 0
M  V30 412 H 36.1424 -1.01927 -5.64166 0
M  V30 413 H 34.5394 -1.8063 -5.7227 0
M  V30 414 H 35.6094 -2.14288 -4.34981 0
M  V30 415 N 36.9525 1.47285 -0.560781 0
M  V30 416 C 37.8825 2.32857 0.173105 0
M  V30 417 C 38.8635 1.44009 0.905281 0
M  V30 418 O 40.0485 1.7286 0.885046 0
M  V30 419 C 37.1785 3.25861 1.20133 0
M  V30 420 C 36.1325 4.23978 0.585388 0
M  V30 421 C 35.4585 5.06332 1.7185 0
M  V30 422 C 36.7585 5.20242 -0.463178 0
M  V30 423 H 38.4525 2.94466 -0.541307 0
M  V30 424 H 35.9985 1.41601 -0.261764 0
M  V30 425 H 37.9515 3.84569 1.72293 0
M  V30 426 H 36.6755 2.62315 1.94573 0
M  V30 427 H 35.3345 3.66501 0.085054 0
M  V30 428 H 34.9825 4.39186 2.45203 0
M  V30 429 H 34.6825 5.72762 1.31213 0
M  V30 430 H 36.2065 5.67899 2.24329 0
M  V30 431 H 37.6205 5.73293 -0.027502 0
M  V30 432 H 36.0175 5.94896 -0.788627 0
M  V30 433 H 37.0875 4.65504 -1.35773 0
M  V30 434 N 38.4306 0.297415 1.54768 0
M  V30 435 C 39.6766 -0.313376 2.00364 0
M  V30 436 C 40.0096 -1.53815 1.18553 0
M  V30 437 O 39.2846 -1.92739 0.261103 0
M  V30 438 C 39.5676 -0.673525 3.53745 0
M  V30 439 C 39.4206 0.560133 4.46299 0
M  V30 440 C 40.7396 -1.50143 4.13697 0
M  V30 441 H 37.8586 -0.112428 0.728374 0
M  V30 442 H 40.5006 0.4088 1.8555 0
M  V30 443 H 38.6506 -1.28881 3.665 0
M  V30 444 H 40.3226 1.19863 4.45455 0
M  V30 445 H 38.5656 1.19405 4.17043 0
M  V30 446 H 39.2366 0.26405 5.51368 0
M  V30 447 H 41.7126 -0.981588 4.04356 0
M  V30 448 H 40.5886 -1.72221 5.21182 0
M  V30 449 H 40.8496 -2.48952 3.65343 0
M  V30 450 N 39.9087 -1.5758 0.0250728 0
M  V30 451 C 40.8387 -2.13007 -0.956575 0
M  V30 452 C 41.8197 -1.0452 -1.342 0
M  V30 453 O 43.0047 -1.32332 -1.42133 0
M  V30 454 C 40.1347 -2.65386 -2.24026 0
M  V30 455 C 39.0887 -3.78623 -1.99571 0
M  V30 456 C 38.4147 -4.17414 -3.3417 0
M  V30 457 C 39.7147 -5.04867 -1.33814 0
M  V30 458 H 41.4087 -2.9528 -0.494991 0
M  V30 459 H 38.9547 -1.42042 -0.236651 0
M  V30 460 H 40.9077 -3.02794 -2.93076 0
M  V30 461 H 39.6317 -1.80268 -2.72343 0
M  V30 462 H 38.2907 -3.41646 -1.32941 0
M  V30 463 H 37.9387 -3.29284 -3.80238 0
M  V30 464 H 37.6387 -4.93719 -3.18615 0
M  V30 465 H 39.1627 -4.57402 -4.04495 0
M  V30 466 H 40.5767 -5.39888 -1.92857 0
M  V30 467 H 38.9737 -5.86144 -1.28669 0
M  V30 468 H 40.0437 -4.83904 -0.310561 0
M  V30 469 N 41.3868 0.248026 -1.55636 0
M  V30 470 C 42.3168 1.31079 -1.93237 0
M  V30 471 C 43.2978 1.50264 -0.797174 0
M  V30 472 O 44.4828 1.62891 -1.05737 0
M  V30 473 C 41.6128 2.66575 -2.22609 0
M  V30 474 C 40.5668 2.62087 -3.3837 0
M  V30 475 C 39.8928 4.01369 -3.53281 0
M  V30 476 C 41.1928 2.19171 -4.7409 0
M  V30 477 H 42.8868 0.998556 -2.82257 0
M  V30 478 H 40.4328 0.47891 -1.35803 0
M  V30 479 H 42.3858 3.41057 -2.47503 0
M  V30 480 H 41.1098 2.99432 -1.30414 0
M  V30 481 H 39.7688 1.90063 -3.13483 0
M  V30 482 H 39.4168 4.31489 -2.58508 0
M  V30 483 H 39.1168 3.99254 -4.31127 0
M  V30 484 H 40.6408 4.77552 -3.80495 0
M  V30 485 H 42.0548 2.83384 -4.98363 0
M  V30 486 H 40.4518 2.2817 -5.5503 0
M  V30 487 H 41.5218 1.14336 -4.71227 0
M  V30 488 N 42.8649 1.48995 0.513639 0
M  V30 489 C 44.2759 1.5119 1.09537 0
M  V30 490 C 44.6269 0.290906 1.94031 0
M  V30 491 O 43.7519 -0.60049 2.07902 0
M  V30 492 C 44.3469 2.73964 1.99322 0
M  V30 493 C 42.9059 2.78978 2.52682 0
M  V30 494 C 42.0529 2.44934 1.30009 0
M  V30 495 H 45.0039 1.55875 0.298125 0
M  V30 496 H 45.0249 2.53409 2.83838 0
M  V30 497 H 44.5369 3.62813 1.37799 0
M  V30 498 H 42.6379 1.94378 3.1788 0
M  V30 499 H 42.7509 3.8083 2.90698 0
M  V30 500 H 41.1149 1.9644 1.62122 0
M  V30 501 H 41.8979 3.36043 0.702131 0
M  V30 502 N 44.343 -0.763751 1.37857 0
M  V30 503 C 45.591 -1.51957 1.33243 0
M  V30 504 C 45.912 -1.94835 -0.0801709 0
M  V30 505 O 45.182 -1.66894 -1.02582 0
M  V30 506 H 43.762 -0.563626 0.49024 0
M  V30 507 H 46.424 -0.908504 1.7243 0
M  V30 508 H 45.52 -2.41523 1.97669 0
M  V30 509 N 45.8211 -1.22559 -0.990812 0
M  V30 510 C 46.7841 -0.998863 -2.0629 0
M  V30 511 C 47.7841 0.0354834 -1.60761 0
M  V30 512 O 48.9741 -0.203231 -1.7301 0
M  V30 513 C 46.1061 -0.509203 -3.37076 0
M  V30 514 H 47.2991 -1.95014 -2.27837 0
M  V30 515 H 44.8521 -1.04456 -1.16269 0
M  V30 516 H 45.5871 0.446335 -3.21214 0
M  V30 517 H 45.3721 -1.25547 -3.71457 0
M  V30 518 H 46.8621 -0.370888 -4.1595 0
M  V30 519 N 47.2992 1.18797 -1.03562 0
M  V30 520 C 48.2312 2.21731 -0.580337 0
M  V30 521 C 49.2442 1.59051 0.347349 0
M  V30 522 O 50.4332 1.77929 0.142669 0
M  V30 523 C 47.5332 3.38459 0.172805 0
M  V30 524 C 46.7062 4.3072 -0.761496 0
M  V30 525 C 45.7652 5.26174 -0.0525547 0
M  V30 526 O 44.7912 5.65108 -0.681333 0
M  V30 527 N 45.9932 5.67624 1.21586 0
M  V30 528 H 48.7582 2.61417 -1.46565 0
M  V30 529 H 46.3192 1.33531 -0.915476 0
M  V30 530 H 48.3112 3.99335 0.656793 0
M  V30 531 H 46.8812 2.97507 0.959602 0
M  V30 532 H 46.1012 3.67525 -1.42544 0
M  V30 533 H 47.3892 4.89267 -1.39626 0
M  V30 534 H 46.7872 5.38038 1.74732 0
M  V30 535 H 45.3442 6.30721 1.64421 0
M  V30 536 N 48.7773 0.814389 1.34928 0
M  V30 537 C 50.0253 0.397636 1.9815 0
M  V30 538 C 50.3463 -1.04069 1.64908 0
M  V30 539 O 49.6163 -1.72121 0.93548 0
M  V30 540 H 48.1963 0.144043 0.732981 0
M  V30 541 H 50.8583 1.04195 1.6471 0
M  V30 542 H 49.9543 0.509688 3.0791 0
M  V30 543 N 50.2554 -1.46986 0.568584 0
M  V30 544 C 51.1854 -2.32946 -0.160753 0
M  V30 545 C 52.1664 -1.44487 -0.897631 0
M  V30 546 O 53.3514 -1.73327 -0.875867 0
M  V30 547 C 50.4814 -3.26494 -1.18403 0
M  V30 548 C 49.4354 -4.24282 -0.562895 0
M  V30 549 C 48.7614 -5.07236 -1.69163 0
M  V30 550 C 50.0614 -5.19989 0.490761 0
M  V30 551 H 51.7554 -2.94175 0.556916 0
M  V30 552 H 49.3014 -1.4146 0.26927 0
M  V30 553 H 51.2544 -3.85477 -1.70251 0
M  V30 554 H 49.9784 -2.63343 -1.93179 0
M  V30 555 H 48.6374 -3.66541 -0.0656164 0
M  V30 556 H 48.2854 -4.4048 -2.42871 0
M  V30 557 H 47.9854 -5.7345 -1.28174 0
M  V30 558 H 49.5094 -5.6908 -2.21314 0
M  V30 559 H 50.9234 -5.73271 0.0579047 0
M  V30 560 H 49.3204 -5.94469 0.820165 0
M  V30 561 H 50.3904 -4.64777 1.3824 0
M  V30 562 N 51.7335 -0.305618 -1.54608 0
M  V30 563 C 53.1445 0.186098 -1.8577 0
M  V30 564 C 53.4955 1.53058 -1.22751 0
M  V30 565 O 52.6205 2.09888 -0.526893 0
M  V30 566 C 53.2155 0.344449 -3.37044 0
M  V30 567 C 51.7745 0.780384 -3.68221 0
M  V30 568 C 50.9215 -0.108554 -2.77087 0
M  V30 569 H 53.8725 -0.526485 -1.49712 0
M  V30 570 H 53.8935 1.17828 -3.61796 0
M  V30 571 H 53.4055 -0.634235 -3.82883 0
M  V30 572 H 51.5065 1.76945 -3.27904 0
M  V30 573 H 51.6195 0.596572 -4.75371 0
M  V30 574 H 49.9835 0.412931 -2.5133 0
M  V30 575 H 50.7665 -1.08368 -3.25747 0
M  V30 576 N 53.2116 1.57565 -0.0334293 0
M  V30 577 C 54.4596 1.91598 0.642999 0
M  V30 578 C 54.7806 0.910847 1.7242 0
M  V30 579 O 54.0506 -0.0469931 1.95844 0
M  V30 580 H 52.6306 0.707228 0.240496 0
M  V30 581 H 55.2926 1.94726 -0.0822488 0
M  V30 582 H 54.3886 2.92336 1.09298 0
M  V30 583 N 54.6897 -0.239769 1.55765 0
M  V30 584 C 55.9357 -0.968234 1.78194 0
M  V30 585 C 56.2687 -1.84701 0.599938 0
M  V30 586 O 55.5437 -1.9031 -0.401524 0
M  V30 587 C 55.8267 -1.8227 3.10564 0
M  V30 588 C 55.6797 -0.971633 4.3918 0
M  V30 589 C 56.9987 -2.80388 3.39221 0
M  V30 590 H 54.1177 -0.350572 0.648281 0
M  V30 591 H 56.7597 -0.238259 1.885 0
M  V30 592 H 54.9097 -2.44507 3.01908 0
M  V30 593 H 56.5817 -0.367408 4.59835 0
M  V30 594 H 54.8247 -0.276276 4.32919 0
M  V30 595 H 55.4957 -1.60346 5.28198 0
M  V30 596 H 57.9717 -2.28287 3.47885 0
M  V30 597 H 56.8477 -3.3729 4.33044 0
M  V30 598 H 57.1087 -3.57212 2.60484 0
M  V30 599 N 56.1678 -1.49265 -0.50573 0
M  V30 600 C 57.4158 -1.582 -1.25766 0
M  V30 601 C 57.7368 -0.268482 -1.93143 0
M  V30 602 O 57.0068 0.711833 -1.8251 0
M  V30 603 H 55.5868 -0.582873 -0.467191 0
M  V30 604 H 58.2488 -1.85865 -0.586525 0
M  V30 605 H 57.3448 -2.37563 -2.02412 0
M  V30 606 N 57.6459 0.756429 -1.3826 0
M  V30 607 C 58.5759 1.88374 -1.37976 0
M  V30 608 C 59.5569 1.68311 -0.246082 0
M  V30 609 O 60.7419 1.88944 -0.44874 0
M  V30 610 C 57.8719 3.25864 -1.20125 0
M  V30 611 C 56.8259 3.60523 -2.30666 0
M  V30 612 C 56.1519 4.9672 -1.97923 0
M  V30 613 C 57.4519 3.65692 -3.72916 0
M  V30 614 H 59.1459 1.88869 -2.32312 0
M  V30 615 H 56.6919 0.907272 -1.11824 0
M  V30 616 H 58.6449 4.0438 -1.18552 0
M  V30 617 H 57.3689 3.25841 -0.222498 0
M  V30 618 H 56.0279 2.84324 -2.3142 0
M  V30 619 H 55.6759 4.93253 -0.985393 0
M  V30 620 H 55.3759 5.20878 -2.71955 0
M  V30 621 H 56.8999 5.77618 -1.97964 0
M  V30 622 H 58.3139 4.34328 -3.74208 0
M  V30 623 H 56.7109 4.01358 -4.4613 0
M  V30 624 H 57.7809 2.65987 -4.05436 0
M  V30 625 N 59.124 1.23083 0.984299 0
M  V30 626 C 60.352 1.08714 1.76037 0
M  V30 627 C 60.767 -0.361691 1.85303 0
M  V30 628 O 60.124 -1.25034 1.32939 0
M  V30 629 C 60.175 1.70206 3.18923 0
M  V30 630 O 59.896 3.09423 3.10144 0
M  V30 631 C 61.397 1.61227 4.12941 0
M  V30 632 H 58.617 0.380664 0.552572 0
M  V30 633 H 61.161 1.62853 1.23689 0
M  V30 634 H 59.316 1.20109 3.6831 0
M  V30 635 H 59.73 3.39188 4.00065 0
M  V30 636 H 61.204 2.08962 5.10919 0
M  V30 637 H 61.681 0.570375 4.35481 0
M  V30 638 H 62.287 2.10671 3.69456 0
M  V30 639 N 60.6021 -1.18246 1.0419 0
M  V30 640 C 62.0131 -1.69914 0.773698 0
M  V30 641 C 62.3641 -1.83085 -0.705297 0
M  V30 642 O 61.4891 -1.51123 -1.5489 0
M  V30 643 C 62.0841 -3.08619 1.39784 0
M  V30 644 C 60.6431 -3.57494 1.17792 0
M  V30 645 C 59.7901 -2.34013 1.48773 0
M  V30 646 H 62.7411 -1.02904 1.20816 0
M  V30 647 H 62.7621 -3.71958 0.801714 0
M  V30 648 H 62.2741 -2.99001 2.47426 0
M  V30 649 H 60.3751 -3.72406 0.120295 0
M  V30 650 H 60.4881 -4.40852 1.87581 0
M  V30 651 H 58.8521 -2.37986 0.907463 0
M  V30 652 H 59.6351 -2.27013 2.57527 0
M  V30 653 N 62.0802 -0.821533 -1.34494 0
M  V30 654 C 63.3052 -0.420873 -2.03085 0
M  V30 655 C 63.7302 0.964915 -1.61465 0
M  V30 656 O 63.0882 1.62763 -0.798607 0
M  V30 657 C 63.1362 -0.529414 -3.56693 0
M  V30 658 O 62.2402 0.451302 -4.09923 0
M  V30 659 H 61.5812 -0.173489 -0.640935 0
M  V30 660 H 64.1112 -1.11157 -1.71771 0
M  V30 661 H 64.1212 -0.404671 -4.05988 0
M  V30 662 H 62.7962 -1.54014 -3.86332 0
M  V30 663 H 61.3732 0.285558 -3.71805 0
M  V30 664 N 63.5583 1.46682 -0.576371 0
M  V30 665 C 64.5213 2.28707 0.150239 0
M  V30 666 C 65.5213 1.38035 0.824794 0
M  V30 667 O 66.7113 1.60476 0.677719 0
M  V30 668 C 63.8433 3.18248 1.22192 0
M  V30 669 H 65.0363 2.94423 -0.570521 0
M  V30 670 H 62.5893 1.52688 -0.334078 0
M  V30 671 H 63.3243 2.57265 1.97447 0
M  V30 672 H 63.1093 3.85 0.742812 0
M  V30 673 H 64.5993 3.80001 1.73172 0
M  V30 674 N 65.0364 0.313813 1.54444 0
M  V30 675 C 65.9994 -0.54379 2.22656 0
M  V30 676 C 66.9994 -1.05124 1.21678 0
M  V30 677 O 68.1894 -0.945225 1.46325 0
M  V30 678 C 65.3214 -1.75427 2.92298 0
M  V30 679 H 66.5144 0.0523599 2.99854 0
M  V30 680 H 64.0674 0.0647834 1.56166 0
M  V30 681 H 64.8024 -2.38991 2.19211 0
M  V30 682 H 64.5874 -1.39791 3.66334 0
M  V30 683 H 66.0774 -2.36325 3.44297 0
M  V30 684 N 66.5145 -1.57545 0.0417849 0
M  V30 685 C 67.4465 -2.07904 -0.964799 0
M  V30 686 C 68.4595 -1.00497 -1.28079 0
M  V30 687 O 69.6485 -1.28087 -1.24322 0
M  V30 688 C 66.7485 -2.49928 -2.28887 0
M  V30 689 C 65.9215 -3.80562 -2.15619 0
M  V30 690 C 64.9805 -4.08999 -3.31069 0
M  V30 691 O 64.0065 -4.79061 -3.0739 0
M  V30 692 N 65.2085 -3.6017 -4.55256 0
M  V30 693 H 67.9735 -2.94886 -0.535029 0
M  V30 694 H 65.5345 -1.61252 -0.144681 0
M  V30 695 H 67.5265 -2.66034 -3.04972 0
M  V30 696 H 66.0965 -1.68245 -2.63463 0
M  V30 697 H 65.3165 -3.74129 -1.24183 0
M  V30 698 H 66.6045 -4.66126 -2.03971 0
M  V30 699 H 66.0025 -3.03512 -4.77386 0
M  V30 700 H 64.5595 -3.81532 -5.28466 0
M  V30 701 N 67.9926 0.231505 -1.5589 0
M  V30 702 C 69.2206 0.974505 -1.82513 0
M  V30 703 C 69.6356 1.78344 -0.619591 0
M  V30 704 O 68.9926 1.77792 0.411848 0
M  V30 705 C 69.0436 1.90007 -3.07538 0
M  V30 706 O 68.7646 1.12385 -4.2344 0
M  V30 707 C 70.2656 2.75779 -3.47075 0
M  V30 708 H 67.4856 0.286065 -0.606966 0
M  V30 709 H 70.0296 0.249739 -2.02969 0
M  V30 710 H 68.1846 2.57891 -2.89086 0
M  V30 711 H 68.5986 1.75125 -4.944 0
M  V30 712 H 70.0726 3.36443 -4.37619 0
M  V30 713 H 70.5496 3.47672 -2.68367 0
M  V30 714 H 71.1556 2.13323 -3.67931 0
M  V30 715 N 69.4707 1.49531 0.497807 0
M  V30 716 C 70.4337 1.65916 1.58128 0
M  V30 717 C 71.4337 0.530825 1.51786 0
M  V30 718 O 72.6237 0.797342 1.54881 0
M  V30 719 C 69.7557 1.65951 2.9778 0
M  V30 720 H 70.9487 2.62556 1.44929 0
M  V30 721 H 68.5017 1.38611 0.722275 0
M  V30 722 H 69.2367 0.709065 3.16453 0
M  V30 723 H 69.0217 2.47897 3.03792 0
M  V30 724 H 70.5117 1.80673 3.76493 0
M  V30 725 N 70.9488 -0.749086 1.3866 0
M  V30 726 C 72.3648 -1.05276 1.19955 0
M  V30 727 C 72.5648 -2.01435 0.05134 0
M  V30 728 O 71.6208 -2.45232 -0.60147 0
M  V30 729 C 72.9338 -1.62853 2.52783 0
M  V30 730 C 74.4818 -1.75002 2.59506 0
M  V30 731 C 74.9568 -2.35991 3.92521 0
M  V30 732 N 76.4478 -2.43416 3.94085 0
M  V30 733 C 77.1828 -2.91511 4.9377 0
M  V30 734 N 76.6788 -3.39608 6.03853 0
M  V30 735 N 78.4718 -2.90592 4.81157 0
M  V30 736 H 70.6228 -0.111066 2.12109 0
M  V30 737 H 72.8858 -0.111901 0.941373 0
M  V30 738 H 72.5918 -0.99664 3.37283 0
M  V30 739 H 72.4658 -2.61854 2.715 0
M  V30 740 H 74.8528 -2.37317 1.75398 0
M  V30 741 H 74.9338 -0.74693 2.44652 0
M  V30 742 H 74.5778 -1.74308 4.77053 0
M  V30 743 H 74.5078 -3.3695 4.04688 0
M  V30 744 H 76.9988 -2.09405 3.14576 0
M  V30 745 H 77.3118 -3.74775 6.75843 0
M  V30 746 H 75.6568 -3.37653 6.07466 0
M  V30 747 H 78.8478 -2.52332 3.94267 0
M  V30 748 H 79.0208 -3.27762 5.58996 0
M  V30 749 N 72.4269 -1.23603 -0.977757 0
M  V30 750 C 73.3589 -0.977369 -2.07317 0
M  V30 751 C 74.3719 0.0495845 -1.62724 0
M  V30 752 O 75.5609 -0.186261 -1.77526 0
M  V30 753 C 72.6609 -0.451216 -3.35883 0
M  V30 754 C 71.8339 -1.53896 -4.09432 0
M  V30 755 C 70.8929 -1.01721 -5.16274 0
M  V30 756 O 69.9189 -1.70676 -5.43009 0
M  V30 757 N 71.1209 0.153594 -5.80297 0
M  V30 758 H 73.8859 -1.92047 -2.30082 0
M  V30 759 H 71.4469 -1.14497 -1.14465 0
M  V30 760 H 73.4389 -0.0871574 -4.04606 0
M  V30 761 H 72.0089 0.397368 -3.10064 0
M  V30 762 H 71.2289 -2.07566 -3.35127 0
M  V30 763 H 72.5169 -2.27037 -4.55337 0
M  V30 764 H 71.9149 0.730323 -5.60966 0
M  V30 765 H 70.4719 0.458892 -6.50183 0
M  V30 766 N 73.905 1.17692 -1.04816 0
M  V30 767 C 74.855 2.1952 -0.616042 0
M  V30 768 C 75.839 1.57147 0.345485 0
M  V30 769 O 77.031 1.76245 0.163325 0
M  V30 770 C 74.16 3.43298 0.0116917 0
M  V30 771 C 73.246 4.12777 -0.973435 0
M  V30 772 N 73.637 4.5814 -2.14339 0
M  V30 773 C 71.935 4.38747 -0.80108 0
M  V30 774 C 72.636 5.11713 -2.7663 0
M  V30 775 N 71.612 5.03686 -2.04453 0
M  V30 776 H 75.414 2.52293 -1.5075 0
M  V30 777 H 72.928 1.3398 -0.917776 0
M  V30 778 H 74.925 4.15519 0.339006 0
M  V30 779 H 73.585 3.12018 0.898593 0
M  V30 780 H 74.596 4.52349 -2.52191 0
M  V30 781 H 71.273 4.17485 0.0350934 0
M  V30 782 H 72.663 5.56962 -3.75823 0
M  V30 783 N 75.3831 0.828654 1.34056 0
M  V30 784 C 76.7941 0.477534 1.8049 0
M  V30 785 C 77.1451 -1.00258 1.6865 0
M  V30 786 O 76.2701 -1.78057 1.22982 0
M  V30 787 C 76.8651 0.860018 3.27703 0
M  V30 788 C 75.4241 0.561185 3.72193 0
M  V30 789 C 74.5711 1.07385 2.55663 0
M  V30 790 H 77.5221 1.0183 1.21722 0
M  V30 791 H 77.5431 0.166038 3.80138 0
M  V30 792 H 77.0551 1.93731 3.36288 0
M  V30 793 H 75.1561 -0.506465 3.69142 0
M  V30 794 H 75.2691 1.10926 4.66082 0
M  V30 795 H 73.6331 0.495149 2.49841 0
M  V30 796 H 74.4161 2.15771 2.67016 0
M  V30 797 N 76.8612 -1.46375 0.584142 0
M  V30 798 C 77.8082 -2.30323 -0.148286 0
M  V30 799 C 78.7782 -1.40703 -0.882713 0
M  V30 800 O 79.9632 -1.69651 -0.873099 0
M  V30 801 C 77.1032 -3.25196 -1.15507 0
M  V30 802 C 76.2162 -4.29915 -0.423943 0
M  V30 803 C 75.3512 -5.11914 -1.41838 0
M  V30 804 C 74.3902 -6.08381 -0.673736 0
M  V30 805 N 73.5272 -6.83242 -1.6163 0
M  V30 806 H 78.3672 -2.92427 0.573644 0
M  V30 807 H 75.9042 -1.44118 0.294703 0
M  V30 808 H 77.8622 -3.78646 -1.75166 0
M  V30 809 H 76.4922 -2.64898 -1.8447 0
M  V30 810 H 75.5442 -3.7931 0.287714 0
M  V30 811 H 76.8562 -4.98549 0.158128 0
M  V30 812 H 76.0102 -5.69648 -2.08773 0
M  V30 813 H 74.7492 -4.43243 -2.03438 0
M  V30 814 H 73.7542 -5.49799 0.00938483 0
M  V30 815 H 74.9792 -6.79071 -0.0631082 0
M  V30 816 H 72.9252 -6.1728 -2.22038 0
M  V30 817 H 72.8422 -7.48144 -1.08707 0
M  V30 818 H 74.1102 -7.45534 -2.27596 0
M  V30 819 N 78.3393 -0.321999 -1.54275 0
M  V30 820 C 79.2723 0.58718 -2.20516 0
M  V30 821 C 80.2503 1.11693 -1.18167 0
M  V30 822 O 81.4343 1.18122 -1.46899 0
M  V30 823 C 78.5613 1.80554 -2.86562 0
M  V30 824 C 77.6073 1.40718 -4.02617 0
M  V30 825 S 78.4403 0.445218 -5.33646 0
M  V30 826 C 79.5963 1.6709 -6.03185 0
M  V30 827 H 79.8293 0.0244875 -2.9729 0
M  V30 828 H 77.3623 -0.106087 -1.54035 0
M  V30 829 H 79.3203 2.50462 -3.25237 0
M  V30 830 H 77.9813 2.33942 -2.09595 0
M  V30 831 H 77.1743 2.31501 -4.47687 0
M  V30 832 H 76.7763 0.78782 -3.65608 0
M  V30 833 H 79.0683 2.60856 -6.25268 0
M  V30 834 H 80.0113 1.26239 -6.96756 0
M  V30 835 H 80.4193 1.85716 -5.33076 0
M  V30 836 N 79.8174 1.5752 -0.0501392 0
M  V30 837 C 80.7674 2.07981 0.934231 0
M  V30 838 C 81.7514 0.984745 1.27246 0
M  V30 839 O 82.9434 1.24809 1.25506 0
M  V30 840 C 80.0724 2.62751 2.20945 0
M  V30 841 C 79.1584 3.79225 1.89865 0
M  V30 842 N 79.5494 4.89036 1.29142 0
M  V30 843 C 77.8474 3.88111 2.19741 0
M  V30 844 C 78.5484 5.70084 1.15669 0
M  V30 845 N 77.5244 5.17659 1.65923 0
M  V30 846 H 81.3264 2.90277 0.460053 0
M  V30 847 H 78.8404 1.61665 0.15434 0
M  V30 848 H 80.8374 2.97205 2.9236 0
M  V30 849 H 79.4974 1.81894 2.6897 0
M  V30 850 H 80.5084 5.08854 0.963756 0
M  V30 851 H 77.1854 3.18194 2.70293 0
M  V30 852 H 78.5754 6.68395 0.685356 0
M  V30 853 N 81.2955 -0.223234 1.56011 0
M  V30 854 C 82.2255 -1.27988 1.95298 0
M  V30 855 C 83.2065 -1.48976 0.820979 0
M  V30 856 O 84.3915 -1.61188 1.08315 0
M  V30 857 C 81.5215 -2.63 2.26822 0
M  V30 858 C 80.4755 -2.56671 3.42497 0
M  V30 859 C 79.8015 -3.95697 3.59622 0
M  V30 860 C 81.1015 -2.11601 4.77517 0
M  V30 861 H 82.7955 -0.953525 2.8381 0
M  V30 862 H 80.3415 -0.457244 1.36548 0
M  V30 863 H 82.2945 -3.37077 2.52898 0
M  V30 864 H 81.0185 -2.9732 1.35161 0
M  V30 865 H 79.6775 -1.85051 3.16467 0
M  V30 866 H 79.3255 -4.27322 2.6534 0
M  V30 867 H 79.0255 -3.92345 4.37424 0
M  V30 868 H 80.5495 -4.71438 3.88044 0
M  V30 869 H 81.9635 -2.7542 5.02809 0
M  V30 870 H 80.3605 -2.19311 5.5859 0
M  V30 871 H 81.4305 -1.06824 4.72987 0
M  V30 872 N 82.7736 -1.49793 -0.48987 0
M  V30 873 C 83.7366 -1.66752 -1.57246 0
M  V30 874 C 84.7366 -0.538867 -1.51502 0
M  V30 875 O 85.9266 -0.805545 -1.54456 0
M  V30 876 C 83.0586 -1.67528 -2.96896 0
M  V30 877 H 84.2516 -2.63321 -1.43534 0
M  V30 878 H 81.8046 -1.38992 -0.714914 0
M  V30 879 H 82.5396 -0.725837 -3.16073 0
M  V30 880 H 82.3246 -2.49504 -3.02473 0
M  V30 881 H 83.8146 -1.82667 -3.7553 0
M  V30 882 N 84.2517 0.741722 -1.39055 0
M  V30 883 C 85.2017 1.84661 -1.33732 0
M  V30 884 C 86.1857 1.59397 -0.219401 0
M  V30 885 O 87.3777 1.71015 -0.456375 0
M  V30 886 C 84.5067 3.22512 -1.17647 0
M  V30 887 C 83.5927 3.53628 -2.34112 0
M  V30 888 N 83.9837 3.55723 -3.59576 0
M  V30 889 C 82.2817 3.83956 -2.26923 0
M  V30 890 C 82.9827 3.84443 -4.36553 0
M  V30 891 N 81.9587 4.01877 -3.66055 0
M  V30 892 H 85.7607 1.84576 -2.28711 0
M  V30 893 H 83.2747 0.939647 -1.32455 0
M  V30 894 H 85.2717 4.01597 -1.11917 0
M  V30 895 H 83.9317 3.2384 -0.236124 0
M  V30 896 H 84.9427 3.37196 -3.93089 0
M  V30 897 H 81.6197 3.92929 -1.41113 0
M  V30 898 H 83.0097 3.92588 -5.45274 0
M  V30 899 N 85.7298 1.2412 0.971189 0
M  V30 900 C 86.9548 1.10667 1.75407 0
M  V30 901 C 87.3798 -0.337048 1.85056 0
M  V30 902 O 86.7378 -1.24396 1.31892 0
M  V30 903 C 86.7858 1.74726 3.15441 0
M  V30 904 O 85.8898 1.01566 3.99697 0
M  V30 905 H 85.2308 0.387341 0.539317 0
M  V30 906 H 87.7608 1.64358 1.2185 0
M  V30 907 H 87.7708 1.80341 3.6598 0
M  V30 908 H 86.4458 2.79773 3.07734 0
M  V30 909 H 85.0228 1.03713 3.58187 0
M  V30 910 N 87.2079 -1.17134 1.05439 0
M  V30 911 C 88.4359 -1.91372 0.786414 0
M  V30 912 C 88.8509 -1.76955 -0.658202 0
M  V30 913 O 88.2079 -1.10838 -1.44987 0
M  V30 914 C 88.2589 -3.42356 1.1608 0
M  V30 915 O 87.9799 -3.56332 2.54871 0
M  V30 916 C 89.4809 -4.33663 0.919322 0
M  V30 917 H 86.7009 -0.607118 0.285743 0
M  V30 918 H 89.2449 -1.48525 1.40572 0
M  V30 919 H 87.3999 -3.82939 0.586191 0
M  V30 920 H 87.8139 -4.49896 2.69618 0
M  V30 921 H 89.2879 -5.38099 1.231 0
M  V30 922 H 89.7649 -4.38959 -0.145359 0
M  V30 923 H 90.3709 -3.98796 1.47789 0
M  V30 924 N 88.686 -0.835752 -1.33615 0
M  V30 925 C 89.616 -0.281739 -2.31794 0
M  V30 926 C 90.597 0.608833 -1.58831 0
M  V30 927 O 91.782 0.533035 -1.86741 0
M  V30 928 C 88.912 0.546612 -3.42971 0
M  V30 929 C 87.866 -0.247904 -4.27281 0
M  V30 930 C 87.192 0.704001 -5.30045 0
M  V30 931 C 88.492 -1.46324 -5.01385 0
M  V30 932 H 90.186 -1.10206 -2.78379 0
M  V30 933 H 87.732 -0.531388 -1.33837 0
M  V30 934 H 89.685 0.944467 -4.1068 0
M  V30 935 H 88.409 1.40011 -2.95067 0
M  V30 936 H 87.068 -0.627281 -3.61194 0
M  V30 937 H 86.716 1.55381 -4.78399 0
M  V30 938 H 86.416 0.176524 -5.87335 0
M  V30 939 H 87.94 1.09944 -6.0062 0
M  V30 940 H 89.354 -1.13871 -5.61877 0
M  V30 941 H 87.751 -1.92728 -5.6831 0
M  V30 942 H 88.821 -2.23467 -4.30338 0
M  V30 943 N 90.1641 1.46063 -0.591896 0
M  V30 944 C 91.1111 2.30399 0.136069 0
M  V30 945 C 92.0811 1.41169 0.875238 0
M  V30 946 O 93.2661 1.70112 0.86409 0
M  V30 947 C 90.4061 3.25804 1.13781 0
M  V30 948 C 89.5191 4.30134 0.401137 0
M  V30 949 C 88.6541 5.12659 1.39121 0
M  V30 950 C 87.6931 6.0873 0.641462 0
M  V30 951 N 86.8301 6.8409 1.58004 0
M  V30 952 H 91.6701 2.92118 -0.589144 0
M  V30 953 H 89.2071 1.43959 -0.302342 0
M  V30 954 H 91.1651 3.79569 1.73156 0
M  V30 955 H 89.7951 2.65872 1.83062 0
M  V30 956 H 88.8471 3.79152 -0.307826 0
M  V30 957 H 90.1591 4.98458 -0.184565 0
M  V30 958 H 89.3131 5.70747 2.05749 0
M  V30 959 H 88.0521 4.44316 2.01084 0
M  V30 960 H 87.0571 5.49786 -0.0385419 0
M  V30 961 H 88.2821 6.79095 0.0270945 0
M  V30 962 H 86.2281 6.18449 2.18761 0
M  V30 963 H 86.1451 7.48709 1.04738 0
M  V30 964 H 87.4131 7.4673 2.23639 0
M  V30 965 N 91.6422 0.330177 1.54103 0
M  V30 966 C 93.0532 -0.15652 1.86043 0
M  V30 967 C 93.4042 -1.51086 1.2517 0
M  V30 968 O 92.5292 -2.09023 0.560217 0
M  V30 969 C 93.1242 -0.290784 3.3755 0
M  V30 970 C 91.6832 -0.721705 3.69416 0
M  V30 971 C 90.8302 0.152622 2.7688 0
M  V30 972 H 93.7812 0.550237 1.48856 0
M  V30 973 H 93.8022 -1.12058 3.63625 0
M  V30 974 H 93.3142 0.695068 3.81825 0
M  V30 975 H 91.4152 -1.71706 3.30678 0
M  V30 976 H 91.5282 -0.520869 4.7626 0
M  V30 977 H 89.8922 -0.372894 2.51956 0
M  V30 978 H 90.6752 1.13536 3.23982 0
M  V30 979 N 93.1203 -1.57491 0.0584922 0
M  V30 980 C 94.0833 -2.1085 -0.898617 0
M  V30 981 C 95.0833 -1.02964 -1.23511 0
M  V30 982 O 96.2733 -1.29007 -1.17059 0
M  V30 983 C 93.4053 -2.59881 -2.20623 0
M  V30 984 H 94.5983 -2.96715 -0.435936 0
M  V30 985 H 92.1513 -1.55141 -0.190023 0
M  V30 986 H 92.8863 -1.77431 -2.71457 0
M  V30 987 H 92.6713 -3.38727 -1.97501 0
M  V30 988 H 94.1613 -3.01285 -2.89166 0
M  V30 989 N 94.5984 0.214957 -1.56127 0
M  V30 990 C 95.5614 1.24997 -1.92116 0
M  V30 991 C 96.5614 1.39467 -0.800344 0
M  V30 992 O 97.7514 1.37619 -1.06802 0
M  V30 993 C 94.8834 2.62271 -2.17777 0
M  V30 994 H 96.0764 0.942875 -2.84693 0
M  V30 995 H 93.6294 0.455654 -1.49511 0
M  V30 996 H 94.3644 2.98068 -1.27773 0
M  V30 997 H 94.1494 2.53143 -2.99434 0
M  V30 998 H 95.6394 3.36946 -2.46693 0
M  V30 999 N 96.0765 1.50051 0.48192 0
M  V30 1000 C 97.0265 1.64512 1.5786 0
M  V30 1001 C 98.0105 0.500073 1.52932 0
M  V30 1002 O 99.2025 0.753964 1.60139 0
M  V30 1003 C 96.3315 1.73263 2.9637 0
M  V30 1004 C 95.4175 2.93409 3.06222 0
M  V30 1005 N 95.8085 4.17236 2.85915 0
M  V30 1006 C 94.1065 2.91742 3.37346 0
M  V30 1007 C 94.8075 4.981 3.00451 0
M  V30 1008 N 93.7835 4.3184 3.30174 0
M  V30 1009 H 97.5855 2.57955 1.40842 0
M  V30 1010 H 95.0995 1.47086 0.688439 0
M  V30 1011 H 97.0965 1.81724 3.75209 0
M  V30 1012 H 95.7565 0.809711 3.14442 0
M  V30 1013 H 96.7675 4.46909 2.6171 0
M  V30 1014 H 93.4445 2.08907 3.61475 0
M  V30 1015 H 94.8345 6.06532 2.89082 0
M  V30 1016 N 97.5546 -0.734337 1.39446 0
M  V30 1017 C 98.4846 -1.86155 1.40955 0
M  V30 1018 C 99.4656 -1.67898 0.272827 0
M  V30 1019 O 100.651 -1.88207 0.478743 0
M  V30 1020 C 97.7806 -3.23912 1.25294 0
M  V30 1021 C 96.7346 -3.56808 2.36373 0
M  V30 1022 C 96.0606 -4.93508 2.058 0
M  V30 1023 C 97.3606 -3.59713 3.78687 0
M  V30 1024 H 99.0546 -1.8515 2.35287 0
M  V30 1025 H 96.6006 -0.889367 1.13253 0
M  V30 1026 H 98.5536 -4.02443 1.2497 0
M  V30 1027 H 97.2776 -3.25446 0.274308 0
M  V30 1028 H 95.9366 -2.80606 2.35914 0
M  V30 1029 H 95.5846 -4.91623 1.06374 0
M  V30 1030 H 95.2846 -5.16486 2.80208 0
M  V30 1031 H 96.8086 -5.74396 2.07128 0
M  V30 1032 H 98.2226 -4.2832 3.81071 0
M  V30 1033 H 96.6196 -3.94209 4.52459 0
M  V30 1034 H 97.6896 -2.59504 4.09617 0
M  V30 1035 N 99.0327 -1.24633 -0.964593 0
M  V30 1036 C 100.282 -1.08188 -1.7023 0
M  V30 1037 C 100.595 0.37873 -1.91898 0
M  V30 1038 O 101.801 0.663427 -2.6327 0
M  V30 1039 C 100.257 -1.88773 -3.06419 0
M  V30 1040 C 99.8647 -3.39263 -2.92582 0
M  V30 1041 C 101.609 -1.80867 -3.84041 0
M  V30 1042 C 99.5157 -4.1218 -4.24101 0
M  V30 1043 H 98.4457 -0.401245 -0.638372 0
M  V30 1044 H 101.097 -1.48742 -1.07462 0
M  V30 1045 H 99.4787 -1.41035 -3.70034 0
M  V30 1046 H 100.653 -3.94603 -2.37961 0
M  V30 1047 H 98.9677 -3.48154 -2.28424 0
M  V30 1048 H 101.565 -2.32646 -4.81435 0
M  V30 1049 H 101.908 -0.774543 -4.09031 0
M  V30 1050 H 102.441 -2.26301 -3.27159 0
M  V30 1051 H 99.1797 -5.15965 -4.04303 0
M  V30 1052 H 98.6997 -3.61626 -4.78526 0
M  V30 1053 H 100.379 -4.19349 -4.92702 0
M  V30 1054 N 100.511 1.16574 -1.06058 0
M  V30 1055 C 101.759 1.86677 -0.77434 0
M  V30 1056 C 102.08 1.81959 0.701147 0
M  V30 1057 O 101.35 1.2515 1.50713 0
M  V30 1058 H 99.9298 0.691134 -0.283449 0
M  V30 1059 H 102.592 1.41378 -1.34158 0
M  V30 1060 H 101.688 2.92181 -1.09711 0
M  V30 1061 N 101.989 0.842826 1.3317 0
M  V30 1062 C 103.266 0.362216 1.92217 0
M  V30 1063 C 103.646 -1.15289 1.76838 0
M  V30 1064 O 102.994 -1.96914 1.15919 0
M  V30 1065 C 103.204 0.813495 3.39387 0
M  V30 1066 C 104.552 0.823804 4.16532 0
M  V30 1067 O 105.576 0.757358 3.48055 0
M  V30 1068 O 104.435 0.915193 5.38782 0
M  V30 1069 H 101.529 0.103317 0.820521 0
M  V30 1070 H 104.075 0.928942 1.42017 0
M  V30 1071 H 102.847 1.85624 3.4447 0
M  V30 1072 H 102.47 0.223561 3.96971 0
M  V30 1073 N 103.467 -1.45747 0.599634 0
M  V30 1074 C 104.878 -1.85853 0.177681 0
M  V30 1075 C 105.229 -1.50102 -1.26348 0
M  V30 1076 O 104.354 -0.923905 -1.95686 0
M  V30 1077 C 104.949 -3.37326 0.315688 0
M  V30 1078 C 103.508 -3.76365 -0.0515144 0
M  V30 1079 C 102.655 -2.69722 0.643822 0
M  V30 1080 H 105.606 -1.36661 0.806814 0
M  V30 1081 H 105.627 -3.77778 -0.454321 0
M  V30 1082 H 105.139 -3.63315 1.36468 0
M  V30 1083 H 103.24 -3.55993 -1.09999 0
M  V30 1084 H 103.353 -4.77916 0.336594 0
M  V30 1085 H 101.717 -2.54567 0.0822881 0
M  V30 1086 H 102.5 -2.98549 1.6948 0
M  V30 1087 N 104.945 -0.338344 -1.53925 0
M  V30 1088 C 106.17 0.263987 -2.05713 0
M  V30 1089 C 106.595 1.43847 -1.21201 0
M  V30 1090 O 105.953 1.79904 -0.224535 0
M  V30 1091 C 106.001 0.662 -3.54471 0
M  V30 1092 O 105.105 1.76265 -3.72833 0
M  V30 1093 H 104.446 0.0448722 -0.662482 0
M  V30 1094 H 106.976 -0.491048 -1.9862 0
M  V30 1095 H 106.986 0.940594 -3.9701 0
M  V30 1096 H 105.661 -0.196937 -4.15433 0
M  V30 1097 H 104.238 1.48173 -3.42198 0
M  V30 1098 N 106.423 1.57458 -0.0668435 0
M  V30 1099 C 107.37 2.12439 0.902122 0
M  V30 1100 C 108.34 1.03565 1.2986 0
M  V30 1101 O 109.525 1.312 1.38532 0
M  V30 1102 C 106.665 2.6865 2.16614 0
M  V30 1103 C 105.778 3.91663 1.82274 0
M  V30 1104 C 104.913 4.36134 3.0325 0
M  V30 1105 C 103.952 5.51808 2.64904 0
M  V30 1106 N 103.089 5.9126 3.78624 0
M  V30 1107 H 107.929 2.94934 0.426382 0
M  V30 1108 H 105.466 1.4575 0.198819 0
M  V30 1109 H 107.424 2.99346 2.90599 0
M  V30 1110 H 106.054 1.88928 2.61737 0
M  V30 1111 H 105.106 3.6746 0.983719 0
M  V30 1112 H 106.418 4.75693 1.50059 0
M  V30 1113 H 105.572 4.68465 3.85519 0
M  V30 1114 H 104.311 3.50948 3.38655 0
M  V30 1115 H 103.316 5.19133 1.81055 0
M  V30 1116 H 104.541 6.38722 2.30675 0
M  V30 1117 H 102.487 5.09024 4.138 0
M  V30 1118 H 102.404 6.70018 3.5016 0
M  V30 1119 H 103.672 6.28212 4.61486 0
M  V30 1120 N 107.901 -0.206675 1.56239 0
M  V30 1121 C 108.833 -1.27997 1.9013 0
M  V30 1122 C 109.846 -1.42299 0.790883 0
M  V30 1123 O 111.035 -1.42931 1.06925 0
M  V30 1124 C 108.135 -2.65368 2.10792 0
M  V30 1125 C 107.308 -2.72824 3.41886 0
M  V30 1126 C 106.367 -3.9131 3.51799 0
M  V30 1127 O 105.393 -3.78953 4.24716 0
M  V30 1128 N 106.595 -5.06265 2.84035 0
M  V30 1129 H 109.36 -0.992444 2.82791 0
M  V30 1130 H 106.921 -0.396652 1.56966 0
M  V30 1131 H 108.913 -3.43039 2.14724 0
M  V30 1132 H 107.483 -2.86657 1.24685 0
M  V30 1133 H 106.703 -1.81515 3.49923 0
M  V30 1134 H 107.991 -2.74786 4.28217 0
M  V30 1135 H 107.389 -5.19203 2.246 0
M  V30 1136 H 105.946 -5.81925 2.93609 0
M  V30 1137 N 109.379 -1.50304 -0.473955 0
M  V30 1138 C 110.327 -1.69482 -1.59307 0
M  V30 1139 C 111.321 -0.560669 -1.59853 0
M  V30 1140 O 112.527 -0.741087 -1.64036 0
M  V30 1141 H 108.902 -0.534892 -0.528578 0
M  V30 1142 H 110.873 -2.63364 -1.40293 0
M  V30 1143 C 109.622 -1.80354 -2.97267 0
M  V30 1144 H 108.945 -2.67012 -2.97564 0
M  V30 1145 H 110.385 -1.97798 -3.75036 0
M  V30 1146 C 108.844 -0.55448 -3.32306 0
M  V30 1147 O 109.374 0.307661 -4.0052 0
M  V30 1148 N 107.58 -0.409354 -2.87702 0
M  V30 1149 H 107.127 -1.11196 -2.32364 0
M  V30 1150 H 107.085 0.425223 -3.11511 0
M  V30 1151 N 110.857 0.726932 -1.39834 0
M  V30 1152 C 112.082 1.52121 -1.40976 0
M  V30 1153 C 112.507 1.88098 -0.00826029 0
M  V30 1154 O 111.865 1.52479 0.980807 0
M  V30 1155 C 111.913 2.78021 -2.29644 0
M  V30 1156 O 111.017 3.74272 -1.73188 0
M  V30 1157 H 110.358 0.45908 -0.479731 0
M  V30 1158 H 112.888 0.896207 -1.83927 0
M  V30 1159 H 112.898 3.26671 -2.44438 0
M  V30 1160 H 111.573 2.51169 -3.31492 0
M  V30 1161 H 110.15 3.33073 -1.6768 0
M  V30 1162 N 112.336 1.25143 0.95797 0
M  V30 1163 C 113.266 1.07711 2.07173 0
M  V30 1164 C 114.247 -0.0128462 1.70095 0
M  V30 1165 O 115.432 0.156061 1.93572 0
M  V30 1166 C 112.562 0.691503 3.40346 0
M  V30 1167 C 111.516 1.73132 3.9142 0
M  V30 1168 C 110.842 1.20049 5.21049 0
M  V30 1169 C 112.142 3.1294 4.1817 0
M  V30 1170 H 113.836 2.00873 2.22014 0
M  V30 1171 H 111.382 0.967191 1.06684 0
M  V30 1172 H 113.335 0.556505 4.17709 0
M  V30 1173 H 112.059 -0.275819 3.25433 0
M  V30 1174 H 110.718 1.8547 3.16222 0
M  V30 1175 H 110.366 0.223499 5.02503 0
M  V30 1176 H 110.066 1.89545 5.56189 0
M  V30 1177 H 111.59 1.07782 6.01012 0
M  V30 1178 H 113.004 3.03775 4.86203 0
M  V30 1179 H 111.401 3.79875 4.64559 0
M  V30 1180 H 112.471 3.6025 3.24573 0
M  V30 1181 N 113.814 -1.1601 1.06675 0
M  V30 1182 C 114.744 -2.22688 0.702307 0
M  V30 1183 C 115.725 -1.67306 -0.307032 0
M  V30 1184 O 116.91 -1.93352 -0.181305 0
M  V30 1185 C 114.04 -3.47178 0.092038 0
M  V30 1186 C 112.994 -4.15477 1.02777 0
M  V30 1187 C 112.32 -5.33963 0.28061 0
M  V30 1188 C 113.62 -4.66019 2.35846 0
M  V30 1189 H 115.314 -2.53429 1.59419 0
M  V30 1190 H 112.86 -1.21813 0.767961 0
M  V30 1191 H 114.813 -4.21037 -0.174814 0
M  V30 1192 H 113.537 -3.15749 -0.834877 0
M  V30 1193 H 112.196 -3.43549 1.27944 0
M  V30 1194 H 111.844 -4.98788 -0.649545 0
M  V30 1195 H 111.544 -5.806 0.904258 0
M  V30 1196 H 113.068 -6.10596 0.021396 0
M  V30 1197 H 114.482 -5.3144 2.15045 0
M  V30 1198 H 112.879 -5.23293 2.93743 0
M  V30 1199 H 113.949 -3.82023 2.98641 0
M  V30 1200 N 115.292 -0.849877 -1.32721 0
M  V30 1201 C 116.538 -0.460855 -1.9811 0
M  V30 1202 C 116.893 0.971716 -1.66059 0
M  V30 1203 O 116.186 1.67184 -0.935944 0
M  V30 1204 C 116.38 -0.631272 -3.51781 0
M  V30 1205 C 116.209 -2.07886 -3.98765 0
M  V30 1206 C 114.979 -2.71637 -4.26077 0
M  V30 1207 C 117.177 -3.04889 -4.14182 0
M  V30 1208 N 115.159 -4.07356 -4.59276 0
M  V30 1209 C 116.53 -4.25583 -4.50865 0
M  V30 1210 C 118.585 -3.01148 -3.96503 0
M  V30 1211 C 117.288 -5.43027 -4.71714 0
M  V30 1212 C 119.314 -4.17832 -4.18533 0
M  V30 1213 C 118.676 -5.37284 -4.55528 0
M  V30 1214 H 114.775 -0.217283 -0.751207 0
M  V30 1215 H 117.359 -1.10026 -1.60631 0
M  V30 1216 H 115.53 -0.0215966 -3.88394 0
M  V30 1217 H 117.262 -0.212614 -4.04141 0
M  V30 1218 H 114.017 -2.22705 -4.17971 0
M  V30 1219 H 114.441 -4.77351 -4.80068 0
M  V30 1220 H 119.083 -2.0992 -3.67006 0
M  V30 1221 H 116.801 -6.34791 -5.00066 0
M  V30 1222 H 120.387 -4.16368 -4.06361 0
M  V30 1223 H 119.267 -6.26071 -4.72234 0
M  V30 1224 N 116.77 1.45427 -0.607355 0
M  V30 1225 C 118.186 1.57283 -0.270985 0
M  V30 1226 C 118.386 1.59875 1.22647 0
M  V30 1227 O 117.442 1.52893 2.00948 0
M  V30 1228 C 118.755 2.85566 -0.941952 0
M  V30 1229 C 120.303 2.9924 -0.917849 0
M  V30 1230 C 120.778 4.30293 -1.56882 0
M  V30 1231 N 122.269 4.37051 -1.5343 0
M  V30 1232 C 123.004 5.37123 -2.00715 0
M  V30 1233 N 122.5 6.43734 -2.56084 0
M  V30 1234 N 124.293 5.28479 -1.91484 0
M  V30 1235 H 116.444 1.41988 -1.57966 0
M  V30 1236 H 118.707 0.67885 -0.661715 0
M  V30 1237 H 118.413 2.8955 -1.99633 0
M  V30 1238 H 118.287 3.74322 -0.465096 0
M  V30 1239 H 120.674 2.94822 0.127984 0
M  V30 1240 H 120.755 2.11895 -1.43297 0
M  V30 1241 H 120.399 4.35469 -2.61398 0
M  V30 1242 H 120.329 5.16454 -1.02873 0
M  V30 1243 H 122.82 3.60615 -1.12982 0
M  V30 1244 H 123.133 7.16341 -2.89958 0
M  V30 1245 H 121.478 6.44485 -2.60122 0
M  V30 1246 H 124.669 4.44098 -1.47967 0
M  V30 1247 H 124.842 6.0632 -2.28648 0
M  V30 1248 N 118.248 0.346503 1.53744 0
M  V30 1249 C 119.211 -0.496439 2.23759 0
M  V30 1250 C 120.211 -1.0252 1.2388 0
M  V30 1251 O 121.401 -0.913974 1.48297 0
M  V30 1252 C 118.533 -1.69187 2.95954 0
M  V30 1253 H 119.726 0.115952 2.99676 0
M  V30 1254 H 117.279 0.0978939 1.55993 0
M  V30 1255 H 118.014 -2.34288 2.24231 0
M  V30 1256 H 117.799 -1.31989 3.69217 0
M  V30 1257 H 119.289 -2.28969 3.49232 0
M  V30 1258 N 119.726 -1.57421 0.075193 0
M  V30 1259 C 120.674 -2.14124 -0.908508 0
M  V30 1260 C 121.668 -1.07898 -1.30592 0
M  V30 1261 O 122.874 -1.26273 -1.28277 0
M  V30 1262 H 119.249 -0.684707 -0.310935 0
M  V30 1263 H 121.22 -2.95634 -0.405374 0
M  V30 1264 C 119.969 -2.72044 -2.16535 0
M  V30 1265 H 119.292 -3.53456 -1.86839 0
M  V30 1266 H 120.732 -3.15311 -2.83469 0
M  V30 1267 C 119.191 -1.66968 -2.92615 0
M  V30 1268 O 119.721 -1.0967 -3.86439 0
M  V30 1269 N 117.927 -1.37923 -2.55784 0
M  V30 1270 H 117.474 -1.84706 -1.79559 0
M  V30 1271 H 117.432 -0.67852 -3.06991 0
M  V30 1272 N 121.204 0.198386 -1.56346 0
M  V30 1273 C 122.432 0.935572 -1.84539 0
M  V30 1274 C 122.847 1.76989 -0.657281 0
M  V30 1275 O 122.204 1.78626 0.374043 0
M  V30 1276 C 122.255 1.8344 -3.11499 0
M  V30 1277 O 121.976 1.03377 -4.25728 0
M  V30 1278 C 123.477 2.68355 -3.52846 0
M  V30 1279 H 120.697 0.273126 -0.612897 0
M  V30 1280 H 123.241 0.20663 -2.03453 0
M  V30 1281 H 121.396 2.51701 -2.94492 0
M  V30 1282 H 121.81 1.64599 -4.98003 0
M  V30 1283 H 123.284 3.27085 -4.44657 0
M  V30 1284 H 123.761 3.41901 -2.75681 0
M  V30 1285 H 124.367 2.05471 -3.72373 0
M  V30 1286 N 122.682 1.50554 0.465978 0
M  V30 1287 C 123.959 1.5232 1.22712 0
M  V30 1288 C 124.339 0.270807 2.09356 0
M  V30 1289 O 123.687 -0.745541 2.15995 0
M  V30 1290 C 123.897 2.82175 2.05374 0
M  V30 1291 C 125.245 3.33033 2.6339 0
M  V30 1292 O 126.269 2.83531 2.15612 0
M  V30 1293 O 125.128 4.19336 3.50456 0
M  V30 1294 H 122.222 0.611183 0.557122 0
M  V30 1295 H 124.768 1.62847 0.477381 0
M  V30 1296 H 123.54 3.64797 1.41558 0
M  V30 1297 H 123.163 2.74675 2.87471 0
M  V30 1298 N 124.16 -0.719506 1.40217 0
M  V30 1299 C 125.576 -1.02707 1.22161 0
M  V30 1300 C 125.776 -2.0128 0.0940557 0
M  V30 1301 O 124.832 -2.46452 -0.549318 0
M  V30 1302 C 126.145 -1.57454 2.56181 0
M  V30 1303 C 127.693 -1.69458 2.63159 0
M  V30 1304 C 128.168 -2.27611 3.97438 0
M  V30 1305 N 129.659 -2.35002 3.99159 0
M  V30 1306 C 130.394 -2.80972 4.99842 0
M  V30 1307 N 129.89 -3.26723 6.10921 0
M  V30 1308 N 131.683 -2.80321 4.87213 0
M  V30 1309 H 123.834 -0.0660492 2.12297 0
M  V30 1310 H 126.097 -0.0919077 0.943534 0
M  V30 1311 H 125.803 -0.924873 3.39321 0
M  V30 1312 H 125.677 -2.56036 2.76993 0
M  V30 1313 H 128.064 -2.33543 1.80393 0
M  V30 1314 H 128.145 -0.694867 2.46181 0
M  V30 1315 H 127.789 -1.6415 4.80643 0
M  V30 1316 H 127.719 -3.2829 4.11744 0
M  V30 1317 H 130.21 -2.02685 3.18947 0
M  V30 1318 H 130.523 -3.60355 6.8364 0
M  V30 1319 H 128.868 -3.24692 6.14492 0
M  V30 1320 H 132.059 -2.43912 3.9953 0
M  V30 1321 H 132.232 -3.15831 5.65822 0
M  V30 1322 N 125.638 -1.25649 -0.95132 0
M  V30 1323 C 126.601 -1.06399 -2.03007 0
M  V30 1324 C 127.601 -0.0156794 -1.60792 0
M  V30 1325 O 128.791 -0.25817 -1.72276 0
M  V30 1326 C 125.923 -0.616184 -3.35285 0
M  V30 1327 H 127.116 -2.02164 -2.21517 0
M  V30 1328 H 124.669 -1.08103 -1.12887 0
M  V30 1329 H 125.404 0.343917 -3.22471 0
M  V30 1330 H 125.189 -1.37301 -3.67275 0
M  V30 1331 H 126.679 -0.503032 -4.14559 0
M  V30 1332 N 127.117 1.15442 -1.07289 0
M  V30 1333 C 128.364 1.86213 -0.795668 0
M  V30 1334 C 128.692 1.82291 0.678238 0
M  V30 1335 O 127.947 1.24057 1.51355 0
M  V30 1336 C 128.246 3.3489 -1.24834 0
M  V30 1337 C 127.912 3.59007 -2.72809 0
M  V30 1338 C 126.574 3.65298 -3.13227 0
M  V30 1339 C 128.926 3.68762 -3.68326 0
M  V30 1340 C 126.254 3.78854 -4.4798 0
M  V30 1341 C 128.606 3.83842 -5.0284 0
M  V30 1342 C 127.27 3.88378 -5.4288 0
M  V30 1343 H 126.54 0.681403 -0.291155 0
M  V30 1344 H 129.187 1.36435 -1.34379 0
M  V30 1345 H 127.492 3.8687 -0.619595 0
M  V30 1346 H 129.189 3.88052 -1.01076 0
M  V30 1347 H 125.779 3.5475 -2.40521 0
M  V30 1348 H 129.963 3.63202 -3.38227 0
M  V30 1349 H 125.219 3.80623 -4.78472 0
M  V30 1350 H 129.393 3.90332 -5.76727 0
M  V30 1351 H 127.02 3.98635 -6.47298 0
M  V30 1352 N 128.595 0.856903 1.32268 0
M  V30 1353 C 129.525 0.31858 2.31316 0
M  V30 1354 C 130.506 -0.583487 1.59779 0
M  V30 1355 O 131.691 -0.503259 1.87566 0
M  V30 1356 C 128.821 -0.491979 3.43798 0
M  V30 1357 C 127.775 0.315849 4.26833 0
M  V30 1358 C 127.101 -0.619586 5.31098 0
M  V30 1359 C 128.401 1.54282 4.98993 0
M  V30 1360 H 130.095 1.14621 2.76591 0
M  V30 1361 H 127.641 0.552613 1.32974 0
M  V30 1362 H 129.594 -0.879012 4.1213 0
M  V30 1363 H 128.318 -1.35299 2.97257 0
M  V30 1364 H 126.977 0.684664 3.6015 0
M  V30 1365 H 126.625 -1.47751 4.8081 0
M  V30 1366 H 126.325 -0.0830621 5.87541 0
M  V30 1367 H 127.849 -1.00375 6.02293 0
M  V30 1368 H 129.263 1.22796 5.59995 0
M  V30 1369 H 127.66 2.01745 5.65172 0
M  V30 1370 H 128.73 2.30285 4.26728 0
M  V30 1371 N 130.073 -1.45103 0.615059 0
M  V30 1372 C 131.005 -2.28786 -0.13762 0
M  V30 1373 C 132.018 -1.40376 -0.824525 0
M  V30 1374 O 133.207 -1.64681 -0.688662 0
M  V30 1375 C 130.307 -3.16322 -1.21628 0
M  V30 1376 C 129.48 -4.33054 -0.615039 0
M  V30 1377 C 128.539 -5.01743 -1.58556 0
M  V30 1378 O 127.565 -5.58293 -1.10895 0
M  V30 1379 N 128.767 -5.01714 -2.91998 0
M  V30 1380 H 131.532 -2.94025 0.580483 0
M  V30 1381 H 129.093 -1.55373 0.45507 0
M  V30 1382 H 131.085 -3.59139 -1.86552 0
M  V30 1383 H 129.655 -2.52943 -1.83681 0
M  V30 1384 H 128.875 -3.93627 0.21245 0
M  V30 1385 H 130.163 -5.08431 -0.193704 0
M  V30 1386 H 129.561 -4.57075 -3.33316 0
M  V30 1387 H 128.118 -5.48371 -3.52325 0
M  V30 1388 N 131.551 -0.354651 -1.53558 0
M  V30 1389 C 132.828 0.294281 -1.93374 0
M  V30 1390 C 133.208 1.67313 -1.28723 0
M  V30 1391 O 132.556 2.24179 -0.442247 0
M  V30 1392 C 132.766 0.355445 -3.47185 0
M  V30 1393 C 134.114 0.601007 -4.20325 0
M  V30 1394 O 135.138 0.437106 -3.53508 0
M  V30 1395 O 133.997 0.919322 -5.38712 0
M  V30 1396 H 131.091 0.174033 -0.808481 0
M  V30 1397 H 133.637 -0.406638 -1.64756 0
M  V30 1398 H 132.409 -0.611729 -3.86489 0
M  V30 1399 H 132.032 1.1027 -3.82003 0
M  V30 1400 N 133.029 1.57378 -0.0835403 0
M  V30 1401 C 134.277 1.93547 0.581718 0
M  V30 1402 C 134.598 0.96524 1.69435 0
M  V30 1403 O 133.868 0.0153369 1.95894 0
M  V30 1404 H 132.448 0.714521 0.217874 0
M  V30 1405 H 135.11 1.94366 -0.144158 0
M  V30 1406 H 134.206 2.95665 0.999423 0
M  V30 1407 N 134.507 -0.190092 1.56449 0
M  V30 1408 C 135.754 -0.909705 1.80916 0
M  V30 1409 C 136.082 -1.83047 0.657583 0
M  V30 1410 O 135.337 -1.92428 -0.356356 0
M  V30 1411 C 135.636 -1.75382 3.1141 0
M  V30 1412 C 135.302 -0.983606 4.40041 0
M  V30 1413 C 133.964 -0.770967 4.74984 0
M  V30 1414 C 136.316 -0.442024 5.19322 0
M  V30 1415 C 133.644 -0.0053448 5.867 0
M  V30 1416 C 135.996 0.310412 6.31838 0
M  V30 1417 C 134.66 0.534023 6.6536 0
M  V30 1418 H 133.93 -0.332885 0.662019 0
M  V30 1419 H 136.577 -0.175762 1.90692 0
M  V30 1420 H 134.882 -2.55659 2.96893 0
M  V30 1421 H 136.579 -2.31331 3.27547 0
M  V30 1422 H 133.169 -1.15936 4.12622 0
M  V30 1423 H 137.353 -0.593693 4.92736 0
M  V30 1424 H 132.609 0.177825 6.11141 0
M  V30 1425 H 136.783 0.737419 6.92485 0
M  V30 1426 H 134.41 1.12918 7.51767 0
M  V30 1427 N 135.985 -1.50799 -0.457987 0
M  V30 1428 C 137.21 -1.66496 -1.23668 0
M  V30 1429 C 137.635 -0.353288 -1.84752 0
M  V30 1430 O 136.993 0.684346 -1.67888 0
M  V30 1431 C 137.041 -2.76763 -2.3116 0
M  V30 1432 O 136.145 -2.38928 -3.36136 0
M  V30 1433 H 135.486 -0.555828 -0.363252 0
M  V30 1434 H 138.016 -1.9725 -0.543474 0
M  V30 1435 H 138.026 -3.00232 -2.76269 0
M  V30 1436 H 136.701 -3.71954 -1.86073 0
M  V30 1437 H 135.278 -2.25953 -2.96647 0
M  V30 1438 N 137.463 0.71206 -1.40597 0
M  V30 1439 C 138.393 1.83889 -1.43899 0
M  V30 1440 C 139.374 1.67442 -0.299504 0
M  V30 1441 O 140.559 1.87421 -0.508624 0
M  V30 1442 C 137.689 3.21877 -1.30431 0
M  V30 1443 C 136.643 3.53002 -2.42019 0
M  V30 1444 C 135.969 4.90172 -2.13626 0
M  V30 1445 C 137.269 3.53643 -3.84362 0
M  V30 1446 H 138.963 1.81383 -2.38203 0
M  V30 1447 H 136.509 0.871237 -1.14654 0
M  V30 1448 H 138.462 4.00404 -1.31357 0
M  V30 1449 H 137.186 3.24968 -0.326049 0
M  V30 1450 H 135.845 2.76818 -2.40349 0
M  V30 1451 H 135.493 4.89869 -1.14182 0
M  V30 1452 H 135.193 5.11962 -2.88389 0
M  V30 1453 H 136.717 5.71028 -2.1624 0
M  V30 1454 H 138.131 4.22203 -3.87837 0
M  V30 1455 H 136.528 3.86961 -4.58673 0
M  V30 1456 H 137.598 2.52954 -4.13693 0
M  V30 1457 N 138.941 1.26152 0.944643 0
M  V30 1458 C 140.166 1.14363 1.7302 0
M  V30 1459 C 140.591 -0.29772 1.85729 0
M  V30 1460 O 139.949 -1.2157 1.34501 0
M  V30 1461 C 139.997 1.81378 3.11664 0
M  V30 1462 O 139.101 1.10022 3.97453 0
M  V30 1463 H 138.442 0.398694 0.53098 0
M  V30 1464 H 140.972 1.66906 1.18337 0
M  V30 1465 H 140.982 1.88064 3.62072 0
M  V30 1466 H 139.657 2.86237 3.0173 0
M  V30 1467 H 138.234 1.11287 3.55907 0
M  V30 1468 N 140.419 -1.14872 1.07899 0
M  V30 1469 C 141.367 -2.21857 0.698727 0
M  V30 1470 C 142.361 -1.66845 -0.293086 0
M  V30 1471 O 143.567 -1.79321 -0.156204 0
M  V30 1472 H 139.942 -0.722691 0.207899 0
M  V30 1473 H 141.913 -2.51205 1.61054 0
M  V30 1474 C 140.662 -3.47498 0.11858 0
M  V30 1475 H 139.985 -3.90154 0.872914 0
M  V30 1476 H 141.425 -4.23858 -0.109759 0
M  V30 1477 C 139.884 -3.16947 -1.1422 0
M  V30 1478 O 140.414 -3.3426 -2.22785 0
M  V30 1479 N 138.62 -2.70946 -1.05055 0
M  V30 1480 H 138.167 -2.57058 -0.167038 0
M  V30 1481 H 138.125 -2.50879 -1.89491 0
M  V30 1482 N 141.898 -0.863906 -1.31812 0
M  V30 1483 C 142.846 -0.30422 -2.30602 0
M  V30 1484 C 143.84 0.577419 -1.59255 0
M  V30 1485 O 145.046 0.464194 -1.73912 0
M  V30 1486 H 141.421 -0.0796877 -0.747766 0
M  V30 1487 H 143.392 -1.15148 -2.75288 0
M  V30 1488 C 142.141 0.484617 -3.44306 0
M  V30 1489 H 141.464 -0.18451 -3.99374 0
M  V30 1490 H 142.904 0.841664 -4.15562 0
M  V30 1491 C 141.363 1.6735 -2.92396 0
M  V30 1492 O 141.893 2.77273 -2.90659 0
M  V30 1493 N 140.099 1.50362 -2.48676 0
M  V30 1494 H 139.646 0.609402 -2.50288 0
M  V30 1495 H 139.604 2.30051 -2.14299 0
M  V30 1496 N 143.376 1.44774 -0.622745 0
M  V30 1497 C 144.601 2.06999 -0.128968 0
M  V30 1498 C 145.026 1.4617 1.1839 0
M  V30 1499 O 144.384 0.560007 1.72434 0
M  V30 1500 C 144.432 3.60595 -0.0188351 0
M  V30 1501 O 143.536 3.99398 1.02739 0
M  V30 1502 H 142.877 0.659047 -0.0809544 0
M  V30 1503 H 145.407 1.85784 -0.85705 0
M  V30 1504 H 145.417 4.07627 0.174476 0
M  V30 1505 H 144.092 4.04252 -0.977384 0
M  V30 1506 H 142.669 3.64011 0.809326 0
M  V30 1507 N 144.854 0.36279 1.53368 0
M  V30 1508 C 145.784 -0.476976 2.28576 0
M  V30 1509 C 146.765 -1.08631 1.30894 0
M  V30 1510 O 147.95 -1.10409 1.59761 0
M  V30 1511 C 145.08 -1.61828 3.07293 0
M  V30 1512 C 144.034 -1.13633 4.1264 0
M  V30 1513 C 143.36 -2.36766 4.79423 0
M  V30 1514 C 144.66 -0.223061 5.21823 0
M  V30 1515 H 146.354 0.150474 2.99022 0
M  V30 1516 H 143.9 0.0738103 1.43811 0
M  V30 1517 H 145.853 -2.21237 3.58653 0
M  V30 1518 H 144.577 -2.27292 2.34533 0
M  V30 1519 H 143.236 -0.564945 3.62221 0
M  V30 1520 H 142.884 -3.0068 4.03238 0
M  V30 1521 H 142.584 -2.05192 5.50609 0
M  V30 1522 H 144.108 -2.96865 5.33576 0
M  V30 1523 H 145.522 -0.724545 5.68703 0
M  V30 1524 H 143.919 0.001678 6.001 0
M  V30 1525 H 144.989 0.735553 4.79289 0
M  V30 1526 N 146.332 -1.57332 0.0918853 0
M  V30 1527 C 147.262 -2.16872 -0.865371 0
M  V30 1528 C 148.243 -1.10118 -1.29646 0
M  V30 1529 O 149.428 -1.38242 -1.36392 0
M  V30 1530 C 146.558 -2.74649 -2.12569 0
M  V30 1531 C 145.512 -3.86747 -1.83333 0
M  V30 1532 C 144.838 -4.31212 -3.16166 0
M  V30 1533 C 146.138 -5.10089 -1.1228 0
M  V30 1534 H 147.832 -2.97114 -0.369307 0
M  V30 1535 H 145.378 -1.42918 -0.176194 0
M  V30 1536 H 147.331 -3.14952 -2.7997 0
M  V30 1537 H 146.055 -1.91657 -2.64452 0
M  V30 1538 H 144.714 -3.46978 -1.18331 0
M  V30 1539 H 144.362 -3.45115 -3.6593 0
M  V30 1540 H 144.062 -5.06788 -2.97388 0
M  V30 1541 H 145.586 -4.74146 -3.84731 0
M  V30 1542 H 147 -5.47582 -1.69785 0
M  V30 1543 H 145.397 -5.91073 -1.03693 0
M  V30 1544 H 146.467 -4.84786 -0.105041 0
M  V30 1545 N 147.81 0.181792 -1.56548 0
M  V30 1546 C 149.056 0.901431 -1.81665 0
M  V30 1547 C 149.389 1.82347 -0.668075 0
M  V30 1548 O 148.664 1.91669 0.330615 0
M  V30 1549 C 148.947 1.70618 -3.17115 0
M  V30 1550 C 148.8 0.807964 -4.42484 0
M  V30 1551 C 150.119 2.67605 -3.49393 0
M  V30 1552 H 147.238 0.32627 -0.660846 0
M  V30 1553 H 149.88 0.168134 -1.89255 0
M  V30 1554 H 148.03 2.33133 -3.10775 0
M  V30 1555 H 149.702 0.19649 -4.60881 0
M  V30 1556 H 147.945 0.115411 -4.33646 0
M  V30 1557 H 148.616 1.40632 -5.33785 0
M  V30 1558 H 151.092 2.15218 -3.56118 0
M  V30 1559 H 149.968 3.20985 -4.45264 0
M  V30 1560 H 150.229 3.47298 -2.73563 0
M  V30 1561 N 149.288 1.51039 0.449983 0
M  V30 1562 C 150.699 1.557 1.03026 0
M  V30 1563 C 151.05 0.372939 1.92623 0
M  V30 1564 O 150.175 -0.511771 2.10261 0
M  V30 1565 C 150.77 2.82171 1.87523 0
M  V30 1566 C 149.329 2.89444 2.40622 0
M  V30 1567 C 148.476 2.50228 1.19504 0
M  V30 1568 H 151.427 1.56999 0.231745 0
M  V30 1569 H 151.448 2.65219 2.72835 0
M  V30 1570 H 150.96 3.68331 1.22286 0
M  V30 1571 H 149.061 2.07685 3.0935 0
M  V30 1572 H 149.174 3.92816 2.74285 0
M  V30 1573 H 147.538 2.03139 1.53644 0
M  V30 1574 H 148.321 3.38719 0.558972 0
M  V30 1575 N 150.766 -0.704594 1.40972 0
M  V30 1576 C 151.994 -1.49354 1.43182 0
M  V30 1577 C 152.409 -1.88768 0.0345508 0
M  V30 1578 O 151.766 -1.56184 -0.944081 0
M  V30 1579 C 151.817 -2.76187 2.33244 0
M  V30 1580 O 151.538 -2.38436 3.67532 0
M  V30 1581 C 153.039 -3.7 2.44162 0
M  V30 1582 H 150.259 -0.460559 0.487982 0
M  V30 1583 H 152.803 -0.868261 1.85153 0
M  V30 1584 H 150.958 -3.34974 1.94606 0
M  V30 1585 H 151.372 -3.20126 4.15475 0
M  V30 1586 H 152.846 -4.55803 3.11364 0
M  V30 1587 H 153.323 -4.13867 1.47006 0
M  V30 1588 H 153.929 -3.17121 2.83398 0
M  V30 1589 N 152.244 -1.26651 -0.937939 0
M  V30 1590 C 153.469 -1.15279 -1.72411 0
M  V30 1591 C 153.894 0.287866 -1.85884 0
M  V30 1592 O 153.252 1.20855 -1.35143 0
M  V30 1593 C 153.3 -1.83028 -3.10698 0
M  V30 1594 O 152.404 -1.12128 -3.96864 0
M  V30 1595 H 151.745 -0.401504 -0.528858 0
M  V30 1596 H 154.275 -1.67531 -1.1745 0
M  V30 1597 H 154.285 -1.89981 -3.6107 0
M  V30 1598 H 152.96 -2.87833 -3.00208 0
M  V30 1599 H 151.537 -1.13173 -3.55312 0
M  V30 1600 N 153.722 1.14298 -1.08507 0
M  V30 1601 C 154.97 1.84993 -0.813763 0
M  V30 1602 C 155.291 1.83405 0.662393 0
M  V30 1603 O 154.561 1.28319 1.48024 0
M  V30 1604 H 153.141 0.684966 -0.298045 0
M  V30 1605 H 155.803 1.385 -1.37126 0
M  V30 1606 H 154.899 2.89788 -1.15884 0
M  V30 1607 N 155.201 0.870884 1.31352 0
M  V30 1608 C 156.45 0.478408 1.95944 0
M  V30 1609 C 156.763 -0.974493 1.69597 0
M  V30 1610 O 157.969 -1.47316 2.28058 0
M  V30 1611 C 156.425 0.804609 3.50791 0
M  V30 1612 C 156.033 2.27433 3.85977 0
M  V30 1613 C 157.777 0.480648 4.2177 0
M  V30 1614 C 155.684 2.5429 5.33939 0
M  V30 1615 H 154.614 0.175175 0.733369 0
M  V30 1616 H 157.265 1.06391 1.4951 0
M  V30 1617 H 155.647 0.148347 3.95722 0
M  V30 1618 H 156.821 2.97373 3.52002 0
M  V30 1619 H 155.136 2.56442 3.28065 0
M  V30 1620 H 157.733 0.658519 5.30629 0
M  V30 1621 H 158.076 -0.578979 4.12254 0
M  V30 1622 H 158.609 1.09349 3.82476 0
M  V30 1623 H 155.348 3.58939 5.48491 0
M  V30 1624 H 154.868 1.88945 5.69263 0
M  V30 1625 H 156.547 2.39066 6.01212 0
M  V30 1626 N 156.679 -1.44442 0.630414 0
M  V30 1627 C 157.909 -2.06115 0.141465 0
M  V30 1628 C 158.317 -1.47179 -1.1889 0
M  V30 1629 O 157.66 -0.588873 -1.74006 0
M  V30 1630 C 157.722 -3.59467 -0.0484355 0
M  V30 1631 C 157.386 -4.40864 1.20366 0
M  V30 1632 C 158.383 -4.74391 2.12719 0
M  V30 1633 C 156.068 -4.8125 1.43887 0
M  V30 1634 C 158.062 -5.47186 3.26904 0
M  V30 1635 C 155.749 -5.53795 2.5837 0
M  V30 1636 C 156.747 -5.86682 3.49705 0
M  V30 1637 O 156.435 -6.57749 4.62191 0
M  V30 1638 H 156.167 -0.671648 0.0765792 0
M  V30 1639 H 158.721 -1.86312 0.864695 0
M  V30 1640 H 156.951 -3.77758 -0.826803 0
M  V30 1641 H 158.64 -4.02909 -0.491849 0
M  V30 1642 H 159.406 -4.43728 1.95781 0
M  V30 1643 H 155.285 -4.55073 0.736853 0
M  V30 1644 H 158.829 -5.72773 3.98217 0
M  V30 1645 H 154.726 -5.83872 2.75251 0
M  V30 1646 H 155.494 -6.76217 4.61164 0
M  V30 1647 N 158.157 -0.370918 -1.53173 0
M  V30 1648 C 159.404 0.217102 -2.01333 0
M  V30 1649 C 159.732 1.48338 -1.25802 0
M  V30 1650 O 158.987 1.92698 -0.34146 0
M  V30 1651 C 159.286 0.549696 -3.53147 0
M  V30 1652 C 158.952 -0.622872 -4.46577 0
M  V30 1653 C 157.614 -0.944595 -4.71838 0
M  V30 1654 C 159.966 -1.40819 -5.01816 0
M  V30 1655 C 157.294 -2.05351 -5.49589 0
M  V30 1656 C 159.646 -2.50757 -5.80778 0
M  V30 1657 C 158.31 -2.83458 -6.04324 0
M  V30 1658 H 157.58 0.0794431 -0.736729 0
M  V30 1659 H 160.227 -0.504481 -1.84736 0
M  V30 1660 H 158.532 1.35237 -3.6772 0
M  V30 1661 H 160.229 1.017 -3.87889 0
M  V30 1662 H 156.819 -0.36209 -4.27068 0
M  V30 1663 H 161.003 -1.17289 -4.82242 0
M  V30 1664 H 156.259 -2.3108 -5.6605 0
M  V30 1665 H 160.433 -3.12022 -6.22588 0
M  V30 1666 H 158.06 -3.69508 -6.64355 0
M  V30 1667 N 159.635 1.57281 -0.100228 0
M  V30 1668 C 160.881 1.94826 0.563101 0
M  V30 1669 C 161.214 0.982475 1.67514 0
M  V30 1670 O 160.489 0.0164069 1.94493 0
M  V30 1671 C 160.772 3.42453 1.11346 0
M  V30 1672 C 160.625 4.498 0.00612081 0
M  V30 1673 C 161.944 3.91506 2.01024 0
M  V30 1674 H 159.063 0.708428 0.203221 0
M  V30 1675 H 161.705 1.8922 -0.171979 0
M  V30 1676 H 159.855 3.47361 1.7399 0
M  V30 1677 H 161.527 4.57 -0.628357 0
M  V30 1678 H 159.77 4.28756 -0.659581 0
M  V30 1679 H 160.441 5.50306 0.432109 0
M  V30 1680 H 162.917 3.88784 1.48278 0
M  V30 1681 H 161.793 4.95358 2.36457 0
M  V30 1682 H 162.054 3.31099 2.92961 0
M  V30 1683 N 161.113 -0.173488 1.56642 0
M  V30 1684 C 162.343 -0.904781 1.85734 0
M  V30 1685 C 162.751 -1.76431 0.68328 0
M  V30 1686 O 162.094 -1.802 -0.356865 0
M  V30 1687 C 162.156 -1.83382 3.09211 0
M  V30 1688 C 161.82 -1.15411 4.42187 0
M  V30 1689 C 162.817 -0.520609 5.17287 0
M  V30 1690 C 160.502 -1.15151 4.88923 0
M  V30 1691 C 162.496 0.106412 6.37311 0
M  V30 1692 C 160.183 -0.520664 6.08878 0
M  V30 1693 C 161.181 0.107196 6.82916 0
M  V30 1694 O 160.869 0.728102 8.00596 0
M  V30 1695 H 160.601 -0.268408 0.62043 0
M  V30 1696 H 163.155 -0.179096 2.04618 0
M  V30 1697 H 161.385 -2.59976 2.86268 0
M  V30 1698 H 163.074 -2.43476 3.24768 0
M  V30 1699 H 163.84 -0.514606 4.82262 0
M  V30 1700 H 159.719 -1.62961 4.31236 0
M  V30 1701 H 163.263 0.597081 6.9504 0
M  V30 1702 H 159.16 -0.524242 6.43368 0
M  V30 1703 H 159.928 0.627138 8.16094 0
M  V30 1704 N 162.591 -1.51276 -0.441967 0
M  V30 1705 C 163.816 -1.67799 -1.21895 0
M  V30 1706 C 164.241 -0.372864 -1.84367 0
M  V30 1707 O 163.599 0.666501 -1.68604 0
M  V30 1708 C 163.647 -2.79199 -2.28211 0
M  V30 1709 O 162.751 -2.42479 -3.33583 0
M  V30 1710 H 162.092 -0.559649 -0.357336 0
M  V30 1711 H 164.622 -1.97815 -0.522522 0
M  V30 1712 H 164.632 -3.03146 -2.73069 0
M  V30 1713 H 163.307 -3.73906 -1.82118 0
M  V30 1714 H 161.884 -2.29087 -2.94234 0
M  V30 1715 N 164.069 0.697108 -1.41344 0
M  V30 1716 C 165.001 1.8224 -1.39001 0
M  V30 1717 C 166.014 1.60152 -0.292428 0
M  V30 1718 O 167.203 1.69684 -0.554048 0
M  V30 1719 C 164.303 3.18976 -1.14489 0
M  V30 1720 C 163.476 3.68105 -2.36258 0
M  V30 1721 C 162.535 4.83506 -2.07625 0
M  V30 1722 O 161.561 4.95201 -2.8065 0
M  V30 1723 N 162.763 5.70637 -1.06555 0
M  V30 1724 H 165.528 1.84742 -2.35988 0
M  V30 1725 H 163.089 0.87937 -1.35936 0
M  V30 1726 H 165.081 3.93801 -0.932885 0
M  V30 1727 H 163.651 3.11508 -0.261043 0
M  V30 1728 H 162.871 2.84204 -2.7317 0
M  V30 1729 H 164.159 3.97667 -3.17393 0
M  V30 1730 H 163.557 5.63817 -0.461125 0
M  V30 1731 H 162.114 6.45368 -0.913444 0
M  V30 1732 N 165.547 1.27147 0.931209 0
M  V30 1733 C 166.793 1.13446 1.68101 0
M  V30 1734 C 167.126 -0.319628 1.91552 0
M  V30 1735 O 166.401 -1.23407 1.50336 0
M  V30 1736 C 166.684 1.91482 3.0497 0
M  V30 1737 C 166.537 3.44855 2.88782 0
M  V30 1738 C 167.856 1.71651 4.05246 0
M  V30 1739 H 164.975 0.413498 0.610072 0
M  V30 1740 H 167.617 1.56261 1.08086 0
M  V30 1741 H 165.767 1.55095 3.56199 0
M  V30 1742 H 167.439 3.9105 2.44698 0
M  V30 1743 H 165.682 3.71373 2.24198 0
M  V30 1744 H 166.353 3.94694 3.85902 0
M  V30 1745 H 168.829 2.0337 3.63015 0
M  V30 1746 H 167.705 2.28651 4.99009 0
M  V30 1747 H 167.966 0.663555 4.37092 0
M  V30 1748 N 167.025 -1.13721 1.09112 0
M  V30 1749 C 168.271 -1.85198 0.826414 0
M  V30 1750 C 168.604 -1.83129 -0.646319 0
M  V30 1751 O 167.879 -1.2671 -1.47563 0
M  V30 1752 C 168.162 -3.33507 1.35812 0
M  V30 1753 C 168.015 -3.44108 2.89672 0
M  V30 1754 C 169.334 -4.28838 0.989256 0
M  V30 1755 H 166.453 -0.67243 0.301675 0
M  V30 1756 H 169.095 -1.33499 1.35197 0
M  V30 1757 H 167.245 -3.77666 0.911082 0
M  V30 1758 H 168.917 -3.08684 3.428 0
M  V30 1759 H 167.16 -2.85087 3.26967 0
M  V30 1760 H 167.831 -4.48388 3.21951 0
M  V30 1761 H 170.307 -3.92734 1.37475 0
M  V30 1762 H 169.183 -5.31051 1.38838 0
M  V30 1763 H 169.444 -4.4198 -0.102924 0
M  V30 1764 N 168.503 -0.877838 -1.30888 0
M  V30 1765 C 169.75 -0.492696 -1.96415 0
M  V30 1766 C 170.078 0.956671 -1.69346 0
M  V30 1767 O 169.333 1.68993 -0.986913 0
M  V30 1768 C 169.632 -0.705748 -3.50363 0
M  V30 1769 C 169.298 -2.1291 -3.97467 0
M  V30 1770 C 167.96 -2.51834 -4.1004 0
M  V30 1771 C 170.312 -3.05702 -4.22132 0
M  V30 1772 C 167.64 -3.82775 -4.44635 0
M  V30 1773 C 169.992 -4.36166 -4.58194 0
M  V30 1774 C 168.656 -4.74993 -4.68975 0
M  V30 1775 H 167.926 -0.18029 -0.718733 0
M  V30 1776 H 170.573 -1.11233 -1.55883 0
M  V30 1777 H 168.878 -0.00303058 -3.918 0
M  V30 1778 H 170.575 -0.387456 -3.99124 0
M  V30 1779 H 167.165 -1.81694 -3.88182 0
M  V30 1780 H 171.349 -2.76853 -4.11906 0
M  V30 1781 H 166.605 -4.12609 -4.51181 0
M  V30 1782 H 170.779 -5.08111 -4.76231 0
M  V30 1783 H 168.406 -5.76495 -4.95537 0
M  V30 1784 N 169.982 1.44106 -0.638065 0
M  V30 1785 C 171.207 2.0685 -0.150916 0
M  V30 1786 C 171.632 1.47417 1.16833 0
M  V30 1787 O 170.99 0.578264 1.71831 0
M  V30 1788 C 171.038 3.60555 -0.05708 0
M  V30 1789 O 170.142 4.00465 0.984972 0
M  V30 1790 H 169.483 0.658151 -0.0879399 0
M  V30 1791 H 172.013 1.84865 -0.876707 0
M  V30 1792 H 172.023 4.07789 0.131232 0
M  V30 1793 H 170.698 4.03193 -1.02021 0
M  V30 1794 H 169.275 3.64849 0.770672 0
M  V30 1795 N 171.46 0.379036 1.52974 0
M  V30 1796 C 172.708 -0.206014 2.01047 0
M  V30 1797 C 173.029 -1.48175 1.26765 0
M  V30 1798 O 172.299 -1.92085 0.384743 0
M  V30 1799 H 170.879 -0.0791184 0.742798 0
M  V30 1800 H 173.541 0.508366 1.88153 0
M  V30 1801 H 172.637 -0.423501 3.09213 0
M  V30 1802 N 172.938 -1.57226 0.108567 0
M  V30 1803 C 173.885 -2.14756 -0.845481 0
M  V30 1804 C 174.855 -1.06971 -1.27068 0
M  V30 1805 O 176.04 -1.34827 -1.35005 0
M  V30 1806 C 173.18 -2.74298 -2.09415 0
M  V30 1807 C 172.293 -3.96358 -1.71826 0
M  V30 1808 C 171.428 -4.44021 -2.9158 0
M  V30 1809 C 170.467 -5.58637 -2.50181 0
M  V30 1810 N 169.604 -6.01091 -3.62814 0
M  V30 1811 H 174.444 -2.95961 -0.348035 0
M  V30 1812 H 171.981 -1.46226 -0.160106 0
M  V30 1813 H 173.939 -3.06945 -2.82561 0
M  V30 1814 H 172.569 -1.95801 -2.56636 0
M  V30 1815 H 171.621 -3.69939 -0.885947 0
M  V30 1816 H 172.933 -4.79504 -1.37394 0
M  V30 1817 H 172.087 -4.78522 -3.72963 0
M  V30 1818 H 170.826 -3.59803 -3.29231 0
M  V30 1819 H 169.831 -5.23751 -1.67228 0
M  V30 1820 H 171.056 -6.44613 -2.13659 0
M  V30 1821 H 169.002 -5.19817 -4.00158 0
M  V30 1822 H 168.919 -6.79066 -3.32273 0
M  V30 1823 H 170.187 -6.40227 -4.44668 0
M  V30 1824 N 174.416 0.165178 -1.56732 0
M  V30 1825 C 175.379 1.18822 -1.95995 0
M  V30 1826 C 176.379 1.3685 -0.84431 0
M  V30 1827 O 177.569 1.34152 -1.11126 0
M  V30 1828 C 174.701 2.5521 -2.26011 0
M  V30 1829 H 175.894 0.851825 -2.87548 0
M  V30 1830 H 173.447 0.407857 -1.50885 0
M  V30 1831 H 174.182 2.93852 -1.37191 0
M  V30 1832 H 173.967 2.43489 -3.07336 0
M  V30 1833 H 175.457 3.28927 -2.57288 0
M  V30 1834 N 175.894 1.51508 0.433938 0
M  V30 1835 C 177.124 1.67914 1.20369 0
M  V30 1836 C 177.532 0.377461 1.85397 0
M  V30 1837 O 176.875 -0.654255 1.71654 0
M  V30 1838 C 176.937 2.74045 2.32679 0
M  V30 1839 C 176.601 4.16543 1.87991 0
M  V30 1840 C 177.598 5.01211 1.38145 0
M  V30 1841 C 175.283 4.6266 1.95579 0
M  V30 1842 C 177.277 6.30056 0.964774 0
M  V30 1843 C 174.964 5.91501 1.53523 0
M  V30 1844 C 175.962 6.75027 1.04055 0
M  V30 1845 O 175.65 8.01459 0.625964 0
M  V30 1846 H 175.382 0.566578 0.368735 0
M  V30 1847 H 177.936 1.98709 0.51999 0
M  V30 1848 H 176.166 2.38572 3.04336 0
M  V30 1849 H 177.855 2.79295 2.94532 0
M  V30 1850 H 178.621 4.66783 1.31675 0
M  V30 1851 H 174.5 3.97767 2.33029 0
M  V30 1852 H 178.044 6.95202 0.57796 0
M  V30 1853 H 173.941 6.25442 1.59665 0
M  V30 1854 H 174.709 8.15043 0.751509 0
M  V30 1855 N 177.372 -0.689602 1.41712 0
M  V30 1856 C 178.597 -1.48329 1.44959 0
M  V30 1857 C 179.022 -1.8801 0.0581283 0
M  V30 1858 O 178.38 -1.55026 -0.940035 0
M  V30 1859 C 178.428 -2.71835 2.36935 0
M  V30 1860 O 177.532 -3.69549 1.8305 0
M  V30 1861 H 176.873 -0.446199 0.491734 0
M  V30 1862 H 179.403 -0.847127 1.86239 0
M  V30 1863 H 179.413 -3.20076 2.53013 0
M  V30 1864 H 178.088 -2.42291 3.38035 0
M  V30 1865 H 176.665 -3.2851 1.76452 0
M  V30 1866 N 178.85 -1.27639 -0.924453 0
M  V30 1867 C 180.261 -1.12834 -1.48746 0
M  V30 1868 C 180.612 0.285505 -1.94112 0
M  V30 1869 O 179.737 1.17874 -1.81479 0
M  V30 1870 C 180.332 -2.04217 -2.70334 0
M  V30 1871 C 178.891 -1.93509 -3.22848 0
M  V30 1872 C 178.038 -1.96583 -1.95577 0
M  V30 1873 H 180.989 -1.40484 -0.738233 0
M  V30 1874 H 181.01 -1.59989 -3.4523 0
M  V30 1875 H 180.522 -3.07111 -2.37285 0
M  V30 1876 H 178.623 -0.936131 -3.60649 0
M  V30 1877 H 178.736 -2.79917 -3.88823 0
M  V30 1878 H 177.1 -1.4085 -2.12211 0
M  V30 1879 H 177.883 -3.01137 -1.64837 0
M  V30 1880 N 180.328 1.1314 -1.09713 0
M  V30 1881 C 181.275 2.18642 -0.739196 0
M  V30 1882 C 182.245 1.63706 0.280978 0
M  V30 1883 O 183.43 1.90111 0.161946 0
M  V30 1884 C 180.57 3.44685 -0.169102 0
M  V30 1885 C 179.683 4.13711 -1.24367 0
M  V30 1886 C 178.818 5.27379 -0.636019 0
M  V30 1887 C 177.857 5.88259 -1.69169 0
M  V30 1888 N 176.994 6.93352 -1.10485 0
M  V30 1889 H 181.834 2.48607 -1.64312 0
M  V30 1890 H 179.371 1.22066 -0.820875 0
M  V30 1891 H 181.329 4.16815 0.179256 0
M  V30 1892 H 179.959 3.15161 0.698079 0
M  V30 1893 H 179.011 3.39835 -1.70927 0
M  V30 1894 H 180.323 4.55037 -2.04311 0
M  V30 1895 H 179.477 6.06238 -0.236677 0
M  V30 1896 H 178.216 4.8731 0.194928 0
M  V30 1897 H 177.221 5.08092 -2.10055 0
M  V30 1898 H 178.446 6.30399 -2.52536 0
M  V30 1899 H 176.392 6.55335 -0.295234 0
M  V30 1900 H 176.309 7.33236 -1.84121 0
M  V30 1901 H 177.577 7.76057 -0.73181 0
M  V30 1902 N 181.806 0.884767 1.30421 0
M  V30 1903 C 182.769 0.356277 2.26414 0
M  V30 1904 C 183.769 -0.501124 1.52792 0
M  V30 1905 O 184.959 -0.30831 1.7145 0
M  V30 1906 C 182.091 -0.492316 3.37326 0
M  V30 1907 H 183.284 1.20389 2.74675 0
M  V30 1908 H 180.837 0.661607 1.41607 0
M  V30 1909 H 181.572 -1.36052 2.94381 0
M  V30 1910 H 181.357 0.121832 3.91911 0
M  V30 1911 H 182.847 -0.853871 4.08777 0
M  V30 1912 N 183.284 -1.43765 0.645699 0
M  V30 1913 C 184.512 -2.06253 0.163556 0
M  V30 1914 C 184.927 -1.48352 -1.16778 0
M  V30 1915 O 184.284 -0.611932 -1.71935 0
M  V30 1916 C 184.335 -3.61453 0.0583186 0
M  V30 1917 O 184.056 -4.172 1.33702 0
M  V30 1918 C 185.557 -4.41002 -0.450795 0
M  V30 1919 H 182.777 -0.665413 0.0864077 0
M  V30 1920 H 185.321 -1.84396 0.884222 0
M  V30 1921 H 183.476 -3.82522 -0.612865 0
M  V30 1922 H 183.89 -5.10791 1.19131 0
M  V30 1923 H 185.364 -5.49966 -0.473403 0
M  V30 1924 H 185.841 -4.13488 -1.48068 0
M  V30 1925 H 186.447 -4.24886 0.187637 0
M  V30 1926 N 184.763 -0.387143 -1.52771 0
M  V30 1927 C 185.988 0.198407 -2.06449 0
M  V30 1928 C 186.413 1.39918 -1.25716 0
M  V30 1929 O 185.771 1.79099 -0.281657 0
M  V30 1930 C 185.819 0.548893 -3.56398 0
M  V30 1931 O 184.923 1.64315 -3.78252 0
M  V30 1932 H 184.264 0.0237731 -0.663574 0
M  V30 1933 H 186.794 -0.553989 -1.96957 0
M  V30 1934 H 186.804 0.813812 -3.99801 0
M  V30 1935 H 185.479 -0.329005 -4.14597 0
M  V30 1936 H 184.056 1.37211 -3.46738 0
M  V30 1937 N 186.241 1.57166 -0.116904 0
M  V30 1938 C 187.466 1.999 0.55271 0
M  V30 1939 C 187.891 0.996039 1.59564 0
M  V30 1940 O 187.249 -0.032556 1.81271 0
M  V30 1941 C 187.297 3.4152 1.15742 0
M  V30 1942 O 186.401 3.44106 2.27299 0
M  V30 1943 H 185.742 0.649447 0.138258 0
M  V30 1944 H 188.272 2.03573 -0.204759 0
M  V30 1945 H 188.282 3.79684 1.49346 0
M  V30 1946 H 186.957 4.14034 0.393493 0
M  V30 1947 H 185.534 3.17759 1.9515 0
M  V30 1948 N 187.719 -0.156864 1.56817 0
M  V30 1949 C 189.13 -0.717916 1.72345 0
M  V30 1950 C 189.481 -1.82124 0.729747 0
M  V30 1951 O 188.606 -2.16141 -0.105781 0
M  V30 1952 C 189.201 -1.30904 3.12489 0
M  V30 1953 C 187.76 -1.81676 3.29653 0
M  V30 1954 C 186.907 -0.701349 2.68284 0
M  V30 1955 H 189.858 0.0686989 1.58551 0
M  V30 1956 H 189.879 -2.17882 3.11942 0
M  V30 1957 H 189.391 -0.505796 3.8479 0
M  V30 1958 H 187.492 -2.64598 2.62333 0
M  V30 1959 H 187.605 -1.95226 4.3752 0
M  V30 1960 H 185.969 -1.12548 2.28484 0
M  V30 1961 H 186.752 0.0902846 3.43181 0
M  V30 1962 N 189.197 -1.51736 -0.425897 0
M  V30 1963 C 190.127 -1.76827 -1.52494 0
M  V30 1964 C 191.108 -0.618524 -1.58456 0
M  V30 1965 O 192.293 -0.862416 -1.74 0
M  V30 1966 C 189.423 -1.90374 -2.90474 0
M  V30 1967 C 188.377 -3.0588 -2.99369 0
M  V30 1968 C 187.703 -3.04625 -4.3944 0
M  V30 1969 C 189.003 -4.45644 -2.72394 0
M  V30 1970 H 190.697 -2.68855 -1.31748 0
M  V30 1971 H 188.243 -1.29372 -0.632362 0
M  V30 1972 H 190.196 -2.0651 -3.6733 0
M  V30 1973 H 188.92 -0.95004 -3.12477 0
M  V30 1974 H 187.579 -2.89467 -2.24954 0
M  V30 1975 H 187.227 -2.0701 -4.58428 0
M  V30 1976 H 186.927 -3.82195 -4.46319 0
M  V30 1977 H 188.451 -3.22869 -5.18255 0
M  V30 1978 H 189.865 -4.62348 -3.38979 0
M  V30 1979 H 188.262 -5.25006 -2.9067 0
M  V30 1980 H 189.332 -4.54893 -1.67929 0
M  V30 1981 N 190.675 0.682077 -1.42076 0
M  V30 1982 C 191.905 1.46844 -1.45329 0
M  V30 1983 C 192.313 1.89102 -0.0609328 0
M  V30 1984 O 191.656 1.58238 0.933082 0
M  V30 1985 C 191.718 2.75375 -2.31104 0
M  V30 1986 C 191.382 2.55238 -3.79081 0
M  V30 1987 C 192.379 2.20309 -4.70914 0
M  V30 1988 C 190.064 2.70459 -4.2327 0
M  V30 1989 C 192.058 2.00859 -6.04925 0
M  V30 1990 C 189.745 2.50624 -5.57343 0
M  V30 1991 C 190.743 2.15876 -6.47986 0
M  V30 1992 O 190.431 1.96227 -7.79583 0
M  V30 1993 H 190.163 0.4586 -0.496651 0
M  V30 1994 H 192.717 0.846131 -1.87162 0
M  V30 1995 H 190.947 3.40061 -1.84107 0
M  V30 1996 H 192.636 3.37231 -2.25898 0
M  V30 1997 H 193.402 2.08153 -4.38061 0
M  V30 1998 H 189.281 2.96485 -3.53012 0
M  V30 1999 H 192.825 1.7366 -6.75639 0
M  V30 2000 H 188.722 2.62375 -5.89771 0
M  V30 2001 H 189.49 2.10883 -7.90867 0
M  V30 2002 N 192.153 1.28127 0.917671 0
M  V30 2003 C 193.083 1.14248 2.03641 0
M  V30 2004 C 194.064 0.0412748 1.7005 0
M  V30 2005 O 195.249 0.217566 1.92977 0
M  V30 2006 C 192.379 0.799431 3.37974 0
M  V30 2007 C 191.333 1.85497 3.85713 0
M  V30 2008 C 190.659 1.36565 5.16966 0
M  V30 2009 C 191.959 3.26085 4.08002 0
M  V30 2010 H 193.653 2.07835 2.15511 0
M  V30 2011 H 191.199 1.00064 1.03553 0
M  V30 2012 H 193.152 0.689114 4.15727 0
M  V30 2013 H 191.876 -0.172145 3.26146 0
M  V30 2014 H 190.535 1.95437 3.10161 0
M  V30 2015 H 190.183 0.383253 5.01538 0
M  V30 2016 H 189.883 2.07143 5.49878 0
M  V30 2017 H 191.407 1.26848 5.97279 0
M  V30 2018 H 192.821 3.19089 4.76293 0
M  V30 2019 H 191.218 3.94462 4.52238 0
M  V30 2020 H 192.288 3.70394 3.12948 0
M  V30 2021 N 193.631 -1.12557 1.10312 0
M  V30 2022 C 194.594 -2.16434 0.75424 0
M  V30 2023 C 195.594 -1.59278 -0.220685 0
M  V30 2024 O 196.784 -1.742 0.00230591 0
M  V30 2025 C 193.916 -3.40699 0.116987 0
M  V30 2026 H 195.109 -2.48811 1.67431 0
M  V30 2027 H 192.662 -1.27542 0.903475 0
M  V30 2028 H 193.397 -3.13921 -0.813877 0
M  V30 2029 H 193.182 -3.83459 0.818613 0
M  V30 2030 H 194.672 -4.17451 -0.111387 0
M  V30 2031 N 195.109 -0.891671 -1.2995 0
M  V30 2032 C 196.059 -0.334811 -2.25528 0
M  V30 2033 C 197.043 0.540553 -1.51548 0
M  V30 2034 O 198.235 0.383882 -1.72787 0
M  V30 2035 C 195.364 0.44374 -3.4042 0
M  V30 2036 C 194.45 -0.44609 -4.21747 0
M  V30 2037 N 194.841 -1.54963 -4.81477 0
M  V30 2038 C 193.139 -0.242415 -4.45341 0
M  V30 2039 C 193.84 -2.10015 -5.42465 0
M  V30 2040 N 192.816 -1.39423 -5.25416 0
M  V30 2041 H 196.618 -1.17792 -2.69262 0
M  V30 2042 H 194.132 -0.741822 -1.44467 0
M  V30 2043 H 196.129 0.859362 -4.07947 0
M  V30 2044 H 194.789 1.28421 -2.98225 0
M  V30 2045 H 195.8 -1.93244 -4.80497 0
M  V30 2046 H 192.477 0.560342 -4.13723 0
M  V30 2047 H 193.867 -3.02724 -5.9984 0
M  V30 2048 N 196.587 1.43421 -0.653314 0
M  V30 2049 C 197.497 2.34568 0.0388565 0
M  V30 2050 C 198.513 1.53888 0.81207 0
M  V30 2051 O 199.689 1.86539 0.759294 0
M  V30 2052 C 196.754 3.32167 0.993269 0
M  V30 2053 C 195.815 4.28751 0.216977 0
M  V30 2054 C 195.048 5.21688 1.12593 0
M  V30 2055 O 195.271 5.19052 2.36519 0
M  V30 2056 O 194.205 5.98919 0.598284 0
M  V30 2057 H 198.031 2.95251 -0.711386 0
M  V30 2058 H 195.616 1.43564 -0.413502 0
M  V30 2059 H 197.498 3.92183 1.54176 0
M  V30 2060 H 196.173 2.73987 1.72374 0
M  V30 2061 H 195.08 3.72215 -0.375101 0
M  V30 2062 H 196.413 4.89913 -0.473924 0
M  V30 2063 N 198.065 0.39524 1.52563 0
M  V30 2064 C 199.311 -0.185318 2.01952 0
M  V30 2065 C 199.644 -1.45964 1.28095 0
M  V30 2066 O 198.919 -1.90689 0.38315 0
M  V30 2067 C 199.202 -0.447193 3.57312 0
M  V30 2068 C 199.055 0.842828 4.41833 0
M  V30 2069 C 200.374 -1.23529 4.22408 0
M  V30 2070 H 197.493 -0.0658788 0.73405 0
M  V30 2071 H 200.135 0.525975 1.82575 0
M  V30 2072 H 198.285 -1.05312 3.73954 0
M  V30 2073 H 199.957 1.4795 4.36931 0
M  V30 2074 H 198.2 1.45686 4.08605 0
M  V30 2075 H 198.871 0.614165 5.48573 0
M  V30 2076 H 201.347 -0.722445 4.0978 0
M  V30 2077 H 200.223 -1.38727 5.3108 0
M  V30 2078 H 200.484 -2.25213 3.80436 0
M  V30 2079 N 199.544 -1.57102 0.125237 0
M  V30 2080 C 200.476 -2.12726 -0.853237 0
M  V30 2081 C 201.489 -1.07145 -1.22571 0
M  V30 2082 O 202.678 -1.34497 -1.17358 0
M  V30 2083 C 199.778 -2.61709 -2.15317 0
M  V30 2084 C 198.951 -3.91456 -1.95143 0
M  V30 2085 C 198.01 -4.25973 -3.08923 0
M  V30 2086 O 197.036 -4.94682 -2.81564 0
M  V30 2087 N 198.238 -3.83795 -4.35524 0
M  V30 2088 H 201.003 -2.97307 -0.377964 0
M  V30 2089 H 198.564 -1.61792 -0.0590011 0
M  V30 2090 H 200.556 -2.81826 -2.90441 0
M  V30 2091 H 199.126 -1.81974 -2.54174 0
M  V30 2092 H 198.346 -3.80185 -1.04177 0
M  V30 2093 H 199.634 -4.76283 -1.78976 0
M  V30 2094 H 199.032 -3.2839 -4.60626 0
M  V30 2095 H 197.589 -4.09008 -5.07499 0
M  V30 2096 N 201.022 0.148545 -1.56898 0
M  V30 2097 C 201.952 1.18524 -2.01182 0
M  V30 2098 C 202.933 1.4489 -0.891123 0
M  V30 2099 O 204.118 1.55836 -1.15882 0
M  V30 2100 C 201.248 2.51879 -2.39112 0
M  V30 2101 C 200.202 2.40038 -3.54353 0
M  V30 2102 C 199.528 3.78089 -3.78091 0
M  V30 2103 C 200.828 1.88577 -4.87069 0
M  V30 2104 H 202.522 0.817029 -2.88036 0
M  V30 2105 H 200.068 0.391575 -1.38574 0
M  V30 2106 H 202.021 3.24627 -2.68692 0
M  V30 2107 H 200.745 2.90532 -1.49193 0
M  V30 2108 H 199.404 1.69742 -3.24936 0
M  V30 2109 H 199.052 4.14175 -2.85426 0
M  V30 2110 H 198.752 3.71028 -4.55645 0
M  V30 2111 H 200.276 4.52387 -4.10095 0
M  V30 2112 H 201.69 2.51117 -5.15377 0
M  V30 2113 H 200.087 1.9241 -5.68417 0
M  V30 2114 H 201.157 0.84136 -4.77545 0
M  V30 2115 N 202.5 1.5196 0.417844 0
M  V30 2116 C 203.747 1.65591 1.16559 0
M  V30 2117 C 204.075 0.381565 1.90721 0
M  V30 2118 O 203.33 -0.635156 1.85106 0
M  V30 2119 C 203.629 2.82269 2.19223 0
M  V30 2120 C 203.295 4.20819 1.61933 0
M  V30 2121 C 201.957 4.58506 1.46033 0
M  V30 2122 C 204.309 5.07196 1.20008 0
M  V30 2123 C 201.637 5.80257 0.867113 0
M  V30 2124 C 203.989 6.29544 0.621086 0
M  V30 2125 C 202.653 6.65987 0.449144 0
M  V30 2126 H 201.923 0.605939 0.42652 0
M  V30 2127 H 204.57 1.86041 0.45397 0
M  V30 2128 H 202.875 2.56118 2.96498 0
M  V30 2129 H 204.572 2.90012 2.76936 0
M  V30 2130 H 201.162 3.91116 1.7529 0
M  V30 2131 H 205.346 4.7867 1.31105 0
M  V30 2132 H 200.602 6.07124 0.721833 0
M  V30 2133 H 204.776 6.95805 0.287798 0
M  V30 2134 H 202.403 7.60199 -0.012632 0
M  V30 2135 N 203.978 -0.674533 1.42435 0
M  V30 2136 C 205.203 -1.46784 1.46524 0
M  V30 2137 C 205.628 -1.87938 0.078066 0
M  V30 2138 O 204.986 -1.56014 -0.92354 0
M  V30 2139 C 205.034 -2.69307 2.39805 0
M  V30 2140 O 204.138 -3.67587 1.86959 0
M  V30 2141 H 203.479 -0.440959 0.496439 0
M  V30 2142 H 206.009 -0.827326 1.87127 0
M  V30 2143 H 206.019 -3.17374 2.56393 0
M  V30 2144 H 204.694 -2.38692 3.40586 0
M  V30 2145 H 203.271 -3.2662 1.79927 0
M  V30 2146 N 205.456 -1.28612 -0.910864 0
M  V30 2147 C 206.681 -1.1891 -1.69927 0
M  V30 2148 C 207.106 0.248372 -1.86453 0
M  V30 2149 O 206.464 1.17961 -1.37676 0
M  V30 2150 C 206.512 -1.89578 -3.06745 0
M  V30 2151 O 205.616 -1.20521 -3.94396 0
M  V30 2152 H 204.957 -0.412632 -0.520222 0
M  V30 2153 H 207.487 -1.69985 -1.1387 0
M  V30 2154 H 207.497 -1.97597 -3.56958 0
M  V30 2155 H 206.172 -2.94136 -2.94035 0
M  V30 2156 H 204.749 -1.20684 -3.52831 0
M  V30 2157 N 206.934 1.1197 -1.10907 0
M  V30 2158 C 207.866 2.17592 -0.720175 0
M  V30 2159 C 208.879 1.60938 0.245495 0
M  V30 2160 O 210.068 1.78476 0.0292245 0
M  V30 2161 C 207.168 3.38873 -0.0427917 0
M  V30 2162 C 206.341 4.25006 -1.03388 0
M  V30 2163 C 205.4 5.24774 -0.387075 0
M  V30 2164 O 204.426 5.59631 -1.03934 0
M  V30 2165 N 205.628 5.74208 0.852407 0
M  V30 2166 H 208.393 2.51567 -1.62893 0
M  V30 2167 H 205.954 1.27439 -0.998543 0
M  V30 2168 H 207.946 4.02703 0.401501 0
M  V30 2169 H 206.516 3.03007 0.768456 0
M  V30 2170 H 205.736 3.57716 -1.65629 0
M  V30 2171 H 207.024 4.79397 -1.70458 0
M  V30 2172 H 206.422 5.48062 1.40161 0
M  V30 2173 H 204.979 6.39901 1.23977 0
M  V30 2174 N 208.412 0.89855 1.29475 0
M  V30 2175 C 209.642 0.538479 1.99459 0
M  V30 2176 C 210.05 -0.880922 1.67441 0
M  V30 2177 O 209.393 -1.59283 0.915127 0
M  V30 2178 C 209.455 0.649564 3.53583 0
M  V30 2179 C 209.119 2.03573 4.09154 0
M  V30 2180 C 210.116 3.00675 4.24135 0
M  V30 2181 C 207.801 2.3448 4.44212 0
M  V30 2182 C 209.795 4.26809 4.73405 0
M  V30 2183 C 207.482 3.60857 4.93179 0
M  V30 2184 C 208.48 4.56836 5.0773 0
M  V30 2185 O 208.168 5.80969 5.55635 0
M  V30 2186 H 207.9 0.205372 0.644048 0
M  V30 2187 H 210.454 1.20958 1.66007 0
M  V30 2188 H 208.684 -0.0785592 3.8662 0
M  V30 2189 H 210.373 0.29881 4.04799 0
M  V30 2190 H 211.139 2.78112 3.97339 0
M  V30 2191 H 207.018 1.60534 4.32145 0
M  V30 2192 H 210.562 5.0173 4.84678 0
M  V30 2193 H 206.459 3.83251 5.19412 0
M  V30 2194 H 207.227 5.83542 5.73952 0
M  V30 2195 N 209.89 -1.43072 0.660911 0
M  V30 2196 C 211.301 -1.84932 0.256348 0
M  V30 2197 C 211.652 -1.55325 -1.19868 0
M  V30 2198 O 210.777 -1.00607 -1.91591 0
M  V30 2199 C 211.372 -3.35684 0.458475 0
M  V30 2200 C 209.931 -3.76245 0.108161 0
M  V30 2201 C 209.078 -2.66749 0.757641 0
M  V30 2202 H 212.029 -1.33116 0.864051 0
M  V30 2203 H 212.05 -3.79365 -0.293683 0
M  V30 2204 H 211.562 -3.572 1.51755 0
M  V30 2205 H 209.663 -3.60338 -0.948014 0
M  V30 2206 H 209.776 -4.76058 0.538992 0
M  V30 2207 H 208.14 -2.53989 0.190185 0
M  V30 2208 H 208.923 -2.91092 1.81989 0
M  V30 2209 N 211.368 -0.403325 -1.52352 0
M  V30 2210 C 212.615 0.174347 -2.01748 0
M  V30 2211 C 212.943 1.45636 -1.2892 0
M  V30 2212 O 212.198 1.9193 -0.382258 0
M  V30 2213 C 212.497 0.474665 -3.54234 0
M  V30 2214 C 212.163 -0.717458 -4.45155 0
M  V30 2215 C 210.825 -1.04447 -4.69728 0
M  V30 2216 C 213.177 -1.51432 -4.98716 0
M  V30 2217 C 210.505 -2.16963 -5.45109 0
M  V30 2218 C 212.857 -2.6302 -5.75329 0
M  V30 2219 C 211.521 -2.96213 -5.98175 0
M  V30 2220 H 210.791 0.0637981 -0.738248 0
M  V30 2221 H 213.438 -0.543553 -1.83624 0
M  V30 2222 H 211.743 1.27406 -3.70506 0
M  V30 2223 H 213.44 0.934496 -3.89959 0
M  V30 2224 H 210.03 -0.452596 -4.26204 0
M  V30 2225 H 214.214 -1.27491 -4.79645 0
M  V30 2226 H 209.47 -2.43034 -5.61021 0
M  V30 2227 H 213.644 -3.25158 -6.15829 0
M  V30 2228 H 211.271 -3.83516 -6.56368 0
M  V30 2229 N 212.846 1.57033 -0.133567 0
M  V30 2230 C 213.796 2.12641 0.822671 0
M  V30 2231 C 214.78 1.05081 1.21847 0
M  V30 2232 O 215.972 1.31287 1.18713 0
M  V30 2233 C 213.101 2.74094 2.06706 0
M  V30 2234 C 212.187 3.88757 1.69497 0
M  V30 2235 N 212.578 4.95194 1.03037 0
M  V30 2236 C 210.876 3.99213 1.98859 0
M  V30 2237 C 211.577 5.75414 0.852873 0
M  V30 2238 N 210.553 5.25726 1.3825 0
M  V30 2239 H 214.355 2.92308 0.305537 0
M  V30 2240 H 211.869 1.62256 0.0684276 0
M  V30 2241 H 213.866 3.12285 2.76195 0
M  V30 2242 H 212.526 1.95896 2.5895 0
M  V30 2243 H 213.537 5.13247 0.692669 0
M  V30 2244 H 210.214 3.32075 2.53047 0
M  V30 2245 H 211.604 6.71089 0.330091 0
M  V30 2246 N 214.325 -0.140222 1.56975 0
M  V30 2247 C 215.571 -0.852949 1.83991 0
M  V30 2248 C 215.904 -1.80512 0.716187 0
M  V30 2249 O 215.179 -1.92479 -0.279681 0
M  V30 2250 C 215.462 -1.6215 3.21527 0
M  V30 2251 C 215.315 -0.690363 4.4447 0
M  V30 2252 C 216.634 -2.58247 3.56366 0
M  V30 2253 H 213.753 -0.308634 0.669264 0
M  V30 2254 H 216.395 -0.117898 1.89634 0
M  V30 2255 H 214.545 -2.24812 3.16847 0
M  V30 2256 H 216.217 -0.0742264 4.6124 0
M  V30 2257 H 214.46 -0.000396433 4.338 0
M  V30 2258 H 215.131 -1.2643 5.37326 0
M  V30 2259 H 217.607 -2.05701 3.61699 0
M  V30 2260 H 216.483 -3.09067 4.53617 0
M  V30 2261 H 216.744 -3.39923 2.82674 0
M  V30 2262 N 215.803 -1.52179 -0.40978 0
M  V30 2263 C 217.214 -1.58377 -0.988615 0
M  V30 2264 C 217.565 -0.423879 -1.91566 0
M  V30 2265 O 216.69 0.455844 -2.11544 0
M  V30 2266 C 217.285 -2.87044 -1.79976 0
M  V30 2267 C 215.844 -2.95722 -2.32863 0
M  V30 2268 C 214.991 -2.53309 -1.12828 0
M  V30 2269 H 217.942 -1.57558 -0.190039 0
M  V30 2270 H 217.963 -2.7236 -2.65707 0
M  V30 2271 H 217.475 -3.71444 -1.12478 0
M  V30 2272 H 215.576 -2.15814 -3.03735 0
M  V30 2273 H 215.689 -3.99951 -2.63773 0
M  V30 2274 H 214.053 -2.07142 -1.48204 0
M  V30 2275 H 214.836 -3.40082 -0.46897 0
M  V30 2276 N 217.281 0.66697 -1.42791 0
M  V30 2277 C 218.211 1.79218 -1.49677 0
M  V30 2278 C 219.192 1.66405 -0.352623 0
M  V30 2279 O 220.377 1.85708 -0.567993 0
M  V30 2280 C 217.507 3.17565 -1.40605 0
M  V30 2281 C 216.461 3.45124 -2.53127 0
M  V30 2282 C 215.787 4.83127 -2.29112 0
M  V30 2283 C 217.087 3.41236 -3.95418 0
M  V30 2284 H 218.781 1.73713 -2.43853 0
M  V30 2285 H 216.327 0.83432 -1.17367 0
M  V30 2286 H 218.28 3.96022 -1.44029 0
M  V30 2287 H 217.004 3.23767 -0.429271 0
M  V30 2288 H 215.663 2.69031 -2.49034 0
M  V30 2289 H 215.311 4.85988 -1.29709 0
M  V30 2290 H 215.011 5.02528 -3.04531 0
M  V30 2291 H 216.535 5.63859 -2.34297 0
M  V30 2292 H 217.949 4.09651 -4.01073 0
M  V30 2293 H 216.346 3.72173 -4.70752 0
M  V30 2294 H 217.416 2.39665 -4.21532 0
M  V30 2295 N 218.759 1.29093 0.90403 0
M  V30 2296 C 219.689 1.16401 2.02418 0
M  V30 2297 C 220.67 0.0593085 1.69997 0
M  V30 2298 O 221.855 0.238021 1.92736 0
M  V30 2299 C 218.985 0.835233 3.37107 0
M  V30 2300 C 217.939 1.89578 3.83724 0
M  V30 2301 C 217.265 1.42041 5.15489 0
M  V30 2302 C 218.565 3.30394 4.04521 0
M  V30 2303 H 220.259 2.10109 2.13295 0
M  V30 2304 H 217.805 1.01157 1.02486 0
M  V30 2305 H 219.758 0.733169 4.14973 0
M  V30 2306 H 218.482 -0.137543 3.2631 0
M  V30 2307 H 217.141 1.98715 3.08071 0
M  V30 2308 H 216.789 0.436426 5.01103 0
M  V30 2309 H 216.489 2.12964 5.4765 0
M  V30 2310 H 218.013 1.33176 5.959 0
M  V30 2311 H 219.427 3.24123 4.72882 0
M  V30 2312 H 217.824 3.99237 4.48029 0
M  V30 2313 H 218.894 3.73692 3.09002 0
M  V30 2314 N 220.237 -1.11381 1.11499 0
M  V30 2315 C 221.462 -1.87475 0.887019 0
M  V30 2316 C 221.887 -1.79639 -0.557796 0
M  V30 2317 O 221.245 -1.15924 -1.39396 0
M  V30 2318 C 221.293 -3.34213 1.35403 0
M  V30 2319 O 220.397 -4.0903 0.526146 0
M  V30 2320 H 219.738 -0.582099 0.319463 0
M  V30 2321 H 222.268 -1.40785 1.48461 0
M  V30 2322 H 222.278 -3.8506 1.34881 0
M  V30 2323 H 220.953 -3.39232 2.40612 0
M  V30 2324 H 219.53 -3.68082 0.597522 0
M  V30 2325 N 221.715 -0.905404 -1.28997 0
M  V30 2326 C 222.94 -0.549175 -1.99997 0
M  V30 2327 C 223.365 0.860276 -1.67275 0
M  V30 2328 O 222.723 1.57355 -0.900502 0
M  V30 2329 C 222.771 -0.755185 -3.52604 0
M  V30 2330 O 221.875 0.189692 -4.11964 0
M  V30 2331 H 221.216 -0.213899 -0.628604 0
M  V30 2332 H 223.746 -1.21856 -1.64354 0
M  V30 2333 H 223.756 -0.662045 -4.02593 0
M  V30 2334 H 222.431 -1.78271 -3.75755 0
M  V30 2335 H 221.008 0.0485257 -3.72868 0
M  V30 2336 N 223.193 1.4272 -0.668489 0
M  V30 2337 C 224.125 2.2914 0.052613 0
M  V30 2338 C 225.138 1.43339 0.771857 0
M  V30 2339 O 226.327 1.67123 0.627067 0
M  V30 2340 C 223.427 3.20618 1.09804 0
M  V30 2341 C 222.6 4.35039 0.45389 0
M  V30 2342 C 221.659 5.07282 1.39825 0
M  V30 2343 O 220.685 5.62024 0.900978 0
M  V30 2344 N 221.887 5.12206 2.73176 0
M  V30 2345 H 224.652 2.91668 -0.689209 0
M  V30 2346 H 222.213 1.53577 -0.512422 0
M  V30 2347 H 224.205 3.65815 1.73094 0
M  V30 2348 H 222.775 2.59585 1.74167 0
M  V30 2349 H 221.995 3.92567 -0.358396 0
M  V30 2350 H 223.283 5.088 0.00486972 0
M  V30 2351 H 222.681 4.6913 3.16122 0
M  V30 2352 H 221.238 5.61069 3.31729 0
M  V30 2353 N 224.671 0.411399 1.52136 0
M  V30 2354 C 225.618 -0.412975 2.27075 0
M  V30 2355 C 226.588 -1.03912 1.29582 0
M  V30 2356 O 227.773 -1.06296 1.58448 0
M  V30 2357 C 224.913 -1.52247 3.09701 0
M  V30 2358 C 224.026 -0.917021 4.22155 0
M  V30 2359 C 223.161 -1.9994 4.92135 0
M  V30 2360 C 222.2 -1.37101 5.96548 0
M  V30 2361 N 221.337 -2.39364 6.60038 0
M  V30 2362 H 226.177 0.232499 2.97092 0
M  V30 2363 H 223.714 0.126496 1.46555 0
M  V30 2364 H 225.672 -2.17674 3.55913 0
M  V30 2365 H 224.302 -2.13794 2.41851 0
M  V30 2366 H 223.354 -0.151742 3.80097 0
M  V30 2367 H 224.666 -0.418006 4.97045 0
M  V30 2368 H 223.82 -2.73088 5.41763 0
M  V30 2369 H 222.559 -2.53208 4.16818 0
M  V30 2370 H 221.564 -0.624873 5.46237 0
M  V30 2371 H 222.789 -0.845998 6.7381 0
M  V30 2372 H 220.735 -2.91759 5.87548 0
M  V30 2373 H 220.652 -1.9428 7.3061 0
M  V30 2374 H 221.92 -3.12074 7.14304 0
M  V30 2375 N 226.149 -1.5696 0.141893 0
M  V30 2376 C 227.082 -2.12271 -0.837627 0
M  V30 2377 C 228.06 -1.04495 -1.24578 0
M  V30 2378 O 229.244 -1.32293 -1.34278 0
M  V30 2379 C 226.371 -2.63822 -2.12404 0
M  V30 2380 C 225.417 -3.83698 -1.86221 0
M  V30 2381 S 226.25 -5.24948 -1.05781 0
M  V30 2382 C 227.406 -5.79884 -2.35552 0
M  V30 2383 H 227.639 -2.95023 -0.367249 0
M  V30 2384 H 225.172 -1.54231 -0.0723014 0
M  V30 2385 H 227.13 -2.94175 -2.86307 0
M  V30 2386 H 225.791 -1.8121 -2.56557 0
M  V30 2387 H 224.984 -4.17995 -2.81596 0
M  V30 2388 H 224.586 -3.5408 -1.20429 0
M  V30 2389 H 226.878 -5.91005 -3.31239 0
M  V30 2390 H 227.821 -6.77544 -2.05767 0
M  V30 2391 H 228.229 -5.08095 -2.45967 0
M  V30 2392 N 227.627 0.131896 -1.57047 0
M  V30 2393 C 228.873 0.843179 -1.84441 0
M  V30 2394 C 229.206 1.80129 -0.725749 0
M  V30 2395 O 228.481 1.92624 0.269469 0
M  V30 2396 C 228.764 1.60442 -3.22382 0
M  V30 2397 C 228.617 0.666782 -4.4483 0
M  V30 2398 C 229.936 2.56354 -3.5773 0
M  V30 2399 H 227.055 0.305081 -0.670891 0
M  V30 2400 H 229.697 0.107839 -1.89694 0
M  V30 2401 H 227.847 2.23128 -3.18035 0
M  V30 2402 H 229.519 0.0497646 -4.61273 0
M  V30 2403 H 227.762 -0.022609 -4.33794 0
M  V30 2404 H 228.433 1.23579 -5.37989 0
M  V30 2405 H 230.909 2.0378 -3.62785 0
M  V30 2406 H 229.785 3.06657 -4.5525 0
M  V30 2407 H 230.046 3.38419 -2.84473 0
M  V30 2408 N 229.106 1.52395 0.401703 0
M  V30 2409 C 230.336 1.70429 1.1678 0
M  V30 2410 C 230.744 0.416702 1.84554 0
M  V30 2411 O 230.087 -0.617697 1.73003 0
M  V30 2412 C 230.149 2.78919 2.26814 0
M  V30 2413 C 229.813 4.20437 1.79113 0
M  V30 2414 C 230.81 5.04028 1.27482 0
M  V30 2415 C 228.495 4.66704 1.85722 0
M  V30 2416 C 230.489 6.31961 0.830913 0
M  V30 2417 C 228.176 5.94625 1.40942 0
M  V30 2418 C 229.174 6.77082 0.897128 0
M  V30 2419 O 228.862 8.02607 0.455822 0
M  V30 2420 H 228.594 0.574272 0.356634 0
M  V30 2421 H 231.148 1.99767 0.477724 0
M  V30 2422 H 229.378 2.44973 2.99207 0
M  V30 2423 H 231.067 2.8548 2.88541 0
M  V30 2424 H 231.833 4.69471 1.21744 0
M  V30 2425 H 227.712 4.0262 2.24539 0
M  V30 2426 H 231.256 6.96271 0.430368 0
M  V30 2427 H 227.153 6.28688 1.46362 0
M  V30 2428 H 227.921 8.16453 0.578457 0
M  V30 2429 N 230.584 -0.659388 1.43143 0
M  V30 2430 C 231.995 -1.24041 1.39537 0
M  V30 2431 C 232.346 -1.95963 0.0963364 0
M  V30 2432 O 231.471 -2.00892 -0.804438 0
M  V30 2433 C 232.066 -2.25601 2.52764 0
M  V30 2434 C 230.625 -2.79195 2.52443 0
M  V30 2435 C 229.772 -1.53743 2.30778 0
M  V30 2436 H 232.723 -0.451792 1.52133 0
M  V30 2437 H 232.744 -3.07651 2.23899 0
M  V30 2438 H 232.256 -1.73226 3.47296 0
M  V30 2439 H 230.357 -3.35649 1.61773 0
M  V30 2440 H 230.47 -3.2716 3.50004 0
M  V30 2441 H 228.834 -1.80869 1.79328 0
M  V30 2442 H 229.617 -1.03312 3.27386 0
M  V30 2443 N 232.062 -1.29571 -0.897171 0
M  V30 2444 C 233.31 -1.17456 -1.64464 0
M  V30 2445 C 233.631 0.273698 -1.9307 0
M  V30 2446 O 232.901 1.18684 -1.55855 0
M  V30 2447 H 231.481 -0.431706 -0.609622 0
M  V30 2448 H 234.143 -1.62531 -1.07562 0
M  V30 2449 H 233.239 -1.72648 -2.59998 0
M  V30 2450 N 233.54 1.10788 -1.12088 0
M  V30 2451 C 234.47 2.19083 -0.807755 0
M  V30 2452 C 235.451 1.6858 0.226859 0
M  V30 2453 O 236.636 1.93997 0.0888475 0
M  V30 2454 C 233.766 3.46344 -0.257576 0
M  V30 2455 C 232.72 4.101 -1.22483 0
M  V30 2456 C 232.046 5.32016 -0.535052 0
M  V30 2457 C 233.346 4.54236 -2.57811 0
M  V30 2458 H 235.04 2.45534 -1.71328 0
M  V30 2459 H 232.586 1.1801 -0.825205 0
M  V30 2460 H 234.539 4.21392 -0.0262679 0
M  V30 2461 H 233.263 3.19373 0.683278 0
M  V30 2462 H 231.922 3.37054 -1.44189 0
M  V30 2463 H 231.57 5.01319 0.410827 0
M  V30 2464 H 231.27 5.75625 -1.18024 0
M  V30 2465 H 232.794 6.09799 -0.312695 0
M  V30 2466 H 234.208 5.20575 -2.40155 0
M  V30 2467 H 232.605 5.08682 -3.18375 0
M  V30 2468 H 233.675 3.6734 -3.16528 0
M  V30 2469 N 235.018 0.912232 1.28515 0
M  V30 2470 C 235.95 0.35676 2.26406 0
M  V30 2471 C 236.963 -0.503933 1.54804 0
M  V30 2472 O 238.152 -0.319059 1.75625 0
M  V30 2473 C 235.252 -0.508825 3.35058 0
M  V30 2474 C 234.425 0.329007 4.36161 0
M  V30 2475 C 233.484 -0.471422 5.24084 0
M  V30 2476 O 232.51 0.115482 5.69083 0
M  V30 2477 N 233.712 -1.77479 5.52704 0
M  V30 2478 H 236.477 1.19818 2.74707 0
M  V30 2479 H 234.038 0.778022 1.4198 0
M  V30 2480 H 236.03 -1.051 3.90815 0
M  V30 2481 H 234.6 -1.25095 2.86478 0
M  V30 2482 H 233.82 1.05256 3.79888 0
M  V30 2483 H 235.108 0.90234 5.00735 0
M  V30 2484 H 234.506 -2.27417 5.17975 0
M  V30 2485 H 233.063 -2.26382 6.11224 0
M  V30 2486 N 236.496 -1.42363 0.676048 0
M  V30 2487 C 237.406 -2.346 -0.00153389 0
M  V30 2488 C 238.422 -1.5516 -0.787485 0
M  V30 2489 O 239.598 -1.87723 -0.729521 0
M  V30 2490 C 236.663 -3.33705 -0.940298 0
M  V30 2491 C 235.724 -4.29042 -0.148739 0
M  V30 2492 C 234.957 -5.23413 -1.04279 0
M  V30 2493 O 235.18 -5.22749 -2.28232 0
M  V30 2494 O 234.114 -5.99795 -0.502925 0
M  V30 2495 H 237.94 -2.94082 0.758268 0
M  V30 2496 H 235.525 -1.42888 0.436289 0
M  V30 2497 H 237.407 -3.94586 -1.47917 0
M  V30 2498 H 236.082 -2.76695 -1.67993 0
M  V30 2499 H 234.989 -3.71571 0.43427 0
M  V30 2500 H 236.322 -4.89097 0.551805 0
M  V30 2501 N 237.974 -0.419461 -1.51915 0
M  V30 2502 C 239.385 0.0477853 -1.86639 0
M  V30 2503 C 239.736 1.43531 -1.33766 0
M  V30 2504 O 238.861 2.05401 -0.68113 0
M  V30 2505 C 239.456 0.0934885 -3.38671 0
M  V30 2506 C 238.015 0.505097 -3.72996 0
M  V30 2507 C 237.162 -0.313792 -2.75519 0
M  V30 2508 H 240.113 -0.636088 -1.45395 0
M  V30 2509 H 240.134 0.906667 -3.6954 0
M  V30 2510 H 239.646 -0.916501 -3.77123 0
M  V30 2511 H 237.747 1.52135 -3.40126 0
M  V30 2512 H 237.86 0.242309 -4.78487 0
M  V30 2513 H 236.224 0.225363 -2.53701 0
M  V30 2514 H 237.007 -1.32232 -3.16812 0
M  V30 2515 N 239.452 1.56882 -0.150215 0
M  V30 2516 C 240.698 1.97299 0.494427 0
M  V30 2517 C 241.053 1.0338 1.62266 0
M  V30 2518 O 240.346 0.0694497 1.91474 0
M  V30 2519 C 240.54 3.41801 1.04437 0
M  V30 2520 C 240.369 4.49691 -0.0290451 0
M  V30 2521 C 239.139 5.03095 -0.47156 0
M  V30 2522 C 241.337 5.07693 -0.821703 0
M  V30 2523 N 239.319 5.94593 -1.52749 0
M  V30 2524 C 240.69 5.95431 -1.72805 0
M  V30 2525 C 242.745 4.90256 -0.869134 0
M  V30 2526 C 241.448 6.67599 -2.67777 0
M  V30 2527 C 243.474 5.63127 -1.8067 0
M  V30 2528 C 242.836 6.50576 -2.70057 0
M  V30 2529 H 238.935 0.76755 0.149639 0
M  V30 2530 H 241.519 1.93145 -0.24556 0
M  V30 2531 H 239.69 3.46541 1.75396 0
M  V30 2532 H 241.422 3.69272 1.6559 0
M  V30 2533 H 238.177 4.73543 -0.0732101 0
M  V30 2534 H 238.601 6.45047 -2.05531 0
M  V30 2535 H 243.243 4.22363 -0.192134 0
M  V30 2536 H 240.961 7.34717 -3.36476 0
M  V30 2537 H 244.547 5.51629 -1.84924 0
M  V30 2538 H 243.427 7.05974 -3.41424 0
M  V30 2539 N 240.93 -0.123565 1.57115 0
M  V30 2540 C 241.86 -1.15309 2.03042 0
M  V30 2541 C 242.841 -1.43454 0.914061 0
M  V30 2542 O 244.026 -1.53973 1.18347 0
M  V30 2543 C 241.156 -2.48043 2.43089 0
M  V30 2544 C 240.11 -2.3437 3.58127 0
M  V30 2545 C 239.436 -3.72026 3.84059 0
M  V30 2546 C 240.736 -1.80804 4.90007 0
M  V30 2547 H 242.43 -0.771102 2.893 0
M  V30 2548 H 239.976 -0.369479 1.39179 0
M  V30 2549 H 241.929 -3.20311 2.73823 0
M  V30 2550 H 240.653 -2.88122 1.53796 0
M  V30 2551 H 239.312 -1.64551 3.27595 0
M  V30 2552 H 238.96 -4.09582 2.91979 0
M  V30 2553 H 238.66 -3.63732 4.6149 0
M  V30 2554 H 240.184 -4.45806 4.1724 0
M  V30 2555 H 241.598 -2.42886 5.19307 0
M  V30 2556 H 239.995 -1.83343 5.71407 0
M  V30 2557 H 241.065 -0.76528 4.78823 0
M  V30 2558 N 242.408 -1.52605 -0.393616 0
M  V30 2559 C 243.358 -1.73436 -1.48 0
M  V30 2560 C 244.342 -0.588386 -1.49756 0
M  V30 2561 O 245.534 -0.846047 -1.5547 0
M  V30 2562 C 242.663 -1.90247 -2.85764 0
M  V30 2563 C 241.749 -3.10763 -2.88595 0
M  V30 2564 N 242.14 -4.33196 -2.61103 0
M  V30 2565 C 240.438 -3.10914 -3.19763 0
M  V30 2566 C 241.139 -5.1477 -2.70899 0
M  V30 2567 N 240.115 -4.50356 -3.04435 0
M  V30 2568 H 243.917 -2.65727 -1.25563 0
M  V30 2569 H 241.431 -1.5085 -0.601513 0
M  V30 2570 H 243.428 -2.03291 -3.63976 0
M  V30 2571 H 242.088 -0.991663 -3.09186 0
M  V30 2572 H 243.099 -4.61408 -2.35209 0
M  V30 2573 H 239.776 -2.29626 -3.4868 0
M  V30 2574 H 241.166 -6.22355 -2.53227 0
M  V30 2575 N 243.887 0.651787 -1.4349 0
M  V30 2576 C 245.112 1.44434 -1.48841 0
M  V30 2577 C 245.537 1.8779 -0.107955 0
M  V30 2578 O 244.895 1.57464 0.898602 0
M  V30 2579 C 244.943 2.65458 -2.44059 0
M  V30 2580 O 244.047 3.64566 -1.92784 0
M  V30 2581 H 243.388 0.433005 -0.503391 0
M  V30 2582 H 245.918 0.797451 -1.88419 0
M  V30 2583 H 245.928 3.13255 -2.6141 0
M  V30 2584 H 244.603 2.33244 -3.4434 0
M  V30 2585 H 243.18 3.23716 -1.851 0
M  V30 2586 N 245.365 1.30045 0.890287 0
M  V30 2587 C 246.298 1.10301 1.99772 0
M  V30 2588 C 247.276 0.0121631 1.62595 0
M  V30 2589 O 248.46 0.16469 1.87779 0
M  V30 2590 C 245.587 0.681125 3.31781 0
M  V30 2591 C 244.633 1.77206 3.87944 0
M  V30 2592 S 245.466 3.37335 4.15891 0
M  V30 2593 C 246.622 2.97036 5.50927 0
M  V30 2594 H 246.855 2.04057 2.16213 0
M  V30 2595 H 244.388 1.14299 1.03804 0
M  V30 2596 H 246.346 0.444439 4.08087 0
M  V30 2597 H 245.007 -0.236981 3.13205 0
M  V30 2598 H 244.2 1.42903 4.83316 0
M  V30 2599 H 243.802 1.96275 3.18358 0
M  V30 2600 H 246.094 2.44666 6.31779 0
M  V30 2601 H 247.037 3.91296 5.90164 0
M  V30 2602 H 247.445 2.35057 5.13233 0
M  V30 2603 N 246.843 -1.10192 1.12674 0
M  V30 2604 C 248.073 -1.85713 0.905213 0
M  V30 2605 C 248.481 -1.81056 -0.549108 0
M  V30 2606 O 247.824 -1.19927 -1.39151 0
M  V30 2607 C 247.886 -3.34972 1.30516 0
M  V30 2608 C 247.55 -3.63385 2.77129 0
M  V30 2609 C 248.547 -3.59772 3.75313 0
M  V30 2610 C 246.232 -3.91981 3.14096 0
M  V30 2611 C 248.226 -3.84354 5.08479 0
M  V30 2612 C 245.913 -4.16218 4.47443 0
M  V30 2613 C 246.911 -4.12395 5.44444 0
M  V30 2614 O 246.599 -4.36014 6.75387 0
M  V30 2615 H 246.331 -0.593719 0.323223 0
M  V30 2616 H 248.885 -1.40198 1.50112 0
M  V30 2617 H 247.115 -3.81156 0.652463 0
M  V30 2618 H 248.804 -3.91886 1.05736 0
M  V30 2619 H 249.57 -3.37716 3.48099 0
M  V30 2620 H 245.449 -3.94085 2.39202 0
M  V30 2621 H 248.993 -3.81285 5.84181 0
M  V30 2622 H 244.89 -4.37754 4.74386 0
M  V30 2623 H 245.658 -4.53516 6.8137 0
M  V30 2624 N 248.321 -0.919034 -1.28029 0
M  V30 2625 C 249.271 -0.382574 -2.24767 0
M  V30 2626 C 250.255 0.508286 -1.52661 0
M  V30 2627 O 251.447 0.347145 -1.73562 0
M  V30 2628 C 248.576 0.371432 -3.41285 0
M  V30 2629 C 247.662 -0.535449 -4.20706 0
M  V30 2630 N 248.053 -1.65141 -4.78082 0
M  V30 2631 C 246.351 -0.336824 -4.44726 0
M  V30 2632 C 247.052 -2.21475 -5.37888 0
M  V30 2633 N 246.028 -1.50537 -5.22341 0
M  V30 2634 H 249.83 -1.23477 -2.66703 0
M  V30 2635 H 247.344 -0.772299 -1.42861 0
M  V30 2636 H 249.341 0.772638 -4.09678 0
M  V30 2637 H 248.001 1.22066 -3.00882 0
M  V30 2638 H 249.012 -2.03392 -4.7629 0
M  V30 2639 H 245.689 0.47246 -4.14818 0
M  V30 2640 H 247.079 -3.15379 -5.93284 0
M  V30 2641 N 249.799 1.42003 -0.683588 0
M  V30 2642 C 251.047 2.01015 -0.209101 0
M  V30 2643 C 251.368 1.54365 1.19149 0
M  V30 2644 O 250.638 0.769083 1.80172 0
M  V30 2645 H 249.218 0.743294 -0.074315 0
M  V30 2646 H 251.88 1.73798 -0.882066 0
M  V30 2647 H 250.976 3.11343 -0.2172 0
M  V30 2648 N 251.277 0.427512 1.51691 0
M  V30 2649 C 252.24 -0.377132 2.26076 0
M  V30 2650 C 253.24 -0.958089 1.29141 0
M  V30 2651 O 254.43 -0.83408 1.52934 0
M  V30 2652 C 251.562 -1.53262 3.04506 0
M  V30 2653 H 252.755 0.27464 2.9864 0
M  V30 2654 H 250.308 0.180445 1.55255 0
M  V30 2655 H 251.043 -2.22072 2.36335 0
M  V30 2656 H 250.828 -1.12232 3.75694 0
M  V30 2657 H 252.318 -2.10135 3.60878 0
M  V30 2658 N 252.755 -1.56801 0.158532 0
M  V30 2659 C 253.718 -2.16138 -0.762705 0
M  V30 2660 C 254.718 -1.1061 -1.16713 0
M  V30 2661 O 255.908 -1.36191 -1.08617 0
M  V30 2662 C 253.04 -2.73386 -2.03649 0
M  V30 2663 H 254.233 -2.98886 -0.246354 0
M  V30 2664 H 251.786 -1.56035 -0.0909744 0
M  V30 2665 H 252.521 -1.94335 -2.59623 0
M  V30 2666 H 252.306 -3.50601 -1.75559 0
M  V30 2667 H 253.796 -3.19065 -2.6942 0
M  V30 2668 N 254.233 0.115231 -1.57178 0
M  V30 2669 C 255.48 0.822351 -1.8505 0
M  V30 2670 C 255.808 1.79701 -0.744168 0
M  V30 2671 O 255.063 1.93909 0.26414 0
M  V30 2672 C 255.362 1.60324 -3.19423 0
M  V30 2673 C 255.028 0.772536 -4.44233 0
M  V30 2674 C 253.69 0.543468 -4.78121 0
M  V30 2675 C 256.042 0.193746 -5.2084 0
M  V30 2676 C 253.37 -0.274583 -5.86057 0
M  V30 2677 C 255.722 -0.611517 -6.29637 0
M  V30 2678 C 254.386 -0.850867 -6.62055 0
M  V30 2679 H 253.656 0.30092 -0.677147 0
M  V30 2680 H 256.303 0.0845802 -1.91313 0
M  V30 2681 H 254.608 2.41203 -3.08753 0
M  V30 2682 H 256.305 2.1544 -3.38211 0
M  V30 2683 H 252.895 0.96117 -4.17683 0
M  V30 2684 H 257.079 0.357926 -4.95008 0
M  V30 2685 H 252.335 -0.469206 -6.09597 0
M  V30 2686 H 256.509 -1.06697 -6.88178 0
M  V30 2687 H 254.136 -1.48657 -7.45523 0
M  V30 2688 N 255.711 1.52812 0.385517 0
M  V30 2689 C 256.643 1.74096 1.49074 0
M  V30 2690 C 257.656 0.621462 1.50472 0
M  V30 2691 O 258.845 0.897245 1.54311 0
M  V30 2692 C 255.945 1.78774 2.87911 0
M  V30 2693 C 255.118 3.08134 3.10439 0
M  V30 2694 C 254.177 3.04313 4.29278 0
M  V30 2695 O 253.203 3.78168 4.25415 0
M  V30 2696 N 254.405 2.23741 5.35649 0
M  V30 2697 H 257.17 2.69455 1.31202 0
M  V30 2698 H 254.731 1.51343 0.575065 0
M  V30 2699 H 256.723 1.73721 3.65518 0
M  V30 2700 H 255.293 0.907869 2.99126 0
M  V30 2701 H 254.513 3.26649 2.20667 0
M  V30 2702 H 255.801 3.93662 3.22347 0
M  V30 2703 H 255.199 1.63211 5.41645 0
M  V30 2704 H 253.756 2.24524 6.11909 0
M  V30 2705 N 257.189 -0.644168 1.43834 0
M  V30 2706 C 258.119 -1.76814 1.52509 0
M  V30 2707 C 259.1 -1.65823 0.379052 0
M  V30 2708 O 260.285 -1.84781 0.597466 0
M  V30 2709 C 257.415 -3.15288 1.4564 0
M  V30 2710 C 256.369 -3.41053 2.58586 0
M  V30 2711 C 255.695 -4.79421 2.36769 0
M  V30 2712 C 256.995 -3.34902 4.00797 0
M  V30 2713 H 258.689 -1.69812 2.46586 0
M  V30 2714 H 256.235 -0.815542 1.1868 0
M  V30 2715 H 258.188 -3.93681 1.50311 0
M  V30 2716 H 256.912 -3.23043 0.480725 0
M  V30 2717 H 255.571 -2.65035 2.53282 0
M  V30 2718 H 255.219 -4.83863 1.37424 0
M  V30 2719 H 254.919 -4.9762 3.12487 0
M  V30 2720 H 256.443 -5.6006 2.43238 0
M  V30 2721 H 257.857 -4.03218 4.07539 0
M  V30 2722 H 256.254 -3.64637 4.76613 0
M  V30 2723 H 257.324 -2.32928 4.25291 0
M  V30 2724 N 258.668 -1.30515 -0.883378 0
M  V30 2725 C 259.896 -1.22359 -1.66841 0
M  V30 2726 C 260.311 0.213296 -1.87591 0
M  V30 2727 O 259.668 1.14075 -1.42454 0
M  V30 2728 C 259.719 -1.95011 -3.04389 0
M  V30 2729 O 259.44 -3.3309 -2.84575 0
M  V30 2730 C 260.941 -1.93532 -3.98824 0
M  V30 2731 H 258.161 -0.423371 -0.520575 0
M  V30 2732 H 260.705 -1.72167 -1.10357 0
M  V30 2733 H 258.86 -1.48997 -3.57601 0
M  V30 2734 H 259.274 -3.69907 -3.71846 0
M  V30 2735 H 260.748 -2.48902 -4.92699 0
M  V30 2736 H 261.225 -0.914627 -4.29571 0
M  V30 2737 H 261.831 -2.39364 -3.51547 0
M  V30 2738 N 260.146 1.09593 -1.13257 0
M  V30 2739 C 261.078 2.16015 -0.766167 0
M  V30 2740 C 262.091 1.61423 0.211303 0
M  V30 2741 O 263.28 1.78498 -0.00863946 0
M  V30 2742 C 260.38 3.38706 -0.114662 0
M  V30 2743 C 259.553 4.22717 -1.12379 0
M  V30 2744 C 258.612 5.23835 -0.498301 0
M  V30 2745 O 257.638 5.573 -1.15781 0
M  V30 2746 N 258.84 5.75886 0.730417 0
M  V30 2747 H 261.605 2.48055 -1.68193 0
M  V30 2748 H 259.166 1.25292 -1.02535 0
M  V30 2749 H 261.158 4.03464 0.315991 0
M  V30 2750 H 259.728 3.04569 0.704011 0
M  V30 2751 H 258.948 3.54122 -1.73179 0
M  V30 2752 H 260.236 4.75673 -1.80589 0
M  V30 2753 H 259.634 5.50911 1.28504 0
M  V30 2754 H 258.191 6.42387 1.10376 0
M  V30 2755 N 261.624 0.925811 1.2754 0
M  V30 2756 C 262.872 0.564138 1.94067 0
M  V30 2757 C 263.193 -0.897188 1.73134 0
M  V30 2758 O 262.463 -1.63573 1.07799 0
M  V30 2759 H 261.043 0.205645 0.718136 0
M  V30 2760 H 263.705 1.1778 1.55287 0
M  V30 2761 H 262.801 0.76881 3.02483 0
M  V30 2762 N 263.102 -1.41638 0.69111 0
M  V30 2763 C 264.379 -1.95036 0.148421 0
M  V30 2764 C 264.759 -1.63072 -1.34055 0
M  V30 2765 O 264.107 -0.93538 -2.08478 0
M  V30 2766 C 264.317 -3.46279 0.434951 0
M  V30 2767 C 265.665 -4.23069 0.360275 0
M  V30 2768 O 266.689 -3.54277 0.369613 0
M  V30 2769 O 265.548 -5.45583 0.316534 0
M  V30 2770 H 262.642 -0.826908 0.0123654 0
M  V30 2771 H 265.188 -1.5138 0.766963 0
M  V30 2772 H 263.96 -3.6281 1.46576 0
M  V30 2773 H 263.583 -3.97019 -0.214787 0
M  V30 2774 N 264.58 -0.43555 -1.51462 0
M  V30 2775 C 265.512 0.41257 -2.25456 0
M  V30 2776 C 266.525 0.987822 -1.29406 0
M  V30 2777 O 267.714 0.882266 -1.55172 0
M  V30 2778 C 264.814 1.58894 -2.99342 0
M  V30 2779 C 263.987 1.13288 -4.22474 0
M  V30 2780 C 263.046 2.17917 -4.78956 0
M  V30 2781 O 262.072 1.77425 -5.40841 0
M  V30 2782 N 263.274 3.50382 -4.62832 0
M  V30 2783 H 266.039 -0.221603 -2.9888 0
M  V30 2784 H 263.6 -0.264342 -1.59727 0
M  V30 2785 H 265.592 2.28508 -3.34015 0
M  V30 2786 H 264.162 2.12849 -2.28941 0
M  V30 2787 H 263.382 0.263881 -3.93316 0
M  V30 2788 H 264.67 0.805542 -5.02383 0
M  V30 2789 H 264.068 3.86013 -4.13534 0
M  V30 2790 H 262.625 4.15895 -5.01871 0
M  V30 2791 N 266.058 1.56714 -0.166846 0
M  V30 2792 C 266.988 2.20754 0.760913 0
M  V30 2793 C 267.969 1.16178 1.24244 0
M  V30 2794 O 269.154 1.44592 1.29641 0
M  V30 2795 C 266.284 2.84478 1.99223 0
M  V30 2796 C 265.238 3.95053 1.64672 0
M  V30 2797 C 264.564 4.45805 2.95232 0
M  V30 2798 C 265.864 5.14865 0.878155 0
M  V30 2799 H 267.558 2.98537 0.22713 0
M  V30 2800 H 265.104 1.43596 0.107805 0
M  V30 2801 H 267.057 3.27951 2.64624 0
M  V30 2802 H 265.781 2.04056 2.55007 0
M  V30 2803 H 264.44 3.52228 1.01641 0
M  V30 2804 H 264.088 3.62181 3.49047 0
M  V30 2805 H 263.788 5.204 2.7287 0
M  V30 2806 H 265.312 4.91962 3.6167 0
M  V30 2807 H 266.726 5.55059 1.43466 0
M  V30 2808 H 265.123 5.95348 0.753738 0
M  V30 2809 H 266.193 4.84735 -0.126377 0
M  V30 2810 N 267.536 -0.106894 1.57237 0
M  V30 2811 C 268.761 -0.830287 1.90055 0
M  V30 2812 C 269.186 -1.72064 0.75998 0
M  V30 2813 O 268.544 -1.78982 -0.288991 0
M  V30 2814 C 268.592 -1.6295 3.21683 0
M  V30 2815 O 267.696 -2.73748 3.08441 0
M  V30 2816 H 267.037 -0.228855 0.623315 0
M  V30 2817 H 269.567 -0.085658 2.04421 0
M  V30 2818 H 269.577 -2.01621 3.54701 0
M  V30 2819 H 268.252 -0.975989 4.04286 0
M  V30 2820 H 266.829 -2.38192 2.86913 0
M  V30 2821 N 269.014 -1.53014 -0.377408 0
M  V30 2822 C 270.242 -1.72515 -1.14219 0
M  V30 2823 C 270.657 -0.448735 -1.8339 0
M  V30 2824 O 270.014 0.577592 -1.73119 0
M  V30 2825 C 270.065 -2.8826 -2.18148 0
M  V30 2826 O 269.786 -4.10962 -1.51795 0
M  V30 2827 C 271.287 -3.19536 -3.07264 0
M  V30 2828 H 268.507 -0.577301 -0.342001 0
M  V30 2829 H 271.051 -1.99712 -0.439935 0
M  V30 2830 H 269.206 -2.63492 -2.83991 0
M  V30 2831 H 269.62 -4.75693 -2.20945 0
M  V30 2832 H 271.094 -4.03959 -3.76193 0
M  V30 2833 H 271.571 -2.34403 -3.71419 0
M  V30 2834 H 272.177 -3.46186 -2.47053 0
M  V30 2835 N 270.492 0.636531 -1.44174 0
M  V30 2836 C 271.442 1.74233 -1.47061 0
M  V30 2837 C 272.426 1.57331 -0.337034 0
M  V30 2838 O 273.618 1.67159 -0.581973 0
M  V30 2839 C 270.747 3.12897 -1.41246 0
M  V30 2840 C 269.833 3.35288 -2.59698 0
M  V30 2841 N 270.224 3.2807 -3.84972 0
M  V30 2842 C 268.522 3.66065 -2.54778 0
M  V30 2843 C 269.223 3.51001 -4.63867 0
M  V30 2844 N 268.199 3.73616 -3.94857 0
M  V30 2845 H 272.001 1.67103 -2.41773 0
M  V30 2846 H 269.515 0.838806 -1.3906 0
M  V30 2847 H 271.512 3.92189 -1.41398 0
M  V30 2848 H 270.172 3.21197 -0.47569 0
M  V30 2849 H 271.183 3.07109 -4.17019 0
M  V30 2850 H 267.86 3.81379 -1.6987 0
M  V30 2851 H 269.25 3.51059 -5.72894 0
M  V30 2852 N 271.97 1.30982 0.876444 0
M  V30 2853 C 273.198 1.23242 1.6619 0
M  V30 2854 C 273.613 -0.203345 1.87702 0
M  V30 2855 O 272.97 -1.13317 1.43057 0
M  V30 2856 C 273.021 1.96623 3.03351 0
M  V30 2857 O 272.742 3.34594 2.82804 0
M  V30 2858 C 274.243 1.95644 3.97792 0
M  V30 2859 H 271.463 0.426126 0.518322 0
M  V30 2860 H 274.007 1.7275 1.09442 0
M  V30 2861 H 272.162 1.50892 3.56806 0
M  V30 2862 H 272.576 3.71873 3.69879 0
M  V30 2863 H 274.05 2.51511 4.91372 0
M  V30 2864 H 274.527 0.937395 4.2908 0
M  V30 2865 H 275.133 2.41225 3.50272 0
M  V30 2866 N 273.449 -1.08991 1.13837 0
M  V30 2867 C 274.726 -1.77863 0.813876 0
M  V30 2868 C 275.106 -1.99375 -0.693746 0
M  V30 2869 O 274.454 -1.59875 -1.63255 0
M  V30 2870 C 274.664 -3.0986 1.60586 0
M  V30 2871 C 276.012 -3.84493 1.8014 0
M  V30 2872 O 277.036 -3.19624 1.57222 0
M  V30 2873 O 275.895 -5.00957 2.18413 0
M  V30 2874 H 272.989 -0.771589 0.297624 0
M  V30 2875 H 275.535 -1.15507 1.24323 0
M  V30 2876 H 274.307 -2.89715 2.63022 0
M  V30 2877 H 273.93 -3.79942 1.17173 0
M  V30 2878 N 274.927 -0.932562 -1.27047 0
M  V30 2879 C 276.175 -0.574422 -1.93765 0
M  V30 2880 C 276.496 0.887993 -1.73608 0
M  V30 2881 O 275.766 1.62999 -1.08665 0
M  V30 2882 H 274.346 -0.209451 -0.717035 0
M  V30 2883 H 277.008 -1.18601 -1.5466 0
M  V30 2884 H 276.104 -0.784841 -3.02071 0
M  V30 2885 N 276.405 1.4127 -0.698611 0
M  V30 2886 C 277.654 2.00408 -0.227949 0
M  V30 2887 C 277.967 1.55981 1.18023 0
M  V30 2888 O 279.173 2.07699 1.74852 0
M  V30 2889 C 277.629 3.58129 -0.356636 0
M  V30 2890 C 277.237 4.11536 -1.77037 0
M  V30 2891 C 278.981 4.24466 0.0540969 0
M  V30 2892 C 276.888 5.61701 -1.85055 0
M  V30 2893 H 275.818 0.749586 -0.0814657 0
M  V30 2894 H 278.469 1.61713 -0.867249 0
M  V30 2895 H 276.851 3.94442 0.350965 0
M  V30 2896 H 278.025 3.86636 -2.50698 0
M  V30 2897 H 276.34 3.57736 -2.13105 0
M  V30 2898 H 278.937 5.34698 0.0146723 0
M  V30 2899 H 279.28 4.01687 1.09332 0
M  V30 2900 H 279.813 3.93198 -0.603337 0
M  V30 2901 H 276.552 5.89312 -2.8704 0
M  V30 2902 H 276.072 5.88519 -1.15783 0
M  V30 2903 H 277.751 6.26524 -1.61484 0
M  V30 2904 N 277.883 0.443576 1.51229 0
M  V30 2905 C 279.294 -0.0180867 1.86691 0
M  V30 2906 C 279.645 -1.41384 1.36033 0
M  V30 2907 O 278.77 -2.04291 0.713722 0
M  V30 2908 C 279.365 -0.039597 3.38777 0
M  V30 2909 C 277.924 -0.445692 3.73752 0
M  V30 2910 C 277.071 0.357584 2.74985 0
M  V30 2911 H 280.022 0.659138 1.44364 0
M  V30 2912 H 280.043 -0.847761 3.70936 0
M  V30 2913 H 279.555 0.976382 3.75617 0
M  V30 2914 H 277.656 -1.46704 3.42503 0
M  V30 2915 H 277.769 -0.166155 4.78812 0
M  V30 2916 H 276.133 -0.184973 2.54027 0
M  V30 2917 H 276.916 1.37256 3.14668 0
M  V30 2918 N 279.361 -1.56624 0.175154 0
M  V30 2919 C 280.311 -2.14747 -0.766004 0
M  V30 2920 C 281.295 -1.08275 -1.19018 0
M  V30 2921 O 282.487 -1.34388 -1.15191 0
M  V30 2922 C 279.616 -2.79478 -1.99366 0
M  V30 2923 C 278.702 -3.93114 -1.5913 0
M  V30 2924 N 279.093 -4.97752 -0.89872 0
M  V30 2925 C 277.391 -4.04345 -1.88204 0
M  V30 2926 C 278.092 -5.77473 -0.700012 0
M  V30 2927 N 277.068 -5.29207 -1.24263 0
M  V30 2928 H 280.87 -2.93015 -0.22793 0
M  V30 2929 H 278.384 -1.6238 -0.0253843 0
M  V30 2930 H 280.381 -3.19498 -2.67818 0
M  V30 2931 H 279.041 -2.02692 -2.53665 0
M  V30 2932 H 280.052 -5.14903 -0.556347 0
M  V30 2933 H 276.729 -3.38667 -2.44153 0
M  V30 2934 H 278.119 -6.71728 -0.152047 0
M  V30 2935 N 280.839 0.0985539 -1.57292 0
M  V30 2936 C 281.769 1.12064 -2.04851 0
M  V30 2937 C 282.75 1.41981 -0.936767 0
M  V30 2938 O 283.935 1.52071 -1.20781 0
M  V30 2939 C 281.065 2.44144 -2.47004 0
M  V30 2940 C 280.019 2.28643 -3.6181 0
M  V30 2941 C 279.345 3.65869 -3.89929 0
M  V30 2942 C 280.645 1.72986 -4.92822 0
M  V30 2943 H 282.339 0.724979 -2.9049 0
M  V30 2944 H 279.885 0.34729 -1.39749 0
M  V30 2945 H 281.838 3.15914 -2.78884 0
M  V30 2946 H 280.562 2.85639 -1.5836 0
M  V30 2947 H 279.221 1.59318 -3.30172 0
M  V30 2948 H 278.869 4.04885 -2.98458 0
M  V30 2949 H 278.569 3.56344 -4.67218 0
M  V30 2950 H 280.093 4.39112 -4.2428 0
M  V30 2951 H 281.507 2.34593 -5.23105 0
M  V30 2952 H 279.904 1.74229 -5.74251 0
M  V30 2953 H 280.974 0.689007 -4.7998 0
M  V30 2954 N 282.317 1.53212 0.369288 0
M  V30 2955 C 283.563 1.69466 1.11397 0
M  V30 2956 C 283.896 0.443257 1.89074 0
M  V30 2957 O 283.171 -0.559386 1.86282 0
M  V30 2958 C 283.454 2.9422 2.07621 0
M  V30 2959 C 283.307 4.29508 1.33577 0
M  V30 2960 C 284.626 3.14565 3.07794 0
M  V30 2961 H 281.745 0.616667 0.403597 0
M  V30 2962 H 284.387 1.85845 0.395179 0
M  V30 2963 H 282.537 2.80387 2.68916 0
M  V30 2964 H 284.209 4.55147 0.750955 0
M  V30 2965 H 282.452 4.29088 0.637618 0
M  V30 2966 H 283.123 5.12926 2.03989 0
M  V30 2967 H 285.599 3.2756 2.56601 0
M  V30 2968 H 284.475 4.03297 3.72348 0
M  V30 2969 H 284.736 2.29675 3.77759 0
M  V30 2970 N 283.795 -0.628877 1.44509 0
M  V30 2971 C 284.725 -1.75187 1.54376 0
M  V30 2972 C 285.706 -1.65411 0.396618 0
M  V30 2973 O 286.891 -1.84137 0.617031 0
M  V30 2974 C 284.021 -3.13725 1.48976 0
M  V30 2975 C 282.975 -3.38291 2.62189 0
M  V30 2976 C 282.301 -4.76883 2.41841 0
M  V30 2977 C 283.601 -3.30632 4.04326 0
M  V30 2978 H 285.295 -1.67187 2.48373 0
M  V30 2979 H 282.841 -0.802909 1.19538 0
M  V30 2980 H 284.794 -3.92064 1.54478 0
M  V30 2981 H 283.518 -3.22515 0.514961 0
M  V30 2982 H 282.177 -2.62334 2.56079 0
M  V30 2983 H 281.825 -4.82378 1.42548 0
M  V30 2984 H 281.525 -4.94278 3.17747 0
M  V30 2985 H 283.049 -5.57449 2.49165 0
M  V30 2986 H 284.463 -3.98873 4.11793 0
M  V30 2987 H 282.86 -3.59561 4.80454 0
M  V30 2988 H 283.93 -2.28404 4.27738 0
M  V30 2989 N 285.273 -1.31445 -0.869486 0
M  V30 2990 C 286.498 -1.24256 -1.66058 0
M  V30 2991 C 286.923 0.188928 -1.87149 0
M  V30 2992 O 286.281 1.13522 -1.4136 0
M  V30 2993 C 286.329 -1.9924 -3.00559 0
M  V30 2994 O 285.433 -1.33007 -3.90362 0
M  V30 2995 H 284.774 -0.428973 -0.506831 0
M  V30 2996 H 287.304 -1.73521 -1.08404 0
M  V30 2997 H 287.314 -2.08854 -3.50491 0
M  V30 2998 H 285.989 -3.03342 -2.84528 0
M  V30 2999 H 284.566 -1.31848 -3.48813 0
M  V30 3000 N 286.751 1.08385 -1.14413 0
M  V30 3001 C 288.162 1.62258 -0.923535 0
M  V30 3002 C 288.513 1.88691 0.537595 0
M  V30 3003 O 287.638 1.64454 1.40655 0
M  V30 3004 C 288.233 2.94781 -1.67002 0
M  V30 3005 C 286.792 3.45437 -1.495 0
M  V30 3006 C 285.939 2.19668 -1.69238 0
M  V30 3007 H 288.89 0.916086 -1.2959 0
M  V30 3008 H 288.911 3.63229 -1.13334 0
M  V30 3009 H 288.423 2.7551 -2.73342 0
M  V30 3010 H 286.524 3.6981 -0.455097 0
M  V30 3011 H 286.637 4.22173 -2.2651 0
M  V30 3012 H 285.001 2.28849 -1.11804 0
M  V30 3013 H 285.784 2.02905 -2.7692 0
M  V30 3014 N 288.23 0.939286 1.26551 0
M  V30 3015 C 289.455 0.602008 1.98471 0
M  V30 3016 C 289.88 -0.815624 1.69497 0
M  V30 3017 O 289.238 -1.54912 0.941905 0
M  V30 3018 C 289.286 0.848407 3.50477 0
M  V30 3019 O 288.39 -0.0804009 4.12322 0
M  V30 3020 H 287.731 0.23049 0.622712 0
M  V30 3021 H 290.261 1.2617 1.61066 0
M  V30 3022 H 290.271 0.768553 4.00696 0
M  V30 3023 H 288.946 1.88171 3.70897 0
M  V30 3024 H 287.523 0.0503508 3.72866 0
M  V30 3025 N 289.708 -1.40897 0.706093 0
M  V30 3026 C 290.936 -2.05373 0.250887 0
M  V30 3027 C 291.351 -1.53172 -1.10381 0
M  V30 3028 O 290.708 -0.684305 -1.69185 0
M  V30 3029 C 290.759 -3.6088 0.211571 0
M  V30 3030 O 290.48 -4.11153 1.51276 0
M  V30 3031 C 291.981 -4.42517 -0.263346 0
M  V30 3032 H 289.201 -0.66115 0.114552 0
M  V30 3033 H 291.745 -1.80479 0.961635 0
M  V30 3034 H 289.9 -3.84777 -0.450073 0
M  V30 3035 H 290.314 -5.05279 1.40689 0
M  V30 3036 H 291.788 -5.51479 -0.239718 0
M  V30 3037 H 292.265 -4.19396 -1.30397 0
M  V30 3038 H 292.871 -4.23708 0.367677 0
M  V30 3039 N 291.186 -0.45159 -1.50991 0
M  V30 3040 C 292.432 0.110237 -2.025 0
M  V30 3041 C 292.765 1.41109 -1.33424 0
M  V30 3042 O 292.04 1.89135 -0.453659 0
M  V30 3043 C 292.323 0.314271 -3.58726 0
M  V30 3044 C 292.176 -1.00623 -4.38401 0
M  V30 3045 C 293.495 1.07767 -4.26702 0
M  V30 3046 H 290.614 0.0385897 -0.735989 0
M  V30 3047 H 293.256 -0.593374 -1.80497 0
M  V30 3048 H 291.406 0.913601 -3.77605 0
M  V30 3049 H 293.078 -1.64064 -4.31139 0
M  V30 3050 H 291.321 -1.6075 -4.02917 0
M  V30 3051 H 291.992 -0.817341 -5.45915 0
M  V30 3052 H 294.468 0.56986 -4.12179 0
M  V30 3053 H 293.344 1.18921 -5.35863 0
M  V30 3054 H 293.605 2.10939 -3.88532 0
M  V30 3055 N 292.664 1.56529 -0.183458 0
M  V30 3056 C 293.911 1.97244 0.458357 0
M  V30 3057 C 294.239 1.06992 1.62428 0
M  V30 3058 O 293.494 0.106542 1.9541 0
M  V30 3059 C 293.793 3.43939 0.971637 0
M  V30 3060 C 293.459 4.5083 -0.0796784 0
M  V30 3061 C 292.121 4.79786 -0.368584 0
M  V30 3062 C 294.473 5.15138 -0.792638 0
M  V30 3063 C 291.801 5.70345 -1.37563 0
M  V30 3064 C 294.153 6.06784 -1.78875 0
M  V30 3065 C 292.817 6.34102 -2.08497 0
M  V30 3066 H 292.087 0.721768 0.167725 0
M  V30 3067 H 294.734 1.89472 -0.277976 0
M  V30 3068 H 293.039 3.48724 1.78602 0
M  V30 3069 H 294.736 3.72791 1.47744 0
M  V30 3070 H 291.326 4.28317 0.155668 0
M  V30 3071 H 295.51 4.92868 -0.582659 0
M  V30 3072 H 290.766 5.89789 -1.61118 0
M  V30 3073 H 294.94 6.55677 -2.3465 0
M  V30 3074 H 292.567 7.04074 -2.86678 0
M  V30 3075 N 294.142 -0.090211 1.57342 0
M  V30 3076 C 295.389 -0.792807 1.86335 0
M  V30 3077 C 295.717 -1.78494 0.772662 0
M  V30 3078 O 294.972 -1.94305 -0.233258 0
M  V30 3079 C 295.271 -1.55222 3.21933 0
M  V30 3080 C 294.937 -0.701765 4.45406 0
M  V30 3081 C 293.599 -0.467334 4.78925 0
M  V30 3082 C 295.951 -0.11086 5.21082 0
M  V30 3083 C 293.279 0.367785 5.85546 0
M  V30 3084 C 295.631 0.711609 6.28585 0
M  V30 3085 C 294.295 0.956086 6.60617 0
M  V30 3086 H 293.565 -0.290109 0.681849 0
M  V30 3087 H 296.212 -0.0541332 1.91423 0
M  V30 3088 H 294.517 -2.3626 3.12551 0
M  V30 3089 H 296.214 -2.10032 3.41595 0
M  V30 3090 H 292.804 -0.894598 4.1916 0
M  V30 3091 H 296.988 -0.279129 4.95514 0
M  V30 3092 H 292.244 0.566128 6.08773 0
M  V30 3093 H 296.418 1.17632 6.86393 0
M  V30 3094 H 294.045 1.60499 7.43064 0
M  V30 3095 N 295.62 -1.53406 -0.361157 0
M  V30 3096 C 296.868 -1.69467 -1.10115 0
M  V30 3097 C 297.189 -0.451352 -1.89705 0
M  V30 3098 O 296.459 0.534636 -1.88463 0
M  V30 3099 H 295.039 -0.624749 -0.409508 0
M  V30 3100 H 297.701 -1.90609 -0.406699 0
M  V30 3101 H 296.797 -2.55774 -1.78847 0
M  V30 3102 N 297.098 0.621204 -1.44841 0
M  V30 3103 C 298.061 1.71459 -1.521 0
M  V30 3104 C 299.061 1.55696 -0.401933 0
M  V30 3105 O 300.251 1.61011 -0.664925 0
M  V30 3106 C 297.383 3.10624 -1.40447 0
M  V30 3107 H 298.576 1.66394 -2.49506 0
M  V30 3108 H 296.129 0.835745 -1.3208 0
M  V30 3109 H 296.864 3.21277 -0.441737 0
M  V30 3110 H 296.649 3.23473 -2.21602 0
M  V30 3111 H 298.139 3.90293 -1.4853 0
M  V30 3112 N 298.576 1.31904 0.862503 0
M  V30 3113 C 299.823 1.22017 1.61611 0
M  V30 3114 C 300.151 -0.21991 1.93253 0
M  V30 3115 O 299.406 -1.17076 1.56817 0
M  V30 3116 C 299.705 2.01713 2.95037 0
M  V30 3117 C 299.371 3.51145 2.82857 0
M  V30 3118 C 298.033 3.91889 2.79243 0
M  V30 3119 C 300.385 4.46204 2.69353 0
M  V30 3120 C 297.713 5.25947 2.59993 0
M  V30 3121 C 300.065 5.80397 2.5164 0
M  V30 3122 C 298.729 6.20352 2.46413 0
M  V30 3123 H 297.999 0.44649 0.591378 0
M  V30 3124 H 300.646 1.63248 1.00111 0
M  V30 3125 H 298.951 1.53185 3.60613 0
M  V30 3126 H 300.648 1.91437 3.52353 0
M  V30 3127 H 297.238 3.1878 2.86491 0
M  V30 3128 H 301.422 4.15652 2.71196 0
M  V30 3129 H 296.678 5.5597 2.54376 0
M  V30 3130 H 300.852 6.53676 2.40169 0
M  V30 3131 H 298.479 7.24172 2.31256 0
M  V30 3132 N 300.054 -1.07777 1.14986 0
M  V30 3133 C 301.017 -2.13041 0.845358 0
M  V30 3134 C 302.017 -1.60071 -0.152931 0
M  V30 3135 O 303.207 -1.74033 0.0761879 0
M  V30 3136 C 300.339 -3.39896 0.261383 0
M  V30 3137 H 301.532 -2.41485 1.77834 0
M  V30 3138 H 299.085 -1.23595 0.956757 0
M  V30 3139 H 299.82 -3.17091 -0.68 0
M  V30 3140 H 299.605 -3.79642 0.980514 0
M  V30 3141 H 301.095 -4.17548 0.0657687 0
M  V30 3142 N 301.532 -0.945985 -1.26051 0
M  V30 3143 C 302.462 -0.477172 -2.28572 0
M  V30 3144 C 303.443 0.472032 -1.63419 0
M  V30 3145 O 304.628 0.372853 -1.90587 0
M  V30 3146 C 301.758 0.253975 -3.4637 0
M  V30 3147 C 300.712 -0.609135 -4.23643 0
M  V30 3148 C 300.038 0.252252 -5.34105 0
M  V30 3149 C 301.338 -1.8829 -4.8718 0
M  V30 3150 H 303.032 -1.33402 -2.68038 0
M  V30 3151 H 300.578 -0.642904 -1.28852 0
M  V30 3152 H 302.531 0.593016 -4.17207 0
M  V30 3153 H 301.255 1.145 -3.05871 0
M  V30 3154 H 299.914 -0.931138 -3.54578 0
M  V30 3155 H 299.562 1.14278 -4.89846 0
M  V30 3156 H 299.262 -0.32188 -5.86718 0
M  V30 3157 H 300.786 0.586454 -6.07777 0
M  V30 3158 H 302.2 -1.61081 -5.50205 0
M  V30 3159 H 300.597 -2.40199 -5.49931 0
M  V30 3160 H 301.667 -2.59134 -4.09851 0
M  V30 3161 O 303.049 1.37208 -0.85184 0
M  V30 3162 H 303.74 1.88528 -0.444614 0
M  V30 END ATOM
M  V30 BEGIN BOND
M  V30 END BOND
M  V30 END CTAB
M  END
$$$$
