drugbank_target|P01303 Pro-neuropeptide Y (DB00191; DB02952; DB03380)
 OpenBabel12092120333D

  0  0  0     0  0            999 V3000
M  V30 BEGIN CTAB
M  V30 COUNTS 1529 1543 0 0 0
M  V30 BEGIN ATOM
M  V30 1 H -0.908 1.98254 -0.117106 0
M  V30 2 N 0 1.576 0 0
M  V30 3 C 0.933 2.03868 1.02534 0
M  V30 4 C 1.911 0.928543 1.3348 0
M  V30 5 O 3.095 1.19667 1.45644 0
M  V30 6 C 0.222 2.43627 2.35294 0
M  V30 7 C -0.732 3.65373 2.2001 0
M  V30 8 S 0.101 5.13292 1.52614 0
M  V30 9 C 1.257 5.56322 2.86805 0
M  V30 10 H 1.49 2.90518 0.631377 0
M  V30 11 H -0.977 1.52953 0.210867 0
M  V30 12 H 0.981 2.67203 3.11629 0
M  V30 13 H -0.358 1.57376 2.7183 0
M  V30 14 H -1.165 3.90944 3.18086 0
M  V30 15 H -1.563 3.418 1.51819 0
M  V30 16 H 0.729 5.58782 3.83104 0
M  V30 17 H 1.672 6.56266 2.65933 0
M  V30 18 H 2.08 4.83886 2.90714 0
M  V30 19 N 1.4781 -0.272755 1.55222 0
M  V30 20 C 2.4081 -1.34136 1.91127 0
M  V30 21 C 3.3891 -1.51513 0.773168 0
M  V30 22 O 4.5741 -1.64552 1.03132 0
M  V30 23 C 1.7041 -2.70083 2.1834 0
M  V30 24 C 0.6581 -2.67437 3.34158 0
M  V30 25 C -0.0159 -4.06938 3.46851 0
M  V30 26 C 1.2841 -2.26686 4.70543 0
M  V30 27 H 2.9781 -1.04333 2.80633 0
M  V30 28 H 0.5241 -0.500454 1.35024 0
M  V30 29 H 2.4771 -3.44952 2.42046 0
M  V30 30 H 1.2011 -3.01469 1.25634 0
M  V30 31 H -0.1399 -1.95026 3.1042 0
M  V30 32 H -0.4919 -4.35547 2.51611 0
M  V30 33 H -0.7919 -4.06062 4.2472 0
M  V30 34 H 0.7321 -4.83545 3.72849 0
M  V30 35 H 2.1461 -2.91277 4.93792 0
M  V30 36 H 0.5431 -2.36971 5.5133 0
M  V30 37 H 1.6131 -1.21818 4.69349 0
M  V30 38 N 2.9562 -1.48159 -0.537278 0
M  V30 39 C 4.2042 -1.55497 -1.29094 0
M  V30 40 C 4.5252 -0.227454 -1.93669 0
M  V30 41 O 3.7952 0.750386 -1.80959 0
M  V30 42 H 2.3752 -0.572832 -0.47945 0
M  V30 43 H 5.0372 -1.84579 -0.625818 0
M  V30 44 H 4.1332 -2.33216 -2.07405 0
M  V30 45 N 4.4343 0.785586 -1.36625 0
M  V30 46 C 5.3823 1.91978 -1.31329 0
M  V30 47 C 6.3763 1.68162 -0.204416 0
M  V30 48 O 7.5823 1.76122 -0.371645 0
M  V30 49 H 3.9573 0.631087 -0.408942 0
M  V30 50 H 5.9283 1.93562 -2.27104 0
M  V30 51 C 4.6773 3.29055 -1.12329 0
M  V30 52 H 4.0003 3.4795 -1.96903 0
M  V30 53 H 5.4403 4.08756 -1.12671 0
M  V30 54 C 3.8993 3.36461 0.171861 0
M  V30 55 O 4.4293 3.84576 1.16035 0
M  V30 56 N 2.6353 2.89782 0.217846 0
M  V30 57 H 2.1823 2.50819 -0.587183 0
M  V30 58 H 2.1403 2.95119 1.08408 0
M  V30 59 N 5.9124 1.20967 1.01018 0
M  V30 60 C 6.8594 0.964281 2.09691 0
M  V30 61 C 7.8294 -0.107853 1.65749 0
M  V30 62 O 9.0144 0.0381987 1.90762 0
M  V30 63 C 6.1544 0.52943 3.41015 0
M  V30 64 C 5.2674 1.67043 3.98398 0
M  V30 65 C 4.4024 1.18525 5.17808 0
M  V30 66 C 3.4414 2.29892 5.67288 0
M  V30 67 N 2.5784 1.82546 6.77954 0
M  V30 68 H 7.4184 1.89463 2.30017 0
M  V30 69 H 4.9554 0.944289 1.1279 0
M  V30 70 H 6.9134 0.258588 4.16398 0
M  V30 71 H 5.5434 -0.363919 3.20742 0
M  V30 72 H 4.5954 2.05603 3.20049 0
M  V30 73 H 5.9074 2.50877 4.31117 0
M  V30 74 H 5.0614 0.870762 6.00419 0
M  V30 75 H 3.8004 0.316887 4.86669 0
M  V30 76 H 2.8054 2.6215 4.83278 0
M  V30 77 H 4.0304 3.17216 6.00459 0
M  V30 78 H 1.9764 0.980454 6.48632 0
M  V30 79 H 1.8934 2.59956 7.09901 0
M  V30 80 H 3.1614 1.54115 7.64113 0
M  V30 81 N 7.3905 -1.2043 1.01659 0
M  V30 82 C 8.8065 -1.41852 0.731442 0
M  V30 83 C 9.0065 -1.89358 -0.688898 0
M  V30 84 O 8.0625 -2.06247 -1.45666 0
M  V30 85 C 9.3755 -2.44019 1.75714 0
M  V30 86 C 10.9235 -2.57785 1.77527 0
M  V30 87 C 11.3985 -3.63194 2.79023 0
M  V30 88 N 12.8895 -3.70678 2.77763 0
M  V30 89 C 13.6245 -4.51897 3.52954 0
M  V30 90 N 13.1205 -5.36921 4.37821 0
M  V30 91 N 14.9135 -4.4643 3.41551 0
M  V30 92 H 7.0645 -0.879093 1.93354 0
M  V30 93 H 9.3275 -0.448425 0.835236 0
M  V30 94 H 9.0335 -2.1611 2.77469 0
M  V30 95 H 8.9075 -3.43007 1.56927 0
M  V30 96 H 11.2945 -2.85023 0.764569 0
M  V30 97 H 11.3755 -1.58992 2.00387 0
M  V30 98 H 11.0195 -3.36699 3.80258 0
M  V30 99 H 10.9495 -4.61609 2.53425 0
M  V30 100 H 13.4405 -3.09944 2.16201 0
M  V30 101 H 13.7535 -5.95981 4.91962 0
M  V30 102 H 12.0985 -5.36424 4.41899 0
M  V30 103 H 15.2895 -3.79042 2.74672 0
M  V30 104 H 15.4625 -5.09491 4.00404 0
M  V30 105 N 8.8686 -0.792821 -1.36206 0
M  V30 106 C 9.7986 -0.207853 -2.32573 0
M  V30 107 C 10.7796 0.659055 -1.56813 0
M  V30 108 O 11.9646 0.592176 -1.84951 0
M  V30 109 C 9.0946 0.655449 -3.41059 0
M  V30 110 C 8.0486 -0.111842 -4.27854 0
M  V30 111 C 7.3746 0.872274 -5.27537 0
M  V30 112 C 8.6746 -1.30299 -5.05786 0
M  V30 113 H 10.3686 -1.01294 -2.81744 0
M  V30 114 H 7.9146 -0.48854 -1.3546 0
M  V30 115 H 9.8676 1.07464 -4.07467 0
M  V30 116 H 8.5916 1.49328 -2.90463 0
M  V30 117 H 7.2506 -0.512053 -3.63006 0
M  V30 118 H 6.8986 1.70523 -4.73214 0
M  V30 119 H 6.5986 0.363291 -5.86476 0
M  V30 120 H 8.1226 1.28996 -5.96818 0
M  V30 121 H 9.5366 -0.959379 -5.65216 0
M  V30 122 H 7.9336 -1.7455 -5.74154 0
M  V30 123 H 9.0036 -2.09663 -4.37229 0
M  V30 124 N 10.3467 1.47872 -0.545128 0
M  V30 125 C 11.5947 2.02093 -0.016553 0
M  V30 126 C 11.9157 1.42305 1.3332 0
M  V30 127 O 11.1857 0.593853 1.86682 0
M  V30 128 H 9.7657 0.746993 -0.00313038 0
M  V30 129 H 12.4277 1.81414 -0.712397 0
M  V30 130 H 11.5237 3.11996 0.0805422 0
M  V30 131 N 11.8248 0.280983 1.55075 0
M  V30 132 C 12.7548 -0.597469 2.25727 0
M  V30 133 C 13.7358 -1.15417 1.24952 0
M  V30 134 O 14.9208 -1.18722 1.53684 0
M  V30 135 C 12.0508 -1.7789 2.98283 0
M  V30 136 C 11.0048 -1.35347 4.06036 0
M  V30 137 C 10.3308 -2.61846 4.66198 0
M  V30 138 C 11.6308 -0.499354 5.19907 0
M  V30 139 H 13.3248 -0.00824265 2.99399 0
M  V30 140 H 10.8708 -0.0025244 1.44 0
M  V30 141 H 12.8238 -2.39937 3.46422 0
M  V30 142 H 11.5478 -2.39405 2.22155 0
M  V30 143 H 10.2068 -0.756156 3.58717 0
M  V30 144 H 9.8548 -3.21632 3.86732 0
M  V30 145 H 9.5548 -2.3409 5.38958 0
M  V30 146 H 11.0788 -3.24732 5.1709 0
M  V30 147 H 12.4928 -1.02498 5.64063 0
M  V30 148 H 10.8898 -0.316424 5.99265 0
M  V30 149 H 11.9598 0.480459 4.82514 0
M  V30 150 N 13.3029 -1.57598 0.00835791 0
M  V30 151 C 14.5279 -1.95617 -0.689103 0
M  V30 152 C 14.9529 -0.883753 -1.66046 0
M  V30 153 O 14.3109 0.157352 -1.80616 0
M  V30 154 C 14.3589 -3.32736 -1.38994 0
M  V30 155 O 13.4629 -3.27631 -2.50463 0
M  V30 156 H 12.8039 -0.638379 -0.182668 0
M  V30 157 H 15.3339 -2.045 0.064036 0
M  V30 158 H 15.3439 -3.68494 -1.75147 0
M  V30 159 H 14.0189 -4.1034 -0.677778 0
M  V30 160 H 12.5959 -3.03561 -2.16576 0
M  V30 161 N 14.781 0.264519 -1.55364 0
M  V30 162 C 16.029 0.993021 -1.76021 0
M  V30 163 C 16.35 1.86511 -0.569099 0
M  V30 164 O 15.62 1.91438 0.415735 0
M  V30 165 H 14.2 0.369639 -0.649135 0
M  V30 166 H 16.862 0.286707 -1.9278 0
M  V30 167 H 15.958 1.62502 -2.66457 0
M  V30 168 N 16.2591 1.48442 0.529413 0
M  V30 169 C 17.1891 1.65902 1.64313 0
M  V30 170 C 18.1701 0.507897 1.6234 0
M  V30 171 O 19.3551 0.740503 1.79528 0
M  V30 172 C 16.4851 1.69911 3.02898 0
M  V30 173 C 15.4391 2.8453 3.19729 0
M  V30 174 C 14.7651 2.73629 4.59381 0
M  V30 175 C 16.0651 4.25821 3.02447 0
M  V30 176 H 17.7591 2.5914 1.49955 0
M  V30 177 H 15.3051 1.24709 0.719982 0
M  V30 178 H 17.2581 1.80715 3.80684 0
M  V30 179 H 15.9821 0.732524 3.18279 0
M  V30 180 H 14.6411 2.73283 2.44361 0
M  V30 181 H 14.2891 1.74938 4.71599 0
M  V30 182 H 13.9891 3.50541 4.71588 0
M  V30 183 H 15.5131 2.86401 5.39265 0
M  V30 184 H 16.9271 4.37898 3.70024 0
M  V30 185 H 15.3241 5.03735 3.26146 0
M  V30 186 H 16.3941 4.42244 1.98867 0
M  V30 187 N 17.7372 -0.778329 1.37039 0
M  V30 188 C 18.9652 -1.56734 1.35063 0
M  V30 189 C 19.3802 -1.88686 -0.0655597 0
M  V30 190 O 18.7372 -1.5096 -1.02554 0
M  V30 191 C 18.7882 -2.88163 2.18276 0
M  V30 192 O 18.5092 -2.57583 3.54376 0
M  V30 193 C 20.0102 -3.82422 2.24206 0
M  V30 194 H 17.2302 -0.485778 0.462883 0
M  V30 195 H 19.7742 -0.965185 1.8029 0
M  V30 196 H 17.9292 -3.44818 1.76576 0
M  V30 197 H 18.3432 -3.41699 3.97922 0
M  V30 198 H 19.8172 -4.71667 2.86765 0
M  V30 199 H 20.2942 -4.21078 1.24861 0
M  V30 200 H 20.9002 -3.31697 2.6619 0
M  V30 201 N 19.2153 -1.21501 -1.00376 0
M  V30 202 C 20.1453 -0.999478 -2.11028 0
M  V30 203 C 21.1263 0.0759671 -1.6993 0
M  V30 204 O 22.3113 -0.0841106 -1.94018 0
M  V30 205 C 19.4413 -0.564709 -3.42678 0
M  V30 206 C 18.3953 -1.58486 -3.97576 0
M  V30 207 C 17.7213 -1.00628 -5.25146 0
M  V30 208 C 19.0213 -2.97204 -4.29496 0
M  V30 209 H 20.7153 -1.92495 -2.29317 0
M  V30 210 H 18.2613 -0.92693 -1.102 0
M  V30 211 H 20.2143 -0.401091 -4.19487 0
M  V30 212 H 18.9383 0.396411 -3.24185 0
M  V30 213 H 17.5973 -1.73606 -3.22888 0
M  V30 214 H 17.2453 -0.0368439 -5.02987 0
M  V30 215 H 16.9453 -1.68771 -5.62841 0
M  V30 216 H 18.4693 -0.854015 -6.04598 0
M  V30 217 H 19.8833 -2.8552 -4.97143 0
M  V30 218 H 18.2803 -3.62372 -4.78338 0
M  V30 219 H 19.3503 -3.47956 -3.3772 0
M  V30 220 N 20.6934 1.19889 -1.02296 0
M  V30 221 C 21.6564 2.21116 -0.603351 0
M  V30 222 C 22.6564 1.5738 0.329884 0
M  V30 223 O 23.8464 1.73802 0.117702 0
M  V30 224 C 20.9784 3.40696 0.117992 0
M  V30 225 H 22.1714 2.59754 -1.49893 0
M  V30 226 H 19.7244 1.33463 -0.813468 0
M  V30 227 H 20.4594 3.07569 1.0282 0
M  V30 228 H 20.2444 3.88188 -0.552511 0
M  V30 229 H 21.7344 4.15692 0.398696 0
M  V30 230 N 22.1715 0.800033 1.35784 0
M  V30 231 C 23.1015 0.220184 2.3246 0
M  V30 232 C 24.0825 -0.65073 1.57161 0
M  V30 233 O 25.2675 -0.582359 1.85263 0
M  V30 234 C 22.3975 -0.637353 3.41402 0
M  V30 235 C 21.3515 0.134531 4.27789 0
M  V30 236 C 20.6775 -0.844285 5.27992 0
M  V30 237 C 21.9775 1.32979 5.05088 0
M  V30 238 H 23.6715 1.02787 2.81203 0
M  V30 239 H 21.2175 0.495717 1.35199 0
M  V30 240 H 23.1705 -1.05302 4.08031 0
M  V30 241 H 21.8945 -1.47785 2.91251 0
M  V30 242 H 20.5535 0.531296 3.6273 0
M  V30 243 H 20.2015 -1.68011 4.74111 0
M  V30 244 H 19.9015 -0.332184 5.8666 0
M  V30 245 H 21.4255 -1.2583 5.97494 0
M  V30 246 H 22.8395 0.98934 5.64699 0
M  V30 247 H 21.2365 1.77593 5.7322 0
M  V30 248 H 22.3065 2.11978 4.36111 0
M  V30 249 N 23.6496 -1.47581 0.552962 0
M  V30 250 C 24.8746 -2.07378 0.0300593 0
M  V30 251 C 25.2996 -1.40355 -1.25229 0
M  V30 252 O 24.6576 -0.477099 -1.7491 0
M  V30 253 C 24.7056 -3.60274 -0.153231 0
M  V30 254 O 23.8096 -3.94041 -1.21678 0
M  V30 255 H 23.1506 -0.662158 0.0494182 0
M  V30 256 H 25.6806 -1.89662 0.767434 0
M  V30 257 H 25.6906 -4.0633 -0.368761 0
M  V30 258 H 24.3656 -4.08455 0.783397 0
M  V30 259 H 22.9426 -3.59735 -0.982079 0
M  V30 260 N 25.1277 -0.289203 -1.54924 0
M  V30 261 C 26.0577 0.58549 -2.2604 0
M  V30 262 C 27.0387 1.14753 -1.25562 0
M  V30 263 O 28.2237 1.17906 -1.54311 0
M  V30 264 C 25.3537 1.76305 -2.99222 0
M  V30 265 C 24.3077 1.33191 -4.06748 0
M  V30 266 C 23.6337 2.5937 -4.6758 0
M  V30 267 C 24.9337 0.471775 -5.20165 0
M  V30 268 H 26.6277 -0.00763532 -2.99399 0
M  V30 269 H 24.1737 -0.00511229 -1.43999 0
M  V30 270 H 26.1267 2.38097 -3.47689 0
M  V30 271 H 24.8507 2.38223 -2.23422 0
M  V30 272 H 23.5097 0.737121 -3.59113 0
M  V30 273 H 23.1577 3.19576 -3.88433 0
M  V30 274 H 22.8577 2.31228 -5.40192 0
M  V30 275 H 24.3817 3.21985 -5.18804 0
M  V30 276 H 25.7957 0.995056 -5.64599 0
M  V30 277 H 24.1927 0.284639 -5.99425 0
M  V30 278 H 25.2627 -0.506041 -4.82252 0
M  V30 279 N 26.6058 1.57591 -0.0167156 0
M  V30 280 C 27.5358 2.12496 0.967858 0
M  V30 281 C 28.5168 1.03807 1.34752 0
M  V30 282 O 29.7018 1.31577 1.42833 0
M  V30 283 C 26.8318 2.64194 2.25431 0
M  V30 284 C 25.7858 3.77559 2.01576 0
M  V30 285 C 25.1118 4.15636 3.36379 0
M  V30 286 C 26.4118 5.04151 1.36489 0
M  V30 287 H 28.1058 2.95013 0.510643 0
M  V30 288 H 25.6518 1.41915 0.244181 0
M  V30 289 H 27.6048 3.01236 2.94678 0
M  V30 290 H 26.3288 1.78821 2.73296 0
M  V30 291 H 24.9878 3.40937 1.34751 0
M  V30 292 H 24.6358 3.27263 3.81979 0
M  V30 293 H 24.3358 4.92022 3.21229 0
M  V30 294 H 25.8598 4.5525 4.06915 0
M  V30 295 H 27.2738 5.38857 1.95718 0
M  V30 296 H 25.6708 5.85453 1.31776 0
M  V30 297 H 26.7408 4.83733 0.336219 0
M  V30 298 N 28.0839 -0.256276 1.55502 0
M  V30 299 C 29.3299 -0.987079 1.77157 0
M  V30 300 C 29.6629 -1.85327 0.580315 0
M  V30 301 O 28.9379 -1.89874 -0.421686 0
M  V30 302 C 29.2209 -1.85553 3.08613 0
M  V30 303 C 29.0739 -1.01816 4.38125 0
M  V30 304 C 30.3929 -2.8397 3.36228 0
M  V30 305 H 27.5119 -0.357428 0.644526 0
M  V30 306 H 30.1539 -0.258239 1.88237 0
M  V30 307 H 28.3039 -2.47695 2.99298 0
M  V30 308 H 29.9759 -0.416159 4.59419 0
M  V30 309 H 28.2189 -0.322178 4.32602 0
M  V30 310 H 28.8899 -1.65939 5.26468 0
M  V30 311 H 31.3659 -2.31964 3.45445 0
M  V30 312 H 30.2419 -3.41864 4.29442 0
M  V30 313 H 30.5029 -3.59955 2.56681 0
M  V30 314 N 29.562 -1.4872 -0.521534 0
M  V30 315 C 30.802 -1.58771 -1.28729 0
M  V30 316 C 31.166 -0.259394 -1.9024 0
M  V30 317 O 32.367 -0.234942 -2.67771 0
M  V30 318 C 30.638 -2.70039 -2.34124 0
M  V30 319 S 32.197 -2.9991 -3.20312 0
M  V30 320 H 29.015 -0.560251 -0.437767 0
M  V30 321 H 31.617 -1.86283 -0.593188 0
M  V30 322 H 30.321 -3.65101 -1.87429 0
M  V30 323 H 29.852 -2.44455 -3.08229 0
M  V30 324 H 31.867 -2.39855 -4.34378 0
M  V30 325 N 31.0401 0.771051 -1.3745 0
M  V30 326 C 31.9701 1.89827 -1.3597 0
M  V30 327 C 32.9511 1.68562 -0.228216 0
M  V30 328 O 34.1361 1.8941 -0.428675 0
M  V30 329 C 31.2661 3.2712 -1.16662 0
M  V30 330 C 30.2201 3.6295 -2.2683 0
M  V30 331 C 29.5461 4.98791 -1.92644 0
M  V30 332 C 30.8461 3.69627 -3.69017 0
M  V30 333 H 32.5401 1.91323 -2.30295 0
M  V30 334 H 30.0861 0.919082 -1.10855 0
M  V30 335 H 32.0391 4.05615 -1.14256 0
M  V30 336 H 30.7631 3.26059 -0.187926 0
M  V30 337 H 29.4221 2.86763 -2.28392 0
M  V30 338 H 29.0701 4.94271 -0.933021 0
M  V30 339 H 28.7701 5.23733 -2.66416 0
M  V30 340 H 30.2941 5.79685 -1.91826 0
M  V30 341 H 31.7081 4.38273 -3.69581 0
M  V30 342 H 30.1051 4.06067 -4.41848 0
M  V30 343 H 31.1751 2.70273 -4.02592 0
M  V30 344 N 32.5182 1.22032 0.997298 0
M  V30 345 C 33.7662 1.04016 1.73278 0
M  V30 346 C 34.0872 -0.426255 1.90284 0
M  V30 347 O 33.3572 -1.30694 1.45931 0
M  V30 348 H 31.9372 0.381897 0.642 0
M  V30 349 H 34.5992 1.5347 1.20137 0
M  V30 350 H 33.6952 1.51441 2.72896 0
M  V30 351 N 33.9963 -1.19345 1.0293 0
M  V30 352 C 34.9593 -2.20793 0.615069 0
M  V30 353 C 35.9593 -1.57553 -0.321533 0
M  V30 354 O 37.1493 -1.73862 -0.108483 0
M  V30 355 C 34.2813 -3.40754 -0.0999222 0
M  V30 356 H 35.4743 -2.58955 1.51269 0
M  V30 357 H 33.0273 -1.3303 0.820534 0
M  V30 358 H 33.7623 -3.0811 -1.01187 0
M  V30 359 H 33.5473 -3.87889 0.57309 0
M  V30 360 H 35.0373 -4.15898 -0.376645 0
M  V30 361 N 35.4744 -0.807222 -1.35358 0
M  V30 362 C 36.4044 -0.232509 -2.3234 0
M  V30 363 C 37.3854 0.642386 -1.57504 0
M  V30 364 O 38.5704 0.572526 -1.85569 0
M  V30 365 C 35.7004 0.619238 -3.41735 0
M  V30 366 C 34.6544 -0.157215 -4.27711 0
M  V30 367 C 33.9804 0.816273 -5.28433 0
M  V30 368 C 35.2804 -1.35656 -5.04376 0
M  V30 369 H 36.9744 -1.04276 -2.80654 0
M  V30 370 H 34.5204 -0.50288 -1.34934 0
M  V30 371 H 36.4734 1.03137 -4.08584 0
M  V30 372 H 35.1974 1.46239 -2.92031 0
M  V30 373 H 33.8564 -0.550525 -3.62443 0
M  V30 374 H 33.5044 1.65494 -4.74996 0
M  V30 375 H 33.2044 0.301067 -5.86828 0
M  V30 376 H 34.7284 1.22659 -5.98153 0
M  V30 377 H 36.1424 -1.01927 -5.64166 0
M  V30 378 H 34.5394 -1.8063 -5.7227 0
M  V30 379 H 35.6094 -2.14288 -4.34981 0
M  V30 380 N 36.9525 1.47285 -0.560781 0
M  V30 381 C 37.9155 2.28535 0.174488 0
M  V30 382 C 38.9155 1.37153 0.839388 0
M  V30 383 O 40.1055 1.59748 0.694702 0
M  V30 384 C 37.2375 3.16934 1.25561 0
M  V30 385 H 38.4305 2.95012 -0.539262 0
M  V30 386 H 35.9835 1.53034 -0.317865 0
M  V30 387 H 36.7185 2.55157 2.00164 0
M  V30 388 H 36.5035 3.8419 0.783604 0
M  V30 389 H 37.9935 3.78143 1.77193 0
M  V30 390 N 38.4306 0.297415 1.54768 0
M  V30 391 C 39.3406 -0.58983 2.27064 0
M  V30 392 C 40.3566 -1.15144 1.30453 0
M  V30 393 O 41.5326 -1.17699 1.63428 0
M  V30 394 C 38.5976 -1.74714 2.9946 0
M  V30 395 C 37.6586 -1.21997 4.11601 0
M  V30 396 C 36.8916 -2.32212 4.80535 0
M  V30 397 O 37.1146 -3.52036 4.48806 0
M  V30 398 O 36.0486 -1.99106 5.68014 0
M  V30 399 H 39.8746 -0.00348199 3.037 0
M  V30 400 H 37.4596 0.0640035 1.49263 0
M  V30 401 H 39.3416 -2.42147 3.44881 0
M  V30 402 H 38.0166 -2.32016 2.25722 0
M  V30 403 H 36.9236 -0.511458 3.70587 0
M  V30 404 H 38.2566 -0.692419 4.87305 0
M  V30 405 N 39.9087 -1.5758 0.0250728 0
M  V30 406 C 40.8717 -2.08896 -0.943139 0
M  V30 407 C 41.8717 -1.00321 -1.25668 0
M  V30 408 O 43.0617 -1.26495 -1.19769 0
M  V30 409 C 40.1937 -2.55143 -2.26086 0
M  V30 410 H 41.3867 -2.95723 -0.498775 0
M  V30 411 H 38.9397 -1.54703 -0.222888 0
M  V30 412 H 39.6747 -1.71633 -2.75159 0
M  V30 413 H 39.4597 -3.34461 -2.04641 0
M  V30 414 H 40.9497 -2.95083 -2.95492 0
M  V30 415 N 41.3868 0.248026 -1.55636 0
M  V30 416 C 42.6168 0.992367 -1.81206 0
M  V30 417 C 43.0248 1.7949 -0.598324 0
M  V30 418 O 42.3678 1.78292 0.442434 0
M  V30 419 C 42.4298 1.97926 -3.00109 0
M  V30 420 C 42.0938 1.36377 -4.36177 0
M  V30 421 C 43.0908 0.76682 -5.14214 0
M  V30 422 C 40.7758 1.38347 -4.82872 0
M  V30 423 C 42.7698 0.197778 -6.37093 0
M  V30 424 C 40.4568 0.810574 -6.057 0
M  V30 425 C 41.4548 0.218754 -6.8265 0
M  V30 426 O 41.1428 -0.345298 -8.03158 0
M  V30 427 H 40.8748 0.297704 -0.606917 0
M  V30 428 H 43.4288 0.276517 -2.0353 0
M  V30 429 H 41.6588 2.73339 -2.73538 0
M  V30 430 H 43.3478 2.58694 -3.12781 0
M  V30 431 H 44.1138 0.744114 -4.79258 0
M  V30 432 H 39.9928 1.8335 -4.2297 0
M  V30 433 H 43.5368 -0.264788 -6.97097 0
M  V30 434 H 39.4338 0.830604 -6.40134 0
M  V30 435 H 40.2018 -0.237055 -8.18157 0
M  V30 436 N 42.8649 1.48995 0.513639 0
M  V30 437 C 44.2759 1.5119 1.09537 0
M  V30 438 C 44.6269 0.290906 1.94031 0
M  V30 439 O 43.7519 -0.60049 2.07902 0
M  V30 440 C 44.3469 2.73964 1.99322 0
M  V30 441 C 42.9059 2.78978 2.52682 0
M  V30 442 C 42.0529 2.44934 1.30009 0
M  V30 443 H 45.0039 1.55875 0.298125 0
M  V30 444 H 45.0249 2.53409 2.83838 0
M  V30 445 H 44.5369 3.62813 1.37799 0
M  V30 446 H 42.6379 1.94378 3.1788 0
M  V30 447 H 42.7509 3.8083 2.90698 0
M  V30 448 H 41.1149 1.9644 1.62122 0
M  V30 449 H 41.8979 3.36043 0.702131 0
M  V30 450 N 44.343 -0.763751 1.37857 0
M  V30 451 C 45.568 -1.55805 1.36893 0
M  V30 452 C 45.993 -1.88054 -0.0416135 0
M  V30 453 O 45.351 -1.49825 -1.02089 0
M  V30 454 C 45.399 -2.84012 2.22192 0
M  V30 455 O 44.503 -3.78732 1.63204 0
M  V30 456 H 43.844 -0.471638 0.46739 0
M  V30 457 H 46.374 -0.944657 1.81487 0
M  V30 458 H 46.384 -3.33037 2.35691 0
M  V30 459 H 45.059 -2.59869 3.24716 0
M  V30 460 H 43.636 -3.37402 1.58791 0
M  V30 461 N 45.8211 -1.22559 -0.990812 0
M  V30 462 C 46.7681 -0.997519 -2.0813 0
M  V30 463 C 47.7381 0.0814702 -1.659 0
M  V30 464 O 48.9231 -0.0685424 -1.90677 0
M  V30 465 C 46.0631 -0.583615 -3.40129 0
M  V30 466 C 45.1761 -1.7336 -3.9569 0
M  V30 467 C 44.3111 -1.26748 -5.15857 0
M  V30 468 C 43.3501 -2.38888 -5.63559 0
M  V30 469 N 42.4871 -1.93308 -6.74964 0
M  V30 470 H 47.3271 -1.93099 -2.26973 0
M  V30 471 H 44.8641 -0.962114 -1.11273 0
M  V30 472 H 46.8221 -0.324801 -4.15934 0
M  V30 473 H 45.4521 0.312845 -3.2128 0
M  V30 474 H 44.5041 -2.10669 -3.16738 0
M  V30 475 H 45.8161 -2.57704 -4.27071 0
M  V30 476 H 44.9701 -0.966173 -5.98957 0
M  V30 477 H 43.7091 -0.394272 -4.86104 0
M  V30 478 H 42.7141 -2.69805 -4.79046 0
M  V30 479 H 43.9391 -3.26728 -5.95336 0
M  V30 480 H 41.8851 -1.08352 -6.4699 0
M  V30 481 H 41.8021 -2.71217 -7.05675 0
M  V30 482 H 43.0701 -1.66252 -7.61564 0
M  V30 483 N 47.2992 1.18797 -1.03562 0
M  V30 484 C 48.7102 1.70322 -0.764676 0
M  V30 485 C 49.0612 1.82708 0.714996 0
M  V30 486 O 48.1862 1.50299 1.55689 0
M  V30 487 C 48.7812 3.09356 -1.38145 0
M  V30 488 C 47.3402 3.58114 -1.15895 0
M  V30 489 C 46.4872 2.34798 -1.4753 0
M  V30 490 H 49.4382 1.03543 -1.20268 0
M  V30 491 H 49.4592 3.72378 -0.781977 0
M  V30 492 H 48.9712 3.00309 -2.45837 0
M  V30 493 H 47.0722 3.72464 -0.100544 0
M  V30 494 H 47.1852 4.4184 -1.8524 0
M  V30 495 H 45.5492 2.38464 -0.894829 0
M  V30 496 H 46.3322 2.28375 -2.56319 0
M  V30 497 N 48.7773 0.814389 1.34928 0
M  V30 498 C 50.0543 0.321363 1.92942 0
M  V30 499 C 50.4343 -1.19014 1.74353 0
M  V30 500 O 49.7823 -1.99328 1.11716 0
M  V30 501 C 49.9923 0.741323 3.41036 0
M  V30 502 C 51.3403 0.735266 4.18185 0
M  V30 503 O 52.3643 0.68336 3.49584 0
M  V30 504 O 51.2233 0.800703 5.40602 0
M  V30 505 H 48.3173 0.0858893 0.822528 0
M  V30 506 H 50.8633 0.898609 1.43955 0
M  V30 507 H 49.6353 1.78276 3.4833 0
M  V30 508 H 49.2583 0.139307 3.97356 0
M  V30 509 N 50.2554 -1.46986 0.568584 0
M  V30 510 C 51.2034 -2.31858 -0.185649 0
M  V30 511 C 52.1974 -1.43624 -0.898249 0
M  V30 512 O 53.4034 -1.60327 -0.818242 0
M  V30 513 H 49.7784 -0.747866 -0.0787399 0
M  V30 514 H 51.7494 -2.93303 0.549191 0
M  V30 515 C 50.4984 -3.26513 -1.19519 0
M  V30 516 H 49.8214 -3.94377 -0.656285 0
M  V30 517 H 51.2614 -3.88707 -1.6936 0
M  V30 518 C 49.7204 -2.50847 -2.24894 0
M  V30 519 O 50.2504 -2.26119 -3.32014 0
M  V30 520 N 48.4564 -2.11656 -1.99124 0
M  V30 521 H 48.0034 -2.31966 -1.12024 0
M  V30 522 H 47.9614 -1.61347 -2.69842 0
M  V30 523 N 51.7335 -0.305618 -1.54608 0
M  V30 524 C 53.1445 0.186098 -1.8577 0
M  V30 525 C 53.4955 1.53058 -1.22751 0
M  V30 526 O 52.6205 2.09888 -0.526893 0
M  V30 527 C 53.2155 0.344449 -3.37044 0
M  V30 528 C 51.7745 0.780384 -3.68221 0
M  V30 529 C 50.9215 -0.108554 -2.77087 0
M  V30 530 H 53.8725 -0.526485 -1.49712 0
M  V30 531 H 53.8935 1.17828 -3.61796 0
M  V30 532 H 53.4055 -0.634235 -3.82883 0
M  V30 533 H 51.5065 1.76945 -3.27904 0
M  V30 534 H 51.6195 0.596572 -4.75371 0
M  V30 535 H 49.9835 0.412931 -2.5133 0
M  V30 536 H 50.7665 -1.08368 -3.25747 0
M  V30 537 N 53.2116 1.57565 -0.0334293 0
M  V30 538 C 54.4596 1.91598 0.642999 0
M  V30 539 C 54.7806 0.910847 1.7242 0
M  V30 540 O 54.0506 -0.0469931 1.95844 0
M  V30 541 H 52.6306 0.707228 0.240496 0
M  V30 542 H 55.2926 1.94726 -0.0822488 0
M  V30 543 H 54.3886 2.92336 1.09298 0
M  V30 544 N 54.6897 -0.239769 1.55765 0
M  V30 545 C 55.5997 -1.31831 1.94056 0
M  V30 546 C 56.6157 -1.52275 0.841925 0
M  V30 547 O 57.7917 -1.65759 1.14394 0
M  V30 548 C 54.8567 -2.65156 2.23368 0
M  V30 549 C 53.9177 -2.53173 3.46701 0
M  V30 550 C 53.1507 -3.8014 3.74606 0
M  V30 551 O 53.3737 -4.82343 3.04469 0
M  V30 552 O 52.3077 -3.78344 4.68123 0
M  V30 553 H 56.1337 -1.02347 2.85935 0
M  V30 554 H 53.7187 -0.441123 1.42739 0
M  V30 555 H 55.6007 -3.43929 2.43497 0
M  V30 556 H 54.2757 -2.94358 1.34666 0
M  V30 557 H 53.1827 -1.72662 3.31871 0
M  V30 558 H 54.5157 -2.28915 4.35728 0
M  V30 559 N 56.1678 -1.49265 -0.50573 0
M  V30 560 C 57.4448 -1.49012 -1.26707 0
M  V30 561 C 57.8248 -0.215205 -2.1 0
M  V30 562 O 57.1728 0.802547 -2.13943 0
M  V30 563 C 57.3828 -2.7663 -2.12783 0
M  V30 564 C 58.7308 -3.25932 -2.72127 0
M  V30 565 O 59.7548 -2.77715 -2.23054 0
M  V30 566 O 58.6138 -4.09897 -3.61451 0
M  V30 567 H 55.7078 -0.596197 -0.57313 0
M  V30 568 H 58.2538 -1.61524 -0.52039 0
M  V30 569 H 57.0258 -3.60916 -1.5118 0
M  V30 570 H 56.6488 -2.66956 -2.94653 0
M  V30 571 N 57.6459 0.756429 -1.3826 0
M  V30 572 C 58.6089 1.85176 -1.35065 0
M  V30 573 C 59.6089 1.58818 -0.251703 0
M  V30 574 O 60.7989 1.66615 -0.508433 0
M  V30 575 C 57.9309 3.22596 -1.10201 0
M  V30 576 H 59.1239 1.89417 -2.3251 0
M  V30 577 H 56.6769 0.95783 -1.23512 0
M  V30 578 H 57.4119 3.24025 -0.133504 0
M  V30 579 H 57.1969 3.43122 -1.89762 0
M  V30 580 H 58.6869 4.02673 -1.10654 0
M  V30 581 N 59.124 1.23083 0.984299 0
M  V30 582 C 60.535 1.05609 1.5396 0
M  V30 583 C 60.886 -0.377793 1.92528 0
M  V30 584 O 60.011 -1.26398 1.75649 0
M  V30 585 C 60.606 1.91087 2.7977 0
M  V30 586 C 59.165 1.77885 3.31713 0
M  V30 587 C 58.312 1.87028 2.04733 0
M  V30 588 H 61.263 1.36802 0.804419 0
M  V30 589 H 61.284 1.43336 3.5247 0
M  V30 590 H 60.796 2.9544 2.51668 0
M  V30 591 H 58.897 0.762995 3.64704 0
M  V30 592 H 59.01 2.61047 4.01735 0
M  V30 593 H 57.374 1.30565 2.18689 0
M  V30 594 H 58.157 2.92929 1.79017 0
M  V30 595 N 60.6021 -1.18246 1.0419 0
M  V30 596 C 61.5651 -2.20128 0.638452 0
M  V30 597 C 62.5651 -1.57885 -0.304805 0
M  V30 598 O 63.7551 -1.73967 -0.0900369 0
M  V30 599 C 60.8871 -3.4084 -0.0637751 0
M  V30 600 H 62.0801 -2.57336 1.54007 0
M  V30 601 H 59.6331 -1.32152 0.834598 0
M  V30 602 H 60.3681 -3.09166 -0.979136 0
M  V30 603 H 60.1531 -3.8726 0.614198 0
M  V30 604 H 61.6431 -4.16274 -0.332512 0
M  V30 605 N 62.0802 -0.821533 -1.34494 0
M  V30 606 C 62.9902 -0.244355 -2.33324 0
M  V30 607 C 64.0062 0.620527 -1.62559 0
M  V30 608 O 65.1822 0.528754 -1.94335 0
M  V30 609 C 62.2472 0.585368 -3.41723 0
M  V30 610 C 61.3082 -0.301752 -4.28238 0
M  V30 611 C 60.5412 0.488466 -5.3146 0
M  V30 612 O 60.7642 1.72186 -5.4379 0
M  V30 613 O 59.6982 -0.12848 -6.01763 0
M  V30 614 H 63.5242 -1.06231 -2.84515 0
M  V30 615 H 61.1092 -0.583645 -1.37528 0
M  V30 616 H 62.9912 1.05747 -4.07916 0
M  V30 617 H 61.6662 1.38068 -2.92778 0
M  V30 618 H 60.5732 -0.821315 -3.64973 0
M  V30 619 H 61.9062 -1.06138 -4.8062 0
M  V30 620 N 63.5583 1.46682 -0.576371 0
M  V30 621 C 64.8353 1.95599 0.00703437 0
M  V30 622 C 65.2153 1.51904 1.46589 0
M  V30 623 O 64.5633 0.766755 2.15251 0
M  V30 624 C 64.7733 3.4864 -0.158404 0
M  V30 625 C 66.1213 4.24594 -0.0229439 0
M  V30 626 O 67.1453 3.56094 -0.0869173 0
M  V30 627 O 66.0043 5.46373 0.118015 0
M  V30 628 H 63.0983 0.825275 0.053384 0
M  V30 629 H 65.6443 1.56996 -0.644244 0
M  V30 630 H 64.4163 3.7331 -1.17282 0
M  V30 631 H 64.0393 3.94057 0.5296 0
M  V30 632 N 65.0364 0.313813 1.54444 0
M  V30 633 C 65.9694 -0.598866 2.20202 0
M  V30 634 C 66.9474 -1.12318 1.17573 0
M  V30 635 O 68.1314 -1.18899 1.46271 0
M  V30 636 C 65.2584 -1.82071 2.85601 0
M  V30 637 C 64.3044 -1.42851 4.01865 0
M  V30 638 S 65.1374 -0.473512 5.33402 0
M  V30 639 C 66.2934 -1.70286 6.0229 0
M  V30 640 H 66.5264 -0.0402532 2.97273 0
M  V30 641 H 64.0594 0.0979165 1.54089 0
M  V30 642 H 66.0174 -2.52184 3.23904 0
M  V30 643 H 64.6784 -2.3505 2.08351 0
M  V30 644 H 63.8714 -2.33871 4.46453 0
M  V30 645 H 63.4734 -0.807198 3.65185 0
M  V30 646 H 65.7654 -2.64168 6.23876 0
M  V30 647 H 66.7084 -1.29932 6.96077 0
M  V30 648 H 67.1164 -1.88541 5.32083 0
M  V30 649 N 66.5145 -1.57545 0.0417849 0
M  V30 650 C 67.4775 -2.09885 -0.92093 0
M  V30 651 C 68.4775 -1.01648 -1.24596 0
M  V30 652 O 69.6675 -1.27759 -1.1842 0
M  V30 653 C 66.7995 -2.57527 -2.23367 0
M  V30 654 H 67.9925 -2.96236 -0.467382 0
M  V30 655 H 65.5455 -1.5493 -0.206467 0
M  V30 656 H 66.2805 -1.74542 -2.73323 0
M  V30 657 H 66.0655 -3.36613 -2.01083 0
M  V30 658 H 67.5555 -2.98201 -2.92346 0
M  V30 659 N 67.9926 0.231505 -1.5589 0
M  V30 660 C 69.4086 0.580748 -1.48659 0
M  V30 661 C 69.6086 1.87617 -0.73498 0
M  V30 662 O 68.6646 2.51046 -0.270586 0
M  V30 663 C 69.9776 0.669202 -2.93159 0
M  V30 664 C 71.5256 0.760499 -3.03621 0
M  V30 665 C 72.0006 0.880383 -4.49459 0
M  V30 666 N 73.4916 0.944861 -4.53461 0
M  V30 667 C 74.2266 1.05716 -5.63571 0
M  V30 668 N 73.7226 1.13403 -6.83456 0
M  V30 669 N 75.5156 1.09152 -5.514 0
M  V30 670 H 67.6666 -0.618695 -2.03189 0
M  V30 671 H 69.9296 -0.215728 -0.923128 0
M  V30 672 H 69.6356 -0.212904 -3.51055 0
M  V30 673 H 69.5096 1.5361 -3.44505 0
M  V30 674 H 71.8966 1.63305 -2.45796 0
M  V30 675 H 71.9776 -0.131864 -2.5546 0
M  V30 676 H 71.6216 0.0123284 -5.07899 0
M  V30 677 H 71.5516 1.78802 -4.95316 0
M  V30 678 H 74.0426 0.896176 -3.6712 0
M  V30 679 H 74.3556 1.21921 -7.63122 0
M  V30 680 H 72.7006 1.10333 -6.86186 0
M  V30 681 H 75.8916 1.02805 -4.56671 0
M  V30 682 H 76.0646 1.17558 -6.37247 0
M  V30 683 N 69.4707 1.49531 0.497807 0
M  V30 684 C 70.7007 1.62657 1.27382 0
M  V30 685 C 71.1087 0.298488 1.86831 0
M  V30 686 O 70.4517 -0.72647 1.68725 0
M  V30 687 C 70.5137 2.6393 2.44093 0
M  V30 688 C 70.1777 4.08195 2.05489 0
M  V30 689 C 71.1747 4.949 1.59279 0
M  V30 690 C 68.8597 4.53948 2.15026 0
M  V30 691 C 70.8537 6.25397 1.23113 0
M  V30 692 C 68.5407 5.84458 1.78473 0
M  V30 693 C 69.5387 6.70006 1.32591 0
M  V30 694 O 69.2267 7.98083 0.965327 0
M  V30 695 H 68.9587 0.550429 0.392434 0
M  V30 696 H 71.5127 1.96325 0.603801 0
M  V30 697 H 69.7427 2.25449 3.14181 0
M  V30 698 H 71.4317 2.66552 3.06113 0
M  V30 699 H 72.1977 4.60779 1.51354 0
M  V30 700 H 68.0767 3.87525 2.4969 0
M  V30 701 H 71.6207 6.92125 0.872299 0
M  V30 702 H 67.5177 6.18107 1.86048 0
M  V30 703 H 68.2857 8.11122 1.09652 0
M  V30 704 N 70.9488 -0.749086 1.3866 0
M  V30 705 C 72.1788 -1.53611 1.38157 0
M  V30 706 C 72.5868 -1.89177 -0.0293595 0
M  V30 707 O 71.9298 -1.53606 -1.00752 0
M  V30 708 C 71.9918 -2.86087 2.17702 0
M  V30 709 C 71.6558 -2.73034 3.66472 0
M  V30 710 C 72.6528 -2.42526 4.59866 0
M  V30 711 C 70.3378 -2.90345 4.09884 0
M  V30 712 C 72.3318 -2.29492 5.94653 0
M  V30 713 C 70.0188 -2.7693 5.4475 0
M  V30 714 C 71.0168 -2.46547 6.36949 0
M  V30 715 O 70.7048 -2.33199 7.69333 0
M  V30 716 H 70.4368 -0.481773 0.474205 0
M  V30 717 H 72.9908 -0.934465 1.82912 0
M  V30 718 H 71.2208 -3.48458 1.67672 0
M  V30 719 H 72.9098 -3.47625 2.09551 0
M  V30 720 H 73.6758 -2.28816 4.27631 0
M  V30 721 H 69.5548 -3.1299 3.38464 0
M  V30 722 H 73.0988 -2.05698 6.66584 0
M  V30 723 H 68.9958 -2.90215 5.76581 0
M  V30 724 H 69.7638 -2.48376 7.79905 0
M  V30 725 N 72.4269 -1.23603 -0.977757 0
M  V30 726 C 73.6519 -1.09735 -1.75991 0
M  V30 727 C 74.0769 0.346858 -1.84874 0
M  V30 728 O 73.4349 1.25093 -1.3123 0
M  V30 729 C 73.4829 -1.73051 -3.16363 0
M  V30 730 O 72.5869 -0.994452 -4.0023 0
M  V30 731 H 71.9279 -0.384476 -0.541364 0
M  V30 732 H 74.4579 -1.6371 -1.2272 0
M  V30 733 H 74.4679 -1.78398 -3.66931 0
M  V30 734 H 73.1429 -2.78137 -3.09213 0
M  V30 735 H 71.7199 -1.01812 -3.58732 0
M  V30 736 N 73.905 1.17692 -1.04816 0
M  V30 737 C 74.868 2.19787 -0.650117 0
M  V30 738 C 75.868 1.58044 0.296427 0
M  V30 739 O 77.058 1.74012 0.0808097 0
M  V30 740 C 74.19 3.40869 0.0456987 0
M  V30 741 H 75.383 2.56516 -1.5537 0
M  V30 742 H 72.936 1.31708 -0.841594 0
M  V30 743 H 73.671 3.09681 0.962726 0
M  V30 744 H 73.456 3.86928 -0.634727 0
M  V30 745 H 74.946 4.16445 0.310432 0
M  V30 746 N 75.3831 0.828654 1.34056 0
M  V30 747 C 76.3131 0.269443 2.3194 0
M  V30 748 C 77.2941 -0.617247 1.58506 0
M  V30 749 O 78.4791 -0.542931 1.86456 0
M  V30 750 C 75.6091 -0.564793 3.42677 0
M  V30 751 C 74.5631 0.225241 4.27407 0
M  V30 752 C 73.8891 -0.7321 5.29664 0
M  V30 753 C 75.1891 1.43663 5.02154 0
M  V30 754 H 76.8831 1.08728 2.7896 0
M  V30 755 H 74.4291 0.524283 1.34117 0
M  V30 756 H 76.3821 -0.966233 4.10173 0
M  V30 757 H 75.1061 -1.41574 2.9432 0
M  V30 758 H 73.7651 0.608117 3.61521 0
M  V30 759 H 73.4131 -1.57916 4.77568 0
M  V30 760 H 73.1131 -0.20767 5.87233 0
M  V30 761 H 74.6371 -1.13128 6.00029 0
M  V30 762 H 76.0511 1.1089 5.62473 0
M  V30 763 H 74.4481 1.89711 5.69324 0
M  V30 764 H 75.5181 2.21181 4.31517 0
M  V30 765 N 76.8612 -1.46375 0.584142 0
M  V30 766 C 78.2772 -1.57694 0.245929 0
M  V30 767 C 78.4772 -1.57903 -1.25175 0
M  V30 768 O 77.5332 -1.49676 -2.03355 0
M  V30 769 C 78.8462 -2.87028 0.896402 0
M  V30 770 C 80.3942 -3.00662 0.870127 0
M  V30 771 C 80.8692 -4.32734 1.50017 0
M  V30 772 N 82.3602 -4.39436 1.46458 0
M  V30 773 C 83.0952 -5.40248 1.92144 0
M  V30 774 N 82.5912 -6.47726 2.4581 0
M  V30 775 N 84.3842 -5.31459 1.83052 0
M  V30 776 H 76.5352 -1.44483 1.55687 0
M  V30 777 H 78.7982 -0.689291 0.650831 0
M  V30 778 H 78.5042 -2.9269 1.95002 0
M  V30 779 H 78.3782 -3.75014 0.405486 0
M  V30 780 H 80.7652 -2.94581 -0.174871 0
M  V30 781 H 80.8462 -2.14148 1.39908 0
M  V30 782 H 80.4902 -4.39573 2.54437 0
M  V30 783 H 80.4202 -5.18025 0.946432 0
M  V30 784 H 82.9112 -3.62367 1.07231 0
M  V30 785 H 83.2242 -7.20863 2.78525 0
M  V30 786 H 81.5692 -6.48542 2.49836 0
M  V30 787 H 84.7602 -4.46396 1.40883 0
M  V30 788 H 84.9332 -6.09881 2.18973 0
M  V30 789 N 78.3393 -0.321999 -1.54275 0
M  V30 790 C 79.2893 0.560185 -2.21011 0
M  V30 791 C 80.2733 1.08283 -1.19011 0
M  V30 792 O 81.4653 1.02011 -1.44647 0
M  V30 793 C 78.5943 1.72137 -2.97025 0
M  V30 794 C 77.6803 1.21369 -4.06363 0
M  V30 795 N 78.0713 0.425566 -5.04007 0
M  V30 796 C 76.3693 1.49255 -4.20284 0
M  V30 797 C 77.0703 0.152601 -5.815 0
M  V30 798 N 76.0463 0.738294 -5.38563 0
M  V30 799 H 79.8483 -0.049265 -2.93859 0
M  V30 800 H 77.3623 -0.127779 -1.61897 0
M  V30 801 H 79.3593 2.36512 -3.43319 0
M  V30 802 H 78.0193 2.33431 -2.25699 0
M  V30 803 H 79.0303 0.068551 -5.17855 0
M  V30 804 H 75.7073 2.11145 -3.60172 0
M  V30 805 H 77.0973 -0.481764 -6.70171 0
M  V30 806 N 79.8174 1.5752 -0.0501392 0
M  V30 807 C 81.0474 1.96678 0.632573 0
M  V30 808 C 81.4554 0.926298 1.64974 0
M  V30 809 O 80.7984 -0.09802 1.83438 0
M  V30 810 C 80.8604 3.32068 1.37735 0
M  V30 811 C 80.5244 4.54076 0.516131 0
M  V30 812 C 81.5214 5.19445 -0.217357 0
M  V30 813 C 79.2064 5.00304 0.44736 0
M  V30 814 C 81.2004 6.29378 -1.00807 0
M  V30 815 C 78.8874 6.10114 -0.347038 0
M  V30 816 C 79.8854 6.74512 -1.07344 0
M  V30 817 O 79.5734 7.82211 -1.85477 0
M  V30 818 H 79.3054 0.652193 0.177821 0
M  V30 819 H 81.8594 2.05091 -0.112543 0
M  V30 820 H 80.0894 3.20206 2.16807 0
M  V30 821 H 81.7784 3.55981 1.95019 0
M  V30 822 H 82.5444 4.84689 -0.173688 0
M  V30 823 H 78.4234 4.49971 1.00235 0
M  V30 824 H 81.9674 6.79575 -1.57556 0
M  V30 825 H 77.8644 6.44307 -0.392349 0
M  V30 826 H 78.6324 7.98982 -1.77678 0
M  V30 827 N 81.2955 -0.223234 1.56011 0
M  V30 828 C 82.5445 -0.945912 1.78144 0
M  V30 829 C 82.8575 -1.85567 0.618396 0
M  V30 830 O 84.0635 -2.61688 0.723318 0
M  V30 831 C 82.5195 -1.73216 3.15475 0
M  V30 832 C 82.1275 -0.868619 4.39499 0
M  V30 833 C 83.8715 -2.44615 3.46935 0
M  V30 834 C 81.7785 -1.65212 5.67855 0
M  V30 835 H 80.7085 -0.356929 0.664167 0
M  V30 836 H 83.3595 -0.199845 1.82409 0
M  V30 837 H 81.7415 -2.52107 3.05382 0
M  V30 838 H 82.9155 -0.120366 4.60643 0
M  V30 839 H 81.2305 -0.26683 4.15544 0
M  V30 840 H 83.8275 -3.03732 4.40058 0
M  V30 841 H 84.1705 -3.17417 2.69355 0
M  V30 842 H 84.7035 -1.72715 3.58349 0
M  V30 843 H 81.4425 -0.967407 6.48322 0
M  V30 844 H 80.9625 -2.37503 5.50774 0
M  V30 845 H 82.6415 -2.21322 6.07968 0
M  V30 846 N 82.7736 -1.49793 -0.48987 0
M  V30 847 C 83.7216 -1.67783 -1.61095 0
M  V30 848 C 84.7156 -0.543683 -1.60438 0
M  V30 849 O 85.9216 -0.723647 -1.64813 0
M  V30 850 H 82.2966 -0.529255 -0.534222 0
M  V30 851 H 84.2676 -2.61861 -1.43078 0
M  V30 852 C 83.0166 -1.77191 -2.99164 0
M  V30 853 H 82.3396 -2.63841 -3.0038 0
M  V30 854 H 83.7796 -1.93809 -3.77113 0
M  V30 855 C 82.2386 -0.519203 -3.32875 0
M  V30 856 O 82.7686 0.350124 -4.00171 0
M  V30 857 N 80.9746 -0.378816 -2.8812 0
M  V30 858 H 80.5216 -1.08725 -2.33531 0
M  V30 859 H 80.4796 0.458239 -3.11043 0
M  V30 860 N 84.2517 0.741722 -1.39055 0
M  V30 861 C 85.1817 1.869 -1.39966 0
M  V30 862 C 86.1627 1.6804 -0.26392 0
M  V30 863 O 87.3477 1.88458 -0.468755 0
M  V30 864 C 84.4777 3.24572 -1.23574 0
M  V30 865 C 83.4317 3.58056 -2.34477 0
M  V30 866 C 82.7577 4.94593 -2.0318 0
M  V30 867 C 84.0577 3.61716 -3.76774 0
M  V30 868 H 85.7517 1.86395 -2.34302 0
M  V30 869 H 83.2977 0.895361 -1.1278 0
M  V30 870 H 85.2507 4.031 -1.22834 0
M  V30 871 H 83.9747 3.25587 -0.257045 0
M  V30 872 H 82.6337 2.81854 -2.34423 0
M  V30 873 H 82.2817 4.92181 -1.03765 0
M  V30 874 H 81.9817 5.17964 -2.77465 0
M  V30 875 H 83.5057 5.75486 -2.04079 0
M  V30 876 H 84.9197 4.30335 -3.78794 0
M  V30 877 H 83.3167 3.96603 -4.50362 0
M  V30 878 H 84.3867 2.61672 -4.08235 0
M  V30 879 N 85.7298 1.2412 0.971189 0
M  V30 880 C 86.9788 1.07284 1.70801 0
M  V30 881 C 87.2918 -0.388902 1.91695 0
M  V30 882 O 88.4978 -0.677379 2.62914 0
M  V30 883 C 86.9538 1.87145 3.07416 0
M  V30 884 C 86.5618 3.37707 2.94377 0
M  V30 885 C 88.3058 1.78828 3.84995 0
M  V30 886 C 86.2128 4.09925 4.26281 0
M  V30 887 H 85.1428 0.397854 0.64049 0
M  V30 888 H 87.7938 1.4817 1.0825 0
M  V30 889 H 86.1758 1.39071 3.70777 0
M  V30 890 H 87.3498 3.93335 2.4005 0
M  V30 891 H 85.6648 3.46938 2.30267 0
M  V30 892 H 88.2618 2.30089 4.82662 0
M  V30 893 H 88.6048 0.75284 4.09436 0
M  V30 894 H 89.1378 2.24563 3.28354 0
M  V30 895 H 85.8768 5.13813 4.07033 0
M  V30 896 H 85.3968 3.59083 4.80437 0
M  V30 897 H 87.0758 4.1673 4.94919 0
M  V30 898 N 87.2079 -1.17134 1.05439 0
M  V30 899 C 88.4359 -1.91372 0.786414 0
M  V30 900 C 88.8509 -1.76955 -0.658202 0
M  V30 901 O 88.2079 -1.10838 -1.44987 0
M  V30 902 C 88.2589 -3.42356 1.1608 0
M  V30 903 O 87.9799 -3.56332 2.54871 0
M  V30 904 C 89.4809 -4.33663 0.919322 0
M  V30 905 H 86.7009 -0.607118 0.285743 0
M  V30 906 H 89.2449 -1.48525 1.40572 0
M  V30 907 H 87.3999 -3.82939 0.586191 0
M  V30 908 H 87.8139 -4.49896 2.69618 0
M  V30 909 H 89.2879 -5.38099 1.231 0
M  V30 910 H 89.7649 -4.38959 -0.145359 0
M  V30 911 H 90.3709 -3.98796 1.47789 0
M  V30 912 N 88.686 -0.835752 -1.33615 0
M  V30 913 C 90.102 -0.523139 -1.50783 0
M  V30 914 C 90.302 0.950171 -1.77691 0
M  V30 915 O 89.358 1.73411 -1.83534 0
M  V30 916 C 90.671 -1.39378 -2.66448 0
M  V30 917 C 92.219 -1.39223 -2.80332 0
M  V30 918 C 92.694 -2.24765 -3.99055 0
M  V30 919 N 94.185 -2.22458 -4.06284 0
M  V30 920 C 94.92 -2.85386 -4.97336 0
M  V30 921 N 94.416 -3.57354 -5.93523 0
M  V30 922 N 96.209 -2.74872 -4.90308 0
M  V30 923 H 88.36 -1.78952 -1.14411 0
M  V30 924 H 90.623 -0.763297 -0.562212 0
M  V30 925 H 90.329 -2.44061 -2.53234 0
M  V30 926 H 90.203 -1.0676 -3.61776 0
M  V30 927 H 92.59 -0.353136 -2.92979 0
M  V30 928 H 92.671 -1.75846 -1.85773 0
M  V30 929 H 92.315 -3.28732 -3.87167 0
M  V30 930 H 92.245 -1.85485 -4.92852 0
M  V30 931 H 94.736 -1.70119 -3.37443 0
M  V30 932 H 95.049 -4.02584 -6.59656 0
M  V30 933 H 93.394 -3.61461 -5.93608 0
M  V30 934 H 96.585 -2.18213 -4.14126 0
M  V30 935 H 96.758 -3.24199 -5.61069 0
M  V30 936 N 90.1641 1.46063 -0.591896 0
M  V30 937 C 91.0961 2.28539 0.174001 0
M  V30 938 C 92.1091 1.39047 0.846753 0
M  V30 939 O 93.2981 1.63564 0.714774 0
M  V30 940 C 90.3981 3.14347 1.26645 0
M  V30 941 C 89.5711 4.32021 0.683856 0
M  V30 942 C 88.6301 4.99157 1.66518 0
M  V30 943 O 87.6561 5.56458 1.19763 0
M  V30 944 N 88.8581 4.97005 2.99943 0
M  V30 945 H 91.6231 2.94911 -0.533633 0
M  V30 946 H 89.1841 1.56077 -0.430294 0
M  V30 947 H 91.1761 3.56125 1.92242 0
M  V30 948 H 89.7461 2.49988 1.87682 0
M  V30 949 H 88.9661 3.93915 -0.1498 0
M  V30 950 H 90.2541 5.08059 0.274567 0
M  V30 951 H 89.6521 4.51714 3.40545 0
M  V30 952 H 88.2091 5.42696 3.61004 0
M  V30 953 N 91.6422 0.330177 1.54103 0
M  V30 954 C 93.0582 -0.0222371 1.59585 0
M  V30 955 C 93.2582 -1.49902 1.34654 0
M  V30 956 O 92.3142 -2.25592 1.13421 0
M  V30 957 C 93.6272 0.401932 2.98002 0
M  V30 958 C 95.1752 0.353145 3.11001 0
M  V30 959 C 95.6502 0.752576 4.51775 0
M  V30 960 N 97.1412 0.706239 4.57784 0
M  V30 961 C 97.8762 0.987417 5.64834 0
M  V30 962 N 97.3722 1.33607 6.79795 0
M  V30 963 N 99.1652 0.91254 5.54643 0
M  V30 964 H 91.3162 1.29228 1.68564 0
M  V30 965 H 93.5792 0.525906 0.78875 0
M  V30 966 H 93.2852 1.4311 3.21267 0
M  V30 967 H 93.1592 -0.229699 3.765 0
M  V30 968 H 95.5462 -0.666822 2.87467 0
M  V30 969 H 95.6272 1.0198 2.34593 0
M  V30 970 H 95.2712 1.77049 4.76042 0
M  V30 971 H 95.2012 0.0635409 5.26562 0
M  V30 972 H 97.6922 0.44889 3.75224 0
M  V30 973 H 98.0052 1.53582 7.57385 0
M  V30 974 H 96.3502 1.37439 6.81275 0
M  V30 975 H 99.5412 0.639601 4.6371 0
M  V30 976 H 99.7142 1.13503 6.37982 0
M  V30 977 N 93.1203 -1.57491 0.0584922 0
M  V30 978 C 94.3503 -1.9701 -0.622134 0
M  V30 979 C 94.7583 -0.935034 -1.6448 0
M  V30 980 O 94.1013 0.0882904 -1.83488 0
M  V30 981 C 94.1633 -3.32794 -1.35972 0
M  V30 982 C 93.8273 -4.54343 -0.492043 0
M  V30 983 C 94.8243 -5.19323 0.244901 0
M  V30 984 C 92.5093 -5.00534 -0.420821 0
M  V30 985 C 94.5033 -6.28835 1.04143 0
M  V30 986 C 92.1903 -6.09921 0.379389 0
M  V30 987 C 93.1883 -6.73933 1.10919 0
M  V30 988 O 92.8763 -7.81216 1.89623 0
M  V30 989 H 92.6083 -0.653127 -0.174359 0
M  V30 990 H 95.1623 -2.05029 0.123418 0
M  V30 991 H 93.3923 -3.21351 -2.15105 0
M  V30 992 H 95.0813 -3.5701 -1.93129 0
M  V30 993 H 95.8473 -4.8459 0.19939 0
M  V30 994 H 91.7263 -4.50496 -0.978474 0
M  V30 995 H 95.2703 -6.7873 1.61157 0
M  V30 996 H 91.1673 -6.44089 0.426512 0
M  V30 997 H 91.9353 -7.98029 1.81913 0
M  V30 998 N 94.5984 0.214957 -1.56127 0
M  V30 999 C 95.8464 0.936518 -1.79091 0
M  V30 1000 C 96.1674 1.84606 -0.628148 0
M  V30 1001 O 95.4374 1.92664 0.35462 0
M  V30 1002 H 94.0174 0.3488 -0.660566 0
M  V30 1003 H 96.6794 0.22523 -1.93594 0
M  V30 1004 H 95.7754 1.53943 -2.71492 0
M  V30 1005 N 96.0765 1.50051 0.48192 0
M  V30 1006 C 97.0235 1.68122 1.58125 0
M  V30 1007 C 97.9935 0.522545 1.57666 0
M  V30 1008 O 99.1785 0.751844 1.75362 0
M  V30 1009 C 96.3185 1.77142 2.96167 0
M  V30 1010 C 95.4315 3.0444 3.06497 0
M  V30 1011 C 94.5665 3.04321 4.35387 0
M  V30 1012 C 93.6055 4.26118 4.3942 0
M  V30 1013 N 92.7425 4.238 5.59766 0
M  V30 1014 H 97.5825 2.6198 1.42022 0
M  V30 1015 H 95.1195 1.29877 0.690687 0
M  V30 1016 H 97.0775 1.80352 3.76203 0
M  V30 1017 H 95.7075 0.867329 3.1093 0
M  V30 1018 H 94.7595 3.10752 2.19402 0
M  V30 1019 H 96.0715 3.94426 3.05336 0
M  V30 1020 H 95.2255 3.062 5.23762 0
M  V30 1021 H 93.9645 2.12147 4.39141 0
M  V30 1022 H 92.9695 4.24463 3.49444 0
M  V30 1023 H 94.1945 5.19507 4.37366 0
M  V30 1024 H 92.1405 3.34474 5.64326 0
M  V30 1025 H 92.0575 5.07542 5.60301 0
M  V30 1026 H 93.3255 4.2981 6.50295 0
M  V30 1027 N 97.5546 -0.734337 1.39446 0
M  V30 1028 C 98.9706 -1.03997 1.21065 0
M  V30 1029 C 99.1706 -2.01369 0.0727019 0
M  V30 1030 O 98.2266 -2.45856 -0.575426 0
M  V30 1031 C 99.5396 -1.60163 2.54496 0
M  V30 1032 C 101.088 -1.7224 2.61347 0
M  V30 1033 C 101.563 -2.31814 3.95002 0
M  V30 1034 N 103.054 -2.39223 3.96644 0
M  V30 1035 C 103.789 -2.86258 4.96834 0
M  V30 1036 N 103.285 -3.33184 6.07421 0
M  V30 1037 N 105.078 -2.85473 4.84213 0
M  V30 1038 H 97.2286 -0.0885624 2.12215 0
M  V30 1039 H 99.4916 -0.10191 0.942506 0
M  V30 1040 H 99.1976 -0.960811 3.38321 0
M  V30 1041 H 99.0716 -2.5896 2.74262 0
M  V30 1042 H 101.459 -2.35443 1.77906 0
M  V30 1043 H 101.54 -0.720939 2.4543 0
M  V30 1044 H 101.184 -1.69238 4.78875 0
M  V30 1045 H 101.114 -3.32638 4.08239 0
M  V30 1046 H 103.605 -2.06057 3.16779 0
M  V30 1047 H 103.918 -3.67586 6.7978 0
M  V30 1048 H 102.263 -3.31191 6.11013 0
M  V30 1049 H 105.454 -2.48136 3.96921 0
M  V30 1050 H 105.627 -3.21814 5.62441 0
M  V30 1051 N 99.0327 -1.24633 -0.964593 0
M  V30 1052 C 100.258 -1.11596 -1.74818 0
M  V30 1053 C 100.683 0.32723 -1.85232 0
M  V30 1054 O 100.041 1.23695 -1.32549 0
M  V30 1055 C 100.089 -1.76397 -3.1451 0
M  V30 1056 O 99.1927 -1.03685 -3.99153 0
M  V30 1057 H 98.5337 -0.390196 -0.537255 0
M  V30 1058 H 101.064 -1.65002 -1.20977 0
M  V30 1059 H 101.074 -1.8228 -3.65018 0
M  V30 1060 H 99.7487 -2.81401 -3.06246 0
M  V30 1061 H 98.3257 -1.05611 -3.57632 0
M  V30 1062 N 100.511 1.16574 -1.06058 0
M  V30 1063 C 101.736 1.91493 -0.796562 0
M  V30 1064 C 102.161 1.76773 0.642868 0
M  V30 1065 O 101.519 1.09142 1.44768 0
M  V30 1066 C 101.567 3.40293 -1.19303 0
M  V30 1067 O 100.671 4.11074 -0.330394 0
M  V30 1068 H 100.012 0.596678 -0.291326 0
M  V30 1069 H 102.542 1.47708 -1.41575 0
M  V30 1070 H 102.552 3.91057 -1.16356 0
M  V30 1071 H 101.227 3.50326 -2.24153 0
M  V30 1072 H 99.8038 3.70513 -0.421225 0
M  V30 1073 N 101.989 0.842826 1.3317 0
M  V30 1074 C 103.4 0.496651 1.79973 0
M  V30 1075 C 103.751 -0.984641 1.69703 0
M  V30 1076 O 102.876 -1.76743 1.24863 0
M  V30 1077 C 103.471 0.894727 3.26772 0
M  V30 1078 C 102.03 0.600629 3.71577 0
M  V30 1079 C 101.177 1.10091 2.5451 0
M  V30 1080 H 104.128 1.03116 1.20635 0
M  V30 1081 H 104.149 0.206347 3.7994 0
M  V30 1082 H 103.661 1.97287 3.34215 0
M  V30 1083 H 101.762 -0.467284 3.69658 0
M  V30 1084 H 101.875 1.15863 4.64879 0
M  V30 1085 H 100.239 0.52162 2.49301 0
M  V30 1086 H 101.022 2.18591 2.64713 0
M  V30 1087 N 103.467 -1.45747 0.599634 0
M  V30 1088 C 104.377 -2.34262 -0.125888 0
M  V30 1089 C 105.393 -1.50768 -0.868625 0
M  V30 1090 O 106.569 -1.83592 -0.828003 0
M  V30 1091 C 103.634 -3.28252 -1.11587 0
M  V30 1092 C 102.695 -4.27651 -0.375956 0
M  V30 1093 C 101.928 -5.1715 -1.31877 0
M  V30 1094 O 102.151 -5.09916 -2.55621 0
M  V30 1095 O 101.085 -5.96286 -0.820157 0
M  V30 1096 H 104.911 -2.97688 0.601315 0
M  V30 1097 H 102.496 -1.44999 0.359934 0
M  V30 1098 H 104.378 -3.86191 -1.68626 0
M  V30 1099 H 103.053 -2.67401 -1.82424 0
M  V30 1100 H 101.96 -3.7335 0.236698 0
M  V30 1101 H 103.293 -4.91334 0.29177 0
M  V30 1102 N 104.945 -0.338344 -1.53925 0
M  V30 1103 C 106.173 0.261298 -2.05243 0
M  V30 1104 C 106.588 1.44625 -1.21363 0
M  V30 1105 O 105.945 1.80811 -0.247736 0
M  V30 1106 C 105.996 0.681412 -3.5502 0
M  V30 1107 O 105.717 -0.456414 -4.35716 0
M  V30 1108 C 107.218 1.34232 -4.22489 0
M  V30 1109 H 104.438 0.0513685 -0.669031 0
M  V30 1110 H 106.982 -0.488822 -1.98572 0
M  V30 1111 H 105.137 1.38148 -3.61931 0
M  V30 1112 H 105.551 -0.122564 -5.24357 0
M  V30 1113 H 107.025 1.58708 -5.28693 0
M  V30 1114 H 107.502 2.29426 -3.74514 0
M  V30 1115 H 108.108 0.684424 -4.19757 0
M  V30 1116 N 106.423 1.57458 -0.0668435 0
M  V30 1117 C 107.353 2.15468 0.899764 0
M  V30 1118 C 108.334 1.08042 1.31381 0
M  V30 1119 O 109.519 1.36054 1.38574 0
M  V30 1120 C 106.649 2.71232 2.16911 0
M  V30 1121 C 105.603 3.83781 1.89463 0
M  V30 1122 C 104.929 4.26127 3.22986 0
M  V30 1123 C 106.229 5.08238 1.20381 0
M  V30 1124 H 107.923 2.96488 0.416529 0
M  V30 1125 H 105.469 1.4262 0.198908 0
M  V30 1126 H 107.422 3.10458 2.84945 0
M  V30 1127 H 106.146 1.87426 2.67468 0
M  V30 1128 H 104.805 3.45051 1.23836 0
M  V30 1129 H 104.453 3.39249 3.71374 0
M  V30 1130 H 104.153 5.01993 3.05413 0
M  V30 1131 H 105.677 4.67966 3.92225 0
M  V30 1132 H 107.091 5.44811 1.78475 0
M  V30 1133 H 105.488 5.89349 1.13083 0
M  V30 1134 H 106.558 4.84558 0.182153 0
M  V30 1135 N 107.901 -0.206675 1.56239 0
M  V30 1136 C 109.15 -0.926964 1.79138 0
M  V30 1137 C 109.463 -1.84901 0.638043 0
M  V30 1138 O 110.669 -2.60906 0.751033 0
M  V30 1139 C 109.125 -1.6986 3.17294 0
M  V30 1140 C 108.733 -0.821956 4.40395 0
M  V30 1141 C 110.477 -2.40922 3.4951 0
M  V30 1142 C 108.384 -1.59179 5.69575 0
M  V30 1143 H 107.314 -0.349864 0.667915 0
M  V30 1144 H 109.965 -0.180487 1.8261 0
M  V30 1145 H 108.347 -2.48853 3.08039 0
M  V30 1146 H 109.521 -0.0715019 4.60745 0
M  V30 1147 H 107.836 -0.222741 4.15804 0
M  V30 1148 H 110.433 -2.99047 4.43255 0
M  V30 1149 H 110.776 -3.14542 2.72707 0
M  V30 1150 H 111.309 -1.68905 3.60161 0
M  V30 1151 H 108.048 -0.898589 6.49312 0
M  V30 1152 H 107.568 -2.31648 5.53262 0
M  V30 1153 H 109.247 -2.14862 6.10281 0
M  V30 1154 N 109.379 -1.50304 -0.473955 0
M  V30 1155 C 110.604 -1.65175 -1.25427 0
M  V30 1156 C 111.029 -0.333673 -1.85117 0
M  V30 1157 O 110.387 0.702114 -1.67153 0
M  V30 1158 C 110.435 -2.74295 -2.34082 0
M  V30 1159 O 109.539 -2.35349 -3.38651 0
M  V30 1160 H 108.88 -0.551944 -0.369126 0
M  V30 1161 H 111.41 -1.96662 -0.564364 0
M  V30 1162 H 111.42 -2.97285 -2.79438 0
M  V30 1163 H 110.095 -3.69959 -1.90008 0
M  V30 1164 H 108.672 -2.22794 -2.99027 0
M  V30 1165 N 110.857 0.726932 -1.39834 0
M  V30 1166 C 112.134 1.47902 -1.28001 0
M  V30 1167 C 112.514 2.1083 0.106789 0
M  V30 1168 O 111.862 1.99242 1.11869 0
M  V30 1169 C 112.072 2.52392 -2.41038 0
M  V30 1170 C 113.42 3.18546 -2.80737 0
M  V30 1171 O 114.444 2.62708 -2.40547 0
M  V30 1172 O 113.303 4.19604 -3.50135 0
M  V30 1173 H 110.397 0.657163 -0.502062 0
M  V30 1174 H 112.943 0.760071 -1.51727 0
M  V30 1175 H 111.715 2.04329 -3.33715 0
M  V30 1176 H 111.338 3.31837 -2.19021 0
M  V30 1177 N 112.336 1.25143 0.95797 0
M  V30 1178 C 113.266 1.07711 2.07173 0
M  V30 1179 C 114.247 -0.0128462 1.70095 0
M  V30 1180 O 115.432 0.156061 1.93572 0
M  V30 1181 C 112.562 0.691503 3.40346 0
M  V30 1182 C 111.516 1.73132 3.9142 0
M  V30 1183 C 110.842 1.20049 5.21049 0
M  V30 1184 C 112.142 3.1294 4.1817 0
M  V30 1185 H 113.836 2.00873 2.22014 0
M  V30 1186 H 111.382 0.967191 1.06684 0
M  V30 1187 H 113.335 0.556505 4.17709 0
M  V30 1188 H 112.059 -0.275819 3.25433 0
M  V30 1189 H 110.718 1.8547 3.16222 0
M  V30 1190 H 110.366 0.223499 5.02503 0
M  V30 1191 H 110.066 1.89545 5.56189 0
M  V30 1192 H 111.59 1.07782 6.01012 0
M  V30 1193 H 113.004 3.03775 4.86203 0
M  V30 1194 H 111.401 3.79875 4.64559 0
M  V30 1195 H 112.471 3.6025 3.24573 0
M  V30 1196 N 113.814 -1.1601 1.06675 0
M  V30 1197 C 114.744 -2.22688 0.702307 0
M  V30 1198 C 115.725 -1.67306 -0.307032 0
M  V30 1199 O 116.91 -1.93352 -0.181305 0
M  V30 1200 C 114.04 -3.47178 0.092038 0
M  V30 1201 C 112.994 -4.15477 1.02777 0
M  V30 1202 C 112.32 -5.33963 0.28061 0
M  V30 1203 C 113.62 -4.66019 2.35846 0
M  V30 1204 H 115.314 -2.53429 1.59419 0
M  V30 1205 H 112.86 -1.21813 0.767961 0
M  V30 1206 H 114.813 -4.21037 -0.174814 0
M  V30 1207 H 113.537 -3.15749 -0.834877 0
M  V30 1208 H 112.196 -3.43549 1.27944 0
M  V30 1209 H 111.844 -4.98788 -0.649545 0
M  V30 1210 H 111.544 -5.806 0.904258 0
M  V30 1211 H 113.068 -6.10596 0.021396 0
M  V30 1212 H 114.482 -5.3144 2.15045 0
M  V30 1213 H 112.879 -5.23293 2.93743 0
M  V30 1214 H 113.949 -3.82023 2.98641 0
M  V30 1215 N 115.292 -0.849877 -1.32721 0
M  V30 1216 C 116.225 -0.235903 -2.26977 0
M  V30 1217 C 117.203 0.623355 -1.50177 0
M  V30 1218 O 118.387 0.581207 -1.79316 0
M  V30 1219 C 115.514 0.667712 -3.32053 0
M  V30 1220 C 114.56 -0.11753 -4.26338 0
M  V30 1221 S 115.393 -1.48277 -5.14562 0
M  V30 1222 C 116.549 -0.584741 -6.23163 0
M  V30 1223 H 116.782 -1.03495 -2.78704 0
M  V30 1224 H 114.315 -0.64724 -1.40179 0
M  V30 1225 H 116.273 1.18343 -3.93072 0
M  V30 1226 H 114.934 1.44052 -2.7912 0
M  V30 1227 H 114.127 0.57051 -5.00761 0
M  V30 1228 H 113.729 -0.564668 -3.69713 0
M  V30 1229 H 116.021 0.212968 -6.77165 0
M  V30 1230 H 116.964 -1.29947 -6.96074 0
M  V30 1231 H 117.372 -0.161202 -5.6427 0
M  V30 1232 N 116.77 1.45427 -0.607355 0
M  V30 1233 C 118.186 1.57283 -0.270985 0
M  V30 1234 C 118.386 1.59875 1.22647 0
M  V30 1235 O 117.442 1.52893 2.00948 0
M  V30 1236 C 118.755 2.85566 -0.941952 0
M  V30 1237 C 120.303 2.9924 -0.917849 0
M  V30 1238 C 120.778 4.30293 -1.56882 0
M  V30 1239 N 122.269 4.37051 -1.5343 0
M  V30 1240 C 123.004 5.37123 -2.00715 0
M  V30 1241 N 122.5 6.43734 -2.56084 0
M  V30 1242 N 124.293 5.28479 -1.91484 0
M  V30 1243 H 116.444 1.41988 -1.57966 0
M  V30 1244 H 118.707 0.67885 -0.661715 0
M  V30 1245 H 118.413 2.8955 -1.99633 0
M  V30 1246 H 118.287 3.74322 -0.465096 0
M  V30 1247 H 120.674 2.94822 0.127984 0
M  V30 1248 H 120.755 2.11895 -1.43297 0
M  V30 1249 H 120.399 4.35469 -2.61398 0
M  V30 1250 H 120.329 5.16454 -1.02873 0
M  V30 1251 H 122.82 3.60615 -1.12982 0
M  V30 1252 H 123.133 7.16341 -2.89958 0
M  V30 1253 H 121.478 6.44485 -2.60122 0
M  V30 1254 H 124.669 4.44098 -1.47967 0
M  V30 1255 H 124.842 6.0632 -2.28648 0
M  V30 1256 N 118.248 0.346503 1.53744 0
M  V30 1257 C 119.158 -0.517293 2.28826 0
M  V30 1258 C 120.174 -1.10935 1.3405 0
M  V30 1259 O 121.35 -1.1244 1.6709 0
M  V30 1260 C 118.415 -1.65098 3.04866 0
M  V30 1261 C 117.476 -1.0884 4.15274 0
M  V30 1262 C 116.709 -2.16806 4.87679 0
M  V30 1263 O 116.932 -3.3758 4.59778 0
M  V30 1264 O 115.866 -1.80934 5.74061 0
M  V30 1265 H 119.692 0.0931396 3.03557 0
M  V30 1266 H 117.277 0.111458 1.48984 0
M  V30 1267 H 119.159 -2.31053 3.5241 0
M  V30 1268 H 117.834 -2.24717 2.32989 0
M  V30 1269 H 116.741 -0.3933 3.72027 0
M  V30 1270 H 118.074 -0.537036 4.89261 0
M  V30 1271 N 119.726 -1.57421 0.075193 0
M  V30 1272 C 120.951 -1.98364 -0.605515 0
M  V30 1273 C 121.376 -0.953383 -1.62149 0
M  V30 1274 O 120.734 0.0806053 -1.81121 0
M  V30 1275 C 120.782 -3.38332 -1.24756 0
M  V30 1276 O 119.886 -3.37959 -2.36342 0
M  V30 1277 H 119.227 -0.645553 -0.155428 0
M  V30 1278 H 121.757 -2.04044 0.150714 0
M  V30 1279 H 121.767 -3.75591 -1.5936 0
M  V30 1280 H 120.442 -4.12846 -0.503129 0
M  V30 1281 H 119.019 -3.12474 -2.03506 0
M  V30 1282 N 121.204 0.198386 -1.56346 0
M  V30 1283 C 122.432 0.935572 -1.84539 0
M  V30 1284 C 122.847 1.76989 -0.657281 0
M  V30 1285 O 122.204 1.78626 0.374043 0
M  V30 1286 C 122.255 1.8344 -3.11499 0
M  V30 1287 O 121.976 1.03377 -4.25728 0
M  V30 1288 C 123.477 2.68355 -3.52846 0
M  V30 1289 H 120.697 0.273126 -0.612897 0
M  V30 1290 H 123.241 0.20663 -2.03453 0
M  V30 1291 H 121.396 2.51701 -2.94492 0
M  V30 1292 H 121.81 1.64599 -4.98003 0
M  V30 1293 H 123.284 3.27085 -4.44657 0
M  V30 1294 H 123.761 3.41901 -2.75681 0
M  V30 1295 H 124.367 2.05471 -3.72373 0
M  V30 1296 N 122.682 1.50554 0.465978 0
M  V30 1297 C 123.592 1.72585 1.58907 0
M  V30 1298 C 124.608 0.60911 1.6299 0
M  V30 1299 O 125.784 0.88804 1.80765 0
M  V30 1300 C 122.849 1.81995 2.95091 0
M  V30 1301 C 121.91 3.05751 3.01355 0
M  V30 1302 C 121.143 3.14702 4.31043 0
M  V30 1303 O 121.366 2.30313 5.21835 0
M  V30 1304 O 120.3 4.07468 4.43005 0
M  V30 1305 H 124.126 2.67799 1.43239 0
M  V30 1306 H 121.711 1.34711 0.646013 0
M  V30 1307 H 123.593 1.90335 3.75966 0
M  V30 1308 H 122.268 0.899659 3.10947 0
M  V30 1309 H 121.175 3.02908 2.19539 0
M  V30 1310 H 122.508 3.97375 2.90437 0
M  V30 1311 N 124.16 -0.719506 1.40217 0
M  V30 1312 C 125.108 -1.85493 1.40339 0
M  V30 1313 C 126.102 -1.66995 0.284415 0
M  V30 1314 O 127.308 -1.74148 0.455252 0
M  V30 1315 H 123.683 -0.610857 0.438586 0
M  V30 1316 H 125.654 -1.82506 2.36081 0
M  V30 1317 C 124.403 -3.23321 1.27901 0
M  V30 1318 H 123.726 -3.38159 2.1328 0
M  V30 1319 H 125.166 -4.02914 1.32045 0
M  V30 1320 C 123.625 -3.36898 -0.0111355 0
M  V30 1321 O 124.155 -3.89674 -0.975538 0
M  V30 1322 N 122.361 -2.90492 -0.0793393 0
M  V30 1323 H 121.908 -2.47731 0.706183 0
M  V30 1324 H 121.866 -2.99955 -0.942038 0
M  V30 1325 N 125.638 -1.25649 -0.95132 0
M  V30 1326 C 126.884 -1.10757 -1.69884 0
M  V30 1327 C 127.217 0.350061 -1.91019 0
M  V30 1328 O 126.492 1.25783 -1.48354 0
M  V30 1329 C 126.775 -1.86606 -3.07978 0
M  V30 1330 C 126.628 -3.40217 -2.94232 0
M  V30 1331 C 127.947 -1.65182 -4.07925 0
M  V30 1332 H 125.066 -0.40374 -0.616574 0
M  V30 1333 H 127.708 -1.54521 -1.10558 0
M  V30 1334 H 125.858 -1.49409 -3.58621 0
M  V30 1335 H 127.53 -3.87108 -2.50889 0
M  V30 1336 H 125.773 -3.67759 -2.30078 0
M  V30 1337 H 126.444 -3.88505 -3.92133 0
M  V30 1338 H 128.92 -1.9757 -3.66204 0
M  V30 1339 H 127.796 -2.20683 -5.02583 0
M  V30 1340 H 128.057 -0.593933 -4.38092 0
M  V30 1341 N 127.117 1.15442 -1.07289 0
M  V30 1342 C 128.528 1.67803 -0.818475 0
M  V30 1343 C 128.879 1.8489 0.656507 0
M  V30 1344 O 128.004 1.55176 1.50829 0
M  V30 1345 C 128.599 3.04805 -1.47917 0
M  V30 1346 C 127.158 3.54245 -1.27229 0
M  V30 1347 C 126.305 2.29986 -1.54925 0
M  V30 1348 H 129.256 0.996646 -1.23502 0
M  V30 1349 H 129.277 3.69702 -0.90005 0
M  V30 1350 H 128.789 2.92336 -2.55267 0
M  V30 1351 H 126.89 3.71956 -0.21899 0
M  V30 1352 H 127.003 4.35723 -1.99203 0
M  V30 1353 H 125.367 2.35496 -0.970242 0
M  V30 1354 H 126.15 2.20105 -2.63455 0
M  V30 1355 N 128.595 0.856903 1.32268 0
M  V30 1356 C 130.011 0.547061 1.49931 0
M  V30 1357 C 130.211 -0.921781 1.7918 0
M  V30 1358 O 129.267 -1.70469 1.8627 0
M  V30 1359 C 130.58 1.43599 2.64196 0
M  V30 1360 C 132.128 1.43665 2.78081 0
M  V30 1361 C 132.603 2.31085 3.95428 0
M  V30 1362 N 134.094 2.28893 4.02694 0
M  V30 1363 C 134.829 2.93262 4.92732 0
M  V30 1364 N 134.325 3.66751 5.87763 0
M  V30 1365 N 136.118 2.82638 4.85873 0
M  V30 1366 H 128.269 1.8075 1.11549 0
M  V30 1367 H 130.532 0.772144 0.549997 0
M  V30 1368 H 130.238 2.48058 2.49319 0
M  V30 1369 H 130.112 1.12502 3.60032 0
M  V30 1370 H 132.499 0.399701 2.92381 0
M  V30 1371 H 132.58 1.7878 1.82952 0
M  V30 1372 H 132.224 3.34849 3.81888 0
M  V30 1373 H 132.154 1.93302 4.89839 0
M  V30 1374 H 134.645 1.75466 3.34694 0
M  V30 1375 H 134.958 4.13027 6.53168 0
M  V30 1376 H 133.303 3.70859 5.87783 0
M  V30 1377 H 136.494 2.24774 4.10602 0
M  V30 1378 H 136.667 3.33084 5.55841 0
M  V30 1379 N 130.073 -1.45103 0.615059 0
M  V30 1380 C 131.301 -2.06553 0.11977 0
M  V30 1381 C 131.716 -1.45842 -1.19898 0
M  V30 1382 O 131.073 -0.575325 -1.73194 0
M  V30 1383 C 131.124 -3.61495 -0.018364 0
M  V30 1384 O 130.845 -4.19942 1.24822 0
M  V30 1385 C 132.346 -4.39947 -0.544237 0
M  V30 1386 H 129.566 -0.667096 0.0722739 0
M  V30 1387 H 132.11 -1.8623 0.84491 0
M  V30 1388 H 130.265 -3.81135 -0.693865 0
M  V30 1389 H 130.679 -5.13204 1.0827 0
M  V30 1390 H 132.153 -5.48838 -0.589953 0
M  V30 1391 H 132.63 -4.10255 -1.56805 0
M  V30 1392 H 133.236 -4.25188 0.0974703 0
M  V30 1393 N 131.551 -0.354651 -1.53558 0
M  V30 1394 C 132.967 -0.00315426 -1.596 0
M  V30 1395 C 133.167 1.47741 -1.37021 0
M  V30 1396 O 132.223 2.23759 -1.16996 0
M  V30 1397 C 133.536 -0.44929 -2.97325 0
M  V30 1398 C 135.084 -0.402578 -3.104 0
M  V30 1399 C 135.559 -0.824355 -4.5052 0
M  V30 1400 N 137.05 -0.778979 -4.56603 0
M  V30 1401 C 137.785 -1.07715 -5.63192 0
M  V30 1402 N 137.281 -1.44405 -6.77583 0
M  V30 1403 N 139.074 -1.00066 -5.53121 0
M  V30 1404 H 131.225 -1.31893 -1.66487 0
M  V30 1405 H 133.488 -0.538388 -0.780284 0
M  V30 1406 H 133.194 -1.48202 -3.1895 0
M  V30 1407 H 133.068 0.169772 -3.76818 0
M  V30 1408 H 135.455 0.621004 -2.88492 0
M  V30 1409 H 135.536 -1.05699 -2.32941 0
M  V30 1410 H 135.18 -1.846 -4.73165 0
M  V30 1411 H 135.11 -0.147304 -5.26394 0
M  V30 1412 H 137.601 -0.508528 -3.74463 0
M  V30 1413 H 137.914 -1.65612 -7.54846 0
M  V30 1414 H 136.259 -1.4826 -6.79002 0
M  V30 1415 H 139.45 -0.713293 -4.62633 0
M  V30 1416 H 139.623 -1.23638 -6.36096 0
M  V30 1417 N 133.029 1.57378 -0.0835403 0
M  V30 1418 C 133.959 2.1641 0.87686 0
M  V30 1419 C 134.94 1.09429 1.30228 0
M  V30 1420 O 136.125 1.37516 1.37124 0
M  V30 1421 C 133.255 2.73517 2.14022 0
M  V30 1422 C 132.209 3.85769 1.85381 0
M  V30 1423 C 131.535 4.29529 3.18448 0
M  V30 1424 C 132.835 5.09486 1.14984 0
M  V30 1425 H 134.529 2.96914 0.385059 0
M  V30 1426 H 132.075 1.42823 0.18377 0
M  V30 1427 H 134.028 3.13463 2.81636 0
M  V30 1428 H 132.752 1.90252 2.65465 0
M  V30 1429 H 131.411 3.46345 1.20169 0
M  V30 1430 H 131.059 3.43169 3.67755 0
M  V30 1431 H 130.759 5.05204 3.00071 0
M  V30 1432 H 132.283 4.72099 3.8724 0
M  V30 1433 H 133.697 5.46674 1.72687 0
M  V30 1434 H 132.094 5.90515 1.06826 0
M  V30 1435 H 133.164 4.84724 0.130749 0
M  V30 1436 N 134.507 -0.190092 1.56449 0
M  V30 1437 C 135.417 -1.25591 1.98152 0
M  V30 1438 C 136.433 -1.49519 0.889944 0
M  V30 1439 O 137.609 -1.62036 1.19609 0
M  V30 1440 C 134.674 -2.57916 2.3169 0
M  V30 1441 C 133.735 -2.42015 3.5458 0
M  V30 1442 C 132.968 -3.6803 3.8651 0
M  V30 1443 O 133.191 -4.72413 3.1966 0
M  V30 1444 O 132.125 -3.6326 4.79923 0
M  V30 1445 H 135.951 -0.931988 2.89046 0
M  V30 1446 H 133.536 -0.395488 1.4407 0
M  V30 1447 H 135.418 -3.36008 2.54316 0
M  V30 1448 H 134.093 -2.89925 1.43963 0
M  V30 1449 H 133 -1.62017 3.37196 0
M  V30 1450 H 134.333 -2.14937 4.4279 0
M  V30 1451 N 135.985 -1.50799 -0.457987 0
M  V30 1452 C 137.262 -1.52968 -1.21902 0
M  V30 1453 C 137.642 -0.281906 -2.09209 0
M  V30 1454 O 136.99 0.734076 -2.16388 0
M  V30 1455 C 137.2 -2.8326 -2.03875 0
M  V30 1456 C 138.548 -3.34425 -2.6162 0
M  V30 1457 O 139.572 -2.8467 -2.14106 0
M  V30 1458 O 138.431 -4.21188 -3.48228 0
M  V30 1459 H 135.525 -0.614129 -0.553873 0
M  V30 1460 H 138.071 -1.63098 -0.468739 0
M  V30 1461 H 136.843 -3.65543 -1.39621 0
M  V30 1462 H 136.466 -2.76195 -2.8601 0
M  V30 1463 N 137.463 0.71206 -1.40597 0
M  V30 1464 C 138.874 1.29135 -1.34837 0
M  V30 1465 C 139.225 1.96186 -0.0235395 0
M  V30 1466 O 138.35 1.97768 0.878444 0
M  V30 1467 C 138.945 2.34827 -2.44217 0
M  V30 1468 C 137.504 2.88371 -2.41907 0
M  V30 1469 C 136.651 1.62202 -2.24913 0
M  V30 1470 H 139.602 0.507944 -1.50352 0
M  V30 1471 H 139.623 3.15749 -2.12327 0
M  V30 1472 H 139.135 1.85996 -3.40627 0
M  V30 1473 H 137.236 3.41422 -1.49204 0
M  V30 1474 H 137.349 3.39925 -3.37621 0
M  V30 1475 H 135.713 1.874 -1.72492 0
M  V30 1476 H 136.496 1.15391 -3.23326 0
M  V30 1477 N 138.941 1.26152 0.944643 0
M  V30 1478 C 139.904 1.07474 2.0244 0
M  V30 1479 C 140.904 0.0242064 1.60782 0
M  V30 1480 O 142.094 0.267302 1.72137 0
M  V30 1481 C 139.226 0.633956 3.34953 0
M  V30 1482 H 140.419 2.03336 2.20442 0
M  V30 1483 H 137.972 1.087 1.12312 0
M  V30 1484 H 138.707 -0.326811 3.22649 0
M  V30 1485 H 138.492 1.39247 3.66542 0
M  V30 1486 H 139.982 0.52501 4.14287 0
M  V30 1487 N 140.419 -1.14872 1.07899 0
M  V30 1488 C 141.352 -2.18794 0.64841 0
M  V30 1489 C 142.33 -1.59065 -0.337189 0
M  V30 1490 O 143.514 -1.86936 -0.242284 0
M  V30 1491 C 140.641 -3.38667 -0.0470417 0
M  V30 1492 C 139.687 -4.16942 0.897884 0
M  V30 1493 S 140.52 -4.78615 2.40183 0
M  V30 1494 C 141.676 -6.0185 1.71834 0
M  V30 1495 H 141.909 -2.5498 1.52881 0
M  V30 1496 H 139.442 -1.25922 0.893484 0
M  V30 1497 H 141.4 -4.08113 -0.442027 0
M  V30 1498 H 140.061 -3.00814 -0.903861 0
M  V30 1499 H 139.254 -5.02726 0.358096 0
M  V30 1500 H 138.856 -3.53073 1.23352 0
M  V30 1501 H 141.148 -6.69574 1.03328 0
M  V30 1502 H 142.091 -6.60408 2.55473 0
M  V30 1503 H 142.499 -5.5173 1.19392 0
M  V30 1504 N 141.898 -0.863906 -1.31812 0
M  V30 1505 C 143.144 -0.481841 -1.9761 0
M  V30 1506 C 143.499 0.954048 -1.6708 0
M  V30 1507 O 142.792 1.66182 -0.953624 0
M  V30 1508 C 142.986 -0.668547 -3.51091 0
M  V30 1509 C 142.815 -2.12103 -3.96538 0
M  V30 1510 C 141.585 -2.76141 -4.23171 0
M  V30 1511 C 143.783 -3.09265 -4.10925 0
M  V30 1512 N 141.765 -4.12205 -4.54929 0
M  V30 1513 C 143.136 -4.30341 -4.46326 0
M  V30 1514 C 145.191 -3.05337 -3.93286 0
M  V30 1515 C 143.894 -5.48 -4.65928 0
M  V30 1516 C 145.92 -4.22248 -4.14078 0
M  V30 1517 C 145.282 -5.42085 -4.49804 0
M  V30 1518 H 141.381 -0.225238 -0.74886 0
M  V30 1519 H 143.965 -1.11723 -1.59455 0
M  V30 1520 H 142.136 -0.0627898 -3.88349 0
M  V30 1521 H 143.868 -0.255467 -4.03893 0
M  V30 1522 H 140.623 -2.27125 -4.15585 0
M  V30 1523 H 141.047 -4.82416 -4.74978 0
M  V30 1524 H 145.689 -2.138 -3.64759 0
M  V30 1525 H 143.407 -6.40059 -4.93305 0
M  V30 1526 H 146.993 -4.20654 -4.01922 0
M  V30 1527 H 145.873 -6.31044 -4.65567 0
M  V30 1528 O 143.415 1.42347 -0.762857 0
M  V30 1529 H 144.106 1.90974 -0.323817 0
M  V30 END ATOM
M  V30 BEGIN BOND
M  V30 END BOND
M  V30 END CTAB
M  END
$$$$
