drugbank_target|P01589 Interleukin-2 receptor subunit alpha (DB00004; DB00041; DB00074; DB00111)
 OpenBabel12092119363D

  0  0  0     0  0            999 V3000
M  V30 BEGIN CTAB
M  V30 COUNTS 4236 4285 0 0 0
M  V30 BEGIN ATOM
M  V30 1 H -0.908 1.98254 -0.117106 0
M  V30 2 N 0 1.576 0 0
M  V30 3 C 0.933 2.03868 1.02534 0
M  V30 4 C 1.911 0.928543 1.3348 0
M  V30 5 O 3.095 1.19667 1.45644 0
M  V30 6 C 0.222 2.43627 2.35294 0
M  V30 7 C -0.732 3.65373 2.2001 0
M  V30 8 S 0.101 5.13292 1.52614 0
M  V30 9 C 1.257 5.56322 2.86805 0
M  V30 10 H 1.49 2.90518 0.631377 0
M  V30 11 H -0.977 1.52953 0.210867 0
M  V30 12 H 0.981 2.67203 3.11629 0
M  V30 13 H -0.358 1.57376 2.7183 0
M  V30 14 H -1.165 3.90944 3.18086 0
M  V30 15 H -1.563 3.418 1.51819 0
M  V30 16 H 0.729 5.58782 3.83104 0
M  V30 17 H 1.672 6.56266 2.65933 0
M  V30 18 H 2.08 4.83886 2.90714 0
M  V30 19 N 1.4781 -0.272755 1.55222 0
M  V30 20 C 2.7551 -1.02562 1.66555 0
M  V30 21 C 3.1351 -2.04282 0.532189 0
M  V30 22 O 2.4831 -2.23662 -0.467717 0
M  V30 23 C 2.6931 -1.6822 3.05782 0
M  V30 24 C 4.0411 -2.19373 3.63539 0
M  V30 25 O 5.0651 -1.78206 3.08417 0
M  V30 26 O 3.9241 -2.94883 4.60115 0
M  V30 27 H 1.0181 -0.475755 0.676451 0
M  V30 28 H 3.5641 -0.268593 1.67561 0
M  V30 29 H 2.3361 -0.945112 3.79715 0
M  V30 30 H 1.9591 -2.50609 3.08676 0
M  V30 31 N 2.9562 -1.48159 -0.537278 0
M  V30 32 C 4.1812 -1.59707 -1.32319 0
M  V30 33 C 4.6062 -0.254859 -1.86365 0
M  V30 34 O 3.9642 0.772378 -1.64024 0
M  V30 35 C 4.0122 -2.6412 -2.45505 0
M  V30 36 O 3.1162 -2.20774 -3.48328 0
M  V30 37 H 2.4572 -0.535791 -0.392204 0
M  V30 38 H 4.9872 -1.94092 -0.647268 0
M  V30 39 H 4.9972 -2.85166 -2.91795 0
M  V30 40 H 3.6722 -3.61567 -2.05528 0
M  V30 41 H 2.2492 -2.09911 -3.08207 0
M  V30 42 N 4.4343 0.785586 -1.36625 0
M  V30 43 C 5.6643 1.5722 -1.34036 0
M  V30 44 C 6.0723 1.89033 0.0795062 0
M  V30 45 O 5.4153 1.50881 1.04789 0
M  V30 46 C 5.4773 2.91759 -2.10041 0
M  V30 47 C 5.1413 2.82654 -3.59104 0
M  V30 48 C 6.1383 2.54634 -4.53274 0
M  V30 49 C 3.8233 3.01111 -4.02042 0
M  V30 50 C 5.8173 2.45177 -5.88359 0
M  V30 51 C 3.5043 2.91276 -5.37216 0
M  V30 52 C 4.5023 2.63348 -6.30188 0
M  V30 53 O 4.1903 2.53514 -7.6288 0
M  V30 54 H 3.9223 0.494177 -0.461265 0
M  V30 55 H 6.4763 0.982632 -1.8037 0
M  V30 56 H 4.7063 3.52781 -1.58375 0
M  V30 57 H 6.3953 3.53059 -2.00261 0
M  V30 58 H 7.1613 2.40073 -4.21414 0
M  V30 59 H 3.0403 3.21854 -3.30047 0
M  V30 60 H 6.5843 2.23299 -6.60896 0
M  V30 61 H 2.4813 3.054 -5.68684 0
M  V30 62 H 3.2493 2.68967 -7.73045 0
M  V30 63 N 5.9124 1.20967 1.01018 0
M  V30 64 C 6.8424 0.988272 2.11555 0
M  V30 65 C 7.8234 -0.0849778 1.69888 0
M  V30 66 O 9.0084 0.0738202 1.9406 0
M  V30 67 C 6.1384 0.546528 3.42973 0
M  V30 68 C 5.0924 1.56375 3.9841 0
M  V30 69 C 4.4184 0.97842 5.25672 0
M  V30 70 C 5.7184 2.94922 4.31066 0
M  V30 71 H 7.4124 1.91276 2.30334 0
M  V30 72 H 4.9584 0.921073 1.1069 0
M  V30 73 H 6.9114 0.378839 4.19694 0
M  V30 74 H 5.6354 -0.413598 3.23971 0
M  V30 75 H 4.2944 1.71891 3.23804 0
M  V30 76 H 3.9424 0.0101688 5.02999 0
M  V30 77 H 3.6424 1.65784 5.63728 0
M  V30 78 H 5.1664 0.821939 6.05043 0
M  V30 79 H 6.5804 2.8288 4.9865 0
M  V30 80 H 4.9774 3.5983 4.80253 0
M  V30 81 H 6.0474 3.4616 3.39561 0
M  V30 82 N 7.3905 -1.2043 1.01659 0
M  V30 83 C 8.3205 -2.25466 0.607226 0
M  V30 84 C 9.3015 -1.65853 -0.377716 0
M  V30 85 O 10.4865 -1.92409 -0.263149 0
M  V30 86 C 7.6165 -3.47256 -0.0552949 0
M  V30 87 C 6.5705 -4.19462 0.850632 0
M  V30 88 C 5.8965 -5.34673 0.0538859 0
M  V30 89 C 7.1965 -4.75603 2.15868 0
M  V30 90 H 8.8905 -2.59962 1.48526 0
M  V30 91 H 6.4365 -1.2496 0.715605 0
M  V30 92 H 8.3895 -4.19917 -0.353233 0
M  V30 93 H 7.1135 -3.11924 -0.968045 0
M  V30 94 H 5.7725 -3.48667 1.13257 0
M  V30 95 H 5.4205 -4.95585 -0.860514 0
M  V30 96 H 5.1205 -5.83913 0.657192 0
M  V30 97 H 6.6445 -6.10138 -0.237598 0
M  V30 98 H 8.0585 -5.40083 1.92311 0
M  V30 99 H 6.4555 -5.3528 2.71284 0
M  V30 100 H 7.5255 -3.94346 2.82169 0
M  V30 101 N 8.8686 -0.792821 -1.36206 0
M  V30 102 C 9.8016 -0.139422 -2.27774 0
M  V30 103 C 10.7796 0.68649 -1.47398 0
M  V30 104 O 11.9636 0.656738 -1.7669 0
M  V30 105 C 9.0906 0.807947 -3.28922 0
M  V30 106 C 8.1366 0.0633999 -4.26453 0
M  V30 107 S 8.9696 -1.26319 -5.20388 0
M  V30 108 C 10.1256 -0.31991 -6.25082 0
M  V30 109 H 10.3586 -0.915809 -2.82843 0
M  V30 110 H 7.8916 -0.587203 -1.42798 0
M  V30 111 H 9.8496 1.34908 -3.87699 0
M  V30 112 H 8.5106 1.55761 -2.72759 0
M  V30 113 H 7.7036 0.782386 -4.9789 0
M  V30 114 H 7.3056 -0.407352 -3.71775 0
M  V30 115 H 9.5976 0.499985 -6.75653 0
M  V30 116 H 10.5406 -1.00307 -7.00959 0
M  V30 117 H 10.9486 0.0782694 -5.64446 0
M  V30 118 N 10.3467 1.47872 -0.545128 0
M  V30 119 C 11.5927 2.03385 -0.0247951 0
M  V30 120 C 11.9477 1.41325 1.30556 0
M  V30 121 O 11.2407 0.5552 1.8338 0
M  V30 122 C 11.4347 3.57131 0.13867 0
M  V30 123 C 11.2637 4.34097 -1.17429 0
M  V30 124 C 10.0337 4.74458 -1.73831 0
M  V30 125 C 12.2317 4.6998 -2.08861 0
M  V30 126 N 10.2137 5.3602 -2.99258 0
M  V30 127 C 11.5847 5.31719 -3.18866 0
M  V30 128 C 13.6397 4.5191 -2.09003 0
M  V30 129 C 12.3427 5.77295 -4.29096 0
M  V30 130 C 14.3687 4.98477 -3.18237 0
M  V30 131 C 13.7307 5.60253 -4.26961 0
M  V30 132 H 9.8297 0.780339 -0.050943 0
M  V30 133 H 12.4137 1.80507 -0.729753 0
M  V30 134 H 10.5847 3.79802 0.812733 0
M  V30 135 H 12.3167 3.99282 0.659976 0
M  V30 136 H 9.0717 4.56037 -1.2778 0
M  V30 137 H 9.4957 5.71355 -3.63157 0
M  V30 138 H 14.1377 4.03516 -1.26234 0
M  V30 139 H 11.8557 6.24687 -5.12633 0
M  V30 140 H 15.4417 4.86274 -3.1942 0
M  V30 141 H 14.3217 5.95631 -5.10091 0
M  V30 142 N 11.8248 0.280983 1.55075 0
M  V30 143 C 13.0728 -0.333455 1.9933 0
M  V30 144 C 13.3938 -1.55937 1.17085 0
M  V30 145 O 12.6638 -1.94143 0.261805 0
M  V30 146 H 11.2438 -0.126197 0.736263 0
M  V30 147 H 13.9058 0.387678 1.91005 0
M  V30 148 H 13.0018 -0.619292 3.05894 0
M  V30 149 N 13.3029 -1.57598 0.00835791 0
M  V30 150 C 14.2329 -2.1198 -0.979113 0
M  V30 151 C 15.2139 -1.03091 -1.35301 0
M  V30 152 O 16.3989 -1.30818 -1.43528 0
M  V30 153 C 13.5289 -2.62995 -2.26828 0
M  V30 154 C 12.4829 -3.76485 -2.03576 0
M  V30 155 C 11.8089 -4.13846 -3.38579 0
M  V30 156 C 13.1089 -5.0342 -1.39161 0
M  V30 157 H 14.8029 -2.94738 -0.526281 0
M  V30 158 H 12.3489 -1.41783 -0.251704 0
M  V30 159 H 14.3019 -2.99669 -2.96271 0
M  V30 160 H 13.0259 -1.7737 -2.7424 0
M  V30 161 H 11.6849 -3.40217 -1.36557 0
M  V30 162 H 11.3329 -3.25232 -3.83709 0
M  V30 163 H 11.0329 -4.90312 -3.23834 0
M  V30 164 H 12.5569 -4.53086 -4.09323 0
M  V30 165 H 13.9709 -5.37812 -1.98573 0
M  V30 166 H 12.3679 -5.84746 -1.34878 0
M  V30 167 H 13.4379 -4.83548 -0.361868 0
M  V30 168 N 14.781 0.264519 -1.55364 0
M  V30 169 C 15.711 1.33121 -1.91836 0
M  V30 170 C 16.692 1.51101 -0.781192 0
M  V30 171 O 17.877 1.64003 -1.04003 0
M  V30 172 C 15.007 2.68921 -2.19769 0
M  V30 173 C 13.961 2.65661 -3.35571 0
M  V30 174 C 13.287 4.05093 -3.49004 0
M  V30 175 C 14.587 2.24187 -4.71739 0
M  V30 176 H 16.281 1.02844 -2.81182 0
M  V30 177 H 13.827 0.493286 -1.35287 0
M  V30 178 H 15.78 3.43663 -2.43872 0
M  V30 179 H 14.504 3.00799 -1.27231 0
M  V30 180 H 13.163 1.93377 -3.1145 0
M  V30 181 H 12.811 4.34206 -2.53917 0
M  V30 182 H 12.511 4.03804 -4.26868 0
M  V30 183 H 14.035 4.81561 -3.75408 0
M  V30 184 H 15.449 2.88654 -4.9533 0
M  V30 185 H 13.846 2.34044 -5.52579 0
M  V30 186 H 14.916 1.19327 -4.69988 0
M  V30 187 N 16.2591 1.48442 0.529413 0
M  V30 188 C 17.4871 1.60151 1.30994 0
M  V30 189 C 17.9021 0.261985 1.86973 0
M  V30 190 O 17.2591 -0.748805 1.66431 0
M  V30 191 C 17.3101 2.64854 2.46038 0
M  V30 192 O 17.0311 3.93608 1.92365 0
M  V30 193 C 18.5321 2.87007 3.37849 0
M  V30 194 H 15.7521 0.539971 0.398338 0
M  V30 195 H 18.2961 1.94273 0.638597 0
M  V30 196 H 16.4511 2.33589 3.09055 0
M  V30 197 H 16.8651 4.51055 2.67675 0
M  V30 198 H 18.3391 3.64068 4.14919 0
M  V30 199 H 18.8161 1.95852 3.93114 0
M  V30 200 H 19.4221 3.19579 2.80623 0
M  V30 201 N 17.7372 -0.778329 1.37039 0
M  V30 202 C 18.9842 -1.53665 1.31884 0
M  V30 203 C 19.3122 -1.9425 -0.0986303 0
M  V30 204 O 18.5672 -1.63832 -1.07041 0
M  V30 205 C 18.8662 -2.81845 2.19768 0
M  V30 206 C 18.5322 -2.60345 3.68146 0
M  V30 207 C 17.1942 -2.5419 4.08584 0
M  V30 208 C 19.5462 -2.40923 4.62175 0
M  V30 209 C 16.8742 -2.26594 5.41177 0
M  V30 210 C 19.2262 -2.14852 5.94997 0
M  V30 211 C 17.8902 -2.07137 6.34547 0
M  V30 212 H 17.1602 -0.562299 0.482598 0
M  V30 213 H 19.8072 -0.897069 1.69189 0
M  V30 214 H 18.1122 -3.50328 1.75436 0
M  V30 215 H 19.8092 -3.39692 2.13097 0
M  V30 216 H 16.3992 -2.65996 3.36072 0
M  V30 217 H 20.5832 -2.44673 4.31797 0
M  V30 218 H 15.8392 -2.19111 5.70789 0
M  V30 219 H 20.0132 -1.98822 6.67415 0
M  V30 220 H 17.6402 -1.85518 7.37216 0
M  V30 221 N 19.2153 -1.21501 -1.00376 0
M  V30 222 C 20.4643 -1.02718 -1.73586 0
M  V30 223 C 20.7773 0.439589 -1.90596 0
M  V30 224 O 21.9833 0.746848 -2.61026 0
M  V30 225 C 20.4393 -1.78929 -3.1227 0
M  V30 226 C 20.0473 -3.29783 -3.03228 0
M  V30 227 C 21.7913 -1.68557 -3.89601 0
M  V30 228 C 19.6983 -3.98479 -4.36999 0
M  V30 229 H 18.6283 -0.380733 -0.650814 0
M  V30 230 H 21.2793 -1.45248 -1.1214 0
M  V30 231 H 19.6613 -1.29192 -3.74333 0
M  V30 232 H 20.8353 -3.86832 -2.50395 0
M  V30 233 H 19.1503 -3.40711 -2.39385 0
M  V30 234 H 21.7473 -2.17211 -4.88593 0
M  V30 235 H 22.0903 -0.644021 -4.11288 0
M  V30 236 H 22.6233 -2.15778 -3.34193 0
M  V30 237 H 19.3623 -5.02841 -4.20513 0
M  V30 238 H 18.8823 -3.46219 -4.89788 0
M  V30 239 H 20.5613 -4.03462 -5.05794 0
M  V30 240 N 20.6934 1.19889 -1.02296 0
M  V30 241 C 21.6264 2.21639 -0.543282 0
M  V30 242 C 22.6044 1.57275 0.412698 0
M  V30 243 O 23.7884 1.85568 0.331198 0
M  V30 244 C 20.9154 3.38057 0.208571 0
M  V30 245 C 19.9614 4.20751 -0.697933 0
M  V30 246 S 20.7944 4.89529 -2.17075 0
M  V30 247 C 21.9504 6.09363 -1.42923 0
M  V30 248 H 22.1834 2.61984 -1.40541 0
M  V30 249 H 19.7164 1.30041 -0.832387 0
M  V30 250 H 21.6744 4.05539 0.63624 0
M  V30 251 H 20.3354 2.96159 1.04635 0
M  V30 252 H 19.5284 5.03862 -0.117831 0
M  V30 253 H 19.1304 3.58556 -1.06366 0
M  V30 254 H 21.4224 6.73742 -0.712637 0
M  V30 255 H 22.3654 6.71845 -2.23673 0
M  V30 256 H 22.7734 5.56798 -0.929327 0
M  V30 257 N 22.1715 0.800033 1.35784 0
M  V30 258 C 23.4175 0.377901 1.99248 0
M  V30 259 C 23.7505 -1.05052 1.63333 0
M  V30 260 O 23.0255 -1.72768 0.893385 0
M  V30 261 C 23.3085 0.553922 3.55814 0
M  V30 262 C 23.1615 2.0268 4.01548 0
M  V30 263 C 24.4805 -0.0244802 4.40093 0
M  V30 264 H 21.5995 0.138782 0.723815 0
M  V30 265 H 24.2415 1.00835 1.61035 0
M  V30 266 H 22.3915 0.0172398 3.88496 0
M  V30 267 H 24.0635 2.62536 3.79305 0
M  V30 268 H 22.3065 2.5256 3.52698 0
M  V30 269 H 22.9775 2.10087 5.10458 0
M  V30 270 H 25.4535 0.433775 4.13833 0
M  V30 271 H 24.3295 0.128637 5.48749 0
M  V30 272 H 24.5905 -1.11758 4.27741 0
M  V30 273 N 23.6496 -1.47581 0.552962 0
M  V30 274 C 25.0606 -1.86324 0.118463 0
M  V30 275 C 25.4116 -1.46006 -1.3106 0
M  V30 276 O 24.5366 -0.861182 -1.98526 0
M  V30 277 C 25.1316 -3.3816 0.20821 0
M  V30 278 C 23.6906 -3.7601 -0.171226 0
M  V30 279 C 22.8376 -2.71634 0.557686 0
M  V30 280 H 25.7886 -1.39159 0.762928 0
M  V30 281 H 25.8096 -3.76141 -0.574278 0
M  V30 282 H 25.3216 -3.67473 1.24841 0
M  V30 283 H 23.4226 -3.52313 -1.21269 0
M  V30 284 H 23.5356 -4.78745 0.184379 0
M  V30 285 H 21.8996 -2.547 0.00125792 0
M  V30 286 H 22.6826 -3.0379 1.59896 0
M  V30 287 N 25.1277 -0.289203 -1.54924 0
M  V30 288 C 26.3757 0.322879 -1.99504 0
M  V30 289 C 26.6967 1.55313 -1.1791 0
M  V30 290 O 25.9667 1.94001 -0.272097 0
M  V30 291 H 24.5467 0.122291 -0.736922 0
M  V30 292 H 27.2087 -0.397802 -1.90797 0
M  V30 293 H 26.3047 0.603061 -3.06218 0
M  V30 294 N 26.6058 1.57591 -0.0167156 0
M  V30 295 C 27.8458 1.93145 0.668902 0
M  V30 296 C 28.2098 0.892406 1.7 0
M  V30 297 O 29.4108 1.13373 2.43721 0
M  V30 298 C 27.6818 3.33678 1.28039 0
M  V30 299 S 29.2408 3.91142 1.9888 0
M  V30 300 H 26.0588 0.67593 0.220545 0
M  V30 301 H 28.6608 1.95347 -0.0774105 0
M  V30 302 H 27.3648 4.07126 0.517339 0
M  V30 303 H 26.8958 3.3489 2.06427 0
M  V30 304 H 28.9108 3.73571 3.26587 0
M  V30 305 N 28.0839 -0.256276 1.55502 0
M  V30 306 C 29.0159 -1.33981 1.85962 0
M  V30 307 C 30.0289 -1.44743 0.745212 0
M  V30 308 O 31.2179 -1.4626 1.02324 0
M  V30 309 C 28.3179 -2.7194 2.02242 0
M  V30 310 C 27.4909 -2.83562 3.33033 0
M  V30 311 C 26.5499 -4.02304 3.39172 0
M  V30 312 O 25.5759 -3.92273 4.12444 0
M  V30 313 N 26.7779 -5.15045 2.67784 0
M  V30 314 H 29.5429 -1.08191 2.7949 0
M  V30 315 H 27.1039 -0.446388 1.55624 0
M  V30 316 H 29.0959 -3.49697 2.03701 0
M  V30 317 H 27.6659 -2.90479 1.15502 0
M  V30 318 H 26.8859 -1.92555 3.43971 0
M  V30 319 H 28.1739 -2.88271 4.19258 0
M  V30 320 H 27.5719 -5.26085 2.07968 0
M  V30 321 H 26.1289 -5.90972 2.74947 0
M  V30 322 N 29.562 -1.4872 -0.521534 0
M  V30 323 C 30.525 -1.63379 -1.60748 0
M  V30 324 C 31.525 -0.50661 -1.52611 0
M  V30 325 O 32.715 -0.772601 -1.5613 0
M  V30 326 C 29.847 -1.61192 -3.00383 0
M  V30 327 H 31.04 -2.60217 -1.49087 0
M  V30 328 H 28.593 -1.37444 -0.744235 0
M  V30 329 H 29.328 -0.65863 -3.17541 0
M  V30 330 H 29.113 -2.43032 -3.07698 0
M  V30 331 H 30.603 -1.7466 -3.7932 0
M  V30 332 N 31.0401 0.771051 -1.3745 0
M  V30 333 C 31.9501 1.91538 -1.35464 0
M  V30 334 C 32.9661 1.72134 -0.254123 0
M  V30 335 O 34.1421 1.95358 -0.489626 0
M  V30 336 C 31.2071 3.26671 -1.16134 0
M  V30 337 C 30.2681 3.58723 -2.35831 0
M  V30 338 C 29.5011 4.87409 -2.17413 0
M  V30 339 O 29.7241 5.58506 -1.15876 0
M  V30 340 O 28.6581 5.18539 -3.05615 0
M  V30 341 H 32.4841 1.96165 -2.31847 0
M  V30 342 H 30.0691 0.9139 -1.18187 0
M  V30 343 H 31.9511 4.07499 -1.07345 0
M  V30 344 H 30.6261 3.22894 -0.228251 0
M  V30 345 H 29.5331 2.78127 -2.50192 0
M  V30 346 H 30.8661 3.67243 -3.27709 0
M  V30 347 N 32.5182 1.22032 0.997298 0
M  V30 348 C 33.4482 1.01065 2.10495 0
M  V30 349 C 34.4292 -0.0669542 1.69968 0
M  V30 350 O 35.6142 0.0943987 1.9397 0
M  V30 351 C 32.7442 0.582874 3.42374 0
M  V30 352 C 31.6982 1.60592 3.96729 0
M  V30 353 C 31.0242 1.03412 5.24605 0
M  V30 354 C 32.3242 2.99478 4.27914 0
M  V30 355 H 34.0182 1.93708 2.28292 0
M  V30 356 H 31.5642 0.932761 1.09707 0
M  V30 357 H 33.5172 0.423332 4.19268 0
M  V30 358 H 32.2412 -0.379213 3.24391 0
M  V30 359 H 30.9002 1.75316 3.21963 0
M  V30 360 H 30.5482 0.063518 5.0296 0
M  V30 361 H 30.2482 1.71754 5.61938 0
M  V30 362 H 31.7722 0.886066 6.04137 0
M  V30 363 H 33.1862 2.88153 4.95622 0
M  V30 364 H 31.5832 3.64903 4.76409 0
M  V30 365 H 32.6532 3.49742 3.3587 0
M  V30 366 N 33.9963 -1.19345 1.0293 0
M  V30 367 C 35.2363 -1.90738 0.734727 0
M  V30 368 C 35.6003 -1.7785 -0.723414 0
M  V30 369 O 36.8013 -2.43844 -1.13108 0
M  V30 370 C 35.0723 -3.37569 1.17396 0
M  V30 371 S 36.6313 -4.27176 1.00329 0
M  V30 372 H 33.4493 -0.658771 0.267474 0
M  V30 373 H 36.0513 -1.4428 1.31922 0
M  V30 374 H 34.7553 -3.44475 2.23081 0
M  V30 375 H 34.2863 -3.8906 0.582772 0
M  V30 376 H 36.3013 -4.96126 -0.0859152 0
M  V30 377 N 35.4744 -0.807222 -1.35358 0
M  V30 378 C 36.7514 -0.311126 -1.9311 0
M  V30 379 C 37.1314 1.19937 -1.73719 0
M  V30 380 O 36.4794 1.99918 -1.10657 0
M  V30 381 C 36.6894 -0.723226 -3.41424 0
M  V30 382 C 38.0374 -0.713078 -4.18569 0
M  V30 383 O 39.0614 -0.664811 -3.49941 0
M  V30 384 O 37.9204 -0.772022 -5.41019 0
M  V30 385 H 35.0144 -0.081526 -0.822972 0
M  V30 386 H 37.5604 -0.890962 -1.4443 0
M  V30 387 H 36.3324 -1.76426 -3.4927 0
M  V30 388 H 35.9554 -0.118232 -3.97424 0
M  V30 389 N 36.9525 1.47285 -0.560781 0
M  V30 390 C 38.2295 1.9558 0.0277798 0
M  V30 391 C 38.6095 1.5034 1.48192 0
M  V30 392 O 37.9575 0.743882 2.16052 0
M  V30 393 C 38.1675 3.48789 -0.121418 0
M  V30 394 C 39.5155 4.24594 0.0220912 0
M  V30 395 O 40.5395 3.56166 -0.0491439 0
M  V30 396 O 39.3985 5.46217 0.175958 0
M  V30 397 H 36.4925 0.824663 0.0621342 0
M  V30 398 H 39.0385 1.5767 -0.627556 0
M  V30 399 H 37.8105 3.74533 -1.13316 0
M  V30 400 H 37.4335 3.93473 0.571366 0
M  V30 401 N 38.4306 0.297415 1.54768 0
M  V30 402 C 39.7076 -0.365847 1.92148 0
M  V30 403 C 40.0876 -1.71975 1.22424 0
M  V30 404 O 39.4356 -2.25666 0.358739 0
M  V30 405 C 39.6456 -0.484056 3.45627 0
M  V30 406 C 40.9936 -0.756594 4.17805 0
M  V30 407 O 42.0176 -0.568007 3.51642 0
M  V30 408 O 40.8766 -1.11863 5.34929 0
M  V30 409 H 37.9706 -0.203919 0.801465 0
M  V30 410 H 40.5166 0.34521 1.66152 0
M  V30 411 H 39.2886 0.467865 3.88493 0
M  V30 412 H 38.9116 -1.24372 3.77647 0
M  V30 413 N 39.9087 -1.5758 0.0250728 0
M  V30 414 C 41.3197 -1.79476 -0.514323 0
M  V30 415 C 41.6707 -0.934956 -1.72491 0
M  V30 416 O 40.7957 -0.144245 -2.15919 0
M  V30 417 C 41.3907 -3.25503 -0.939842 0
M  V30 418 C 39.9497 -3.48408 -1.42438 0
M  V30 419 C 39.0967 -2.74583 -0.387201 0
M  V30 420 H 42.0477 -1.567 0.25113 0
M  V30 421 H 42.0687 -3.34992 -1.80445 0
M  V30 422 H 41.5807 -3.88056 -0.0585628 0
M  V30 423 H 39.6817 -2.91103 -2.32572 0
M  V30 424 H 39.7947 -4.57119 -1.43455 0
M  V30 425 H 38.1587 -2.39942 -0.854409 0
M  V30 426 H 38.9417 -3.39849 0.485543 0
M  V30 427 N 41.3868 0.248026 -1.55636 0
M  V30 428 C 42.7978 0.817177 -1.67866 0
M  V30 429 C 43.1488 1.86069 -0.622322 0
M  V30 430 O 42.2738 2.15157 0.231618 0
M  V30 431 C 42.8688 1.489 -3.04326 0
M  V30 432 C 41.4278 2.00587 -3.185 0
M  V30 433 C 40.5748 0.856573 -2.63739 0
M  V30 434 H 43.5258 0.0238579 -1.58682 0
M  V30 435 H 43.5468 2.35698 -2.98708 0
M  V30 436 H 43.0588 0.729279 -3.81186 0
M  V30 437 H 41.1598 2.79443 -2.4646 0
M  V30 438 H 41.2728 2.20402 -4.25393 0
M  V30 439 H 39.6368 1.25678 -2.21534 0
M  V30 440 H 40.4198 0.109953 -3.43124 0
M  V30 441 N 42.8649 1.48995 0.513639 0
M  V30 442 C 43.7749 1.67443 1.64317 0
M  V30 443 C 44.7909 0.556947 1.64846 0
M  V30 444 O 45.9669 0.830082 1.83498 0
M  V30 445 C 43.0319 1.72515 3.00732 0
M  V30 446 C 42.0929 2.96009 3.1093 0
M  V30 447 C 41.3259 3.00829 4.40837 0
M  V30 448 O 41.5489 2.13594 5.28898 0
M  V30 449 O 40.4829 3.93168 4.55744 0
M  V30 450 H 44.3089 2.63106 1.51687 0
M  V30 451 H 41.8939 1.32588 0.688543 0
M  V30 452 H 43.7759 1.78277 3.81831 0
M  V30 453 H 42.4509 0.800278 3.13651 0
M  V30 454 H 41.3579 2.9577 2.29065 0
M  V30 455 H 42.6909 3.87934 3.02933 0
M  V30 456 N 44.343 -0.763751 1.37857 0
M  V30 457 C 45.592 -1.51789 1.32827 0
M  V30 458 C 45.905 -1.95426 -0.0823719 0
M  V30 459 O 47.111 -2.70298 -0.255172 0
M  V30 460 C 45.567 -2.74133 2.33193 0
M  V30 461 C 45.175 -2.37562 3.79827 0
M  V30 462 C 46.919 -3.52054 2.37188 0
M  V30 463 C 44.826 -3.56456 4.71904 0
M  V30 464 H 43.756 -0.569896 0.493695 0
M  V30 465 H 46.407 -0.835822 1.63359 0
M  V30 466 H 44.789 -3.4427 1.9569 0
M  V30 467 H 45.963 -1.75157 4.26212 0
M  V30 468 H 44.278 -1.72798 3.78853 0
M  V30 469 H 46.875 -4.40437 3.03182 0
M  V30 470 H 47.218 -3.92486 1.38782 0
M  V30 471 H 47.751 -2.88921 2.7344 0
M  V30 472 H 44.49 -3.21099 5.71468 0
M  V30 473 H 44.01 -4.17938 4.30218 0
M  V30 474 H 45.689 -4.23168 4.89426 0
M  V30 475 N 45.8211 -1.22559 -0.990812 0
M  V30 476 C 47.2321 -1.04791 -1.54518 0
M  V30 477 C 47.5831 0.387998 -1.92325 0
M  V30 478 O 46.7081 1.27328 -1.74976 0
M  V30 479 C 47.3031 -1.896 -2.80779 0
M  V30 480 C 45.8621 -1.76124 -3.32652 0
M  V30 481 C 45.0091 -1.8594 -2.05722 0
M  V30 482 H 47.9601 -1.36374 -0.811662 0
M  V30 483 H 47.9811 -1.41464 -3.53225 0
M  V30 484 H 47.4931 -2.94101 -2.53231 0
M  V30 485 H 45.5941 -0.743643 -3.65104 0
M  V30 486 H 45.7071 -2.58913 -4.03114 0
M  V30 487 H 44.0711 -1.29403 -2.19379 0
M  V30 488 H 44.8541 -2.91976 -1.80568 0
M  V30 489 N 47.2992 1.18797 -1.03562 0
M  V30 490 C 48.2492 2.20161 -0.592724 0
M  V30 491 C 49.2332 1.56772 0.362133 0
M  V30 492 O 50.4252 1.76062 0.182009 0
M  V30 493 C 47.5542 3.43266 0.0481024 0
M  V30 494 C 46.6402 4.13786 -0.9296 0
M  V30 495 N 47.0312 4.60388 -2.09467 0
M  V30 496 C 45.3292 4.39572 -0.754499 0
M  V30 497 C 46.0302 5.14619 -2.71187 0
M  V30 498 N 45.0062 5.05826 -1.991 0
M  V30 499 H 48.8082 2.53877 -1.48066 0
M  V30 500 H 46.3222 1.34946 -0.903514 0
M  V30 501 H 48.3192 4.15136 0.383058 0
M  V30 502 H 46.9792 3.11048 0.931636 0
M  V30 503 H 47.9902 4.54999 -2.47379 0
M  V30 504 H 44.6672 4.17425 0.0793713 0
M  V30 505 H 46.0572 5.60917 -3.69895 0
M  V30 506 N 48.7773 0.814389 1.34928 0
M  V30 507 C 49.7403 0.235759 2.27984 0
M  V30 508 C 50.7403 -0.581412 1.49921 0
M  V30 509 O 51.9303 -0.398758 1.69575 0
M  V30 510 C 49.0623 -0.670433 3.34242 0
M  V30 511 H 50.2553 1.05659 2.80671 0
M  V30 512 H 47.8083 0.585614 1.44915 0
M  V30 513 H 48.5433 -1.51466 2.86755 0
M  V30 514 H 48.3283 -0.0860822 3.92005 0
M  V30 515 H 49.8183 -1.06935 4.03676 0
M  V30 516 N 50.2554 -1.46986 0.568584 0
M  V30 517 C 51.4834 -2.0683 0.0539956 0
M  V30 518 C 51.8984 -1.41953 -1.24478 0
M  V30 519 O 51.2554 -0.519933 -1.74937 0
M  V30 520 C 51.3064 -3.61254 -0.133362 0
M  V30 521 O 51.0274 -4.237 1.11399 0
M  V30 522 C 52.5284 -4.37992 -0.683927 0
M  V30 523 H 49.7484 -0.669058 0.0510141 0
M  V30 524 H 52.2924 -1.88824 0.785234 0
M  V30 525 H 50.4474 -3.78735 -0.81477 0
M  V30 526 H 50.8614 -5.16388 0.91888 0
M  V30 527 H 52.3354 -5.46684 -0.764263 0
M  V30 528 H 52.8124 -4.05058 -1.69778 0
M  V30 529 H 53.4184 -4.25283 -0.0378494 0
M  V30 530 N 51.7335 -0.305618 -1.54608 0
M  V30 531 C 52.9805 0.302298 -2.00231 0
M  V30 532 C 53.3085 1.5354 -1.19398 0
M  V30 533 O 52.5635 1.93973 -0.259423 0
M  V30 534 C 52.8625 0.698983 -3.50498 0
M  V30 535 C 52.5285 -0.432903 -4.48817 0
M  V30 536 C 51.1905 -0.743622 -4.75419 0
M  V30 537 C 53.5425 -1.19409 -5.07337 0
M  V30 538 C 50.8705 -1.81857 -5.57804 0
M  V30 539 C 53.2225 -2.25899 -5.90891 0
M  V30 540 C 51.8865 -2.57572 -6.15803 0
M  V30 541 H 51.1565 0.110619 -0.732697 0
M  V30 542 H 53.8035 -0.425674 -1.86709 0
M  V30 543 H 52.1085 1.50711 -3.61654 0
M  V30 544 H 53.8055 1.1806 -3.83227 0
M  V30 545 H 50.3955 -0.18063 -4.28219 0
M  V30 546 H 54.5795 -0.967295 -4.86782 0
M  V30 547 H 49.8355 -2.06864 -5.75341 0
M  V30 548 H 54.0095 -2.85335 -6.35261 0
M  V30 549 H 51.6365 -3.40998 -6.7943 0
M  V30 550 N 53.2116 1.57565 -0.0334293 0
M  V30 551 C 54.1586 2.10478 0.946981 0
M  V30 552 C 55.1286 1.00787 1.32027 0
M  V30 553 O 56.3136 1.28232 1.41284 0
M  V30 554 C 53.4536 2.63994 2.22263 0
M  V30 555 C 52.5666 3.87709 1.90541 0
M  V30 556 C 51.7016 4.29604 3.12433 0
M  V30 557 C 50.7406 5.46065 2.76549 0
M  V30 558 N 49.8776 5.83096 3.9108 0
M  V30 559 H 54.7176 2.93963 0.488846 0
M  V30 560 H 52.2546 1.45296 0.22969 0
M  V30 561 H 54.2126 2.93114 2.96884 0
M  V30 562 H 52.8426 1.83333 2.65685 0
M  V30 563 H 51.8946 3.65291 1.06144 0
M  V30 564 H 53.2066 4.72403 1.60116 0
M  V30 565 H 52.3606 4.60182 3.9537 0
M  V30 566 H 51.0996 3.43685 3.46023 0
M  V30 567 H 50.1046 5.15176 1.92026 0
M  V30 568 H 51.3296 6.33685 2.44171 0
M  V30 569 H 49.2756 5.00132 4.24504 0
M  V30 570 H 49.1926 6.6244 3.64293 0
M  V30 571 H 50.4606 6.18282 4.74708 0
M  V30 572 N 54.6897 -0.239769 1.55765 0
M  V30 573 C 55.6527 -1.28038 1.90103 0
M  V30 574 C 56.6527 -1.40723 0.778055 0
M  V30 575 O 57.8427 -1.39301 1.04599 0
M  V30 576 C 54.9747 -2.65702 2.13577 0
M  V30 577 H 56.1677 -0.988048 2.83157 0
M  V30 578 H 53.7207 -0.479382 1.48767 0
M  V30 579 H 54.4557 -3.00063 1.23015 0
M  V30 580 H 54.2407 -2.57875 2.95369 0
M  V30 581 H 55.7307 -3.40828 2.41301 0
M  V30 582 N 56.1678 -1.49265 -0.50573 0
M  V30 583 C 57.1008 -1.60183 -1.62532 0
M  V30 584 C 58.0788 -0.451107 -1.56217 0
M  V30 585 O 59.2628 -0.666016 -1.76342 0
M  V30 586 C 56.3898 -1.55238 -3.01029 0
M  V30 587 C 55.4358 -2.7545 -3.25621 0
M  V30 588 S 56.2688 -4.37174 -3.09256 0
M  V30 589 C 57.4248 -4.34866 -4.50158 0
M  V30 590 H 57.6578 -2.54894 -1.53025 0
M  V30 591 H 55.1908 -1.38098 -0.690535 0
M  V30 592 H 57.1488 -1.53071 -3.80893 0
M  V30 593 H 55.8098 -0.618238 -3.07956 0
M  V30 594 H 55.0028 -2.68197 -4.26716 0
M  V30 595 H 54.6048 -2.75005 -2.53472 0
M  V30 596 H 56.8968 -4.06295 -5.42154 0
M  V30 597 H 57.8398 -5.36223 -4.62462 0
M  V30 598 H 58.2478 -3.65007 -4.30616 0
M  V30 599 N 57.6459 0.756429 -1.3826 0
M  V30 600 C 58.6089 1.85176 -1.35065 0
M  V30 601 C 59.6089 1.58818 -0.251703 0
M  V30 602 O 60.7989 1.66615 -0.508433 0
M  V30 603 C 57.9309 3.22596 -1.10201 0
M  V30 604 H 59.1239 1.89417 -2.3251 0
M  V30 605 H 56.6769 0.95783 -1.23512 0
M  V30 606 H 57.4119 3.24025 -0.133504 0
M  V30 607 H 57.1969 3.43122 -1.89762 0
M  V30 608 H 58.6869 4.02673 -1.10654 0
M  V30 609 N 59.124 1.23083 0.984299 0
M  V30 610 C 60.354 1.08556 1.75781 0
M  V30 611 C 60.762 -0.366171 1.85623 0
M  V30 612 O 60.105 -1.26524 1.33182 0
M  V30 613 C 60.167 1.63208 3.20318 0
M  V30 614 C 59.831 3.11922 3.33997 0
M  V30 615 C 60.828 4.09259 3.2063 0
M  V30 616 C 58.513 3.51552 3.58771 0
M  V30 617 C 60.507 5.4421 3.31835 0
M  V30 618 C 58.194 4.86649 3.69616 0
M  V30 619 C 59.192 5.82787 3.56157 0
M  V30 620 O 58.88 7.15431 3.66626 0
M  V30 621 H 58.612 0.380713 0.5586 0
M  V30 622 H 61.166 1.63321 1.2456 0
M  V30 623 H 59.396 1.0286 3.72769 0
M  V30 624 H 61.085 1.44216 3.79416 0
M  V30 625 H 61.851 3.79984 3.01392 0
M  V30 626 H 57.73 2.77239 3.6832 0
M  V30 627 H 61.274 6.1923 3.21247 0
M  V30 628 H 57.171 5.15601 3.88363 0
M  V30 629 H 57.939 7.23127 3.83445 0
M  V30 630 N 60.6021 -1.18246 1.0419 0
M  V30 631 C 61.5491 -2.2192 0.634037 0
M  V30 632 C 62.5191 -1.62179 -0.358765 0
M  V30 633 O 63.7041 -1.89122 -0.252466 0
M  V30 634 C 60.8441 -3.451 0.00445535 0
M  V30 635 C 59.9571 -4.19174 1.04487 0
M  V30 636 C 59.0921 -5.29813 0.383676 0
M  V30 637 C 58.1311 -5.9566 1.4091 0
M  V30 638 N 57.2681 -6.97834 0.772784 0
M  V30 639 H 62.1081 -2.56164 1.52263 0
M  V30 640 H 59.6451 -1.25843 0.761701 0
M  V30 641 H 61.6031 -4.15485 -0.377919 0
M  V30 642 H 60.2331 -3.11472 -0.847652 0
M  V30 643 H 59.2851 -3.47604 1.54518 0
M  V30 644 H 60.5971 -4.64267 1.82368 0
M  V30 645 H 59.7511 -6.06677 -0.0528366 0
M  V30 646 H 58.4901 -4.85825 -0.427208 0
M  V30 647 H 57.4951 -5.17535 1.85574 0
M  V30 648 H 58.7201 -6.4173 2.22171 0
M  V30 649 H 56.6661 -6.55998 -0.0177708 0
M  V30 650 H 56.5831 -7.41186 1.48928 0
M  V30 651 H 57.8511 -7.78665 0.36071 0
M  V30 652 N 62.0802 -0.821533 -1.34494 0
M  V30 653 C 62.9902 -0.244355 -2.33324 0
M  V30 654 C 64.0062 0.620527 -1.62559 0
M  V30 655 O 65.1822 0.528754 -1.94335 0
M  V30 656 C 62.2472 0.585368 -3.41723 0
M  V30 657 C 61.3082 -0.301752 -4.28238 0
M  V30 658 C 60.5412 0.488466 -5.3146 0
M  V30 659 O 60.7642 1.72186 -5.4379 0
M  V30 660 O 59.6982 -0.12848 -6.01763 0
M  V30 661 H 63.5242 -1.06231 -2.84515 0
M  V30 662 H 61.1092 -0.583645 -1.37528 0
M  V30 663 H 62.9912 1.05747 -4.07916 0
M  V30 664 H 61.6662 1.38068 -2.92778 0
M  V30 665 H 60.5732 -0.821315 -3.64973 0
M  V30 666 H 61.9062 -1.06138 -4.8062 0
M  V30 667 N 63.5583 1.46682 -0.576371 0
M  V30 668 C 64.8063 2.02013 -0.0594163 0
M  V30 669 C 65.1273 1.45101 1.30271 0
M  V30 670 O 64.3973 0.633317 1.8538 0
M  V30 671 H 62.9773 0.746759 -0.0189745 0
M  V30 672 H 65.6393 1.79862 -0.750717 0
M  V30 673 H 64.7353 3.12097 0.014345 0
M  V30 674 N 65.0364 0.313813 1.54444 0
M  V30 675 C 66.2644 -0.293918 2.04802 0
M  V30 676 C 66.6794 -1.46537 1.19047 0
M  V30 677 O 66.0364 -1.81182 0.218939 0
M  V30 678 C 66.0874 -0.737806 3.53891 0
M  V30 679 O 65.8084 0.387038 4.36387 0
M  V30 680 C 67.3094 -1.40936 4.203 0
M  V30 681 H 64.5294 -0.0620057 0.668129 0
M  V30 682 H 67.0734 0.457169 1.99324 0
M  V30 683 H 65.2284 -1.43889 3.59687 0
M  V30 684 H 65.6424 0.0391274 5.24485 0
M  V30 685 H 67.1164 -1.67099 5.26101 0
M  V30 686 H 67.5934 -2.35355 3.70816 0
M  V30 687 H 68.1994 -0.751117 4.18615 0
M  V30 688 N 66.5145 -1.57545 0.0417849 0
M  V30 689 C 67.4475 -2.06514 -0.970928 0
M  V30 690 C 68.4255 -0.963607 -1.30971 0
M  V30 691 O 69.6095 -1.23486 -1.4242 0
M  V30 692 C 66.7365 -2.4978 -2.28752 0
M  V30 693 C 65.7825 -3.71078 -2.10246 0
M  V30 694 S 66.6155 -5.17158 -1.38952 0
M  V30 695 C 67.7715 -5.6373 -2.71954 0
M  V30 696 H 68.0045 -2.9209 -0.554129 0
M  V30 697 H 65.5375 -1.53459 -0.17024 0
M  V30 698 H 67.4955 -2.75371 -3.04435 0
M  V30 699 H 66.1565 -1.64527 -2.67562 0
M  V30 700 H 65.3495 -3.9924 -3.07609 0
M  V30 701 H 64.9515 -3.45705 -1.42704 0
M  V30 702 H 67.2435 -5.68743 -3.68154 0
M  V30 703 H 68.1865 -6.63086 -2.4844 0
M  V30 704 H 68.5945 -4.91424 -2.77782 0
M  V30 705 N 67.9926 0.231505 -1.5589 0
M  V30 706 C 68.9226 1.29022 -1.94617 0
M  V30 707 C 69.9036 1.4941 -0.813067 0
M  V30 708 O 71.0886 1.6176 -1.07459 0
M  V30 709 C 68.2186 2.64199 -2.25424 0
M  V30 710 C 67.1726 2.58484 -3.41131 0
M  V30 711 C 66.4986 3.97599 -3.57518 0
M  V30 712 C 67.7986 2.1413 -4.76388 0
M  V30 713 H 69.4926 0.968563 -2.83301 0
M  V30 714 H 67.0386 0.464479 -1.36303 0
M  V30 715 H 68.9916 3.38413 -2.51107 0
M  V30 716 H 67.7156 2.98032 -1.33583 0
M  V30 717 H 66.3746 1.86727 -3.15481 0
M  V30 718 H 66.0226 4.28723 -2.6307 0
M  V30 719 H 65.7226 3.94659 -4.35337 0
M  V30 720 H 67.2466 4.7349 -3.85538 0
M  V30 721 H 68.6606 2.78083 -5.01341 0
M  V30 722 H 67.0576 2.2227 -5.57419 0
M  V30 723 H 68.1276 1.09331 -4.72414 0
M  V30 724 N 69.4707 1.49531 0.497807 0
M  V30 725 C 70.4187 1.66926 1.61983 0
M  V30 726 C 71.4127 0.535167 1.60724 0
M  V30 727 O 72.6187 0.714896 1.65195 0
M  V30 728 H 68.9937 0.526415 0.537021 0
M  V30 729 H 70.9647 2.61098 1.44465 0
M  V30 730 C 69.7137 1.75602 3.00099 0
M  V30 731 H 69.0367 2.62244 3.01775 0
M  V30 732 H 70.4767 1.91807 3.78135 0
M  V30 733 C 68.9357 0.501543 3.33146 0
M  V30 734 O 69.4657 -0.371342 3.9998 0
M  V30 735 N 67.6717 0.363531 2.88317 0
M  V30 736 H 67.2187 1.07485 2.34104 0
M  V30 737 H 67.1767 -0.474728 3.10795 0
M  V30 738 N 70.9488 -0.749086 1.3866 0
M  V30 739 C 72.1888 -1.52112 1.36534 0
M  V30 740 C 72.5528 -1.91951 -0.0432316 0
M  V30 741 O 73.7538 -2.68132 -0.189396 0
M  V30 742 C 72.0248 -2.73704 2.29828 0
M  V30 743 S 73.5838 -3.63519 2.45763 0
M  V30 744 H 70.4018 -0.520482 0.484375 0
M  V30 745 H 73.0038 -0.878963 1.74627 0
M  V30 746 H 71.7078 -2.42552 3.31054 0
M  V30 747 H 71.2388 -3.4286 1.929 0
M  V30 748 H 73.2538 -4.66712 1.68505 0
M  V30 749 N 72.4269 -1.23603 -0.977757 0
M  V30 750 C 73.3369 -1.03632 -2.1047 0
M  V30 751 C 74.3529 0.0199435 -1.73989 0
M  V30 752 O 75.5289 -0.176076 -2.00629 0
M  V30 753 C 72.5939 -0.63276 -3.40877 0
M  V30 754 C 71.6549 -1.76437 -3.91367 0
M  V30 755 C 70.8879 -1.37997 -5.15551 0
M  V30 756 O 71.1109 -0.265357 -5.69782 0
M  V30 757 O 70.0449 -2.20201 -5.60174 0
M  V30 758 H 73.8709 -1.98086 -2.30208 0
M  V30 759 H 71.4559 -1.02332 -1.08851 0
M  V30 760 H 73.3379 -0.418761 -4.19314 0
M  V30 761 H 72.0129 0.282754 -3.22463 0
M  V30 762 H 70.9199 -2.03304 -3.14036 0
M  V30 763 H 72.2529 -2.6583 -4.14241 0
M  V30 764 N 73.905 1.17692 -1.04816 0
M  V30 765 C 75.145 1.89545 -0.764979 0
M  V30 766 C 75.509 1.78979 0.695028 0
M  V30 767 O 76.71 2.45613 1.09215 0
M  V30 768 C 74.981 3.35659 -1.22751 0
M  V30 769 S 76.54 4.25526 -1.07112 0
M  V30 770 H 73.358 0.654432 -0.27792 0
M  V30 771 H 75.96 1.42163 -1.34201 0
M  V30 772 H 74.664 3.40882 -2.28533 0
M  V30 773 H 74.195 3.88083 -0.644594 0
M  V30 774 H 76.21 4.962 0.00697508 0
M  V30 775 N 75.3831 0.828654 1.34056 0
M  V30 776 C 76.3301 0.252567 2.29414 0
M  V30 777 C 77.3001 -0.62588 1.53857 0
M  V30 778 O 78.4851 -0.566312 1.82202 0
M  V30 779 C 75.6251 -0.574831 3.40279 0
M  V30 780 C 74.7381 0.326499 4.30764 0
M  V30 781 C 73.8731 -0.511016 5.28736 0
M  V30 782 C 72.9121 0.389342 6.1086 0
M  V30 783 N 72.0491 -0.409439 7.00905 0
M  V30 784 H 76.8891 1.07108 2.78086 0
M  V30 785 H 74.4261 0.539677 1.36843 0
M  V30 786 H 76.3841 -1.06992 4.03248 0
M  V30 787 H 75.0141 -1.35841 2.92826 0
M  V30 788 H 74.0661 0.939837 3.68607 0
M  V30 789 H 75.3781 1.01857 4.88289 0
M  V30 790 H 74.5321 -1.07035 5.97184 0
M  V30 791 H 73.2711 -1.23657 4.71763 0
M  V30 792 H 72.2761 0.960769 5.4134 0
M  V30 793 H 73.5011 1.1131 6.69916 0
M  V30 794 H 71.4471 -1.11856 6.46393 0
M  V30 795 H 71.3641 0.224126 7.55668 0
M  V30 796 H 72.6321 -0.951336 7.73673 0
M  V30 797 N 76.8612 -1.46375 0.584142 0
M  V30 798 C 78.2772 -1.57694 0.245929 0
M  V30 799 C 78.4772 -1.57903 -1.25175 0
M  V30 800 O 77.5332 -1.49676 -2.03355 0
M  V30 801 C 78.8462 -2.87028 0.896402 0
M  V30 802 C 80.3942 -3.00662 0.870127 0
M  V30 803 C 80.8692 -4.32734 1.50017 0
M  V30 804 N 82.3602 -4.39436 1.46458 0
M  V30 805 C 83.0952 -5.40248 1.92144 0
M  V30 806 N 82.5912 -6.47726 2.4581 0
M  V30 807 N 84.3842 -5.31459 1.83052 0
M  V30 808 H 76.5352 -1.44483 1.55687 0
M  V30 809 H 78.7982 -0.689291 0.650831 0
M  V30 810 H 78.5042 -2.9269 1.95002 0
M  V30 811 H 78.3782 -3.75014 0.405486 0
M  V30 812 H 80.7652 -2.94581 -0.174871 0
M  V30 813 H 80.8462 -2.14148 1.39908 0
M  V30 814 H 80.4902 -4.39573 2.54437 0
M  V30 815 H 80.4202 -5.18025 0.946432 0
M  V30 816 H 82.9112 -3.62367 1.07231 0
M  V30 817 H 83.2242 -7.20863 2.78525 0
M  V30 818 H 81.5692 -6.48542 2.49836 0
M  V30 819 H 84.7602 -4.46396 1.40883 0
M  V30 820 H 84.9332 -6.09881 2.18973 0
M  V30 821 N 78.3393 -0.321999 -1.54275 0
M  V30 822 C 79.5873 0.280489 -2.00144 0
M  V30 823 C 79.9083 1.52777 -1.21178 0
M  V30 824 O 79.1783 1.9338 -0.313187 0
M  V30 825 H 77.7583 0.106632 -0.73935 0
M  V30 826 H 80.4203 -0.438184 -1.8991 0
M  V30 827 H 79.5163 0.537972 -3.07428 0
M  V30 828 N 79.8174 1.5752 -0.0501392 0
M  V30 829 C 81.0644 1.9265 0.623874 0
M  V30 830 C 81.3924 0.928411 1.70912 0
M  V30 831 O 80.6474 -0.0594525 1.9561 0
M  V30 832 C 80.9464 3.34467 1.25963 0
M  V30 833 C 80.6124 4.49883 0.302689 0
M  V30 834 C 79.2744 4.81184 0.0393636 0
M  V30 835 C 81.6264 5.20002 -0.353205 0
M  V30 836 C 78.9544 5.79951 -0.887308 0
M  V30 837 C 81.3064 6.1976 -1.26806 0
M  V30 838 C 79.9704 6.49491 -1.54007 0
M  V30 839 H 79.2404 0.704957 0.228292 0
M  V30 840 H 81.8874 1.91146 -0.116398 0
M  V30 841 H 80.1924 3.32333 2.07514 0
M  V30 842 H 81.8894 3.58928 1.78806 0
M  V30 843 H 78.4794 4.25457 0.518109 0
M  V30 844 H 82.6634 4.96033 -0.162854 0
M  V30 845 H 77.9194 6.01322 -1.10553 0
M  V30 846 H 82.0934 6.73205 -1.78236 0
M  V30 847 H 79.7204 7.25837 -2.25976 0
M  V30 848 N 81.2955 -0.223234 1.56011 0
M  V30 849 C 82.7115 -0.572856 1.48965 0
M  V30 850 C 82.9115 -1.87225 0.74492 0
M  V30 851 O 81.9675 -2.50899 0.283896 0
M  V30 852 C 83.2805 -0.653646 2.9351 0
M  V30 853 C 84.8285 -0.744386 3.0402 0
M  V30 854 C 85.3035 -0.856535 4.49919 0
M  V30 855 N 86.7945 -0.9208 4.53955 0
M  V30 856 C 87.5295 -1.02726 5.64123 0
M  V30 857 N 87.0255 -1.09777 6.84047 0
M  V30 858 N 88.8185 -1.06226 5.51971 0
M  V30 859 H 80.9695 0.629462 2.02858 0
M  V30 860 H 83.2325 0.220621 0.921971 0
M  V30 861 H 82.9385 0.231518 3.50937 0
M  V30 862 H 82.8125 -1.51781 3.45315 0
M  V30 863 H 85.1995 -1.61999 2.46658 0
M  V30 864 H 85.2805 0.14541 2.55386 0
M  V30 865 H 84.9245 0.0146069 5.07898 0
M  V30 866 H 84.8545 -1.76172 4.96257 0
M  V30 867 H 87.3455 -0.876694 3.6759 0
M  V30 868 H 87.6585 -1.17872 7.63758 0
M  V30 869 H 86.0035 -1.06693 6.86762 0
M  V30 870 H 89.1945 -1.00382 4.5721 0
M  V30 871 H 89.3675 -1.14177 6.37862 0
M  V30 872 N 82.7736 -1.49793 -0.48987 0
M  V30 873 C 84.1896 -1.36803 -0.822022 0
M  V30 874 C 84.3896 -0.409652 -1.97292 0
M  V30 875 O 83.4456 0.154614 -2.52026 0
M  V30 876 C 84.7586 -2.77768 -1.15175 0
M  V30 877 C 86.3066 -2.86549 -1.25931 0
M  V30 878 C 86.7816 -4.28306 -1.62228 0
M  V30 879 N 88.2726 -4.31169 -1.69256 0
M  V30 880 C 89.0076 -5.37832 -1.98807 0
M  V30 881 N 88.5036 -6.54726 -2.26507 0
M  V30 882 N 90.2966 -5.25258 -2.00152 0
M  V30 883 H 82.4476 -2.10691 0.268881 0
M  V30 884 H 84.7106 -0.946241 0.057728 0
M  V30 885 H 84.4166 -3.49648 -0.379335 0
M  V30 886 H 84.2906 -3.13836 -2.09253 0
M  V30 887 H 86.6776 -2.14899 -2.02243 0
M  V30 888 H 86.7586 -2.54049 -0.298776 0
M  V30 889 H 86.4026 -5.00486 -0.864622 0
M  V30 890 H 86.3326 -4.58279 -2.594 0
M  V30 891 H 88.8236 -3.4687 -1.49965 0
M  V30 892 H 89.1366 -7.31833 -2.48276 0
M  V30 893 H 87.4816 -6.57933 -2.23939 0
M  V30 894 H 90.6726 -4.32938 -1.77996 0
M  V30 895 H 90.8456 -6.08476 -2.22848 0
M  V30 896 N 84.2517 0.741722 -1.39055 0
M  V30 897 C 85.5007 1.49656 -1.35225 0
M  V30 898 C 85.8137 1.95533 0.0512708 0
M  V30 899 O 87.0197 2.7067 0.212138 0
M  V30 900 C 85.4757 2.70389 -2.37525 0
M  V30 901 C 85.0837 2.31489 -3.83558 0
M  V30 902 C 86.8277 3.48236 -2.42759 0
M  V30 903 C 84.7347 3.48903 -4.77515 0
M  V30 904 H 83.6647 0.56197 -0.502699 0
M  V30 905 H 86.3157 0.809727 -1.64668 0
M  V30 906 H 84.6977 3.41113 -2.01142 0
M  V30 907 H 85.8717 1.68354 -4.28945 0
M  V30 908 H 84.1867 1.66749 -3.81554 0
M  V30 909 H 86.7837 4.35558 -3.1015 0
M  V30 910 H 87.1267 3.90229 -1.45008 0
M  V30 911 H 87.6597 2.84535 -2.78002 0
M  V30 912 H 84.3987 3.11966 -5.76504 0
M  V30 913 H 83.9187 4.11041 -4.36813 0
M  V30 914 H 85.5977 4.15328 -4.96096 0
M  V30 915 N 85.7298 1.2412 0.971189 0
M  V30 916 C 86.6768 1.0305 2.06517 0
M  V30 917 C 87.6468 -0.0550666 1.66009 0
M  V30 918 O 88.8318 0.0988688 1.90544 0
M  V30 919 C 85.9718 0.637653 3.39158 0
M  V30 920 C 85.0848 1.79633 3.92882 0
M  V30 921 C 84.2198 1.34939 5.13775 0
M  V30 922 C 83.2588 2.47823 5.59687 0
M  V30 923 N 82.3958 2.04022 6.71803 0
M  V30 924 H 87.2358 1.96685 2.23873 0
M  V30 925 H 84.7728 0.979694 1.09729 0
M  V30 926 H 86.7308 0.390931 4.15364 0
M  V30 927 H 85.3608 -0.261693 3.21737 0
M  V30 928 H 84.4128 2.15681 3.13346 0
M  V30 929 H 85.7248 2.64466 4.22918 0
M  V30 930 H 84.8788 1.06134 5.97345 0
M  V30 931 H 83.6178 0.471557 4.85415 0
M  V30 932 H 82.6228 2.77392 4.74693 0
M  V30 933 H 83.8478 3.36158 5.90063 0
M  V30 934 H 81.7938 1.18632 6.45184 0
M  V30 935 H 81.7108 2.82409 7.01271 0
M  V30 936 H 82.9788 1.78347 7.58823 0
M  V30 937 N 87.2079 -1.17134 1.05439 0
M  V30 938 C 88.4329 -1.91913 0.786396 0
M  V30 939 C 88.8579 -1.7643 -0.652234 0
M  V30 940 O 88.2159 -1.08372 -1.45345 0
M  V30 941 C 88.2639 -3.40921 1.17497 0
M  V30 942 O 87.3679 -4.11244 0.308589 0
M  V30 943 H 86.7089 -0.598215 0.288158 0
M  V30 944 H 89.2389 -1.48457 1.4079 0
M  V30 945 H 89.2489 -3.91668 1.14281 0
M  V30 946 H 87.9239 -3.5151 2.22292 0
M  V30 947 H 86.5009 -3.70731 0.40157 0
M  V30 948 N 88.686 -0.835752 -1.33615 0
M  V30 949 C 89.934 -0.429109 -1.97492 0
M  V30 950 C 90.255 1.01433 -1.66543 0
M  V30 951 O 89.525 1.70611 -0.962744 0
M  V30 952 H 88.105 -0.155686 -0.730596 0
M  V30 953 H 90.767 -1.06802 -1.63031 0
M  V30 954 H 89.863 -0.55861 -3.0706 0
M  V30 955 N 90.1641 1.46063 -0.591896 0
M  V30 956 C 91.3891 2.07226 -0.0850314 0
M  V30 957 C 91.8141 1.43625 1.21463 0
M  V30 958 O 91.1721 0.523305 1.73583 0
M  V30 959 C 91.2201 3.60554 0.0576567 0
M  V30 960 O 90.3241 3.97128 1.11188 0
M  V30 961 H 89.6651 0.660615 -0.0669568 0
M  V30 962 H 92.1951 1.8756 -0.81745 0
M  V30 963 H 92.2051 4.07165 0.2609 0
M  V30 964 H 90.8801 4.06235 -0.891416 0
M  V30 965 H 89.4571 3.62213 0.886356 0
M  V30 966 N 91.6422 0.330177 1.54103 0
M  V30 967 C 92.5722 -0.525353 2.27513 0
M  V30 968 C 93.5532 -1.11383 1.2856 0
M  V30 969 O 94.7382 -1.13773 1.57383 0
M  V30 970 C 91.8682 -1.6831 3.03791 0
M  V30 971 C 90.8222 -1.2236 4.10137 0
M  V30 972 C 90.1482 -2.46882 4.74293 0
M  V30 973 C 91.4482 -0.333697 5.21233 0
M  V30 974 H 93.1422 0.087013 2.99274 0
M  V30 975 H 90.6882 0.0432893 1.43935 0
M  V30 976 H 92.6412 -2.28795 3.5388 0
M  V30 977 H 91.3652 -2.32216 2.29659 0
M  V30 978 H 90.0242 -0.64165 3.60941 0
M  V30 979 H 89.6722 -3.09165 3.96769 0
M  V30 980 H 89.3722 -2.16825 5.46133 0
M  V30 981 H 90.8962 -3.08117 5.27159 0
M  V30 982 H 92.3102 -0.845013 5.67038 0
M  V30 983 H 90.7072 -0.125612 5.99969 0
M  V30 984 H 91.7772 0.633724 4.80741 0
M  V30 985 N 93.1203 -1.57491 0.0584922 0
M  V30 986 C 94.3503 -1.9701 -0.622134 0
M  V30 987 C 94.7583 -0.935034 -1.6448 0
M  V30 988 O 94.1013 0.0882904 -1.83488 0
M  V30 989 C 94.1633 -3.32794 -1.35972 0
M  V30 990 C 93.8273 -4.54343 -0.492043 0
M  V30 991 C 94.8243 -5.19323 0.244901 0
M  V30 992 C 92.5093 -5.00534 -0.420821 0
M  V30 993 C 94.5033 -6.28835 1.04143 0
M  V30 994 C 92.1903 -6.09921 0.379389 0
M  V30 995 C 93.1883 -6.73933 1.10919 0
M  V30 996 O 92.8763 -7.81216 1.89623 0
M  V30 997 H 92.6083 -0.653127 -0.174359 0
M  V30 998 H 95.1623 -2.05029 0.123418 0
M  V30 999 H 93.3923 -3.21351 -2.15105 0
M  V30 1000 H 95.0813 -3.5701 -1.93129 0
M  V30 1001 H 95.8473 -4.8459 0.19939 0
M  V30 1002 H 91.7263 -4.50496 -0.978474 0
M  V30 1003 H 95.2703 -6.7873 1.61157 0
M  V30 1004 H 91.1673 -6.44089 0.426512 0
M  V30 1005 H 91.9353 -7.98029 1.81913 0
M  V30 1006 N 94.5984 0.214957 -1.56127 0
M  V30 1007 C 95.5314 1.29382 -1.87977 0
M  V30 1008 C 96.5094 1.44897 -0.737807 0
M  V30 1009 O 97.6934 1.60605 -0.986833 0
M  V30 1010 C 94.8204 2.66325 -2.09258 0
M  V30 1011 C 93.8664 2.67789 -3.31951 0
M  V30 1012 S 94.6994 2.21198 -4.8768 0
M  V30 1013 C 95.8554 3.60003 -5.12004 0
M  V30 1014 H 96.0884 1.02173 -2.79192 0
M  V30 1015 H 93.6214 0.417516 -1.48648 0
M  V30 1016 H 95.5794 3.45162 -2.22201 0
M  V30 1017 H 94.2404 2.90755 -1.18829 0
M  V30 1018 H 93.4334 3.68436 -3.43906 0
M  V30 1019 H 93.0354 1.9702 -3.17898 0
M  V30 1020 H 95.3274 4.55739 -5.01307 0
M  V30 1021 H 96.2704 3.52959 -6.13861 0
M  V30 1022 H 96.6784 3.53996 -4.39712 0
M  V30 1023 N 96.0765 1.50051 0.48192 0
M  V30 1024 C 97.0065 1.71046 1.58951 0
M  V30 1025 C 97.9875 0.559288 1.60642 0
M  V30 1026 O 99.1725 0.797243 1.77081 0
M  V30 1027 C 96.3025 1.79462 2.97339 0
M  V30 1028 C 95.2565 2.94558 3.10515 0
M  V30 1029 C 94.5825 2.88105 4.50444 0
M  V30 1030 C 95.8825 4.35227 2.88747 0
M  V30 1031 H 97.5765 2.6378 1.41635 0
M  V30 1032 H 95.1225 1.26936 0.679942 0
M  V30 1033 H 97.0755 1.92734 3.74742 0
M  V30 1034 H 95.7995 0.833412 3.15788 0
M  V30 1035 H 94.4585 2.80918 2.35543 0
M  V30 1036 H 94.1065 1.89853 4.65795 0
M  V30 1037 H 93.8065 3.65366 4.60197 0
M  V30 1038 H 95.3305 3.03412 5.29881 0
M  V30 1039 H 96.7445 4.49449 3.55905 0
M  V30 1040 H 95.1415 5.13856 3.09955 0
M  V30 1041 H 96.2115 4.48347 1.84696 0
M  V30 1042 N 97.5546 -0.734337 1.39446 0
M  V30 1043 C 98.7946 -1.50655 1.38139 0
M  V30 1044 C 99.1586 -1.91986 -0.0228701 0
M  V30 1045 O 100.36 -2.68318 -0.160947 0
M  V30 1046 C 98.6306 -2.71251 2.32718 0
M  V30 1047 S 100.19 -3.60892 2.49605 0
M  V30 1048 H 97.0076 -0.515315 0.489869 0
M  V30 1049 H 99.6096 -0.860392 1.75549 0
M  V30 1050 H 98.3136 -2.39027 3.33608 0
M  V30 1051 H 97.8446 -3.40795 1.96526 0
M  V30 1052 H 99.8596 -4.64899 1.73446 0
M  V30 1053 N 99.0327 -1.24633 -0.964593 0
M  V30 1054 C 100.261 -1.11501 -1.74285 0
M  V30 1055 C 100.676 0.332165 -1.85855 0
M  V30 1056 O 100.033 1.22903 -1.34911 0
M  V30 1057 C 100.084 -1.75258 -3.16175 0
M  V30 1058 O 99.8047 -3.14318 -3.05182 0
M  V30 1059 C 101.306 -1.67776 -4.10324 0
M  V30 1060 H 98.5257 -0.389407 -0.546446 0
M  V30 1061 H 101.07 -1.64801 -1.21083 0
M  V30 1062 H 99.2247 -1.25954 -3.66353 0
M  V30 1063 H 99.6387 -3.4551 -3.94618 0
M  V30 1064 H 101.113 -2.17064 -5.0753 0
M  V30 1065 H 101.59 -0.639584 -4.34518 0
M  V30 1066 H 102.196 -2.16522 -3.66058 0
M  V30 1067 N 100.511 1.16574 -1.06058 0
M  V30 1068 C 101.759 1.86677 -0.77434 0
M  V30 1069 C 102.08 1.81959 0.701147 0
M  V30 1070 O 101.35 1.2515 1.50713 0
M  V30 1071 H 99.9298 0.691134 -0.283449 0
M  V30 1072 H 102.592 1.41378 -1.34158 0
M  V30 1073 H 101.688 2.92181 -1.09711 0
M  V30 1074 N 101.989 0.842826 1.3317 0
M  V30 1075 C 102.937 0.267495 2.31057 0
M  V30 1076 C 103.931 -0.602682 1.58316 0
M  V30 1077 O 105.137 -0.491803 1.73151 0
M  V30 1078 H 101.512 0.0677813 0.748939 0
M  V30 1079 H 103.483 1.10754 2.77085 0
M  V30 1080 C 102.232 -0.539331 3.43492 0
M  V30 1081 H 101.555 0.12095 3.99617 0
M  V30 1082 H 102.995 -0.90767 4.14171 0
M  V30 1083 C 101.454 -1.71981 2.89697 0
M  V30 1084 O 101.984 -2.81862 2.86211 0
M  V30 1085 N 100.19 -1.54299 2.46252 0
M  V30 1086 H 99.7369 -0.649143 2.49287 0
M  V30 1087 H 99.6949 -2.33431 2.10612 0
M  V30 1088 N 103.467 -1.45747 0.599634 0
M  V30 1089 C 104.692 -2.07178 0.0960198 0
M  V30 1090 C 105.117 -1.44268 -1.207 0
M  V30 1091 O 104.475 -0.532503 -1.73303 0
M  V30 1092 C 104.523 -3.60579 -0.0385348 0
M  V30 1093 O 103.627 -3.97713 -1.0908 0
M  V30 1094 H 102.968 -0.660251 0.0704593 0
M  V30 1095 H 105.498 -1.87124 0.827385 0
M  V30 1096 H 105.508 -4.07298 -0.239304 0
M  V30 1097 H 104.183 -4.05756 0.912947 0
M  V30 1098 H 102.76 -3.62678 -0.867135 0
M  V30 1099 N 104.945 -0.338344 -1.53925 0
M  V30 1100 C 106.17 0.263987 -2.05713 0
M  V30 1101 C 106.595 1.43847 -1.21201 0
M  V30 1102 O 105.953 1.79904 -0.224535 0
M  V30 1103 C 106.001 0.662 -3.54471 0
M  V30 1104 O 105.105 1.76265 -3.72833 0
M  V30 1105 H 104.446 0.0448722 -0.662482 0
M  V30 1106 H 106.976 -0.491048 -1.9862 0
M  V30 1107 H 106.986 0.940594 -3.9701 0
M  V30 1108 H 105.661 -0.196937 -4.15433 0
M  V30 1109 H 104.238 1.48173 -3.42198 0
M  V30 1110 N 106.423 1.57458 -0.0668435 0
M  V30 1111 C 107.373 2.0896 0.912119 0
M  V30 1112 C 108.357 0.998186 1.26195 0
M  V30 1113 O 109.549 1.26133 1.24175 0
M  V30 1114 C 106.678 2.6508 2.18145 0
M  V30 1115 C 105.764 3.81218 1.85832 0
M  V30 1116 N 106.155 4.90378 1.23948 0
M  V30 1117 C 104.453 3.9042 2.15612 0
M  V30 1118 C 105.154 5.71279 1.09616 0
M  V30 1119 N 104.13 5.19389 1.60423 0
M  V30 1120 H 107.932 2.90749 0.42924 0
M  V30 1121 H 105.446 1.6182 0.137184 0
M  V30 1122 H 107.443 3.0029 2.89192 0
M  V30 1123 H 106.103 1.84736 2.67025 0
M  V30 1124 H 107.114 5.09847 0.909731 0
M  V30 1125 H 103.791 3.21043 2.66903 0
M  V30 1126 H 105.181 6.69085 0.614425 0
M  V30 1127 N 107.901 -0.206675 1.56239 0
M  V30 1128 C 109.126 -0.949474 1.8439 0
M  V30 1129 C 109.551 -1.76549 0.649016 0
M  V30 1130 O 108.909 -1.76782 -0.402231 0
M  V30 1131 C 108.957 -1.83078 3.10668 0
M  V30 1132 O 108.061 -2.9281 2.90407 0
M  V30 1133 H 107.402 -0.268033 0.607499 0
M  V30 1134 H 109.932 -0.215488 2.03462 0
M  V30 1135 H 109.942 -2.2377 3.41161 0
M  V30 1136 H 108.617 -1.23112 3.97261 0
M  V30 1137 H 107.194 -2.55956 2.71184 0
M  V30 1138 N 109.379 -1.50304 -0.473955 0
M  V30 1139 C 110.604 -1.65175 -1.25427 0
M  V30 1140 C 111.029 -0.333673 -1.85117 0
M  V30 1141 O 110.387 0.702114 -1.67153 0
M  V30 1142 C 110.435 -2.74295 -2.34082 0
M  V30 1143 O 109.539 -2.35349 -3.38651 0
M  V30 1144 H 108.88 -0.551944 -0.369126 0
M  V30 1145 H 111.41 -1.96662 -0.564364 0
M  V30 1146 H 111.42 -2.97285 -2.79438 0
M  V30 1147 H 110.095 -3.69959 -1.90008 0
M  V30 1148 H 108.672 -2.22794 -2.99027 0
M  V30 1149 N 110.857 0.726932 -1.39834 0
M  V30 1150 C 112.103 1.48771 -1.38704 0
M  V30 1151 C 112.458 1.92394 0.0146387 0
M  V30 1152 O 111.751 1.64474 0.982797 0
M  V30 1153 C 111.945 2.73495 -2.30077 0
M  V30 1154 C 111.774 2.42068 -3.78989 0
M  V30 1155 C 110.544 2.33966 -4.4787 0
M  V30 1156 C 112.742 2.0708 -4.70768 0
M  V30 1157 N 110.724 1.95095 -5.82075 0
M  V30 1158 C 112.095 1.78719 -5.93683 0
M  V30 1159 C 114.15 1.93618 -4.58712 0
M  V30 1160 C 112.853 1.3825 -7.05889 0
M  V30 1161 C 114.879 1.54553 -5.70848 0
M  V30 1162 C 114.241 1.27082 -6.92842 0
M  V30 1163 H 110.34 0.542919 -0.562817 0
M  V30 1164 H 112.924 0.84408 -1.75452 0
M  V30 1165 H 111.095 3.35625 -1.95474 0
M  V30 1166 H 112.827 3.39755 -2.19883 0
M  V30 1167 H 109.582 2.51331 -4.0141 0
M  V30 1168 H 110.006 1.7823 -6.53118 0
M  V30 1169 H 114.648 2.13522 -3.64922 0
M  V30 1170 H 112.366 1.17088 -7.99572 0
M  V30 1171 H 115.952 1.44731 -5.6351 0
M  V30 1172 H 114.832 0.973069 -7.78139 0
M  V30 1173 N 112.336 1.25143 0.95797 0
M  V30 1174 C 113.613 1.00472 1.67823 0
M  V30 1175 C 113.993 -0.470056 2.058 0
M  V30 1176 O 113.341 -1.44663 1.76875 0
M  V30 1177 C 113.551 1.9372 2.90299 0
M  V30 1178 C 114.899 2.21371 3.62326 0
M  V30 1179 O 115.923 1.91451 3.00375 0
M  V30 1180 O 114.782 2.72231 4.7387 0
M  V30 1181 H 111.876 0.380752 0.734137 0
M  V30 1182 H 114.422 1.36283 1.01119 0
M  V30 1183 H 113.194 2.93316 2.59001 0
M  V30 1184 H 112.817 1.58286 3.64735 0
M  V30 1185 N 113.814 -1.1601 1.06675 0
M  V30 1186 C 114.762 -2.22586 0.675157 0
M  V30 1187 C 115.756 -1.66525 -0.310766 0
M  V30 1188 O 116.962 -1.79145 -0.175215 0
M  V30 1189 H 113.337 -0.724855 0.200223 0
M  V30 1190 H 115.308 -2.52899 1.58381 0
M  V30 1191 C 114.057 -3.47604 0.0817162 0
M  V30 1192 H 113.38 -3.91058 0.831484 0
M  V30 1193 H 114.82 -4.23718 -0.154708 0
M  V30 1194 C 113.279 -3.15718 -1.17576 0
M  V30 1195 O 113.809 -3.31878 -2.26318 0
M  V30 1196 N 112.015 -2.69816 -1.07923 0
M  V30 1197 H 111.562 -2.56866 -0.194293 0
M  V30 1198 H 111.52 -2.48855 -1.92141 0
M  V30 1199 N 115.292 -0.849877 -1.32721 0
M  V30 1200 C 116.224 -0.248332 -2.27851 0
M  V30 1201 C 117.237 0.577218 -1.52224 0
M  V30 1202 O 118.426 0.402489 -1.73903 0
M  V30 1203 C 115.526 0.668107 -3.32249 0
M  V30 1204 C 114.699 -0.120534 -4.37234 0
M  V30 1205 C 113.758 0.720932 -5.21238 0
M  V30 1206 O 112.784 0.156166 -5.68986 0
M  V30 1207 N 113.986 2.03647 -5.43607 0
M  V30 1208 H 116.751 -1.06575 -2.80111 0
M  V30 1209 H 114.312 -0.709395 -1.45531 0
M  V30 1210 H 116.304 1.23627 -3.85355 0
M  V30 1211 H 114.874 1.38621 -2.80184 0
M  V30 1212 H 114.094 -0.870108 -3.84477 0
M  V30 1213 H 115.382 -0.662406 -5.0447 0
M  V30 1214 H 114.78 2.51871 -5.06535 0
M  V30 1215 H 113.337 2.55287 -5.99727 0
M  V30 1216 N 116.77 1.45427 -0.607355 0
M  V30 1217 C 118.01 2.04128 -0.105458 0
M  V30 1218 C 118.374 1.46555 1.24039 0
M  V30 1219 O 119.575 1.96608 1.833 0
M  V30 1220 C 117.846 3.57338 -0.0665324 0
M  V30 1221 S 119.405 4.37201 0.374207 0
M  V30 1222 H 116.223 0.709278 -0.0494575 0
M  V30 1223 H 118.825 1.78139 -0.805404 0
M  V30 1224 H 117.529 3.96752 -1.04957 0
M  V30 1225 H 117.06 3.87902 0.655415 0
M  V30 1226 H 119.075 4.6888 1.62377 0
M  V30 1227 N 118.248 0.346503 1.53744 0
M  V30 1228 C 119.18 -0.543316 2.22667 0
M  V30 1229 C 120.193 -1.06159 1.23427 0
M  V30 1230 O 121.382 -0.971235 1.49764 0
M  V30 1231 C 118.482 -1.76076 2.89569 0
M  V30 1232 C 117.655 -1.37727 4.15151 0
M  V30 1233 C 116.714 -2.45471 4.65436 0
M  V30 1234 O 115.74 -2.08655 5.29577 0
M  V30 1235 N 116.942 -3.7677 4.41616 0
M  V30 1236 H 119.707 0.0469703 2.99663 0
M  V30 1237 H 117.268 0.170766 1.60997 0
M  V30 1238 H 119.26 -2.47593 3.20125 0
M  V30 1239 H 117.83 -2.25835 2.16142 0
M  V30 1240 H 117.05 -0.492746 3.91108 0
M  V30 1241 H 118.338 -1.09708 4.96832 0
M  V30 1242 H 117.736 -4.09467 3.90325 0
M  V30 1243 H 116.293 -4.44448 4.7677 0
M  V30 1244 N 119.726 -1.57421 0.075193 0
M  V30 1245 C 120.966 -1.95495 -0.596757 0
M  V30 1246 C 121.33 -0.954886 -1.66571 0
M  V30 1247 O 122.531 -1.22341 -2.39345 0
M  V30 1248 C 120.802 -3.382 -1.15566 0
M  V30 1249 S 122.361 -3.98254 -1.84226 0
M  V30 1250 H 119.179 -0.683649 -0.195307 0
M  V30 1251 H 121.781 -1.94925 0.149859 0
M  V30 1252 H 120.485 -4.08766 -0.36588 0
M  V30 1253 H 120.016 -3.42321 -1.93856 0
M  V30 1254 H 122.031 -3.85435 -3.12497 0
M  V30 1255 N 121.204 0.198386 -1.56346 0
M  V30 1256 C 122.432 0.935572 -1.84539 0
M  V30 1257 C 122.847 1.76989 -0.657281 0
M  V30 1258 O 122.204 1.78626 0.374043 0
M  V30 1259 C 122.255 1.8344 -3.11499 0
M  V30 1260 O 121.976 1.03377 -4.25728 0
M  V30 1261 C 123.477 2.68355 -3.52846 0
M  V30 1262 H 120.697 0.273126 -0.612897 0
M  V30 1263 H 123.241 0.20663 -2.03453 0
M  V30 1264 H 121.396 2.51701 -2.94492 0
M  V30 1265 H 121.81 1.64599 -4.98003 0
M  V30 1266 H 123.284 3.27085 -4.44657 0
M  V30 1267 H 123.761 3.41901 -2.75681 0
M  V30 1268 H 124.367 2.05471 -3.72373 0
M  V30 1269 N 122.682 1.50554 0.465978 0
M  V30 1270 C 123.907 1.65838 1.24549 0
M  V30 1271 C 124.332 0.343486 1.84937 0
M  V30 1272 O 123.69 -0.69324 1.67523 0
M  V30 1273 C 123.738 2.75533 2.32624 0
M  V30 1274 O 122.842 2.37142 3.37398 0
M  V30 1275 H 122.183 0.553893 0.366194 0
M  V30 1276 H 124.713 1.96959 0.553927 0
M  V30 1277 H 124.723 2.98763 2.77857 0
M  V30 1278 H 123.398 3.70962 1.88043 0
M  V30 1279 H 121.975 2.24377 2.97841 0
M  V30 1280 N 124.16 -0.719506 1.40217 0
M  V30 1281 C 125.385 -1.51371 1.4178 0
M  V30 1282 C 125.81 -1.88091 0.0182355 0
M  V30 1283 O 125.168 -1.52997 -0.972707 0
M  V30 1284 C 125.216 -2.768 2.31115 0
M  V30 1285 O 124.32 -3.73349 1.7517 0
M  V30 1286 H 123.661 -0.456529 0.482159 0
M  V30 1287 H 126.191 -0.88644 1.844 0
M  V30 1288 H 126.201 -3.25371 2.46167 0
M  V30 1289 H 124.876 -2.49407 3.3282 0
M  V30 1290 H 123.453 -3.32179 1.69444 0
M  V30 1291 N 125.638 -1.25649 -0.95132 0
M  V30 1292 C 126.601 -1.06399 -2.03007 0
M  V30 1293 C 127.601 -0.0156794 -1.60792 0
M  V30 1294 O 128.791 -0.25817 -1.72276 0
M  V30 1295 C 125.923 -0.616184 -3.35285 0
M  V30 1296 H 127.116 -2.02164 -2.21517 0
M  V30 1297 H 124.669 -1.08103 -1.12887 0
M  V30 1298 H 125.404 0.343917 -3.22471 0
M  V30 1299 H 125.189 -1.37301 -3.67275 0
M  V30 1300 H 126.679 -0.503032 -4.14559 0
M  V30 1301 N 127.117 1.15442 -1.07289 0
M  V30 1302 C 128.345 1.90096 -0.81676 0
M  V30 1303 C 128.76 1.7798 0.629966 0
M  V30 1304 O 128.117 1.1313 1.43206 0
M  V30 1305 C 128.168 3.40466 -1.21512 0
M  V30 1306 O 127.889 3.52232 -2.60508 0
M  V30 1307 C 129.39 4.32145 -0.988198 0
M  V30 1308 H 126.61 0.602495 -0.295366 0
M  V30 1309 H 129.154 1.4627 -1.42918 0
M  V30 1310 H 127.309 3.81958 -0.647039 0
M  V30 1311 H 127.723 4.45549 -2.76742 0
M  V30 1312 H 129.197 5.36072 -1.31645 0
M  V30 1313 H 129.674 4.39135 0.0755063 0
M  V30 1314 H 130.28 3.96395 -1.54115 0
M  V30 1315 N 128.595 0.856903 1.32268 0
M  V30 1316 C 130.011 0.547061 1.49931 0
M  V30 1317 C 130.211 -0.921781 1.7918 0
M  V30 1318 O 129.267 -1.70469 1.8627 0
M  V30 1319 C 130.58 1.43599 2.64196 0
M  V30 1320 C 132.128 1.43665 2.78081 0
M  V30 1321 C 132.603 2.31085 3.95428 0
M  V30 1322 N 134.094 2.28893 4.02694 0
M  V30 1323 C 134.829 2.93262 4.92732 0
M  V30 1324 N 134.325 3.66751 5.87763 0
M  V30 1325 N 136.118 2.82638 4.85873 0
M  V30 1326 H 128.269 1.8075 1.11549 0
M  V30 1327 H 130.532 0.772144 0.549997 0
M  V30 1328 H 130.238 2.48058 2.49319 0
M  V30 1329 H 130.112 1.12502 3.60032 0
M  V30 1330 H 132.499 0.399701 2.92381 0
M  V30 1331 H 132.58 1.7878 1.82952 0
M  V30 1332 H 132.224 3.34849 3.81888 0
M  V30 1333 H 132.154 1.93302 4.89839 0
M  V30 1334 H 134.645 1.75466 3.34694 0
M  V30 1335 H 134.958 4.13027 6.53168 0
M  V30 1336 H 133.303 3.70859 5.87783 0
M  V30 1337 H 136.494 2.24774 4.10602 0
M  V30 1338 H 136.667 3.33084 5.55841 0
M  V30 1339 N 130.073 -1.45103 0.615059 0
M  V30 1340 C 131.021 -2.32331 -0.111791 0
M  V30 1341 C 132.015 -1.46409 -0.852102 0
M  V30 1342 O 133.221 -1.62849 -0.766821 0
M  V30 1343 H 129.596 -0.749993 -0.0549072 0
M  V30 1344 H 131.567 -2.91407 0.642225 0
M  V30 1345 C 130.316 -3.3015 -1.09071 0
M  V30 1346 H 129.639 -3.96265 -0.530485 0
M  V30 1347 H 131.079 -3.93898 -1.56908 0
M  V30 1348 C 129.538 -2.57875 -2.168 0
M  V30 1349 O 130.068 -2.36567 -3.24652 0
M  V30 1350 N 128.274 -2.17884 -1.92289 0
M  V30 1351 H 127.821 -2.35413 -1.04587 0
M  V30 1352 H 127.779 -1.6985 -2.64572 0
M  V30 1353 N 131.551 -0.354651 -1.53558 0
M  V30 1354 C 132.779 0.239515 -2.05509 0
M  V30 1355 C 133.194 1.4333 -1.2289 0
M  V30 1356 O 132.551 1.80538 -0.266899 0
M  V30 1357 C 132.602 0.643719 -3.55723 0
M  V30 1358 O 132.323 -0.502602 -4.35207 0
M  V30 1359 C 133.824 1.29743 -4.23889 0
M  V30 1360 H 131.044 0.0442697 -0.669538 0
M  V30 1361 H 133.588 -0.509856 -1.98042 0
M  V30 1362 H 131.743 1.34302 -3.63376 0
M  V30 1363 H 132.157 -0.178172 -5.24197 0
M  V30 1364 H 133.631 1.53091 -5.30346 0
M  V30 1365 H 134.108 2.25441 -3.76926 0
M  V30 1366 H 134.714 0.639865 -4.20459 0
M  V30 1367 N 133.029 1.57378 -0.0835403 0
M  V30 1368 C 134.257 1.98263 0.59157 0
M  V30 1369 C 134.672 0.962302 1.62435 0
M  V30 1370 O 134.029 -0.049581 1.82433 0
M  V30 1371 C 134.08 3.39214 1.24965 0
M  V30 1372 O 133.801 4.37339 0.258186 0
M  V30 1373 C 135.302 3.95038 2.01147 0
M  V30 1374 H 132.522 0.651773 0.159477 0
M  V30 1375 H 135.066 2.03878 -0.159415 0
M  V30 1376 H 133.221 3.34649 1.95164 0
M  V30 1377 H 133.635 5.19371 0.731734 0
M  V30 1378 H 135.109 4.95848 2.42567 0
M  V30 1379 H 135.586 3.32222 2.87272 0
M  V30 1380 H 136.192 4.0304 1.35789 0
M  V30 1381 N 134.507 -0.190092 1.56449 0
M  V30 1382 C 135.454 -1.23557 1.94942 0
M  V30 1383 C 136.424 -1.44972 0.810696 0
M  V30 1384 O 137.609 -1.58023 1.06927 0
M  V30 1385 C 134.749 -2.57416 2.2985 0
M  V30 1386 C 133.862 -2.43537 3.5681 0
M  V30 1387 C 132.997 -3.70134 3.81017 0
M  V30 1388 C 132.036 -3.51109 5.01387 0
M  V30 1389 N 131.173 -4.6973 5.21822 0
M  V30 1390 H 136.013 -0.900304 2.84075 0
M  V30 1391 H 133.55 -0.43318 1.40577 0
M  V30 1392 H 135.508 -3.35409 2.48106 0
M  V30 1393 H 134.138 -2.88975 1.43852 0
M  V30 1394 H 133.19 -1.56816 3.46573 0
M  V30 1395 H 134.502 -2.25415 4.4496 0
M  V30 1396 H 133.656 -4.56566 3.9954 0
M  V30 1397 H 132.395 -3.91215 2.91207 0
M  V30 1398 H 131.4 -2.63063 4.82782 0
M  V30 1399 H 132.625 -3.31468 5.9271 0
M  V30 1400 H 130.571 -4.91065 4.34961 0
M  V30 1401 H 130.488 -4.54452 6.0416 0
M  V30 1402 H 131.756 -5.57499 5.44808 0
M  V30 1403 N 135.985 -1.50799 -0.457987 0
M  V30 1404 C 136.917 -1.66786 -1.57211 0
M  V30 1405 C 137.93 -0.548962 -1.53265 0
M  V30 1406 O 139.119 -0.8226 -1.58416 0
M  V30 1407 C 136.219 -1.64834 -2.96113 0
M  V30 1408 C 135.392 -2.92971 -3.24787 0
M  V30 1409 C 134.451 -2.83485 -4.43309 0
M  V30 1410 O 133.477 -3.5744 -4.42973 0
M  V30 1411 N 134.679 -1.97929 -5.45714 0
M  V30 1412 H 137.444 -2.62889 -1.43909 0
M  V30 1413 H 135.005 -1.48427 -0.646617 0
M  V30 1414 H 136.997 -1.56084 -3.7339 0
M  V30 1415 H 135.567 -0.764118 -3.03117 0
M  V30 1416 H 134.787 -3.15749 -2.36 0
M  V30 1417 H 136.075 -3.77834 -3.40762 0
M  V30 1418 H 135.473 -1.37182 -5.48815 0
M  V30 1419 H 134.03 -1.95073 -6.21924 0
M  V30 1420 N 137.463 0.71206 -1.40597 0
M  V30 1421 C 138.709 1.47416 -1.39271 0
M  V30 1422 C 139.042 1.942 0.00388791 0
M  V30 1423 O 138.317 1.68403 0.973179 0
M  V30 1424 C 138.6 2.69774 -2.38525 0
M  V30 1425 C 138.453 2.28861 -3.87224 0
M  V30 1426 C 139.772 3.71939 -2.35264 0
M  V30 1427 H 136.891 0.534713 -0.5072 0
M  V30 1428 H 139.533 0.812375 -1.71757 0
M  V30 1429 H 137.683 3.26238 -2.10953 0
M  V30 1430 H 139.355 1.77852 -4.25636 0
M  V30 1431 H 137.598 1.60824 -4.02887 0
M  V30 1432 H 138.269 3.16584 -4.52193 0
M  V30 1433 H 140.745 3.25113 -2.59694 0
M  V30 1434 H 139.621 4.55186 -3.06753 0
M  V30 1435 H 139.882 4.20484 -1.36549 0
M  V30 1436 N 138.941 1.26152 0.944643 0
M  V30 1437 C 140.169 1.14259 1.72489 0
M  V30 1438 C 140.584 -0.302555 1.8636 0
M  V30 1439 O 139.941 -1.20741 1.36849 0
M  V30 1440 C 139.992 1.80266 3.13347 0
M  V30 1441 O 139.713 3.19133 3.00143 0
M  V30 1442 C 141.214 1.74283 4.07603 0
M  V30 1443 H 138.434 0.398051 0.540181 0
M  V30 1444 H 140.978 1.66706 1.18446 0
M  V30 1445 H 139.133 1.31766 3.64303 0
M  V30 1446 H 139.547 3.51744 3.89071 0
M  V30 1447 H 141.021 2.25111 5.04013 0
M  V30 1448 H 141.498 0.708631 4.33446 0
M  V30 1449 H 142.104 2.22319 3.62567 0
M  V30 1450 N 140.419 -1.14872 1.07899 0
M  V30 1451 C 141.83 -1.67367 0.827363 0
M  V30 1452 C 142.181 -1.85236 -0.646693 0
M  V30 1453 O 141.306 -1.55974 -1.50004 0
M  V30 1454 C 141.901 -3.04016 1.49532 0
M  V30 1455 C 140.46 -3.53566 1.29106 0
M  V30 1456 C 139.607 -2.29161 1.56143 0
M  V30 1457 H 142.558 -0.990083 1.24028 0
M  V30 1458 H 142.579 -3.69219 0.919643 0
M  V30 1459 H 142.091 -2.90978 2.56814 0
M  V30 1460 H 140.192 -3.71835 0.238713 0
M  V30 1461 H 140.305 -4.34661 2.01511 0
M  V30 1462 H 138.669 -2.34978 0.982717 0
M  V30 1463 H 139.452 -2.18705 2.64619 0
M  V30 1464 N 141.898 -0.863906 -1.31812 0
M  V30 1465 C 142.83 -0.272485 -2.27575 0
M  V30 1466 C 143.843 0.56104 -1.52827 0
M  V30 1467 O 145.032 0.384021 -1.7432 0
M  V30 1468 C 142.132 0.63283 -3.32939 0
M  V30 1469 C 141.305 -0.166902 -4.37081 0
M  V30 1470 C 140.364 0.665608 -5.21973 0
M  V30 1471 O 139.39 0.0958091 -5.69119 0
M  V30 1472 N 140.592 1.9787 -5.45736 0
M  V30 1473 H 143.357 -1.0954 -2.78964 0
M  V30 1474 H 140.918 -0.724791 -1.4477 0
M  V30 1475 H 142.91 1.19532 -3.86645 0
M  V30 1476 H 141.48 1.35642 -2.81638 0
M  V30 1477 H 140.7 -0.910838 -3.83533 0
M  V30 1478 H 141.988 -0.715874 -5.03739 0
M  V30 1479 H 141.386 2.46484 -5.09178 0
M  V30 1480 H 139.943 2.48911 -6.024 0
M  V30 1481 N 143.376 1.44774 -0.622745 0
M  V30 1482 C 144.787 1.85546 -0.207226 0
M  V30 1483 C 145.138 1.52093 1.23944 0
M  V30 1484 O 144.263 0.95492 1.94191 0
M  V30 1485 C 144.858 3.36781 -0.369313 0
M  V30 1486 C 143.417 3.76399 -0.00836847 0
M  V30 1487 C 142.564 2.68664 -0.686651 0
M  V30 1488 H 145.515 1.3536 -0.828454 0
M  V30 1489 H 145.536 3.78453 0.394162 0
M  V30 1490 H 145.048 3.61098 -1.42231 0
M  V30 1491 H 143.149 3.57698 1.04322 0
M  V30 1492 H 143.262 4.7732 -0.412584 0
M  V30 1493 H 141.626 2.54404 -0.122777 0
M  V30 1494 H 142.409 2.95815 -1.74208 0
M  V30 1495 N 144.854 0.36279 1.53368 0
M  V30 1496 C 145.764 -0.492994 2.29362 0
M  V30 1497 C 146.78 -1.09507 1.35219 0
M  V30 1498 O 147.956 -1.10662 1.68273 0
M  V30 1499 C 145.021 -1.61855 3.066 0
M  V30 1500 C 144.082 -1.04429 4.16405 0
M  V30 1501 C 143.315 -2.11621 4.89951 0
M  V30 1502 O 143.538 -3.32684 4.63333 0
M  V30 1503 O 142.472 -1.74835 5.75948 0
M  V30 1504 H 146.298 0.125331 3.03441 0
M  V30 1505 H 143.883 0.127253 1.48857 0
M  V30 1506 H 145.765 -2.27302 3.54841 0
M  V30 1507 H 144.44 -2.22233 2.3536 0
M  V30 1508 H 143.347 -0.353819 3.72423 0
M  V30 1509 H 144.68 -0.485113 4.89804 0
M  V30 1510 N 146.332 -1.57332 0.0918853 0
M  V30 1511 C 147.242 -2.17368 -0.882505 0
M  V30 1512 C 148.258 -1.14226 -1.31257 0
M  V30 1513 O 149.434 -1.46582 -1.38115 0
M  V30 1514 C 146.499 -2.73962 -2.12476 0
M  V30 1515 C 145.56 -3.92048 -1.7492 0
M  V30 1516 C 144.793 -4.45933 -2.93223 0
M  V30 1517 O 145.016 -3.98764 -4.07852 0
M  V30 1518 O 143.95 -5.36999 -2.71875 0
M  V30 1519 H 147.776 -3.01031 -0.40172 0
M  V30 1520 H 145.361 -1.48813 -0.132291 0
M  V30 1521 H 147.243 -3.10147 -2.85283 0
M  V30 1522 H 145.918 -1.93347 -2.59613 0
M  V30 1523 H 144.825 -3.6068 -0.993025 0
M  V30 1524 H 146.158 -4.74017 -1.32548 0
M  V30 1525 N 147.81 0.181792 -1.56548 0
M  V30 1526 C 148.742 1.24956 -1.92142 0
M  V30 1527 C 149.755 1.41022 -0.813422 0
M  V30 1528 O 150.944 1.41212 -1.09186 0
M  V30 1529 C 148.044 2.61981 -2.14987 0
M  V30 1530 C 147.217 2.6735 -3.46183 0
M  V30 1531 C 146.276 3.85664 -3.5798 0
M  V30 1532 O 145.302 3.72148 -4.30691 0
M  V30 1533 N 146.504 5.01683 -2.92053 0
M  V30 1534 H 149.269 0.947329 -2.84334 0
M  V30 1535 H 146.83 0.371629 -1.57577 0
M  V30 1536 H 148.822 3.3958 -2.20154 0
M  V30 1537 H 147.392 2.84637 -1.2923 0
M  V30 1538 H 146.612 1.75925 -3.52766 0
M  V30 1539 H 147.9 2.67939 -4.32534 0
M  V30 1540 H 147.298 5.15564 -2.32832 0
M  V30 1541 H 145.855 5.77181 -3.0283 0
M  V30 1542 N 149.288 1.51039 0.449983 0
M  V30 1543 C 150.235 1.71439 1.54523 0
M  V30 1544 C 151.205 0.555871 1.56522 0
M  V30 1545 O 152.39 0.788871 1.73728 0
M  V30 1546 C 149.53 1.83384 2.92343 0
M  V30 1547 C 148.643 3.10873 2.9997 0
M  V30 1548 C 147.778 3.13488 4.28834 0
M  V30 1549 C 146.817 4.35343 4.30282 0
M  V30 1550 N 145.954 4.35579 5.5065 0
M  V30 1551 H 150.794 2.64934 1.36433 0
M  V30 1552 H 148.331 1.31312 0.662982 0
M  V30 1553 H 150.289 1.88291 3.72293 0
M  V30 1554 H 148.919 0.933086 3.0902 0
M  V30 1555 H 147.971 3.15336 2.12761 0
M  V30 1556 H 149.283 4.00814 2.96901 0
M  V30 1557 H 148.437 3.17241 5.17149 0
M  V30 1558 H 147.176 2.21414 4.34543 0
M  V30 1559 H 146.181 4.3178 3.40362 0
M  V30 1560 H 147.406 5.28668 4.26248 0
M  V30 1561 H 145.352 3.46369 5.57104 0
M  V30 1562 H 145.269 5.19313 5.49409 0
M  V30 1563 H 146.537 4.43507 6.41032 0
M  V30 1564 N 150.766 -0.704594 1.40972 0
M  V30 1565 C 151.676 -1.84856 1.44448 0
M  V30 1566 C 152.692 -1.70726 0.335961 0
M  V30 1567 O 153.868 -1.92799 0.582276 0
M  V30 1568 C 150.933 -3.20758 1.31587 0
M  V30 1569 C 149.994 -3.47063 2.52677 0
M  V30 1570 C 149.227 -4.76481 2.4042 0
M  V30 1571 O 149.45 -5.52341 1.42391 0
M  V30 1572 O 148.384 -5.03367 3.30007 0
M  V30 1573 H 152.21 -1.8488 2.40942 0
M  V30 1574 H 149.795 -0.85647 1.22413 0
M  V30 1575 H 151.677 -4.01913 1.26665 0
M  V30 1576 H 150.352 -3.21438 0.382049 0
M  V30 1577 H 149.259 -2.65873 2.63177 0
M  V30 1578 H 150.592 -3.5119 3.44858 0
M  V30 1579 N 152.244 -1.26651 -0.937939 0
M  V30 1580 C 153.66 -1.03834 -1.21205 0
M  V30 1581 C 153.86 0.234502 -2.00131 0
M  V30 1582 O 152.916 0.942767 -2.3424 0
M  V30 1583 C 154.229 -2.27167 -1.97017 0
M  V30 1584 C 155.777 -2.32101 -2.09996 0
M  V30 1585 C 156.252 -3.55136 -2.8921 0
M  V30 1586 N 157.743 -3.55632 -2.96783 0
M  V30 1587 C 158.478 -4.475 -3.58512 0
M  V30 1588 N 157.974 -5.4966 -4.21717 0
M  V30 1589 N 159.767 -4.35145 -3.55816 0
M  V30 1590 H 151.918 -2.08398 -0.410391 0
M  V30 1591 H 154.181 -0.916031 -0.244114 0
M  V30 1592 H 153.887 -3.19765 -1.46434 0
M  V30 1593 H 153.761 -2.31672 -2.97671 0
M  V30 1594 H 156.148 -1.40015 -2.59769 0
M  V30 1595 H 156.229 -2.31605 -1.08594 0
M  V30 1596 H 155.873 -4.47553 -2.40123 0
M  V30 1597 H 155.803 -3.5288 -3.90875 0
M  V30 1598 H 158.294 -2.81743 -2.51852 0
M  V30 1599 H 158.607 -6.15943 -4.66727 0
M  V30 1600 H 156.952 -5.53514 -4.20294 0
M  V30 1601 H 160.143 -3.5455 -3.05634 0
M  V30 1602 H 160.316 -5.06934 -4.03636 0
M  V30 1603 N 153.722 1.14298 -1.08507 0
M  V30 1604 C 154.669 2.19414 -0.715965 0
M  V30 1605 C 155.639 1.63399 0.298326 0
M  V30 1606 O 156.824 1.89929 0.182101 0
M  V30 1607 C 153.964 3.44845 -0.132534 0
M  V30 1608 C 153.077 4.15007 -1.19973 0
M  V30 1609 C 152.212 5.28024 -0.580048 0
M  V30 1610 C 151.251 5.9002 -1.62921 0
M  V30 1611 N 150.388 6.94485 -1.03125 0
M  V30 1612 H 155.228 2.50336 -1.61666 0
M  V30 1613 H 152.765 1.2293 -0.807882 0
M  V30 1614 H 154.723 4.16601 0.223454 0
M  V30 1615 H 153.353 3.14403 0.731467 0
M  V30 1616 H 152.405 3.41629 -1.67313 0
M  V30 1617 H 153.717 4.57178 -1.99473 0
M  V30 1618 H 152.871 6.06455 -0.172364 0
M  V30 1619 H 151.61 4.87076 0.246603 0
M  V30 1620 H 150.615 5.10291 -2.04654 0
M  V30 1621 H 151.84 6.33042 -2.45835 0
M  V30 1622 H 149.786 6.55612 -0.225711 0
M  V30 1623 H 149.703 7.35148 -1.76334 0
M  V30 1624 H 150.971 7.7679 -0.649458 0
M  V30 1625 N 155.201 0.870884 1.31352 0
M  V30 1626 C 156.429 0.49677 2.00848 0
M  V30 1627 C 156.844 -0.910998 1.65367 0
M  V30 1628 O 156.201 -1.59696 0.883374 0
M  V30 1629 C 156.252 0.645308 3.55694 0
M  V30 1630 O 155.973 1.99764 3.89905 0
M  V30 1631 C 157.474 0.272326 4.42463 0
M  V30 1632 H 154.694 0.193462 0.642506 0
M  V30 1633 H 157.238 1.1723 1.67563 0
M  V30 1634 H 155.393 0.0173176 3.87396 0
M  V30 1635 H 155.807 2.00607 4.84621 0
M  V30 1636 H 157.281 0.427208 5.50344 0
M  V30 1637 H 157.758 -0.788587 4.32062 0
M  V30 1638 H 158.364 0.876054 4.1618 0
M  V30 1639 N 156.679 -1.44442 0.630414 0
M  V30 1640 C 157.907 -2.06414 0.141671 0
M  V30 1641 C 158.322 -1.47105 -1.18345 0
M  V30 1642 O 157.679 -0.593662 -1.72574 0
M  V30 1643 C 157.73 -3.61494 0.0199784 0
M  V30 1644 O 157.451 -4.18594 1.29269 0
M  V30 1645 C 158.952 -4.40499 -0.497544 0
M  V30 1646 H 156.172 -0.666292 0.0793452 0
M  V30 1647 H 158.716 -1.85323 0.864614 0
M  V30 1648 H 156.871 -3.8185 -0.653402 0
M  V30 1649 H 157.285 -5.12026 1.13707 0
M  V30 1650 H 158.759 -5.49433 -0.531708 0
M  V30 1651 H 159.236 -4.11895 -1.52445 0
M  V30 1652 H 159.842 -4.25061 0.142562 0
M  V30 1653 N 158.157 -0.370918 -1.53173 0
M  V30 1654 C 159.067 0.480823 -2.2962 0
M  V30 1655 C 160.083 1.08789 -1.35798 0
M  V30 1656 O 161.259 1.09768 -1.68858 0
M  V30 1657 C 158.324 1.60227 -3.07454 0
M  V30 1658 C 157.385 1.0222 -4.16953 0
M  V30 1659 C 156.618 2.0902 -4.91066 0
M  V30 1660 O 156.841 3.30222 -4.65091 0
M  V30 1661 O 155.775 1.71778 -5.76867 0
M  V30 1662 H 159.601 -0.141421 -3.03371 0
M  V30 1663 H 157.186 -0.135146 -1.48787 0
M  V30 1664 H 159.068 2.25417 -3.56041 0
M  V30 1665 H 157.743 2.20982 -2.36535 0
M  V30 1666 H 156.65 0.334064 -3.72605 0
M  V30 1667 H 157.983 0.459131 -4.90054 0
M  V30 1668 N 159.635 1.57281 -0.100228 0
M  V30 1669 C 160.568 2.09976 0.893612 0
M  V30 1670 C 161.546 1.01155 1.27304 0
M  V30 1671 O 162.73 1.28687 1.37739 0
M  V30 1672 C 159.857 2.58098 2.19324 0
M  V30 1673 C 158.903 3.78626 1.96328 0
M  V30 1674 S 159.736 5.21959 1.19662 0
M  V30 1675 C 160.892 5.73435 2.50844 0
M  V30 1676 H 161.125 2.93946 0.44534 0
M  V30 1677 H 158.658 1.53985 0.113167 0
M  V30 1678 H 160.616 2.8648 2.94005 0
M  V30 1679 H 159.277 1.74344 2.61272 0
M  V30 1680 H 158.47 4.10382 2.92579 0
M  V30 1681 H 158.072 3.50763 1.29775 0
M  V30 1682 H 160.364 5.82015 3.46792 0
M  V30 1683 H 161.307 6.7185 2.23659 0
M  V30 1684 H 161.715 5.01395 2.59352 0
M  V30 1685 N 161.113 -0.173488 1.56642 0
M  V30 1686 C 162.045 -1.23935 1.92802 0
M  V30 1687 C 163.058 -1.40589 0.820889 0
M  V30 1688 O 164.247 -1.40631 1.09933 0
M  V30 1689 C 161.347 -2.60837 2.16373 0
M  V30 1690 C 160.52 -2.6551 3.47596 0
M  V30 1691 C 159.579 -3.8376 3.60021 0
M  V30 1692 O 158.605 -3.69859 4.32658 0
M  V30 1693 N 159.807 -5.00127 2.94709 0
M  V30 1694 H 162.572 -0.932236 2.84832 0
M  V30 1695 H 160.133 -0.363268 1.57772 0
M  V30 1696 H 162.125 -3.38407 2.21952 0
M  V30 1697 H 160.695 -2.83948 1.30738 0
M  V30 1698 H 159.915 -1.74052 3.53694 0
M  V30 1699 H 161.203 -2.65641 4.33949 0
M  V30 1700 H 160.601 -5.14322 2.35563 0
M  V30 1701 H 159.158 -5.75567 3.05886 0
M  V30 1702 N 162.591 -1.51276 -0.441967 0
M  V30 1703 C 163.816 -1.67799 -1.21895 0
M  V30 1704 C 164.241 -0.372864 -1.84367 0
M  V30 1705 O 163.599 0.666501 -1.68604 0
M  V30 1706 C 163.647 -2.79199 -2.28211 0
M  V30 1707 O 162.751 -2.42479 -3.33583 0
M  V30 1708 H 162.092 -0.559649 -0.357336 0
M  V30 1709 H 164.622 -1.97815 -0.522522 0
M  V30 1710 H 164.632 -3.03146 -2.73069 0
M  V30 1711 H 163.307 -3.73906 -1.82118 0
M  V30 1712 H 161.884 -2.29087 -2.94234 0
M  V30 1713 N 164.069 0.697108 -1.41344 0
M  V30 1714 C 165.48 1.27697 -1.36199 0
M  V30 1715 C 165.831 1.9615 -0.0443463 0
M  V30 1716 O 164.956 1.98689 0.857419 0
M  V30 1717 C 165.551 2.32223 -2.46694 0
M  V30 1718 C 164.11 2.8579 -2.44952 0
M  V30 1719 C 163.257 1.59807 -2.26621 0
M  V30 1720 H 166.208 0.491968 -1.50882 0
M  V30 1721 H 166.229 3.1348 -2.15664 0
M  V30 1722 H 165.741 1.82373 -3.42581 0
M  V30 1723 H 163.842 3.3982 -1.52817 0
M  V30 1724 H 163.955 3.36325 -3.41207 0
M  V30 1725 H 162.319 1.8556 -1.7447 0
M  V30 1726 H 163.102 1.11956 -3.24532 0
M  V30 1727 N 165.547 1.27147 0.931209 0
M  V30 1728 C 166.48 1.0389 2.0318 0
M  V30 1729 C 167.458 -0.0395716 1.62552 0
M  V30 1730 O 168.642 0.104867 1.88208 0
M  V30 1731 C 165.769 0.575227 3.3378 0
M  V30 1732 C 164.815 1.64774 3.93385 0
M  V30 1733 S 165.648 3.23933 4.26413 0
M  V30 1734 C 166.804 2.79358 5.60098 0
M  V30 1735 H 167.037 1.97075 2.22596 0
M  V30 1736 H 164.57 1.10938 1.07387 0
M  V30 1737 H 166.528 0.314385 4.09294 0
M  V30 1738 H 165.189 -0.336505 3.12292 0
M  V30 1739 H 164.382 1.27454 4.87618 0
M  V30 1740 H 163.984 1.86048 3.24441 0
M  V30 1741 H 166.276 2.24443 6.39243 0
M  V30 1742 H 167.219 3.72322 6.02314 0
M  V30 1743 H 167.627 2.1861 5.20452 0
M  V30 1744 N 167.025 -1.13721 1.09112 0
M  V30 1745 C 167.957 -2.1871 0.685467 0
M  V30 1746 C 168.97 -1.60527 -0.271068 0
M  V30 1747 O 170.159 -1.78407 -0.0576148 0
M  V30 1748 C 167.259 -3.38898 -0.0111255 0
M  V30 1749 C 166.432 -4.26597 0.966131 0
M  V30 1750 C 165.491 -5.25324 0.303539 0
M  V30 1751 O 164.517 -5.61213 0.950177 0
M  V30 1752 N 165.719 -5.72779 -0.943651 0
M  V30 1753 H 168.484 -2.54126 1.58871 0
M  V30 1754 H 166.045 -1.29012 0.978143 0
M  V30 1755 H 168.037 -4.02014 -0.465517 0
M  V30 1756 H 166.607 -3.01747 -0.816565 0
M  V30 1757 H 165.827 -3.60306 1.59917 0
M  V30 1758 H 167.115 -4.82048 1.6281 0
M  V30 1759 H 166.513 -5.45762 -1.48862 0
M  V30 1760 H 165.07 -6.37847 -1.34142 0
M  V30 1761 N 168.503 -0.877838 -1.30888 0
M  V30 1762 C 169.914 -0.544193 -1.78593 0
M  V30 1763 C 170.265 0.939301 -1.72254 0
M  V30 1764 O 169.39 1.7337 -1.29505 0
M  V30 1765 C 169.985 -0.98105 -3.24285 0
M  V30 1766 C 168.544 -0.698935 -3.69854 0
M  V30 1767 C 167.691 -1.168 -2.51502 0
M  V30 1768 H 170.642 -1.06278 -1.17859 0
M  V30 1769 H 170.663 -0.307009 -3.79259 0
M  V30 1770 H 170.175 -2.06079 -3.28866 0
M  V30 1771 H 168.276 0.369112 -3.70767 0
M  V30 1772 H 168.389 -1.28148 -4.61644 0
M  V30 1773 H 166.753 -0.587535 -2.47831 0
M  V30 1774 H 167.536 -2.25533 -2.58824 0
M  V30 1775 N 169.982 1.44106 -0.638065 0
M  V30 1776 C 171.228 2.02277 -0.145546 0
M  V30 1777 C 171.561 1.50125 1.23191 0
M  V30 1778 O 170.836 0.688133 1.8192 0
M  V30 1779 C 171.119 3.59829 -0.139791 0
M  V30 1780 C 170.972 4.22247 -1.55008 0
M  V30 1781 C 172.291 4.36873 0.531966 0
M  V30 1782 H 169.41 0.734992 -0.0543632 0
M  V30 1783 H 172.052 1.71592 -0.815863 0
M  V30 1784 H 170.202 3.86102 0.431007 0
M  V30 1785 H 171.874 4.07057 -2.1703 0
M  V30 1786 H 170.117 3.79476 -2.10191 0
M  V30 1787 H 170.788 5.31284 -1.49804 0
M  V30 1788 H 173.264 4.16074 0.0464781 0
M  V30 1789 H 172.14 5.4657 0.505206 0
M  V30 1790 H 172.401 4.11995 1.60352 0
M  V30 1791 N 171.46 0.379036 1.52974 0
M  V30 1792 C 172.737 -0.263479 1.93817 0
M  V30 1793 C 173.117 -1.65244 1.31368 0
M  V30 1794 O 172.465 -2.23448 0.477856 0
M  V30 1795 C 172.675 -0.300166 3.47707 0
M  V30 1796 C 174.023 -0.534061 4.21228 0
M  V30 1797 O 175.047 -0.38081 3.54159 0
M  V30 1798 O 173.906 -0.833501 5.40106 0
M  V30 1799 H 171 -0.161149 0.811147 0
M  V30 1800 H 173.546 0.432798 1.64088 0
M  V30 1801 H 172.318 0.673138 3.85467 0
M  V30 1802 H 171.941 -1.04179 3.83709 0
M  V30 1803 N 172.938 -1.57226 0.108567 0
M  V30 1804 C 173.87 -2.11809 -0.875752 0
M  V30 1805 C 174.883 -1.05839 -1.23701 0
M  V30 1806 O 176.072 -1.33245 -1.18778 0
M  V30 1807 C 173.172 -2.59411 -2.18081 0
M  V30 1808 C 172.345 -3.89364 -1.99284 0
M  V30 1809 C 171.404 -4.22672 -3.13424 0
M  V30 1810 O 170.43 -4.91668 -2.86795 0
M  V30 1811 N 171.632 -3.79154 -4.3957 0
M  V30 1812 H 174.397 -2.9689 -0.409477 0
M  V30 1813 H 171.958 -1.61721 -0.076158 0
M  V30 1814 H 173.95 -2.7873 -2.93414 0
M  V30 1815 H 172.52 -1.79268 -2.5609 0
M  V30 1816 H 171.74 -3.79059 -1.08203 0
M  V30 1817 H 173.028 -4.74358 -1.84017 0
M  V30 1818 H 172.426 -3.23486 -4.64083 0
M  V30 1819 H 170.983 -4.03602 -5.11809 0
M  V30 1820 N 174.416 0.165178 -1.56732 0
M  V30 1821 C 175.379 1.18822 -1.95995 0
M  V30 1822 C 176.379 1.3685 -0.84431 0
M  V30 1823 O 177.569 1.34152 -1.11126 0
M  V30 1824 C 174.701 2.5521 -2.26011 0
M  V30 1825 H 175.894 0.851825 -2.87548 0
M  V30 1826 H 173.447 0.407857 -1.50885 0
M  V30 1827 H 174.182 2.93852 -1.37191 0
M  V30 1828 H 173.967 2.43489 -3.07336 0
M  V30 1829 H 175.457 3.28927 -2.57288 0
M  V30 1830 N 175.894 1.51508 0.433938 0
M  V30 1831 C 177.119 1.68443 1.21003 0
M  V30 1832 C 177.544 0.382636 1.84167 0
M  V30 1833 O 176.902 -0.65755 1.68956 0
M  V30 1834 C 176.95 2.80405 2.26727 0
M  V30 1835 O 176.054 2.44245 3.32292 0
M  V30 1836 H 175.395 0.561536 0.354363 0
M  V30 1837 H 177.925 1.9809 0.512024 0
M  V30 1838 H 177.935 3.0459 2.71457 0
M  V30 1839 H 176.61 3.74867 1.80132 0
M  V30 1840 H 175.187 2.30644 2.93015 0
M  V30 1841 N 177.372 -0.689602 1.41712 0
M  V30 1842 C 178.302 -1.81577 1.46806 0
M  V30 1843 C 179.283 -1.66945 0.326105 0
M  V30 1844 O 180.468 -1.86588 0.538377 0
M  V30 1845 C 177.598 -3.19762 1.35535 0
M  V30 1846 C 176.552 -3.49107 2.47605 0
M  V30 1847 C 175.878 -4.86711 2.21397 0
M  V30 1848 C 177.178 -3.47483 3.89939 0
M  V30 1849 H 178.872 -1.7757 2.41058 0
M  V30 1850 H 176.418 -0.852887 1.16025 0
M  V30 1851 H 178.371 -3.98263 1.3771 0
M  V30 1852 H 177.095 -3.24409 0.377708 0
M  V30 1853 H 175.754 -2.72959 2.44722 0
M  V30 1854 H 175.402 -4.8799 1.21961 0
M  V30 1855 H 175.102 -5.0731 2.96497 0
M  V30 1856 H 176.626 -5.67515 2.25297 0
M  V30 1857 H 178.04 -4.1598 3.94505 0
M  V30 1858 H 176.437 -3.79615 4.64771 0
M  V30 1859 H 177.507 -2.46341 4.17665 0
M  V30 1860 N 178.85 -1.27639 -0.924453 0
M  V30 1861 C 180.261 -1.12834 -1.48746 0
M  V30 1862 C 180.612 0.285505 -1.94112 0
M  V30 1863 O 179.737 1.17874 -1.81479 0
M  V30 1864 C 180.332 -2.04217 -2.70334 0
M  V30 1865 C 178.891 -1.93509 -3.22848 0
M  V30 1866 C 178.038 -1.96583 -1.95577 0
M  V30 1867 H 180.989 -1.40484 -0.738233 0
M  V30 1868 H 181.01 -1.59989 -3.4523 0
M  V30 1869 H 180.522 -3.07111 -2.37285 0
M  V30 1870 H 178.623 -0.936131 -3.60649 0
M  V30 1871 H 178.736 -2.79917 -3.88823 0
M  V30 1872 H 177.1 -1.4085 -2.12211 0
M  V30 1873 H 177.883 -3.01137 -1.64837 0
M  V30 1874 N 180.328 1.1314 -1.09713 0
M  V30 1875 C 181.576 1.84119 -0.833338 0
M  V30 1876 C 181.897 1.84097 0.642904 0
M  V30 1877 O 181.167 1.29881 1.46655 0
M  V30 1878 H 179.747 0.681766 -0.305293 0
M  V30 1879 H 182.409 1.37038 -1.38588 0
M  V30 1880 H 181.505 2.88543 -1.18951 0
M  V30 1881 N 181.806 0.884767 1.30421 0
M  V30 1882 C 182.756 0.322846 2.25703 0
M  V30 1883 C 183.74 -0.548582 1.51259 0
M  V30 1884 O 184.932 -0.39304 1.72581 0
M  V30 1885 C 182.061 -0.461787 3.4018 0
M  V30 1886 C 181.147 0.423717 4.21978 0
M  V30 1887 N 181.538 1.52408 4.82292 0
M  V30 1888 C 179.836 0.218795 4.45463 0
M  V30 1889 C 180.537 2.07136 5.43571 0
M  V30 1890 N 179.513 1.36635 5.26148 0
M  V30 1891 H 183.315 1.16363 2.69883 0
M  V30 1892 H 180.829 0.73415 1.44859 0
M  V30 1893 H 182.826 -0.880985 4.07485 0
M  V30 1894 H 181.486 -1.30001 2.9754 0
M  V30 1895 H 182.497 1.90693 4.81515 0
M  V30 1896 H 179.174 -0.582275 4.1342 0
M  V30 1897 H 180.564 2.99538 6.01437 0
M  V30 1898 N 183.284 -1.43765 0.645699 0
M  V30 1899 C 184.524 -2.03776 0.159542 0
M  V30 1900 C 184.888 -1.49792 -1.2011 0
M  V30 1901 O 186.089 -2.01398 -1.78023 0
M  V30 1902 C 184.36 -3.57036 0.161251 0
M  V30 1903 S 185.919 -4.3804 -0.258159 0
M  V30 1904 H 182.737 -0.707717 0.0682454 0
M  V30 1905 H 185.339 -1.75941 0.852352 0
M  V30 1906 H 184.043 -3.9383 1.15439 0
M  V30 1907 H 183.574 -3.89503 -0.552339 0
M  V30 1908 H 185.589 -4.7302 -1.49889 0
M  V30 1909 N 184.763 -0.387143 -1.52771 0
M  V30 1910 C 186.179 -0.037007 -1.59557 0
M  V30 1911 C 186.379 1.44801 -1.40124 0
M  V30 1912 O 185.435 2.21227 -1.21716 0
M  V30 1913 C 186.748 -0.512256 -2.96305 0
M  V30 1914 C 188.296 -0.468328 -3.09476 0
M  V30 1915 C 188.771 -0.919731 -4.4867 0
M  V30 1916 N 190.262 -0.875656 -4.54848 0
M  V30 1917 C 190.997 -1.19637 -5.6078 0
M  V30 1918 N 190.493 -1.58745 -6.74368 0
M  V30 1919 N 192.286 -1.11776 -5.50874 0
M  V30 1920 H 184.437 -1.35395 -1.63652 0
M  V30 1921 H 186.7 -0.554818 -0.768688 0
M  V30 1922 H 186.406 -1.54935 -3.15734 0
M  V30 1923 H 186.28 0.089805 -3.77093 0
M  V30 1924 H 188.667 0.559671 -2.89744 0
M  V30 1925 H 188.748 -1.10616 -2.30646 0
M  V30 1926 H 188.392 -1.94595 -4.69143 0
M  V30 1927 H 188.322 -0.258927 -5.25963 0
M  V30 1928 H 190.813 -0.587843 -3.733 0
M  V30 1929 H 191.126 -1.81586 -7.51163 0
M  V30 1930 H 189.471 -1.6263 -6.75705 0
M  V30 1931 H 192.662 -0.811264 -4.61016 0
M  V30 1932 H 192.835 -1.37103 -6.3333 0
M  V30 1933 N 186.241 1.57166 -0.116904 0
M  V30 1934 C 187.151 2.18745 0.847812 0
M  V30 1935 C 188.167 1.163 1.29423 0
M  V30 1936 O 189.343 1.48761 1.35765 0
M  V30 1937 C 186.408 2.77307 2.0809 0
M  V30 1938 C 185.469 3.94781 1.68661 0
M  V30 1939 C 184.702 4.50541 2.86091 0
M  V30 1940 O 184.925 4.05202 4.01456 0
M  V30 1941 O 183.859 5.41256 2.63298 0
M  V30 1942 H 187.685 3.01632 0.353778 0
M  V30 1943 H 185.27 1.49005 0.108599 0
M  V30 1944 H 187.152 3.14647 2.80313 0
M  V30 1945 H 185.827 1.97452 2.56504 0
M  V30 1946 H 184.734 3.62214 0.935518 0
M  V30 1947 H 186.067 4.76065 1.24991 0
M  V30 1948 N 187.719 -0.156864 1.56817 0
M  V30 1949 C 189.13 -0.717916 1.72345 0
M  V30 1950 C 189.481 -1.82124 0.729747 0
M  V30 1951 O 188.606 -2.16141 -0.105781 0
M  V30 1952 C 189.201 -1.30904 3.12489 0
M  V30 1953 C 187.76 -1.81676 3.29653 0
M  V30 1954 C 186.907 -0.701349 2.68284 0
M  V30 1955 H 189.858 0.0686989 1.58551 0
M  V30 1956 H 189.879 -2.17882 3.11942 0
M  V30 1957 H 189.391 -0.505796 3.8479 0
M  V30 1958 H 187.492 -2.64598 2.62333 0
M  V30 1959 H 187.605 -1.95226 4.3752 0
M  V30 1960 H 185.969 -1.12548 2.28484 0
M  V30 1961 H 186.752 0.0902846 3.43181 0
M  V30 1962 N 189.197 -1.51736 -0.425897 0
M  V30 1963 C 190.608 -1.5732 -1.00536 0
M  V30 1964 C 190.959 -0.403537 -1.92005 0
M  V30 1965 O 190.084 0.478256 -2.11049 0
M  V30 1966 C 190.679 -2.85119 -1.8301 0
M  V30 1967 C 189.238 -2.93236 -2.35987 0
M  V30 1968 C 188.385 -2.52098 -1.15508 0
M  V30 1969 H 191.336 -1.57348 -0.206739 0
M  V30 1970 H 191.357 -2.69526 -2.68581 0
M  V30 1971 H 190.869 -3.7023 -1.16411 0
M  V30 1972 H 188.97 -2.12581 -3.06007 0
M  V30 1973 H 189.083 -3.9713 -2.68001 0
M  V30 1974 H 187.447 -2.05558 -1.50393 0
M  V30 1975 H 188.23 -3.39565 -0.505014 0
M  V30 1976 N 190.675 0.682077 -1.42076 0
M  V30 1977 C 192.086 1.26246 -1.37546 0
M  V30 1978 C 192.437 1.96092 -0.0651481 0
M  V30 1979 O 191.562 1.99587 0.836297 0
M  V30 1980 C 192.157 2.29594 -2.49143 0
M  V30 1981 C 190.716 2.83175 -2.47969 0
M  V30 1982 C 189.863 1.57395 -2.28303 0
M  V30 1983 H 192.814 0.475937 -1.51395 0
M  V30 1984 H 192.835 3.11175 -2.18976 0
M  V30 1985 H 192.347 1.78729 -3.44496 0
M  V30 1986 H 190.448 3.3818 -1.56413 0
M  V30 1987 H 190.561 3.32687 -3.44755 0
M  V30 1988 H 188.925 1.83699 -1.76428 0
M  V30 1989 H 189.708 1.08507 -3.25701 0
M  V30 1990 N 192.153 1.28127 0.917671 0
M  V30 1991 C 193.399 1.16232 1.66918 0
M  V30 1992 C 193.754 -0.28701 1.90247 0
M  V30 1993 O 193.047 -1.20586 1.48895 0
M  V30 1994 C 193.241 1.89018 3.03327 0
M  V30 1995 C 193.07 3.4088 2.9331 0
M  V30 1996 C 191.84 4.10214 2.95047 0
M  V30 1997 C 194.038 4.36689 2.71675 0
M  V30 1998 N 192.02 5.48571 2.75577 0
M  V30 1999 C 193.391 5.62382 2.6101 0
M  V30 2000 C 195.446 4.26661 2.56641 0
M  V30 2001 C 194.149 6.79189 2.36843 0
M  V30 2002 C 196.175 5.432 2.33853 0
M  V30 2003 C 195.537 6.67855 2.23939 0
M  V30 2004 H 191.636 0.48024 0.617166 0
M  V30 2005 H 194.22 1.61727 1.08409 0
M  V30 2006 H 192.391 1.45963 3.59929 0
M  V30 2007 H 194.123 1.69541 3.67475 0
M  V30 2008 H 190.878 3.61762 3.05655 0
M  V30 2009 H 191.302 6.21287 2.68945 0
M  V30 2010 H 195.944 3.30998 2.63059 0
M  V30 2011 H 193.662 7.74926 2.29164 0
M  V30 2012 H 197.248 5.37328 2.23091 0
M  V30 2013 H 196.128 7.56511 2.06546 0
M  V30 2014 N 193.631 -1.12557 1.10312 0
M  V30 2015 C 194.541 -2.21841 0.763142 0
M  V30 2016 C 195.557 -1.72354 -0.238801 0
M  V30 2017 O 196.733 -2.01249 -0.0778746 0
M  V30 2018 C 193.798 -3.46131 0.198632 0
M  V30 2019 C 192.859 -4.10464 1.25769 0
M  V30 2020 C 192.092 -5.28821 0.72002 0
M  V30 2021 O 192.315 -5.6859 -0.453993 0
M  V30 2022 O 191.249 -5.83437 1.47935 0
M  V30 2023 H 195.075 -2.53312 1.67532 0
M  V30 2024 H 192.66 -1.20867 0.878157 0
M  V30 2025 H 194.542 -4.2125 -0.112401 0
M  V30 2026 H 193.217 -3.16338 -0.686419 0
M  V30 2027 H 192.124 -3.3713 1.62156 0
M  V30 2028 H 193.457 -4.44408 2.11571 0
M  V30 2029 N 195.109 -0.891671 -1.2995 0
M  V30 2030 C 196.057 -0.353066 -2.29905 0
M  V30 2031 C 197.051 0.543509 -1.60444 0
M  V30 2032 O 198.257 0.4272 -1.74857 0
M  V30 2033 H 194.632 -0.095531 -0.745907 0
M  V30 2034 H 196.603 -1.20961 -2.72784 0
M  V30 2035 C 195.352 0.411475 -3.45257 0
M  V30 2036 H 194.675 -0.269182 -3.98893 0
M  V30 2037 H 196.115 0.753328 -4.17254 0
M  V30 2038 C 194.574 1.6111 -2.9588 0
M  V30 2039 O 195.104 2.71045 -2.96475 0
M  V30 2040 N 193.31 1.45054 -2.51809 0
M  V30 2041 H 192.857 0.556175 -2.51524 0
M  V30 2042 H 192.815 2.25453 -2.1913 0
M  V30 2043 N 196.587 1.43421 -0.653314 0
M  V30 2044 C 197.497 2.34568 0.0388565 0
M  V30 2045 C 198.513 1.53888 0.81207 0
M  V30 2046 O 199.689 1.86539 0.759294 0
M  V30 2047 C 196.754 3.32167 0.993269 0
M  V30 2048 C 195.815 4.28751 0.216977 0
M  V30 2049 C 195.048 5.21688 1.12593 0
M  V30 2050 O 195.271 5.19052 2.36519 0
M  V30 2051 O 194.205 5.98919 0.598284 0
M  V30 2052 H 198.031 2.95251 -0.711386 0
M  V30 2053 H 195.616 1.43564 -0.413502 0
M  V30 2054 H 197.498 3.92183 1.54176 0
M  V30 2055 H 196.173 2.73987 1.72374 0
M  V30 2056 H 195.08 3.72215 -0.375101 0
M  V30 2057 H 196.413 4.89913 -0.473924 0
M  V30 2058 N 198.065 0.39524 1.52563 0
M  V30 2059 C 199.028 -0.425001 2.25225 0
M  V30 2060 C 200.028 -0.985266 1.27079 0
M  V30 2061 O 201.218 -0.866332 1.5113 0
M  V30 2062 C 198.35 -1.59686 3.01186 0
M  V30 2063 H 199.543 0.211233 2.99155 0
M  V30 2064 H 197.096 0.147472 1.55603 0
M  V30 2065 H 197.831 -2.27035 2.31572 0
M  V30 2066 H 197.616 -1.20176 3.73229 0
M  V30 2067 H 199.106 -2.17743 3.5634 0
M  V30 2068 N 199.544 -1.57102 0.125237 0
M  V30 2069 C 200.772 -1.99761 -0.538797 0
M  V30 2070 C 201.187 -1.00503 -1.59827 0
M  V30 2071 O 200.544 0.00119474 -1.825 0
M  V30 2072 C 200.595 -3.42408 -1.15927 0
M  V30 2073 O 200.316 -4.37869 -0.142143 0
M  V30 2074 C 201.817 -4.00232 -1.90602 0
M  V30 2075 H 199.037 -0.655772 -0.14214 0
M  V30 2076 H 201.581 -2.03383 0.213413 0
M  V30 2077 H 199.736 -3.39706 -1.86223 0
M  V30 2078 H 200.15 -5.21128 -0.593775 0
M  V30 2079 H 201.624 -5.02105 -2.29335 0
M  V30 2080 H 202.101 -3.39721 -2.78363 0
M  V30 2081 H 202.707 -4.06499 -1.25055 0
M  V30 2082 N 201.022 0.148545 -1.56898 0
M  V30 2083 C 201.932 1.20293 -2.01412 0
M  V30 2084 C 202.948 1.47107 -0.929273 0
M  V30 2085 O 204.124 1.58807 -1.23863 0
M  V30 2086 C 201.189 2.51682 -2.38447 0
M  V30 2087 C 200.25 2.32529 -3.60872 0
M  V30 2088 C 199.483 3.57653 -3.96132 0
M  V30 2089 O 199.706 4.63771 -3.32073 0
M  V30 2090 O 198.64 3.50408 -4.89385 0
M  V30 2091 H 202.466 0.855025 -2.91416 0
M  V30 2092 H 200.051 0.357151 -1.45068 0
M  V30 2093 H 201.933 3.29147 -2.63135 0
M  V30 2094 H 200.608 2.86006 -1.51599 0
M  V30 2095 H 199.515 1.53019 -3.41373 0
M  V30 2096 H 200.848 2.03121 -4.48333 0
M  V30 2097 N 202.5 1.5196 0.417844 0
M  V30 2098 C 203.916 1.40569 0.755816 0
M  V30 2099 C 204.116 0.503316 1.95113 0
M  V30 2100 O 203.172 -0.0341925 2.52477 0
M  V30 2101 C 204.485 2.82947 1.01791 0
M  V30 2102 C 206.033 2.92231 1.12116 0
M  V30 2103 C 206.508 4.35559 1.41608 0
M  V30 2104 N 207.999 4.38753 1.48491 0
M  V30 2105 C 208.734 5.46705 1.7292 0
M  V30 2106 N 208.23 6.64788 1.95011 0
M  V30 2107 N 210.023 5.34209 1.74863 0
M  V30 2108 H 202.174 2.09168 -0.369098 0
M  V30 2109 H 204.437 0.942409 -0.102809 0
M  V30 2110 H 204.143 3.5106 0.212081 0
M  V30 2111 H 204.017 3.23462 1.94042 0
M  V30 2112 H 206.404 2.24304 1.9176 0
M  V30 2113 H 206.485 2.55185 0.177225 0
M  V30 2114 H 206.129 5.04042 0.624848 0
M  V30 2115 H 206.059 4.70133 2.37239 0
M  V30 2116 H 208.55 3.5363 1.33244 0
M  V30 2117 H 208.863 7.42845 2.13076 0
M  V30 2118 H 207.208 6.67869 1.92293 0
M  V30 2119 H 210.399 4.40937 1.57137 0
M  V30 2120 H 210.572 6.18415 1.93563 0
M  V30 2121 N 203.978 -0.674533 1.42435 0
M  V30 2122 C 205.227 -1.43034 1.42212 0
M  V30 2123 C 205.54 -1.95555 0.0420788 0
M  V30 2124 O 206.746 -2.71374 -0.0827558 0
M  V30 2125 C 205.202 -2.58748 2.50155 0
M  V30 2126 C 204.81 -2.12925 3.94166 0
M  V30 2127 C 206.554 -3.36257 2.59098 0
M  V30 2128 C 204.461 -3.25723 4.93618 0
M  V30 2129 H 203.391 -0.537345 0.528939 0
M  V30 2130 H 206.042 -0.73024 1.68344 0
M  V30 2131 H 204.424 -3.31128 2.17188 0
M  V30 2132 H 205.598 -1.47697 4.36488 0
M  V30 2133 H 203.913 -1.48354 3.89076 0
M  V30 2134 H 206.51 -4.20264 3.30578 0
M  V30 2135 H 206.853 -3.82866 1.63461 0
M  V30 2136 H 207.386 -2.70947 2.9126 0
M  V30 2137 H 204.125 -2.84105 5.90732 0
M  V30 2138 H 203.645 -3.89732 4.55926 0
M  V30 2139 H 205.324 -3.91186 5.15347 0
M  V30 2140 N 205.456 -1.28612 -0.910864 0
M  V30 2141 C 206.686 -1.1862 -1.69153 0
M  V30 2142 C 207.094 0.257324 -1.87442 0
M  V30 2143 O 206.437 1.18543 -1.40332 0
M  V30 2144 C 206.499 -1.81606 -3.10257 0
M  V30 2145 C 206.163 -3.30864 -3.15243 0
M  V30 2146 C 207.16 -4.27256 -2.96223 0
M  V30 2147 C 204.845 -3.71871 -3.37664 0
M  V30 2148 C 206.839 -5.62631 -2.99541 0
M  V30 2149 C 204.526 -5.07371 -3.40614 0
M  V30 2150 C 205.524 -6.02561 -3.21573 0
M  V30 2151 O 205.212 -7.35589 -3.2429 0
M  V30 2152 H 204.944 -0.412633 -0.535453 0
M  V30 2153 H 207.498 -1.70306 -1.14827 0
M  V30 2154 H 205.728 -1.24418 -3.66138 0
M  V30 2155 H 207.417 -1.66092 -3.70362 0
M  V30 2156 H 208.183 -3.9691 -2.78725 0
M  V30 2157 H 204.062 -2.98241 -3.5153 0
M  V30 2158 H 207.606 -6.36907 -2.84597 0
M  V30 2159 H 203.503 -5.37366 -3.57642 0
M  V30 2160 H 204.271 -7.44252 -3.40633 0
M  V30 2161 N 206.934 1.1197 -1.10907 0
M  V30 2162 C 207.884 2.15946 -0.731538 0
M  V30 2163 C 208.868 1.58758 0.261699 0
M  V30 2164 O 210.06 1.76863 0.0696722 0
M  V30 2165 C 207.189 3.42877 -0.170299 0
M  V30 2166 C 206.275 4.07037 -1.19087 0
M  V30 2167 N 206.666 4.46135 -2.38322 0
M  V30 2168 C 204.964 4.33884 -1.03252 0
M  V30 2169 C 205.665 4.96331 -3.03366 0
M  V30 2170 N 204.641 4.9214 -2.30865 0
M  V30 2171 H 208.443 2.43947 -1.63912 0
M  V30 2172 H 205.957 1.28927 -0.987505 0
M  V30 2173 H 207.954 4.16732 0.118271 0
M  V30 2174 H 206.614 3.16343 0.731935 0
M  V30 2175 H 207.625 4.38345 -2.75815 0
M  V30 2176 H 204.302 4.17084 -0.186256 0
M  V30 2177 H 205.692 5.36257 -4.04818 0
M  V30 2178 N 208.412 0.89855 1.29475 0
M  V30 2179 C 209.659 0.523882 1.95606 0
M  V30 2180 C 209.987 -0.929608 1.70847 0
M  V30 2181 O 209.242 -1.67401 1.01367 0
M  V30 2182 C 209.541 0.761398 3.49195 0
M  V30 2183 C 209.207 2.19207 3.94029 0
M  V30 2184 C 207.869 2.58326 4.05982 0
M  V30 2185 C 210.221 3.12379 4.17216 0
M  V30 2186 C 207.549 3.898 4.38489 0
M  V30 2187 C 209.901 4.43401 4.51197 0
M  V30 2188 C 208.565 4.82394 4.61359 0
M  V30 2189 H 207.835 0.191702 0.715773 0
M  V30 2190 H 210.482 1.13699 1.54094 0
M  V30 2191 H 208.787 0.0653622 3.91745 0
M  V30 2192 H 210.484 0.450904 3.98457 0
M  V30 2193 H 207.074 1.87846 3.85242 0
M  V30 2194 H 211.258 2.83371 4.07449 0
M  V30 2195 H 206.514 4.19734 4.44559 0
M  V30 2196 H 210.688 5.15623 4.68087 0
M  V30 2197 H 208.315 5.84306 4.86303 0
M  V30 2198 N 209.89 -1.43072 0.660911 0
M  V30 2199 C 211.136 -2.0202 0.177708 0
M  V30 2200 C 211.469 -1.52066 -1.20787 0
M  V30 2201 O 210.744 -0.716987 -1.80802 0
M  V30 2202 C 211.027 -3.59561 0.197019 0
M  V30 2203 C 210.88 -4.19727 1.61706 0
M  V30 2204 C 212.199 -4.37664 -0.462396 0
M  V30 2205 H 209.318 -0.734034 0.0660494 0
M  V30 2206 H 211.96 -1.70272 0.843058 0
M  V30 2207 H 210.11 -3.86739 -0.369527 0
M  V30 2208 H 211.782 -4.03553 2.23479 0
M  V30 2209 H 210.025 -3.76084 2.16201 0
M  V30 2210 H 210.696 -5.28834 1.58237 0
M  V30 2211 H 213.172 -4.16095 0.0197215 0
M  V30 2212 H 212.048 -5.47305 -0.418188 0
M  V30 2213 H 212.309 -4.14493 -1.53778 0
M  V30 2214 N 211.368 -0.403325 -1.52352 0
M  V30 2215 C 212.614 0.174605 -2.02047 0
M  V30 2216 C 212.947 1.45282 -1.28867 0
M  V30 2217 O 212.222 1.90483 -0.393257 0
M  V30 2218 C 212.505 0.428238 -3.57545 0
M  V30 2219 C 212.358 -0.866248 -4.4138 0
M  V30 2220 C 213.677 1.21287 -4.23057 0
M  V30 2221 H 210.796 0.0619851 -0.734389 0
M  V30 2222 H 213.438 -0.53565 -1.82293 0
M  V30 2223 H 211.588 1.03327 -3.74507 0
M  V30 2224 H 213.26 -1.50265 -4.3614 0
M  V30 2225 H 211.503 -1.47851 -4.07827 0
M  V30 2226 H 212.174 -0.643249 -5.48239 0
M  V30 2227 H 214.65 0.700703 -4.10158 0
M  V30 2228 H 213.526 1.35909 -5.31808 0
M  V30 2229 H 213.787 2.23193 -3.81625 0
M  V30 2230 N 212.846 1.57033 -0.133567 0
M  V30 2231 C 214.094 1.953 0.519848 0
M  V30 2232 C 214.415 1.01866 1.66278 0
M  V30 2233 O 213.685 0.0776513 1.95746 0
M  V30 2234 H 212.265 0.721091 0.195032 0
M  V30 2235 H 214.927 1.93809 -0.205921 0
M  V30 2236 H 214.023 2.98695 0.904854 0
M  V30 2237 N 214.325 -0.140222 1.56975 0
M  V30 2238 C 215.257 -1.19818 1.95388 0
M  V30 2239 C 216.27 -1.38816 0.850525 0
M  V30 2240 O 217.459 -1.38267 1.12891 0
M  V30 2241 C 214.559 -2.56189 2.21857 0
M  V30 2242 C 213.732 -2.58077 3.5315 0
M  V30 2243 C 212.791 -3.76037 3.6808 0
M  V30 2244 O 211.817 -3.60598 4.40406 0
M  V30 2245 N 213.019 -4.93763 3.05251 0
M  V30 2246 H 215.784 -0.871609 2.86746 0
M  V30 2247 H 213.345 -0.32972 1.58507 0
M  V30 2248 H 215.337 -3.33623 2.2908 0
M  V30 2249 H 213.907 -2.81111 1.36731 0
M  V30 2250 H 213.127 -1.6651 3.57307 0
M  V30 2251 H 214.415 -2.56377 4.39486 0
M  V30 2252 H 213.813 -5.09209 2.46419 0
M  V30 2253 H 212.37 -5.68949 3.18026 0
M  V30 2254 N 215.803 -1.52179 -0.40978 0
M  V30 2255 C 216.736 -1.70196 -1.52015 0
M  V30 2256 C 217.714 -0.549542 -1.53032 0
M  V30 2257 O 218.898 -0.776815 -1.71749 0
M  V30 2258 C 216.025 -1.74069 -2.90547 0
M  V30 2259 C 215.071 -2.95601 -3.07445 0
M  V30 2260 S 215.904 -4.55956 -2.80827 0
M  V30 2261 C 217.06 -4.62614 -4.21591 0
M  V30 2262 H 217.293 -2.64109 -1.36504 0
M  V30 2263 H 214.826 -1.4221 -0.601312 0
M  V30 2264 H 216.784 -1.76985 -3.70387 0
M  V30 2265 H 215.445 -0.812835 -3.034 0
M  V30 2266 H 214.638 -2.94791 -4.08796 0
M  V30 2267 H 214.24 -2.90569 -2.35469 0
M  V30 2268 H 216.532 -4.39951 -5.15218 0
M  V30 2269 H 217.475 -5.64548 -4.27424 0
M  V30 2270 H 217.883 -3.91654 -4.06531 0
M  V30 2271 N 217.281 0.66697 -1.42791 0
M  V30 2272 C 218.527 1.4291 -1.43891 0
M  V30 2273 C 218.86 1.94114 -0.0578972 0
M  V30 2274 O 218.135 1.71414 0.91911 0
M  V30 2275 C 218.418 2.62049 -2.46987 0
M  V30 2276 C 218.271 2.16426 -3.94309 0
M  V30 2277 C 219.59 3.64266 -2.46978 0
M  V30 2278 H 216.709 0.518306 -0.523954 0
M  V30 2279 H 219.351 0.757321 -1.74255 0
M  V30 2280 H 217.501 3.19361 -2.21225 0
M  V30 2281 H 219.173 1.64221 -4.31079 0
M  V30 2282 H 217.416 1.47925 -4.078 0
M  V30 2283 H 218.087 3.02038 -4.62036 0
M  V30 2284 H 220.563 3.16686 -2.69906 0
M  V30 2285 H 219.439 4.45196 -3.21079 0
M  V30 2286 H 219.7 4.15927 -1.49857 0
M  V30 2287 N 218.759 1.29093 0.90403 0
M  V30 2288 C 219.989 1.19516 1.68522 0
M  V30 2289 C 220.397 -0.24738 1.87576 0
M  V30 2290 O 219.74 -1.17798 1.40959 0
M  V30 2291 C 219.802 1.83249 3.0929 0
M  V30 2292 C 219.466 3.32531 3.13484 0
M  V30 2293 C 220.463 4.28821 2.93953 0
M  V30 2294 C 218.148 3.73656 3.35688 0
M  V30 2295 C 220.142 5.64212 2.96553 0
M  V30 2296 C 217.829 5.0917 3.37919 0
M  V30 2297 C 218.827 6.04258 3.18373 0
M  V30 2298 O 218.515 7.37298 3.20385 0
M  V30 2299 H 218.247 0.415467 0.533257 0
M  V30 2300 H 220.801 1.70912 1.13922 0
M  V30 2301 H 219.031 1.26358 3.65473 0
M  V30 2302 H 220.72 1.68054 3.69476 0
M  V30 2303 H 221.486 3.98382 2.76616 0
M  V30 2304 H 217.365 3.00101 3.49943 0
M  V30 2305 H 220.909 6.38407 2.81216 0
M  V30 2306 H 216.806 5.39256 3.54787 0
M  V30 2307 H 217.574 7.46048 3.36681 0
M  V30 2308 N 220.237 -1.11381 1.11499 0
M  V30 2309 C 221.467 -1.86663 0.885464 0
M  V30 2310 C 221.875 -1.80464 -0.568281 0
M  V30 2311 O 221.218 -1.18445 -1.40415 0
M  V30 2312 C 221.28 -3.36337 1.26956 0
M  V30 2313 C 220.944 -3.66304 2.73259 0
M  V30 2314 C 221.941 -3.63733 3.71476 0
M  V30 2315 C 219.626 -3.9529 3.09921 0
M  V30 2316 C 221.62 -3.89725 5.04374 0
M  V30 2317 C 219.307 -4.20941 4.43004 0
M  V30 2318 C 220.305 -4.18147 5.40039 0
M  V30 2319 O 219.993 -4.43153 6.70724 0
M  V30 2320 H 219.725 -0.597114 0.316908 0
M  V30 2321 H 222.279 -1.41782 1.48617 0
M  V30 2322 H 220.509 -3.81826 0.611999 0
M  V30 2323 H 222.198 -3.92986 1.01573 0
M  V30 2324 H 222.964 -3.41389 3.44498 0
M  V30 2325 H 218.843 -3.966 2.35009 0
M  V30 2326 H 222.387 -3.8746 5.80104 0
M  V30 2327 H 218.284 -4.42761 4.69716 0
M  V30 2328 H 219.052 -4.60717 6.76522 0
M  V30 2329 N 221.715 -0.905404 -1.28997 0
M  V30 2330 C 222.647 -0.344748 -2.26592 0
M  V30 2331 C 223.66 0.512135 -1.54535 0
M  V30 2332 O 224.849 0.328368 -1.75454 0
M  V30 2333 C 221.949 0.526587 -3.34784 0
M  V30 2334 C 221.122 -0.305871 -4.36329 0
M  V30 2335 C 220.181 0.499209 -5.23827 0
M  V30 2336 O 219.207 -0.0853004 -5.69136 0
M  V30 2337 N 220.409 1.80408 -5.51755 0
M  V30 2338 H 223.174 -1.18359 -2.75338 0
M  V30 2339 H 220.735 -0.770481 -1.42391 0
M  V30 2340 H 222.727 1.07171 -3.90252 0
M  V30 2341 H 221.297 1.26613 -2.85811 0
M  V30 2342 H 220.517 -1.0324 -3.80441 0
M  V30 2343 H 221.805 -0.875773 -5.01206 0
M  V30 2344 H 221.203 2.3016 -5.16762 0
M  V30 2345 H 219.76 2.29621 -6.10014 0
M  V30 2346 N 223.193 1.4272 -0.668489 0
M  V30 2347 C 224.433 2.03497 -0.19194 0
M  V30 2348 C 224.797 1.51684 1.17712 0
M  V30 2349 O 225.998 2.04205 1.74796 0
M  V30 2350 C 224.269 3.56734 -0.218032 0
M  V30 2351 S 225.828 4.38395 0.188438 0
M  V30 2352 H 222.646 0.706542 -0.0794959 0
M  V30 2353 H 225.248 1.74563 -0.880235 0
M  V30 2354 H 223.952 3.91943 -1.2169 0
M  V30 2355 H 223.483 3.90333 0.490303 0
M  V30 2356 H 225.498 4.75345 1.42345 0
M  V30 2357 N 224.671 0.411399 1.52136 0
M  V30 2358 C 225.917 -0.163888 2.02137 0
M  V30 2359 C 226.25 -1.44597 1.29636 0
M  V30 2360 O 225.525 -1.90272 0.403353 0
M  V30 2361 C 225.808 -0.40927 3.57767 0
M  V30 2362 C 225.661 0.889643 4.40914 0
M  V30 2363 C 226.98 -1.19042 4.23694 0
M  V30 2364 H 224.099 -0.0580896 0.734707 0
M  V30 2365 H 226.741 0.54531 1.82007 0
M  V30 2366 H 224.891 -1.0134 3.7505 0
M  V30 2367 H 226.563 1.52575 4.35337 0
M  V30 2368 H 224.806 1.50011 4.07037 0
M  V30 2369 H 225.477 0.672314 5.4789 0
M  V30 2370 H 227.953 -0.678942 4.10524 0
M  V30 2371 H 226.829 -1.33086 5.32522 0
M  V30 2372 H 227.09 -2.21166 3.82803 0
M  V30 2373 N 226.149 -1.5696 0.141893 0
M  V30 2374 C 227.081 -2.13619 -0.830627 0
M  V30 2375 C 228.094 -1.08439 -1.21428 0
M  V30 2376 O 229.283 -1.35734 -1.15925 0
M  V30 2377 C 226.383 -2.63978 -2.12529 0
M  V30 2378 C 225.556 -3.93504 -1.9098 0
M  V30 2379 C 224.615 -4.29225 -3.04388 0
M  V30 2380 O 223.641 -4.97641 -2.76302 0
M  V30 2381 N 224.843 -3.88393 -4.31429 0
M  V30 2382 H 227.608 -2.97691 -0.34641 0
M  V30 2383 H 225.169 -1.61846 -0.0418375 0
M  V30 2384 H 227.161 -2.84891 -2.87436 0
M  V30 2385 H 225.731 -1.84659 -2.52229 0
M  V30 2386 H 224.951 -3.81269 -1.00139 0
M  V30 2387 H 226.239 -4.78154 -1.73914 0
M  V30 2388 H 225.637 -3.33257 -4.57117 0
M  V30 2389 H 224.194 -4.14368 -5.03133 0
M  V30 2390 N 227.627 0.131896 -1.57047 0
M  V30 2391 C 228.875 0.840269 -1.83804 0
M  V30 2392 C 229.196 1.81017 -0.72512 0
M  V30 2393 O 228.466 1.94272 0.251995 0
M  V30 2394 H 227.046 0.313294 -0.678127 0
M  V30 2395 H 229.708 0.122294 -1.94516 0
M  V30 2396 H 228.804 1.39335 -2.79271 0
M  V30 2397 N 229.106 1.52395 0.401703 0
M  V30 2398 C 230.336 1.70429 1.1678 0
M  V30 2399 C 230.744 0.416702 1.84554 0
M  V30 2400 O 230.087 -0.617697 1.73003 0
M  V30 2401 C 230.149 2.78919 2.26814 0
M  V30 2402 C 229.813 4.20437 1.79113 0
M  V30 2403 C 230.81 5.04028 1.27482 0
M  V30 2404 C 228.495 4.66704 1.85722 0
M  V30 2405 C 230.489 6.31961 0.830913 0
M  V30 2406 C 228.176 5.94625 1.40942 0
M  V30 2407 C 229.174 6.77082 0.897128 0
M  V30 2408 O 228.862 8.02607 0.455822 0
M  V30 2409 H 228.594 0.574272 0.356634 0
M  V30 2410 H 231.148 1.99767 0.477724 0
M  V30 2411 H 229.378 2.44973 2.99207 0
M  V30 2412 H 231.067 2.8548 2.88541 0
M  V30 2413 H 231.833 4.69471 1.21744 0
M  V30 2414 H 227.712 4.0262 2.24539 0
M  V30 2415 H 231.256 6.96271 0.430368 0
M  V30 2416 H 227.153 6.28688 1.46362 0
M  V30 2417 H 227.921 8.16453 0.578457 0
M  V30 2418 N 230.584 -0.659388 1.43143 0
M  V30 2419 C 232 -0.974337 1.26407 0
M  V30 2420 C 232.2 -2.007 0.179341 0
M  V30 2421 O 231.256 -2.4856 -0.444295 0
M  V30 2422 C 232.569 -1.46447 2.62628 0
M  V30 2423 C 234.117 -1.58144 2.7011 0
M  V30 2424 C 234.592 -2.1055 4.06734 0
M  V30 2425 N 236.083 -2.17861 4.08767 0
M  V30 2426 C 236.818 -2.59519 5.1131 0
M  V30 2427 N 236.314 -3.00518 6.24228 0
M  V30 2428 N 238.107 -2.59404 4.98664 0
M  V30 2429 H 230.258 0.0240528 2.12386 0
M  V30 2430 H 232.521 -0.0518065 0.946583 0
M  V30 2431 H 232.227 -0.780123 3.42939 0
M  V30 2432 H 232.101 -2.44058 2.87603 0
M  V30 2433 H 234.488 -2.25682 1.90136 0
M  V30 2434 H 234.569 -0.589828 2.48907 0
M  V30 2435 H 234.213 -1.43616 4.87172 0
M  V30 2436 H 234.143 -3.10531 4.25298 0
M  V30 2437 H 236.634 -1.88975 3.27257 0
M  V30 2438 H 236.947 -3.31036 6.98309 0
M  V30 2439 H 235.292 -2.98337 6.2771 0
M  V30 2440 H 238.483 -2.26747 4.09516 0
M  V30 2441 H 238.656 -2.91548 5.78709 0
M  V30 2442 N 232.062 -1.29571 -0.897171 0
M  V30 2443 C 233.025 -1.14913 -1.98312 0
M  V30 2444 C 234.025 -0.0838629 -1.60581 0
M  V30 2445 O 235.215 -0.331006 -1.71026 0
M  V30 2446 C 232.347 -0.757835 -3.3237 0
M  V30 2447 H 233.54 -2.11377 -2.12743 0
M  V30 2448 H 231.093 -1.12793 -1.08201 0
M  V30 2449 H 231.828 0.206837 -3.2364 0
M  V30 2450 H 231.613 -1.52755 -3.61121 0
M  V30 2451 H 233.103 -0.678408 -4.12053 0
M  V30 2452 N 233.54 1.10788 -1.12088 0
M  V30 2453 C 234.47 2.19083 -0.807755 0
M  V30 2454 C 235.451 1.6858 0.226859 0
M  V30 2455 O 236.636 1.93997 0.0888475 0
M  V30 2456 C 233.766 3.46344 -0.257576 0
M  V30 2457 C 232.72 4.101 -1.22483 0
M  V30 2458 C 232.046 5.32016 -0.535052 0
M  V30 2459 C 233.346 4.54236 -2.57811 0
M  V30 2460 H 235.04 2.45534 -1.71328 0
M  V30 2461 H 232.586 1.1801 -0.825205 0
M  V30 2462 H 234.539 4.21392 -0.0262679 0
M  V30 2463 H 233.263 3.19373 0.683278 0
M  V30 2464 H 231.922 3.37054 -1.44189 0
M  V30 2465 H 231.57 5.01319 0.410827 0
M  V30 2466 H 231.27 5.75625 -1.18024 0
M  V30 2467 H 232.794 6.09799 -0.312695 0
M  V30 2468 H 234.208 5.20575 -2.40155 0
M  V30 2469 H 232.605 5.08682 -3.18375 0
M  V30 2470 H 233.675 3.6734 -3.16528 0
M  V30 2471 N 235.018 0.912232 1.28515 0
M  V30 2472 C 235.968 0.370649 2.24967 0
M  V30 2473 C 236.952 -0.516375 1.52389 0
M  V30 2474 O 238.144 -0.356345 1.73376 0
M  V30 2475 C 235.273 -0.389526 3.41083 0
M  V30 2476 C 234.359 0.51313 4.20984 0
M  V30 2477 N 234.75 1.62604 4.78951 0
M  V30 2478 C 233.048 0.313235 4.44899 0
M  V30 2479 C 233.749 2.18619 5.39055 0
M  V30 2480 N 232.725 1.47765 5.23132 0
M  V30 2481 H 236.527 1.22061 2.67354 0
M  V30 2482 H 234.041 0.764712 1.43269 0
M  V30 2483 H 236.038 -0.794353 4.09262 0
M  V30 2484 H 234.698 -1.2366 3.0023 0
M  V30 2485 H 235.709 2.00864 4.77362 0
M  V30 2486 H 232.386 -0.494452 4.14562 0
M  V30 2487 H 233.776 3.12228 5.94948 0
M  V30 2488 N 236.496 -1.42363 0.676048 0
M  V30 2489 C 237.912 -1.55811 0.345718 0
M  V30 2490 C 238.112 -1.65544 -1.14879 0
M  V30 2491 O 237.168 -1.62306 -1.93424 0
M  V30 2492 C 238.481 -2.80746 1.07713 0
M  V30 2493 C 240.029 -2.9452 1.05958 0
M  V30 2494 C 240.504 -4.22318 1.77233 0
M  V30 2495 N 241.995 -4.29233 1.74108 0
M  V30 2496 C 242.73 -5.26935 2.26113 0
M  V30 2497 N 242.226 -6.30783 2.86505 0
M  V30 2498 N 244.019 -5.18741 2.1648 0
M  V30 2499 H 236.17 -1.34289 1.6456 0
M  V30 2500 H 238.433 -0.646506 0.69335 0
M  V30 2501 H 238.139 -2.79696 2.13221 0
M  V30 2502 H 238.013 -3.71676 0.64316 0
M  V30 2503 H 240.4 -2.95097 0.0128255 0
M  V30 2504 H 240.481 -2.04817 1.53244 0
M  V30 2505 H 240.125 -4.22502 2.81877 0
M  V30 2506 H 240.055 -5.10958 1.27396 0
M  V30 2507 H 242.546 -3.54814 1.30059 0
M  V30 2508 H 242.859 -7.01691 3.23805 0
M  V30 2509 H 241.204 -6.31341 2.90575 0
M  V30 2510 H 244.395 -4.36533 1.68987 0
M  V30 2511 H 244.568 -5.94721 2.57316 0
M  V30 2512 N 237.974 -0.419461 -1.51915 0
M  V30 2513 C 239.222 0.152637 -2.01523 0
M  V30 2514 C 239.543 1.44762 -1.30649 0
M  V30 2515 O 238.813 1.90997 -0.435535 0
M  V30 2516 H 237.393 0.0593966 -0.744635 0
M  V30 2517 H 240.055 -0.558073 -1.86739 0
M  V30 2518 H 239.151 0.341369 -3.10227 0
M  V30 2519 N 239.452 1.56882 -0.150215 0
M  V30 2520 C 240.863 1.82995 0.370076 0
M  V30 2521 C 241.214 1.06907 1.64515 0
M  V30 2522 O 240.339 0.315369 2.1409 0
M  V30 2523 C 240.934 3.31942 0.678208 0
M  V30 2524 C 239.493 3.58625 1.14301 0
M  V30 2525 C 238.64 2.76792 0.167778 0
M  V30 2526 H 241.591 1.54209 -0.374858 0
M  V30 2527 H 241.612 3.48272 1.53254 0
M  V30 2528 H 241.124 3.87294 -0.249991 0
M  V30 2529 H 239.225 3.08664 2.08704 0
M  V30 2530 H 239.338 4.67073 1.06676 0
M  V30 2531 H 237.702 2.45972 0.661037 0
M  V30 2532 H 238.485 3.34916 -0.754069 0
M  V30 2533 N 240.93 -0.123565 1.57115 0
M  V30 2534 C 241.893 -1.13583 1.99076 0
M  V30 2535 C 242.893 -1.34564 0.880296 0
M  V30 2536 O 244.083 -1.31158 1.14644 0
M  V30 2537 C 241.215 -2.49128 2.32698 0
M  V30 2538 H 242.408 -0.775287 2.89706 0
M  V30 2539 H 239.961 -0.36771 1.51913 0
M  V30 2540 H 240.696 -2.90111 1.44934 0
M  V30 2541 H 240.481 -2.35255 3.13684 0
M  V30 2542 H 241.971 -3.2199 2.65918 0
M  V30 2543 N 242.408 -1.52605 -0.393616 0
M  V30 2544 C 243.318 -1.79971 -1.50492 0
M  V30 2545 C 244.334 -0.686181 -1.59899 0
M  V30 2546 O 245.51 -0.973274 -1.76322 0
M  V30 2547 C 242.575 -1.95867 -2.86072 0
M  V30 2548 C 241.636 -3.19781 -2.86424 0
M  V30 2549 C 240.869 -3.34909 -4.15538 0
M  V30 2550 O 241.092 -2.54948 -5.10253 0
M  V30 2551 O 240.026 -4.28141 -4.23059 0
M  V30 2552 H 243.852 -2.74328 -1.30299 0
M  V30 2553 H 241.437 -1.3764 -0.581005 0
M  V30 2554 H 243.319 -2.08056 -3.66457 0
M  V30 2555 H 241.994 -1.04699 -3.063 0
M  V30 2556 H 240.901 -3.13038 -2.04837 0
M  V30 2557 H 242.234 -4.1078 -2.71147 0
M  V30 2558 N 243.887 0.651787 -1.4349 0
M  V30 2559 C 245.112 1.44434 -1.48841 0
M  V30 2560 C 245.537 1.8779 -0.107955 0
M  V30 2561 O 244.895 1.57464 0.898602 0
M  V30 2562 C 244.943 2.65458 -2.44059 0
M  V30 2563 O 244.047 3.64566 -1.92784 0
M  V30 2564 H 243.388 0.433005 -0.503391 0
M  V30 2565 H 245.918 0.797451 -1.88419 0
M  V30 2566 H 245.928 3.13255 -2.6141 0
M  V30 2567 H 244.603 2.33244 -3.4434 0
M  V30 2568 H 243.18 3.23716 -1.851 0
M  V30 2569 N 245.365 1.30045 0.890287 0
M  V30 2570 C 246.611 1.18737 1.64406 0
M  V30 2571 C 246.944 -0.258525 1.92472 0
M  V30 2572 O 246.219 -1.18562 1.54186 0
M  V30 2573 C 246.502 2.01087 2.98724 0
M  V30 2574 C 246.355 3.53867 2.77665 0
M  V30 2575 C 247.674 1.84457 3.9958 0
M  V30 2576 H 244.793 0.432698 0.596608 0
M  V30 2577 H 247.435 1.5962 1.0306 0
M  V30 2578 H 245.585 1.66349 3.51084 0
M  V30 2579 H 247.257 3.98637 2.32133 0
M  V30 2580 H 245.5 3.78318 2.12269 0
M  V30 2581 H 246.171 4.06772 3.7315 0
M  V30 2582 H 248.647 2.14817 3.56361 0
M  V30 2583 H 247.523 2.44411 4.91482 0
M  V30 2584 H 247.784 0.802276 4.3476 0
M  V30 2585 N 246.843 -1.10192 1.12674 0
M  V30 2586 C 248.083 -1.83825 0.893736 0
M  V30 2587 C 248.447 -1.83341 -0.570082 0
M  V30 2588 O 249.648 -2.52553 -0.920354 0
M  V30 2589 C 247.919 -3.26405 1.45582 0
M  V30 2590 S 249.478 -4.17136 1.36171 0
M  V30 2591 H 246.296 -0.633732 0.322342 0
M  V30 2592 H 248.898 -1.32581 1.43675 0
M  V30 2593 H 247.602 -3.24329 2.51473 0
M  V30 2594 H 247.133 -3.82721 0.910405 0
M  V30 2595 H 249.148 -4.95069 0.334863 0
M  V30 2596 N 248.321 -0.919034 -1.28029 0
M  V30 2597 C 249.268 -0.410005 -2.27129 0
M  V30 2598 C 250.238 0.518405 -1.57803 0
M  V30 2599 O 251.423 0.439451 -1.8567 0
M  V30 2600 C 248.563 0.339054 -3.4343 0
M  V30 2601 C 247.676 -0.622468 -4.27492 0
M  V30 2602 C 246.811 0.145567 -5.31001 0
M  V30 2603 C 245.85 -0.809226 -6.06727 0
M  V30 2604 N 244.987 -0.0743728 -7.02061 0
M  V30 2605 H 249.827 -1.26011 -2.70047 0
M  V30 2606 H 247.364 -0.632663 -1.328 0
M  V30 2607 H 249.322 0.789586 -4.0966 0
M  V30 2608 H 247.952 1.15346 -3.01488 0
M  V30 2609 H 247.004 -1.19153 -3.61257 0
M  V30 2610 H 248.316 -1.35252 -4.80113 0
M  V30 2611 H 247.47 0.656417 -6.03139 0
M  V30 2612 H 246.209 0.908643 -4.79161 0
M  V30 2613 H 245.214 -1.3314 -5.33436 0
M  V30 2614 H 246.439 -1.57194 -6.60656 0
M  V30 2615 H 244.385 0.670616 -6.52563 0
M  V30 2616 H 244.302 -0.744157 -7.52329 0
M  V30 2617 H 245.57 0.416109 -7.78389 0
M  V30 2618 N 249.799 1.42003 -0.683588 0
M  V30 2619 C 250.732 2.28166 0.039592 0
M  V30 2620 C 251.71 1.41562 0.799942 0
M  V30 2621 O 252.894 1.70997 0.793248 0
M  V30 2622 C 250.021 3.21575 1.06335 0
M  V30 2623 C 249.067 4.24643 0.397562 0
M  V30 2624 S 249.9 5.2869 -0.851296 0
M  V30 2625 C 251.056 6.25666 0.171166 0
M  V30 2626 H 251.289 2.89153 -0.691229 0
M  V30 2627 H 248.822 1.46962 -0.473435 0
M  V30 2628 H 250.78 3.75928 1.6489 0
M  V30 2629 H 249.441 2.59707 1.76667 0
M  V30 2630 H 248.634 4.90223 1.17035 0
M  V30 2631 H 248.236 3.73824 -0.114611 0
M  V30 2632 H 250.528 6.69653 1.02819 0
M  V30 2633 H 251.471 7.06666 -0.450397 0
M  V30 2634 H 251.879 5.62095 0.520578 0
M  V30 2635 N 251.277 0.427512 1.51691 0
M  V30 2636 C 252.505 -0.141191 2.06418 0
M  V30 2637 C 252.92 -1.37303 1.29589 0
M  V30 2638 O 252.277 -1.79059 0.352732 0
M  V30 2639 C 252.328 -0.473266 3.58389 0
M  V30 2640 O 252.049 0.709673 4.32314 0
M  V30 2641 C 253.55 -1.09371 4.29596 0
M  V30 2642 H 250.77 -0.0122747 0.670888 0
M  V30 2643 H 253.314 0.603764 1.95384 0
M  V30 2644 H 251.469 -1.16812 3.69369 0
M  V30 2645 H 251.883 0.42807 5.2275 0
M  V30 2646 H 253.357 -1.27613 5.37046 0
M  V30 2647 H 253.834 -2.072 3.87253 0
M  V30 2648 H 254.44 -0.43853 4.23033 0
M  V30 2649 N 252.755 -1.56801 0.158532 0
M  V30 2650 C 253.705 -2.13923 -0.788738 0
M  V30 2651 C 254.689 -1.07006 -1.2016 0
M  V30 2652 O 255.881 -1.33159 -1.1661 0
M  V30 2653 C 253.01 -2.77348 -2.02319 0
M  V30 2654 C 252.096 -3.91404 -1.6329 0
M  V30 2655 N 252.487 -4.9677 -0.951463 0
M  V30 2656 C 250.785 -4.02326 -1.92482 0
M  V30 2657 C 251.486 -5.76698 -0.761221 0
M  V30 2658 N 250.462 -5.27859 -1.29869 0
M  V30 2659 H 254.264 -2.92757 -0.258995 0
M  V30 2660 H 251.778 -1.62344 -0.0426055 0
M  V30 2661 H 253.775 -3.16639 -2.71192 0
M  V30 2662 H 252.435 -1.99991 -2.558 0
M  V30 2663 H 253.446 -5.14284 -0.610928 0
M  V30 2664 H 250.123 -3.36059 -2.47732 0
M  V30 2665 H 251.513 -6.71529 -0.223284 0
M  V30 2666 N 254.233 0.115231 -1.57178 0
M  V30 2667 C 255.481 0.820727 -1.84685 0
M  V30 2668 C 255.802 1.80237 -0.744279 0
M  V30 2669 O 255.072 1.94529 0.231375 0
M  V30 2670 H 253.652 0.306084 -0.681411 0
M  V30 2671 H 256.314 0.101656 -1.94635 0
M  V30 2672 H 255.41 1.36366 -2.80733 0
M  V30 2673 N 255.711 1.52812 0.385517 0
M  V30 2674 C 256.658 1.77838 1.47113 0
M  V30 2675 C 257.628 0.621757 1.54024 0
M  V30 2676 O 258.813 0.861846 1.70226 0
M  V30 2677 C 255.953 1.95618 2.84302 0
M  V30 2678 C 255.066 3.23316 2.86515 0
M  V30 2679 C 254.201 3.31394 4.15152 0
M  V30 2680 C 253.24 4.53201 4.1143 0
M  V30 2681 N 252.377 4.58542 5.3168 0
M  V30 2682 H 257.217 2.70482 1.25073 0
M  V30 2683 H 254.754 1.34006 0.606692 0
M  V30 2684 H 256.712 2.03912 3.63972 0
M  V30 2685 H 255.342 1.06331 3.04784 0
M  V30 2686 H 254.394 3.24076 1.99195 0
M  V30 2687 H 255.706 4.13045 2.79634 0
M  V30 2688 H 254.86 3.3889 5.03228 0
M  V30 2689 H 253.599 2.39645 4.24761 0
M  V30 2690 H 252.604 4.45827 3.21742 0
M  V30 2691 H 253.829 5.46271 4.03442 0
M  V30 2692 H 251.775 3.69686 5.41912 0
M  V30 2693 H 251.692 5.42148 5.26889 0
M  V30 2694 H 252.96 4.70296 6.21644 0
M  V30 2695 N 257.189 -0.644168 1.43834 0
M  V30 2696 C 258.417 -1.43147 1.49387 0
M  V30 2697 C 258.832 -1.88452 0.114583 0
M  V30 2698 O 258.189 -1.60047 -0.876989 0
M  V30 2699 C 258.24 -2.66046 2.44748 0
M  V30 2700 O 257.961 -2.22633 3.77314 0
M  V30 2701 C 259.462 -3.59311 2.59635 0
M  V30 2702 H 256.682 -0.439447 0.507077 0
M  V30 2703 H 259.226 -0.78895 1.88669 0
M  V30 2704 H 257.381 -3.26418 2.08638 0
M  V30 2705 H 257.795 -3.02216 4.28679 0
M  V30 2706 H 259.269 -4.42187 3.30416 0
M  V30 2707 H 259.746 -4.07259 1.64427 0
M  V30 2708 H 260.352 -3.04816 2.96593 0
M  V30 2709 N 258.668 -1.30515 -0.883378 0
M  V30 2710 C 260.084 -1.08881 -1.16692 0
M  V30 2711 C 260.284 0.149409 -2.00945 0
M  V30 2712 O 259.34 0.84257 -2.38027 0
M  V30 2713 C 260.653 -2.35319 -1.87204 0
M  V30 2714 C 262.201 -2.40799 -1.99962 0
M  V30 2715 C 262.676 -3.67083 -2.73887 0
M  V30 2716 N 264.167 -3.679 -2.81432 0
M  V30 2717 C 264.902 -4.62303 -3.3921 0
M  V30 2718 N 264.398 -5.67052 -3.98025 0
M  V30 2719 N 266.191 -4.49845 -3.3704 0
M  V30 2720 H 258.342 -2.09951 -0.321633 0
M  V30 2721 H 260.605 -0.92556 -0.205043 0
M  V30 2722 H 260.311 -3.25689 -1.3274 0
M  V30 2723 H 260.185 -2.44089 -2.87577 0
M  V30 2724 H 262.572 -1.50907 -2.53597 0
M  V30 2725 H 262.653 -2.36003 -0.98673 0
M  V30 2726 H 262.297 -4.57334 -2.20925 0
M  V30 2727 H 262.227 -3.69141 -3.75556 0
M  V30 2728 H 264.718 -2.92171 -2.39676 0
M  V30 2729 H 265.031 -6.35184 -4.40183 0
M  V30 2730 H 263.376 -5.70842 -3.96439 0
M  V30 2731 H 266.567 -3.67194 -2.90321 0
M  V30 2732 H 266.74 -5.23597 -3.81772 0
M  V30 2733 N 260.146 1.09593 -1.13257 0
M  V30 2734 C 261.392 1.82181 -0.904521 0
M  V30 2735 C 261.747 1.83967 0.563358 0
M  V30 2736 O 261.04 1.29566 1.41149 0
M  V30 2737 C 261.234 3.27802 -1.42411 0
M  V30 2738 C 261.063 3.40201 -2.94097 0
M  V30 2739 C 259.833 3.52104 -3.62424 0
M  V30 2740 C 262.031 3.32875 -3.92044 0
M  V30 2741 N 260.013 3.53169 -5.0214 0
M  V30 2742 C 261.384 3.40789 -5.17941 0
M  V30 2743 C 263.439 3.16531 -3.84334 0
M  V30 2744 C 262.142 3.34042 -6.37031 0
M  V30 2745 C 264.168 3.11109 -5.02956 0
M  V30 2746 C 263.53 3.19614 -6.27715 0
M  V30 2747 H 259.629 0.681015 -0.384373 0
M  V30 2748 H 262.213 1.3099 -1.44048 0
M  V30 2749 H 260.384 3.77466 -0.915086 0
M  V30 2750 H 262.116 3.88393 -1.13722 0
M  V30 2751 H 258.871 3.5548 -3.12939 0
M  V30 2752 H 259.295 3.57291 -5.75041 0
M  V30 2753 H 263.937 3.08827 -2.88766 0
M  V30 2754 H 261.655 3.4051 -7.32857 0
M  V30 2755 H 265.241 2.99601 -4.98729 0
M  V30 2756 H 264.121 3.15432 -7.17964 0
M  V30 2757 N 261.624 0.925811 1.2754 0
M  V30 2758 C 262.852 0.581509 1.9856 0
M  V30 2759 C 263.267 -0.840041 1.69082 0
M  V30 2760 O 262.624 -1.55805 0.950312 0
M  V30 2761 C 262.675 0.795589 3.52637 0
M  V30 2762 O 262.396 2.16121 3.81082 0
M  V30 2763 C 263.897 0.459744 4.4091 0
M  V30 2764 H 261.117 0.220538 0.633722 0
M  V30 2765 H 263.661 1.24232 1.6244 0
M  V30 2766 H 261.816 0.18161 3.86974 0
M  V30 2767 H 262.23 2.2098 4.75676 0
M  V30 2768 H 263.704 0.660244 5.48037 0
M  V30 2769 H 264.181 -0.604625 4.35018 0
M  V30 2770 H 264.787 1.05178 4.12089 0
M  V30 2771 N 263.102 -1.41638 0.69111 0
M  V30 2772 C 264.034 -2.29194 -0.0161523 0
M  V30 2773 C 265.047 -1.44549 -0.748955 0
M  V30 2774 O 266.236 -1.681 -0.6004 0
M  V30 2775 C 263.336 -3.22325 -1.0469 0
M  V30 2776 C 262.509 -4.35706 -0.384621 0
M  V30 2777 C 261.568 -5.09443 -1.31737 0
M  V30 2778 O 260.594 -5.63386 -0.811451 0
M  V30 2779 N 261.796 -5.16487 -2.64993 0
M  V30 2780 H 264.561 -2.90534 0.735523 0
M  V30 2781 H 262.122 -1.52742 0.53679 0
M  V30 2782 H 264.114 -3.68522 -1.67252 0
M  V30 2783 H 262.684 -2.62323 -1.70015 0
M  V30 2784 H 261.904 -3.91948 0.420804 0
M  V30 2785 H 263.192 -5.08743 0.0760765 0
M  V30 2786 H 262.59 -4.741 -3.08619 0
M  V30 2787 H 261.147 -5.66276 -3.22761 0
M  V30 2788 N 264.58 -0.43555 -1.51462 0
M  V30 2789 C 265.991 0.0279871 -1.86679 0
M  V30 2790 C 266.342 1.42104 -1.35281 0
M  V30 2791 O 265.467 2.04667 -0.702878 0
M  V30 2792 C 266.062 0.0575626 -3.38751 0
M  V30 2793 C 264.621 0.465507 -3.7351 0
M  V30 2794 C 263.768 -0.342996 -2.75171 0
M  V30 2795 H 266.719 -0.651473 -1.44712 0
M  V30 2796 H 266.74 0.867421 -3.70481 0
M  V30 2797 H 266.252 -0.956448 -3.7613 0
M  V30 2798 H 264.353 1.48519 -3.41721 0
M  V30 2799 H 264.466 0.191546 -4.78717 0
M  V30 2800 H 262.83 0.198442 -2.53926 0
M  V30 2801 H 263.613 -1.35585 -3.15391 0
M  V30 2802 N 266.058 1.56714 -0.166846 0
M  V30 2803 C 266.99 2.14914 0.796537 0
M  V30 2804 C 268.003 1.10357 1.19688 0
M  V30 2805 O 269.192 1.37561 1.13751 0
M  V30 2806 C 266.292 2.67326 2.08303 0
M  V30 2807 C 265.465 3.96493 1.84696 0
M  V30 2808 C 264.524 4.34014 2.97521 0
M  V30 2809 O 263.55 5.01973 2.6835 0
M  V30 2810 N 264.752 3.95208 4.25196 0
M  V30 2811 H 267.517 2.98205 0.299006 0
M  V30 2812 H 265.078 1.61892 0.0160839 0
M  V30 2813 H 267.07 2.89428 2.82867 0
M  V30 2814 H 265.64 1.88649 2.4926 0
M  V30 2815 H 264.86 3.82814 0.940602 0
M  V30 2816 H 266.148 4.8086 1.66285 0
M  V30 2817 H 265.546 3.40487 4.51758 0
M  V30 2818 H 264.103 4.2232 4.96477 0
M  V30 2819 N 267.536 -0.106894 1.57237 0
M  V30 2820 C 268.466 -1.13148 2.04254 0
M  V30 2821 C 269.447 -1.42476 0.929224 0
M  V30 2822 O 270.632 -1.52709 1.19973 0
M  V30 2823 C 267.762 -2.4545 2.45706 0
M  V30 2824 C 266.716 -2.30558 3.60592 0
M  V30 2825 C 266.042 -3.67931 3.87983 0
M  V30 2826 C 267.342 -1.75597 4.91897 0
M  V30 2827 H 269.036 -0.740374 2.90101 0
M  V30 2828 H 266.582 -0.354696 1.39563 0
M  V30 2829 H 268.535 -3.17389 2.77205 0
M  V30 2830 H 267.259 -2.86475 1.56843 0
M  V30 2831 H 265.918 -1.61067 3.29322 0
M  V30 2832 H 265.566 -4.06462 2.96306 0
M  V30 2833 H 265.266 -3.58817 4.65322 0
M  V30 2834 H 266.79 -4.41356 4.21945 0
M  V30 2835 H 268.204 -2.37364 5.21854 0
M  V30 2836 H 266.601 -1.77272 5.73319 0
M  V30 2837 H 267.671 -0.714451 4.79608 0
M  V30 2838 N 269.014 -1.53014 -0.377408 0
M  V30 2839 C 270.263 -1.67845 -1.11853 0
M  V30 2840 C 270.576 -0.430625 -1.90801 0
M  V30 2841 O 271.782 -0.459261 -2.67587 0
M  V30 2842 C 270.238 -2.96668 -2.03756 0
M  V30 2843 C 269.846 -4.28671 -1.30175 0
M  V30 2844 C 271.59 -3.20865 -2.77932 0
M  V30 2845 C 269.497 -5.48591 -2.20911 0
M  V30 2846 H 268.427 -0.625343 -0.421263 0
M  V30 2847 H 271.078 -1.79514 -0.380409 0
M  V30 2848 H 269.46 -2.78773 -2.8125 0
M  V30 2849 H 270.634 -4.57157 -0.578259 0
M  V30 2850 H 268.949 -4.10825 -0.679108 0
M  V30 2851 H 271.546 -4.07642 -3.46024 0
M  V30 2852 H 271.889 -2.36424 -3.4265 0
M  V30 2853 H 272.422 -3.39379 -2.07525 0
M  V30 2854 H 269.161 -6.35474 -1.6079 0
M  V30 2855 H 268.681 -5.244 -2.91144 0
M  V30 2856 H 270.36 -5.8292 -2.80736 0
M  V30 2857 N 270.492 0.636531 -1.44174 0
M  V30 2858 C 271.732 1.40781 -1.48189 0
M  V30 2859 C 272.096 1.91688 -0.10944 0
M  V30 2860 O 273.297 2.68789 -0.0242741 0
M  V30 2861 C 271.568 2.54575 -2.50851 0
M  V30 2862 S 273.127 3.4284 -2.73873 0
M  V30 2863 H 269.945 0.480345 -0.524204 0
M  V30 2864 H 272.547 0.737416 -1.81059 0
M  V30 2865 H 271.251 2.15478 -3.49281 0
M  V30 2866 H 270.782 3.26447 -2.19536 0
M  V30 2867 H 272.797 4.51846 -2.05059 0
M  V30 2868 N 271.97 1.30982 0.876444 0
M  V30 2869 C 273.198 1.23242 1.6619 0
M  V30 2870 C 273.613 -0.203345 1.87702 0
M  V30 2871 O 272.97 -1.13317 1.43057 0
M  V30 2872 C 273.021 1.96623 3.03351 0
M  V30 2873 O 272.742 3.34594 2.82804 0
M  V30 2874 C 274.243 1.95644 3.97792 0
M  V30 2875 H 271.463 0.426126 0.518322 0
M  V30 2876 H 274.007 1.7275 1.09442 0
M  V30 2877 H 272.162 1.50892 3.56806 0
M  V30 2878 H 272.576 3.71873 3.69879 0
M  V30 2879 H 274.05 2.51511 4.91372 0
M  V30 2880 H 274.527 0.937395 4.2908 0
M  V30 2881 H 275.133 2.41225 3.50272 0
M  V30 2882 N 273.449 -1.08991 1.13837 0
M  V30 2883 C 274.697 -1.80899 0.901098 0
M  V30 2884 C 275.018 -1.86356 -0.574134 0
M  V30 2885 O 274.288 -1.35235 -1.41733 0
M  V30 2886 H 272.868 -0.669966 0.330386 0
M  V30 2887 H 275.53 -1.318 1.43578 0
M  V30 2888 H 274.626 -2.83929 1.29578 0
M  V30 2889 N 274.927 -0.932562 -1.27047 0
M  V30 2890 C 275.837 -0.441219 -2.30414 0
M  V30 2891 C 276.853 0.480525 -1.67233 0
M  V30 2892 O 278.029 0.362151 -1.98117 0
M  V30 2893 C 275.094 0.293651 -3.45454 0
M  V30 2894 C 274.155 -0.663601 -4.2414 0
M  V30 2895 C 273.388 0.0362932 -5.33688 0
M  V30 2896 O 273.611 1.2548 -5.56427 0
M  V30 2897 O 272.545 -0.638015 -5.98509 0
M  V30 2898 H 276.371 -1.29962 -2.74488 0
M  V30 2899 H 273.956 -0.6981 -1.32087 0
M  V30 2900 H 275.838 0.707951 -4.15411 0
M  V30 2901 H 274.513 1.12758 -3.03426 0
M  V30 2902 H 273.42 -1.12768 -3.56699 0
M  V30 2903 H 274.753 -1.46489 -4.69896 0
M  V30 2904 N 276.405 1.4127 -0.698611 0
M  V30 2905 C 277.338 2.28195 0.0153898 0
M  V30 2906 C 278.316 1.42402 0.784883 0
M  V30 2907 O 279.5 1.71828 0.775067 0
M  V30 2908 C 276.627 3.22685 1.02918 0
M  V30 2909 C 275.673 4.25041 0.352501 0
M  V30 2910 S 276.506 5.27757 -0.907322 0
M  V30 2911 C 277.662 6.25812 0.104796 0
M  V30 2912 H 277.895 2.88403 -0.721858 0
M  V30 2913 H 275.428 1.46452 -0.488996 0
M  V30 2914 H 277.386 3.77655 1.60893 0
M  V30 2915 H 276.047 2.61566 1.73902 0
M  V30 2916 H 275.24 4.91437 1.11828 0
M  V30 2917 H 274.842 3.73682 -0.154254 0
M  V30 2918 H 277.134 6.70705 0.957103 0
M  V30 2919 H 278.077 7.06149 -0.525323 0
M  V30 2920 H 278.485 5.62615 0.460931 0
M  V30 2921 N 277.883 0.443576 1.51229 0
M  V30 2922 C 278.793 -0.370721 2.31652 0
M  V30 2923 C 279.809 -1.02186 1.40833 0
M  V30 2924 O 280.985 -1.01586 1.73903 0
M  V30 2925 C 278.05 -1.45376 3.14749 0
M  V30 2926 C 277.111 -0.822099 4.21355 0
M  V30 2927 C 276.344 -1.85353 5.0048 0
M  V30 2928 O 276.567 -3.07656 4.80316 0
M  V30 2929 O 275.501 -1.4406 5.84406 0
M  V30 2930 H 279.327 0.286002 3.0235 0
M  V30 2931 H 276.912 0.20598 1.47973 0
M  V30 2932 H 278.794 -2.08173 3.66391 0
M  V30 2933 H 277.469 -2.09445 2.46809 0
M  V30 2934 H 276.376 -0.155909 3.73775 0
M  V30 2935 H 277.709 -0.224797 4.91686 0
M  V30 2936 N 279.361 -1.56624 0.175154 0
M  V30 2937 C 280.589 -2.01374 -0.474971 0
M  V30 2938 C 281.004 -1.05537 -1.56548 0
M  V30 2939 O 280.361 -0.0568668 -1.82411 0
M  V30 2940 C 280.412 -3.45923 -1.04975 0
M  V30 2941 O 280.133 -4.381 -0.00276605 0
M  V30 2942 C 281.634 -4.06093 -1.77773 0
M  V30 2943 H 278.854 -0.659962 -0.121206 0
M  V30 2944 H 281.398 -2.02601 0.27801 0
M  V30 2945 H 279.553 -3.45458 -1.75321 0
M  V30 2946 H 279.967 -5.22753 -0.427681 0
M  V30 2947 H 281.441 -5.09147 -2.13245 0
M  V30 2948 H 281.918 -3.48405 -2.67414 0
M  V30 2949 H 282.524 -4.10272 -1.12059 0
M  V30 2950 N 280.839 0.0985539 -1.57292 0
M  V30 2951 C 282.064 0.820196 -1.90493 0
M  V30 2952 C 282.489 1.71658 -0.769094 0
M  V30 2953 O 281.847 1.79133 0.279495 0
M  V30 2954 C 281.895 1.61242 -3.22542 0
M  V30 2955 O 280.999 2.72108 -3.09888 0
M  V30 2956 H 280.34 0.225547 -0.62452 0
M  V30 2957 H 282.87 0.0748159 -2.04463 0
M  V30 2958 H 282.88 1.99737 -3.55766 0
M  V30 2959 H 281.555 0.954535 -4.04798 0
M  V30 2960 H 280.132 2.36667 -2.88172 0
M  V30 2961 N 282.317 1.53212 0.369288 0
M  V30 2962 C 283.249 1.75668 1.47219 0
M  V30 2963 C 284.262 0.637387 1.49804 0
M  V30 2964 O 285.451 0.913561 1.5335 0
M  V30 2965 C 282.551 1.81818 2.85999 0
M  V30 2966 C 281.724 3.11409 3.07153 0
M  V30 2967 C 280.783 3.08849 4.26026 0
M  V30 2968 O 279.809 3.82659 4.2138 0
M  V30 2969 N 281.011 2.29409 5.33246 0
M  V30 2970 H 283.776 2.70832 1.28337 0
M  V30 2971 H 281.337 1.51944 0.55898 0
M  V30 2972 H 283.329 1.77588 3.63655 0
M  V30 2973 H 281.899 0.939544 2.98146 0
M  V30 2974 H 281.119 3.28971 2.1719 0
M  V30 2975 H 282.407 3.97059 3.18154 0
M  V30 2976 H 281.805 1.68946 5.39883 0
M  V30 2977 H 280.362 2.31001 6.09493 0
M  V30 2978 N 283.795 -0.628877 1.44509 0
M  V30 2979 C 285.042 -1.38839 1.47411 0
M  V30 2980 C 285.37 -1.94202 0.10757 0
M  V30 2981 O 284.625 -1.74243 -0.890947 0
M  V30 2982 C 284.924 -2.56995 2.48371 0
M  V30 2983 C 284.59 -2.19908 3.93639 0
M  V30 2984 C 283.252 -2.09506 4.33198 0
M  V30 2985 C 285.604 -1.9064 4.85083 0
M  V30 2986 C 282.932 -1.68028 5.62124 0
M  V30 2987 C 285.284 -1.50655 6.14399 0
M  V30 2988 C 283.948 -1.38796 6.5291 0
M  V30 2989 H 283.218 -0.508048 0.539414 0
M  V30 2990 H 285.865 -0.712913 1.77735 0
M  V30 2991 H 284.17 -3.29786 2.11538 0
M  V30 2992 H 285.867 -3.15223 2.47861 0
M  V30 2993 H 282.457 -2.28922 3.62343 0
M  V30 2994 H 286.641 -1.97585 4.55273 0
M  V30 2995 H 281.897 -1.57452 5.90778 0
M  V30 2996 H 286.071 -1.27048 6.84713 0
M  V30 2997 H 283.698 -1.06429 7.52713 0
M  V30 2998 N 285.273 -1.31445 -0.869486 0
M  V30 2999 C 286.684 -1.19042 -1.43826 0
M  V30 3000 C 287.035 0.202919 -1.95148 0
M  V30 3001 O 286.16 1.10071 -1.86315 0
M  V30 3002 C 286.755 -2.15499 -2.6143 0
M  V30 3003 C 285.314 -2.07028 -3.14351 0
M  V30 3004 C 284.461 -2.04701 -1.87063 0
M  V30 3005 H 287.412 -1.43489 -0.677984 0
M  V30 3006 H 287.433 -1.74488 -3.38134 0
M  V30 3007 H 286.945 -3.16899 -2.24046 0
M  V30 3008 H 285.046 -1.08825 -3.56354 0
M  V30 3009 H 285.159 -2.96157 -3.766 0
M  V30 3010 H 283.523 -1.49724 -2.06046 0
M  V30 3011 H 284.306 -3.07857 -1.51917 0
M  V30 3012 N 286.751 1.08385 -1.14413 0
M  V30 3013 C 287.999 1.80419 -0.910679 0
M  V30 3014 C 288.32 1.86658 0.564243 0
M  V30 3015 O 287.59 1.35985 1.41014 0
M  V30 3016 H 286.17 0.668204 -0.333934 0
M  V30 3017 H 288.832 1.31037 -1.44275 0
M  V30 3018 H 287.928 2.83238 -1.31082 0
M  V30 3019 N 288.23 0.939286 1.26551 0
M  V30 3020 C 289.14 0.453432 2.30176 0
M  V30 3021 C 290.156 -0.471649 1.67486 0
M  V30 3022 O 291.332 -0.35164 1.98306 0
M  V30 3023 C 288.397 -0.275326 3.45605 0
M  V30 3024 C 287.458 0.686084 4.23782 0
M  V30 3025 C 286.691 -0.00798994 5.33699 0
M  V30 3026 O 286.914 -1.22528 5.57085 0
M  V30 3027 O 285.848 0.669746 5.98162 0
M  V30 3028 H 289.674 1.31416 2.73795 0
M  V30 3029 H 287.259 0.705095 1.31715 0
M  V30 3030 H 289.141 -0.685911 4.1578 0
M  V30 3031 H 287.816 -1.11147 3.0402 0
M  V30 3032 H 286.723 1.14658 3.56096 0
M  V30 3033 H 288.056 1.48979 4.69112 0
M  V30 3034 N 289.708 -1.40897 0.706093 0
M  V30 3035 C 290.618 -2.3455 0.0482286 0
M  V30 3036 C 291.634 -1.56796 -0.754396 0
M  V30 3037 O 292.81 -1.89228 -0.689538 0
M  V30 3038 C 289.875 -3.35625 -0.869303 0
M  V30 3039 C 288.936 -4.29261 -0.0576994 0
M  V30 3040 C 288.169 -5.25508 -0.931531 0
M  V30 3041 O 288.392 -5.27472 -2.17092 0
M  V30 3042 O 287.326 -6.00727 -0.375587 0
M  V30 3043 H 291.152 -2.92407 0.820476 0
M  V30 3044 H 288.737 -1.4193 0.4665 0
M  V30 3045 H 290.619 -3.97635 -1.39514 0
M  V30 3046 H 289.294 -2.80196 -1.62086 0
M  V30 3047 H 288.201 -3.70566 0.512988 0
M  V30 3048 H 289.534 -4.87817 0.655426 0
M  V30 3049 N 291.186 -0.45159 -1.50991 0
M  V30 3050 C 292.133 0.352625 -2.2809 0
M  V30 3051 C 293.103 1.0044 -1.32291 0
M  V30 3052 O 294.288 1.02058 -1.6121 0
M  V30 3053 C 291.428 1.43983 -3.13629 0
M  V30 3054 C 290.541 0.804772 -4.24438 0
M  V30 3055 C 289.676 1.86822 -4.97263 0
M  V30 3056 C 288.715 1.21236 -5.99973 0
M  V30 3057 N 287.852 2.2178 -6.66152 0
M  V30 3058 H 292.692 -0.311186 -2.96371 0
M  V30 3059 H 290.229 -0.165308 -1.46168 0
M  V30 3060 H 292.187 2.08161 -3.61559 0
M  V30 3061 H 290.817 2.07307 -2.47434 0
M  V30 3062 H 289.869 0.0509129 -3.80366 0
M  V30 3063 H 291.181 0.286076 -4.97979 0
M  V30 3064 H 290.335 2.58628 -5.48813 0
M  V30 3065 H 289.074 2.42068 -4.23385 0
M  V30 3066 H 288.079 0.479828 -5.47702 0
M  V30 3067 H 289.304 0.667051 -6.75816 0
M  V30 3068 H 287.25 2.76079 -5.95077 0
M  V30 3069 H 287.167 1.74841 -7.35504 0
M  V30 3070 H 288.435 2.93026 -7.22327 0
M  V30 3071 N 292.664 1.56529 -0.183458 0
M  V30 3072 C 294.075 1.83739 0.331177 0
M  V30 3073 C 294.426 1.10373 1.62211 0
M  V30 3074 O 293.551 0.36071 2.13373 0
M  V30 3075 C 294.146 3.33306 0.607646 0
M  V30 3076 C 292.705 3.60969 1.06668 0
M  V30 3077 C 291.852 2.77086 0.109029 0
M  V30 3078 H 294.803 1.53379 -0.407484 0
M  V30 3079 H 294.824 3.51444 1.45832 0
M  V30 3080 H 294.336 3.86677 -0.332086 0
M  V30 3081 H 292.437 3.13021 2.0211 0
M  V30 3082 H 292.55 4.69231 0.967447 0
M  V30 3083 H 290.914 2.47319 0.608714 0
M  V30 3084 H 291.697 3.33241 -0.82494 0
M  V30 3085 N 294.142 -0.090211 1.57342 0
M  V30 3086 C 295.074 -1.13541 1.99101 0
M  V30 3087 C 296.087 -1.3604 0.894258 0
M  V30 3088 O 297.276 -1.34606 1.17233 0
M  V30 3089 C 294.376 -2.49001 2.29895 0
M  V30 3090 C 293.549 -2.46712 3.61182 0
M  V30 3091 C 292.608 -3.64136 3.79857 0
M  V30 3092 O 291.634 -3.46405 4.51655 0
M  V30 3093 N 292.836 -4.83802 3.20806 0
M  V30 3094 H 295.601 -0.779942 2.89373 0
M  V30 3095 H 293.162 -0.279125 1.59476 0
M  V30 3096 H 295.154 -3.26166 2.39578 0
M  V30 3097 H 293.724 -2.76619 1.45605 0
M  V30 3098 H 292.944 -1.55058 3.62423 0
M  V30 3099 H 294.232 -2.42265 4.4742 0
M  V30 3100 H 293.63 -5.01112 2.62494 0
M  V30 3101 H 292.187 -5.58543 3.35966 0
M  V30 3102 N 295.62 -1.53406 -0.361157 0
M  V30 3103 C 296.583 -1.79479 -1.42548 0
M  V30 3104 C 297.583 -0.665327 -1.4639 0
M  V30 3105 O 298.773 -0.933549 -1.47073 0
M  V30 3106 C 295.905 -1.92087 -2.8163 0
M  V30 3107 H 297.098 -2.74538 -1.20701 0
M  V30 3108 H 294.651 -1.4455 -0.594546 0
M  V30 3109 H 295.386 -0.991099 -3.08784 0
M  V30 3110 H 295.171 -2.74241 -2.80239 0
M  V30 3111 H 296.661 -2.13836 -3.58697 0
M  V30 3112 N 297.098 0.621204 -1.44841 0
M  V30 3113 C 298.323 1.41244 -1.51871 0
M  V30 3114 C 298.748 1.87519 -0.147764 0
M  V30 3115 O 298.106 1.59334 0.865 0
M  V30 3116 C 298.154 2.60221 -2.49634 0
M  V30 3117 O 297.258 3.60395 -2.00473 0
M  V30 3118 H 296.599 0.42223 -0.512463 0
M  V30 3119 H 299.129 0.757305 -1.90069 0
M  V30 3120 H 299.139 3.0764 -2.67996 0
M  V30 3121 H 297.814 2.25887 -3.4921 0
M  V30 3122 H 296.391 3.19717 -1.91925 0
M  V30 3123 N 298.576 1.31904 0.862503 0
M  V30 3124 C 299.987 1.19803 1.43193 0
M  V30 3125 C 300.338 -0.192567 1.95253 0
M  V30 3126 O 299.463 -1.09081 1.86896 0
M  V30 3127 C 300.058 2.16883 2.60283 0
M  V30 3128 C 298.617 2.08692 3.13248 0
M  V30 3129 C 297.764 2.05691 1.85975 0
M  V30 3130 H 300.715 1.43846 0.670365 0
M  V30 3131 H 300.736 1.76278 3.37204 0
M  V30 3132 H 300.248 3.18083 2.22363 0
M  V30 3133 H 298.349 1.10713 3.55771 0
M  V30 3134 H 298.462 2.9815 3.75025 0
M  V30 3135 H 296.826 1.50814 2.05249 0
M  V30 3136 H 297.609 3.08659 1.50282 0
M  V30 3137 N 300.054 -1.07777 1.14986 0
M  V30 3138 C 300.964 -2.18404 0.856546 0
M  V30 3139 C 301.98 -1.73211 -0.165485 0
M  V30 3140 O 303.156 -2.01399 0.00755219 0
M  V30 3141 C 300.221 -3.44977 0.34526 0
M  V30 3142 C 299.282 -4.0476 1.43065 0
M  V30 3143 C 298.515 -5.25291 0.943663 0
M  V30 3144 O 298.738 -5.70004 -0.212426 0
M  V30 3145 O 297.672 -5.76638 1.72547 0
M  V30 3146 H 301.498 -2.45978 1.78125 0
M  V30 3147 H 299.083 -1.17033 0.928631 0
M  V30 3148 H 300.965 -4.21348 0.0663671 0
M  V30 3149 H 299.64 -3.18965 -0.551631 0
M  V30 3150 H 298.547 -3.29949 1.76309 0
M  V30 3151 H 299.88 -4.35035 2.30229 0
M  V30 3152 N 301.532 -0.945985 -1.26051 0
M  V30 3153 C 302.78 -0.594941 -1.93145 0
M  V30 3154 C 303.101 0.86953 -1.7454 0
M  V30 3155 O 302.371 1.61838 -1.10387 0
M  V30 3156 H 300.951 -0.217044 -0.714773 0
M  V30 3157 H 303.613 -1.20235 -1.53393 0
M  V30 3158 H 302.709 -0.816835 -3.01221 0
M  V30 3159 N 303.011 1.40521 -0.713556 0
M  V30 3160 C 304.427 1.54839 -0.386907 0
M  V30 3161 C 304.627 1.68532 1.1045 0
M  V30 3162 O 303.683 1.67377 1.89053 0
M  V30 3163 C 304.996 2.77792 -1.15118 0
M  V30 3164 C 306.544 2.91607 -1.13729 0
M  V30 3165 C 307.019 4.1747 -1.88368 0
M  V30 3166 N 308.51 4.24466 -1.85427 0
M  V30 3167 C 309.245 5.20755 -2.40004 0
M  V30 3168 N 308.741 6.22965 -3.03129 0
M  V30 3169 N 310.534 5.1282 -2.30158 0
M  V30 3170 H 302.685 1.29879 -1.68063 0
M  V30 3171 H 304.948 0.627896 -0.710247 0
M  V30 3172 H 304.654 2.73944 -2.20561 0
M  V30 3173 H 304.528 3.6984 -0.741477 0
M  V30 3174 H 306.915 2.94959 -0.0910608 0
M  V30 3175 H 306.996 2.00682 -1.5862 0
M  V30 3176 H 306.64 4.1488 -2.9298 0
M  V30 3177 H 306.57 5.074 -1.40898 0
M  V30 3178 H 309.061 3.51241 -1.3942 0
M  V30 3179 H 309.374 6.92859 -3.42295 0
M  V30 3180 H 307.719 6.23415 -3.07212 0
M  V30 3181 H 310.91 4.31899 -1.80501 0
M  V30 3182 H 311.083 5.87689 -2.72993 0
M  V30 3183 N 304.489 0.459591 1.5075 0
M  V30 3184 C 305.9 0.00171547 1.867 0
M  V30 3185 C 306.251 -1.39934 1.37525 0
M  V30 3186 O 305.376 -2.03523 0.735349 0
M  V30 3187 C 305.971 -0.00366298 3.388 0
M  V30 3188 C 304.53 -0.406026 3.74204 0
M  V30 3189 C 303.677 0.38673 2.7459 0
M  V30 3190 H 306.628 0.674413 1.43657 0
M  V30 3191 H 306.649 -0.808371 3.71814 0
M  V30 3192 H 306.161 1.01617 3.74561 0
M  V30 3193 H 304.262 -1.43063 3.4404 0
M  V30 3194 H 304.375 -0.115362 4.78961 0
M  V30 3195 H 302.739 -0.158019 2.54209 0
M  V30 3196 H 303.522 1.40585 3.13194 0
M  V30 3197 N 305.967 -1.56429 0.191757 0
M  V30 3198 C 306.877 -2.22541 -0.742481 0
M  V30 3199 C 307.893 -1.22342 -1.23727 0
M  V30 3200 O 309.069 -1.55069 -1.28513 0
M  V30 3201 C 306.134 -2.8692 -1.94623 0
M  V30 3202 C 305.195 -4.02378 -1.49633 0
M  V30 3203 C 304.428 -4.63678 -2.6427 0
M  V30 3204 O 304.651 -4.23895 -3.81666 0
M  V30 3205 O 303.585 -5.53202 -2.37174 0
M  V30 3206 H 307.411 -3.02977 -0.209462 0
M  V30 3207 H 304.996 -1.49353 -0.0373832 0
M  V30 3208 H 306.878 -3.27663 -2.64982 0
M  V30 3209 H 305.553 -2.09466 -2.46791 0
M  V30 3210 H 304.46 -3.66265 -0.761636 0
M  V30 3211 H 305.793 -4.81487 -1.02134 0
M  V30 3212 N 307.445 0.0818655 -1.57387 0
M  V30 3213 C 308.67 0.799946 -1.91352 0
M  V30 3214 C 309.095 1.70833 -0.787258 0
M  V30 3215 O 308.453 1.79419 0.26048 0
M  V30 3216 C 308.501 1.57812 -3.24234 0
M  V30 3217 O 307.605 2.68806 -3.12757 0
M  V30 3218 H 306.946 0.21891 -0.626877 0
M  V30 3219 H 309.476 0.0531256 -2.04531 0
M  V30 3220 H 309.486 1.95952 -3.57864 0
M  V30 3221 H 308.161 0.911548 -4.05788 0
M  V30 3222 H 306.738 2.33597 -2.90666 0
M  V30 3223 N 308.923 1.53595 0.353017 0
M  V30 3224 C 309.833 1.83897 1.45667 0
M  V30 3225 C 310.849 0.728334 1.58023 0
M  V30 3226 O 312.025 1.01968 1.73679 0
M  V30 3227 C 309.09 2.03383 2.80778 0
M  V30 3228 C 308.151 3.27262 2.77845 0
M  V30 3229 C 307.384 3.45809 4.06512 0
M  V30 3230 O 307.607 2.68387 5.03314 0
M  V30 3231 O 306.541 4.39207 4.11559 0
M  V30 3232 H 310.367 2.77686 1.2298 0
M  V30 3233 H 307.952 1.39132 0.544308 0
M  V30 3234 H 309.834 2.17698 3.60812 0
M  V30 3235 H 308.509 1.12783 3.03417 0
M  V30 3236 H 307.416 3.18359 1.96465 0
M  V30 3237 H 308.749 4.17824 2.60161 0
M  V30 3238 N 310.401 -0.613514 1.45168 0
M  V30 3239 C 311.629 -1.39946 1.5239 0
M  V30 3240 C 312.044 -1.88167 0.154531 0
M  V30 3241 O 311.401 -1.61872 -0.842843 0
M  V30 3242 C 311.452 -2.60795 2.50337 0
M  V30 3243 O 311.173 -2.1458 3.81952 0
M  V30 3244 C 312.674 -3.53723 2.67198 0
M  V30 3245 H 309.894 -0.428593 0.516284 0
M  V30 3246 H 312.438 -0.748753 1.903 0
M  V30 3247 H 310.593 -3.21919 2.15515 0
M  V30 3248 H 311.007 -2.93055 4.34993 0
M  V30 3249 H 312.481 -4.35079 3.39721 0
M  V30 3250 H 312.958 -4.0368 1.73029 0
M  V30 3251 H 313.564 -2.98456 3.02992 0
M  V30 3252 N 311.879 -1.3236 -0.855495 0
M  V30 3253 C 313.104 -1.2601 -1.64731 0
M  V30 3254 C 313.529 0.169068 -1.87339 0
M  V30 3255 O 312.887 1.12016 -1.42556 0
M  V30 3256 C 312.935 -2.02417 -2.98429 0
M  V30 3257 O 312.039 -1.3714 -3.8893 0
M  V30 3258 H 311.38 -0.434325 -0.502253 0
M  V30 3259 H 313.91 -1.74661 -1.06558 0
M  V30 3260 H 313.92 -2.12559 -3.48257 0
M  V30 3261 H 312.595 -3.06343 -2.81295 0
M  V30 3262 H 311.172 -1.3554 -3.47395 0
M  V30 3263 N 313.357 1.07166 -1.15556 0
M  V30 3264 C 314.597 1.81391 -0.94216 0
M  V30 3265 C 314.961 1.84788 0.521272 0
M  V30 3266 O 316.162 2.54904 0.85307 0
M  V30 3267 C 314.433 3.22431 -1.54185 0
M  V30 3268 S 315.992 4.13379 -1.47183 0
M  V30 3269 H 312.81 0.624963 -0.339031 0
M  V30 3270 H 315.412 1.28725 -1.4714 0
M  V30 3271 H 314.116 3.17548 -2.59984 0
M  V30 3272 H 313.647 3.80172 -1.01156 0
M  V30 3273 H 315.662 4.94007 -0.466004 0
M  V30 3274 N 314.835 0.952656 1.25548 0
M  V30 3275 C 315.765 0.489287 2.28316 0
M  V30 3276 C 316.746 -0.463359 1.63667 0
M  V30 3277 O 317.931 -0.36274 1.90782 0
M  V30 3278 C 315.061 -0.235603 3.465 0
M  V30 3279 C 314.015 0.631593 4.23314 0
M  V30 3280 C 313.341 -0.223923 5.34231 0
M  V30 3281 C 314.641 1.90871 4.86174 0
M  V30 3282 H 316.335 1.34822 2.67326 0
M  V30 3283 H 313.881 0.649728 1.28509 0
M  V30 3284 H 315.834 -0.570882 4.17515 0
M  V30 3285 H 314.558 -1.12877 3.06474 0
M  V30 3286 H 313.217 0.949929 3.54079 0
M  V30 3287 H 312.865 -1.11678 4.90446 0
M  V30 3288 H 312.565 0.35299 5.86539 0
M  V30 3289 H 314.089 -0.554214 6.0808 0
M  V30 3290 H 315.503 1.63997 5.49343 0
M  V30 3291 H 313.9 2.43112 5.4865 0
M  V30 3292 H 314.97 2.61304 4.08471 0
M  V30 3293 N 316.313 -1.40141 0.720998 0
M  V30 3294 C 317.559 -2.01084 0.263231 0
M  V30 3295 C 317.892 -1.57052 -1.14229 0
M  V30 3296 O 317.167 -0.793027 -1.77599 0
M  V30 3297 C 317.45 -3.58401 0.349344 0
M  V30 3298 C 317.303 -4.12491 1.79363 0
M  V30 3299 C 318.622 -4.39231 -0.276351 0
M  V30 3300 H 315.741 -0.730572 0.0971228 0
M  V30 3301 H 318.383 -1.66543 0.914518 0
M  V30 3302 H 316.533 -3.87958 -0.205165 0
M  V30 3303 H 318.205 -3.93711 2.40394 0
M  V30 3304 H 316.448 -3.66576 2.31958 0
M  V30 3305 H 317.119 -5.21646 1.80524 0
M  V30 3306 H 319.595 -4.15637 0.196184 0
M  V30 3307 H 318.471 -5.48586 -0.185681 0
M  V30 3308 H 318.732 -4.20643 -1.36059 0
M  V30 3309 N 317.792 -0.46758 -1.50504 0
M  V30 3310 C 319.02 0.0864133 -2.06719 0
M  V30 3311 C 319.435 1.33819 -1.33184 0
M  V30 3312 O 318.792 1.78061 -0.400083 0
M  V30 3313 C 318.843 0.378079 -3.59517 0
M  V30 3314 O 318.564 -0.824044 -4.3028 0
M  V30 3315 C 320.065 0.979426 -4.32345 0
M  V30 3316 H 317.285 -0.00551697 -0.670977 0
M  V30 3317 H 319.829 -0.655354 -1.93715 0
M  V30 3318 H 317.984 1.06977 -3.72337 0
M  V30 3319 H 318.398 -0.566518 -5.21432 0
M  V30 3320 H 319.872 1.1333 -5.40241 0
M  V30 3321 H 320.349 1.9686 -3.9261 0
M  V30 3322 H 320.955 0.326216 -4.24047 0
M  V30 3323 N 319.27 1.56325 -0.20005 0
M  V30 3324 C 320.498 2.02105 0.442874 0
M  V30 3325 C 320.913 1.08014 1.5485 0
M  V30 3326 O 320.27 0.0858797 1.82298 0
M  V30 3327 C 320.321 3.47549 0.994583 0
M  V30 3328 O 320.042 4.38049 -0.0669322 0
M  V30 3329 C 321.543 4.0887 1.7129 0
M  V30 3330 H 318.763 0.661807 0.110691 0
M  V30 3331 H 321.307 2.02134 -0.310207 0
M  V30 3332 H 319.462 3.48204 1.69803 0
M  V30 3333 H 319.876 5.23368 0.344462 0
M  V30 3334 H 321.35 5.12475 2.05118 0
M  V30 3335 H 321.827 3.52615 2.61838 0
M  V30 3336 H 322.433 4.12002 1.05518 0
M  V30 3337 N 320.748 -0.0735177 1.57428 0
M  V30 3338 C 321.976 -0.785969 1.9139 0
M  V30 3339 C 322.391 -1.71207 0.795847 0
M  V30 3340 O 321.748 -1.81033 -0.230915 0
M  V30 3341 C 321.799 -1.58107 3.25091 0
M  V30 3342 O 321.52 -0.6922 4.32597 0
M  V30 3343 C 323.021 -2.39467 3.73055 0
M  V30 3344 H 320.241 -0.223558 0.632663 0
M  V30 3345 H 322.785 -0.044302 2.04452 0
M  V30 3346 H 320.94 -2.27503 3.13562 0
M  V30 3347 H 321.354 -1.24504 5.09508 0
M  V30 3348 H 322.828 -2.90716 4.69242 0
M  V30 3349 H 323.305 -3.18913 3.01979 0
M  V30 3350 H 323.911 -1.7523 3.87523 0
M  V30 3351 N 322.226 -1.5378 -0.344866 0
M  V30 3352 C 323.503 -1.61589 -1.10219 0
M  V30 3353 C 323.883 -0.436316 -2.06542 0
M  V30 3354 O 323.231 0.571543 -2.21237 0
M  V30 3355 C 323.441 -2.97602 -1.82301 0
M  V30 3356 C 324.789 -3.5291 -2.36093 0
M  V30 3357 O 325.813 -2.99768 -1.924 0
M  V30 3358 O 324.672 -4.45859 -3.16026 0
M  V30 3359 H 321.766 -0.653522 -0.506792 0
M  V30 3360 H 324.312 -1.66126 -0.346465 0
M  V30 3361 H 323.084 -3.74893 -1.12121 0
M  V30 3362 H 322.707 -2.9665 -2.64735 0
M  V30 3363 N 323.704 0.605807 -1.45491 0
M  V30 3364 C 324.951 1.36476 -1.49601 0
M  V30 3365 C 325.279 1.94007 -0.138452 0
M  V30 3366 O 324.534 1.75638 0.863114 0
M  V30 3367 C 324.833 2.53012 -2.52428 0
M  V30 3368 C 324.499 2.13617 -3.97087 0
M  V30 3369 C 323.161 2.02587 -4.36477 0
M  V30 3370 C 325.513 1.82899 -4.88055 0
M  V30 3371 C 322.841 1.59064 -5.64726 0
M  V30 3372 C 325.193 1.40861 -6.16718 0
M  V30 3373 C 323.857 1.28391 -6.55036 0
M  V30 3374 H 323.127 0.499402 -0.547429 0
M  V30 3375 H 325.774 0.684546 -1.78847 0
M  V30 3376 H 324.079 3.26379 -2.16758 0
M  V30 3377 H 325.776 3.1124 -2.52845 0
M  V30 3378 H 322.366 2.23129 -3.65939 0
M  V30 3379 H 326.55 1.90317 -4.58359 0
M  V30 3380 H 321.806 1.48034 -5.93208 0
M  V30 3381 H 325.98 1.16138 -6.86648 0
M  V30 3382 H 323.607 0.944403 -7.54311 0
M  V30 3383 N 325.182 1.32811 0.848464 0
M  V30 3384 C 326.114 1.18095 1.96433 0
M  V30 3385 C 327.127 0.114354 1.62398 0
M  V30 3386 O 328.316 0.363892 1.74751 0
M  V30 3387 C 325.416 0.786798 3.2964 0
M  V30 3388 C 324.589 1.943 3.91875 0
M  V30 3389 C 323.648 1.53138 5.03423 0
M  V30 3390 O 322.674 2.24432 5.23086 0
M  V30 3391 N 323.876 0.430915 5.78898 0
M  V30 3392 H 326.641 2.14218 2.09597 0
M  V30 3393 H 324.202 1.2543 1.02367 0
M  V30 3394 H 326.194 0.493715 4.01677 0
M  V30 3395 H 324.764 -0.0834541 3.12489 0
M  V30 3396 H 323.984 2.40224 3.12547 0
M  V30 3397 H 325.272 2.71689 4.30189 0
M  V30 3398 H 324.67 -0.162333 5.65467 0
M  V30 3399 H 323.227 0.197466 6.51501 0
M  V30 3400 N 326.66 -1.06551 1.16123 0
M  V30 3401 C 327.909 -1.78687 0.935622 0
M  V30 3402 C 328.222 -1.88056 -0.538001 0
M  V30 3403 O 329.428 -2.56794 -0.88143 0
M  V30 3404 C 327.884 -3.21143 1.62466 0
M  V30 3405 C 327.492 -3.19949 3.13587 0
M  V30 3406 C 329.236 -3.9783 1.48092 0
M  V30 3407 C 327.143 -4.57108 3.75241 0
M  V30 3408 H 326.073 -0.669712 0.346412 0
M  V30 3409 H 328.724 -1.19534 1.39226 0
M  V30 3410 H 327.106 -3.80539 1.09572 0
M  V30 3411 H 328.28 -2.70151 3.73303 0
M  V30 3412 H 326.595 -2.5676 3.27816 0
M  V30 3413 H 329.192 -4.99217 1.91538 0
M  V30 3414 H 329.535 -4.14078 0.429507 0
M  V30 3415 H 330.068 -3.4495 1.98127 0
M  V30 3416 H 326.807 -4.46065 4.80319 0
M  V30 3417 H 326.327 -5.07111 3.20309 0
M  V30 3418 H 328.006 -5.26069 3.76644 0
M  V30 3419 N 328.138 -0.959301 -1.25041 0
M  V30 3420 C 329.07 -0.440543 -2.24926 0
M  V30 3421 C 330.083 0.446131 -1.56568 0
M  V30 3422 O 331.272 0.253657 -1.76689 0
M  V30 3423 C 328.372 0.38412 -3.36716 0
M  V30 3424 C 327.545 -0.490658 -4.34639 0
M  V30 3425 C 326.604 0.276587 -5.25473 0
M  V30 3426 O 325.63 -0.326614 -5.68262 0
M  V30 3427 N 326.832 1.56844 -5.5891 0
M  V30 3428 H 329.597 -1.29931 -2.70071 0
M  V30 3429 H 327.158 -0.830181 -1.38995 0
M  V30 3430 H 329.15 0.905228 -3.94446 0
M  V30 3431 H 327.72 1.14377 -2.90924 0
M  V30 3432 H 326.94 -1.19282 -3.7572 0
M  V30 3433 H 328.228 -1.08756 -4.97041 0
M  V30 3434 H 327.626 2.08036 -5.26059 0
M  V30 3435 H 326.183 2.03541 -6.19205 0
M  V30 3436 N 329.616 1.39756 -0.72842 0
M  V30 3437 C 330.844 2.04948 -0.283528 0
M  V30 3438 C 331.259 1.54908 1.0793 0
M  V30 3439 O 330.616 0.711135 1.68075 0
M  V30 3440 C 330.667 3.60498 -0.268957 0
M  V30 3441 O 330.388 4.08695 -1.57798 0
M  V30 3442 C 331.889 4.4288 0.192912 0
M  V30 3443 H 329.109 0.659243 -0.125056 0
M  V30 3444 H 331.653 1.78927 -0.990226 0
M  V30 3445 H 329.808 3.85444 0.388801 0
M  V30 3446 H 330.222 5.02977 -1.48709 0
M  V30 3447 H 331.696 5.51791 0.151952 0
M  V30 3448 H 332.173 4.21418 1.23708 0
M  V30 3449 H 332.779 4.23069 -0.435039 0
M  V30 3450 N 331.094 0.475555 1.50254 0
M  V30 3451 C 332.004 -0.321501 2.32387 0
M  V30 3452 C 333.02 -0.991755 1.42969 0
M  V30 3453 O 334.196 -0.978747 1.76018 0
M  V30 3454 C 331.261 -1.38667 3.17762 0
M  V30 3455 C 330.322 -0.732538 4.23004 0
M  V30 3456 C 329.555 -1.74695 5.04299 0
M  V30 3457 O 329.778 -2.97399 4.86734 0
M  V30 3458 O 328.712 -1.31631 5.8733 0
M  V30 3459 H 332.538 0.350071 3.01676 0
M  V30 3460 H 330.123 0.237321 1.47503 0
M  V30 3461 H 332.005 -2.00354 3.70724 0
M  V30 3462 H 330.68 -2.04163 2.51196 0
M  V30 3463 H 329.587 -0.0765902 3.74022 0
M  V30 3464 H 330.92 -0.120452 4.92053 0
M  V30 3465 N 332.573 -1.56217 0.208337 0
M  V30 3466 C 333.506 -2.15633 -0.746842 0
M  V30 3467 C 334.484 -1.09685 -1.20034 0
M  V30 3468 O 335.668 -1.3787 -1.28547 0
M  V30 3469 C 332.795 -2.72594 -2.01023 0
M  V30 3470 C 331.841 -3.91251 -1.69779 0
M  V30 3471 S 332.674 -5.28962 -0.834209 0
M  V30 3472 C 333.83 -5.89353 -2.10745 0
M  V30 3473 H 334.063 -2.96315 -0.241789 0
M  V30 3474 H 331.596 -1.54398 -0.00682183 0
M  V30 3475 H 333.554 -3.06053 -2.73572 0
M  V30 3476 H 332.215 -1.91929 -2.48641 0
M  V30 3477 H 331.408 -4.29562 -2.63614 0
M  V30 3478 H 331.01 -3.58869 -1.05303 0
M  V30 3479 H 333.302 -6.04522 -3.05875 0
M  V30 3480 H 334.245 -6.85661 -1.76845 0
M  V30 3481 H 334.653 -5.1807 -2.24196 0
M  V30 3482 N 334.051 0.0651679 -1.57465 0
M  V30 3483 C 335.014 1.06117 -2.03155 0
M  V30 3484 C 336.014 1.31204 -0.929632 0
M  V30 3485 O 337.204 1.26813 -1.19432 0
M  V30 3486 C 334.336 2.4032 -2.41783 0
M  V30 3487 H 335.529 0.667231 -2.92383 0
M  V30 3488 H 333.082 0.311075 -1.53173 0
M  V30 3489 H 333.817 2.84532 -1.55601 0
M  V30 3490 H 333.602 2.23451 -3.22199 0
M  V30 3491 H 335.092 3.11898 -2.77685 0
M  V30 3492 N 335.529 1.53961 0.336706 0
M  V30 3493 C 336.492 1.81724 1.39675 0
M  V30 3494 C 337.492 0.688532 1.45313 0
M  V30 3495 O 338.682 0.956829 1.45569 0
M  V30 3496 C 335.814 1.96543 2.78538 0
M  V30 3497 H 337.007 2.76424 1.16318 0
M  V30 3498 H 334.56 1.45478 0.571474 0
M  V30 3499 H 335.295 1.0401 3.07168 0
M  V30 3500 H 335.08 2.78665 2.75841 0
M  V30 3501 H 336.57 2.19516 3.5525 0
M  V30 3502 N 337.007 -0.598083 1.45811 0
M  V30 3503 C 338.235 -1.38322 1.53866 0
M  V30 3504 C 338.65 -1.87992 0.174479 0
M  V30 3505 O 338.007 -1.62756 -0.825627 0
M  V30 3506 C 338.058 -2.58125 2.53089 0
M  V30 3507 O 337.779 -2.10516 3.84206 0
M  V30 3508 C 339.28 -3.50869 2.70935 0
M  V30 3509 H 336.5 -0.423093 0.520801 0
M  V30 3510 H 339.044 -0.728527 1.91083 0
M  V30 3511 H 337.199 -3.19615 2.18917 0
M  V30 3512 H 337.613 -2.88425 4.38077 0
M  V30 3513 H 339.087 -4.31451 3.44317 0
M  V30 3514 H 339.564 -4.01822 1.77301 0
M  V30 3515 H 340.17 -2.95225 3.06141 0
M  V30 3516 N 338.485 -1.33259 -0.841409 0
M  V30 3517 C 339.418 -1.1764 -1.95541 0
M  V30 3518 C 340.396 -0.072501 -1.62438 0
M  V30 3519 O 341.58 -0.23427 -1.87039 0
M  V30 3520 C 338.707 -0.803794 -3.29024 0
M  V30 3521 C 337.753 -1.91482 -3.81099 0
M  V30 3522 S 338.586 -3.52538 -4.03085 0
M  V30 3523 C 339.742 -3.17279 -5.39523 0
M  V30 3524 H 339.975 -2.11941 -2.08491 0
M  V30 3525 H 337.508 -1.18072 -0.9949 0
M  V30 3526 H 339.466 -0.595592 -4.06156 0
M  V30 3527 H 338.127 0.120574 -3.13868 0
M  V30 3528 H 337.32 -1.60742 -4.7768 0
M  V30 3529 H 336.922 -2.07956 -3.10854 0
M  V30 3530 H 339.214 -2.67946 -6.22263 0
M  V30 3531 H 340.157 -4.1293 -5.75234 0
M  V30 3532 H 340.565 -2.53943 -5.04156 0
M  V30 3533 N 339.963 1.05934 -1.16686 0
M  V30 3534 C 340.873 2.17014 -0.891183 0
M  V30 3535 C 341.889 1.73453 0.137907 0
M  V30 3536 O 343.065 2.01361 -0.039592 0
M  V30 3537 C 340.13 3.44384 -0.400099 0
M  V30 3538 C 339.191 4.02433 -1.49486 0
M  V30 3539 C 338.424 5.23723 -1.02711 0
M  V30 3540 O 338.647 5.7027 0.121716 0
M  V30 3541 O 337.581 5.7382 -1.81699 0
M  V30 3542 H 341.407 2.43113 -1.82015 0
M  V30 3543 H 338.992 1.15541 -0.947132 0
M  V30 3544 H 340.874 4.21189 -0.133392 0
M  V30 3545 H 339.549 3.19802 0.500817 0
M  V30 3546 H 338.456 3.27102 -1.81535 0
M  V30 3547 H 339.789 4.31317 -2.37121 0
M  V30 3548 N 341.441 0.965919 1.2453 0
M  V30 3549 C 342.669 0.644385 1.96609 0
M  V30 3550 C 343.084 -0.785823 1.71669 0
M  V30 3551 O 342.441 -1.52703 0.999399 0
M  V30 3552 C 342.492 0.907375 3.49927 0
M  V30 3553 O 342.213 2.28136 3.74013 0
M  V30 3554 C 343.714 0.599784 4.39224 0
M  V30 3555 H 340.934 0.240588 0.626385 0
M  V30 3556 H 343.478 1.29337 1.58405 0
M  V30 3557 H 341.633 0.304631 3.862 0
M  V30 3558 H 342.047 2.36002 4.68405 0
M  V30 3559 H 343.521 0.834263 5.45659 0
M  V30 3560 H 343.998 -0.465921 4.36722 0
M  V30 3561 H 344.604 1.18235 4.08535 0
M  V30 3562 N 342.919 -1.39368 0.735821 0
M  V30 3563 C 344.144 -2.05319 0.293052 0
M  V30 3564 C 344.569 -1.55115 -1.064 0
M  V30 3565 O 343.927 -0.695261 -1.67439 0
M  V30 3566 C 343.975 -3.59305 0.305323 0
M  V30 3567 O 343.079 -4.06299 -0.706761 0
M  V30 3568 H 342.42 -0.650529 0.13307 0
M  V30 3569 H 344.95 -1.78386 1.00197 0
M  V30 3570 H 344.96 -4.07724 0.149997 0
M  V30 3571 H 343.635 -3.95207 1.29553 0
M  V30 3572 H 342.212 -3.69292 -0.517504 0
M  V30 3573 N 344.397 -0.483516 -1.5 0
M  V30 3574 C 345.646 0.0689102 -2.01582 0
M  V30 3575 C 345.959 1.39655 -1.36952 0
M  V30 3576 O 347.165 2.03465 -1.79762 0
M  V30 3577 C 345.621 0.173302 -3.59483 0
M  V30 3578 C 345.229 -1.14665 -4.33077 0
M  V30 3579 C 346.973 0.677024 -4.19066 0
M  V30 3580 C 344.88 -1.00537 -5.82792 0
M  V30 3581 H 343.81 0.0295277 -0.753422 0
M  V30 3582 H 346.461 -0.620295 -1.72698 0
M  V30 3583 H 344.843 0.926569 -3.85007 0
M  V30 3584 H 346.017 -1.91184 -4.19268 0
M  V30 3585 H 344.332 -1.58244 -3.85159 0
M  V30 3586 H 346.929 0.799952 -5.28682 0
M  V30 3587 H 347.272 1.67151 -3.81269 0
M  V30 3588 H 347.805 -0.0192083 -3.97795 0
M  V30 3589 H 344.544 -1.9736 -6.25083 0
M  V30 3590 H 344.064 -0.280776 -5.99142 0
M  V30 3591 H 345.743 -0.677 -6.43448 0
M  V30 3592 N 345.875 1.56104 -0.216619 0
M  V30 3593 C 347.122 1.98172 0.416416 0
M  V30 3594 C 347.45 1.10413 1.60122 0
M  V30 3595 O 346.705 0.147967 1.9514 0
M  V30 3596 C 347.004 3.45923 0.898464 0
M  V30 3597 C 346.67 4.50559 -0.175288 0
M  V30 3598 C 345.332 4.78897 -0.470271 0
M  V30 3599 C 347.684 5.1334 -0.901728 0
M  V30 3600 C 345.012 5.67299 -1.4963 0
M  V30 3601 C 347.364 6.02853 -1.91705 0
M  V30 3602 C 346.028 6.29537 -2.21901 0
M  V30 3603 H 345.298 0.725164 0.152377 0
M  V30 3604 H 347.945 1.88839 -0.318103 0
M  V30 3605 H 346.25 3.52434 1.71165 0
M  V30 3606 H 347.947 3.75841 1.39803 0
M  V30 3607 H 344.537 4.28551 0.0647806 0
M  V30 3608 H 348.721 4.91521 -0.687072 0
M  V30 3609 H 343.977 5.86239 -1.73592 0
M  V30 3610 H 348.151 6.50552 -2.48505 0
M  V30 3611 H 345.778 6.97835 -3.01548 0
M  V30 3612 N 347.353 -0.0568162 1.57498 0
M  V30 3613 C 348.581 -0.765626 1.92213 0
M  V30 3614 C 348.996 -1.70353 0.813961 0
M  V30 3615 O 348.353 -1.81268 -0.211701 0
M  V30 3616 C 348.404 -1.5465 3.2675 0
M  V30 3617 O 348.125 -0.646278 4.33307 0
M  V30 3618 C 349.626 -2.35497 3.75574 0
M  V30 3619 H 346.846 -0.216835 0.634999 0
M  V30 3620 H 349.39 -0.0226146 2.04487 0
M  V30 3621 H 347.545 -2.24165 3.15957 0
M  V30 3622 H 347.959 -1.19093 5.108 0
M  V30 3623 H 349.433 -2.85722 4.72299 0
M  V30 3624 H 349.91 -3.15692 3.05344 0
M  V30 3625 H 350.516 -1.7111 3.8936 0
M  V30 3626 N 348.832 -1.54138 -0.328536 0
M  V30 3627 C 350.06 -1.76062 -1.08673 0
M  V30 3628 C 350.475 -0.506852 -1.81869 0
M  V30 3629 O 349.832 0.522223 -1.74869 0
M  V30 3630 C 349.883 -2.95054 -2.08866 0
M  V30 3631 O 349.604 -4.15583 -1.38644 0
M  V30 3632 C 351.105 -3.2915 -2.96943 0
M  V30 3633 H 348.325 -0.587889 -0.323461 0
M  V30 3634 H 350.869 -2.0101 -0.376175 0
M  V30 3635 H 349.024 -2.72394 -2.75464 0
M  V30 3636 H 349.438 -4.82481 -2.05699 0
M  V30 3637 H 350.912 -4.15723 -3.63151 0
M  V30 3638 H 351.389 -2.461 -3.63774 0
M  V30 3639 H 351.995 -3.53871 -2.35914 0
M  V30 3640 N 350.31 0.590341 -1.46126 0
M  V30 3641 C 351.22 1.72793 -1.58681 0
M  V30 3642 C 352.236 1.67516 -0.470566 0
M  V30 3643 O 353.412 1.87562 -0.733642 0
M  V30 3644 C 350.477 3.09287 -1.5666 0
M  V30 3645 C 349.538 3.25886 -2.79458 0
M  V30 3646 C 348.771 4.55869 -2.77524 0
M  V30 3647 O 348.994 5.3928 -1.85832 0
M  V30 3648 O 347.928 4.75552 -3.68964 0
M  V30 3649 H 351.754 1.65149 -2.54872 0
M  V30 3650 H 349.339 0.756486 -1.28832 0
M  V30 3651 H 351.221 3.90577 -1.58202 0
M  V30 3652 H 349.896 3.17385 -0.636271 0
M  V30 3653 H 348.803 2.44119 -2.83472 0
M  V30 3654 H 350.136 3.22675 -3.71674 0
M  V30 3655 N 351.788 1.33704 0.83433 0
M  V30 3656 C 353.018 1.28281 1.6195 0
M  V30 3657 C 353.426 -0.147603 1.88623 0
M  V30 3658 O 352.769 -1.1016 1.47005 0
M  V30 3659 C 352.831 1.99386 2.99141 0
M  V30 3660 C 352.495 3.48681 2.95416 0
M  V30 3661 C 353.492 4.438 2.70809 0
M  V30 3662 C 351.177 3.90925 3.15409 0
M  V30 3663 C 353.171 5.79138 2.66229 0
M  V30 3664 C 350.858 5.26366 3.10454 0
M  V30 3665 C 351.856 6.20284 2.85895 0
M  V30 3666 O 351.544 7.53245 2.80852 0
M  V30 3667 H 351.276 0.44315 0.510484 0
M  V30 3668 H 353.83 1.76711 1.04702 0
M  V30 3669 H 352.06 1.45554 3.58261 0
M  V30 3670 H 353.749 1.87403 3.60049 0
M  V30 3671 H 354.515 4.12485 2.5511 0
M  V30 3672 H 350.394 3.18229 3.33543 0
M  V30 3673 H 353.938 6.52416 2.4698 0
M  V30 3674 H 349.835 5.57304 3.25703 0
M  V30 3675 H 350.603 7.62846 2.96661 0
M  V30 3676 N 353.266 -1.05314 1.17247 0
M  V30 3677 C 354.198 -2.13023 0.845812 0
M  V30 3678 C 355.211 -1.62096 -0.151246 0
M  V30 3679 O 356.4 -1.78343 0.0748818 0
M  V30 3680 C 353.5 -3.38047 0.240292 0
M  V30 3681 C 352.673 -4.18255 1.27991 0
M  V30 3682 C 351.732 -5.21625 0.692375 0
M  V30 3683 O 350.758 -5.52619 1.36385 0
M  V30 3684 N 351.96 -5.78201 -0.516178 0
M  V30 3685 H 354.725 -2.41642 1.77283 0
M  V30 3686 H 352.286 -1.21401 1.07115 0
M  V30 3687 H 354.278 -4.04359 -0.16603 0
M  V30 3688 H 352.848 -3.06972 -0.590487 0
M  V30 3689 H 352.068 -3.47451 1.86203 0
M  V30 3690 H 353.356 -4.68643 1.98119 0
M  V30 3691 H 352.754 -5.55301 -1.07969 0
M  V30 3692 H 351.311 -6.4604 -0.86458 0
M  V30 3693 N 354.744 -0.972509 -1.24016 0
M  V30 3694 C 355.99 -0.637978 -1.92504 0
M  V30 3695 C 356.323 0.825383 -1.75787 0
M  V30 3696 O 355.598 1.59442 -1.11393 0
M  V30 3697 C 355.881 -1.01942 -3.45369 0
M  V30 3698 C 355.734 -2.53983 -3.71231 0
M  V30 3699 C 357.053 -0.55751 -4.36555 0
M  V30 3700 H 354.172 -0.233248 -0.699117 0
M  V30 3701 H 356.814 -1.21238 -1.46292 0
M  V30 3702 H 354.964 -0.530656 -3.84859 0
M  V30 3703 H 356.636 -3.10374 -3.41271 0
M  V30 3704 H 354.879 -2.96968 -3.16216 0
M  V30 3705 H 355.55 -2.75723 -4.78206 0
M  V30 3706 H 358.026 -0.977029 -4.04467 0
M  V30 3707 H 356.902 -0.85292 -5.42233 0
M  V30 3708 H 357.163 0.542328 -4.38761 0
M  V30 3709 N 356.222 1.38976 -0.743202 0
M  V30 3710 C 357.185 2.28901 -0.117014 0
M  V30 3711 C 358.185 1.46698 0.658503 0
M  V30 3712 O 359.375 1.67274 0.486305 0
M  V30 3713 C 356.507 3.30309 0.84315 0
M  V30 3714 H 357.7 2.8578 -0.909373 0
M  V30 3715 H 355.253 1.47761 -0.509547 0
M  V30 3716 H 355.988 2.785 1.66157 0
M  V30 3717 H 355.773 3.91029 0.289594 0
M  V30 3718 H 357.263 3.97577 1.2776 0
M  V30 3719 N 357.7 0.491464 1.49741 0
M  V30 3720 C 358.946 -0.0565092 2.02721 0
M  V30 3721 C 359.279 -1.37522 1.37118 0
M  V30 3722 O 358.554 -1.87866 0.503645 0
M  V30 3723 C 358.837 -0.219051 3.59433 0
M  V30 3724 C 358.69 1.12211 4.35579 0
M  V30 3725 C 360.009 -0.964157 4.29409 0
M  V30 3726 H 357.128 -0.0190627 0.736753 0
M  V30 3727 H 359.77 0.641021 1.7886 0
M  V30 3728 H 357.92 -0.813165 3.79895 0
M  V30 3729 H 359.592 1.75437 4.26637 0
M  V30 3730 H 357.835 1.71377 3.98513 0
M  V30 3731 H 358.506 0.961794 5.43556 0
M  V30 3732 H 360.982 -0.460378 4.13545 0
M  V30 3733 H 359.858 -1.04671 5.38828 0
M  V30 3734 H 360.119 -2.00563 3.93988 0
M  V30 3735 N 359.178 -1.55987 0.224894 0
M  V30 3736 C 360.141 -2.19178 -0.670348 0
M  V30 3737 C 361.141 -1.15461 -1.11917 0
M  V30 3738 O 362.331 -1.40675 -1.02743 0
M  V30 3739 C 359.463 -2.81777 -1.9187 0
M  V30 3740 H 360.656 -2.99662 -0.119364 0
M  V30 3741 H 358.209 -1.5628 -0.0247128 0
M  V30 3742 H 358.944 -2.05172 -2.51147 0
M  V30 3743 H 358.729 -3.57732 -1.60531 0
M  V30 3744 H 360.219 -3.30205 -2.55645 0
M  V30 3745 N 360.656 0.0484629 -1.57525 0
M  V30 3746 C 361.904 0.741657 -1.88 0
M  V30 3747 C 362.225 1.76918 -0.820054 0
M  V30 3748 O 361.495 1.95335 0.148661 0
M  V30 3749 H 360.075 0.276908 -0.69378 0
M  V30 3750 H 362.737 0.019013 -1.94891 0
M  V30 3751 H 361.833 1.24336 -2.86264 0
M  V30 3752 N 362.134 1.5431 0.320358 0
M  V30 3753 C 363.374 1.74395 1.0661 0
M  V30 3754 C 363.738 0.508602 1.85141 0
M  V30 3755 O 364.939 0.586856 2.62316 0
M  V30 3756 C 363.21 2.98619 1.96371 0
M  V30 3757 S 364.769 3.39621 2.77854 0
M  V30 3758 H 361.587 0.613204 0.359863 0
M  V30 3759 H 364.189 1.9249 0.341727 0
M  V30 3760 H 362.893 3.86673 1.3752 0
M  V30 3761 H 362.424 2.83055 2.73209 0
M  V30 3762 H 364.439 2.95172 3.98858 0
M  V30 3763 N 363.613 -0.582584 1.46437 0
M  V30 3764 C 364.859 -1.34278 1.51978 0
M  V30 3765 C 365.192 -1.93446 0.170973 0
M  V30 3766 O 364.467 -1.76481 -0.817608 0
M  V30 3767 C 364.75 -2.47203 2.61845 0
M  V30 3768 C 364.603 -1.93069 4.06257 0
M  V30 3769 C 365.922 -3.49247 2.67795 0
M  V30 3770 H 363.041 -0.486876 0.553282 0
M  V30 3771 H 365.683 -0.654437 1.78374 0
M  V30 3772 H 363.833 -3.0592 2.39469 0
M  V30 3773 H 365.505 -1.38808 4.3992 0
M  V30 3774 H 363.748 -1.23898 4.1573 0
M  V30 3775 H 364.419 -2.74586 4.7886 0
M  V30 3776 H 366.895 -3.00411 2.8791 0
M  V30 3777 H 365.771 -4.25719 3.46489 0
M  V30 3778 H 366.032 -4.06482 1.73852 0
M  V30 3779 N 365.091 -1.34144 -0.827227 0
M  V30 3780 C 366.338 -1.26258 -1.58319 0
M  V30 3781 C 366.666 0.168595 -1.93768 0
M  V30 3782 O 365.921 1.12877 -1.59866 0
M  V30 3783 C 366.22 -2.09464 -2.89585 0
M  V30 3784 C 365.886 -3.58521 -2.73448 0
M  V30 3785 C 364.548 -3.99155 -2.68754 0
M  V30 3786 C 366.9 -4.53189 -2.57428 0
M  V30 3787 C 364.228 -5.32656 -2.45957 0
M  V30 3788 C 366.58 -5.86864 -2.36163 0
M  V30 3789 C 365.244 -6.26667 -2.29879 0
M  V30 3790 H 364.514 -0.462013 -0.579332 0
M  V30 3791 H 367.161 -1.65845 -0.95748 0
M  V30 3792 H 365.466 -1.62692 -3.56425 0
M  V30 3793 H 367.163 -2.00712 -3.47154 0
M  V30 3794 H 363.753 -3.26264 -2.77939 0
M  V30 3795 H 367.937 -4.22696 -2.60081 0
M  V30 3796 H 363.193 -5.62519 -2.39546 0
M  V30 3797 H 367.367 -6.59813 -2.22754 0
M  V30 3798 H 364.994 -7.30049 -2.11975 0
M  V30 3799 N 366.569 1.04691 -1.17803 0
M  V30 3800 C 367.499 2.14494 -0.92275 0
M  V30 3801 C 368.48 1.69546 0.137179 0
M  V30 3802 O 369.665 1.94195 -0.0141108 0
M  V30 3803 C 366.795 3.44491 -0.440803 0
M  V30 3804 C 365.749 4.03031 -1.4405 0
M  V30 3805 C 365.075 5.28432 -0.81631 0
M  V30 3806 C 366.375 4.39932 -2.81527 0
M  V30 3807 H 368.069 2.36107 -1.84103 0
M  V30 3808 H 365.615 1.1347 -0.886599 0
M  V30 3809 H 367.568 4.2066 -0.249602 0
M  V30 3810 H 366.292 3.22546 0.513025 0
M  V30 3811 H 364.951 3.28937 -1.61853 0
M  V30 3812 H 364.599 5.02792 0.144511 0
M  V30 3813 H 364.299 5.68559 -1.48371 0
M  V30 3814 H 365.823 6.07284 -0.635496 0
M  V30 3815 H 367.237 5.07113 -2.67412 0
M  V30 3816 H 365.634 4.9109 -3.44892 0
M  V30 3817 H 366.704 3.50045 -3.35554 0
M  V30 3818 N 368.047 0.979072 1.23499 0
M  V30 3819 C 368.977 0.537606 2.27227 0
M  V30 3820 C 369.958 -0.428539 1.64613 0
M  V30 3821 O 371.143 -0.322191 1.91509 0
M  V30 3822 C 368.273 -0.162052 3.46922 0
M  V30 3823 C 367.227 0.721242 4.21879 0
M  V30 3824 C 366.553 -0.110555 5.34586 0
M  V30 3825 C 367.853 2.01141 4.82016 0
M  V30 3826 H 369.547 1.40462 2.64406 0
M  V30 3827 H 367.093 0.67684 1.27102 0
M  V30 3828 H 369.046 -0.482192 4.18632 0
M  V30 3829 H 367.77 -1.06351 3.08799 0
M  V30 3830 H 366.429 1.02482 3.51984 0
M  V30 3831 H 366.077 -1.0125 4.92704 0
M  V30 3832 H 365.777 0.477325 5.85658 0
M  V30 3833 H 367.301 -0.425107 6.09118 0
M  V30 3834 H 368.715 1.75612 5.45741 0
M  V30 3835 H 367.112 2.54695 5.43369 0
M  V30 3836 H 368.182 2.69909 4.02836 0
M  V30 3837 N 369.525 -1.3858 0.750561 0
M  V30 3838 C 370.774 -1.99424 0.302172 0
M  V30 3839 C 371.087 -1.60254 -1.12152 0
M  V30 3840 O 372.293 -2.14046 -1.67023 0
M  V30 3841 C 370.749 -3.56558 0.489307 0
M  V30 3842 C 370.357 -4.04682 1.92189 0
M  V30 3843 C 372.101 -4.24374 0.103478 0
M  V30 3844 C 370.008 -5.54446 2.05775 0
M  V30 3845 H 368.938 -0.746046 0.10923 0
M  V30 3846 H 371.589 -1.58383 0.92667 0
M  V30 3847 H 369.971 -3.95472 -0.204329 0
M  V30 3848 H 371.145 -3.77065 2.64875 0
M  V30 3849 H 369.46 -3.4958 2.26236 0
M  V30 3850 H 372.057 -5.34384 0.183787 0
M  V30 3851 H 372.4 -4.05468 -0.943481 0
M  V30 3852 H 372.933 -3.90688 0.748854 0
M  V30 3853 H 369.672 -5.78252 3.08714 0
M  V30 3854 H 369.192 -5.83816 1.37546 0
M  V30 3855 H 370.871 -6.20099 1.84626 0
M  V30 3856 N 371.003 -0.499398 -1.49478 0
M  V30 3857 C 372.228 0.044722 -2.07352 0
M  V30 3858 C 372.653 1.30207 -1.35749 0
M  V30 3859 O 372.011 1.76516 -0.413732 0
M  V30 3860 C 372.059 0.283013 -3.59488 0
M  V30 3861 O 371.163 1.35804 -3.89398 0
M  V30 3862 H 370.504 -0.0255147 -0.66351 0
M  V30 3863 H 373.034 -0.698561 -1.92305 0
M  V30 3864 H 373.044 0.515007 -4.04737 0
M  V30 3865 H 371.719 -0.635636 -4.11014 0
M  V30 3866 H 370.296 1.11113 -3.55961 0
M  V30 3867 N 372.481 1.55866 -0.233164 0
M  V30 3868 C 373.727 1.98897 0.395959 0
M  V30 3869 C 374.06 1.12091 1.58585 0
M  V30 3870 O 373.335 0.181182 1.93654 0
M  V30 3871 C 373.618 3.50658 0.819224 0
M  V30 3872 C 373.471 4.48233 -0.375109 0
M  V30 3873 C 374.79 4.07135 1.67121 0
M  V30 3874 H 371.909 0.723102 0.142451 0
M  V30 3875 H 374.551 1.87082 -0.331725 0
M  V30 3876 H 372.701 3.60857 1.43925 0
M  V30 3877 H 374.373 4.50031 -1.01341 0
M  V30 3878 H 372.616 4.21624 -1.02058 0
M  V30 3879 H 373.287 5.51988 -0.0358328 0
M  V30 3880 H 375.763 3.99952 1.14795 0
M  V30 3881 H 374.639 5.13615 1.93625 0
M  V30 3882 H 374.9 3.54736 2.63846 0
M  V30 3883 N 373.959 -0.0401083 1.57549 0
M  V30 3884 C 374.889 -1.04384 2.08869 0
M  V30 3885 C 375.87 -1.38407 0.988817 0
M  V30 3886 O 377.055 -1.47483 1.26342 0
M  V30 3887 C 374.185 -2.34808 2.55895 0
M  V30 3888 C 373.139 -2.15057 3.70047 0
M  V30 3889 C 372.465 -3.51145 4.03239 0
M  V30 3890 C 373.765 -1.54576 4.98902 0
M  V30 3891 H 375.459 -0.616666 2.92981 0
M  V30 3892 H 373.005 -0.295184 1.40942 0
M  V30 3893 H 374.958 -3.05346 2.90417 0
M  V30 3894 H 373.682 -2.79565 1.68853 0
M  V30 3895 H 372.341 -1.46954 3.35857 0
M  V30 3896 H 371.989 -3.93529 3.13279 0
M  V30 3897 H 371.689 -3.38758 4.80122 0
M  V30 3898 H 373.213 -4.23062 4.40285 0
M  V30 3899 H 374.627 -2.15017 5.31451 0
M  V30 3900 H 373.024 -1.52796 5.80322 0
M  V30 3901 H 374.094 -0.51039 4.82206 0
M  V30 3902 N 375.437 -1.54477 -0.31217 0
M  V30 3903 C 376.367 -1.87652 -1.38957 0
M  V30 3904 C 377.348 -0.734358 -1.53431 0
M  V30 3905 O 378.533 -0.98911 -1.67123 0
M  V30 3906 C 375.663 -2.11396 -2.75552 0
M  V30 3907 C 374.617 -3.27243 -2.75855 0
M  V30 3908 C 373.943 -3.36382 -4.15633 0
M  V30 3909 C 375.243 -4.64622 -2.38587 0
M  V30 3910 H 376.937 -2.77887 -1.11442 0
M  V30 3911 H 374.483 -1.33707 -0.534655 0
M  V30 3912 H 376.436 -2.33189 -3.51 0
M  V30 3913 H 375.16 -1.17921 -3.04569 0
M  V30 3914 H 373.819 -3.05356 -2.02863 0
M  V30 3915 H 373.467 -2.40445 -4.41809 0
M  V30 3916 H 373.167 -4.14249 -4.1674 0
M  V30 3917 H 374.691 -3.60422 -4.92877 0
M  V30 3918 H 376.105 -4.86219 -3.03749 0
M  V30 3919 H 374.502 -5.45121 -2.50925 0
M  V30 3920 H 375.572 -4.66097 -1.33723 0
M  V30 3921 N 376.915 0.57481 -1.46744 0
M  V30 3922 C 377.845 1.69337 -1.60771 0
M  V30 3923 C 378.826 1.63825 -0.457736 0
M  V30 3924 O 380.011 1.8172 -0.684947 0
M  V30 3925 C 377.141 3.0798 -1.60517 0
M  V30 3926 C 376.095 3.28327 -2.74564 0
M  V30 3927 C 375.421 4.67578 -2.59373 0
M  V30 3928 C 376.721 3.15398 -4.16319 0
M  V30 3929 H 378.415 1.57853 -2.54407 0
M  V30 3930 H 375.961 0.75799 -1.22436 0
M  V30 3931 H 377.914 3.86061 -1.68923 0
M  V30 3932 H 376.638 3.20381 -0.634305 0
M  V30 3933 H 375.297 2.52649 -2.65639 0
M  V30 3934 H 374.945 4.76755 -1.60353 0
M  V30 3935 H 374.645 4.82144 -3.35873 0
M  V30 3936 H 376.169 5.47817 -2.69682 0
M  V30 3937 H 377.583 3.83315 -4.26313 0
M  V30 3938 H 375.98 3.41482 -4.93468 0
M  V30 3939 H 377.05 2.12372 -4.3592 0
M  V30 3940 N 378.394 1.34581 0.820102 0
M  V30 3941 C 379.619 1.30333 1.61332 0
M  V30 3942 C 380.044 -0.119339 1.87721 0
M  V30 3943 O 379.402 -1.08197 1.45475 0
M  V30 3944 C 379.45 2.10258 2.92957 0
M  V30 3945 O 378.554 1.47404 3.85157 0
M  V30 3946 H 377.895 0.447488 0.490561 0
M  V30 3947 H 380.425 1.77425 1.01889 0
M  V30 3948 H 380.435 2.21718 3.42498 0
M  V30 3949 H 379.11 3.13693 2.73074 0
M  V30 3950 H 377.687 1.44703 3.43679 0
M  V30 3951 N 379.872 -1.04064 1.18357 0
M  V30 3952 C 381.12 -1.76915 0.977013 0
M  V30 3953 C 381.441 -1.88624 -0.494577 0
M  V30 3954 O 380.711 -1.41125 -1.3587 0
M  V30 3955 H 379.291 -0.65535 0.358504 0
M  V30 3956 H 381.953 -1.25592 1.49039 0
M  V30 3957 H 381.049 -2.78178 1.41504 0
M  V30 3958 N 381.35 -0.985608 -1.22978 0
M  V30 3959 C 382.28 -0.549649 -2.26939 0
M  V30 3960 C 383.261 0.419803 -1.64838 0
M  V30 3961 O 384.446 0.31203 -1.91677 0
M  V30 3962 C 381.576 0.143652 -3.47003 0
M  V30 3963 C 380.53 -0.743606 -4.21491 0
M  V30 3964 C 379.856 0.0822027 -5.34637 0
M  V30 3965 C 381.156 -2.03694 -4.80943 0
M  V30 3966 H 382.85 -1.41862 -2.63658 0
M  V30 3967 H 380.396 -0.683571 -1.26741 0
M  V30 3968 H 382.349 0.459985 -4.18882 0
M  V30 3969 H 381.073 1.04711 -3.09359 0
M  V30 3970 H 379.732 -1.04347 -3.51436 0
M  V30 3971 H 379.38 0.986359 -4.93234 0
M  V30 3972 H 379.08 -0.508377 -5.85397 0
M  V30 3973 H 380.604 0.392797 -6.09335 0
M  V30 3974 H 382.018 -1.78504 -5.44802 0
M  V30 3975 H 380.415 -2.57573 -5.42011 0
M  V30 3976 H 381.485 -2.72042 -4.01399 0
M  V30 3977 N 382.828 1.3818 -0.7579 0
M  V30 3978 C 384.056 2.04301 -0.326937 0
M  V30 3979 C 384.471 1.57163 1.0462 0
M  V30 3980 O 383.828 0.746626 1.66529 0
M  V30 3981 C 383.879 3.59846 -0.345363 0
M  V30 3982 O 383.6 4.05256 -1.66432 0
M  V30 3983 C 385.101 4.4319 0.098927 0
M  V30 3984 H 382.321 0.656443 -0.139012 0
M  V30 3985 H 384.865 1.76786 -1.02796 0
M  V30 3986 H 383.02 3.86182 0.306955 0
M  V30 3987 H 383.434 4.99709 -1.59345 0
M  V30 3988 H 384.908 5.51989 0.0348745 0
M  V30 3989 H 385.385 4.23947 1.14741 0
M  V30 3990 H 385.991 4.22051 -0.52468 0
M  V30 3991 N 384.306 0.507319 1.49211 0
M  V30 3992 C 385.552 -0.0269732 2.03382 0
M  V30 3993 C 385.907 -1.34111 1.37957 0
M  V30 3994 O 385.2 -1.84733 0.508351 0
M  V30 3995 C 385.394 -0.229513 3.56662 0
M  V30 3996 C 385.223 1.06344 4.36945 0
M  V30 3997 C 383.993 1.617 4.78729 0
M  V30 3998 C 386.191 1.96833 4.75143 0
M  V30 3999 N 384.173 2.8552 5.43463 0
M  V30 4000 C 385.544 3.0523 5.39661 0
M  V30 4001 C 387.599 1.97434 4.57082 0
M  V30 4002 C 386.302 4.14265 5.88028 0
M  V30 4003 C 388.328 3.05448 5.06414 0
M  V30 4004 C 387.69 4.12564 5.70938 0
M  V30 4005 H 383.789 0.0310673 0.781383 0
M  V30 4006 H 386.373 0.683579 1.82305 0
M  V30 4007 H 384.544 -0.909127 3.7761 0
M  V30 4008 H 386.276 -0.761377 3.97473 0
M  V30 4009 H 383.031 1.16132 4.59141 0
M  V30 4010 H 383.455 3.48499 5.80412 0
M  V30 4011 H 388.097 1.15924 4.06597 0
M  V30 4012 H 385.815 4.96569 6.3753 0
M  V30 4013 H 389.401 3.06941 4.94246 0
M  V30 4014 H 388.281 4.94767 6.0842 0
M  V30 4015 N 385.784 -1.5574 0.241426 0
M  V30 4016 C 386.716 -2.18469 -0.693091 0
M  V30 4017 C 387.729 -1.15942 -1.14286 0
M  V30 4018 O 388.918 -1.42832 -1.07058 0
M  V30 4019 C 386.018 -2.7696 -1.95311 0
M  V30 4020 C 385.191 -4.04853 -1.65568 0
M  V30 4021 C 384.25 -4.47715 -2.76474 0
M  V30 4022 O 383.276 -5.14205 -2.44094 0
M  V30 4023 N 384.478 -4.15044 -4.05855 0
M  V30 4024 H 387.243 -2.99292 -0.156388 0
M  V30 4025 H 384.804 -1.61784 0.0611752 0
M  V30 4026 H 386.796 -3.02594 -2.68736 0
M  V30 4027 H 385.366 -2.00326 -2.39975 0
M  V30 4028 H 384.586 -3.86865 -0.756886 0
M  V30 4029 H 385.874 -4.88246 -1.43153 0
M  V30 4030 H 385.272 -3.61654 -4.34998 0
M  V30 4031 H 383.829 -4.45526 -4.75762 0
M  V30 4032 N 387.262 0.0317525 -1.57568 0
M  V30 4033 C 388.678 0.38735 -1.54828 0
M  V30 4034 C 388.878 1.7677 -0.967187 0
M  V30 4035 O 387.934 2.45581 -0.587063 0
M  V30 4036 C 389.247 0.291667 -2.99282 0
M  V30 4037 C 390.795 0.368946 -3.10818 0
M  V30 4038 C 391.27 0.302741 -4.56998 0
M  V30 4039 N 392.761 0.361617 -4.61786 0
M  V30 4040 C 393.496 0.333238 -5.72431 0
M  V30 4041 N 392.992 0.257308 -6.92322 0
M  V30 4042 N 394.785 0.382769 -5.60795 0
M  V30 4043 H 386.936 -0.871609 -1.93692 0
M  V30 4044 H 389.199 -0.331161 -0.888277 0
M  V30 4045 H 388.905 -0.656794 -3.45513 0
M  V30 4046 H 388.779 1.08638 -3.61217 0
M  V30 4047 H 391.166 1.30784 -2.64536 0
M  V30 4048 H 391.247 -0.455066 -2.5172 0
M  V30 4049 H 390.891 -0.632473 -5.03947 0
M  V30 4050 H 390.821 1.14482 -5.14005 0
M  V30 4051 H 393.312 0.422923 -3.75526 0
M  V30 4052 H 393.625 0.24068 -7.72425 0
M  V30 4053 H 391.97 0.223396 -6.94641 0
M  V30 4054 H 395.161 0.44006 -4.66027 0
M  V30 4055 H 395.334 0.357184 -6.47015 0
M  V30 4056 N 388.74 1.54641 0.303973 0
M  V30 4057 C 390.156 1.45788 0.649463 0
M  V30 4058 C 390.356 0.64666 1.90842 0
M  V30 4059 O 389.412 0.153183 2.52035 0
M  V30 4060 C 390.725 2.89718 0.805227 0
M  V30 4061 C 392.273 2.99742 0.901305 0
M  V30 4062 C 392.748 4.44863 1.08909 0
M  V30 4063 N 394.239 4.48559 1.15536 0
M  V30 4064 C 394.974 5.58026 1.3189 0
M  V30 4065 N 394.47 6.77422 1.45161 0
M  V30 4066 N 396.263 5.45708 1.34755 0
M  V30 4067 H 388.414 2.05854 -0.523237 0
M  V30 4068 H 390.677 0.932186 -0.172431 0
M  V30 4069 H 390.383 3.51666 -0.0489108 0
M  V30 4070 H 390.257 3.36964 1.69513 0
M  V30 4071 H 392.644 2.3791 1.74593 0
M  V30 4072 H 392.725 2.55797 -0.0125531 0
M  V30 4073 H 392.369 5.07288 0.249241 0
M  V30 4074 H 392.299 4.86436 2.01713 0
M  V30 4075 H 394.79 3.6254 1.06646 0
M  V30 4076 H 395.103 7.56604 1.57387 0
M  V30 4077 H 393.448 6.80292 1.42223 0
M  V30 4078 H 396.639 4.51378 1.23996 0
M  V30 4079 H 396.812 6.3107 1.47157 0
M  V30 4080 N 390.218 -0.567019 1.47046 0
M  V30 4081 C 391.15 -1.68985 1.54844 0
M  V30 4082 C 392.163 -1.56869 0.435431 0
M  V30 4083 O 393.352 -1.64006 0.70457 0
M  V30 4084 C 390.452 -3.07373 1.42742 0
M  V30 4085 C 389.625 -3.45339 2.6844 0
M  V30 4086 C 388.684 -4.62849 2.50314 0
M  V30 4087 O 387.71 -4.67922 3.24095 0
M  V30 4088 N 388.912 -5.58726 1.57499 0
M  V30 4089 H 391.677 -1.62745 2.51663 0
M  V30 4090 H 389.238 -0.753411 1.43302 0
M  V30 4091 H 391.23 -3.83803 1.28365 0
M  V30 4092 H 389.8 -3.07893 0.540445 0
M  V30 4093 H 389.02 -2.58455 2.97648 0
M  V30 4094 H 390.308 -3.67476 3.51907 0
M  V30 4095 H 389.706 -5.57376 0.966876 0
M  V30 4096 H 388.263 -6.34523 1.49078 0
M  V30 4097 N 391.696 -1.35014 -0.812953 0
M  V30 4098 C 393.112 -1.14914 -1.10757 0
M  V30 4099 C 393.312 0.0426818 -2.01455 0
M  V30 4100 O 392.368 0.715212 -2.42159 0
M  V30 4101 C 393.681 -2.44911 -1.74468 0
M  V30 4102 C 395.229 -2.5106 -1.86917 0
M  V30 4103 C 395.704 -3.81085 -2.54044 0
M  V30 4104 N 397.195 -3.82301 -2.61535 0
M  V30 4105 C 397.93 -4.79634 -3.14227 0
M  V30 4106 N 397.426 -5.87353 -3.67407 0
M  V30 4107 N 399.219 -4.67078 -3.12721 0
M  V30 4108 H 391.37 -2.1136 -0.20989 0
M  V30 4109 H 393.633 -0.935128 -0.155692 0
M  V30 4110 H 393.339 -3.32267 -1.15289 0
M  V30 4111 H 393.213 -2.58989 -2.74234 0
M  V30 4112 H 395.6 -1.64137 -2.45241 0
M  V30 4113 H 395.681 -2.40901 -0.860242 0
M  V30 4114 H 395.325 -4.68402 -1.96372 0
M  V30 4115 H 395.255 -3.88529 -3.55461 0
M  V30 4116 H 397.746 -3.04465 -2.23851 0
M  V30 4117 H 398.059 -6.57624 -4.05894 0
M  V30 4118 H 396.404 -5.91054 -3.65623 0
M  V30 4119 H 399.595 -3.82067 -2.70449 0
M  V30 4120 H 399.768 -5.43098 -3.53481 0
M  V30 4121 N 393.175 1.03435 -1.18907 0
M  V30 4122 C 394.122 2.11591 -0.921837 0
M  V30 4123 C 395.092 1.65499 0.141226 0
M  V30 4124 O 396.277 1.908 0.000242829 0
M  V30 4125 C 393.417 3.42012 -0.460616 0
M  V30 4126 C 392.53 4.01682 -1.58982 0
M  V30 4127 C 391.665 5.20091 -1.08069 0
M  V30 4128 C 390.704 5.71805 -2.18416 0
M  V30 4129 N 389.841 6.81494 -1.68849 0
M  V30 4130 H 394.681 2.33787 -1.8479 0
M  V30 4131 H 392.218 1.1467 -0.921373 0
M  V30 4132 H 394.176 4.16834 -0.174642 0
M  V30 4133 H 392.806 3.19944 0.428467 0
M  V30 4134 H 391.858 3.24127 -1.99113 0
M  V30 4135 H 393.17 4.36084 -2.4214 0
M  V30 4136 H 392.324 6.02051 -0.749615 0
M  V30 4137 H 391.063 4.87209 -0.218771 0
M  V30 4138 H 390.068 4.88461 -2.5236 0
M  V30 4139 H 391.293 6.06728 -3.05054 0
M  V30 4140 H 389.239 6.50475 -0.849572 0
M  V30 4141 H 389.156 7.14994 -2.45601 0
M  V30 4142 H 390.424 7.67063 -1.38689 0
M  V30 4143 N 394.653 0.992116 1.22453 0
M  V30 4144 C 395.878 0.685644 1.95739 0
M  V30 4145 C 396.303 -0.743 1.72804 0
M  V30 4146 O 395.661 -1.50778 1.00676 0
M  V30 4147 C 395.709 0.996293 3.46564 0
M  V30 4148 O 394.813 0.0945512 4.12292 0
M  V30 4149 H 394.154 0.256694 0.612376 0
M  V30 4150 H 396.684 1.32888 1.5557 0
M  V30 4151 H 396.694 0.93781 3.97076 0
M  V30 4152 H 395.369 2.03733 3.62582 0
M  V30 4153 H 393.946 0.208451 3.72317 0
M  V30 4154 N 396.131 -1.37776 0.765217 0
M  V30 4155 C 397.547 -1.53297 0.444108 0
M  V30 4156 C 397.747 -1.72515 -1.04119 0
M  V30 4157 O 396.803 -1.74278 -1.82711 0
M  V30 4158 C 398.116 -2.73328 1.25349 0
M  V30 4159 C 399.664 -2.87185 1.24473 0
M  V30 4160 C 400.139 -4.10191 2.03733 0
M  V30 4161 N 401.63 -4.17291 2.01053 0
M  V30 4162 C 402.365 -5.11488 2.59166 0
M  V30 4163 N 401.861 -6.11285 3.26041 0
M  V30 4164 N 403.654 -5.03924 2.49032 0
M  V30 4165 H 395.805 -1.23552 1.72768 0
M  V30 4166 H 398.068 -0.601103 0.733062 0
M  V30 4167 H 397.774 -2.6557 2.30577 0
M  V30 4168 H 397.648 -3.66834 0.87823 0
M  V30 4169 H 400.035 -2.94418 0.20047 0
M  V30 4170 H 400.116 -1.94657 1.65959 0
M  V30 4171 H 399.76 -4.0372 3.08176 0
M  V30 4172 H 399.69 -5.01821 1.59633 0
M  V30 4173 H 402.181 -3.45825 1.5236 0
M  V30 4174 H 402.494 -6.79678 3.67774 0
M  V30 4175 H 400.839 -6.11583 3.30138 0
M  V30 4176 H 404.03 -4.24902 1.96407 0
M  V30 4177 H 404.203 -5.77152 2.94617 0
M  V30 4178 N 397.609 -0.515225 -1.4894 0
M  V30 4179 C 399.025 -0.172099 -1.58669 0
M  V30 4180 C 399.225 1.32405 -1.51892 0
M  V30 4181 O 398.281 2.10116 -1.40027 0
M  V30 4182 C 399.594 -0.761533 -2.90897 0
M  V30 4183 C 401.142 -0.728926 -3.04394 0
M  V30 4184 C 401.617 -1.29667 -4.39261 0
M  V30 4185 N 403.108 -1.25799 -4.4579 0
M  V30 4186 C 403.843 -1.66733 -5.48623 0
M  V30 4187 N 403.339 -2.15327 -6.58488 0
M  V30 4188 N 405.132 -1.58061 -5.39419 0
M  V30 4189 H 397.283 -1.48778 -1.51588 0
M  V30 4190 H 399.546 -0.617968 -0.718901 0
M  V30 4191 H 399.252 -1.81136 -3.01468 0
M  V30 4192 H 399.126 -0.230106 -3.76497 0
M  V30 4193 H 401.513 0.312098 -2.93445 0
M  V30 4194 H 401.594 -1.29766 -2.20442 0
M  V30 4195 H 401.238 -2.33655 -4.50963 0
M  V30 4196 H 401.168 -0.703752 -5.21876 0
M  V30 4197 H 403.659 -0.902102 -3.66975 0
M  V30 4198 H 403.972 -2.44594 -7.33071 0
M  V30 4199 H 402.317 -2.19311 -6.59491 0
M  V30 4200 H 405.508 -1.19906 -4.52482 0
M  V30 4201 H 405.681 -1.90284 -6.19432 0
M  V30 4202 N 399.087 1.5561 -0.249682 0
M  V30 4203 C 400.315 2.03411 0.378352 0
M  V30 4204 C 400.73 1.12886 1.51335 0
M  V30 4205 O 400.087 0.143833 1.81932 0
M  V30 4206 C 400.138 3.50537 0.88351 0
M  V30 4207 O 399.859 4.37614 -0.20626 0
M  V30 4208 C 401.36 4.14113 1.58195 0
M  V30 4209 H 398.58 0.664994 0.08958 0
M  V30 4210 H 401.124 2.01044 -0.374357 0
M  V30 4211 H 399.279 3.5343 1.58639 0
M  V30 4212 H 399.693 5.24199 0.177782 0
M  V30 4213 H 401.167 5.18741 1.8871 0
M  V30 4214 H 401.644 3.60767 2.50487 0
M  V30 4215 H 402.25 4.15151 0.923573 0
M  V30 4216 N 400.565 -0.0233959 1.57583 0
M  V30 4217 C 401.814 -0.712133 1.8871 0
M  V30 4218 C 402.127 -1.76217 0.848944 0
M  V30 4219 O 403.333 -2.50389 1.04964 0
M  V30 4220 C 401.789 -1.3177 3.3491 0
M  V30 4221 C 401.397 -0.303715 4.46969 0
M  V30 4222 C 403.141 -1.98598 3.75179 0
M  V30 4223 C 401.048 -0.917945 5.84233 0
M  V30 4224 H 399.978 -0.269735 0.704101 0
M  V30 4225 H 402.629 0.0333114 1.8347 0
M  V30 4226 H 401.011 -2.11304 3.34913 0
M  V30 4227 H 402.185 0.465325 4.58445 0
M  V30 4228 H 400.5 0.2628 4.1557 0
M  V30 4229 H 403.097 -2.45416 4.75053 0
M  V30 4230 H 403.44 -2.80659 3.07468 0
M  V30 4231 H 403.973 -1.25831 3.77374 0
M  V30 4232 H 400.712 -0.136633 6.55358 0
M  V30 4233 H 400.232 -1.65669 5.76467 0
M  V30 4234 H 401.911 -1.4236 6.31144 0
M  V30 4235 O 402.082 -1.60643 -0.16613 0
M  V30 4236 H 402.773 -1.76304 -0.80228 0
M  V30 END ATOM
M  V30 BEGIN BOND
M  V30 END BOND
M  V30 END CTAB
M  END
$$$$
