drugbank_target|P01563 Interferon alpha-2 (DB12773)
 OpenBabel12092120323D

  0  0  0     0  0            999 V3000
M  V30 BEGIN CTAB
M  V30 COUNTS 3040 3067 0 0 0
M  V30 BEGIN ATOM
M  V30 1 H -0.908 1.98254 -0.117106 0
M  V30 2 N 0 1.576 0 0
M  V30 3 C 0.933 2.03868 1.02534 0
M  V30 4 C 1.911 0.928543 1.3348 0
M  V30 5 O 3.095 1.19667 1.45644 0
M  V30 6 C 0.222 2.43627 2.35294 0
M  V30 7 C -0.732 3.65373 2.2001 0
M  V30 8 S 0.101 5.13292 1.52614 0
M  V30 9 C 1.257 5.56322 2.86805 0
M  V30 10 H 1.49 2.90518 0.631377 0
M  V30 11 H -0.977 1.52953 0.210867 0
M  V30 12 H 0.981 2.67203 3.11629 0
M  V30 13 H -0.358 1.57376 2.7183 0
M  V30 14 H -1.165 3.90944 3.18086 0
M  V30 15 H -1.563 3.418 1.51819 0
M  V30 16 H 0.729 5.58782 3.83104 0
M  V30 17 H 1.672 6.56266 2.65933 0
M  V30 18 H 2.08 4.83886 2.90714 0
M  V30 19 N 1.4781 -0.272755 1.55222 0
M  V30 20 C 2.4411 -1.32041 1.87344 0
M  V30 21 C 3.4411 -1.42342 0.74803 0
M  V30 22 O 4.6311 -1.41488 1.0162 0
M  V30 23 C 1.7631 -2.70173 2.07893 0
M  V30 24 H 2.9561 -1.04789 2.80997 0
M  V30 25 H 0.5091 -0.51083 1.47717 0
M  V30 26 H 1.2441 -3.02605 1.16622 0
M  V30 27 H 1.0291 -2.64082 2.89833 0
M  V30 28 H 2.5191 -3.45869 2.34017 0
M  V30 29 N 2.9562 -1.48159 -0.537278 0
M  V30 30 C 3.8862 -1.65029 -1.6519 0
M  V30 31 C 4.8672 -0.499281 -1.62607 0
M  V30 32 O 6.0522 -0.730972 -1.79918 0
M  V30 33 C 3.1822 -1.68303 -3.03795 0
M  V30 34 C 2.1362 -2.8283 -3.21234 0
M  V30 35 C 1.4622 -2.71189 -4.60826 0
M  V30 36 C 2.7622 -4.24211 -3.04701 0
M  V30 37 H 4.4562 -2.58341 -1.51328 0
M  V30 38 H 2.0022 -1.24325 -0.726585 0
M  V30 39 H 3.9552 -1.78693 -3.81637 0
M  V30 40 H 2.6792 -0.715635 -3.18663 0
M  V30 41 H 1.3382 -2.71983 -2.45807 0
M  V30 42 H 0.9862 -1.72435 -4.7252 0
M  V30 43 H 0.6862 -3.48035 -4.7344 0
M  V30 44 H 2.2102 -2.83537 -5.40777 0
M  V30 45 H 3.6242 -4.3593 -3.72341 0
M  V30 46 H 2.0212 -5.01998 -3.28813 0
M  V30 47 H 3.0912 -4.41184 -2.01209 0
M  V30 48 N 4.4343 0.785586 -1.36625 0
M  V30 49 C 5.6623 1.57448 -1.3423 0
M  V30 50 C 6.0773 1.88649 0.0755653 0
M  V30 51 O 5.4343 1.50414 1.03354 0
M  V30 52 C 5.4853 2.89316 -2.16745 0
M  V30 53 O 5.2063 2.59459 -3.53005 0
M  V30 54 C 6.7073 3.83606 -2.22174 0
M  V30 55 H 3.9273 0.488226 -0.4603 0
M  V30 56 H 6.4713 0.974733 -1.79775 0
M  V30 57 H 4.6263 3.4575 -1.74745 0
M  V30 58 H 5.0403 3.43804 -3.96105 0
M  V30 59 H 6.5143 4.73181 -2.8426 0
M  V30 60 H 6.9913 4.21734 -1.22627 0
M  V30 61 H 7.5973 3.33104 -2.64427 0
M  V30 62 N 5.9124 1.20967 1.01018 0
M  V30 63 C 7.1594 1.02374 1.74716 0
M  V30 64 C 7.4874 -0.443375 1.89379 0
M  V30 65 O 6.7424 -1.34535 1.42123 0
M  V30 66 C 7.0414 1.65997 3.16512 0
M  V30 67 C 6.7074 3.15831 3.2181 0
M  V30 68 C 5.3694 3.56719 3.22963 0
M  V30 69 C 7.7214 4.11816 3.19464 0
M  V30 70 C 5.0494 4.92107 3.19449 0
M  V30 71 C 7.4014 5.47158 3.17491 0
M  V30 72 C 6.0654 5.87451 3.16951 0
M  V30 73 H 5.3354 0.374614 0.639332 0
M  V30 74 H 7.9824 1.50485 1.18434 0
M  V30 75 H 6.2874 1.10166 3.75993 0
M  V30 76 H 7.9844 1.49119 3.72242 0
M  V30 77 H 4.5744 2.83263 3.21652 0
M  V30 78 H 8.7584 3.81257 3.17737 0
M  V30 79 H 4.0144 5.22579 3.17366 0
M  V30 80 H 8.1884 6.21274 3.14629 0
M  V30 81 H 5.8154 6.92329 3.13983 0
M  V30 82 N 7.3905 -1.2043 1.01659 0
M  V30 83 C 8.3535 -2.21433 0.591616 0
M  V30 84 C 9.3535 -1.57203 -0.338226 0
M  V30 85 O 10.5435 -1.73737 -0.126918 0
M  V30 86 C 7.6755 -3.40628 -0.136058 0
M  V30 87 H 8.8685 -2.60545 1.48514 0
M  V30 88 H 6.4215 -1.33893 0.806379 0
M  V30 89 H 7.1565 -3.07019 -1.04449 0
M  V30 90 H 6.9415 -3.88475 0.531917 0
M  V30 91 H 8.4315 -4.15475 -0.420735 0
M  V30 92 N 8.8686 -0.792821 -1.36206 0
M  V30 93 C 9.7986 -0.207853 -2.32573 0
M  V30 94 C 10.7796 0.659055 -1.56813 0
M  V30 95 O 11.9646 0.592176 -1.84951 0
M  V30 96 C 9.0946 0.655449 -3.41059 0
M  V30 97 C 8.0486 -0.111842 -4.27854 0
M  V30 98 C 7.3746 0.872274 -5.27537 0
M  V30 99 C 8.6746 -1.30299 -5.05786 0
M  V30 100 H 10.3686 -1.01294 -2.81744 0
M  V30 101 H 7.9146 -0.48854 -1.3546 0
M  V30 102 H 9.8676 1.07464 -4.07467 0
M  V30 103 H 8.5916 1.49328 -2.90463 0
M  V30 104 H 7.2506 -0.512053 -3.63006 0
M  V30 105 H 6.8986 1.70523 -4.73214 0
M  V30 106 H 6.5986 0.363291 -5.86476 0
M  V30 107 H 8.1226 1.28996 -5.96818 0
M  V30 108 H 9.5366 -0.959379 -5.65216 0
M  V30 109 H 7.9336 -1.7455 -5.74154 0
M  V30 110 H 9.0036 -2.09663 -4.37229 0
M  V30 111 N 10.3467 1.47872 -0.545128 0
M  V30 112 C 11.2767 2.32661 0.197793 0
M  V30 113 C 12.2577 1.43041 0.920504 0
M  V30 114 O 13.4427 1.71912 0.90333 0
M  V30 115 C 10.5727 3.24569 1.23582 0
M  V30 116 C 9.5267 4.23333 0.630323 0
M  V30 117 C 8.8527 5.0448 1.77211 0
M  V30 118 C 10.1527 5.20704 -0.407974 0
M  V30 119 H 11.8467 2.95024 -0.510045 0
M  V30 120 H 9.3927 1.4187 -0.246731 0
M  V30 121 H 11.3457 3.8272 1.76362 0
M  V30 122 H 10.0697 2.60236 1.97344 0
M  V30 123 H 8.7287 3.6639 0.123922 0
M  V30 124 H 8.3767 4.36561 2.49847 0
M  V30 125 H 8.0767 5.71339 1.37281 0
M  V30 126 H 9.6007 5.65487 2.3034 0
M  V30 127 H 11.0147 5.7329 0.033305 0
M  V30 128 H 9.4117 5.95699 -0.725486 0
M  V30 129 H 10.4817 4.66917 -1.30828 0
M  V30 130 N 11.8248 0.280983 1.55075 0
M  V30 131 C 13.0708 -0.33461 2.00021 0
M  V30 132 C 13.4038 -1.55063 1.16915 0
M  V30 133 O 12.6788 -1.93006 0.240646 0
M  V30 134 C 12.9618 -0.711007 3.53011 0
M  V30 135 C 12.8148 0.512766 4.46868 0
M  V30 136 C 14.1338 -1.54522 4.12081 0
M  V30 137 H 11.2528 -0.120147 0.727141 0
M  V30 138 H 13.8948 0.389097 1.85973 0
M  V30 139 H 12.0448 -1.32761 3.65112 0
M  V30 140 H 13.7168 1.15131 4.46702 0
M  V30 141 H 11.9598 1.14975 4.18286 0
M  V30 142 H 12.6308 0.205556 5.51617 0
M  V30 143 H 15.1068 -1.02442 4.03293 0
M  V30 144 H 13.9828 -1.77739 5.19327 0
M  V30 145 H 14.2438 -2.52813 3.62682 0
M  V30 146 N 13.3029 -1.57598 0.00835791 0
M  V30 147 C 14.2659 -2.07884 -0.965242 0
M  V30 148 C 15.2659 -0.989825 -1.26725 0
M  V30 149 O 16.4559 -1.25218 -1.21104 0
M  V30 150 C 13.5879 -2.52731 -2.28779 0
M  V30 151 H 14.7809 -2.95178 -0.530112 0
M  V30 152 H 12.3339 -1.54458 -0.239283 0
M  V30 153 H 13.0689 -1.68705 -2.76964 0
M  V30 154 H 12.8539 -3.32272 -2.08177 0
M  V30 155 H 14.3439 -2.91933 -2.98605 0
M  V30 156 N 14.781 0.264519 -1.55364 0
M  V30 157 C 15.711 1.33121 -1.91836 0
M  V30 158 C 16.692 1.51101 -0.781192 0
M  V30 159 O 17.877 1.64003 -1.04003 0
M  V30 160 C 15.007 2.68921 -2.19769 0
M  V30 161 C 13.961 2.65661 -3.35571 0
M  V30 162 C 13.287 4.05093 -3.49004 0
M  V30 163 C 14.587 2.24187 -4.71739 0
M  V30 164 H 16.281 1.02844 -2.81182 0
M  V30 165 H 13.827 0.493286 -1.35287 0
M  V30 166 H 15.78 3.43663 -2.43872 0
M  V30 167 H 14.504 3.00799 -1.27231 0
M  V30 168 H 13.163 1.93377 -3.1145 0
M  V30 169 H 12.811 4.34206 -2.53917 0
M  V30 170 H 12.511 4.03804 -4.26868 0
M  V30 171 H 14.035 4.81561 -3.75408 0
M  V30 172 H 15.449 2.88654 -4.9533 0
M  V30 173 H 13.846 2.34044 -5.52579 0
M  V30 174 H 14.916 1.19327 -4.69988 0
M  V30 175 N 16.2591 1.48442 0.529413 0
M  V30 176 C 17.1891 1.65902 1.64313 0
M  V30 177 C 18.1701 0.507897 1.6234 0
M  V30 178 O 19.3551 0.740503 1.79528 0
M  V30 179 C 16.4851 1.69911 3.02898 0
M  V30 180 C 15.4391 2.8453 3.19729 0
M  V30 181 C 14.7651 2.73629 4.59381 0
M  V30 182 C 16.0651 4.25821 3.02447 0
M  V30 183 H 17.7591 2.5914 1.49955 0
M  V30 184 H 15.3051 1.24709 0.719982 0
M  V30 185 H 17.2581 1.80715 3.80684 0
M  V30 186 H 15.9821 0.732524 3.18279 0
M  V30 187 H 14.6411 2.73283 2.44361 0
M  V30 188 H 14.2891 1.74938 4.71599 0
M  V30 189 H 13.9891 3.50541 4.71588 0
M  V30 190 H 15.5131 2.86401 5.39265 0
M  V30 191 H 16.9271 4.37898 3.70024 0
M  V30 192 H 15.3241 5.03735 3.26146 0
M  V30 193 H 16.3941 4.42244 1.98867 0
M  V30 194 N 17.7372 -0.778329 1.37039 0
M  V30 195 C 18.9832 -1.53892 1.32079 0
M  V30 196 C 19.3162 -1.9396 -0.0965386 0
M  V30 197 O 18.5912 -1.63568 -1.05242 0
M  V30 198 C 18.8742 -2.80847 2.25382 0
M  V30 199 C 18.7272 -2.47076 3.75864 0
M  V30 200 C 20.0462 -3.82741 2.1725 0
M  V30 201 H 17.1652 -0.558303 0.48111 0
M  V30 202 H 19.8072 -0.893397 1.67685 0
M  V30 203 H 17.9572 -3.35931 1.95148 0
M  V30 204 H 19.6292 -1.97957 4.16666 0
M  V30 205 H 17.8722 -1.79863 3.94755 0
M  V30 206 H 18.5432 -3.37798 4.36574 0
M  V30 207 H 21.0192 -3.37133 2.43887 0
M  V30 208 H 19.8952 -4.69303 2.84686 0
M  V30 209 H 20.1562 -4.2652 1.16331 0
M  V30 210 N 19.2153 -1.21501 -1.00376 0
M  V30 211 C 20.1453 -0.999478 -2.11028 0
M  V30 212 C 21.1263 0.0759671 -1.6993 0
M  V30 213 O 22.3113 -0.0841106 -1.94018 0
M  V30 214 C 19.4413 -0.564709 -3.42678 0
M  V30 215 C 18.3953 -1.58486 -3.97576 0
M  V30 216 C 17.7213 -1.00628 -5.25146 0
M  V30 217 C 19.0213 -2.97204 -4.29496 0
M  V30 218 H 20.7153 -1.92495 -2.29317 0
M  V30 219 H 18.2613 -0.92693 -1.102 0
M  V30 220 H 20.2143 -0.401091 -4.19487 0
M  V30 221 H 18.9383 0.396411 -3.24185 0
M  V30 222 H 17.5973 -1.73606 -3.22888 0
M  V30 223 H 17.2453 -0.0368439 -5.02987 0
M  V30 224 H 16.9453 -1.68771 -5.62841 0
M  V30 225 H 18.4693 -0.854015 -6.04598 0
M  V30 226 H 19.8833 -2.8552 -4.97143 0
M  V30 227 H 18.2803 -3.62372 -4.78338 0
M  V30 228 H 19.3503 -3.47956 -3.3772 0
M  V30 229 N 20.6934 1.19889 -1.02296 0
M  V30 230 C 21.9184 1.9393 -0.735237 0
M  V30 231 C 22.3434 1.74639 0.698782 0
M  V30 232 O 21.7014 1.04481 1.48167 0
M  V30 233 C 21.7494 3.43916 -1.08417 0
M  V30 234 O 20.8534 4.11917 -0.199446 0
M  V30 235 H 20.1944 0.605645 -0.272196 0
M  V30 236 H 22.7244 1.52137 -1.36804 0
M  V30 237 H 22.7344 3.9456 -1.03856 0
M  V30 238 H 21.4094 3.5728 -2.12894 0
M  V30 239 H 19.9864 3.71666 -0.303136 0
M  V30 240 N 22.1715 0.800033 1.35784 0
M  V30 241 C 23.4115 0.382891 2.00782 0
M  V30 242 C 23.7755 -1.02891 1.62103 0
M  V30 243 O 24.9765 -1.54771 2.19771 0
M  V30 244 C 23.2475 0.553299 3.53091 0
M  V30 245 S 24.8065 0.225608 4.3822 0
M  V30 246 H 21.6245 0.145737 0.695904 0
M  V30 247 H 24.2265 1.04085 1.65489 0
M  V30 248 H 22.9305 1.58091 3.78729 0
M  V30 249 H 22.4615 -0.120214 3.93216 0
M  V30 250 H 24.4765 -0.969074 4.86645 0
M  V30 251 N 23.6496 -1.47581 0.552962 0
M  V30 252 C 24.5966 -2.29957 -0.197108 0
M  V30 253 C 25.5666 -1.38799 -0.912359 0
M  V30 254 O 26.7516 -1.67761 -0.908888 0
M  V30 255 C 23.8916 -3.22672 -1.22379 0
M  V30 256 C 23.0046 -4.28919 -0.515038 0
M  V30 257 C 22.1396 -5.0879 -1.52664 0
M  V30 258 C 21.1786 -6.06815 -0.802631 0
M  V30 259 N 20.3156 -6.7966 -1.76086 0
M  V30 260 H 25.1556 -2.93578 0.511486 0
M  V30 261 H 22.6926 -1.4471 0.264067 0
M  V30 262 H 24.6506 -3.74845 -1.83159 0
M  V30 263 H 23.2806 -2.60925 -1.90047 0
M  V30 264 H 22.3326 -3.79835 0.207192 0
M  V30 265 H 23.6446 -4.98773 0.0523425 0
M  V30 266 H 22.7986 -5.65091 -2.20809 0
M  V30 267 H 21.5376 -4.38828 -2.12794 0
M  V30 268 H 20.5426 -5.49695 -0.107238 0
M  V30 269 H 21.7676 -6.78784 -0.207135 0
M  V30 270 H 19.7136 -6.12432 -2.35081 0
M  V30 271 H 19.6306 -7.45669 -1.24552 0
M  V30 272 H 20.8986 -7.40538 -2.43359 0
M  V30 273 N 25.1277 -0.289203 -1.54924 0
M  V30 274 C 26.3527 0.329299 -2.04769 0
M  V30 275 C 26.7777 1.4763 -1.16564 0
M  V30 276 O 26.1357 1.80527 -0.167186 0
M  V30 277 C 26.1837 0.774438 -3.52186 0
M  V30 278 O 25.2877 1.88038 -3.67036 0
M  V30 279 H 24.6287 0.0659259 -0.660719 0
M  V30 280 H 27.1587 -0.42761 -2.00082 0
M  V30 281 H 27.1687 1.06642 -3.93816 0
M  V30 282 H 25.8437 -0.0646707 -4.1585 0
M  V30 283 H 24.4207 1.58985 -3.3731 0
M  V30 284 N 26.6058 1.57591 -0.0167156 0
M  V30 285 C 27.8308 1.9598 0.67872 0
M  V30 286 C 28.2558 0.892546 1.65575 0
M  V30 287 O 27.6138 -0.147772 1.80697 0
M  V30 288 C 27.6618 3.33468 1.37227 0
M  V30 289 O 26.7658 3.28954 2.48722 0
M  V30 290 H 26.1068 0.639339 0.17928 0
M  V30 291 H 28.6368 2.04463 -0.0748802 0
M  V30 292 H 28.6468 3.69417 1.7319 0
M  V30 293 H 27.3218 4.10694 0.656007 0
M  V30 294 H 25.8988 3.04705 2.14963 0
M  V30 295 N 28.0839 -0.256276 1.55502 0
M  V30 296 C 29.3239 -0.993081 1.78654 0
M  V30 297 C 29.6879 -1.8288 0.584724 0
M  V30 298 O 30.8889 -2.59665 0.694822 0
M  V30 299 C 29.1599 -1.83856 3.06483 0
M  V30 300 S 30.7189 -2.63573 3.5082 0
M  V30 301 H 27.5369 -0.334199 0.62756 0
M  V30 302 H 30.1389 -0.26184 1.93739 0
M  V30 303 H 28.8429 -1.21414 3.92029 0
M  V30 304 H 28.3739 -2.61271 2.94111 0
M  V30 305 H 30.3889 -3.86312 3.11412 0
M  V30 306 N 29.562 -1.4872 -0.521534 0
M  V30 307 C 30.787 -1.61101 -1.30618 0
M  V30 308 C 31.212 -0.274611 -1.86085 0
M  V30 309 O 30.57 0.754937 -1.64834 0
M  V30 310 C 30.618 -2.66709 -2.4269 0
M  V30 311 O 29.722 -2.24456 -3.45967 0
M  V30 312 H 29.063 -0.539921 -0.386499 0
M  V30 313 H 31.593 -1.94767 -0.626645 0
M  V30 314 H 31.603 -2.88245 -2.88754 0
M  V30 315 H 30.278 -3.63727 -2.01682 0
M  V30 316 H 28.855 -2.13168 -3.05964 0
M  V30 317 N 31.0401 0.771051 -1.3745 0
M  V30 318 C 32.2861 1.5319 -1.32894 0
M  V30 319 C 32.6191 1.94008 0.0862511 0
M  V30 320 O 31.8941 1.64124 1.04373 0
M  V30 321 C 32.1771 2.79648 -2.26868 0
M  V30 322 C 32.0301 2.45079 -3.77169 0
M  V30 323 C 33.3491 3.81583 -2.19277 0
M  V30 324 H 30.4681 0.555744 -0.484064 0
M  V30 325 H 33.1101 0.884492 -1.68157 0
M  V30 326 H 31.2601 3.34891 -1.96926 0
M  V30 327 H 32.9321 1.95745 -4.1771 0
M  V30 328 H 31.1751 1.77767 -3.95704 0
M  V30 329 H 31.8461 3.35478 -4.38359 0
M  V30 330 H 34.3221 3.35835 -2.45671 0
M  V30 331 H 33.1981 4.67787 -2.87171 0
M  V30 332 H 33.4591 4.25897 -1.18592 0
M  V30 333 N 32.5182 1.22032 0.997298 0
M  V30 334 C 33.7662 1.04016 1.73278 0
M  V30 335 C 34.0872 -0.426255 1.90284 0
M  V30 336 O 33.3572 -1.30694 1.45931 0
M  V30 337 H 31.9372 0.381897 0.642 0
M  V30 338 H 34.5992 1.5347 1.20137 0
M  V30 339 H 33.6952 1.51441 2.72896 0
M  V30 340 N 33.9963 -1.19345 1.0293 0
M  V30 341 C 35.2363 -1.90738 0.734727 0
M  V30 342 C 35.6003 -1.7785 -0.723414 0
M  V30 343 O 36.8013 -2.43844 -1.13108 0
M  V30 344 C 35.0723 -3.37569 1.17396 0
M  V30 345 S 36.6313 -4.27176 1.00329 0
M  V30 346 H 33.4493 -0.658771 0.267474 0
M  V30 347 H 36.0513 -1.4428 1.31922 0
M  V30 348 H 34.7553 -3.44475 2.23081 0
M  V30 349 H 34.2863 -3.8906 0.582772 0
M  V30 350 H 36.3013 -4.96126 -0.0859152 0
M  V30 351 N 35.4744 -0.807222 -1.35358 0
M  V30 352 C 36.7514 -0.311126 -1.9311 0
M  V30 353 C 37.1314 1.19937 -1.73719 0
M  V30 354 O 36.4794 1.99918 -1.10657 0
M  V30 355 C 36.6894 -0.723226 -3.41424 0
M  V30 356 C 38.0374 -0.713078 -4.18569 0
M  V30 357 O 39.0614 -0.664811 -3.49941 0
M  V30 358 O 37.9204 -0.772022 -5.41019 0
M  V30 359 H 35.0144 -0.081526 -0.822972 0
M  V30 360 H 37.5604 -0.890962 -1.4443 0
M  V30 361 H 36.3324 -1.76426 -3.4927 0
M  V30 362 H 35.9554 -0.118232 -3.97424 0
M  V30 363 N 36.9525 1.47285 -0.560781 0
M  V30 364 C 37.8825 2.32857 0.173105 0
M  V30 365 C 38.8635 1.44009 0.905281 0
M  V30 366 O 40.0485 1.7286 0.885046 0
M  V30 367 C 37.1785 3.25861 1.20133 0
M  V30 368 C 36.1325 4.23978 0.585388 0
M  V30 369 C 35.4585 5.06332 1.7185 0
M  V30 370 C 36.7585 5.20242 -0.463178 0
M  V30 371 H 38.4525 2.94466 -0.541307 0
M  V30 372 H 35.9985 1.41601 -0.261764 0
M  V30 373 H 37.9515 3.84569 1.72293 0
M  V30 374 H 36.6755 2.62315 1.94573 0
M  V30 375 H 35.3345 3.66501 0.085054 0
M  V30 376 H 34.9825 4.39186 2.45203 0
M  V30 377 H 34.6825 5.72762 1.31213 0
M  V30 378 H 36.2065 5.67899 2.24329 0
M  V30 379 H 37.6205 5.73293 -0.027502 0
M  V30 380 H 36.0175 5.94896 -0.788627 0
M  V30 381 H 37.0875 4.65504 -1.35773 0
M  V30 382 N 38.4306 0.297415 1.54768 0
M  V30 383 C 39.8416 -0.195947 1.85669 0
M  V30 384 C 40.1926 -1.53707 1.21937 0
M  V30 385 O 39.3176 -2.10164 0.515754 0
M  V30 386 C 39.9126 -0.362318 3.36857 0
M  V30 387 C 38.4716 -0.799901 3.67802 0
M  V30 388 C 37.6186 0.0938578 2.77141 0
M  V30 389 H 40.5696 0.518538 1.4999 0
M  V30 390 H 40.5906 -1.19745 3.61167 0
M  V30 391 H 40.1026 0.613921 3.83214 0
M  V30 392 H 38.2036 -1.78682 3.26961 0
M  V30 393 H 38.3166 -0.621773 4.75048 0
M  V30 394 H 36.6806 -0.426254 2.51108 0
M  V30 395 H 37.4636 1.06639 3.26318 0
M  V30 396 N 39.9087 -1.5758 0.0250728 0
M  V30 397 C 40.8407 -2.06869 -0.986796 0
M  V30 398 C 41.8537 -0.991332 -1.29137 0
M  V30 399 O 43.0427 -1.26761 -1.25674 0
M  V30 400 C 40.1427 -2.47486 -2.31525 0
M  V30 401 C 39.3157 -3.78253 -2.19643 0
M  V30 402 C 38.3747 -4.05464 -3.35388 0
M  V30 403 O 37.4007 -4.75774 -3.12454 0
M  V30 404 N 38.6027 -3.55321 -4.59051 0
M  V30 405 H 41.3677 -2.94302 -0.566276 0
M  V30 406 H 38.9287 -1.6109 -0.161776 0
M  V30 407 H 40.9207 -2.62785 -3.07776 0
M  V30 408 H 39.4907 -1.65441 -2.65232 0
M  V30 409 H 38.7107 -3.7279 -1.28144 0
M  V30 410 H 39.9987 -4.63936 -2.08903 0
M  V30 411 H 39.3967 -2.98431 -4.80578 0
M  V30 412 H 37.9537 -3.75905 -5.32483 0
M  V30 413 N 41.3868 0.248026 -1.55636 0
M  V30 414 C 42.6148 0.993808 -1.81469 0
M  V30 415 C 43.0298 1.78991 -0.60064 0
M  V30 416 O 42.3868 1.77345 0.430682 0
M  V30 417 C 42.4378 1.93258 -3.05506 0
M  V30 418 O 42.1588 1.16869 -4.22224 0
M  V30 419 C 43.6598 2.79444 -3.4413 0
M  V30 420 H 40.8798 0.292486 -0.603898 0
M  V30 421 H 43.4238 0.271253 -2.02693 0
M  V30 422 H 41.5788 2.60943 -2.86335 0
M  V30 423 H 41.9928 1.80359 -4.92515 0
M  V30 424 H 43.4668 3.41066 -4.34026 0
M  V30 425 H 43.9438 3.50499 -2.64665 0
M  V30 426 H 44.5498 2.17214 -3.65648 0
M  V30 427 N 42.8649 1.48995 0.513639 0
M  V30 428 C 43.8149 1.61127 1.61314 0
M  V30 429 C 44.7989 0.467521 1.53958 0
M  V30 430 O 45.9909 0.719826 1.61702 0
M  V30 431 C 43.1199 1.66937 2.99978 0
M  V30 432 C 42.2059 2.86847 3.12377 0
M  V30 433 N 42.5969 4.11078 2.94701 0
M  V30 434 C 40.8949 2.84521 3.43459 0
M  V30 435 C 41.5959 4.91615 3.10949 0
M  V30 436 N 40.5719 4.24739 3.3926 0
M  V30 437 H 44.3739 2.54909 1.46282 0
M  V30 438 H 41.8879 1.45593 0.719483 0
M  V30 439 H 43.8849 1.73725 3.78979 0
M  V30 440 H 42.5449 0.742831 3.16089 0
M  V30 441 H 43.5559 4.41258 2.71131 0
M  V30 442 H 40.2329 2.01192 3.65825 0
M  V30 443 H 41.6229 6.00264 3.01882 0
M  V30 444 N 44.343 -0.763751 1.37857 0
M  V30 445 C 45.568 -1.55805 1.36893 0
M  V30 446 C 45.993 -1.88054 -0.0416135 0
M  V30 447 O 45.351 -1.49825 -1.02089 0
M  V30 448 C 45.399 -2.84012 2.22192 0
M  V30 449 O 44.503 -3.78732 1.63204 0
M  V30 450 H 43.844 -0.471638 0.46739 0
M  V30 451 H 46.374 -0.944657 1.81487 0
M  V30 452 H 46.384 -3.33037 2.35691 0
M  V30 453 H 45.059 -2.59869 3.24716 0
M  V30 454 H 43.636 -3.37402 1.58791 0
M  V30 455 N 45.8211 -1.22559 -0.990812 0
M  V30 456 C 46.7511 -1.0218 -2.09956 0
M  V30 457 C 47.7321 0.0579394 -1.70001 0
M  V30 458 O 48.9171 -0.104684 -1.93918 0
M  V30 459 C 46.0471 -0.601023 -3.4206 0
M  V30 460 C 45.0011 -1.62694 -3.95872 0
M  V30 461 C 44.3271 -1.06193 -5.24049 0
M  V30 462 C 45.6271 -3.01743 -4.2632 0
M  V30 463 H 47.3211 -1.94916 -2.27262 0
M  V30 464 H 44.8671 -0.938566 -1.09211 0
M  V30 465 H 46.8201 -0.445561 -4.19038 0
M  V30 466 H 45.5441 0.362005 -3.24588 0
M  V30 467 H 44.2031 -1.77021 -3.21028 0
M  V30 468 H 43.8511 -0.0901903 -5.02919 0
M  V30 469 H 43.5511 -1.74732 -5.61019 0
M  V30 470 H 45.0751 -0.918092 -6.03658 0
M  V30 471 H 46.4891 -2.90777 -4.94087 0
M  V30 472 H 44.8861 -3.67425 -4.74467 0
M  V30 473 H 45.9561 -3.51518 -3.34011 0
M  V30 474 N 47.2992 1.18797 -1.03562 0
M  V30 475 C 48.5472 1.88278 -0.734569 0
M  V30 476 C 48.8682 1.8043 0.739586 0
M  V30 477 O 48.1382 1.21925 1.53333 0
M  V30 478 H 46.7182 0.696991 -0.268725 0
M  V30 479 H 49.3802 1.44192 -1.31129 0
M  V30 480 H 48.4762 2.94443 -1.03489 0
M  V30 481 N 48.7773 0.814389 1.34928 0
M  V30 482 C 50.0023 0.410097 2.03305 0
M  V30 483 C 50.4273 -0.973464 1.60951 0
M  V30 484 O 49.7853 -1.63185 0.789964 0
M  V30 485 C 49.8333 0.51049 3.56968 0
M  V30 486 O 48.9373 -0.473035 4.09678 0
M  V30 487 H 48.2783 0.170088 0.641846 0
M  V30 488 H 50.8083 1.10244 1.72358 0
M  V30 489 H 50.8183 0.383135 4.06197 0
M  V30 490 H 49.4933 1.51963 3.87144 0
M  V30 491 H 48.0703 -0.305272 3.71648 0
M  V30 492 N 50.2554 -1.46986 0.568584 0
M  V30 493 C 51.6714 -1.57946 0.229189 0
M  V30 494 C 51.8714 -1.56567 -1.26843 0
M  V30 495 O 50.9274 -1.47511 -2.04931 0
M  V30 496 C 52.2404 -2.87963 0.865909 0
M  V30 497 C 53.7884 -3.01568 0.838188 0
M  V30 498 C 54.2634 -4.34301 1.45419 0
M  V30 499 N 55.7544 -4.40965 1.41788 0
M  V30 500 C 56.4894 -5.42256 1.86403 0
M  V30 501 N 55.9854 -6.50297 2.38926 0
M  V30 502 N 57.7784 -5.3337 1.77405 0
M  V30 503 H 49.9294 -1.46126 1.54146 0
M  V30 504 H 52.1924 -0.696156 0.643484 0
M  V30 505 H 51.8984 -2.94742 1.91886 0
M  V30 506 H 51.7724 -3.75423 0.365687 0
M  V30 507 H 54.1594 -2.94379 -0.206106 0
M  V30 508 H 54.2404 -2.1562 1.37629 0
M  V30 509 H 53.8844 -4.42247 2.49761 0
M  V30 510 H 53.8144 -5.19 0.891435 0
M  V30 511 H 56.3054 -3.63484 1.03381 0
M  V30 512 H 56.6184 -7.23777 2.70863 0
M  V30 513 H 54.9634 -6.51155 2.42944 0
M  V30 514 H 58.1544 -4.47865 1.3614 0
M  V30 515 H 58.3274 -6.12169 2.12492 0
M  V30 516 N 51.7335 -0.305618 -1.54608 0
M  V30 517 C 53.1495 0.0476228 -1.59529 0
M  V30 518 C 53.3495 1.52025 -1.32252 0
M  V30 519 O 52.4055 2.27368 -1.09818 0
M  V30 520 C 53.7185 -0.354471 -2.98603 0
M  V30 521 C 55.2665 -0.303622 -3.11524 0
M  V30 522 C 55.7415 -0.680608 -4.52915 0
M  V30 523 N 57.2325 -0.63332 -4.5885 0
M  V30 524 C 57.9675 -0.897432 -5.66334 0
M  V30 525 N 57.4635 -1.22775 -6.81834 0
M  V30 526 N 59.2565 -0.824186 -5.56025 0
M  V30 527 H 51.4075 -1.2653 -1.70599 0
M  V30 528 H 53.6705 -0.513291 -0.797017 0
M  V30 529 H 53.3765 -1.3798 -3.23503 0
M  V30 530 H 53.2505 0.289568 -3.76087 0
M  V30 531 H 55.6375 0.712472 -2.8637 0
M  V30 532 H 55.7185 -0.982348 -2.36185 0
M  V30 533 H 55.3625 -1.69453 -4.78799 0
M  V30 534 H 55.2925 0.0202385 -5.26596 0
M  V30 535 H 57.7835 -0.389138 -3.75891 0
M  V30 536 H 58.0965 -1.41513 -7.59733 0
M  V30 537 H 56.4415 -1.26583 -6.83375 0
M  V30 538 H 59.6325 -0.565748 -4.64669 0
M  V30 539 H 59.8055 -1.03338 -6.39707 0
M  V30 540 N 53.2116 1.57565 -0.0334293 0
M  V30 541 C 54.4396 1.9628 0.654347 0
M  V30 542 C 54.8546 0.910138 1.65414 0
M  V30 543 O 54.2116 -0.107595 1.82183 0
M  V30 544 C 54.2626 3.35067 1.35693 0
M  V30 545 O 53.9836 4.36296 0.397191 0
M  V30 546 C 55.4846 3.88439 2.13613 0
M  V30 547 H 52.7046 0.646369 0.180132 0
M  V30 548 H 55.2486 2.04282 -0.0944721 0
M  V30 549 H 53.4036 3.2827 2.05712 0
M  V30 550 H 53.8176 5.1678 0.896597 0
M  V30 551 H 55.2916 4.8788 2.58219 0
M  V30 552 H 55.7686 3.22914 2.97696 0
M  V30 553 H 56.3746 3.98516 1.48543 0
M  V30 554 N 54.6897 -0.239769 1.55765 0
M  V30 555 C 55.6197 -1.30052 1.9393 0
M  V30 556 C 56.6007 -1.49839 0.805132 0
M  V30 557 O 57.7857 -1.62328 1.06599 0
M  V30 558 C 54.9157 -2.65391 2.2402 0
M  V30 559 C 53.8697 -2.60289 3.39755 0
M  V30 560 C 53.1957 -3.99489 3.55405 0
M  V30 561 C 54.4957 -2.16654 4.75246 0
M  V30 562 H 56.1897 -0.983573 2.82783 0
M  V30 563 H 53.7357 -0.471701 1.36055 0
M  V30 564 H 55.6887 -3.3974 2.49308 0
M  V30 565 H 54.4127 -2.98736 1.32 0
M  V30 566 H 53.0717 -1.88398 3.14487 0
M  V30 567 H 52.7197 -4.30112 2.60793 0
M  V30 568 H 52.4197 -3.96962 4.33238 0
M  V30 569 H 53.9437 -4.75528 3.83022 0
M  V30 570 H 55.3577 -2.80737 4.99859 0
M  V30 571 H 53.7547 -2.25223 5.56232 0
M  V30 572 H 54.8247 -1.11835 4.71827 0
M  V30 573 N 56.1678 -1.49265 -0.50573 0
M  V30 574 C 57.1008 -1.60183 -1.62532 0
M  V30 575 C 58.0788 -0.451107 -1.56217 0
M  V30 576 O 59.2628 -0.666016 -1.76342 0
M  V30 577 C 56.3898 -1.55238 -3.01029 0
M  V30 578 C 55.4358 -2.7545 -3.25621 0
M  V30 579 S 56.2688 -4.37174 -3.09256 0
M  V30 580 C 57.4248 -4.34866 -4.50158 0
M  V30 581 H 57.6578 -2.54894 -1.53025 0
M  V30 582 H 55.1908 -1.38098 -0.690535 0
M  V30 583 H 57.1488 -1.53071 -3.80893 0
M  V30 584 H 55.8098 -0.618238 -3.07956 0
M  V30 585 H 55.0028 -2.68197 -4.26716 0
M  V30 586 H 54.6048 -2.75005 -2.53472 0
M  V30 587 H 56.8968 -4.06295 -5.42154 0
M  V30 588 H 57.8398 -5.36223 -4.62462 0
M  V30 589 H 58.2478 -3.65007 -4.30616 0
M  V30 590 N 57.6459 0.756429 -1.3826 0
M  V30 591 C 58.5759 1.88374 -1.37976 0
M  V30 592 C 59.5569 1.68311 -0.246082 0
M  V30 593 O 60.7419 1.88944 -0.44874 0
M  V30 594 C 57.8719 3.25864 -1.20125 0
M  V30 595 C 56.8259 3.60523 -2.30666 0
M  V30 596 C 56.1519 4.9672 -1.97923 0
M  V30 597 C 57.4519 3.65692 -3.72916 0
M  V30 598 H 59.1459 1.88869 -2.32312 0
M  V30 599 H 56.6919 0.907272 -1.11824 0
M  V30 600 H 58.6449 4.0438 -1.18552 0
M  V30 601 H 57.3689 3.25841 -0.222498 0
M  V30 602 H 56.0279 2.84324 -2.3142 0
M  V30 603 H 55.6759 4.93253 -0.985393 0
M  V30 604 H 55.3759 5.20878 -2.71955 0
M  V30 605 H 56.8999 5.77618 -1.97964 0
M  V30 606 H 58.3139 4.34328 -3.74208 0
M  V30 607 H 56.7109 4.01358 -4.4613 0
M  V30 608 H 57.7809 2.65987 -4.05436 0
M  V30 609 N 59.124 1.23083 0.984299 0
M  V30 610 C 60.054 1.03292 2.09411 0
M  V30 611 C 61.035 -0.048923 1.7003 0
M  V30 612 O 62.22 0.114967 1.93859 0
M  V30 613 C 59.35 0.619155 3.41736 0
M  V30 614 C 58.304 1.64791 3.95004 0
M  V30 615 C 57.63 1.0897 5.23478 0
M  V30 616 C 58.93 3.03999 4.24714 0
M  V30 617 H 60.624 1.96119 2.26225 0
M  V30 618 H 58.17 0.944344 1.08711 0
M  V30 619 H 60.123 0.467777 4.18796 0
M  V30 620 H 58.847 -0.344786 3.24775 0
M  V30 621 H 57.506 1.78721 3.20085 0
M  V30 622 H 57.154 0.11686 5.02864 0
M  V30 623 H 56.854 1.77704 5.60085 0
M  V30 624 H 58.378 0.950093 6.03163 0
M  V30 625 H 59.792 2.93393 4.92538 0
M  V30 626 H 58.189 3.69936 4.72512 0
M  V30 627 H 59.259 3.53285 3.32142 0
M  V30 628 N 60.6021 -1.18246 1.0419 0
M  V30 629 C 61.5651 -2.20128 0.638452 0
M  V30 630 C 62.5651 -1.57885 -0.304805 0
M  V30 631 O 63.7551 -1.73967 -0.0900369 0
M  V30 632 C 60.8871 -3.4084 -0.0637751 0
M  V30 633 H 62.0801 -2.57336 1.54007 0
M  V30 634 H 59.6331 -1.32152 0.834598 0
M  V30 635 H 60.3681 -3.09166 -0.979136 0
M  V30 636 H 60.1531 -3.8726 0.614198 0
M  V30 637 H 61.6431 -4.16274 -0.332512 0
M  V30 638 N 62.0802 -0.821533 -1.34494 0
M  V30 639 C 63.0122 -0.199946 -2.28326 0
M  V30 640 C 64.0252 0.609377 -1.50965 0
M  V30 641 O 65.2142 0.439285 -1.7301 0
M  V30 642 C 62.3142 0.738431 -3.30757 0
M  V30 643 C 61.4872 -0.0277632 -4.37391 0
M  V30 644 C 60.5462 0.831332 -5.19591 0
M  V30 645 O 59.5722 0.276822 -5.68526 0
M  V30 646 N 60.7742 2.15132 -5.39165 0
M  V30 647 H 63.5392 -1.00609 -2.82308 0
M  V30 648 H 61.1002 -0.678366 -1.47003 0
M  V30 649 H 63.0922 1.31773 -3.82646 0
M  V30 650 H 61.6622 1.44533 -2.7718 0
M  V30 651 H 60.8822 -0.788359 -3.86236 0
M  V30 652 H 62.1702 -0.555251 -5.05761 0
M  V30 653 H 61.5682 2.62559 -5.01078 0
M  V30 654 H 60.1252 2.6795 -5.94177 0
M  V30 655 N 63.5583 1.46682 -0.576371 0
M  V30 656 C 64.4913 2.27243 0.208731 0
M  V30 657 C 65.4693 1.35238 0.902746 0
M  V30 658 O 66.6533 1.64641 0.917904 0
M  V30 659 C 63.7803 3.12802 1.29896 0
M  V30 660 C 62.8263 4.20524 0.711457 0
M  V30 661 S 63.6593 5.33548 -0.456781 0
M  V30 662 C 64.8153 6.22673 0.634798 0
M  V30 663 H 65.0483 2.93484 -0.474838 0
M  V30 664 H 62.5813 1.50069 -0.363118 0
M  V30 665 H 64.5393 3.62661 1.92321 0
M  V30 666 H 63.2003 2.45887 1.95444 0
M  V30 667 H 62.3933 4.80191 1.53076 0
M  V30 668 H 61.9953 3.73645 0.162999 0
M  V30 669 H 64.2873 6.60181 1.52209 0
M  V30 670 H 65.2303 7.0806 0.0750311 0
M  V30 671 H 65.6383 5.56684 0.936092 0
M  V30 672 N 65.0364 0.313813 1.54444 0
M  V30 673 C 66.4524 -0.0391619 1.59552 0
M  V30 674 C 66.6524 -1.51322 1.33056 0
M  V30 675 O 65.7084 -2.26782 1.11022 0
M  V30 676 C 67.0214 0.370302 2.98411 0
M  V30 677 C 68.5694 0.320139 3.11358 0
M  V30 678 C 69.0444 0.704617 4.52547 0
M  V30 679 N 70.5354 0.657645 4.58508 0
M  V30 680 C 71.2704 0.927453 5.6585 0
M  V30 681 N 70.7664 1.26389 6.81174 0
M  V30 682 N 72.5594 0.853662 5.5558 0
M  V30 683 H 64.7104 1.27433 1.69925 0
M  V30 684 H 66.9734 0.517511 0.794284 0
M  V30 685 H 66.6794 1.39694 3.22767 0
M  V30 686 H 66.5534 -0.269619 3.76235 0
M  V30 687 H 68.9404 -0.697275 2.86744 0
M  V30 688 H 69.0214 0.99486 2.35661 0
M  V30 689 H 68.6654 1.7199 4.77893 0
M  V30 690 H 68.5954 0.00768843 5.26599 0
M  V30 691 H 71.0864 0.409067 3.75679 0
M  V30 692 H 71.3994 1.4554 7.58972 0
M  V30 693 H 69.7444 1.30206 6.82694 0
M  V30 694 H 72.9354 0.590383 4.64362 0
M  V30 695 H 73.1084 1.0673 6.3915 0
M  V30 696 N 66.5145 -1.57545 0.0417849 0
M  V30 697 C 67.4615 -2.10977 -0.935805 0
M  V30 698 C 68.4315 -1.01486 -1.31491 0
M  V30 699 O 69.6165 -1.2898 -1.40602 0
M  V30 700 C 66.7565 -2.65169 -2.2086 0
M  V30 701 C 65.8695 -3.88714 -1.88482 0
M  V30 702 C 65.0045 -4.31254 -3.1015 0
M  V30 703 C 64.0435 -5.47524 -2.7365 0
M  V30 704 N 63.1805 -5.85162 -3.87982 0
M  V30 705 H 68.0205 -2.94218 -0.473249 0
M  V30 706 H 65.5575 -1.45415 -0.221981 0
M  V30 707 H 67.5155 -2.94685 -2.95325 0
M  V30 708 H 66.1455 -1.8474 -2.64709 0
M  V30 709 H 65.1975 -3.65849 -1.04205 0
M  V30 710 H 66.5095 -4.73245 -1.57608 0
M  V30 711 H 65.6635 -4.62273 -3.92923 0
M  V30 712 H 64.4025 -3.45516 -3.44195 0
M  V30 713 H 63.4075 -5.16187 -1.89291 0
M  V30 714 H 64.6325 -6.34971 -2.40807 0
M  V30 715 H 62.5785 -5.02377 -4.21846 0
M  V30 716 H 62.4955 -6.64362 -3.60775 0
M  V30 717 H 63.7635 -6.20791 -4.71422 0
M  V30 718 N 67.9926 0.231505 -1.5589 0
M  V30 719 C 69.2416 0.955346 -1.7764 0
M  V30 720 C 69.5546 1.85893 -0.608546 0
M  V30 721 O 70.7606 2.62067 -0.70943 0
M  V30 722 C 69.2166 1.74886 -3.14552 0
M  V30 723 C 68.8246 0.891915 -4.39032 0
M  V30 724 C 70.5686 2.46452 -3.45633 0
M  V30 725 C 68.4756 1.68221 -5.66971 0
M  V30 726 H 67.4056 0.360446 -0.662265 0
M  V30 727 H 70.0566 0.209516 -1.823 0
M  V30 728 H 68.4386 2.53723 -3.04041 0
M  V30 729 H 69.6126 0.144793 -4.60572 0
M  V30 730 H 67.9276 0.288863 -4.15397 0
M  V30 731 H 70.5246 3.06061 -4.38441 0
M  V30 732 H 70.8676 3.18841 -2.67668 0
M  V30 733 H 71.4006 1.74613 -3.57428 0
M  V30 734 H 68.1396 1.00178 -6.478 0
M  V30 735 H 67.6596 2.4042 -5.49507 0
M  V30 736 H 69.3386 2.24544 -6.06786 0
M  V30 737 N 69.4707 1.49531 0.497807 0
M  V30 738 C 70.6957 1.63159 1.28039 0
M  V30 739 C 71.1207 0.30418 1.85624 0
M  V30 740 O 70.4787 -0.728618 1.66015 0
M  V30 741 C 70.5267 2.70537 2.38416 0
M  V30 742 O 69.6307 2.29931 3.42353 0
M  V30 743 H 68.9717 0.546001 0.377861 0
M  V30 744 H 71.5017 1.9574 0.59558 0
M  V30 745 H 71.5117 2.92802 2.84132 0
M  V30 746 H 70.1867 3.6689 1.95869 0
M  V30 747 H 68.7637 2.18009 3.02533 0
M  V30 748 N 70.9488 -0.749086 1.3866 0
M  V30 749 C 71.8788 -1.8764 1.38973 0
M  V30 750 C 72.8598 -1.68178 0.255004 0
M  V30 751 O 74.0448 -1.88704 0.458754 0
M  V30 752 C 71.1748 -3.25222 1.21851 0
M  V30 753 C 70.1288 -3.59295 2.32575 0
M  V30 754 C 69.4548 -4.95663 2.00555 0
M  V30 755 C 70.7548 -3.63709 3.7485 0
M  V30 756 H 72.4488 -1.87635 2.3331 0
M  V30 757 H 69.9948 -0.901329 1.12303 0
M  V30 758 H 71.9478 -4.03746 1.20695 0
M  V30 759 H 70.6718 -3.25719 0.239775 0
M  V30 760 H 69.3308 -2.83093 2.32925 0
M  V30 761 H 68.9788 -4.92724 1.01154 0
M  V30 762 H 68.6788 -5.19429 2.74714 0
M  V30 763 H 70.2028 -5.7656 2.01024 0
M  V30 764 H 71.6168 -4.32338 3.76506 0
M  V30 765 H 70.0138 -3.98986 4.48252 0
M  V30 766 H 71.0838 -2.63834 4.06841 0
M  V30 767 N 72.4269 -1.23603 -0.977757 0
M  V30 768 C 73.6739 -1.06971 -1.71941 0
M  V30 769 C 74.0019 0.393009 -1.90488 0
M  V30 770 O 73.2569 1.30719 -1.4564 0
M  V30 771 C 73.5559 -1.7433 -3.11999 0
M  V30 772 C 73.2219 -3.24252 -3.13323 0
M  V30 773 C 71.8839 -3.65156 -3.13392 0
M  V30 774 C 74.2359 -4.20141 -3.08433 0
M  V30 775 C 71.5639 -5.00403 -3.0629 0
M  V30 776 C 73.9159 -5.55384 -3.02873 0
M  V30 777 C 72.5799 -5.95647 -3.01265 0
M  V30 778 H 71.8499 -0.391433 -0.629175 0
M  V30 779 H 74.4969 -1.53572 -1.14403 0
M  V30 780 H 72.8019 -1.20096 -3.7294 0
M  V30 781 H 74.4989 -1.58936 -3.68158 0
M  V30 782 H 71.0889 -2.91692 -3.14029 0
M  V30 783 H 75.2729 -3.89547 -3.07517 0
M  V30 784 H 70.5289 -5.3081 -3.03399 0
M  V30 785 H 74.7029 -6.29398 -2.98046 0
M  V30 786 H 72.3299 -7.0041 -2.95516 0
M  V30 787 N 73.905 1.17692 -1.04816 0
M  V30 788 C 75.13 1.92327 -0.776207 0
M  V30 789 C 75.555 1.76082 0.661581 0
M  V30 790 O 74.913 1.076 1.45917 0
M  V30 791 C 74.961 3.41539 -1.15687 0
M  V30 792 O 74.065 4.11402 -0.286775 0
M  V30 793 H 73.406 0.599735 -0.284981 0
M  V30 794 H 75.936 1.49201 -1.4 0
M  V30 795 H 75.946 3.92269 -1.12202 0
M  V30 796 H 74.621 3.52684 -2.20425 0
M  V30 797 H 73.198 3.70939 -0.381903 0
M  V30 798 N 75.3831 0.828654 1.34056 0
M  V30 799 C 76.6231 0.425394 1.99924 0
M  V30 800 C 76.9871 -0.994294 1.64249 0
M  V30 801 O 78.1881 -1.50074 2.23005 0
M  V30 802 C 76.4591 0.628071 3.51838 0
M  V30 803 S 78.0181 0.318511 4.37642 0
M  V30 804 H 74.8361 0.160465 0.692656 0
M  V30 805 H 77.4381 1.07572 1.63244 0
M  V30 806 H 76.1421 1.66089 3.7529 0
M  V30 807 H 75.6731 -0.0367799 3.93383 0
M  V30 808 H 77.6881 -0.865632 4.88591 0
M  V30 809 N 76.8612 -1.46375 0.584142 0
M  V30 810 C 77.7912 -2.33103 -0.136037 0
M  V30 811 C 78.7722 -1.45431 -0.882255 0
M  V30 812 O 79.9572 -1.74246 -0.857434 0
M  V30 813 C 77.0872 -3.27731 -1.14933 0
M  V30 814 C 76.0412 -4.24855 -0.517862 0
M  V30 815 C 75.3672 -5.09001 -1.63773 0
M  V30 816 C 76.6672 -5.19439 0.545886 0
M  V30 817 H 78.3612 -2.93568 0.588086 0
M  V30 818 H 75.9072 -1.41166 0.284259 0
M  V30 819 H 77.8602 -3.87261 -1.66153 0
M  V30 820 H 76.5842 -2.65377 -1.90375 0
M  V30 821 H 75.2432 -3.6659 -0.0267361 0
M  V30 822 H 74.8912 -4.43031 -2.38185 0
M  V30 823 H 74.5912 -5.74777 -1.22085 0
M  V30 824 H 76.1152 -5.71396 -2.15266 0
M  V30 825 H 77.5292 -5.73177 0.118704 0
M  V30 826 H 75.9262 -5.93566 0.88317 0
M  V30 827 H 76.9962 -4.63285 1.43162 0
M  V30 828 N 78.3393 -0.321999 -1.54275 0
M  V30 829 C 79.2863 0.544664 -2.24281 0
M  V30 830 C 80.2563 1.1129 -1.23303 0
M  V30 831 O 81.4413 1.15354 -1.51981 0
M  V30 832 C 78.5813 1.70045 -3.00298 0
M  V30 833 C 77.6943 1.16159 -4.1609 0
M  V30 834 C 76.8293 2.28293 -4.79641 0
M  V30 835 C 75.8683 1.71648 -5.8754 0
M  V30 836 N 75.0053 2.77438 -6.44959 0
M  V30 837 H 79.8453 -0.0588907 -2.97942 0
M  V30 838 H 77.3823 -0.0408345 -1.47043 0
M  V30 839 H 79.3403 2.38054 -3.42616 0
M  V30 840 H 77.9703 2.27531 -2.28975 0
M  V30 841 H 77.0223 0.373092 -3.78566 0
M  V30 842 H 78.3343 0.707087 -4.93763 0
M  V30 843 H 77.4883 3.0421 -5.2492 0
M  V30 844 H 76.2273 2.77079 -4.01346 0
M  V30 845 H 75.2323 0.942282 -5.41665 0
M  V30 846 H 76.4573 1.23741 -6.67731 0
M  V30 847 H 74.4033 3.25519 -5.69538 0
M  V30 848 H 74.3203 2.36547 -7.1804 0
M  V30 849 H 75.5883 3.53189 -6.94894 0
M  V30 850 N 79.8174 1.5752 -0.0501392 0
M  V30 851 C 81.0944 1.83996 0.663685 0
M  V30 852 C 81.4744 0.938339 1.89099 0
M  V30 853 O 80.8224 -0.00087759 2.285 0
M  V30 854 C 81.0324 3.33702 1.02196 0
M  V30 855 C 82.3804 4.00691 1.40469 0
M  V30 856 O 83.4044 3.38321 1.11433 0
M  V30 857 O 82.2634 5.10658 1.94654 0
M  V30 858 H 79.3574 0.759385 0.32751 0
M  V30 859 H 81.9034 1.69514 -0.0794238 0
M  V30 860 H 80.6754 3.91015 0.149364 0
M  V30 861 H 80.2984 3.53368 1.82255 0
M  V30 862 N 81.2955 -0.223234 1.56011 0
M  V30 863 C 82.7115 -0.572856 1.48965 0
M  V30 864 C 82.9115 -1.87225 0.74492 0
M  V30 865 O 81.9675 -2.50899 0.283896 0
M  V30 866 C 83.2805 -0.653646 2.9351 0
M  V30 867 C 84.8285 -0.744386 3.0402 0
M  V30 868 C 85.3035 -0.856535 4.49919 0
M  V30 869 N 86.7945 -0.9208 4.53955 0
M  V30 870 C 87.5295 -1.02726 5.64123 0
M  V30 871 N 87.0255 -1.09777 6.84047 0
M  V30 872 N 88.8185 -1.06226 5.51971 0
M  V30 873 H 80.9695 0.629462 2.02858 0
M  V30 874 H 83.2325 0.220621 0.921971 0
M  V30 875 H 82.9385 0.231518 3.50937 0
M  V30 876 H 82.8125 -1.51781 3.45315 0
M  V30 877 H 85.1995 -1.61999 2.46658 0
M  V30 878 H 85.2805 0.14541 2.55386 0
M  V30 879 H 84.9245 0.0146069 5.07898 0
M  V30 880 H 84.8545 -1.76172 4.96257 0
M  V30 881 H 87.3455 -0.876694 3.6759 0
M  V30 882 H 87.6585 -1.17872 7.63758 0
M  V30 883 H 86.0035 -1.06693 6.86762 0
M  V30 884 H 89.1945 -1.00382 4.5721 0
M  V30 885 H 89.3675 -1.14177 6.37862 0
M  V30 886 N 82.7736 -1.49793 -0.48987 0
M  V30 887 C 83.7236 -1.63673 -1.5873 0
M  V30 888 C 84.7076 -0.491956 -1.53195 0
M  V30 889 O 85.8996 -0.745461 -1.60536 0
M  V30 890 C 83.0286 -1.71689 -2.97284 0
M  V30 891 C 82.1146 -2.91781 -3.07774 0
M  V30 892 N 82.5056 -4.15714 -2.88124 0
M  V30 893 C 80.8036 -2.89949 -3.38889 0
M  V30 894 C 81.5046 -4.965 -3.03088 0
M  V30 895 N 80.4806 -4.30083 -3.3246 0
M  V30 896 H 84.2826 -2.57204 -1.42208 0
M  V30 897 H 81.7966 -1.46719 -0.69623 0
M  V30 898 H 83.7936 -1.79732 -3.76168 0
M  V30 899 H 82.4536 -0.793024 -3.14867 0
M  V30 900 H 83.4646 -4.45515 -2.64077 0
M  V30 901 H 80.1416 -2.06987 -3.62578 0
M  V30 902 H 81.5316 -6.04991 -2.92294 0
M  V30 903 N 84.2517 0.741722 -1.39055 0
M  V30 904 C 85.5287 1.49252 -1.26425 0
M  V30 905 C 85.9087 2.10705 0.129144 0
M  V30 906 O 85.2567 1.98045 1.13976 0
M  V30 907 C 85.4667 2.54934 -2.38347 0
M  V30 908 C 86.8147 3.21506 -2.77343 0
M  V30 909 O 87.8387 2.65245 -2.37747 0
M  V30 910 O 86.6977 4.23294 -3.45665 0
M  V30 911 H 83.7917 0.662451 -0.495064 0
M  V30 912 H 86.3377 0.776121 -1.50912 0
M  V30 913 H 85.1097 2.07857 -3.31529 0
M  V30 914 H 84.7327 3.34141 -2.15489 0
M  V30 915 N 85.7298 1.2412 0.971189 0
M  V30 916 C 86.9768 1.07881 1.71371 0
M  V30 917 C 87.3048 -0.382901 1.90694 0
M  V30 918 O 86.5598 -1.29945 1.46331 0
M  V30 919 C 86.8588 1.75983 3.11071 0
M  V30 920 C 86.5248 3.25909 3.11599 0
M  V30 921 C 85.1868 3.66813 3.11451 0
M  V30 922 C 87.5388 4.21771 3.062 0
M  V30 923 C 84.8668 5.02021 3.03631 0
M  V30 924 C 87.2188 5.56982 2.99923 0
M  V30 925 C 85.8828 5.97237 2.98102 0
M  V30 926 H 85.1528 0.394764 0.62709 0
M  V30 927 H 87.7998 1.54176 1.13587 0
M  V30 928 H 86.1048 1.22072 3.72298 0
M  V30 929 H 87.8018 1.60887 3.6731 0
M  V30 930 H 84.3918 2.93353 3.12477 0
M  V30 931 H 88.5758 3.91172 3.05447 0
M  V30 932 H 83.8318 5.32411 3.0058 0
M  V30 933 H 88.0058 6.30969 2.94704 0
M  V30 934 H 85.6328 7.01967 2.91798 0
M  V30 935 N 87.2079 -1.17134 1.05439 0
M  V30 936 C 88.4559 -1.87085 0.764429 0
M  V30 937 C 88.7769 -1.81584 -0.710787 0
M  V30 938 O 88.0469 -1.24349 -1.51374 0
M  V30 939 H 86.6269 -0.692627 0.279779 0
M  V30 940 H 89.2889 -1.42087 1.33406 0
M  V30 941 H 88.3849 -2.92759 1.0816 0
M  V30 942 N 88.686 -0.835752 -1.33615 0
M  V30 943 C 89.933 -0.429959 -1.97883 0
M  V30 944 C 90.261 1.01006 -1.66217 0
M  V30 945 O 89.516 1.72047 -0.93265 0
M  V30 946 C 89.815 -0.593925 -3.52431 0
M  V30 947 C 89.481 -2.00158 -4.04039 0
M  V30 948 C 88.143 -2.38662 -4.17844 0
M  V30 949 C 90.495 -2.92117 -4.31644 0
M  V30 950 C 87.823 -3.68435 -4.56588 0
M  V30 951 C 90.175 -4.21368 -4.71838 0
M  V30 952 C 88.839 -4.59833 -4.83849 0
M  V30 953 H 88.109 -0.157333 -0.724104 0
M  V30 954 H 90.756 -1.06217 -1.59343 0
M  V30 955 H 89.061 0.121619 -3.91611 0
M  V30 956 H 90.758 -0.260282 -4.00154 0
M  V30 957 H 87.348 -1.69252 -3.93766 0
M  V30 958 H 91.532 -2.63608 -4.20505 0
M  V30 959 H 86.788 -3.98046 -4.64079 0
M  V30 960 H 90.962 -4.92703 -4.92155 0
M  V30 961 H 88.589 -5.60438 -5.13627 0
M  V30 962 N 90.1641 1.46063 -0.591896 0
M  V30 963 C 91.5751 1.85944 -0.167822 0
M  V30 964 C 91.9261 1.49429 1.27143 0
M  V30 965 O 91.0511 0.913515 1.96173 0
M  V30 966 C 91.6461 3.37489 -0.297794 0
M  V30 967 C 90.2051 3.76332 0.0714732 0
M  V30 968 C 89.3521 2.7006 -0.629509 0
M  V30 969 H 92.3031 1.37087 -0.799555 0
M  V30 970 H 92.3241 3.77532 0.474349 0
M  V30 971 H 91.8361 3.64034 -1.3454 0
M  V30 972 H 89.9371 3.55405 1.11886 0
M  V30 973 H 90.0501 4.78088 -0.311245 0
M  V30 974 H 88.4141 2.54607 -0.0687867 0
M  V30 975 H 89.1971 2.99444 -1.67894 0
M  V30 976 N 91.6422 0.330177 1.54103 0
M  V30 977 C 92.5742 -0.566902 2.22079 0
M  V30 978 C 93.5872 -1.07462 1.22294 0
M  V30 979 O 94.7762 -0.987065 1.48726 0
M  V30 980 C 91.8762 -1.79138 2.87685 0
M  V30 981 C 91.0492 -1.42123 4.13666 0
M  V30 982 C 90.1082 -2.50394 4.62806 0
M  V30 983 O 89.1342 -2.14261 5.27334 0
M  V30 984 N 90.3362 -3.81433 4.37595 0
M  V30 985 H 93.1012 0.0151844 2.99696 0
M  V30 986 H 90.6622 0.153681 1.61169 0
M  V30 987 H 92.6542 -2.50975 3.1748 0
M  V30 988 H 91.2242 -2.28115 2.13734 0
M  V30 989 H 90.4442 -0.534201 3.90564 0
M  V30 990 H 91.7322 -1.14971 4.9564 0
M  V30 991 H 91.1302 -4.13584 3.8596 0
M  V30 992 H 89.6872 -4.4948 4.72029 0
M  V30 993 N 93.1203 -1.57491 0.0584922 0
M  V30 994 C 94.0303 -2.15448 -0.928414 0
M  V30 995 C 95.0463 -1.11416 -1.3365 0
M  V30 996 O 96.2223 -1.4362 -1.41193 0
M  V30 997 C 93.2873 -2.69393 -2.18239 0
M  V30 998 C 92.3483 -3.88249 -1.83196 0
M  V30 999 C 91.5813 -4.39613 -3.02616 0
M  V30 1000 O 91.8043 -3.90023 -4.16219 0
M  V30 1001 O 90.7383 -5.31111 -2.83204 0
M  V30 1002 H 94.5643 -3.00112 -0.465483 0
M  V30 1003 H 92.1493 -1.48499 -0.163826 0
M  V30 1004 H 94.0313 -3.04026 -2.91798 0
M  V30 1005 H 92.7063 -1.87796 -2.63656 0
M  V30 1006 H 91.6133 -3.58492 -1.06931 0
M  V30 1007 H 92.9463 -4.71098 -1.42573 0
M  V30 1008 N 94.5984 0.214957 -1.56127 0
M  V30 1009 C 95.5084 1.28727 -1.96129 0
M  V30 1010 C 96.5244 1.50916 -0.866044 0
M  V30 1011 O 97.7004 1.63918 -1.17016 0
M  V30 1012 C 94.7654 2.61569 -2.27558 0
M  V30 1013 C 93.8264 2.47625 -3.50685 0
M  V30 1014 C 93.0594 3.74132 -3.80606 0
M  V30 1015 O 93.2824 4.77438 -3.12104 0
M  V30 1016 O 92.2164 3.70849 -4.74083 0
M  V30 1017 H 96.0424 0.977855 -2.87527 0
M  V30 1018 H 93.6274 0.418358 -1.43423 0
M  V30 1019 H 95.5094 3.40012 -2.48938 0
M  V30 1020 H 94.1844 2.92178 -1.39332 0
M  V30 1021 H 93.0914 1.67361 -3.34576 0
M  V30 1022 H 94.4244 2.21954 -4.39315 0
M  V30 1023 N 96.0765 1.50051 0.48192 0
M  V30 1024 C 97.3235 1.60498 1.23477 0
M  V30 1025 C 97.6515 0.300331 1.92167 0
M  V30 1026 O 96.9065 -0.713094 1.82246 0
M  V30 1027 C 97.2055 2.72717 2.30998 0
M  V30 1028 C 96.8715 4.13572 1.79636 0
M  V30 1029 C 95.5335 4.519 1.65348 0
M  V30 1030 C 97.8855 5.01649 1.41412 0
M  V30 1031 C 95.2135 5.76057 1.11244 0
M  V30 1032 C 97.5655 6.26343 0.887538 0
M  V30 1033 C 96.2295 6.63483 0.731207 0
M  V30 1034 H 95.4995 0.587303 0.451836 0
M  V30 1035 H 98.1465 1.83948 0.532468 0
M  V30 1036 H 96.4515 2.43312 3.07094 0
M  V30 1037 H 98.1485 2.78006 2.88988 0
M  V30 1038 H 94.7385 3.83329 1.91721 0
M  V30 1039 H 98.9225 4.72679 1.51289 0
M  V30 1040 H 94.1785 6.03516 0.978686 0
M  V30 1041 H 98.3525 6.93958 0.582654 0
M  V30 1042 H 95.9795 7.59568 0.309806 0
M  V30 1043 N 97.5546 -0.734337 1.39446 0
M  V30 1044 C 98.8026 -1.49096 1.36436 0
M  V30 1045 C 99.1236 -1.94961 -0.0388255 0
M  V30 1046 O 98.3936 -1.69033 -0.990191 0
M  V30 1047 H 96.9736 -0.5531 0.502085 0
M  V30 1048 H 99.6356 -0.871725 1.74319 0
M  V30 1049 H 98.7316 -2.37276 2.02747 0
M  V30 1050 N 99.0327 -1.24633 -0.964593 0
M  V30 1051 C 99.9807 -1.03917 -2.08096 0
M  V30 1052 C 100.975 0.0268581 -1.69379 0
M  V30 1053 O 102.181 -0.127952 -1.79545 0
M  V30 1054 H 98.5557 -0.319044 -0.680966 0
M  V30 1055 H 100.527 -1.98581 -2.22729 0
M  V30 1056 C 99.2757 -0.663983 -3.41301 0
M  V30 1057 H 98.5987 -1.47605 -3.71555 0
M  V30 1058 H 100.039 -0.558663 -4.20303 0
M  V30 1059 C 98.4977 0.629169 -3.30973 0
M  V30 1060 O 99.0277 1.67404 -3.65156 0
M  V30 1061 N 97.2337 0.611057 -2.84103 0
M  V30 1062 H 96.7807 -0.239593 -2.56483 0
M  V30 1063 H 96.7387 1.47647 -2.77575 0
M  V30 1064 N 100.511 1.16574 -1.06058 0
M  V30 1065 C 101.443 2.2045 -0.627239 0
M  V30 1066 C 102.456 1.59752 0.313534 0
M  V30 1067 O 103.645 1.78192 0.104896 0
M  V30 1068 C 100.745 3.3875 0.100974 0
M  V30 1069 C 99.9178 4.29008 -0.852687 0
M  V30 1070 C 98.9768 5.25944 -0.164152 0
M  V30 1071 O 98.0028 5.63535 -0.801047 0
M  V30 1072 N 99.2048 5.70075 1.09518 0
M  V30 1073 H 101.97 2.58249 -1.52077 0
M  V30 1074 H 99.5308 1.3156 -0.943594 0
M  V30 1075 H 101.523 4.00638 0.57194 0
M  V30 1076 H 100.093 2.99476 0.89628 0
M  V30 1077 H 99.3128 3.64419 -1.50308 0
M  V30 1078 H 100.601 4.86195 -1.49972 0
M  V30 1079 H 99.9988 5.41624 1.6328 0
M  V30 1080 H 98.5558 6.34067 1.51006 0
M  V30 1081 N 101.989 0.842826 1.3317 0
M  V30 1082 C 103.236 0.440447 1.97652 0
M  V30 1083 C 103.564 -1.00123 1.6675 0
M  V30 1084 O 102.819 -1.7155 0.941761 0
M  V30 1085 C 103.118 0.612607 3.52111 0
M  V30 1086 C 102.784 2.02297 4.02972 0
M  V30 1087 C 101.446 2.40874 4.16573 0
M  V30 1088 C 103.798 2.94402 4.30089 0
M  V30 1089 C 101.126 3.70852 4.54627 0
M  V30 1090 C 103.478 4.23865 4.69597 0
M  V30 1091 C 102.142 4.62392 4.81404 0
M  V30 1092 H 101.412 0.161171 0.72326 0
M  V30 1093 H 104.059 1.07061 1.58777 0
M  V30 1094 H 102.364 -0.100849 3.9167 0
M  V30 1095 H 104.061 0.2815 4.00011 0
M  V30 1096 H 100.651 1.71338 3.92863 0
M  V30 1097 H 104.835 2.65835 4.19101 0
M  V30 1098 H 100.091 4.00501 4.61962 0
M  V30 1099 H 104.265 4.95306 4.89536 0
M  V30 1100 H 101.892 5.63154 5.10648 0
M  V30 1101 N 103.467 -1.45747 0.599634 0
M  V30 1102 C 104.399 -2.28628 -0.161879 0
M  V30 1103 C 105.412 -1.39494 -0.839367 0
M  V30 1104 O 106.601 -1.63941 -0.706089 0
M  V30 1105 C 103.701 -3.15014 -1.24976 0
M  V30 1106 C 102.874 -4.32378 -0.660935 0
M  V30 1107 C 101.933 -5.00033 -1.63869 0
M  V30 1108 O 100.959 -5.57085 -1.1681 0
M  V30 1109 N 102.161 -4.98589 -2.97303 0
M  V30 1110 H 104.926 -2.94624 0.549265 0
M  V30 1111 H 102.487 -1.55847 0.438565 0
M  V30 1112 H 104.479 -3.5714 -1.9035 0
M  V30 1113 H 103.049 -2.5098 -1.86354 0
M  V30 1114 H 102.269 -3.9383 0.170688 0
M  V30 1115 H 103.557 -5.08197 -0.247619 0
M  V30 1116 H 102.955 -4.53514 -3.38145 0
M  V30 1117 H 101.512 -5.44603 -3.58121 0
M  V30 1118 N 104.945 -0.338344 -1.53925 0
M  V30 1119 C 105.892 0.520845 -2.24846 0
M  V30 1120 C 106.862 1.09976 -1.24477 0
M  V30 1121 O 108.047 1.13735 -1.53196 0
M  V30 1122 C 105.187 1.6685 -3.02084 0
M  V30 1123 C 104.3 1.11739 -4.17299 0
M  V30 1124 C 103.435 2.23193 -4.82036 0
M  V30 1125 C 102.474 1.65407 -5.89328 0
M  V30 1126 N 101.611 2.70582 -6.47866 0
M  V30 1127 H 106.451 -0.0904881 -2.97863 0
M  V30 1128 H 103.988 -0.0564282 -1.46992 0
M  V30 1129 H 105.946 2.34407 -3.45122 0
M  V30 1130 H 104.576 2.2509 -2.31375 0
M  V30 1131 H 103.628 0.332919 -3.7894 0
M  V30 1132 H 104.94 0.654677 -4.94485 0
M  V30 1133 H 104.094 2.98626 -5.28117 0
M  V30 1134 H 102.833 2.72807 -4.04262 0
M  V30 1135 H 101.838 0.884779 -5.42634 0
M  V30 1136 H 103.063 1.16652 -6.69006 0
M  V30 1137 H 101.009 3.1946 -5.72959 0
M  V30 1138 H 100.926 2.28917 -7.20509 0
M  V30 1139 H 102.194 3.45799 -6.98601 0
M  V30 1140 N 106.423 1.57458 -0.0668435 0
M  V30 1141 C 107.386 2.11323 0.887422 0
M  V30 1142 C 108.386 1.03618 1.22964 0
M  V30 1143 O 109.576 1.29626 1.16373 0
M  V30 1144 C 106.708 2.61048 2.19242 0
M  V30 1145 H 107.901 2.96942 0.420194 0
M  V30 1146 H 105.454 1.55239 0.181793 0
M  V30 1147 H 106.189 1.78868 2.70512 0
M  V30 1148 H 105.974 3.39769 1.95702 0
M  V30 1149 H 107.464 3.02814 2.87565 0
M  V30 1150 N 107.901 -0.206675 1.56239 0
M  V30 1151 C 108.811 -1.27686 1.96808 0
M  V30 1152 C 109.827 -1.50455 0.874035 0
M  V30 1153 O 111.003 -1.63295 1.17884 0
M  V30 1154 C 108.068 -2.60358 2.28942 0
M  V30 1155 C 107.129 -2.45762 3.51994 0
M  V30 1156 C 106.362 -3.72108 3.82585 0
M  V30 1157 O 106.585 -4.75776 3.14631 0
M  V30 1158 O 105.519 -3.6833 4.76043 0
M  V30 1159 H 109.345 -0.962593 2.88041 0
M  V30 1160 H 106.93 -0.410746 1.43643 0
M  V30 1161 H 108.812 -3.38687 2.50737 0
M  V30 1162 H 107.487 -2.91435 1.4088 0
M  V30 1163 H 106.394 -1.65584 3.35459 0
M  V30 1164 H 107.727 -2.19621 4.40486 0
M  V30 1165 N 109.379 -1.50304 -0.473955 0
M  V30 1166 C 110.607 -1.64902 -1.24959 0
M  V30 1167 C 111.022 -0.331198 -1.85872 0
M  V30 1168 O 110.379 0.68652 -1.69095 0
M  V30 1169 C 110.43 -2.73803 -2.36038 0
M  V30 1170 O 110.151 -4.00477 -1.77624 0
M  V30 1171 C 111.652 -2.99349 -3.26964 0
M  V30 1172 H 108.872 -0.554383 -0.378022 0
M  V30 1173 H 111.416 -1.9651 -0.566054 0
M  V30 1174 H 109.571 -2.44898 -3.00173 0
M  V30 1175 H 109.985 -4.60678 -2.5075 0
M  V30 1176 H 111.459 -3.79217 -4.01121 0
M  V30 1177 H 111.936 -2.10307 -3.85574 0
M  V30 1178 H 112.542 -3.29774 -2.68569 0
M  V30 1179 N 110.857 0.726932 -1.39834 0
M  V30 1180 C 112.106 1.48214 -1.36805 0
M  V30 1181 C 112.419 1.95576 0.0305291 0
M  V30 1182 O 113.625 2.7088 0.183417 0
M  V30 1183 C 112.081 2.67854 -2.40379 0
M  V30 1184 C 111.689 2.27408 -3.85992 0
M  V30 1185 C 113.433 3.45641 -2.46439 0
M  V30 1186 C 111.34 3.43819 -4.81189 0
M  V30 1187 H 110.27 0.556606 -0.508631 0
M  V30 1188 H 112.921 0.792216 -1.65518 0
M  V30 1189 H 111.303 3.3896 -2.04749 0
M  V30 1190 H 112.477 1.63795 -4.30706 0
M  V30 1191 H 110.792 1.62692 -3.83302 0
M  V30 1192 H 113.389 4.32244 -3.14753 0
M  V30 1193 H 113.732 3.88669 -1.49139 0
M  V30 1194 H 114.265 2.8157 -2.81004 0
M  V30 1195 H 111.004 3.05834 -5.79781 0
M  V30 1196 H 110.524 4.06385 -4.41148 0
M  V30 1197 H 112.203 4.10043 -5.00474 0
M  V30 1198 N 112.336 1.25143 0.95797 0
M  V30 1199 C 113.747 1.08851 1.51685 0
M  V30 1200 C 114.098 -0.33687 1.93286 0
M  V30 1201 O 113.223 -1.22644 1.7829 0
M  V30 1202 C 113.818 1.96978 2.75654 0
M  V30 1203 C 112.377 1.84881 3.27866 0
M  V30 1204 C 111.524 1.91329 2.0072 0
M  V30 1205 H 114.475 1.38478 0.77522 0
M  V30 1206 H 114.496 1.5078 3.4935 0
M  V30 1207 H 114.008 3.00712 2.45345 0
M  V30 1208 H 112.109 0.840182 3.63004 0
M  V30 1209 H 112.222 2.6951 3.96107 0
M  V30 1210 H 110.586 1.35174 2.15871 0
M  V30 1211 H 111.369 2.96661 1.72764 0
M  V30 1212 N 113.814 -1.1601 1.06675 0
M  V30 1213 C 115.06 -1.86909 0.786945 0
M  V30 1214 C 115.393 -1.81717 -0.685018 0
M  V30 1215 O 114.668 -1.23551 -1.50218 0
M  V30 1216 C 114.951 -3.36313 1.28707 0
M  V30 1217 C 114.804 -3.50175 2.82308 0
M  V30 1218 C 116.123 -4.3084 0.898071 0
M  V30 1219 H 113.242 -0.678677 0.287343 0
M  V30 1220 H 115.884 -1.36336 1.32334 0
M  V30 1221 H 114.034 -3.79513 0.830768 0
M  V30 1222 H 115.706 -3.15886 3.36175 0
M  V30 1223 H 113.949 -2.91959 3.20847 0
M  V30 1224 H 114.62 -4.55116 3.12368 0
M  V30 1225 H 117.096 -3.95561 1.29114 0
M  V30 1226 H 115.972 -5.33876 1.27543 0
M  V30 1227 H 116.233 -4.41662 -0.196651 0
M  V30 1228 N 115.292 -0.849877 -1.32721 0
M  V30 1229 C 116.222 -0.306308 -2.31482 0
M  V30 1230 C 117.203 0.591952 -1.59468 0
M  V30 1231 O 118.388 0.513199 -1.87296 0
M  V30 1232 C 115.518 0.510204 -3.43532 0
M  V30 1233 C 114.472 -0.293209 -4.26994 0
M  V30 1234 C 113.798 0.647743 -5.30762 0
M  V30 1235 C 115.098 -1.51634 -4.99804 0
M  V30 1236 H 116.792 -1.13153 -2.77195 0
M  V30 1237 H 114.338 -0.545553 -1.33266 0
M  V30 1238 H 116.291 0.900856 -4.11658 0
M  V30 1239 H 115.015 1.36874 -2.96535 0
M  V30 1240 H 113.674 -0.665555 -3.60508 0
M  V30 1241 H 113.322 1.50299 -4.8002 0
M  V30 1242 H 113.022 0.11422 -5.87489 0
M  V30 1243 H 114.546 1.03567 -6.01753 0
M  V30 1244 H 115.96 -1.19824 -5.60638 0
M  V30 1245 H 114.357 -1.98745 -5.66234 0
M  V30 1246 H 115.427 -2.28018 -4.27943 0
M  V30 1247 N 116.77 1.45427 -0.607355 0
M  V30 1248 C 117.72 2.27612 0.133038 0
M  V30 1249 C 118.704 1.37307 0.838785 0
M  V30 1250 O 119.896 1.61299 0.728813 0
M  V30 1251 C 117.025 3.24173 1.12991 0
M  V30 1252 C 116.111 4.21965 0.425011 0
M  V30 1253 N 116.502 5.02982 -0.533217 0
M  V30 1254 C 114.8 4.40899 0.672593 0
M  V30 1255 C 115.501 5.73931 -0.947518 0
M  V30 1256 N 114.477 5.42819 -0.291321 0
M  V30 1257 H 118.279 2.87649 -0.602935 0
M  V30 1258 H 115.793 1.56576 -0.431006 0
M  V30 1259 H 117.79 3.81783 1.67473 0
M  V30 1260 H 116.45 2.65696 1.86644 0
M  V30 1261 H 117.461 5.09843 -0.90995 0
M  V30 1262 H 114.138 3.93547 1.39382 0
M  V30 1263 H 115.528 6.49037 -1.73782 0
M  V30 1264 N 118.248 0.346503 1.53744 0
M  V30 1265 C 119.158 -0.517293 2.28826 0
M  V30 1266 C 120.174 -1.10935 1.3405 0
M  V30 1267 O 121.35 -1.1244 1.6709 0
M  V30 1268 C 118.415 -1.65098 3.04866 0
M  V30 1269 C 117.476 -1.0884 4.15274 0
M  V30 1270 C 116.709 -2.16806 4.87679 0
M  V30 1271 O 116.932 -3.3758 4.59778 0
M  V30 1272 O 115.866 -1.80934 5.74061 0
M  V30 1273 H 119.692 0.0931396 3.03557 0
M  V30 1274 H 117.277 0.111458 1.48984 0
M  V30 1275 H 119.159 -2.31053 3.5241 0
M  V30 1276 H 117.834 -2.24717 2.32989 0
M  V30 1277 H 116.741 -0.3933 3.72027 0
M  V30 1278 H 118.074 -0.537036 4.89261 0
M  V30 1279 N 119.726 -1.57421 0.075193 0
M  V30 1280 C 120.659 -2.08528 -0.926904 0
M  V30 1281 C 121.637 -0.991171 -1.28898 0
M  V30 1282 O 122.821 -1.26479 -1.39769 0
M  V30 1283 C 119.948 -2.54576 -2.23402 0
M  V30 1284 C 118.994 -3.75454 -2.02327 0
M  V30 1285 S 119.827 -5.19989 -1.27951 0
M  V30 1286 C 120.983 -5.69372 -2.59935 0
M  V30 1287 H 121.216 -2.932 -0.492048 0
M  V30 1288 H 118.749 -1.53785 -0.137651 0
M  V30 1289 H 120.707 -2.81767 -2.98526 0
M  V30 1290 H 119.368 -1.70166 -2.64012 0
M  V30 1291 H 118.561 -4.05675 -2.99071 0
M  V30 1292 H 118.163 -3.48654 -1.35339 0
M  V30 1293 H 120.455 -5.76424 -3.56008 0
M  V30 1294 H 121.398 -6.68207 -2.34319 0
M  V30 1295 H 121.806 -4.97205 -2.67296 0
M  V30 1296 N 121.204 0.198386 -1.56346 0
M  V30 1297 C 122.453 0.917451 -1.79627 0
M  V30 1298 C 122.766 1.8456 -0.64784 0
M  V30 1299 O 123.972 2.60504 -0.764859 0
M  V30 1300 C 122.428 1.68175 -3.18191 0
M  V30 1301 C 122.036 0.798589 -4.40825 0
M  V30 1302 C 123.78 2.39065 -3.50782 0
M  V30 1303 C 121.687 1.56157 -5.70411 0
M  V30 1304 H 120.617 0.346317 -0.669762 0
M  V30 1305 H 123.268 0.170801 -1.82703 0
M  V30 1306 H 121.65 2.47216 -3.09354 0
M  V30 1307 H 122.824 0.0470665 -4.60776 0
M  V30 1308 H 121.139 0.200686 -4.15916 0
M  V30 1309 H 123.736 2.96692 -4.44835 0
M  V30 1310 H 124.079 3.13091 -2.74371 0
M  V30 1311 H 124.612 1.66993 -3.61052 0
M  V30 1312 H 121.351 0.864142 -6.49779 0
M  V30 1313 H 120.871 2.2871 -5.54483 0
M  V30 1314 H 122.55 2.11622 -6.11412 0
M  V30 1315 N 122.682 1.50554 0.465978 0
M  V30 1316 C 123.614 1.65949 1.58093 0
M  V30 1317 C 124.627 0.540827 1.53554 0
M  V30 1318 O 125.816 0.814187 1.5885 0
M  V30 1319 C 122.916 1.63261 2.96983 0
M  V30 1320 C 122.089 2.91245 3.26336 0
M  V30 1321 C 121.148 2.8113 4.44806 0
M  V30 1322 O 120.174 3.55086 4.44862 0
M  V30 1323 N 121.376 1.95032 5.46756 0
M  V30 1324 H 124.141 2.62122 1.45301 0
M  V30 1325 H 121.702 1.48082 0.65448 0
M  V30 1326 H 123.694 1.54101 3.74212 0
M  V30 1327 H 122.264 0.748032 3.03518 0
M  V30 1328 H 121.484 3.14493 2.37672 0
M  V30 1329 H 122.772 3.76022 3.42761 0
M  V30 1330 H 122.17 1.3427 5.49534 0
M  V30 1331 H 120.727 1.91772 6.2295 0
M  V30 1332 N 124.16 -0.719506 1.40217 0
M  V30 1333 C 125.092 -1.84428 1.36084 0
M  V30 1334 C 126.105 -1.60597 0.266913 0
M  V30 1335 O 127.294 -1.70544 0.526983 0
M  V30 1336 C 124.394 -3.20757 1.094 0
M  V30 1337 C 123.567 -3.71817 2.30372 0
M  V30 1338 C 122.626 -4.86748 1.99907 0
M  V30 1339 O 121.652 -4.99603 2.72737 0
M  V30 1340 N 122.854 -5.7226 0.974635 0
M  V30 1341 H 125.619 -1.88473 2.33019 0
M  V30 1342 H 123.18 -0.900885 1.3452 0
M  V30 1343 H 125.172 -3.95235 0.870116 0
M  V30 1344 H 123.742 -3.11884 0.211452 0
M  V30 1345 H 122.962 -2.88514 2.68614 0
M  V30 1346 H 124.25 -4.02666 3.11026 0
M  V30 1347 H 123.648 -5.6448 0.371368 0
M  V30 1348 H 122.205 -6.46739 0.810656 0
M  V30 1349 N 125.638 -1.25649 -0.95132 0
M  V30 1350 C 126.887 -1.09988 -1.69073 0
M  V30 1351 C 127.2 0.358355 -1.92289 0
M  V30 1352 O 128.406 0.635466 -2.63958 0
M  V30 1353 C 126.862 -1.92012 -3.044 0
M  V30 1354 C 126.47 -3.42347 -2.88968 0
M  V30 1355 C 128.214 -1.8493 -3.82101 0
M  V30 1356 C 126.121 -4.16655 -4.19705 0
M  V30 1357 H 125.051 -0.407993 -0.63408 0
M  V30 1358 H 127.702 -1.49873 -1.05879 0
M  V30 1359 H 126.084 -1.44952 -3.68517 0
M  V30 1360 H 127.258 -3.97104 -2.33762 0
M  V30 1361 H 125.573 -3.50557 -2.24719 0
M  V30 1362 H 128.17 -2.37739 -4.78941 0
M  V30 1363 H 128.513 -0.817883 -4.08187 0
M  V30 1364 H 129.046 -2.29758 -3.2474 0
M  V30 1365 H 125.785 -5.20224 -3.98807 0
M  V30 1366 H 125.305 -3.66681 -4.74663 0
M  V30 1367 H 126.984 -4.24551 -4.88227 0
M  V30 1368 N 127.117 1.15442 -1.07289 0
M  V30 1369 C 128.364 1.86213 -0.795668 0
M  V30 1370 C 128.692 1.82291 0.678238 0
M  V30 1371 O 127.947 1.24057 1.51355 0
M  V30 1372 C 128.246 3.3489 -1.24834 0
M  V30 1373 C 127.912 3.59007 -2.72809 0
M  V30 1374 C 126.574 3.65298 -3.13227 0
M  V30 1375 C 128.926 3.68762 -3.68326 0
M  V30 1376 C 126.254 3.78854 -4.4798 0
M  V30 1377 C 128.606 3.83842 -5.0284 0
M  V30 1378 C 127.27 3.88378 -5.4288 0
M  V30 1379 H 126.54 0.681403 -0.291155 0
M  V30 1380 H 129.187 1.36435 -1.34379 0
M  V30 1381 H 127.492 3.8687 -0.619595 0
M  V30 1382 H 129.189 3.88052 -1.01076 0
M  V30 1383 H 125.779 3.5475 -2.40521 0
M  V30 1384 H 129.963 3.63202 -3.38227 0
M  V30 1385 H 125.219 3.80623 -4.78472 0
M  V30 1386 H 129.393 3.90332 -5.76727 0
M  V30 1387 H 127.02 3.98635 -6.47298 0
M  V30 1388 N 128.595 0.856903 1.32268 0
M  V30 1389 C 129.543 0.291987 2.3076 0
M  V30 1390 C 130.537 -0.585857 1.58947 0
M  V30 1391 O 131.743 -0.47341 1.73663 0
M  V30 1392 H 128.118 0.075721 0.748178 0
M  V30 1393 H 130.089 1.13687 2.75895 0
M  V30 1394 C 128.838 -0.502869 3.44044 0
M  V30 1395 H 128.161 0.163328 3.99466 0
M  V30 1396 H 129.601 -0.863691 4.1511 0
M  V30 1397 C 128.06 -1.68898 2.91505 0
M  V30 1398 O 128.59 -2.78811 2.89184 0
M  V30 1399 N 126.796 -1.51679 2.47875 0
M  V30 1400 H 126.343 -0.622666 2.49961 0
M  V30 1401 H 126.301 -2.31184 2.13076 0
M  V30 1402 N 130.073 -1.45103 0.615059 0
M  V30 1403 C 131.003 -2.33339 -0.0865619 0
M  V30 1404 C 131.984 -1.4727 -0.851209 0
M  V30 1405 O 133.169 -1.76026 -0.820281 0
M  V30 1406 C 130.299 -3.30095 -1.07956 0
M  V30 1407 C 129.253 -4.25858 -0.427628 0
M  V30 1408 C 128.579 -5.12361 -1.5294 0
M  V30 1409 C 129.879 -5.18165 0.655944 0
M  V30 1410 H 131.573 -2.92254 0.650224 0
M  V30 1411 H 129.119 -1.40532 0.314138 0
M  V30 1412 H 131.072 -3.90698 -1.57901 0
M  V30 1413 H 129.796 -2.69355 -1.84703 0
M  V30 1414 H 128.455 -3.66564 0.0510292 0
M  V30 1415 H 128.103 -4.47984 -2.28734 0
M  V30 1416 H 127.803 -5.77238 -1.09865 0
M  V30 1417 H 129.327 -5.75833 -2.03098 0
M  V30 1418 H 130.741 -5.72796 0.240257 0
M  V30 1419 H 129.138 -5.91559 1.00888 0
M  V30 1420 H 130.208 -4.60144 1.52957 0
M  V30 1421 N 131.551 -0.354651 -1.53558 0
M  V30 1422 C 132.798 0.238443 -2.01091 0
M  V30 1423 C 133.126 1.49663 -1.24222 0
M  V30 1424 O 132.381 1.93049 -0.321003 0
M  V30 1425 C 132.68 0.587121 -3.52545 0
M  V30 1426 C 132.346 -0.575472 -4.47213 0
M  V30 1427 C 131.008 -0.894497 -4.72813 0
M  V30 1428 C 133.36 -1.35489 -5.03281 0
M  V30 1429 C 130.688 -1.99511 -5.51736 0
M  V30 1430 C 133.04 -2.44583 -5.83405 0
M  V30 1431 C 131.704 -2.77033 -6.07296 0
M  V30 1432 H 130.974 0.0872526 -0.735845 0
M  V30 1433 H 133.621 -0.484859 -1.8526 0
M  V30 1434 H 131.926 1.39129 -3.66265 0
M  V30 1435 H 133.623 1.05809 -3.86789 0
M  V30 1436 H 130.213 -0.316774 -4.27428 0
M  V30 1437 H 134.397 -1.12167 -4.83459 0
M  V30 1438 H 129.653 -2.25063 -5.68469 0
M  V30 1439 H 133.827 -3.05401 -6.25862 0
M  V30 1440 H 131.454 -3.6244 -6.68237 0
M  V30 1441 N 133.029 1.57378 -0.0835403 0
M  V30 1442 C 134.254 1.98682 0.594987 0
M  V30 1443 C 134.679 0.961969 1.61641 0
M  V30 1444 O 134.037 -0.0709989 1.81161 0
M  V30 1445 C 134.085 3.38988 1.2296 0
M  V30 1446 O 133.189 3.39208 2.34546 0
M  V30 1447 H 132.53 0.646368 0.152002 0
M  V30 1448 H 135.06 2.03961 -0.161533 0
M  V30 1449 H 135.07 3.76431 1.57366 0
M  V30 1450 H 133.745 4.13107 0.481228 0
M  V30 1451 H 132.322 3.13548 2.01846 0
M  V30 1452 N 134.507 -0.190092 1.56449 0
M  V30 1453 C 135.735 -0.925772 1.85033 0
M  V30 1454 C 136.15 -1.76638 0.666658 0
M  V30 1455 O 135.507 -1.78822 -0.364565 0
M  V30 1456 C 135.558 -1.81786 3.12468 0
M  V30 1457 O 135.279 -1.01118 4.26271 0
M  V30 1458 C 136.78 -2.6648 3.54265 0
M  V30 1459 H 134 -0.269872 0.614337 0
M  V30 1460 H 136.544 -0.195837 2.0356 0
M  V30 1461 H 134.699 -2.50136 2.95822 0
M  V30 1462 H 135.113 -1.61956 4.98869 0
M  V30 1463 H 136.587 -3.24722 4.46385 0
M  V30 1464 H 137.064 -3.40434 2.77491 0
M  V30 1465 H 137.67 -2.03493 3.73458 0
M  V30 1466 N 135.985 -1.50799 -0.457987 0
M  V30 1467 C 136.932 -1.70617 -1.5543 0
M  V30 1468 C 137.902 -0.547562 -1.56815 0
M  V30 1469 O 139.087 -0.779647 -1.74144 0
M  V30 1470 C 136.227 -1.81831 -2.93311 0
M  V30 1471 C 135.34 -3.09278 -3.01615 0
M  V30 1472 C 134.475 -3.11209 -4.30491 0
M  V30 1473 C 133.514 -4.33055 -4.32585 0
M  V30 1474 N 132.651 -4.32652 -5.52952 0
M  V30 1475 H 137.491 -2.64207 -1.37836 0
M  V30 1476 H 135.028 -1.30959 -0.669937 0
M  V30 1477 H 136.986 -1.86314 -3.73287 0
M  V30 1478 H 135.616 -0.916685 -3.0951 0
M  V30 1479 H 134.668 -3.14203 -2.1443 0
M  V30 1480 H 135.98 -3.99233 -2.99022 0
M  V30 1481 H 135.134 -3.14494 -5.18824 0
M  V30 1482 H 133.873 -2.19106 -4.35711 0
M  V30 1483 H 132.878 -4.29969 -3.42647 0
M  V30 1484 H 134.103 -5.264 -4.29046 0
M  V30 1485 H 132.049 -3.43409 -5.58933 0
M  V30 1486 H 131.966 -5.16392 -5.52155 0
M  V30 1487 H 133.234 -4.40101 -6.43375 0
M  V30 1488 N 137.463 0.71206 -1.40597 0
M  V30 1489 C 138.74 1.46536 -1.29563 0
M  V30 1490 C 139.12 2.10931 0.0844217 0
M  V30 1491 O 138.468 2.00418 1.0975 0
M  V30 1492 C 138.678 2.49821 -2.43701 0
M  V30 1493 C 140.026 3.15551 -2.841 0
M  V30 1494 O 141.05 2.60142 -2.4332 0
M  V30 1495 O 139.909 4.15867 -3.54566 0
M  V30 1496 H 137.003 0.651801 -0.509004 0
M  V30 1497 H 139.549 0.743935 -1.52524 0
M  V30 1498 H 138.321 2.00778 -3.35863 0
M  V30 1499 H 137.944 3.29495 -2.22528 0
M  V30 1500 N 138.941 1.26152 0.944643 0
M  V30 1501 C 140.166 1.14363 1.7302 0
M  V30 1502 C 140.591 -0.29772 1.85729 0
M  V30 1503 O 139.949 -1.2157 1.34501 0
M  V30 1504 C 139.997 1.81378 3.11664 0
M  V30 1505 O 139.101 1.10022 3.97453 0
M  V30 1506 H 138.442 0.398694 0.53098 0
M  V30 1507 H 140.972 1.66906 1.18337 0
M  V30 1508 H 140.982 1.88064 3.62072 0
M  V30 1509 H 139.657 2.86237 3.0173 0
M  V30 1510 H 138.234 1.11287 3.55907 0
M  V30 1511 N 140.419 -1.14872 1.07899 0
M  V30 1512 C 141.644 -1.90202 0.826926 0
M  V30 1513 C 142.069 -1.77774 -0.614664 0
M  V30 1514 O 141.427 -1.11431 -1.43013 0
M  V30 1515 C 141.475 -3.38352 1.24702 0
M  V30 1516 O 140.579 -4.10497 0.39575 0
M  V30 1517 H 139.92 -0.591968 0.300782 0
M  V30 1518 H 142.45 -1.45437 1.43907 0
M  V30 1519 H 142.46 -3.89156 1.22563 0
M  V30 1520 H 141.135 -3.46715 2.29698 0
M  V30 1521 H 139.712 -3.69796 0.480117 0
M  V30 1522 N 141.898 -0.863906 -1.31812 0
M  V30 1523 C 142.861 -0.320212 -2.26952 0
M  V30 1524 C 143.861 0.525369 -1.51975 0
M  V30 1525 O 145.051 0.335547 -1.70938 0
M  V30 1526 C 142.183 0.545919 -3.365 0
M  V30 1527 H 143.376 -1.16004 -2.76556 0
M  V30 1528 H 140.929 -0.638995 -1.42641 0
M  V30 1529 H 141.664 1.40718 -2.92179 0
M  V30 1530 H 141.449 -0.0594674 -3.92055 0
M  V30 1531 H 142.939 0.918796 -4.07367 0
M  V30 1532 N 143.376 1.44774 -0.622745 0
M  V30 1533 C 144.339 2.29069 0.0774015 0
M  V30 1534 C 145.339 1.4059 0.780461 0
M  V30 1535 O 146.529 1.62551 0.626322 0
M  V30 1536 C 143.661 3.21974 1.12006 0
M  V30 1537 H 144.854 2.92459 -0.663901 0
M  V30 1538 H 142.407 1.51548 -0.382486 0
M  V30 1539 H 143.142 2.63417 1.89162 0
M  V30 1540 H 142.927 3.87168 0.619951 0
M  V30 1541 H 144.417 3.85318 1.60995 0
M  V30 1542 N 144.854 0.36279 1.53368 0
M  V30 1543 C 146.1 -0.220702 2.02199 0
M  V30 1544 C 146.455 -1.46649 1.24546 0
M  V30 1545 O 145.748 -1.88737 0.32996 0
M  V30 1546 C 145.942 -0.568417 3.52851 0
M  V30 1547 C 145.771 0.642126 4.45092 0
M  V30 1548 C 144.541 1.15335 4.91961 0
M  V30 1549 C 146.739 1.50649 4.91741 0
M  V30 1550 N 144.721 2.3242 5.68202 0
M  V30 1551 C 146.092 2.52404 5.66297 0
M  V30 1552 C 148.147 1.52969 4.73819 0
M  V30 1553 C 146.85 3.56331 6.24836 0
M  V30 1554 C 148.876 2.55789 5.33222 0
M  V30 1555 C 148.238 3.56268 6.07662 0
M  V30 1556 H 144.337 -0.0435508 0.780786 0
M  V30 1557 H 146.921 0.506704 1.87991 0
M  V30 1558 H 145.092 -1.2649 3.67226 0
M  V30 1559 H 146.824 -1.13676 3.88407 0
M  V30 1560 H 143.579 0.718412 4.68119 0
M  V30 1561 H 144.003 2.91591 6.10986 0
M  V30 1562 H 148.645 0.766418 4.15795 0
M  V30 1563 H 146.363 4.33543 6.81958 0
M  V30 1564 H 149.949 2.58435 5.21251 0
M  V30 1565 H 148.829 4.34524 6.52808 0
M  V30 1566 N 146.332 -1.57332 0.0918853 0
M  V30 1567 C 147.609 -1.85691 -0.614668 0
M  V30 1568 C 147.989 -0.988146 -1.86545 0
M  V30 1569 O 147.337 -0.0597055 -2.28422 0
M  V30 1570 C 147.547 -3.36294 -0.933126 0
M  V30 1571 C 148.895 -4.04275 -1.29796 0
M  V30 1572 O 149.919 -3.41157 -1.02424 0
M  V30 1573 O 148.778 -5.1564 -1.81047 0
M  V30 1574 H 145.872 -0.767802 -0.307261 0
M  V30 1575 H 148.418 -1.69244 0.12434 0
M  V30 1576 H 147.19 -3.91273 -0.0456404 0
M  V30 1577 H 146.813 -3.58076 -1.72822 0
M  V30 1578 N 147.81 0.181792 -1.56548 0
M  V30 1579 C 148.72 1.24538 -1.98815 0
M  V30 1580 C 149.736 1.49045 -0.897861 0
M  V30 1581 O 150.912 1.61399 -1.20467 0
M  V30 1582 C 147.977 2.56683 -2.33055 0
M  V30 1583 C 147.038 2.40131 -3.55859 0
M  V30 1584 C 146.271 3.65975 -3.88456 0
M  V30 1585 O 146.494 4.70711 -3.22161 0
M  V30 1586 O 145.428 3.6071 -4.81842 0
M  V30 1587 H 149.254 0.916647 -2.89536 0
M  V30 1588 H 146.839 0.387842 -1.44278 0
M  V30 1589 H 148.721 3.34655 -2.56094 0
M  V30 1590 H 147.396 2.89157 -1.45498 0
M  V30 1591 H 146.303 1.60226 -3.38051 0
M  V30 1592 H 147.636 2.12585 -4.43924 0
M  V30 1593 N 149.288 1.51039 0.449983 0
M  V30 1594 C 150.516 1.66869 1.2232 0
M  V30 1595 C 150.931 0.360727 1.85322 0
M  V30 1596 O 150.288 -0.659531 1.70166 0
M  V30 1597 C 150.339 2.77524 2.31652 0
M  V30 1598 O 150.06 4.03252 1.7123 0
M  V30 1599 C 151.561 3.04512 3.2216 0
M  V30 1600 H 148.781 0.560326 0.369155 0
M  V30 1601 H 151.325 1.97385 0.534719 0
M  V30 1602 H 149.48 2.49642 2.96239 0
M  V30 1603 H 149.894 4.64609 2.43389 0
M  V30 1604 H 151.368 3.85551 3.95038 0
M  V30 1605 H 151.845 2.16415 3.8218 0
M  V30 1606 H 152.451 3.34005 2.63288 0
M  V30 1607 N 150.766 -0.704594 1.40972 0
M  V30 1608 C 151.696 -1.83124 1.44872 0
M  V30 1609 C 152.677 -1.67281 0.30838 0
M  V30 1610 O 153.862 -1.87149 0.518556 0
M  V30 1611 C 150.992 -3.21181 1.32136 0
M  V30 1612 C 149.946 -3.51714 2.43888 0
M  V30 1613 C 149.272 -4.89032 2.16222 0
M  V30 1614 C 150.572 -3.516 3.86232 0
M  V30 1615 H 152.266 -1.80117 2.39161 0
M  V30 1616 H 149.812 -0.865145 1.15114 0
M  V30 1617 H 151.765 -3.99702 1.33479 0
M  V30 1618 H 150.489 -3.24791 0.343279 0
M  V30 1619 H 149.148 -2.75539 2.41813 0
M  V30 1620 H 148.796 -4.89256 1.16778 0
M  V30 1621 H 148.496 -5.10426 2.911 0
M  V30 1622 H 150.02 -5.69873 2.19265 0
M  V30 1623 H 151.434 -4.2014 3.9007 0
M  V30 1624 H 149.831 -3.84523 4.60719 0
M  V30 1625 H 150.901 -2.50757 4.15029 0
M  V30 1626 N 152.244 -1.26651 -0.937939 0
M  V30 1627 C 153.174 -1.10993 -2.05433 0
M  V30 1628 C 154.155 -0.0142161 -1.70094 0
M  V30 1629 O 155.34 -0.186837 -1.93299 0
M  V30 1630 C 152.47 -0.745561 -3.39203 0
M  V30 1631 C 151.424 -1.79337 -3.88616 0
M  V30 1632 C 150.75 -1.28324 -5.19073 0
M  V30 1633 C 152.05 -3.19553 -4.13138 0
M  V30 1634 H 153.744 -2.0438 -2.1879 0
M  V30 1635 H 151.29 -0.984041 -1.05131 0
M  V30 1636 H 153.243 -0.622888 -4.16771 0
M  V30 1637 H 151.967 0.22401 -3.25831 0
M  V30 1638 H 150.626 -1.90477 -3.13231 0
M  V30 1639 H 150.274 -0.303414 -5.02084 0
M  V30 1640 H 149.974 -1.98369 -5.53103 0
M  V30 1641 H 151.498 -1.1733 -5.99221 0
M  V30 1642 H 152.912 -3.11471 -4.81309 0
M  V30 1643 H 151.309 -3.87218 -4.58457 0
M  V30 1644 H 152.379 -3.65368 -3.18801 0
M  V30 1645 N 153.722 1.14298 -1.08507 0
M  V30 1646 C 154.999 1.81544 -0.728088 0
M  V30 1647 C 155.379 1.95838 0.78808 0
M  V30 1648 O 154.727 1.51904 1.70697 0
M  V30 1649 C 154.937 3.17169 -1.45619 0
M  V30 1650 C 156.285 3.9265 -1.61591 0
M  V30 1651 O 157.309 3.26762 -1.41793 0
M  V30 1652 O 156.168 5.10807 -1.94263 0
M  V30 1653 H 153.262 0.78491 -0.260471 0
M  V30 1654 H 155.808 1.21307 -1.18671 0
M  V30 1655 H 154.58 3.01934 -2.489 0
M  V30 1656 H 154.203 3.851 -0.989124 0
M  V30 1657 N 155.201 0.870884 1.31352 0
M  V30 1658 C 156.148 0.325425 2.28494 0
M  V30 1659 C 157.118 -0.576615 1.5577 0
M  V30 1660 O 158.303 -0.508059 1.83911 0
M  V30 1661 C 155.443 -0.466283 3.41935 0
M  V30 1662 C 154.556 0.463378 4.29508 0
M  V30 1663 C 153.691 -0.342544 5.30094 0
M  V30 1664 C 152.73 0.583486 6.09313 0
M  V30 1665 N 151.867 -0.186244 7.01853 0
M  V30 1666 H 156.707 1.15901 2.74538 0
M  V30 1667 H 154.244 0.58294 1.35056 0
M  V30 1668 H 156.202 -0.941085 4.06447 0
M  V30 1669 H 154.832 -1.26456 2.97 0
M  V30 1670 H 153.884 1.05663 3.65431 0
M  V30 1671 H 155.196 1.1734 4.84802 0
M  V30 1672 H 154.35 -0.879816 6.00287 0
M  V30 1673 H 153.089 -1.08585 4.75458 0
M  V30 1674 H 152.094 1.13251 5.3801 0
M  V30 1675 H 153.319 1.32566 6.66035 0
M  V30 1676 H 151.265 -0.912348 6.49625 0
M  V30 1677 H 151.182 0.464422 7.54572 0
M  V30 1678 H 152.45 -0.704716 7.76308 0
M  V30 1679 N 156.679 -1.44442 0.630414 0
M  V30 1680 C 157.926 -2.02052 0.134617 0
M  V30 1681 C 158.254 -1.49576 -1.24327 0
M  V30 1682 O 157.509 -0.669806 -1.83881 0
M  V30 1683 C 157.808 -3.57332 0.0697835 0
M  V30 1684 C 157.474 -4.29058 1.38635 0
M  V30 1685 C 156.136 -4.4837 1.74694 0
M  V30 1686 C 158.488 -4.69872 2.25543 0
M  V30 1687 C 155.816 -5.05756 2.97369 0
M  V30 1688 C 158.168 -5.28616 3.47487 0
M  V30 1689 C 156.832 -5.46147 3.8377 0
M  V30 1690 H 156.102 -0.739361 0.0492598 0
M  V30 1691 H 158.749 -1.73217 0.816586 0
M  V30 1692 H 157.054 -3.85577 -0.695553 0
M  V30 1693 H 158.751 -3.99637 -0.330344 0
M  V30 1694 H 155.341 -4.14357 1.09574 0
M  V30 1695 H 159.525 -4.54666 1.98979 0
M  V30 1696 H 154.781 -5.17515 3.25558 0
M  V30 1697 H 158.955 -5.59192 4.15063 0
M  V30 1698 H 156.582 -5.9038 4.7891 0
M  V30 1699 N 158.157 -0.370918 -1.53173 0
M  V30 1700 C 159.387 0.217389 -2.05453 0
M  V30 1701 C 159.795 1.42568 -1.24382 0
M  V30 1702 O 159.138 1.81571 -0.278839 0
M  V30 1703 C 159.2 0.669827 -3.53205 0
M  V30 1704 C 158.864 -0.4225 -4.55043 0
M  V30 1705 C 159.861 -1.27407 -5.04047 0
M  V30 1706 C 157.546 -0.58427 -4.9889 0
M  V30 1707 C 159.54 -2.27271 -5.95505 0
M  V30 1708 C 157.227 -1.58627 -5.90153 0
M  V30 1709 C 158.225 -2.42892 -6.38351 0
M  V30 1710 O 157.913 -3.41382 -7.27814 0
M  V30 1711 H 157.645 0.0408171 -0.674767 0
M  V30 1712 H 160.199 -0.5292 -1.98466 0
M  V30 1713 H 158.429 1.4681 -3.57748 0
M  V30 1714 H 160.118 1.18173 -3.88317 0
M  V30 1715 H 160.884 -1.16031 -4.70916 0
M  V30 1716 H 156.763 0.061851 -4.60959 0
M  V30 1717 H 160.307 -2.93079 -6.33049 0
M  V30 1718 H 156.204 -1.70048 -6.22699 0
M  V30 1719 H 156.972 -3.37173 -7.45826 0
M  V30 1720 N 159.635 1.57281 -0.100228 0
M  V30 1721 C 160.863 1.98879 0.570509 0
M  V30 1722 C 161.278 0.979476 1.61405 0
M  V30 1723 O 160.635 -0.0302288 1.82475 0
M  V30 1724 C 160.686 3.4052 1.2136 0
M  V30 1725 O 160.407 4.37588 0.211786 0
M  V30 1726 C 161.908 3.97149 1.96945 0
M  V30 1727 H 159.128 0.653428 0.152555 0
M  V30 1728 H 161.672 2.03697 -0.18103 0
M  V30 1729 H 159.827 3.367 1.91603 0
M  V30 1730 H 160.241 5.20118 0.676607 0
M  V30 1731 H 161.715 4.98393 2.37294 0
M  V30 1732 H 162.192 3.3525 2.83733 0
M  V30 1733 H 162.798 4.04458 1.31506 0
M  V30 1734 N 161.113 -0.173488 1.56642 0
M  V30 1735 C 162.023 -1.23482 1.99473 0
M  V30 1736 C 163.039 -1.48567 0.905752 0
M  V30 1737 O 164.215 -1.60758 1.21321 0
M  V30 1738 C 161.28 -2.55444 2.34413 0
M  V30 1739 C 160.341 -2.38241 3.57127 0
M  V30 1740 C 159.574 -3.63909 3.90392 0
M  V30 1741 O 159.797 -4.68996 3.24653 0
M  V30 1742 O 158.731 -3.58149 4.83749 0
M  V30 1743 H 162.557 -0.901279 2.90018 0
M  V30 1744 H 160.142 -0.380185 1.44482 0
M  V30 1745 H 162.024 -3.33292 2.57865 0
M  V30 1746 H 160.699 -2.88382 1.4703 0
M  V30 1747 H 159.606 -1.58431 3.38896 0
M  V30 1748 H 160.939 -2.10228 4.45045 0
M  V30 1749 N 162.591 -1.51276 -0.441967 0
M  V30 1750 C 163.521 -1.752 -1.54361 0
M  V30 1751 C 164.502 -0.601682 -1.59103 0
M  V30 1752 O 165.687 -0.843913 -1.74905 0
M  V30 1753 C 162.817 -1.87282 -2.92477 0
M  V30 1754 C 161.771 -3.02687 -3.02596 0
M  V30 1755 C 161.097 -2.99947 -4.42647 0
M  V30 1756 C 162.397 -4.4273 -2.77106 0
M  V30 1757 H 164.091 -2.67442 -1.34592 0
M  V30 1758 H 161.637 -1.28694 -0.646048 0
M  V30 1759 H 163.59 -2.02602 -3.695 0
M  V30 1760 H 162.314 -0.916844 -3.13467 0
M  V30 1761 H 160.973 -2.87065 -2.28012 0
M  V30 1762 H 160.621 -2.02136 -4.60597 0
M  V30 1763 H 160.321 -3.77439 -4.50348 0
M  V30 1764 H 161.845 -3.17354 -5.2165 0
M  V30 1765 H 163.259 -4.58727 -3.43864 0
M  V30 1766 H 161.656 -5.21893 -2.96222 0
M  V30 1767 H 162.726 -4.53087 -1.72744 0
M  V30 1768 N 164.069 0.697108 -1.41344 0
M  V30 1769 C 165.299 1.48377 -1.43763 0
M  V30 1770 C 165.707 1.89156 -0.0408726 0
M  V30 1771 O 165.05 1.57239 0.949812 0
M  V30 1772 C 165.112 2.7781 -2.2817 0
M  V30 1773 C 164.776 2.59244 -3.76353 0
M  V30 1774 C 165.773 2.25292 -4.68551 0
M  V30 1775 C 163.458 2.74933 -4.20378 0
M  V30 1776 C 165.452 2.07264 -6.02761 0
M  V30 1777 C 163.139 2.56521 -5.54653 0
M  V30 1778 C 164.137 2.22737 -6.4566 0
M  V30 1779 O 163.825 2.04485 -7.77458 0
M  V30 1780 H 163.557 0.463842 -0.491759 0
M  V30 1781 H 166.111 0.865934 -1.86255 0
M  V30 1782 H 164.341 3.41995 -1.8049 0
M  V30 1783 H 166.03 3.39608 -2.22309 0
M  V30 1784 H 166.796 2.12787 -4.35829 0
M  V30 1785 H 162.675 3.00213 -3.49848 0
M  V30 1786 H 166.219 1.80817 -6.73759 0
M  V30 1787 H 162.116 2.68616 -5.86955 0
M  V30 1788 H 162.884 2.1926 -7.88586 0
M  V30 1789 N 165.547 1.27147 0.931209 0
M  V30 1790 C 166.479 1.05364 2.03546 0
M  V30 1791 C 167.492 0.0108438 1.62796 0
M  V30 1792 O 168.681 0.25202 1.76712 0
M  V30 1793 C 165.781 0.575566 3.33977 0
M  V30 1794 C 164.954 1.68985 4.03439 0
M  V30 1795 C 164.013 1.20813 5.12143 0
M  V30 1796 O 163.039 1.90712 5.363 0
M  V30 1797 N 164.241 0.0618851 5.80467 0
M  V30 1798 H 167.006 2.00454 2.22796 0
M  V30 1799 H 164.567 1.18666 1.10136 0
M  V30 1800 H 166.559 0.237264 4.04004 0
M  V30 1801 H 165.129 -0.282016 3.11325 0
M  V30 1802 H 164.349 2.19861 3.27192 0
M  V30 1803 H 165.637 2.4378 4.46597 0
M  V30 1804 H 165.035 -0.521621 5.6329 0
M  V30 1805 H 163.592 -0.217264 6.51438 0
M  V30 1806 N 167.025 -1.13721 1.09112 0
M  V30 1807 C 167.957 -2.1871 0.685467 0
M  V30 1808 C 168.97 -1.60527 -0.271068 0
M  V30 1809 O 170.159 -1.78407 -0.0576148 0
M  V30 1810 C 167.259 -3.38898 -0.0111255 0
M  V30 1811 C 166.432 -4.26597 0.966131 0
M  V30 1812 C 165.491 -5.25324 0.303539 0
M  V30 1813 O 164.517 -5.61213 0.950177 0
M  V30 1814 N 165.719 -5.72779 -0.943651 0
M  V30 1815 H 168.484 -2.54126 1.58871 0
M  V30 1816 H 166.045 -1.29012 0.978143 0
M  V30 1817 H 168.037 -4.02014 -0.465517 0
M  V30 1818 H 166.607 -3.01747 -0.816565 0
M  V30 1819 H 165.827 -3.60306 1.59917 0
M  V30 1820 H 167.115 -4.82048 1.6281 0
M  V30 1821 H 166.513 -5.45762 -1.48862 0
M  V30 1822 H 165.07 -6.37847 -1.34142 0
M  V30 1823 N 168.503 -0.877838 -1.30888 0
M  V30 1824 C 169.433 -0.35534 -2.3078 0
M  V30 1825 C 170.414 0.557994 -1.60687 0
M  V30 1826 O 171.599 0.473355 -1.88343 0
M  V30 1827 C 168.729 0.437221 -3.44537 0
M  V30 1828 C 167.683 -0.383715 -4.26276 0
M  V30 1829 C 167.009 0.535014 -5.32017 0
M  V30 1830 C 168.309 -1.62201 -4.96476 0
M  V30 1831 H 170.003 -1.19007 -2.74732 0
M  V30 1832 H 167.549 -0.573698 -1.32078 0
M  V30 1833 H 169.502 0.813334 -4.13477 0
M  V30 1834 H 168.226 1.30553 -2.99372 0
M  V30 1835 H 166.885 -0.741874 -3.59015 0
M  V30 1836 H 166.533 1.40083 -4.831 0
M  V30 1837 H 166.233 -0.0104211 -5.87599 0
M  V30 1838 H 167.757 0.907799 -6.03814 0
M  V30 1839 H 169.171 -1.31689 -5.5797 0
M  V30 1840 H 167.568 -2.10711 -5.61891 0
M  V30 1841 H 168.638 -2.37044 -4.23011 0
M  V30 1842 N 169.982 1.44106 -0.638065 0
M  V30 1843 C 170.93 2.3248 0.0748149 0
M  V30 1844 C 171.924 1.47746 0.828702 0
M  V30 1845 O 173.13 1.64049 0.740816 0
M  V30 1846 H 169.505 0.750771 0.0429686 0
M  V30 1847 H 171.476 2.90348 -0.688504 0
M  V30 1848 C 170.225 3.31843 1.03805 0
M  V30 1849 H 169.548 3.97059 0.467375 0
M  V30 1850 H 170.988 3.96345 1.50622 0
M  V30 1851 C 169.447 2.61291 2.1267 0
M  V30 1852 O 169.977 2.41702 3.20847 0
M  V30 1853 N 168.183 2.20915 1.88798 0
M  V30 1854 H 167.73 2.37047 1.00829 0
M  V30 1855 H 167.688 1.74038 2.61836 0
M  V30 1856 N 171.46 0.379036 1.52974 0
M  V30 1857 C 172.737 -0.263479 1.93817 0
M  V30 1858 C 173.117 -1.65244 1.31368 0
M  V30 1859 O 172.465 -2.23448 0.477856 0
M  V30 1860 C 172.675 -0.300166 3.47707 0
M  V30 1861 C 174.023 -0.534061 4.21228 0
M  V30 1862 O 175.047 -0.38081 3.54159 0
M  V30 1863 O 173.906 -0.833501 5.40106 0
M  V30 1864 H 171 -0.161149 0.811147 0
M  V30 1865 H 173.546 0.432798 1.64088 0
M  V30 1866 H 172.318 0.673138 3.85467 0
M  V30 1867 H 171.941 -1.04179 3.83709 0
M  V30 1868 N 172.938 -1.57226 0.108567 0
M  V30 1869 C 173.868 -2.17778 -0.84232 0
M  V30 1870 C 174.849 -1.11487 -1.2847 0
M  V30 1871 O 176.034 -1.39681 -1.34918 0
M  V30 1872 C 173.164 -2.76888 -2.09644 0
M  V30 1873 C 172.118 -3.88669 -1.79221 0
M  V30 1874 C 171.444 -4.34541 -3.11574 0
M  V30 1875 C 172.744 -5.11251 -1.06864 0
M  V30 1876 H 174.438 -2.97489 -0.337774 0
M  V30 1877 H 171.984 -1.43097 -0.161025 0
M  V30 1878 H 173.937 -3.17904 -2.76614 0
M  V30 1879 H 172.661 -1.94451 -2.62405 0
M  V30 1880 H 171.32 -3.48213 -1.14644 0
M  V30 1881 H 170.968 -3.48977 -3.62249 0
M  V30 1882 H 170.668 -5.09914 -2.91996 0
M  V30 1883 H 172.192 -4.782 -3.7968 0
M  V30 1884 H 173.606 -5.49352 -1.63968 0
M  V30 1885 H 172.003 -5.9214 -0.974178 0
M  V30 1886 H 173.073 -4.8487 -0.0536168 0
M  V30 1887 N 174.416 0.165178 -1.56732 0
M  V30 1888 C 175.326 1.22423 -2.00125 0
M  V30 1889 C 176.342 1.48084 -0.913619 0
M  V30 1890 O 177.518 1.60112 -1.22172 0
M  V30 1891 C 174.583 2.54197 -2.35764 0
M  V30 1892 C 173.644 2.36343 -3.58386 0
M  V30 1893 C 172.877 3.61834 -3.92316 0
M  V30 1894 O 173.1 4.67267 -3.27135 0
M  V30 1895 O 172.034 3.55579 -4.85641 0
M  V30 1896 H 175.86 0.885886 -2.90492 0
M  V30 1897 H 173.445 0.372518 -1.44681 0
M  V30 1898 H 175.327 3.3192 -2.59629 0
M  V30 1899 H 174.002 2.87598 -1.48557 0
M  V30 1900 H 172.909 1.56632 -3.39731 0
M  V30 1901 H 174.242 2.07865 -4.46154 0
M  V30 1902 N 175.894 1.51508 0.433938 0
M  V30 1903 C 176.857 1.72473 1.50949 0
M  V30 1904 C 177.857 0.594725 1.49398 0
M  V30 1905 O 179.047 0.862315 1.5136 0
M  V30 1906 C 176.179 1.78431 2.90474 0
M  V30 1907 H 177.372 2.68467 1.33662 0
M  V30 1908 H 174.925 1.41549 0.662836 0
M  V30 1909 H 175.66 0.842645 3.13161 0
M  V30 1910 H 175.445 2.60558 2.93005 0
M  V30 1911 H 176.935 1.96479 3.68491 0
M  V30 1912 N 177.372 -0.689602 1.41712 0
M  V30 1913 C 178.612 -1.46184 1.42862 0
M  V30 1914 C 178.976 -1.91962 0.0382204 0
M  V30 1915 O 180.177 -2.68694 -0.0755019 0
M  V30 1916 C 178.448 -2.6371 2.4123 0
M  V30 1917 S 180.007 -3.52768 2.6096 0
M  V30 1918 H 176.825 -0.49947 0.506015 0
M  V30 1919 H 179.427 -0.804107 1.78198 0
M  V30 1920 H 178.131 -2.28293 3.41044 0
M  V30 1921 H 177.662 -3.3437 2.07269 0
M  V30 1922 H 179.677 -4.59146 1.88148 0
M  V30 1923 N 178.85 -1.27639 -0.924453 0
M  V30 1924 C 180.096 -1.14336 -1.67497 0
M  V30 1925 C 180.429 0.309465 -1.91718 0
M  V30 1926 O 179.704 1.22608 -1.50989 0
M  V30 1927 C 179.987 -1.93096 -3.0395 0
M  V30 1928 C 179.84 -3.46381 -2.8695 0
M  V30 1929 C 181.159 -1.73798 -4.0433 0
M  V30 1930 H 178.278 -0.416728 -0.607871 0
M  V30 1931 H 180.92 -1.56832 -1.07256 0
M  V30 1932 H 179.07 -1.56982 -3.55372 0
M  V30 1933 H 180.742 -3.92343 -2.42621 0
M  V30 1934 H 178.985 -3.72557 -2.22225 0
M  V30 1935 H 179.656 -3.96735 -3.83804 0
M  V30 1936 H 182.132 -2.05293 -3.61931 0
M  V30 1937 H 181.008 -2.31294 -4.97789 0
M  V30 1938 H 181.269 -0.686725 -4.36734 0
M  V30 1939 N 180.328 1.1314 -1.09713 0
M  V30 1940 C 181.577 1.83838 -0.829851 0
M  V30 1941 C 181.89 1.84599 0.646728 0
M  V30 1942 O 183.096 2.51218 1.02965 0
M  V30 1943 C 181.552 3.30069 -1.43466 0
M  V30 1944 C 181.16 3.37688 -2.94399 0
M  V30 1945 C 182.904 4.05788 -1.24645 0
M  V30 1946 C 180.811 4.78209 -3.47952 0
M  V30 1947 H 179.741 0.68877 -0.306777 0
M  V30 1948 H 182.392 1.27448 -1.3202 0
M  V30 1949 H 180.774 3.8628 -0.871996 0
M  V30 1950 H 181.948 2.91456 -3.56918 0
M  V30 1951 H 180.263 2.75436 -3.12289 0
M  V30 1952 H 182.86 5.09535 -1.62107 0
M  V30 1953 H 183.203 4.15878 -0.187357 0
M  V30 1954 H 183.736 3.55915 -1.77678 0
M  V30 1955 H 180.475 4.73311 -4.53495 0
M  V30 1956 H 179.995 5.24924 -2.90198 0
M  V30 1957 H 181.674 5.47133 -3.45332 0
M  V30 1958 N 181.806 0.884767 1.30421 0
M  V30 1959 C 182.738 0.308655 2.27112 0
M  V30 1960 C 183.751 -0.536655 1.53701 0
M  V30 1961 O 184.94 -0.35624 1.74909 0
M  V30 1962 C 182.04 -0.579782 3.33904 0
M  V30 1963 C 181.213 0.236417 4.36761 0
M  V30 1964 C 180.272 -0.582482 5.22966 0
M  V30 1965 O 179.298 -0.00525502 5.692 0
M  V30 1966 N 180.5 -1.89163 5.48815 0
M  V30 1967 H 183.265 1.13964 2.77186 0
M  V30 1968 H 180.826 0.747731 1.43599 0
M  V30 1969 H 182.818 -1.13366 3.88497 0
M  V30 1970 H 181.388 -1.31144 2.83761 0
M  V30 1971 H 180.608 0.97174 3.82035 0
M  V30 1972 H 181.896 0.795924 5.02536 0
M  V30 1973 H 181.294 -2.38352 5.13035 0
M  V30 1974 H 179.851 -2.39296 6.06284 0
M  V30 1975 N 183.284 -1.43765 0.645699 0
M  V30 1976 C 184.532 -2.01499 0.155731 0
M  V30 1977 C 184.853 -1.51151 -1.232 0
M  V30 1978 O 184.123 -0.721044 -1.82148 0
M  V30 1979 H 182.703 -0.745003 0.0545817 0
M  V30 1980 H 185.365 -1.76075 0.835677 0
M  V30 1981 H 184.461 -3.1181 0.134577 0
M  V30 1982 N 184.763 -0.387143 -1.52771 0
M  V30 1983 C 186.009 0.196025 -2.0185 0
M  V30 1984 C 186.342 1.46641 -1.27319 0
M  V30 1985 O 185.617 1.90889 -0.373032 0
M  V30 1986 C 185.9 0.466136 -3.5707 0
M  V30 1987 C 185.753 -0.819385 -4.42274 0
M  V30 1988 C 187.072 1.25768 -4.21747 0
M  V30 1989 H 184.191 0.0697708 -0.73369 0
M  V30 1990 H 186.833 -0.516286 -1.82851 0
M  V30 1991 H 184.983 1.07293 -3.7339 0
M  V30 1992 H 186.655 -1.4563 -4.37709 0
M  V30 1993 H 184.898 -1.43517 -4.09372 0
M  V30 1994 H 185.569 -0.585065 -5.48891 0
M  V30 1995 H 188.045 0.744167 -4.09391 0
M  V30 1996 H 186.921 1.41541 -5.30337 0
M  V30 1997 H 187.182 2.27228 -3.79236 0
M  V30 1998 N 186.241 1.57166 -0.116904 0
M  V30 1999 C 187.489 1.94737 0.540533 0
M  V30 2000 C 187.81 1.00096 1.67349 0
M  V30 2001 O 187.08 0.0568854 1.95817 0
M  V30 2002 H 185.66 0.718981 0.202669 0
M  V30 2003 H 188.322 1.94017 -0.185353 0
M  V30 2004 H 187.418 2.97719 0.936483 0
M  V30 2005 N 187.719 -0.156864 1.56817 0
M  V30 2006 C 188.965 -0.872416 1.83076 0
M  V30 2007 C 189.298 -1.81261 0.697001 0
M  V30 2008 O 188.573 -1.92171 -0.30008 0
M  V30 2009 C 188.856 -1.65551 3.19789 0
M  V30 2010 C 188.709 -0.737467 4.43713 0
M  V30 2011 C 190.028 -2.62012 3.53606 0
M  V30 2012 H 187.147 -0.315715 0.665953 0
M  V30 2013 H 189.789 -0.138004 1.89498 0
M  V30 2014 H 187.939 -2.28159 3.14445 0
M  V30 2015 H 189.611 -0.123143 4.61136 0
M  V30 2016 H 187.854 -0.0464067 4.33775 0
M  V30 2017 H 188.525 -1.32122 5.35955 0
M  V30 2018 H 191.001 -2.09525 3.59497 0
M  V30 2019 H 189.877 -3.13861 4.50314 0
M  V30 2020 H 190.138 -3.42902 2.79053 0
M  V30 2021 N 189.197 -1.51736 -0.425897 0
M  V30 2022 C 190.425 -1.68794 -1.1965 0
M  V30 2023 C 190.84 -0.390164 -1.84725 0
M  V30 2024 O 190.197 0.632376 -1.71194 0
M  V30 2025 C 190.248 -2.81174 -2.27208 0
M  V30 2026 O 189.969 -4.05925 -1.64793 0
M  V30 2027 C 191.47 -3.09599 -3.17275 0
M  V30 2028 H 188.69 -0.566128 -0.360194 0
M  V30 2029 H 191.234 -1.98211 -0.503249 0
M  V30 2030 H 189.389 -2.54324 -2.9223 0
M  V30 2031 H 189.803 -4.68423 -2.35967 0
M  V30 2032 H 191.277 -3.91786 -3.88854 0
M  V30 2033 H 191.754 -2.22468 -3.78688 0
M  V30 2034 H 192.36 -3.38151 -2.57941 0
M  V30 2035 N 190.675 0.682077 -1.42076 0
M  V30 2036 C 191.585 1.82535 -1.47371 0
M  V30 2037 C 192.601 1.7017 -0.363079 0
M  V30 2038 O 193.777 1.91848 -0.612875 0
M  V30 2039 C 190.842 3.18624 -1.36674 0
M  V30 2040 C 189.903 3.42999 -2.58167 0
M  V30 2041 C 189.136 4.72595 -2.4797 0
M  V30 2042 O 189.359 5.50006 -1.5116 0
M  V30 2043 O 188.293 4.98054 -3.37974 0
M  V30 2044 H 192.119 1.81023 -2.43853 0
M  V30 2045 H 189.704 0.836887 -1.2376 0
M  V30 2046 H 191.586 3.99847 -1.33043 0
M  V30 2047 H 190.261 3.20789 -0.433138 0
M  V30 2048 H 189.168 2.61653 -2.67373 0
M  V30 2049 H 190.501 3.45659 -3.50401 0
M  V30 2050 N 192.153 1.28127 0.917671 0
M  V30 2051 C 193.381 1.17892 1.70026 0
M  V30 2052 C 193.796 -0.262958 1.8696 0
M  V30 2053 O 193.153 -1.17811 1.3938 0
M  V30 2054 C 193.204 1.86872 3.09453 0
M  V30 2055 O 192.925 3.25428 2.93306 0
M  V30 2056 C 194.426 1.8289 4.03815 0
M  V30 2057 H 191.646 0.40942 0.531617 0
M  V30 2058 H 194.19 1.69181 1.14883 0
M  V30 2059 H 192.345 1.39464 3.61426 0
M  V30 2060 H 192.759 3.59918 3.81523 0
M  V30 2061 H 194.233 2.35751 4.99125 0
M  V30 2062 H 194.71 0.800412 4.31845 0
M  V30 2063 H 195.316 2.29959 3.57769 0
M  V30 2064 N 193.631 -1.12557 1.10312 0
M  V30 2065 C 195.042 -1.65574 0.862678 0
M  V30 2066 C 195.393 -1.86566 -0.607256 0
M  V30 2067 O 194.518 -1.59121 -1.46662 0
M  V30 2068 C 195.113 -3.00776 1.55947 0
M  V30 2069 C 193.672 -3.50748 1.36576 0
M  V30 2070 C 192.819 -2.25797 1.60968 0
M  V30 2071 H 195.77 -0.963552 1.26101 0
M  V30 2072 H 195.791 -3.67185 0.997753 0
M  V30 2073 H 195.303 -2.85465 2.62928 0
M  V30 2074 H 193.404 -3.71245 0.317531 0
M  V30 2075 H 193.517 -4.30289 2.10686 0
M  V30 2076 H 191.881 -2.32841 1.03234 0
M  V30 2077 H 192.664 -2.13043 2.69198 0
M  V30 2078 N 195.109 -0.891671 -1.2995 0
M  V30 2079 C 196.039 -0.379797 -2.30391 0
M  V30 2080 C 197.02 0.540919 -1.6127 0
M  V30 2081 O 198.205 0.453352 -1.88834 0
M  V30 2082 C 195.335 0.400654 -3.44981 0
M  V30 2083 C 194.289 -0.428905 -4.25846 0
M  V30 2084 C 193.615 0.478557 -5.32554 0
M  V30 2085 C 194.915 -1.67458 -4.94727 0
M  V30 2086 H 196.609 -1.21914 -2.73454 0
M  V30 2087 H 194.155 -0.587675 -1.31462 0
M  V30 2088 H 196.108 0.769434 -4.14316 0
M  V30 2089 H 194.832 1.27371 -3.0074 0
M  V30 2090 H 193.491 -0.779911 -3.58208 0
M  V30 2091 H 193.139 1.34951 -4.84559 0
M  V30 2092 H 192.839 -0.0727433 -5.87555 0
M  V30 2093 H 194.363 0.843705 -6.04743 0
M  V30 2094 H 195.777 -1.376 -5.56542 0
M  V30 2095 H 194.174 -2.16659 -5.59624 0
M  V30 2096 H 195.244 -2.41518 -4.20473 0
M  V30 2097 N 196.587 1.43421 -0.653314 0
M  V30 2098 C 197.52 2.2803 0.0879804 0
M  V30 2099 C 198.498 1.39833 0.82979 0
M  V30 2100 O 199.682 1.69275 0.829341 0
M  V30 2101 C 196.809 3.19247 1.13132 0
M  V30 2102 C 195.855 4.23704 0.487546 0
M  V30 2103 S 196.688 5.30377 -0.738961 0
M  V30 2104 C 197.844 6.25162 0.30384 0
M  V30 2105 H 198.077 2.90554 -0.629739 0
M  V30 2106 H 195.61 1.47934 -0.442156 0
M  V30 2107 H 197.568 3.72346 1.72827 0
M  V30 2108 H 196.229 2.55901 1.82136 0
M  V30 2109 H 195.422 4.87631 1.27407 0
M  V30 2110 H 195.024 3.73983 -0.0352915 0
M  V30 2111 H 197.316 6.67321 1.17 0
M  V30 2112 H 198.259 7.07463 -0.300402 0
M  V30 2113 H 198.667 5.60864 0.63969 0
M  V30 2114 N 198.065 0.39524 1.52563 0
M  V30 2115 C 199.012 -0.437036 2.26624 0
M  V30 2116 C 199.982 -1.05281 1.28472 0
M  V30 2117 O 201.167 -1.07971 1.57311 0
M  V30 2118 C 198.307 -1.55524 3.08069 0
M  V30 2119 C 197.42 -0.961745 4.21158 0
M  V30 2120 C 196.555 -2.05149 4.89987 0
M  V30 2121 C 195.594 -1.4342 5.95061 0
M  V30 2122 N 194.731 -2.46351 6.57462 0
M  V30 2123 H 199.571 0.200976 2.97322 0
M  V30 2124 H 197.108 0.110944 1.46681 0
M  V30 2125 H 199.066 -2.21437 3.53584 0
M  V30 2126 H 197.696 -2.16348 2.3957 0
M  V30 2127 H 196.748 -0.192048 3.79915 0
M  V30 2128 H 198.06 -0.470701 4.96574 0
M  V30 2129 H 197.214 -2.78819 5.38837 0
M  V30 2130 H 195.953 -2.57615 4.14109 0
M  V30 2131 H 194.958 -0.682774 5.45544 0
M  V30 2132 H 196.183 -0.917416 6.72875 0
M  V30 2133 H 194.129 -2.97975 5.8442 0
M  V30 2134 H 194.046 -2.02019 7.28508 0
M  V30 2135 H 195.314 -3.19633 7.10954 0
M  V30 2136 N 199.544 -1.57102 0.125237 0
M  V30 2137 C 200.454 -2.19191 -0.8362 0
M  V30 2138 C 201.47 -1.16985 -1.28805 0
M  V30 2139 O 202.646 -1.49479 -1.34974 0
M  V30 2140 C 199.711 -2.78407 -2.06617 0
M  V30 2141 C 198.772 -3.9567 -1.66565 0
M  V30 2142 C 198.005 -4.52052 -2.83698 0
M  V30 2143 O 198.228 -4.07326 -3.99302 0
M  V30 2144 O 197.162 -5.42645 -2.60423 0
M  V30 2145 H 200.988 -3.01816 -0.337776 0
M  V30 2146 H 198.573 -1.4906 -0.100695 0
M  V30 2147 H 200.455 -3.16129 -2.7864 0
M  V30 2148 H 199.13 -1.9881 -2.55453 0
M  V30 2149 H 198.037 -3.62705 -0.916296 0
M  V30 2150 H 199.37 -4.76722 -1.22464 0
M  V30 2151 N 201.022 0.148545 -1.56898 0
M  V30 2152 C 202.299 0.890019 -1.74178 0
M  V30 2153 C 202.679 1.99407 -0.692839 0
M  V30 2154 O 202.027 2.26671 0.288505 0
M  V30 2155 C 202.237 1.43389 -3.18183 0
M  V30 2156 C 203.585 1.89791 -3.79822 0
M  V30 2157 O 204.609 1.53134 -3.21603 0
M  V30 2158 O 203.468 2.57387 -4.82093 0
M  V30 2159 H 200.562 0.420496 -0.712118 0
M  V30 2160 H 203.108 0.134591 -1.69165 0
M  V30 2161 H 201.88 0.640383 -3.86024 0
M  V30 2162 H 201.503 2.25287 -3.27615 0
M  V30 2163 N 202.5 1.5196 0.417844 0
M  V30 2164 C 203.725 1.69717 1.1921 0
M  V30 2165 C 204.15 0.402148 1.83751 0
M  V30 2166 O 203.508 -0.639593 1.69643 0
M  V30 2167 C 203.556 2.82794 2.2374 0
M  V30 2168 O 202.66 2.47756 3.29683 0
M  V30 2169 H 202.001 0.565263 0.348387 0
M  V30 2170 H 204.531 1.98621 0.490985 0
M  V30 2171 H 204.541 3.07452 2.68212 0
M  V30 2172 H 203.216 3.76756 1.76146 0
M  V30 2173 H 201.793 2.33739 2.90552 0
M  V30 2174 N 203.978 -0.674533 1.42435 0
M  V30 2175 C 205.227 -1.43034 1.42212 0
M  V30 2176 C 205.54 -1.95555 0.0420788 0
M  V30 2177 O 206.746 -2.71374 -0.0827558 0
M  V30 2178 C 205.202 -2.58748 2.50155 0
M  V30 2179 C 204.81 -2.12925 3.94166 0
M  V30 2180 C 206.554 -3.36257 2.59098 0
M  V30 2181 C 204.461 -3.25723 4.93618 0
M  V30 2182 H 203.391 -0.537345 0.528939 0
M  V30 2183 H 206.042 -0.73024 1.68344 0
M  V30 2184 H 204.424 -3.31128 2.17188 0
M  V30 2185 H 205.598 -1.47697 4.36488 0
M  V30 2186 H 203.913 -1.48354 3.89076 0
M  V30 2187 H 206.51 -4.20264 3.30578 0
M  V30 2188 H 206.853 -3.82866 1.63461 0
M  V30 2189 H 207.386 -2.70947 2.9126 0
M  V30 2190 H 204.125 -2.84105 5.90732 0
M  V30 2191 H 203.645 -3.89732 4.55926 0
M  V30 2192 H 205.324 -3.91186 5.15347 0
M  V30 2193 N 205.456 -1.28612 -0.910864 0
M  V30 2194 C 206.386 -1.15326 -2.03032 0
M  V30 2195 C 207.367 -0.0502924 -1.70026 0
M  V30 2196 O 208.552 -0.227797 -1.92859 0
M  V30 2197 C 205.682 -0.817343 -3.37545 0
M  V30 2198 C 204.636 -1.8754 -3.84724 0
M  V30 2199 C 203.962 -1.39305 -5.16235 0
M  V30 2200 C 205.262 -3.28244 -4.06267 0
M  V30 2201 H 206.956 -2.08975 -2.14406 0
M  V30 2202 H 204.502 -1.00612 -1.03021 0
M  V30 2203 H 206.455 -0.711151 -4.15356 0
M  V30 2204 H 205.179 0.154846 -3.26233 0
M  V30 2205 H 203.838 -1.97079 -3.09121 0
M  V30 2206 H 203.486 -0.409846 -5.01328 0
M  V30 2207 H 203.186 -2.10057 -5.48771 0
M  V30 2208 H 204.71 -1.30014 -5.96598 0
M  V30 2209 H 206.124 -3.21611 -4.74594 0
M  V30 2210 H 204.521 -3.96855 -4.5014 0
M  V30 2211 H 205.591 -3.72048 -3.10979 0
M  V30 2212 N 206.934 1.1197 -1.10907 0
M  V30 2213 C 207.897 2.16031 -0.765707 0
M  V30 2214 C 208.897 1.59393 0.212235 0
M  V30 2215 O 210.087 1.74196 -0.0115441 0
M  V30 2216 C 207.219 3.40632 -0.135053 0
M  V30 2217 H 208.412 2.47919 -1.68748 0
M  V30 2218 H 205.965 1.27061 -0.910226 0
M  V30 2219 H 206.7 3.14348 0.797218 0
M  V30 2220 H 206.485 3.8302 -0.838937 0
M  V30 2221 H 207.975 4.17505 0.0892469 0
M  V30 2222 N 208.412 0.89855 1.29475 0
M  V30 2223 C 209.658 0.524658 1.95896 0
M  V30 2224 C 209.991 -0.926468 1.70676 0
M  V30 2225 O 209.266 -1.65665 1.01908 0
M  V30 2226 C 209.549 0.81633 3.50725 0
M  V30 2227 C 209.402 2.31907 3.85408 0
M  V30 2228 C 210.721 0.302038 4.39062 0
M  V30 2229 H 207.84 0.19209 0.711527 0
M  V30 2230 H 210.482 1.12502 1.53112 0
M  V30 2231 H 208.632 0.305369 3.87298 0
M  V30 2232 H 210.304 2.89949 3.58786 0
M  V30 2233 H 208.547 2.78027 3.32992 0
M  V30 2234 H 209.218 2.47373 4.93468 0
M  V30 2235 H 211.694 0.739551 4.09475 0
M  V30 2236 H 210.57 0.535331 5.46283 0
M  V30 2237 H 210.831 -0.797216 4.34853 0
M  V30 2238 N 209.89 -1.43072 0.660911 0
M  V30 2239 C 211.306 -1.56169 0.329173 0
M  V30 2240 C 211.506 -1.64317 -1.16629 0
M  V30 2241 O 210.562 -1.60245 -1.95135 0
M  V30 2242 C 211.875 -2.81873 1.04729 0
M  V30 2243 C 213.423 -2.95627 1.02828 0
M  V30 2244 C 213.898 -4.24174 1.72744 0
M  V30 2245 N 215.389 -4.31055 1.69545 0
M  V30 2246 C 216.124 -5.29304 2.20511 0
M  V30 2247 N 215.62 -6.33786 2.79799 0
M  V30 2248 N 217.413 -5.21008 2.10966 0
M  V30 2249 H 209.564 -1.36027 1.63127 0
M  V30 2250 H 211.827 -0.653823 0.686454 0
M  V30 2251 H 211.533 -2.81942 2.10242 0
M  V30 2252 H 211.407 -3.72338 0.603702 0
M  V30 2253 H 213.794 -2.95094 -0.0184742 0
M  V30 2254 H 213.875 -2.06431 1.51063 0
M  V30 2255 H 213.519 -4.25467 2.7738 0
M  V30 2256 H 213.449 -5.1228 1.2197 0
M  V30 2257 H 215.94 -3.56174 1.26288 0
M  V30 2258 H 216.253 -7.05086 3.16344 0
M  V30 2259 H 214.598 -6.34387 2.83863 0
M  V30 2260 H 217.789 -4.38301 1.64347 0
M  V30 2261 H 217.962 -5.97416 2.50993 0
M  V30 2262 N 211.368 -0.403325 -1.52352 0
M  V30 2263 C 212.315 0.425011 -2.26853 0
M  V30 2264 C 213.285 1.04598 -1.29029 0
M  V30 2265 O 214.47 1.07135 -1.57882 0
M  V30 2266 C 211.61 1.53888 -3.08889 0
M  V30 2267 C 210.723 0.939396 -4.21663 0
M  V30 2268 C 209.858 2.02547 -4.91068 0
M  V30 2269 C 208.897 1.40263 -5.95813 0
M  V30 2270 N 208.034 2.4286 -6.58759 0
M  V30 2271 H 212.874 -0.21674 -2.97211 0
M  V30 2272 H 210.411 -0.118722 -1.4662 0
M  V30 2273 H 212.369 2.19558 -3.54753 0
M  V30 2274 H 210.999 2.15074 -2.40714 0
M  V30 2275 H 210.051 0.171898 -3.80011 0
M  V30 2276 H 211.363 0.44436 -4.96817 0
M  V30 2277 H 210.517 2.75958 -5.40308 0
M  V30 2278 H 209.256 2.55415 -4.15469 0
M  V30 2279 H 208.261 0.653833 -5.45898 0
M  V30 2280 H 209.486 0.881719 -6.73352 0
M  V30 2281 H 207.432 2.94871 -5.85992 0
M  V30 2282 H 207.349 1.98152 -7.2957 0
M  V30 2283 H 208.617 3.15858 -7.12639 0
M  V30 2284 N 212.846 1.57033 -0.133567 0
M  V30 2285 C 214.076 1.99754 0.527429 0
M  V30 2286 C 214.484 1.01245 1.59832 0
M  V30 2287 O 213.827 -0.000645496 1.837 0
M  V30 2288 C 213.889 3.38903 1.19939 0
M  V30 2289 C 213.553 4.56174 0.274709 0
M  V30 2290 C 214.55 5.17563 -0.492398 0
M  V30 2291 C 212.235 5.01972 0.18153 0
M  V30 2292 C 214.229 6.2315 -1.34027 0
M  V30 2293 C 211.916 6.07416 -0.669958 0
M  V30 2294 C 212.914 6.67874 -1.42947 0
M  V30 2295 O 212.602 7.71279 -2.2668 0
M  V30 2296 H 212.334 0.660702 0.142999 0
M  V30 2297 H 214.888 2.04207 -0.221099 0
M  V30 2298 H 213.118 3.31248 1.99528 0
M  V30 2299 H 214.807 3.65818 1.75875 0
M  V30 2300 H 215.573 4.83087 -0.430367 0
M  V30 2301 H 211.452 4.54652 0.762422 0
M  V30 2302 H 214.996 6.70268 -1.93357 0
M  V30 2303 H 210.893 6.41321 -0.73333 0
M  V30 2304 H 211.661 7.88441 -2.1978 0
M  V30 2305 N 214.325 -0.140222 1.56975 0
M  V30 2306 C 215.572 -0.851687 1.83719 0
M  V30 2307 C 215.9 -1.80862 0.715485 0
M  V30 2308 O 215.155 -1.93464 -0.294956 0
M  V30 2309 C 215.454 -1.65386 3.16832 0
M  V30 2310 C 215.12 -0.843112 4.42947 0
M  V30 2311 C 213.782 -0.619464 4.77196 0
M  V30 2312 C 216.134 -0.276582 5.20466 0
M  V30 2313 C 213.462 0.181312 5.8642 0
M  V30 2314 C 215.814 0.51127 6.30531 0
M  V30 2315 C 214.478 0.745432 6.63325 0
M  V30 2316 H 213.748 -0.311654 0.672274 0
M  V30 2317 H 216.395 -0.115006 1.91154 0
M  V30 2318 H 214.7 -2.46084 3.04877 0
M  V30 2319 H 216.397 -2.20793 3.34741 0
M  V30 2320 H 212.987 -1.0275 4.16101 0
M  V30 2321 H 217.171 -0.436632 4.94376 0
M  V30 2322 H 212.427 0.372165 6.10266 0
M  V30 2323 H 216.601 0.957354 6.89788 0
M  V30 2324 H 214.228 1.36778 7.47794 0
M  V30 2325 N 215.803 -1.52179 -0.40978 0
M  V30 2326 C 216.735 -1.71703 -1.51825 0
M  V30 2327 C 217.748 -0.597445 -1.51441 0
M  V30 2328 O 218.937 -0.872582 -1.55719 0
M  V30 2329 C 216.037 -1.74171 -2.90719 0
M  V30 2330 C 215.21 -3.03156 -3.15302 0
M  V30 2331 C 214.269 -2.97445 -4.34065 0
M  V30 2332 O 213.295 -3.71352 -4.31377 0
M  V30 2333 N 214.497 -2.15191 -5.39141 0
M  V30 2334 H 217.262 -2.67334 -1.35472 0
M  V30 2335 H 214.823 -1.50409 -0.599069 0
M  V30 2336 H 216.815 -1.67884 -3.68235 0
M  V30 2337 H 215.385 -0.860166 -3.00533 0
M  V30 2338 H 214.605 -3.23097 -2.25836 0
M  V30 2339 H 215.893 -3.88484 -3.28569 0
M  V30 2340 H 215.291 -1.54573 -5.44173 0
M  V30 2341 H 213.848 -2.1476 -6.15403 0
M  V30 2342 N 217.281 0.66697 -1.42791 0
M  V30 2343 C 218.697 0.981027 -1.25889 0
M  V30 2344 C 218.897 2.00793 -0.168695 0
M  V30 2345 O 217.953 2.48321 0.45747 0
M  V30 2346 C 219.266 1.47838 -2.61848 0
M  V30 2347 C 220.814 1.59575 -2.69267 0
M  V30 2348 C 221.289 2.12704 -4.05612 0
M  V30 2349 N 222.78 2.20026 -4.07606 0
M  V30 2350 C 223.515 2.62227 -5.09926 0
M  V30 2351 N 223.011 3.03824 -6.22626 0
M  V30 2352 N 224.804 2.62045 -4.97281 0
M  V30 2353 H 216.955 -0.0127891 -2.12396 0
M  V30 2354 H 219.218 0.0568258 -0.946295 0
M  V30 2355 H 218.924 0.798299 -3.4252 0
M  V30 2356 H 218.798 2.45579 -2.86305 0
M  V30 2357 H 221.185 2.26687 -1.88936 0
M  V30 2358 H 221.266 0.60302 -2.48591 0
M  V30 2359 H 220.91 1.46198 -4.86404 0
M  V30 2360 H 220.84 3.12782 -4.23645 0
M  V30 2361 H 223.331 1.90708 -3.2625 0
M  V30 2362 H 223.644 3.34734 -6.96544 0
M  V30 2363 H 221.989 3.01662 -6.26119 0
M  V30 2364 H 225.18 2.28916 -4.08308 0
M  V30 2365 H 225.353 2.94613 -5.77154 0
M  V30 2366 N 218.759 1.29093 0.90403 0
M  V30 2367 C 220.008 1.16187 1.64874 0
M  V30 2368 C 220.321 -0.286742 1.93487 0
M  V30 2369 O 221.527 -0.537062 2.66135 0
M  V30 2370 C 219.983 2.03177 2.97064 0
M  V30 2371 C 219.591 3.52836 2.76062 0
M  V30 2372 C 221.335 1.98984 3.74974 0
M  V30 2373 C 219.242 4.31945 4.03952 0
M  V30 2374 H 218.172 0.431246 0.618501 0
M  V30 2375 H 220.823 1.53699 1.00243 0
M  V30 2376 H 219.205 1.5853 3.62883 0
M  V30 2377 H 220.379 4.05507 2.18863 0
M  V30 2378 H 218.694 3.58656 2.11553 0
M  V30 2379 H 221.291 2.55351 4.69787 0
M  V30 2380 H 221.634 0.968815 4.0487 0
M  V30 2381 H 222.167 2.41652 3.15989 0
M  V30 2382 H 218.906 5.34667 3.79225 0
M  V30 2383 H 218.426 3.84045 4.60727 0
M  V30 2384 H 220.105 4.42379 4.72133 0
M  V30 2385 N 220.237 -1.11381 1.11499 0
M  V30 2386 C 221.465 -1.86934 0.88675 0
M  V30 2387 C 221.88 -1.80195 -0.563476 0
M  V30 2388 O 221.237 -1.18367 -1.38908 0
M  V30 2389 C 221.288 -3.35722 1.34064 0
M  V30 2390 O 221.009 -3.4232 2.73401 0
M  V30 2391 C 222.51 -4.2818 1.14791 0
M  V30 2392 H 219.73 -0.591117 0.317523 0
M  V30 2393 H 222.274 -1.40865 1.48248 0
M  V30 2394 H 220.429 -3.79294 0.788355 0
M  V30 2395 H 220.843 -4.34971 2.93087 0
M  V30 2396 H 222.317 -5.30817 1.5145 0
M  V30 2397 H 222.794 -4.39113 0.0875279 0
M  V30 2398 H 223.4 -3.90402 1.68721 0
M  V30 2399 N 221.715 -0.905404 -1.28997 0
M  V30 2400 C 222.645 -0.404212 -2.29975 0
M  V30 2401 C 223.626 0.523784 -1.61835 0
M  V30 2402 O 224.811 0.433298 -1.89304 0
M  V30 2403 C 221.941 0.364042 -3.45387 0
M  V30 2404 C 220.895 -0.474048 -4.25367 0
M  V30 2405 C 220.221 0.422045 -5.33032 0
M  V30 2406 C 221.521 -1.72696 -4.92923 0
M  V30 2407 H 223.215 -1.24807 -2.72146 0
M  V30 2408 H 220.761 -0.601585 -1.30832 0
M  V30 2409 H 222.714 0.725447 -4.15109 0
M  V30 2410 H 221.438 1.24174 -3.02074 0
M  V30 2411 H 220.097 -0.81786 -3.57361 0
M  V30 2412 H 219.745 1.29804 -4.85963 0
M  V30 2413 H 219.445 -0.135057 -5.87445 0
M  V30 2414 H 220.969 0.779517 -6.05604 0
M  V30 2415 H 222.383 -1.43495 -5.55051 0
M  V30 2416 H 220.78 -2.22582 -5.57295 0
M  V30 2417 H 221.85 -2.45964 -4.17887 0
M  V30 2418 N 223.193 1.4272 -0.668489 0
M  V30 2419 C 224.423 2.05668 -0.196063 0
M  V30 2420 C 224.831 1.5028 1.14946 0
M  V30 2421 O 224.174 0.6348 1.72383 0
M  V30 2422 C 224.236 3.59469 -0.0468879 0
M  V30 2423 C 223.9 4.37518 -1.32012 0
M  V30 2424 C 224.897 4.68584 -2.25222 0
M  V30 2425 C 222.582 4.77266 -1.56596 0
M  V30 2426 C 224.576 5.38326 -3.41297 0
M  V30 2427 C 222.263 5.4675 -2.72962 0
M  V30 2428 C 223.261 5.77204 -3.65137 0
M  V30 2429 O 222.949 6.45264 -4.79468 0
M  V30 2430 H 222.681 0.669382 -0.0943599 0
M  V30 2431 H 225.235 1.83954 -0.913788 0
M  V30 2432 H 223.465 3.79817 0.726357 0
M  V30 2433 H 225.154 4.04071 0.384852 0
M  V30 2434 H 225.92 4.38382 -2.07477 0
M  V30 2435 H 221.799 4.52959 -0.857249 0
M  V30 2436 H 225.343 5.62014 -4.13263 0
M  V30 2437 H 221.24 5.76369 -2.90635 0
M  V30 2438 H 222.008 6.63753 -4.78931 0
M  V30 2439 N 224.671 0.411399 1.52136 0
M  V30 2440 C 225.601 -0.404015 2.29978 0
M  V30 2441 C 226.582 -1.04412 1.34284 0
M  V30 2442 O 227.767 -1.0527 1.63192 0
M  V30 2443 C 224.897 -1.5197 3.12286 0
M  V30 2444 C 223.851 -1.00448 4.16046 0
M  V30 2445 C 223.177 -2.21393 4.86712 0
M  V30 2446 C 224.477 -0.0569336 5.22269 0
M  V30 2447 H 226.171 0.245529 2.98392 0
M  V30 2448 H 223.717 0.119525 1.43503 0
M  V30 2449 H 225.67 -2.09715 3.6551 0
M  V30 2450 H 224.394 -2.19716 2.41646 0
M  V30 2451 H 223.053 -0.449421 3.63835 0
M  V30 2452 H 222.701 -2.87699 4.12599 0
M  V30 2453 H 222.401 -1.87571 5.56858 0
M  V30 2454 H 223.925 -2.7974 5.4275 0
M  V30 2455 H 225.339 -0.54325 5.7072 0
M  V30 2456 H 223.736 0.192594 5.99791 0
M  V30 2457 H 224.806 0.887663 4.76706 0
M  V30 2458 N 226.149 -1.5696 0.141893 0
M  V30 2459 C 227.096 -2.16501 -0.799737 0
M  V30 2460 C 228.066 -1.09643 -1.24771 0
M  V30 2461 O 229.251 -1.3766 -1.32115 0
M  V30 2462 C 226.391 -2.78679 -2.03549 0
M  V30 2463 C 225.504 -3.99914 -1.6338 0
M  V30 2464 C 224.639 -4.50106 -2.82096 0
M  V30 2465 C 223.678 -5.63819 -2.38275 0
M  V30 2466 N 222.815 -6.08651 -3.49983 0
M  V30 2467 H 227.655 -2.96632 -0.285179 0
M  V30 2468 H 225.192 -1.46533 -0.129053 0
M  V30 2469 H 227.15 -3.1287 -2.75986 0
M  V30 2470 H 225.78 -2.012 -2.52425 0
M  V30 2471 H 224.832 -3.71735 -0.807279 0
M  V30 2472 H 226.144 -4.82311 -1.27192 0
M  V30 2473 H 225.298 -4.86325 -3.62729 0
M  V30 2474 H 224.037 -3.66706 -3.21525 0
M  V30 2475 H 223.042 -5.2718 -1.56081 0
M  V30 2476 H 224.267 -6.49 -1.99938 0
M  V30 2477 H 222.213 -5.28188 -3.89042 0
M  V30 2478 H 222.13 -6.85961 -3.17794 0
M  V30 2479 H 223.398 -6.49515 -4.30988 0
M  V30 2480 N 227.627 0.131896 -1.57047 0
M  V30 2481 C 228.537 1.1815 -2.02676 0
M  V30 2482 C 229.553 1.46113 -0.944824 0
M  V30 2483 O 230.729 1.57485 -1.25541 0
M  V30 2484 C 227.794 2.49139 -2.41103 0
M  V30 2485 C 226.855 2.28688 -3.63318 0
M  V30 2486 C 226.088 3.53431 -3.99903 0
M  V30 2487 O 226.311 4.60223 -3.36973 0
M  V30 2488 O 225.245 3.45198 -4.93074 0
M  V30 2489 H 229.071 0.824069 -2.92306 0
M  V30 2490 H 226.656 0.341745 -1.45439 0
M  V30 2491 H 228.538 3.26338 -2.66611 0
M  V30 2492 H 227.213 2.84382 -1.54624 0
M  V30 2493 H 226.12 1.4939 -3.42977 0
M  V30 2494 H 227.453 1.98355 -4.50462 0
M  V30 2495 N 229.106 1.52395 0.401703 0
M  V30 2496 C 230.053 1.76268 1.48991 0
M  V30 2497 C 231.023 0.605386 1.54675 0
M  V30 2498 O 232.208 0.843742 1.7113 0
M  V30 2499 C 229.348 1.92592 2.86361 0
M  V30 2500 C 228.461 3.20259 2.89928 0
M  V30 2501 C 227.596 3.26972 4.18644 0
M  V30 2502 C 226.635 4.48812 4.16214 0
M  V30 2503 N 225.772 4.52877 5.36514 0
M  V30 2504 H 230.612 2.6914 1.27935 0
M  V30 2505 H 228.149 1.33355 0.620871 0
M  V30 2506 H 230.107 2.0004 3.66115 0
M  V30 2507 H 228.737 1.03093 3.05895 0
M  V30 2508 H 227.789 3.21945 2.02621 0
M  V30 2509 H 229.101 4.10056 2.83999 0
M  V30 2510 H 228.255 3.33533 5.06794 0
M  V30 2511 H 226.994 2.35126 4.27278 0
M  V30 2512 H 225.999 4.4239 3.26453 0
M  V30 2513 H 227.224 5.41961 4.09213 0
M  V30 2514 H 225.17 3.63917 5.45802 0
M  V30 2515 H 225.087 5.36529 5.32609 0
M  V30 2516 H 226.355 4.63676 6.26597 0
M  V30 2517 N 230.584 -0.659388 1.43143 0
M  V30 2518 C 231.531 -1.77249 1.47822 0
M  V30 2519 C 232.501 -1.62818 0.328558 0
M  V30 2520 O 233.686 -1.83151 0.534838 0
M  V30 2521 C 230.826 -3.15371 1.40126 0
M  V30 2522 C 229.939 -3.4098 2.65249 0
M  V30 2523 C 229.074 -4.68915 2.49584 0
M  V30 2524 C 228.113 -4.87608 3.70006 0
M  V30 2525 N 227.25 -6.06796 3.53189 0
M  V30 2526 H 232.09 -1.72584 2.42938 0
M  V30 2527 H 229.627 -0.842297 1.20598 0
M  V30 2528 H 231.585 -3.9521 1.33659 0
M  V30 2529 H 230.215 -3.19121 0.485964 0
M  V30 2530 H 229.267 -2.55282 2.8202 0
M  V30 2531 H 230.579 -3.50681 3.54717 0
M  V30 2532 H 229.733 -5.56871 2.4079 0
M  V30 2533 H 228.472 -4.61524 1.5763 0
M  V30 2534 H 227.477 -3.9809 3.79215 0
M  V30 2535 H 228.702 -4.96834 4.62961 0
M  V30 2536 H 226.648 -6.00549 2.63965 0
M  V30 2537 H 226.565 -6.17428 4.36255 0
M  V30 2538 H 227.833 -6.9739 3.48236 0
M  V30 2539 N 232.062 -1.29571 -0.897171 0
M  V30 2540 C 233.292 -1.20408 -1.67886 0
M  V30 2541 C 233.7 0.237429 -1.87704 0
M  V30 2542 O 233.043 1.17048 -1.41582 0
M  V30 2543 C 233.105 -1.84887 -3.08314 0
M  V30 2544 C 232.769 -3.34189 -3.11716 0
M  V30 2545 C 233.766 -4.30374 -2.91675 0
M  V30 2546 C 231.451 -3.75431 -3.33701 0
M  V30 2547 C 233.445 -5.65776 -2.93557 0
M  V30 2548 C 231.132 -5.10955 -3.35214 0
M  V30 2549 C 232.13 -6.05938 -3.15164 0
M  V30 2550 O 231.818 -7.38987 -3.1647 0
M  V30 2551 H 231.55 -0.418289 -0.531046 0
M  V30 2552 H 234.104 -1.71514 -1.13014 0
M  V30 2553 H 232.334 -1.28295 -3.64798 0
M  V30 2554 H 234.023 -1.70011 -3.6858 0
M  V30 2555 H 234.789 -3.99844 -2.74499 0
M  V30 2556 H 230.668 -3.01953 -3.48347 0
M  V30 2557 H 234.212 -6.39889 -2.77826 0
M  V30 2558 H 230.109 -5.4113 -3.51922 0
M  V30 2559 H 230.877 -7.47823 -3.3272 0
M  V30 2560 N 233.54 1.10788 -1.12088 0
M  V30 2561 C 234.765 1.87002 -0.896949 0
M  V30 2562 C 235.19 1.79933 0.548261 0
M  V30 2563 O 234.548 1.16662 1.38779 0
M  V30 2564 C 234.596 3.3349 -1.37174 0
M  V30 2565 O 233.7 4.08745 -0.547831 0
M  V30 2566 H 233.041 0.580397 -0.322545 0
M  V30 2567 H 235.571 1.39996 -1.49206 0
M  V30 2568 H 235.581 3.84339 -1.36922 0
M  V30 2569 H 234.256 3.37951 -2.42408 0
M  V30 2570 H 232.833 3.6776 -0.617034 0
M  V30 2571 N 235.018 0.912232 1.28515 0
M  V30 2572 C 236.429 0.591352 1.77087 0
M  V30 2573 C 236.78 -0.8933 1.74684 0
M  V30 2574 O 235.905 -1.69876 1.34056 0
M  V30 2575 C 236.5 1.06668 3.2157 0
M  V30 2576 C 235.059 0.79675 3.67871 0
M  V30 2577 C 234.206 1.23427 2.48316 0
M  V30 2578 H 237.157 1.09365 1.15 0
M  V30 2579 H 237.178 0.407455 3.78312 0
M  V30 2580 H 236.69 2.14726 3.23287 0
M  V30 2581 H 234.791 -0.270679 3.71616 0
M  V30 2582 H 234.904 1.40343 4.58084 0
M  V30 2583 H 233.268 0.653036 2.46186 0
M  V30 2584 H 234.051 2.32316 2.52753 0
M  V30 2585 N 236.496 -1.42363 0.676048 0
M  V30 2586 C 237.736 -2.03392 0.20273 0
M  V30 2587 C 238.1 -1.52306 -1.16906 0
M  V30 2588 O 239.301 -2.05129 -1.73711 0
M  V30 2589 C 237.572 -3.56614 0.236947 0
M  V30 2590 S 239.131 -4.38489 -0.165186 0
M  V30 2591 H 235.949 -0.70611 0.0832418 0
M  V30 2592 H 238.551 -1.74093 0.88948 0
M  V30 2593 H 237.255 -3.91293 1.23767 0
M  V30 2594 H 236.786 -3.90587 -0.469596 0
M  V30 2595 H 238.801 -4.76093 -1.39822 0
M  V30 2596 N 237.974 -0.419461 -1.51915 0
M  V30 2597 C 238.937 0.389116 -2.25873 0
M  V30 2598 C 239.937 0.964924 -1.28631 0
M  V30 2599 O 241.127 0.842179 -1.52489 0
M  V30 2600 C 238.259 1.54874 -3.03689 0
M  V30 2601 H 239.452 -0.258799 -2.98781 0
M  V30 2602 H 237.005 -0.172209 -1.55348 0
M  V30 2603 H 237.74 2.23323 -2.35154 0
M  V30 2604 H 237.525 1.14223 -3.75094 0
M  V30 2605 H 239.015 2.12046 -3.59759 0
M  V30 2606 N 239.452 1.56882 -0.150215 0
M  V30 2607 C 240.698 1.97299 0.494427 0
M  V30 2608 C 241.053 1.0338 1.62266 0
M  V30 2609 O 240.346 0.0694497 1.91474 0
M  V30 2610 C 240.54 3.41801 1.04437 0
M  V30 2611 C 240.369 4.49691 -0.0290451 0
M  V30 2612 C 239.139 5.03095 -0.47156 0
M  V30 2613 C 241.337 5.07693 -0.821703 0
M  V30 2614 N 239.319 5.94593 -1.52749 0
M  V30 2615 C 240.69 5.95431 -1.72805 0
M  V30 2616 C 242.745 4.90256 -0.869134 0
M  V30 2617 C 241.448 6.67599 -2.67777 0
M  V30 2618 C 243.474 5.63127 -1.8067 0
M  V30 2619 C 242.836 6.50576 -2.70057 0
M  V30 2620 H 238.935 0.76755 0.149639 0
M  V30 2621 H 241.519 1.93145 -0.24556 0
M  V30 2622 H 239.69 3.46541 1.75396 0
M  V30 2623 H 241.422 3.69272 1.6559 0
M  V30 2624 H 238.177 4.73543 -0.0732101 0
M  V30 2625 H 238.601 6.45047 -2.05531 0
M  V30 2626 H 243.243 4.22363 -0.192134 0
M  V30 2627 H 240.961 7.34717 -3.36476 0
M  V30 2628 H 244.547 5.51629 -1.84924 0
M  V30 2629 H 243.427 7.05974 -3.41424 0
M  V30 2630 N 240.93 -0.123565 1.57115 0
M  V30 2631 C 241.84 -1.17074 2.033 0
M  V30 2632 C 242.856 -1.4561 0.952559 0
M  V30 2633 O 244.032 -1.56817 1.26374 0
M  V30 2634 C 241.097 -2.47857 2.42421 0
M  V30 2635 C 240.158 -2.26758 3.64526 0
M  V30 2636 C 239.391 -3.51305 4.01771 0
M  V30 2637 O 239.614 -4.5843 3.39409 0
M  V30 2638 O 238.548 -3.42578 4.94898 0
M  V30 2639 H 242.374 -0.808555 2.92739 0
M  V30 2640 H 239.959 -0.334027 1.45618 0
M  V30 2641 H 241.841 -3.2492 2.68338 0
M  V30 2642 H 240.516 -2.83558 1.5613 0
M  V30 2643 H 239.423 -1.47569 3.43765 0
M  V30 2644 H 240.756 -1.95963 4.51508 0
M  V30 2645 N 242.408 -1.52605 -0.393616 0
M  V30 2646 C 243.654 -1.67672 -1.14079 0
M  V30 2647 C 243.987 -0.413121 -1.89755 0
M  V30 2648 O 243.262 0.588952 -1.85369 0
M  V30 2649 C 243.545 -2.9088 -2.12276 0
M  V30 2650 C 243.398 -4.27329 -1.40394 0
M  V30 2651 C 244.717 -3.09628 -3.12759 0
M  V30 2652 H 241.836 -0.610168 -0.413356 0
M  V30 2653 H 244.478 -1.85193 -0.424696 0
M  V30 2654 H 242.628 -2.76073 -2.73342 0
M  V30 2655 H 244.3 -4.53894 -0.82327 0
M  V30 2656 H 242.543 -4.2802 -0.705801 0
M  V30 2657 H 243.214 -5.09615 -2.12123 0
M  V30 2658 H 245.69 -3.23436 -2.61779 0
M  V30 2659 H 244.566 -3.97322 -3.78717 0
M  V30 2660 H 244.827 -2.23637 -3.81365 0
M  V30 2661 N 243.887 0.651787 -1.4349 0
M  V30 2662 C 245.133 1.41376 -1.45398 0
M  V30 2663 C 245.466 1.94041 -0.0784823 0
M  V30 2664 O 244.741 1.72379 0.900878 0
M  V30 2665 C 245.024 2.59414 -2.49752 0
M  V30 2666 C 244.877 2.12232 -3.96582 0
M  V30 2667 C 246.196 3.61626 -2.50827 0
M  V30 2668 H 243.315 0.512719 -0.529422 0
M  V30 2669 H 245.957 0.738796 -1.75048 0
M  V30 2670 H 244.107 3.16997 -2.246 0
M  V30 2671 H 245.779 1.59639 -4.32797 0
M  V30 2672 H 244.022 1.43592 -4.09346 0
M  V30 2673 H 244.693 2.9712 -4.65214 0
M  V30 2674 H 247.169 3.13805 -2.7325 0
M  V30 2675 H 246.045 4.41766 -3.25783 0
M  V30 2676 H 246.306 4.14314 -1.5426 0
M  V30 2677 N 245.365 1.30045 0.890287 0
M  V30 2678 C 246.781 1.08261 1.17268 0
M  V30 2679 C 246.981 -0.160063 2.00863 0
M  V30 2680 O 246.037 -0.855181 2.37577 0
M  V30 2681 C 247.35 2.34323 1.8845 0
M  V30 2682 C 248.898 2.39735 2.01237 0
M  V30 2683 C 249.373 3.65625 2.7583 0
M  V30 2684 N 250.864 3.66402 2.83379 0
M  V30 2685 C 251.599 4.60498 3.41657 0
M  V30 2686 N 251.095 5.64933 4.01026 0
M  V30 2687 N 252.888 4.48051 3.39421 0
M  V30 2688 H 245.039 2.09777 0.332762 0
M  V30 2689 H 247.302 0.92446 0.209948 0
M  V30 2690 H 247.008 3.2498 1.34465 0
M  V30 2691 H 246.882 2.4256 2.88867 0
M  V30 2692 H 249.269 1.4956 2.54393 0
M  V30 2693 H 249.35 2.35476 0.999232 0
M  V30 2694 H 248.994 4.56156 2.23347 0
M  V30 2695 H 248.924 3.67144 3.77509 0
M  V30 2696 H 251.415 2.90896 2.41222 0
M  V30 2697 H 251.728 6.32841 4.43545 0
M  V30 2698 H 250.073 5.68732 3.99461 0
M  V30 2699 H 253.264 3.65649 2.92264 0
M  V30 2700 H 253.437 5.21565 3.84544 0
M  V30 2701 N 246.843 -1.10192 1.12674 0
M  V30 2702 C 247.806 -2.14786 0.799979 0
M  V30 2703 C 248.806 -1.59711 -0.18685 0
M  V30 2704 O 249.996 -1.74156 0.0392558 0
M  V30 2705 C 247.128 -3.40374 0.189228 0
M  V30 2706 H 248.321 -2.45203 1.72671 0
M  V30 2707 H 245.874 -1.25597 0.930326 0
M  V30 2708 H 246.609 -3.15577 -0.747107 0
M  V30 2709 H 246.394 -3.81637 0.899766 0
M  V30 2710 H 247.884 -4.17594 -0.0228143 0
M  V30 2711 N 248.321 -0.919034 -1.28029 0
M  V30 2712 C 249.231 -0.416756 -2.30869 0
M  V30 2713 C 250.247 0.498235 -1.66714 0
M  V30 2714 O 251.423 0.383144 -1.97722 0
M  V30 2715 C 248.488 0.330274 -3.45123 0
M  V30 2716 C 247.549 -0.618578 -4.2482 0
M  V30 2717 C 246.782 0.0928959 -5.33619 0
M  V30 2718 O 247.005 1.31375 -5.55065 0
M  V30 2719 O 245.939 -0.574499 -5.99152 0
M  V30 2720 H 249.765 -1.27043 -2.75851 0
M  V30 2721 H 247.35 -0.684052 -1.3282 0
M  V30 2722 H 249.232 0.751972 -4.14636 0
M  V30 2723 H 247.907 1.1597 -3.02213 0
M  V30 2724 H 246.814 -1.08978 -3.57875 0
M  V30 2725 H 248.147 -1.41497 -4.71423 0
M  V30 2726 N 249.799 1.42003 -0.683588 0
M  V30 2727 C 251.048 2.00638 -0.206681 0
M  V30 2728 C 251.361 1.5472 1.19671 0
M  V30 2729 O 252.567 2.05833 1.77045 0
M  V30 2730 C 251.023 3.58487 -0.318632 0
M  V30 2731 C 250.631 4.1339 -1.72663 0
M  V30 2732 C 252.375 4.24384 0.0991141 0
M  V30 2733 C 250.282 5.63633 -1.79087 0
M  V30 2734 H 249.212 0.750408 -0.0735107 0
M  V30 2735 H 251.863 1.62624 -0.850048 0
M  V30 2736 H 250.245 3.94047 0.392781 0
M  V30 2737 H 251.419 3.89273 -2.46583 0
M  V30 2738 H 249.734 3.59976 -2.09299 0
M  V30 2739 H 252.331 5.34652 0.0713833 0
M  V30 2740 H 252.674 4.00505 1.13586 0
M  V30 2741 H 253.207 3.93816 -0.561599 0
M  V30 2742 H 249.946 5.92323 -2.80774 0
M  V30 2743 H 249.466 5.89714 -1.09535 0
M  V30 2744 H 251.145 6.28201 -1.5483 0
M  V30 2745 N 251.277 0.427512 1.51691 0
M  V30 2746 C 252.21 -0.433876 2.24037 0
M  V30 2747 C 253.188 -1.03287 1.25581 0
M  V30 2748 O 254.372 -1.07722 1.54688 0
M  V30 2749 C 251.499 -1.60385 2.98319 0
M  V30 2750 C 250.545 -1.12648 4.11355 0
M  V30 2751 S 251.378 -0.076543 5.35445 0
M  V30 2752 C 252.534 -1.25141 6.13262 0
M  V30 2753 H 252.767 0.180367 2.96752 0
M  V30 2754 H 250.3 0.211946 1.52938 0
M  V30 2755 H 252.258 -2.27462 3.41718 0
M  V30 2756 H 250.919 -2.18948 2.25213 0
M  V30 2757 H 250.112 -2.0011 4.62571 0
M  V30 2758 H 249.714 -0.534088 3.70167 0
M  V30 2759 H 252.006 -2.17162 6.41753 0
M  V30 2760 H 252.949 -0.779411 7.03797 0
M  V30 2761 H 253.357 -1.48553 5.44603 0
M  V30 2762 N 252.755 -1.56801 0.158532 0
M  V30 2763 C 254.171 -1.5837 -0.197774 0
M  V30 2764 C 254.371 -1.17334 -1.63814 0
M  V30 2765 O 253.427 -0.878988 -2.36707 0
M  V30 2766 C 254.74 -3.00615 0.0714459 0
M  V30 2767 C 256.288 -3.12999 0.00864533 0
M  V30 2768 C 256.763 -4.57313 0.250685 0
M  V30 2769 N 258.254 -4.62777 0.198014 0
M  V30 2770 C 258.989 -5.72271 0.359642 0
M  V30 2771 N 258.485 -6.90371 0.579625 0
M  V30 2772 N 260.278 -5.61318 0.296438 0
M  V30 2773 H 252.429 -1.81765 1.09887 0
M  V30 2774 H 254.692 -0.841849 0.435884 0
M  V30 2775 H 254.398 -3.35068 1.06874 0
M  V30 2776 H 254.272 -3.71683 -0.642757 0
M  V30 2777 H 256.659 -2.7838 -0.979217 0
M  V30 2778 H 256.74 -2.44393 0.755359 0
M  V30 2779 H 256.384 -4.92639 1.2357 0
M  V30 2780 H 256.314 -5.24061 -0.516489 0
M  V30 2781 H 258.805 -3.77885 0.0331115 0
M  V30 2782 H 259.118 -7.69689 0.69275 0
M  V30 2783 H 257.463 -6.92264 0.616087 0
M  V30 2784 H 260.654 -4.67932 0.125258 0
M  V30 2785 H 260.827 -6.46599 0.425831 0
M  V30 2786 N 254.233 0.115231 -1.57178 0
M  V30 2787 C 255.458 0.840354 -1.89612 0
M  V30 2788 C 255.883 1.72464 -0.750845 0
M  V30 2789 O 255.241 1.78826 0.298478 0
M  V30 2790 C 255.289 1.64654 -3.20814 0
M  V30 2791 O 254.393 2.7538 -3.06985 0
M  V30 2792 H 253.734 0.232158 -0.622092 0
M  V30 2793 H 256.264 0.0964977 -2.04372 0
M  V30 2794 H 256.274 2.03499 -3.53627 0
M  V30 2795 H 254.949 0.997416 -4.03763 0
M  V30 2796 H 253.526 2.3971 -2.85646 0
M  V30 2797 N 255.711 1.52812 0.385517 0
M  V30 2798 C 256.958 1.68026 1.1302 0
M  V30 2799 C 257.286 0.421934 1.89868 0
M  V30 2800 O 256.541 -0.595749 1.86412 0
M  V30 2801 C 256.84 2.86856 2.13187 0
M  V30 2802 C 256.506 4.24159 1.5297 0
M  V30 2803 C 255.168 4.61501 1.36274 0
M  V30 2804 C 257.52 5.09627 1.09223 0
M  V30 2805 C 254.848 5.81966 0.743837 0
M  V30 2806 C 257.2 6.30719 0.487411 0
M  V30 2807 C 255.864 6.6679 0.307777 0
M  V30 2808 H 255.134 0.614849 0.413571 0
M  V30 2809 H 257.781 1.86962 0.414405 0
M  V30 2810 H 256.086 2.6235 2.90998 0
M  V30 2811 H 257.783 2.95821 2.70722 0
M  V30 2812 H 254.373 3.94746 1.66954 0
M  V30 2813 H 258.557 4.81343 1.20922 0
M  V30 2814 H 253.813 6.08519 0.592891 0
M  V30 2815 H 257.987 6.96259 0.140143 0
M  V30 2816 H 255.614 7.60001 -0.173879 0
M  V30 2817 N 257.189 -0.644168 1.43834 0
M  V30 2818 C 258.414 -1.43642 1.49605 0
M  V30 2819 C 258.839 -1.8773 0.117913 0
M  V30 2820 O 258.197 -1.57938 -0.890239 0
M  V30 2821 C 258.245 -2.6416 2.45463 0
M  V30 2822 O 257.349 -3.63538 1.94714 0
M  V30 2823 H 256.69 -0.430329 0.50568 0
M  V30 2824 H 259.22 -0.787448 1.8884 0
M  V30 2825 H 259.23 -3.11864 2.63068 0
M  V30 2826 H 257.905 -2.31414 3.45572 0
M  V30 2827 H 256.482 -3.2273 1.86814 0
M  V30 2828 N 258.668 -1.30515 -0.883378 0
M  V30 2829 C 259.598 -1.19607 -2.00541 0
M  V30 2830 C 260.579 -0.086346 -1.69881 0
M  V30 2831 O 261.764 -0.268654 -1.92333 0
M  V30 2832 C 258.894 -0.888758 -3.35736 0
M  V30 2833 C 257.848 -1.95659 -3.8066 0
M  V30 2834 C 257.174 -1.50224 -5.13164 0
M  V30 2835 C 258.474 -3.36788 -3.99213 0
M  V30 2836 H 260.168 -2.13476 -2.09925 0
M  V30 2837 H 257.714 -1.02775 -1.00863 0
M  V30 2838 H 259.667 -0.799094 -4.13754 0
M  V30 2839 H 258.391 0.0856125 -3.26488 0
M  V30 2840 H 257.05 -2.03591 -3.04871 0
M  V30 2841 H 256.698 -0.516092 -5.00345 0
M  V30 2842 H 256.398 -2.2165 -5.44192 0
M  V30 2843 H 257.922 -1.42639 -5.93706 0
M  V30 2844 H 259.336 -3.31605 -4.67665 0
M  V30 2845 H 257.733 -4.06314 -4.41621 0
M  V30 2846 H 258.803 -3.78561 -3.03017 0
M  V30 2847 N 260.146 1.09593 -1.13257 0
M  V30 2848 C 261.371 1.8604 -0.916732 0
M  V30 2849 C 261.796 1.80504 0.529146 0
M  V30 2850 O 261.154 1.18127 1.37534 0
M  V30 2851 C 261.202 3.32017 -1.40703 0
M  V30 2852 O 260.306 4.08141 -0.591153 0
M  V30 2853 H 259.647 0.576943 -0.328683 0
M  V30 2854 H 262.177 1.38405 -1.50682 0
M  V30 2855 H 262.187 3.82865 -1.4099 0
M  V30 2856 H 260.862 3.35361 -2.45979 0
M  V30 2857 H 259.439 3.67084 -0.656005 0
M  V30 2858 N 261.624 0.925811 1.2754 0
M  V30 2859 C 262.852 0.581509 1.9856 0
M  V30 2860 C 263.267 -0.840041 1.69082 0
M  V30 2861 O 262.624 -1.55805 0.950312 0
M  V30 2862 C 262.675 0.795589 3.52637 0
M  V30 2863 O 262.396 2.16121 3.81082 0
M  V30 2864 C 263.897 0.459744 4.4091 0
M  V30 2865 H 261.117 0.220538 0.633722 0
M  V30 2866 H 263.661 1.24232 1.6244 0
M  V30 2867 H 261.816 0.18161 3.86974 0
M  V30 2868 H 262.23 2.2098 4.75676 0
M  V30 2869 H 263.704 0.660244 5.48037 0
M  V30 2870 H 264.181 -0.604625 4.35018 0
M  V30 2871 H 264.787 1.05178 4.12089 0
M  V30 2872 N 263.102 -1.41638 0.69111 0
M  V30 2873 C 264.05 -2.32597 0.0115199 0
M  V30 2874 C 265.044 -1.5072 -0.773296 0
M  V30 2875 O 266.25 -1.66685 -0.67942 0
M  V30 2876 H 262.625 -0.751849 -0.0150746 0
M  V30 2877 H 264.596 -2.87593 0.795791 0
M  V30 2878 C 263.345 -3.35467 -0.914172 0
M  V30 2879 H 262.668 -3.9852 -0.319687 0
M  V30 2880 H 264.108 -4.01662 -1.35808 0
M  V30 2881 C 262.567 -2.69004 -2.02826 0
M  V30 2882 O 263.097 -2.53444 -3.11655 0
M  V30 2883 N 261.303 -2.2777 -1.80469 0
M  V30 2884 H 260.85 -2.40626 -0.919615 0
M  V30 2885 H 260.808 -1.83635 -2.55197 0
M  V30 2886 N 264.58 -0.43555 -1.51462 0
M  V30 2887 C 265.51 0.367376 -2.30592 0
M  V30 2888 C 266.491 1.02263 -1.35928 0
M  V30 2889 O 267.676 1.02661 -1.64847 0
M  V30 2890 C 264.806 1.46983 -3.14664 0
M  V30 2891 C 263.76 0.938161 -4.17591 0
M  V30 2892 C 263.086 2.13622 -4.90173 0
M  V30 2893 C 264.386 -0.0261621 -5.22293 0
M  V30 2894 H 266.08 -0.292969 -2.97963 0
M  V30 2895 H 263.626 -0.14234 -1.43295 0
M  V30 2896 H 265.579 2.03873 -3.688 0
M  V30 2897 H 264.303 2.15843 -2.4511 0
M  V30 2898 H 262.962 0.391481 -3.64504 0
M  V30 2899 H 262.61 2.81098 -4.17124 0
M  V30 2900 H 262.31 1.78688 -5.59772 0
M  V30 2901 H 263.834 2.7107 -5.47132 0
M  V30 2902 H 265.248 0.452384 -5.71512 0
M  V30 2903 H 263.645 -0.287992 -5.99409 0
M  V30 2904 H 264.715 -0.963391 -4.75233 0
M  V30 2905 N 266.058 1.56714 -0.166846 0
M  V30 2906 C 266.99 2.14914 0.796537 0
M  V30 2907 C 268.003 1.10357 1.19688 0
M  V30 2908 O 269.192 1.37561 1.13751 0
M  V30 2909 C 266.292 2.67326 2.08303 0
M  V30 2910 C 265.465 3.96493 1.84696 0
M  V30 2911 C 264.524 4.34014 2.97521 0
M  V30 2912 O 263.55 5.01973 2.6835 0
M  V30 2913 N 264.752 3.95208 4.25196 0
M  V30 2914 H 267.517 2.98205 0.299006 0
M  V30 2915 H 265.078 1.61892 0.0160839 0
M  V30 2916 H 267.07 2.89428 2.82867 0
M  V30 2917 H 265.64 1.88649 2.4926 0
M  V30 2918 H 264.86 3.82814 0.940602 0
M  V30 2919 H 266.148 4.8086 1.66285 0
M  V30 2920 H 265.546 3.40487 4.51758 0
M  V30 2921 H 264.103 4.2232 4.96477 0
M  V30 2922 N 267.536 -0.106894 1.57237 0
M  V30 2923 C 268.446 -1.14911 2.0453 0
M  V30 2924 C 269.462 -1.44592 0.96795 0
M  V30 2925 O 270.638 -1.55468 1.2803 0
M  V30 2926 C 267.703 -2.45272 2.45036 0
M  V30 2927 C 266.764 -2.22879 3.66911 0
M  V30 2928 C 265.997 -3.47024 4.05475 0
M  V30 2929 O 266.22 -4.54804 3.44252 0
M  V30 2930 O 265.154 -3.3731 4.98504 0
M  V30 2931 H 268.98 -0.777461 2.9358 0
M  V30 2932 H 266.565 -0.318563 1.45964 0
M  V30 2933 H 268.447 -3.22055 2.71769 0
M  V30 2934 H 267.122 -2.81886 1.59129 0
M  V30 2935 H 266.029 -1.43915 3.45311 0
M  V30 2936 H 267.362 -1.91163 4.53561 0
M  V30 2937 N 269.014 -1.53014 -0.377408 0
M  V30 2938 C 270.239 -1.72818 -1.14668 0
M  V30 2939 C 270.664 -0.450725 -1.8262 0
M  V30 2940 O 270.022 0.59439 -1.7128 0
M  V30 2941 C 270.07 -2.88627 -2.16164 0
M  V30 2942 O 269.174 -2.56409 -3.22998 0
M  V30 2943 H 268.515 -0.574301 -0.333278 0
M  V30 2944 H 271.045 -1.99853 -0.438152 0
M  V30 2945 H 271.055 -3.14455 -2.59966 0
M  V30 2946 H 269.73 -3.81294 -1.66095 0
M  V30 2947 H 268.307 -2.4136 -2.84253 0
M  V30 2948 N 270.492 0.636531 -1.44174 0
M  V30 2949 C 271.422 1.76003 -1.53444 0
M  V30 2950 C 272.403 1.65619 -0.387841 0
M  V30 2951 O 273.588 1.84461 -0.607257 0
M  V30 2952 C 270.718 3.14511 -1.4731 0
M  V30 2953 C 269.672 3.39677 -2.60391 0
M  V30 2954 C 268.998 4.78159 -2.39308 0
M  V30 2955 C 270.298 3.32772 -4.02567 0
M  V30 2956 H 271.992 1.68501 -2.47483 0
M  V30 2957 H 269.538 0.809237 -1.19111 0
M  V30 2958 H 271.491 3.92878 -1.52397 0
M  V30 2959 H 270.215 3.22783 -0.49785 0
M  V30 2960 H 268.874 2.63688 -2.54684 0
M  V30 2961 H 268.522 4.83128 -1.39988 0
M  V30 2962 H 268.222 4.95956 -3.15122 0
M  V30 2963 H 269.746 5.58762 -2.46205 0
M  V30 2964 H 271.16 4.01051 -4.09672 0
M  V30 2965 H 269.557 3.62104 -4.7854 0
M  V30 2966 H 270.627 2.30669 -4.2652 0
M  V30 2967 N 271.97 1.30982 0.876444 0
M  V30 2968 C 273.386 1.09498 1.16113 0
M  V30 2969 C 273.586 -0.13875 2.01022 0
M  V30 2970 O 272.642 -0.829935 2.38471 0
M  V30 2971 C 273.955 2.36308 1.85954 0
M  V30 2972 C 275.503 2.41856 1.98683 0
M  V30 2973 C 275.978 3.6853 2.71937 0
M  V30 2974 N 277.469 3.69387 2.79477 0
M  V30 2975 C 278.204 4.64096 3.36753 0
M  V30 2976 N 277.7 5.69155 3.95012 0
M  V30 2977 N 279.493 4.51626 3.3465 0
M  V30 2978 H 271.644 2.10118 0.310494 0
M  V30 2979 H 273.907 0.926634 0.200131 0
M  V30 2980 H 273.613 3.26388 1.31011 0
M  V30 2981 H 273.487 2.4561 2.86278 0
M  V30 2982 H 275.874 1.52249 2.52793 0
M  V30 2983 H 275.955 2.36523 0.9742 0
M  V30 2984 H 275.599 4.58499 2.18496 0
M  V30 2985 H 275.529 3.71127 3.73593 0
M  V30 2986 H 278.02 2.93438 2.38123 0
M  V30 2987 H 278.333 6.3751 4.36808 0
M  V30 2988 H 276.678 5.72937 3.93406 0
M  V30 2989 H 279.869 3.68728 2.8837 0
M  V30 2990 H 280.042 5.25614 3.7899 0
M  V30 2991 N 273.449 -1.08991 1.13837 0
M  V30 2992 C 274.674 -1.85551 0.926585 0
M  V30 2993 C 275.099 -1.80782 -0.519566 0
M  V30 2994 O 274.457 -1.18855 -1.36906 0
M  V30 2995 C 274.505 -3.31266 1.42462 0
M  V30 2996 O 273.609 -4.07822 0.612789 0
M  V30 2997 H 272.95 -0.575192 0.331738 0
M  V30 2998 H 275.48 -1.37604 1.51414 0
M  V30 2999 H 275.49 -3.82112 1.43019 0
M  V30 3000 H 274.165 -3.34052 2.47754 0
M  V30 3001 H 272.742 -3.66731 0.675463 0
M  V30 3002 N 274.927 -0.932562 -1.27047 0
M  V30 3003 C 275.874 -0.434072 -2.26681 0
M  V30 3004 C 276.844 0.501639 -1.58344 0
M  V30 3005 O 278.029 0.419734 -1.86126 0
M  V30 3006 C 275.169 0.30261 -3.43771 0
M  V30 3007 C 274.282 -0.667774 -4.26808 0
M  V30 3008 C 273.417 0.0892393 -5.31125 0
M  V30 3009 C 272.456 -0.873532 -6.05835 0
M  V30 3010 N 271.593 -0.148832 -7.01942 0
M  V30 3011 H 276.433 -1.28868 -2.68695 0
M  V30 3012 H 273.97 -0.646713 -1.32121 0
M  V30 3013 H 275.928 0.746092 -4.10474 0
M  V30 3014 H 274.558 1.12142 -3.02695 0
M  V30 3015 H 273.61 -1.22978 -3.59973 0
M  V30 3016 H 274.922 -1.40337 -4.78651 0
M  V30 3017 H 274.076 0.592409 -6.03801 0
M  V30 3018 H 272.815 0.85777 -4.80097 0
M  V30 3019 H 271.82 -1.38791 -5.31994 0
M  V30 3020 H 273.045 -1.64193 -6.58952 0
M  V30 3021 H 270.991 0.601365 -6.53238 0
M  V30 3022 H 270.908 -0.82391 -7.51497 0
M  V30 3023 H 272.176 0.333527 -7.78786 0
M  V30 3024 N 276.405 1.4127 -0.698611 0
M  V30 3025 C 277.315 2.34573 -0.0357891 0
M  V30 3026 C 278.331 1.56393 0.762701 0
M  V30 3027 O 279.507 1.8886 0.699564 0
M  V30 3028 C 276.572 3.35159 0.887089 0
M  V30 3029 C 275.633 4.29225 0.0804634 0
M  V30 3030 C 274.866 5.25006 0.959387 0
M  V30 3031 O 275.089 5.26314 2.19886 0
M  V30 3032 O 274.023 6.00519 0.407439 0
M  V30 3033 H 277.849 2.92838 -0.804957 0
M  V30 3034 H 275.434 1.42175 -0.458966 0
M  V30 3035 H 277.316 3.9689 1.41621 0
M  V30 3036 H 275.991 2.79333 1.6357 0
M  V30 3037 H 274.898 3.70833 -0.493328 0
M  V30 3038 H 276.231 4.88157 -0.629547 0
M  V30 3039 O 277.922 0.585593 1.50509 0
M  V30 3040 H 278.613 0.0911067 1.93486 0
M  V30 END ATOM
M  V30 BEGIN BOND
M  V30 END BOND
M  V30 END CTAB
M  END
$$$$
