drugbank_target|P01591 Immunoglobulin J chain (DB01593; DB14487; DB14533; DB14548)
 OpenBabel12092121083D

  0  0  0     0  0            999 V3000
M  V30 BEGIN CTAB
M  V30 COUNTS 2521 2542 0 0 0
M  V30 BEGIN ATOM
M  V30 1 H -0.908 1.98254 -0.117106 0
M  V30 2 N 0 1.576 0 0
M  V30 3 C 0.933 2.03868 1.02534 0
M  V30 4 C 1.911 0.928543 1.3348 0
M  V30 5 O 3.095 1.19667 1.45644 0
M  V30 6 C 0.222 2.43627 2.35294 0
M  V30 7 C -0.732 3.65373 2.2001 0
M  V30 8 S 0.101 5.13292 1.52614 0
M  V30 9 C 1.257 5.56322 2.86805 0
M  V30 10 H 1.49 2.90518 0.631377 0
M  V30 11 H -0.977 1.52953 0.210867 0
M  V30 12 H 0.981 2.67203 3.11629 0
M  V30 13 H -0.358 1.57376 2.7183 0
M  V30 14 H -1.165 3.90944 3.18086 0
M  V30 15 H -1.563 3.418 1.51819 0
M  V30 16 H 0.729 5.58782 3.83104 0
M  V30 17 H 1.672 6.56266 2.65933 0
M  V30 18 H 2.08 4.83886 2.90714 0
M  V30 19 N 1.4781 -0.272755 1.55222 0
M  V30 20 C 2.4251 -1.33716 1.88119 0
M  V30 21 C 3.3951 -1.49066 0.73271 0
M  V30 22 O 4.5801 -1.63469 0.984002 0
M  V30 23 C 1.7201 -2.69238 2.15882 0
M  V30 24 C 0.8331 -2.62108 3.43399 0
M  V30 25 C -0.0319 -3.89811 3.60861 0
M  V30 26 C -0.9929 -3.77193 4.8207 0
M  V30 27 N -1.8559 -4.9673 4.96189 0
M  V30 28 H 2.9841 -1.04962 2.78903 0
M  V30 29 H 0.5211 -0.507088 1.38083 0
M  V30 30 H 2.4791 -3.48089 2.29978 0
M  V30 31 H 1.1091 -2.96194 1.28331 0
M  V30 32 H 0.1611 -1.74967 3.37773 0
M  V30 33 H 1.4731 -2.48685 4.32386 0
M  V30 34 H 0.6271 -4.77103 3.74777 0
M  V30 35 H -0.6339 -4.06102 2.7006 0
M  V30 36 H -1.6289 -2.88284 4.68159 0
M  V30 37 H -0.4039 -3.62421 5.74307 0
M  V30 38 H -2.4579 -5.13431 4.08319 0
M  V30 39 H -2.5409 -4.85839 5.79221 0
M  V30 40 H -1.2729 -5.85594 5.1449 0
M  V30 41 N 2.9562 -1.48159 -0.537278 0
M  V30 42 C 3.9042 -1.62573 -1.66352 0
M  V30 43 C 4.8982 -0.492366 -1.62087 0
M  V30 44 O 6.1042 -0.670847 -1.67032 0
M  V30 45 H 2.4792 -0.511992 -0.550789 0
M  V30 46 H 4.4502 -2.57176 -1.51337 0
M  V30 47 C 3.1992 -1.67583 -3.04649 0
M  V30 48 H 2.5222 -2.54151 -3.08622 0
M  V30 49 H 3.9622 -1.81713 -3.83088 0
M  V30 50 C 2.4212 -0.413039 -3.34358 0
M  V30 51 O 2.9512 0.477259 -3.98855 0
M  V30 52 N 1.1572 -0.286961 -2.8918 0
M  V30 53 H 0.7042 -1.01241 -2.36871 0
M  V30 54 H 0.6622 0.556963 -3.09427 0
M  V30 55 N 4.4343 0.785586 -1.36625 0
M  V30 56 C 5.3843 1.88822 -1.27789 0
M  V30 57 C 6.3683 1.60014 -0.168579 0
M  V30 58 O 7.5603 1.72381 -0.401737 0
M  V30 59 C 4.6893 3.26092 -1.07327 0
M  V30 60 C 3.7753 3.60897 -2.22743 0
M  V30 61 N 4.1663 3.66982 -3.48077 0
M  V30 62 C 2.4643 3.90981 -2.14593 0
M  V30 63 C 3.1653 3.98137 -4.24101 0
M  V30 64 N 2.1413 4.13319 -3.53084 0
M  V30 65 H 5.9433 1.91759 -2.22723 0
M  V30 66 H 3.4573 0.981311 -1.29399 0
M  V30 67 H 5.4543 4.04954 -0.990842 0
M  V30 68 H 4.1143 3.24428 -0.132977 0
M  V30 69 H 5.1253 3.49531 -3.82163 0
M  V30 70 H 1.8023 3.9722 -1.2854 0
M  V30 71 H 3.1923 4.09737 -5.32509 0
M  V30 72 N 5.9124 1.20967 1.01018 0
M  V30 73 C 6.8424 0.988272 2.11555 0
M  V30 74 C 7.8234 -0.0849778 1.69888 0
M  V30 75 O 9.0084 0.0738202 1.9406 0
M  V30 76 C 6.1384 0.546528 3.42973 0
M  V30 77 C 5.0924 1.56375 3.9841 0
M  V30 78 C 4.4184 0.97842 5.25672 0
M  V30 79 C 5.7184 2.94922 4.31066 0
M  V30 80 H 7.4124 1.91276 2.30334 0
M  V30 81 H 4.9584 0.921073 1.1069 0
M  V30 82 H 6.9114 0.378839 4.19694 0
M  V30 83 H 5.6354 -0.413598 3.23971 0
M  V30 84 H 4.2944 1.71891 3.23804 0
M  V30 85 H 3.9424 0.0101688 5.02999 0
M  V30 86 H 3.6424 1.65784 5.63728 0
M  V30 87 H 5.1664 0.821939 6.05043 0
M  V30 88 H 6.5804 2.8288 4.9865 0
M  V30 89 H 4.9774 3.5983 4.80253 0
M  V30 90 H 6.0474 3.4616 3.39561 0
M  V30 91 N 7.3905 -1.2043 1.01659 0
M  V30 92 C 8.3205 -2.25466 0.607226 0
M  V30 93 C 9.3015 -1.65853 -0.377716 0
M  V30 94 O 10.4865 -1.92409 -0.263149 0
M  V30 95 C 7.6165 -3.47256 -0.0552949 0
M  V30 96 C 6.5705 -4.19462 0.850632 0
M  V30 97 C 5.8965 -5.34673 0.0538859 0
M  V30 98 C 7.1965 -4.75603 2.15868 0
M  V30 99 H 8.8905 -2.59962 1.48526 0
M  V30 100 H 6.4365 -1.2496 0.715605 0
M  V30 101 H 8.3895 -4.19917 -0.353233 0
M  V30 102 H 7.1135 -3.11924 -0.968045 0
M  V30 103 H 5.7725 -3.48667 1.13257 0
M  V30 104 H 5.4205 -4.95585 -0.860514 0
M  V30 105 H 5.1205 -5.83913 0.657192 0
M  V30 106 H 6.6445 -6.10138 -0.237598 0
M  V30 107 H 8.0585 -5.40083 1.92311 0
M  V30 108 H 6.4555 -5.3528 2.71284 0
M  V30 109 H 7.5255 -3.94346 2.82169 0
M  V30 110 N 8.8686 -0.792821 -1.36206 0
M  V30 111 C 10.1156 -0.366786 -1.99151 0
M  V30 112 C 10.4436 1.06243 -1.62919 0
M  V30 113 O 9.6986 1.74927 -0.877442 0
M  V30 114 C 9.9976 -0.481501 -3.54142 0
M  V30 115 C 9.6636 -1.87202 -4.10203 0
M  V30 116 C 8.3256 -2.25248 -4.25226 0
M  V30 117 C 10.6776 -2.78237 -4.40719 0
M  V30 118 C 8.0056 -3.53723 -4.68078 0
M  V30 119 C 10.3576 -4.06144 -4.85005 0
M  V30 120 C 9.0216 -4.44207 -4.98234 0
M  V30 121 H 8.2916 -0.134217 -0.728743 0
M  V30 122 H 10.9386 -1.01094 -1.62641 0
M  V30 123 H 9.2436 0.246146 -3.91026 0
M  V30 124 H 10.9406 -0.132844 -4.0078 0
M  V30 125 H 7.5306 -1.56639 -3.98951 0
M  V30 126 H 11.7146 -2.50097 -4.28679 0
M  V30 127 H 6.9706 -3.8308 -4.76508 0
M  V30 128 H 11.1446 -4.76796 -5.07581 0
M  V30 129 H 8.7716 -5.43814 -5.31197 0
M  V30 130 N 10.3467 1.47872 -0.545128 0
M  V30 131 C 11.5927 2.03385 -0.0247951 0
M  V30 132 C 11.9477 1.41325 1.30556 0
M  V30 133 O 11.2407 0.5552 1.8338 0
M  V30 134 C 11.4347 3.57131 0.13867 0
M  V30 135 C 11.2637 4.34097 -1.17429 0
M  V30 136 C 10.0337 4.74458 -1.73831 0
M  V30 137 C 12.2317 4.6998 -2.08861 0
M  V30 138 N 10.2137 5.3602 -2.99258 0
M  V30 139 C 11.5847 5.31719 -3.18866 0
M  V30 140 C 13.6397 4.5191 -2.09003 0
M  V30 141 C 12.3427 5.77295 -4.29096 0
M  V30 142 C 14.3687 4.98477 -3.18237 0
M  V30 143 C 13.7307 5.60253 -4.26961 0
M  V30 144 H 9.8297 0.780339 -0.050943 0
M  V30 145 H 12.4137 1.80507 -0.729753 0
M  V30 146 H 10.5847 3.79802 0.812733 0
M  V30 147 H 12.3167 3.99282 0.659976 0
M  V30 148 H 9.0717 4.56037 -1.2778 0
M  V30 149 H 9.4957 5.71355 -3.63157 0
M  V30 150 H 14.1377 4.03516 -1.26234 0
M  V30 151 H 11.8557 6.24687 -5.12633 0
M  V30 152 H 15.4417 4.86274 -3.1942 0
M  V30 153 H 14.3217 5.95631 -5.10091 0
M  V30 154 N 11.8248 0.280983 1.55075 0
M  V30 155 C 13.0728 -0.333455 1.9933 0
M  V30 156 C 13.3938 -1.55937 1.17085 0
M  V30 157 O 12.6638 -1.94143 0.261805 0
M  V30 158 H 11.2438 -0.126197 0.736263 0
M  V30 159 H 13.9058 0.387678 1.91005 0
M  V30 160 H 13.0018 -0.619292 3.05894 0
M  V30 161 N 13.3029 -1.57598 0.00835791 0
M  V30 162 C 14.5489 -1.91211 -0.675732 0
M  V30 163 C 14.8819 -0.883139 -1.72958 0
M  V30 164 O 14.1569 0.097016 -1.94258 0
M  V30 165 C 14.4399 -3.35379 -1.31123 0
M  V30 166 C 14.2929 -4.48999 -0.268356 0
M  V30 167 C 15.6119 -3.7912 -2.23508 0
M  V30 168 H 12.7309 -0.695374 -0.244179 0
M  V30 169 H 15.3729 -1.89901 0.0613655 0
M  V30 170 H 13.5229 -3.36626 -1.93946 0
M  V30 171 H 15.1949 -4.59887 0.360844 0
M  V30 172 H 13.4379 -4.31873 0.408482 0
M  V30 173 H 14.1089 -5.46851 -0.752218 0
M  V30 174 H 16.5849 -3.79477 -1.70693 0
M  V30 175 H 15.4609 -4.80729 -2.64936 0
M  V30 176 H 15.7219 -3.13455 -3.11766 0
M  V30 177 N 14.781 0.264519 -1.55364 0
M  V30 178 C 15.711 1.33121 -1.91836 0
M  V30 179 C 16.692 1.51101 -0.781192 0
M  V30 180 O 17.877 1.64003 -1.04003 0
M  V30 181 C 15.007 2.68921 -2.19769 0
M  V30 182 C 13.961 2.65661 -3.35571 0
M  V30 183 C 13.287 4.05093 -3.49004 0
M  V30 184 C 14.587 2.24187 -4.71739 0
M  V30 185 H 16.281 1.02844 -2.81182 0
M  V30 186 H 13.827 0.493286 -1.35287 0
M  V30 187 H 15.78 3.43663 -2.43872 0
M  V30 188 H 14.504 3.00799 -1.27231 0
M  V30 189 H 13.163 1.93377 -3.1145 0
M  V30 190 H 12.811 4.34206 -2.53917 0
M  V30 191 H 12.511 4.03804 -4.26868 0
M  V30 192 H 14.035 4.81561 -3.75408 0
M  V30 193 H 15.449 2.88654 -4.9533 0
M  V30 194 H 13.846 2.34044 -5.52579 0
M  V30 195 H 14.916 1.19327 -4.69988 0
M  V30 196 N 16.2591 1.48442 0.529413 0
M  V30 197 C 17.2221 1.62524 1.61612 0
M  V30 198 C 18.2221 0.498509 1.52877 0
M  V30 199 O 19.4121 0.76431 1.56537 0
M  V30 200 C 16.5441 1.59597 3.01233 0
M  V30 201 H 17.7371 2.59423 1.50465 0
M  V30 202 H 15.2901 1.37047 0.751514 0
M  V30 203 H 16.0251 0.641781 3.17886 0
M  V30 204 H 15.8101 2.41397 3.08982 0
M  V30 205 H 17.3001 1.72646 3.80241 0
M  V30 206 N 17.7372 -0.778329 1.37039 0
M  V30 207 C 18.9832 -1.53892 1.32079 0
M  V30 208 C 19.3162 -1.9396 -0.0965386 0
M  V30 209 O 18.5912 -1.63568 -1.05242 0
M  V30 210 C 18.8742 -2.80847 2.25382 0
M  V30 211 C 18.7272 -2.47076 3.75864 0
M  V30 212 C 20.0462 -3.82741 2.1725 0
M  V30 213 H 17.1652 -0.558303 0.48111 0
M  V30 214 H 19.8072 -0.893397 1.67685 0
M  V30 215 H 17.9572 -3.35931 1.95148 0
M  V30 216 H 19.6292 -1.97957 4.16666 0
M  V30 217 H 17.8722 -1.79863 3.94755 0
M  V30 218 H 18.5432 -3.37798 4.36574 0
M  V30 219 H 21.0192 -3.37133 2.43887 0
M  V30 220 H 19.8952 -4.69303 2.84686 0
M  V30 221 H 20.1562 -4.2652 1.16331 0
M  V30 222 N 19.2153 -1.21501 -1.00376 0
M  V30 223 C 20.4623 -1.03299 -1.74171 0
M  V30 224 C 20.7903 0.433326 -1.89612 0
M  V30 225 O 20.0453 1.33779 -1.42834 0
M  V30 226 C 20.3443 -1.67673 -3.15627 0
M  V30 227 C 20.0103 -3.17533 -3.2013 0
M  V30 228 C 18.6723 -3.58427 -3.21067 0
M  V30 229 C 21.0243 -4.13504 -3.17275 0
M  V30 230 C 18.3523 -4.93794 -3.16835 0
M  V30 231 C 20.7043 -5.48834 -3.14585 0
M  V30 232 C 19.3683 -5.89123 -3.13831 0
M  V30 233 H 18.6383 -0.377999 -0.637336 0
M  V30 234 H 21.2853 -1.51111 -1.17634 0
M  V30 235 H 19.5903 -1.12158 -3.75404 0
M  V30 236 H 21.2873 -1.51091 -3.71446 0
M  V30 237 H 17.8773 -2.84965 -3.20145 0
M  V30 238 H 22.0613 -3.82936 -3.15711 0
M  V30 239 H 17.3173 -5.24255 -3.1459 0
M  V30 240 H 21.4913 -6.22934 -3.1133 0
M  V30 241 H 19.1183 -6.93984 -3.10307 0
M  V30 242 N 20.6934 1.19889 -1.02296 0
M  V30 243 C 21.9424 1.88743 -0.711257 0
M  V30 244 C 22.2554 1.80112 0.762817 0
M  V30 245 O 23.4614 2.44161 1.18733 0
M  V30 246 C 21.9174 3.38525 -1.22185 0
M  V30 247 C 21.5254 3.55727 -2.72328 0
M  V30 248 C 23.2694 4.12893 -0.985864 0
M  V30 249 C 21.1764 4.99369 -3.16835 0
M  V30 250 H 20.1064 0.706885 -0.262353 0
M  V30 251 H 22.7574 1.35586 -1.23648 0
M  V30 252 H 21.1394 3.91044 -0.624571 0
M  V30 253 H 22.3134 3.13564 -3.3766 0
M  V30 254 H 20.6284 2.94739 -2.9414 0
M  V30 255 H 23.2254 5.18813 -1.29374 0
M  V30 256 H 23.5684 4.16228 0.0775055 0
M  V30 257 H 24.1014 3.66494 -1.54684 0
M  V30 258 H 20.8404 5.01193 -4.22476 0
M  V30 259 H 20.3604 5.42317 -2.56228 0
M  V30 260 H 22.0394 5.67988 -3.09837 0
M  V30 261 N 22.1715 0.800033 1.35784 0
M  V30 262 C 23.1185 0.203848 2.29898 0
M  V30 263 C 24.0885 -0.658375 1.52495 0
M  V30 264 O 25.2735 -0.604832 1.8096 0
M  V30 265 C 22.4135 -0.64688 3.38983 0
M  V30 266 C 21.5265 0.235054 4.3136 0
M  V30 267 C 20.6615 -0.623054 5.27533 0
M  V30 268 C 19.7005 0.259682 6.11549 0
M  V30 269 N 18.8375 -0.558019 6.99879 0
M  V30 270 H 23.6775 1.01186 2.80295 0
M  V30 271 H 21.2145 0.51053 1.37957 0
M  V30 272 H 23.1725 -1.15521 4.00887 0
M  V30 273 H 21.8025 -1.42021 2.89879 0
M  V30 274 H 20.8545 0.861438 3.70518 0
M  V30 275 H 22.1665 0.914768 4.9034 0
M  V30 276 H 21.3205 -1.19678 5.94779 0
M  V30 277 H 20.0595 -1.33636 4.69034 0
M  V30 278 H 19.0645 0.845726 5.43256 0
M  V30 279 H 20.2895 0.970748 6.72126 0
M  V30 280 H 18.2355 -1.25542 6.43875 0
M  V30 281 H 18.1525 0.0637872 7.55973 0
M  V30 282 H 19.4205 -1.11523 7.71481 0
M  V30 283 N 23.6496 -1.47581 0.552962 0
M  V30 284 C 24.6126 -2.28439 -0.186605 0
M  V30 285 C 25.6126 -1.36706 -0.84665 0
M  V30 286 O 26.8026 -1.59378 -0.703164 0
M  V30 287 C 23.9346 -3.16264 -1.2724 0
M  V30 288 H 25.1276 -2.95294 0.523609 0
M  V30 289 H 22.6806 -1.532 0.309745 0
M  V30 290 H 23.4156 -2.54091 -2.01514 0
M  V30 291 H 23.2006 -3.83769 -0.803968 0
M  V30 292 H 24.6906 -3.77198 -1.79196 0
M  V30 293 N 25.1277 -0.289203 -1.54924 0
M  V30 294 C 26.3737 0.323998 -2.00195 0
M  V30 295 C 26.7067 1.54441 -1.17735 0
M  V30 296 O 25.9817 1.92875 -0.250878 0
M  V30 297 C 26.2647 0.692276 -3.53383 0
M  V30 298 C 26.1177 -0.536457 -4.46589 0
M  V30 299 C 27.4367 1.52335 -4.12895 0
M  V30 300 H 24.5557 0.116289 -0.727768 0
M  V30 301 H 27.1977 -0.398954 -1.85764 0
M  V30 302 H 25.3477 1.30822 -3.65811 0
M  V30 303 H 27.0197 -1.17499 -4.46085 0
M  V30 304 H 25.2627 -1.17192 -4.1767 0
M  V30 305 H 25.9337 -0.234806 -5.515 0
M  V30 306 H 28.4097 1.00302 -4.0383 0
M  V30 307 H 27.2857 1.74982 -5.20262 0
M  V30 308 H 27.5467 2.50886 -3.64018 0
M  V30 309 N 26.6058 1.57591 -0.0167156 0
M  V30 310 C 27.5558 2.05953 0.978137 0
M  V30 311 C 28.5398 0.957532 1.29306 0
M  V30 312 O 29.7318 1.22119 1.28125 0
M  V30 313 C 26.8608 2.58006 2.26468 0
M  V30 314 C 25.9468 3.75113 1.97867 0
M  V30 315 N 26.3378 4.86187 1.39486 0
M  V30 316 C 24.6358 3.83363 2.27924 0
M  V30 317 C 25.3368 5.67502 1.27735 0
M  V30 318 N 24.3128 5.14023 1.76866 0
M  V30 319 H 28.1148 2.89236 0.521522 0
M  V30 320 H 25.6288 1.61301 0.188596 0
M  V30 321 H 27.6258 2.90937 2.98599 0
M  V30 322 H 26.2858 1.76148 2.72767 0
M  V30 323 H 27.2968 5.06695 1.07147 0
M  V30 324 H 23.9738 3.1239 2.76982 0
M  V30 325 H 25.3638 6.66791 0.826978 0
M  V30 326 N 28.0839 -0.256276 1.55502 0
M  V30 327 C 29.3299 -0.987079 1.77157 0
M  V30 328 C 29.6629 -1.85327 0.580315 0
M  V30 329 O 28.9379 -1.89874 -0.421686 0
M  V30 330 C 29.2209 -1.85553 3.08613 0
M  V30 331 C 29.0739 -1.01816 4.38125 0
M  V30 332 C 30.3929 -2.8397 3.36228 0
M  V30 333 H 27.5119 -0.357428 0.644526 0
M  V30 334 H 30.1539 -0.258239 1.88237 0
M  V30 335 H 28.3039 -2.47695 2.99298 0
M  V30 336 H 29.9759 -0.416159 4.59419 0
M  V30 337 H 28.2189 -0.322178 4.32602 0
M  V30 338 H 28.8899 -1.65939 5.26468 0
M  V30 339 H 31.3659 -2.31964 3.45445 0
M  V30 340 H 30.2419 -3.41864 4.29442 0
M  V30 341 H 30.5029 -3.59955 2.56681 0
M  V30 342 N 29.562 -1.4872 -0.521534 0
M  V30 343 C 30.509 -1.63871 -1.62527 0
M  V30 344 C 31.479 -0.480559 -1.58996 0
M  V30 345 O 32.664 -0.705085 -1.77294 0
M  V30 346 C 29.804 -1.69227 -3.00759 0
M  V30 347 C 28.917 -2.96207 -3.14461 0
M  V30 348 C 28.052 -2.92671 -4.43303 0
M  V30 349 C 27.091 -4.14318 -4.50563 0
M  V30 350 N 26.228 -4.0881 -5.70805 0
M  V30 351 H 31.068 -2.58123 -1.48918 0
M  V30 352 H 28.605 -1.28 -0.724878 0
M  V30 353 H 30.563 -1.70314 -3.80853 0
M  V30 354 H 29.193 -0.784586 -3.1312 0
M  V30 355 H 28.245 -3.04826 -2.27564 0
M  V30 356 H 29.557 -3.86192 -3.15686 0
M  V30 357 H 28.711 -2.92206 -5.31696 0
M  V30 358 H 27.45 -2.00429 -4.44612 0
M  V30 359 H 26.455 -4.15049 -3.60575 0
M  V30 360 H 27.68 -5.07729 -4.50986 0
M  V30 361 H 25.626 -3.19394 -5.72995 0
M  V30 362 H 25.543 -4.92509 -5.7356 0
M  V30 363 H 26.811 -4.12418 -6.61462 0
M  V30 364 N 31.0401 0.771051 -1.3745 0
M  V30 365 C 32.0031 1.86598 -1.33093 0
M  V30 366 C 33.0031 1.59076 -0.234845 0
M  V30 367 O 34.1931 1.67145 -0.490732 0
M  V30 368 C 31.3251 3.23747 -1.06773 0
M  V30 369 H 32.5181 1.91873 -2.30488 0
M  V30 370 H 30.0711 0.970876 -1.2249 0
M  V30 371 H 30.8061 3.24148 -0.099129 0
M  V30 372 H 30.5911 3.45115 -1.86112 0
M  V30 373 H 32.0811 4.03824 -1.06377 0
M  V30 374 N 32.5182 1.22032 0.997298 0
M  V30 375 C 33.4502 0.944263 2.08845 0
M  V30 376 C 34.4632 -0.0754663 1.62625 0
M  V30 377 O 35.6522 0.157994 1.77799 0
M  V30 378 C 32.7522 0.397723 3.36558 0
M  V30 379 C 31.9252 1.47362 4.11829 0
M  V30 380 C 30.9842 0.934951 5.17827 0
M  V30 381 O 30.0102 1.62016 5.45655 0
M  V30 382 N 31.2122 -0.245895 5.79979 0
M  V30 383 H 33.9772 1.88363 2.33109 0
M  V30 384 H 31.5382 1.12661 1.16272 0
M  V30 385 H 33.5302 0.0227771 4.04694 0
M  V30 386 H 32.1002 -0.446646 3.09393 0
M  V30 387 H 31.3202 2.02208 3.38386 0
M  V30 388 H 32.6082 2.19764 4.58891 0
M  V30 389 H 32.0062 -0.819475 5.59733 0
M  V30 390 H 30.5632 -0.562272 6.4937 0
M  V30 391 N 33.9963 -1.19345 1.0293 0
M  V30 392 C 34.9063 -2.26245 0.620515 0
M  V30 393 C 35.9223 -1.70486 -0.347928 0
M  V30 394 O 37.0983 -2.00347 -0.205704 0
M  V30 395 C 34.1633 -3.46693 -0.0218957 0
M  V30 396 C 33.2243 -4.17632 0.994102 0
M  V30 397 C 32.4573 -5.32329 0.382253 0
M  V30 398 O 32.6803 -5.64552 -0.814676 0
M  V30 399 O 31.6143 -5.91664 1.10531 0
M  V30 400 H 35.4403 -2.63453 1.51083 0
M  V30 401 H 33.0253 -1.26207 0.799513 0
M  V30 402 H 34.9073 -4.19683 -0.380072 0
M  V30 403 H 33.5823 -3.11333 -0.886209 0
M  V30 404 H 32.4893 -3.4676 1.40387 0
M  V30 405 H 33.8223 -4.56964 1.8288 0
M  V30 406 N 35.4744 -0.807222 -1.35358 0
M  V30 407 C 36.7514 -0.311126 -1.9311 0
M  V30 408 C 37.1314 1.19937 -1.73719 0
M  V30 409 O 36.4794 1.99918 -1.10657 0
M  V30 410 C 36.6894 -0.723226 -3.41424 0
M  V30 411 C 38.0374 -0.713078 -4.18569 0
M  V30 412 O 39.0614 -0.664811 -3.49941 0
M  V30 413 O 37.9204 -0.772022 -5.41019 0
M  V30 414 H 35.0144 -0.081526 -0.822972 0
M  V30 415 H 37.5604 -0.890962 -1.4443 0
M  V30 416 H 36.3324 -1.76426 -3.4927 0
M  V30 417 H 35.9554 -0.118232 -3.97424 0
M  V30 418 N 36.9525 1.47285 -0.560781 0
M  V30 419 C 37.8625 2.33846 0.187954 0
M  V30 420 C 38.8785 1.48412 0.908293 0
M  V30 421 O 40.0545 1.81332 0.876388 0
M  V30 422 C 37.1195 3.25178 1.2025 0
M  V30 423 C 36.1805 4.26504 0.489208 0
M  V30 424 C 35.4135 5.13472 1.45542 0
M  V30 425 O 35.6365 5.02959 2.6905 0
M  V30 426 O 34.5705 5.93902 0.977963 0
M  V30 427 H 38.3965 2.99177 -0.522177 0
M  V30 428 H 35.9815 1.45903 -0.321364 0
M  V30 429 H 37.8635 3.81584 1.78805 0
M  V30 430 H 36.5385 2.6247 1.89449 0
M  V30 431 H 35.4455 3.73847 -0.137627 0
M  V30 432 H 36.7785 4.91935 -0.161399 0
M  V30 433 N 38.4306 0.297415 1.54768 0
M  V30 434 C 39.8466 -0.0560823 1.59501 0
M  V30 435 C 40.0466 -1.52725 1.31444 0
M  V30 436 O 39.1026 -2.27947 1.08611 0
M  V30 437 C 40.4156 0.338631 2.98787 0
M  V30 438 C 41.9636 0.287097 3.11681 0
M  V30 439 C 42.4386 0.656579 4.53269 0
M  V30 440 N 43.9296 0.608977 4.59179 0
M  V30 441 C 44.6646 0.867385 5.66802 0
M  V30 442 N 44.1606 1.19157 6.82476 0
M  V30 443 N 45.9536 0.794687 5.56454 0
M  V30 444 H 38.1046 1.25624 1.71267 0
M  V30 445 H 40.3676 0.509057 0.799728 0
M  V30 446 H 40.0736 1.36263 3.2423 0
M  V30 447 H 39.9476 -0.309508 3.75928 0
M  V30 448 H 42.3346 -0.727649 2.85988 0
M  V30 449 H 42.4156 0.969809 2.36703 0
M  V30 450 H 42.0596 1.66912 4.7969 0
M  V30 451 H 41.9896 -0.0481649 5.26578 0
M  V30 452 H 44.4806 0.369198 3.76092 0
M  V30 453 H 44.7936 1.37482 7.60473 0
M  V30 454 H 43.1386 1.22958 6.84037 0
M  V30 455 H 46.3296 0.541098 4.64962 0
M  V30 456 H 46.5026 0.999445 6.40246 0
M  V30 457 N 39.9087 -1.5758 0.0250728 0
M  V30 458 C 41.1577 -1.90811 -0.653767 0
M  V30 459 C 41.4707 -0.90273 -1.73523 0
M  V30 460 O 42.6767 -1.12614 -2.47043 0
M  V30 461 C 41.1327 -3.38804 -1.21409 0
M  V30 462 C 40.7407 -4.47692 -0.166126 0
M  V30 463 C 42.4847 -3.81108 -1.86967 0
M  V30 464 C 40.3917 -5.86779 -0.737856 0
M  V30 465 H 39.3217 -0.712063 -0.247956 0
M  V30 466 H 41.9727 -1.83281 0.0897137 0
M  V30 467 H 40.3547 -3.41252 -2.00905 0
M  V30 468 H 41.5287 -4.56797 0.606079 0
M  V30 469 H 39.8437 -4.14565 0.390466 0
M  V30 470 H 42.4407 -4.82375 -2.30692 0
M  V30 471 H 42.7837 -3.15953 -2.71071 0
M  V30 472 H 43.3167 -3.81065 -1.14167 0
M  V30 473 H 40.0557 -6.55468 0.0649577 0
M  V30 474 H 39.5757 -5.81288 -1.47864 0
M  V30 475 H 41.2547 -6.35223 -1.22884 0
M  V30 476 N 41.3868 0.248026 -1.55636 0
M  V30 477 C 42.6328 0.97767 -1.77678 0
M  V30 478 C 42.9658 1.85016 -0.590135 0
M  V30 479 O 42.2408 1.90095 0.411611 0
M  V30 480 C 42.5238 1.83914 -3.09593 0
M  V30 481 C 42.3768 0.99491 -4.38659 0
M  V30 482 C 43.6958 2.82183 -3.37729 0
M  V30 483 H 40.8148 0.354005 -0.646413 0
M  V30 484 H 43.4568 0.248253 -1.88371 0
M  V30 485 H 41.6068 2.46104 -3.00608 0
M  V30 486 H 43.2788 0.391789 -4.59633 0
M  V30 487 H 41.5218 0.299231 -4.32767 0
M  V30 488 H 42.1928 1.63145 -5.2734 0
M  V30 489 H 44.6688 2.30129 -3.4667 0
M  V30 490 H 43.5448 3.39582 -4.31249 0
M  V30 491 H 43.8058 3.58588 -2.58586 0
M  V30 492 N 42.8649 1.48995 0.513639 0
M  V30 493 C 43.7949 1.67636 1.62544 0
M  V30 494 C 44.7759 0.525087 1.61793 0
M  V30 495 O 45.9609 0.759502 1.78732 0
M  V30 496 C 43.0909 1.73114 3.01079 0
M  V30 497 C 42.0449 2.87905 3.16693 0
M  V30 498 C 41.3709 2.78486 4.56453 0
M  V30 499 C 42.6709 4.29005 2.97913 0
M  V30 500 H 44.3649 2.60716 1.47198 0
M  V30 501 H 41.9109 1.25465 0.706714 0
M  V30 502 H 43.8639 1.84742 3.78746 0
M  V30 503 H 42.5879 0.766241 3.17484 0
M  V30 504 H 41.2469 2.75859 2.41448 0
M  V30 505 H 40.8949 1.7993 4.69717 0
M  V30 506 H 40.5949 3.55523 4.67843 0
M  V30 507 H 42.1189 2.92104 5.36197 0
M  V30 508 H 43.5329 4.41798 3.65359 0
M  V30 509 H 41.9299 5.07166 3.20785 0
M  V30 510 H 42.9999 4.44329 1.94165 0
M  V30 511 N 44.343 -0.763751 1.37857 0
M  V30 512 C 45.589 -1.52483 1.33704 0
M  V30 513 C 45.922 -1.94051 -0.0759612 0
M  V30 514 O 45.197 -1.64675 -1.03501 0
M  V30 515 C 45.48 -2.78441 2.28348 0
M  V30 516 C 45.333 -2.43075 3.78463 0
M  V30 517 C 46.652 -3.80415 2.21298 0
M  V30 518 H 43.771 -0.553169 0.487005 0
M  V30 519 H 46.413 -0.875562 1.68624 0
M  V30 520 H 44.563 -3.33842 1.987 0
M  V30 521 H 46.235 -1.93527 4.18742 0
M  V30 522 H 44.478 -1.75666 3.96641 0
M  V30 523 H 45.149 -3.33149 4.40132 0
M  V30 524 H 47.625 -3.34527 2.47449 0
M  V30 525 H 46.501 -4.66257 2.89647 0
M  V30 526 H 46.762 -4.25262 1.20849 0
M  V30 527 N 45.8211 -1.22559 -0.990812 0
M  V30 528 C 47.0981 -0.959875 -1.70428 0
M  V30 529 C 47.4781 0.524455 -2.04481 0
M  V30 530 O 46.8261 1.49302 -1.72977 0
M  V30 531 C 47.0361 -1.85955 -2.95333 0
M  V30 532 C 48.3841 -2.11687 -3.68068 0
M  V30 533 O 49.4081 -1.8342 -3.05345 0
M  V30 534 O 48.2671 -2.59572 -4.80921 0
M  V30 535 H 45.3611 -0.361154 -0.743974 0
M  V30 536 H 47.9071 -1.33554 -1.04697 0
M  V30 537 H 46.6791 -2.86346 -2.66687 0
M  V30 538 H 46.3021 -1.4856 -3.68803 0
M  V30 539 N 47.2992 1.18797 -1.03562 0
M  V30 540 C 48.2472 2.24297 -0.615905 0
M  V30 541 C 49.2412 1.65643 0.354808 0
M  V30 542 O 50.4472 1.78618 0.22265 0
M  V30 543 H 46.8222 0.729909 -0.180934 0
M  V30 544 H 48.7932 2.5701 -1.5162 0
M  V30 545 C 47.5422 3.47698 0.0104735 0
M  V30 546 H 46.8652 3.93125 -0.727509 0
M  V30 547 H 48.3052 4.23159 0.266995 0
M  V30 548 C 46.7642 3.12489 1.25905 0
M  V30 549 O 47.2942 3.25761 2.35038 0
M  V30 550 N 45.5002 2.6686 1.15039 0
M  V30 551 H 45.0472 2.56261 0.262328 0
M  V30 552 H 45.0052 2.43674 1.98672 0
M  V30 553 N 48.7773 0.814389 1.34928 0
M  V30 554 C 49.7243 0.22822 2.29669 0
M  V30 555 C 50.6943 -0.642164 1.53184 0
M  V30 556 O 51.8793 -0.585605 1.81591 0
M  V30 557 C 49.0193 -0.61089 3.3965 0
M  V30 558 C 48.1323 0.280792 4.31086 0
M  V30 559 C 47.2673 -0.567067 5.28165 0
M  V30 560 C 46.3063 0.324531 6.11239 0
M  V30 561 N 45.4433 -0.483756 7.00431 0
M  V30 562 H 50.2833 1.04153 2.79206 0
M  V30 563 H 47.8203 0.525133 1.37407 0
M  V30 564 H 49.7783 -1.11263 4.0209 0
M  V30 565 H 48.4083 -1.38939 2.91369 0
M  V30 566 H 47.4603 0.900688 3.69583 0
M  V30 567 H 48.7723 0.966723 4.89342 0
M  V30 568 H 47.9263 -1.13363 5.96015 0
M  V30 569 H 46.6653 -1.28654 4.70425 0
M  V30 570 H 45.6703 0.903298 5.42329 0
M  V30 571 H 46.8953 1.04198 6.71059 0
M  V30 572 H 44.8413 -1.18706 6.45171 0
M  V30 573 H 44.7583 0.143965 7.55863 0
M  V30 574 H 46.0263 -1.03334 7.7262 0
M  V30 575 N 50.2554 -1.46986 0.568584 0
M  V30 576 C 51.4954 -2.04336 0.0512999 0
M  V30 577 C 51.8594 -1.43214 -1.27881 0
M  V30 578 O 53.0604 -1.91679 -1.88448 0
M  V30 579 C 51.3314 -3.57389 -0.0282328 0
M  V30 580 S 52.8904 -4.36056 -0.489991 0
M  V30 581 H 49.7084 -0.71034 0.0306349 0
M  V30 582 H 52.3104 -1.80212 0.757891 0
M  V30 583 H 51.0144 -3.99395 0.944011 0
M  V30 584 H 50.5454 -3.86028 -0.75803 0
M  V30 585 H 52.5604 -4.6441 -1.74752 0
M  V30 586 N 51.7335 -0.305618 -1.54608 0
M  V30 587 C 52.6805 0.568421 -2.23691 0
M  V30 588 C 53.6505 1.12592 -1.22116 0
M  V30 589 O 54.8355 1.16959 -1.50749 0
M  V30 590 C 51.9755 1.7322 -2.98477 0
M  V30 591 C 51.0885 1.20566 -4.14835 0
M  V30 592 C 50.2235 2.33368 -4.77193 0
M  V30 593 C 49.2625 1.7787 -5.85686 0
M  V30 594 N 48.3995 2.84263 -6.4198 0
M  V30 595 H 53.2395 -0.0272867 -2.97988 0
M  V30 596 H 50.7765 -0.0252363 -1.47078 0
M  V30 597 H 52.7345 2.41675 -3.40072 0
M  V30 598 H 51.3645 2.29947 -2.26548 0
M  V30 599 H 50.4165 0.413223 -3.78149 0
M  V30 600 H 51.7285 0.759417 -4.92985 0
M  V30 601 H 50.8825 3.09761 -5.21664 0
M  V30 602 H 49.6215 2.8132 -3.98385 0
M  V30 603 H 48.6265 0.99968 -5.40635 0
M  V30 604 H 49.8515 1.30816 -6.66381 0
M  V30 605 H 47.7975 3.31541 -5.66053 0
M  V30 606 H 47.7145 2.44149 -7.15491 0
M  V30 607 H 48.9825 3.6054 -6.91109 0
M  V30 608 N 53.2116 1.57565 -0.0334293 0
M  V30 609 C 54.4516 1.93844 0.648379 0
M  V30 610 C 54.8156 0.910387 1.69044 0
M  V30 611 O 56.0166 1.15952 2.42505 0
M  V30 612 C 54.2876 3.35017 1.24492 0
M  V30 613 S 55.8466 3.93229 1.94721 0
M  V30 614 H 52.6646 0.678231 0.213364 0
M  V30 615 H 55.2666 1.95254 -0.0981253 0
M  V30 616 H 53.9706 4.07652 0.474128 0
M  V30 617 H 53.5016 3.37061 2.02864 0
M  V30 618 H 55.5166 3.77014 3.22606 0
M  V30 619 N 54.6897 -0.239769 1.55765 0
M  V30 620 C 55.6527 -1.28038 1.90103 0
M  V30 621 C 56.6527 -1.40723 0.778055 0
M  V30 622 O 57.8427 -1.39301 1.04599 0
M  V30 623 C 54.9747 -2.65702 2.13577 0
M  V30 624 H 56.1677 -0.988048 2.83157 0
M  V30 625 H 53.7207 -0.479382 1.48767 0
M  V30 626 H 54.4557 -3.00063 1.23015 0
M  V30 627 H 54.2407 -2.57875 2.95369 0
M  V30 628 H 55.7307 -3.40828 2.41301 0
M  V30 629 N 56.1678 -1.49265 -0.50573 0
M  V30 630 C 57.5838 -1.35923 -0.836486 0
M  V30 631 C 57.7838 -0.388704 -1.97715 0
M  V30 632 O 56.8398 0.181336 -2.51848 0
M  V30 633 C 58.1528 -2.76531 -1.18115 0
M  V30 634 C 59.7008 -2.85197 -1.28964 0
M  V30 635 C 60.1758 -4.26561 -1.66761 0
M  V30 636 N 61.6668 -4.2935 -1.73819 0
M  V30 637 C 62.4018 -5.35693 -2.045 0
M  V30 638 N 61.8978 -6.52287 -2.33438 0
M  V30 639 N 63.6908 -5.23105 -2.05711 0
M  V30 640 H 55.8418 -2.10965 0.246519 0
M  V30 641 H 58.1048 -0.9468 0.0476887 0
M  V30 642 H 57.8108 -3.49226 -0.416398 0
M  V30 643 H 57.6848 -3.11599 -2.1257 0
M  V30 644 H 60.0718 -2.12742 -2.04511 0
M  V30 645 H 60.1528 -2.53718 -0.325704 0
M  V30 646 H 59.7968 -4.99541 -0.917656 0
M  V30 647 H 59.7268 -4.55502 -2.64246 0
M  V30 648 H 62.2178 -3.4526 -1.53635 0
M  V30 649 H 62.5308 -7.29158 -2.56024 0
M  V30 650 H 60.8758 -6.55521 -2.30905 0
M  V30 651 H 64.0668 -4.31026 -1.82577 0
M  V30 652 H 64.2398 -6.06078 -2.29289 0
M  V30 653 N 57.6459 0.756429 -1.3826 0
M  V30 654 C 58.8949 1.51082 -1.3363 0
M  V30 655 C 59.2079 1.95467 0.0720068 0
M  V30 656 O 60.4139 2.7043 0.240834 0
M  V30 657 C 58.8699 2.72893 -2.34644 0
M  V30 658 C 58.4779 2.35544 -3.81081 0
M  V30 659 C 60.2219 3.50791 -2.39052 0
M  V30 660 C 58.1289 3.53948 -4.73787 0
M  V30 661 H 57.0589 0.56727 -0.49671 0
M  V30 662 H 59.7099 0.827147 -1.638 0
M  V30 663 H 58.0919 3.43227 -1.97513 0
M  V30 664 H 59.2659 1.72894 -4.27135 0
M  V30 665 H 57.5809 1.70786 -3.79764 0
M  V30 666 H 60.1779 4.38823 -3.05513 0
M  V30 667 H 60.5209 3.91745 -1.40861 0
M  V30 668 H 61.0539 2.87467 -2.74968 0
M  V30 669 H 57.7929 3.18064 -5.73163 0
M  V30 670 H 57.3129 4.15651 -4.32428 0
M  V30 671 H 58.9919 4.20566 -4.91663 0
M  V30 672 N 59.124 1.23083 0.984299 0
M  V30 673 C 60.352 1.08714 1.76037 0
M  V30 674 C 60.767 -0.361691 1.85303 0
M  V30 675 O 60.124 -1.25034 1.32939 0
M  V30 676 C 60.175 1.70206 3.18923 0
M  V30 677 O 59.896 3.09423 3.10144 0
M  V30 678 C 61.397 1.61227 4.12941 0
M  V30 679 H 58.617 0.380664 0.552572 0
M  V30 680 H 61.161 1.62853 1.23689 0
M  V30 681 H 59.316 1.20109 3.6831 0
M  V30 682 H 59.73 3.39188 4.00065 0
M  V30 683 H 61.204 2.08962 5.10919 0
M  V30 684 H 61.681 0.570375 4.35481 0
M  V30 685 H 62.287 2.10671 3.69456 0
M  V30 686 N 60.6021 -1.18246 1.0419 0
M  V30 687 C 61.8271 -1.92736 0.765996 0
M  V30 688 C 62.2521 -1.75728 -0.67091 0
M  V30 689 O 61.6101 -1.06825 -1.46486 0
M  V30 690 C 61.6581 -3.42148 1.13875 0
M  V30 691 O 60.7621 -4.11548 0.264954 0
M  V30 692 H 60.1031 -0.601238 0.281797 0
M  V30 693 H 62.6331 -1.49942 1.39207 0
M  V30 694 H 62.6431 -3.92858 1.1012 0
M  V30 695 H 61.3181 -3.53848 2.18551 0
M  V30 696 H 59.8951 -3.71137 0.362226 0
M  V30 697 N 62.0802 -0.821533 -1.34494 0
M  V30 698 C 63.4962 -0.507117 -1.51329 0
M  V30 699 C 63.6962 0.968964 -1.76673 0
M  V30 700 O 62.7522 1.75348 -1.81685 0
M  V30 701 C 64.0652 -1.36544 -2.67911 0
M  V30 702 C 65.6132 -1.36242 -2.81793 0
M  V30 703 C 66.0882 -2.2052 -4.01416 0
M  V30 704 N 67.5792 -2.18136 -4.08621 0
M  V30 705 C 68.3142 -2.80095 -5.00334 0
M  V30 706 N 67.8102 -3.51039 -5.9728 0
M  V30 707 N 69.6032 -2.69656 -4.93196 0
M  V30 708 H 61.7542 -1.77729 -1.16302 0
M  V30 709 H 64.0172 -0.757291 -0.570276 0
M  V30 710 H 63.7232 -2.41361 -2.55808 0
M  V30 711 H 63.5972 -1.02917 -3.62888 0
M  V30 712 H 65.9842 -0.322041 -2.93338 0
M  V30 713 H 66.0652 -1.73866 -1.87628 0
M  V30 714 H 65.7092 -3.24607 -3.90631 0
M  V30 715 H 65.6392 -1.80247 -4.94791 0
M  V30 716 H 68.1302 -1.6653 -3.39229 0
M  V30 717 H 68.4432 -3.95565 -6.63889 0
M  V30 718 H 66.7882 -3.55145 -5.97409 0
M  V30 719 H 69.9792 -2.13808 -4.16418 0
M  V30 720 H 70.1522 -3.1823 -5.64476 0
M  V30 721 N 63.5583 1.46682 -0.576371 0
M  V30 722 C 64.8073 2.01619 -0.0572825 0
M  V30 723 C 65.1203 1.45417 1.30818 0
M  V30 724 O 66.3263 1.92133 1.91825 0
M  V30 725 C 64.7823 3.59863 -0.0518371 0
M  V30 726 C 64.3903 4.25059 -1.41523 0
M  V30 727 C 66.1343 4.2248 0.413639 0
M  V30 728 C 64.0413 5.75364 -1.36785 0
M  V30 729 H 62.9713 0.753794 -0.0176448 0
M  V30 730 H 65.6223 1.68481 -0.727076 0
M  V30 731 H 64.0043 3.90048 0.683994 0
M  V30 732 H 65.1783 4.06491 -2.17029 0
M  V30 733 H 63.4933 3.7451 -1.8202 0
M  V30 734 H 66.0903 5.3265 0.467779 0
M  V30 735 H 66.4333 3.90976 1.42982 0
M  V30 736 H 66.9663 3.96897 -0.267929 0
M  V30 737 H 63.7053 6.11518 -2.36063 0
M  V30 738 H 63.2253 5.96214 -0.654895 0
M  V30 739 H 64.9043 6.37955 -1.07805 0
M  V30 740 N 65.0364 0.313813 1.54444 0
M  V30 741 C 66.2854 -0.292519 1.99568 0
M  V30 742 C 66.5984 -1.54011 1.20582 0
M  V30 743 O 67.8044 -2.22183 1.56035 0
M  V30 744 C 66.2604 -0.571752 3.55329 0
M  V30 745 C 65.8684 0.658229 4.43138 0
M  V30 746 C 67.6124 -1.13857 4.08946 0
M  V30 747 C 65.5194 0.351439 5.90355 0
M  V30 748 H 64.4494 -0.113079 0.745472 0
M  V30 749 H 67.1004 0.424518 1.78522 0
M  V30 750 H 65.4824 -1.34872 3.72325 0
M  V30 751 H 66.6564 1.43403 4.37918 0
M  V30 752 H 64.9714 1.14458 4.0036 0
M  V30 753 H 67.5684 -1.38257 5.16516 0
M  V30 754 H 67.9114 -2.08489 3.6033 0
M  V30 755 H 68.4444 -0.423015 3.95544 0
M  V30 756 H 65.1834 1.26667 6.43145 0
M  V30 757 H 64.7034 -0.386842 5.98551 0
M  V30 758 H 66.3824 -0.0423134 6.46986 0
M  V30 759 N 66.5145 -1.57545 0.0417849 0
M  V30 760 C 67.9305 -1.56467 -0.314704 0
M  V30 761 C 68.1305 -1.04859 -1.72066 0
M  V30 762 O 67.1865 -0.700983 -2.42575 0
M  V30 763 C 68.4995 -3.00317 -0.15174 0
M  V30 764 C 70.0475 -3.12201 -0.223553 0
M  V30 765 C 70.5225 -4.57913 -0.0892295 0
M  V30 766 N 72.0135 -4.6297 -0.145808 0
M  V30 767 C 72.7485 -5.73362 -0.0658459 0
M  V30 768 N 72.2445 -6.92769 0.0659282 0
M  V30 769 N 74.0375 -5.6197 -0.12075 0
M  V30 770 H 66.1885 -1.89416 0.961014 0
M  V30 771 H 68.4515 -0.871862 0.372237 0
M  V30 772 H 68.1575 -3.42073 0.817254 0
M  V30 773 H 68.0315 -3.65892 -0.916692 0
M  V30 774 H 70.4185 -2.70349 -1.18301 0
M  V30 775 H 70.4995 -2.49323 0.571994 0
M  V30 776 H 70.1435 -5.00448 0.866867 0
M  V30 777 H 70.0735 -5.18786 -0.903802 0
M  V30 778 H 72.5645 -3.7709 -0.247286 0
M  V30 779 H 72.8775 -7.72707 0.119905 0
M  V30 780 H 71.2225 -6.94927 0.100885 0
M  V30 781 H 74.4135 -4.67572 -0.222187 0
M  V30 782 H 74.5865 -6.47977 -0.0549735 0
M  V30 783 N 67.9926 0.231505 -1.5589 0
M  V30 784 C 69.2176 0.978689 -1.82856 0
M  V30 785 C 69.6426 1.77559 -0.620846 0
M  V30 786 O 69.0006 1.76119 0.430305 0
M  V30 787 C 69.0486 1.87997 -3.07716 0
M  V30 788 O 68.1526 2.97393 -2.85712 0
M  V30 789 H 67.4936 0.277663 -0.603158 0
M  V30 790 H 70.0236 0.24783 -2.03093 0
M  V30 791 H 70.0336 2.2917 -3.37558 0
M  V30 792 H 68.7086 1.29417 -3.95252 0
M  V30 793 H 67.2856 2.60238 -2.67078 0
M  V30 794 N 69.4707 1.49531 0.497807 0
M  V30 795 C 70.6957 1.63159 1.28039 0
M  V30 796 C 71.1207 0.30418 1.85624 0
M  V30 797 O 70.4787 -0.728618 1.66015 0
M  V30 798 C 70.5267 2.70537 2.38416 0
M  V30 799 O 69.6307 2.29931 3.42353 0
M  V30 800 H 68.9717 0.546001 0.377861 0
M  V30 801 H 71.5017 1.9574 0.59558 0
M  V30 802 H 71.5117 2.92802 2.84132 0
M  V30 803 H 70.1867 3.6689 1.95869 0
M  V30 804 H 68.7637 2.18009 3.02533 0
M  V30 805 N 70.9488 -0.749086 1.3866 0
M  V30 806 C 71.8588 -1.89358 1.38494 0
M  V30 807 C 72.8748 -1.71708 0.281476 0
M  V30 808 O 74.0508 -1.94554 0.520643 0
M  V30 809 C 71.1158 -3.24782 1.21316 0
M  V30 810 C 70.1768 -3.54926 2.41508 0
M  V30 811 C 69.4098 -4.83888 2.2514 0
M  V30 812 O 69.6328 -5.56592 1.24746 0
M  V30 813 O 68.5668 -5.13612 3.13826 0
M  V30 814 H 72.3928 -1.92452 2.34938 0
M  V30 815 H 69.9778 -0.894981 1.19626 0
M  V30 816 H 71.8598 -4.05739 1.13814 0
M  V30 817 H 70.5348 -3.2249 0.279592 0
M  V30 818 H 69.4418 -2.74112 2.54585 0
M  V30 819 H 70.7748 -3.61983 3.3351 0
M  V30 820 N 72.4269 -1.23603 -0.977757 0
M  V30 821 C 73.7039 -0.977897 -1.69401 0
M  V30 822 C 74.0839 0.502738 -2.05026 0
M  V30 823 O 73.4319 1.47459 -1.74551 0
M  V30 824 C 73.6419 -1.89077 -2.93345 0
M  V30 825 C 74.9899 -2.15579 -3.65802 0
M  V30 826 O 76.0139 -1.86648 -3.03383 0
M  V30 827 O 74.8729 -2.64658 -4.78141 0
M  V30 828 H 71.9669 -0.369025 -0.740101 0
M  V30 829 H 74.5129 -1.34657 -1.03274 0
M  V30 830 H 73.2849 -2.89158 -2.63634 0
M  V30 831 H 72.9079 -1.52463 -3.67207 0
M  V30 832 N 73.905 1.17692 -1.04816 0
M  V30 833 C 75.316 1.69501 -0.782698 0
M  V30 834 C 75.667 1.83456 0.695577 0
M  V30 835 O 74.792 1.51942 1.54086 0
M  V30 836 C 75.387 3.07874 -1.41419 0
M  V30 837 C 73.946 3.56864 -1.19686 0
M  V30 838 C 73.093 2.3322 -1.50012 0
M  V30 839 H 76.044 1.02262 -1.2136 0
M  V30 840 H 76.065 3.71528 -0.821428 0
M  V30 841 H 75.577 2.97685 -2.49009 0
M  V30 842 H 73.678 3.72337 -0.140043 0
M  V30 843 H 73.791 4.39851 -1.89916 0
M  V30 844 H 72.155 2.37501 -0.920071 0
M  V30 845 H 72.938 2.25644 -2.58727 0
M  V30 846 N 75.3831 0.828654 1.34056 0
M  V30 847 C 76.3311 0.242973 2.31327 0
M  V30 848 C 77.3251 -0.61944 1.57668 0
M  V30 849 O 78.5311 -0.51014 1.7262 0
M  V30 850 H 74.9061 0.059834 0.749616 0
M  V30 851 H 76.8771 1.07809 2.78244 0
M  V30 852 C 75.6261 -0.575733 3.429 0
M  V30 853 H 74.9491 0.0785582 3.99723 0
M  V30 854 H 76.3891 -0.951547 4.13185 0
M  V30 855 C 74.8481 -1.75044 2.87856 0
M  V30 856 O 75.3781 -2.84882 2.83205 0
M  V30 857 N 73.5841 -1.56903 2.44602 0
M  V30 858 H 73.1311 -0.675547 2.48584 0
M  V30 859 H 73.0891 -2.35652 2.08124 0
M  V30 860 N 76.8612 -1.46375 0.584142 0
M  V30 861 C 77.7712 -2.34115 -0.150728 0
M  V30 862 C 78.7872 -1.49838 -0.884567 0
M  V30 863 O 79.9632 -1.82704 -0.847429 0
M  V30 864 C 77.0282 -3.2705 -1.15062 0
M  V30 865 C 76.0892 -4.27228 -0.421293 0
M  V30 866 C 75.3222 -5.15722 -1.37355 0
M  V30 867 O 75.5452 -5.07176 -2.61014 0
M  V30 868 O 74.4792 -5.95383 -0.883355 0
M  V30 869 H 78.3052 -2.98309 0.569708 0
M  V30 870 H 75.8902 -1.45373 0.344535 0
M  V30 871 H 77.7722 -3.84381 -1.72712 0
M  V30 872 H 76.4472 -2.65451 -1.8525 0
M  V30 873 H 75.3542 -3.7358 0.197085 0
M  V30 874 H 76.6872 -4.91616 0.239641 0
M  V30 875 N 78.3393 -0.321999 -1.54275 0
M  V30 876 C 79.6163 0.335232 -1.92706 0
M  V30 877 C 79.9963 1.70006 -1.25145 0
M  V30 878 O 79.3443 2.25067 -0.394596 0
M  V30 879 C 79.5543 0.429008 -3.46353 0
M  V30 880 C 80.9023 0.690029 -4.18956 0
M  V30 881 O 81.9263 0.511992 -3.52501 0
M  V30 882 O 80.7853 1.03338 -5.36641 0
M  V30 883 H 77.8793 0.191143 -0.804608 0
M  V30 884 H 80.4253 -0.3716 -1.65581 0
M  V30 885 H 79.1973 -0.529611 -3.87699 0
M  V30 886 H 78.8203 1.18348 -3.79578 0
M  V30 887 N 79.8174 1.5752 -0.0501392 0
M  V30 888 C 81.0664 1.91827 0.623328 0
M  V30 889 C 81.3794 0.930222 1.72065 0
M  V30 890 O 82.5854 1.1653 2.4522 0
M  V30 891 C 81.0414 3.40692 1.16003 0
M  V30 892 C 80.6494 4.479 0.0948811 0
M  V30 893 C 82.3934 3.84034 1.80881 0
M  V30 894 C 80.3004 5.87879 0.644411 0
M  V30 895 H 79.2304 0.715918 0.236596 0
M  V30 896 H 81.8814 1.83115 -0.118861 0
M  V30 897 H 80.2634 3.44405 1.9545 0
M  V30 898 H 81.4374 4.55775 -0.678675 0
M  V30 899 H 79.7524 4.13892 -0.45637 0
M  V30 900 H 82.3494 4.85984 2.22988 0
M  V30 901 H 82.6924 3.20225 2.6601 0
M  V30 902 H 83.2254 3.82833 1.0809 0
M  V30 903 H 79.9644 6.55282 -0.169229 0
M  V30 904 H 79.4844 5.83567 1.38598 0
M  V30 905 H 81.1634 6.37098 1.12763 0
M  V30 906 N 81.2955 -0.223234 1.56011 0
M  V30 907 C 82.5415 -0.949279 1.79211 0
M  V30 908 C 82.8745 -1.84054 0.619494 0
M  V30 909 O 82.1495 -1.90726 -0.381317 0
M  V30 910 C 82.4325 -1.78965 3.12479 0
M  V30 911 C 82.2855 -0.924997 4.40186 0
M  V30 912 C 83.6045 -2.76774 3.42175 0
M  V30 913 H 80.7235 -0.343676 0.651963 0
M  V30 914 H 83.3655 -0.218253 1.88742 0
M  V30 915 H 81.5155 -2.41291 3.04485 0
M  V30 916 H 83.1875 -0.318615 4.60198 0
M  V30 917 H 81.4305 -0.230344 4.33188 0
M  V30 918 H 82.1015 -1.54735 5.29869 0
M  V30 919 H 84.5775 -2.24584 3.50287 0
M  V30 920 H 83.4535 -3.32678 4.36597 0
M  V30 921 H 83.7145 -3.54429 2.64258 0
M  V30 922 N 82.7736 -1.49793 -0.48987 0
M  V30 923 C 83.6836 -1.70036 -1.61632 0
M  V30 924 C 84.6996 -0.583102 -1.63939 0
M  V30 925 O 85.8756 -0.859169 -1.82154 0
M  V30 926 C 82.9406 -1.77277 -2.97949 0
M  V30 927 C 82.0016 -3.00918 -3.06181 0
M  V30 928 C 81.2346 -3.07804 -4.35996 0
M  V30 929 O 81.4576 -2.21982 -5.25433 0
M  V30 930 O 80.3916 -4.00369 -4.49431 0
M  V30 931 H 84.2176 -2.65486 -1.47482 0
M  V30 932 H 81.8026 -1.33666 -0.667362 0
M  V30 933 H 83.6846 -1.84329 -3.78947 0
M  V30 934 H 82.3596 -0.850076 -3.12339 0
M  V30 935 H 81.2666 -2.99377 -2.2433 0
M  V30 936 H 82.5996 -3.92704 -2.96723 0
M  V30 937 N 84.2517 0.741722 -1.39055 0
M  V30 938 C 85.6677 1.04638 -1.20512 0
M  V30 939 C 85.8677 2.01405 -0.0620218 0
M  V30 940 O 84.9237 2.45547 0.588457 0
M  V30 941 C 86.2367 1.6151 -2.53643 0
M  V30 942 C 87.7847 1.73623 -2.6043 0
M  V30 943 C 88.2597 2.33906 -3.93767 0
M  V30 944 N 89.7507 2.41323 -3.9537 0
M  V30 945 C 90.4857 2.88888 -4.95309 0
M  V30 946 N 89.9817 3.36401 -6.05645 0
M  V30 947 N 91.7747 2.88037 -4.82692 0
M  V30 948 H 83.9257 0.0998155 -2.12165 0
M  V30 949 H 86.1887 0.106907 -0.941953 0
M  V30 950 H 85.8947 0.978739 -3.37807 0
M  V30 951 H 85.7687 2.60411 -2.72885 0
M  V30 952 H 88.1557 2.36384 -1.76655 0
M  V30 953 H 88.2367 0.733945 -2.45045 0
M  V30 954 H 87.8807 1.71776 -4.7797 0
M  V30 955 H 87.8107 3.34799 -4.06469 0
M  V30 956 H 90.3017 2.07734 -3.15682 0
M  V30 957 H 90.6147 3.71186 -6.77821 0
M  V30 958 H 88.9597 3.34427 -6.09248 0
M  V30 959 H 92.1507 2.50237 -3.95599 0
M  V30 960 H 92.3237 3.24792 -5.60726 0
M  V30 961 N 85.7298 1.2412 0.971189 0
M  V30 962 C 86.6778 1.02812 2.08644 0
M  V30 963 C 87.6718 -0.0358403 1.69362 0
M  V30 964 O 88.8778 0.118429 1.7961 0
M  V30 965 H 85.2528 0.315428 0.682649 0
M  V30 966 H 87.2238 1.97397 2.23779 0
M  V30 967 C 85.9728 0.645874 3.41649 0
M  V30 968 H 85.2958 1.45632 3.72332 0
M  V30 969 H 86.7358 0.536366 4.20594 0
M  V30 970 C 85.1948 -0.646713 3.30635 0
M  V30 971 O 85.7248 -1.69338 3.64263 0
M  V30 972 N 83.9308 -0.626115 2.83775 0
M  V30 973 H 83.4778 0.225988 2.56607 0
M  V30 974 H 83.4358 -1.49117 2.76788 0
M  V30 975 N 87.2079 -1.17134 1.05439 0
M  V30 976 C 88.4569 -1.86791 0.761049 0
M  V30 977 C 88.7699 -1.82072 -0.714795 0
M  V30 978 O 89.9759 -2.47223 -1.12218 0
M  V30 979 C 88.4319 -3.35166 1.31117 0
M  V30 980 C 88.0399 -3.48381 2.81664 0
M  V30 981 C 89.7839 -4.10134 1.09499 0
M  V30 982 C 87.6909 -4.90793 3.29964 0
M  V30 983 H 86.6209 -0.699681 0.281002 0
M  V30 984 H 89.2719 -1.3226 1.27199 0
M  V30 985 H 87.6539 -3.8925 0.72803 0
M  V30 986 H 88.8279 -3.04502 3.45855 0
M  V30 987 H 87.1429 -2.86836 3.01851 0
M  V30 988 H 89.7399 -5.152 1.43084 0
M  V30 989 H 90.0829 -4.16287 0.0328772 0
M  V30 990 H 90.6159 -3.62264 1.64346 0
M  V30 991 H 87.3549 -4.89816 4.35616 0
M  V30 992 H 86.8749 -5.35333 2.70516 0
M  V30 993 H 88.5539 -5.59573 3.24787 0
M  V30 994 N 88.686 -0.835752 -1.33615 0
M  V30 995 C 90.102 -0.523139 -1.50783 0
M  V30 996 C 90.302 0.950171 -1.77691 0
M  V30 997 O 89.358 1.73411 -1.83534 0
M  V30 998 C 90.671 -1.39378 -2.66448 0
M  V30 999 C 92.219 -1.39223 -2.80332 0
M  V30 1000 C 92.694 -2.24765 -3.99055 0
M  V30 1001 N 94.185 -2.22458 -4.06284 0
M  V30 1002 C 94.92 -2.85386 -4.97336 0
M  V30 1003 N 94.416 -3.57354 -5.93523 0
M  V30 1004 N 96.209 -2.74872 -4.90308 0
M  V30 1005 H 88.36 -1.78952 -1.14411 0
M  V30 1006 H 90.623 -0.763297 -0.562212 0
M  V30 1007 H 90.329 -2.44061 -2.53234 0
M  V30 1008 H 90.203 -1.0676 -3.61776 0
M  V30 1009 H 92.59 -0.353136 -2.92979 0
M  V30 1010 H 92.671 -1.75846 -1.85773 0
M  V30 1011 H 92.315 -3.28732 -3.87167 0
M  V30 1012 H 92.245 -1.85485 -4.92852 0
M  V30 1013 H 94.736 -1.70119 -3.37443 0
M  V30 1014 H 95.049 -4.02584 -6.59656 0
M  V30 1015 H 93.394 -3.61461 -5.93608 0
M  V30 1016 H 96.585 -2.18213 -4.14126 0
M  V30 1017 H 96.758 -3.24199 -5.61069 0
M  V30 1018 N 90.1641 1.46063 -0.591896 0
M  V30 1019 C 91.4131 2.01547 -0.0786637 0
M  V30 1020 C 91.7261 1.46796 1.29268 0
M  V30 1021 O 92.9321 1.94157 1.89777 0
M  V30 1022 C 91.3881 3.59787 -0.0900024 0
M  V30 1023 C 90.9961 4.23534 -1.46023 0
M  V30 1024 C 92.7401 4.22895 0.368806 0
M  V30 1025 C 90.6471 5.73881 -1.4288 0
M  V30 1026 H 89.5771 0.753564 -0.0256388 0
M  V30 1027 H 92.2281 1.677 -0.744905 0
M  V30 1028 H 90.6101 3.90752 0.642586 0
M  V30 1029 H 91.7841 4.04167 -2.21328 0
M  V30 1030 H 90.0991 3.72558 -1.85982 0
M  V30 1031 H 92.6961 5.33116 0.411258 0
M  V30 1032 H 93.0391 3.9247 1.38827 0
M  V30 1033 H 93.5721 3.9659 -0.31001 0
M  V30 1034 H 90.3111 6.0898 -2.42536 0
M  V30 1035 H 89.8311 5.95486 -0.718095 0
M  V30 1036 H 91.5101 6.36776 -1.14565 0
M  V30 1037 N 91.6422 0.330177 1.54103 0
M  V30 1038 C 92.8912 -0.271336 1.99867 0
M  V30 1039 C 93.2042 -1.52723 1.22209 0
M  V30 1040 O 94.4102 -2.20515 1.58383 0
M  V30 1041 C 92.8662 -0.534032 3.55916 0
M  V30 1042 C 92.4742 0.705193 4.42415 0
M  V30 1043 C 94.2182 -1.09514 4.1013 0
M  V30 1044 C 92.1252 0.414035 5.89949 0
M  V30 1045 H 91.0552 -0.105166 0.74663 0
M  V30 1046 H 93.7062 0.443429 1.78062 0
M  V30 1047 H 92.0882 -1.30915 3.73734 0
M  V30 1048 H 93.2622 1.4804 4.36372 0
M  V30 1049 H 91.5772 1.18698 3.99124 0
M  V30 1050 H 94.1742 -1.3277 5.17954 0
M  V30 1051 H 94.5172 -2.04656 3.62521 0
M  V30 1052 H 95.0502 -0.381038 3.95971 0
M  V30 1053 H 91.7892 1.33481 6.41766 0
M  V30 1054 H 91.3092 -0.323336 5.98928 0
M  V30 1055 H 92.9882 0.0263105 6.46995 0
M  V30 1056 N 93.1203 -1.57491 0.0584922 0
M  V30 1057 C 94.3663 -1.93264 -0.614558 0
M  V30 1058 C 94.6993 -0.937717 -1.7006 0
M  V30 1059 O 93.9743 0.0351652 -1.94468 0
M  V30 1060 C 94.2573 -3.3938 -1.20386 0
M  V30 1061 C 94.1103 -4.49625 -0.125375 0
M  V30 1062 C 95.4293 -3.86039 -2.11334 0
M  V30 1063 H 92.5483 -0.702791 -0.221933 0
M  V30 1064 H 95.1903 -1.8961 0.12175 0
M  V30 1065 H 93.3403 -3.42626 -1.83139 0
M  V30 1066 H 95.0123 -4.58506 0.506971 0
M  V30 1067 H 93.2553 -4.30354 0.545672 0
M  V30 1068 H 93.9263 -5.48967 -0.577861 0
M  V30 1069 H 96.4023 -3.84716 -1.58534 0
M  V30 1070 H 95.2783 -4.88914 -2.49507 0
M  V30 1071 H 95.5393 -3.23215 -3.01636 0
M  V30 1072 N 94.5984 0.214957 -1.56127 0
M  V30 1073 C 96.0094 0.781386 -1.69562 0
M  V30 1074 C 96.3604 1.84707 -0.66165 0
M  V30 1075 O 95.4854 2.156 0.185927 0
M  V30 1076 C 96.0804 1.42411 -3.07416 0
M  V30 1077 C 94.6394 1.93786 -3.22683 0
M  V30 1078 C 93.7864 0.800438 -2.65496 0
M  V30 1079 H 96.7374 -0.00980633 -1.58697 0
M  V30 1080 H 96.7584 2.29309 -3.0364 0
M  V30 1081 H 96.2704 0.64826 -3.82648 0
M  V30 1082 H 94.3714 2.74152 -2.52332 0
M  V30 1083 H 94.4844 2.1133 -4.29973 0
M  V30 1084 H 92.8484 1.2095 -2.2415 0
M  V30 1085 H 93.6314 0.0371471 -3.4328 0
M  V30 1086 N 96.0765 1.50051 0.48192 0
M  V30 1087 C 97.0065 1.71046 1.58951 0
M  V30 1088 C 97.9875 0.559288 1.60642 0
M  V30 1089 O 99.1725 0.797243 1.77081 0
M  V30 1090 C 96.3025 1.79462 2.97339 0
M  V30 1091 C 95.2565 2.94558 3.10515 0
M  V30 1092 C 94.5825 2.88105 4.50444 0
M  V30 1093 C 95.8825 4.35227 2.88747 0
M  V30 1094 H 97.5765 2.6378 1.41635 0
M  V30 1095 H 95.1225 1.26936 0.679942 0
M  V30 1096 H 97.0755 1.92734 3.74742 0
M  V30 1097 H 95.7995 0.833412 3.15788 0
M  V30 1098 H 94.4585 2.80918 2.35543 0
M  V30 1099 H 94.1065 1.89853 4.65795 0
M  V30 1100 H 93.8065 3.65366 4.60197 0
M  V30 1101 H 95.3305 3.03412 5.29881 0
M  V30 1102 H 96.7445 4.49449 3.55905 0
M  V30 1103 H 95.1415 5.13856 3.09955 0
M  V30 1104 H 96.2115 4.48347 1.84696 0
M  V30 1105 N 97.5546 -0.734337 1.39446 0
M  V30 1106 C 98.5026 -1.86971 1.38364 0
M  V30 1107 C 99.4966 -1.67288 0.266687 0
M  V30 1108 O 100.703 -1.74621 0.436755 0
M  V30 1109 H 97.0776 -0.615474 0.432082 0
M  V30 1110 H 99.0486 -1.85 2.34132 0
M  V30 1111 C 97.7976 -3.2466 1.24465 0
M  V30 1112 H 97.1206 -3.40402 2.09682 0
M  V30 1113 H 98.5606 -4.04292 1.27764 0
M  V30 1114 C 97.0196 -3.36867 -0.0468674 0
M  V30 1115 O 97.5496 -3.88618 -1.01681 0
M  V30 1116 N 95.7556 -2.90391 -0.110145 0
M  V30 1117 H 95.3026 -2.48466 0.679868 0
M  V30 1118 H 95.2606 -2.98939 -0.973799 0
M  V30 1119 N 99.0327 -1.24633 -0.964593 0
M  V30 1120 C 99.9807 -1.03917 -2.08096 0
M  V30 1121 C 100.975 0.0268581 -1.69379 0
M  V30 1122 O 102.181 -0.127952 -1.79545 0
M  V30 1123 H 98.5557 -0.319044 -0.680966 0
M  V30 1124 H 100.527 -1.98581 -2.22729 0
M  V30 1125 C 99.2757 -0.663983 -3.41301 0
M  V30 1126 H 98.5987 -1.47605 -3.71555 0
M  V30 1127 H 100.039 -0.558663 -4.20303 0
M  V30 1128 C 98.4977 0.629169 -3.30973 0
M  V30 1129 O 99.0277 1.67404 -3.65156 0
M  V30 1130 N 97.2337 0.611057 -2.84103 0
M  V30 1131 H 96.7807 -0.239593 -2.56483 0
M  V30 1132 H 96.7387 1.47647 -2.77575 0
M  V30 1133 N 100.511 1.16574 -1.06058 0
M  V30 1134 C 101.927 1.3904 -0.783585 0
M  V30 1135 C 102.127 1.91784 0.618145 0
M  V30 1136 O 101.183 2.11511 1.37911 0
M  V30 1137 C 102.496 2.37329 -1.84649 0
M  V30 1138 C 104.044 2.51018 -1.86973 0
M  V30 1139 C 104.519 3.52588 -2.92311 0
M  V30 1140 N 106.01 3.60113 -2.91329 0
M  V30 1141 C 106.745 4.38486 -3.69482 0
M  V30 1142 N 106.241 5.20302 -4.57447 0
M  V30 1143 N 108.034 4.33446 -3.57885 0
M  V30 1144 H 100.185 0.806725 -1.96483 0
M  V30 1145 H 102.448 0.417117 -0.851303 0
M  V30 1146 H 102.154 2.05663 -2.85299 0
M  V30 1147 H 102.028 3.36946 -1.6955 0
M  V30 1148 H 104.415 2.81989 -0.869827 0
M  V30 1149 H 104.496 1.51445 -2.0615 0
M  V30 1150 H 104.14 3.22354 -3.92492 0
M  V30 1151 H 104.07 4.51886 -2.70383 0
M  V30 1152 H 106.561 3.01707 -2.27555 0
M  V30 1153 H 106.874 5.77311 -5.13743 0
M  V30 1154 H 105.219 5.19653 -4.61503 0
M  V30 1155 H 108.41 3.68586 -2.88551 0
M  V30 1156 H 108.583 4.94279 -4.19037 0
M  V30 1157 N 101.989 0.842826 1.3317 0
M  V30 1158 C 102.899 0.281444 2.32906 0
M  V30 1159 C 103.915 -0.594587 1.63526 0
M  V30 1160 O 105.091 -0.49777 1.95152 0
M  V30 1161 C 102.156 -0.530929 3.42611 0
M  V30 1162 C 101.217 0.369843 4.27704 0
M  V30 1163 C 100.45 -0.403853 5.3217 0
M  V30 1164 O 100.673 -1.63513 5.46461 0
M  V30 1165 O 99.6069 0.224199 6.01482 0
M  V30 1166 H 103.433 1.10744 2.82789 0
M  V30 1167 H 101.018 0.60545 1.36582 0
M  V30 1168 H 102.9 -0.992437 4.09547 0
M  V30 1169 H 101.575 -1.33392 2.94938 0
M  V30 1170 H 100.482 0.879275 3.6362 0
M  V30 1171 H 101.815 1.13771 4.78871 0
M  V30 1172 N 103.467 -1.45747 0.599634 0
M  V30 1173 C 104.415 -2.322 -0.136426 0
M  V30 1174 C 105.409 -1.45497 -0.867583 0
M  V30 1175 O 106.615 -1.62027 -0.78405 0
M  V30 1176 H 102.99 -0.749368 -0.0628588 0
M  V30 1177 H 104.961 -2.92072 0.611281 0
M  V30 1178 C 103.71 -3.28974 -1.12567 0
M  V30 1179 H 103.033 -3.9568 -0.572484 0
M  V30 1180 H 104.473 -3.92212 -1.61077 0
M  V30 1181 C 102.932 -2.55561 -2.19523 0
M  V30 1182 O 103.462 -2.33111 -3.27143 0
M  V30 1183 N 101.668 -2.15832 -1.94589 0
M  V30 1184 H 101.215 -2.3429 -1.07078 0
M  V30 1185 H 101.173 -1.67034 -2.66359 0
M  V30 1186 N 104.945 -0.338344 -1.53925 0
M  V30 1187 C 106.194 0.260732 -2.00008 0
M  V30 1188 C 106.507 1.52073 -1.23017 0
M  V30 1189 O 107.713 2.19672 -1.5955 0
M  V30 1190 C 106.169 0.51515 -3.56194 0
M  V30 1191 C 105.777 -0.728645 -4.42035 0
M  V30 1192 C 107.521 1.07337 -4.10706 0
M  V30 1193 C 105.428 -0.445315 -5.89721 0
M  V30 1194 H 104.358 0.101205 -0.747177 0
M  V30 1195 H 107.009 -0.452866 -1.77824 0
M  V30 1196 H 105.391 1.28932 -3.74423 0
M  V30 1197 H 106.565 -1.50352 -4.35581 0
M  V30 1198 H 104.88 -1.20813 -3.98489 0
M  V30 1199 H 107.477 1.30022 -5.18651 0
M  V30 1200 H 107.82 2.0273 -3.63602 0
M  V30 1201 H 108.353 0.360034 -3.96167 0
M  V30 1202 H 105.092 -1.36883 -6.41049 0
M  V30 1203 H 104.612 0.291569 -5.99091 0
M  V30 1204 H 106.291 -0.0606218 -6.46972 0
M  V30 1205 N 106.423 1.57458 -0.0668435 0
M  V30 1206 C 107.648 1.9804 0.616027 0
M  V30 1207 C 108.073 0.944771 1.62652 0
M  V30 1208 O 107.431 -0.0902094 1.81075 0
M  V30 1209 C 107.479 3.37665 1.26549 0
M  V30 1210 O 106.583 3.36701 2.38131 0
M  V30 1211 H 105.924 0.644719 0.158849 0
M  V30 1212 H 108.454 2.04121 -0.139891 0
M  V30 1213 H 108.464 3.7474 1.6135 0
M  V30 1214 H 107.139 4.12573 0.525016 0
M  V30 1215 H 105.716 3.1139 2.0516 0
M  V30 1216 N 107.901 -0.206675 1.56239 0
M  V30 1217 C 109.178 -0.954051 1.70755 0
M  V30 1218 C 109.558 -2.01841 0.618353 0
M  V30 1219 O 108.906 -2.25444 -0.372434 0
M  V30 1220 C 109.116 -1.551 3.12642 0
M  V30 1221 C 110.464 -2.03757 3.72516 0
M  V30 1222 O 111.488 -1.64965 3.15698 0
M  V30 1223 O 110.347 -2.75103 4.72208 0
M  V30 1224 H 107.441 -0.446636 0.696021 0
M  V30 1225 H 109.987 -0.197283 1.68549 0
M  V30 1226 H 108.759 -0.783212 3.83382 0
M  V30 1227 H 108.382 -2.37291 3.19028 0
M  V30 1228 N 109.379 -1.50304 -0.473955 0
M  V30 1229 C 110.79 -1.54042 -1.0549 0
M  V30 1230 C 111.141 -0.342248 -1.93192 0
M  V30 1231 O 110.266 0.545157 -2.09421 0
M  V30 1232 C 110.861 -2.79152 -1.91989 0
M  V30 1233 C 109.42 -2.8558 -2.45196 0
M  V30 1234 C 108.567 -2.48295 -1.2347 0
M  V30 1235 H 111.518 -1.5661 -0.256693 0
M  V30 1236 H 111.539 -2.60845 -2.7702 0
M  V30 1237 H 111.051 -3.66339 -1.28131 0
M  V30 1238 H 109.152 -2.02738 -3.12615 0
M  V30 1239 H 109.265 -3.88403 -2.80499 0
M  V30 1240 H 107.629 -2.00669 -1.56856 0
M  V30 1241 H 108.412 -3.37787 -0.612789 0
M  V30 1242 N 110.857 0.726932 -1.39834 0
M  V30 1243 C 112.085 1.51613 -1.40787 0
M  V30 1244 C 112.5 1.88799 -0.00451505 0
M  V30 1245 O 111.857 1.54662 0.968809 0
M  V30 1246 C 111.908 2.79863 -2.28821 0
M  V30 1247 O 111.629 2.44253 -3.63692 0
M  V30 1248 C 113.13 3.73837 -2.38245 0
M  V30 1249 H 110.35 0.468264 -0.480593 0
M  V30 1250 H 112.894 0.897607 -1.83748 0
M  V30 1251 H 111.049 3.38027 -1.89252 0
M  V30 1252 H 111.463 3.26695 -4.1033 0
M  V30 1253 H 112.937 4.60699 -3.04073 0
M  V30 1254 H 113.414 4.16153 -1.40403 0
M  V30 1255 H 114.02 3.21589 -2.78317 0
M  V30 1256 N 112.336 1.25143 0.95797 0
M  V30 1257 C 113.561 1.12521 1.74223 0
M  V30 1258 C 113.986 -0.317402 1.85403 0
M  V30 1259 O 113.344 -1.2299 1.33204 0
M  V30 1260 C 113.392 1.78062 3.1357 0
M  V30 1261 O 112.496 1.058 3.98598 0
M  V30 1262 H 111.837 0.39304 0.535178 0
M  V30 1263 H 114.367 1.65641 1.201 0
M  V30 1264 H 114.377 1.84213 3.64046 0
M  V30 1265 H 113.052 2.83021 3.04749 0
M  V30 1266 H 111.629 1.07506 3.57067 0
M  V30 1267 N 113.814 -1.1601 1.06675 0
M  V30 1268 C 115.225 -1.68235 0.809565 0
M  V30 1269 C 115.576 -1.8454 -0.666303 0
M  V30 1270 O 114.701 -1.54374 -1.5165 0
M  V30 1271 C 115.296 -3.05585 1.46299 0
M  V30 1272 C 113.855 -3.54915 1.25349 0
M  V30 1273 C 113.002 -2.30804 1.53703 0
M  V30 1274 H 115.953 -1.00318 1.22971 0
M  V30 1275 H 115.974 -3.70174 0.880431 0
M  V30 1276 H 115.486 -2.93686 2.53713 0
M  V30 1277 H 113.587 -3.72067 0.199261 0
M  V30 1278 H 113.7 -4.36774 1.9689 0
M  V30 1279 H 112.064 -2.36007 0.957739 0
M  V30 1280 H 112.847 -2.21499 2.62284 0
M  V30 1281 N 115.292 -0.849877 -1.32721 0
M  V30 1282 C 116.222 -0.306308 -2.31482 0
M  V30 1283 C 117.203 0.591952 -1.59468 0
M  V30 1284 O 118.388 0.513199 -1.87296 0
M  V30 1285 C 115.518 0.510204 -3.43532 0
M  V30 1286 C 114.472 -0.293209 -4.26994 0
M  V30 1287 C 113.798 0.647743 -5.30762 0
M  V30 1288 C 115.098 -1.51634 -4.99804 0
M  V30 1289 H 116.792 -1.13153 -2.77195 0
M  V30 1290 H 114.338 -0.545553 -1.33266 0
M  V30 1291 H 116.291 0.900856 -4.11658 0
M  V30 1292 H 115.015 1.36874 -2.96535 0
M  V30 1293 H 113.674 -0.665555 -3.60508 0
M  V30 1294 H 113.322 1.50299 -4.8002 0
M  V30 1295 H 113.022 0.11422 -5.87489 0
M  V30 1296 H 114.546 1.03567 -6.01753 0
M  V30 1297 H 115.96 -1.19824 -5.60638 0
M  V30 1298 H 114.357 -1.98745 -5.66234 0
M  V30 1299 H 115.427 -2.28018 -4.27943 0
M  V30 1300 N 116.77 1.45427 -0.607355 0
M  V30 1301 C 118.186 1.57283 -0.270985 0
M  V30 1302 C 118.386 1.59875 1.22647 0
M  V30 1303 O 117.442 1.52893 2.00948 0
M  V30 1304 C 118.755 2.85566 -0.941952 0
M  V30 1305 C 120.303 2.9924 -0.917849 0
M  V30 1306 C 120.778 4.30293 -1.56882 0
M  V30 1307 N 122.269 4.37051 -1.5343 0
M  V30 1308 C 123.004 5.37123 -2.00715 0
M  V30 1309 N 122.5 6.43734 -2.56084 0
M  V30 1310 N 124.293 5.28479 -1.91484 0
M  V30 1311 H 116.444 1.41988 -1.57966 0
M  V30 1312 H 118.707 0.67885 -0.661715 0
M  V30 1313 H 118.413 2.8955 -1.99633 0
M  V30 1314 H 118.287 3.74322 -0.465096 0
M  V30 1315 H 120.674 2.94822 0.127984 0
M  V30 1316 H 120.755 2.11895 -1.43297 0
M  V30 1317 H 120.399 4.35469 -2.61398 0
M  V30 1318 H 120.329 5.16454 -1.02873 0
M  V30 1319 H 122.82 3.60615 -1.12982 0
M  V30 1320 H 123.133 7.16341 -2.89958 0
M  V30 1321 H 121.478 6.44485 -2.60122 0
M  V30 1322 H 124.669 4.44098 -1.47967 0
M  V30 1323 H 124.842 6.0632 -2.28648 0
M  V30 1324 N 118.248 0.346503 1.53744 0
M  V30 1325 C 119.476 -0.25041 2.05379 0
M  V30 1326 C 119.891 -1.43979 1.22129 0
M  V30 1327 O 119.248 -1.80677 0.257321 0
M  V30 1328 C 119.299 -0.662575 3.55376 0
M  V30 1329 O 119.02 0.479515 4.35468 0
M  V30 1330 C 120.521 -1.31989 4.23195 0
M  V30 1331 H 117.741 -0.0478198 0.669294 0
M  V30 1332 H 120.285 0.499346 1.9831 0
M  V30 1333 H 118.44 -1.36227 3.62658 0
M  V30 1334 H 118.854 0.15037 5.24284 0
M  V30 1335 H 120.328 -1.55902 5.29527 0
M  V30 1336 H 120.805 -2.27436 3.75725 0
M  V30 1337 H 121.411 -0.662154 4.20114 0
M  V30 1338 N 119.726 -1.57421 0.075193 0
M  V30 1339 C 121.142 -1.57099 -0.281444 0
M  V30 1340 C 121.342 -1.08486 -1.69803 0
M  V30 1341 O 120.398 -0.752279 -2.41033 0
M  V30 1342 C 121.711 -3.00571 -0.0880041 0
M  V30 1343 C 123.259 -3.12605 -0.157281 0
M  V30 1344 C 123.734 -4.57999 0.0079207 0
M  V30 1345 N 125.225 -4.63176 -0.0475725 0
M  V30 1346 C 125.96 -5.73373 0.0557876 0
M  V30 1347 N 125.456 -6.92473 0.21286 0
M  V30 1348 N 127.249 -5.621 -0.00152098 0
M  V30 1349 H 119.4 -1.87335 1.00098 0
M  V30 1350 H 121.663 -0.86377 0.390646 0
M  V30 1351 H 121.369 -3.40262 0.889629 0
M  V30 1352 H 121.243 -3.67754 -0.838875 0
M  V30 1353 H 123.63 -2.72798 -1.1254 0
M  V30 1354 H 123.711 -2.48053 0.62475 0
M  V30 1355 H 123.355 -4.98496 0.972824 0
M  V30 1356 H 123.285 -5.20586 -0.793556 0
M  V30 1357 H 125.776 -3.7753 -0.167244 0
M  V30 1358 H 126.089 -7.72279 0.283781 0
M  V30 1359 H 124.434 -6.94556 0.248267 0
M  V30 1360 H 127.625 -4.67938 -0.122958 0
M  V30 1361 H 127.798 -6.47948 0.0824844 0
M  V30 1362 N 121.204 0.198386 -1.56346 0
M  V30 1363 C 122.451 0.919286 -1.80431 0
M  V30 1364 C 122.779 1.83393 -0.647866 0
M  V30 1365 O 122.034 1.92236 0.366556 0
M  V30 1366 C 122.333 1.77031 -3.10475 0
M  V30 1367 C 121.999 1.00693 -4.39513 0
M  V30 1368 C 120.661 0.796145 -4.74568 0
M  V30 1369 C 123.013 0.469559 -5.19081 0
M  V30 1370 C 120.341 0.0364588 -5.86689 0
M  V30 1371 C 122.693 -0.2769 -6.31994 0
M  V30 1372 C 121.357 -0.49873 -6.65634 0
M  V30 1373 H 120.627 0.336391 -0.660244 0
M  V30 1374 H 123.274 0.185872 -1.90596 0
M  V30 1375 H 121.579 2.5723 -2.95533 0
M  V30 1376 H 123.276 2.33065 -3.26315 0
M  V30 1377 H 119.866 1.18122 -4.12001 0
M  V30 1378 H 124.05 0.619816 -4.92414 0
M  V30 1379 H 119.306 -0.145412 -6.11227 0
M  V30 1380 H 123.48 -0.700684 -6.92866 0
M  V30 1381 H 121.107 -1.0893 -7.52355 0
M  V30 1382 N 122.682 1.50554 0.465978 0
M  V30 1383 C 123.928 1.62038 1.21949 0
M  V30 1384 C 124.261 0.322116 1.9151 0
M  V30 1385 O 123.536 -0.676723 1.82348 0
M  V30 1386 C 123.819 2.80421 2.25912 0
M  V30 1387 C 123.672 4.20144 1.60622 0
M  V30 1388 C 124.991 2.94354 3.27176 0
M  V30 1389 H 122.11 0.589752 0.441998 0
M  V30 1390 H 124.752 1.82956 0.51257 0
M  V30 1391 H 122.902 2.62717 2.86203 0
M  V30 1392 H 124.574 4.49449 1.03889 0
M  V30 1393 H 122.817 4.24165 0.909211 0
M  V30 1394 H 123.488 4.98914 2.36196 0
M  V30 1395 H 125.964 3.10578 2.76913 0
M  V30 1396 H 124.84 3.788 3.97242 0
M  V30 1397 H 125.101 2.05186 3.916 0
M  V30 1398 N 124.16 -0.719506 1.40217 0
M  V30 1399 C 125.39 -1.50646 1.41384 0
M  V30 1400 C 125.798 -1.89197 0.0107743 0
M  V30 1401 O 125.141 -1.55709 -0.974708 0
M  V30 1402 C 125.203 -2.81405 2.23722 0
M  V30 1403 C 124.867 -2.65199 3.72181 0
M  V30 1404 C 125.864 -2.32717 4.64907 0
M  V30 1405 C 123.549 -2.81586 4.1595 0
M  V30 1406 C 125.543 -2.16827 5.99387 0
M  V30 1407 C 123.23 -2.65313 5.50502 0
M  V30 1408 C 124.228 -2.32981 6.42035 0
M  V30 1409 O 123.916 -2.16827 7.74107 0
M  V30 1410 H 123.648 -0.471606 0.484318 0
M  V30 1411 H 126.202 -0.895456 1.84853 0
M  V30 1412 H 124.432 -3.44823 1.75026 0
M  V30 1413 H 126.121 -3.43102 2.16878 0
M  V30 1414 H 126.887 -2.19694 4.32388 0
M  V30 1415 H 122.766 -3.0574 3.45027 0
M  V30 1416 H 126.31 -1.91513 6.70797 0
M  V30 1417 H 122.207 -2.7792 5.82607 0
M  V30 1418 H 122.975 -2.31778 7.84998 0
M  V30 1419 N 125.638 -1.25649 -0.95132 0
M  V30 1420 C 126.588 -1.03004 -2.03406 0
M  V30 1421 C 127.572 0.034187 -1.60864 0
M  V30 1422 O 128.764 -0.181549 -1.76066 0
M  V30 1423 C 125.893 -0.654255 -3.37008 0
M  V30 1424 C 124.979 -1.75542 -3.86065 0
M  V30 1425 N 125.37 -2.99113 -4.07879 0
M  V30 1426 C 123.668 -1.63669 -4.14884 0
M  V30 1427 C 124.369 -3.70611 -4.48356 0
M  V30 1428 N 123.345 -2.98247 -4.54477 0
M  V30 1429 H 127.147 -1.96813 -2.1827 0
M  V30 1430 H 124.661 -1.16017 -1.13639 0
M  V30 1431 H 126.658 -0.473206 -4.14206 0
M  V30 1432 H 125.318 0.276468 -3.23521 0
M  V30 1433 H 126.329 -3.35124 -3.94857 0
M  V30 1434 H 123.006 -0.775161 -4.10241 0
M  V30 1435 H 124.396 -4.76695 -4.73509 0
M  V30 1436 N 127.117 1.15442 -1.07289 0
M  V30 1437 C 128.047 2.22312 -0.714107 0
M  V30 1438 C 129.028 1.67467 0.298155 0
M  V30 1439 O 130.213 1.93445 0.171048 0
M  V30 1440 C 127.343 3.47124 -0.110448 0
M  V30 1441 C 126.297 4.14926 -1.04979 0
M  V30 1442 C 125.623 5.33807 -0.308924 0
M  V30 1443 C 126.923 4.64762 -2.38314 0
M  V30 1444 H 128.617 2.5258 -1.6076 0
M  V30 1445 H 126.163 1.21404 -0.77441 0
M  V30 1446 H 128.116 4.21124 0.152482 0
M  V30 1447 H 126.84 3.16187 0.81812 0
M  V30 1448 H 125.499 3.42866 -1.29764 0
M  V30 1449 H 125.147 4.99126 0.623084 0
M  V30 1450 H 124.847 5.80113 -0.935036 0
M  V30 1451 H 126.371 6.10576 -0.0537771 0
M  V30 1452 H 127.785 5.30292 -2.1786 0
M  V30 1453 H 126.182 5.21728 -2.96514 0
M  V30 1454 H 127.252 3.80434 -3.00663 0
M  V30 1455 N 128.595 0.856903 1.32268 0
M  V30 1456 C 129.82 0.474569 2.01897 0
M  V30 1457 C 130.245 -0.921766 1.63967 0
M  V30 1458 O 129.603 -1.60589 0.84148 0
M  V30 1459 C 129.651 0.623799 3.55164 0
M  V30 1460 O 128.755 -0.342459 4.10976 0
M  V30 1461 H 128.096 0.190422 0.63611 0
M  V30 1462 H 130.626 1.15672 1.68764 0
M  V30 1463 H 130.636 0.512169 4.04773 0
M  V30 1464 H 129.311 1.64202 3.82113 0
M  V30 1465 H 127.888 -0.18688 3.72431 0
M  V30 1466 N 130.073 -1.45103 0.615059 0
M  V30 1467 C 131.35 -1.95549 0.0448276 0
M  V30 1468 C 131.73 -1.55737 -1.4251 0
M  V30 1469 O 131.078 -0.823556 -2.13143 0
M  V30 1470 C 131.288 -3.48098 0.250785 0
M  V30 1471 C 132.636 -4.24384 0.135509 0
M  V30 1472 O 133.66 -3.55738 0.181299 0
M  V30 1473 O 132.519 -5.46493 0.0268878 0
M  V30 1474 H 129.613 -0.8264 -0.0314845 0
M  V30 1475 H 132.159 -1.55232 0.685642 0
M  V30 1476 H 130.931 -3.7007 1.27139 0
M  V30 1477 H 130.554 -3.95323 -0.424937 0
M  V30 1478 N 131.551 -0.354651 -1.53558 0
M  V30 1479 C 132.481 0.489091 -2.2832 0
M  V30 1480 C 133.462 1.09324 -1.30316 0
M  V30 1481 O 134.647 1.11255 -1.59173 0
M  V30 1482 C 131.777 1.63456 -3.0643 0
M  V30 1483 C 130.731 1.1582 -4.12031 0
M  V30 1484 C 130.057 2.39305 -4.7816 0
M  V30 1485 C 131.357 0.250731 -5.21698 0
M  V30 1486 H 133.051 -0.134614 -2.99097 0
M  V30 1487 H 130.597 -0.0661826 -1.43848 0
M  V30 1488 H 132.55 2.23136 -3.57475 0
M  V30 1489 H 131.274 2.28533 -2.33325 0
M  V30 1490 H 129.933 0.584146 -3.61916 0
M  V30 1491 H 129.581 3.02814 -4.01637 0
M  V30 1492 H 129.281 2.08109 -5.49513 0
M  V30 1493 H 130.805 2.99691 -5.31994 0
M  V30 1494 H 132.219 0.754695 -5.68311 0
M  V30 1495 H 130.616 0.0301468 -6.00092 0
M  V30 1496 H 131.686 -0.710125 -4.79672 0
M  V30 1497 N 133.029 1.57378 -0.0835403 0
M  V30 1498 C 134.269 1.95808 0.586381 0
M  V30 1499 C 134.633 0.963706 1.66062 0
M  V30 1500 O 135.834 1.23608 2.38693 0
M  V30 1501 C 134.105 3.38808 1.13771 0
M  V30 1502 S 135.664 3.99225 1.82112 0
M  V30 1503 H 132.482 0.684675 0.191679 0
M  V30 1504 H 135.084 1.94843 -0.160194 0
M  V30 1505 H 133.788 4.08954 0.344197 0
M  V30 1506 H 133.319 3.43344 1.92038 0
M  V30 1507 H 135.334 3.87087 3.10449 0
M  V30 1508 N 134.507 -0.190092 1.56449 0
M  V30 1509 C 135.454 -1.23557 1.94942 0
M  V30 1510 C 136.424 -1.44972 0.810696 0
M  V30 1511 O 137.609 -1.58023 1.06927 0
M  V30 1512 C 134.749 -2.57416 2.2985 0
M  V30 1513 C 133.862 -2.43537 3.5681 0
M  V30 1514 C 132.997 -3.70134 3.81017 0
M  V30 1515 C 132.036 -3.51109 5.01387 0
M  V30 1516 N 131.173 -4.6973 5.21822 0
M  V30 1517 H 136.013 -0.900304 2.84075 0
M  V30 1518 H 133.55 -0.43318 1.40577 0
M  V30 1519 H 135.508 -3.35409 2.48106 0
M  V30 1520 H 134.138 -2.88975 1.43852 0
M  V30 1521 H 133.19 -1.56816 3.46573 0
M  V30 1522 H 134.502 -2.25415 4.4496 0
M  V30 1523 H 133.656 -4.56566 3.9954 0
M  V30 1524 H 132.395 -3.91215 2.91207 0
M  V30 1525 H 131.4 -2.63063 4.82782 0
M  V30 1526 H 132.625 -3.31468 5.9271 0
M  V30 1527 H 130.571 -4.91065 4.34961 0
M  V30 1528 H 130.488 -4.54452 6.0416 0
M  V30 1529 H 131.756 -5.57499 5.44808 0
M  V30 1530 N 135.985 -1.50799 -0.457987 0
M  V30 1531 C 136.932 -1.70617 -1.5543 0
M  V30 1532 C 137.902 -0.547562 -1.56815 0
M  V30 1533 O 139.087 -0.779647 -1.74144 0
M  V30 1534 C 136.227 -1.81831 -2.93311 0
M  V30 1535 C 135.34 -3.09278 -3.01615 0
M  V30 1536 C 134.475 -3.11209 -4.30491 0
M  V30 1537 C 133.514 -4.33055 -4.32585 0
M  V30 1538 N 132.651 -4.32652 -5.52952 0
M  V30 1539 H 137.491 -2.64207 -1.37836 0
M  V30 1540 H 135.028 -1.30959 -0.669937 0
M  V30 1541 H 136.986 -1.86314 -3.73287 0
M  V30 1542 H 135.616 -0.916685 -3.0951 0
M  V30 1543 H 134.668 -3.14203 -2.1443 0
M  V30 1544 H 135.98 -3.99233 -2.99022 0
M  V30 1545 H 135.134 -3.14494 -5.18824 0
M  V30 1546 H 133.873 -2.19106 -4.35711 0
M  V30 1547 H 132.878 -4.29969 -3.42647 0
M  V30 1548 H 134.103 -5.264 -4.29046 0
M  V30 1549 H 132.049 -3.43409 -5.58933 0
M  V30 1550 H 131.966 -5.16392 -5.52155 0
M  V30 1551 H 133.234 -4.40101 -6.43375 0
M  V30 1552 N 137.463 0.71206 -1.40597 0
M  V30 1553 C 138.703 1.48438 -1.40519 0
M  V30 1554 C 139.067 1.91998 -0.00767611 0
M  V30 1555 O 140.268 2.6854 0.118239 0
M  V30 1556 C 138.539 2.67514 -2.37004 0
M  V30 1557 S 140.098 3.56875 -2.55315 0
M  V30 1558 H 136.916 0.507457 -0.498005 0
M  V30 1559 H 139.518 0.832355 -1.76896 0
M  V30 1560 H 138.222 2.33689 -3.37368 0
M  V30 1561 H 137.753 3.37625 -2.01923 0
M  V30 1562 H 139.768 4.62081 -1.8082 0
M  V30 1563 N 138.941 1.26152 0.944643 0
M  V30 1564 C 140.218 1.02247 1.66748 0
M  V30 1565 C 140.598 -0.448202 2.06287 0
M  V30 1566 O 139.946 -1.42779 1.78399 0
M  V30 1567 C 140.156 1.96788 2.88228 0
M  V30 1568 C 141.504 2.25201 3.59958 0
M  V30 1569 O 142.528 1.94626 2.98327 0
M  V30 1570 O 141.387 2.77242 4.70956 0
M  V30 1571 H 138.481 0.388517 0.730057 0
M  V30 1572 H 141.027 1.37348 0.99668 0
M  V30 1573 H 139.799 2.96047 2.55875 0
M  V30 1574 H 139.422 1.62145 3.63035 0
M  V30 1575 N 140.419 -1.14872 1.07899 0
M  V30 1576 C 141.83 -1.67367 0.827363 0
M  V30 1577 C 142.181 -1.85236 -0.646693 0
M  V30 1578 O 141.306 -1.55974 -1.50004 0
M  V30 1579 C 141.901 -3.04016 1.49532 0
M  V30 1580 C 140.46 -3.53566 1.29106 0
M  V30 1581 C 139.607 -2.29161 1.56143 0
M  V30 1582 H 142.558 -0.990083 1.24028 0
M  V30 1583 H 142.579 -3.69219 0.919643 0
M  V30 1584 H 142.091 -2.90978 2.56814 0
M  V30 1585 H 140.192 -3.71835 0.238713 0
M  V30 1586 H 140.305 -4.34661 2.01511 0
M  V30 1587 H 138.669 -2.34978 0.982717 0
M  V30 1588 H 139.452 -2.18705 2.64619 0
M  V30 1589 N 141.898 -0.863906 -1.31812 0
M  V30 1590 C 143.126 -0.486111 -2.01108 0
M  V30 1591 C 143.541 0.919755 -1.64882 0
M  V30 1592 O 142.898 1.60162 -0.874893 0
M  V30 1593 C 142.949 -0.626435 -3.56031 0
M  V30 1594 O 142.67 -1.97693 -3.90959 0
M  V30 1595 C 144.171 -0.248857 -4.42601 0
M  V30 1596 H 141.391 -0.190052 -0.643523 0
M  V30 1597 H 143.935 -1.1634 -1.68182 0
M  V30 1598 H 142.09 0.00322717 -3.874 0
M  V30 1599 H 142.504 -1.98034 -4.85678 0
M  V30 1600 H 143.978 -0.398016 -5.50563 0
M  V30 1601 H 144.455 0.811489 -4.31638 0
M  V30 1602 H 145.061 -0.853971 -4.16638 0
M  V30 1603 N 143.376 1.44774 -0.622745 0
M  V30 1604 C 144.286 2.34433 0.0886031 0
M  V30 1605 C 145.302 1.52131 0.844529 0
M  V30 1606 O 146.478 1.84886 0.798691 0
M  V30 1607 C 143.543 3.29986 1.0635 0
M  V30 1608 C 142.604 4.28195 0.307873 0
M  V30 1609 C 141.837 5.19183 1.23633 0
M  V30 1610 O 142.06 5.13918 2.47476 0
M  V30 1611 O 140.994 5.97515 0.725189 0
M  V30 1612 H 144.82 2.96693 -0.648599 0
M  V30 1613 H 142.405 1.44408 -0.382957 0
M  V30 1614 H 144.287 3.88825 1.6246 0
M  V30 1615 H 142.962 2.70269 1.78146 0
M  V30 1616 H 141.869 3.72927 -0.296064 0
M  V30 1617 H 143.202 4.90808 -0.3699 0
M  V30 1618 N 144.854 0.36279 1.53368 0
M  V30 1619 C 146.1 -0.228113 2.01513 0
M  V30 1620 C 146.433 -1.48648 1.2497 0
M  V30 1621 O 145.708 -1.91459 0.342616 0
M  V30 1622 C 145.991 -0.522884 3.56284 0
M  V30 1623 C 145.844 0.74892 4.43521 0
M  V30 1624 C 147.163 -1.32461 4.19693 0
M  V30 1625 H 144.282 -0.0814343 0.732487 0
M  V30 1626 H 146.924 0.48713 1.83649 0
M  V30 1627 H 145.074 -1.1322 3.71636 0
M  V30 1628 H 146.746 1.38648 4.39971 0
M  V30 1629 H 144.989 1.36986 4.11603 0
M  V30 1630 H 145.66 0.497667 5.49752 0
M  V30 1631 H 148.136 -0.809203 4.08156 0
M  V30 1632 H 147.012 -1.49961 5.28018 0
M  V30 1633 H 147.273 -2.33232 3.75573 0
M  V30 1634 N 146.332 -1.57332 0.0918853 0
M  V30 1635 C 147.242 -2.17368 -0.882505 0
M  V30 1636 C 148.258 -1.14226 -1.31257 0
M  V30 1637 O 149.434 -1.46582 -1.38115 0
M  V30 1638 C 146.499 -2.73962 -2.12476 0
M  V30 1639 C 145.56 -3.92048 -1.7492 0
M  V30 1640 C 144.793 -4.45933 -2.93223 0
M  V30 1641 O 145.016 -3.98764 -4.07852 0
M  V30 1642 O 143.95 -5.36999 -2.71875 0
M  V30 1643 H 147.776 -3.01031 -0.40172 0
M  V30 1644 H 145.361 -1.48813 -0.132291 0
M  V30 1645 H 147.243 -3.10147 -2.85283 0
M  V30 1646 H 145.918 -1.93347 -2.59613 0
M  V30 1647 H 144.825 -3.6068 -0.993025 0
M  V30 1648 H 146.158 -4.74017 -1.32548 0
M  V30 1649 N 147.81 0.181792 -1.56548 0
M  V30 1650 C 148.74 1.22765 -1.98623 0
M  V30 1651 C 149.721 1.46747 -0.860189 0
M  V30 1652 O 150.906 1.58259 -1.12551 0
M  V30 1653 C 148.036 2.56894 -2.33715 0
M  V30 1654 C 146.99 2.475 -3.49182 0
M  V30 1655 C 146.316 3.86023 -3.69986 0
M  V30 1656 C 147.616 1.98866 -4.82959 0
M  V30 1657 H 149.31 0.877942 -2.86239 0
M  V30 1658 H 146.856 0.42088 -1.37712 0
M  V30 1659 H 148.809 3.30253 -2.61746 0
M  V30 1660 H 147.533 2.93632 -1.42997 0
M  V30 1661 H 146.192 1.76596 -3.21262 0
M  V30 1662 H 145.84 4.20136 -2.76576 0
M  V30 1663 H 145.54 3.80609 -4.47672 0
M  V30 1664 H 147.064 4.60984 -4.00407 0
M  V30 1665 H 148.478 2.61992 -5.09934 0
M  V30 1666 H 146.875 2.04424 -5.64208 0
M  V30 1667 H 147.945 0.942465 -4.75653 0
M  V30 1668 N 149.288 1.51039 0.449983 0
M  V30 1669 C 150.565 1.53612 1.21089 0
M  V30 1670 C 150.945 0.292997 2.09057 0
M  V30 1671 O 150.293 -0.72259 2.16774 0
M  V30 1672 C 150.503 2.84337 2.0237 0
M  V30 1673 C 151.851 3.35807 2.59843 0
M  V30 1674 O 152.875 2.85802 2.12593 0
M  V30 1675 O 151.734 4.23029 3.45989 0
M  V30 1676 H 148.828 0.617057 0.550608 0
M  V30 1677 H 151.374 1.63344 0.460082 0
M  V30 1678 H 150.146 3.66278 1.37681 0
M  V30 1679 H 149.769 2.77708 2.84542 0
M  V30 1680 N 150.766 -0.704594 1.40972 0
M  V30 1681 C 151.714 -1.83994 1.42299 0
M  V30 1682 C 152.708 -1.66684 0.302111 0
M  V30 1683 O 153.914 -1.73655 0.473697 0
M  V30 1684 H 150.289 -0.606171 0.44504 0
M  V30 1685 H 152.26 -1.79992 2.38003 0
M  V30 1686 C 151.009 -3.21946 1.31323 0
M  V30 1687 H 150.332 -3.35878 2.16855 0
M  V30 1688 H 151.772 -4.01491 1.36311 0
M  V30 1689 C 150.231 -3.36891 0.0245977 0
M  V30 1690 O 150.761 -3.90687 -0.934153 0
M  V30 1691 N 148.967 -2.90559 -0.0485243 0
M  V30 1692 H 148.514 -2.46968 0.732419 0
M  V30 1693 H 148.472 -3.00937 -0.910171 0
M  V30 1694 N 152.244 -1.26651 -0.937939 0
M  V30 1695 C 153.176 -1.04283 -2.04102 0
M  V30 1696 C 154.189 -0.00221014 -1.628 0
M  V30 1697 O 155.378 -0.242645 -1.76843 0
M  V30 1698 C 152.478 -0.557846 -3.34277 0
M  V30 1699 C 151.651 -1.66843 -4.04329 0
M  V30 1700 C 150.71 -1.18095 -5.12777 0
M  V30 1701 O 149.736 -1.87865 -5.37304 0
M  V30 1702 N 150.938 -0.0311006 -5.80492 0
M  V30 1703 H 153.703 -1.9927 -2.23856 0
M  V30 1704 H 151.264 -1.1808 -1.10764 0
M  V30 1705 H 153.256 -0.215836 -4.04124 0
M  V30 1706 H 151.826 0.298523 -3.11171 0
M  V30 1707 H 151.046 -2.18123 -3.28353 0
M  V30 1708 H 152.334 -2.41408 -4.47883 0
M  V30 1709 H 151.732 0.551486 -5.63005 0
M  V30 1710 H 150.289 0.251809 -6.51313 0
M  V30 1711 N 153.722 1.14298 -1.08507 0
M  V30 1712 C 154.971 1.84708 -0.810305 0
M  V30 1713 C 155.284 1.83903 0.666271 0
M  V30 1714 O 156.49 2.50112 1.05624 0
M  V30 1715 C 154.946 3.31572 -1.39957 0
M  V30 1716 C 154.554 3.40791 -2.90801 0
M  V30 1717 C 156.298 4.07087 -1.20334 0
M  V30 1718 C 154.205 4.81872 -3.4286 0
M  V30 1719 H 153.135 0.691985 -0.299454 0
M  V30 1720 H 155.786 1.28841 -1.30661 0
M  V30 1721 H 154.168 3.87183 -0.830976 0
M  V30 1722 H 155.342 2.95225 -3.53806 0
M  V30 1723 H 153.657 2.78732 -3.0935 0
M  V30 1724 H 156.254 5.11225 -1.56693 0
M  V30 1725 H 156.597 4.16054 -0.143237 0
M  V30 1726 H 157.13 3.57779 -1.73893 0
M  V30 1727 H 153.869 4.78094 -4.48449 0
M  V30 1728 H 153.389 5.27972 -2.84615 0
M  V30 1729 H 155.068 5.50765 -3.39509 0
M  V30 1730 N 155.201 0.870884 1.31352 0
M  V30 1731 C 156.447 0.482987 1.96965 0
M  V30 1732 C 156.78 -0.962462 1.68672 0
M  V30 1733 O 156.055 -1.6779 0.98371 0
M  V30 1734 C 156.338 0.741752 3.52378 0
M  V30 1735 C 156.191 2.2368 3.9024 0
M  V30 1736 C 157.51 0.208838 4.39604 0
M  V30 1737 H 154.629 0.176955 0.715441 0
M  V30 1738 H 157.271 1.09229 1.55464 0
M  V30 1739 H 155.421 0.223149 3.87859 0
M  V30 1740 H 157.093 2.82273 3.64856 0
M  V30 1741 H 155.336 2.70901 3.38814 0
M  V30 1742 H 156.007 2.3685 4.98604 0
M  V30 1743 H 158.483 0.652529 4.10952 0
M  V30 1744 H 157.359 0.419336 5.47296 0
M  V30 1745 H 157.62 -0.889275 4.33064 0
M  V30 1746 N 156.679 -1.44442 0.630414 0
M  V30 1747 C 157.907 -2.06414 0.141671 0
M  V30 1748 C 158.322 -1.47105 -1.18345 0
M  V30 1749 O 157.679 -0.593662 -1.72574 0
M  V30 1750 C 157.73 -3.61494 0.0199784 0
M  V30 1751 O 157.451 -4.18594 1.29269 0
M  V30 1752 C 158.952 -4.40499 -0.497544 0
M  V30 1753 H 156.172 -0.666292 0.0793452 0
M  V30 1754 H 158.716 -1.85323 0.864614 0
M  V30 1755 H 156.871 -3.8185 -0.653402 0
M  V30 1756 H 157.285 -5.12026 1.13707 0
M  V30 1757 H 158.759 -5.49433 -0.531708 0
M  V30 1758 H 159.236 -4.11895 -1.52445 0
M  V30 1759 H 159.842 -4.25061 0.142562 0
M  V30 1760 N 158.157 -0.370918 -1.53173 0
M  V30 1761 C 159.12 0.460778 -2.24521 0
M  V30 1762 C 160.12 1.00536 -1.25496 0
M  V30 1763 O 161.31 0.890266 -1.49733 0
M  V30 1764 C 158.442 1.64457 -2.98608 0
M  V30 1765 H 159.635 -0.163613 -2.99453 0
M  V30 1766 H 157.188 -0.122699 -1.55818 0
M  V30 1767 H 157.923 2.30691 -2.2793 0
M  V30 1768 H 157.708 1.26099 -3.7127 0
M  V30 1769 H 159.198 2.23384 -3.5283 0
M  V30 1770 N 159.635 1.57281 -0.100228 0
M  V30 1771 C 160.863 1.98879 0.570509 0
M  V30 1772 C 161.278 0.979476 1.61405 0
M  V30 1773 O 160.635 -0.0302288 1.82475 0
M  V30 1774 C 160.686 3.4052 1.2136 0
M  V30 1775 O 160.407 4.37588 0.211786 0
M  V30 1776 C 161.908 3.97149 1.96945 0
M  V30 1777 H 159.128 0.653428 0.152555 0
M  V30 1778 H 161.672 2.03697 -0.18103 0
M  V30 1779 H 159.827 3.367 1.91603 0
M  V30 1780 H 160.241 5.20118 0.676607 0
M  V30 1781 H 161.715 4.98393 2.37294 0
M  V30 1782 H 162.192 3.3525 2.83733 0
M  V30 1783 H 162.798 4.04458 1.31506 0
M  V30 1784 N 161.113 -0.173488 1.56642 0
M  V30 1785 C 162.045 -1.23935 1.92802 0
M  V30 1786 C 163.058 -1.40589 0.820889 0
M  V30 1787 O 164.247 -1.40631 1.09933 0
M  V30 1788 C 161.347 -2.60837 2.16373 0
M  V30 1789 C 160.52 -2.6551 3.47596 0
M  V30 1790 C 159.579 -3.8376 3.60021 0
M  V30 1791 O 158.605 -3.69859 4.32658 0
M  V30 1792 N 159.807 -5.00127 2.94709 0
M  V30 1793 H 162.572 -0.932236 2.84832 0
M  V30 1794 H 160.133 -0.363268 1.57772 0
M  V30 1795 H 162.125 -3.38407 2.21952 0
M  V30 1796 H 160.695 -2.83948 1.30738 0
M  V30 1797 H 159.915 -1.74052 3.53694 0
M  V30 1798 H 161.203 -2.65641 4.33949 0
M  V30 1799 H 160.601 -5.14322 2.35563 0
M  V30 1800 H 159.158 -5.75567 3.05886 0
M  V30 1801 N 162.591 -1.51276 -0.441967 0
M  V30 1802 C 163.816 -1.67799 -1.21895 0
M  V30 1803 C 164.241 -0.372864 -1.84367 0
M  V30 1804 O 163.599 0.666501 -1.68604 0
M  V30 1805 C 163.647 -2.79199 -2.28211 0
M  V30 1806 O 162.751 -2.42479 -3.33583 0
M  V30 1807 H 162.092 -0.559649 -0.357336 0
M  V30 1808 H 164.622 -1.97815 -0.522522 0
M  V30 1809 H 164.632 -3.03146 -2.73069 0
M  V30 1810 H 163.307 -3.73906 -1.82118 0
M  V30 1811 H 161.884 -2.29087 -2.94234 0
M  V30 1812 N 164.069 0.697108 -1.41344 0
M  V30 1813 C 165.017 1.83237 -1.43272 0
M  V30 1814 C 166.011 1.66522 -0.310947 0
M  V30 1815 O 167.217 1.73402 -0.482899 0
M  V30 1816 H 163.592 0.603802 -0.448249 0
M  V30 1817 H 165.563 1.78727 -2.38954 0
M  V30 1818 C 164.312 3.21245 -1.33029 0
M  V30 1819 H 163.635 3.34723 -2.18633 0
M  V30 1820 H 165.075 4.00763 -1.38439 0
M  V30 1821 C 163.534 3.36873 -0.0424635 0
M  V30 1822 O 164.064 3.91177 0.913421 0
M  V30 1823 N 162.27 2.90581 0.0331145 0
M  V30 1824 H 161.817 2.46577 -0.745506 0
M  V30 1825 H 161.775 3.01416 0.894199 0
M  V30 1826 N 165.547 1.27147 0.931209 0
M  V30 1827 C 166.796 1.12664 1.67302 0
M  V30 1828 C 167.109 -0.327718 1.92835 0
M  V30 1829 O 168.315 -0.593392 2.64936 0
M  V30 1830 C 166.771 1.9683 3.01307 0
M  V30 1831 C 166.379 3.46901 2.83485 0
M  V30 1832 C 168.123 1.90985 3.79111 0
M  V30 1833 C 166.03 4.23279 4.13024 0
M  V30 1834 H 164.96 0.41803 0.627509 0
M  V30 1835 H 167.611 1.51539 1.03481 0
M  V30 1836 H 165.993 1.50797 3.66164 0
M  V30 1837 H 167.167 4.00773 2.27415 0
M  V30 1838 H 165.482 3.54088 2.19113 0
M  V30 1839 H 168.079 2.45328 4.75098 0
M  V30 1840 H 168.422 0.882718 4.06834 0
M  V30 1841 H 168.955 2.34895 3.21044 0
M  V30 1842 H 165.694 5.26503 3.90481 0
M  V30 1843 H 165.214 3.74186 4.6877 0
M  V30 1844 H 166.893 4.32265 4.81411 0
M  V30 1845 N 167.025 -1.13721 1.09112 0
M  V30 1846 C 168.265 -1.86576 0.834801 0
M  V30 1847 C 168.629 -1.81435 -0.628122 0
M  V30 1848 O 169.83 -2.49497 -1.00024 0
M  V30 1849 C 168.101 -3.30872 1.35124 0
M  V30 1850 S 169.66 -4.21257 1.22832 0
M  V30 1851 H 166.478 -0.643666 0.302017 0
M  V30 1852 H 169.08 -1.37085 1.39385 0
M  V30 1853 H 167.784 -3.32166 2.41027 0
M  V30 1854 H 167.315 -3.85423 0.788185 0
M  V30 1855 H 169.33 -4.95884 0.177191 0
M  V30 1856 N 168.503 -0.877838 -1.30888 0
M  V30 1857 C 169.78 -0.413052 -1.91189 0
M  V30 1858 C 170.16 1.1056 -1.79832 0
M  V30 1859 O 169.508 1.93771 -1.21099 0
M  V30 1860 C 169.718 -0.903191 -3.3711 0
M  V30 1861 C 171.066 -0.93395 -4.14201 0
M  V30 1862 O 172.09 -0.849373 -3.45925 0
M  V30 1863 O 170.949 -1.05772 -5.36167 0
M  V30 1864 H 168.043 -0.125035 -0.817493 0
M  V30 1865 H 170.589 -0.966269 -1.39504 0
M  V30 1866 H 169.361 -1.94692 -3.39427 0
M  V30 1867 H 168.984 -0.328732 -3.96239 0
M  V30 1868 N 169.982 1.44106 -0.638065 0
M  V30 1869 C 170.892 2.34513 0.0637334 0
M  V30 1870 C 171.908 1.53018 0.828346 0
M  V30 1871 O 173.084 1.85723 0.779036 0
M  V30 1872 C 170.149 3.31095 1.02844 0
M  V30 1873 C 169.21 4.28497 0.26244 0
M  V30 1874 C 168.443 5.20465 1.1812 0
M  V30 1875 O 168.666 5.16514 2.42011 0
M  V30 1876 O 167.6 5.98251 0.661774 0
M  V30 1877 H 171.426 2.95989 -0.68003 0
M  V30 1878 H 169.011 1.43994 -0.398252 0
M  V30 1879 H 170.893 3.90526 1.58327 0
M  V30 1880 H 169.568 2.72144 1.7527 0
M  V30 1881 H 168.475 3.72592 -0.335602 0
M  V30 1882 H 169.808 4.90388 -0.421936 0
M  V30 1883 N 171.46 0.379036 1.52974 0
M  V30 1884 C 172.737 -0.263479 1.93817 0
M  V30 1885 C 173.117 -1.65244 1.31368 0
M  V30 1886 O 172.465 -2.23448 0.477856 0
M  V30 1887 C 172.675 -0.300166 3.47707 0
M  V30 1888 C 174.023 -0.534061 4.21228 0
M  V30 1889 O 175.047 -0.38081 3.54159 0
M  V30 1890 O 173.906 -0.833501 5.40106 0
M  V30 1891 H 171 -0.161149 0.811147 0
M  V30 1892 H 173.546 0.432798 1.64088 0
M  V30 1893 H 172.318 0.673138 3.85467 0
M  V30 1894 H 171.941 -1.04179 3.83709 0
M  V30 1895 N 172.938 -1.57226 0.108567 0
M  V30 1896 C 174.163 -1.99604 -0.563303 0
M  V30 1897 C 174.588 -0.987563 -1.6009 0
M  V30 1898 O 173.946 0.0421687 -1.81251 0
M  V30 1899 C 173.994 -3.40902 -1.17552 0
M  V30 1900 O 173.098 -3.42896 -2.2912 0
M  V30 1901 H 172.439 -0.648704 -0.1417 0
M  V30 1902 H 174.969 -2.03679 0.193961 0
M  V30 1903 H 174.979 -3.78886 -1.51357 0
M  V30 1904 H 173.654 -4.1382 -0.415445 0
M  V30 1905 H 172.231 -3.1672 -1.96832 0
M  V30 1906 N 174.416 0.165178 -1.56732 0
M  V30 1907 C 175.379 1.18822 -1.95995 0
M  V30 1908 C 176.379 1.3685 -0.84431 0
M  V30 1909 O 177.569 1.34152 -1.11126 0
M  V30 1910 C 174.701 2.5521 -2.26011 0
M  V30 1911 H 175.894 0.851825 -2.87548 0
M  V30 1912 H 173.447 0.407857 -1.50885 0
M  V30 1913 H 174.182 2.93852 -1.37191 0
M  V30 1914 H 173.967 2.43489 -3.07336 0
M  V30 1915 H 175.457 3.28927 -2.57288 0
M  V30 1916 N 175.894 1.51508 0.433938 0
M  V30 1917 C 177.122 1.68157 1.20543 0
M  V30 1918 C 177.537 0.380362 1.84929 0
M  V30 1919 O 176.894 -0.641446 1.70856 0
M  V30 1920 C 176.945 2.79965 2.28696 0
M  V30 1921 O 176.666 4.05045 1.66943 0
M  V30 1922 C 178.167 3.07912 3.18912 0
M  V30 1923 H 175.387 0.56421 0.363191 0
M  V30 1924 H 177.931 1.97941 0.513754 0
M  V30 1925 H 176.086 2.5277 2.93574 0
M  V30 1926 H 176.5 4.67165 2.38448 0
M  V30 1927 H 177.974 3.89719 3.90926 0
M  V30 1928 H 178.451 2.20456 3.79863 0
M  V30 1929 H 179.057 3.36779 2.59731 0
M  V30 1930 N 177.372 -0.689602 1.41712 0
M  V30 1931 C 178.282 -1.83314 1.46401 0
M  V30 1932 C 179.298 -1.7036 0.35405 0
M  V30 1933 O 180.474 -1.92171 0.602692 0
M  V30 1934 C 177.539 -3.19344 1.34982 0
M  V30 1935 C 176.6 -3.44363 2.56344 0
M  V30 1936 C 175.833 -4.73904 2.45461 0
M  V30 1937 O 176.056 -5.508 1.48241 0
M  V30 1938 O 174.99 -4.99839 3.35328 0
M  V30 1939 H 178.816 -1.82314 2.42889 0
M  V30 1940 H 176.401 -0.843438 1.23315 0
M  V30 1941 H 178.283 -4.00547 1.3092 0
M  V30 1942 H 176.958 -3.21014 0.41612 0
M  V30 1943 H 175.865 -2.63067 2.65982 0
M  V30 1944 H 177.198 -3.47512 3.48563 0
M  V30 1945 N 178.85 -1.27639 -0.924453 0
M  V30 1946 C 180.078 -1.16989 -1.70649 0
M  V30 1947 C 180.493 0.272869 -1.86818 0
M  V30 1948 O 179.85 1.18549 -1.38753 0
M  V30 1949 C 179.901 -1.85229 -3.10439 0
M  V30 1950 O 179.622 -3.23868 -2.95028 0
M  V30 1951 C 181.123 -1.80746 -4.04779 0
M  V30 1952 H 178.343 -0.406595 -0.53378 0
M  V30 1953 H 180.887 -1.68569 -1.15778 0
M  V30 1954 H 179.042 -1.37545 -3.6216 0
M  V30 1955 H 179.456 -3.57889 -3.83426 0
M  V30 1956 H 180.93 -2.33101 -5.00368 0
M  V30 1957 H 181.407 -0.777499 -4.32263 0
M  V30 1958 H 182.013 -2.28059 -3.58984 0
M  V30 1959 N 180.328 1.1314 -1.09713 0
M  V30 1960 C 181.568 1.8613 -0.844683 0
M  V30 1961 C 181.932 1.81765 0.618491 0
M  V30 1962 O 183.133 2.50024 0.98699 0
M  V30 1963 C 181.404 3.30151 -1.36877 0
M  V30 1964 S 182.963 4.206 -1.25064 0
M  V30 1965 H 179.781 0.642056 -0.305427 0
M  V30 1966 H 182.383 1.36343 -1.4011 0
M  V30 1967 H 181.087 3.30883 -2.42786 0
M  V30 1968 H 180.618 3.85 -0.808614 0
M  V30 1969 H 182.633 4.95783 -0.203486 0
M  V30 1970 N 181.806 0.884767 1.30421 0
M  V30 1971 C 183.036 0.517293 2.00019 0
M  V30 1972 C 183.444 -0.898632 1.66497 0
M  V30 1973 O 182.787 -1.60245 0.898181 0
M  V30 1974 C 182.849 0.612025 3.54252 0
M  V30 1975 C 182.513 1.99222 4.1129 0
M  V30 1976 C 183.51 2.9616 4.273 0
M  V30 1977 C 181.195 2.29755 4.46674 0
M  V30 1978 C 183.189 4.21764 4.77906 0
M  V30 1979 C 180.876 3.55606 4.96979 0
M  V30 1980 C 181.874 4.51425 5.12547 0
M  V30 1981 O 181.562 5.75043 5.61766 0
M  V30 1982 H 181.294 0.198529 0.64619 0
M  V30 1983 H 183.848 1.1919 1.67281 0
M  V30 1984 H 182.078 -0.119561 3.86515 0
M  V30 1985 H 183.767 0.255859 4.05093 0
M  V30 1986 H 184.533 2.73882 4.00267 0
M  V30 1987 H 180.412 1.55942 4.33824 0
M  V30 1988 H 183.956 4.96561 4.89972 0
M  V30 1989 H 179.853 3.7772 5.23448 0
M  V30 1990 H 180.621 5.77422 5.80109 0
M  V30 1991 N 183.284 -1.43765 0.645699 0
M  V30 1992 C 184.512 -2.06253 0.163556 0
M  V30 1993 C 184.927 -1.48352 -1.16778 0
M  V30 1994 O 184.284 -0.611932 -1.71935 0
M  V30 1995 C 184.335 -3.61453 0.0583186 0
M  V30 1996 O 184.056 -4.172 1.33702 0
M  V30 1997 C 185.557 -4.41002 -0.450795 0
M  V30 1998 H 182.777 -0.665413 0.0864077 0
M  V30 1999 H 185.321 -1.84396 0.884222 0
M  V30 2000 H 183.476 -3.82522 -0.612865 0
M  V30 2001 H 183.89 -5.10791 1.19131 0
M  V30 2002 H 185.364 -5.49966 -0.473403 0
M  V30 2003 H 185.841 -4.13488 -1.48068 0
M  V30 2004 H 186.447 -4.24886 0.187637 0
M  V30 2005 N 184.763 -0.387143 -1.52771 0
M  V30 2006 C 185.993 0.195585 -2.05672 0
M  V30 2007 C 186.401 1.41241 -1.25887 0
M  V30 2008 O 185.744 1.81265 -0.298081 0
M  V30 2009 C 185.806 0.632327 -3.53895 0
M  V30 2010 C 185.47 -0.470739 -4.54569 0
M  V30 2011 C 186.467 -1.32746 -5.02667 0
M  V30 2012 C 184.152 -0.637151 -4.98243 0
M  V30 2013 C 186.146 -2.33574 -5.93061 0
M  V30 2014 C 183.833 -1.64877 -5.88438 0
M  V30 2015 C 184.831 -2.49649 -6.35739 0
M  V30 2016 O 184.519 -3.49082 -7.24153 0
M  V30 2017 H 184.251 0.033658 -0.675162 0
M  V30 2018 H 186.805 -0.550221 -1.97893 0
M  V30 2019 H 185.035 1.43008 -3.59285 0
M  V30 2020 H 186.724 1.14048 -3.89548 0
M  V30 2021 H 187.49 -1.21019 -4.69659 0
M  V30 2022 H 183.369 0.0129567 -4.60998 0
M  V30 2023 H 186.913 -2.99777 -6.29904 0
M  V30 2024 H 182.81 -1.76643 -6.2086 0
M  V30 2025 H 183.578 -3.45065 -7.42208 0
M  V30 2026 N 186.241 1.57166 -0.116904 0
M  V30 2027 C 187.518 1.86645 0.585049 0
M  V30 2028 C 187.898 1.0177 1.84949 0
M  V30 2029 O 187.246 0.0960379 2.28298 0
M  V30 2030 C 187.456 3.37736 0.879507 0
M  V30 2031 C 188.804 4.06289 1.23348 0
M  V30 2032 O 189.828 3.42743 0.969836 0
M  V30 2033 O 188.687 5.18455 1.7282 0
M  V30 2034 H 185.781 0.772593 0.295007 0
M  V30 2035 H 188.327 1.69025 -0.151249 0
M  V30 2036 H 187.099 3.91296 -0.0166136 0
M  V30 2037 H 186.722 3.6078 1.67103 0
M  V30 2038 N 187.719 -0.156864 1.56817 0
M  V30 2039 C 189.135 -0.50916 1.5126 0
M  V30 2040 C 189.335 -1.83897 0.823658 0
M  V30 2041 O 188.391 -2.49469 0.390055 0
M  V30 2042 C 189.704 -0.52857 2.96018 0
M  V30 2043 C 191.252 -0.614771 3.06903 0
M  V30 2044 C 191.727 -0.664938 4.53147 0
M  V30 2045 N 193.218 -0.727433 4.57452 0
M  V30 2046 C 193.953 -0.787067 5.67973 0
M  V30 2047 N 193.449 -0.806649 6.88088 0
M  V30 2048 N 195.242 -0.827195 5.5598 0
M  V30 2049 H 187.393 0.714935 2.00006 0
M  V30 2050 H 189.656 0.259526 0.911784 0
M  V30 2051 H 189.362 0.380154 3.49639 0
M  V30 2052 H 189.236 -1.36998 3.51442 0
M  V30 2053 H 191.623 -1.51392 2.53307 0
M  V30 2054 H 191.704 0.253597 2.5454 0
M  V30 2055 H 191.348 0.230011 5.07379 0
M  V30 2056 H 191.278 -1.54966 5.03282 0
M  V30 2057 H 193.769 -0.719998 3.70978 0
M  V30 2058 H 194.082 -0.853727 7.6807 0
M  V30 2059 H 192.427 -0.774687 6.90669 0
M  V30 2060 H 195.618 -0.808998 4.61056 0
M  V30 2061 H 195.791 -0.870206 6.4213 0
M  V30 2062 N 189.197 -1.51736 -0.425897 0
M  V30 2063 C 190.145 -1.74464 -1.53834 0
M  V30 2064 C 191.139 -0.611241 -1.57988 0
M  V30 2065 O 192.345 -0.792899 -1.61596 0
M  V30 2066 H 188.72 -0.551437 -0.511293 0
M  V30 2067 H 190.691 -2.67694 -1.31843 0
M  V30 2068 C 189.44 -1.8972 -2.91379 0
M  V30 2069 H 188.763 -2.76344 -2.88919 0
M  V30 2070 H 190.203 -2.09629 -3.68553 0
M  V30 2071 C 188.662 -0.65992 -3.30374 0
M  V30 2072 O 189.192 0.180083 -4.01296 0
M  V30 2073 N 187.398 -0.500677 -2.86254 0
M  V30 2074 H 186.945 -1.18532 -2.28709 0
M  V30 2075 H 186.903 0.325903 -3.12706 0
M  V30 2076 N 190.675 0.682077 -1.42076 0
M  V30 2077 C 191.622 1.79578 -1.44984 0
M  V30 2078 C 192.592 1.6332 -0.302614 0
M  V30 2079 O 193.777 1.83978 -0.505633 0
M  V30 2080 C 190.917 3.1756 -1.35091 0
M  V30 2081 C 190.03 3.45156 -2.59791 0
M  V30 2082 C 189.165 4.72826 -2.42093 0
M  V30 2083 C 188.204 4.93433 -3.62202 0
M  V30 2084 N 187.341 6.12338 -3.43491 0
M  V30 2085 H 192.181 1.76427 -2.40161 0
M  V30 2086 H 189.718 0.861376 -1.19242 0
M  V30 2087 H 191.676 3.97287 -1.27354 0
M  V30 2088 H 190.306 3.19854 -0.435133 0
M  V30 2089 H 189.358 2.59736 -2.77923 0
M  V30 2090 H 190.67 3.5628 -3.49094 0
M  V30 2091 H 189.824 5.60631 -2.319 0
M  V30 2092 H 188.563 4.63973 -1.50268 0
M  V30 2093 H 187.568 4.04073 -3.72834 0
M  V30 2094 H 188.793 5.04136 -4.54998 0
M  V30 2095 H 186.739 6.04672 -2.54377 0
M  V30 2096 H 186.656 6.2429 -4.26377 0
M  V30 2097 H 187.924 7.02841 -3.37097 0
M  V30 2098 N 192.153 1.28127 0.917671 0
M  V30 2099 C 193.393 1.163 1.68088 0
M  V30 2100 C 193.757 -0.284515 1.8988 0
M  V30 2101 O 194.958 -0.525413 2.63615 0
M  V30 2102 C 193.229 1.93546 3.00457 0
M  V30 2103 S 194.788 1.98048 3.91564 0
M  V30 2104 H 191.606 0.415005 0.577315 0
M  V30 2105 H 194.208 1.62173 1.09179 0
M  V30 2106 H 192.912 2.97888 2.82295 0
M  V30 2107 H 192.443 1.48207 3.64415 0
M  V30 2108 H 194.458 1.08415 4.84211 0
M  V30 2109 N 193.631 -1.12557 1.10312 0
M  V30 2110 C 194.861 -1.87592 0.865617 0
M  V30 2111 C 195.269 -1.79851 -0.587389 0
M  V30 2112 O 194.612 -1.16949 -1.41664 0
M  V30 2113 C 194.674 -3.37665 1.23381 0
M  V30 2114 C 194.338 -3.69181 2.69359 0
M  V30 2115 C 195.335 -3.67652 3.67597 0
M  V30 2116 C 193.02 -3.98555 3.05711 0
M  V30 2117 C 195.014 -3.95053 5.00212 0
M  V30 2118 C 192.701 -4.25616 4.38514 0
M  V30 2119 C 193.699 -4.23851 5.35574 0
M  V30 2120 O 193.387 -4.50242 6.65986 0
M  V30 2121 H 193.119 -0.600442 0.310557 0
M  V30 2122 H 195.673 -1.4335 1.47105 0
M  V30 2123 H 193.903 -3.82454 0.571467 0
M  V30 2124 H 195.592 -3.94041 0.973994 0
M  V30 2125 H 196.358 -3.45024 3.40857 0
M  V30 2126 H 192.237 -3.99071 2.30789 0
M  V30 2127 H 195.781 -3.93591 5.75962 0
M  V30 2128 H 191.678 -4.47718 4.64994 0
M  V30 2129 H 192.446 -4.67867 6.71597 0
M  V30 2130 N 195.109 -0.891671 -1.2995 0
M  V30 2131 C 196.337 -0.52866 -2.00032 0
M  V30 2132 C 196.752 0.884574 -1.66795 0
M  V30 2133 O 196.109 1.5827 -0.908669 0
M  V30 2134 C 196.16 -0.701814 -3.54622 0
M  V30 2135 O 195.881 -2.05942 -3.86678 0
M  V30 2136 C 197.382 -0.342683 -4.41973 0
M  V30 2137 H 194.602 -0.203659 -0.639347 0
M  V30 2138 H 197.146 -1.19881 -1.65677 0
M  V30 2139 H 195.301 -0.0789468 -3.8732 0
M  V30 2140 H 195.715 -2.08291 -4.81368 0
M  V30 2141 H 197.189 -0.514709 -5.49595 0
M  V30 2142 H 197.666 0.71975 -4.33262 0
M  V30 2143 H 198.272 -0.942154 -4.14733 0
M  V30 2144 N 196.587 1.43421 -0.653314 0
M  V30 2145 C 197.55 2.29182 0.0287951 0
M  V30 2146 C 198.55 1.42213 0.750465 0
M  V30 2147 O 199.74 1.63843 0.591701 0
M  V30 2148 C 196.872 3.24278 1.05151 0
M  V30 2149 H 198.065 2.90985 -0.725786 0
M  V30 2150 H 195.618 1.50702 -0.414545 0
M  V30 2151 H 196.353 2.6737 1.83532 0
M  V30 2152 H 196.138 3.88396 0.537687 0
M  V30 2153 H 197.628 3.88647 1.52786 0
M  V30 2154 N 198.065 0.39524 1.52563 0
M  V30 2155 C 199.311 -0.185318 2.01952 0
M  V30 2156 C 199.644 -1.45964 1.28095 0
M  V30 2157 O 198.919 -1.90689 0.38315 0
M  V30 2158 C 199.202 -0.447193 3.57312 0
M  V30 2159 C 199.055 0.842828 4.41833 0
M  V30 2160 C 200.374 -1.23529 4.22408 0
M  V30 2161 H 197.493 -0.0658788 0.73405 0
M  V30 2162 H 200.135 0.525975 1.82575 0
M  V30 2163 H 198.285 -1.05312 3.73954 0
M  V30 2164 H 199.957 1.4795 4.36931 0
M  V30 2165 H 198.2 1.45686 4.08605 0
M  V30 2166 H 198.871 0.614165 5.48573 0
M  V30 2167 H 201.347 -0.722445 4.0978 0
M  V30 2168 H 200.223 -1.38727 5.3108 0
M  V30 2169 H 200.484 -2.25213 3.80436 0
M  V30 2170 N 199.544 -1.57102 0.125237 0
M  V30 2171 C 200.79 -1.95697 -0.532035 0
M  V30 2172 C 201.123 -1.009 -1.6593 0
M  V30 2173 O 200.398 -0.047347 -1.94442 0
M  V30 2174 C 200.681 -3.44181 -1.05884 0
M  V30 2175 C 200.534 -4.49752 0.0654392 0
M  V30 2176 C 201.853 -3.94655 -1.9477 0
M  V30 2177 H 198.972 -0.711571 -0.191925 0
M  V30 2178 H 201.614 -1.88923 0.20206 0
M  V30 2179 H 199.764 -3.50085 -1.68442 0
M  V30 2180 H 201.436 -4.55943 0.700982 0
M  V30 2181 H 199.679 -4.27653 0.727709 0
M  V30 2182 H 200.35 -5.50924 -0.344505 0
M  V30 2183 H 202.826 -3.91094 -1.42074 0
M  V30 2184 H 201.702 -4.99057 -2.28546 0
M  V30 2185 H 201.963 -3.35718 -2.87656 0
M  V30 2186 N 201.022 0.148545 -1.56898 0
M  V30 2187 C 202.433 0.708766 -1.72723 0
M  V30 2188 C 202.784 1.81734 -0.739395 0
M  V30 2189 O 201.909 2.16194 0.0943169 0
M  V30 2190 C 202.504 1.29245 -3.13179 0
M  V30 2191 C 201.063 1.79925 -3.30611 0
M  V30 2192 C 200.21 0.687111 -2.68652 0
M  V30 2193 H 203.161 -0.0771063 -1.58513 0
M  V30 2194 H 203.182 2.16224 -3.13093 0
M  V30 2195 H 202.694 0.485382 -3.85053 0
M  V30 2196 H 200.795 2.63203 -2.63732 0
M  V30 2197 H 200.908 1.92903 -4.38549 0
M  V30 2198 H 199.272 1.11335 -2.29078 0
M  V30 2199 H 200.055 -0.108483 -3.43129 0
M  V30 2200 N 202.5 1.5196 0.417844 0
M  V30 2201 C 203.43 1.77634 1.51554 0
M  V30 2202 C 204.411 0.626918 1.58126 0
M  V30 2203 O 205.596 0.871632 1.7354 0
M  V30 2204 C 202.726 1.91911 2.8946 0
M  V30 2205 C 201.68 3.07463 2.97743 0
M  V30 2206 C 201.006 3.06951 4.37819 0
M  V30 2207 C 202.306 4.47082 2.70027 0
M  V30 2208 H 204 2.6955 1.3032 0
M  V30 2209 H 201.546 1.29706 0.625492 0
M  V30 2210 H 203.499 2.08455 3.6623 0
M  V30 2211 H 202.223 0.966598 3.11969 0
M  V30 2212 H 200.882 2.90656 2.23416 0
M  V30 2213 H 200.53 2.09438 4.57323 0
M  V30 2214 H 200.23 3.84556 4.44286 0
M  V30 2215 H 201.754 3.25613 5.16535 0
M  V30 2216 H 203.168 4.6414 3.36522 0
M  V30 2217 H 201.565 5.2654 2.87881 0
M  V30 2218 H 202.635 4.55777 1.65514 0
M  V30 2219 N 203.978 -0.674533 1.42435 0
M  V30 2220 C 205.224 -1.43671 1.43131 0
M  V30 2221 C 205.557 -1.94142 0.0476021 0
M  V30 2222 O 204.832 -1.70924 -0.928188 0
M  V30 2223 C 205.115 -2.63355 2.45594 0
M  V30 2224 C 204.968 -2.18514 3.93156 0
M  V30 2225 C 206.287 -3.65571 2.45043 0
M  V30 2226 H 203.406 -0.521077 0.521198 0
M  V30 2227 H 206.048 -0.766551 1.7385 0
M  V30 2228 H 204.198 -3.2053 2.19528 0
M  V30 2229 H 205.87 -1.66504 4.30202 0
M  V30 2230 H 204.113 -1.50086 4.07009 0
M  V30 2231 H 204.784 -3.04484 4.60428 0
M  V30 2232 H 207.26 -3.18113 2.68223 0
M  V30 2233 H 206.136 -4.46893 3.18713 0
M  V30 2234 H 206.397 -4.16716 1.47649 0
M  V30 2235 N 205.456 -1.28612 -0.910864 0
M  V30 2236 C 206.686 -1.1862 -1.69153 0
M  V30 2237 C 207.094 0.257324 -1.87442 0
M  V30 2238 O 206.437 1.18543 -1.40332 0
M  V30 2239 C 206.499 -1.81606 -3.10257 0
M  V30 2240 C 206.163 -3.30864 -3.15243 0
M  V30 2241 C 207.16 -4.27256 -2.96223 0
M  V30 2242 C 204.845 -3.71871 -3.37664 0
M  V30 2243 C 206.839 -5.62631 -2.99541 0
M  V30 2244 C 204.526 -5.07371 -3.40614 0
M  V30 2245 C 205.524 -6.02561 -3.21573 0
M  V30 2246 O 205.212 -7.35589 -3.2429 0
M  V30 2247 H 204.944 -0.412633 -0.535453 0
M  V30 2248 H 207.498 -1.70306 -1.14827 0
M  V30 2249 H 205.728 -1.24418 -3.66138 0
M  V30 2250 H 207.417 -1.66092 -3.70362 0
M  V30 2251 H 208.183 -3.9691 -2.78725 0
M  V30 2252 H 204.062 -2.98241 -3.5153 0
M  V30 2253 H 207.606 -6.36907 -2.84597 0
M  V30 2254 H 203.503 -5.37366 -3.57642 0
M  V30 2255 H 204.271 -7.44252 -3.40633 0
M  V30 2256 N 206.934 1.1197 -1.10907 0
M  V30 2257 C 208.182 1.83225 -0.852819 0
M  V30 2258 C 208.503 1.84769 0.623341 0
M  V30 2259 O 207.773 1.3143 1.45269 0
M  V30 2260 H 206.353 0.67849 -0.312507 0
M  V30 2261 H 209.015 1.3556 -1.40033 0
M  V30 2262 H 208.111 2.87265 -1.22005 0
M  V30 2263 N 208.412 0.89855 1.29475 0
M  V30 2264 C 209.66 0.522847 1.9522 0
M  V30 2265 C 209.981 -0.93371 1.71192 0
M  V30 2266 O 209.251 -1.65823 1.04305 0
M  V30 2267 H 207.831 0.190366 0.722336 0
M  V30 2268 H 210.493 1.14459 1.5775 0
M  V30 2269 H 209.589 0.704476 3.04045 0
M  V30 2270 N 209.89 -1.43072 0.660911 0
M  V30 2271 C 210.8 -2.34585 -0.0264163 0
M  V30 2272 C 211.816 -1.54316 -0.803898 0
M  V30 2273 O 212.992 -1.86939 -0.749391 0
M  V30 2274 C 210.057 -3.32689 -0.975639 0
M  V30 2275 C 209.118 -4.2886 -0.194236 0
M  V30 2276 C 208.351 -5.22278 -1.09825 0
M  V30 2277 O 208.574 -5.20299 -2.33763 0
M  V30 2278 O 207.508 -5.99228 -0.566513 0
M  V30 2279 H 211.334 -2.94869 0.727034 0
M  V30 2280 H 208.919 -1.43342 0.42111 0
M  V30 2281 H 210.801 -3.92995 -1.52094 0
M  V30 2282 H 209.476 -2.74898 -1.70918 0
M  V30 2283 H 208.383 -3.72011 0.394835 0
M  V30 2284 H 209.716 -4.89655 0.499899 0
M  V30 2285 N 211.368 -0.403325 -1.52352 0
M  V30 2286 C 212.596 0.174012 -2.06167 0
M  V30 2287 C 213.011 1.39347 -1.27388 0
M  V30 2288 O 212.368 1.79597 -0.324201 0
M  V30 2289 C 212.419 0.530223 -3.5759 0
M  V30 2290 O 212.14 -0.640806 -4.33388 0
M  V30 2291 C 213.641 1.16192 -4.27802 0
M  V30 2292 H 210.861 0.0229464 -0.670608 0
M  V30 2293 H 213.405 -0.572604 -1.9632 0
M  V30 2294 H 211.56 1.22673 -3.67464 0
M  V30 2295 H 211.974 -0.344851 -5.23365 0
M  V30 2296 H 213.448 1.36141 -5.34948 0
M  V30 2297 H 213.925 2.13335 -3.83907 0
M  V30 2298 H 214.531 0.505775 -4.22282 0
M  V30 2299 N 212.846 1.57033 -0.133567 0
M  V30 2300 C 213.793 2.16074 0.811208 0
M  V30 2301 C 214.763 1.08979 1.2535 0
M  V30 2302 O 215.948 1.36958 1.32843 0
M  V30 2303 C 213.088 2.77595 2.05024 0
M  V30 2304 C 212.201 3.99042 1.65498 0
M  V30 2305 C 211.336 4.48603 2.84479 0
M  V30 2306 C 210.375 5.62547 2.41262 0
M  V30 2307 N 209.512 6.06787 3.53206 0
M  V30 2308 H 214.352 2.96477 0.300906 0
M  V30 2309 H 211.889 1.46462 0.136822 0
M  V30 2310 H 213.847 3.11402 2.77642 0
M  V30 2311 H 212.477 1.99859 2.53488 0
M  V30 2312 H 211.529 3.71302 0.826981 0
M  V30 2313 H 212.841 4.81629 1.29748 0
M  V30 2314 H 211.995 4.84395 3.65303 0
M  V30 2315 H 210.734 3.64995 3.23465 0
M  V30 2316 H 209.739 5.26345 1.58874 0
M  V30 2317 H 210.964 6.47931 2.03377 0
M  V30 2318 H 208.91 5.26117 3.91838 0
M  V30 2319 H 208.827 6.84266 3.21427 0
M  V30 2320 H 210.095 6.4722 4.34427 0
M  V30 2321 N 214.325 -0.140222 1.56975 0
M  V30 2322 C 215.258 -1.20266 1.93936 0
M  V30 2323 C 216.236 -1.41212 0.806099 0
M  V30 2324 O 217.42 -1.55713 1.06234 0
M  V30 2325 C 214.547 -2.56037 2.21726 0
M  V30 2326 C 213.593 -2.51646 3.44349 0
M  V30 2327 S 214.426 -1.97678 4.97678 0
M  V30 2328 C 215.582 -3.35165 5.28597 0
M  V30 2329 H 215.815 -0.887358 2.83749 0
M  V30 2330 H 213.348 -0.346119 1.50471 0
M  V30 2331 H 215.306 -3.34167 2.38416 0
M  V30 2332 H 213.967 -2.84755 1.32566 0
M  V30 2333 H 213.16 -3.51608 3.61092 0
M  V30 2334 H 212.762 -1.81628 3.26936 0
M  V30 2335 H 215.054 -4.31302 5.2248 0
M  V30 2336 H 215.997 -3.23269 6.30002 0
M  V30 2337 H 216.405 -3.32614 4.56101 0
M  V30 2338 N 215.803 -1.52179 -0.40978 0
M  V30 2339 C 217.049 -1.66453 -1.15851 0
M  V30 2340 C 217.382 -0.392972 -1.90182 0
M  V30 2341 O 216.657 0.608579 -1.84734 0
M  V30 2342 C 216.94 -2.88612 -2.15349 0
M  V30 2343 C 216.793 -4.25815 -1.44918 0
M  V30 2344 C 218.112 -3.06294 -3.16026 0
M  V30 2345 H 215.231 -0.60575 -0.419805 0
M  V30 2346 H 217.873 -1.84732 -0.444314 0
M  V30 2347 H 216.023 -2.73158 -2.76255 0
M  V30 2348 H 217.695 -4.52995 -0.871365 0
M  V30 2349 H 215.938 -4.27247 -0.751159 0
M  V30 2350 H 216.609 -5.07337 -2.17516 0
M  V30 2351 H 219.085 -3.20641 -2.65195 0
M  V30 2352 H 217.961 -3.93283 -3.8291 0
M  V30 2353 H 218.222 -2.19579 -3.83715 0
M  V30 2354 N 217.281 0.66697 -1.42791 0
M  V30 2355 C 218.191 1.80962 -1.49299 0
M  V30 2356 C 219.207 1.69775 -0.381108 0
M  V30 2357 O 220.383 1.91188 -0.633188 0
M  V30 2358 C 217.448 3.17156 -1.40045 0
M  V30 2359 C 216.509 3.40242 -2.6179 0
M  V30 2360 C 215.742 4.69939 -2.52969 0
M  V30 2361 O 215.965 5.48372 -1.56985 0
M  V30 2362 O 214.899 4.94441 -3.43237 0
M  V30 2363 H 218.725 1.78427 -2.45759 0
M  V30 2364 H 216.31 0.823713 -1.24641 0
M  V30 2365 H 218.192 3.98413 -1.37276 0
M  V30 2366 H 216.867 3.20312 -0.467138 0
M  V30 2367 H 215.774 2.58802 -2.70134 0
M  V30 2368 H 217.107 3.41923 -3.54047 0
M  V30 2369 N 218.759 1.29093 0.90403 0
M  V30 2370 C 219.987 1.19689 1.68766 0
M  V30 2371 C 220.402 -0.243113 1.87228 0
M  V30 2372 O 219.759 -1.16326 1.40621 0
M  V30 2373 C 219.81 1.90144 3.07453 0
M  V30 2374 O 219.531 3.2852 2.89838 0
M  V30 2375 C 221.032 1.87162 4.01852 0
M  V30 2376 H 218.252 0.415035 0.527244 0
M  V30 2377 H 220.796 1.7039 1.13082 0
M  V30 2378 H 218.951 1.43289 3.59926 0
M  V30 2379 H 219.365 3.63944 3.77684 0
M  V30 2380 H 220.839 2.41032 4.96596 0
M  V30 2381 H 221.316 0.84617 4.30972 0
M  V30 2382 H 221.922 2.33741 3.5531 0
M  V30 2383 N 220.237 -1.11381 1.11499 0
M  V30 2384 C 221.2 -2.15622 0.777153 0
M  V30 2385 C 222.2 -1.59504 -0.203779 0
M  V30 2386 O 223.39 -1.74188 0.020782 0
M  V30 2387 C 220.522 -3.40556 0.153116 0
M  V30 2388 H 221.715 -2.47021 1.70061 0
M  V30 2389 H 219.268 -1.26577 0.916952 0
M  V30 2390 H 220.003 -3.14767 -0.780536 0
M  V30 2391 H 219.788 -3.8257 0.859238 0
M  V30 2392 H 221.278 -4.17546 -0.0671044 0
M  V30 2393 N 221.715 -0.905404 -1.28997 0
M  V30 2394 C 222.645 -0.404212 -2.29975 0
M  V30 2395 C 223.626 0.523784 -1.61835 0
M  V30 2396 O 224.811 0.433298 -1.89304 0
M  V30 2397 C 221.941 0.364042 -3.45387 0
M  V30 2398 C 220.895 -0.474048 -4.25367 0
M  V30 2399 C 220.221 0.422045 -5.33032 0
M  V30 2400 C 221.521 -1.72696 -4.92923 0
M  V30 2401 H 223.215 -1.24807 -2.72146 0
M  V30 2402 H 220.761 -0.601585 -1.30832 0
M  V30 2403 H 222.714 0.725447 -4.15109 0
M  V30 2404 H 221.438 1.24174 -3.02074 0
M  V30 2405 H 220.097 -0.81786 -3.57361 0
M  V30 2406 H 219.745 1.29804 -4.85963 0
M  V30 2407 H 219.445 -0.135057 -5.87445 0
M  V30 2408 H 220.969 0.779517 -6.05604 0
M  V30 2409 H 222.383 -1.43495 -5.55051 0
M  V30 2410 H 220.78 -2.22582 -5.57295 0
M  V30 2411 H 221.85 -2.45964 -4.17887 0
M  V30 2412 N 223.193 1.4272 -0.668489 0
M  V30 2413 C 224.421 2.05966 -0.196348 0
M  V30 2414 C 224.836 1.50191 1.14403 0
M  V30 2415 O 224.193 0.639208 1.7094 0
M  V30 2416 C 224.244 3.61314 -0.115815 0
M  V30 2417 O 223.965 4.1502 -1.40322 0
M  V30 2418 C 225.466 4.41663 0.380579 0
M  V30 2419 H 222.686 0.663954 -0.0969829 0
M  V30 2420 H 225.23 1.82966 -0.913446 0
M  V30 2421 H 223.385 3.83448 0.551931 0
M  V30 2422 H 223.799 5.08832 -1.27243 0
M  V30 2423 H 225.273 5.5065 0.385848 0
M  V30 2424 H 225.75 4.15792 1.41471 0
M  V30 2425 H 226.356 4.24534 -0.255209 0
M  V30 2426 N 224.671 0.411399 1.52136 0
M  V30 2427 C 226.082 -0.0576826 1.86611 0
M  V30 2428 C 226.433 -1.44238 1.33003 0
M  V30 2429 O 225.558 -2.05759 0.670228 0
M  V30 2430 C 226.153 -0.111448 3.38617 0
M  V30 2431 C 224.712 -0.52487 3.72723 0
M  V30 2432 C 223.859 0.299176 2.75681 0
M  V30 2433 H 226.81 0.628368 1.4573 0
M  V30 2434 H 226.831 -0.926252 3.69054 0
M  V30 2435 H 226.343 0.896488 3.77604 0
M  V30 2436 H 224.444 -1.53936 3.39315 0
M  V30 2437 H 224.557 -0.267681 4.78352 0
M  V30 2438 H 222.921 -0.238814 2.53578 0
M  V30 2439 H 223.704 1.3055 3.17508 0
M  V30 2440 N 226.149 -1.5696 0.141893 0
M  V30 2441 C 227.426 -1.87553 -0.555281 0
M  V30 2442 C 227.806 -1.04699 -1.83306 0
M  V30 2443 O 227.154 -0.132346 -2.28116 0
M  V30 2444 C 227.364 -3.39093 -0.825664 0
M  V30 2445 C 228.712 -4.08199 -1.16869 0
M  V30 2446 O 229.736 -3.44242 -0.915185 0
M  V30 2447 O 228.595 -5.21139 -1.6455 0
M  V30 2448 H 225.689 -0.777188 -0.282679 0
M  V30 2449 H 228.235 -1.68763 0.17812 0
M  V30 2450 H 227.007 -3.91221 0.0788633 0
M  V30 2451 H 226.63 -3.63393 -1.61343 0
M  V30 2452 N 227.627 0.131896 -1.57047 0
M  V30 2453 C 228.59 1.14638 -1.98471 0
M  V30 2454 C 229.59 1.35029 -0.873148 0
M  V30 2455 O 230.78 1.31764 -1.13946 0
M  V30 2456 C 227.912 2.50358 -2.31373 0
M  V30 2457 H 229.105 0.79064 -2.8929 0
M  V30 2458 H 226.658 0.375761 -1.51716 0
M  V30 2459 H 227.393 2.90876 -1.43393 0
M  V30 2460 H 227.178 2.36915 -3.12432 0
M  V30 2461 H 228.668 3.23395 -2.64207 0
M  V30 2462 N 229.106 1.52395 0.401703 0
M  V30 2463 C 230.346 1.68498 1.15705 0
M  V30 2464 C 230.71 0.409748 1.87577 0
M  V30 2465 O 231.911 0.446983 2.65058 0
M  V30 2466 C 230.182 2.87789 2.11924 0
M  V30 2467 S 231.741 3.24415 2.95466 0
M  V30 2468 H 228.559 0.593267 0.391862 0
M  V30 2469 H 231.161 1.90408 0.443282 0
M  V30 2470 H 229.865 3.7884 1.57824 0
M  V30 2471 H 229.396 2.68175 2.87829 0
M  V30 2472 H 231.411 2.73614 4.13944 0
M  V30 2473 N 230.584 -0.659388 1.43143 0
M  V30 2474 C 231.814 -1.44513 1.47646 0
M  V30 2475 C 232.222 -1.88981 0.0910095 0
M  V30 2476 O 231.565 -1.59702 -0.907789 0
M  V30 2477 C 231.627 -2.71663 2.35456 0
M  V30 2478 C 231.291 -2.49175 3.83094 0
M  V30 2479 C 232.288 -2.1279 4.74359 0
M  V30 2480 C 229.973 -2.63691 4.27519 0
M  V30 2481 C 231.967 -1.9121 6.08044 0
M  V30 2482 C 229.654 -2.41726 5.61259 0
M  V30 2483 C 230.652 -2.0554 6.51339 0
M  V30 2484 O 230.34 -1.838 7.82606 0
M  V30 2485 H 230.072 -0.45064 0.503884 0
M  V30 2486 H 232.626 -0.816248 1.88485 0
M  V30 2487 H 230.856 -3.37089 1.89493 0
M  V30 2488 H 232.545 -3.33595 2.31235 0
M  V30 2489 H 233.311 -2.01157 4.41317 0
M  V30 2490 H 229.19 -2.90832 3.57684 0
M  V30 2491 H 232.734 -1.62889 6.78316 0
M  V30 2492 H 228.631 -2.52959 5.9387 0
M  V30 2493 H 229.399 -1.98275 7.94122 0
M  V30 2494 N 232.062 -1.29571 -0.897171 0
M  V30 2495 C 233.473 -1.15964 -1.46319 0
M  V30 2496 C 233.824 0.244267 -1.94674 0
M  V30 2497 O 232.949 1.13998 -1.83939 0
M  V30 2498 C 233.544 -2.09906 -2.65942 0
M  V30 2499 C 232.103 -2.00314 -3.18671 0
M  V30 2500 C 231.25 -2.00687 -1.91363 0
M  V30 2501 H 234.201 -1.42019 -0.708268 0
M  V30 2502 H 234.222 -1.67276 -3.41759 0
M  V30 2503 H 233.734 -3.12075 -2.30718 0
M  V30 2504 H 231.835 -1.01242 -3.58582 0
M  V30 2505 H 231.948 -2.88102 -3.82798 0
M  V30 2506 H 230.312 -1.45319 -2.09175 0
M  V30 2507 H 231.095 -3.04566 -1.58413 0
M  V30 2508 N 233.54 1.10788 -1.12088 0
M  V30 2509 C 234.817 1.79136 -0.785476 0
M  V30 2510 C 235.197 1.98246 0.725377 0
M  V30 2511 O 234.545 1.57258 1.65778 0
M  V30 2512 C 234.755 3.12375 -1.55636 0
M  V30 2513 C 236.103 3.8731 -1.74001 0
M  V30 2514 O 237.127 3.22085 -1.52117 0
M  V30 2515 O 235.986 5.04369 -2.10415 0
M  V30 2516 H 233.08 0.776226 -0.285311 0
M  V30 2517 H 235.626 1.1747 -1.2247 0
M  V30 2518 H 234.398 2.93863 -2.5838 0
M  V30 2519 H 234.021 3.81758 -1.11114 0
M  V30 2520 O 235.057 1.04415 1.23206 0
M  V30 2521 H 235.748 0.716727 1.79952 0
M  V30 END ATOM
M  V30 BEGIN BOND
M  V30 END BOND
M  V30 END CTAB
M  END
$$$$
