drugbank_target|P01599 Immunoglobulin kappa variable 1-17 (DB01593; DB14487)
 OpenBabel12092121083D

  0  0  0     0  0            999 V3000
M  V30 BEGIN CTAB
M  V30 COUNTS 1784 1805 0 0 0
M  V30 BEGIN ATOM
M  V30 1 H -0.908 1.98254 -0.117106 0
M  V30 2 N 0 1.576 0 0
M  V30 3 C 0.933 2.03868 1.02534 0
M  V30 4 C 1.911 0.928543 1.3348 0
M  V30 5 O 3.095 1.19667 1.45644 0
M  V30 6 C 0.222 2.43627 2.35294 0
M  V30 7 C -0.732 3.65373 2.2001 0
M  V30 8 S 0.101 5.13292 1.52614 0
M  V30 9 C 1.257 5.56322 2.86805 0
M  V30 10 H 1.49 2.90518 0.631377 0
M  V30 11 H -0.977 1.52953 0.210867 0
M  V30 12 H 0.981 2.67203 3.11629 0
M  V30 13 H -0.358 1.57376 2.7183 0
M  V30 14 H -1.165 3.90944 3.18086 0
M  V30 15 H -1.563 3.418 1.51819 0
M  V30 16 H 0.729 5.58782 3.83104 0
M  V30 17 H 1.672 6.56266 2.65933 0
M  V30 18 H 2.08 4.83886 2.90714 0
M  V30 19 N 1.4781 -0.272755 1.55222 0
M  V30 20 C 2.7551 -1.02562 1.66555 0
M  V30 21 C 3.1351 -2.04282 0.532189 0
M  V30 22 O 2.4831 -2.23662 -0.467717 0
M  V30 23 C 2.6931 -1.6822 3.05782 0
M  V30 24 C 4.0411 -2.19373 3.63539 0
M  V30 25 O 5.0651 -1.78206 3.08417 0
M  V30 26 O 3.9241 -2.94883 4.60115 0
M  V30 27 H 1.0181 -0.475755 0.676451 0
M  V30 28 H 3.5641 -0.268593 1.67561 0
M  V30 29 H 2.3361 -0.945112 3.79715 0
M  V30 30 H 1.9591 -2.50609 3.08676 0
M  V30 31 N 2.9562 -1.48159 -0.537278 0
M  V30 32 C 3.8892 -1.567 -1.65893 0
M  V30 33 C 4.8672 -0.41787 -1.57139 0
M  V30 34 O 6.0512 -0.628461 -1.77715 0
M  V30 35 C 3.1782 -1.48818 -3.04255 0
M  V30 36 C 2.2242 -2.68482 -3.31391 0
M  V30 37 S 3.0572 -4.30516 -3.1846 0
M  V30 38 C 4.2132 -4.2522 -4.59281 0
M  V30 39 H 4.4462 -2.5159 -1.58397 0
M  V30 40 H 1.9792 -1.36602 -0.719672 0
M  V30 41 H 3.9372 -1.44958 -3.84054 0
M  V30 42 H 2.5982 -0.552777 -3.09198 0
M  V30 43 H 1.7912 -2.59085 -4.32309 0
M  V30 44 H 1.3932 -2.69567 -2.59248 0
M  V30 45 H 3.6852 -3.94703 -5.5065 0
M  V30 46 H 4.6282 -5.26292 -4.73732 0
M  V30 47 H 5.0362 -3.55791 -4.38261 0
M  V30 48 N 4.4343 0.785586 -1.36625 0
M  V30 49 C 5.8503 1.08419 -1.17122 0
M  V30 50 C 6.0503 2.015 0.00208491 0
M  V30 51 O 5.1063 2.43551 0.666278 0
M  V30 52 C 6.4193 1.69498 -2.48377 0
M  V30 53 C 7.9673 1.81821 -2.54775 0
M  V30 54 C 8.4423 2.46315 -3.86126 0
M  V30 55 N 9.9333 2.53779 -3.87492 0
M  V30 56 C 10.6683 3.045 -4.85868 0
M  V30 57 N 10.1643 3.55499 -5.94637 0
M  V30 58 N 11.9573 3.03247 -4.73284 0
M  V30 59 H 4.1083 0.167264 -2.1174 0
M  V30 60 H 6.3713 0.13682 -0.938075 0
M  V30 61 H 6.0773 1.08571 -3.34522 0
M  V30 62 H 5.9513 2.6896 -2.64462 0
M  V30 63 H 8.3383 2.41884 -1.69045 0
M  V30 64 H 8.4193 0.811532 -2.42586 0
M  V30 65 H 8.0633 1.86895 -4.72263 0
M  V30 66 H 7.9933 3.47561 -3.95612 0
M  V30 67 H 10.4843 2.17672 -3.08913 0
M  V30 68 H 10.7973 3.92562 -6.65669 0
M  V30 69 H 9.1423 3.5364 -5.98301 0
M  V30 70 H 12.3333 2.62696 -3.87438 0
M  V30 71 H 12.5063 3.42467 -5.50109 0
M  V30 72 N 5.9124 1.20967 1.01018 0
M  V30 73 C 7.1584 1.02526 1.74975 0
M  V30 74 C 7.4914 -0.4408 1.89131 0
M  V30 75 O 6.7664 -1.32718 1.42184 0
M  V30 76 C 7.0494 1.71699 3.1653 0
M  V30 77 C 6.9024 3.25791 3.10129 0
M  V30 78 C 8.2214 1.45531 4.15342 0
M  V30 79 H 5.3404 0.373863 0.635134 0
M  V30 80 H 7.9824 1.49071 1.17805 0
M  V30 81 H 6.1324 1.32128 3.65341 0
M  V30 82 H 7.8044 3.74697 2.69072 0
M  V30 83 H 6.0474 3.56363 2.47362 0
M  V30 84 H 6.7184 3.69353 4.10222 0
M  V30 85 H 9.1944 1.79872 3.75213 0
M  V30 86 H 8.0704 1.96453 5.1254 0
M  V30 87 H 8.3314 0.384237 4.40427 0
M  V30 88 N 7.3905 -1.2043 1.01659 0
M  V30 89 C 8.8015 -1.71517 0.737482 0
M  V30 90 C 9.1525 -1.81547 -0.743973 0
M  V30 91 O 8.2775 -1.47803 -1.58061 0
M  V30 92 C 8.8725 -3.11515 1.33206 0
M  V30 93 C 7.4315 -3.59912 1.10183 0
M  V30 94 C 6.5785 -2.37116 1.43776 0
M  V30 95 H 9.5295 -1.05444 1.18606 0
M  V30 96 H 9.5505 -3.73575 0.722636 0
M  V30 97 H 9.0625 -3.04182 2.41028 0
M  V30 98 H 7.1635 -3.72577 0.0412756 0
M  V30 99 H 7.2765 -4.44731 1.78188 0
M  V30 100 H 5.6405 -2.39857 0.856778 0
M  V30 101 H 6.4235 -2.32424 2.52654 0
M  V30 102 N 8.8686 -0.792821 -1.36206 0
M  V30 103 C 9.8316 -0.199459 -2.2833 0
M  V30 104 C 10.8316 0.605189 -1.48977 0
M  V30 105 O 12.0216 0.425685 -1.68919 0
M  V30 106 C 9.1536 0.723523 -3.33134 0
M  V30 107 H 10.3466 -1.01181 -2.82316 0
M  V30 108 H 7.8996 -0.562485 -1.45828 0
M  V30 109 H 8.6346 1.56008 -2.84309 0
M  V30 110 H 8.4196 0.148436 -3.91819 0
M  V30 111 H 9.9096 1.13344 -4.01924 0
M  V30 112 N 10.3467 1.47872 -0.545128 0
M  V30 113 C 11.2787 2.27869 0.246621 0
M  V30 114 C 12.2917 1.36282 0.890561 0
M  V30 115 O 13.4807 1.61207 0.766449 0
M  V30 116 C 10.5807 3.10159 1.36582 0
M  V30 117 C 9.7537 4.29627 0.820954 0
M  V30 118 C 8.8127 4.93607 1.82314 0
M  V30 119 O 7.8387 5.52366 1.37406 0
M  V30 120 N 9.0407 4.87211 3.15603 0
M  V30 121 H 11.8057 2.96459 -0.439539 0
M  V30 122 H 9.3667 1.57367 -0.380421 0
M  V30 123 H 11.3587 3.49829 2.03474 0
M  V30 124 H 9.9287 2.43891 1.9554 0
M  V30 125 H 9.1487 3.94192 -0.0244032 0
M  V30 126 H 10.4367 5.06928 0.436063 0
M  V30 127 H 9.8347 4.40651 3.54744 0
M  V30 128 H 8.3917 5.30937 3.78087 0
M  V30 129 N 11.8248 0.280983 1.55075 0
M  V30 130 C 12.7548 -0.597469 2.25727 0
M  V30 131 C 13.7358 -1.15417 1.24952 0
M  V30 132 O 14.9208 -1.18722 1.53684 0
M  V30 133 C 12.0508 -1.7789 2.98283 0
M  V30 134 C 11.0048 -1.35347 4.06036 0
M  V30 135 C 10.3308 -2.61846 4.66198 0
M  V30 136 C 11.6308 -0.499354 5.19907 0
M  V30 137 H 13.3248 -0.00824265 2.99399 0
M  V30 138 H 10.8708 -0.0025244 1.44 0
M  V30 139 H 12.8238 -2.39937 3.46422 0
M  V30 140 H 11.5478 -2.39405 2.22155 0
M  V30 141 H 10.2068 -0.756156 3.58717 0
M  V30 142 H 9.8548 -3.21632 3.86732 0
M  V30 143 H 9.5548 -2.3409 5.38958 0
M  V30 144 H 11.0788 -3.24732 5.1709 0
M  V30 145 H 12.4928 -1.02498 5.64063 0
M  V30 146 H 10.8898 -0.316424 5.99265 0
M  V30 147 H 11.9598 0.480459 4.82514 0
M  V30 148 N 13.3029 -1.57598 0.00835791 0
M  V30 149 C 14.2329 -2.1198 -0.979113 0
M  V30 150 C 15.2139 -1.03091 -1.35301 0
M  V30 151 O 16.3989 -1.30818 -1.43528 0
M  V30 152 C 13.5289 -2.62995 -2.26828 0
M  V30 153 C 12.4829 -3.76485 -2.03576 0
M  V30 154 C 11.8089 -4.13846 -3.38579 0
M  V30 155 C 13.1089 -5.0342 -1.39161 0
M  V30 156 H 14.8029 -2.94738 -0.526281 0
M  V30 157 H 12.3489 -1.41783 -0.251704 0
M  V30 158 H 14.3019 -2.99669 -2.96271 0
M  V30 159 H 13.0259 -1.7737 -2.7424 0
M  V30 160 H 11.6849 -3.40217 -1.36557 0
M  V30 161 H 11.3329 -3.25232 -3.83709 0
M  V30 162 H 11.0329 -4.90312 -3.23834 0
M  V30 163 H 12.5569 -4.53086 -4.09323 0
M  V30 164 H 13.9709 -5.37812 -1.98573 0
M  V30 165 H 12.3679 -5.84746 -1.34878 0
M  V30 166 H 13.4379 -4.83548 -0.361868 0
M  V30 167 N 14.781 0.264519 -1.55364 0
M  V30 168 C 16.029 0.993021 -1.76021 0
M  V30 169 C 16.35 1.86511 -0.569099 0
M  V30 170 O 15.62 1.91438 0.415735 0
M  V30 171 H 14.2 0.369639 -0.649135 0
M  V30 172 H 16.862 0.286707 -1.9278 0
M  V30 173 H 15.958 1.62502 -2.66457 0
M  V30 174 N 16.2591 1.48442 0.529413 0
M  V30 175 C 17.1891 1.65902 1.64313 0
M  V30 176 C 18.1701 0.507897 1.6234 0
M  V30 177 O 19.3551 0.740503 1.79528 0
M  V30 178 C 16.4851 1.69911 3.02898 0
M  V30 179 C 15.4391 2.8453 3.19729 0
M  V30 180 C 14.7651 2.73629 4.59381 0
M  V30 181 C 16.0651 4.25821 3.02447 0
M  V30 182 H 17.7591 2.5914 1.49955 0
M  V30 183 H 15.3051 1.24709 0.719982 0
M  V30 184 H 17.2581 1.80715 3.80684 0
M  V30 185 H 15.9821 0.732524 3.18279 0
M  V30 186 H 14.6411 2.73283 2.44361 0
M  V30 187 H 14.2891 1.74938 4.71599 0
M  V30 188 H 13.9891 3.50541 4.71588 0
M  V30 189 H 15.5131 2.86401 5.39265 0
M  V30 190 H 16.9271 4.37898 3.70024 0
M  V30 191 H 15.3241 5.03735 3.26146 0
M  V30 192 H 16.3941 4.42244 1.98867 0
M  V30 193 N 17.7372 -0.778329 1.37039 0
M  V30 194 C 18.6672 -1.90546 1.34962 0
M  V30 195 C 19.6482 -1.68681 0.219274 0
M  V30 196 O 20.8332 -1.89634 0.418624 0
M  V30 197 C 17.9632 -3.27734 1.14925 0
M  V30 198 C 16.9172 -3.64147 2.24902 0
M  V30 199 C 16.2432 -4.99806 1.89996 0
M  V30 200 C 17.5432 -3.71579 3.67051 0
M  V30 201 H 19.2372 -1.92541 2.29277 0
M  V30 202 H 16.7832 -0.924948 1.10366 0
M  V30 203 H 18.7362 -4.06215 1.12104 0
M  V30 204 H 17.4602 -3.26154 0.170631 0
M  V30 205 H 16.1192 -2.8797 2.26868 0
M  V30 206 H 15.7672 -4.94759 0.906796 0
M  V30 207 H 15.4672 -5.25139 2.63634 0
M  V30 208 H 16.9912 -5.80694 1.88749 0
M  V30 209 H 18.4052 -4.40227 3.67251 0
M  V30 210 H 16.8022 -4.08405 4.39688 0
M  V30 211 H 17.8722 -2.72404 4.01154 0
M  V30 212 N 19.2153 -1.21501 -1.00376 0
M  V30 213 C 20.1453 -0.999478 -2.11028 0
M  V30 214 C 21.1263 0.0759671 -1.6993 0
M  V30 215 O 22.3113 -0.0841106 -1.94018 0
M  V30 216 C 19.4413 -0.564709 -3.42678 0
M  V30 217 C 18.3953 -1.58486 -3.97576 0
M  V30 218 C 17.7213 -1.00628 -5.25146 0
M  V30 219 C 19.0213 -2.97204 -4.29496 0
M  V30 220 H 20.7153 -1.92495 -2.29317 0
M  V30 221 H 18.2613 -0.92693 -1.102 0
M  V30 222 H 20.2143 -0.401091 -4.19487 0
M  V30 223 H 18.9383 0.396411 -3.24185 0
M  V30 224 H 17.5973 -1.73606 -3.22888 0
M  V30 225 H 17.2453 -0.0368439 -5.02987 0
M  V30 226 H 16.9453 -1.68771 -5.62841 0
M  V30 227 H 18.4693 -0.854015 -6.04598 0
M  V30 228 H 19.8833 -2.8552 -4.97143 0
M  V30 229 H 18.2803 -3.62372 -4.78338 0
M  V30 230 H 19.3503 -3.47956 -3.3772 0
M  V30 231 N 20.6934 1.19889 -1.02296 0
M  V30 232 C 21.6234 2.25141 -0.619174 0
M  V30 233 C 22.6044 1.66051 0.368915 0
M  V30 234 O 23.7894 1.92546 0.252941 0
M  V30 235 C 20.9194 3.4728 0.0368783 0
M  V30 236 C 19.8734 4.19005 -0.872865 0
M  V30 237 C 19.1994 5.34637 -0.0822402 0
M  V30 238 C 20.4994 4.74452 -2.18387 0
M  V30 239 H 22.1934 2.59171 -1.49903 0
M  V30 240 H 19.7394 1.24579 -0.722222 0
M  V30 241 H 21.6924 4.20098 0.330958 0
M  V30 242 H 20.4164 3.12433 0.95149 0
M  V30 243 H 19.0754 3.48061 -1.15105 0
M  V30 244 H 18.7234 4.96034 0.83422 0
M  V30 245 H 18.4234 5.83557 -0.688149 0
M  V30 246 H 19.9474 6.10255 0.205238 0
M  V30 247 H 21.3614 5.39055 -1.95172 0
M  V30 248 H 19.7584 5.33834 -2.74119 0
M  V30 249 H 20.8284 3.92844 -2.84257 0
M  V30 250 N 22.1715 0.800033 1.35784 0
M  V30 251 C 23.4175 0.38701 1.99684 0
M  V30 252 C 23.7725 -1.03268 1.62338 0
M  V30 253 O 23.0655 -1.70543 0.87325 0
M  V30 254 C 23.2595 0.500276 3.53881 0
M  V30 255 C 23.0885 1.92942 4.06206 0
M  V30 256 C 21.8585 2.55637 4.35865 0
M  V30 257 C 24.0565 2.89307 4.25213 0
M  V30 258 N 22.0385 3.9003 4.74078 0
M  V30 259 C 23.4095 4.08556 4.66349 0
M  V30 260 C 25.4645 2.86225 4.07406 0
M  V30 261 C 24.1675 5.25146 4.91543 0
M  V30 262 C 26.1935 4.02011 4.33752 0
M  V30 263 C 25.5555 5.20007 4.75155 0
M  V30 264 H 21.6545 0.189252 0.758754 0
M  V30 265 H 24.2385 1.03988 1.64604 0
M  V30 266 H 22.4095 -0.122568 3.88207 0
M  V30 267 H 24.1415 0.0624733 4.04652 0
M  V30 268 H 20.8965 2.07039 4.25948 0
M  V30 269 H 21.3205 4.59205 4.97454 0
M  V30 270 H 25.9625 1.96154 3.74544 0
M  V30 271 H 23.6805 6.15794 5.23281 0
M  V30 272 H 27.2665 4.00999 4.21534 0
M  V30 273 H 26.1465 6.08113 4.95145 0
M  V30 274 N 23.6496 -1.47581 0.552962 0
M  V30 275 C 24.8966 -2.02482 0.0273243 0
M  V30 276 C 25.2246 -1.42776 -1.32081 0
M  V30 277 O 24.4796 -0.571393 -1.87173 0
M  V30 278 C 24.7786 -3.57199 -0.119728 0
M  V30 279 C 24.4446 -4.35804 1.15697 0
M  V30 280 C 23.1066 -4.57 1.50681 0
M  V30 281 C 25.4586 -4.81167 2.00319 0
M  V30 282 C 22.7866 -5.20807 2.70142 0
M  V30 283 C 25.1386 -5.46293 3.18978 0
M  V30 284 C 23.8026 -5.65722 3.54281 0
M  V30 285 H 23.0726 -0.740933 0.00999866 0
M  V30 286 H 25.7196 -1.77302 0.72362 0
M  V30 287 H 24.0246 -3.81348 -0.89896 0
M  V30 288 H 25.7216 -3.97324 -0.541718 0
M  V30 289 H 22.3116 -4.19582 0.874561 0
M  V30 290 H 26.4956 -4.64574 1.74599 0
M  V30 291 H 21.7516 -5.34045 2.97668 0
M  V30 292 H 25.9256 -5.80407 3.84838 0
M  V30 293 H 23.5526 -6.14936 4.46942 0
M  V30 294 N 25.1277 -0.289203 -1.54924 0
M  V30 295 C 26.5387 0.205791 -1.85562 0
M  V30 296 C 26.8897 1.54351 -1.2112 0
M  V30 297 O 26.0147 2.10435 -0.504601 0
M  V30 298 C 26.6097 0.380177 -3.3666 0
M  V30 299 C 25.1687 0.819395 -3.67373 0
M  V30 300 C 24.3157 -0.079159 -2.77187 0
M  V30 301 H 27.2667 -0.510577 -1.50262 0
M  V30 302 H 27.2877 1.21659 -3.60526 0
M  V30 303 H 26.7997 -0.593589 -3.83534 0
M  V30 304 H 24.9007 1.80413 -3.26009 0
M  V30 305 H 25.0137 0.646957 -4.74712 0
M  V30 306 H 23.3777 0.439565 -2.50878 0
M  V30 307 H 24.1607 -1.04906 -3.26878 0
M  V30 308 N 26.6058 1.57591 -0.0167156 0
M  V30 309 C 27.8538 1.90906 0.663285 0
M  V30 310 C 28.1748 0.892509 1.73376 0
M  V30 311 O 27.4448 -0.0677623 1.95783 0
M  V30 312 H 26.0248 0.704637 0.247983 0
M  V30 313 H 28.6868 1.94803 -0.0615909 0
M  V30 314 H 27.7828 2.9116 1.12393 0
M  V30 315 N 28.0839 -0.256276 1.55502 0
M  V30 316 C 29.0469 -1.30047 1.88734 0
M  V30 317 C 30.0469 -1.4154 0.763086 0
M  V30 318 O 31.2369 -1.40403 1.03115 0
M  V30 319 C 28.3689 -2.67953 2.10747 0
M  V30 320 H 29.5619 -1.01802 2.82093 0
M  V30 321 H 27.1149 -0.495134 1.4825 0
M  V30 322 H 27.8499 -3.01351 1.19825 0
M  V30 323 H 27.6349 -2.60993 2.92617 0
M  V30 324 H 29.1249 -3.43368 2.37673 0
M  V30 325 N 29.562 -1.4872 -0.521534 0
M  V30 326 C 30.978 -1.35028 -0.850855 0
M  V30 327 C 31.178 -0.367712 -1.98116 0
M  V30 328 O 30.234 0.208037 -2.51642 0
M  V30 329 C 31.547 -2.75263 -1.21041 0
M  V30 330 C 33.095 -2.83813 -1.31981 0
M  V30 331 C 33.57 -4.24769 -1.71276 0
M  V30 332 N 35.061 -4.27482 -1.78363 0
M  V30 333 C 35.796 -5.33494 -2.1017 0
M  V30 334 N 35.292 -6.49775 -2.40343 0
M  V30 335 N 37.085 -5.20894 -2.11248 0
M  V30 336 H 29.236 -2.11214 0.22413 0
M  V30 337 H 31.499 -0.947252 0.0376439 0
M  V30 338 H 31.205 -3.48765 -0.453415 0
M  V30 339 H 31.079 -3.09327 -2.15863 0
M  V30 340 H 33.466 -2.10561 -2.06756 0
M  V30 341 H 33.547 -2.53358 -0.352596 0
M  V30 342 H 33.191 -4.9854 -0.970588 0
M  V30 343 H 33.121 -4.52673 -2.69062 0
M  V30 344 H 35.612 -3.43611 -1.57288 0
M  V30 345 H 35.925 -7.26402 -2.63743 0
M  V30 346 H 34.27 -6.53035 -2.37844 0
M  V30 347 H 37.461 -4.29065 -1.87139 0
M  V30 348 H 37.634 -6.03612 -2.35704 0
M  V30 349 N 31.0401 0.771051 -1.3745 0
M  V30 350 C 32.2801 1.54264 -1.34096 0
M  V30 351 C 32.6441 1.91858 0.0737639 0
M  V30 352 O 33.8451 2.67797 0.23203 0
M  V30 353 C 32.1161 2.77326 -2.25445 0
M  V30 354 S 33.6751 3.67383 -2.39948 0
M  V30 355 H 30.4931 0.528122 -0.476034 0
M  V30 356 H 33.0951 0.906633 -1.73206 0
M  V30 357 H 31.7991 2.47788 -3.27153 0
M  V30 358 H 31.3301 3.45886 -1.87421 0
M  V30 359 H 33.3451 4.69334 -1.61059 0
M  V30 360 N 32.5182 1.22032 0.997298 0
M  V30 361 C 33.7952 0.950823 1.70935 0
M  V30 362 C 34.1752 -0.535292 2.042 0
M  V30 363 O 33.5232 -1.50217 1.72183 0
M  V30 364 C 33.7332 1.84386 2.96315 0
M  V30 365 C 35.0812 2.09732 3.69185 0
M  V30 366 O 36.1052 1.81798 3.06314 0
M  V30 367 O 34.9642 2.57018 4.82291 0
M  V30 368 H 32.0582 0.357204 0.745878 0
M  V30 369 H 34.6042 1.32997 1.05404 0
M  V30 370 H 33.3762 2.84928 2.68201 0
M  V30 371 H 32.9992 1.46602 3.69586 0
M  V30 372 N 33.9963 -1.19345 1.0293 0
M  V30 373 C 35.2453 -1.88363 0.721256 0
M  V30 374 C 35.5583 -1.80514 -0.753254 0
M  V30 375 O 36.7643 -2.44788 -1.17436 0
M  V30 376 C 35.2203 -3.37872 1.23978 0
M  V30 377 C 34.8283 -3.54278 2.74211 0
M  V30 378 C 36.5723 -4.12365 1.00775 0
M  V30 379 C 34.4793 -4.97682 3.19479 0
M  V30 380 H 33.4093 -0.705484 0.266098 0
M  V30 381 H 36.0603 -1.34928 1.24365 0
M  V30 382 H 34.4423 -3.90707 0.6453 0
M  V30 383 H 35.6163 -3.11769 3.39318 0
M  V30 384 H 33.9313 -2.93174 2.95699 0
M  V30 385 H 36.5283 -5.18119 1.32123 0
M  V30 386 H 36.8713 -4.16263 -0.0554308 0
M  V30 387 H 37.4043 -3.65668 1.56625 0
M  V30 388 H 34.1433 -4.98945 4.25128 0
M  V30 389 H 33.6633 -5.4095 2.591 0
M  V30 390 H 35.3423 -5.66337 3.12845 0
M  V30 391 N 35.4744 -0.807222 -1.35358 0
M  V30 392 C 36.4064 -0.175717 -2.28525 0
M  V30 393 C 37.4194 0.625354 -1.5031 0
M  V30 394 O 38.6084 0.457611 -1.72535 0
M  V30 395 C 35.7084 0.773471 -3.29956 0
M  V30 396 C 34.8814 0.0186296 -4.37396 0
M  V30 397 C 33.9404 0.886395 -5.18681 0
M  V30 398 O 32.9664 0.337106 -5.68201 0
M  V30 399 N 34.1684 2.20839 -5.36852 0
M  V30 400 H 36.9334 -0.976091 -2.83359 0
M  V30 401 H 34.4944 -0.662737 -1.47714 0
M  V30 402 H 36.4864 1.35824 -3.81227 0
M  V30 403 H 35.0564 1.47465 -2.75632 0
M  V30 404 H 34.2764 -0.747349 -3.87051 0
M  V30 405 H 35.5644 -0.501577 -5.06322 0
M  V30 406 H 34.9624 2.67858 -4.98265 0
M  V30 407 H 33.5194 2.74237 -5.91301 0
M  V30 408 N 36.9525 1.47285 -0.560781 0
M  V30 409 C 37.8855 2.27009 0.232821 0
M  V30 410 C 38.8635 1.34273 0.917039 0
M  V30 411 O 40.0475 1.63659 0.935315 0
M  V30 412 C 37.1745 3.11406 1.33206 0
M  V30 413 C 36.2205 4.19746 0.756019 0
M  V30 414 S 37.0535 5.34003 -0.400165 0
M  V30 415 C 38.2095 6.21964 0.700805 0
M  V30 416 H 38.4425 2.93971 -0.443683 0
M  V30 417 H 35.9755 1.50446 -0.347181 0
M  V30 418 H 37.9335 3.60601 1.96156 0
M  V30 419 H 36.5945 2.438 1.98041 0
M  V30 420 H 35.7875 4.78541 1.5816 0
M  V30 421 H 35.3895 3.73451 0.202619 0
M  V30 422 H 37.6815 6.58529 1.59202 0
M  V30 423 H 38.6245 7.07941 0.150126 0
M  V30 424 H 39.0325 5.5566 0.995083 0
M  V30 425 N 38.4306 0.297415 1.54768 0
M  V30 426 C 39.6586 -0.315623 2.04478 0
M  V30 427 C 40.0736 -1.47792 1.17486 0
M  V30 428 O 39.4306 -1.81404 0.19971 0
M  V30 429 C 39.4816 -0.7753 3.53088 0
M  V30 430 O 39.2026 0.340732 4.36773 0
M  V30 431 C 40.7036 -1.45386 4.18781 0
M  V30 432 H 37.9236 -0.0690887 0.667434 0
M  V30 433 H 40.4676 0.436003 1.99798 0
M  V30 434 H 38.6226 -1.47696 3.58141 0
M  V30 435 H 39.0366 -0.0165035 5.24497 0
M  V30 436 H 40.5106 -1.72669 5.24299 0
M  V30 437 H 40.9876 -2.39275 3.68299 0
M  V30 438 H 41.5936 -0.795475 4.17795 0
M  V30 439 N 39.9087 -1.5758 0.0250728 0
M  V30 440 C 40.8407 -2.06869 -0.986796 0
M  V30 441 C 41.8537 -0.991332 -1.29137 0
M  V30 442 O 43.0427 -1.26761 -1.25674 0
M  V30 443 C 40.1427 -2.47486 -2.31525 0
M  V30 444 C 39.3157 -3.78253 -2.19643 0
M  V30 445 C 38.3747 -4.05464 -3.35388 0
M  V30 446 O 37.4007 -4.75774 -3.12454 0
M  V30 447 N 38.6027 -3.55321 -4.59051 0
M  V30 448 H 41.3677 -2.94302 -0.566276 0
M  V30 449 H 38.9287 -1.6109 -0.161776 0
M  V30 450 H 40.9207 -2.62785 -3.07776 0
M  V30 451 H 39.4907 -1.65441 -2.65232 0
M  V30 452 H 38.7107 -3.7279 -1.28144 0
M  V30 453 H 39.9987 -4.63936 -2.08903 0
M  V30 454 H 39.3967 -2.98431 -4.80578 0
M  V30 455 H 37.9537 -3.75905 -5.32483 0
M  V30 456 N 41.3868 0.248026 -1.55636 0
M  V30 457 C 42.6118 0.998028 -1.81808 0
M  V30 458 C 43.0368 1.78207 -0.601979 0
M  V30 459 O 42.3948 1.75653 0.448961 0
M  V30 460 C 42.4428 1.9125 -3.05705 0
M  V30 461 O 41.5468 3.00406 -2.82542 0
M  V30 462 H 40.8878 0.284045 -0.600179 0
M  V30 463 H 43.4178 0.269357 -2.02819 0
M  V30 464 H 43.4278 2.32737 -3.35108 0
M  V30 465 H 42.1028 1.33602 -3.93857 0
M  V30 466 H 40.6798 2.63056 -2.64303 0
M  V30 467 N 42.8649 1.48995 0.513639 0
M  V30 468 C 44.2759 1.5119 1.09537 0
M  V30 469 C 44.6269 0.290906 1.94031 0
M  V30 470 O 43.7519 -0.60049 2.07902 0
M  V30 471 C 44.3469 2.73964 1.99322 0
M  V30 472 C 42.9059 2.78978 2.52682 0
M  V30 473 C 42.0529 2.44934 1.30009 0
M  V30 474 H 45.0039 1.55875 0.298125 0
M  V30 475 H 45.0249 2.53409 2.83838 0
M  V30 476 H 44.5369 3.62813 1.37799 0
M  V30 477 H 42.6379 1.94378 3.1788 0
M  V30 478 H 42.7509 3.8083 2.90698 0
M  V30 479 H 41.1149 1.9644 1.62122 0
M  V30 480 H 41.8979 3.36043 0.702131 0
M  V30 481 N 44.343 -0.763751 1.37857 0
M  V30 482 C 45.568 -1.55805 1.36893 0
M  V30 483 C 45.993 -1.88054 -0.0416135 0
M  V30 484 O 45.351 -1.49825 -1.02089 0
M  V30 485 C 45.399 -2.84012 2.22192 0
M  V30 486 O 44.503 -3.78732 1.63204 0
M  V30 487 H 43.844 -0.471638 0.46739 0
M  V30 488 H 46.374 -0.944657 1.81487 0
M  V30 489 H 46.384 -3.33037 2.35691 0
M  V30 490 H 45.059 -2.59869 3.24716 0
M  V30 491 H 43.636 -3.37402 1.58791 0
M  V30 492 N 45.8211 -1.22559 -0.990812 0
M  V30 493 C 47.0461 -1.07862 -1.77145 0
M  V30 494 C 47.4711 0.366447 -1.84496 0
M  V30 495 O 46.8291 1.26478 -1.29896 0
M  V30 496 C 46.8771 -1.69686 -3.18181 0
M  V30 497 O 45.9811 -0.951946 -4.01263 0
M  V30 498 H 45.3221 -0.378712 -0.545411 0
M  V30 499 H 47.8521 -1.62399 -1.2445 0
M  V30 500 H 47.8621 -1.74496 -3.68802 0
M  V30 501 H 46.5371 -2.74841 -3.12146 0
M  V30 502 H 45.1141 -0.980011 -3.59792 0
M  V30 503 N 47.2992 1.18797 -1.03562 0
M  V30 504 C 48.2292 2.24472 -0.643019 0
M  V30 505 C 49.2102 1.66433 0.351283 0
M  V30 506 O 50.3952 1.92803 0.232505 0
M  V30 507 C 47.5252 3.473 4.24935e-05 0
M  V30 508 C 46.4792 4.18055 -0.917257 0
M  V30 509 C 45.8052 5.34519 -0.138941 0
M  V30 510 C 47.1052 4.72109 -2.23407 0
M  V30 511 H 48.7992 2.57566 -1.52643 0
M  V30 512 H 46.3452 1.23806 -0.735394 0
M  V30 513 H 48.2982 4.20426 0.286383 0
M  V30 514 H 47.0222 3.13424 0.918299 0
M  V30 515 H 45.6812 3.46821 -1.1879 0
M  V30 516 H 45.3292 4.96891 0.781562 0
M  V30 517 H 45.0292 5.82794 -0.750005 0
M  V30 518 H 46.5532 6.10438 0.1405 0
M  V30 519 H 47.9672 5.36955 -2.00879 0
M  V30 520 H 46.3642 5.30897 -2.79765 0
M  V30 521 H 47.4342 3.89807 -2.88407 0
M  V30 522 N 48.7773 0.814389 1.34928 0
M  V30 523 C 50.0023 0.410097 2.03305 0
M  V30 524 C 50.4273 -0.973464 1.60951 0
M  V30 525 O 49.7853 -1.63185 0.789964 0
M  V30 526 C 49.8333 0.51049 3.56968 0
M  V30 527 O 48.9373 -0.473035 4.09678 0
M  V30 528 H 48.2783 0.170088 0.641846 0
M  V30 529 H 50.8083 1.10244 1.72358 0
M  V30 530 H 50.8183 0.383135 4.06197 0
M  V30 531 H 49.4933 1.51963 3.87144 0
M  V30 532 H 48.0703 -0.305272 3.71648 0
M  V30 533 N 50.2554 -1.46986 0.568584 0
M  V30 534 C 51.2184 -2.28624 -0.162366 0
M  V30 535 C 52.2184 -1.37596 -0.832103 0
M  V30 536 O 53.4084 -1.60115 -0.68622 0
M  V30 537 C 50.5404 -3.17596 -1.23878 0
M  V30 538 H 51.7334 -2.94722 0.554899 0
M  V30 539 H 49.2864 -1.52863 0.325976 0
M  V30 540 H 50.0214 -2.56214 -1.98808 0
M  V30 541 H 49.8064 -3.846 -0.763219 0
M  V30 542 H 51.2964 -3.79078 -1.75185 0
M  V30 543 N 51.7335 -0.305618 -1.54608 0
M  V30 544 C 52.9585 0.307562 -2.05107 0
M  V30 545 C 53.3835 1.46385 -1.18123 0
M  V30 546 O 52.7415 1.8034 -0.186324 0
M  V30 547 C 52.7895 0.73704 -3.52987 0
M  V30 548 O 51.8935 1.84134 -3.6901 0
M  V30 549 H 51.2345 0.0589143 -0.661381 0
M  V30 550 H 53.7645 -0.448807 -1.99617 0
M  V30 551 H 53.7745 1.02459 -3.94925 0
M  V30 552 H 52.4495 -0.108773 -4.15758 0
M  V30 553 H 51.0265 1.55398 -3.38978 0
M  V30 554 N 53.2116 1.57565 -0.0334293 0
M  V30 555 C 54.4576 1.92262 0.645226 0
M  V30 556 C 54.7906 0.910543 1.71531 0
M  V30 557 O 54.0656 -0.066099 1.94388 0
M  V30 558 C 54.3486 3.37422 1.2577 0
M  V30 559 C 54.2016 4.49369 0.196891 0
M  V30 560 C 55.5206 3.82628 2.17449 0
M  V30 561 H 52.6396 0.699171 0.233085 0
M  V30 562 H 55.2816 1.89779 -0.0915694 0
M  V30 563 H 53.4316 3.39669 1.88566 0
M  V30 564 H 55.1036 4.59254 -0.433962 0
M  V30 565 H 53.3466 4.31168 -0.477137 0
M  V30 566 H 54.0176 5.47978 0.665124 0
M  V30 567 H 56.4936 3.82145 1.64634 0
M  V30 568 H 55.3696 4.84883 2.57254 0
M  V30 569 H 55.6306 3.18376 3.0674 0
M  V30 570 N 54.6897 -0.239769 1.55765 0
M  V30 571 C 55.9377 -0.964892 1.77579 0
M  V30 572 C 56.2587 -1.85582 0.598699 0
M  V30 573 O 55.5287 -1.92075 -0.385226 0
M  V30 574 H 54.1087 -0.359265 0.654933 0
M  V30 575 H 56.7707 -0.256001 1.93211 0
M  V30 576 H 55.8667 -1.58243 2.69009 0
M  V30 577 N 56.1678 -1.49265 -0.50573 0
M  V30 578 C 57.4448 -1.49012 -1.26707 0
M  V30 579 C 57.8248 -0.215205 -2.1 0
M  V30 580 O 57.1728 0.802547 -2.13943 0
M  V30 581 C 57.3828 -2.7663 -2.12783 0
M  V30 582 C 58.7308 -3.25932 -2.72127 0
M  V30 583 O 59.7548 -2.77715 -2.23054 0
M  V30 584 O 58.6138 -4.09897 -3.61451 0
M  V30 585 H 55.7078 -0.596197 -0.57313 0
M  V30 586 H 58.2538 -1.61524 -0.52039 0
M  V30 587 H 57.0258 -3.60916 -1.5118 0
M  V30 588 H 56.6488 -2.66956 -2.94653 0
M  V30 589 N 57.6459 0.756429 -1.3826 0
M  V30 590 C 59.0619 1.0591 -1.19395 0
M  V30 591 C 59.2619 2.01459 -0.0406567 0
M  V30 592 O 58.3179 2.44909 0.614467 0
M  V30 593 C 59.6309 1.64191 -2.51916 0
M  V30 594 C 61.1789 1.76376 -2.58574 0
M  V30 595 C 61.6539 2.38069 -3.91264 0
M  V30 596 N 63.1449 2.45503 -3.92788 0
M  V30 597 C 63.8799 2.94126 -4.92217 0
M  V30 598 N 63.3759 3.42805 -6.02043 0
M  V30 599 N 65.1689 2.9314 -4.7961 0
M  V30 600 H 57.3199 0.122313 -2.12048 0
M  V30 601 H 59.5829 0.116892 -0.940766 0
M  V30 602 H 59.2889 1.01451 -3.3675 0
M  V30 603 H 59.1629 2.6329 -2.70108 0
M  V30 604 H 61.5499 2.38244 -1.74137 0
M  V30 605 H 61.6309 0.759894 -2.44252 0
M  V30 606 H 61.2749 1.76835 -4.76121 0
M  V30 607 H 61.2049 3.39091 -4.02895 0
M  V30 608 H 63.6959 2.1107 -3.13461 0
M  V30 609 H 64.0089 3.78354 -6.73846 0
M  V30 610 H 62.3539 3.4087 -6.05667 0
M  V30 611 H 65.5449 2.54419 -3.92923 0
M  V30 612 H 65.7179 3.30721 -5.5725 0
M  V30 613 N 59.124 1.23083 0.984299 0
M  V30 614 C 60.37 1.06214 1.72761 0
M  V30 615 C 60.703 -0.400584 1.90024 0
M  V30 616 O 59.978 -1.29672 1.44967 0
M  V30 617 C 60.261 1.78375 3.12817 0
M  V30 618 C 60.114 3.32296 3.03149 0
M  V30 619 C 61.433 1.54309 4.12161 0
M  V30 620 H 58.552 0.387251 0.627061 0
M  V30 621 H 61.194 1.51536 1.14616 0
M  V30 622 H 59.344 1.39848 3.62457 0
M  V30 623 H 61.016 3.8032 2.61064 0
M  V30 624 H 59.259 3.6153 2.39747 0
M  V30 625 H 59.93 3.77972 4.02295 0
M  V30 626 H 62.406 1.87791 3.71314 0
M  V30 627 H 61.282 2.07281 5.08258 0
M  V30 628 H 61.543 0.477572 4.39513 0
M  V30 629 N 60.6021 -1.18246 1.0419 0
M  V30 630 C 61.8301 -1.92195 0.766072 0
M  V30 631 C 62.2451 -1.76247 -0.676933 0
M  V30 632 O 61.6021 -1.09293 -1.46155 0
M  V30 633 C 61.6531 -3.43568 1.12442 0
M  V30 634 O 61.3741 -3.59015 2.51078 0
M  V30 635 C 62.8751 -4.34613 0.873275 0
M  V30 636 H 60.0951 -0.610114 0.279288 0
M  V30 637 H 62.6391 -1.50007 1.38989 0
M  V30 638 H 60.7941 -3.8354 0.545542 0
M  V30 639 H 61.2081 -4.5273 2.64831 0
M  V30 640 H 62.6821 -5.39374 1.17385 0
M  V30 641 H 63.1591 -4.38781 -0.191909 0
M  V30 642 H 63.7651 -4.00341 1.43551 0
M  V30 643 N 62.0802 -0.821533 -1.34494 0
M  V30 644 C 63.3292 -0.405355 -1.97585 0
M  V30 645 C 63.6422 1.03677 -1.65863 0
M  V30 646 O 64.8482 1.55679 -2.22433 0
M  V30 647 C 63.3042 -0.673861 -3.53535 0
M  V30 648 C 62.9122 -2.12951 -3.94152 0
M  V30 649 C 64.6562 -0.32378 -4.23263 0
M  V30 650 C 62.5632 -2.34298 -5.43009 0
M  V30 651 H 61.4932 -0.147836 -0.739365 0
M  V30 652 H 64.1442 -1.00769 -1.53355 0
M  V30 653 H 62.5262 -0.00137554 -3.96 0
M  V30 654 H 63.7002 -2.84104 -3.62797 0
M  V30 655 H 62.0152 -2.44089 -3.37356 0
M  V30 656 H 64.6122 -0.461126 -5.32708 0
M  V30 657 H 64.9552 0.731586 -4.09821 0
M  V30 658 H 65.4882 -0.950786 -3.8627 0
M  V30 659 H 62.2272 -3.38335 -5.61435 0
M  V30 660 H 61.7472 -1.67687 -5.75883 0
M  V30 661 H 63.4262 -2.16588 -6.09671 0
M  V30 662 N 63.5583 1.46682 -0.576371 0
M  V30 663 C 64.7863 2.06798 -0.0649635 0
M  V30 664 C 65.2013 1.42612 1.23723 0
M  V30 665 O 64.5583 0.529203 1.74659 0
M  V30 666 C 64.6093 3.6132 0.114202 0
M  V30 667 O 64.3303 4.23104 -1.13644 0
M  V30 668 C 65.8313 4.38349 0.66069 0
M  V30 669 H 63.0513 0.668778 -0.0545616 0
M  V30 670 H 65.5953 1.88404 -0.795237 0
M  V30 671 H 63.7503 3.79162 0.794673 0
M  V30 672 H 64.1643 5.15894 -0.946253 0
M  V30 673 H 65.6383 5.47081 0.73526 0
M  V30 674 H 66.1153 4.05953 1.67627 0
M  V30 675 H 66.7213 4.25297 0.0152951 0
M  V30 676 N 65.0364 0.313813 1.54444 0
M  V30 677 C 66.2764 -0.292389 2.02298 0
M  V30 678 C 66.6404 -1.50105 1.19719 0
M  V30 679 O 67.8414 -2.17947 1.5733 0
M  V30 680 C 66.1124 -0.627682 3.51845 0
M  V30 681 S 67.6714 -1.21493 4.21646 0
M  V30 682 H 64.4894 -0.0890247 0.705405 0
M  V30 683 H 67.0914 0.444668 1.90376 0
M  V30 684 H 65.7954 0.260265 4.09574 0
M  V30 685 H 65.3264 -1.39519 3.67829 0
M  V30 686 H 67.3414 -2.5022 4.28491 0
M  V30 687 N 66.5145 -1.57545 0.0417849 0
M  V30 688 C 67.9305 -1.56467 -0.314704 0
M  V30 689 C 68.1305 -1.04859 -1.72066 0
M  V30 690 O 67.1865 -0.700983 -2.42575 0
M  V30 691 C 68.4995 -3.00317 -0.15174 0
M  V30 692 C 70.0475 -3.12201 -0.223553 0
M  V30 693 C 70.5225 -4.57913 -0.0892295 0
M  V30 694 N 72.0135 -4.6297 -0.145808 0
M  V30 695 C 72.7485 -5.73362 -0.0658459 0
M  V30 696 N 72.2445 -6.92769 0.0659282 0
M  V30 697 N 74.0375 -5.6197 -0.12075 0
M  V30 698 H 66.1885 -1.89416 0.961014 0
M  V30 699 H 68.4515 -0.871862 0.372237 0
M  V30 700 H 68.1575 -3.42073 0.817254 0
M  V30 701 H 68.0315 -3.65892 -0.916692 0
M  V30 702 H 70.4185 -2.70349 -1.18301 0
M  V30 703 H 70.4995 -2.49323 0.571994 0
M  V30 704 H 70.1435 -5.00448 0.866867 0
M  V30 705 H 70.0735 -5.18786 -0.903802 0
M  V30 706 H 72.5645 -3.7709 -0.247286 0
M  V30 707 H 72.8775 -7.72707 0.119905 0
M  V30 708 H 71.2225 -6.94927 0.100885 0
M  V30 709 H 74.4135 -4.67572 -0.222187 0
M  V30 710 H 74.5865 -6.47977 -0.0549735 0
M  V30 711 N 67.9926 0.231505 -1.5589 0
M  V30 712 C 68.9556 1.27028 -1.90779 0
M  V30 713 C 69.9556 1.40308 -0.785507 0
M  V30 714 O 71.1456 1.38744 -1.05336 0
M  V30 715 C 68.2776 2.64566 -2.14983 0
M  V30 716 H 69.4706 0.973017 -2.83677 0
M  V30 717 H 67.0236 0.471486 -1.49019 0
M  V30 718 H 67.7586 2.99406 -1.24604 0
M  V30 719 H 67.5436 2.56305 -2.96732 0
M  V30 720 H 69.0336 3.39543 -2.43105 0
M  V30 721 N 69.4707 1.49531 0.497807 0
M  V30 722 C 70.6957 1.63159 1.28039 0
M  V30 723 C 71.1207 0.30418 1.85624 0
M  V30 724 O 70.4787 -0.728618 1.66015 0
M  V30 725 C 70.5267 2.70537 2.38416 0
M  V30 726 O 69.6307 2.29931 3.42353 0
M  V30 727 H 68.9717 0.546001 0.377861 0
M  V30 728 H 71.5017 1.9574 0.59558 0
M  V30 729 H 71.5117 2.92802 2.84132 0
M  V30 730 H 70.1867 3.6689 1.95869 0
M  V30 731 H 68.7637 2.18009 3.02533 0
M  V30 732 N 70.9488 -0.749086 1.3866 0
M  V30 733 C 71.8808 -1.87273 1.32142 0
M  V30 734 C 72.8938 -1.61127 0.232787 0
M  V30 735 O 74.0828 -1.71623 0.49069 0
M  V30 736 C 71.1828 -3.23005 1.02571 0
M  V30 737 C 70.3558 -3.7662 2.22433 0
M  V30 738 C 69.4148 -4.90879 1.89537 0
M  V30 739 O 68.4408 -5.05276 2.62078 0
M  V30 740 N 69.6428 -5.74198 0.853031 0
M  V30 741 H 72.4078 -1.93373 2.28969 0
M  V30 742 H 69.9688 -0.929216 1.32579 0
M  V30 743 H 71.9608 -3.96992 0.786085 0
M  V30 744 H 70.5308 -3.12262 0.145249 0
M  V30 745 H 69.7508 -2.94147 2.62434 0
M  V30 746 H 71.0388 -4.09173 3.02415 0
M  V30 747 H 70.4368 -5.6514 0.25155 0
M  V30 748 H 68.9938 -6.48313 0.67329 0
M  V30 749 N 72.4269 -1.23603 -0.977757 0
M  V30 750 C 73.6749 -1.06759 -1.71601 0
M  V30 751 C 73.9959 0.395929 -1.90938 0
M  V30 752 O 73.2659 1.28356 -1.47992 0
M  V30 753 H 71.8459 -0.392062 -0.635843 0
M  V30 754 H 74.5079 -1.55362 -1.1768 0
M  V30 755 H 73.6039 -1.55763 -2.70452 0
M  V30 756 N 73.905 1.17692 -1.04816 0
M  V30 757 C 75.154 1.87192 -0.751132 0
M  V30 758 C 75.467 1.8169 0.724441 0
M  V30 759 O 76.673 2.46625 1.13527 0
M  V30 760 C 75.129 3.35857 -1.29338 0
M  V30 761 C 74.737 3.4987 -2.79812 0
M  V30 762 C 76.481 4.10709 -1.07322 0
M  V30 763 C 74.388 4.92536 -3.27356 0
M  V30 764 H 73.318 0.701162 -0.277288 0
M  V30 765 H 75.969 1.32932 -1.26496 0
M  V30 766 H 74.351 3.89631 -0.707376 0
M  V30 767 H 75.525 3.06332 -3.44235 0
M  V30 768 H 73.84 2.88433 -3.00325 0
M  V30 769 H 76.437 5.15952 -1.4035 0
M  V30 770 H 76.78 4.16299 -0.0108001 0
M  V30 771 H 77.313 3.6313 -1.62423 0
M  V30 772 H 74.052 4.92119 -4.33012 0
M  V30 773 H 73.572 5.3676 -2.67673 0
M  V30 774 H 75.251 5.61288 -3.21815 0
M  V30 775 N 75.3831 0.828654 1.34056 0
M  V30 776 C 76.7991 0.515135 1.51058 0
M  V30 777 C 76.9991 -0.959581 1.77184 0
M  V30 778 O 76.0551 -1.74382 1.82612 0
M  V30 779 C 77.3681 1.37963 2.67183 0
M  V30 780 C 78.9161 1.37735 2.81066 0
M  V30 781 C 79.3911 2.22645 4.00241 0
M  V30 782 N 80.8821 2.203 4.07458 0
M  V30 783 C 81.6171 2.82744 4.98842 0
M  V30 784 N 81.1131 3.54201 5.9541 0
M  V30 785 N 82.9061 2.72268 4.91759 0
M  V30 786 H 75.0571 1.78343 1.15358 0
M  V30 787 H 77.3201 0.760304 0.566252 0
M  V30 788 H 77.0261 2.42714 2.54525 0
M  V30 789 H 76.9001 1.0484 3.62338 0
M  V30 790 H 79.2871 0.337593 2.93163 0
M  V30 791 H 79.3681 1.74859 1.86703 0
M  V30 792 H 79.0121 3.26674 3.88905 0
M  V30 793 H 78.9421 1.82869 4.93829 0
M  V30 794 H 81.4331 1.68327 3.38341 0
M  V30 795 H 81.7461 3.9908 6.61782 0
M  V30 796 H 80.0911 3.58308 5.95517 0
M  V30 797 H 83.2821 2.16014 4.15278 0
M  V30 798 H 83.4551 3.21219 5.62781 0
M  V30 799 N 76.8612 -1.46375 0.584142 0
M  V30 800 C 77.8092 -2.32042 -0.161047 0
M  V30 801 C 78.8032 -1.44569 -0.882966 0
M  V30 802 O 80.0092 -1.61186 -0.801191 0
M  V30 803 H 76.3842 -0.748659 -0.0708033 0
M  V30 804 H 78.3552 -2.92704 0.580269 0
M  V30 805 C 77.1042 -3.27762 -1.1605 0
M  V30 806 H 76.4272 -3.95051 -0.614419 0
M  V30 807 H 77.8672 -3.90481 -1.65228 0
M  V30 808 C 76.3262 -2.53218 -2.22221 0
M  V30 809 O 76.8562 -2.29628 -3.29597 0
M  V30 810 N 75.0622 -2.13756 -1.96868 0
M  V30 811 H 74.6092 -2.33142 -1.09557 0
M  V30 812 H 74.5672 -1.642 -2.68115 0
M  V30 813 N 78.3393 -0.321999 -1.54275 0
M  V30 814 C 79.6163 0.335232 -1.92706 0
M  V30 815 C 79.9963 1.70006 -1.25145 0
M  V30 816 O 79.3443 2.25067 -0.394596 0
M  V30 817 C 79.5543 0.429008 -3.46353 0
M  V30 818 C 80.9023 0.690029 -4.18956 0
M  V30 819 O 81.9263 0.511992 -3.52501 0
M  V30 820 O 80.7853 1.03338 -5.36641 0
M  V30 821 H 77.8793 0.191143 -0.804608 0
M  V30 822 H 80.4253 -0.3716 -1.65581 0
M  V30 823 H 79.1973 -0.529611 -3.87699 0
M  V30 824 H 78.8203 1.18348 -3.79578 0
M  V30 825 N 79.8174 1.5752 -0.0501392 0
M  V30 826 C 80.7474 2.14502 0.922566 0
M  V30 827 C 81.7284 1.06642 1.3252 0
M  V30 828 O 82.9134 1.34577 1.4001 0
M  V30 829 C 80.0434 2.68916 2.19776 0
M  V30 830 C 78.9974 3.8175 1.93523 0
M  V30 831 C 78.3234 4.22677 3.27487 0
M  V30 832 C 79.6234 5.06932 1.25765 0
M  V30 833 H 81.3174 2.9603 0.447952 0
M  V30 834 H 78.8634 1.42401 0.214024 0
M  V30 835 H 80.8164 3.07419 2.88222 0
M  V30 836 H 79.5404 1.84578 2.69441 0
M  V30 837 H 78.1994 3.43718 1.27489 0
M  V30 838 H 77.8474 3.35291 3.74952 0
M  V30 839 H 77.5474 4.98725 3.1072 0
M  V30 840 H 79.0714 4.63779 3.97166 0
M  V30 841 H 80.4854 5.42888 1.84244 0
M  V30 842 H 78.8824 5.88116 1.19328 0
M  V30 843 H 79.9524 4.84337 0.233536 0
M  V30 844 N 81.2955 -0.223234 1.56011 0
M  V30 845 C 82.5435 -0.946003 1.78592 0
M  V30 846 C 82.8645 -1.84936 0.618349 0
M  V30 847 O 82.1345 -1.92473 -0.364833 0
M  V30 848 H 80.7145 -0.352298 0.658707 0
M  V30 849 H 83.3765 -0.235494 1.93472 0
M  V30 850 H 82.4725 -1.55381 2.70672 0
M  V30 851 N 82.7736 -1.49793 -0.48987 0
M  V30 852 C 84.0196 -1.61049 -1.24236 0
M  V30 853 C 84.3746 -0.298412 -1.90072 0
M  V30 854 O 83.6676 0.702262 -1.78266 0
M  V30 855 C 83.8616 -2.71488 -2.32441 0
M  V30 856 C 83.6906 -4.13308 -1.77218 0
M  V30 857 C 82.4606 -4.79955 -1.58023 0
M  V30 858 C 84.6586 -4.98176 -1.27772 0
M  V30 859 N 82.6406 -6.06052 -0.978465 0
M  V30 860 C 84.0116 -6.14843 -0.798 0
M  V30 861 C 86.0666 -4.84091 -1.16449 0
M  V30 862 C 84.7696 -7.18975 -0.216245 0
M  V30 863 C 86.7956 -5.88382 -0.596698 0
M  V30 864 C 86.1576 -7.04285 -0.127262 0
M  V30 865 H 82.2566 -0.643611 -0.444172 0
M  V30 866 H 84.8406 -1.86842 -0.54754 0
M  V30 867 H 83.0116 -2.47449 -2.99372 0
M  V30 868 H 84.7436 -2.72205 -2.99477 0
M  V30 869 H 81.4986 -4.36936 -1.82712 0
M  V30 870 H 81.9226 -6.73407 -0.696534 0
M  V30 871 H 86.5646 -3.94786 -1.5134 0
M  V30 872 H 84.2826 -8.0797 0.144903 0
M  V30 873 H 87.8686 -5.79545 -0.511716 0
M  V30 874 H 86.7486 -7.83606 0.30523 0
M  V30 875 N 84.2517 0.741722 -1.39055 0
M  V30 876 C 85.4817 1.52876 -1.3897 0
M  V30 877 C 85.8897 1.8919 0.0193266 0
M  V30 878 O 85.2327 1.54138 0.999356 0
M  V30 879 C 85.2947 2.84929 -2.19216 0
M  V30 880 C 84.9587 2.71086 -3.67915 0
M  V30 881 C 85.9557 2.40084 -4.61146 0
M  V30 882 C 83.6407 2.88168 -4.11418 0
M  V30 883 C 85.6347 2.26335 -5.95862 0
M  V30 884 C 83.3217 2.74037 -5.46211 0
M  V30 885 C 84.3197 2.43166 -6.38247 0
M  V30 886 O 84.0077 2.29115 -7.70559 0
M  V30 887 H 83.7397 0.479252 -0.476753 0
M  V30 888 H 86.2937 0.924751 -1.83405 0
M  V30 889 H 84.5237 3.47564 -1.69518 0
M  V30 890 H 86.2127 3.46509 -2.11392 0
M  V30 891 H 86.9787 2.26545 -4.28838 0
M  V30 892 H 82.8577 3.11191 -3.40119 0
M  V30 893 H 86.4017 2.0216 -6.67665 0
M  V30 894 H 82.2987 2.87153 -5.78112 0
M  V30 895 H 83.0667 2.44237 -7.81211 0
M  V30 896 N 85.7298 1.2412 0.971189 0
M  V30 897 C 86.6618 0.988349 2.06795 0
M  V30 898 C 87.6748 -0.0409541 1.62748 0
M  V30 899 O 88.8638 0.195673 1.77424 0
M  V30 900 C 85.9638 0.469023 3.35639 0
M  V30 901 C 85.1368 1.56065 4.08611 0
M  V30 902 C 84.1958 1.04458 5.15728 0
M  V30 903 O 83.2218 1.73553 5.42096 0
M  V30 904 N 84.4238 -0.122817 5.8037 0
M  V30 905 H 87.1888 1.93265 2.29061 0
M  V30 906 H 84.7498 1.15102 1.13856 0
M  V30 907 H 86.7418 0.108613 4.04554 0
M  V30 908 H 85.3118 -0.380919 3.1027 0
M  V30 909 H 84.5318 2.09341 3.34021 0
M  V30 910 H 85.8198 2.29449 4.54126 0
M  V30 911 H 85.2178 -0.700563 5.61345 0
M  V30 912 H 83.7748 -0.424404 6.50417 0
M  V30 913 N 87.2079 -1.17134 1.05439 0
M  V30 914 C 88.1399 -2.2078 0.615539 0
M  V30 915 C 89.1529 -1.59584 -0.322001 0
M  V30 916 O 90.3419 -1.78133 -0.114344 0
M  V30 917 C 87.4419 -3.38691 -0.118938 0
M  V30 918 C 86.6149 -4.29454 0.829924 0
M  V30 919 C 85.6739 -5.26024 0.136258 0
M  V30 920 O 84.6999 -5.63952 0.77115 0
M  V30 921 N 85.9019 -5.69487 -1.1254 0
M  V30 922 H 88.6669 -2.59052 1.50705 0
M  V30 923 H 86.2279 -1.32058 0.936603 0
M  V30 924 H 88.2199 -4.00329 -0.593179 0
M  V30 925 H 86.7899 -2.98996 -0.91215 0
M  V30 926 H 86.0099 -3.65211 1.48373 0
M  V30 927 H 87.2979 -4.86984 1.47392 0
M  V30 928 H 86.6959 -5.4075 -1.6615 0
M  V30 929 H 85.2529 -6.33257 -1.54366 0
M  V30 930 N 88.686 -0.835752 -1.33615 0
M  V30 931 C 89.633 -0.26473 -2.29277 0
M  V30 932 C 90.603 0.617712 -1.54187 0
M  V30 933 O 91.788 0.556641 -1.825 0
M  V30 934 C 88.928 0.556777 -3.40579 0
M  V30 935 C 88.041 -0.349339 -4.30585 0
M  V30 936 C 87.176 0.482969 -5.29 0
M  V30 937 C 86.215 -0.421732 -6.10645 0
M  V30 938 N 85.352 0.372262 -7.01112 0
M  V30 939 H 90.192 -1.08582 -2.77514 0
M  V30 940 H 87.729 -0.546927 -1.36554 0
M  V30 941 H 89.687 1.04852 -4.03809 0
M  V30 942 H 88.317 1.34286 -2.93542 0
M  V30 943 H 87.369 -0.959372 -3.68104 0
M  V30 944 H 88.681 -1.04445 -4.87742 0
M  V30 945 H 87.835 1.03866 -5.97743 0
M  V30 946 H 86.574 1.21153 -4.72412 0
M  V30 947 H 85.579 -0.989464 -5.40823 0
M  V30 948 H 86.804 -1.14861 -6.69316 0
M  V30 949 H 84.75 1.08426 -6.46977 0
M  V30 950 H 84.667 -0.264198 -7.55538 0
M  V30 951 H 85.935 0.910293 -7.74167 0
M  V30 952 N 90.1641 1.46063 -0.591896 0
M  V30 953 C 91.5751 1.85944 -0.167822 0
M  V30 954 C 91.9261 1.49429 1.27143 0
M  V30 955 O 91.0511 0.913515 1.96173 0
M  V30 956 C 91.6461 3.37489 -0.297794 0
M  V30 957 C 90.2051 3.76332 0.0714732 0
M  V30 958 C 89.3521 2.7006 -0.629509 0
M  V30 959 H 92.3031 1.37087 -0.799555 0
M  V30 960 H 92.3241 3.77532 0.474349 0
M  V30 961 H 91.8361 3.64034 -1.3454 0
M  V30 962 H 89.9371 3.55405 1.11886 0
M  V30 963 H 90.0501 4.78088 -0.311245 0
M  V30 964 H 88.4141 2.54607 -0.0687867 0
M  V30 965 H 89.1971 2.99444 -1.67894 0
M  V30 966 N 91.6422 0.330177 1.54103 0
M  V30 967 C 92.8902 -0.269871 2.0029 0
M  V30 968 C 93.2112 -1.52133 1.21986 0
M  V30 969 O 92.4812 -1.93212 0.323438 0
M  V30 970 H 91.0612 -0.10271 0.739905 0
M  V30 971 H 93.7232 0.448249 1.89675 0
M  V30 972 H 92.8192 -0.52166 3.07709 0
M  V30 973 N 93.1203 -1.57491 0.0584922 0
M  V30 974 C 94.0673 -2.11958 -0.913376 0
M  V30 975 C 95.0373 -1.02875 -1.30407 0
M  V30 976 O 96.2223 -1.30464 -1.39226 0
M  V30 977 C 93.3623 -2.67497 -2.18035 0
M  V30 978 C 92.4753 -3.90691 -1.84349 0
M  V30 979 C 91.6103 -4.3452 -3.05559 0
M  V30 980 C 90.6493 -5.50395 -2.67827 0
M  V30 981 N 89.7863 -5.89244 -3.81754 0
M  V30 982 H 94.6263 -2.94704 -0.442017 0
M  V30 983 H 92.1633 -1.45643 -0.206545 0
M  V30 984 H 94.1213 -2.978 -2.92183 0
M  V30 985 H 92.7513 -1.87537 -2.62735 0
M  V30 986 H 91.8033 -3.66934 -1.00319 0
M  V30 987 H 93.1153 -4.7489 -1.5258 0
M  V30 988 H 92.2693 -4.66414 -3.87998 0
M  V30 989 H 91.0083 -3.49147 -3.40511 0
M  V30 990 H 90.0133 -5.18165 -1.83806 0
M  V30 991 H 91.2383 -6.3749 -2.34059 0
M  V30 992 H 89.1843 -5.06823 -4.16493 0
M  V30 993 H 89.1013 -6.68151 -3.53708 0
M  V30 994 H 90.3693 -6.25756 -4.64811 0
M  V30 995 N 94.5984 0.214957 -1.56127 0
M  V30 996 C 95.5614 1.24997 -1.92116 0
M  V30 997 C 96.5614 1.39467 -0.800344 0
M  V30 998 O 97.7514 1.37619 -1.06802 0
M  V30 999 C 94.8834 2.62271 -2.17777 0
M  V30 1000 H 96.0764 0.942875 -2.84693 0
M  V30 1001 H 93.6294 0.455654 -1.49511 0
M  V30 1002 H 94.3644 2.98068 -1.27773 0
M  V30 1003 H 94.1494 2.53143 -2.99434 0
M  V30 1004 H 95.6394 3.36946 -2.46693 0
M  V30 1005 N 96.0765 1.50051 0.48192 0
M  V30 1006 C 97.4875 1.5348 1.06305 0
M  V30 1007 C 97.8385 0.331997 1.93371 0
M  V30 1008 O 96.9635 -0.556256 2.09129 0
M  V30 1009 C 97.5585 2.7813 1.93466 0
M  V30 1010 C 96.1175 2.84275 2.46707 0
M  V30 1011 C 95.2645 2.47637 1.24785 0
M  V30 1012 H 98.2155 1.56472 0.264995 0
M  V30 1013 H 98.2365 2.59372 2.78399 0
M  V30 1014 H 97.7485 3.65654 1.30072 0
M  V30 1015 H 95.8495 2.01077 3.13686 0
M  V30 1016 H 95.9625 3.8691 2.82555 0
M  V30 1017 H 94.3265 1.99835 1.57918 0
M  V30 1018 H 95.1095 3.37457 0.630694 0
M  V30 1019 N 97.5546 -0.734337 1.39446 0
M  V30 1020 C 98.5016 -1.84835 1.38219 0
M  V30 1021 C 99.4716 -1.64331 0.24179 0
M  V30 1022 O 100.657 -1.85728 0.437002 0
M  V30 1023 C 97.7966 -3.22355 1.23212 0
M  V30 1024 C 96.9096 -3.5456 2.46801 0
M  V30 1025 C 96.0446 -4.81485 2.24377 0
M  V30 1026 C 95.0836 -5.06536 3.43639 0
M  V30 1027 N 94.2206 -6.24665 3.20528 0
M  V30 1028 H 99.0606 -1.85219 2.33448 0
M  V30 1029 H 96.5976 -0.905039 1.15963 0
M  V30 1030 H 98.5556 -4.0174 1.12522 0
M  V30 1031 H 97.1856 -3.21248 0.316121 0
M  V30 1032 H 96.2376 -2.69872 2.68092 0
M  V30 1033 H 97.5496 -3.6899 3.3563 0
M  V30 1034 H 96.7036 -5.68852 2.10933 0
M  V30 1035 H 95.4426 -4.6923 1.32944 0
M  V30 1036 H 94.4476 -4.17632 3.5758 0
M  V30 1037 H 95.6726 -5.20676 4.35974 0
M  V30 1038 H 93.6186 -6.13696 2.3176 0
M  V30 1039 H 93.5356 -6.39685 4.02913 0
M  V30 1040 H 94.8036 -7.14868 3.10779 0
M  V30 1041 N 99.0327 -1.24633 -0.964593 0
M  V30 1042 C 100.449 -1.01239 -1.2338 0
M  V30 1043 C 100.649 0.2769 -1.99588 0
M  V30 1044 O 99.7047 0.992241 -2.32187 0
M  V30 1045 C 101.018 -2.22937 -2.01791 0
M  V30 1046 C 102.566 -2.27594 -2.14872 0
M  V30 1047 C 103.041 -3.48921 -2.96678 0
M  V30 1048 N 104.532 -3.49257 -3.04259 0
M  V30 1049 C 105.267 -4.39795 -3.67924 0
M  V30 1050 N 104.763 -5.40591 -4.33281 0
M  V30 1051 N 106.556 -4.275 -3.64966 0
M  V30 1052 H 98.7067 -2.0748 -0.454502 0
M  V30 1053 H 100.97 -0.910647 -0.26349 0
M  V30 1054 H 100.676 -3.16587 -1.53184 0
M  V30 1055 H 100.55 -2.25306 -3.02518 0
M  V30 1056 H 102.937 -1.34473 -2.6268 0
M  V30 1057 H 103.018 -2.2925 -1.13482 0
M  V30 1058 H 102.662 -4.42359 -2.49562 0
M  V30 1059 H 102.592 -3.4451 -3.98272 0
M  V30 1060 H 105.083 -2.76337 -2.57771 0
M  V30 1061 H 105.396 -6.05904 -4.79687 0
M  V30 1062 H 103.741 -5.44475 -4.3194 0
M  V30 1063 H 106.932 -3.47987 -3.13086 0
M  V30 1064 H 107.105 -4.98258 -4.14298 0
M  V30 1065 N 100.511 1.16574 -1.06058 0
M  V30 1066 C 101.441 2.23057 -0.690488 0
M  V30 1067 C 102.422 1.67141 0.315901 0
M  V30 1068 O 103.607 1.93253 0.191556 0
M  V30 1069 C 100.737 3.47222 -0.073625 0
M  V30 1070 C 99.6908 4.16016 -1.00573 0
M  V30 1071 C 99.0168 5.34104 -0.252289 0
M  V30 1072 C 100.317 4.67264 -2.33371 0
M  V30 1073 H 102.011 2.54271 -1.58072 0
M  V30 1074 H 99.5568 1.22218 -0.76149 0
M  V30 1075 H 101.51 4.20939 0.19714 0
M  V30 1076 H 100.234 3.15302 0.85161 0
M  V30 1077 H 98.8928 3.44223 -1.2612 0
M  V30 1078 H 98.5408 4.98437 0.675988 0
M  V30 1079 H 98.2408 5.81072 -0.873455 0
M  V30 1080 H 99.7648 6.10599 0.0109857 0
M  V30 1081 H 101.179 5.32573 -2.12223 0
M  V30 1082 H 99.5758 5.24843 -2.90963 0
M  V30 1083 H 100.646 3.83602 -2.96611 0
M  V30 1084 N 101.989 0.842826 1.3317 0
M  V30 1085 C 103.238 0.436738 1.96915 0
M  V30 1086 C 103.551 -1.01025 1.67491 0
M  V30 1087 O 104.757 -1.5212 2.24881 0
M  V30 1088 C 103.213 0.730021 3.52418 0
M  V30 1089 C 102.821 2.19195 3.90714 0
M  V30 1090 C 104.565 0.391076 4.22695 0
M  V30 1091 C 102.472 2.42907 5.39212 0
M  V30 1092 H 101.402 0.15958 0.736919 0
M  V30 1093 H 104.053 1.03196 1.51733 0
M  V30 1094 H 102.435 0.0643755 3.95948 0
M  V30 1095 H 103.609 2.8984 3.58231 0
M  V30 1096 H 101.924 2.49425 3.33431 0
M  V30 1097 H 104.521 0.545817 5.31907 0
M  V30 1098 H 104.864 -0.666294 4.10933 0
M  V30 1099 H 105.397 1.01212 3.84709 0
M  V30 1100 H 102.136 3.47224 5.55982 0
M  V30 1101 H 101.656 1.76827 5.73142 0
M  V30 1102 H 103.335 2.2626 6.06148 0
M  V30 1103 N 103.467 -1.45747 0.599634 0
M  V30 1104 C 104.697 -2.06369 0.0977132 0
M  V30 1105 C 105.105 -1.44624 -1.21985 0
M  V30 1106 O 104.448 -0.551831 -1.75216 0
M  V30 1107 C 104.51 -3.59284 -0.124673 0
M  V30 1108 C 104.174 -4.43318 1.10987 0
M  V30 1109 C 105.171 -4.78796 2.02609 0
M  V30 1110 C 102.856 -4.84194 1.33647 0
M  V30 1111 C 104.85 -5.53997 3.15224 0
M  V30 1112 C 102.537 -5.5915 2.46565 0
M  V30 1113 C 103.535 -5.93968 3.37182 0
M  V30 1114 O 103.223 -6.67405 4.48136 0
M  V30 1115 H 102.955 -0.673122 0.0623153 0
M  V30 1116 H 105.509 -1.88104 0.824981 0
M  V30 1117 H 103.739 -3.75919 -0.906745 0
M  V30 1118 H 105.428 -4.01775 -0.577201 0
M  V30 1119 H 106.194 -4.47781 1.86325 0
M  V30 1120 H 102.073 -4.56534 0.64016 0
M  V30 1121 H 105.617 -5.81091 3.85978 0
M  V30 1122 H 101.514 -5.89579 2.62805 0
M  V30 1123 H 102.282 -6.85847 4.46717 0
M  V30 1124 N 104.945 -0.338344 -1.53925 0
M  V30 1125 C 105.908 0.508299 -2.23493 0
M  V30 1126 C 106.908 1.03175 -1.23335 0
M  V30 1127 O 108.098 0.921826 -1.47811 0
M  V30 1128 C 105.23 1.70754 -2.95052 0
M  V30 1129 H 106.423 -0.100058 -2.99733 0
M  V30 1130 H 103.976 -0.0896198 -1.56043 0
M  V30 1131 H 104.711 2.35474 -2.22986 0
M  V30 1132 H 104.496 1.33946 -3.68512 0
M  V30 1133 H 105.986 2.30818 -3.48013 0
M  V30 1134 N 106.423 1.57458 -0.0668435 0
M  V30 1135 C 107.386 2.11323 0.887422 0
M  V30 1136 C 108.386 1.03618 1.22964 0
M  V30 1137 O 109.576 1.29626 1.16373 0
M  V30 1138 C 106.708 2.61048 2.19242 0
M  V30 1139 H 107.901 2.96942 0.420194 0
M  V30 1140 H 105.454 1.55239 0.181793 0
M  V30 1141 H 106.189 1.78868 2.70512 0
M  V30 1142 H 105.974 3.39769 1.95702 0
M  V30 1143 H 107.464 3.02814 2.87565 0
M  V30 1144 N 107.901 -0.206675 1.56239 0
M  V30 1145 C 109.126 -0.949474 1.8439 0
M  V30 1146 C 109.551 -1.76549 0.649016 0
M  V30 1147 O 108.909 -1.76782 -0.402231 0
M  V30 1148 C 108.957 -1.83078 3.10668 0
M  V30 1149 O 108.061 -2.9281 2.90407 0
M  V30 1150 H 107.402 -0.268033 0.607499 0
M  V30 1151 H 109.932 -0.215488 2.03462 0
M  V30 1152 H 109.942 -2.2377 3.41161 0
M  V30 1153 H 108.617 -1.23112 3.97261 0
M  V30 1154 H 107.194 -2.55956 2.71184 0
M  V30 1155 N 109.379 -1.50304 -0.473955 0
M  V30 1156 C 110.604 -1.65175 -1.25427 0
M  V30 1157 C 111.029 -0.333673 -1.85117 0
M  V30 1158 O 110.387 0.702114 -1.67153 0
M  V30 1159 C 110.435 -2.74295 -2.34082 0
M  V30 1160 O 109.539 -2.35349 -3.38651 0
M  V30 1161 H 108.88 -0.551944 -0.369126 0
M  V30 1162 H 111.41 -1.96662 -0.564364 0
M  V30 1163 H 111.42 -2.97285 -2.79438 0
M  V30 1164 H 110.095 -3.69959 -1.90008 0
M  V30 1165 H 108.672 -2.22794 -2.99027 0
M  V30 1166 N 110.857 0.726932 -1.39834 0
M  V30 1167 C 111.787 1.85405 -1.41941 0
M  V30 1168 C 112.768 1.67751 -0.281728 0
M  V30 1169 O 113.953 1.8795 -0.488717 0
M  V30 1170 C 111.083 3.23243 -1.2701 0
M  V30 1171 C 110.037 3.55549 -2.38262 0
M  V30 1172 C 109.363 4.9241 -2.08415 0
M  V30 1173 C 110.663 3.577 -3.80589 0
M  V30 1174 H 112.357 1.83899 -2.36266 0
M  V30 1175 H 109.903 0.883349 -1.13723 0
M  V30 1176 H 111.856 4.01775 -1.27103 0
M  V30 1177 H 110.58 3.25296 -0.291564 0
M  V30 1178 H 109.239 2.79351 -2.37399 0
M  V30 1179 H 108.887 4.91052 -1.0898 0
M  V30 1180 H 108.587 5.14992 -2.82943 0
M  V30 1181 H 110.111 5.73289 -2.10171 0
M  V30 1182 H 111.525 4.26293 -3.83337 0
M  V30 1183 H 109.922 3.91804 -4.54543 0
M  V30 1184 H 110.992 2.57328 -4.10987 0
M  V30 1185 N 112.336 1.25143 0.95797 0
M  V30 1186 C 113.268 1.01023 2.05735 0
M  V30 1187 C 114.281 -0.0236902 1.62783 0
M  V30 1188 O 115.47 0.21448 1.77207 0
M  V30 1189 C 112.57 0.504595 3.35122 0
M  V30 1190 C 111.743 1.6039 4.06932 0
M  V30 1191 C 110.802 1.09922 5.14591 0
M  V30 1192 O 109.828 1.79293 5.40225 0
M  V30 1193 N 111.03 -0.0612545 5.80468 0
M  V30 1194 H 113.795 1.95683 2.26998 0
M  V30 1195 H 111.356 1.16303 1.12629 0
M  V30 1196 H 113.348 0.151516 4.04416 0
M  V30 1197 H 111.918 -0.347989 3.10657 0
M  V30 1198 H 111.138 2.12872 3.31782 0
M  V30 1199 H 112.426 2.34252 4.51667 0
M  V30 1200 H 111.824 -0.640985 5.62057 0
M  V30 1201 H 110.381 -0.355395 6.5083 0
M  V30 1202 N 113.814 -1.1601 1.06675 0
M  V30 1203 C 115.039 -1.91068 0.806706 0
M  V30 1204 C 115.464 -1.77112 -0.633485 0
M  V30 1205 O 114.822 -1.09908 -1.44187 0
M  V30 1206 C 114.87 -3.39655 1.21106 0
M  V30 1207 O 113.974 -4.10893 0.352189 0
M  V30 1208 H 113.315 -0.595125 0.294486 0
M  V30 1209 H 115.845 -1.46955 1.42356 0
M  V30 1210 H 115.855 -3.90434 1.18428 0
M  V30 1211 H 114.53 -3.49132 2.26008 0
M  V30 1212 H 113.107 -3.70285 0.440868 0
M  V30 1213 N 115.292 -0.849877 -1.32721 0
M  V30 1214 C 116.54 -0.450032 -1.97026 0
M  V30 1215 C 116.861 0.996604 -1.67609 0
M  V30 1216 O 116.131 1.6958 -0.980786 0
M  V30 1217 H 114.711 -0.163426 -0.728904 0
M  V30 1218 H 117.373 -1.08526 -1.6189 0
M  V30 1219 H 116.469 -0.591146 -3.0645 0
M  V30 1220 N 116.77 1.45427 -0.607355 0
M  V30 1221 C 118.016 2.0254 -0.102607 0
M  V30 1222 C 118.349 1.47478 1.26348 0
M  V30 1223 O 117.624 0.64939 1.83339 0
M  V30 1224 C 117.907 3.60044 -0.0634347 0
M  V30 1225 C 117.76 4.2544 -1.46017 0
M  V30 1226 C 119.079 4.35646 0.624514 0
M  V30 1227 H 116.198 0.73598 -0.0387607 0
M  V30 1228 H 118.84 1.73284 -0.779282 0
M  V30 1229 H 116.99 3.85101 0.512808 0
M  V30 1230 H 118.662 4.11569 -2.08347 0
M  V30 1231 H 116.905 3.83849 -2.02094 0
M  V30 1232 H 117.576 5.34342 -1.385 0
M  V30 1233 H 120.052 4.15882 0.134723 0
M  V30 1234 H 118.928 5.45376 0.621028 0
M  V30 1235 H 119.189 4.08501 1.69055 0
M  V30 1236 N 118.248 0.346503 1.53744 0
M  V30 1237 C 119.659 -0.136779 1.86198 0
M  V30 1238 C 120.01 -1.49749 1.26766 0
M  V30 1239 O 119.135 -2.08417 0.582355 0
M  V30 1240 C 119.73 -0.254966 3.37839 0
M  V30 1241 C 118.289 -0.682482 3.70161 0
M  V30 1242 C 117.436 0.181981 2.76702 0
M  V30 1243 H 120.387 0.565994 1.48264 0
M  V30 1244 H 120.408 -1.08195 3.64793 0
M  V30 1245 H 119.92 0.735526 3.81066 0
M  V30 1246 H 118.021 -1.68189 3.3248 0
M  V30 1247 H 118.134 -0.470326 4.76786 0
M  V30 1248 H 116.498 -0.34615 2.52337 0
M  V30 1249 H 117.281 1.16966 3.2276 0
M  V30 1250 N 119.726 -1.57421 0.075193 0
M  V30 1251 C 120.951 -1.98364 -0.605515 0
M  V30 1252 C 121.376 -0.953383 -1.62149 0
M  V30 1253 O 120.734 0.0806053 -1.81121 0
M  V30 1254 C 120.782 -3.38332 -1.24756 0
M  V30 1255 O 119.886 -3.37959 -2.36342 0
M  V30 1256 H 119.227 -0.645553 -0.155428 0
M  V30 1257 H 121.757 -2.04044 0.150714 0
M  V30 1258 H 121.767 -3.75591 -1.5936 0
M  V30 1259 H 120.442 -4.12846 -0.503129 0
M  V30 1260 H 119.019 -3.12474 -2.03506 0
M  V30 1261 N 121.204 0.198386 -1.56346 0
M  V30 1262 C 122.62 0.549085 -1.49857 0
M  V30 1263 C 122.82 1.86016 -0.774611 0
M  V30 1264 O 121.876 2.50416 -0.323776 0
M  V30 1265 C 123.189 0.606868 -2.94512 0
M  V30 1266 C 124.737 0.695925 -3.05165 0
M  V30 1267 C 125.212 0.784848 -4.51225 0
M  V30 1268 N 126.703 0.848463 -4.55363 0
M  V30 1269 C 127.438 0.937378 -5.65686 0
M  V30 1270 N 126.934 0.9888 -6.85707 0
M  V30 1271 N 128.727 0.974312 -5.53592 0
M  V30 1272 H 120.878 -0.661655 -2.01831 0
M  V30 1273 H 123.141 -0.235261 -0.918344 0
M  V30 1274 H 122.847 -0.28732 -3.50524 0
M  V30 1275 H 122.721 1.46268 -3.47686 0
M  V30 1276 H 125.108 1.58055 -2.49204 0
M  V30 1277 H 125.189 -0.186022 -2.55123 0
M  V30 1278 H 124.833 -0.0954072 -5.0781 0
M  V30 1279 H 124.763 1.68255 -4.98997 0
M  V30 1280 H 127.254 0.818103 -3.68938 0
M  V30 1281 H 127.567 1.05707 -7.65536 0
M  V30 1282 H 125.912 0.957534 -6.88372 0
M  V30 1283 H 129.103 0.930954 -4.58749 0
M  V30 1284 H 129.276 1.04015 -6.39597 0
M  V30 1285 N 122.682 1.50554 0.465978 0
M  V30 1286 C 123.929 1.61798 1.21768 0
M  V30 1287 C 124.257 0.320696 1.91838 0
M  V30 1288 O 123.512 -0.693724 1.82992 0
M  V30 1289 C 123.811 2.75152 2.28093 0
M  V30 1290 C 123.477 4.15454 1.75239 0
M  V30 1291 C 122.139 4.53628 1.60546 0
M  V30 1292 C 124.491 5.03121 1.36083 0
M  V30 1293 C 121.819 5.77204 1.05128 0
M  V30 1294 C 124.171 6.27249 0.821056 0
M  V30 1295 C 122.835 6.64221 0.660795 0
M  V30 1296 H 122.105 0.592063 0.445582 0
M  V30 1297 H 124.752 1.84503 0.512927 0
M  V30 1298 H 123.057 2.46556 3.04496 0
M  V30 1299 H 124.754 2.81055 2.86023 0
M  V30 1300 H 121.344 3.85341 1.87644 0
M  V30 1301 H 125.528 4.74257 1.46267 0
M  V30 1302 H 120.784 6.0452 0.91462 0
M  V30 1303 H 124.958 6.94537 0.509018 0
M  V30 1304 H 122.585 7.59854 0.229226 0
M  V30 1305 N 124.16 -0.719506 1.40217 0
M  V30 1306 C 125.385 -1.51371 1.4178 0
M  V30 1307 C 125.81 -1.88091 0.0182355 0
M  V30 1308 O 125.168 -1.52997 -0.972707 0
M  V30 1309 C 125.216 -2.768 2.31115 0
M  V30 1310 O 124.32 -3.73349 1.7517 0
M  V30 1311 H 123.661 -0.456529 0.482159 0
M  V30 1312 H 126.191 -0.88644 1.844 0
M  V30 1313 H 126.201 -3.25371 2.46167 0
M  V30 1314 H 124.876 -2.49407 3.3282 0
M  V30 1315 H 123.453 -3.32179 1.69444 0
M  V30 1316 N 125.638 -1.25649 -0.95132 0
M  V30 1317 C 126.886 -1.10375 -1.69298 0
M  V30 1318 C 127.207 0.355339 -1.91735 0
M  V30 1319 O 126.477 1.25188 -1.50681 0
M  V30 1320 H 125.057 -0.405461 -0.627384 0
M  V30 1321 H 127.719 -1.57823 -1.14358 0
M  V30 1322 H 126.815 -1.61465 -2.67087 0
M  V30 1323 N 127.117 1.15442 -1.07289 0
M  V30 1324 C 128.342 1.90638 -0.816828 0
M  V30 1325 C 128.767 1.77445 0.624083 0
M  V30 1326 O 128.125 1.10671 1.43602 0
M  V30 1327 C 128.173 3.39008 -1.22906 0
M  V30 1328 O 127.277 4.10701 -0.373975 0
M  V30 1329 H 126.618 0.593555 -0.297638 0
M  V30 1330 H 129.148 1.46198 -1.43134 0
M  V30 1331 H 129.158 3.89801 -1.20497 0
M  V30 1332 H 127.833 3.47929 -2.27856 0
M  V30 1333 H 126.41 3.70046 -0.460499 0
M  V30 1334 N 128.595 0.856903 1.32268 0
M  V30 1335 C 129.843 0.460474 1.96784 0
M  V30 1336 C 130.164 -0.987701 1.68135 0
M  V30 1337 O 129.434 -1.69058 0.989765 0
M  V30 1338 H 128.014 0.167289 0.728027 0
M  V30 1339 H 130.676 1.09383 1.61312 0
M  V30 1340 H 129.772 0.60739 3.06133 0
M  V30 1341 N 130.073 -1.45103 0.615059 0
M  V30 1342 C 131.298 -2.07064 0.117988 0
M  V30 1343 C 131.723 -1.4554 -1.19163 0
M  V30 1344 O 131.081 -0.550855 -1.72729 0
M  V30 1345 C 131.129 -3.606 -0.000288387 0
M  V30 1346 O 130.233 -3.98847 -1.04856 0
M  V30 1347 H 129.574 -0.659467 0.0774581 0
M  V30 1348 H 132.104 -1.86236 0.847186 0
M  V30 1349 H 132.114 -4.07529 -0.196091 0
M  V30 1350 H 130.789 -4.04765 0.955932 0
M  V30 1351 H 129.366 -3.63577 -0.828619 0
M  V30 1352 N 131.551 -0.354651 -1.53558 0
M  V30 1353 C 132.799 0.237972 -2.00694 0
M  V30 1354 C 133.12 1.50173 -1.24391 0
M  V30 1355 O 132.39 1.92673 -0.354135 0
M  V30 1356 H 130.97 0.0909256 -0.741446 0
M  V30 1357 H 133.632 -0.478368 -1.88938 0
M  V30 1358 H 132.728 0.47264 -3.085 0
M  V30 1359 N 133.029 1.57378 -0.0835403 0
M  V30 1360 C 134.257 1.98263 0.59157 0
M  V30 1361 C 134.672 0.962302 1.62435 0
M  V30 1362 O 134.029 -0.049581 1.82433 0
M  V30 1363 C 134.08 3.39214 1.24965 0
M  V30 1364 O 133.801 4.37339 0.258186 0
M  V30 1365 C 135.302 3.95038 2.01147 0
M  V30 1366 H 132.522 0.651773 0.159477 0
M  V30 1367 H 135.066 2.03878 -0.159415 0
M  V30 1368 H 133.221 3.34649 1.95164 0
M  V30 1369 H 133.635 5.19371 0.731734 0
M  V30 1370 H 135.109 4.95848 2.42567 0
M  V30 1371 H 135.586 3.32222 2.87272 0
M  V30 1372 H 136.192 4.0304 1.35789 0
M  V30 1373 N 134.507 -0.190092 1.56449 0
M  V30 1374 C 135.417 -1.25591 1.98152 0
M  V30 1375 C 136.433 -1.49519 0.889944 0
M  V30 1376 O 137.609 -1.62036 1.19609 0
M  V30 1377 C 134.674 -2.57916 2.3169 0
M  V30 1378 C 133.735 -2.42015 3.5458 0
M  V30 1379 C 132.968 -3.6803 3.8651 0
M  V30 1380 O 133.191 -4.72413 3.1966 0
M  V30 1381 O 132.125 -3.6326 4.79923 0
M  V30 1382 H 135.951 -0.931988 2.89046 0
M  V30 1383 H 133.536 -0.395488 1.4407 0
M  V30 1384 H 135.418 -3.36008 2.54316 0
M  V30 1385 H 134.093 -2.89925 1.43963 0
M  V30 1386 H 133 -1.62017 3.37196 0
M  V30 1387 H 134.333 -2.14937 4.4279 0
M  V30 1388 N 135.985 -1.50799 -0.457987 0
M  V30 1389 C 137.232 -1.62442 -1.20908 0
M  V30 1390 C 137.56 -0.330865 -1.91665 0
M  V30 1391 O 136.815 0.68401 -1.83357 0
M  V30 1392 C 137.114 -2.76358 -2.2663 0
M  V30 1393 C 136.78 -4.16378 -1.73033 0
M  V30 1394 C 135.442 -4.54473 -1.58138 0
M  V30 1395 C 137.794 -5.03836 -1.33413 0
M  V30 1396 C 135.122 -5.77754 -1.02065 0
M  V30 1397 C 137.474 -6.27676 -0.78778 0
M  V30 1398 C 136.138 -6.64562 -0.625561 0
M  V30 1399 H 135.408 -0.594417 -0.442435 0
M  V30 1400 H 138.055 -1.84772 -0.503136 0
M  V30 1401 H 136.36 -2.48167 -3.03184 0
M  V30 1402 H 138.057 -2.82568 -2.84528 0
M  V30 1403 H 134.647 -3.86331 -1.85598 0
M  V30 1404 H 138.831 -4.75026 -1.4375 0
M  V30 1405 H 134.087 -6.04997 -0.882547 0
M  V30 1406 H 138.261 -6.94797 -0.472177 0
M  V30 1407 H 135.888 -7.59965 -0.188926 0
M  V30 1408 N 137.463 0.71206 -1.40597 0
M  V30 1409 C 138.691 1.50111 -1.42388 0
M  V30 1410 C 139.106 1.88784 -0.0245395 0
M  V30 1411 O 138.463 1.55681 0.952351 0
M  V30 1412 C 138.514 2.7742 -2.31776 0
M  V30 1413 O 138.235 2.40382 -3.66262 0
M  V30 1414 C 139.736 3.7129 -2.42196 0
M  V30 1415 H 136.956 0.46314 -0.485533 0
M  V30 1416 H 139.5 0.878068 -1.8469 0
M  V30 1417 H 137.655 3.36001 -1.92827 0
M  V30 1418 H 138.069 3.22324 -4.13772 0
M  V30 1419 H 139.543 4.57448 -3.08943 0
M  V30 1420 H 140.02 4.14641 -1.44809 0
M  V30 1421 H 140.626 3.18619 -2.81712 0
M  V30 1422 N 138.941 1.26152 0.944643 0
M  V30 1423 C 139.871 1.09902 2.06019 0
M  V30 1424 C 140.852 0.00519538 1.70099 0
M  V30 1425 O 142.037 0.176583 1.93396 0
M  V30 1426 C 139.167 0.727562 3.39594 0
M  V30 1427 C 138.121 1.77274 3.89561 0
M  V30 1428 C 137.447 1.25569 5.19747 0
M  V30 1429 C 138.747 3.17357 4.14827 0
M  V30 1430 H 140.441 2.03217 2.19871 0
M  V30 1431 H 137.987 0.978452 1.05652 0
M  V30 1432 H 139.94 0.600777 4.17095 0
M  V30 1433 H 138.664 -0.241287 3.25707 0
M  V30 1434 H 137.323 1.88814 3.14237 0
M  V30 1435 H 136.971 0.276783 5.02238 0
M  V30 1436 H 136.671 1.95433 5.54148 0
M  V30 1437 H 138.195 1.1415 5.99835 0
M  V30 1438 H 139.609 3.08914 4.82954 0
M  V30 1439 H 138.006 3.84781 4.60504 0
M  V30 1440 H 139.076 3.63673 3.20734 0
M  V30 1441 N 140.419 -1.14872 1.07899 0
M  V30 1442 C 141.647 -1.89661 0.82683 0
M  V30 1443 C 142.062 -1.78312 -0.620519 0
M  V30 1444 O 141.419 -1.13888 -1.42604 0
M  V30 1445 C 141.47 -3.39817 1.23316 0
M  V30 1446 O 141.191 -3.50845 2.62372 0
M  V30 1447 C 142.692 -4.31615 1.0111 0
M  V30 1448 H 139.912 -0.60092 0.298557 0
M  V30 1449 H 142.456 -1.4551 1.43691 0
M  V30 1450 H 140.611 -3.8161 0.667286 0
M  V30 1451 H 141.025 -4.44076 2.79101 0
M  V30 1452 H 142.499 -5.35367 1.34486 0
M  V30 1453 H 142.976 -4.39169 -0.0522168 0
M  V30 1454 H 143.582 -3.95572 1.56215 0
M  V30 1455 N 141.898 -0.863906 -1.31812 0
M  V30 1456 C 143.147 -0.46801 -1.96195 0
M  V30 1457 C 143.46 0.983474 -1.69077 0
M  V30 1458 O 144.666 1.48523 -2.27273 0
M  V30 1459 C 143.122 -0.785995 -3.51212 0
M  V30 1460 C 142.73 -2.25383 -3.87178 0
M  V30 1461 C 144.474 -0.458274 -4.22019 0
M  V30 1462 C 142.381 -2.51455 -5.3528 0
M  V30 1463 H 141.311 -0.171283 -0.734287 0
M  V30 1464 H 143.962 -1.05597 -1.50072 0
M  V30 1465 H 142.344 -0.127359 -3.95795 0
M  V30 1466 H 143.518 -2.95502 -3.53575 0
M  V30 1467 H 141.833 -2.54698 -3.2942 0
M  V30 1468 H 144.43 -0.630369 -5.30971 0
M  V30 1469 H 144.773 0.600834 -4.11941 0
M  V30 1470 H 145.306 -1.07319 -3.8305 0
M  V30 1471 H 142.045 -3.56025 -5.50387 0
M  V30 1472 H 141.565 -1.85923 -5.70257 0
M  V30 1473 H 143.244 -2.35874 -6.02472 0
M  V30 1474 N 143.376 1.44774 -0.622745 0
M  V30 1475 C 144.601 2.06999 -0.128968 0
M  V30 1476 C 145.026 1.4617 1.1839 0
M  V30 1477 O 144.384 0.560007 1.72434 0
M  V30 1478 C 144.432 3.60595 -0.0188351 0
M  V30 1479 O 143.536 3.99398 1.02739 0
M  V30 1480 H 142.877 0.659047 -0.0809544 0
M  V30 1481 H 145.407 1.85784 -0.85705 0
M  V30 1482 H 145.417 4.07627 0.174476 0
M  V30 1483 H 144.092 4.04252 -0.977384 0
M  V30 1484 H 142.669 3.64011 0.809326 0
M  V30 1485 N 144.854 0.36279 1.53368 0
M  V30 1486 C 146.079 -0.231226 2.06107 0
M  V30 1487 C 146.504 -1.419 1.23474 0
M  V30 1488 O 145.862 -1.79524 0.253128 0
M  V30 1489 C 145.91 -0.605523 3.5548 0
M  V30 1490 O 145.014 -1.70312 3.7559 0
M  V30 1491 H 144.355 -0.034327 0.663112 0
M  V30 1492 H 146.885 0.522584 1.97814 0
M  V30 1493 H 146.895 -0.877314 3.98456 0
M  V30 1494 H 145.57 0.263004 4.15068 0
M  V30 1495 H 144.147 -1.4271 3.44512 0
M  V30 1496 N 146.332 -1.57332 0.0918853 0
M  V30 1497 C 147.262 -2.16872 -0.865371 0
M  V30 1498 C 148.243 -1.10118 -1.29646 0
M  V30 1499 O 149.428 -1.38242 -1.36392 0
M  V30 1500 C 146.558 -2.74649 -2.12569 0
M  V30 1501 C 145.512 -3.86747 -1.83333 0
M  V30 1502 C 144.838 -4.31212 -3.16166 0
M  V30 1503 C 146.138 -5.10089 -1.1228 0
M  V30 1504 H 147.832 -2.97114 -0.369307 0
M  V30 1505 H 145.378 -1.42918 -0.176194 0
M  V30 1506 H 147.331 -3.14952 -2.7997 0
M  V30 1507 H 146.055 -1.91657 -2.64452 0
M  V30 1508 H 144.714 -3.46978 -1.18331 0
M  V30 1509 H 144.362 -3.45115 -3.6593 0
M  V30 1510 H 144.062 -5.06788 -2.97388 0
M  V30 1511 H 145.586 -4.74146 -3.84731 0
M  V30 1512 H 147 -5.47582 -1.69785 0
M  V30 1513 H 145.397 -5.91073 -1.03693 0
M  V30 1514 H 146.467 -4.84786 -0.105041 0
M  V30 1515 N 147.81 0.181792 -1.56548 0
M  V30 1516 C 148.742 1.24956 -1.92142 0
M  V30 1517 C 149.755 1.41022 -0.813422 0
M  V30 1518 O 150.944 1.41212 -1.09186 0
M  V30 1519 C 148.044 2.61981 -2.14987 0
M  V30 1520 C 147.217 2.6735 -3.46183 0
M  V30 1521 C 146.276 3.85664 -3.5798 0
M  V30 1522 O 145.302 3.72148 -4.30691 0
M  V30 1523 N 146.504 5.01683 -2.92053 0
M  V30 1524 H 149.269 0.947329 -2.84334 0
M  V30 1525 H 146.83 0.371629 -1.57577 0
M  V30 1526 H 148.822 3.3958 -2.20154 0
M  V30 1527 H 147.392 2.84637 -1.2923 0
M  V30 1528 H 146.612 1.75925 -3.52766 0
M  V30 1529 H 147.9 2.67939 -4.32534 0
M  V30 1530 H 147.298 5.15564 -2.32832 0
M  V30 1531 H 145.855 5.77181 -3.0283 0
M  V30 1532 N 149.288 1.51039 0.449983 0
M  V30 1533 C 150.699 1.557 1.03026 0
M  V30 1534 C 151.05 0.372939 1.92623 0
M  V30 1535 O 150.175 -0.511771 2.10261 0
M  V30 1536 C 150.77 2.82171 1.87523 0
M  V30 1537 C 149.329 2.89444 2.40622 0
M  V30 1538 C 148.476 2.50228 1.19504 0
M  V30 1539 H 151.427 1.56999 0.231745 0
M  V30 1540 H 151.448 2.65219 2.72835 0
M  V30 1541 H 150.96 3.68331 1.22286 0
M  V30 1542 H 149.061 2.07685 3.0935 0
M  V30 1543 H 149.174 3.92816 2.74285 0
M  V30 1544 H 147.538 2.03139 1.53644 0
M  V30 1545 H 148.321 3.38719 0.558972 0
M  V30 1546 N 150.766 -0.704594 1.40972 0
M  V30 1547 C 151.676 -1.84856 1.44448 0
M  V30 1548 C 152.692 -1.70726 0.335961 0
M  V30 1549 O 153.868 -1.92799 0.582276 0
M  V30 1550 C 150.933 -3.20758 1.31587 0
M  V30 1551 C 149.994 -3.47063 2.52677 0
M  V30 1552 C 149.227 -4.76481 2.4042 0
M  V30 1553 O 149.45 -5.52341 1.42391 0
M  V30 1554 O 148.384 -5.03367 3.30007 0
M  V30 1555 H 152.21 -1.8488 2.40942 0
M  V30 1556 H 149.795 -0.85647 1.22413 0
M  V30 1557 H 151.677 -4.01913 1.26665 0
M  V30 1558 H 150.352 -3.21438 0.382049 0
M  V30 1559 H 149.259 -2.65873 2.63177 0
M  V30 1560 H 150.592 -3.5119 3.44858 0
M  V30 1561 N 152.244 -1.26651 -0.937939 0
M  V30 1562 C 153.521 -1.0313 -1.66204 0
M  V30 1563 C 153.901 0.437256 -2.06522 0
M  V30 1564 O 153.249 1.41831 -1.79154 0
M  V30 1565 C 153.459 -1.98314 -2.87181 0
M  V30 1566 C 154.807 -2.27107 -3.58758 0
M  V30 1567 O 155.831 -1.96205 -2.97291 0
M  V30 1568 O 154.69 -2.79736 -4.69479 0
M  V30 1569 H 151.784 -0.392384 -0.727986 0
M  V30 1570 H 154.33 -1.37874 -0.989382 0
M  V30 1571 H 153.102 -2.97399 -2.54302 0
M  V30 1572 H 152.725 -1.64068 -3.6217 0
M  V30 1573 N 153.722 1.14298 -1.08507 0
M  V30 1574 C 154.969 1.85359 -0.815373 0
M  V30 1575 C 155.297 1.83001 0.658865 0
M  V30 1576 O 154.552 1.25655 1.50031 0
M  V30 1577 C 154.851 3.33547 -1.28379 0
M  V30 1578 C 154.517 3.56093 -2.76602 0
M  V30 1579 C 153.179 3.61955 -3.17084 0
M  V30 1580 C 155.531 3.64834 -3.72217 0
M  V30 1581 C 152.859 3.74082 -4.51973 0
M  V30 1582 C 155.211 3.78487 -5.06883 0
M  V30 1583 C 153.875 3.82598 -5.46969 0
M  V30 1584 H 153.145 0.678276 -0.298366 0
M  V30 1585 H 155.792 1.35002 -1.35819 0
M  V30 1586 H 154.097 3.86191 -0.660593 0
M  V30 1587 H 155.794 3.86959 -1.05186 0
M  V30 1588 H 152.384 3.52179 -2.4427 0
M  V30 1589 H 156.568 3.59595 -3.42061 0
M  V30 1590 H 151.824 3.75527 -4.82483 0
M  V30 1591 H 155.998 3.84193 -5.80834 0
M  V30 1592 H 153.625 3.91747 -6.51489 0
M  V30 1593 N 155.201 0.870884 1.31352 0
M  V30 1594 C 156.164 0.332243 2.26779 0
M  V30 1595 C 157.164 -0.517302 1.52252 0
M  V30 1596 O 158.354 -0.326477 1.71113 0
M  V30 1597 C 155.486 -0.528066 3.36785 0
M  V30 1598 H 156.679 1.17469 2.75937 0
M  V30 1599 H 154.232 0.64655 1.423 0
M  V30 1600 H 154.967 -1.39167 2.92922 0
M  V30 1601 H 154.752 0.0802582 3.92018 0
M  V30 1602 H 156.242 -0.897179 4.07849 0
M  V30 1603 N 156.679 -1.44442 0.630414 0
M  V30 1604 C 157.907 -2.06414 0.141671 0
M  V30 1605 C 158.322 -1.47105 -1.18345 0
M  V30 1606 O 157.679 -0.593662 -1.72574 0
M  V30 1607 C 157.73 -3.61494 0.0199784 0
M  V30 1608 O 157.451 -4.18594 1.29269 0
M  V30 1609 C 158.952 -4.40499 -0.497544 0
M  V30 1610 H 156.172 -0.666292 0.0793452 0
M  V30 1611 H 158.716 -1.85323 0.864614 0
M  V30 1612 H 156.871 -3.8185 -0.653402 0
M  V30 1613 H 157.285 -5.12026 1.13707 0
M  V30 1614 H 158.759 -5.49433 -0.531708 0
M  V30 1615 H 159.236 -4.11895 -1.52445 0
M  V30 1616 H 159.842 -4.25061 0.142562 0
M  V30 1617 N 158.157 -0.370918 -1.53173 0
M  V30 1618 C 159.387 0.217389 -2.05453 0
M  V30 1619 C 159.795 1.42568 -1.24382 0
M  V30 1620 O 159.138 1.81571 -0.278839 0
M  V30 1621 C 159.2 0.669827 -3.53205 0
M  V30 1622 C 158.864 -0.4225 -4.55043 0
M  V30 1623 C 159.861 -1.27407 -5.04047 0
M  V30 1624 C 157.546 -0.58427 -4.9889 0
M  V30 1625 C 159.54 -2.27271 -5.95505 0
M  V30 1626 C 157.227 -1.58627 -5.90153 0
M  V30 1627 C 158.225 -2.42892 -6.38351 0
M  V30 1628 O 157.913 -3.41382 -7.27814 0
M  V30 1629 H 157.645 0.0408171 -0.674767 0
M  V30 1630 H 160.199 -0.5292 -1.98466 0
M  V30 1631 H 158.429 1.4681 -3.57748 0
M  V30 1632 H 160.118 1.18173 -3.88317 0
M  V30 1633 H 160.884 -1.16031 -4.70916 0
M  V30 1634 H 156.763 0.061851 -4.60959 0
M  V30 1635 H 160.307 -2.93079 -6.33049 0
M  V30 1636 H 156.204 -1.70048 -6.22699 0
M  V30 1637 H 156.972 -3.37173 -7.45826 0
M  V30 1638 N 159.635 1.57281 -0.100228 0
M  V30 1639 C 160.865 1.98591 0.569681 0
M  V30 1640 C 161.273 0.978315 1.61943 0
M  V30 1641 O 160.616 -0.0396108 1.83657 0
M  V30 1642 C 160.678 3.36282 1.271 0
M  V30 1643 C 160.342 4.55488 0.371409 0
M  V30 1644 C 161.339 5.18491 -0.382504 0
M  V30 1645 C 159.024 5.01474 0.287965 0
M  V30 1646 C 161.018 6.25852 -1.20779 0
M  V30 1647 C 158.705 6.08701 -0.540965 0
M  V30 1648 C 159.703 6.70755 -1.28749 0
M  V30 1649 O 159.391 7.75914 -2.10269 0
M  V30 1650 H 159.123 0.65752 0.156982 0
M  V30 1651 H 161.677 2.0463 -0.177734 0
M  V30 1652 H 159.907 3.26941 2.0651 0
M  V30 1653 H 161.596 3.62005 1.83595 0
M  V30 1654 H 162.362 4.83891 -0.3278 0
M  V30 1655 H 158.241 4.52932 0.858689 0
M  V30 1656 H 161.785 6.74218 -1.79096 0
M  V30 1657 H 157.682 6.42732 -0.597131 0
M  V30 1658 H 158.45 7.92925 -2.03007 0
M  V30 1659 N 161.113 -0.173488 1.56642 0
M  V30 1660 C 162.353 -0.896984 1.83667 0
M  V30 1661 C 162.717 -1.79523 0.680842 0
M  V30 1662 O 163.918 -2.55616 0.831488 0
M  V30 1663 C 162.189 -1.67351 3.15798 0
M  V30 1664 S 163.748 -2.44607 3.64298 0
M  V30 1665 H 160.566 -0.300464 0.644393 0
M  V30 1666 H 163.168 -0.158775 1.94854 0
M  V30 1667 H 161.872 -1.00462 3.97914 0
M  V30 1668 H 161.403 -2.45313 3.07546 0
M  V30 1669 H 163.418 -3.69261 3.31452 0
M  V30 1670 N 162.591 -1.51276 -0.441967 0
M  V30 1671 C 163.521 -1.752 -1.54361 0
M  V30 1672 C 164.502 -0.601682 -1.59103 0
M  V30 1673 O 165.687 -0.843913 -1.74905 0
M  V30 1674 C 162.817 -1.87282 -2.92477 0
M  V30 1675 C 161.771 -3.02687 -3.02596 0
M  V30 1676 C 161.097 -2.99947 -4.42647 0
M  V30 1677 C 162.397 -4.4273 -2.77106 0
M  V30 1678 H 164.091 -2.67442 -1.34592 0
M  V30 1679 H 161.637 -1.28694 -0.646048 0
M  V30 1680 H 163.59 -2.02602 -3.695 0
M  V30 1681 H 162.314 -0.916844 -3.13467 0
M  V30 1682 H 160.973 -2.87065 -2.28012 0
M  V30 1683 H 160.621 -2.02136 -4.60597 0
M  V30 1684 H 160.321 -3.77439 -4.50348 0
M  V30 1685 H 161.845 -3.17354 -5.2165 0
M  V30 1686 H 163.259 -4.58727 -3.43864 0
M  V30 1687 H 161.656 -5.21893 -2.96222 0
M  V30 1688 H 162.726 -4.53087 -1.72744 0
M  V30 1689 N 164.069 0.697108 -1.41344 0
M  V30 1690 C 165.001 1.8224 -1.39001 0
M  V30 1691 C 166.014 1.60152 -0.292428 0
M  V30 1692 O 167.203 1.69684 -0.554048 0
M  V30 1693 C 164.303 3.18976 -1.14489 0
M  V30 1694 C 163.476 3.68105 -2.36258 0
M  V30 1695 C 162.535 4.83506 -2.07625 0
M  V30 1696 O 161.561 4.95201 -2.8065 0
M  V30 1697 N 162.763 5.70637 -1.06555 0
M  V30 1698 H 165.528 1.84742 -2.35988 0
M  V30 1699 H 163.089 0.87937 -1.35936 0
M  V30 1700 H 165.081 3.93801 -0.932885 0
M  V30 1701 H 163.651 3.11508 -0.261043 0
M  V30 1702 H 162.871 2.84204 -2.7317 0
M  V30 1703 H 164.159 3.97667 -3.17393 0
M  V30 1704 H 163.557 5.63817 -0.461125 0
M  V30 1705 H 162.114 6.45368 -0.913444 0
M  V30 1706 N 165.547 1.27147 0.931209 0
M  V30 1707 C 166.497 1.06227 2.01742 0
M  V30 1708 C 167.481 -0.00859065 1.60898 0
M  V30 1709 O 168.673 0.209537 1.75755 0
M  V30 1710 C 165.802 0.707787 3.35924 0
M  V30 1711 C 164.888 1.81661 3.83223 0
M  V30 1712 N 165.279 3.05564 4.03069 0
M  V30 1713 C 163.577 1.70249 4.12227 0
M  V30 1714 C 164.278 3.77697 4.42403 0
M  V30 1715 N 163.254 3.0544 4.49675 0
M  V30 1716 H 167.056 2.00261 2.15111 0
M  V30 1717 H 164.57 1.1781 1.11779 0
M  V30 1718 H 166.567 0.539043 4.134 0
M  V30 1719 H 165.227 -0.224964 3.2392 0
M  V30 1720 H 166.238 3.41363 3.89476 0
M  V30 1721 H 162.915 0.840329 4.08956 0
M  V30 1722 H 164.305 4.84168 4.65866 0
M  V30 1723 N 167.025 -1.13721 1.09112 0
M  V30 1724 C 167.973 -2.21103 0.722219 0
M  V30 1725 C 168.967 -1.67147 -0.275374 0
M  V30 1726 O 170.173 -1.79477 -0.137176 0
M  V30 1727 H 166.548 -0.720445 0.215553 0
M  V30 1728 H 168.519 -2.49483 1.63709 0
M  V30 1729 C 167.268 -3.47352 0.15543 0
M  V30 1730 H 166.591 -3.89206 0.914246 0
M  V30 1731 H 168.031 -4.2395 -0.0647967 0
M  V30 1732 C 166.49 -3.1814 -1.10852 0
M  V30 1733 O 167.02 -3.36604 -2.19227 0
M  V30 1734 N 165.226 -2.72045 -1.02176 0
M  V30 1735 H 164.773 -2.57221 -0.139764 0
M  V30 1736 H 164.731 -2.52875 -1.8682 0
M  V30 1737 N 168.503 -0.877838 -1.30888 0
M  V30 1738 C 169.728 -0.506629 -2.01117 0
M  V30 1739 C 170.153 0.895564 -1.65412 0
M  V30 1740 O 169.511 1.5923 -0.866922 0
M  V30 1741 C 169.559 -0.680223 -3.54126 0
M  V30 1742 O 168.663 0.277033 -4.11468 0
M  V30 1743 H 168.004 -0.200518 -0.633 0
M  V30 1744 H 170.534 -1.18342 -1.66902 0
M  V30 1745 H 170.544 -0.5765 -4.03907 0
M  V30 1746 H 169.219 -1.70261 -3.79452 0
M  V30 1747 H 167.796 0.127606 -3.72682 0
M  V30 1748 N 169.982 1.44106 -0.638065 0
M  V30 1749 C 171.212 2.06037 -0.152394 0
M  V30 1750 C 171.62 1.47808 1.18108 0
M  V30 1751 O 170.963 0.598092 1.73691 0
M  V30 1752 C 171.025 3.59488 0.0293714 0
M  V30 1753 C 170.689 4.4022 -1.22702 0
M  V30 1754 C 171.686 4.73256 -2.15232 0
M  V30 1755 C 169.371 4.8048 -1.46437 0
M  V30 1756 C 171.365 5.45444 -3.29802 0
M  V30 1757 C 169.052 5.52417 -2.61303 0
M  V30 1758 C 170.05 5.84819 -3.52811 0
M  V30 1759 O 169.738 6.55289 -4.65673 0
M  V30 1760 H 169.47 0.671233 -0.0801401 0
M  V30 1761 H 172.024 1.85851 -0.874563 0
M  V30 1762 H 170.254 3.78191 0.806758 0
M  V30 1763 H 171.943 4.03164 0.470475 0
M  V30 1764 H 172.709 4.42684 -1.98131 0
M  V30 1765 H 168.588 4.54676 -0.760977 0
M  V30 1766 H 172.132 5.70653 -4.01249 0
M  V30 1767 H 168.029 5.82404 -2.78344 0
M  V30 1768 H 168.797 6.73762 -4.64744 0
M  V30 1769 N 171.46 0.379036 1.52974 0
M  V30 1770 C 172.871 -0.0972525 1.86447 0
M  V30 1771 C 173.222 -1.47027 1.29914 0
M  V30 1772 O 172.347 -2.07135 0.626433 0
M  V30 1773 C 172.942 -0.183248 3.38304 0
M  V30 1774 C 171.501 -0.603812 3.71525 0
M  V30 1775 C 170.648 0.240632 2.76254 0
M  V30 1776 H 173.599 0.597316 1.4703 0
M  V30 1777 H 173.62 -1.00432 3.67006 0
M  V30 1778 H 173.132 0.816191 3.79421 0
M  V30 1779 H 171.233 -1.61099 3.35973 0
M  V30 1780 H 171.346 -0.369086 4.77676 0
M  V30 1781 H 169.71 -0.292548 2.53014 0
M  V30 1782 H 170.493 1.23786 3.20206 0
M  V30 1783 O 172.977 -1.59572 0.248817 0
M  V30 1784 H 173.668 -1.9093 -0.326403 0
M  V30 END ATOM
M  V30 BEGIN BOND
M  V30 END BOND
M  V30 END CTAB
M  END
$$$$
