drugbank_target|P01619 Ig kappa chain V-III region GOL (DB01593; DB09130; DB14487)
 OpenBabel12092119353D

  0  0  0     0  0            999 V3000
M  V30 BEGIN CTAB
M  V30 COUNTS 1656 1674 0 0 0
M  V30 BEGIN ATOM
M  V30 1 H -0.908 1.98254 -0.117106 0
M  V30 2 N 0 1.576 0 0
M  V30 3 C 0.91 2.11853 1.00774 0
M  V30 4 C 1.926 1.06379 1.37693 0
M  V30 5 O 3.102 1.3828 1.46426 0
M  V30 6 C 0.167 2.61108 2.28087 0
M  V30 7 C -0.772 3.81183 1.9748 0
M  V30 8 C -1.539 4.28079 3.18723 0
M  V30 9 O -1.316 3.74307 4.30407 0
M  V30 10 O -2.382 5.20234 3.02721 0
M  V30 11 H 1.444 2.98177 0.576547 0
M  V30 12 H -0.971 1.47789 0.218828 0
M  V30 13 H 0.911 2.92987 3.0288 0
M  V30 14 H -0.414 1.77881 2.70444 0
M  V30 15 H -1.507 3.54277 1.20162 0
M  V30 16 H -0.174 4.65482 1.5996 0
M  V30 17 N 1.4781 -0.272755 1.55222 0
M  V30 18 C 2.7271 -1.00211 1.75045 0
M  V30 19 C 3.0401 -1.87441 0.559046 0
M  V30 20 O 4.2461 -2.63856 0.639698 0
M  V30 21 C 2.7021 -1.83165 3.09804 0
M  V30 22 C 2.3101 -1.008 4.36513 0
M  V30 23 C 4.0541 -2.55529 3.38977 0
M  V30 24 C 1.9611 -1.83194 5.62311 0
M  V30 25 H 0.8911 -0.377878 0.652476 0
M  V30 26 H 3.5421 -0.257776 1.8168 0
M  V30 27 H 1.9241 -2.61694 2.97207 0
M  V30 28 H 3.0981 -0.266855 4.60027 0
M  V30 29 H 1.4131 -0.398897 4.14485 0
M  V30 30 H 4.0101 -3.17578 4.30172 0
M  V30 31 H 4.3531 -3.25825 2.59121 0
M  V30 32 H 4.8861 -1.84029 3.52673 0
M  V30 33 H 1.6251 -1.17318 6.44916 0
M  V30 34 H 1.1451 -2.54905 5.4294 0
M  V30 35 H 2.8241 -2.40552 6.00619 0
M  V30 36 N 2.9562 -1.48159 -0.537278 0
M  V30 37 C 4.2022 -1.56035 -1.29541 0
M  V30 38 C 4.5352 -0.230377 -1.92829 0
M  V30 39 O 3.8102 0.762952 -1.78911 0
M  V30 40 C 4.0932 -2.69323 -2.39034 0
M  V30 41 C 3.9462 -4.12002 -1.80485 0
M  V30 42 C 5.2652 -2.78408 -3.40847 0
M  V30 43 H 2.3842 -0.567992 -0.469632 0
M  V30 44 H 5.0262 -1.80302 -0.599277 0
M  V30 45 H 3.1762 -2.48763 -2.98412 0
M  V30 46 H 4.8482 -4.43981 -1.25215 0
M  V30 47 H 3.0912 -4.19344 -1.11055 0
M  V30 48 H 3.7622 -4.87077 -2.59731 0
M  V30 49 H 6.2382 -2.97012 -2.91416 0
M  V30 50 H 5.1142 -3.59416 -4.14863 0
M  V30 51 H 5.3752 -1.86269 -4.00944 0
M  V30 52 N 4.4343 0.785586 -1.36625 0
M  V30 53 C 5.3643 1.91259 -1.33949 0
M  V30 54 C 6.3453 1.68795 -0.210325 0
M  V30 55 O 7.5303 1.89854 -0.408561 0
M  V30 56 C 4.6603 3.28339 -1.13186 0
M  V30 57 C 3.6143 3.65335 -2.22967 0
M  V30 58 C 2.9403 5.00806 -1.87342 0
M  V30 59 C 4.2403 3.7352 -3.65075 0
M  V30 60 H 5.9343 1.93755 -2.28253 0
M  V30 61 H 3.4803 0.930788 -1.09874 0
M  V30 62 H 5.4333 4.06804 -1.09948 0
M  V30 63 H 4.1573 3.2624 -0.153332 0
M  V30 64 H 2.8163 2.89169 -2.25337 0
M  V30 65 H 2.4643 4.95233 -0.880545 0
M  V30 66 H 2.1643 5.26529 -2.60846 0
M  V30 67 H 3.6883 5.81687 -1.85667 0
M  V30 68 H 5.1023 4.42168 -3.64911 0
M  V30 69 H 3.4993 4.10731 -4.37516 0
M  V30 70 H 4.5693 2.74527 -3.99703 0
M  V30 71 N 5.9124 1.20967 1.01018 0
M  V30 72 C 7.1404 1.04956 1.78303 0
M  V30 73 C 7.5554 -0.400915 1.84494 0
M  V30 74 O 6.9124 -1.27826 1.30257 0
M  V30 75 C 6.9634 1.63403 3.22462 0
M  V30 76 O 6.6844 3.02775 3.16637 0
M  V30 77 C 8.1854 1.52432 4.16268 0
M  V30 78 H 5.4054 0.368858 0.560522 0
M  V30 79 H 7.9494 1.60193 1.27116 0
M  V30 80 H 6.1044 1.1227 3.70775 0
M  V30 81 H 6.5184 3.30626 4.07169 0
M  V30 82 H 7.9924 1.98078 5.15237 0
M  V30 83 H 8.4694 0.477875 4.36592 0
M  V30 84 H 9.0754 2.02787 3.73841 0
M  V30 85 N 7.3905 -1.2043 1.01659 0
M  V30 86 C 8.3225 -2.22626 0.544988 0
M  V30 87 C 9.3355 -1.58479 -0.372609 0
M  V30 88 O 10.5245 -1.77679 -0.170958 0
M  V30 89 C 7.6245 -3.38141 -0.22663 0
M  V30 90 C 6.7975 -4.31877 0.692876 0
M  V30 91 C 5.8565 -5.26191 -0.0311616 0
M  V30 92 O 4.8825 -5.6612 0.591343 0
M  V30 93 N 6.0845 -5.65618 -1.30601 0
M  V30 94 H 8.8495 -2.63716 1.42388 0
M  V30 95 H 6.4105 -1.34971 0.894116 0
M  V30 96 H 8.4025 -3.98239 -0.72024 0
M  V30 97 H 6.9725 -2.95943 -1.00681 0
M  V30 98 H 6.1925 -3.69746 1.36679 0
M  V30 99 H 7.4805 -4.91426 1.31824 0
M  V30 100 H 6.8785 -5.3519 -1.83269 0
M  V30 101 H 5.4355 -6.28025 -1.74435 0
M  V30 102 N 8.8686 -0.792821 -1.36206 0
M  V30 103 C 10.0936 -0.377701 -2.03932 0
M  V30 104 C 10.5186 0.998947 -1.59382 0
M  V30 105 O 9.8766 1.64421 -0.763903 0
M  V30 106 C 9.9246 -0.453635 -3.57735 0
M  V30 107 O 9.0286 0.538151 -4.08874 0
M  V30 108 H 8.3696 -0.159855 -0.644471 0
M  V30 109 H 10.8996 -1.07488 -1.7409 0
M  V30 110 H 10.9096 -0.318464 -4.06755 0
M  V30 111 H 9.5846 -1.45784 -3.89512 0
M  V30 112 H 8.1616 0.364359 -3.71116 0
M  V30 113 N 10.3467 1.47872 -0.545128 0
M  V30 114 C 11.7577 1.86384 -0.108581 0
M  V30 115 C 12.1087 1.45309 1.31832 0
M  V30 116 O 11.2337 0.850641 1.9898 0
M  V30 117 C 11.8287 3.38265 -0.190274 0
M  V30 118 C 10.3877 3.75914 0.191164 0
M  V30 119 C 9.5347 2.71926 -0.543273 0
M  V30 120 H 12.4857 1.39561 -0.755537 0
M  V30 121 H 12.5067 3.75831 0.594217 0
M  V30 122 H 12.0187 3.6813 -1.2289 0
M  V30 123 H 10.1197 3.51665 1.23136 0
M  V30 124 H 10.2327 4.78836 -0.158987 0
M  V30 125 H 8.5967 2.54697 0.0122495 0
M  V30 126 H 9.3797 3.04634 -1.58282 0
M  V30 127 N 11.8248 0.280983 1.55075 0
M  V30 128 C 13.0728 -0.333455 1.9933 0
M  V30 129 C 13.3938 -1.55937 1.17085 0
M  V30 130 O 12.6638 -1.94143 0.261805 0
M  V30 131 H 11.2438 -0.126197 0.736263 0
M  V30 132 H 13.9058 0.387678 1.91005 0
M  V30 133 H 13.0018 -0.619292 3.05894 0
M  V30 134 N 13.3029 -1.57598 0.00835791 0
M  V30 135 C 14.5309 -1.95214 -0.68549 0
M  V30 136 C 14.9459 -0.883706 -1.66841 0
M  V30 137 O 14.3029 0.136565 -1.81988 0
M  V30 138 C 14.3539 -3.32865 -1.41007 0
M  V30 139 O 14.0749 -4.35609 -0.466552 0
M  V30 140 C 15.5759 -3.84991 -2.19765 0
M  V30 141 H 12.7959 -0.643422 -0.190392 0
M  V30 142 H 15.3399 -2.04406 0.0619607 0
M  V30 143 H 13.4949 -3.24956 -2.10908 0
M  V30 144 H 13.9089 -5.15288 -0.978699 0
M  V30 145 H 15.3829 -4.8371 -2.65948 0
M  V30 146 H 15.8599 -3.18137 -3.02796 0
M  V30 147 H 16.4659 -3.96103 -1.54864 0
M  V30 148 N 14.781 0.264519 -1.55364 0
M  V30 149 C 15.711 1.33121 -1.91836 0
M  V30 150 C 16.692 1.51101 -0.781192 0
M  V30 151 O 17.877 1.64003 -1.04003 0
M  V30 152 C 15.007 2.68921 -2.19769 0
M  V30 153 C 13.961 2.65661 -3.35571 0
M  V30 154 C 13.287 4.05093 -3.49004 0
M  V30 155 C 14.587 2.24187 -4.71739 0
M  V30 156 H 16.281 1.02844 -2.81182 0
M  V30 157 H 13.827 0.493286 -1.35287 0
M  V30 158 H 15.78 3.43663 -2.43872 0
M  V30 159 H 14.504 3.00799 -1.27231 0
M  V30 160 H 13.163 1.93377 -3.1145 0
M  V30 161 H 12.811 4.34206 -2.53917 0
M  V30 162 H 12.511 4.03804 -4.26868 0
M  V30 163 H 14.035 4.81561 -3.75408 0
M  V30 164 H 15.449 2.88654 -4.9533 0
M  V30 165 H 13.846 2.34044 -5.52579 0
M  V30 166 H 14.916 1.19327 -4.69988 0
M  V30 167 N 16.2591 1.48442 0.529413 0
M  V30 168 C 17.4841 1.60406 1.31471 0
M  V30 169 C 17.9091 0.264738 1.86228 0
M  V30 170 O 17.2671 -0.763668 1.64432 0
M  V30 171 C 17.3151 2.65419 2.44101 0
M  V30 172 O 16.4191 2.22618 3.47153 0
M  V30 173 H 15.7601 0.537863 0.389357 0
M  V30 174 H 18.2901 1.94432 0.636965 0
M  V30 175 H 18.3001 2.86709 2.90279 0
M  V30 176 H 16.9751 3.62652 2.03608 0
M  V30 177 H 15.5521 2.11543 3.0709 0
M  V30 178 N 17.7372 -0.778329 1.37039 0
M  V30 179 C 18.6672 -1.90546 1.34962 0
M  V30 180 C 19.6482 -1.68681 0.219274 0
M  V30 181 O 20.8332 -1.89634 0.418624 0
M  V30 182 C 17.9632 -3.27734 1.14925 0
M  V30 183 C 16.9172 -3.64147 2.24902 0
M  V30 184 C 16.2432 -4.99806 1.89996 0
M  V30 185 C 17.5432 -3.71579 3.67051 0
M  V30 186 H 19.2372 -1.92541 2.29277 0
M  V30 187 H 16.7832 -0.924948 1.10366 0
M  V30 188 H 18.7362 -4.06215 1.12104 0
M  V30 189 H 17.4602 -3.26154 0.170631 0
M  V30 190 H 16.1192 -2.8797 2.26868 0
M  V30 191 H 15.7672 -4.94759 0.906796 0
M  V30 192 H 15.4672 -5.25139 2.63634 0
M  V30 193 H 16.9912 -5.80694 1.88749 0
M  V30 194 H 18.4052 -4.40227 3.67251 0
M  V30 195 H 16.8022 -4.08405 4.39688 0
M  V30 196 H 17.8722 -2.72404 4.01154 0
M  V30 197 N 19.2153 -1.21501 -1.00376 0
M  V30 198 C 20.4403 -1.05977 -1.78279 0
M  V30 199 C 20.8653 0.385994 -1.84097 0
M  V30 200 O 20.2233 1.27849 -1.28547 0
M  V30 201 C 20.2713 -1.66302 -3.19963 0
M  V30 202 O 19.3753 -0.909333 -4.0225 0
M  V30 203 H 18.7163 -0.372906 -0.549397 0
M  V30 204 H 21.2463 -1.6107 -1.26165 0
M  V30 205 H 21.2563 -1.70574 -3.70632 0
M  V30 206 H 19.9313 -2.71515 -3.15043 0
M  V30 207 H 18.5083 -0.941795 -3.60811 0
M  V30 208 N 20.6934 1.19889 -1.02296 0
M  V30 209 C 22.1044 1.71124 -0.746568 0
M  V30 210 C 22.4554 1.81939 0.734335 0
M  V30 211 O 21.5804 1.48639 1.57275 0
M  V30 212 C 22.1754 3.10804 -1.34857 0
M  V30 213 C 20.7344 3.59323 -1.1209 0
M  V30 214 C 19.8814 2.3635 -1.45031 0
M  V30 215 H 22.8324 1.04813 -1.19163 0
M  V30 216 H 22.8534 3.73186 -0.742437 0
M  V30 217 H 22.3654 3.029 -2.42638 0
M  V30 218 H 20.4664 3.7255 -0.0610337 0
M  V30 219 H 20.5794 4.4378 -1.80544 0
M  V30 220 H 18.9434 2.39399 -0.869487 0
M  V30 221 H 19.7264 2.31081 -2.53883 0
M  V30 222 N 22.1715 0.800033 1.35784 0
M  V30 223 C 23.4195 0.376597 1.9856 0
M  V30 224 C 23.7405 -1.05812 1.63795 0
M  V30 225 O 23.0105 -1.73103 0.917171 0
M  V30 226 H 21.5905 0.136261 0.734467 0
M  V30 227 H 24.2525 1.02442 1.65806 0
M  V30 228 H 23.3485 0.477002 3.08433 0
M  V30 229 N 23.6496 -1.47581 0.552962 0
M  V30 230 C 24.5596 -2.33743 -0.200353 0
M  V30 231 C 25.5756 -1.47928 -0.916151 0
M  V30 232 O 26.7516 -1.80865 -0.885993 0
M  V30 233 C 23.8166 -3.24536 -1.21973 0
M  V30 234 C 22.8776 -4.26238 -0.511819 0
M  V30 235 C 22.1106 -5.12693 -1.48263 0
M  V30 236 O 22.3336 -5.01525 -2.71714 0
M  V30 237 O 21.2676 -5.93375 -1.00945 0
M  V30 238 H 25.0936 -2.9945 0.506304 0
M  V30 239 H 22.6786 -1.46071 0.313622 0
M  V30 240 H 24.5606 -3.80631 -1.80827 0
M  V30 241 H 23.2356 -2.61462 -1.90839 0
M  V30 242 H 22.1426 -3.73914 0.117799 0
M  V30 243 H 23.4756 -4.92014 0.135308 0
M  V30 244 N 25.1277 -0.289203 -1.54924 0
M  V30 245 C 26.5437 0.0645403 -1.59469 0
M  V30 246 C 26.7437 1.53419 -1.30632 0
M  V30 247 O 25.7997 2.2852 -1.074 0
M  V30 248 C 27.1127 -0.32278 -2.98963 0
M  V30 249 C 28.6607 -0.270564 -3.11828 0
M  V30 250 C 29.1357 -0.632532 -4.53611 0
M  V30 251 N 30.6267 -0.584617 -4.59496 0
M  V30 252 C 31.3617 -0.837314 -5.67254 0
M  V30 253 N 30.8577 -1.15536 -6.83098 0
M  V30 254 N 32.6507 -0.765166 -5.56868 0
M  V30 255 H 24.8017 -1.24714 -1.71931 0
M  V30 256 H 27.0647 -0.504809 -0.802416 0
M  V30 257 H 26.7707 -1.34541 -3.24948 0
M  V30 258 H 26.6447 0.32944 -3.75759 0
M  V30 259 H 29.0317 0.742805 -2.85598 0
M  V30 260 H 29.1127 -0.957242 -2.37214 0
M  V30 261 H 28.7567 -1.64365 -4.80569 0
M  V30 262 H 28.6867 0.07609 -5.26545 0
M  V30 263 H 31.1777 -0.349248 -3.76283 0
M  V30 264 H 31.4907 -1.33447 -7.61191 0
M  V30 265 H 29.8357 -1.19328 -6.84679 0
M  V30 266 H 33.0267 -0.516432 -4.65243 0
M  V30 267 H 33.1997 -0.965477 -6.40767 0
M  V30 268 N 26.6058 1.57591 -0.0167156 0
M  V30 269 C 27.5688 2.08393 0.954204 0
M  V30 270 C 28.5688 0.996531 1.26198 0
M  V30 271 O 29.7588 1.25858 1.20438 0
M  V30 272 C 26.8908 2.5394 2.27436 0
M  V30 273 H 28.0838 2.95455 0.514451 0
M  V30 274 H 25.6368 1.54582 0.231089 0
M  V30 275 H 26.3718 1.70171 2.76066 0
M  V30 276 H 26.1568 3.33371 2.06412 0
M  V30 277 H 27.6468 2.93512 2.97053 0
M  V30 278 N 28.0839 -0.256276 1.55502 0
M  V30 279 C 29.3119 -1.00342 1.8094 0
M  V30 280 C 29.7269 -1.79307 0.59114 0
M  V30 281 O 29.0839 -1.77114 -0.440081 0
M  V30 282 C 29.1349 -1.94875 3.04476 0
M  V30 283 O 28.8559 -1.19107 4.21598 0
M  V30 284 C 30.3569 -2.81266 3.42644 0
M  V30 285 H 27.5769 -0.295685 0.602338 0
M  V30 286 H 30.1209 -0.281998 2.02546 0
M  V30 287 H 28.2759 -2.62457 2.84947 0
M  V30 288 H 28.6899 -1.82969 4.91551 0
M  V30 289 H 30.1639 -3.43362 4.32211 0
M  V30 290 H 30.6409 -3.51897 2.62802 0
M  V30 291 H 31.2469 -2.1915 3.64491 0
M  V30 292 N 29.562 -1.4872 -0.521534 0
M  V30 293 C 30.492 -1.66771 -1.63431 0
M  V30 294 C 31.473 -0.516499 -1.62069 0
M  V30 295 O 32.658 -0.750013 -1.79132 0
M  V30 296 C 29.788 -1.71515 -3.01993 0
M  V30 297 C 28.742 -2.86222 -3.18216 0
M  V30 298 C 28.068 -2.76061 -4.57924 0
M  V30 299 C 29.368 -4.27419 -3.00184 0
M  V30 300 H 31.062 -2.59932 -1.48579 0
M  V30 301 H 28.608 -1.25089 -0.713358 0
M  V30 302 H 30.561 -1.82731 -3.7972 0
M  V30 303 H 29.285 -0.749393 -3.17886 0
M  V30 304 H 27.944 -2.74575 -2.42908 0
M  V30 305 H 27.592 -1.77437 -4.70665 0
M  V30 306 H 27.292 -3.53037 -4.69722 0
M  V30 307 H 28.816 -2.89256 -5.37739 0
M  V30 308 H 30.23 -4.39855 -3.67697 0
M  V30 309 H 28.627 -5.05458 -3.2347 0
M  V30 310 H 29.697 -4.43293 -1.96518 0
M  V30 311 N 31.0401 0.771051 -1.3745 0
M  V30 312 C 32.2651 1.56529 -1.36065 0
M  V30 313 C 32.6901 1.88029 0.0515859 0
M  V30 314 O 32.0481 1.49282 1.02882 0
M  V30 315 C 32.0961 2.85187 -2.20683 0
M  V30 316 O 31.2001 3.79593 -1.61193 0
M  V30 317 H 30.5411 0.47411 -0.464883 0
M  V30 318 H 33.0711 0.954269 -1.80983 0
M  V30 319 H 33.0811 3.34283 -2.33921 0
M  V30 320 H 31.7561 2.61588 -3.23334 0
M  V30 321 H 30.3331 3.38239 -1.56999 0
M  V30 322 N 32.5182 1.22032 0.997298 0
M  V30 323 C 33.7582 1.05375 1.75144 0
M  V30 324 C 34.1222 -0.404696 1.87686 0
M  V30 325 O 35.3232 -0.691998 2.5974 0
M  V30 326 C 33.5942 1.74046 3.12158 0
M  V30 327 S 35.1532 1.72745 4.03366 0
M  V30 328 H 31.9712 0.377449 0.602539 0
M  V30 329 H 34.5732 1.54902 1.19272 0
M  V30 330 H 33.2772 2.79332 3.00669 0
M  V30 331 H 32.8082 1.24731 3.73103 0
M  V30 332 H 34.8232 0.774015 4.90126 0
M  V30 333 N 33.9963 -1.19345 1.0293 0
M  V30 334 C 35.4123 -1.41069 0.746446 0
M  V30 335 C 35.6123 -1.90078 -0.668776 0
M  V30 336 O 34.6683 -2.0778 -1.4347 0
M  V30 337 C 35.9813 -2.42141 1.78292 0
M  V30 338 C 37.5293 -2.55887 1.80252 0
M  V30 339 C 38.0043 -3.60214 2.8286 0
M  V30 340 N 39.4953 -3.67711 2.81679 0
M  V30 341 C 40.2303 -4.48128 3.57727 0
M  V30 342 N 39.7263 -5.32248 4.43491 0
M  V30 343 N 41.5193 -4.42782 3.46267 0
M  V30 344 H 33.6703 -0.858536 1.94275 0
M  V30 345 H 35.9333 -0.439541 0.839945 0
M  V30 346 H 35.6393 -2.13155 2.79746 0
M  V30 347 H 35.5133 -3.41323 1.60557 0
M  V30 348 H 37.9003 -2.84196 0.794757 0
M  V30 349 H 37.9813 -1.56858 2.02062 0
M  V30 350 H 37.6253 -3.32647 3.83807 0
M  V30 351 H 37.5553 -4.58895 2.58307 0
M  V30 352 H 40.0463 -3.07634 2.19476 0
M  V30 353 H 40.3593 -5.90729 4.98256 0
M  V30 354 H 38.7043 -5.31707 4.47564 0
M  V30 355 H 41.8953 -3.76107 2.78677 0
M  V30 356 H 42.0683 -5.05215 4.05785 0
M  V30 357 N 35.4744 -0.807222 -1.35358 0
M  V30 358 C 36.4374 -0.223665 -2.28106 0
M  V30 359 C 37.4374 0.589354 -1.4961 0
M  V30 360 O 38.6274 0.407745 -1.69361 0
M  V30 361 C 35.7594 0.688149 -3.33882 0
M  V30 362 H 36.9524 -1.04169 -2.81227 0
M  V30 363 H 34.5054 -0.577921 -1.45223 0
M  V30 364 H 35.2404 1.52984 -2.85948 0
M  V30 365 H 35.0254 0.10687 -3.91954 0
M  V30 366 H 36.5154 1.09075 -4.03104 0
M  V30 367 N 36.9525 1.47285 -0.560781 0
M  V30 368 C 37.9155 2.28535 0.174488 0
M  V30 369 C 38.9155 1.37153 0.839388 0
M  V30 370 O 40.1055 1.59748 0.694702 0
M  V30 371 C 37.2375 3.16934 1.25561 0
M  V30 372 H 38.4305 2.95012 -0.539262 0
M  V30 373 H 35.9835 1.53034 -0.317865 0
M  V30 374 H 36.7185 2.55157 2.00164 0
M  V30 375 H 36.5035 3.8419 0.783604 0
M  V30 376 H 37.9935 3.78143 1.77193 0
M  V30 377 N 38.4306 0.297415 1.54768 0
M  V30 378 C 39.3606 -0.573494 2.26348 0
M  V30 379 C 40.3416 -1.14085 1.26169 0
M  V30 380 O 41.5266 -1.17086 1.54934 0
M  V30 381 C 38.6566 -1.74716 3.00153 0
M  V30 382 C 37.6106 -1.31032 4.07449 0
M  V30 383 C 36.9366 -2.56887 4.68949 0
M  V30 384 C 38.2366 -0.444183 5.20408 0
M  V30 385 H 39.9306 0.0235131 2.99391 0
M  V30 386 H 37.4766 0.0127488 1.43994 0
M  V30 387 H 39.4296 -2.3625 3.48947 0
M  V30 388 H 38.1536 -2.37035 2.24682 0
M  V30 389 H 36.8126 -0.718066 3.59499 0
M  V30 390 H 36.4606 -3.17512 3.90122 0
M  V30 391 H 36.1606 -2.2836 5.41411 0
M  V30 392 H 37.6846 -3.19229 5.20505 0
M  V30 393 H 39.0986 -0.9651 5.65118 0
M  V30 394 H 37.4956 -0.252846 5.99567 0
M  V30 395 H 38.5656 0.531609 4.81977 0
M  V30 396 N 39.9087 -1.5758 0.0250728 0
M  V30 397 C 40.8387 -2.13007 -0.956575 0
M  V30 398 C 41.8197 -1.0452 -1.342 0
M  V30 399 O 43.0047 -1.32332 -1.42133 0
M  V30 400 C 40.1347 -2.65386 -2.24026 0
M  V30 401 C 39.0887 -3.78623 -1.99571 0
M  V30 402 C 38.4147 -4.17414 -3.3417 0
M  V30 403 C 39.7147 -5.04867 -1.33814 0
M  V30 404 H 41.4087 -2.9528 -0.494991 0
M  V30 405 H 38.9547 -1.42042 -0.236651 0
M  V30 406 H 40.9077 -3.02794 -2.93076 0
M  V30 407 H 39.6317 -1.80268 -2.72343 0
M  V30 408 H 38.2907 -3.41646 -1.32941 0
M  V30 409 H 37.9387 -3.29284 -3.80238 0
M  V30 410 H 37.6387 -4.93719 -3.18615 0
M  V30 411 H 39.1627 -4.57402 -4.04495 0
M  V30 412 H 40.5767 -5.39888 -1.92857 0
M  V30 413 H 38.9737 -5.86144 -1.28669 0
M  V30 414 H 40.0437 -4.83904 -0.310561 0
M  V30 415 N 41.3868 0.248026 -1.55636 0
M  V30 416 C 42.6118 0.998028 -1.81808 0
M  V30 417 C 43.0368 1.78207 -0.601979 0
M  V30 418 O 42.3948 1.75653 0.448961 0
M  V30 419 C 42.4428 1.9125 -3.05705 0
M  V30 420 O 41.5468 3.00406 -2.82542 0
M  V30 421 H 40.8878 0.284045 -0.600179 0
M  V30 422 H 43.4178 0.269357 -2.02819 0
M  V30 423 H 43.4278 2.32737 -3.35108 0
M  V30 424 H 42.1028 1.33602 -3.93857 0
M  V30 425 H 40.6798 2.63056 -2.64303 0
M  V30 426 N 42.8649 1.48995 0.513639 0
M  V30 427 C 44.0899 1.61792 1.29762 0
M  V30 428 C 44.5149 0.284475 1.85936 0
M  V30 429 O 43.8729 -0.746185 1.65232 0
M  V30 430 C 43.9209 2.67993 2.41272 0
M  V30 431 O 43.0249 2.26287 3.44772 0
M  V30 432 H 42.3659 0.541963 0.38363 0
M  V30 433 H 44.8959 1.95097 0.616307 0
M  V30 434 H 44.9059 2.89772 2.87221 0
M  V30 435 H 43.5809 3.64791 1.9975 0
M  V30 436 H 42.1579 2.14788 3.04829 0
M  V30 437 N 44.343 -0.763751 1.37857 0
M  V30 438 C 45.759 -1.06542 1.18832 0
M  V30 439 C 45.959 -2.01478 0.0299722 0
M  V30 440 O 45.015 -2.4458 -0.627447 0
M  V30 441 C 46.328 -1.65525 2.51042 0
M  V30 442 C 47.876 -1.77745 2.57635 0
M  V30 443 C 48.351 -2.4014 3.89996 0
M  V30 444 N 49.842 -2.47582 3.91481 0
M  V30 445 C 50.577 -2.96732 4.9065 0
M  V30 446 N 50.073 -3.45993 6.00217 0
M  V30 447 N 51.866 -2.95679 4.78048 0
M  V30 448 H 44.017 -0.133556 2.1198 0
M  V30 449 H 46.28 -0.121879 0.940133 0
M  V30 450 H 45.986 -1.03236 3.36207 0
M  V30 451 H 45.86 -2.64719 2.68707 0
M  V30 452 H 48.247 -2.39164 1.72872 0
M  V30 453 H 48.328 -0.772836 2.43846 0
M  V30 454 H 47.972 -1.79358 4.75177 0
M  V30 455 H 47.902 -3.41223 4.01092 0
M  V30 456 H 50.393 -2.1273 3.12337 0
M  V30 457 H 50.706 -3.81922 6.7183 0
M  V30 458 H 49.051 -3.44077 6.03851 0
M  V30 459 H 52.242 -2.56499 3.91568 0
M  V30 460 H 52.415 -3.33672 5.55488 0
M  V30 461 N 45.8211 -1.22559 -0.990812 0
M  V30 462 C 47.0691 -1.04933 -1.72724 0
M  V30 463 C 47.3901 0.416158 -1.90508 0
M  V30 464 O 46.6601 1.29918 -1.46622 0
M  V30 465 H 45.2401 -0.385296 -0.639965 0
M  V30 466 H 47.9021 -1.54105 -1.19322 0
M  V30 467 H 46.9981 -1.52886 -2.72089 0
M  V30 468 N 47.2992 1.18797 -1.03562 0
M  V30 469 C 48.5292 1.92319 -0.754773 0
M  V30 470 C 48.9372 1.7612 0.691248 0
M  V30 471 O 48.2802 1.08491 1.48241 0
M  V30 472 C 48.3422 3.44284 -1.03484 0
M  V30 473 C 48.0062 3.84258 -2.47376 0
M  V30 474 C 49.0032 3.88459 -3.45537 0
M  V30 475 C 46.6882 4.15701 -2.81954 0
M  V30 476 C 48.6822 4.23545 -4.76328 0
M  V30 477 C 46.3692 4.50458 -4.12954 0
M  V30 478 C 47.3672 4.54356 -5.09951 0
M  V30 479 O 47.0552 4.88305 -6.38603 0
M  V30 480 H 46.7872 0.617527 -0.275021 0
M  V30 481 H 49.3412 1.51683 -1.38497 0
M  V30 482 H 47.5712 3.85135 -0.347513 0
M  V30 483 H 49.2602 3.99049 -0.7426 0
M  V30 484 H 50.0262 3.6431 -3.20162 0
M  V30 485 H 45.9052 4.11847 -2.0713 0
M  V30 486 H 49.4492 4.26502 -5.52035 0
M  V30 487 H 45.3462 4.74067 -4.38099 0
M  V30 488 H 46.1142 5.06227 -6.43177 0
M  V30 489 N 48.7773 0.814389 1.34928 0
M  V30 490 C 49.7073 0.244827 2.32213 0
M  V30 491 C 50.6883 -0.634024 1.57842 0
M  V30 492 O 51.8733 -0.562676 1.8587 0
M  V30 493 C 49.0033 -0.601106 3.42058 0
M  V30 494 C 47.9573 0.179896 4.27622 0
M  V30 495 C 47.2833 -0.788237 5.28858 0
M  V30 496 C 48.5833 1.38329 5.03649 0
M  V30 497 H 50.2773 1.05763 2.80097 0
M  V30 498 H 47.8233 0.510029 1.34665 0
M  V30 499 H 49.7763 -1.00968 4.09125 0
M  V30 500 H 48.5003 -1.44688 2.92802 0
M  V30 501 H 47.1593 0.569739 3.62146 0
M  V30 502 H 46.8073 -1.62973 4.75866 0
M  V30 503 H 46.5073 -0.269942 5.8698 0
M  V30 504 H 48.0313 -1.19485 5.98795 0
M  V30 505 H 49.4453 1.04918 5.63618 0
M  V30 506 H 47.8423 1.83662 5.71304 0
M  V30 507 H 48.9123 2.16592 4.33839 0
M  V30 508 N 50.2554 -1.46986 0.568584 0
M  V30 509 C 51.2184 -2.28624 -0.162366 0
M  V30 510 C 52.2184 -1.37596 -0.832103 0
M  V30 511 O 53.4084 -1.60115 -0.68622 0
M  V30 512 C 50.5404 -3.17596 -1.23878 0
M  V30 513 H 51.7334 -2.94722 0.554899 0
M  V30 514 H 49.2864 -1.52863 0.325976 0
M  V30 515 H 50.0214 -2.56214 -1.98808 0
M  V30 516 H 49.8064 -3.846 -0.763219 0
M  V30 517 H 51.2964 -3.79078 -1.75185 0
M  V30 518 N 51.7335 -0.305618 -1.54608 0
M  V30 519 C 52.9795 0.295595 -2.01241 0
M  V30 520 C 53.3345 1.51171 -1.19018 0
M  V30 521 O 52.6275 1.89832 -0.259684 0
M  V30 522 C 52.8215 0.698983 -3.50498 0
M  V30 523 C 52.6505 -0.476491 -4.47168 0
M  V30 524 C 51.4205 -0.969963 -4.95903 0
M  V30 525 C 53.6185 -1.32294 -4.96994 0
M  V30 526 N 51.6005 -2.11172 -5.76437 0
M  V30 527 C 52.9715 -2.31212 -5.75275 0
M  V30 528 C 55.0265 -1.35278 -4.7917 0
M  V30 529 C 53.7295 -3.32896 -6.37631 0
M  V30 530 C 55.7555 -2.35823 -5.42348 0
M  V30 531 C 55.1175 -3.33469 -6.20466 0
M  V30 532 H 51.2165 0.0724992 -0.778632 0
M  V30 533 H 53.8005 -0.436583 -1.89742 0
M  V30 534 H 51.9715 1.40032 -3.62278 0
M  V30 535 H 53.7035 1.28013 -3.8392 0
M  V30 536 H 50.4585 -0.544178 -4.70463 0
M  V30 537 H 50.8825 -2.68714 -6.21387 0
M  V30 538 H 55.5245 -0.61157 -4.18354 0
M  V30 539 H 53.2425 -4.07933 -6.97579 0
M  V30 540 H 56.8285 -2.38911 -5.30484 0
M  V30 541 H 55.7085 -4.09996 -6.68485 0
M  V30 542 N 53.2116 1.57565 -0.0334293 0
M  V30 543 C 54.4416 1.95996 0.653398 0
M  V30 544 C 54.8496 0.908749 1.65947 0
M  V30 545 O 54.1926 -0.117471 1.83324 0
M  V30 546 C 54.2546 3.30589 1.41249 0
M  V30 547 C 53.9186 4.53503 0.564263 0
M  V30 548 C 54.9156 5.19647 -0.16225 0
M  V30 549 C 52.6006 4.99801 0.500398 0
M  V30 550 C 54.5946 6.30412 -0.941255 0
M  V30 551 C 52.2816 6.10448 -0.282308 0
M  V30 552 C 53.2796 6.75612 -1.00184 0
M  V30 553 O 52.9676 7.84134 -1.77171 0
M  V30 554 H 52.6996 0.65027 0.184728 0
M  V30 555 H 55.2536 2.05199 -0.0907841 0
M  V30 556 H 53.4836 3.17888 2.20191 0
M  V30 557 H 55.1726 3.53892 1.98784 0
M  V30 558 H 55.9386 4.84846 -0.12227 0
M  V30 559 H 51.8176 4.48883 1.05002 0
M  V30 560 H 55.3616 6.81208 -1.50339 0
M  V30 561 H 51.2586 6.44686 -0.323989 0
M  V30 562 H 52.0266 8.00822 -1.69194 0
M  V30 563 N 54.6897 -0.239769 1.55765 0
M  V30 564 C 55.6217 -1.32001 1.87372 0
M  V30 565 C 56.6347 -1.43944 0.760522 0
M  V30 566 O 57.8237 -1.45167 1.0387 0
M  V30 567 C 54.9237 -2.69779 2.05115 0
M  V30 568 C 54.0967 -2.80014 3.36022 0
M  V30 569 C 53.1557 -3.98684 3.4342 0
M  V30 570 O 52.1817 -3.87877 4.16582 0
M  V30 571 N 53.3837 -5.12176 2.73232 0
M  V30 572 H 56.1487 -1.0522 2.80622 0
M  V30 573 H 53.7097 -0.429857 1.56089 0
M  V30 574 H 55.7017 -3.47517 2.07399 0
M  V30 575 H 54.2717 -2.89237 1.18577 0
M  V30 576 H 53.4917 -1.88896 3.45994 0
M  V30 577 H 54.7797 -2.83808 4.22292 0
M  V30 578 H 54.1777 -5.2385 2.13536 0
M  V30 579 H 52.7347 -5.88022 2.81199 0
M  V30 580 N 56.1678 -1.49265 -0.50573 0
M  V30 581 C 57.0998 -1.617 -1.62437 0
M  V30 582 C 58.1128 -0.499924 -1.54934 0
M  V30 583 O 59.3018 -0.771785 -1.60953 0
M  V30 584 C 56.4018 -1.5533 -3.01207 0
M  V30 585 C 55.5748 -2.8249 -3.33943 0
M  V30 586 C 54.6338 -2.69238 -4.52103 0
M  V30 587 O 53.6598 -3.43167 -4.5412 0
M  V30 588 N 54.8618 -1.80468 -5.51735 0
M  V30 589 H 57.6268 -2.58177 -1.52199 0
M  V30 590 H 55.1878 -1.46294 -0.693511 0
M  V30 591 H 57.1798 -1.44125 -3.78167 0
M  V30 592 H 55.7498 -0.667297 -3.05395 0
M  V30 593 H 54.9698 -3.08081 -2.45926 0
M  V30 594 H 56.2578 -3.66802 -3.5261 0
M  V30 595 H 55.6558 -1.19653 -5.52901 0
M  V30 596 H 54.2128 -1.75188 -6.27816 0
M  V30 597 N 57.6459 0.756429 -1.3826 0
M  V30 598 C 58.5929 1.87011 -1.35261 0
M  V30 599 C 59.5629 1.64695 -0.215616 0
M  V30 600 O 60.7479 1.864 -0.407399 0
M  V30 601 C 57.8879 3.24275 -1.18068 0
M  V30 602 C 57.0009 3.58442 -2.41129 0
M  V30 603 C 56.1359 4.84994 -2.16689 0
M  V30 604 C 55.1749 5.11939 -3.35537 0
M  V30 605 N 54.3119 6.29685 -3.10549 0
M  V30 606 H 59.1519 1.8891 -2.30472 0
M  V30 607 H 56.6889 0.923373 -1.14509 0
M  V30 608 H 58.6469 4.03479 -1.06116 0
M  V30 609 H 57.2769 3.21711 -0.264973 0
M  V30 610 H 56.3289 2.74103 -2.63764 0
M  V30 611 H 57.6409 3.74283 -3.29717 0
M  V30 612 H 56.7949 5.72135 -2.01857 0
M  V30 613 H 55.5339 4.71286 -1.25462 0
M  V30 614 H 54.5389 4.23268 -3.50891 0
M  V30 615 H 55.7639 5.27546 -4.27635 0
M  V30 616 H 53.7099 6.17306 -2.21967 0
M  V30 617 H 53.6269 6.46014 -3.92686 0
M  V30 618 H 54.8949 7.19722 -2.99367 0
M  V30 619 N 59.124 1.23083 0.984299 0
M  V30 620 C 60.535 1.05609 1.5396 0
M  V30 621 C 60.886 -0.377793 1.92528 0
M  V30 622 O 60.011 -1.26398 1.75649 0
M  V30 623 C 60.606 1.91087 2.7977 0
M  V30 624 C 59.165 1.77885 3.31713 0
M  V30 625 C 58.312 1.87028 2.04733 0
M  V30 626 H 61.263 1.36802 0.804419 0
M  V30 627 H 61.284 1.43336 3.5247 0
M  V30 628 H 60.796 2.9544 2.51668 0
M  V30 629 H 58.897 0.762995 3.64704 0
M  V30 630 H 59.01 2.61047 4.01735 0
M  V30 631 H 57.374 1.30565 2.18689 0
M  V30 632 H 58.157 2.92929 1.79017 0
M  V30 633 N 60.6021 -1.18246 1.0419 0
M  V30 634 C 61.8501 -1.87886 0.744543 0
M  V30 635 C 62.1711 -1.8082 -0.730006 0
M  V30 636 O 61.4411 -1.22736 -1.52685 0
M  V30 637 H 60.0211 -0.695556 0.272417 0
M  V30 638 H 62.6831 -1.43494 1.31892 0
M  V30 639 H 61.7791 -2.9389 1.05049 0
M  V30 640 N 62.0802 -0.821533 -1.34494 0
M  V30 641 C 63.0122 -0.199946 -2.28326 0
M  V30 642 C 64.0252 0.609377 -1.50965 0
M  V30 643 O 65.2142 0.439285 -1.7301 0
M  V30 644 C 62.3142 0.738431 -3.30757 0
M  V30 645 C 61.4872 -0.0277632 -4.37391 0
M  V30 646 C 60.5462 0.831332 -5.19591 0
M  V30 647 O 59.5722 0.276822 -5.68526 0
M  V30 648 N 60.7742 2.15132 -5.39165 0
M  V30 649 H 63.5392 -1.00609 -2.82308 0
M  V30 650 H 61.1002 -0.678366 -1.47003 0
M  V30 651 H 63.0922 1.31773 -3.82646 0
M  V30 652 H 61.6622 1.44533 -2.7718 0
M  V30 653 H 60.8822 -0.788359 -3.86236 0
M  V30 654 H 62.1702 -0.555251 -5.05761 0
M  V30 655 H 61.5682 2.62559 -5.01078 0
M  V30 656 H 60.1252 2.6795 -5.94177 0
M  V30 657 N 63.5583 1.46682 -0.576371 0
M  V30 658 C 64.5213 2.28707 0.150239 0
M  V30 659 C 65.5213 1.38035 0.824794 0
M  V30 660 O 66.7113 1.60476 0.677719 0
M  V30 661 C 63.8433 3.18248 1.22192 0
M  V30 662 H 65.0363 2.94423 -0.570521 0
M  V30 663 H 62.5893 1.52688 -0.334078 0
M  V30 664 H 63.3243 2.57265 1.97447 0
M  V30 665 H 63.1093 3.85 0.742812 0
M  V30 666 H 64.5993 3.80001 1.73172 0
M  V30 667 N 65.0364 0.313813 1.54444 0
M  V30 668 C 66.4474 -0.176243 1.85866 0
M  V30 669 C 66.7984 -1.52405 1.23561 0
M  V30 670 O 65.9234 -2.09605 0.538016 0
M  V30 671 C 66.5184 -0.32657 3.37222 0
M  V30 672 C 65.0774 -0.760846 3.6863 0
M  V30 673 C 64.2244 0.123247 2.77026 0
M  V30 674 H 67.1754 0.534418 1.49431 0
M  V30 675 H 67.1964 -1.15908 3.62416 0
M  V30 676 H 66.7084 0.654531 3.82541 0
M  V30 677 H 64.8094 -1.75204 3.28838 0
M  V30 678 H 64.9224 -0.571353 4.75681 0
M  V30 679 H 63.2864 -0.399597 2.51546 0
M  V30 680 H 64.0694 1.10094 3.25168 0
M  V30 681 N 66.5145 -1.57545 0.0417849 0
M  V30 682 C 67.9305 -1.56467 -0.314704 0
M  V30 683 C 68.1305 -1.04859 -1.72066 0
M  V30 684 O 67.1865 -0.700983 -2.42575 0
M  V30 685 C 68.4995 -3.00317 -0.15174 0
M  V30 686 C 70.0475 -3.12201 -0.223553 0
M  V30 687 C 70.5225 -4.57913 -0.0892295 0
M  V30 688 N 72.0135 -4.6297 -0.145808 0
M  V30 689 C 72.7485 -5.73362 -0.0658459 0
M  V30 690 N 72.2445 -6.92769 0.0659282 0
M  V30 691 N 74.0375 -5.6197 -0.12075 0
M  V30 692 H 66.1885 -1.89416 0.961014 0
M  V30 693 H 68.4515 -0.871862 0.372237 0
M  V30 694 H 68.1575 -3.42073 0.817254 0
M  V30 695 H 68.0315 -3.65892 -0.916692 0
M  V30 696 H 70.4185 -2.70349 -1.18301 0
M  V30 697 H 70.4995 -2.49323 0.571994 0
M  V30 698 H 70.1435 -5.00448 0.866867 0
M  V30 699 H 70.0735 -5.18786 -0.903802 0
M  V30 700 H 72.5645 -3.7709 -0.247286 0
M  V30 701 H 72.8775 -7.72707 0.119905 0
M  V30 702 H 71.2225 -6.94927 0.100885 0
M  V30 703 H 74.4135 -4.67572 -0.222187 0
M  V30 704 H 74.5865 -6.47977 -0.0549735 0
M  V30 705 N 67.9926 0.231505 -1.5589 0
M  V30 706 C 68.9226 1.29022 -1.94617 0
M  V30 707 C 69.9036 1.4941 -0.813067 0
M  V30 708 O 71.0886 1.6176 -1.07459 0
M  V30 709 C 68.2186 2.64199 -2.25424 0
M  V30 710 C 67.1726 2.58484 -3.41131 0
M  V30 711 C 66.4986 3.97599 -3.57518 0
M  V30 712 C 67.7986 2.1413 -4.76388 0
M  V30 713 H 69.4926 0.968563 -2.83301 0
M  V30 714 H 67.0386 0.464479 -1.36303 0
M  V30 715 H 68.9916 3.38413 -2.51107 0
M  V30 716 H 67.7156 2.98032 -1.33583 0
M  V30 717 H 66.3746 1.86727 -3.15481 0
M  V30 718 H 66.0226 4.28723 -2.6307 0
M  V30 719 H 65.7226 3.94659 -4.35337 0
M  V30 720 H 67.2466 4.7349 -3.85538 0
M  V30 721 H 68.6606 2.78083 -5.01341 0
M  V30 722 H 67.0576 2.2227 -5.57419 0
M  V30 723 H 68.1276 1.09331 -4.72414 0
M  V30 724 N 69.4707 1.49531 0.497807 0
M  V30 725 C 70.4007 1.6935 1.60757 0
M  V30 726 C 71.3817 0.542218 1.61227 0
M  V30 727 O 72.5667 0.778417 1.77917 0
M  V30 728 C 69.6967 1.76298 2.99226 0
M  V30 729 C 68.6507 2.91248 3.13622 0
M  V30 730 C 67.9767 2.83312 4.53474 0
M  V30 731 C 69.2767 4.3214 2.93346 0
M  V30 732 H 70.9707 2.62263 1.44425 0
M  V30 733 H 68.5167 1.26208 0.693367 0
M  V30 734 H 70.4697 1.88749 3.76765 0
M  V30 735 H 69.1937 0.799871 3.16654 0
M  V30 736 H 67.8527 2.78404 2.38509 0
M  V30 737 H 67.5007 1.84902 4.67782 0
M  V30 738 H 67.2007 3.60465 4.64046 0
M  V30 739 H 68.7247 2.97775 5.33069 0
M  V30 740 H 70.1387 4.45649 3.60652 0
M  V30 741 H 68.5357 5.1054 3.15387 0
M  V30 742 H 69.6057 4.46363 1.89441 0
M  V30 743 N 70.9488 -0.749086 1.3866 0
M  V30 744 C 71.8818 -1.87111 1.30631 0
M  V30 745 C 72.8598 -1.61572 0.18251 0
M  V30 746 O 74.0438 -1.85019 0.360592 0
M  V30 747 C 71.1708 -3.22815 1.02511 0
M  V30 748 C 70.2168 -3.67234 2.1689 0
M  V30 749 S 71.0498 -3.78245 3.79066 0
M  V30 750 C 72.2058 -5.16761 3.53142 0
M  V30 751 H 72.4388 -1.93636 2.25594 0
M  V30 752 H 69.9718 -0.912525 1.24549 0
M  V30 753 H 71.9298 -4.01181 0.869701 0
M  V30 754 H 70.5908 -3.13964 0.0925884 0
M  V30 755 H 69.7838 -4.65677 1.92771 0
M  V30 756 H 69.3858 -2.96034 2.28561 0
M  V30 757 H 71.6778 -6.02656 3.09534 0
M  V30 758 H 72.6208 -5.45902 4.50995 0
M  V30 759 H 73.0288 -4.85771 2.87554 0
M  V30 760 N 72.4269 -1.23603 -0.977757 0
M  V30 761 C 73.6569 -1.09487 -1.75203 0
M  V30 762 C 74.0649 0.356321 -1.85814 0
M  V30 763 O 73.4079 1.25816 -1.33851 0
M  V30 764 C 73.4699 -1.64905 -3.19447 0
M  V30 765 C 73.1339 -3.13688 -3.32338 0
M  V30 766 C 74.1309 -4.10953 -3.18455 0
M  V30 767 C 71.8159 -3.53449 -3.56902 0
M  V30 768 C 73.8099 -5.45962 -3.28944 0
M  V30 769 C 71.4969 -4.88602 -3.6703 0
M  V30 770 C 72.4949 -5.84668 -3.53062 0
M  V30 771 O 72.1829 -7.17365 -3.62826 0
M  V30 772 H 71.9149 -0.38367 -0.556573 0
M  V30 773 H 74.4689 -1.6398 -1.23693 0
M  V30 774 H 72.6989 -1.04835 -3.72218 0
M  V30 775 H 74.3879 -1.46226 -3.78646 0
M  V30 776 H 75.1539 -3.81577 -2.99372 0
M  V30 777 H 71.0329 -2.79188 -3.66844 0
M  V30 778 H 74.5769 -6.20925 -3.17958 0
M  V30 779 H 70.4739 -5.17653 -3.85623 0
M  V30 780 H 71.2419 -7.2515 -3.79605 0
M  V30 781 N 73.905 1.17692 -1.04816 0
M  V30 782 C 75.153 1.87488 -0.754497 0
M  V30 783 C 75.474 1.81205 0.720407 0
M  V30 784 O 74.744 1.23544 1.52032 0
M  V30 785 H 73.324 0.694101 -0.276102 0
M  V30 786 H 75.986 1.42793 -1.32651 0
M  V30 787 H 75.082 2.93328 -1.06606 0
M  V30 788 N 75.3831 0.828654 1.34056 0
M  V30 789 C 76.3461 0.259927 2.27721 0
M  V30 790 C 77.3461 -0.565478 1.50529 0
M  V30 791 O 78.5361 -0.38075 1.69988 0
M  V30 792 C 75.6681 -0.634944 3.34935 0
M  V30 793 H 76.8611 1.0863 2.79534 0
M  V30 794 H 74.4141 0.600951 1.44285 0
M  V30 795 H 75.1491 -1.48416 2.88346 0
M  V30 796 H 74.9341 -0.0444999 3.92075 0
M  V30 797 H 76.4241 -1.02648 4.04788 0
M  V30 798 N 76.8612 -1.46375 0.584142 0
M  V30 799 C 78.0862 -2.07268 0.0740405 0
M  V30 800 C 78.5112 -1.42979 -1.22223 0
M  V30 801 O 77.8692 -0.514092 -1.73859 0
M  V30 802 C 77.9172 -3.60518 -0.0767769 0
M  V30 803 O 77.0212 -3.96533 -1.13292 0
M  V30 804 H 76.3622 -0.660961 0.0634524 0
M  V30 805 H 78.8922 -1.87991 0.807492 0
M  V30 806 H 78.9022 -4.07021 -0.282489 0
M  V30 807 H 77.5772 -4.06702 0.86986 0
M  V30 808 H 76.1542 -3.61738 -0.905553 0
M  V30 809 N 78.3393 -0.321999 -1.54275 0
M  V30 810 C 79.5643 0.285791 -2.05422 0
M  V30 811 C 79.9893 1.45124 -1.19669 0
M  V30 812 O 79.3473 1.80132 -0.205441 0
M  V30 813 C 79.3953 0.69956 -3.53749 0
M  V30 814 O 78.4993 1.8021 -3.70942 0
M  V30 815 H 77.8403 0.0518962 -0.661969 0
M  V30 816 H 80.3703 -0.469954 -1.9913 0
M  V30 817 H 80.3803 0.982649 -3.9599 0
M  V30 818 H 79.0553 -0.152864 -4.15619 0
M  V30 819 H 77.6323 1.51794 -3.40607 0
M  V30 820 N 79.8174 1.5752 -0.0501392 0
M  V30 821 C 81.2334 1.56631 0.306402 0
M  V30 822 C 81.4334 1.0577 1.71508 0
M  V30 823 O 80.4894 0.713837 2.422 0
M  V30 824 C 81.8024 3.00393 0.135811 0
M  V30 825 C 83.3504 3.12315 0.206993 0
M  V30 826 C 83.8254 4.57954 0.064944 0
M  V30 827 N 85.3164 4.63041 0.121254 0
M  V30 828 C 86.0514 5.73389 0.0354381 0
M  V30 829 N 85.5474 6.92724 -0.102666 0
M  V30 830 N 87.3404 5.62026 0.090946 0
M  V30 831 H 79.4914 1.88903 -0.971046 0
M  V30 832 H 81.7544 0.869876 -0.376855 0
M  V30 833 H 81.4604 3.41635 -0.835384 0
M  V30 834 H 81.3344 3.66373 0.897275 0
M  V30 835 H 83.7214 2.70973 1.16866 0
M  V30 836 H 83.8024 2.49016 -0.585208 0
M  V30 837 H 83.4464 4.99981 -0.893394 0
M  V30 838 H 83.3764 5.19258 0.876277 0
M  V30 839 H 85.8674 3.77216 0.227284 0
M  V30 840 H 86.1804 7.72633 -0.160882 0
M  V30 841 H 84.5254 6.94864 -0.137737 0
M  V30 842 H 87.7164 4.67684 0.197388 0
M  V30 843 H 87.8894 6.47997 0.0206089 0
M  V30 844 N 81.2955 -0.223234 1.56011 0
M  V30 845 C 82.2585 -1.26014 1.9145 0
M  V30 846 C 83.2585 -1.3989 0.792937 0
M  V30 847 O 84.4485 -1.38184 1.0607 0
M  V30 848 C 81.5805 -2.63422 2.16383 0
M  V30 849 H 82.7735 -0.95796 2.84189 0
M  V30 850 H 80.3265 -0.463576 1.49267 0
M  V30 851 H 81.0615 -2.98741 1.2619 0
M  V30 852 H 80.8465 -2.54728 2.98088 0
M  V30 853 H 82.3365 -3.38249 2.44903 0
M  V30 854 N 82.7736 -1.49793 -0.48987 0
M  V30 855 C 84.0016 -1.63568 -1.26701 0
M  V30 856 C 84.4166 -0.311465 -1.86213 0
M  V30 857 O 83.7736 0.704416 -1.68357 0
M  V30 858 C 83.8246 -2.71284 -2.38929 0
M  V30 859 O 83.5456 -3.9857 -1.81861 0
M  V30 860 C 85.0466 -2.95864 -3.3012 0
M  V30 861 H 82.2666 -0.550342 -0.383881 0
M  V30 862 H 84.8106 -1.95898 -0.586864 0
M  V30 863 H 82.9656 -2.417 -3.02753 0
M  V30 864 H 83.3796 -4.57993 -2.55622 0
M  V30 865 H 84.8536 -3.74941 -4.05121 0
M  V30 866 H 85.3306 -2.06206 -3.87783 0
M  V30 867 H 85.9366 -3.26907 -2.72051 0
M  V30 868 N 84.2517 0.741722 -1.39055 0
M  V30 869 C 85.4997 1.49818 -1.35643 0
M  V30 870 C 85.8207 1.94938 0.0491642 0
M  V30 871 O 85.0907 1.68505 0.999141 0
M  V30 872 H 83.6707 0.555755 -0.499144 0
M  V30 873 H 86.3327 0.880957 -1.73854 0
M  V30 874 H 85.4287 2.38348 -2.01486 0
M  V30 875 N 85.7298 1.2412 0.971189 0
M  V30 876 C 86.9788 1.07284 1.70801 0
M  V30 877 C 87.2918 -0.388902 1.91695 0
M  V30 878 O 88.4978 -0.677379 2.62914 0
M  V30 879 C 86.9538 1.87145 3.07416 0
M  V30 880 C 86.5618 3.37707 2.94377 0
M  V30 881 C 88.3058 1.78828 3.84995 0
M  V30 882 C 86.2128 4.09925 4.26281 0
M  V30 883 H 85.1428 0.397854 0.64049 0
M  V30 884 H 87.7938 1.4817 1.0825 0
M  V30 885 H 86.1758 1.39071 3.70777 0
M  V30 886 H 87.3498 3.93335 2.4005 0
M  V30 887 H 85.6648 3.46938 2.30267 0
M  V30 888 H 88.2618 2.30089 4.82662 0
M  V30 889 H 88.6048 0.75284 4.09436 0
M  V30 890 H 89.1378 2.24563 3.28354 0
M  V30 891 H 85.8768 5.13813 4.07033 0
M  V30 892 H 85.3968 3.59083 4.80437 0
M  V30 893 H 87.0758 4.1673 4.94919 0
M  V30 894 N 87.2079 -1.17134 1.05439 0
M  V30 895 C 88.6189 -1.69084 0.791676 0
M  V30 896 C 88.9699 -1.83822 -0.685839 0
M  V30 897 O 88.0949 -1.52757 -1.53278 0
M  V30 898 C 88.6899 -3.07119 1.4305 0
M  V30 899 C 87.2489 -3.56225 1.21577 0
M  V30 900 C 86.3959 -2.32421 1.51247 0
M  V30 901 H 89.3469 -1.01617 1.219 0
M  V30 902 H 89.3679 -3.71087 0.84112 0
M  V30 903 H 88.8799 -2.9636 2.50584 0
M  V30 904 H 86.9809 -3.72257 0.159787 0
M  V30 905 H 87.0939 -4.38837 1.92246 0
M  V30 906 H 85.4579 -2.3701 0.932653 0
M  V30 907 H 86.2409 -2.24268 2.5992 0
M  V30 908 N 88.686 -0.835752 -1.33615 0
M  V30 909 C 89.963 -0.352017 -1.92406 0
M  V30 910 C 90.343 1.16225 -1.76224 0
M  V30 911 O 89.691 1.97526 -1.14873 0
M  V30 912 C 89.901 -0.795485 -3.39813 0
M  V30 913 C 91.249 -0.801703 -4.16963 0
M  V30 914 O 92.273 -0.738889 -3.48452 0
M  V30 915 O 91.132 -0.886607 -5.3926 0
M  V30 916 H 88.226 -0.0989641 -0.821057 0
M  V30 917 H 90.772 -0.921397 -1.42507 0
M  V30 918 H 89.544 -1.83795 -3.45449 0
M  V30 919 H 89.167 -0.202505 -3.97084 0
M  V30 920 N 90.1641 1.46063 -0.591896 0
M  V30 921 C 91.5801 1.57561 -0.254288 0
M  V30 922 C 91.7801 1.58565 1.24336 0
M  V30 923 O 90.8361 1.50753 2.02558 0
M  V30 924 C 92.1491 2.86549 -0.911611 0
M  V30 925 C 93.6971 3.00197 -0.886059 0
M  V30 926 C 94.1721 4.31933 -1.5231 0
M  V30 927 N 95.6631 4.38654 -1.48786 0
M  V30 928 C 96.3981 5.39222 -1.95006 0
M  V30 929 N 95.8941 6.46414 -2.49241 0
M  V30 930 N 97.6871 5.3048 -1.85868 0
M  V30 931 H 89.8381 1.43655 -1.56451 0
M  V30 932 H 92.1011 0.68583 -0.654478 0
M  V30 933 H 91.8071 2.91651 -1.96551 0
M  V30 934 H 91.6811 3.74794 -0.425368 0
M  V30 935 H 94.0681 2.9467 0.159246 0
M  V30 936 H 94.1491 2.13403 -1.41041 0
M  V30 937 H 93.7931 4.38217 -2.56765 0
M  V30 938 H 93.7231 5.17516 -0.973891 0
M  V30 939 H 96.2141 3.61793 -1.09151 0
M  V30 940 H 96.5271 7.19376 -2.82344 0
M  V30 941 H 94.8721 6.47208 -2.53272 0
M  V30 942 H 98.0631 4.45643 -1.43248 0
M  V30 943 H 98.2361 6.08711 -2.22204 0
M  V30 944 N 91.6422 0.330177 1.54103 0
M  V30 945 C 92.8892 -0.270405 2.00686 0
M  V30 946 C 93.2172 -1.51621 1.21825 0
M  V30 947 O 92.4722 -1.93536 0.29025 0
M  V30 948 C 92.7712 -0.643134 3.51566 0
M  V30 949 C 92.4372 0.504251 4.48072 0
M  V30 950 C 91.0992 0.819163 4.74176 0
M  V30 951 C 93.4512 1.27465 5.05373 0
M  V30 952 C 90.7792 1.90708 5.5484 0
M  V30 953 C 93.1312 2.35271 5.87223 0
M  V30 954 C 91.7952 2.67336 6.11627 0
M  V30 955 H 91.0652 -0.0989482 0.734364 0
M  V30 956 H 93.7122 0.455324 1.86008 0
M  V30 957 H 92.0172 -1.44938 3.64006 0
M  V30 958 H 93.7142 -1.11949 3.85056 0
M  V30 959 H 90.3042 0.248733 4.27878 0
M  V30 960 H 94.4882 1.04462 4.85182 0
M  V30 961 H 89.7442 2.15991 5.71977 0
M  V30 962 H 93.9182 2.95405 6.30641 0
M  V30 963 H 91.5452 3.51763 6.73919 0
M  V30 964 N 93.1203 -1.57491 0.0584922 0
M  V30 965 C 94.3453 -1.97711 -0.62652 0
M  V30 966 C 94.7703 -0.936132 -1.63151 0
M  V30 967 O 94.1283 0.099811 -1.81025 0
M  V30 968 C 94.1763 -3.36989 -1.28338 0
M  V30 969 O 93.2803 -3.35433 -2.39913 0
M  V30 970 H 92.6213 -0.643868 -0.162266 0
M  V30 971 H 95.1513 -2.04193 0.129064 0
M  V30 972 H 95.1613 -3.73879 -1.63335 0
M  V30 973 H 93.8363 -4.12289 -0.546889 0
M  V30 974 H 92.4133 -3.10298 -2.06809 0
M  V30 975 N 94.5984 0.214957 -1.56127 0
M  V30 976 C 95.8464 0.936518 -1.79091 0
M  V30 977 C 96.1674 1.84606 -0.628148 0
M  V30 978 O 95.4374 1.92664 0.35462 0
M  V30 979 H 94.0174 0.3488 -0.660566 0
M  V30 980 H 96.6794 0.22523 -1.93594 0
M  V30 981 H 95.7754 1.53943 -2.71492 0
M  V30 982 N 96.0765 1.50051 0.48192 0
M  V30 983 C 97.3015 1.64508 1.26301 0
M  V30 984 C 97.7265 0.323851 1.85291 0
M  V30 985 O 97.0845 -0.710969 1.66778 0
M  V30 986 C 97.1325 2.7305 2.35533 0
M  V30 987 O 96.2365 2.3355 3.39895 0
M  V30 988 H 95.5775 0.549978 0.372048 0
M  V30 989 H 98.1075 1.9636 0.574786 0
M  V30 990 H 98.1175 2.95799 2.8101 0
M  V30 991 H 96.7925 3.68946 1.91967 0
M  V30 992 H 95.3695 2.21205 3.00204 0
M  V30 993 N 97.5546 -0.734337 1.39446 0
M  V30 994 C 98.8026 -1.49096 1.36436 0
M  V30 995 C 99.1236 -1.94961 -0.0388255 0
M  V30 996 O 98.3936 -1.69033 -0.990191 0
M  V30 997 H 96.9736 -0.5531 0.502085 0
M  V30 998 H 99.6356 -0.871725 1.74319 0
M  V30 999 H 98.7316 -2.37276 2.02747 0
M  V30 1000 N 99.0327 -1.24633 -0.964593 0
M  V30 1001 C 100.258 -1.11596 -1.74818 0
M  V30 1002 C 100.683 0.32723 -1.85232 0
M  V30 1003 O 100.041 1.23695 -1.32549 0
M  V30 1004 C 100.089 -1.76397 -3.1451 0
M  V30 1005 O 99.1927 -1.03685 -3.99153 0
M  V30 1006 H 98.5337 -0.390196 -0.537255 0
M  V30 1007 H 101.064 -1.65002 -1.20977 0
M  V30 1008 H 101.074 -1.8228 -3.65018 0
M  V30 1009 H 99.7487 -2.81401 -3.06246 0
M  V30 1010 H 98.3257 -1.05611 -3.57632 0
M  V30 1011 N 100.511 1.16574 -1.06058 0
M  V30 1012 C 101.759 1.86677 -0.77434 0
M  V30 1013 C 102.08 1.81959 0.701147 0
M  V30 1014 O 101.35 1.2515 1.50713 0
M  V30 1015 H 99.9298 0.691134 -0.283449 0
M  V30 1016 H 102.592 1.41378 -1.34158 0
M  V30 1017 H 101.688 2.92181 -1.09711 0
M  V30 1018 N 101.989 0.842826 1.3317 0
M  V30 1019 C 103.217 0.454055 2.01856 0
M  V30 1020 C 103.632 -0.94587 1.63397 0
M  V30 1021 O 102.989 -1.61534 0.849302 0
M  V30 1022 C 103.04 0.569715 3.56982 0
M  V30 1023 O 102.761 1.91448 3.94055 0
M  V30 1024 C 104.262 0.178412 4.42941 0
M  V30 1025 H 101.482 0.17979 0.646465 0
M  V30 1026 H 104.026 1.1365 1.70012 0
M  V30 1027 H 102.181 -0.0648587 3.87346 0
M  V30 1028 H 102.595 1.90282 4.88767 0
M  V30 1029 H 104.069 0.310376 5.51127 0
M  V30 1030 H 104.546 -0.880056 4.30293 0
M  V30 1031 H 105.152 0.787579 4.17944 0
M  V30 1032 N 103.467 -1.45747 0.599634 0
M  V30 1033 C 104.744 -1.95585 0.0240846 0
M  V30 1034 C 105.124 -1.54217 -1.44154 0
M  V30 1035 O 104.472 -0.800903 -2.14004 0
M  V30 1036 C 104.682 -3.48344 0.21385 0
M  V30 1037 C 106.03 -4.24504 0.0904902 0
M  V30 1038 O 107.054 -3.55911 0.143558 0
M  V30 1039 O 105.913 -5.46491 -0.0310766 0
M  V30 1040 H 103.007 -0.82602 -0.0402478 0
M  V30 1041 H 105.553 -1.55951 0.669139 0
M  V30 1042 H 104.325 -3.71397 1.23206 0
M  V30 1043 H 103.948 -3.9485 -0.466842 0
M  V30 1044 N 104.945 -0.338344 -1.53925 0
M  V30 1045 C 106.192 0.259758 -2.00827 0
M  V30 1046 C 106.52 1.50973 -1.22628 0
M  V30 1047 O 105.775 1.93379 -0.300509 0
M  V30 1048 C 106.074 0.62448 -3.51902 0
M  V30 1049 C 105.74 -0.528006 -4.47798 0
M  V30 1050 C 104.402 -0.844298 -4.73735 0
M  V30 1051 C 106.754 -1.30143 -5.0469 0
M  V30 1052 C 104.082 -1.93648 -5.53821 0
M  V30 1053 C 106.434 -2.38382 -5.85967 0
M  V30 1054 C 105.098 -2.70576 -6.10201 0
M  V30 1055 H 104.368 0.0950523 -0.734878 0
M  V30 1056 H 107.015 -0.465182 -1.85764 0
M  V30 1057 H 105.32 1.43006 -3.64769 0
M  V30 1058 H 107.017 1.09905 -3.85645 0
M  V30 1059 H 103.607 -0.271421 -4.2774 0
M  V30 1060 H 107.791 -1.07033 -4.84621 0
M  V30 1061 H 103.047 -2.19021 -5.70824 0
M  V30 1062 H 107.221 -2.98746 -6.29066 0
M  V30 1063 H 104.848 -3.55333 -6.72044 0
M  V30 1064 N 106.423 1.57458 -0.0668435 0
M  V30 1065 C 107.651 1.97624 0.612565 0
M  V30 1066 C 108.066 0.94502 1.63447 0
M  V30 1067 O 107.423 -0.0689276 1.8237 0
M  V30 1068 C 107.474 3.37869 1.28555 0
M  V30 1069 O 107.195 4.3704 0.304557 0
M  V30 1070 C 108.696 3.92882 2.05325 0
M  V30 1071 H 105.916 0.650045 0.166381 0
M  V30 1072 H 108.46 2.04035 -0.137782 0
M  V30 1073 H 106.615 3.3256 1.98702 0
M  V30 1074 H 107.029 5.18565 0.786779 0
M  V30 1075 H 108.503 4.93247 2.47812 0
M  V30 1076 H 108.98 3.29156 2.9078 0
M  V30 1077 H 109.586 4.01577 1.40056 0
M  V30 1078 N 107.901 -0.206675 1.56239 0
M  V30 1079 C 108.831 -1.25909 1.96645 0
M  V30 1080 C 109.812 -1.48097 0.836734 0
M  V30 1081 O 110.997 -1.6003 1.10019 0
M  V30 1082 C 108.127 -2.6058 2.29599 0
M  V30 1083 C 107.081 -2.53024 3.452 0
M  V30 1084 C 106.407 -3.91861 3.63798 0
M  V30 1085 C 107.707 -2.06524 4.79734 0
M  V30 1086 H 109.401 -0.923369 2.84806 0
M  V30 1087 H 106.947 -0.442735 1.37025 0
M  V30 1088 H 108.9 -3.34375 2.56459 0
M  V30 1089 H 107.624 -2.95869 1.38307 0
M  V30 1090 H 106.283 -1.81684 3.18412 0
M  V30 1091 H 105.931 -4.24483 2.69857 0
M  V30 1092 H 105.631 -3.87683 4.4156 0
M  V30 1093 H 107.155 -4.67296 3.93022 0
M  V30 1094 H 108.569 -2.70072 5.05702 0
M  V30 1095 H 106.966 -2.13374 5.60885 0
M  V30 1096 H 108.036 -1.01802 4.74093 0
M  V30 1097 N 109.379 -1.50304 -0.473955 0
M  V30 1098 C 110.607 -1.64902 -1.24959 0
M  V30 1099 C 111.022 -0.331198 -1.85872 0
M  V30 1100 O 110.379 0.68652 -1.69095 0
M  V30 1101 C 110.43 -2.73803 -2.36038 0
M  V30 1102 O 110.151 -4.00477 -1.77624 0
M  V30 1103 C 111.652 -2.99349 -3.26964 0
M  V30 1104 H 108.872 -0.554383 -0.378022 0
M  V30 1105 H 111.416 -1.9651 -0.566054 0
M  V30 1106 H 109.571 -2.44898 -3.00173 0
M  V30 1107 H 109.985 -4.60678 -2.5075 0
M  V30 1108 H 111.459 -3.79217 -4.01121 0
M  V30 1109 H 111.936 -2.10307 -3.85574 0
M  V30 1110 H 112.542 -3.29774 -2.68569 0
M  V30 1111 N 110.857 0.726932 -1.39834 0
M  V30 1112 C 112.106 1.48214 -1.36805 0
M  V30 1113 C 112.419 1.95576 0.0305291 0
M  V30 1114 O 113.625 2.7088 0.183417 0
M  V30 1115 C 112.081 2.67854 -2.40379 0
M  V30 1116 C 111.689 2.27408 -3.85992 0
M  V30 1117 C 113.433 3.45641 -2.46439 0
M  V30 1118 C 111.34 3.43819 -4.81189 0
M  V30 1119 H 110.27 0.556606 -0.508631 0
M  V30 1120 H 112.921 0.792216 -1.65518 0
M  V30 1121 H 111.303 3.3896 -2.04749 0
M  V30 1122 H 112.477 1.63795 -4.30706 0
M  V30 1123 H 110.792 1.62692 -3.83302 0
M  V30 1124 H 113.389 4.32244 -3.14753 0
M  V30 1125 H 113.732 3.88669 -1.49139 0
M  V30 1126 H 114.265 2.8157 -2.81004 0
M  V30 1127 H 111.004 3.05834 -5.79781 0
M  V30 1128 H 110.524 4.06385 -4.41148 0
M  V30 1129 H 112.203 4.10043 -5.00474 0
M  V30 1130 N 112.336 1.25143 0.95797 0
M  V30 1131 C 113.561 1.12521 1.74223 0
M  V30 1132 C 113.986 -0.317402 1.85403 0
M  V30 1133 O 113.344 -1.2299 1.33204 0
M  V30 1134 C 113.392 1.78062 3.1357 0
M  V30 1135 O 112.496 1.058 3.98598 0
M  V30 1136 H 111.837 0.39304 0.535178 0
M  V30 1137 H 114.367 1.65641 1.201 0
M  V30 1138 H 114.377 1.84213 3.64046 0
M  V30 1139 H 113.052 2.83021 3.04749 0
M  V30 1140 H 111.629 1.07506 3.57067 0
M  V30 1141 N 113.814 -1.1601 1.06675 0
M  V30 1142 C 115.23 -1.38622 0.790948 0
M  V30 1143 C 115.43 -1.92109 -0.607965 0
M  V30 1144 O 114.486 -2.12239 -1.36787 0
M  V30 1145 C 115.799 -2.36347 1.85905 0
M  V30 1146 C 117.347 -2.50023 1.88301 0
M  V30 1147 C 117.822 -3.51033 2.94176 0
M  V30 1148 N 119.313 -3.58563 2.93235 0
M  V30 1149 C 120.048 -4.36521 3.71803 0
M  V30 1150 N 119.544 -5.17869 4.602 0
M  V30 1151 N 121.337 -4.31541 3.60178 0
M  V30 1152 H 113.488 -0.796294 1.96908 0
M  V30 1153 H 115.751 -0.412597 0.853503 0
M  V30 1154 H 115.457 -2.04147 2.86386 0
M  V30 1155 H 115.331 -3.36042 1.71334 0
M  V30 1156 H 117.718 -2.81524 0.884769 0
M  V30 1157 H 117.799 -1.5035 2.06951 0
M  V30 1158 H 117.443 -3.20268 3.94196 0
M  V30 1159 H 117.373 -4.50445 2.72776 0
M  V30 1160 H 119.864 -3.00496 2.29152 0
M  V30 1161 H 120.177 -5.74578 5.16797 0
M  V30 1162 H 118.522 -5.17199 4.64253 0
M  V30 1163 H 121.713 -3.67051 2.90502 0
M  V30 1164 H 121.886 -4.9205 4.21653 0
M  V30 1165 N 115.292 -0.849877 -1.32721 0
M  V30 1166 C 116.222 -0.306308 -2.31482 0
M  V30 1167 C 117.203 0.591952 -1.59468 0
M  V30 1168 O 118.388 0.513199 -1.87296 0
M  V30 1169 C 115.518 0.510204 -3.43532 0
M  V30 1170 C 114.472 -0.293209 -4.26994 0
M  V30 1171 C 113.798 0.647743 -5.30762 0
M  V30 1172 C 115.098 -1.51634 -4.99804 0
M  V30 1173 H 116.792 -1.13153 -2.77195 0
M  V30 1174 H 114.338 -0.545553 -1.33266 0
M  V30 1175 H 116.291 0.900856 -4.11658 0
M  V30 1176 H 115.015 1.36874 -2.96535 0
M  V30 1177 H 113.674 -0.665555 -3.60508 0
M  V30 1178 H 113.322 1.50299 -4.8002 0
M  V30 1179 H 113.022 0.11422 -5.87489 0
M  V30 1180 H 114.546 1.03567 -6.01753 0
M  V30 1181 H 115.96 -1.19824 -5.60638 0
M  V30 1182 H 114.357 -1.98745 -5.66234 0
M  V30 1183 H 115.427 -2.28018 -4.27943 0
M  V30 1184 N 116.77 1.45427 -0.607355 0
M  V30 1185 C 117.68 2.34325 0.113463 0
M  V30 1186 C 118.696 1.51226 0.860617 0
M  V30 1187 O 119.872 1.84029 0.818255 0
M  V30 1188 C 116.937 3.28839 1.09844 0
M  V30 1189 C 115.998 4.27844 0.353271 0
M  V30 1190 C 115.231 5.17842 1.29133 0
M  V30 1191 O 115.454 5.11264 2.52913 0
M  V30 1192 O 114.388 5.96713 0.788523 0
M  V30 1193 H 118.214 2.97364 -0.617094 0
M  V30 1194 H 115.799 1.44807 -0.367619 0
M  V30 1195 H 117.681 3.8708 1.66575 0
M  V30 1196 H 116.356 2.68365 1.81003 0
M  V30 1197 H 115.263 3.7322 -0.256494 0
M  V30 1198 H 116.596 4.91173 -0.317822 0
M  V30 1199 N 118.248 0.346503 1.53744 0
M  V30 1200 C 119.659 -0.136779 1.86198 0
M  V30 1201 C 120.01 -1.49749 1.26766 0
M  V30 1202 O 119.135 -2.08417 0.582355 0
M  V30 1203 C 119.73 -0.254966 3.37839 0
M  V30 1204 C 118.289 -0.682482 3.70161 0
M  V30 1205 C 117.436 0.181981 2.76702 0
M  V30 1206 H 120.387 0.565994 1.48264 0
M  V30 1207 H 120.408 -1.08195 3.64793 0
M  V30 1208 H 119.92 0.735526 3.81066 0
M  V30 1209 H 118.021 -1.68189 3.3248 0
M  V30 1210 H 118.134 -0.470326 4.76786 0
M  V30 1211 H 116.498 -0.34615 2.52337 0
M  V30 1212 H 117.281 1.16966 3.2276 0
M  V30 1213 N 119.726 -1.57421 0.075193 0
M  V30 1214 C 120.636 -2.1642 -0.905511 0
M  V30 1215 C 121.652 -1.12828 -1.32461 0
M  V30 1216 O 122.828 -1.45109 -1.39661 0
M  V30 1217 C 119.893 -2.71693 -2.15369 0
M  V30 1218 C 118.954 -3.90171 -1.79068 0
M  V30 1219 C 118.187 -4.42798 -2.97936 0
M  V30 1220 O 118.41 -3.94416 -4.12058 0
M  V30 1221 O 117.344 -5.34085 -2.77555 0
M  V30 1222 H 121.17 -3.00588 -0.433626 0
M  V30 1223 H 118.755 -1.48664 -0.148067 0
M  V30 1224 H 120.637 -3.07104 -2.88557 0
M  V30 1225 H 119.312 -1.90582 -2.61649 0
M  V30 1226 H 118.219 -3.59606 -1.03122 0
M  V30 1227 H 119.552 -4.72584 -1.37569 0
M  V30 1228 N 121.204 0.198386 -1.56346 0
M  V30 1229 C 122.481 0.944982 -1.71258 0
M  V30 1230 C 122.861 2.0151 -0.629048 0
M  V30 1231 O 122.209 2.25639 0.360473 0
M  V30 1232 C 122.419 1.5344 -3.1346 0
M  V30 1233 C 123.767 2.01778 -3.73591 0
M  V30 1234 O 124.791 1.63288 -3.16568 0
M  V30 1235 O 123.65 2.72594 -4.73661 0
M  V30 1236 H 120.744 0.442939 -0.69838 0
M  V30 1237 H 123.29 0.188342 -1.68652 0
M  V30 1238 H 122.062 0.762869 -3.83792 0
M  V30 1239 H 121.685 2.35596 -3.20282 0
M  V30 1240 N 122.682 1.50554 0.465978 0
M  V30 1241 C 123.929 1.61798 1.21768 0
M  V30 1242 C 124.257 0.320696 1.91838 0
M  V30 1243 O 123.512 -0.693724 1.82992 0
M  V30 1244 C 123.811 2.75152 2.28093 0
M  V30 1245 C 123.477 4.15454 1.75239 0
M  V30 1246 C 122.139 4.53628 1.60546 0
M  V30 1247 C 124.491 5.03121 1.36083 0
M  V30 1248 C 121.819 5.77204 1.05128 0
M  V30 1249 C 124.171 6.27249 0.821056 0
M  V30 1250 C 122.835 6.64221 0.660795 0
M  V30 1251 H 122.105 0.592063 0.445582 0
M  V30 1252 H 124.752 1.84503 0.512927 0
M  V30 1253 H 123.057 2.46556 3.04496 0
M  V30 1254 H 124.754 2.81055 2.86023 0
M  V30 1255 H 121.344 3.85341 1.87644 0
M  V30 1256 H 125.528 4.74257 1.46267 0
M  V30 1257 H 120.784 6.0452 0.91462 0
M  V30 1258 H 124.958 6.94537 0.509018 0
M  V30 1259 H 122.585 7.59854 0.229226 0
M  V30 1260 N 124.16 -0.719506 1.40217 0
M  V30 1261 C 125.123 -1.8153 1.39927 0
M  V30 1262 C 126.123 -1.58095 0.293723 0
M  V30 1263 O 127.313 -1.65209 0.552429 0
M  V30 1264 C 124.445 -3.19561 1.18716 0
M  V30 1265 H 125.638 -1.83186 2.37451 0
M  V30 1266 H 123.191 -0.924746 1.26008 0
M  V30 1267 H 123.926 -3.23557 0.219366 0
M  V30 1268 H 123.711 -3.3797 1.98793 0
M  V30 1269 H 125.201 -3.99598 1.21291 0
M  V30 1270 N 125.638 -1.25649 -0.95132 0
M  V30 1271 C 126.884 -1.10757 -1.69884 0
M  V30 1272 C 127.217 0.350061 -1.91019 0
M  V30 1273 O 126.492 1.25783 -1.48354 0
M  V30 1274 C 126.775 -1.86606 -3.07978 0
M  V30 1275 C 126.628 -3.40217 -2.94232 0
M  V30 1276 C 127.947 -1.65182 -4.07925 0
M  V30 1277 H 125.066 -0.40374 -0.616574 0
M  V30 1278 H 127.708 -1.54521 -1.10558 0
M  V30 1279 H 125.858 -1.49409 -3.58621 0
M  V30 1280 H 127.53 -3.87108 -2.50889 0
M  V30 1281 H 125.773 -3.67759 -2.30078 0
M  V30 1282 H 126.444 -3.88505 -3.92133 0
M  V30 1283 H 128.92 -1.9757 -3.66204 0
M  V30 1284 H 127.796 -2.20683 -5.02583 0
M  V30 1285 H 128.057 -0.593933 -4.38092 0
M  V30 1286 N 127.117 1.15442 -1.07289 0
M  V30 1287 C 128.347 1.89821 -0.815576 0
M  V30 1288 C 128.755 1.7823 0.634867 0
M  V30 1289 O 128.098 1.13152 1.44715 0
M  V30 1290 C 128.16 3.40817 -1.14385 0
M  V30 1291 C 127.824 3.76193 -2.59476 0
M  V30 1292 C 128.821 3.77269 -3.57721 0
M  V30 1293 C 126.506 4.0652 -2.95037 0
M  V30 1294 C 128.5 4.08176 -4.89562 0
M  V30 1295 C 126.187 4.37092 -4.27076 0
M  V30 1296 C 127.185 4.37902 -5.24148 0
M  V30 1297 O 126.873 4.67741 -6.53815 0
M  V30 1298 H 126.605 0.608465 -0.294528 0
M  V30 1299 H 129.159 1.472 -1.43252 0
M  V30 1300 H 127.389 3.83835 -0.469865 0
M  V30 1301 H 129.078 3.96485 -0.869179 0
M  V30 1302 H 129.844 3.5394 -3.3159 0
M  V30 1303 H 125.723 4.05049 -2.20128 0
M  V30 1304 H 129.267 4.08723 -5.65324 0
M  V30 1305 H 125.164 4.59889 -4.5296 0
M  V30 1306 H 125.932 4.85509 -6.58957 0
M  V30 1307 N 128.595 0.856903 1.32268 0
M  V30 1308 C 129.825 0.47475 2.01071 0
M  V30 1309 C 130.233 -0.933746 1.64553 0
M  V30 1310 O 129.576 -1.62114 0.863989 0
M  V30 1311 C 129.638 0.536746 3.55471 0
M  V30 1312 C 129.302 1.90453 4.15423 0
M  V30 1313 C 130.299 2.87029 4.33486 0
M  V30 1314 C 127.984 2.20229 4.51447 0
M  V30 1315 C 129.978 4.11532 4.86744 0
M  V30 1316 C 127.665 3.44984 5.0441 0
M  V30 1317 C 128.663 4.40452 5.22007 0
M  V30 1318 O 128.351 5.62998 5.73837 0
M  V30 1319 H 128.083 0.184778 0.650256 0
M  V30 1320 H 130.637 1.15615 1.69771 0
M  V30 1321 H 128.867 -0.20152 3.86175 0
M  V30 1322 H 130.556 0.169875 4.05544 0
M  V30 1323 H 131.322 2.6533 4.05986 0
M  V30 1324 H 127.201 1.46705 4.37034 0
M  V30 1325 H 130.745 4.86056 5.00395 0
M  V30 1326 H 126.642 3.66532 5.31342 0
M  V30 1327 H 127.41 5.64987 5.92226 0
M  V30 1328 N 130.073 -1.45103 0.615059 0
M  V30 1329 C 131.313 -2.04069 0.116282 0
M  V30 1330 C 131.677 -1.4721 -1.2326 0
M  V30 1331 O 132.878 -1.97577 -1.82255 0
M  V30 1332 C 131.149 -3.57298 0.085482 0
M  V30 1333 S 132.708 -4.37394 -0.351015 0
M  V30 1334 H 129.526 -0.709006 0.0532183 0
M  V30 1335 H 132.128 -1.77709 0.81484 0
M  V30 1336 H 130.832 -3.9619 1.0706 0
M  V30 1337 H 130.363 -3.88244 -0.634835 0
M  V30 1338 H 132.378 -4.69734 -1.59889 0
M  V30 1339 N 131.551 -0.354651 -1.53558 0
M  V30 1340 C 132.483 0.5315 -2.22952 0
M  V30 1341 C 133.496 1.05503 -1.23988 0
M  V30 1342 O 134.685 0.963279 -1.50277 0
M  V30 1343 C 131.785 1.74538 -2.90499 0
M  V30 1344 C 130.958 1.35524 -4.15875 0
M  V30 1345 C 130.017 2.42999 -4.66731 0
M  V30 1346 O 129.043 2.05844 -5.30676 0
M  V30 1347 N 130.245 3.74423 -4.43608 0
M  V30 1348 H 133.01 -0.0628615 -2.99634 0
M  V30 1349 H 130.571 -0.179302 -1.60904 0
M  V30 1350 H 132.563 2.45892 -3.21433 0
M  V30 1351 H 131.133 2.24686 -2.17336 0
M  V30 1352 H 130.353 0.471998 -3.91364 0
M  V30 1353 H 131.641 1.07071 -4.97406 0
M  V30 1354 H 131.039 4.07391 -3.92491 0
M  V30 1355 H 129.596 4.41913 -4.7912 0
M  V30 1356 N 133.029 1.57378 -0.0835403 0
M  V30 1357 C 133.961 2.10389 0.909338 0
M  V30 1358 C 134.974 1.03858 1.25369 0
M  V30 1359 O 136.163 1.31338 1.20882 0
M  V30 1360 C 133.263 2.55908 2.2218 0
M  V30 1361 C 132.436 3.86145 2.05453 0
M  V30 1362 C 131.495 4.17633 3.20108 0
M  V30 1363 O 130.521 4.87043 2.94581 0
M  V30 1364 N 131.723 3.72113 4.45547 0
M  V30 1365 H 134.488 2.962 0.456657 0
M  V30 1366 H 132.049 1.61579 0.101877 0
M  V30 1367 H 134.041 2.74027 2.97811 0
M  V30 1368 H 132.611 1.75171 2.58909 0
M  V30 1369 H 131.831 3.7729 1.1422 0
M  V30 1370 H 133.119 4.7137 1.91541 0
M  V30 1371 H 132.517 3.16062 4.69171 0
M  V30 1372 H 131.074 3.95409 5.18165 0
M  V30 1373 N 134.507 -0.190092 1.56449 0
M  V30 1374 C 135.737 -0.92443 1.84764 0
M  V30 1375 C 136.145 -1.77146 0.664529 0
M  V30 1376 O 135.488 -1.79812 -0.375957 0
M  V30 1377 C 135.55 -1.86651 3.07248 0
M  V30 1378 C 135.214 -1.20094 4.40938 0
M  V30 1379 C 136.211 -0.575445 5.16706 0
M  V30 1380 C 133.896 -1.2033 4.87674 0
M  V30 1381 C 135.89 0.0388111 6.37388 0
M  V30 1382 C 133.577 -0.585214 6.08291 0
M  V30 1383 C 134.575 0.0347578 6.82991 0
M  V30 1384 O 134.263 0.643147 8.01323 0
M  V30 1385 H 133.995 -0.274974 0.617548 0
M  V30 1386 H 136.549 -0.200788 2.04416 0
M  V30 1387 H 134.779 -2.62998 2.83494 0
M  V30 1388 H 136.468 -2.46907 3.22167 0
M  V30 1389 H 137.234 -0.565728 4.81689 0
M  V30 1390 H 133.113 -1.67526 4.29484 0
M  V30 1391 H 136.657 0.523329 6.95634 0
M  V30 1392 H 132.554 -0.592451 6.42775 0
M  V30 1393 H 133.322 0.540545 8.16713 0
M  V30 1394 N 135.985 -1.50799 -0.457987 0
M  V30 1395 C 137.233 -1.62121 -1.2067 0
M  V30 1396 C 137.554 -0.329793 -1.92191 0
M  V30 1397 O 136.824 0.653409 -1.84682 0
M  V30 1398 H 135.404 -0.597441 -0.448411 0
M  V30 1399 H 138.066 -1.87637 -0.527096 0
M  V30 1400 H 137.162 -2.43882 -1.94751 0
M  V30 1401 N 137.463 0.71206 -1.40597 0
M  V30 1402 C 138.688 1.50617 -1.42581 0
M  V30 1403 C 139.113 1.88079 -0.0282102 0
M  V30 1404 O 138.471 1.53511 0.964579 0
M  V30 1405 C 138.519 2.7557 -2.3258 0
M  V30 1406 O 137.623 3.72414 -1.77148 0
M  V30 1407 H 136.964 0.453966 -0.484573 0
M  V30 1408 H 139.494 0.876649 -1.84868 0
M  V30 1409 H 139.504 3.2406 -2.47889 0
M  V30 1410 H 138.179 2.47639 -3.34138 0
M  V30 1411 H 136.756 3.31276 -1.71204 0
M  V30 1412 N 138.941 1.26152 0.944643 0
M  V30 1413 C 140.166 1.14363 1.7302 0
M  V30 1414 C 140.591 -0.29772 1.85729 0
M  V30 1415 O 139.949 -1.2157 1.34501 0
M  V30 1416 C 139.997 1.81378 3.11664 0
M  V30 1417 O 139.101 1.10022 3.97453 0
M  V30 1418 H 138.442 0.398694 0.53098 0
M  V30 1419 H 140.972 1.66906 1.18337 0
M  V30 1420 H 140.982 1.88064 3.62072 0
M  V30 1421 H 139.657 2.86237 3.0173 0
M  V30 1422 H 138.234 1.11287 3.55907 0
M  V30 1423 N 140.419 -1.14872 1.07899 0
M  V30 1424 C 141.83 -1.67367 0.827363 0
M  V30 1425 C 142.181 -1.85236 -0.646693 0
M  V30 1426 O 141.306 -1.55974 -1.50004 0
M  V30 1427 C 141.901 -3.04016 1.49532 0
M  V30 1428 C 140.46 -3.53566 1.29106 0
M  V30 1429 C 139.607 -2.29161 1.56143 0
M  V30 1430 H 142.558 -0.990083 1.24028 0
M  V30 1431 H 142.579 -3.69219 0.919643 0
M  V30 1432 H 142.091 -2.90978 2.56814 0
M  V30 1433 H 140.192 -3.71835 0.238713 0
M  V30 1434 H 140.305 -4.34661 2.01511 0
M  V30 1435 H 138.669 -2.34978 0.982717 0
M  V30 1436 H 139.452 -2.18705 2.64619 0
M  V30 1437 N 141.898 -0.863906 -1.31812 0
M  V30 1438 C 143.314 -0.555004 -1.49639 0
M  V30 1439 C 143.514 0.912266 -1.79666 0
M  V30 1440 O 142.57 1.69479 -1.87171 0
M  V30 1441 C 143.883 -1.44998 -2.63431 0
M  V30 1442 C 145.431 -1.45138 -2.77316 0
M  V30 1443 C 145.906 -2.33179 -3.94197 0
M  V30 1444 N 147.397 -2.31025 -4.01474 0
M  V30 1445 C 148.132 -2.95871 -4.9117 0
M  V30 1446 N 147.628 -3.69863 -5.8581 0
M  V30 1447 N 149.421 -2.85211 -4.84367 0
M  V30 1448 H 141.572 -1.81339 -1.10589 0
M  V30 1449 H 143.835 -0.77505 -0.545895 0
M  V30 1450 H 143.541 -2.49377 -2.48 0
M  V30 1451 H 143.415 -1.14409 -3.59431 0
M  V30 1452 H 145.802 -0.415201 -2.92164 0
M  V30 1453 H 145.883 -1.79747 -1.82001 0
M  V30 1454 H 145.527 -3.3687 -3.80107 0
M  V30 1455 H 145.457 -1.95897 -4.88807 0
M  V30 1456 H 147.948 -1.77238 -3.33759 0
M  V30 1457 H 148.261 -4.16486 -6.50968 0
M  V30 1458 H 146.606 -3.73971 -5.85808 0
M  V30 1459 H 149.797 -2.26948 -4.09405 0
M  V30 1460 H 149.97 -3.36027 -5.54066 0
M  V30 1461 N 143.376 1.44774 -0.622745 0
M  V30 1462 C 144.601 2.06999 -0.128968 0
M  V30 1463 C 145.026 1.4617 1.1839 0
M  V30 1464 O 144.384 0.560007 1.72434 0
M  V30 1465 C 144.432 3.60595 -0.0188351 0
M  V30 1466 O 143.536 3.99398 1.02739 0
M  V30 1467 H 142.877 0.659047 -0.0809544 0
M  V30 1468 H 145.407 1.85784 -0.85705 0
M  V30 1469 H 145.417 4.07627 0.174476 0
M  V30 1470 H 144.092 4.04252 -0.977384 0
M  V30 1471 H 142.669 3.64011 0.809326 0
M  V30 1472 N 144.854 0.36279 1.53368 0
M  V30 1473 C 146.101 -0.227776 2.01215 0
M  V30 1474 C 146.429 -1.49003 1.25014 0
M  V30 1475 O 145.684 -1.92876 0.331236 0
M  V30 1476 C 145.983 -0.568417 3.52851 0
M  V30 1477 C 145.649 0.59918 4.46901 0
M  V30 1478 C 144.311 0.919559 4.72332 0
M  V30 1479 C 146.663 1.38156 5.02556 0
M  V30 1480 C 143.991 2.02434 5.5067 0
M  V30 1481 C 146.343 2.47674 5.821 0
M  V30 1482 C 145.007 2.8025 6.05819 0
M  V30 1483 H 144.277 -0.083349 0.736297 0
M  V30 1484 H 146.924 0.494677 1.85001 0
M  V30 1485 H 145.229 -1.37185 3.66998 0
M  V30 1486 H 146.926 -1.03756 3.87344 0
M  V30 1487 H 143.516 0.339437 4.27254 0
M  V30 1488 H 147.7 1.14729 4.82857 0
M  V30 1489 H 142.956 2.28075 5.67267 0
M  V30 1490 H 147.13 3.08716 6.24234 0
M  V30 1491 H 144.757 3.65979 6.66306 0
M  V30 1492 N 146.332 -1.57332 0.0918853 0
M  V30 1493 C 147.58 -1.93853 -0.571446 0
M  V30 1494 C 147.901 -0.974212 -1.6892 0
M  V30 1495 O 147.171 -0.0257254 -1.95883 0
M  V30 1496 H 145.751 -0.715666 -0.214082 0
M  V30 1497 H 148.413 -1.94287 0.154464 0
M  V30 1498 H 147.509 -2.96191 -0.983729 0
M  V30 1499 N 147.81 0.181792 -1.56548 0
M  V30 1500 C 148.742 1.24956 -1.92142 0
M  V30 1501 C 149.755 1.41022 -0.813422 0
M  V30 1502 O 150.944 1.41212 -1.09186 0
M  V30 1503 C 148.044 2.61981 -2.14987 0
M  V30 1504 C 147.217 2.6735 -3.46183 0
M  V30 1505 C 146.276 3.85664 -3.5798 0
M  V30 1506 O 145.302 3.72148 -4.30691 0
M  V30 1507 N 146.504 5.01683 -2.92053 0
M  V30 1508 H 149.269 0.947329 -2.84334 0
M  V30 1509 H 146.83 0.371629 -1.57577 0
M  V30 1510 H 148.822 3.3958 -2.20154 0
M  V30 1511 H 147.392 2.84637 -1.2923 0
M  V30 1512 H 146.612 1.75925 -3.52766 0
M  V30 1513 H 147.9 2.67939 -4.32534 0
M  V30 1514 H 147.298 5.15564 -2.32832 0
M  V30 1515 H 145.855 5.77181 -3.0283 0
M  V30 1516 N 149.288 1.51039 0.449983 0
M  V30 1517 C 150.536 1.62759 1.19808 0
M  V30 1518 C 150.857 0.339981 1.92013 0
M  V30 1519 O 150.127 -0.643606 1.85026 0
M  V30 1520 H 148.707 0.599811 0.445237 0
M  V30 1521 H 151.369 1.87914 0.517138 0
M  V30 1522 H 150.465 2.44911 1.93455 0
M  V30 1523 N 150.766 -0.704594 1.40972 0
M  V30 1524 C 151.994 -1.49354 1.43182 0
M  V30 1525 C 152.409 -1.88768 0.0345508 0
M  V30 1526 O 151.766 -1.56184 -0.944081 0
M  V30 1527 C 151.817 -2.76187 2.33244 0
M  V30 1528 O 151.538 -2.38436 3.67532 0
M  V30 1529 C 153.039 -3.7 2.44162 0
M  V30 1530 H 150.259 -0.460559 0.487982 0
M  V30 1531 H 152.803 -0.868261 1.85153 0
M  V30 1532 H 150.958 -3.34974 1.94606 0
M  V30 1533 H 151.372 -3.20126 4.15475 0
M  V30 1534 H 152.846 -4.55803 3.11364 0
M  V30 1535 H 153.323 -4.13867 1.47006 0
M  V30 1536 H 153.929 -3.17121 2.83398 0
M  V30 1537 N 152.244 -1.26651 -0.937939 0
M  V30 1538 C 153.191 -1.0849 -2.03712 0
M  V30 1539 C 154.161 0.011033 -1.66096 0
M  V30 1540 O 155.346 -0.149353 -1.90215 0
M  V30 1541 C 152.486 -0.72735 -3.37348 0
M  V30 1542 C 151.599 -1.89986 -3.87981 0
M  V30 1543 C 150.734 -1.48513 -5.10017 0
M  V30 1544 C 149.773 -2.62575 -5.5292 0
M  V30 1545 N 148.91 -2.21762 -6.66158 0
M  V30 1546 H 153.75 -2.02551 -2.18579 0
M  V30 1547 H 151.287 -1.00844 -1.07093 0
M  V30 1548 H 153.245 -0.50092 -4.14182 0
M  V30 1549 H 151.875 0.176298 -3.22318 0
M  V30 1550 H 150.927 -2.23913 -3.07518 0
M  V30 1551 H 152.239 -2.75586 -4.15757 0
M  V30 1552 H 151.393 -1.21934 -5.94321 0
M  V30 1553 H 150.132 -0.60009 -4.83994 0
M  V30 1554 H 149.137 -2.8988 -4.67172 0
M  V30 1555 H 150.362 -3.51685 -5.80943 0
M  V30 1556 H 148.308 -1.35696 -6.41812 0
M  V30 1557 H 148.225 -3.00903 -6.93537 0
M  V30 1558 H 149.493 -1.98403 -7.53828 0
M  V30 1559 N 153.722 1.14298 -1.08507 0
M  V30 1560 C 154.968 1.85633 -0.816581 0
M  V30 1561 C 155.301 1.82784 0.656021 0
M  V30 1562 O 154.576 1.25926 1.48233 0
M  V30 1563 C 154.859 3.34223 -1.34041 0
M  V30 1564 C 154.712 3.45639 -2.87843 0
M  V30 1565 C 156.031 4.29356 -0.9665 0
M  V30 1566 H 153.15 0.67402 -0.298104 0
M  V30 1567 H 155.792 1.34214 -1.34487 0
M  V30 1568 H 153.942 3.78144 -0.89104 0
M  V30 1569 H 155.614 3.10498 -3.41158 0
M  V30 1570 H 153.857 2.86817 -3.25451 0
M  V30 1571 H 154.528 4.50089 -3.19569 0
M  V30 1572 H 157.004 3.93457 -1.35391 0
M  V30 1573 H 155.88 5.3178 -1.3602 0
M  V30 1574 H 156.141 4.41919 0.126362 0
M  V30 1575 N 155.201 0.870884 1.31352 0
M  V30 1576 C 156.111 0.330783 2.32256 0
M  V30 1577 C 157.127 -0.559767 1.6475 0
M  V30 1578 O 158.303 -0.456263 1.96164 0
M  V30 1579 C 155.368 -0.458137 3.4366 0
M  V30 1580 C 154.429 0.460482 4.26823 0
M  V30 1581 C 153.662 -0.290881 5.32907 0
M  V30 1582 O 153.885 -1.51885 5.49806 0
M  V30 1583 O 152.819 0.351732 6.00871 0
M  V30 1584 H 156.645 1.16718 2.80376 0
M  V30 1585 H 154.23 0.634285 1.35267 0
M  V30 1586 H 156.112 -0.905343 4.1156 0
M  V30 1587 H 154.787 -1.27106 2.97701 0
M  V30 1588 H 153.694 0.956207 3.61673 0
M  V30 1589 H 155.027 1.23903 4.7635 0
M  V30 1590 N 156.679 -1.44442 0.630414 0
M  V30 1591 C 157.928 -2.01267 0.132073 0
M  V30 1592 C 158.241 -1.50172 -1.25331 0
M  V30 1593 O 159.447 -1.9912 -1.84562 0
M  V30 1594 C 157.903 -3.59422 0.185362 0
M  V30 1595 C 157.511 -4.19514 1.57201 0
M  V30 1596 C 159.255 -4.23724 -0.256553 0
M  V30 1597 C 157.162 -5.69891 1.58045 0
M  V30 1598 H 156.092 -0.752619 0.0456092 0
M  V30 1599 H 158.743 -1.65666 0.789106 0
M  V30 1600 H 157.125 -3.92318 -0.538759 0
M  V30 1601 H 158.299 -3.98156 2.31966 0
M  V30 1602 H 156.614 -3.67496 1.95795 0
M  V30 1603 H 159.211 -5.34019 -0.269767 0
M  V30 1604 H 159.554 -3.96013 -1.28372 0
M  V30 1605 H 160.087 -3.95629 0.41505 0
M  V30 1606 H 156.826 -6.02336 2.58597 0
M  V30 1607 H 156.346 -5.93373 0.875725 0
M  V30 1608 H 158.025 -6.33515 1.31408 0
M  V30 1609 N 158.157 -0.370918 -1.53173 0
M  V30 1610 C 159.104 0.473035 -2.259 0
M  V30 1611 C 160.074 1.07311 -1.26781 0
M  V30 1612 O 161.259 1.1046 -1.55574 0
M  V30 1613 C 158.399 1.60405 -3.05556 0
M  V30 1614 C 157.512 1.02863 -4.19575 0
M  V30 1615 C 156.647 2.12918 -4.86661 0
M  V30 1616 C 155.686 1.52869 -5.92704 0
M  V30 1617 N 154.823 2.56779 -6.53459 0
M  V30 1618 H 159.663 -0.153649 -2.97604 0
M  V30 1619 H 157.2 -0.0875946 -1.46839 0
M  V30 1620 H 159.158 2.27034 -3.50016 0
M  V30 1621 H 157.788 2.20131 -2.36097 0
M  V30 1622 H 156.84 0.252465 -3.79561 0
M  V30 1623 H 158.152 0.549642 -4.95762 0
M  V30 1624 H 157.306 2.87356 -5.34333 0
M  V30 1625 H 156.045 2.6417 -4.09958 0
M  V30 1626 H 155.05 0.769479 -5.44389 0
M  V30 1627 H 156.275 1.02435 -6.7133 0
M  V30 1628 H 154.221 3.07235 -5.79606 0
M  V30 1629 H 154.138 2.13583 -7.25202 0
M  V30 1630 H 155.406 3.30903 -7.05779 0
M  V30 1631 N 159.635 1.57281 -0.100228 0
M  V30 1632 C 161.051 1.57527 0.256416 0
M  V30 1633 C 161.251 1.11173 1.68056 0
M  V30 1634 O 160.307 0.79053 2.39806 0
M  V30 1635 C 161.62 3.00673 0.0401747 0
M  V30 1636 C 163.168 3.12815 0.107528 0
M  V30 1637 C 163.643 4.57929 -0.0807834 0
M  V30 1638 N 165.134 4.63193 -0.0261207 0
M  V30 1639 C 165.869 5.73212 -0.146999 0
M  V30 1640 N 165.365 6.92047 -0.322999 0
M  V30 1641 N 167.158 5.62031 -0.0879044 0
M  V30 1642 H 159.309 1.85718 -1.03065 0
M  V30 1643 H 161.572 0.857446 -0.404339 0
M  V30 1644 H 161.278 3.38804 -0.943649 0
M  V30 1645 H 161.152 3.69042 0.780262 0
M  V30 1646 H 163.539 2.74554 1.08186 0
M  V30 1647 H 163.62 2.47028 -0.664134 0
M  V30 1648 H 163.264 4.96886 -1.05201 0
M  V30 1649 H 163.194 5.21783 0.710635 0
M  V30 1650 H 165.685 3.77748 0.107161 0
M  V30 1651 H 165.998 7.7173 -0.406608 0
M  V30 1652 H 164.343 6.94074 -0.358733 0
M  V30 1653 H 167.534 4.68075 0.048498 0
M  V30 1654 H 167.707 6.47734 -0.185557 0
M  V30 1655 O 161.152 -0.0396676 1.61451 0
M  V30 1656 H 161.843 -0.66158 1.82052 0
M  V30 END ATOM
M  V30 BEGIN BOND
M  V30 END BOND
M  V30 END CTAB
M  END
$$$$
