drugbank_target|P01615 Immunoglobulin kappa variable 2D-28 (DB08562)
 OpenBabel12092120513D

  0  0  0     0  0            999 V3000
M  V30 BEGIN CTAB
M  V30 COUNTS 1810 1831 0 0 0
M  V30 BEGIN ATOM
M  V30 1 H -0.908 1.98254 -0.117106 0
M  V30 2 N 0 1.576 0 0
M  V30 3 C 0.933 2.03868 1.02534 0
M  V30 4 C 1.911 0.928543 1.3348 0
M  V30 5 O 3.095 1.19667 1.45644 0
M  V30 6 C 0.222 2.43627 2.35294 0
M  V30 7 C -0.732 3.65373 2.2001 0
M  V30 8 S 0.101 5.13292 1.52614 0
M  V30 9 C 1.257 5.56322 2.86805 0
M  V30 10 H 1.49 2.90518 0.631377 0
M  V30 11 H -0.977 1.52953 0.210867 0
M  V30 12 H 0.981 2.67203 3.11629 0
M  V30 13 H -0.358 1.57376 2.7183 0
M  V30 14 H -1.165 3.90944 3.18086 0
M  V30 15 H -1.563 3.418 1.51819 0
M  V30 16 H 0.729 5.58782 3.83104 0
M  V30 17 H 1.672 6.56266 2.65933 0
M  V30 18 H 2.08 4.83886 2.90714 0
M  V30 19 N 1.4781 -0.272755 1.55222 0
M  V30 20 C 2.8941 -0.619959 1.47067 0
M  V30 21 C 3.0941 -1.895 0.684978 0
M  V30 22 O 2.1501 -2.51675 0.203931 0
M  V30 23 C 3.4631 -0.746693 2.91282 0
M  V30 24 C 5.0111 -0.840731 3.01497 0
M  V30 25 C 5.4861 -0.99924 4.46967 0
M  V30 26 N 6.9771 -1.06476 4.50796 0
M  V30 27 C 7.7121 -1.20621 5.6057 0
M  V30 28 N 7.2081 -1.31483 6.80209 0
M  V30 29 N 9.0011 -1.23733 5.48312 0
M  V30 30 H 1.1521 0.564606 2.04758 0
M  V30 31 H 3.4151 0.191177 0.928523 0
M  V30 32 H 3.1211 0.119753 3.51496 0
M  V30 33 H 2.9951 -1.6269 3.40311 0
M  V30 34 H 5.3821 -1.69764 2.41379 0
M  V30 35 H 5.4631 0.0640874 2.5572 0
M  V30 36 H 5.1071 -0.146984 5.07687 0
M  V30 37 H 5.0371 -1.91871 4.90401 0
M  V30 38 H 7.5281 -0.993196 3.64615 0
M  V30 39 H 7.8411 -1.42111 7.59621 0
M  V30 40 H 6.1861 -1.28487 6.8302 0
M  V30 41 H 9.3771 -1.14877 4.53785 0
M  V30 42 H 9.5501 -1.34412 6.33906 0
M  V30 43 N 2.9562 -1.48159 -0.537278 0
M  V30 44 C 3.8862 -1.65029 -1.6519 0
M  V30 45 C 4.8672 -0.499281 -1.62607 0
M  V30 46 O 6.0522 -0.730972 -1.79918 0
M  V30 47 C 3.1822 -1.68303 -3.03795 0
M  V30 48 C 2.1362 -2.8283 -3.21234 0
M  V30 49 C 1.4622 -2.71189 -4.60826 0
M  V30 50 C 2.7622 -4.24211 -3.04701 0
M  V30 51 H 4.4562 -2.58341 -1.51328 0
M  V30 52 H 2.0022 -1.24325 -0.726585 0
M  V30 53 H 3.9552 -1.78693 -3.81637 0
M  V30 54 H 2.6792 -0.715635 -3.18663 0
M  V30 55 H 1.3382 -2.71983 -2.45807 0
M  V30 56 H 0.9862 -1.72435 -4.7252 0
M  V30 57 H 0.6862 -3.48035 -4.7344 0
M  V30 58 H 2.2102 -2.83537 -5.40777 0
M  V30 59 H 3.6242 -4.3593 -3.72341 0
M  V30 60 H 2.0212 -5.01998 -3.28813 0
M  V30 61 H 3.0912 -4.41184 -2.01209 0
M  V30 62 N 4.4343 0.785586 -1.36625 0
M  V30 63 C 5.8453 1.36101 -1.27803 0
M  V30 64 C 6.1963 1.96035 0.0804875 0
M  V30 65 O 5.3213 1.92834 0.982042 0
M  V30 66 C 5.9163 2.47442 -2.31426 0
M  V30 67 C 4.4753 3.00789 -2.26281 0
M  V30 68 C 3.6223 1.73896 -2.15999 0
M  V30 69 H 6.5733 0.586928 -1.47448 0
M  V30 70 H 6.5943 3.2656 -1.95291 0
M  V30 71 H 6.1063 2.03791 -3.30289 0
M  V30 72 H 4.2073 3.48851 -1.30896 0
M  V30 73 H 4.3203 3.57343 -3.19128 0
M  V30 74 H 2.6843 1.9628 -1.62316 0
M  V30 75 H 3.4673 1.32368 -3.16755 0
M  V30 76 N 5.9124 1.20967 1.01018 0
M  V30 77 C 6.8754 0.965918 2.07853 0
M  V30 78 C 7.8754 -0.0610545 1.60684 0
M  V30 79 O 9.0654 0.175681 1.73312 0
M  V30 80 C 6.1974 0.455513 3.37843 0
M  V30 81 H 7.3904 1.91365 2.3091 0
M  V30 82 H 4.9434 1.02594 1.17916 0
M  V30 83 H 5.6784 -0.497381 3.20463 0
M  V30 84 H 5.4634 1.19622 3.73407 0
M  V30 85 H 6.9534 0.304667 4.16487 0
M  V30 86 N 7.3905 -1.2043 1.01659 0
M  V30 87 C 8.3225 -2.22626 0.544988 0
M  V30 88 C 9.3355 -1.58479 -0.372609 0
M  V30 89 O 10.5245 -1.77679 -0.170958 0
M  V30 90 C 7.6245 -3.38141 -0.22663 0
M  V30 91 C 6.7975 -4.31877 0.692876 0
M  V30 92 C 5.8565 -5.26191 -0.0311616 0
M  V30 93 O 4.8825 -5.6612 0.591343 0
M  V30 94 N 6.0845 -5.65618 -1.30601 0
M  V30 95 H 8.8495 -2.63716 1.42388 0
M  V30 96 H 6.4105 -1.34971 0.894116 0
M  V30 97 H 8.4025 -3.98239 -0.72024 0
M  V30 98 H 6.9725 -2.95943 -1.00681 0
M  V30 99 H 6.1925 -3.69746 1.36679 0
M  V30 100 H 7.4805 -4.91426 1.31824 0
M  V30 101 H 6.8785 -5.3519 -1.83269 0
M  V30 102 H 5.4355 -6.28025 -1.74435 0
M  V30 103 N 8.8686 -0.792821 -1.36206 0
M  V30 104 C 9.7986 -0.207853 -2.32573 0
M  V30 105 C 10.7796 0.659055 -1.56813 0
M  V30 106 O 11.9646 0.592176 -1.84951 0
M  V30 107 C 9.0946 0.655449 -3.41059 0
M  V30 108 C 8.0486 -0.111842 -4.27854 0
M  V30 109 C 7.3746 0.872274 -5.27537 0
M  V30 110 C 8.6746 -1.30299 -5.05786 0
M  V30 111 H 10.3686 -1.01294 -2.81744 0
M  V30 112 H 7.9146 -0.48854 -1.3546 0
M  V30 113 H 9.8676 1.07464 -4.07467 0
M  V30 114 H 8.5916 1.49328 -2.90463 0
M  V30 115 H 7.2506 -0.512053 -3.63006 0
M  V30 116 H 6.8986 1.70523 -4.73214 0
M  V30 117 H 6.5986 0.363291 -5.86476 0
M  V30 118 H 8.1226 1.28996 -5.96818 0
M  V30 119 H 9.5366 -0.959379 -5.65216 0
M  V30 120 H 7.9336 -1.7455 -5.74154 0
M  V30 121 H 9.0036 -2.09663 -4.37229 0
M  V30 122 N 10.3467 1.47872 -0.545128 0
M  V30 123 C 11.2767 2.32661 0.197793 0
M  V30 124 C 12.2577 1.43041 0.920504 0
M  V30 125 O 13.4427 1.71912 0.90333 0
M  V30 126 C 10.5727 3.24569 1.23582 0
M  V30 127 C 9.5267 4.23333 0.630323 0
M  V30 128 C 8.8527 5.0448 1.77211 0
M  V30 129 C 10.1527 5.20704 -0.407974 0
M  V30 130 H 11.8467 2.95024 -0.510045 0
M  V30 131 H 9.3927 1.4187 -0.246731 0
M  V30 132 H 11.3457 3.8272 1.76362 0
M  V30 133 H 10.0697 2.60236 1.97344 0
M  V30 134 H 8.7287 3.6639 0.123922 0
M  V30 135 H 8.3767 4.36561 2.49847 0
M  V30 136 H 8.0767 5.71339 1.37281 0
M  V30 137 H 9.6007 5.65487 2.3034 0
M  V30 138 H 11.0147 5.7329 0.033305 0
M  V30 139 H 9.4117 5.95699 -0.725486 0
M  V30 140 H 10.4817 4.66917 -1.30828 0
M  V30 141 N 11.8248 0.280983 1.55075 0
M  V30 142 C 13.0728 -0.333455 1.9933 0
M  V30 143 C 13.3938 -1.55937 1.17085 0
M  V30 144 O 12.6638 -1.94143 0.261805 0
M  V30 145 H 11.2438 -0.126197 0.736263 0
M  V30 146 H 13.9058 0.387678 1.91005 0
M  V30 147 H 13.0018 -0.619292 3.05894 0
M  V30 148 N 13.3029 -1.57598 0.00835791 0
M  V30 149 C 14.2329 -2.1198 -0.979113 0
M  V30 150 C 15.2139 -1.03091 -1.35301 0
M  V30 151 O 16.3989 -1.30818 -1.43528 0
M  V30 152 C 13.5289 -2.62995 -2.26828 0
M  V30 153 C 12.4829 -3.76485 -2.03576 0
M  V30 154 C 11.8089 -4.13846 -3.38579 0
M  V30 155 C 13.1089 -5.0342 -1.39161 0
M  V30 156 H 14.8029 -2.94738 -0.526281 0
M  V30 157 H 12.3489 -1.41783 -0.251704 0
M  V30 158 H 14.3019 -2.99669 -2.96271 0
M  V30 159 H 13.0259 -1.7737 -2.7424 0
M  V30 160 H 11.6849 -3.40217 -1.36557 0
M  V30 161 H 11.3329 -3.25232 -3.83709 0
M  V30 162 H 11.0329 -4.90312 -3.23834 0
M  V30 163 H 12.5569 -4.53086 -4.09323 0
M  V30 164 H 13.9709 -5.37812 -1.98573 0
M  V30 165 H 12.3679 -5.84746 -1.34878 0
M  V30 166 H 13.4379 -4.83548 -0.361868 0
M  V30 167 N 14.781 0.264519 -1.55364 0
M  V30 168 C 15.711 1.33121 -1.91836 0
M  V30 169 C 16.692 1.51101 -0.781192 0
M  V30 170 O 17.877 1.64003 -1.04003 0
M  V30 171 C 15.007 2.68921 -2.19769 0
M  V30 172 C 13.961 2.65661 -3.35571 0
M  V30 173 C 13.287 4.05093 -3.49004 0
M  V30 174 C 14.587 2.24187 -4.71739 0
M  V30 175 H 16.281 1.02844 -2.81182 0
M  V30 176 H 13.827 0.493286 -1.35287 0
M  V30 177 H 15.78 3.43663 -2.43872 0
M  V30 178 H 14.504 3.00799 -1.27231 0
M  V30 179 H 13.163 1.93377 -3.1145 0
M  V30 180 H 12.811 4.34206 -2.53917 0
M  V30 181 H 12.511 4.03804 -4.26868 0
M  V30 182 H 14.035 4.81561 -3.75408 0
M  V30 183 H 15.449 2.88654 -4.9533 0
M  V30 184 H 13.846 2.34044 -5.52579 0
M  V30 185 H 14.916 1.19327 -4.69988 0
M  V30 186 N 16.2591 1.48442 0.529413 0
M  V30 187 C 17.1921 1.57577 1.65059 0
M  V30 188 C 18.1701 0.426198 1.56915 0
M  V30 189 O 19.3541 0.637877 1.77379 0
M  V30 190 C 16.4811 1.5043 3.03461 0
M  V30 191 C 15.5271 2.70235 3.29962 0
M  V30 192 S 16.3601 4.32198 3.16172 0
M  V30 193 C 17.5161 4.2765 4.57019 0
M  V30 194 H 17.7491 2.52427 1.5706 0
M  V30 195 H 15.2821 1.36982 0.712417 0
M  V30 196 H 17.2401 1.46992 3.8328 0
M  V30 197 H 15.9011 0.569167 3.089 0
M  V30 198 H 15.0941 2.61374 4.30929 0
M  V30 199 H 14.6961 2.70938 2.57815 0
M  V30 200 H 16.9881 3.97618 5.48549 0
M  V30 201 H 17.9311 5.28797 4.70934 0
M  V30 202 H 18.3391 3.5811 4.36368 0
M  V30 203 N 17.7372 -0.778329 1.37039 0
M  V30 204 C 18.6672 -1.90546 1.34962 0
M  V30 205 C 19.6482 -1.68681 0.219274 0
M  V30 206 O 20.8332 -1.89634 0.418624 0
M  V30 207 C 17.9632 -3.27734 1.14925 0
M  V30 208 C 16.9172 -3.64147 2.24902 0
M  V30 209 C 16.2432 -4.99806 1.89996 0
M  V30 210 C 17.5432 -3.71579 3.67051 0
M  V30 211 H 19.2372 -1.92541 2.29277 0
M  V30 212 H 16.7832 -0.924948 1.10366 0
M  V30 213 H 18.7362 -4.06215 1.12104 0
M  V30 214 H 17.4602 -3.26154 0.170631 0
M  V30 215 H 16.1192 -2.8797 2.26868 0
M  V30 216 H 15.7672 -4.94759 0.906796 0
M  V30 217 H 15.4672 -5.25139 2.63634 0
M  V30 218 H 16.9912 -5.80694 1.88749 0
M  V30 219 H 18.4052 -4.40227 3.67251 0
M  V30 220 H 16.8022 -4.08405 4.39688 0
M  V30 221 H 17.8722 -2.72404 4.01154 0
M  V30 222 N 19.2153 -1.21501 -1.00376 0
M  V30 223 C 20.4613 -1.04457 -1.74529 0
M  V30 224 C 20.8163 0.417386 -1.87818 0
M  V30 225 O 20.1093 1.30556 -1.40234 0
M  V30 226 C 20.3033 -1.67673 -3.15627 0
M  V30 227 C 20.1323 -3.19865 -3.16096 0
M  V30 228 C 18.9023 -3.88915 -3.22604 0
M  V30 229 C 21.1003 -4.16936 -3.01112 0
M  V30 230 N 19.0823 -5.28284 -3.12712 0
M  V30 231 C 20.4533 -5.43066 -2.99131 0
M  V30 232 C 22.5083 -4.07968 -2.85423 0
M  V30 233 C 21.2113 -6.6126 -2.83068 0
M  V30 234 C 23.2373 -5.258 -2.70718 0
M  V30 235 C 22.5993 -6.50842 -2.69414 0
M  V30 236 H 18.6983 -0.436584 -0.648782 0
M  V30 237 H 21.2823 -1.53875 -1.19293 0
M  V30 238 H 19.4533 -1.20822 -3.6913 0
M  V30 239 H 21.1853 -1.43824 -3.78281 0
M  V30 240 H 17.9403 -3.39847 -3.2985 0
M  V30 241 H 18.3643 -6.01284 -3.11105 0
M  V30 242 H 23.0063 -3.1209 -2.85236 0
M  V30 243 H 20.7243 -7.57298 -2.82002 0
M  V30 244 H 24.3103 -5.20683 -2.59577 0
M  V30 245 H 23.1903 -7.40485 -2.5817 0
M  V30 246 N 20.6934 1.19889 -1.02296 0
M  V30 247 C 21.9394 1.89701 -0.717033 0
M  V30 248 C 22.2724 1.7905 0.751989 0
M  V30 249 O 21.5474 1.17891 1.547 0
M  V30 250 C 21.8304 3.40858 -1.16136 0
M  V30 251 C 21.6834 3.60411 -2.69117 0
M  V30 252 C 23.0024 4.33876 -0.737549 0
M  V30 253 H 20.1214 0.688874 -0.261957 0
M  V30 254 H 22.7634 1.41154 -1.27183 0
M  V30 255 H 20.9134 3.82335 -0.689342 0
M  V30 256 H 22.5854 3.28145 -3.2422 0
M  V30 257 H 20.8284 3.03665 -3.0979 0
M  V30 258 H 21.4994 4.66396 -2.95261 0
M  V30 259 H 23.9754 4.00081 -1.14344 0
M  V30 260 H 22.8514 5.38242 -1.0764 0
M  V30 261 H 23.1124 4.40628 0.360436 0
M  V30 262 N 22.1715 0.800033 1.35784 0
M  V30 263 C 23.3965 0.388511 2.03729 0
M  V30 264 C 23.8215 -0.990481 1.5991 0
M  V30 265 O 23.1795 -1.64013 0.772612 0
M  V30 266 C 23.2275 0.4726 3.5749 0
M  V30 267 O 22.3315 -0.51646 4.09153 0
M  V30 268 H 21.6725 0.163271 0.643614 0
M  V30 269 H 24.2025 1.0841 1.73518 0
M  V30 270 H 24.2125 0.34003 4.06581 0
M  V30 271 H 22.8875 1.47848 3.88734 0
M  V30 272 H 21.4645 -0.344673 3.71304 0
M  V30 273 N 23.6496 -1.47581 0.552962 0
M  V30 274 C 24.8976 -2.02082 0.0272703 0
M  V30 275 C 25.2186 -1.4301 -1.32563 0
M  V30 276 O 24.4886 -0.603745 -1.86365 0
M  V30 277 H 23.0686 -0.746966 0.00709182 0
M  V30 278 H 25.7306 -1.81033 0.722008 0
M  V30 279 H 24.8266 -3.12034 -0.0639951 0
M  V30 280 N 25.1277 -0.289203 -1.54924 0
M  V30 281 C 26.3527 0.329299 -2.04769 0
M  V30 282 C 26.7777 1.4763 -1.16564 0
M  V30 283 O 26.1357 1.80527 -0.167186 0
M  V30 284 C 26.1837 0.774438 -3.52186 0
M  V30 285 O 25.2877 1.88038 -3.67036 0
M  V30 286 H 24.6287 0.0659259 -0.660719 0
M  V30 287 H 27.1587 -0.42761 -2.00082 0
M  V30 288 H 27.1687 1.06642 -3.93816 0
M  V30 289 H 25.8437 -0.0646707 -4.1585 0
M  V30 290 H 24.4207 1.58985 -3.3731 0
M  V30 291 N 26.6058 1.57591 -0.0167156 0
M  V30 292 C 27.8308 1.9598 0.67872 0
M  V30 293 C 28.2558 0.892546 1.65575 0
M  V30 294 O 27.6138 -0.147772 1.80697 0
M  V30 295 C 27.6618 3.33468 1.37227 0
M  V30 296 O 26.7658 3.28954 2.48722 0
M  V30 297 H 26.1068 0.639339 0.17928 0
M  V30 298 H 28.6368 2.04463 -0.0748802 0
M  V30 299 H 28.6468 3.69417 1.7319 0
M  V30 300 H 27.3218 4.10694 0.656007 0
M  V30 301 H 25.8988 3.04705 2.14963 0
M  V30 302 N 28.0839 -0.256276 1.55502 0
M  V30 303 C 29.3319 -0.983672 1.76545 0
M  V30 304 C 29.6529 -1.86206 0.578982 0
M  V30 305 O 28.9229 -1.91656 -0.405577 0
M  V30 306 H 27.5029 -0.366191 0.651086 0
M  V30 307 H 30.1649 -0.276479 1.92929 0
M  V30 308 H 29.2609 -1.61087 2.67315 0
M  V30 309 N 29.562 -1.4872 -0.521534 0
M  V30 310 C 30.839 -1.4766 -1.2828 0
M  V30 311 C 31.219 -0.19292 -2.10217 0
M  V30 312 O 30.567 0.825193 -2.13079 0
M  V30 313 C 30.777 -2.74358 -2.15705 0
M  V30 314 C 32.125 -3.23028 -2.75569 0
M  V30 315 O 33.149 -2.75333 -2.25987 0
M  V30 316 O 32.008 -4.0604 -3.65778 0
M  V30 317 H 29.102 -0.590085 -0.579421 0
M  V30 318 H 31.648 -1.60963 -0.537492 0
M  V30 319 H 30.42 -3.59292 -1.54999 0
M  V30 320 H 30.043 -2.63816 -2.97467 0
M  V30 321 N 31.0401 0.771051 -1.3745 0
M  V30 322 C 32.2891 1.52491 -1.3202 0
M  V30 323 C 32.6021 1.9538 0.0927347 0
M  V30 324 O 33.8081 2.70159 0.269503 0
M  V30 325 C 32.2641 2.75366 -2.31736 0
M  V30 326 C 31.8721 2.39573 -3.78562 0
M  V30 327 C 33.6161 3.53307 -2.35318 0
M  V30 328 C 31.5231 3.58954 -4.70007 0
M  V30 329 H 30.4531 0.572506 -0.490666 0
M  V30 330 H 33.1041 0.844474 -1.62914 0
M  V30 331 H 31.4861 3.45303 -1.93861 0
M  V30 332 H 32.6601 1.77415 -4.25277 0
M  V30 333 H 30.9751 1.74805 -3.77932 0
M  V30 334 H 33.5721 4.42039 -3.00842 0
M  V30 335 H 33.9151 3.93217 -1.36698 0
M  V30 336 H 34.4481 2.90367 -2.71904 0
M  V30 337 H 31.1871 3.24125 -5.69757 0
M  V30 338 H 30.7071 4.20214 -4.27996 0
M  V30 339 H 32.3861 4.25758 -4.87175 0
M  V30 340 N 32.5182 1.22032 0.997298 0
M  V30 341 C 33.7642 1.04376 1.73878 0
M  V30 342 C 34.0972 -0.420716 1.89588 0
M  V30 343 O 33.3722 -1.31202 1.43583 0
M  V30 344 C 33.6552 1.75047 3.14691 0
M  V30 345 C 33.5082 3.29062 3.06656 0
M  V30 346 C 34.8272 1.49928 4.13775 0
M  V30 347 H 31.9462 0.380578 0.631133 0
M  V30 348 H 34.5882 1.50312 1.16217 0
M  V30 349 H 32.7382 1.35996 3.63919 0
M  V30 350 H 34.4102 3.7753 2.65083 0
M  V30 351 H 32.6532 3.58967 2.43568 0
M  V30 352 H 33.3242 3.73683 4.06282 0
M  V30 353 H 35.8002 1.83842 3.73285 0
M  V30 354 H 34.6762 2.01878 5.10428 0
M  V30 355 H 34.9372 0.430929 4.39995 0
M  V30 356 N 33.9963 -1.19345 1.0293 0
M  V30 357 C 34.9293 -2.21347 0.555029 0
M  V30 358 C 35.9073 -1.57492 -0.404351 0
M  V30 359 O 37.0913 -1.85741 -0.321352 0
M  V30 360 C 34.2183 -3.38163 -0.19064 0
M  V30 361 C 33.2643 -4.20375 0.720236 0
M  V30 362 S 34.0973 -4.88371 2.19668 0
M  V30 363 C 35.2533 -6.08597 1.46153 0
M  V30 364 H 35.4863 -2.61235 1.41929 0
M  V30 365 H 33.0193 -1.29598 0.839272 0
M  V30 366 H 34.9773 -4.05871 -0.614724 0
M  V30 367 H 33.6383 -2.9671 -1.03063 0
M  V30 368 H 32.8313 -5.03793 0.14455 0
M  V30 369 H 32.4333 -3.57987 1.08266 0
M  V30 370 H 34.7253 -6.73354 0.748357 0
M  V30 371 H 35.6683 -6.7065 2.27233 0
M  V30 372 H 36.0763 -5.56297 0.958842 0
M  V30 373 N 35.4744 -0.807222 -1.35358 0
M  V30 374 C 36.7024 -0.400377 -2.02989 0
M  V30 375 C 37.1174 0.988859 -1.60832 0
M  V30 376 O 36.4744 1.63729 -0.806175 0
M  V30 377 C 36.5254 -0.474867 -3.58368 0
M  V30 378 O 36.2464 -1.80933 -3.98992 0
M  V30 379 C 37.7474 -0.0609112 -4.43258 0
M  V30 380 H 34.9674 -0.162587 -0.651004 0
M  V30 381 H 37.5114 -1.09102 -1.72965 0
M  V30 382 H 35.6664 0.167534 -3.87038 0
M  V30 383 H 36.0804 -1.77256 -4.9364 0
M  V30 384 H 37.5544 -0.164145 -5.51756 0
M  V30 385 H 38.0314 0.993831 -4.27808 0
M  V30 386 H 38.6374 -0.676492 -4.19885 0
M  V30 387 N 36.9525 1.47285 -0.560781 0
M  V30 388 C 37.8845 2.28118 0.222438 0
M  V30 389 C 38.8975 1.37219 0.876056 0
M  V30 390 O 40.0865 1.62011 0.749307 0
M  V30 391 C 37.1865 3.1159 1.33285 0
M  V30 392 C 36.3595 4.30473 0.77534 0
M  V30 393 C 35.4185 4.95513 1.77069 0
M  V30 394 O 34.4445 5.53792 1.31539 0
M  V30 395 N 35.6465 4.90531 3.10418 0
M  V30 396 H 38.4115 2.95976 -0.470958 0
M  V30 397 H 35.9725 1.56955 -0.39709 0
M  V30 398 H 37.9645 3.51967 1.99752 0
M  V30 399 H 36.5345 2.45951 1.92943 0
M  V30 400 H 35.7545 3.94144 -0.0662113 0
M  V30 401 H 37.0425 5.07362 0.382272 0
M  V30 402 H 36.4405 4.44389 3.5005 0
M  V30 403 H 34.9975 5.34917 3.72434 0
M  V30 404 N 38.4306 0.297415 1.54768 0
M  V30 405 C 39.6556 -0.318435 2.04941 0
M  V30 406 C 40.0806 -1.4701 1.17345 0
M  V30 407 O 39.4386 -1.80436 0.176758 0
M  V30 408 C 39.4866 -0.755749 3.52592 0
M  V30 409 O 38.5906 -1.86088 3.68028 0
M  V30 410 H 37.9316 -0.062421 0.661059 0
M  V30 411 H 40.4616 0.438215 1.99852 0
M  V30 412 H 40.4716 -1.04552 3.94376 0
M  V30 413 H 39.1466 0.0867233 4.1581 0
M  V30 414 H 37.7236 -1.57193 3.38149 0
M  V30 415 N 39.9087 -1.5758 0.0250728 0
M  V30 416 C 41.3197 -1.79476 -0.514323 0
M  V30 417 C 41.6707 -0.934956 -1.72491 0
M  V30 418 O 40.7957 -0.144245 -2.15919 0
M  V30 419 C 41.3907 -3.25503 -0.939842 0
M  V30 420 C 39.9497 -3.48408 -1.42438 0
M  V30 421 C 39.0967 -2.74583 -0.387201 0
M  V30 422 H 42.0477 -1.567 0.25113 0
M  V30 423 H 42.0687 -3.34992 -1.80445 0
M  V30 424 H 41.5807 -3.88056 -0.0585628 0
M  V30 425 H 39.6817 -2.91103 -2.32572 0
M  V30 426 H 39.7947 -4.57119 -1.43455 0
M  V30 427 H 38.1587 -2.39942 -0.854409 0
M  V30 428 H 38.9417 -3.39849 0.485543 0
M  V30 429 N 41.3868 0.248026 -1.55636 0
M  V30 430 C 42.3168 1.31079 -1.93237 0
M  V30 431 C 43.2978 1.50264 -0.797174 0
M  V30 432 O 44.4828 1.62891 -1.05737 0
M  V30 433 C 41.6128 2.66575 -2.22609 0
M  V30 434 C 40.5668 2.62087 -3.3837 0
M  V30 435 C 39.8928 4.01369 -3.53281 0
M  V30 436 C 41.1928 2.19171 -4.7409 0
M  V30 437 H 42.8868 0.998556 -2.82257 0
M  V30 438 H 40.4328 0.47891 -1.35803 0
M  V30 439 H 42.3858 3.41057 -2.47503 0
M  V30 440 H 41.1098 2.99432 -1.30414 0
M  V30 441 H 39.7688 1.90063 -3.13483 0
M  V30 442 H 39.4168 4.31489 -2.58508 0
M  V30 443 H 39.1168 3.99254 -4.31127 0
M  V30 444 H 40.6408 4.77552 -3.80495 0
M  V30 445 H 42.0548 2.83384 -4.98363 0
M  V30 446 H 40.4518 2.2817 -5.5503 0
M  V30 447 H 41.5218 1.14336 -4.71227 0
M  V30 448 N 42.8649 1.48995 0.513639 0
M  V30 449 C 44.0899 1.61792 1.29762 0
M  V30 450 C 44.5149 0.284475 1.85936 0
M  V30 451 O 43.8729 -0.746185 1.65232 0
M  V30 452 C 43.9209 2.67993 2.41272 0
M  V30 453 O 43.0249 2.26287 3.44772 0
M  V30 454 H 42.3659 0.541963 0.38363 0
M  V30 455 H 44.8959 1.95097 0.616307 0
M  V30 456 H 44.9059 2.89772 2.87221 0
M  V30 457 H 43.5809 3.64791 1.9975 0
M  V30 458 H 42.1579 2.14788 3.04829 0
M  V30 459 N 44.343 -0.763751 1.37857 0
M  V30 460 C 45.273 -1.89103 1.36975 0
M  V30 461 C 46.254 -1.68439 0.237152 0
M  V30 462 O 47.439 -1.8918 0.438713 0
M  V30 463 C 44.569 -3.26496 1.18395 0
M  V30 464 C 43.523 -3.61741 2.28751 0
M  V30 465 C 42.849 -4.97762 1.95286 0
M  V30 466 C 44.149 -3.67665 3.70972 0
M  V30 467 H 45.843 -1.90099 2.31307 0
M  V30 468 H 43.389 -0.91319 1.11341 0
M  V30 469 H 45.342 -4.05003 1.16406 0
M  V30 470 H 44.066 -3.25955 0.205215 0
M  V30 471 H 42.725 -2.85547 2.29909 0
M  V30 472 H 42.373 -4.93769 0.959221 0
M  V30 473 H 42.073 -5.22313 2.69189 0
M  V30 474 H 43.597 -5.7866 1.94898 0
M  V30 475 H 45.011 -4.36307 3.719 0
M  V30 476 H 43.408 -4.03718 4.43995 0
M  V30 477 H 44.478 -2.68134 4.0402 0
M  V30 478 N 45.8211 -1.22559 -0.990812 0
M  V30 479 C 47.2321 -1.04791 -1.54518 0
M  V30 480 C 47.5831 0.387998 -1.92325 0
M  V30 481 O 46.7081 1.27328 -1.74976 0
M  V30 482 C 47.3031 -1.896 -2.80779 0
M  V30 483 C 45.8621 -1.76124 -3.32652 0
M  V30 484 C 45.0091 -1.8594 -2.05722 0
M  V30 485 H 47.9601 -1.36374 -0.811662 0
M  V30 486 H 47.9811 -1.41464 -3.53225 0
M  V30 487 H 47.4931 -2.94101 -2.53231 0
M  V30 488 H 45.5941 -0.743643 -3.65104 0
M  V30 489 H 45.7071 -2.58913 -4.03114 0
M  V30 490 H 44.0711 -1.29403 -2.19379 0
M  V30 491 H 44.8541 -2.91976 -1.80568 0
M  V30 492 N 47.2992 1.18797 -1.03562 0
M  V30 493 C 48.5452 1.8893 -0.737113 0
M  V30 494 C 48.8782 1.79837 0.732956 0
M  V30 495 O 48.1532 1.19525 1.5344 0
M  V30 496 C 48.4362 3.39607 -1.19745 0
M  V30 497 C 48.2892 3.57537 -2.72924 0
M  V30 498 C 49.6082 4.33069 -0.783526 0
M  V30 499 H 46.7272 0.686057 -0.269249 0
M  V30 500 H 49.3692 1.39797 -1.28673 0
M  V30 501 H 47.5192 3.81583 -0.729855 0
M  V30 502 H 49.1912 3.24688 -3.27682 0
M  V30 503 H 47.4342 3.00363 -3.12993 0
M  V30 504 H 48.1052 4.63238 -3.00191 0
M  V30 505 H 50.5812 3.98846 -1.18581 0
M  V30 506 H 49.4572 5.3707 -1.13343 0
M  V30 507 H 49.7182 4.40986 0.313681 0
M  V30 508 N 48.7773 0.814389 1.34928 0
M  V30 509 C 50.0053 0.411136 2.02774 0
M  V30 510 C 50.4203 -0.980316 1.61354 0
M  V30 511 O 49.7773 -1.63299 0.814847 0
M  V30 512 C 49.8283 0.493865 3.58111 0
M  V30 513 O 49.5493 1.83047 3.98027 0
M  V30 514 C 51.0503 0.0844174 4.4322 0
M  V30 515 H 48.2703 0.166037 0.650133 0
M  V30 516 H 50.8143 1.10018 1.72384 0
M  V30 517 H 48.9693 -0.147006 3.87121 0
M  V30 518 H 49.3833 1.79872 4.92693 0
M  V30 519 H 50.8573 0.193404 5.51661 0
M  V30 520 H 51.3343 -0.97113 4.28329 0
M  V30 521 H 51.9403 0.69875 4.19521 0
M  V30 522 N 50.2554 -1.46986 0.568584 0
M  V30 523 C 51.6664 -1.86188 0.138219 0
M  V30 524 C 52.0174 -1.47388 -1.29504 0
M  V30 525 O 51.1424 -0.88219 -1.97602 0
M  V30 526 C 51.7374 -3.3792 0.244065 0
M  V30 527 C 50.2964 -3.76171 -0.131335 0
M  V30 528 C 49.4434 -2.71027 0.586465 0
M  V30 529 H 52.3944 -1.38342 0.777645 0
M  V30 530 H 52.4154 -3.76729 -0.534351 0
M  V30 531 H 51.9274 -3.66128 1.28731 0
M  V30 532 H 50.0284 -3.5358 -1.17526 0
M  V30 533 H 50.1414 -4.78523 0.235146 0
M  V30 534 H 48.5054 -2.54684 0.0282722 0
M  V30 535 H 49.2884 -3.02077 1.63109 0
M  V30 536 N 51.7335 -0.305618 -1.54608 0
M  V30 537 C 52.9815 0.301701 -1.99835 0
M  V30 538 C 53.3025 1.54054 -1.19551 0
M  V30 539 O 52.5725 1.93702 -0.292658 0
M  V30 540 H 51.1525 0.114468 -0.738178 0
M  V30 541 H 53.8145 -0.418016 -1.90364 0
M  V30 542 H 52.9105 0.570548 -3.06841 0
M  V30 543 N 53.2116 1.57565 -0.0334293 0
M  V30 544 C 54.1216 2.13943 0.962572 0
M  V30 545 C 55.1376 1.09276 1.35406 0
M  V30 546 O 56.3136 1.41355 1.4346 0
M  V30 547 C 53.3786 2.65887 2.22497 0
M  V30 548 C 52.4396 3.85286 1.8935 0
M  V30 549 C 51.6726 4.34743 3.09571 0
M  V30 550 O 51.8956 3.83352 4.22371 0
M  V30 551 O 50.8296 5.26538 2.91618 0
M  V30 552 H 54.6556 2.99333 0.513169 0
M  V30 553 H 52.2406 1.4822 0.18743 0
M  V30 554 H 54.1226 2.99346 2.96598 0
M  V30 555 H 52.7976 1.83578 2.6661 0
M  V30 556 H 51.7046 3.56746 1.1262 0
M  V30 557 H 53.0376 4.68771 1.5005 0
M  V30 558 N 54.6897 -0.239769 1.55765 0
M  V30 559 C 56.1007 -0.808263 1.68297 0
M  V30 560 C 56.4517 -1.85736 0.632181 0
M  V30 561 O 55.5767 -2.15277 -0.220204 0
M  V30 562 C 56.1717 -1.47284 3.05111 0
M  V30 563 C 54.7307 -1.98895 3.19559 0
M  V30 564 C 53.8777 -0.842575 2.64189 0
M  V30 565 H 56.8287 -0.0154422 1.58692 0
M  V30 566 H 56.8497 -2.34111 2.99954 0
M  V30 567 H 56.3617 -0.709053 3.81568 0
M  V30 568 H 54.4627 -2.78132 2.47938 0
M  V30 569 H 54.5757 -2.18143 4.26556 0
M  V30 570 H 52.9397 -1.24501 2.22197 0
M  V30 571 H 53.7227 -0.0917552 3.43177 0
M  V30 572 N 56.1678 -1.49265 -0.50573 0
M  V30 573 C 57.1308 -1.65075 -1.59006 0
M  V30 574 C 58.1308 -0.522768 -1.52065 0
M  V30 575 O 59.3208 -0.789117 -1.55302 0
M  V30 576 C 56.4528 -1.64369 -2.98656 0
M  V30 577 H 57.6458 -2.61784 -1.46319 0
M  V30 578 H 55.1988 -1.38226 -0.729616 0
M  V30 579 H 55.9338 -0.692272 -3.16825 0
M  V30 580 H 55.7188 -2.46282 -3.05103 0
M  V30 581 H 57.2088 -1.78674 -3.77446 0
M  V30 582 N 57.6459 0.756429 -1.3826 0
M  V30 583 C 58.8709 1.55077 -1.37717 0
M  V30 584 C 59.2959 1.88073 0.03164 0
M  V30 585 O 58.6539 1.50364 1.01293 0
M  V30 586 C 58.7019 2.8283 -2.23695 0
M  V30 587 O 57.8059 3.77862 -1.6521 0
M  V30 588 H 57.1469 0.469152 -0.469885 0
M  V30 589 H 59.6769 0.935019 -1.81985 0
M  V30 590 H 59.6869 3.31783 -2.37453 0
M  V30 591 H 58.3619 2.58144 -3.2609 0
M  V30 592 H 56.9389 3.36555 -1.60578 0
M  V30 593 N 59.124 1.23083 0.984299 0
M  V30 594 C 60.373 1.05466 1.71929 0
M  V30 595 C 60.686 -0.409211 1.91272 0
M  V30 596 O 61.892 -0.705226 2.62181 0
M  V30 597 C 60.348 1.83874 3.09384 0
M  V30 598 C 59.956 3.34566 2.97943 0
M  V30 599 C 61.7 1.74734 3.8687 0
M  V30 600 C 59.607 4.05381 4.30605 0
M  V30 601 H 58.537 0.391039 0.644674 0
M  V30 602 H 61.188 1.47013 1.09815 0
M  V30 603 H 59.57 1.35131 3.72231 0
M  V30 604 H 60.744 3.90767 2.44209 0
M  V30 605 H 59.059 3.44476 2.33934 0
M  V30 606 H 61.656 2.24957 4.85076 0
M  V30 607 H 61.999 0.709372 4.10212 0
M  V30 608 H 62.532 2.21067 3.30717 0
M  V30 609 H 59.271 5.09467 4.1246 0
M  V30 610 H 58.791 3.53967 4.84218 0
M  V30 611 H 60.47 4.11458 4.99311 0
M  V30 612 N 60.6021 -1.18246 1.0419 0
M  V30 613 C 61.8271 -1.92736 0.765996 0
M  V30 614 C 62.2521 -1.75728 -0.67091 0
M  V30 615 O 61.6101 -1.06825 -1.46486 0
M  V30 616 C 61.6581 -3.42148 1.13875 0
M  V30 617 O 60.7621 -4.11548 0.264954 0
M  V30 618 H 60.1031 -0.601238 0.281797 0
M  V30 619 H 62.6331 -1.49942 1.39207 0
M  V30 620 H 62.6431 -3.92858 1.1012 0
M  V30 621 H 61.3181 -3.53848 2.18551 0
M  V30 622 H 59.8951 -3.71137 0.362226 0
M  V30 623 N 62.0802 -0.821533 -1.34494 0
M  V30 624 C 63.3202 -0.414785 -2.00147 0
M  V30 625 C 63.6842 1.00299 -1.6372 0
M  V30 626 O 64.8852 1.51255 -2.22206 0
M  V30 627 C 63.1562 -0.609403 -3.52166 0
M  V30 628 S 64.7152 -0.295297 -4.37805 0
M  V30 629 H 61.5332 -0.15679 -0.693497 0
M  V30 630 H 64.1352 -1.06705 -1.63812 0
M  V30 631 H 62.8392 -1.64096 -3.76166 0
M  V30 632 H 62.3702 0.0576414 -3.93358 0
M  V30 633 H 64.3852 0.891531 -4.88125 0
M  V30 634 N 63.5583 1.46682 -0.576371 0
M  V30 635 C 64.9743 1.57822 -0.237562 0
M  V30 636 C 65.1743 1.57237 1.26011 0
M  V30 637 O 64.2303 1.48596 2.04146 0
M  V30 638 C 65.5433 2.87499 -0.881168 0
M  V30 639 C 67.0913 3.01119 -0.85417 0
M  V30 640 C 67.5663 4.33524 -1.4772 0
M  V30 641 N 69.0573 4.40207 -1.44125 0
M  V30 642 C 69.7923 5.4126 -1.89276 0
M  V30 643 N 69.2883 6.49021 -2.42371 0
M  V30 644 N 71.0813 5.32422 -1.80231 0
M  V30 645 H 63.2323 1.45306 -1.54919 0
M  V30 646 H 65.4953 0.692733 -0.647167 0
M  V30 647 H 65.2013 2.9372 -1.93447 0
M  V30 648 H 65.0753 3.75224 -0.385592 0
M  V30 649 H 67.4623 2.94485 0.190491 0
M  V30 650 H 67.5433 2.14887 -1.3877 0
M  V30 651 H 67.1873 4.40916 -2.52103 0
M  V30 652 H 67.1173 5.1852 -0.918947 0
M  V30 653 H 69.6083 3.62931 -1.05307 0
M  V30 654 H 69.9213 7.2233 -2.74698 0
M  V30 655 H 68.2663 6.49858 -2.46393 0
M  V30 656 H 71.4573 4.47137 -1.38514 0
M  V30 657 H 71.6303 6.11034 -2.15735 0
M  V30 658 N 65.0364 0.313813 1.54444 0
M  V30 659 C 66.2614 -0.296681 2.05267 0
M  V30 660 C 66.6864 -1.45757 1.18897 0
M  V30 661 O 66.0444 -1.80239 0.195886 0
M  V30 662 C 66.0924 -0.71831 3.53373 0
M  V30 663 O 65.1964 -1.82175 3.69981 0
M  V30 664 H 64.5374 -0.0554061 0.661684 0
M  V30 665 H 67.0674 0.459387 1.99376 0
M  V30 666 H 67.0774 -1.00364 3.95463 0
M  V30 667 H 65.7524 0.130821 4.15694 0
M  V30 668 H 64.3294 -1.53598 3.39797 0
M  V30 669 N 66.5145 -1.57545 0.0417849 0
M  V30 670 C 67.7395 -1.97035 -0.647455 0
M  V30 671 C 68.1645 -0.918775 -1.64135 0
M  V30 672 O 67.5225 0.119006 -1.80909 0
M  V30 673 C 67.5705 -3.35609 -1.31905 0
M  V30 674 O 66.6745 -3.3287 -2.43457 0
M  V30 675 H 66.0155 -0.64211 -0.169086 0
M  V30 676 H 68.5455 -2.04318 0.107399 0
M  V30 677 H 68.5555 -3.72126 -1.67291 0
M  V30 678 H 67.2305 -4.11685 -0.590586 0
M  V30 679 H 65.8075 -3.08087 -2.10088 0
M  V30 680 N 67.9926 0.231505 -1.5589 0
M  V30 681 C 68.9246 1.31006 -1.8807 0
M  V30 682 C 69.9376 1.43539 -0.768145 0
M  V30 683 O 71.1266 1.44614 -1.04638 0
M  V30 684 C 68.2266 2.68688 -2.06543 0
M  V30 685 C 67.3996 2.78228 -3.37502 0
M  V30 686 C 66.4586 3.96857 -3.4553 0
M  V30 687 O 65.4846 3.85662 -4.18633 0
M  V30 688 N 66.6866 5.1072 -2.75944 0
M  V30 689 H 69.4516 1.03731 -2.81176 0
M  V30 690 H 67.0126 0.421573 -1.56315 0
M  V30 691 H 69.0046 3.46412 -2.09239 0
M  V30 692 H 67.5746 2.88605 -1.20109 0
M  V30 693 H 66.7946 1.87059 -3.46991 0
M  V30 694 H 68.0826 2.81564 -4.23791 0
M  V30 695 H 67.4806 5.2271 -2.16311 0
M  V30 696 H 66.0376 5.86523 -2.84314 0
M  V30 697 N 69.4707 1.49531 0.497807 0
M  V30 698 C 70.6957 1.63159 1.28039 0
M  V30 699 C 71.1207 0.30418 1.85624 0
M  V30 700 O 70.4787 -0.728618 1.66015 0
M  V30 701 C 70.5267 2.70537 2.38416 0
M  V30 702 O 69.6307 2.29931 3.42353 0
M  V30 703 H 68.9717 0.546001 0.377861 0
M  V30 704 H 71.5017 1.9574 0.59558 0
M  V30 705 H 71.5117 2.92802 2.84132 0
M  V30 706 H 70.1867 3.6689 1.95869 0
M  V30 707 H 68.7637 2.18009 3.02533 0
M  V30 708 N 70.9488 -0.749086 1.3866 0
M  V30 709 C 71.8788 -1.8764 1.38973 0
M  V30 710 C 72.8598 -1.68178 0.255004 0
M  V30 711 O 74.0448 -1.88704 0.458754 0
M  V30 712 C 71.1748 -3.25222 1.21851 0
M  V30 713 C 70.1288 -3.59295 2.32575 0
M  V30 714 C 69.4548 -4.95663 2.00555 0
M  V30 715 C 70.7548 -3.63709 3.7485 0
M  V30 716 H 72.4488 -1.87635 2.3331 0
M  V30 717 H 69.9948 -0.901329 1.12303 0
M  V30 718 H 71.9478 -4.03746 1.20695 0
M  V30 719 H 70.6718 -3.25719 0.239775 0
M  V30 720 H 69.3308 -2.83093 2.32925 0
M  V30 721 H 68.9788 -4.92724 1.01154 0
M  V30 722 H 68.6788 -5.19429 2.74714 0
M  V30 723 H 70.2028 -5.7656 2.01024 0
M  V30 724 H 71.6168 -4.32338 3.76506 0
M  V30 725 H 70.0138 -3.98986 4.48252 0
M  V30 726 H 71.0838 -2.63834 4.06841 0
M  V30 727 N 72.4269 -1.23603 -0.977757 0
M  V30 728 C 73.3569 -1.04401 -2.0886 0
M  V30 729 C 74.3379 0.0399052 -1.70053 0
M  V30 730 O 75.5229 -0.125246 -1.93796 0
M  V30 731 C 72.6529 -0.637269 -3.41403 0
M  V30 732 C 71.6069 -1.66883 -3.94124 0
M  V30 733 C 70.9329 -1.11745 -5.22893 0
M  V30 734 C 72.2329 -3.06247 -4.23096 0
M  V30 735 H 73.9269 -1.97316 -2.25182 0
M  V30 736 H 71.4729 -0.950096 -1.08209 0
M  V30 737 H 73.4259 -0.48998 -4.18542 0
M  V30 738 H 72.1499 0.327557 -3.24953 0
M  V30 739 H 70.8089 -1.80416 -3.19133 0
M  V30 740 H 70.4569 -0.143527 -5.02795 0
M  V30 741 H 70.1569 -1.80672 -5.59134 0
M  V30 742 H 71.6809 -0.982067 -6.02651 0
M  V30 743 H 73.0949 -2.96001 -4.90975 0
M  V30 744 H 71.4919 -3.72436 -4.70544 0
M  V30 745 H 72.5619 -3.55041 -3.30263 0
M  V30 746 N 73.905 1.17692 -1.04816 0
M  V30 747 C 74.855 2.1952 -0.616042 0
M  V30 748 C 75.839 1.57147 0.345485 0
M  V30 749 O 77.031 1.76245 0.163325 0
M  V30 750 C 74.16 3.43298 0.0116917 0
M  V30 751 C 73.246 4.12777 -0.973435 0
M  V30 752 N 73.637 4.5814 -2.14339 0
M  V30 753 C 71.935 4.38747 -0.80108 0
M  V30 754 C 72.636 5.11713 -2.7663 0
M  V30 755 N 71.612 5.03686 -2.04453 0
M  V30 756 H 75.414 2.52293 -1.5075 0
M  V30 757 H 72.928 1.3398 -0.917776 0
M  V30 758 H 74.925 4.15519 0.339006 0
M  V30 759 H 73.585 3.12018 0.898593 0
M  V30 760 H 74.596 4.52349 -2.52191 0
M  V30 761 H 71.273 4.17485 0.0350934 0
M  V30 762 H 72.663 5.56962 -3.75823 0
M  V30 763 N 75.3831 0.828654 1.34056 0
M  V30 764 C 76.6081 0.431637 2.02859 0
M  V30 765 C 77.0331 -0.956339 1.61975 0
M  V30 766 O 76.3911 -1.62338 0.807228 0
M  V30 767 C 76.4391 0.548323 3.56407 0
M  V30 768 O 75.5431 -0.429556 4.10157 0
M  V30 769 H 74.8841 0.176886 0.640006 0
M  V30 770 H 77.4141 1.12066 1.71179 0
M  V30 771 H 77.4241 0.426196 4.05768 0
M  V30 772 H 76.0991 1.5606 3.8551 0
M  V30 773 H 74.6761 -0.265836 3.71951 0
M  V30 774 N 76.8612 -1.46375 0.584142 0
M  V30 775 C 77.8092 -2.32042 -0.161047 0
M  V30 776 C 78.8032 -1.44569 -0.882966 0
M  V30 777 O 80.0092 -1.61186 -0.801191 0
M  V30 778 H 76.3842 -0.748659 -0.0708033 0
M  V30 779 H 78.3552 -2.92704 0.580269 0
M  V30 780 C 77.1042 -3.27762 -1.1605 0
M  V30 781 H 76.4272 -3.95051 -0.614419 0
M  V30 782 H 77.8672 -3.90481 -1.65228 0
M  V30 783 C 76.3262 -2.53218 -2.22221 0
M  V30 784 O 76.8562 -2.29628 -3.29597 0
M  V30 785 N 75.0622 -2.13756 -1.96868 0
M  V30 786 H 74.6092 -2.33142 -1.09557 0
M  V30 787 H 74.5672 -1.642 -2.68115 0
M  V30 788 N 78.3393 -0.321999 -1.54275 0
M  V30 789 C 79.5873 0.280489 -2.00144 0
M  V30 790 C 79.9083 1.52777 -1.21178 0
M  V30 791 O 79.1783 1.9338 -0.313187 0
M  V30 792 H 77.7583 0.106632 -0.73935 0
M  V30 793 H 80.4203 -0.438184 -1.8991 0
M  V30 794 H 79.5163 0.537972 -3.07428 0
M  V30 795 N 79.8174 1.5752 -0.0501392 0
M  V30 796 C 81.0474 1.96678 0.632573 0
M  V30 797 C 81.4554 0.926298 1.64974 0
M  V30 798 O 80.7984 -0.09802 1.83438 0
M  V30 799 C 80.8604 3.32068 1.37735 0
M  V30 800 C 80.5244 4.54076 0.516131 0
M  V30 801 C 81.5214 5.19445 -0.217357 0
M  V30 802 C 79.2064 5.00304 0.44736 0
M  V30 803 C 81.2004 6.29378 -1.00807 0
M  V30 804 C 78.8874 6.10114 -0.347038 0
M  V30 805 C 79.8854 6.74512 -1.07344 0
M  V30 806 O 79.5734 7.82211 -1.85477 0
M  V30 807 H 79.3054 0.652193 0.177821 0
M  V30 808 H 81.8594 2.05091 -0.112543 0
M  V30 809 H 80.0894 3.20206 2.16807 0
M  V30 810 H 81.7784 3.55981 1.95019 0
M  V30 811 H 82.5444 4.84689 -0.173688 0
M  V30 812 H 78.4234 4.49971 1.00235 0
M  V30 813 H 81.9674 6.79575 -1.57556 0
M  V30 814 H 77.8644 6.44307 -0.392349 0
M  V30 815 H 78.6324 7.98982 -1.77678 0
M  V30 816 N 81.2955 -0.223234 1.56011 0
M  V30 817 C 82.2435 -1.29627 1.93131 0
M  V30 818 C 83.2375 -1.48608 0.813146 0
M  V30 819 O 84.4435 -1.49802 0.997966 0
M  V30 820 H 80.8185 -0.434563 0.613726 0
M  V30 821 H 82.7895 -0.955995 2.82672 0
M  V30 822 C 81.5385 -2.63983 2.26292 0
M  V30 823 H 80.8615 -2.50185 3.11846 0
M  V30 824 H 82.3015 -3.3788 2.56151 0
M  V30 825 C 80.7605 -3.18866 1.08747 0
M  V30 826 O 81.2905 -4.00192 0.347727 0
M  V30 827 N 79.4965 -2.77217 0.871743 0
M  V30 828 H 79.0435 -2.1119 1.47501 0
M  V30 829 H 79.0015 -3.1428 0.0869905 0
M  V30 830 N 82.7736 -1.49793 -0.48987 0
M  V30 831 C 84.0036 -1.6333 -1.26518 0
M  V30 832 C 84.4116 -0.308392 -1.8667 0
M  V30 833 O 83.7546 0.717512 -1.69108 0
M  V30 834 C 83.8166 -2.6522 -2.4269 0
M  V30 835 C 83.4806 -4.09279 -2.03321 0
M  V30 836 C 84.4776 -4.95738 -1.56652 0
M  V30 837 C 82.1626 -4.55082 -2.12616 0
M  V30 838 C 84.1566 -6.26041 -1.19795 0
M  V30 839 C 81.8436 -5.85396 -1.75371 0
M  V30 840 C 82.8416 -6.707 -1.29036 0
M  V30 841 O 82.5296 -7.98584 -0.92299 0
M  V30 842 H 82.2616 -0.552502 -0.389509 0
M  V30 843 H 84.8156 -1.96642 -0.593381 0
M  V30 844 H 83.0456 -2.27112 -3.12981 0
M  V30 845 H 84.7346 -2.68171 -3.04695 0
M  V30 846 H 85.5006 -4.61575 -1.48908 0
M  V30 847 H 81.3796 -3.88844 -2.47631 0
M  V30 848 H 84.9236 -6.92578 -0.835582 0
M  V30 849 H 80.8206 -6.19085 -1.82768 0
M  V30 850 H 81.5886 -8.11692 -1.05349 0
M  V30 851 N 84.2517 0.741722 -1.39055 0
M  V30 852 C 85.1817 1.869 -1.39966 0
M  V30 853 C 86.1627 1.6804 -0.26392 0
M  V30 854 O 87.3477 1.88458 -0.468755 0
M  V30 855 C 84.4777 3.24572 -1.23574 0
M  V30 856 C 83.4317 3.58056 -2.34477 0
M  V30 857 C 82.7577 4.94593 -2.0318 0
M  V30 858 C 84.0577 3.61716 -3.76774 0
M  V30 859 H 85.7517 1.86395 -2.34302 0
M  V30 860 H 83.2977 0.895361 -1.1278 0
M  V30 861 H 85.2507 4.031 -1.22834 0
M  V30 862 H 83.9747 3.25587 -0.257045 0
M  V30 863 H 82.6337 2.81854 -2.34423 0
M  V30 864 H 82.2817 4.92181 -1.03765 0
M  V30 865 H 81.9817 5.17964 -2.77465 0
M  V30 866 H 83.5057 5.75486 -2.04079 0
M  V30 867 H 84.9197 4.30335 -3.78794 0
M  V30 868 H 83.3167 3.96603 -4.50362 0
M  V30 869 H 84.3867 2.61672 -4.08235 0
M  V30 870 N 85.7298 1.2412 0.971189 0
M  V30 871 C 87.0068 0.986867 1.6888 0
M  V30 872 C 87.3868 -0.491857 2.0529 0
M  V30 873 O 86.7348 -1.46531 1.75331 0
M  V30 874 C 86.9448 1.9063 2.92338 0
M  V30 875 C 88.2928 2.17515 3.64654 0
M  V30 876 O 89.3168 1.88254 3.02388 0
M  V30 877 O 88.1758 2.6719 4.7673 0
M  V30 878 H 85.2698 0.372944 0.738134 0
M  V30 879 H 87.8158 1.35203 1.02559 0
M  V30 880 H 86.5878 2.90552 2.62097 0
M  V30 881 H 86.2108 1.54408 3.66393 0
M  V30 882 N 87.2079 -1.17134 1.05439 0
M  V30 883 C 88.4539 -1.87979 0.776872 0
M  V30 884 C 88.8089 -1.7965 -0.688751 0
M  V30 885 O 88.1019 -1.19535 -1.4974 0
M  V30 886 C 88.2959 -3.36833 1.19491 0
M  V30 887 C 88.1249 -3.59653 2.69963 0
M  V30 888 C 86.8949 -3.76234 3.37307 0
M  V30 889 C 89.0929 -3.59091 3.68182 0
M  V30 890 N 87.0749 -3.86922 4.76618 0
M  V30 891 C 88.4459 -3.75659 4.93235 0
M  V30 892 C 90.5009 -3.42255 3.61616 0
M  V30 893 C 89.2039 -3.77133 6.12506 0
M  V30 894 C 91.2299 -3.45018 4.8033 0
M  V30 895 C 90.5919 -3.62096 6.04207 0
M  V30 896 H 86.6909 -0.705876 0.336546 0
M  V30 897 H 89.2749 -1.40602 1.34682 0
M  V30 898 H 87.4459 -3.82873 0.652884 0
M  V30 899 H 89.1779 -3.95305 0.866966 0
M  V30 900 H 85.9329 -3.76193 2.87708 0
M  V30 901 H 86.3569 -3.96055 5.49062 0
M  V30 902 H 90.9989 -3.27986 2.66805 0
M  V30 903 H 88.7169 -3.90186 7.07659 0
M  V30 904 H 92.3029 -3.33246 4.76905 0
M  V30 905 H 91.1829 -3.64142 6.94529 0
M  V30 906 N 88.686 -0.835752 -1.33615 0
M  V30 907 C 89.916 -0.442701 -2.01801 0
M  V30 908 C 90.324 0.959807 -1.63047 0
M  V30 909 O 89.667 1.63468 -0.838088 0
M  V30 910 C 89.729 -0.480125 -3.56279 0
M  V30 911 C 89.393 -1.8382 -4.18401 0
M  V30 912 C 90.39 -2.80097 -4.37998 0
M  V30 913 C 88.075 -2.13019 -4.54894 0
M  V30 914 C 90.069 -4.03736 -4.9323 0
M  V30 915 C 87.756 -3.36916 -5.09834 0
M  V30 916 C 88.754 -4.32091 -5.28948 0
M  V30 917 O 88.442 -5.53797 -5.82721 0
M  V30 918 H 88.174 -0.17441 -0.653114 0
M  V30 919 H 90.728 -1.129 -1.71589 0
M  V30 920 H 88.958 0.262931 -3.85805 0
M  V30 921 H 90.647 -0.105335 -4.05763 0
M  V30 922 H 91.413 -2.58838 -4.10156 0
M  V30 923 H 87.292 -1.39733 -4.39313 0
M  V30 924 H 90.836 -4.78034 -5.08064 0
M  V30 925 H 86.733 -3.58033 -5.37106 0
M  V30 926 H 87.501 -5.55494 -6.0114 0
M  V30 927 N 90.1641 1.46063 -0.591896 0
M  V30 928 C 91.0941 2.33172 0.123673 0
M  V30 929 C 92.0751 1.45897 0.87453 0
M  V30 930 O 93.2601 1.74698 0.848181 0
M  V30 931 C 90.3901 3.28336 1.13194 0
M  V30 932 C 89.3441 4.25124 0.495324 0
M  V30 933 C 88.6701 5.09863 1.61071 0
M  V30 934 C 89.9701 5.19143 -0.573425 0
M  V30 935 H 91.6641 2.93252 -0.603646 0
M  V30 936 H 89.2101 1.41014 -0.291741 0
M  V30 937 H 91.1631 3.88137 1.64097 0
M  V30 938 H 89.8871 2.66383 1.88965 0
M  V30 939 H 88.5461 3.66599 0.00729452 0
M  V30 940 H 88.1941 4.44288 2.35832 0
M  V30 941 H 87.8941 5.75417 1.19035 0
M  V30 942 H 89.4181 5.72529 2.12233 0
M  V30 943 H 90.8321 5.73106 -0.1491 0
M  V30 944 H 89.2291 5.93089 -0.914636 0
M  V30 945 H 90.2991 4.62519 -1.45617 0
M  V30 946 N 91.6422 0.330177 1.54103 0
M  V30 947 C 92.5742 -0.566902 2.22079 0
M  V30 948 C 93.5872 -1.07462 1.22294 0
M  V30 949 O 94.7762 -0.987065 1.48726 0
M  V30 950 C 91.8762 -1.79138 2.87685 0
M  V30 951 C 91.0492 -1.42123 4.13666 0
M  V30 952 C 90.1082 -2.50394 4.62806 0
M  V30 953 O 89.1342 -2.14261 5.27334 0
M  V30 954 N 90.3362 -3.81433 4.37595 0
M  V30 955 H 93.1012 0.0151844 2.99696 0
M  V30 956 H 90.6622 0.153681 1.61169 0
M  V30 957 H 92.6542 -2.50975 3.1748 0
M  V30 958 H 91.2242 -2.28115 2.13734 0
M  V30 959 H 90.4442 -0.534201 3.90564 0
M  V30 960 H 91.7322 -1.14971 4.9564 0
M  V30 961 H 91.1302 -4.13584 3.8596 0
M  V30 962 H 89.6872 -4.4948 4.72029 0
M  V30 963 N 93.1203 -1.57491 0.0584922 0
M  V30 964 C 94.0673 -2.11958 -0.913376 0
M  V30 965 C 95.0373 -1.02875 -1.30407 0
M  V30 966 O 96.2223 -1.30464 -1.39226 0
M  V30 967 C 93.3623 -2.67497 -2.18035 0
M  V30 968 C 92.4753 -3.90691 -1.84349 0
M  V30 969 C 91.6103 -4.3452 -3.05559 0
M  V30 970 C 90.6493 -5.50395 -2.67827 0
M  V30 971 N 89.7863 -5.89244 -3.81754 0
M  V30 972 H 94.6263 -2.94704 -0.442017 0
M  V30 973 H 92.1633 -1.45643 -0.206545 0
M  V30 974 H 94.1213 -2.978 -2.92183 0
M  V30 975 H 92.7513 -1.87537 -2.62735 0
M  V30 976 H 91.8033 -3.66934 -1.00319 0
M  V30 977 H 93.1153 -4.7489 -1.5258 0
M  V30 978 H 92.2693 -4.66414 -3.87998 0
M  V30 979 H 91.0083 -3.49147 -3.40511 0
M  V30 980 H 90.0133 -5.18165 -1.83806 0
M  V30 981 H 91.2383 -6.3749 -2.34059 0
M  V30 982 H 89.1843 -5.06823 -4.16493 0
M  V30 983 H 89.1013 -6.68151 -3.53708 0
M  V30 984 H 90.3693 -6.25756 -4.64811 0
M  V30 985 N 94.5984 0.214957 -1.56127 0
M  V30 986 C 96.0094 0.781386 -1.69562 0
M  V30 987 C 96.3604 1.84707 -0.66165 0
M  V30 988 O 95.4854 2.156 0.185927 0
M  V30 989 C 96.0804 1.42411 -3.07416 0
M  V30 990 C 94.6394 1.93786 -3.22683 0
M  V30 991 C 93.7864 0.800438 -2.65496 0
M  V30 992 H 96.7374 -0.00980633 -1.58697 0
M  V30 993 H 96.7584 2.29309 -3.0364 0
M  V30 994 H 96.2704 0.64826 -3.82648 0
M  V30 995 H 94.3714 2.74152 -2.52332 0
M  V30 996 H 94.4844 2.1133 -4.29973 0
M  V30 997 H 92.8484 1.2095 -2.2415 0
M  V30 998 H 93.6314 0.0371471 -3.4328 0
M  V30 999 N 96.0765 1.50051 0.48192 0
M  V30 1000 C 97.3245 1.60181 1.23234 0
M  V30 1001 C 97.6455 0.299176 1.92691 0
M  V30 1002 O 96.9155 -0.682708 1.83619 0
M  V30 1003 H 95.4955 0.590232 0.457859 0
M  V30 1004 H 98.1575 1.86775 0.556881 0
M  V30 1005 H 97.2535 2.40753 1.98607 0
M  V30 1006 N 97.5546 -0.734337 1.39446 0
M  V30 1007 C 98.4866 -1.85861 1.34121 0
M  V30 1008 C 99.4996 -1.60871 0.249864 0
M  V30 1009 O 100.689 -1.71093 0.508865 0
M  V30 1010 C 97.7886 -3.21899 1.05991 0
M  V30 1011 C 96.9616 -3.74239 2.26415 0
M  V30 1012 C 96.0206 -4.88841 1.94733 0
M  V30 1013 O 95.0466 -5.02468 2.67422 0
M  V30 1014 N 96.2486 -5.73261 0.913884 0
M  V30 1015 H 99.0136 -1.90934 2.31007 0
M  V30 1016 H 96.5746 -0.915102 1.33557 0
M  V30 1017 H 98.5666 -3.96136 0.828147 0
M  V30 1018 H 97.1366 -3.12091 0.178361 0
M  V30 1019 H 96.3566 -2.91347 2.65539 0
M  V30 1020 H 97.6446 -4.05942 3.06738 0
M  V30 1021 H 97.0426 -5.64842 0.311476 0
M  V30 1022 H 95.5996 -6.47563 0.742015 0
M  V30 1023 N 99.0327 -1.24633 -0.964593 0
M  V30 1024 C 100.258 -1.11596 -1.74818 0
M  V30 1025 C 100.683 0.32723 -1.85232 0
M  V30 1026 O 100.041 1.23695 -1.32549 0
M  V30 1027 C 100.089 -1.76397 -3.1451 0
M  V30 1028 O 99.1927 -1.03685 -3.99153 0
M  V30 1029 H 98.5337 -0.390196 -0.537255 0
M  V30 1030 H 101.064 -1.65002 -1.20977 0
M  V30 1031 H 101.074 -1.8228 -3.65018 0
M  V30 1032 H 99.7487 -2.81401 -3.06246 0
M  V30 1033 H 98.3257 -1.05611 -3.57632 0
M  V30 1034 N 100.511 1.16574 -1.06058 0
M  V30 1035 C 101.922 1.68662 -0.800632 0
M  V30 1036 C 102.273 1.84184 0.67608 0
M  V30 1037 O 101.398 1.53568 1.52466 0
M  V30 1038 C 101.993 3.06356 -1.44676 0
M  V30 1039 C 100.552 3.55575 -1.23465 0
M  V30 1040 C 99.6988 2.31616 -1.52477 0
M  V30 1041 H 102.65 1.00969 -1.22438 0
M  V30 1042 H 102.671 3.70636 -0.860788 0
M  V30 1043 H 102.183 2.95027 -2.52152 0
M  V30 1044 H 100.284 3.72167 -0.179527 0
M  V30 1045 H 100.397 4.37812 -1.94571 0
M  V30 1046 H 98.7608 2.36512 -0.945209 0
M  V30 1047 H 99.5438 2.22887 -2.61106 0
M  V30 1048 N 101.989 0.842826 1.3317 0
M  V30 1049 C 102.921 0.236245 2.27979 0
M  V30 1050 C 103.934 -0.585282 1.51915 0
M  V30 1051 O 105.123 -0.411705 1.73687 0
M  V30 1052 C 102.223 -0.685717 3.3189 0
M  V30 1053 C 101.396 0.0973448 4.37292 0
M  V30 1054 C 100.455 -0.748565 5.20848 0
M  V30 1055 O 99.4809 -0.186339 5.68895 0
M  V30 1056 N 100.683 -2.06527 5.42519 0
M  V30 1057 H 103.448 1.05088 2.80672 0
M  V30 1058 H 101.009 0.701667 1.45905 0
M  V30 1059 H 103.001 -1.25669 3.84694 0
M  V30 1060 H 101.571 -1.40105 2.79445 0
M  V30 1061 H 100.791 0.849706 3.84933 0
M  V30 1062 H 102.079 0.635643 5.04814 0
M  V30 1063 H 101.477 -2.54554 5.05192 0
M  V30 1064 H 100.034 -2.58464 5.98364 0
M  V30 1065 N 103.467 -1.45747 0.599634 0
M  V30 1066 C 104.397 -2.33235 -0.111306 0
M  V30 1067 C 105.378 -1.46359 -0.866781 0
M  V30 1068 O 106.563 -1.75146 -0.838904 0
M  V30 1069 C 103.693 -3.28932 -1.11451 0
M  V30 1070 C 102.647 -4.25381 -0.472772 0
M  V30 1071 C 101.973 -5.1071 -1.58365 0
M  V30 1072 C 103.273 -5.18831 0.600948 0
M  V30 1073 H 104.967 -2.92927 0.61919 0
M  V30 1074 H 102.513 -1.40857 0.299215 0
M  V30 1075 H 104.466 -3.89002 -1.62036 0
M  V30 1076 H 103.19 -2.67381 -1.8755 0
M  V30 1077 H 101.849 -3.66598 0.0121472 0
M  V30 1078 H 101.497 -4.45533 -2.33473 0
M  V30 1079 H 101.197 -5.7604 -1.15982 0
M  V30 1080 H 102.721 -5.73647 -2.09194 0
M  V30 1081 H 104.135 -5.73019 0.179491 0
M  V30 1082 H 102.532 -5.92595 0.946076 0
M  V30 1083 H 103.602 -4.6174 1.48068 0
M  V30 1084 N 104.945 -0.338344 -1.53925 0
M  V30 1085 C 105.875 0.51328 -2.27789 0
M  V30 1086 C 106.856 1.107 -1.29149 0
M  V30 1087 O 108.041 1.12937 -1.57984 0
M  V30 1088 C 105.171 1.66697 -3.04679 0
M  V30 1089 C 104.125 1.20183 -4.1078 0
M  V30 1090 C 103.451 2.44363 -4.75595 0
M  V30 1091 C 104.751 0.30605 -5.21403 0
M  V30 1092 H 106.445 -0.102883 -2.99223 0
M  V30 1093 H 103.991 -0.0509219 -1.4391 0
M  V30 1094 H 105.944 2.26915 -3.55088 0
M  V30 1095 H 104.668 2.30995 -2.30887 0
M  V30 1096 H 103.327 0.622499 -3.61276 0
M  V30 1097 H 102.975 3.07057 -3.98403 0
M  V30 1098 H 102.675 2.13925 -5.47275 0
M  V30 1099 H 104.199 3.05317 -5.28786 0
M  V30 1100 H 105.613 0.814929 -5.67478 0
M  V30 1101 H 104.01 0.0937929 -6.00027 0
M  V30 1102 H 105.08 -0.65921 -4.80398 0
M  V30 1103 N 106.423 1.57458 -0.0668435 0
M  V30 1104 C 107.672 1.92477 0.602947 0
M  V30 1105 C 107.985 0.948419 1.71068 0
M  V30 1106 O 109.191 1.19124 2.43971 0
M  V30 1107 C 107.647 3.41903 1.12383 0
M  V30 1108 C 107.255 4.47975 0.04737 0
M  V30 1109 C 108.999 3.85931 1.76797 0
M  V30 1110 C 106.906 5.88529 0.582022 0
M  V30 1111 H 105.836 0.718387 0.22899 0
M  V30 1112 H 108.487 1.82978 -0.138276 0
M  V30 1113 H 106.869 3.46459 1.91787 0
M  V30 1114 H 108.043 4.55029 -0.726978 0
M  V30 1115 H 106.358 4.13384 -0.500243 0
M  V30 1116 H 108.955 4.88322 2.17821 0
M  V30 1117 H 109.298 3.23029 2.62599 0
M  V30 1118 H 109.831 3.83958 1.04024 0
M  V30 1119 H 106.57 6.55065 -0.238721 0
M  V30 1120 H 106.09 5.85004 1.324 0
M  V30 1121 H 107.769 6.38258 1.05999 0
M  V30 1122 N 107.901 -0.206675 1.56239 0
M  V30 1123 C 109.131 -0.943975 1.83773 0
M  V30 1124 C 109.539 -1.77841 0.645703 0
M  V30 1125 O 108.882 -1.79403 -0.395008 0
M  V30 1126 C 108.944 -1.899 3.05251 0
M  V30 1127 C 108.608 -1.24764 4.39639 0
M  V30 1128 C 109.605 -0.630216 5.16066 0
M  V30 1129 C 107.29 -1.25496 4.8637 0
M  V30 1130 C 109.284 -0.0287946 6.37393 0
M  V30 1131 C 106.971 -0.649698 6.07637 0
M  V30 1132 C 107.969 -0.0376845 6.8299 0
M  V30 1133 O 107.657 0.55812 8.0196 0
M  V30 1134 H 107.389 -0.281508 0.614597 0
M  V30 1135 H 109.943 -0.222458 2.04192 0
M  V30 1136 H 108.173 -2.6599 2.80689 0
M  V30 1137 H 109.862 -2.5031 3.1953 0
M  V30 1138 H 110.628 -0.616785 4.81062 0
M  V30 1139 H 106.507 -1.72072 4.27683 0
M  V30 1140 H 110.051 0.449518 6.9615 0
M  V30 1141 H 105.948 -0.660592 6.42111 0
M  V30 1142 H 106.716 0.453891 8.17241 0
M  V30 1143 N 109.379 -1.50304 -0.473955 0
M  V30 1144 C 110.309 -1.71886 -1.58042 0
M  V30 1145 C 111.29 -0.567799 -1.60344 0
M  V30 1146 O 112.475 -0.806623 -1.76656 0
M  V30 1147 C 109.605 -1.81036 -2.96384 0
M  V30 1148 C 108.559 -2.962 -3.08949 0
M  V30 1149 C 107.885 -2.9049 -4.48909 0
M  V30 1150 C 109.185 -4.36752 -2.86434 0
M  V30 1151 H 110.879 -2.64527 -1.40234 0
M  V30 1152 H 108.425 -1.27295 -0.673201 0
M  V30 1153 H 110.378 -1.94719 -3.73714 0
M  V30 1154 H 109.102 -0.850147 -3.15341 0
M  V30 1155 H 107.761 -2.82164 -2.3405 0
M  V30 1156 H 107.409 -1.92321 -4.64781 0
M  V30 1157 H 107.109 -3.67802 -4.58253 0
M  V30 1158 H 108.633 -3.06218 -5.28264 0
M  V30 1159 H 110.047 -4.5133 -3.53517 0
M  V30 1160 H 108.444 -5.15493 -3.07225 0
M  V30 1161 H 109.514 -4.49321 -1.82316 0
M  V30 1162 N 110.857 0.726932 -1.39834 0
M  V30 1163 C 112.105 1.4837 -1.37225 0
M  V30 1164 C 112.426 1.94979 0.0284857 0
M  V30 1165 O 111.696 1.69555 0.981213 0
M  V30 1166 H 110.276 0.55043 -0.505011 0
M  V30 1167 H 112.938 0.862468 -1.74778 0
M  V30 1168 H 112.034 2.36198 -2.04003 0
M  V30 1169 N 112.336 1.25143 0.95797 0
M  V30 1170 C 113.561 1.12521 1.74223 0
M  V30 1171 C 113.986 -0.317402 1.85403 0
M  V30 1172 O 113.344 -1.2299 1.33204 0
M  V30 1173 C 113.392 1.78062 3.1357 0
M  V30 1174 O 112.496 1.058 3.98598 0
M  V30 1175 H 111.837 0.39304 0.535178 0
M  V30 1176 H 114.367 1.65641 1.201 0
M  V30 1177 H 114.377 1.84213 3.64046 0
M  V30 1178 H 113.052 2.83021 3.04749 0
M  V30 1179 H 111.629 1.07506 3.57067 0
M  V30 1180 N 113.814 -1.1601 1.06675 0
M  V30 1181 C 114.762 -2.22586 0.675157 0
M  V30 1182 C 115.756 -1.66525 -0.310766 0
M  V30 1183 O 116.962 -1.79145 -0.175215 0
M  V30 1184 H 113.337 -0.724855 0.200223 0
M  V30 1185 H 115.308 -2.52899 1.58381 0
M  V30 1186 C 114.057 -3.47604 0.0817162 0
M  V30 1187 H 113.38 -3.91058 0.831484 0
M  V30 1188 H 114.82 -4.23718 -0.154708 0
M  V30 1189 C 113.279 -3.15718 -1.17576 0
M  V30 1190 O 113.809 -3.31878 -2.26318 0
M  V30 1191 N 112.015 -2.69816 -1.07923 0
M  V30 1192 H 111.562 -2.56866 -0.194293 0
M  V30 1193 H 111.52 -2.48855 -1.92141 0
M  V30 1194 N 115.292 -0.849877 -1.32721 0
M  V30 1195 C 116.708 -0.539102 -1.50219 0
M  V30 1196 C 116.908 0.931271 -1.78689 0
M  V30 1197 O 115.964 1.71455 -1.85363 0
M  V30 1198 C 117.277 -1.42196 -2.64954 0
M  V30 1199 C 118.825 -1.42189 -2.78839 0
M  V30 1200 C 119.3 -2.28985 -3.96648 0
M  V30 1201 N 120.791 -2.26754 -4.03902 0
M  V30 1202 C 121.526 -2.90644 -4.94281 0
M  V30 1203 N 121.022 -3.63629 -5.897 0
M  V30 1204 N 122.815 -2.80057 -4.87365 0
M  V30 1205 H 114.966 -1.80156 -1.12506 0
M  V30 1206 H 117.229 -0.769217 -0.554085 0
M  V30 1207 H 116.935 -2.46733 -2.50631 0
M  V30 1208 H 116.809 -1.10591 -3.60624 0
M  V30 1209 H 119.196 -0.38419 -2.92588 0
M  V30 1210 H 119.277 -1.77807 -1.83898 0
M  V30 1211 H 118.921 -3.32819 -3.83658 0
M  V30 1212 H 118.851 -1.90702 -4.90857 0
M  V30 1213 H 121.342 -1.73688 -3.3562 0
M  V30 1214 H 121.655 -4.09558 -6.55349 0
M  V30 1215 H 120 -3.67737 -5.89741 0
M  V30 1216 H 123.191 -2.22593 -4.11789 0
M  V30 1217 H 123.364 -3.30132 -5.57599 0
M  V30 1218 N 116.77 1.45427 -0.607355 0
M  V30 1219 C 117.733 2.28974 0.101693 0
M  V30 1220 C 118.733 1.39754 0.795329 0
M  V30 1221 O 119.923 1.61878 0.643527 0
M  V30 1222 C 117.055 3.20768 1.15414 0
M  V30 1223 H 118.248 2.93147 -0.632844 0
M  V30 1224 H 115.801 1.51945 -0.366391 0
M  V30 1225 H 116.536 2.61395 1.91945 0
M  V30 1226 H 116.321 3.86489 0.66098 0
M  V30 1227 H 117.811 3.83589 1.65073 0
M  V30 1228 N 118.248 0.346503 1.53744 0
M  V30 1229 C 119.473 -0.253074 2.0585 0
M  V30 1230 C 119.898 -1.43202 1.21962 0
M  V30 1231 O 119.256 -1.79783 0.234073 0
M  V30 1232 C 119.304 -0.643193 3.54817 0
M  V30 1233 O 118.408 -1.74286 3.73762 0
M  V30 1234 H 117.749 -0.0413583 0.662711 0
M  V30 1235 H 120.279 0.501574 1.98357 0
M  V30 1236 H 120.289 -0.919526 3.97503 0
M  V30 1237 H 118.964 0.218966 4.15323 0
M  V30 1238 H 117.541 -1.46356 3.42979 0
M  V30 1239 N 119.726 -1.57421 0.075193 0
M  V30 1240 C 120.974 -1.93236 -0.591974 0
M  V30 1241 C 121.295 -0.956241 -1.69944 0
M  V30 1242 O 120.565 -0.00494792 -1.95899 0
M  V30 1243 H 119.145 -0.713355 -0.22166 0
M  V30 1244 H 121.807 -1.9444 0.133848 0
M  V30 1245 H 120.903 -2.95131 -1.01509 0
M  V30 1246 N 121.204 0.198386 -1.56346 0
M  V30 1247 C 122.45 0.920648 -1.80698 0
M  V30 1248 C 122.783 1.83045 -0.648697 0
M  V30 1249 O 122.058 1.91308 0.350925 0
M  V30 1250 C 122.341 1.73971 -3.15287 0
M  V30 1251 C 122.194 0.85485 -4.41602 0
M  V30 1252 C 123.513 2.71296 -3.46535 0
M  V30 1253 H 120.632 0.333261 -0.657348 0
M  V30 1254 H 123.274 0.188198 -1.89066 0
M  V30 1255 H 121.424 2.36416 -3.08285 0
M  V30 1256 H 123.096 0.245362 -4.60647 0
M  V30 1257 H 121.339 0.161398 -4.335 0
M  V30 1258 H 122.01 1.46286 -5.32264 0
M  V30 1259 H 124.486 2.18983 -3.53816 0
M  V30 1260 H 123.362 3.2569 -4.41834 0
M  V30 1261 H 123.623 3.5018 -2.69864 0
M  V30 1262 N 122.682 1.50554 0.465978 0
M  V30 1263 C 124.093 1.54599 1.04671 0
M  V30 1264 C 124.444 0.352488 1.93008 0
M  V30 1265 O 123.569 -0.534044 2.09707 0
M  V30 1266 C 124.164 2.80166 1.90505 0
M  V30 1267 C 122.723 2.86876 2.43678 0
M  V30 1268 C 121.87 2.48947 1.22151 0
M  V30 1269 H 124.821 1.56744 0.248384 0
M  V30 1270 H 124.842 2.62311 2.75633 0
M  V30 1271 H 124.354 3.67013 1.26186 0
M  V30 1272 H 122.455 2.04393 3.11536 0
M  V30 1273 H 122.568 3.89885 2.78436 0
M  V30 1274 H 120.932 2.01498 1.5579 0
M  V30 1275 H 121.715 3.38107 0.594866 0
M  V30 1276 N 124.16 -0.719506 1.40217 0
M  V30 1277 C 125.437 -1.47221 1.28784 0
M  V30 1278 C 125.817 -2.10883 -0.0956067 0
M  V30 1279 O 125.165 -1.99833 -1.10811 0
M  V30 1280 C 125.375 -2.5111 2.42373 0
M  V30 1281 C 126.723 -3.17053 2.82423 0
M  V30 1282 O 127.747 -2.61429 2.41937 0
M  V30 1283 O 126.606 -4.17742 3.52355 0
M  V30 1284 H 123.7 -0.654491 0.50554 0
M  V30 1285 H 126.246 -0.752014 1.52128 0
M  V30 1286 H 125.018 -2.02556 3.34793 0
M  V30 1287 H 124.641 -3.3067 2.20778 0
M  V30 1288 N 125.638 -1.25649 -0.95132 0
M  V30 1289 C 127.054 -1.02542 -1.223 0
M  V30 1290 C 127.254 0.255715 -1.99871 0
M  V30 1291 O 126.31 0.967558 -2.33226 0
M  V30 1292 C 127.623 -2.25065 -1.99415 0
M  V30 1293 C 129.171 -2.29861 -2.12446 0
M  V30 1294 C 129.646 -3.52048 -2.92961 0
M  V30 1295 N 131.137 -3.52465 -3.00538 0
M  V30 1296 C 131.872 -4.43672 -3.63239 0
M  V30 1297 N 131.368 -5.45157 -4.27523 0
M  V30 1298 N 133.161 -4.31346 -3.60412 0
M  V30 1299 H 125.312 -2.07951 -0.432471 0
M  V30 1300 H 127.575 -0.91339 -0.253816 0
M  V30 1301 H 127.281 -3.18194 -1.49817 0
M  V30 1302 H 127.155 -2.28502 -3.00111 0
M  V30 1303 H 129.542 -1.37252 -2.61239 0
M  V30 1304 H 129.623 -2.3044 -1.11044 0
M  V30 1305 H 129.267 -4.44981 -2.44856 0
M  V30 1306 H 129.197 -3.48715 -3.94596 0
M  V30 1307 H 131.688 -2.79056 -2.54826 0
M  V30 1308 H 132.001 -6.10958 -4.73234 0
M  V30 1309 H 130.346 -5.49025 -4.26141 0
M  V30 1310 H 133.537 -3.51288 -3.09377 0
M  V30 1311 H 133.71 -5.02624 -4.0899 0
M  V30 1312 N 127.117 1.15442 -1.07289 0
M  V30 1313 C 128.364 1.86213 -0.795668 0
M  V30 1314 C 128.692 1.82291 0.678238 0
M  V30 1315 O 127.947 1.24057 1.51355 0
M  V30 1316 C 128.246 3.3489 -1.24834 0
M  V30 1317 C 127.912 3.59007 -2.72809 0
M  V30 1318 C 126.574 3.65298 -3.13227 0
M  V30 1319 C 128.926 3.68762 -3.68326 0
M  V30 1320 C 126.254 3.78854 -4.4798 0
M  V30 1321 C 128.606 3.83842 -5.0284 0
M  V30 1322 C 127.27 3.88378 -5.4288 0
M  V30 1323 H 126.54 0.681403 -0.291155 0
M  V30 1324 H 129.187 1.36435 -1.34379 0
M  V30 1325 H 127.492 3.8687 -0.619595 0
M  V30 1326 H 129.189 3.88052 -1.01076 0
M  V30 1327 H 125.779 3.5475 -2.40521 0
M  V30 1328 H 129.963 3.63202 -3.38227 0
M  V30 1329 H 125.219 3.80623 -4.78472 0
M  V30 1330 H 129.393 3.90332 -5.76727 0
M  V30 1331 H 127.02 3.98635 -6.47298 0
M  V30 1332 N 128.595 0.856903 1.32268 0
M  V30 1333 C 129.82 0.474569 2.01897 0
M  V30 1334 C 130.245 -0.921766 1.63967 0
M  V30 1335 O 129.603 -1.60589 0.84148 0
M  V30 1336 C 129.651 0.623799 3.55164 0
M  V30 1337 O 128.755 -0.342459 4.10976 0
M  V30 1338 H 128.096 0.190422 0.63611 0
M  V30 1339 H 130.626 1.15672 1.68764 0
M  V30 1340 H 130.636 0.512169 4.04773 0
M  V30 1341 H 129.311 1.64202 3.82113 0
M  V30 1342 H 127.888 -0.18688 3.72431 0
M  V30 1343 N 130.073 -1.45103 0.615059 0
M  V30 1344 C 131.321 -2.01784 0.112955 0
M  V30 1345 C 131.642 -1.48504 -1.26378 0
M  V30 1346 O 130.912 -0.682245 -1.83636 0
M  V30 1347 H 129.492 -0.745993 0.0387668 0
M  V30 1348 H 132.154 -1.77808 0.798141 0
M  V30 1349 H 131.25 -3.12025 0.0684069 0
M  V30 1350 N 131.551 -0.354651 -1.53558 0
M  V30 1351 C 132.776 0.242153 -2.05981 0
M  V30 1352 C 133.201 1.42553 -1.2272 0
M  V30 1353 O 132.559 1.79656 -0.243604 0
M  V30 1354 C 132.607 0.624367 -3.55154 0
M  V30 1355 O 131.711 1.72301 -3.74681 0
M  V30 1356 H 131.052 0.0378432 -0.662921 0
M  V30 1357 H 133.582 -0.512087 -1.98088 0
M  V30 1358 H 133.592 0.898433 -3.97985 0
M  V30 1359 H 132.267 -0.240989 -4.15201 0
M  V30 1360 H 130.844 1.44535 -3.4375 0
M  V30 1361 N 133.029 1.57378 -0.0835403 0
M  V30 1362 C 134.277 1.93547 0.581718 0
M  V30 1363 C 134.598 0.96524 1.69435 0
M  V30 1364 O 133.868 0.0153369 1.95894 0
M  V30 1365 H 132.448 0.714521 0.217874 0
M  V30 1366 H 135.11 1.94366 -0.144158 0
M  V30 1367 H 134.206 2.95665 0.999423 0
M  V30 1368 N 134.507 -0.190092 1.56449 0
M  V30 1369 C 135.732 -0.929864 1.85387 0
M  V30 1370 C 136.157 -1.7585 0.667704 0
M  V30 1371 O 135.515 -1.77198 -0.383459 0
M  V30 1372 C 135.563 -1.79773 3.12593 0
M  V30 1373 O 134.667 -2.89713 2.93496 0
M  V30 1374 H 134.008 -0.261574 0.610307 0
M  V30 1375 H 136.538 -0.193896 2.03679 0
M  V30 1376 H 136.548 -2.20139 3.43515 0
M  V30 1377 H 135.223 -1.18892 3.98544 0
M  V30 1378 H 133.8 -2.53065 2.73884 0
M  V30 1379 N 135.985 -1.50799 -0.457987 0
M  V30 1380 C 137.233 -1.62121 -1.2067 0
M  V30 1381 C 137.554 -0.329793 -1.92191 0
M  V30 1382 O 136.824 0.653409 -1.84682 0
M  V30 1383 H 135.404 -0.597441 -0.448411 0
M  V30 1384 H 138.066 -1.87637 -0.527096 0
M  V30 1385 H 137.162 -2.43882 -1.94751 0
M  V30 1386 N 137.463 0.71206 -1.40597 0
M  V30 1387 C 138.691 1.50111 -1.42388 0
M  V30 1388 C 139.106 1.88784 -0.0245395 0
M  V30 1389 O 138.463 1.55681 0.952351 0
M  V30 1390 C 138.514 2.7742 -2.31776 0
M  V30 1391 O 138.235 2.40382 -3.66262 0
M  V30 1392 C 139.736 3.7129 -2.42196 0
M  V30 1393 H 136.956 0.46314 -0.485533 0
M  V30 1394 H 139.5 0.878068 -1.8469 0
M  V30 1395 H 137.655 3.36001 -1.92827 0
M  V30 1396 H 138.069 3.22324 -4.13772 0
M  V30 1397 H 139.543 4.57448 -3.08943 0
M  V30 1398 H 140.02 4.14641 -1.44809 0
M  V30 1399 H 140.626 3.18619 -2.81712 0
M  V30 1400 N 138.941 1.26152 0.944643 0
M  V30 1401 C 140.218 1.02247 1.66748 0
M  V30 1402 C 140.598 -0.448202 2.06287 0
M  V30 1403 O 139.946 -1.42779 1.78399 0
M  V30 1404 C 140.156 1.96788 2.88228 0
M  V30 1405 C 141.504 2.25201 3.59958 0
M  V30 1406 O 142.528 1.94626 2.98327 0
M  V30 1407 O 141.387 2.77242 4.70956 0
M  V30 1408 H 138.481 0.388517 0.730057 0
M  V30 1409 H 141.027 1.37348 0.99668 0
M  V30 1410 H 139.799 2.96047 2.55875 0
M  V30 1411 H 139.422 1.62145 3.63035 0
M  V30 1412 N 140.419 -1.14872 1.07899 0
M  V30 1413 C 141.666 -1.85789 0.805532 0
M  V30 1414 C 141.994 -1.82649 -0.668561 0
M  V30 1415 O 141.249 -1.24858 -1.50695 0
M  V30 1416 C 141.548 -3.34223 1.26609 0
M  V30 1417 C 141.214 -3.57555 2.74709 0
M  V30 1418 C 139.876 -3.63631 3.1516 0
M  V30 1419 C 142.228 -3.66803 3.70277 0
M  V30 1420 C 139.556 -3.76473 4.49983 0
M  V30 1421 C 141.908 -3.8117 5.04869 0
M  V30 1422 C 140.572 -3.85494 5.44932 0
M  V30 1423 H 139.842 -0.679849 0.294765 0
M  V30 1424 H 142.489 -1.3572 1.35101 0
M  V30 1425 H 140.794 -3.86536 0.640103 0
M  V30 1426 H 142.491 -3.87511 1.03132 0
M  V30 1427 H 139.081 -3.5347 2.42398 0
M  V30 1428 H 143.265 -3.61404 3.40149 0
M  V30 1429 H 138.521 -3.7808 4.80484 0
M  V30 1430 H 142.695 -3.87268 5.78789 0
M  V30 1431 H 140.322 -3.95197 6.49403 0
M  V30 1432 N 141.898 -0.863906 -1.31812 0
M  V30 1433 C 143.126 -0.486111 -2.01108 0
M  V30 1434 C 143.541 0.919755 -1.64882 0
M  V30 1435 O 142.898 1.60162 -0.874893 0
M  V30 1436 C 142.949 -0.626435 -3.56031 0
M  V30 1437 O 142.67 -1.97693 -3.90959 0
M  V30 1438 C 144.171 -0.248857 -4.42601 0
M  V30 1439 H 141.391 -0.190052 -0.643523 0
M  V30 1440 H 143.935 -1.1634 -1.68182 0
M  V30 1441 H 142.09 0.00322717 -3.874 0
M  V30 1442 H 142.504 -1.98034 -4.85678 0
M  V30 1443 H 143.978 -0.398016 -5.50563 0
M  V30 1444 H 144.455 0.811489 -4.31638 0
M  V30 1445 H 145.061 -0.853971 -4.16638 0
M  V30 1446 N 143.376 1.44774 -0.622745 0
M  V30 1447 C 144.306 2.33382 0.0741861 0
M  V30 1448 C 145.287 1.47719 0.843387 0
M  V30 1449 O 146.472 1.76458 0.810934 0
M  V30 1450 C 143.602 3.30663 1.06204 0
M  V30 1451 C 142.556 4.26079 0.405037 0
M  V30 1452 C 141.882 5.13165 1.5022 0
M  V30 1453 C 143.182 5.1781 -0.683414 0
M  V30 1454 H 144.876 2.91905 -0.665713 0
M  V30 1455 H 142.422 1.40363 -0.321587 0
M  V30 1456 H 144.375 3.9153 1.55827 0
M  V30 1457 H 143.099 2.70331 1.83272 0
M  V30 1458 H 141.758 3.66532 -0.0704683 0
M  V30 1459 H 141.406 4.49191 2.26355 0
M  V30 1460 H 141.106 5.77812 1.06803 0
M  V30 1461 H 142.63 5.76902 2.00041 0
M  V30 1462 H 144.044 5.72661 -0.270631 0
M  V30 1463 H 142.441 5.91015 -1.04023 0
M  V30 1464 H 143.511 4.59326 -1.55395 0
M  V30 1465 N 144.854 0.36279 1.53368 0
M  V30 1466 C 145.801 -0.485008 2.25646 0
M  V30 1467 C 146.771 -1.07982 1.2621 0
M  V30 1468 O 147.956 -1.11284 1.54986 0
M  V30 1469 C 145.096 -1.62023 3.04701 0
M  V30 1470 C 144.209 -1.05086 4.19024 0
M  V30 1471 C 143.344 -2.15496 4.85525 0
M  V30 1472 C 142.383 -1.5601 5.91884 0
M  V30 1473 N 141.52 -2.60241 6.52088 0
M  V30 1474 H 146.36 0.137864 2.97681 0
M  V30 1475 H 143.897 0.0798061 1.46883 0
M  V30 1476 H 145.855 -2.28887 3.48807 0
M  V30 1477 H 144.485 -2.2138 2.34927 0
M  V30 1478 H 143.537 -0.27259 3.79422 0
M  V30 1479 H 144.849 -0.575926 4.95464 0
M  V30 1480 H 144.003 -2.90186 5.32801 0
M  V30 1481 H 142.742 -2.66341 4.08551 0
M  V30 1482 H 141.747 -0.798338 5.43973 0
M  V30 1483 H 142.972 -1.05994 6.70777 0
M  V30 1484 H 140.918 -3.10304 5.77968 0
M  V30 1485 H 140.835 -2.17426 7.24059 0
M  V30 1486 H 142.103 -3.34641 7.04014 0
M  V30 1487 N 146.332 -1.57332 0.0918853 0
M  V30 1488 C 147.581 -1.93412 -0.572249 0
M  V30 1489 C 147.894 -0.975515 -1.69538 0
M  V30 1490 O 149.1 -1.22991 -2.42045 0
M  V30 1491 C 147.556 -3.43648 -1.0693 0
M  V30 1492 C 147.164 -4.47994 0.0239049 0
M  V30 1493 C 148.908 -3.88695 -1.70635 0
M  V30 1494 C 146.815 -5.89381 -0.488319 0
M  V30 1495 H 145.745 -0.721939 -0.217532 0
M  V30 1496 H 148.396 -1.82735 0.167369 0
M  V30 1497 H 146.778 -3.49466 -1.8625 0
M  V30 1498 H 147.952 -4.53815 0.799277 0
M  V30 1499 H 146.267 -4.12536 0.565946 0
M  V30 1500 H 148.864 -4.91725 -2.10025 0
M  V30 1501 H 149.207 -3.27166 -2.57426 0
M  V30 1502 H 149.74 -3.85564 -0.979023 0
M  V30 1503 H 146.479 -6.54602 0.342906 0
M  V30 1504 H 145.999 -5.87037 -1.23077 0
M  V30 1505 H 147.678 -6.39863 -0.958317 0
M  V30 1506 N 147.81 0.181792 -1.56548 0
M  V30 1507 C 149.035 0.920019 -1.85877 0
M  V30 1508 C 149.46 1.75494 -0.677021 0
M  V30 1509 O 148.818 1.77399 0.374056 0
M  V30 1510 C 148.866 1.78112 -3.13542 0
M  V30 1511 O 147.97 2.88152 -2.95029 0
M  V30 1512 H 147.311 0.258334 -0.611686 0
M  V30 1513 H 149.841 0.183092 -2.03779 0
M  V30 1514 H 149.851 2.18314 -3.44678 0
M  V30 1515 H 148.526 1.16777 -3.99169 0
M  V30 1516 H 147.103 2.51609 -2.75222 0
M  V30 1517 N 149.288 1.51039 0.449983 0
M  V30 1518 C 150.704 1.38934 0.785462 0
M  V30 1519 C 150.904 0.461817 1.96136 0
M  V30 1520 O 149.96 -0.0877389 2.52348 0
M  V30 1521 C 151.273 2.80724 1.0777 0
M  V30 1522 C 152.821 2.89787 1.1829 0
M  V30 1523 C 153.296 4.32457 1.50815 0
M  V30 1524 N 154.787 4.35505 1.57764 0
M  V30 1525 C 155.522 5.42914 1.84477 0
M  V30 1526 N 155.018 6.60502 2.09068 0
M  V30 1527 N 156.811 5.3038 1.86155 0
M  V30 1528 H 148.962 2.09904 -0.324647 0
M  V30 1529 H 151.225 0.944378 -0.0827957 0
M  V30 1530 H 150.931 3.50531 0.286498 0
M  V30 1531 H 150.805 3.19273 2.00859 0
M  V30 1532 H 153.192 2.20186 1.96474 0
M  V30 1533 H 153.273 2.54752 0.231314 0
M  V30 1534 H 152.917 5.02603 0.731622 0
M  V30 1535 H 152.847 4.64995 2.47158 0
M  V30 1536 H 155.338 3.50724 1.40715 0
M  V30 1537 H 155.651 7.38158 2.28785 0
M  V30 1538 H 153.996 6.63639 2.06416 0
M  V30 1539 H 157.187 4.37505 1.66454 0
M  V30 1540 H 157.36 6.1417 2.06637 0
M  V30 1541 N 150.766 -0.704594 1.40972 0
M  V30 1542 C 152.012 -1.46675 1.40051 0
M  V30 1543 C 152.345 -1.94199 0.00641102 0
M  V30 1544 O 151.62 -1.68916 -0.964235 0
M  V30 1545 C 151.903 -2.68505 2.39952 0
M  V30 1546 C 151.756 -2.26805 3.88432 0
M  V30 1547 C 153.075 -3.70686 2.37233 0
M  V30 1548 H 150.194 -0.532015 0.510028 0
M  V30 1549 H 152.836 -0.803255 1.72185 0
M  V30 1550 H 150.986 -3.25114 2.1268 0
M  V30 1551 H 152.658 -1.75592 4.26574 0
M  V30 1552 H 150.901 -1.58685 4.03734 0
M  V30 1553 H 151.572 -3.14181 4.53866 0
M  V30 1554 H 154.048 -3.23731 2.61415 0
M  V30 1555 H 152.924 -4.53553 3.09162 0
M  V30 1556 H 153.185 -4.19754 1.38777 0
M  V30 1557 N 152.244 -1.26651 -0.937939 0
M  V30 1558 C 153.154 -1.10276 -2.07066 0
M  V30 1559 C 154.17 -0.0354197 -1.73964 0
M  V30 1560 O 155.346 -0.239816 -1.99967 0
M  V30 1561 C 152.411 -0.740887 -3.38691 0
M  V30 1562 C 151.472 -1.88799 -3.85556 0
M  V30 1563 C 150.705 -1.54329 -5.10899 0
M  V30 1564 O 150.928 -0.446494 -5.6865 0
M  V30 1565 O 149.862 -2.37911 -5.52885 0
M  V30 1566 H 153.688 -2.05309 -2.23789 0
M  V30 1567 H 151.273 -1.05743 -1.0554 0
M  V30 1568 H 153.155 -0.55195 -4.1777 0
M  V30 1569 H 151.83 0.180022 -3.23199 0
M  V30 1570 H 150.737 -2.13191 -3.07409 0
M  V30 1571 H 152.07 -2.78874 -4.05574 0
M  V30 1572 N 153.722 1.14298 -1.08507 0
M  V30 1573 C 154.685 2.17607 -0.719711 0
M  V30 1574 C 155.685 1.58907 0.245997 0
M  V30 1575 O 156.875 1.74181 0.0254081 0
M  V30 1576 C 154.007 3.40842 -0.0627695 0
M  V30 1577 H 155.2 2.51443 -1.63452 0
M  V30 1578 H 152.753 1.28963 -0.88307 0
M  V30 1579 H 153.488 3.12587 0.863716 0
M  V30 1580 H 153.273 3.84713 -0.757504 0
M  V30 1581 H 154.763 4.17221 0.177786 0
M  V30 1582 N 155.201 0.870884 1.31352 0
M  V30 1583 C 156.111 0.330783 2.32256 0
M  V30 1584 C 157.127 -0.559767 1.6475 0
M  V30 1585 O 158.303 -0.456263 1.96164 0
M  V30 1586 C 155.368 -0.458137 3.4366 0
M  V30 1587 C 154.429 0.460482 4.26823 0
M  V30 1588 C 153.662 -0.290881 5.32907 0
M  V30 1589 O 153.885 -1.51885 5.49806 0
M  V30 1590 O 152.819 0.351732 6.00871 0
M  V30 1591 H 156.645 1.16718 2.80376 0
M  V30 1592 H 154.23 0.634285 1.35267 0
M  V30 1593 H 156.112 -0.905343 4.1156 0
M  V30 1594 H 154.787 -1.27106 2.97701 0
M  V30 1595 H 153.694 0.956207 3.61673 0
M  V30 1596 H 155.027 1.23903 4.7635 0
M  V30 1597 N 156.679 -1.44442 0.630414 0
M  V30 1598 C 157.956 -1.9549 0.0655657 0
M  V30 1599 C 158.336 -1.5724 -1.40851 0
M  V30 1600 O 157.684 -0.846116 -2.12257 0
M  V30 1601 C 157.894 -3.47812 0.287691 0
M  V30 1602 C 159.242 -4.24216 0.180513 0
M  V30 1603 O 160.266 -3.55526 0.219019 0
M  V30 1604 O 159.125 -5.46434 0.0848493 0
M  V30 1605 H 156.219 -0.826688 -0.0227177 0
M  V30 1606 H 158.765 -1.54496 0.702068 0
M  V30 1607 H 157.537 -3.687 1.31056 0
M  V30 1608 H 157.16 -3.95751 -0.382984 0
M  V30 1609 N 158.157 -0.370918 -1.53173 0
M  V30 1610 C 159.403 0.217423 -2.01631 0
M  V30 1611 C 159.736 1.47983 -1.25756 0
M  V30 1612 O 159.011 1.91274 -0.352764 0
M  V30 1613 C 159.294 0.503982 -3.56556 0
M  V30 1614 C 159.147 -0.77243 -4.43118 0
M  V30 1615 C 160.466 1.30234 -4.20389 0
M  V30 1616 H 157.585 0.0775486 -0.732909 0
M  V30 1617 H 160.227 -0.496863 -1.83388 0
M  V30 1618 H 158.377 1.11248 -3.72231 0
M  V30 1619 H 160.049 -1.4098 -4.39229 0
M  V30 1620 H 158.292 -1.39167 -4.10871 0
M  V30 1621 H 158.963 -0.526815 -5.4948 0
M  V30 1622 H 161.439 0.787546 -4.08579 0
M  V30 1623 H 160.315 1.47158 -5.28806 0
M  V30 1624 H 160.576 2.31237 -3.76805 0
M  V30 1625 N 159.635 1.57281 -0.100228 0
M  V30 1626 C 160.883 1.94153 0.561157 0
M  V30 1627 C 161.204 0.983157 1.68401 0
M  V30 1628 O 160.474 0.0361132 1.95867 0
M  V30 1629 H 159.054 0.716791 0.210283 0
M  V30 1630 H 161.716 1.94202 -0.164765 0
M  V30 1631 H 160.812 2.96709 0.968008 0
M  V30 1632 N 161.113 -0.173488 1.56642 0
M  V30 1633 C 162.359 -0.891784 1.8214 0
M  V30 1634 C 162.692 -1.8199 0.677736 0
M  V30 1635 O 161.967 -1.91842 -0.320446 0
M  V30 1636 C 162.25 -1.68933 3.18015 0
M  V30 1637 C 162.103 -0.784487 4.42906 0
M  V30 1638 C 163.422 -2.65748 3.50808 0
M  V30 1639 H 160.541 -0.322761 0.662567 0
M  V30 1640 H 163.183 -0.158095 1.89341 0
M  V30 1641 H 161.333 -2.31482 3.12007 0
M  V30 1642 H 163.005 -0.172046 4.60979 0
M  V30 1643 H 161.248 -0.0924117 4.33702 0
M  V30 1644 H 161.919 -1.37799 5.34524 0
M  V30 1645 H 164.395 -2.13327 3.57255 0
M  V30 1646 H 163.271 -3.18619 4.4696 0
M  V30 1647 H 163.532 -3.45842 2.75401 0
M  V30 1648 N 162.591 -1.51276 -0.441967 0
M  V30 1649 C 163.821 -1.67273 -1.21257 0
M  V30 1650 C 164.229 -0.367624 -1.85594 0
M  V30 1651 O 163.572 0.663349 -1.71305 0
M  V30 1652 C 163.634 -2.72807 -2.34129 0
M  V30 1653 C 163.298 -4.1554 -1.90198 0
M  V30 1654 C 164.295 -5.00471 -1.40801 0
M  V30 1655 C 161.98 -4.61616 -1.9803 0
M  V30 1656 C 163.974 -6.29536 -0.998174 0
M  V30 1657 C 161.661 -5.90679 -1.56658 0
M  V30 1658 C 162.659 -6.74466 -1.07633 0
M  V30 1659 O 162.347 -8.01116 -0.668459 0
M  V30 1660 H 162.079 -0.564614 -0.371734 0
M  V30 1661 H 164.633 -1.9843 -0.530521 0
M  V30 1662 H 162.863 -2.36954 -3.05597 0
M  V30 1663 H 164.552 -2.77729 -2.96009 0
M  V30 1664 H 165.318 -4.66079 -1.34148 0
M  V30 1665 H 161.197 -3.96526 -2.35135 0
M  V30 1666 H 164.741 -6.94885 -0.61482 0
M  V30 1667 H 160.638 -6.24586 -1.62979 0
M  V30 1668 H 161.406 -8.14633 -0.794722 0
M  V30 1669 N 164.069 0.697108 -1.41344 0
M  V30 1670 C 165.299 1.48377 -1.43763 0
M  V30 1671 C 165.707 1.89156 -0.0408726 0
M  V30 1672 O 165.05 1.57239 0.949812 0
M  V30 1673 C 165.112 2.7781 -2.2817 0
M  V30 1674 C 164.776 2.59244 -3.76353 0
M  V30 1675 C 165.773 2.25292 -4.68551 0
M  V30 1676 C 163.458 2.74933 -4.20378 0
M  V30 1677 C 165.452 2.07264 -6.02761 0
M  V30 1678 C 163.139 2.56521 -5.54653 0
M  V30 1679 C 164.137 2.22737 -6.4566 0
M  V30 1680 O 163.825 2.04485 -7.77458 0
M  V30 1681 H 163.557 0.463842 -0.491759 0
M  V30 1682 H 166.111 0.865934 -1.86255 0
M  V30 1683 H 164.341 3.41995 -1.8049 0
M  V30 1684 H 166.03 3.39608 -2.22309 0
M  V30 1685 H 166.796 2.12787 -4.35829 0
M  V30 1686 H 162.675 3.00213 -3.49848 0
M  V30 1687 H 166.219 1.80817 -6.73759 0
M  V30 1688 H 162.116 2.68616 -5.86955 0
M  V30 1689 H 162.884 2.1926 -7.88586 0
M  V30 1690 N 165.547 1.27147 0.931209 0
M  V30 1691 C 166.787 1.14511 1.69312 0
M  V30 1692 C 167.151 -0.304638 1.89568 0
M  V30 1693 O 168.352 -0.553343 2.63043 0
M  V30 1694 C 166.623 1.90349 3.02493 0
M  V30 1695 S 168.182 1.93884 3.93642 0
M  V30 1696 H 165 0.408858 0.581684 0
M  V30 1697 H 167.602 1.61006 1.10893 0
M  V30 1698 H 166.306 2.94877 2.85439 0
M  V30 1699 H 165.837 1.44333 3.65966 0
M  V30 1700 H 167.852 1.03273 4.85334 0
M  V30 1701 N 167.025 -1.13721 1.09112 0
M  V30 1702 C 167.958 -2.18094 0.67158 0
M  V30 1703 C 168.936 -1.59414 -0.320299 0
M  V30 1704 O 170.12 -1.87183 -0.222444 0
M  V30 1705 C 167.247 -3.38698 -0.0111189 0
M  V30 1706 C 166.293 -4.15966 0.942055 0
M  V30 1707 S 167.126 -4.7604 2.45246 0
M  V30 1708 C 168.282 -5.99994 1.78208 0
M  V30 1709 H 168.515 -2.53344 1.55577 0
M  V30 1710 H 166.048 -1.24967 0.906789 0
M  V30 1711 H 168.006 -4.08559 -0.398716 0
M  V30 1712 H 166.667 -3.01756 -0.871905 0
M  V30 1713 H 165.86 -5.02318 0.411396 0
M  V30 1714 H 165.462 -3.51745 1.2709 0
M  V30 1715 H 167.754 -6.68441 1.10424 0
M  V30 1716 H 168.697 -6.57662 2.62463 0
M  V30 1717 H 169.105 -5.50432 1.25238 0
M  V30 1718 N 168.503 -0.877838 -1.30888 0
M  V30 1719 C 169.435 -0.296607 -2.27273 0
M  V30 1720 C 170.448 0.544799 -1.53414 0
M  V30 1721 O 171.637 0.365511 -1.74718 0
M  V30 1722 C 168.737 0.597481 -3.33592 0
M  V30 1723 C 167.91 -0.213251 -4.3688 0
M  V30 1724 C 166.969 0.610208 -5.2265 0
M  V30 1725 O 165.995 0.035441 -5.69189 0
M  V30 1726 N 167.197 1.92071 -5.47804 0
M  V30 1727 H 169.962 -1.12492 -2.77787 0
M  V30 1728 H 167.523 -0.740105 -1.43993 0
M  V30 1729 H 169.515 1.15425 -3.87891 0
M  V30 1730 H 168.085 1.32647 -2.83061 0
M  V30 1731 H 167.305 -0.951466 -3.82545 0
M  V30 1732 H 168.593 -0.769262 -5.02951 0
M  V30 1733 H 167.991 2.4107 -5.11763 0
M  V30 1734 H 166.548 2.42508 -6.05007 0
M  V30 1735 N 169.982 1.44106 -0.638065 0
M  V30 1736 C 170.945 2.29138 0.0531013 0
M  V30 1737 C 171.945 1.41409 0.765506 0
M  V30 1738 O 173.135 1.63206 0.609046 0
M  V30 1739 C 170.267 3.23144 1.08584 0
M  V30 1740 H 171.46 2.91739 -0.694883 0
M  V30 1741 H 169.013 1.51134 -0.398538 0
M  V30 1742 H 169.748 2.65408 1.86357 0
M  V30 1743 H 169.533 3.87804 0.578852 0
M  V30 1744 H 171.023 3.87004 1.56899 0
M  V30 1745 N 171.46 0.379036 1.52974 0
M  V30 1746 C 172.39 -0.452706 2.29069 0
M  V30 1747 C 173.371 -1.07237 1.32039 0
M  V30 1748 O 174.556 -1.08708 1.60923 0
M  V30 1749 C 171.686 -1.5856 3.08992 0
M  V30 1750 C 170.64 -1.0925 4.13822 0
M  V30 1751 C 169.966 -2.31668 4.81907 0
M  V30 1752 C 171.266 -0.167702 5.22031 0
M  V30 1753 H 172.96 0.182181 2.98845 0
M  V30 1754 H 170.506 0.0890592 1.43724 0
M  V30 1755 H 172.459 -2.1742 3.6098 0
M  V30 1756 H 171.183 -2.24792 2.36931 0
M  V30 1757 H 169.842 -0.526494 3.628 0
M  V30 1758 H 169.49 -2.96386 4.06404 0
M  V30 1759 H 169.19 -1.9934 5.52754 0
M  V30 1760 H 170.714 -2.91189 5.36695 0
M  V30 1761 H 172.128 -0.664186 5.6944 0
M  V30 1762 H 170.525 0.0653265 6.00064 0
M  V30 1763 H 171.595 0.786347 4.78482 0
M  V30 1764 N 172.938 -1.57226 0.108567 0
M  V30 1765 C 173.87 -2.11809 -0.875752 0
M  V30 1766 C 174.883 -1.05839 -1.23701 0
M  V30 1767 O 176.072 -1.33245 -1.18778 0
M  V30 1768 C 173.172 -2.59411 -2.18081 0
M  V30 1769 C 172.345 -3.89364 -1.99284 0
M  V30 1770 C 171.404 -4.22672 -3.13424 0
M  V30 1771 O 170.43 -4.91668 -2.86795 0
M  V30 1772 N 171.632 -3.79154 -4.3957 0
M  V30 1773 H 174.397 -2.9689 -0.409477 0
M  V30 1774 H 171.958 -1.61721 -0.076158 0
M  V30 1775 H 173.95 -2.7873 -2.93414 0
M  V30 1776 H 172.52 -1.79268 -2.5609 0
M  V30 1777 H 171.74 -3.79059 -1.08203 0
M  V30 1778 H 173.028 -4.74358 -1.84017 0
M  V30 1779 H 172.426 -3.23486 -4.64083 0
M  V30 1780 H 170.983 -4.03602 -5.11809 0
M  V30 1781 N 174.416 0.165178 -1.56732 0
M  V30 1782 C 175.644 0.896218 -1.86482 0
M  V30 1783 C 176.059 1.75555 -0.694675 0
M  V30 1784 O 175.416 1.79379 0.33607 0
M  V30 1785 C 175.467 1.76792 -3.1532 0
M  V30 1786 O 175.188 0.943239 -4.27825 0
M  V30 1787 C 176.689 2.6081 -3.58459 0
M  V30 1788 H 173.909 0.260064 -0.618553 0
M  V30 1789 H 176.453 0.163428 -2.03846 0
M  V30 1790 H 174.608 2.45398 -2.99764 0
M  V30 1791 H 175.022 1.53998 -5.01383 0
M  V30 1792 H 176.496 3.17579 -4.51495 0
M  V30 1793 H 176.973 3.35977 -2.82872 0
M  V30 1794 H 177.579 1.97526 -3.76648 0
M  V30 1795 N 175.894 1.51508 0.433938 0
M  V30 1796 C 177.305 1.56784 1.01369 0
M  V30 1797 C 177.656 0.393349 1.92217 0
M  V30 1798 O 176.781 -0.489441 2.10792 0
M  V30 1799 C 177.376 2.84144 1.8452 0
M  V30 1800 C 175.935 2.9198 2.37539 0
M  V30 1801 C 175.082 2.51482 1.16843 0
M  V30 1802 H 178.033 1.57236 0.215081 0
M  V30 1803 H 178.054 2.68098 2.70007 0
M  V30 1804 H 177.566 3.69607 1.18373 0
M  V30 1805 H 175.667 2.10955 3.0713 0
M  V30 1806 H 175.78 3.95704 2.70103 0
M  V30 1807 H 174.144 2.04758 1.51481 0
M  V30 1808 H 174.927 3.39293 0.523015 0
M  V30 1809 O 177.411 -0.579713 1.50737 0
M  V30 1810 H 178.102 -1.23469 1.49249 0
M  V30 END ATOM
M  V30 BEGIN BOND
M  V30 END BOND
M  V30 END CTAB
M  END
$$$$
