drugbank_target|P01730 T-cell surface glycoprotein CD4 (DB00098; DB06241; DB12698)
 OpenBabel12092120333D

  0  0  0     0  0            999 V3000
M  V30 BEGIN CTAB
M  V30 COUNTS 7330 7395 0 0 0
M  V30 BEGIN ATOM
M  V30 1 H -0.908 1.98254 -0.117106 0
M  V30 2 N 0 1.576 0 0
M  V30 3 C 0.933 2.03868 1.02534 0
M  V30 4 C 1.911 0.928543 1.3348 0
M  V30 5 O 3.095 1.19667 1.45644 0
M  V30 6 C 0.222 2.43627 2.35294 0
M  V30 7 C -0.732 3.65373 2.2001 0
M  V30 8 S 0.101 5.13292 1.52614 0
M  V30 9 C 1.257 5.56322 2.86805 0
M  V30 10 H 1.49 2.90518 0.631377 0
M  V30 11 H -0.977 1.52953 0.210867 0
M  V30 12 H 0.981 2.67203 3.11629 0
M  V30 13 H -0.358 1.57376 2.7183 0
M  V30 14 H -1.165 3.90944 3.18086 0
M  V30 15 H -1.563 3.418 1.51819 0
M  V30 16 H 0.729 5.58782 3.83104 0
M  V30 17 H 1.672 6.56266 2.65933 0
M  V30 18 H 2.08 4.83886 2.90714 0
M  V30 19 N 1.4781 -0.272755 1.55222 0
M  V30 20 C 2.4261 -1.35705 1.88909 0
M  V30 21 C 3.4201 -1.5112 0.765456 0
M  V30 22 O 4.6261 -1.52901 0.949802 0
M  V30 23 H 1.0011 -0.453868 0.59959 0
M  V30 24 H 2.9721 -1.04544 2.79487 0
M  V30 25 C 1.7211 -2.71049 2.17779 0
M  V30 26 H 1.0441 -2.59979 3.03728 0
M  V30 27 H 2.4841 -3.45858 2.45272 0
M  V30 28 C 0.9431 -3.22165 0.985473 0
M  V30 29 O 1.4731 -4.01096 0.220233 0
M  V30 30 N -0.3209 -2.7985 0.783108 0
M  V30 31 H -0.7739 -2.15775 1.40708 0
M  V30 32 H -0.8159 -3.14397 -0.0130392 0
M  V30 33 N 2.9562 -1.48159 -0.537278 0
M  V30 34 C 4.3722 -1.34118 -0.865129 0
M  V30 35 C 4.5722 -0.346678 -1.98495 0
M  V30 36 O 3.6282 0.234715 -2.51407 0
M  V30 37 C 4.9412 -2.73963 -1.23954 0
M  V30 38 C 6.4892 -2.82397 -1.34984 0
M  V30 39 C 6.9642 -4.22928 -1.75772 0
M  V30 40 N 8.4552 -4.25566 -1.82887 0
M  V30 41 C 9.1902 -5.31235 -2.15817 0
M  V30 42 N 8.6862 -6.47189 -2.47222 0
M  V30 43 N 10.4792 -5.18624 -2.16761 0
M  V30 44 H 2.6302 -2.1144 0.201715 0
M  V30 45 H 4.8932 -0.947598 0.0275949 0
M  V30 46 H 4.5992 -3.48264 -0.490381 0
M  V30 47 H 4.4732 -3.0702 -2.19132 0
M  V30 48 H 6.8602 -2.08356 -2.08978 0
M  V30 49 H 6.9412 -2.5297 -0.379448 0
M  V30 50 H 6.5852 -4.97482 -1.02341 0
M  V30 51 H 6.5152 -4.49794 -2.73848 0
M  V30 52 H 9.0062 -3.41924 -1.60924 0
M  V30 53 H 9.3192 -7.23564 -2.71433 0
M  V30 54 H 7.6642 -6.50476 -2.44757 0
M  V30 55 H 10.8552 -4.27056 -1.91679 0
M  V30 56 H 11.0282 -6.01078 -2.42093 0
M  V30 57 N 4.4343 0.785586 -1.36625 0
M  V30 58 C 5.6823 1.54057 -1.30808 0
M  V30 59 C 6.0033 1.94683 0.111157 0
M  V30 60 O 5.2733 1.65241 1.05224 0
M  V30 61 H 3.8533 0.571354 -0.481211 0
M  V30 62 H 6.5153 0.935821 -1.70963 0
M  V30 63 H 5.6113 2.44637 -1.93801 0
M  V30 64 N 5.9124 1.20967 1.01018 0
M  V30 65 C 7.1584 1.02526 1.74975 0
M  V30 66 C 7.4914 -0.4408 1.89131 0
M  V30 67 O 6.7664 -1.32718 1.42184 0
M  V30 68 C 7.0494 1.71699 3.1653 0
M  V30 69 C 6.9024 3.25791 3.10129 0
M  V30 70 C 8.2214 1.45531 4.15342 0
M  V30 71 H 5.3404 0.373863 0.635134 0
M  V30 72 H 7.9824 1.49071 1.17805 0
M  V30 73 H 6.1324 1.32128 3.65341 0
M  V30 74 H 7.8044 3.74697 2.69072 0
M  V30 75 H 6.0474 3.56363 2.47362 0
M  V30 76 H 6.7184 3.69353 4.10222 0
M  V30 77 H 9.1944 1.79872 3.75213 0
M  V30 78 H 8.0704 1.96453 5.1254 0
M  V30 79 H 8.3314 0.384237 4.40427 0
M  V30 80 N 7.3905 -1.2043 1.01659 0
M  V30 81 C 8.8015 -1.71517 0.737482 0
M  V30 82 C 9.1525 -1.81547 -0.743973 0
M  V30 83 O 8.2775 -1.47803 -1.58061 0
M  V30 84 C 8.8725 -3.11515 1.33206 0
M  V30 85 C 7.4315 -3.59912 1.10183 0
M  V30 86 C 6.5785 -2.37116 1.43776 0
M  V30 87 H 9.5295 -1.05444 1.18606 0
M  V30 88 H 9.5505 -3.73575 0.722636 0
M  V30 89 H 9.0625 -3.04182 2.41028 0
M  V30 90 H 7.1635 -3.72577 0.0412756 0
M  V30 91 H 7.2765 -4.44731 1.78188 0
M  V30 92 H 5.6405 -2.39857 0.856778 0
M  V30 93 H 6.4235 -2.32424 2.52654 0
M  V30 94 N 8.8686 -0.792821 -1.36206 0
M  V30 95 C 10.1156 -0.366786 -1.99151 0
M  V30 96 C 10.4436 1.06243 -1.62919 0
M  V30 97 O 9.6986 1.74927 -0.877442 0
M  V30 98 C 9.9976 -0.481501 -3.54142 0
M  V30 99 C 9.6636 -1.87202 -4.10203 0
M  V30 100 C 8.3256 -2.25248 -4.25226 0
M  V30 101 C 10.6776 -2.78237 -4.40719 0
M  V30 102 C 8.0056 -3.53723 -4.68078 0
M  V30 103 C 10.3576 -4.06144 -4.85005 0
M  V30 104 C 9.0216 -4.44207 -4.98234 0
M  V30 105 H 8.2916 -0.134217 -0.728743 0
M  V30 106 H 10.9386 -1.01094 -1.62641 0
M  V30 107 H 9.2436 0.246146 -3.91026 0
M  V30 108 H 10.9406 -0.132844 -4.0078 0
M  V30 109 H 7.5306 -1.56639 -3.98951 0
M  V30 110 H 11.7146 -2.50097 -4.28679 0
M  V30 111 H 6.9706 -3.8308 -4.76508 0
M  V30 112 H 11.1446 -4.76796 -5.07581 0
M  V30 113 H 8.7716 -5.43814 -5.31197 0
M  V30 114 N 10.3467 1.47872 -0.545128 0
M  V30 115 C 11.7627 1.5829 -0.204032 0
M  V30 116 C 11.9627 1.54529 1.29317 0
M  V30 117 O 11.0187 1.44232 2.07252 0
M  V30 118 C 12.3317 2.89304 -0.819987 0
M  V30 119 C 13.8797 3.02864 -0.790105 0
M  V30 120 C 14.3547 4.3656 -1.38491 0
M  V30 121 N 15.8457 4.43165 -1.34755 0
M  V30 122 C 16.5807 5.45153 -1.77753 0
M  V30 123 N 16.0767 6.54016 -2.2855 0
M  V30 124 N 17.8697 5.36125 -1.68897 0
M  V30 125 H 10.0207 1.4856 -1.51802 0
M  V30 126 H 12.2837 0.706305 -0.632327 0
M  V30 127 H 11.9897 2.97757 -1.87173 0
M  V30 128 H 11.8637 3.75957 -0.305915 0
M  V30 129 H 14.2507 2.94014 0.252913 0
M  V30 130 H 14.3317 2.17782 -1.34181 0
M  V30 131 H 13.9757 4.46164 -2.42693 0
M  V30 132 H 13.9057 5.20353 -0.808754 0
M  V30 133 H 16.3967 3.65083 -0.975855 0
M  V30 134 H 16.7097 7.27994 -2.59314 0
M  V30 135 H 15.0547 6.54938 -2.32553 0
M  V30 136 H 18.2457 4.49975 -1.28998 0
M  V30 137 H 18.4187 6.15472 -2.02726 0
M  V30 138 N 11.8248 0.280983 1.55075 0
M  V30 139 C 12.7748 -0.618585 2.19448 0
M  V30 140 C 13.7588 -1.11401 1.16098 0
M  V30 141 O 14.9508 -1.0581 1.41891 0
M  V30 142 C 12.0798 -1.79951 2.92357 0
M  V30 143 C 11.1658 -1.321 4.03002 0
M  V30 144 N 11.5568 -0.559044 5.02701 0
M  V30 145 C 9.8548 -1.60346 4.16179 0
M  V30 146 C 10.5558 -0.306722 5.80891 0
M  V30 147 N 9.5318 -0.880825 5.36416 0
M  V30 148 H 13.3338 -0.0286638 2.93886 0
M  V30 149 H 10.8478 0.0848104 1.62178 0
M  V30 150 H 12.8448 -2.45531 3.36927 0
M  V30 151 H 11.5048 -2.39333 2.19431 0
M  V30 152 H 12.5158 -0.205827 5.17491 0
M  V30 153 H 9.1928 -2.20621 3.54447 0
M  V30 154 H 10.5828 0.30391 6.71212 0
M  V30 155 N 13.3029 -1.57598 0.00835791 0
M  V30 156 C 14.2329 -2.1198 -0.979113 0
M  V30 157 C 15.2139 -1.03091 -1.35301 0
M  V30 158 O 16.3989 -1.30818 -1.43528 0
M  V30 159 C 13.5289 -2.62995 -2.26828 0
M  V30 160 C 12.4829 -3.76485 -2.03576 0
M  V30 161 C 11.8089 -4.13846 -3.38579 0
M  V30 162 C 13.1089 -5.0342 -1.39161 0
M  V30 163 H 14.8029 -2.94738 -0.526281 0
M  V30 164 H 12.3489 -1.41783 -0.251704 0
M  V30 165 H 14.3019 -2.99669 -2.96271 0
M  V30 166 H 13.0259 -1.7737 -2.7424 0
M  V30 167 H 11.6849 -3.40217 -1.36557 0
M  V30 168 H 11.3329 -3.25232 -3.83709 0
M  V30 169 H 11.0329 -4.90312 -3.23834 0
M  V30 170 H 12.5569 -4.53086 -4.09323 0
M  V30 171 H 13.9709 -5.37812 -1.98573 0
M  V30 172 H 12.3679 -5.84746 -1.34878 0
M  V30 173 H 13.4379 -4.83548 -0.361868 0
M  V30 174 N 14.781 0.264519 -1.55364 0
M  V30 175 C 15.711 1.33121 -1.91836 0
M  V30 176 C 16.692 1.51101 -0.781192 0
M  V30 177 O 17.877 1.64003 -1.04003 0
M  V30 178 C 15.007 2.68921 -2.19769 0
M  V30 179 C 13.961 2.65661 -3.35571 0
M  V30 180 C 13.287 4.05093 -3.49004 0
M  V30 181 C 14.587 2.24187 -4.71739 0
M  V30 182 H 16.281 1.02844 -2.81182 0
M  V30 183 H 13.827 0.493286 -1.35287 0
M  V30 184 H 15.78 3.43663 -2.43872 0
M  V30 185 H 14.504 3.00799 -1.27231 0
M  V30 186 H 13.163 1.93377 -3.1145 0
M  V30 187 H 12.811 4.34206 -2.53917 0
M  V30 188 H 12.511 4.03804 -4.26868 0
M  V30 189 H 14.035 4.81561 -3.75408 0
M  V30 190 H 15.449 2.88654 -4.9533 0
M  V30 191 H 13.846 2.34044 -5.52579 0
M  V30 192 H 14.916 1.19327 -4.69988 0
M  V30 193 N 16.2591 1.48442 0.529413 0
M  V30 194 C 17.1891 1.65902 1.64313 0
M  V30 195 C 18.1701 0.507897 1.6234 0
M  V30 196 O 19.3551 0.740503 1.79528 0
M  V30 197 C 16.4851 1.69911 3.02898 0
M  V30 198 C 15.4391 2.8453 3.19729 0
M  V30 199 C 14.7651 2.73629 4.59381 0
M  V30 200 C 16.0651 4.25821 3.02447 0
M  V30 201 H 17.7591 2.5914 1.49955 0
M  V30 202 H 15.3051 1.24709 0.719982 0
M  V30 203 H 17.2581 1.80715 3.80684 0
M  V30 204 H 15.9821 0.732524 3.18279 0
M  V30 205 H 14.6411 2.73283 2.44361 0
M  V30 206 H 14.2891 1.74938 4.71599 0
M  V30 207 H 13.9891 3.50541 4.71588 0
M  V30 208 H 15.5131 2.86401 5.39265 0
M  V30 209 H 16.9271 4.37898 3.70024 0
M  V30 210 H 15.3241 5.03735 3.26146 0
M  V30 211 H 16.3941 4.42244 1.98867 0
M  V30 212 N 17.7372 -0.778329 1.37039 0
M  V30 213 C 18.9832 -1.53892 1.32079 0
M  V30 214 C 19.3162 -1.9396 -0.0965386 0
M  V30 215 O 18.5912 -1.63568 -1.05242 0
M  V30 216 C 18.8742 -2.80847 2.25382 0
M  V30 217 C 18.7272 -2.47076 3.75864 0
M  V30 218 C 20.0462 -3.82741 2.1725 0
M  V30 219 H 17.1652 -0.558303 0.48111 0
M  V30 220 H 19.8072 -0.893397 1.67685 0
M  V30 221 H 17.9572 -3.35931 1.95148 0
M  V30 222 H 19.6292 -1.97957 4.16666 0
M  V30 223 H 17.8722 -1.79863 3.94755 0
M  V30 224 H 18.5432 -3.37798 4.36574 0
M  V30 225 H 21.0192 -3.37133 2.43887 0
M  V30 226 H 19.8952 -4.69303 2.84686 0
M  V30 227 H 20.1562 -4.2652 1.16331 0
M  V30 228 N 19.2153 -1.21501 -1.00376 0
M  V30 229 C 20.1453 -0.999478 -2.11028 0
M  V30 230 C 21.1263 0.0759671 -1.6993 0
M  V30 231 O 22.3113 -0.0841106 -1.94018 0
M  V30 232 C 19.4413 -0.564709 -3.42678 0
M  V30 233 C 18.3953 -1.58486 -3.97576 0
M  V30 234 C 17.7213 -1.00628 -5.25146 0
M  V30 235 C 19.0213 -2.97204 -4.29496 0
M  V30 236 H 20.7153 -1.92495 -2.29317 0
M  V30 237 H 18.2613 -0.92693 -1.102 0
M  V30 238 H 20.2143 -0.401091 -4.19487 0
M  V30 239 H 18.9383 0.396411 -3.24185 0
M  V30 240 H 17.5973 -1.73606 -3.22888 0
M  V30 241 H 17.2453 -0.0368439 -5.02987 0
M  V30 242 H 16.9453 -1.68771 -5.62841 0
M  V30 243 H 18.4693 -0.854015 -6.04598 0
M  V30 244 H 19.8833 -2.8552 -4.97143 0
M  V30 245 H 18.2803 -3.62372 -4.78338 0
M  V30 246 H 19.3503 -3.47956 -3.3772 0
M  V30 247 N 20.6934 1.19889 -1.02296 0
M  V30 248 C 21.6254 2.22334 -0.556787 0
M  V30 249 C 22.6384 1.58674 0.364199 0
M  V30 250 O 23.8274 1.77768 0.161533 0
M  V30 251 C 20.9274 3.38257 0.208694 0
M  V30 252 C 20.1004 4.31504 -0.71577 0
M  V30 253 C 19.1594 5.262 0.00325597 0
M  V30 254 O 18.1854 5.65798 -0.621357 0
M  V30 255 N 19.3874 5.66303 1.27599 0
M  V30 256 H 22.1524 2.62957 -1.43784 0
M  V30 257 H 19.7134 1.34495 -0.901261 0
M  V30 258 H 21.7054 3.98616 0.699111 0
M  V30 259 H 20.2754 2.96472 0.991102 0
M  V30 260 H 19.4954 3.69016 -1.38638 0
M  V30 261 H 20.7834 4.9072 -1.34428 0
M  V30 262 H 20.1814 5.36155 1.80429 0
M  V30 263 H 18.7384 6.28942 1.71102 0
M  V30 264 N 22.1715 0.800033 1.35784 0
M  V30 265 C 23.1015 0.220184 2.3246 0
M  V30 266 C 24.0825 -0.65073 1.57161 0
M  V30 267 O 25.2675 -0.582359 1.85263 0
M  V30 268 C 22.3975 -0.637353 3.41402 0
M  V30 269 C 21.3515 0.134531 4.27789 0
M  V30 270 C 20.6775 -0.844285 5.27992 0
M  V30 271 C 21.9775 1.32979 5.05088 0
M  V30 272 H 23.6715 1.02787 2.81203 0
M  V30 273 H 21.2175 0.495717 1.35199 0
M  V30 274 H 23.1705 -1.05302 4.08031 0
M  V30 275 H 21.8945 -1.47785 2.91251 0
M  V30 276 H 20.5535 0.531296 3.6273 0
M  V30 277 H 20.2015 -1.68011 4.74111 0
M  V30 278 H 19.9015 -0.332184 5.8666 0
M  V30 279 H 21.4255 -1.2583 5.97494 0
M  V30 280 H 22.8395 0.98934 5.64699 0
M  V30 281 H 21.2365 1.77593 5.7322 0
M  V30 282 H 22.3065 2.11978 4.36111 0
M  V30 283 N 23.6496 -1.47581 0.552962 0
M  V30 284 C 24.6126 -2.28439 -0.186605 0
M  V30 285 C 25.6126 -1.36706 -0.84665 0
M  V30 286 O 26.8026 -1.59378 -0.703164 0
M  V30 287 C 23.9346 -3.16264 -1.2724 0
M  V30 288 H 25.1276 -2.95294 0.523609 0
M  V30 289 H 22.6806 -1.532 0.309745 0
M  V30 290 H 23.4156 -2.54091 -2.01514 0
M  V30 291 H 23.2006 -3.83769 -0.803968 0
M  V30 292 H 24.6906 -3.77198 -1.79196 0
M  V30 293 N 25.1277 -0.289203 -1.54924 0
M  V30 294 C 26.0577 0.58549 -2.2604 0
M  V30 295 C 27.0387 1.14753 -1.25562 0
M  V30 296 O 28.2237 1.17906 -1.54311 0
M  V30 297 C 25.3537 1.76305 -2.99222 0
M  V30 298 C 24.3077 1.33191 -4.06748 0
M  V30 299 C 23.6337 2.5937 -4.6758 0
M  V30 300 C 24.9337 0.471775 -5.20165 0
M  V30 301 H 26.6277 -0.00763532 -2.99399 0
M  V30 302 H 24.1737 -0.00511229 -1.43999 0
M  V30 303 H 26.1267 2.38097 -3.47689 0
M  V30 304 H 24.8507 2.38223 -2.23422 0
M  V30 305 H 23.5097 0.737121 -3.59113 0
M  V30 306 H 23.1577 3.19576 -3.88433 0
M  V30 307 H 22.8577 2.31228 -5.40192 0
M  V30 308 H 24.3817 3.21985 -5.18804 0
M  V30 309 H 25.7957 0.995056 -5.64599 0
M  V30 310 H 24.1927 0.284639 -5.99425 0
M  V30 311 H 25.2627 -0.506041 -4.82252 0
M  V30 312 N 26.6058 1.57591 -0.0167156 0
M  V30 313 C 27.5358 2.12496 0.967858 0
M  V30 314 C 28.5168 1.03807 1.34752 0
M  V30 315 O 29.7018 1.31577 1.42833 0
M  V30 316 C 26.8318 2.64194 2.25431 0
M  V30 317 C 25.7858 3.77559 2.01576 0
M  V30 318 C 25.1118 4.15636 3.36379 0
M  V30 319 C 26.4118 5.04151 1.36489 0
M  V30 320 H 28.1058 2.95013 0.510643 0
M  V30 321 H 25.6518 1.41915 0.244181 0
M  V30 322 H 27.6048 3.01236 2.94678 0
M  V30 323 H 26.3288 1.78821 2.73296 0
M  V30 324 H 24.9878 3.40937 1.34751 0
M  V30 325 H 24.6358 3.27263 3.81979 0
M  V30 326 H 24.3358 4.92022 3.21229 0
M  V30 327 H 25.8598 4.5525 4.06915 0
M  V30 328 H 27.2738 5.38857 1.95718 0
M  V30 329 H 25.6708 5.85453 1.31776 0
M  V30 330 H 26.7408 4.83733 0.336219 0
M  V30 331 N 28.0839 -0.256276 1.55502 0
M  V30 332 C 29.4949 -0.826068 1.67431 0
M  V30 333 C 29.8459 -1.86396 0.612446 0
M  V30 334 O 28.9709 -2.15031 -0.243025 0
M  V30 335 C 29.5659 -1.50512 3.03532 0
M  V30 336 C 28.1249 -2.02273 3.17431 0
M  V30 337 C 27.2719 -0.870548 2.63281 0
M  V30 338 H 30.2229 -0.0322728 1.58667 0
M  V30 339 H 30.2439 -2.37279 2.97454 0
M  V30 340 H 29.7559 -0.749484 3.80794 0
M  V30 341 H 27.8569 -2.80746 2.44974 0
M  V30 342 H 27.9699 -2.22655 4.24219 0
M  V30 343 H 26.3339 -1.26851 2.20864 0
M  V30 344 H 27.1169 -0.128149 3.43061 0
M  V30 345 N 29.562 -1.4872 -0.521534 0
M  V30 346 C 30.525 -1.63379 -1.60748 0
M  V30 347 C 31.525 -0.50661 -1.52611 0
M  V30 348 O 32.715 -0.772601 -1.5613 0
M  V30 349 C 29.847 -1.61192 -3.00383 0
M  V30 350 H 31.04 -2.60217 -1.49087 0
M  V30 351 H 28.593 -1.37444 -0.744235 0
M  V30 352 H 29.328 -0.65863 -3.17541 0
M  V30 353 H 29.113 -2.43032 -3.07698 0
M  V30 354 H 30.603 -1.7466 -3.7932 0
M  V30 355 N 31.0401 0.771051 -1.3745 0
M  V30 356 C 32.0031 1.86598 -1.33093 0
M  V30 357 C 33.0031 1.59076 -0.234845 0
M  V30 358 O 34.1931 1.67145 -0.490732 0
M  V30 359 C 31.3251 3.23747 -1.06773 0
M  V30 360 H 32.5181 1.91873 -2.30488 0
M  V30 361 H 30.0711 0.970876 -1.2249 0
M  V30 362 H 30.8061 3.24148 -0.099129 0
M  V30 363 H 30.5911 3.45115 -1.86112 0
M  V30 364 H 32.0811 4.03824 -1.06377 0
M  V30 365 N 32.5182 1.22032 0.997298 0
M  V30 366 C 33.7462 1.06841 1.7718 0
M  V30 367 C 34.1612 -0.381325 1.84909 0
M  V30 368 O 33.5182 -1.26437 1.31605 0
M  V30 369 C 33.5692 1.66814 3.20711 0
M  V30 370 O 33.2902 3.06116 3.13408 0
M  V30 371 C 34.7912 1.56838 4.14628 0
M  V30 372 H 32.0112 0.374782 0.556578 0
M  V30 373 H 34.5552 1.61532 1.2541 0
M  V30 374 H 32.7102 1.16196 3.69564 0
M  V30 375 H 33.1242 3.34926 4.0364 0
M  V30 376 H 34.5982 2.03532 5.13107 0
M  V30 377 H 35.0752 0.524155 4.36061 0
M  V30 378 H 35.6812 2.06741 3.7167 0
M  V30 379 N 33.9963 -1.19345 1.0293 0
M  V30 380 C 34.9283 -2.22036 0.56857 0
M  V30 381 C 35.9413 -1.58865 -0.355779 0
M  V30 382 O 37.1303 -1.77851 -0.152103 0
M  V30 383 C 34.2303 -3.38363 -0.190752 0
M  V30 384 C 33.4033 -4.31118 0.738643 0
M  V30 385 C 32.4623 -5.26194 0.0246497 0
M  V30 386 O 31.4883 -5.65461 0.651354 0
M  V30 387 N 32.6903 -5.66971 -1.24594 0
M  V30 388 H 35.4553 -2.6219 1.45177 0
M  V30 389 H 33.0163 -1.34015 0.908381 0
M  V30 390 H 35.0083 -3.98981 -0.677961 0
M  V30 391 H 33.5783 -2.96994 -0.975366 0
M  V30 392 H 32.7983 -3.68276 1.40593 0
M  V30 393 H 34.0863 -4.90001 1.37029 0
M  V30 394 H 33.4843 -5.37104 -1.77583 0
M  V30 395 H 32.0413 -6.2984 -1.67764 0
M  V30 396 N 35.4744 -0.807222 -1.35358 0
M  V30 397 C 36.7224 -0.387122 -1.98358 0
M  V30 398 C 37.0434 1.04942 -1.64354 0
M  V30 399 O 36.3134 1.72615 -0.926339 0
M  V30 400 H 34.8934 -0.140154 -0.733734 0
M  V30 401 H 37.5554 -1.0332 -1.6526 0
M  V30 402 H 36.6514 -0.493352 -3.08176 0
M  V30 403 N 36.9525 1.47285 -0.560781 0
M  V30 404 C 37.8995 2.30058 0.18491 0
M  V30 405 C 38.8695 1.39281 0.904986 0
M  V30 406 O 40.0545 1.68241 0.899979 0
M  V30 407 C 37.1945 3.23317 1.20666 0
M  V30 408 C 36.3075 4.29186 0.492285 0
M  V30 409 C 35.4425 5.09592 1.49964 0
M  V30 410 C 34.4815 6.07232 0.770439 0
M  V30 411 N 33.6185 6.80584 1.72479 0
M  V30 412 H 38.4585 2.93302 -0.527048 0
M  V30 413 H 35.9955 1.44568 -0.271738 0
M  V30 414 H 37.9535 3.75811 1.81168 0
M  V30 415 H 36.5835 2.61929 1.88661 0
M  V30 416 H 35.6355 3.7972 -0.227333 0
M  V30 417 H 36.9475 4.98738 -0.0787929 0
M  V30 418 H 36.1015 5.66254 2.17809 0
M  V30 419 H 34.8405 4.3995 2.10464 0
M  V30 420 H 33.8455 5.49745 0.0780846 0
M  V30 421 H 35.0705 6.78884 0.171134 0
M  V30 422 H 33.0165 6.1367 2.3183 0
M  V30 423 H 32.9335 7.46319 1.20596 0
M  V30 424 H 34.2015 7.41818 2.39428 0
M  V30 425 N 38.4306 0.297415 1.54768 0
M  V30 426 C 39.3776 -0.580276 2.23386 0
M  V30 427 C 40.3476 -1.13238 1.21517 0
M  V30 428 O 41.5326 -1.17757 1.50126 0
M  V30 429 C 38.6726 -1.74801 2.97555 0
M  V30 430 C 37.7856 -1.22764 4.1419 0
M  V30 431 C 36.9206 -2.35895 4.75949 0
M  V30 432 C 35.9596 -1.80974 5.84735 0
M  V30 433 N 35.0966 -2.87664 6.40464 0
M  V30 434 H 39.9366 0.0114833 2.97998 0
M  V30 435 H 37.4736 0.0174361 1.4709 0
M  V30 436 H 39.4316 -2.43475 3.38786 0
M  V30 437 H 38.0616 -2.31145 2.25326 0
M  V30 438 H 37.1136 -0.433271 3.77924 0
M  V30 439 H 38.4256 -0.785551 4.92575 0
M  V30 440 H 37.5796 -3.12523 5.20014 0
M  V30 441 H 36.3186 -2.83429 3.96887 0
M  V30 442 H 35.3236 -1.02834 5.40097 0
M  V30 443 H 36.5486 -1.34348 6.65678 0
M  V30 444 H 34.4946 -3.34538 5.64287 0
M  V30 445 H 34.4116 -2.4794 7.14186 0
M  V30 446 H 35.6796 -3.642 6.89187 0
M  V30 447 N 39.9087 -1.5758 0.0250728 0
M  V30 448 C 41.1547 -1.91917 -0.655413 0
M  V30 449 C 41.4877 -0.901433 -1.72011 0
M  V30 450 O 40.7627 0.0764069 -1.9435 0
M  V30 451 C 41.0457 -3.36751 -1.27558 0
M  V30 452 C 40.8987 -4.49258 -0.220719 0
M  V30 453 C 42.2177 -3.81469 -2.19475 0
M  V30 454 H 39.3367 -0.697925 -0.23679 0
M  V30 455 H 41.9787 -1.89825 0.0815036 0
M  V30 456 H 40.1287 -3.38664 -1.90365 0
M  V30 457 H 41.8007 -4.59478 0.409601 0
M  V30 458 H 40.0437 -4.31415 0.454264 0
M  V30 459 H 40.7147 -5.47618 -0.694175 0
M  V30 460 H 43.1907 -3.81266 -1.66659 0
M  V30 461 H 42.0667 -4.83512 -2.59822 0
M  V30 462 H 42.3277 -3.16744 -3.08424 0
M  V30 463 N 41.3868 0.248026 -1.55636 0
M  V30 464 C 42.6328 0.97767 -1.77678 0
M  V30 465 C 42.9658 1.85016 -0.590135 0
M  V30 466 O 42.2408 1.90095 0.411611 0
M  V30 467 C 42.5238 1.83914 -3.09593 0
M  V30 468 C 42.3768 0.99491 -4.38659 0
M  V30 469 C 43.6958 2.82183 -3.37729 0
M  V30 470 H 40.8148 0.354005 -0.646413 0
M  V30 471 H 43.4568 0.248253 -1.88371 0
M  V30 472 H 41.6068 2.46104 -3.00608 0
M  V30 473 H 43.2788 0.391789 -4.59633 0
M  V30 474 H 41.5218 0.299231 -4.32767 0
M  V30 475 H 42.1928 1.63145 -5.2734 0
M  V30 476 H 44.6688 2.30129 -3.4667 0
M  V30 477 H 43.5448 3.39582 -4.31249 0
M  V30 478 H 43.8058 3.58588 -2.58586 0
M  V30 479 N 42.8649 1.48995 0.513639 0
M  V30 480 C 43.7949 1.67636 1.62544 0
M  V30 481 C 44.7759 0.525087 1.61793 0
M  V30 482 O 45.9609 0.759502 1.78732 0
M  V30 483 C 43.0909 1.73114 3.01079 0
M  V30 484 C 42.0449 2.87905 3.16693 0
M  V30 485 C 41.3709 2.78486 4.56453 0
M  V30 486 C 42.6709 4.29005 2.97913 0
M  V30 487 H 44.3649 2.60716 1.47198 0
M  V30 488 H 41.9109 1.25465 0.706714 0
M  V30 489 H 43.8639 1.84742 3.78746 0
M  V30 490 H 42.5879 0.766241 3.17484 0
M  V30 491 H 41.2469 2.75859 2.41448 0
M  V30 492 H 40.8949 1.7993 4.69717 0
M  V30 493 H 40.5949 3.55523 4.67843 0
M  V30 494 H 42.1189 2.92104 5.36197 0
M  V30 495 H 43.5329 4.41798 3.65359 0
M  V30 496 H 41.9299 5.07166 3.20785 0
M  V30 497 H 42.9999 4.44329 1.94165 0
M  V30 498 N 44.343 -0.763751 1.37857 0
M  V30 499 C 45.591 -1.51957 1.33243 0
M  V30 500 C 45.912 -1.94835 -0.0801709 0
M  V30 501 O 45.182 -1.66894 -1.02582 0
M  V30 502 H 43.762 -0.563626 0.49024 0
M  V30 503 H 46.424 -0.908504 1.7243 0
M  V30 504 H 45.52 -2.41523 1.97669 0
M  V30 505 N 45.8211 -1.22559 -0.990812 0
M  V30 506 C 46.7681 -0.997519 -2.0813 0
M  V30 507 C 47.7381 0.0814702 -1.659 0
M  V30 508 O 48.9231 -0.0685424 -1.90677 0
M  V30 509 C 46.0631 -0.583615 -3.40129 0
M  V30 510 C 45.1761 -1.7336 -3.9569 0
M  V30 511 C 44.3111 -1.26748 -5.15857 0
M  V30 512 C 43.3501 -2.38888 -5.63559 0
M  V30 513 N 42.4871 -1.93308 -6.74964 0
M  V30 514 H 47.3271 -1.93099 -2.26973 0
M  V30 515 H 44.8641 -0.962114 -1.11273 0
M  V30 516 H 46.8221 -0.324801 -4.15934 0
M  V30 517 H 45.4521 0.312845 -3.2128 0
M  V30 518 H 44.5041 -2.10669 -3.16738 0
M  V30 519 H 45.8161 -2.57704 -4.27071 0
M  V30 520 H 44.9701 -0.966173 -5.98957 0
M  V30 521 H 43.7091 -0.394272 -4.86104 0
M  V30 522 H 42.7141 -2.69805 -4.79046 0
M  V30 523 H 43.9391 -3.26728 -5.95336 0
M  V30 524 H 41.8851 -1.08352 -6.4699 0
M  V30 525 H 41.8021 -2.71217 -7.05675 0
M  V30 526 H 43.0701 -1.66252 -7.61564 0
M  V30 527 N 47.2992 1.18797 -1.03562 0
M  V30 528 C 48.2462 2.22253 -0.622259 0
M  V30 529 C 49.2162 1.61987 0.36736 0
M  V30 530 O 50.4012 1.88986 0.262492 0
M  V30 531 C 47.5412 3.45097 0.0138462 0
M  V30 532 C 46.6542 4.19722 -1.02263 0
M  V30 533 C 45.7892 5.30009 -0.355573 0
M  V30 534 C 44.8282 5.96399 -1.37749 0
M  V30 535 N 43.9652 6.98234 -0.735766 0
M  V30 536 H 48.8052 2.56968 -1.50903 0
M  V30 537 H 46.3422 1.26245 -0.755017 0
M  V30 538 H 48.3002 4.15279 0.399948 0
M  V30 539 H 46.9302 3.11018 0.864158 0
M  V30 540 H 45.9822 3.48418 -1.52673 0
M  V30 541 H 47.2942 4.65227 -1.79903 0
M  V30 542 H 46.4482 6.0664 0.0850095 0
M  V30 543 H 45.1872 4.85592 0.452967 0
M  V30 544 H 44.1922 5.18512 -1.82826 0
M  V30 545 H 45.4172 6.42899 -2.18764 0
M  V30 546 H 43.3632 6.55979 0.0525597 0
M  V30 547 H 43.2802 7.41965 -1.44995 0
M  V30 548 H 44.5482 7.78845 -0.31941 0
M  V30 549 N 48.7773 0.814389 1.34928 0
M  V30 550 C 50.0253 0.397636 1.9815 0
M  V30 551 C 50.3463 -1.04069 1.64908 0
M  V30 552 O 49.6163 -1.72121 0.93548 0
M  V30 553 H 48.1963 0.144043 0.732981 0
M  V30 554 H 50.8583 1.04195 1.6471 0
M  V30 555 H 49.9543 0.509688 3.0791 0
M  V30 556 N 50.2554 -1.46986 0.568584 0
M  V30 557 C 51.5324 -1.95592 -0.0174074 0
M  V30 558 C 51.9124 -1.51124 -1.47393 0
M  V30 559 O 51.2604 -0.755329 -2.15655 0
M  V30 560 C 51.4704 -3.48719 0.139913 0
M  V30 561 C 52.8184 -4.246 0.000426376 0
M  V30 562 O 53.8424 -3.56135 0.0680316 0
M  V30 563 O 52.7014 -5.46302 -0.146988 0
M  V30 564 H 49.7954 -0.82498 -0.0577599 0
M  V30 565 H 52.3414 -1.57335 0.635909 0
M  V30 566 H 51.1134 -3.73927 1.15301 0
M  V30 567 H 50.7364 -3.93771 -0.550491 0
M  V30 568 N 51.7335 -0.305618 -1.54608 0
M  V30 569 C 52.9615 0.304775 -2.04643 0
M  V30 570 C 53.3765 1.47167 -1.18268 0
M  V30 571 O 52.7335 1.81296 -0.209328 0
M  V30 572 C 52.7845 0.756564 -3.53495 0
M  V30 573 O 52.5055 -0.36389 -4.36586 0
M  V30 574 C 54.0065 1.43163 -4.19546 0
M  V30 575 H 51.2265 0.0655481 -0.667791 0
M  V30 576 H 53.7705 -0.446592 -1.99564 0
M  V30 577 H 51.9255 1.45794 -3.58919 0
M  V30 578 H 52.3395 -0.0113121 -5.24499 0
M  V30 579 H 53.8135 1.69886 -5.25207 0
M  V30 580 H 54.2905 2.37318 -3.69563 0
M  V30 581 H 54.8965 0.773307 -4.18211 0
M  V30 582 N 53.2116 1.57565 -0.0334293 0
M  V30 583 C 54.4576 1.92262 0.645226 0
M  V30 584 C 54.7906 0.910543 1.71531 0
M  V30 585 O 54.0656 -0.066099 1.94388 0
M  V30 586 C 54.3486 3.37422 1.2577 0
M  V30 587 C 54.2016 4.49369 0.196891 0
M  V30 588 C 55.5206 3.82628 2.17449 0
M  V30 589 H 52.6396 0.699171 0.233085 0
M  V30 590 H 55.2816 1.89779 -0.0915694 0
M  V30 591 H 53.4316 3.39669 1.88566 0
M  V30 592 H 55.1036 4.59254 -0.433962 0
M  V30 593 H 53.3466 4.31168 -0.477137 0
M  V30 594 H 54.0176 5.47978 0.665124 0
M  V30 595 H 56.4936 3.82145 1.64634 0
M  V30 596 H 55.3696 4.84883 2.57254 0
M  V30 597 H 55.6306 3.18376 3.0674 0
M  V30 598 N 54.6897 -0.239769 1.55765 0
M  V30 599 C 55.5997 -1.31831 1.94056 0
M  V30 600 C 56.6157 -1.52275 0.841925 0
M  V30 601 O 57.7917 -1.65759 1.14394 0
M  V30 602 C 54.8567 -2.65156 2.23368 0
M  V30 603 C 53.9177 -2.53173 3.46701 0
M  V30 604 C 53.1507 -3.8014 3.74606 0
M  V30 605 O 53.3737 -4.82343 3.04469 0
M  V30 606 O 52.3077 -3.78344 4.68123 0
M  V30 607 H 56.1337 -1.02347 2.85935 0
M  V30 608 H 53.7187 -0.441123 1.42739 0
M  V30 609 H 55.6007 -3.43929 2.43497 0
M  V30 610 H 54.2757 -2.94358 1.34666 0
M  V30 611 H 53.1827 -1.72662 3.31871 0
M  V30 612 H 54.5157 -2.28915 4.35728 0
M  V30 613 N 56.1678 -1.49265 -0.50573 0
M  V30 614 C 57.0978 -1.68495 -1.61653 0
M  V30 615 C 58.0788 -0.53366 -1.61512 0
M  V30 616 O 59.2638 -0.76897 -1.78327 0
M  V30 617 C 56.3938 -1.74709 -3.00157 0
M  V30 618 C 55.3478 -2.89581 -3.15162 0
M  V30 619 C 54.6738 -2.80903 -4.5497 0
M  V30 620 C 55.9738 -4.30578 -2.95634 0
M  V30 621 H 57.6678 -2.61493 -1.45814 0
M  V30 622 H 55.2138 -1.25838 -0.70005 0
M  V30 623 H 57.1668 -1.86748 -3.77761 0
M  V30 624 H 55.8908 -0.783067 -3.17074 0
M  V30 625 H 54.5498 -2.77136 -2.39982 0
M  V30 626 H 54.1978 -1.82419 -4.68756 0
M  V30 627 H 53.8978 -3.57999 -4.65951 0
M  V30 628 H 55.4218 -2.94944 -5.34641 0
M  V30 629 H 56.8358 -4.4373 -3.63011 0
M  V30 630 H 55.2328 -5.0886 -3.18091 0
M  V30 631 H 56.3028 -4.45352 -1.91806 0
M  V30 632 N 57.6459 0.756429 -1.3826 0
M  V30 633 C 58.8739 1.54565 -1.3754 0
M  V30 634 C 59.2889 1.88767 0.0355331 0
M  V30 635 O 58.6459 1.52572 1.0014 0
M  V30 636 C 58.6969 2.84654 -2.22833 0
M  V30 637 O 58.4179 2.51912 -3.5843 0
M  V30 638 C 59.9189 3.78807 -2.30261 0
M  V30 639 H 57.1389 0.478353 -0.470553 0
M  V30 640 H 59.6829 0.936381 -1.81803 0
M  V30 641 H 57.8379 3.41965 -1.8204 0
M  V30 642 H 58.2519 3.35325 -4.03308 0
M  V30 643 H 59.7259 4.67045 -2.94233 0
M  V30 644 H 60.2029 4.19038 -1.31545 0
M  V30 645 H 60.8089 3.2742 -2.71433 0
M  V30 646 N 59.124 1.23083 0.984299 0
M  V30 647 C 60.364 1.07226 1.74017 0
M  V30 648 C 60.728 -0.384766 1.88105 0
M  V30 649 O 61.929 -0.664411 2.60459 0
M  V30 650 C 60.2 1.77348 3.10294 0
M  V30 651 S 61.759 1.77014 4.01512 0
M  V30 652 H 58.577 0.383819 0.598502 0
M  V30 653 H 61.179 1.56158 1.17622 0
M  V30 654 H 59.883 2.82506 2.97689 0
M  V30 655 H 59.414 1.28682 3.71759 0
M  V30 656 H 61.429 0.825956 4.89277 0
M  V30 657 N 60.6021 -1.18246 1.0419 0
M  V30 658 C 61.8301 -1.92195 0.766072 0
M  V30 659 C 62.2451 -1.76247 -0.676933 0
M  V30 660 O 61.6021 -1.09293 -1.46155 0
M  V30 661 C 61.6531 -3.43568 1.12442 0
M  V30 662 O 61.3741 -3.59015 2.51078 0
M  V30 663 C 62.8751 -4.34613 0.873275 0
M  V30 664 H 60.0951 -0.610114 0.279288 0
M  V30 665 H 62.6391 -1.50007 1.38989 0
M  V30 666 H 60.7941 -3.8354 0.545542 0
M  V30 667 H 61.2081 -4.5273 2.64831 0
M  V30 668 H 62.6821 -5.39374 1.17385 0
M  V30 669 H 63.1591 -4.38781 -0.191909 0
M  V30 670 H 63.7651 -4.00341 1.43551 0
M  V30 671 N 62.0802 -0.821533 -1.34494 0
M  V30 672 C 63.0432 -0.247847 -2.27856 0
M  V30 673 C 64.0432 0.573453 -1.50227 0
M  V30 674 O 65.2332 0.389759 -1.69784 0
M  V30 675 C 62.3652 0.652698 -3.34593 0
M  V30 676 H 63.5582 -1.07146 -2.80107 0
M  V30 677 H 61.1112 -0.593291 -1.44602 0
M  V30 678 H 61.8462 1.49943 -2.87555 0
M  V30 679 H 61.6312 0.065292 -3.92046 0
M  V30 680 H 63.1212 1.04793 -4.04238 0
M  V30 681 N 63.5583 1.46682 -0.576371 0
M  V30 682 C 64.7833 2.07304 -0.0630475 0
M  V30 683 C 65.2083 1.42329 1.2298 0
M  V30 684 O 64.5663 0.504865 1.74129 0
M  V30 685 C 64.6143 3.60472 0.095895 0
M  V30 686 O 63.7183 3.95927 1.15394 0
M  V30 687 H 63.0593 0.661288 -0.0599463 0
M  V30 688 H 65.5893 1.88417 -0.797511 0
M  V30 689 H 65.5993 4.06865 0.304071 0
M  V30 690 H 64.2743 4.07157 -0.84828 0
M  V30 691 H 62.8513 3.61252 0.924724 0
M  V30 692 N 65.0364 0.313813 1.54444 0
M  V30 693 C 65.9684 -0.590425 2.21465 0
M  V30 694 C 66.9814 -1.08753 1.21147 0
M  V30 695 O 68.1704 -1.00278 1.4767 0
M  V30 696 C 65.2704 -1.82179 2.85769 0
M  V30 697 C 64.4434 -1.46502 4.12136 0
M  V30 698 C 63.5024 -2.55288 4.60124 0
M  V30 699 O 62.5284 -2.19842 5.25032 0
M  V30 700 N 63.7304 -3.86053 4.33525 0
M  V30 701 H 66.4954 -0.0166033 2.99695 0
M  V30 702 H 64.0564 0.136578 1.61323 0
M  V30 703 H 66.0484 -2.54328 3.14801 0
M  V30 704 H 64.6184 -2.30369 2.11303 0
M  V30 705 H 63.8384 -0.575595 3.89975 0
M  V30 706 H 65.1264 -1.20221 4.94393 0
M  V30 707 H 64.5244 -4.17654 3.81552 0
M  V30 708 H 63.0814 -4.54461 4.67235 0
M  V30 709 N 66.5145 -1.57545 0.0417849 0
M  V30 710 C 67.4615 -2.10977 -0.935805 0
M  V30 711 C 68.4315 -1.01486 -1.31491 0
M  V30 712 O 69.6165 -1.2898 -1.40602 0
M  V30 713 C 66.7565 -2.65169 -2.2086 0
M  V30 714 C 65.8695 -3.88714 -1.88482 0
M  V30 715 C 65.0045 -4.31254 -3.1015 0
M  V30 716 C 64.0435 -5.47524 -2.7365 0
M  V30 717 N 63.1805 -5.85162 -3.87982 0
M  V30 718 H 68.0205 -2.94218 -0.473249 0
M  V30 719 H 65.5575 -1.45415 -0.221981 0
M  V30 720 H 67.5155 -2.94685 -2.95325 0
M  V30 721 H 66.1455 -1.8474 -2.64709 0
M  V30 722 H 65.1975 -3.65849 -1.04205 0
M  V30 723 H 66.5095 -4.73245 -1.57608 0
M  V30 724 H 65.6635 -4.62273 -3.92923 0
M  V30 725 H 64.4025 -3.45516 -3.44195 0
M  V30 726 H 63.4075 -5.16187 -1.89291 0
M  V30 727 H 64.6325 -6.34971 -2.40807 0
M  V30 728 H 62.5785 -5.02377 -4.21846 0
M  V30 729 H 62.4955 -6.64362 -3.60775 0
M  V30 730 H 63.7635 -6.20791 -4.71422 0
M  V30 731 N 67.9926 0.231505 -1.5589 0
M  V30 732 C 68.9396 1.28682 -1.91598 0
M  V30 733 C 69.9096 1.47071 -0.771974 0
M  V30 734 O 71.0946 1.60802 -1.027 0
M  V30 735 C 68.2346 2.6342 -2.22944 0
M  V30 736 C 67.3476 2.52912 -3.50228 0
M  V30 737 C 66.4826 3.80106 -3.7107 0
M  V30 738 C 65.5216 3.64279 -4.91902 0
M  V30 739 N 64.6586 4.834 -5.09184 0
M  V30 740 H 69.4986 0.975305 -2.81588 0
M  V30 741 H 67.0356 0.470299 -1.39379 0
M  V30 742 H 68.9936 3.41869 -2.39126 0
M  V30 743 H 67.6236 2.92687 -1.36139 0
M  V30 744 H 66.6756 1.6595 -3.42294 0
M  V30 745 H 67.9876 2.37133 -4.38827 0
M  V30 746 H 67.1416 4.66999 -3.87295 0
M  V30 747 H 65.8806 3.98799 -2.80733 0
M  V30 748 H 64.8856 2.7577 -4.75637 0
M  V30 749 H 66.1106 3.47067 -5.83714 0
M  V30 750 H 64.0566 5.02425 -4.21788 0
M  V30 751 H 63.9736 4.70311 -5.91898 0
M  V30 752 H 65.2416 5.71747 -5.29835 0
M  V30 753 N 69.4707 1.49531 0.497807 0
M  V30 754 C 70.6957 1.63159 1.28039 0
M  V30 755 C 71.1207 0.30418 1.85624 0
M  V30 756 O 70.4787 -0.728618 1.66015 0
M  V30 757 C 70.5267 2.70537 2.38416 0
M  V30 758 O 69.6307 2.29931 3.42353 0
M  V30 759 H 68.9717 0.546001 0.377861 0
M  V30 760 H 71.5017 1.9574 0.59558 0
M  V30 761 H 71.5117 2.92802 2.84132 0
M  V30 762 H 70.1867 3.6689 1.95869 0
M  V30 763 H 68.7637 2.18009 3.02533 0
M  V30 764 N 70.9488 -0.749086 1.3866 0
M  V30 765 C 72.1978 -1.50371 1.3443 0
M  V30 766 C 72.5108 -1.95503 -0.0616397 0
M  V30 767 O 73.7168 -2.70554 -0.226489 0
M  V30 768 C 72.1728 -2.71644 2.36088 0
M  V30 769 C 71.7808 -2.3352 3.82325 0
M  V30 770 C 73.5248 -3.49518 2.40909 0
M  V30 771 C 71.4318 -3.51431 4.75658 0
M  V30 772 H 70.3618 -0.564628 0.499712 0
M  V30 773 H 73.0128 -0.818449 1.64237 0
M  V30 774 H 71.3948 -3.42175 1.9933 0
M  V30 775 H 72.5688 -1.70627 4.28046 0
M  V30 776 H 70.8838 -1.6877 3.80665 0
M  V30 777 H 73.4808 -4.37197 3.07836 0
M  V30 778 H 73.8238 -3.90992 1.42937 0
M  V30 779 H 74.3568 -2.86005 2.76489 0
M  V30 780 H 71.0958 -3.15019 5.74842 0
M  V30 781 H 70.6158 -4.13352 4.34627 0
M  V30 782 H 72.2948 -4.17953 4.93887 0
M  V30 783 N 72.4269 -1.23603 -0.977757 0
M  V30 784 C 73.3589 -0.977369 -2.07317 0
M  V30 785 C 74.3719 0.0495845 -1.62724 0
M  V30 786 O 75.5609 -0.186261 -1.77526 0
M  V30 787 C 72.6609 -0.451216 -3.35883 0
M  V30 788 C 71.8339 -1.53896 -4.09432 0
M  V30 789 C 70.8929 -1.01721 -5.16274 0
M  V30 790 O 69.9189 -1.70676 -5.43009 0
M  V30 791 N 71.1209 0.153594 -5.80297 0
M  V30 792 H 73.8859 -1.92047 -2.30082 0
M  V30 793 H 71.4469 -1.14497 -1.14465 0
M  V30 794 H 73.4389 -0.0871574 -4.04606 0
M  V30 795 H 72.0089 0.397368 -3.10064 0
M  V30 796 H 71.2289 -2.07566 -3.35127 0
M  V30 797 H 72.5169 -2.27037 -4.55337 0
M  V30 798 H 71.9149 0.730323 -5.60966 0
M  V30 799 H 70.4719 0.458892 -6.50183 0
M  V30 800 N 73.905 1.17692 -1.04816 0
M  V30 801 C 75.152 1.87859 -0.75599 0
M  V30 802 C 75.48 1.80812 0.716752 0
M  V30 803 O 74.735 1.20819 1.53952 0
M  V30 804 C 75.034 3.37462 -1.17703 0
M  V30 805 C 74.7 3.64713 -2.65133 0
M  V30 806 C 73.362 3.71859 -3.05408 0
M  V30 807 C 75.714 3.76492 -3.60421 0
M  V30 808 C 73.042 3.88271 -4.39843 0
M  V30 809 C 75.394 3.94421 -4.94585 0
M  V30 810 C 74.058 3.99806 -5.3452 0
M  V30 811 H 73.328 0.687425 -0.276636 0
M  V30 812 H 75.975 1.39255 -1.31455 0
M  V30 813 H 74.28 3.88097 -0.537395 0
M  V30 814 H 75.977 3.90109 -0.928218 0
M  V30 815 H 72.567 3.59772 -2.32942 0
M  V30 816 H 76.751 3.70295 -3.30447 0
M  V30 817 H 72.007 3.90687 -4.70291 0
M  V30 818 H 76.181 4.02477 -5.68318 0
M  V30 819 H 73.808 4.12276 -6.38696 0
M  V30 820 N 75.3831 0.828654 1.34056 0
M  V30 821 C 76.3331 0.226828 2.26869 0
M  V30 822 C 77.3171 -0.612243 1.48796 0
M  V30 823 O 78.5091 -0.465884 1.70759 0
M  V30 824 C 75.6381 -0.605654 3.37915 0
M  V30 825 C 74.7241 0.244361 4.23395 0
M  V30 826 N 75.1151 1.31815 4.88322 0
M  V30 827 C 73.4131 0.0296616 4.4599 0
M  V30 828 C 74.1141 1.83895 5.51867 0
M  V30 829 N 73.0901 1.14196 5.3147 0
M  V30 830 H 76.8921 1.04811 2.74576 0
M  V30 831 H 74.4061 0.67205 1.47842 0
M  V30 832 H 76.4031 -1.05302 4.03382 0
M  V30 833 H 75.0631 -1.42504 2.91758 0
M  V30 834 H 76.0741 1.70099 4.8917 0
M  V30 835 H 72.7511 -0.757097 4.10578 0
M  V30 836 H 74.1411 2.7376 6.136 0
M  V30 837 N 76.8612 -1.46375 0.584142 0
M  V30 838 C 78.1072 -2.03248 0.0787103 0
M  V30 839 C 78.4622 -1.44737 -1.26763 0
M  V30 840 O 77.7552 -0.603625 -1.81843 0
M  V30 841 C 77.9492 -3.57373 -0.0439342 0
M  V30 842 C 77.7782 -4.30831 1.28897 0
M  V30 843 C 76.5482 -4.69683 1.8635 0
M  V30 844 C 78.7462 -4.64278 2.21248 0
M  V30 845 N 76.7282 -5.27898 3.13365 0
M  V30 846 C 78.0992 -5.23078 3.32851 0
M  V30 847 C 80.1542 -4.46209 2.20911 0
M  V30 848 C 78.8572 -5.65715 4.44251 0
M  V30 849 C 80.8832 -4.89864 3.31341 0
M  V30 850 C 80.2452 -5.48736 4.41665 0
M  V30 851 H 76.3442 -0.778714 0.0716144 0
M  V30 852 H 78.9282 -1.78509 0.777355 0
M  V30 853 H 77.0992 -3.81823 -0.711749 0
M  V30 854 H 78.8312 -4.00892 -0.553881 0
M  V30 855 H 75.5862 -4.52488 1.39826 0
M  V30 856 H 76.0102 -5.61525 3.78178 0
M  V30 857 H 80.6522 -4.00027 1.36888 0
M  V30 858 H 78.3702 -6.10875 5.29015 0
M  V30 859 H 81.9562 -4.77634 3.322 0
M  V30 860 H 80.8362 -5.81898 5.25704 0
M  V30 861 N 78.3393 -0.321999 -1.54275 0
M  V30 862 C 79.2863 0.544664 -2.24281 0
M  V30 863 C 80.2563 1.1129 -1.23303 0
M  V30 864 O 81.4413 1.15354 -1.51981 0
M  V30 865 C 78.5813 1.70045 -3.00298 0
M  V30 866 C 77.6943 1.16159 -4.1609 0
M  V30 867 C 76.8293 2.28293 -4.79641 0
M  V30 868 C 75.8683 1.71648 -5.8754 0
M  V30 869 N 75.0053 2.77438 -6.44959 0
M  V30 870 H 79.8453 -0.0588907 -2.97942 0
M  V30 871 H 77.3823 -0.0408345 -1.47043 0
M  V30 872 H 79.3403 2.38054 -3.42616 0
M  V30 873 H 77.9703 2.27531 -2.28975 0
M  V30 874 H 77.0223 0.373092 -3.78566 0
M  V30 875 H 78.3343 0.707087 -4.93763 0
M  V30 876 H 77.4883 3.0421 -5.2492 0
M  V30 877 H 76.2273 2.77079 -4.01346 0
M  V30 878 H 75.2323 0.942282 -5.41665 0
M  V30 879 H 76.4573 1.23741 -6.67731 0
M  V30 880 H 74.4033 3.25519 -5.69538 0
M  V30 881 H 74.3203 2.36547 -7.1804 0
M  V30 882 H 75.5883 3.53189 -6.94894 0
M  V30 883 N 79.8174 1.5752 -0.0501392 0
M  V30 884 C 80.7654 2.12651 0.942459 0
M  V30 885 C 81.7594 1.05807 1.32292 0
M  V30 886 O 82.9654 1.24217 1.3027 0
M  V30 887 H 79.3404 0.679673 0.321789 0
M  V30 888 H 81.3114 2.94951 0.452356 0
M  V30 889 C 80.0604 2.68565 2.20836 0
M  V30 890 H 79.3834 3.50439 1.92439 0
M  V30 891 H 80.8234 3.10761 2.8845 0
M  V30 892 C 79.2824 1.62291 2.95234 0
M  V30 893 O 79.8124 1.03508 3.88135 0
M  V30 894 N 78.0184 1.33836 2.57946 0
M  V30 895 H 77.5654 1.81826 1.82475 0
M  V30 896 H 77.5234 0.629595 3.08032 0
M  V30 897 N 81.2955 -0.223234 1.56011 0
M  V30 898 C 82.5205 -0.968978 1.83373 0
M  V30 899 C 82.9455 -1.77227 0.630254 0
M  V30 900 O 82.3035 -1.76345 -0.420959 0
M  V30 901 C 82.3515 -1.86363 3.08709 0
M  V30 902 O 81.4555 -2.95873 2.87285 0
M  V30 903 H 80.7965 -0.274461 0.604622 0
M  V30 904 H 83.3265 -0.237056 2.03222 0
M  V30 905 H 83.3365 -2.27376 3.38768 0
M  V30 906 H 82.0115 -1.27319 3.95933 0
M  V30 907 H 80.5885 -2.58818 2.68454 0
M  V30 908 N 82.7736 -1.49793 -0.48987 0
M  V30 909 C 83.7216 -1.67783 -1.61095 0
M  V30 910 C 84.7156 -0.543683 -1.60438 0
M  V30 911 O 85.9216 -0.723647 -1.64813 0
M  V30 912 H 82.2966 -0.529255 -0.534222 0
M  V30 913 H 84.2676 -2.61861 -1.43078 0
M  V30 914 C 83.0166 -1.77191 -2.99164 0
M  V30 915 H 82.3396 -2.63841 -3.0038 0
M  V30 916 H 83.7796 -1.93809 -3.77113 0
M  V30 917 C 82.2386 -0.519203 -3.32875 0
M  V30 918 O 82.7686 0.350124 -4.00171 0
M  V30 919 N 80.9746 -0.378816 -2.8812 0
M  V30 920 H 80.5216 -1.08725 -2.33531 0
M  V30 921 H 80.4796 0.458239 -3.11043 0
M  V30 922 N 84.2517 0.741722 -1.39055 0
M  V30 923 C 85.1837 1.8657 -1.33133 0
M  V30 924 C 86.1967 1.61001 -0.241329 0
M  V30 925 O 87.3857 1.7136 -0.499784 0
M  V30 926 C 84.4857 3.22457 -1.04283 0
M  V30 927 C 83.6587 3.75435 -2.24427 0
M  V30 928 C 82.7177 4.89867 -1.92138 0
M  V30 929 O 81.7437 5.03879 -2.64754 0
M  V30 930 N 82.9457 5.73738 -0.88347 0
M  V30 931 H 85.7107 1.92156 -2.29991 0
M  V30 932 H 83.2717 0.922172 -1.3307 0
M  V30 933 H 85.2637 3.9657 -0.807128 0
M  V30 934 H 83.8337 3.12181 -0.161807 0
M  V30 935 H 83.0537 2.92751 -2.6399 0
M  V30 936 H 84.3417 4.07563 -3.04581 0
M  V30 937 H 83.7397 5.64999 -0.281517 0
M  V30 938 H 82.2967 6.47947 -0.707662 0
M  V30 939 N 85.7298 1.2412 0.971189 0
M  V30 940 C 86.9788 1.07284 1.70801 0
M  V30 941 C 87.2918 -0.388902 1.91695 0
M  V30 942 O 88.4978 -0.677379 2.62914 0
M  V30 943 C 86.9538 1.87145 3.07416 0
M  V30 944 C 86.5618 3.37707 2.94377 0
M  V30 945 C 88.3058 1.78828 3.84995 0
M  V30 946 C 86.2128 4.09925 4.26281 0
M  V30 947 H 85.1428 0.397854 0.64049 0
M  V30 948 H 87.7938 1.4817 1.0825 0
M  V30 949 H 86.1758 1.39071 3.70777 0
M  V30 950 H 87.3498 3.93335 2.4005 0
M  V30 951 H 85.6648 3.46938 2.30267 0
M  V30 952 H 88.2618 2.30089 4.82662 0
M  V30 953 H 88.6048 0.75284 4.09436 0
M  V30 954 H 89.1378 2.24563 3.28354 0
M  V30 955 H 85.8768 5.13813 4.07033 0
M  V30 956 H 85.3968 3.59083 4.80437 0
M  V30 957 H 87.0758 4.1673 4.94919 0
M  V30 958 N 87.2079 -1.17134 1.05439 0
M  V30 959 C 88.1549 -2.21235 0.657539 0
M  V30 960 C 89.1249 -1.62551 -0.341543 0
M  V30 961 O 90.3099 -1.89379 -0.232393 0
M  V30 962 C 87.4499 -3.45076 0.0410575 0
M  V30 963 C 86.5629 -4.18042 1.08927 0
M  V30 964 C 85.6979 -5.29376 0.439848 0
M  V30 965 C 84.7369 -5.94132 1.4722 0
M  V30 966 N 83.8739 -6.96975 0.846756 0
M  V30 967 H 88.7139 -2.54534 1.54972 0
M  V30 968 H 86.2509 -1.25028 0.775006 0
M  V30 969 H 88.2089 -4.15862 -0.33383 0
M  V30 970 H 86.8389 -3.12353 -0.814568 0
M  V30 971 H 85.8909 -3.45945 1.58196 0
M  V30 972 H 87.2029 -4.62306 1.87282 0
M  V30 973 H 86.3569 -6.06699 0.0115125 0
M  V30 974 H 85.0959 -4.86251 -0.375656 0
M  V30 975 H 84.1009 -5.15538 1.91052 0
M  V30 976 H 85.3259 -6.39337 2.28965 0
M  V30 977 H 83.2719 -6.5598 0.0518075 0
M  V30 978 H 83.1889 -7.39565 1.5678 0
M  V30 979 H 84.4569 -7.78239 0.443277 0
M  V30 980 N 88.686 -0.835752 -1.33615 0
M  V30 981 C 89.935 -0.426289 -1.97144 0
M  V30 982 C 90.248 1.01912 -1.66953 0
M  V30 983 O 91.454 1.53311 -2.24072 0
M  V30 984 C 89.91 -0.711321 -3.52801 0
M  V30 985 C 89.518 -2.1712 -3.91871 0
M  V30 986 C 91.262 -0.368654 -4.22896 0
M  V30 987 C 89.169 -2.40044 -5.40493 0
M  V30 988 H 88.099 -0.15567 -0.737755 0
M  V30 989 H 90.75 -1.0239 -1.52278 0
M  V30 990 H 89.132 -0.0433766 -3.95976 0
M  V30 991 H 90.306 -2.87936 -3.59763 0
M  V30 992 H 88.621 -2.47654 -3.34749 0
M  V30 993 H 91.218 -0.517601 -5.32189 0
M  V30 994 H 91.561 0.688078 -4.10574 0
M  V30 995 H 92.094 -0.991702 -3.8524 0
M  V30 996 H 88.833 -3.44271 -5.57815 0
M  V30 997 H 88.353 -1.73785 -5.74072 0
M  V30 998 H 90.032 -2.23042 -6.0734 0
M  V30 999 N 90.1641 1.46063 -0.591896 0
M  V30 1000 C 91.0941 2.33172 0.123673 0
M  V30 1001 C 92.0751 1.45897 0.87453 0
M  V30 1002 O 93.2601 1.74698 0.848181 0
M  V30 1003 C 90.3901 3.28336 1.13194 0
M  V30 1004 C 89.3441 4.25124 0.495324 0
M  V30 1005 C 88.6701 5.09863 1.61071 0
M  V30 1006 C 89.9701 5.19143 -0.573425 0
M  V30 1007 H 91.6641 2.93252 -0.603646 0
M  V30 1008 H 89.2101 1.41014 -0.291741 0
M  V30 1009 H 91.1631 3.88137 1.64097 0
M  V30 1010 H 89.8871 2.66383 1.88965 0
M  V30 1011 H 88.5461 3.66599 0.00729452 0
M  V30 1012 H 88.1941 4.44288 2.35832 0
M  V30 1013 H 87.8941 5.75417 1.19035 0
M  V30 1014 H 89.4181 5.72529 2.12233 0
M  V30 1015 H 90.8321 5.73106 -0.1491 0
M  V30 1016 H 89.2291 5.93089 -0.914636 0
M  V30 1017 H 90.2991 4.62519 -1.45617 0
M  V30 1018 N 91.6422 0.330177 1.54103 0
M  V30 1019 C 92.8902 -0.269871 2.0029 0
M  V30 1020 C 93.2112 -1.52133 1.21986 0
M  V30 1021 O 92.4812 -1.93212 0.323438 0
M  V30 1022 H 91.0612 -0.10271 0.739905 0
M  V30 1023 H 93.7232 0.448249 1.89675 0
M  V30 1024 H 92.8192 -0.52166 3.07709 0
M  V30 1025 N 93.1203 -1.57491 0.0584922 0
M  V30 1026 C 94.0683 -2.13148 -0.931168 0
M  V30 1027 C 95.0623 -1.06507 -1.31729 0
M  V30 1028 O 96.2683 -1.24906 -1.29609 0
M  V30 1029 H 92.6433 -0.68137 -0.31818 0
M  V30 1030 H 94.6143 -2.95187 -0.436707 0
M  V30 1031 C 93.3633 -2.69732 -2.19408 0
M  V30 1032 H 92.6863 -3.51454 -1.90578 0
M  V30 1033 H 94.1263 -3.12287 -2.86798 0
M  V30 1034 C 92.5853 -1.63855 -2.94369 0
M  V30 1035 O 93.1153 -1.05565 -3.87581 0
M  V30 1036 N 91.3213 -1.35202 -2.57233 0
M  V30 1037 H 90.8683 -1.82791 -1.81508 0
M  V30 1038 H 90.8263 -0.645922 -3.07693 0
M  V30 1039 N 94.5984 0.214957 -1.56127 0
M  V30 1040 C 95.5304 1.29004 -1.89448 0
M  V30 1041 C 96.5434 1.42716 -0.783326 0
M  V30 1042 O 97.7324 1.43496 -1.06166 0
M  V30 1043 C 94.8324 2.66482 -2.09381 0
M  V30 1044 C 94.0054 2.74633 -3.40434 0
M  V30 1045 C 93.0644 3.9317 -3.49719 0
M  V30 1046 O 92.0904 3.812 -4.227 0
M  V30 1047 N 93.2924 5.07765 -2.81346 0
M  V30 1048 H 96.0574 1.00743 -2.82261 0
M  V30 1049 H 93.6184 0.40497 -1.56753 0
M  V30 1050 H 95.6104 3.44173 -2.12901 0
M  V30 1051 H 94.1804 2.87314 -1.23163 0
M  V30 1052 H 93.4004 1.83368 -3.48955 0
M  V30 1053 H 94.6884 2.77054 -4.26754 0
M  V30 1054 H 94.0864 5.20386 -2.21843 0
M  V30 1055 H 92.6434 5.83474 -2.90519 0
M  V30 1056 N 96.0765 1.50051 0.48192 0
M  V30 1057 C 97.3245 1.60181 1.23234 0
M  V30 1058 C 97.6455 0.299176 1.92691 0
M  V30 1059 O 96.9155 -0.682708 1.83619 0
M  V30 1060 H 95.4955 0.590232 0.457859 0
M  V30 1061 H 98.1575 1.86775 0.556881 0
M  V30 1062 H 97.2535 2.40753 1.98607 0
M  V30 1063 N 97.5546 -0.734337 1.39446 0
M  V30 1064 C 98.7796 -1.52866 1.40167 0
M  V30 1065 C 99.2046 -1.881 -0.00171513 0
M  V30 1066 O 98.5626 -1.51957 -0.988879 0
M  V30 1067 C 98.6106 -2.79235 2.28167 0
M  V30 1068 O 97.7146 -3.75185 1.71201 0
M  V30 1069 H 97.0556 -0.461618 0.477289 0
M  V30 1070 H 99.5856 -0.905949 1.8345 0
M  V30 1071 H 99.5956 -3.27963 2.42702 0
M  V30 1072 H 98.2706 -2.52923 3.30156 0
M  V30 1073 H 96.8476 -3.33958 1.65912 0
M  V30 1074 N 99.0327 -1.24633 -0.964593 0
M  V30 1075 C 100.28 -1.08788 -1.70796 0
M  V30 1076 C 100.608 0.372783 -1.90894 0
M  V30 1077 O 99.8627 1.29167 -1.47018 0
M  V30 1078 C 100.162 -1.7763 -3.10133 0
M  V30 1079 C 99.8277 -3.27557 -3.09866 0
M  V30 1080 C 98.4897 -3.6846 -3.09501 0
M  V30 1081 C 100.842 -4.23389 -3.03959 0
M  V30 1082 C 98.1697 -5.03624 -3.00965 0
M  V30 1083 C 100.522 -5.58565 -2.96965 0
M  V30 1084 C 99.1857 -5.98809 -2.9493 0
M  V30 1085 H 98.4557 -0.398084 -0.624988 0
M  V30 1086 H 101.103 -1.54777 -1.12767 0
M  V30 1087 H 99.4077 -1.24044 -3.71645 0
M  V30 1088 H 101.105 -1.62832 -3.66451 0
M  V30 1089 H 97.6947 -2.95006 -3.10917 0
M  V30 1090 H 101.879 -3.92787 -3.03368 0
M  V30 1091 H 97.1347 -5.33998 -2.97752 0
M  V30 1092 H 101.309 -6.32523 -2.91354 0
M  V30 1093 H 98.9357 -7.03505 -2.88071 0
M  V30 1094 N 100.511 1.16574 -1.06058 0
M  V30 1095 C 101.441 2.23057 -0.690488 0
M  V30 1096 C 102.422 1.67141 0.315901 0
M  V30 1097 O 103.607 1.93253 0.191556 0
M  V30 1098 C 100.737 3.47222 -0.073625 0
M  V30 1099 C 99.6908 4.16016 -1.00573 0
M  V30 1100 C 99.0168 5.34104 -0.252289 0
M  V30 1101 C 100.317 4.67264 -2.33371 0
M  V30 1102 H 102.011 2.54271 -1.58072 0
M  V30 1103 H 99.5568 1.22218 -0.76149 0
M  V30 1104 H 101.51 4.20939 0.19714 0
M  V30 1105 H 100.234 3.15302 0.85161 0
M  V30 1106 H 98.8928 3.44223 -1.2612 0
M  V30 1107 H 98.5408 4.98437 0.675988 0
M  V30 1108 H 98.2408 5.81072 -0.873455 0
M  V30 1109 H 99.7648 6.10599 0.0109857 0
M  V30 1110 H 101.179 5.32573 -2.12223 0
M  V30 1111 H 99.5758 5.24843 -2.90963 0
M  V30 1112 H 100.646 3.83602 -2.96611 0
M  V30 1113 N 101.989 0.842826 1.3317 0
M  V30 1114 C 103.217 0.454055 2.01856 0
M  V30 1115 C 103.632 -0.94587 1.63397 0
M  V30 1116 O 102.989 -1.61534 0.849302 0
M  V30 1117 C 103.04 0.569715 3.56982 0
M  V30 1118 O 102.761 1.91448 3.94055 0
M  V30 1119 C 104.262 0.178412 4.42941 0
M  V30 1120 H 101.482 0.17979 0.646465 0
M  V30 1121 H 104.026 1.1365 1.70012 0
M  V30 1122 H 102.181 -0.0648587 3.87346 0
M  V30 1123 H 102.595 1.90282 4.88767 0
M  V30 1124 H 104.069 0.310376 5.51127 0
M  V30 1125 H 104.546 -0.880056 4.30293 0
M  V30 1126 H 105.152 0.787579 4.17944 0
M  V30 1127 N 103.467 -1.45747 0.599634 0
M  V30 1128 C 104.414 -2.30467 -0.123849 0
M  V30 1129 C 105.384 -1.41632 -0.86774 0
M  V30 1130 O 106.569 -1.70568 -0.855056 0
M  V30 1131 C 103.709 -3.26402 -1.12051 0
M  V30 1132 C 102.822 -4.3034 -0.37832 0
M  V30 1133 C 101.957 -5.13389 -1.364 0
M  V30 1134 C 100.996 -6.09061 -0.609171 0
M  V30 1135 N 100.133 -6.84918 -1.54374 0
M  V30 1136 H 104.973 -2.91802 0.604627 0
M  V30 1137 H 102.51 -1.43797 0.309972 0
M  V30 1138 H 104.468 -3.80482 -1.7114 0
M  V30 1139 H 103.098 -2.66839 -1.8165 0
M  V30 1140 H 102.15 -3.78984 0.327929 0
M  V30 1141 H 103.462 -4.98354 0.210997 0
M  V30 1142 H 102.616 -5.7183 -2.02719 0
M  V30 1143 H 101.355 -4.45376 -1.98725 0
M  V30 1144 H 100.36 -5.49758 0.0676979 0
M  V30 1145 H 101.585 -6.79099 0.00891991 0
M  V30 1146 H 99.531 -6.19601 -2.15478 0
M  V30 1147 H 99.448 -7.49254 -1.00766 0
M  V30 1148 H 100.716 -7.47906 -2.19676 0
M  V30 1149 N 104.945 -0.338344 -1.53925 0
M  V30 1150 C 106.193 0.259245 -2.0043 0
M  V30 1151 C 106.514 1.51484 -1.22791 0
M  V30 1152 O 105.784 1.93037 -0.33368 0
M  V30 1153 H 104.364 0.0987845 -0.740439 0
M  V30 1154 H 107.026 -0.458302 -1.89435 0
M  V30 1155 H 106.122 0.505334 -3.07982 0
M  V30 1156 N 106.423 1.57458 -0.0668435 0
M  V30 1157 C 107.834 1.80776 0.466558 0
M  V30 1158 C 108.185 0.980361 1.69951 0
M  V30 1159 O 107.31 0.201441 2.1546 0
M  V30 1160 C 107.905 3.27881 0.85321 0
M  V30 1161 C 106.464 3.52062 1.3315 0
M  V30 1162 C 105.611 2.75513 0.314264 0
M  V30 1163 H 108.562 1.5598 -0.292588 0
M  V30 1164 H 108.583 3.39659 1.715 0
M  V30 1165 H 108.095 3.88075 -0.0443439 0
M  V30 1166 H 106.196 2.97167 2.24772 0
M  V30 1167 H 106.309 4.60762 1.31285 0
M  V30 1168 H 104.673 2.42123 0.790492 0
M  V30 1169 H 105.456 3.38442 -0.575477 0
M  V30 1170 N 107.901 -0.206675 1.56239 0
M  V30 1171 C 109.126 -0.949474 1.8439 0
M  V30 1172 C 109.551 -1.76549 0.649016 0
M  V30 1173 O 108.909 -1.76782 -0.402231 0
M  V30 1174 C 108.957 -1.83078 3.10668 0
M  V30 1175 O 108.061 -2.9281 2.90407 0
M  V30 1176 H 107.402 -0.268033 0.607499 0
M  V30 1177 H 109.932 -0.215488 2.03462 0
M  V30 1178 H 109.942 -2.2377 3.41161 0
M  V30 1179 H 108.617 -1.23112 3.97261 0
M  V30 1180 H 107.194 -2.55956 2.71184 0
M  V30 1181 N 109.379 -1.50304 -0.473955 0
M  V30 1182 C 110.326 -1.68959 -1.57231 0
M  V30 1183 C 111.296 -0.530899 -1.57387 0
M  V30 1184 O 112.481 -0.761133 -1.74961 0
M  V30 1185 C 109.621 -1.7871 -2.95223 0
M  V30 1186 C 108.734 -3.06061 -3.04878 0
M  V30 1187 C 107.869 -3.06626 -4.33767 0
M  V30 1188 C 106.908 -4.28443 -4.37154 0
M  V30 1189 N 106.045 -4.26763 -5.5751 0
M  V30 1190 H 110.885 -2.6273 -1.40631 0
M  V30 1191 H 108.422 -1.30241 -0.683789 0
M  V30 1192 H 110.38 -1.82344 -3.75242 0
M  V30 1193 H 109.01 -0.883806 -3.10465 0
M  V30 1194 H 108.062 -3.11911 -2.17751 0
M  V30 1195 H 109.374 -3.96039 -3.0324 0
M  V30 1196 H 108.528 -3.08973 -5.22131 0
M  V30 1197 H 107.267 -2.14473 -4.3801 0
M  V30 1198 H 106.272 -4.2631 -3.47188 0
M  V30 1199 H 107.497 -5.2182 -4.34605 0
M  V30 1200 H 105.443 -3.37462 -5.62544 0
M  V30 1201 H 105.36 -5.10507 -5.57601 0
M  V30 1202 H 106.628 -4.33253 -6.48006 0
M  V30 1203 N 110.857 0.726932 -1.39834 0
M  V30 1204 C 111.787 1.85405 -1.41941 0
M  V30 1205 C 112.768 1.67751 -0.281728 0
M  V30 1206 O 113.953 1.8795 -0.488717 0
M  V30 1207 C 111.083 3.23243 -1.2701 0
M  V30 1208 C 110.037 3.55549 -2.38262 0
M  V30 1209 C 109.363 4.9241 -2.08415 0
M  V30 1210 C 110.663 3.577 -3.80589 0
M  V30 1211 H 112.357 1.83899 -2.36266 0
M  V30 1212 H 109.903 0.883349 -1.13723 0
M  V30 1213 H 111.856 4.01775 -1.27103 0
M  V30 1214 H 110.58 3.25296 -0.291564 0
M  V30 1215 H 109.239 2.79351 -2.37399 0
M  V30 1216 H 108.887 4.91052 -1.0898 0
M  V30 1217 H 108.587 5.14992 -2.82943 0
M  V30 1218 H 110.111 5.73289 -2.10171 0
M  V30 1219 H 111.525 4.26293 -3.83337 0
M  V30 1220 H 109.922 3.91804 -4.54543 0
M  V30 1221 H 110.992 2.57328 -4.10987 0
M  V30 1222 N 112.336 1.25143 0.95797 0
M  V30 1223 C 113.284 1.05019 2.07542 0
M  V30 1224 C 114.278 -0.0178751 1.69391 0
M  V30 1225 O 115.484 0.137472 1.79474 0
M  V30 1226 H 111.859 0.32265 0.679265 0
M  V30 1227 H 113.83 1.99759 2.21673 0
M  V30 1228 C 112.579 0.682074 3.40944 0
M  V30 1229 H 111.902 1.49573 3.70767 0
M  V30 1230 H 113.342 0.580945 4.20001 0
M  V30 1231 C 111.801 -0.611608 3.31302 0
M  V30 1232 O 112.331 -1.65465 3.66038 0
M  V30 1233 N 110.537 -0.595982 2.84423 0
M  V30 1234 H 110.084 0.253192 2.56353 0
M  V30 1235 H 110.042 -1.46173 2.78354 0
M  V30 1236 N 113.814 -1.1601 1.06675 0
M  V30 1237 C 115.091 -1.82679 0.699114 0
M  V30 1238 C 115.471 -1.94559 -0.819137 0
M  V30 1239 O 114.819 -1.49169 -1.73092 0
M  V30 1240 C 115.029 -3.19445 1.40555 0
M  V30 1241 C 116.377 -3.95171 1.55323 0
M  V30 1242 O 117.401 -3.28976 1.36577 0
M  V30 1243 O 116.26 -5.13833 1.86112 0
M  V30 1244 H 113.354 -0.788954 0.247951 0
M  V30 1245 H 115.9 -1.23179 1.16726 0
M  V30 1246 H 114.672 -3.05856 2.44065 0
M  V30 1247 H 114.295 -3.86625 0.927733 0
M  V30 1248 N 115.292 -0.849877 -1.32721 0
M  V30 1249 C 116.708 -0.539102 -1.50219 0
M  V30 1250 C 116.908 0.931271 -1.78689 0
M  V30 1251 O 115.964 1.71455 -1.85363 0
M  V30 1252 C 117.277 -1.42196 -2.64954 0
M  V30 1253 C 118.825 -1.42189 -2.78839 0
M  V30 1254 C 119.3 -2.28985 -3.96648 0
M  V30 1255 N 120.791 -2.26754 -4.03902 0
M  V30 1256 C 121.526 -2.90644 -4.94281 0
M  V30 1257 N 121.022 -3.63629 -5.897 0
M  V30 1258 N 122.815 -2.80057 -4.87365 0
M  V30 1259 H 114.966 -1.80156 -1.12506 0
M  V30 1260 H 117.229 -0.769217 -0.554085 0
M  V30 1261 H 116.935 -2.46733 -2.50631 0
M  V30 1262 H 116.809 -1.10591 -3.60624 0
M  V30 1263 H 119.196 -0.38419 -2.92588 0
M  V30 1264 H 119.277 -1.77807 -1.83898 0
M  V30 1265 H 118.921 -3.32819 -3.83658 0
M  V30 1266 H 118.851 -1.90702 -4.90857 0
M  V30 1267 H 121.342 -1.73688 -3.3562 0
M  V30 1268 H 121.655 -4.09558 -6.55349 0
M  V30 1269 H 120 -3.67737 -5.89741 0
M  V30 1270 H 123.191 -2.22593 -4.11789 0
M  V30 1271 H 123.364 -3.30132 -5.57599 0
M  V30 1272 N 116.77 1.45427 -0.607355 0
M  V30 1273 C 117.733 2.28974 0.101693 0
M  V30 1274 C 118.733 1.39754 0.795329 0
M  V30 1275 O 119.923 1.61878 0.643527 0
M  V30 1276 C 117.055 3.20768 1.15414 0
M  V30 1277 H 118.248 2.93147 -0.632844 0
M  V30 1278 H 115.801 1.51945 -0.366391 0
M  V30 1279 H 116.536 2.61395 1.91945 0
M  V30 1280 H 116.321 3.86489 0.66098 0
M  V30 1281 H 117.811 3.83589 1.65073 0
M  V30 1282 N 118.248 0.346503 1.53744 0
M  V30 1283 C 119.525 -0.304532 1.93215 0
M  V30 1284 C 119.905 -1.67993 1.27834 0
M  V30 1285 O 119.253 -2.24411 0.430352 0
M  V30 1286 C 119.463 -0.373852 3.46992 0
M  V30 1287 C 120.811 -0.62329 4.2 0
M  V30 1288 O 121.835 -0.455847 3.53271 0
M  V30 1289 O 120.694 -0.947879 5.38217 0
M  V30 1290 H 117.788 -0.178318 0.807547 0
M  V30 1291 H 120.334 0.397895 1.64969 0
M  V30 1292 H 119.106 0.591224 3.86808 0
M  V30 1293 H 118.729 -1.12294 3.81413 0
M  V30 1294 N 119.726 -1.57421 0.075193 0
M  V30 1295 C 120.951 -1.98364 -0.605515 0
M  V30 1296 C 121.376 -0.953383 -1.62149 0
M  V30 1297 O 120.734 0.0806053 -1.81121 0
M  V30 1298 C 120.782 -3.38332 -1.24756 0
M  V30 1299 O 119.886 -3.37959 -2.36342 0
M  V30 1300 H 119.227 -0.645553 -0.155428 0
M  V30 1301 H 121.757 -2.04044 0.150714 0
M  V30 1302 H 121.767 -3.75591 -1.5936 0
M  V30 1303 H 120.442 -4.12846 -0.503129 0
M  V30 1304 H 119.019 -3.12474 -2.03506 0
M  V30 1305 N 121.204 0.198386 -1.56346 0
M  V30 1306 C 122.62 0.549085 -1.49857 0
M  V30 1307 C 122.82 1.86016 -0.774611 0
M  V30 1308 O 121.876 2.50416 -0.323776 0
M  V30 1309 C 123.189 0.606868 -2.94512 0
M  V30 1310 C 124.737 0.695925 -3.05165 0
M  V30 1311 C 125.212 0.784848 -4.51225 0
M  V30 1312 N 126.703 0.848463 -4.55363 0
M  V30 1313 C 127.438 0.937378 -5.65686 0
M  V30 1314 N 126.934 0.9888 -6.85707 0
M  V30 1315 N 128.727 0.974312 -5.53592 0
M  V30 1316 H 120.878 -0.661655 -2.01831 0
M  V30 1317 H 123.141 -0.235261 -0.918344 0
M  V30 1318 H 122.847 -0.28732 -3.50524 0
M  V30 1319 H 122.721 1.46268 -3.47686 0
M  V30 1320 H 125.108 1.58055 -2.49204 0
M  V30 1321 H 125.189 -0.186022 -2.55123 0
M  V30 1322 H 124.833 -0.0954072 -5.0781 0
M  V30 1323 H 124.763 1.68255 -4.98997 0
M  V30 1324 H 127.254 0.818103 -3.68938 0
M  V30 1325 H 127.567 1.05707 -7.65536 0
M  V30 1326 H 125.912 0.957534 -6.88372 0
M  V30 1327 H 129.103 0.930954 -4.58749 0
M  V30 1328 H 129.276 1.04015 -6.39597 0
M  V30 1329 N 122.682 1.50554 0.465978 0
M  V30 1330 C 124.098 1.38093 0.800154 0
M  V30 1331 C 124.298 0.440988 1.96615 0
M  V30 1332 O 123.354 -0.114499 2.5224 0
M  V30 1333 C 124.667 2.79565 1.10742 0
M  V30 1334 C 126.215 2.88516 1.21357 0
M  V30 1335 C 126.69 4.30833 1.55393 0
M  V30 1336 N 128.181 4.33807 1.62375 0
M  V30 1337 C 128.916 5.40927 1.90225 0
M  V30 1338 N 128.412 6.58247 2.16062 0
M  V30 1339 N 130.205 5.28376 1.9177 0
M  V30 1340 H 122.356 2.10237 -0.302366 0
M  V30 1341 H 124.619 0.945203 -0.0727746 0
M  V30 1342 H 124.325 3.50208 0.323661 0
M  V30 1343 H 124.199 3.17125 2.04234 0
M  V30 1344 H 126.586 2.1809 1.98799 0
M  V30 1345 H 126.667 2.54492 0.258321 0
M  V30 1346 H 126.311 5.01799 0.784889 0
M  V30 1347 H 126.241 4.62347 2.52076 0
M  V30 1348 H 128.732 3.49212 1.44427 0
M  V30 1349 H 129.045 7.3569 2.36601 0
M  V30 1350 H 127.39 6.61413 2.13444 0
M  V30 1351 H 130.581 4.35715 1.71085 0
M  V30 1352 H 130.754 6.11944 2.13139 0
M  V30 1353 N 124.16 -0.719506 1.40217 0
M  V30 1354 C 125.385 -1.51371 1.4178 0
M  V30 1355 C 125.81 -1.88091 0.0182355 0
M  V30 1356 O 125.168 -1.52997 -0.972707 0
M  V30 1357 C 125.216 -2.768 2.31115 0
M  V30 1358 O 124.32 -3.73349 1.7517 0
M  V30 1359 H 123.661 -0.456529 0.482159 0
M  V30 1360 H 126.191 -0.88644 1.844 0
M  V30 1361 H 126.201 -3.25371 2.46167 0
M  V30 1362 H 124.876 -2.49407 3.3282 0
M  V30 1363 H 123.453 -3.32179 1.69444 0
M  V30 1364 N 125.638 -1.25649 -0.95132 0
M  V30 1365 C 126.568 -1.08808 -2.06599 0
M  V30 1366 C 127.549 0.00382547 -1.701 0
M  V30 1367 O 128.734 -0.166325 -1.93486 0
M  V30 1368 C 125.864 -0.709542 -3.39975 0
M  V30 1369 C 124.818 -1.75206 -3.90496 0
M  V30 1370 C 124.144 -1.22811 -5.20405 0
M  V30 1371 C 125.444 -3.15153 -4.16504 0
M  V30 1372 H 127.138 -2.02048 -2.20946 0
M  V30 1373 H 124.684 -0.972835 -1.06169 0
M  V30 1374 H 126.637 -0.578649 -4.17408 0
M  V30 1375 H 125.361 0.258556 -3.25575 0
M  V30 1376 H 124.02 -1.87145 -3.15234 0
M  V30 1377 H 123.668 -0.250145 -5.02378 0
M  V30 1378 H 123.368 -1.92492 -5.55176 0
M  V30 1379 H 124.892 -1.10968 -6.00432 0
M  V30 1380 H 126.306 -3.06349 -4.84586 0
M  V30 1381 H 124.703 -3.82333 -4.62538 0
M  V30 1382 H 125.773 -3.61966 -3.22658 0
M  V30 1383 N 127.117 1.15442 -1.07289 0
M  V30 1384 C 128.363 1.8672 -0.806679 0
M  V30 1385 C 128.718 1.80723 0.660084 0
M  V30 1386 O 128.011 1.21902 1.47819 0
M  V30 1387 C 128.205 3.3489 -1.24834 0
M  V30 1388 C 128.034 3.55313 -2.7565 0
M  V30 1389 C 126.804 3.7082 -3.4325 0
M  V30 1390 C 129.002 3.53188 -3.73848 0
M  V30 1391 N 126.984 3.7929 -4.82713 0
M  V30 1392 C 128.355 3.67765 -4.99149 0
M  V30 1393 C 130.41 3.36459 -3.67015 0
M  V30 1394 C 129.113 3.6734 -6.18428 0
M  V30 1395 C 131.139 3.37333 -4.85758 0
M  V30 1396 C 130.501 3.52438 -6.09891 0
M  V30 1397 H 126.6 0.700433 -0.347733 0
M  V30 1398 H 129.184 1.38441 -1.36902 0
M  V30 1399 H 127.355 3.81786 -0.713713 0
M  V30 1400 H 129.087 3.93875 -0.929745 0
M  V30 1401 H 125.842 3.71568 -2.93656 0
M  V30 1402 H 126.266 3.8727 -5.55294 0
M  V30 1403 H 130.908 3.237 -2.71989 0
M  V30 1404 H 128.626 3.78878 -7.13777 0
M  V30 1405 H 132.212 3.25617 -4.82146 0
M  V30 1406 H 131.092 3.53047 -7.00234 0
M  V30 1407 N 128.595 0.856903 1.32268 0
M  V30 1408 C 129.872 0.382583 1.91822 0
M  V30 1409 C 130.252 -1.13407 1.78051 0
M  V30 1410 O 129.6 -1.95673 1.18001 0
M  V30 1411 C 129.81 0.849446 3.38505 0
M  V30 1412 C 131.158 0.867936 4.15634 0
M  V30 1413 O 132.182 0.794232 3.47232 0
M  V30 1414 O 131.041 0.972286 5.37781 0
M  V30 1415 H 128.135 0.112014 0.819379 0
M  V30 1416 H 130.681 0.943952 1.41024 0
M  V30 1417 H 129.453 1.89267 3.42482 0
M  V30 1418 H 129.076 0.265652 3.96712 0
M  V30 1419 N 130.073 -1.45103 0.615059 0
M  V30 1420 C 131.005 -2.28786 -0.13762 0
M  V30 1421 C 132.018 -1.40376 -0.824525 0
M  V30 1422 O 133.207 -1.64681 -0.688662 0
M  V30 1423 C 130.307 -3.16322 -1.21628 0
M  V30 1424 C 129.48 -4.33054 -0.615039 0
M  V30 1425 C 128.539 -5.01743 -1.58556 0
M  V30 1426 O 127.565 -5.58293 -1.10895 0
M  V30 1427 N 128.767 -5.01714 -2.91998 0
M  V30 1428 H 131.532 -2.94025 0.580483 0
M  V30 1429 H 129.093 -1.55373 0.45507 0
M  V30 1430 H 131.085 -3.59139 -1.86552 0
M  V30 1431 H 129.655 -2.52943 -1.83681 0
M  V30 1432 H 128.875 -3.93627 0.21245 0
M  V30 1433 H 130.163 -5.08431 -0.193704 0
M  V30 1434 H 129.561 -4.57075 -3.33316 0
M  V30 1435 H 128.118 -5.48371 -3.52325 0
M  V30 1436 N 131.551 -0.354651 -1.53558 0
M  V30 1437 C 132.799 0.237972 -2.00694 0
M  V30 1438 C 133.12 1.50173 -1.24391 0
M  V30 1439 O 132.39 1.92673 -0.354135 0
M  V30 1440 H 130.97 0.0909256 -0.741446 0
M  V30 1441 H 133.632 -0.478368 -1.88938 0
M  V30 1442 H 132.728 0.47264 -3.085 0
M  V30 1443 N 133.029 1.57378 -0.0835403 0
M  V30 1444 C 133.977 2.14602 0.89714 0
M  V30 1445 C 134.971 1.08589 1.30018 0
M  V30 1446 O 136.177 1.26952 1.27606 0
M  V30 1447 H 132.552 0.686346 0.3073 0
M  V30 1448 H 134.523 2.95845 0.38969 0
M  V30 1449 C 133.272 2.73188 2.15089 0
M  V30 1450 H 132.595 3.54442 1.84962 0
M  V30 1451 H 134.035 3.1681 2.81793 0
M  V30 1452 C 132.494 1.68517 2.91725 0
M  V30 1453 O 133.024 1.11718 3.85852 0
M  V30 1454 N 131.23 1.39277 2.55049 0
M  V30 1455 H 130.777 1.85655 1.78577 0
M  V30 1456 H 130.735 0.694791 3.06627 0
M  V30 1457 N 134.507 -0.190092 1.56449 0
M  V30 1458 C 135.754 -0.909705 1.80916 0
M  V30 1459 C 136.082 -1.83047 0.657583 0
M  V30 1460 O 135.337 -1.92428 -0.356356 0
M  V30 1461 C 135.636 -1.75382 3.1141 0
M  V30 1462 C 135.302 -0.983606 4.40041 0
M  V30 1463 C 133.964 -0.770967 4.74984 0
M  V30 1464 C 136.316 -0.442024 5.19322 0
M  V30 1465 C 133.644 -0.0053448 5.867 0
M  V30 1466 C 135.996 0.310412 6.31838 0
M  V30 1467 C 134.66 0.534023 6.6536 0
M  V30 1468 H 133.93 -0.332885 0.662019 0
M  V30 1469 H 136.577 -0.175762 1.90692 0
M  V30 1470 H 134.882 -2.55659 2.96893 0
M  V30 1471 H 136.579 -2.31331 3.27547 0
M  V30 1472 H 133.169 -1.15936 4.12622 0
M  V30 1473 H 137.353 -0.593693 4.92736 0
M  V30 1474 H 132.609 0.177825 6.11141 0
M  V30 1475 H 136.783 0.737419 6.92485 0
M  V30 1476 H 134.41 1.12918 7.51767 0
M  V30 1477 N 135.985 -1.50799 -0.457987 0
M  V30 1478 C 137.396 -1.55152 -1.0385 0
M  V30 1479 C 137.747 -0.362719 -1.92818 0
M  V30 1480 O 136.872 0.522915 -2.09987 0
M  V30 1481 C 137.467 -2.81173 -1.89017 0
M  V30 1482 C 136.026 -2.88164 -2.42154 0
M  V30 1483 C 135.173 -2.49591 -1.20829 0
M  V30 1484 H 138.124 -1.56874 -0.240068 0
M  V30 1485 H 138.145 -2.63769 -2.74238 0
M  V30 1486 H 137.657 -3.67677 -1.24238 0
M  V30 1487 H 135.758 -2.06042 -3.10447 0
M  V30 1488 H 135.871 -3.91356 -2.76364 0
M  V30 1489 H 134.235 -2.02322 -1.54719 0
M  V30 1490 H 135.018 -3.38418 -0.576927 0
M  V30 1491 N 137.463 0.71206 -1.40597 0
M  V30 1492 C 138.393 1.83889 -1.43899 0
M  V30 1493 C 139.374 1.67442 -0.299504 0
M  V30 1494 O 140.559 1.87421 -0.508624 0
M  V30 1495 C 137.689 3.21877 -1.30431 0
M  V30 1496 C 136.643 3.53002 -2.42019 0
M  V30 1497 C 135.969 4.90172 -2.13626 0
M  V30 1498 C 137.269 3.53643 -3.84362 0
M  V30 1499 H 138.963 1.81383 -2.38203 0
M  V30 1500 H 136.509 0.871237 -1.14654 0
M  V30 1501 H 138.462 4.00404 -1.31357 0
M  V30 1502 H 137.186 3.24968 -0.326049 0
M  V30 1503 H 135.845 2.76818 -2.40349 0
M  V30 1504 H 135.493 4.89869 -1.14182 0
M  V30 1505 H 135.193 5.11962 -2.88389 0
M  V30 1506 H 136.717 5.71028 -2.1624 0
M  V30 1507 H 138.131 4.22203 -3.87837 0
M  V30 1508 H 136.528 3.86961 -4.58673 0
M  V30 1509 H 137.598 2.52954 -4.13693 0
M  V30 1510 N 138.941 1.26152 0.944643 0
M  V30 1511 C 140.19 1.10883 1.68487 0
M  V30 1512 C 140.503 -0.348153 1.92477 0
M  V30 1513 O 141.709 -0.621459 2.64292 0
M  V30 1514 C 140.165 1.93624 3.03377 0
M  V30 1515 C 139.773 3.43875 2.87148 0
M  V30 1516 C 141.517 1.86954 3.81115 0
M  V30 1517 C 139.424 4.18875 4.1749 0
M  V30 1518 H 138.354 0.41135 0.631907 0
M  V30 1519 H 141.005 1.50433 1.05082 0
M  V30 1520 H 139.387 1.46904 3.67743 0
M  V30 1521 H 140.561 3.98338 2.31653 0
M  V30 1522 H 138.876 3.51744 2.22856 0
M  V30 1523 H 141.473 2.40275 4.77673 0
M  V30 1524 H 141.816 0.839518 4.07747 0
M  V30 1525 H 142.349 2.31477 3.23517 0
M  V30 1526 H 139.088 5.22332 3.96043 0
M  V30 1527 H 138.608 3.69193 4.72712 0
M  V30 1528 H 140.287 4.27134 4.85968 0
M  V30 1529 N 140.419 -1.14872 1.07899 0
M  V30 1530 C 141.668 -1.85135 0.800499 0
M  V30 1531 C 141.981 -1.83547 -0.676014 0
M  V30 1532 O 143.187 -2.49548 -1.06948 0
M  V30 1533 C 141.643 -3.3231 1.38197 0
M  V30 1534 C 141.251 -3.42329 2.8899 0
M  V30 1535 C 142.995 -4.0772 1.18174 0
M  V30 1536 C 140.902 -4.83684 3.403 0
M  V30 1537 H 139.832 -0.693563 0.29578 0
M  V30 1538 H 142.483 -1.29532 1.29976 0
M  V30 1539 H 140.865 -3.87618 0.810431 0
M  V30 1540 H 142.039 -2.97097 3.52236 0
M  V30 1541 H 140.354 -2.80369 3.07867 0
M  V30 1542 H 142.951 -5.12049 1.5398 0
M  V30 1543 H 143.294 -4.16124 0.12117 0
M  V30 1544 H 143.827 -3.58696 1.71994 0
M  V30 1545 H 140.566 -4.80465 4.45907 0
M  V30 1546 H 140.086 -5.29474 2.81811 0
M  V30 1547 H 141.765 -5.52558 3.36584 0
M  V30 1548 N 141.898 -0.863906 -1.31812 0
M  V30 1549 C 142.845 -0.313303 -2.28664 0
M  V30 1550 C 143.815 0.584868 -1.55462 0
M  V30 1551 O 145 0.517805 -1.83639 0
M  V30 1552 C 142.14 0.48441 -3.41683 0
M  V30 1553 C 141.253 -0.440594 -4.29747 0
M  V30 1554 C 140.388 0.370652 -5.29905 0
M  V30 1555 C 139.427 -0.551164 -6.09613 0
M  V30 1556 N 138.564 0.223462 -7.01744 0
M  V30 1557 H 143.404 -1.14444 -2.75148 0
M  V30 1558 H 140.941 -0.575769 -1.35364 0
M  V30 1559 H 142.899 0.962627 -4.05943 0
M  V30 1560 H 141.529 1.28029 -2.96325 0
M  V30 1561 H 140.581 -1.03724 -3.65986 0
M  V30 1562 H 141.893 -1.14767 -4.85417 0
M  V30 1563 H 141.047 0.911638 -5.99812 0
M  V30 1564 H 139.786 1.11105 -4.74876 0
M  V30 1565 H 138.791 -1.10396 -5.38603 0
M  V30 1566 H 140.016 -1.29032 -6.66729 0
M  V30 1567 H 137.962 0.946787 -6.49132 0
M  V30 1568 H 137.879 -0.424399 -7.54808 0
M  V30 1569 H 139.147 0.745876 -7.75923 0
M  V30 1570 N 143.376 1.44774 -0.622745 0
M  V30 1571 C 144.324 2.32387 0.0994683 0
M  V30 1572 C 145.318 1.46859 0.844326 0
M  V30 1573 O 146.524 1.63254 0.758174 0
M  V30 1574 H 142.899 0.750273 0.0509291 0
M  V30 1575 H 144.87 2.91062 -0.65767 0
M  V30 1576 C 143.619 3.30723 1.07319 0
M  V30 1577 H 142.942 3.96541 0.509462 0
M  V30 1578 H 144.382 3.94725 1.54817 0
M  V30 1579 C 142.841 2.59021 2.15429 0
M  V30 1580 O 143.371 2.38286 3.23393 0
M  V30 1581 N 141.577 2.189 1.91131 0
M  V30 1582 H 141.124 2.35964 1.03337 0
M  V30 1583 H 141.082 1.71251 2.63668 0
M  V30 1584 N 144.854 0.36279 1.53368 0
M  V30 1585 C 145.784 -0.476976 2.28576 0
M  V30 1586 C 146.765 -1.08631 1.30894 0
M  V30 1587 O 147.95 -1.10409 1.59761 0
M  V30 1588 C 145.08 -1.61828 3.07293 0
M  V30 1589 C 144.034 -1.13633 4.1264 0
M  V30 1590 C 143.36 -2.36766 4.79423 0
M  V30 1591 C 144.66 -0.223061 5.21823 0
M  V30 1592 H 146.354 0.150474 2.99022 0
M  V30 1593 H 143.9 0.0738103 1.43811 0
M  V30 1594 H 145.853 -2.21237 3.58653 0
M  V30 1595 H 144.577 -2.27292 2.34533 0
M  V30 1596 H 143.236 -0.564945 3.62221 0
M  V30 1597 H 142.884 -3.0068 4.03238 0
M  V30 1598 H 142.584 -2.05192 5.50609 0
M  V30 1599 H 144.108 -2.96865 5.33576 0
M  V30 1600 H 145.522 -0.724545 5.68703 0
M  V30 1601 H 143.919 0.001678 6.001 0
M  V30 1602 H 144.989 0.735553 4.79289 0
M  V30 1603 N 146.332 -1.57332 0.0918853 0
M  V30 1604 C 147.279 -2.13847 -0.868211 0
M  V30 1605 C 148.249 -1.05618 -1.28196 0
M  V30 1606 O 149.434 -1.33387 -1.36427 0
M  V30 1607 C 146.574 -2.72062 -2.12312 0
M  V30 1608 C 145.687 -3.94514 -1.7602 0
M  V30 1609 C 144.822 -4.40903 -2.96273 0
M  V30 1610 C 143.861 -5.55953 -2.56092 0
M  V30 1611 N 142.998 -5.97209 -3.69169 0
M  V30 1612 H 147.838 -2.95575 -0.379406 0
M  V30 1613 H 145.375 -1.46048 -0.175606 0
M  V30 1614 H 147.333 -3.03931 -2.858 0
M  V30 1615 H 145.963 -1.93068 -2.58698 0
M  V30 1616 H 145.015 -3.68979 -0.925135 0
M  V30 1617 H 146.327 -4.7802 -1.42472 0
M  V30 1618 H 145.481 -4.74539 -3.78018 0
M  V30 1619 H 144.22 -3.56291 -3.33029 0
M  V30 1620 H 143.225 -5.21948 -1.72773 0
M  V30 1621 H 144.45 -6.42311 -2.20484 0
M  V30 1622 H 142.396 -5.15543 -4.05649 0
M  V30 1623 H 142.313 -6.75504 -3.39456 0
M  V30 1624 H 143.581 -6.35475 -4.51434 0
M  V30 1625 N 147.81 0.181792 -1.56548 0
M  V30 1626 C 149.059 0.898348 -1.8059 0
M  V30 1627 C 149.372 1.83862 -0.667379 0
M  V30 1628 O 150.578 2.59678 -0.792446 0
M  V30 1629 C 149.034 1.64791 -3.19956 0
M  V30 1630 C 148.642 0.751789 -4.41647 0
M  V30 1631 C 150.386 2.35331 -3.53298 0
M  V30 1632 C 148.293 1.50098 -5.72035 0
M  V30 1633 H 147.223 0.339194 -0.673397 0
M  V30 1634 H 149.874 0.151413 -1.82874 0
M  V30 1635 H 148.256 2.43921 -3.11959 0
M  V30 1636 H 149.43 -0.0018076 -4.608 0
M  V30 1637 H 147.745 0.156562 -4.16106 0
M  V30 1638 H 150.342 2.91958 -4.47956 0
M  V30 1639 H 150.685 3.10164 -2.77676 0
M  V30 1640 H 151.218 1.63154 -3.62803 0
M  V30 1641 H 147.957 0.795175 -6.50659 0
M  V30 1642 H 147.477 2.22817 -5.56878 0
M  V30 1643 H 149.156 2.05125 -6.13622 0
M  V30 1644 N 149.288 1.51039 0.449983 0
M  V30 1645 C 150.198 1.74261 1.57067 0
M  V30 1646 C 151.214 0.626363 1.62335 0
M  V30 1647 O 152.39 0.907162 1.79812 0
M  V30 1648 C 149.455 1.85114 2.93144 0
M  V30 1649 C 148.516 3.0893 2.98095 0
M  V30 1650 C 147.749 3.19256 4.27681 0
M  V30 1651 O 147.972 2.35835 5.19363 0
M  V30 1652 O 146.906 4.12144 4.38658 0
M  V30 1653 H 150.732 2.69303 1.40391 0
M  V30 1654 H 148.317 1.35389 0.631688 0
M  V30 1655 H 150.199 1.94311 3.73926 0
M  V30 1656 H 148.874 0.932588 3.09975 0
M  V30 1657 H 147.781 3.0522 2.16314 0
M  V30 1658 H 149.114 4.00433 2.86206 0
M  V30 1659 N 150.766 -0.704594 1.40972 0
M  V30 1660 C 152.043 -1.45847 1.30338 0
M  V30 1661 C 152.423 -2.10973 -0.0732344 0
M  V30 1662 O 151.771 -2.00997 -1.08685 0
M  V30 1663 C 151.981 -2.48525 2.45023 0
M  V30 1664 C 153.329 -3.1404 2.8577 0
M  V30 1665 O 154.353 -2.58848 2.44696 0
M  V30 1666 O 153.212 -4.13981 3.56766 0
M  V30 1667 H 150.306 -0.649092 0.512454 0
M  V30 1668 H 152.852 -0.735836 1.52917 0
M  V30 1669 H 151.624 -1.98994 3.36923 0
M  V30 1670 H 151.247 -3.2831 2.24272 0
M  V30 1671 N 152.244 -1.26651 -0.937939 0
M  V30 1672 C 153.469 -1.15279 -1.72411 0
M  V30 1673 C 153.894 0.287866 -1.85884 0
M  V30 1674 O 153.252 1.20855 -1.35143 0
M  V30 1675 C 153.3 -1.83028 -3.10698 0
M  V30 1676 O 152.404 -1.12128 -3.96864 0
M  V30 1677 H 151.745 -0.401504 -0.528858 0
M  V30 1678 H 154.275 -1.67531 -1.1745 0
M  V30 1679 H 154.285 -1.89981 -3.6107 0
M  V30 1680 H 152.96 -2.87833 -3.00208 0
M  V30 1681 H 151.537 -1.13173 -3.55312 0
M  V30 1682 N 153.722 1.14298 -1.08507 0
M  V30 1683 C 154.999 1.81544 -0.728088 0
M  V30 1684 C 155.379 1.95838 0.78808 0
M  V30 1685 O 154.727 1.51904 1.70697 0
M  V30 1686 C 154.937 3.17169 -1.45619 0
M  V30 1687 C 156.285 3.9265 -1.61591 0
M  V30 1688 O 157.309 3.26762 -1.41793 0
M  V30 1689 O 156.168 5.10807 -1.94263 0
M  V30 1690 H 153.262 0.78491 -0.260471 0
M  V30 1691 H 155.808 1.21307 -1.18671 0
M  V30 1692 H 154.58 3.01934 -2.489 0
M  V30 1693 H 154.203 3.851 -0.989124 0
M  V30 1694 N 155.201 0.870884 1.31352 0
M  V30 1695 C 156.429 0.49677 2.00848 0
M  V30 1696 C 156.844 -0.910998 1.65367 0
M  V30 1697 O 156.201 -1.59696 0.883374 0
M  V30 1698 C 156.252 0.645308 3.55694 0
M  V30 1699 O 155.973 1.99764 3.89905 0
M  V30 1700 C 157.474 0.272326 4.42463 0
M  V30 1701 H 154.694 0.193462 0.642506 0
M  V30 1702 H 157.238 1.1723 1.67563 0
M  V30 1703 H 155.393 0.0173176 3.87396 0
M  V30 1704 H 155.807 2.00607 4.84621 0
M  V30 1705 H 157.281 0.427208 5.50344 0
M  V30 1706 H 157.758 -0.788587 4.32062 0
M  V30 1707 H 158.364 0.876054 4.1618 0
M  V30 1708 N 156.679 -1.44442 0.630414 0
M  V30 1709 C 157.909 -2.06115 0.141465 0
M  V30 1710 C 158.317 -1.47179 -1.1889 0
M  V30 1711 O 157.66 -0.588873 -1.74006 0
M  V30 1712 C 157.722 -3.59467 -0.0484355 0
M  V30 1713 C 157.386 -4.40864 1.20366 0
M  V30 1714 C 158.383 -4.74391 2.12719 0
M  V30 1715 C 156.068 -4.8125 1.43887 0
M  V30 1716 C 158.062 -5.47186 3.26904 0
M  V30 1717 C 155.749 -5.53795 2.5837 0
M  V30 1718 C 156.747 -5.86682 3.49705 0
M  V30 1719 O 156.435 -6.57749 4.62191 0
M  V30 1720 H 156.167 -0.671648 0.0765792 0
M  V30 1721 H 158.721 -1.86312 0.864695 0
M  V30 1722 H 156.951 -3.77758 -0.826803 0
M  V30 1723 H 158.64 -4.02909 -0.491849 0
M  V30 1724 H 159.406 -4.43728 1.95781 0
M  V30 1725 H 155.285 -4.55073 0.736853 0
M  V30 1726 H 158.829 -5.72773 3.98217 0
M  V30 1727 H 154.726 -5.83872 2.75251 0
M  V30 1728 H 155.494 -6.76217 4.61164 0
M  V30 1729 N 158.157 -0.370918 -1.53173 0
M  V30 1730 C 159.406 0.218249 -2.00516 0
M  V30 1731 C 159.719 1.49429 -1.26215 0
M  V30 1732 O 160.925 2.16239 -1.64174 0
M  V30 1733 C 159.381 0.43948 -3.57207 0
M  V30 1734 C 158.989 -0.822244 -4.4039 0
M  V30 1735 C 160.733 0.986012 -4.1289 0
M  V30 1736 C 158.64 -0.570304 -5.88644 0
M  V30 1737 H 157.57 0.0853333 -0.749156 0
M  V30 1738 H 160.221 -0.490483 -1.76823 0
M  V30 1739 H 158.603 1.20961 -3.77074 0
M  V30 1740 H 159.777 -1.59557 -4.32294 0
M  V30 1741 H 158.092 -1.29238 -3.95836 0
M  V30 1742 H 160.689 1.18991 -5.21292 0
M  V30 1743 H 161.032 1.94972 -3.6782 0
M  V30 1744 H 161.565 0.27592 -3.96842 0
M  V30 1745 H 158.304 -1.50449 -6.38001 0
M  V30 1746 H 157.824 0.164427 -5.99575 0
M  V30 1747 H 159.503 -0.19784 -6.46697 0
M  V30 1748 N 159.635 1.57281 -0.100228 0
M  V30 1749 C 160.875 1.96419 0.56558 0
M  V30 1750 C 161.239 0.981265 1.65031 0
M  V30 1751 O 162.44 1.26133 2.37369 0
M  V30 1752 C 160.711 3.39996 1.10171 0
M  V30 1753 S 162.27 4.01134 1.77867 0
M  V30 1754 H 159.088 0.68667 0.184406 0
M  V30 1755 H 161.69 1.94662 -0.180851 0
M  V30 1756 H 160.394 4.09296 0.300803 0
M  V30 1757 H 159.925 3.45361 1.88385 0
M  V30 1758 H 161.94 3.90358 3.06326 0
M  V30 1759 N 161.113 -0.173488 1.56642 0
M  V30 1760 C 162.023 -1.23482 1.99473 0
M  V30 1761 C 163.039 -1.48567 0.905752 0
M  V30 1762 O 164.215 -1.60758 1.21321 0
M  V30 1763 C 161.28 -2.55444 2.34413 0
M  V30 1764 C 160.341 -2.38241 3.57127 0
M  V30 1765 C 159.574 -3.63909 3.90392 0
M  V30 1766 O 159.797 -4.68996 3.24653 0
M  V30 1767 O 158.731 -3.58149 4.83749 0
M  V30 1768 H 162.557 -0.901279 2.90018 0
M  V30 1769 H 160.142 -0.380185 1.44482 0
M  V30 1770 H 162.024 -3.33292 2.57865 0
M  V30 1771 H 160.699 -2.88382 1.4703 0
M  V30 1772 H 159.606 -1.58431 3.38896 0
M  V30 1773 H 160.939 -2.10228 4.45045 0
M  V30 1774 N 162.591 -1.51276 -0.441967 0
M  V30 1775 C 163.837 -1.63958 -1.19355 0
M  V30 1776 C 164.17 -0.352543 -1.90973 0
M  V30 1777 O 163.445 0.647627 -1.83401 0
M  V30 1778 C 163.728 -2.83979 -2.21422 0
M  V30 1779 C 163.581 -4.22646 -1.53918 0
M  V30 1780 C 164.9 -2.99521 -3.22451 0
M  V30 1781 H 162.019 -0.596709 -0.432559 0
M  V30 1782 H 164.661 -1.83748 -0.483398 0
M  V30 1783 H 162.811 -2.67237 -2.81987 0
M  V30 1784 H 164.483 -4.51045 -0.967256 0
M  V30 1785 H 162.726 -4.25558 -0.841615 0
M  V30 1786 H 163.397 -5.02609 -2.28229 0
M  V30 1787 H 165.873 -3.14944 -2.71937 0
M  V30 1788 H 164.749 -3.85072 -3.91166 0
M  V30 1789 H 165.01 -2.11391 -3.88287 0
M  V30 1790 N 164.069 0.697108 -1.41344 0
M  V30 1791 C 164.979 1.84088 -1.45427 0
M  V30 1792 C 165.995 1.70545 -0.34501 0
M  V30 1793 O 167.171 1.92488 -0.592492 0
M  V30 1794 C 164.236 3.20056 -1.33286 0
M  V30 1795 C 163.297 3.45718 -2.54514 0
M  V30 1796 C 162.53 4.75199 -2.42944 0
M  V30 1797 O 162.753 5.51579 -1.45318 0
M  V30 1798 O 161.687 5.0161 -3.32672 0
M  V30 1799 H 165.513 1.836 -2.41919 0
M  V30 1800 H 163.098 0.849966 -1.22866 0
M  V30 1801 H 164.98 4.01236 -1.28794 0
M  V30 1802 H 163.655 3.2123 -0.39909 0
M  V30 1803 H 162.562 2.64474 -2.64583 0
M  V30 1804 H 163.895 3.49356 -3.46715 0
M  V30 1805 N 165.547 1.27147 0.931209 0
M  V30 1806 C 166.824 1.0401 1.65654 0
M  V30 1807 C 167.204 -0.426297 2.06751 0
M  V30 1808 O 166.552 -1.40879 1.79904 0
M  V30 1809 C 166.762 1.99834 2.86125 0
M  V30 1810 C 168.11 2.29007 3.57549 0
M  V30 1811 O 169.134 1.97779 2.96246 0
M  V30 1812 O 167.993 2.82222 4.67989 0
M  V30 1813 H 165.087 0.396239 0.725895 0
M  V30 1814 H 167.633 1.38397 0.982056 0
M  V30 1815 H 166.405 2.98744 2.52721 0
M  V30 1816 H 166.028 1.65987 3.61295 0
M  V30 1817 N 167.025 -1.13721 1.09112 0
M  V30 1818 C 167.957 -2.1871 0.685467 0
M  V30 1819 C 168.97 -1.60527 -0.271068 0
M  V30 1820 O 170.159 -1.78407 -0.0576148 0
M  V30 1821 C 167.259 -3.38898 -0.0111255 0
M  V30 1822 C 166.432 -4.26597 0.966131 0
M  V30 1823 C 165.491 -5.25324 0.303539 0
M  V30 1824 O 164.517 -5.61213 0.950177 0
M  V30 1825 N 165.719 -5.72779 -0.943651 0
M  V30 1826 H 168.484 -2.54126 1.58871 0
M  V30 1827 H 166.045 -1.29012 0.978143 0
M  V30 1828 H 168.037 -4.02014 -0.465517 0
M  V30 1829 H 166.607 -3.01747 -0.816565 0
M  V30 1830 H 165.827 -3.60306 1.59917 0
M  V30 1831 H 167.115 -4.82048 1.6281 0
M  V30 1832 H 166.513 -5.45762 -1.48862 0
M  V30 1833 H 165.07 -6.37847 -1.34142 0
M  V30 1834 N 168.503 -0.877838 -1.30888 0
M  V30 1835 C 169.45 -0.337538 -2.28318 0
M  V30 1836 C 170.42 0.568346 -1.56074 0
M  V30 1837 O 171.605 0.498298 -1.84178 0
M  V30 1838 C 168.745 0.448142 -3.42178 0
M  V30 1839 C 167.858 -0.48615 -4.29256 0
M  V30 1840 C 166.993 0.314427 -5.30269 0
M  V30 1841 C 166.032 -0.615791 -6.08995 0
M  V30 1842 N 165.169 0.14902 -7.01942 0
M  V30 1843 H 170.009 -1.17356 -2.73919 0
M  V30 1844 H 167.546 -0.590094 -1.34745 0
M  V30 1845 H 169.504 0.919517 -4.06941 0
M  V30 1846 H 168.134 1.24879 -2.97666 0
M  V30 1847 H 167.186 -1.076 -3.64865 0
M  V30 1848 H 168.498 -1.19909 -4.84173 0
M  V30 1849 H 167.652 0.847969 -6.00745 0
M  V30 1850 H 166.391 1.06062 -4.76027 0
M  V30 1851 H 165.396 -1.16102 -5.37401 0
M  V30 1852 H 166.621 -1.36097 -6.65323 0
M  V30 1853 H 164.567 0.877884 -6.50099 0
M  V30 1854 H 164.484 -0.504433 -7.54315 0
M  V30 1855 H 165.752 0.663537 -7.76671 0
M  V30 1856 N 169.982 1.44106 -0.638065 0
M  V30 1857 C 170.892 2.34513 0.0637334 0
M  V30 1858 C 171.908 1.53018 0.828346 0
M  V30 1859 O 173.084 1.85723 0.779036 0
M  V30 1860 C 170.149 3.31095 1.02844 0
M  V30 1861 C 169.21 4.28497 0.26244 0
M  V30 1862 C 168.443 5.20465 1.1812 0
M  V30 1863 O 168.666 5.16514 2.42011 0
M  V30 1864 O 167.6 5.98251 0.661774 0
M  V30 1865 H 171.426 2.95989 -0.68003 0
M  V30 1866 H 169.011 1.43994 -0.398252 0
M  V30 1867 H 170.893 3.90526 1.58327 0
M  V30 1868 H 169.568 2.72144 1.7527 0
M  V30 1869 H 168.475 3.72592 -0.335602 0
M  V30 1870 H 169.808 4.90388 -0.421936 0
M  V30 1871 N 171.46 0.379036 1.52974 0
M  V30 1872 C 172.37 -0.468639 2.29872 0
M  V30 1873 C 173.386 -1.08067 1.36373 0
M  V30 1874 O 174.562 -1.08871 1.69438 0
M  V30 1875 C 171.627 -1.58594 3.083 0
M  V30 1876 C 170.688 -1.00007 4.17489 0
M  V30 1877 C 169.921 -2.06413 4.92168 0
M  V30 1878 O 170.144 -3.27751 4.66835 0
M  V30 1879 O 169.078 -1.68717 5.7777 0
M  V30 1880 H 172.904 0.157508 3.03291 0
M  V30 1881 H 170.489 0.143035 1.48714 0
M  V30 1882 H 172.371 -2.23525 3.57232 0
M  V30 1883 H 171.046 -2.19724 2.37703 0
M  V30 1884 H 169.953 -0.314299 3.72777 0
M  V30 1885 H 171.286 -0.433135 4.90291 0
M  V30 1886 N 172.938 -1.57226 0.108567 0
M  V30 1887 C 174.184 -1.95121 -0.552761 0
M  V30 1888 C 174.517 -0.991345 -1.66991 0
M  V30 1889 O 173.792 -0.0267211 -1.94482 0
M  V30 1890 C 174.075 -3.43039 -1.09528 0
M  V30 1891 C 173.928 -4.49797 0.0177332 0
M  V30 1892 C 175.247 -3.92567 -1.98945 0
M  V30 1893 H 172.366 -0.709496 -0.199461 0
M  V30 1894 H 175.008 -1.89126 0.182011 0
M  V30 1895 H 173.158 -3.48279 -1.72146 0
M  V30 1896 H 174.83 -4.56661 0.652584 0
M  V30 1897 H 173.073 -4.284 0.682309 0
M  V30 1898 H 173.744 -5.50528 -0.402919 0
M  V30 1899 H 176.22 -3.89565 -1.46214 0
M  V30 1900 H 175.096 -4.96605 -2.33827 0
M  V30 1901 H 175.357 -3.32648 -2.91201 0
M  V30 1902 N 174.416 0.165178 -1.56732 0
M  V30 1903 C 175.348 1.22911 -1.93457 0
M  V30 1904 C 176.361 1.40152 -0.828333 0
M  V30 1905 O 177.55 1.40046 -1.10677 0
M  V30 1906 C 174.65 2.59686 -2.17753 0
M  V30 1907 C 173.823 2.63663 -3.48999 0
M  V30 1908 C 172.882 3.81845 -3.62051 0
M  V30 1909 O 171.908 3.67559 -4.34613 0
M  V30 1910 N 173.11 4.98557 -2.97357 0
M  V30 1911 H 175.875 0.917118 -2.85323 0
M  V30 1912 H 173.436 0.354895 -1.57962 0
M  V30 1913 H 175.428 3.37225 -2.23743 0
M  V30 1914 H 173.998 2.83251 -1.32242 0
M  V30 1915 H 173.218 1.72173 -3.54612 0
M  V30 1916 H 174.506 2.63336 -4.35352 0
M  V30 1917 H 173.904 5.13065 -2.38287 0
M  V30 1918 H 172.461 5.73936 -3.08934 0
M  V30 1919 N 175.894 1.51508 0.433938 0
M  V30 1920 C 176.824 1.76016 1.53429 0
M  V30 1921 C 177.805 0.610112 1.58782 0
M  V30 1922 O 178.99 0.853177 1.74455 0
M  V30 1923 C 176.12 1.88831 2.9148 0
M  V30 1924 C 175.074 3.04288 3.00987 0
M  V30 1925 C 174.4 3.0229 4.4105 0
M  V30 1926 C 175.7 4.44193 2.74754 0
M  V30 1927 H 177.394 2.68152 1.33171 0
M  V30 1928 H 174.94 1.29035 0.639214 0
M  V30 1929 H 176.893 2.04559 3.6842 0
M  V30 1930 H 175.617 0.933455 3.12976 0
M  V30 1931 H 174.276 2.8827 2.26486 0
M  V30 1932 H 173.924 2.04576 4.59519 0
M  V30 1933 H 173.624 3.79822 4.4834 0
M  V30 1934 H 175.148 3.20116 5.1996 0
M  V30 1935 H 176.562 4.60544 3.41426 0
M  V30 1936 H 174.959 5.23457 2.9345 0
M  V30 1937 H 176.029 4.53996 1.70339 0
M  V30 1938 N 177.372 -0.689602 1.41712 0
M  V30 1939 C 178.302 -1.81577 1.46806 0
M  V30 1940 C 179.283 -1.66945 0.326105 0
M  V30 1941 O 180.468 -1.86588 0.538377 0
M  V30 1942 C 177.598 -3.19762 1.35535 0
M  V30 1943 C 176.552 -3.49107 2.47605 0
M  V30 1944 C 175.878 -4.86711 2.21397 0
M  V30 1945 C 177.178 -3.47483 3.89939 0
M  V30 1946 H 178.872 -1.7757 2.41058 0
M  V30 1947 H 176.418 -0.852887 1.16025 0
M  V30 1948 H 178.371 -3.98263 1.3771 0
M  V30 1949 H 177.095 -3.24409 0.377708 0
M  V30 1950 H 175.754 -2.72959 2.44722 0
M  V30 1951 H 175.402 -4.8799 1.21961 0
M  V30 1952 H 175.102 -5.0731 2.96497 0
M  V30 1953 H 176.626 -5.67515 2.25297 0
M  V30 1954 H 178.04 -4.1598 3.94505 0
M  V30 1955 H 176.437 -3.79615 4.64771 0
M  V30 1956 H 177.507 -2.46341 4.17665 0
M  V30 1957 N 178.85 -1.27639 -0.924453 0
M  V30 1958 C 180.096 -1.14336 -1.67497 0
M  V30 1959 C 180.429 0.309465 -1.91718 0
M  V30 1960 O 179.704 1.22608 -1.50989 0
M  V30 1961 C 179.987 -1.93096 -3.0395 0
M  V30 1962 C 179.84 -3.46381 -2.8695 0
M  V30 1963 C 181.159 -1.73798 -4.0433 0
M  V30 1964 H 178.278 -0.416728 -0.607871 0
M  V30 1965 H 180.92 -1.56832 -1.07256 0
M  V30 1966 H 179.07 -1.56982 -3.55372 0
M  V30 1967 H 180.742 -3.92343 -2.42621 0
M  V30 1968 H 178.985 -3.72557 -2.22225 0
M  V30 1969 H 179.656 -3.96735 -3.83804 0
M  V30 1970 H 182.132 -2.05293 -3.61931 0
M  V30 1971 H 181.008 -2.31294 -4.97789 0
M  V30 1972 H 181.269 -0.686725 -4.36734 0
M  V30 1973 N 180.328 1.1314 -1.09713 0
M  V30 1974 C 181.575 1.84484 -0.834987 0
M  V30 1975 C 181.903 1.83689 0.639418 0
M  V30 1976 O 181.158 1.2724 1.4869 0
M  V30 1977 C 181.457 3.32167 -1.3191 0
M  V30 1978 C 181.123 3.53139 -2.80363 0
M  V30 1979 C 179.785 3.58571 -3.20905 0
M  V30 1980 C 182.137 3.60866 -3.76065 0
M  V30 1981 C 179.465 3.69267 -4.55916 0
M  V30 1982 C 181.817 3.73089 -5.10869 0
M  V30 1983 C 180.481 3.76775 -5.50996 0
M  V30 1984 H 179.751 0.675073 -0.305544 0
M  V30 1985 H 182.398 1.33554 -1.37243 0
M  V30 1986 H 180.703 3.85469 -0.701517 0
M  V30 1987 H 182.4 3.85821 -1.09284 0
M  V30 1988 H 178.99 3.49569 -2.47991 0
M  V30 1989 H 183.174 3.55946 -3.45855 0
M  V30 1990 H 178.43 3.70388 -4.86438 0
M  V30 1991 H 182.604 3.78011 -5.84877 0
M  V30 1992 H 180.231 3.84815 -6.55608 0
M  V30 1993 N 181.806 0.884767 1.30421 0
M  V30 1994 C 183.054 0.502112 1.95763 0
M  V30 1995 C 183.375 -0.951815 1.70192 0
M  V30 1996 O 182.645 -1.6692 1.0254 0
M  V30 1997 H 181.225 0.182694 0.724315 0
M  V30 1998 H 183.887 1.1278 1.58955 0
M  V30 1999 H 182.983 0.672188 3.04775 0
M  V30 2000 N 183.284 -1.43765 0.645699 0
M  V30 2001 C 184.214 -2.33471 -0.0370477 0
M  V30 2002 C 185.195 -1.49042 -0.819779 0
M  V30 2003 O 186.38 -1.77726 -0.782758 0
M  V30 2004 C 183.51 -3.32311 -1.0093 0
M  V30 2005 C 182.464 -4.2667 -0.337201 0
M  V30 2006 C 181.79 -5.1549 -1.42037 0
M  V30 2007 C 183.09 -5.16657 0.765706 0
M  V30 2008 H 184.784 -2.90809 0.712069 0
M  V30 2009 H 182.33 -1.39834 0.343876 0
M  V30 2010 H 184.283 -3.9396 -1.49578 0
M  V30 2011 H 183.007 -2.73213 -1.78948 0
M  V30 2012 H 181.666 -3.66374 0.128771 0
M  V30 2013 H 181.314 -4.52735 -2.1918 0
M  V30 2014 H 181.014 -5.79438 -0.975966 0
M  V30 2015 H 182.538 -5.80012 -1.90838 0
M  V30 2016 H 183.952 -5.72158 0.361702 0
M  V30 2017 H 182.349 -5.89286 1.13413 0
M  V30 2018 H 183.419 -4.56796 1.62683 0
M  V30 2019 N 184.763 -0.387143 -1.52771 0
M  V30 2020 C 185.991 0.195869 -2.05971 0
M  V30 2021 C 186.406 1.40691 -1.25903 0
M  V30 2022 O 185.763 1.79931 -0.305134 0
M  V30 2023 C 185.814 0.56812 -3.57008 0
M  V30 2024 O 185.535 -0.594803 -4.34043 0
M  V30 2025 C 187.036 1.20723 -4.26545 0
M  V30 2026 H 184.256 0.0300578 -0.670326 0
M  V30 2027 H 186.8 -0.551749 -1.96916 0
M  V30 2028 H 184.955 1.26564 -3.66143 0
M  V30 2029 H 185.369 -0.289322 -5.23701 0
M  V30 2030 H 186.843 1.41807 -5.33474 0
M  V30 2031 H 187.32 2.17395 -3.81623 0
M  V30 2032 H 187.926 0.550535 -4.21722 0
M  V30 2033 N 186.241 1.57166 -0.116904 0
M  V30 2034 C 187.204 2.14039 0.819742 0
M  V30 2035 C 188.204 1.07477 1.19605 0
M  V30 2036 O 189.394 1.33263 1.1219 0
M  V30 2037 C 186.526 2.67891 2.10826 0
M  V30 2038 H 187.719 2.98128 0.325511 0
M  V30 2039 H 185.272 1.55739 0.132312 0
M  V30 2040 H 186.007 1.87384 2.64685 0
M  V30 2041 H 185.792 3.45823 1.84793 0
M  V30 2042 H 187.282 3.11809 2.77785 0
M  V30 2043 N 187.719 -0.156864 1.56817 0
M  V30 2044 C 188.667 -1.21319 1.98455 0
M  V30 2045 C 189.661 -1.45025 0.875444 0
M  V30 2046 O 190.867 -1.45435 1.0606 0
M  V30 2047 H 187.242 -0.408142 0.631605 0
M  V30 2048 H 189.213 -0.835244 2.86472 0
M  V30 2049 C 187.962 -2.54148 2.37285 0
M  V30 2050 H 187.285 -2.36733 3.22176 0
M  V30 2051 H 188.725 -3.26712 2.70251 0
M  V30 2052 C 187.184 -3.13967 1.22173 0
M  V30 2053 O 187.714 -3.98357 0.517149 0
M  V30 2054 N 185.92 -2.7327 0.988536 0
M  V30 2055 H 185.467 -2.04744 1.56326 0
M  V30 2056 H 185.425 -3.13628 0.220209 0
M  V30 2057 N 189.197 -1.51736 -0.425897 0
M  V30 2058 C 190.422 -1.69082 -1.20108 0
M  V30 2059 C 190.847 -0.392398 -1.83962 0
M  V30 2060 O 190.205 0.64858 -1.69302 0
M  V30 2061 C 190.253 -2.81604 -2.25237 0
M  V30 2062 O 189.357 -2.46004 -3.30992 0
M  V30 2063 H 188.698 -0.563408 -0.35138 0
M  V30 2064 H 191.228 -1.98358 -0.501512 0
M  V30 2065 H 191.238 -3.06025 -2.69838 0
M  V30 2066 H 189.913 -3.75817 -1.78142 0
M  V30 2067 H 188.49 -2.32195 -2.91787 0
M  V30 2068 N 190.675 0.682077 -1.42076 0
M  V30 2069 C 191.952 1.43755 -1.32642 0
M  V30 2070 C 192.332 2.11063 0.0396611 0
M  V30 2071 O 191.68 2.02701 1.05474 0
M  V30 2072 C 191.89 2.44596 -2.48946 0
M  V30 2073 C 193.238 3.09454 -2.9073 0
M  V30 2074 O 194.262 2.54922 -2.48783 0
M  V30 2075 O 193.121 4.08253 -3.63307 0
M  V30 2076 H 190.215 0.640857 -0.522715 0
M  V30 2077 H 192.761 0.711415 -1.54068 0
M  V30 2078 H 191.533 1.93609 -3.40046 0
M  V30 2079 H 191.156 3.24701 -2.29467 0
M  V30 2080 N 192.153 1.28127 0.917671 0
M  V30 2081 C 193.381 1.17892 1.70026 0
M  V30 2082 C 193.796 -0.262958 1.8696 0
M  V30 2083 O 193.153 -1.17811 1.3938 0
M  V30 2084 C 193.204 1.86872 3.09453 0
M  V30 2085 O 192.925 3.25428 2.93306 0
M  V30 2086 C 194.426 1.8289 4.03815 0
M  V30 2087 H 191.646 0.40942 0.531617 0
M  V30 2088 H 194.19 1.69181 1.14883 0
M  V30 2089 H 192.345 1.39464 3.61426 0
M  V30 2090 H 192.759 3.59918 3.81523 0
M  V30 2091 H 194.233 2.35751 4.99125 0
M  V30 2092 H 194.71 0.800412 4.31845 0
M  V30 2093 H 195.316 2.29959 3.57769 0
M  V30 2094 N 193.631 -1.12557 1.10312 0
M  V30 2095 C 194.581 -2.16331 0.720076 0
M  V30 2096 C 195.565 -1.58616 -0.270115 0
M  V30 2097 O 196.757 -1.76823 -0.0790507 0
M  V30 2098 C 193.886 -3.42963 0.152113 0
M  V30 2099 C 192.972 -4.07663 1.16927 0
M  V30 2100 N 193.363 -4.47392 2.35953 0
M  V30 2101 C 191.661 -4.34425 1.0095 0
M  V30 2102 C 192.362 -4.97932 3.0073 0
M  V30 2103 N 191.338 -4.93358 2.28252 0
M  V30 2104 H 195.14 -2.44813 1.62616 0
M  V30 2105 H 192.654 -1.29449 0.980654 0
M  V30 2106 H 194.651 -4.16664 -0.14037 0
M  V30 2107 H 193.311 -3.1595 -0.748701 0
M  V30 2108 H 194.322 -4.39802 2.73486 0
M  V30 2109 H 190.999 -4.17177 0.164134 0
M  V30 2110 H 192.389 -5.38397 4.01969 0
M  V30 2111 N 195.109 -0.891671 -1.2995 0
M  V30 2112 C 196.039 -0.379797 -2.30391 0
M  V30 2113 C 197.02 0.540919 -1.6127 0
M  V30 2114 O 198.205 0.453352 -1.88834 0
M  V30 2115 C 195.335 0.400654 -3.44981 0
M  V30 2116 C 194.289 -0.428905 -4.25846 0
M  V30 2117 C 193.615 0.478557 -5.32554 0
M  V30 2118 C 194.915 -1.67458 -4.94727 0
M  V30 2119 H 196.609 -1.21914 -2.73454 0
M  V30 2120 H 194.155 -0.587675 -1.31462 0
M  V30 2121 H 196.108 0.769434 -4.14316 0
M  V30 2122 H 194.832 1.27371 -3.0074 0
M  V30 2123 H 193.491 -0.779911 -3.58208 0
M  V30 2124 H 193.139 1.34951 -4.84559 0
M  V30 2125 H 192.839 -0.0727433 -5.87555 0
M  V30 2126 H 194.363 0.843705 -6.04743 0
M  V30 2127 H 195.777 -1.376 -5.56542 0
M  V30 2128 H 194.174 -2.16659 -5.59624 0
M  V30 2129 H 195.244 -2.41518 -4.20473 0
M  V30 2130 N 196.587 1.43421 -0.653314 0
M  V30 2131 C 197.517 2.33487 0.0246656 0
M  V30 2132 C 198.498 1.49475 0.811863 0
M  V30 2133 O 199.683 1.78139 0.773322 0
M  V30 2134 C 196.813 3.32841 0.99166 0
M  V30 2135 C 195.767 4.26842 0.314568 0
M  V30 2136 C 195.093 5.16236 1.39302 0
M  V30 2137 C 196.393 5.16243 -0.793095 0
M  V30 2138 H 198.087 2.90427 -0.727481 0
M  V30 2139 H 195.633 1.39649 -0.351287 0
M  V30 2140 H 197.586 3.94747 1.47487 0
M  V30 2141 H 196.31 2.74158 1.77497 0
M  V30 2142 H 194.969 3.663 -0.148199 0
M  V30 2143 H 194.617 4.53891 2.16776 0
M  V30 2144 H 194.317 5.79948 0.945223 0
M  V30 2145 H 195.841 5.81015 1.87759 0
M  V30 2146 H 197.255 5.71958 -0.392039 0
M  V30 2147 H 195.652 5.88676 -1.16536 0
M  V30 2148 H 196.722 4.55927 -1.65103 0
M  V30 2149 N 198.065 0.39524 1.52563 0
M  V30 2150 C 198.997 -0.472201 2.24283 0
M  V30 2151 C 200.01 -1.02178 1.26742 0
M  V30 2152 O 201.199 -0.923097 1.52778 0
M  V30 2153 C 198.299 -1.66775 2.95024 0
M  V30 2154 C 197.472 -1.2445 4.19322 0
M  V30 2155 C 196.531 -2.30539 4.7301 0
M  V30 2156 O 195.557 -1.91702 5.35947 0
M  V30 2157 N 196.759 -3.6253 4.53379 0
M  V30 2158 H 199.524 0.142282 2.99362 0
M  V30 2159 H 197.085 0.2219 1.60372 0
M  V30 2160 H 199.077 -2.37283 3.27839 0
M  V30 2161 H 197.647 -2.18845 2.23217 0
M  V30 2162 H 196.867 -0.368069 3.92478 0
M  V30 2163 H 198.155 -0.938457 5.0007 0
M  V30 2164 H 197.553 -3.96841 4.03154 0
M  V30 2165 H 196.11 -4.29055 4.90668 0
M  V30 2166 N 199.544 -1.57102 0.125237 0
M  V30 2167 C 200.792 -1.95021 -0.530198 0
M  V30 2168 C 201.113 -1.00982 -1.66816 0
M  V30 2169 O 200.383 -0.0672693 -1.95784 0
M  V30 2170 H 198.963 -0.720046 -0.198853 0
M  V30 2171 H 201.625 -1.93916 0.19564 0
M  V30 2172 H 200.721 -2.98211 -0.920681 0
M  V30 2173 N 201.022 0.148545 -1.56898 0
M  V30 2174 C 201.954 1.20852 -1.9475 0
M  V30 2175 C 202.967 1.39265 -0.843152 0
M  V30 2176 O 204.156 1.38864 -1.12156 0
M  V30 2177 C 201.256 2.57362 -2.20495 0
M  V30 2178 C 200.429 2.59947 -3.51776 0
M  V30 2179 C 199.488 3.77984 -3.6608 0
M  V30 2180 O 198.514 3.62929 -4.38487 0
M  V30 2181 N 199.716 4.95375 -3.02629 0
M  V30 2182 H 202.481 0.886804 -2.86279 0
M  V30 2183 H 200.042 0.338121 -1.5833 0
M  V30 2184 H 202.034 3.34833 -2.27307 0
M  V30 2185 H 200.604 2.81832 -1.35238 0
M  V30 2186 H 199.824 1.68403 -3.56419 0
M  V30 2187 H 201.112 2.58704 -4.38121 0
M  V30 2188 H 200.51 5.10509 -2.43715 0
M  V30 2189 H 199.067 5.70627 -3.15004 0
M  V30 2190 N 202.5 1.5196 0.417844 0
M  V30 2191 C 203.725 1.69717 1.1921 0
M  V30 2192 C 204.15 0.402148 1.83751 0
M  V30 2193 O 203.508 -0.639593 1.69643 0
M  V30 2194 C 203.556 2.82794 2.2374 0
M  V30 2195 O 202.66 2.47756 3.29683 0
M  V30 2196 H 202.001 0.565263 0.348387 0
M  V30 2197 H 204.531 1.98621 0.490985 0
M  V30 2198 H 204.541 3.07452 2.68212 0
M  V30 2199 H 203.216 3.76756 1.76146 0
M  V30 2200 H 201.793 2.33739 2.90552 0
M  V30 2201 N 203.978 -0.674533 1.42435 0
M  V30 2202 C 204.908 -1.80009 1.48724 0
M  V30 2203 C 205.889 -1.6659 0.343793 0
M  V30 2204 O 207.074 -1.86007 0.558137 0
M  V30 2205 C 204.204 -3.18306 1.38919 0
M  V30 2206 C 203.158 -3.46461 2.51294 0
M  V30 2207 C 202.484 -4.84335 2.26547 0
M  V30 2208 C 203.784 -3.43328 3.93603 0
M  V30 2209 H 205.478 -1.75004 2.42928 0
M  V30 2210 H 203.024 -0.840533 1.16923 0
M  V30 2211 H 204.977 -3.9678 1.41927 0
M  V30 2212 H 203.701 -3.2399 0.412094 0
M  V30 2213 H 202.36 -2.70348 2.47604 0
M  V30 2214 H 202.008 -4.86669 1.2713 0
M  V30 2215 H 201.708 -5.04136 3.01861 0
M  V30 2216 H 203.232 -5.65094 2.31304 0
M  V30 2217 H 204.646 -4.11772 3.98894 0
M  V30 2218 H 203.043 -3.74664 4.68771 0
M  V30 2219 H 204.113 -2.41897 4.20255 0
M  V30 2220 N 205.456 -1.28612 -0.910864 0
M  V30 2221 C 206.684 -1.18792 -1.69399 0
M  V30 2222 C 207.099 0.253039 -1.87097 0
M  V30 2223 O 206.456 1.17071 -1.40003 0
M  V30 2224 C 206.507 -1.88511 -3.08457 0
M  V30 2225 O 206.228 -3.26979 -2.91576 0
M  V30 2226 C 207.729 -1.85029 -4.02839 0
M  V30 2227 H 204.949 -0.412233 -0.529438 0
M  V30 2228 H 207.493 -1.69788 -1.13984 0
M  V30 2229 H 205.648 -1.41379 -3.60681 0
M  V30 2230 H 206.062 -3.61936 -3.79608 0
M  V30 2231 H 207.536 -2.38395 -4.97867 0
M  V30 2232 H 208.013 -0.823303 -4.31414 0
M  V30 2233 H 208.619 -2.31853 -3.56545 0
M  V30 2234 N 206.934 1.1197 -1.10907 0
M  V30 2235 C 207.864 2.19928 -0.784473 0
M  V30 2236 C 208.845 1.6833 0.244726 0
M  V30 2237 O 210.03 1.93892 0.109418 0
M  V30 2238 C 207.16 3.46597 -0.220827 0
M  V30 2239 C 206.114 4.11376 -1.18127 0
M  V30 2240 C 205.44 5.32554 -0.478594 0
M  V30 2241 C 206.74 4.56945 -2.52979 0
M  V30 2242 H 208.434 2.47337 -1.68715 0
M  V30 2243 H 205.98 1.18879 -0.812642 0
M  V30 2244 H 207.933 4.21396 0.0184278 0
M  V30 2245 H 206.657 3.1863 0.717113 0
M  V30 2246 H 205.316 3.38564 -1.40606 0
M  V30 2247 H 204.964 5.00856 0.463976 0
M  V30 2248 H 204.664 5.76844 -1.11912 0
M  V30 2249 H 206.188 6.10096 -0.248 0
M  V30 2250 H 207.602 5.23093 -2.3462 0
M  V30 2251 H 205.999 5.1203 -3.12962 0
M  V30 2252 H 207.069 3.70676 -3.12614 0
M  V30 2253 N 208.412 0.89855 1.29475 0
M  V30 2254 C 209.64 0.539261 1.99749 0
M  V30 2255 C 210.055 -0.875716 1.67262 0
M  V30 2256 O 209.412 -1.57786 0.917049 0
M  V30 2257 C 209.463 0.72061 3.54245 0
M  V30 2258 O 209.184 2.07989 3.8558 0
M  V30 2259 C 210.685 0.366118 4.41786 0
M  V30 2260 H 207.905 0.207047 0.638258 0
M  V30 2261 H 210.449 1.20758 1.65039 0
M  V30 2262 H 208.604 0.0994862 3.87272 0
M  V30 2263 H 209.018 2.10841 4.80257 0
M  V30 2264 H 210.492 0.543848 5.49314 0
M  V30 2265 H 210.969 -0.696763 4.33638 0
M  V30 2266 H 211.575 0.964135 4.14228 0
M  V30 2267 N 209.89 -1.43072 0.660911 0
M  V30 2268 C 210.82 -2.33497 -0.0122829 0
M  V30 2269 C 211.801 -1.49903 -0.803925 0
M  V30 2270 O 212.986 -1.78546 -0.763864 0
M  V30 2271 C 210.116 -3.33363 -0.973994 0
M  V30 2272 C 209.07 -4.27003 -0.291928 0
M  V30 2273 C 208.396 -5.16967 -1.36562 0
M  V30 2274 C 209.696 -5.15816 0.820462 0
M  V30 2275 H 211.39 -2.90038 0.742873 0
M  V30 2276 H 208.936 -1.39461 0.358688 0
M  V30 2277 H 210.889 -3.95524 -1.45392 0
M  V30 2278 H 209.613 -2.75095 -1.7604 0
M  V30 2279 H 208.272 -3.66217 0.167623 0
M  V30 2280 H 207.92 -4.55034 -2.14366 0
M  V30 2281 H 207.62 -5.80441 -0.914454 0
M  V30 2282 H 209.144 -5.82003 -1.84675 0
M  V30 2283 H 210.558 -5.71742 0.422366 0
M  V30 2284 H 208.955 -5.8805 1.19656 0
M  V30 2285 H 210.025 -4.55045 1.67518 0
M  V30 2286 N 211.368 -0.403325 -1.52352 0
M  V30 2287 C 212.278 0.432009 -2.30588 0
M  V30 2288 C 213.294 1.05884 -1.38075 0
M  V30 2289 O 214.47 1.06161 -1.71148 0
M  V30 2290 C 211.535 1.53669 -3.10784 0
M  V30 2291 C 210.596 0.933525 -4.19027 0
M  V30 2292 C 209.829 1.98557 -4.9539 0
M  V30 2293 O 210.052 3.20283 -4.71991 0
M  V30 2294 O 208.986 1.59504 -5.80381 0
M  V30 2295 H 212.812 -0.205739 -3.03002 0
M  V30 2296 H 210.397 -0.166675 -1.48467 0
M  V30 2297 H 212.279 2.17814 -3.60742 0
M  V30 2298 H 210.954 2.15915 -2.41169 0
M  V30 2299 H 209.861 0.254954 -3.7323 0
M  V30 2300 H 211.194 0.35508 -4.90918 0
M  V30 2301 N 212.846 1.57033 -0.133567 0
M  V30 2302 C 214.071 2.00475 0.531477 0
M  V30 2303 C 214.496 1.01291 1.58499 0
M  V30 2304 O 213.854 -0.0133279 1.81295 0
M  V30 2305 C 213.902 3.42729 1.12113 0
M  V30 2306 O 213.006 3.46498 2.23636 0
M  V30 2307 H 212.347 0.650876 0.131362 0
M  V30 2308 H 214.877 2.03344 -0.22634 0
M  V30 2309 H 214.887 3.81246 1.4531 0
M  V30 2310 H 213.562 4.14428 0.349557 0
M  V30 2311 H 212.139 3.19811 1.91769 0
M  V30 2312 N 214.325 -0.140222 1.56975 0
M  V30 2313 C 215.736 -0.699596 1.73097 0
M  V30 2314 C 216.087 -1.8134 0.749022 0
M  V30 2315 O 215.212 -2.16241 -0.0828503 0
M  V30 2316 C 215.807 -1.27582 3.1386 0
M  V30 2317 C 214.366 -1.78169 3.31561 0
M  V30 2318 C 213.513 -0.672855 2.69013 0
M  V30 2319 H 216.464 0.0855115 1.58469 0
M  V30 2320 H 216.485 -2.14561 3.14235 0
M  V30 2321 H 215.997 -0.464955 3.85305 0
M  V30 2322 H 214.098 -2.61801 2.65124 0
M  V30 2323 H 214.211 -1.90574 4.39566 0
M  V30 2324 H 212.575 -1.10118 2.29665 0
M  V30 2325 H 213.358 0.126679 3.43066 0
M  V30 2326 N 215.803 -1.52179 -0.40978 0
M  V30 2327 C 217.214 -1.58377 -0.988615 0
M  V30 2328 C 217.565 -0.423879 -1.91566 0
M  V30 2329 O 216.69 0.455844 -2.11544 0
M  V30 2330 C 217.285 -2.87044 -1.79976 0
M  V30 2331 C 215.844 -2.95722 -2.32863 0
M  V30 2332 C 214.991 -2.53309 -1.12828 0
M  V30 2333 H 217.942 -1.57558 -0.190039 0
M  V30 2334 H 217.963 -2.7236 -2.65707 0
M  V30 2335 H 217.475 -3.71444 -1.12478 0
M  V30 2336 H 215.576 -2.15814 -3.03735 0
M  V30 2337 H 215.689 -3.99951 -2.63773 0
M  V30 2338 H 214.053 -2.07142 -1.48204 0
M  V30 2339 H 214.836 -3.40082 -0.46897 0
M  V30 2340 N 217.281 0.66697 -1.42791 0
M  V30 2341 C 218.529 1.42417 -1.43394 0
M  V30 2342 C 218.85 1.94925 -0.0542373 0
M  V30 2343 O 218.12 1.73564 0.908415 0
M  V30 2344 H 216.7 0.528515 -0.527902 0
M  V30 2345 H 219.362 0.787562 -1.78279 0
M  V30 2346 H 218.458 2.27333 -2.13837 0
M  V30 2347 N 218.759 1.29093 0.90403 0
M  V30 2348 C 219.984 1.19809 1.69294 0
M  V30 2349 C 220.409 -0.238481 1.86582 0
M  V30 2350 O 219.767 -1.1723 1.383 0
M  V30 2351 C 219.815 1.91202 3.05736 0
M  V30 2352 O 218.919 1.22611 3.93752 0
M  V30 2353 H 218.26 0.415385 0.518027 0
M  V30 2354 H 220.79 1.70586 1.12967 0
M  V30 2355 H 220.8 1.99487 3.55906 0
M  V30 2356 H 219.475 2.95692 2.92471 0
M  V30 2357 H 218.052 1.22554 3.52186 0
M  V30 2358 N 220.237 -1.11381 1.11499 0
M  V30 2359 C 221.462 -1.87475 0.887019 0
M  V30 2360 C 221.887 -1.79639 -0.557796 0
M  V30 2361 O 221.245 -1.15924 -1.39396 0
M  V30 2362 C 221.293 -3.34213 1.35403 0
M  V30 2363 O 220.397 -4.0903 0.526146 0
M  V30 2364 H 219.738 -0.582099 0.319463 0
M  V30 2365 H 222.268 -1.40785 1.48461 0
M  V30 2366 H 222.278 -3.8506 1.34881 0
M  V30 2367 H 220.953 -3.39232 2.40612 0
M  V30 2368 H 219.53 -3.68082 0.597522 0
M  V30 2369 N 221.715 -0.905404 -1.28997 0
M  V30 2370 C 223.126 -0.581953 -1.77398 0
M  V30 2371 C 223.477 0.902552 -1.74208 0
M  V30 2372 O 222.602 1.70584 -1.33154 0
M  V30 2373 C 223.197 -1.04961 -3.22131 0
M  V30 2374 C 221.756 -0.777229 -3.68288 0
M  V30 2375 C 220.903 -1.22109 -2.48967 0
M  V30 2376 H 223.854 -1.08754 -1.15578 0
M  V30 2377 H 223.875 -0.387387 -3.78523 0
M  V30 2378 H 223.387 -2.13008 -3.24421 0
M  V30 2379 H 221.488 0.290383 -3.71467 0
M  V30 2380 H 221.601 -1.37911 -4.58822 0
M  V30 2381 H 219.965 -0.639971 -2.46529 0
M  V30 2382 H 220.748 -2.30972 -2.53982 0
M  V30 2383 N 223.193 1.4272 -0.668489 0
M  V30 2384 C 224.418 2.06484 -0.194758 0
M  V30 2385 C 224.843 1.49862 1.13679 0
M  V30 2386 O 224.201 0.614582 1.70565 0
M  V30 2387 C 224.249 3.60353 -0.133546 0
M  V30 2388 O 223.353 4.02464 0.899806 0
M  V30 2389 H 222.694 0.656137 -0.10188 0
M  V30 2390 H 225.224 1.82964 -0.915722 0
M  V30 2391 H 225.234 4.07976 0.0447041 0
M  V30 2392 H 223.909 4.00938 -1.1055 0
M  V30 2393 H 222.486 3.66402 0.693109 0
M  V30 2394 N 224.671 0.411399 1.52136 0
M  V30 2395 C 225.917 -0.163888 2.02137 0
M  V30 2396 C 226.25 -1.44597 1.29636 0
M  V30 2397 O 225.525 -1.90272 0.403353 0
M  V30 2398 C 225.808 -0.40927 3.57767 0
M  V30 2399 C 225.661 0.889643 4.40914 0
M  V30 2400 C 226.98 -1.19042 4.23694 0
M  V30 2401 H 224.099 -0.0580896 0.734707 0
M  V30 2402 H 226.741 0.54531 1.82007 0
M  V30 2403 H 224.891 -1.0134 3.7505 0
M  V30 2404 H 226.563 1.52575 4.35337 0
M  V30 2405 H 224.806 1.50011 4.07037 0
M  V30 2406 H 225.477 0.672314 5.4789 0
M  V30 2407 H 227.953 -0.678942 4.10524 0
M  V30 2408 H 226.829 -1.33086 5.32522 0
M  V30 2409 H 227.09 -2.21166 3.82803 0
M  V30 2410 N 226.149 -1.5696 0.141893 0
M  V30 2411 C 227.081 -2.13619 -0.830627 0
M  V30 2412 C 228.094 -1.08439 -1.21428 0
M  V30 2413 O 229.283 -1.35734 -1.15925 0
M  V30 2414 C 226.383 -2.63978 -2.12529 0
M  V30 2415 C 225.556 -3.93504 -1.9098 0
M  V30 2416 C 224.615 -4.29225 -3.04388 0
M  V30 2417 O 223.641 -4.97641 -2.76302 0
M  V30 2418 N 224.843 -3.88393 -4.31429 0
M  V30 2419 H 227.608 -2.97691 -0.34641 0
M  V30 2420 H 225.169 -1.61846 -0.0418375 0
M  V30 2421 H 227.161 -2.84891 -2.87436 0
M  V30 2422 H 225.731 -1.84659 -2.52229 0
M  V30 2423 H 224.951 -3.81269 -1.00139 0
M  V30 2424 H 226.239 -4.78154 -1.73914 0
M  V30 2425 H 225.637 -3.33257 -4.57117 0
M  V30 2426 H 224.194 -4.14368 -5.03133 0
M  V30 2427 N 227.627 0.131896 -1.57047 0
M  V30 2428 C 228.867 0.847972 -1.85981 0
M  V30 2429 C 229.231 1.77655 -0.7282 0
M  V30 2430 O 230.432 2.53322 -0.898968 0
M  V30 2431 C 228.703 1.58919 -3.20124 0
M  V30 2432 S 230.262 2.34862 -3.70655 0
M  V30 2433 H 227.08 0.283273 -0.652133 0
M  V30 2434 H 229.682 0.107057 -1.95207 0
M  V30 2435 H 228.386 0.898771 -4.00438 0
M  V30 2436 H 227.917 2.37073 -3.13942 0
M  V30 2437 H 229.932 3.60344 -3.41126 0
M  V30 2438 N 229.106 1.52395 0.401703 0
M  V30 2439 C 230.522 1.41363 0.740864 0
M  V30 2440 C 230.722 0.523982 1.94568 0
M  V30 2441 O 229.778 -0.00741204 2.52499 0
M  V30 2442 C 231.091 2.84011 0.987847 0
M  V30 2443 C 232.639 2.93404 1.09011 0
M  V30 2444 C 233.114 4.37036 1.3698 0
M  V30 2445 N 234.605 4.40304 1.43829 0
M  V30 2446 C 235.34 5.48508 1.67112 0
M  V30 2447 N 234.836 6.66819 1.87949 0
M  V30 2448 N 236.629 5.36034 1.69187 0
M  V30 2449 H 228.78 2.08765 -0.391262 0
M  V30 2450 H 231.043 0.941265 -0.112798 0
M  V30 2451 H 230.749 3.51265 0.174835 0
M  V30 2452 H 230.623 3.25502 1.906 0
M  V30 2453 H 233.01 2.26325 1.8937 0
M  V30 2454 H 233.091 2.55359 0.15015 0
M  V30 2455 H 232.735 5.04676 0.571353 0
M  V30 2456 H 232.665 4.72623 2.3224 0
M  V30 2457 H 235.156 3.55024 1.29486 0
M  V30 2458 H 235.469 7.45063 2.05185 0
M  V30 2459 H 233.814 6.6987 1.85199 0
M  V30 2460 H 237.005 4.42579 1.52451 0
M  V30 2461 H 237.178 6.20434 1.86993 0
M  V30 2462 N 230.584 -0.659388 1.43143 0
M  V30 2463 C 231.809 -1.45221 1.48073 0
M  V30 2464 C 232.234 -1.87845 0.097995 0
M  V30 2465 O 231.592 -1.56985 -0.90694 0
M  V30 2466 C 231.64 -2.66748 2.42647 0
M  V30 2467 O 230.744 -3.65583 1.90848 0
M  V30 2468 H 230.085 -0.435669 0.501088 0
M  V30 2469 H 232.615 -0.807432 1.87994 0
M  V30 2470 H 232.625 -3.14637 2.59745 0
M  V30 2471 H 231.3 -2.35067 3.43098 0
M  V30 2472 H 229.877 -3.24693 1.83381 0
M  V30 2473 N 232.062 -1.29571 -0.897171 0
M  V30 2474 C 233.473 -1.15964 -1.46319 0
M  V30 2475 C 233.824 0.244267 -1.94674 0
M  V30 2476 O 232.949 1.13998 -1.83939 0
M  V30 2477 C 233.544 -2.09906 -2.65942 0
M  V30 2478 C 232.103 -2.00314 -3.18671 0
M  V30 2479 C 231.25 -2.00687 -1.91363 0
M  V30 2480 H 234.201 -1.42019 -0.708268 0
M  V30 2481 H 234.222 -1.67276 -3.41759 0
M  V30 2482 H 233.734 -3.12075 -2.30718 0
M  V30 2483 H 231.835 -1.01242 -3.58582 0
M  V30 2484 H 231.948 -2.88102 -3.82798 0
M  V30 2485 H 230.312 -1.45319 -2.09175 0
M  V30 2486 H 231.095 -3.04566 -1.58413 0
M  V30 2487 N 233.54 1.10788 -1.12088 0
M  V30 2488 C 234.956 1.34691 -0.856186 0
M  V30 2489 C 235.156 1.94791 0.515615 0
M  V30 2490 O 234.212 2.18524 1.26505 0
M  V30 2491 C 235.525 2.27208 -1.9697 0
M  V30 2492 C 237.073 2.40755 -2.00016 0
M  V30 2493 C 237.548 3.36598 -3.1059 0
M  V30 2494 N 239.039 3.44164 -3.10008 0
M  V30 2495 C 239.774 4.18284 -3.92206 0
M  V30 2496 N 239.27 4.95322 -4.84384 0
M  V30 2497 N 241.063 4.13865 -3.80357 0
M  V30 2498 H 233.214 0.70144 -2.00483 0
M  V30 2499 H 235.477 0.371405 -0.872217 0
M  V30 2500 H 235.183 1.90251 -2.958 0
M  V30 2501 H 235.057 3.27485 -1.87172 0
M  V30 2502 H 237.444 2.76982 -1.01808 0
M  V30 2503 H 237.525 1.40305 -2.13888 0
M  V30 2504 H 237.169 3.01096 -4.09028 0
M  V30 2505 H 237.099 4.36918 -2.93956 0
M  V30 2506 H 239.59 2.8922 -2.43228 0
M  V30 2507 H 239.903 5.49267 -5.43623 0
M  V30 2508 H 238.248 4.94459 -4.884 0
M  V30 2509 H 241.439 3.52773 -3.07683 0
M  V30 2510 H 241.612 4.71372 -4.44649 0
M  V30 2511 N 235.018 0.912232 1.28515 0
M  V30 2512 C 236.266 0.543523 1.94654 0
M  V30 2513 C 236.587 -0.9155 1.72173 0
M  V30 2514 O 235.857 -1.64708 1.06058 0
M  V30 2515 H 234.437 0.198017 0.720277 0
M  V30 2516 H 237.099 1.16126 1.56527 0
M  V30 2517 H 236.195 0.736684 3.03281 0
M  V30 2518 N 236.496 -1.42363 0.676048 0
M  V30 2519 C 237.443 -2.308 -0.00150904 0
M  V30 2520 C 238.413 -1.46032 -0.791444 0
M  V30 2521 O 239.598 -1.74861 -0.76344 0
M  V30 2522 C 236.738 -3.31883 -0.945919 0
M  V30 2523 C 235.851 -4.31741 -0.149675 0
M  V30 2524 C 234.986 -5.19898 -1.08995 0
M  V30 2525 C 234.025 -6.11434 -0.285465 0
M  V30 2526 N 233.162 -6.92138 -1.17851 0
M  V30 2527 H 238.002 -2.88187 0.758455 0
M  V30 2528 H 235.539 -1.41952 0.38576 0
M  V30 2529 H 237.497 -3.89019 -1.50731 0
M  V30 2530 H 236.127 -2.76093 -1.6725 0
M  V30 2531 H 235.179 -3.76713 0.528359 0
M  V30 2532 H 236.491 -4.96534 0.474866 0
M  V30 2533 H 235.645 -5.81772 -1.72123 0
M  V30 2534 H 234.384 -4.55284 -1.74837 0
M  V30 2535 H 233.389 -5.48627 0.359018 0
M  V30 2536 H 234.614 -6.78097 0.368883 0
M  V30 2537 H 232.56 -6.30152 -1.82332 0
M  V30 2538 H 232.477 -7.53542 -0.609082 0
M  V30 2539 H 233.745 -7.58499 -1.79722 0
M  V30 2540 N 237.974 -0.419461 -1.51915 0
M  V30 2541 C 238.922 0.415502 -2.28859 0
M  V30 2542 C 239.916 1.03674 -1.3397 0
M  V30 2543 O 241.122 0.973757 -1.51387 0
M  V30 2544 H 237.497 0.152786 -0.736315 0
M  V30 2545 H 239.468 -0.254531 -2.97312 0
M  V30 2546 C 238.217 1.51425 -3.12995 0
M  V30 2547 H 237.54 1.04556 -3.85886 0
M  V30 2548 H 238.98 2.07208 -3.6992 0
M  V30 2549 C 237.439 2.48745 -2.27217 0
M  V30 2550 O 237.969 3.52871 -1.9195 0
M  V30 2551 N 236.175 2.19202 -1.90785 0
M  V30 2552 H 235.722 1.34556 -2.19664 0
M  V30 2553 H 235.68 2.84561 -1.33687 0
M  V30 2554 N 239.452 1.56882 -0.150215 0
M  V30 2555 C 240.701 1.95403 0.500071 0
M  V30 2556 C 241.014 1.03777 1.658 0
M  V30 2557 O 242.22 1.31889 2.37313 0
M  V30 2558 C 240.676 3.4738 0.941018 0
M  V30 2559 C 240.284 4.47596 -0.190158 0
M  V30 2560 C 242.028 3.9476 1.56091 0
M  V30 2561 C 239.935 5.90787 0.269237 0
M  V30 2562 H 238.865 0.729515 0.190588 0
M  V30 2563 H 241.516 1.81988 -0.235074 0
M  V30 2564 H 239.898 3.56138 1.73152 0
M  V30 2565 H 241.072 4.50536 -0.967157 0
M  V30 2566 H 239.387 4.10151 -0.718666 0
M  V30 2567 H 241.984 4.99181 1.9163 0
M  V30 2568 H 242.327 3.36494 2.45107 0
M  V30 2569 H 242.86 3.88932 0.835249 0
M  V30 2570 H 239.599 6.52879 -0.585621 0
M  V30 2571 H 239.119 5.912 1.01204 0
M  V30 2572 H 240.798 6.42979 0.720176 0
M  V30 2573 N 240.93 -0.123565 1.57115 0
M  V30 2574 C 241.862 -1.17739 1.96648 0
M  V30 2575 C 242.875 -1.37906 0.865201 0
M  V30 2576 O 244.064 -1.37062 1.14351 0
M  V30 2577 C 241.164 -2.53821 2.24562 0
M  V30 2578 C 240.337 -2.54317 3.55867 0
M  V30 2579 C 239.396 -3.72112 3.72047 0
M  V30 2580 O 238.422 -3.55907 4.44206 0
M  V30 2581 N 239.624 -4.90498 3.10471 0
M  V30 2582 H 242.389 -0.841147 2.87654 0
M  V30 2583 H 239.95 -0.31289 1.58848 0
M  V30 2584 H 241.942 -3.31175 2.32606 0
M  V30 2585 H 240.512 -2.79645 1.39705 0
M  V30 2586 H 239.732 -1.62711 3.59053 0
M  V30 2587 H 241.02 -2.51701 4.42181 0
M  V30 2588 H 240.418 -5.06567 2.51806 0
M  V30 2589 H 238.975 -5.65544 3.24043 0
M  V30 2590 N 242.408 -1.52605 -0.393616 0
M  V30 2591 C 243.656 -1.67093 -1.13685 0
M  V30 2592 C 243.977 -0.411011 -1.90619 0
M  V30 2593 O 243.247 0.574491 -1.87287 0
M  V30 2594 H 241.827 -0.615923 -0.422668 0
M  V30 2595 H 244.489 -1.89704 -0.447039 0
M  V30 2596 H 243.585 -2.51922 -1.84232 0
M  V30 2597 N 243.887 0.651787 -1.4349 0
M  V30 2598 C 245.135 1.40888 -1.44897 0
M  V30 2599 C 245.456 1.94856 -0.0749086 0
M  V30 2600 O 244.726 1.74518 0.889956 0
M  V30 2601 H 243.306 0.522887 -0.533478 0
M  V30 2602 H 245.968 0.768609 -1.79104 0
M  V30 2603 H 245.064 2.25052 -2.16236 0
M  V30 2604 N 245.365 1.30045 0.890287 0
M  V30 2605 C 246.312 1.15976 1.99545 0
M  V30 2606 C 247.282 0.0506202 1.66023 0
M  V30 2607 O 248.467 0.219847 1.89529 0
M  V30 2608 C 245.607 0.852054 3.34416 0
M  V30 2609 C 244.72 2.04255 3.80662 0
M  V30 2610 C 243.855 1.6734 5.04154 0
M  V30 2611 C 242.894 2.82916 5.42794 0
M  V30 2612 N 242.031 2.46333 6.57468 0
M  V30 2613 H 246.871 2.10524 2.10911 0
M  V30 2614 H 244.408 1.04749 1.03276 0
M  V30 2615 H 246.366 0.654296 4.12037 0
M  V30 2616 H 244.996 -0.0565502 3.2275 0
M  V30 2617 H 244.048 2.35172 2.98995 0
M  V30 2618 H 245.36 2.90826 4.05242 0
M  V30 2619 H 244.514 1.43908 5.89386 0
M  V30 2620 H 243.253 0.779308 4.81433 0
M  V30 2621 H 242.258 3.0702 4.56091 0
M  V30 2622 H 243.483 3.73004 5.6749 0
M  V30 2623 H 241.429 1.59423 6.36334 0
M  V30 2624 H 241.346 3.26436 6.81891 0
M  V30 2625 H 242.614 2.26244 7.45945 0
M  V30 2626 N 246.843 -1.10192 1.12674 0
M  V30 2627 C 248.071 -1.85983 0.906527 0
M  V30 2628 C 248.486 -1.80783 -0.544333 0
M  V30 2629 O 247.843 -1.19834 -1.37645 0
M  V30 2630 C 247.894 -3.34281 1.37618 0
M  V30 2631 O 247.615 -3.39401 2.77017 0
M  V30 2632 C 249.116 -4.26938 1.19325 0
M  V30 2633 H 246.336 -0.587716 0.323775 0
M  V30 2634 H 248.88 -1.39284 1.49734 0
M  V30 2635 H 247.035 -3.78436 0.828539 0
M  V30 2636 H 247.449 -4.31838 2.97684 0
M  V30 2637 H 248.923 -5.29181 1.57071 0
M  V30 2638 H 249.4 -4.38995 0.134097 0
M  V30 2639 H 250.006 -3.8859 1.72852 0
M  V30 2640 N 248.321 -0.919034 -1.28029 0
M  V30 2641 C 249.251 -0.428581 -2.29533 0
M  V30 2642 C 250.232 0.50659 -1.62381 0
M  V30 2643 O 251.417 0.413195 -1.89753 0
M  V30 2644 C 248.547 0.327388 -3.45753 0
M  V30 2645 C 247.501 -0.519137 -4.2484 0
M  V30 2646 C 246.827 0.365486 -5.33449 0
M  V30 2647 C 248.127 -1.77914 -4.91064 0
M  V30 2648 H 249.821 -1.27687 -2.70807 0
M  V30 2649 H 247.367 -0.615428 -1.30186 0
M  V30 2650 H 249.32 0.681378 -4.15855 0
M  V30 2651 H 248.044 1.20963 -3.03374 0
M  V30 2652 H 246.703 -0.855717 -3.56473 0
M  V30 2653 H 246.351 1.24642 -4.87312 0
M  V30 2654 H 246.051 -0.197356 -5.87268 0
M  V30 2655 H 247.575 0.715241 -6.06396 0
M  V30 2656 H 248.989 -1.49374 -5.53498 0
M  V30 2657 H 247.386 -2.2848 -5.54903 0
M  V30 2658 H 248.456 -2.50382 -4.15255 0
M  V30 2659 N 249.799 1.42003 -0.683588 0
M  V30 2660 C 251.024 2.06265 -0.216647 0
M  V30 2661 C 251.449 1.51059 1.12083 0
M  V30 2662 O 250.807 0.632638 1.69904 0
M  V30 2663 C 250.855 3.60191 -0.171759 0
M  V30 2664 O 249.959 4.03396 0.857069 0
M  V30 2665 H 249.3 0.65502 -0.108834 0
M  V30 2666 H 251.83 1.81982 -0.935077 0
M  V30 2667 H 251.84 4.08 0.0014303 0
M  V30 2668 H 250.515 3.99743 -1.14796 0
M  V30 2669 H 249.092 3.67117 0.654208 0
M  V30 2670 N 251.277 0.427512 1.51691 0
M  V30 2671 C 252.523 -0.142439 2.02299 0
M  V30 2672 C 252.856 -1.43214 1.31162 0
M  V30 2673 O 252.131 -1.89833 0.423511 0
M  V30 2674 C 252.414 -0.371301 3.58181 0
M  V30 2675 C 252.267 0.936358 4.39946 0
M  V30 2676 C 253.586 -1.14542 4.24933 0
M  V30 2677 H 250.705 -0.0502937 0.735282 0
M  V30 2678 H 253.347 0.564584 1.81418 0
M  V30 2679 H 251.497 -0.973559 3.76104 0
M  V30 2680 H 253.169 1.57184 4.33694 0
M  V30 2681 H 251.412 1.5432 4.05423 0
M  V30 2682 H 252.083 0.730388 5.47147 0
M  V30 2683 H 254.559 -0.635362 4.11221 0
M  V30 2684 H 253.435 -1.27431 5.33903 0
M  V30 2685 H 253.696 -2.17093 3.85127 0
M  V30 2686 N 252.755 -1.56801 0.158532 0
M  V30 2687 C 253.98 -2.01295 -0.499516 0
M  V30 2688 C 254.405 -1.03799 -1.56867 0
M  V30 2689 O 253.763 -0.0155162 -1.81293 0
M  V30 2690 C 253.811 -3.44469 -1.06647 0
M  V30 2691 O 252.915 -3.50012 -2.18095 0
M  V30 2692 H 252.256 -0.652884 -0.12099 0
M  V30 2693 H 254.786 -2.02958 0.258661 0
M  V30 2694 H 254.796 -3.8351 -1.39227 0
M  V30 2695 H 253.471 -4.14932 -0.283581 0
M  V30 2696 H 252.048 -3.22822 -1.86656 0
M  V30 2697 N 254.233 0.115231 -1.57178 0
M  V30 2698 C 255.165 1.16694 -1.97269 0
M  V30 2699 C 256.178 1.37445 -0.872502 0
M  V30 2700 O 257.367 1.36454 -1.15077 0
M  V30 2701 C 254.467 2.52627 -2.25905 0
M  V30 2702 C 253.64 2.52427 -3.57211 0
M  V30 2703 C 252.699 3.70134 -3.74016 0
M  V30 2704 O 251.725 3.53546 -4.46087 0
M  V30 2705 N 252.927 4.88844 -3.13068 0
M  V30 2706 H 255.692 0.82588 -2.88096 0
M  V30 2707 H 253.253 0.304461 -1.59011 0
M  V30 2708 H 255.245 3.29937 -2.34359 0
M  V30 2709 H 253.815 2.789 -1.41186 0
M  V30 2710 H 253.035 1.60805 -3.5991 0
M  V30 2711 H 254.323 2.49353 -4.43509 0
M  V30 2712 H 253.721 5.05225 -2.54489 0
M  V30 2713 H 252.278 5.63817 -3.27037 0
M  V30 2714 N 255.711 1.52812 0.385517 0
M  V30 2715 C 256.641 1.80808 1.47752 0
M  V30 2716 C 257.622 0.660318 1.5676 0
M  V30 2717 O 258.807 0.908246 1.71652 0
M  V30 2718 C 255.937 1.98008 2.85324 0
M  V30 2719 C 254.891 3.13709 2.91154 0
M  V30 2720 C 254.217 3.16169 4.31209 0
M  V30 2721 C 255.517 4.52709 2.60483 0
M  V30 2722 H 257.211 2.72253 1.24573 0
M  V30 2723 H 254.757 1.31003 0.597839 0
M  V30 2724 H 256.71 2.16176 3.61726 0
M  V30 2725 H 255.434 1.03255 3.09848 0
M  V30 2726 H 254.093 2.95329 2.17201 0
M  V30 2727 H 253.741 2.19092 4.52778 0
M  V30 2728 H 253.441 3.93894 4.36029 0
M  V30 2729 H 254.965 3.36496 5.09512 0
M  V30 2730 H 256.379 4.71173 3.26602 0
M  V30 2731 H 254.776 5.32528 2.76648 0
M  V30 2732 H 255.846 4.59186 1.55809 0
M  V30 2733 N 257.189 -0.644168 1.43834 0
M  V30 2734 C 258.099 -1.78563 1.52159 0
M  V30 2735 C 259.115 -1.69147 0.408069 0
M  V30 2736 O 260.291 -1.90156 0.663524 0
M  V30 2737 C 257.356 -3.14888 1.45073 0
M  V30 2738 C 256.417 -3.36034 2.6717 0
M  V30 2739 C 255.65 -4.65855 2.60413 0
M  V30 2740 O 255.873 -5.45805 1.65689 0
M  V30 2741 O 254.807 -4.88918 3.5106 0
M  V30 2742 H 258.633 -1.74494 2.48567 0
M  V30 2743 H 256.218 -0.80378 1.25935 0
M  V30 2744 H 258.1 -3.96179 1.43597 0
M  V30 2745 H 256.775 -3.19528 0.518037 0
M  V30 2746 H 255.682 -2.54472 2.74217 0
M  V30 2747 H 257.015 -3.36247 3.59442 0
M  V30 2748 N 258.668 -1.30515 -0.883378 0
M  V30 2749 C 259.598 -1.19607 -2.00541 0
M  V30 2750 C 260.579 -0.086346 -1.69881 0
M  V30 2751 O 261.764 -0.268654 -1.92333 0
M  V30 2752 C 258.894 -0.888758 -3.35736 0
M  V30 2753 C 257.848 -1.95659 -3.8066 0
M  V30 2754 C 257.174 -1.50224 -5.13164 0
M  V30 2755 C 258.474 -3.36788 -3.99213 0
M  V30 2756 H 260.168 -2.13476 -2.09925 0
M  V30 2757 H 257.714 -1.02775 -1.00863 0
M  V30 2758 H 259.667 -0.799094 -4.13754 0
M  V30 2759 H 258.391 0.0856125 -3.26488 0
M  V30 2760 H 257.05 -2.03591 -3.04871 0
M  V30 2761 H 256.698 -0.516092 -5.00345 0
M  V30 2762 H 256.398 -2.2165 -5.44192 0
M  V30 2763 H 257.922 -1.42639 -5.93706 0
M  V30 2764 H 259.336 -3.31605 -4.67665 0
M  V30 2765 H 257.733 -4.06314 -4.41621 0
M  V30 2766 H 258.803 -3.78561 -3.03017 0
M  V30 2767 N 260.146 1.09593 -1.13257 0
M  V30 2768 C 261.078 2.16015 -0.766167 0
M  V30 2769 C 262.091 1.61423 0.211303 0
M  V30 2770 O 263.28 1.78498 -0.00863946 0
M  V30 2771 C 260.38 3.38706 -0.114662 0
M  V30 2772 C 259.553 4.22717 -1.12379 0
M  V30 2773 C 258.612 5.23835 -0.498301 0
M  V30 2774 O 257.638 5.573 -1.15781 0
M  V30 2775 N 258.84 5.75886 0.730417 0
M  V30 2776 H 261.605 2.48055 -1.68193 0
M  V30 2777 H 259.166 1.25292 -1.02535 0
M  V30 2778 H 261.158 4.03464 0.315991 0
M  V30 2779 H 259.728 3.04569 0.704011 0
M  V30 2780 H 258.948 3.54122 -1.73179 0
M  V30 2781 H 260.236 4.75673 -1.80589 0
M  V30 2782 H 259.634 5.50911 1.28504 0
M  V30 2783 H 258.191 6.42387 1.10376 0
M  V30 2784 N 261.624 0.925811 1.2754 0
M  V30 2785 C 262.901 0.483726 1.89524 0
M  V30 2786 C 263.281 -1.03809 1.83812 0
M  V30 2787 O 262.629 -1.89143 1.28207 0
M  V30 2788 C 262.839 1.02769 3.33526 0
M  V30 2789 C 264.187 1.08703 4.10449 0
M  V30 2790 O 265.211 0.977175 3.42534 0
M  V30 2791 O 264.07 1.25599 5.31871 0
M  V30 2792 H 261.164 0.15529 0.812289 0
M  V30 2793 H 263.71 1.01738 1.35822 0
M  V30 2794 H 262.482 2.07155 3.31967 0
M  V30 2795 H 262.105 0.475567 3.94746 0
M  V30 2796 N 263.102 -1.41638 0.69111 0
M  V30 2797 C 264.327 -2.06148 0.227583 0
M  V30 2798 C 264.752 -1.51652 -1.11281 0
M  V30 2799 O 264.11 -0.64164 -1.69566 0
M  V30 2800 C 264.158 -3.60095 0.190858 0
M  V30 2801 O 263.262 -4.03845 -0.835664 0
M  V30 2802 H 262.603 -0.654434 0.112306 0
M  V30 2803 H 265.133 -1.81484 0.944714 0
M  V30 2804 H 265.143 -4.07995 0.020207 0
M  V30 2805 H 263.818 -3.99129 1.16915 0
M  V30 2806 H 262.395 -3.67458 -0.63473 0
M  V30 2807 N 264.58 -0.43555 -1.51462 0
M  V30 2808 C 265.828 0.131254 -2.01673 0
M  V30 2809 C 266.149 1.43368 -1.32177 0
M  V30 2810 O 265.419 1.90524 -0.455769 0
M  V30 2811 H 263.999 0.0514954 -0.745223 0
M  V30 2812 H 266.661 -0.577847 -1.86137 0
M  V30 2813 H 265.757 0.308446 -3.10572 0
M  V30 2814 N 266.058 1.56714 -0.166846 0
M  V30 2815 C 267.286 2.0112 0.485644 0
M  V30 2816 C 267.701 1.04705 1.57106 0
M  V30 2817 O 267.058 0.0471923 1.82439 0
M  V30 2818 C 267.109 3.45361 1.06808 0
M  V30 2819 O 266.83 4.38092 0.0259995 0
M  V30 2820 C 268.331 4.05145 1.79924 0
M  V30 2821 H 265.551 0.65931 0.124704 0
M  V30 2822 H 268.095 2.02746 -0.267262 0
M  V30 2823 H 266.25 3.44524 1.7715 0
M  V30 2824 H 266.664 5.22519 0.455398 0
M  V30 2825 H 268.138 5.08009 2.15942 0
M  V30 2826 H 268.615 3.46982 2.69258 0
M  V30 2827 H 269.221 4.09672 1.14234 0
M  V30 2828 N 267.536 -0.106894 1.57237 0
M  V30 2829 C 268.782 -0.808678 1.86633 0
M  V30 2830 C 269.137 -1.76917 0.756178 0
M  V30 2831 O 268.43 -1.90055 -0.242834 0
M  V30 2832 C 268.624 -1.58628 3.20268 0
M  V30 2833 C 268.453 -0.702592 4.44178 0
M  V30 2834 C 267.223 -0.352808 5.04067 0
M  V30 2835 C 269.421 -0.0148031 5.14298 0
M  V30 2836 N 267.403 0.540279 6.11518 0
M  V30 2837 C 268.774 0.736809 6.15606 0
M  V30 2838 C 270.829 0.0603524 4.97863 0
M  V30 2839 C 269.532 1.55654 7.02257 0
M  V30 2840 C 271.558 0.866942 5.85011 0
M  V30 2841 C 270.92 1.60671 6.85831 0
M  V30 2842 H 267.019 -0.27246 0.733001 0
M  V30 2843 H 269.603 -0.0717858 1.94568 0
M  V30 2844 H 267.774 -2.29413 3.13408 0
M  V30 2845 H 269.506 -2.23434 3.3743 0
M  V30 2846 H 266.261 -0.697802 4.68431 0
M  V30 2847 H 266.685 0.979029 6.69884 0
M  V30 2848 H 271.327 -0.497236 4.19866 0
M  V30 2849 H 269.045 2.12524 7.79653 0
M  V30 2850 H 272.631 0.927612 5.74358 0
M  V30 2851 H 271.511 2.2208 7.52097 0
M  V30 2852 N 269.014 -1.53014 -0.377408 0
M  V30 2853 C 270.242 -1.72515 -1.14219 0
M  V30 2854 C 270.657 -0.448735 -1.8339 0
M  V30 2855 O 270.014 0.577592 -1.73119 0
M  V30 2856 C 270.065 -2.8826 -2.18148 0
M  V30 2857 O 269.786 -4.10962 -1.51795 0
M  V30 2858 C 271.287 -3.19536 -3.07264 0
M  V30 2859 H 268.507 -0.577301 -0.342001 0
M  V30 2860 H 271.051 -1.99712 -0.439935 0
M  V30 2861 H 269.206 -2.63492 -2.83991 0
M  V30 2862 H 269.62 -4.75693 -2.20945 0
M  V30 2863 H 271.094 -4.03959 -3.76193 0
M  V30 2864 H 271.571 -2.34403 -3.71419 0
M  V30 2865 H 272.177 -3.46186 -2.47053 0
M  V30 2866 N 270.492 0.636531 -1.44174 0
M  V30 2867 C 271.732 1.40781 -1.48189 0
M  V30 2868 C 272.096 1.91688 -0.10944 0
M  V30 2869 O 273.297 2.68789 -0.0242741 0
M  V30 2870 C 271.568 2.54575 -2.50851 0
M  V30 2871 S 273.127 3.4284 -2.73873 0
M  V30 2872 H 269.945 0.480345 -0.524204 0
M  V30 2873 H 272.547 0.737416 -1.81059 0
M  V30 2874 H 271.251 2.15478 -3.49281 0
M  V30 2875 H 270.782 3.26447 -2.19536 0
M  V30 2876 H 272.797 4.51846 -2.05059 0
M  V30 2877 N 271.97 1.30982 0.876444 0
M  V30 2878 C 273.198 1.23242 1.6619 0
M  V30 2879 C 273.613 -0.203345 1.87702 0
M  V30 2880 O 272.97 -1.13317 1.43057 0
M  V30 2881 C 273.021 1.96623 3.03351 0
M  V30 2882 O 272.742 3.34594 2.82804 0
M  V30 2883 C 274.243 1.95644 3.97792 0
M  V30 2884 H 271.463 0.426126 0.518322 0
M  V30 2885 H 274.007 1.7275 1.09442 0
M  V30 2886 H 272.162 1.50892 3.56806 0
M  V30 2887 H 272.576 3.71873 3.69879 0
M  V30 2888 H 274.05 2.51511 4.91372 0
M  V30 2889 H 274.527 0.937395 4.2908 0
M  V30 2890 H 275.133 2.41225 3.50272 0
M  V30 2891 N 273.449 -1.08991 1.13837 0
M  V30 2892 C 274.695 -1.81526 0.90422 0
M  V30 2893 C 275.028 -1.85706 -0.568066 0
M  V30 2894 O 274.303 -1.32855 -1.42056 0
M  V30 2895 C 274.586 -3.27447 1.49835 0
M  V30 2896 C 274.439 -3.31512 3.04006 0
M  V30 2897 C 275.758 -4.24256 1.17025 0
M  V30 2898 H 272.877 -0.659029 0.329923 0
M  V30 2899 H 275.519 -1.27644 1.40737 0
M  V30 2900 H 273.669 -3.73462 1.07044 0
M  V30 2901 H 275.341 -2.93867 3.55584 0
M  V30 2902 H 273.584 -2.70963 3.38765 0
M  V30 2903 H 274.255 -4.34329 3.40679 0
M  V30 2904 H 276.731 -3.86549 1.54009 0
M  V30 2905 H 275.607 -5.24684 1.61237 0
M  V30 2906 H 275.868 -4.42019 0.0846274 0
M  V30 2907 N 274.927 -0.932562 -1.27047 0
M  V30 2908 C 275.857 -0.452902 -2.29066 0
M  V30 2909 C 276.838 0.489338 -1.62909 0
M  V30 2910 O 278.023 0.393046 -1.90181 0
M  V30 2911 C 275.153 0.290698 -3.46081 0
M  V30 2912 C 274.107 -0.564168 -4.24265 0
M  V30 2913 C 273.433 0.308886 -5.33807 0
M  V30 2914 C 274.733 -1.83112 -4.89149 0
M  V30 2915 H 276.427 -1.30552 -2.69437 0
M  V30 2916 H 273.973 -0.629201 -1.29526 0
M  V30 2917 H 275.926 0.637233 -4.16554 0
M  V30 2918 H 274.65 1.17738 -3.0464 0
M  V30 2919 H 273.309 -0.893477 -3.55545 0
M  V30 2920 H 272.957 1.19467 -4.88607 0
M  V30 2921 H 272.657 -0.259633 -5.87026 0
M  V30 2922 H 274.181 0.650884 -6.07121 0
M  V30 2923 H 275.595 -1.55236 -5.51883 0
M  V30 2924 H 273.992 -2.34353 -5.52448 0
M  V30 2925 H 275.062 -2.54772 -4.12576 0
M  V30 2926 N 276.405 1.4127 -0.698611 0
M  V30 2927 C 277.337 2.292 0.00399731 0
M  V30 2928 C 278.35 1.44944 0.741279 0
M  V30 2929 O 279.539 1.68416 0.591477 0
M  V30 2930 C 276.639 3.22875 1.02979 0
M  V30 2931 C 275.812 4.35904 0.36151 0
M  V30 2932 C 274.871 5.10134 1.29033 0
M  V30 2933 O 273.897 5.63809 0.781562 0
M  V30 2934 N 275.099 5.17885 2.6225 0
M  V30 2935 H 277.864 2.9014 -0.750921 0
M  V30 2936 H 275.425 1.52455 -0.544882 0
M  V30 2937 H 277.417 3.69404 1.65296 0
M  V30 2938 H 275.987 2.63221 1.68622 0
M  V30 2939 H 275.207 3.91719 -0.441584 0
M  V30 2940 H 276.495 5.08696 -0.103055 0
M  V30 2941 H 275.893 4.7573 3.061 0
M  V30 2942 H 274.45 5.6798 3.19754 0
M  V30 2943 N 277.883 0.443576 1.51229 0
M  V30 2944 C 278.831 -0.37904 2.29491 0
M  V30 2945 C 279.825 -1.0153 1.35603 0
M  V30 2946 O 281.031 -0.94955 1.52917 0
M  V30 2947 H 277.406 -0.141053 0.738653 0
M  V30 2948 H 279.377 0.301799 2.9687 0
M  V30 2949 C 278.126 -1.46426 3.15364 0
M  V30 2950 H 277.449 -0.984037 3.87501 0
M  V30 2951 H 278.889 -2.01297 3.7317 0
M  V30 2952 C 277.348 -2.45099 2.31146 0
M  V30 2953 O 277.878 -3.49773 1.9754 0
M  V30 2954 N 276.084 -2.16139 1.94249 0
M  V30 2955 H 275.631 -1.31044 2.21777 0
M  V30 2956 H 275.589 -2.82398 1.38198 0
M  V30 2957 N 279.361 -1.56624 0.175154 0
M  V30 2958 C 280.293 -2.15333 -0.785128 0
M  V30 2959 C 281.306 -1.1099 -1.19101 0
M  V30 2960 O 282.495 -1.38162 -1.13019 0
M  V30 2961 C 279.595 -2.68427 -2.06882 0
M  V30 2962 C 278.768 -3.97466 -1.8259 0
M  V30 2963 C 277.827 -4.35585 -2.95215 0
M  V30 2964 O 276.853 -5.03389 -2.65684 0
M  V30 2965 N 278.055 -3.97457 -4.23094 0
M  V30 2966 H 280.82 -2.98359 -0.283187 0
M  V30 2967 H 278.381 -1.61898 -0.00749817 0
M  V30 2968 H 280.373 -2.90924 -2.81328 0
M  V30 2969 H 278.943 -1.89968 -2.48256 0
M  V30 2970 H 278.163 -3.83307 -0.920287 0
M  V30 2971 H 279.451 -4.81736 -1.63733 0
M  V30 2972 H 278.849 -3.42878 -4.49945 0
M  V30 2973 H 277.406 -4.24947 -4.9423 0
M  V30 2974 N 280.839 0.0985539 -1.57292 0
M  V30 2975 C 281.786 1.11981 -2.01814 0
M  V30 2976 C 282.756 1.39999 -0.89384 0
M  V30 2977 O 283.941 1.5152 -1.15958 0
M  V30 2978 C 281.081 2.43577 -2.44467 0
M  V30 2979 C 280.194 2.2232 -3.70402 0
M  V30 2980 C 279.329 3.4729 -4.01949 0
M  V30 2981 C 278.368 3.2128 -5.21005 0
M  V30 2982 N 277.505 4.38507 -5.48321 0
M  V30 2983 H 282.345 0.733149 -2.88841 0
M  V30 2984 H 279.882 0.350482 -1.42864 0
M  V30 2985 H 281.84 3.20373 -2.6724 0
M  V30 2986 H 280.47 2.80097 -1.60455 0
M  V30 2987 H 279.522 1.36343 -3.55126 0
M  V30 2988 H 280.834 1.99089 -4.57345 0
M  V30 2989 H 279.988 4.32495 -4.25479 0
M  V30 2990 H 278.727 3.73572 -3.13521 0
M  V30 2991 H 277.732 2.34468 -4.97298 0
M  V30 2992 H 278.957 2.96348 -6.11028 0
M  V30 2993 H 276.903 4.64871 -4.62851 0
M  V30 2994 H 276.82 4.18455 -6.29628 0
M  V30 2995 H 278.088 5.24787 -5.76385 0
M  V30 2996 N 282.317 1.53212 0.369288 0
M  V30 2997 C 283.264 1.79388 1.45219 0
M  V30 2998 C 284.234 0.638059 1.53356 0
M  V30 2999 O 285.419 0.879852 1.69302 0
M  V30 3000 C 282.559 1.98623 2.82211 0
M  V30 3001 C 281.672 3.26337 2.8307 0
M  V30 3002 C 280.807 3.35779 4.11614 0
M  V30 3003 C 279.846 4.5754 4.06601 0
M  V30 3004 N 278.983 4.64155 5.26787 0
M  V30 3005 H 283.823 2.71794 1.22198 0
M  V30 3006 H 281.36 1.34642 0.592444 0
M  V30 3007 H 283.318 2.07761 3.61789 0
M  V30 3008 H 281.948 1.09558 3.03639 0
M  V30 3009 H 281 3.26171 1.95747 0
M  V30 3010 H 282.312 4.15988 2.75237 0
M  V30 3011 H 281.466 3.44208 4.99606 0
M  V30 3012 H 280.205 2.44137 4.22195 0
M  V30 3013 H 279.21 4.49215 3.16996 0
M  V30 3014 H 280.435 5.50519 3.97625 0
M  V30 3015 H 278.381 3.75413 5.3796 0
M  V30 3016 H 278.298 5.47706 5.21109 0
M  V30 3017 H 279.566 4.76863 6.16621 0
M  V30 3018 N 283.795 -0.628877 1.44509 0
M  V30 3019 C 285.041 -1.39045 1.47629 0
M  V30 3020 C 285.374 -1.93892 0.109343 0
M  V30 3021 O 284.649 -1.7379 -0.87334 0
M  V30 3022 C 284.932 -2.55408 2.53848 0
M  V30 3023 C 284.785 -2.05896 3.99909 0
M  V30 3024 C 286.104 -3.5759 2.56549 0
M  V30 3025 H 283.223 -0.504232 0.537512 0
M  V30 3026 H 285.865 -0.710854 1.76201 0
M  V30 3027 H 284.015 -3.13384 2.29615 0
M  V30 3028 H 285.687 -1.52734 4.35282 0
M  V30 3029 H 283.93 -1.37061 4.11578 0
M  V30 3030 H 284.601 -2.89681 4.69882 0
M  V30 3031 H 287.077 -3.09419 2.78207 0
M  V30 3032 H 285.953 -4.36527 3.32769 0
M  V30 3033 H 286.214 -4.11808 1.60832 0
M  V30 3034 N 285.273 -1.31445 -0.869486 0
M  V30 3035 C 286.183 -1.21097 -2.0093 0
M  V30 3036 C 287.199 -0.127584 -1.73532 0
M  V30 3037 O 288.375 -0.345477 -1.98415 0
M  V30 3038 C 285.44 -0.919378 -3.34288 0
M  V30 3039 C 284.501 -2.08971 -3.75006 0
M  V30 3040 C 283.734 -1.81194 -5.02001 0
M  V30 3041 O 283.957 -0.747296 -5.65484 0
M  V30 3042 O 282.891 -2.66883 -5.39497 0
M  V30 3043 H 286.717 -2.16883 -2.12592 0
M  V30 3044 H 284.302 -1.11189 -0.997868 0
M  V30 3045 H 286.184 -0.772625 -4.14257 0
M  V30 3046 H 284.859 0.00844772 -3.23699 0
M  V30 3047 H 283.766 -2.29187 -2.95676 0
M  V30 3048 H 285.099 -2.9998 -3.90221 0
M  V30 3049 N 286.751 1.08385 -1.14413 0
M  V30 3050 C 287.998 1.80776 -0.912482 0
M  V30 3051 C 288.326 1.86236 0.560934 0
M  V30 3052 O 287.581 1.33431 1.43159 0
M  V30 3053 C 287.88 3.26273 -1.45879 0
M  V30 3054 C 287.546 3.4093 -2.95089 0
M  V30 3055 C 286.208 3.44638 -3.35824 0
M  V30 3056 C 288.56 3.44591 -3.91033 0
M  V30 3057 C 285.888 3.49597 -4.71167 0
M  V30 3058 C 288.24 3.51086 -5.26233 0
M  V30 3059 C 286.904 3.53067 -5.6648 0
M  V30 3060 H 286.174 0.661507 -0.333901 0
M  V30 3061 H 288.821 1.27613 -1.42784 0
M  V30 3062 H 287.126 3.82146 -0.864376 0
M  V30 3063 H 288.823 3.80839 -1.2555 0
M  V30 3064 H 285.413 3.38736 -2.62594 0
M  V30 3065 H 289.597 3.40957 -3.60641 0
M  V30 3066 H 284.853 3.49424 -5.0171 0
M  V30 3067 H 289.027 3.52864 -6.00383 0
M  V30 3068 H 286.654 3.56662 -6.71339 0
M  V30 3069 N 288.23 0.939286 1.26551 0
M  V30 3070 C 289.177 0.446088 2.26448 0
M  V30 3071 C 290.147 -0.493234 1.58608 0
M  V30 3072 O 291.332 -0.409857 1.86346 0
M  V30 3073 C 288.472 -0.284375 3.43926 0
M  V30 3074 C 287.585 0.690399 4.26448 0
M  V30 3075 C 286.72 -0.0610712 5.31165 0
M  V30 3076 C 285.759 0.905649 6.05363 0
M  V30 3077 N 284.896 0.186055 7.01853 0
M  V30 3078 H 289.736 1.30291 2.68008 0
M  V30 3079 H 287.273 0.65371 1.31776 0
M  V30 3080 H 289.231 -0.724313 4.10864 0
M  V30 3081 H 287.861 -1.10535 3.03285 0
M  V30 3082 H 286.913 1.24885 3.59316 0
M  V30 3083 H 288.225 1.42873 4.779 0
M  V30 3084 H 287.379 -0.56038 6.04106 0
M  V30 3085 H 286.118 -0.832297 4.80546 0
M  V30 3086 H 285.123 1.4161 5.3125 0
M  V30 3087 H 286.348 1.67685 6.58072 0
M  V30 3088 H 284.294 -0.566714 6.53548 0
M  V30 3089 H 284.211 0.863752 7.51049 0
M  V30 3090 H 285.479 -0.292221 7.78952 0
M  V30 3091 N 289.708 -1.40897 0.706093 0
M  V30 3092 C 290.957 -2.00284 0.238574 0
M  V30 3093 C 291.27 -1.56604 -1.17194 0
M  V30 3094 O 292.476 -2.08624 -1.73748 0
M  V30 3095 C 290.932 -3.57934 0.375623 0
M  V30 3096 C 290.54 -4.10591 1.79217 0
M  V30 3097 C 292.284 -4.24488 -0.0315857 0
M  V30 3098 C 290.191 -5.60712 1.88032 0
M  V30 3099 H 289.121 -0.749144 0.0854398 0
M  V30 3100 H 291.772 -1.61251 0.875813 0
M  V30 3101 H 290.154 -3.94622 -0.330042 0
M  V30 3102 H 291.328 -3.85301 2.52745 0
M  V30 3103 H 289.643 -3.56601 2.15 0
M  V30 3104 H 292.24 -5.34698 0.0136842 0
M  V30 3105 H 292.583 -4.02261 -1.072 0
M  V30 3106 H 293.116 -3.92873 0.624181 0
M  V30 3107 H 289.855 -5.87781 2.90161 0
M  V30 3108 H 289.375 -5.87896 1.18903 0
M  V30 3109 H 291.054 -6.25658 1.64805 0
M  V30 3110 N 291.186 -0.45159 -1.50991 0
M  V30 3111 C 292.463 0.170707 -1.94854 0
M  V30 3112 C 292.843 1.58788 -1.39103 0
M  V30 3113 O 292.191 2.20913 -0.583921 0
M  V30 3114 C 292.401 0.133929 -3.48743 0
M  V30 3115 C 293.749 0.33248 -4.23296 0
M  V30 3116 O 294.773 0.211403 -3.55572 0
M  V30 3117 O 293.632 0.57486 -5.43468 0
M  V30 3118 H 290.726 0.122264 -0.817912 0
M  V30 3119 H 293.272 -0.510594 -1.61836 0
M  V30 3120 H 292.044 -0.856283 -3.81816 0
M  V30 3121 H 291.667 0.857529 -3.88242 0
M  V30 3122 N 292.664 1.56529 -0.183458 0
M  V30 3123 C 293.913 1.96419 0.458511 0
M  V30 3124 C 294.226 1.0727 1.63562 0
M  V30 3125 O 295.432 1.36893 2.34462 0
M  V30 3126 C 293.888 3.49298 0.867122 0
M  V30 3127 C 293.496 4.47092 -0.285057 0
M  V30 3128 C 295.24 3.97983 1.47683 0
M  V30 3129 C 293.147 5.91225 0.143862 0
M  V30 3130 H 292.077 0.733394 0.175071 0
M  V30 3131 H 294.728 1.81448 -0.273624 0
M  V30 3132 H 293.11 3.59731 1.65559 0
M  V30 3133 H 294.284 4.48383 -1.0625 0
M  V30 3134 H 292.599 4.08535 -0.805503 0
M  V30 3135 H 295.196 5.03134 1.80999 0
M  V30 3136 H 295.539 3.41618 2.37914 0
M  V30 3137 H 296.072 3.90617 0.752562 0
M  V30 3138 H 292.811 6.5149 -0.723974 0
M  V30 3139 H 292.331 5.93214 0.886413 0
M  V30 3140 H 294.01 6.44362 0.583628 0
M  V30 3141 N 294.142 -0.090211 1.57342 0
M  V30 3142 C 295.388 -0.793982 1.86611 0
M  V30 3143 C 295.721 -1.78142 0.773252 0
M  V30 3144 O 294.996 -1.93271 -0.218304 0
M  V30 3145 C 295.279 -1.51839 3.26523 0
M  V30 3146 C 295.132 -0.548609 4.46442 0
M  V30 3147 C 296.451 -2.46779 3.64401 0
M  V30 3148 H 293.57 -0.287186 0.678744 0
M  V30 3149 H 296.212 -0.0575076 1.89913 0
M  V30 3150 H 294.362 -2.14617 3.23839 0
M  V30 3151 H 296.034 0.0725513 4.61243 0
M  V30 3152 H 294.277 0.137614 4.33582 0
M  V30 3153 H 294.948 -1.09271 5.41076 0
M  V30 3154 H 297.424 -1.94089 3.68061 0
M  V30 3155 H 296.3 -2.94479 4.63221 0
M  V30 3156 H 296.561 -3.30758 2.93346 0
M  V30 3157 N 295.62 -1.53406 -0.361157 0
M  V30 3158 C 296.866 -1.70054 -1.10496 0
M  V30 3159 C 297.199 -0.453278 -1.88836 0
M  V30 3160 O 296.474 0.5495 -1.86576 0
M  V30 3161 C 296.757 -2.95317 -2.06058 0
M  V30 3162 C 296.61 -4.3021 -1.31298 0
M  V30 3163 C 297.929 -3.16193 -3.06121 0
M  V30 3164 H 295.048 -0.618799 -0.400321 0
M  V30 3165 H 297.69 -1.86052 -0.385318 0
M  V30 3166 H 295.84 -2.81809 -2.67425 0
M  V30 3167 H 297.512 -4.55538 -0.726807 0
M  V30 3168 H 295.755 -4.29421 -0.614853 0
M  V30 3169 H 296.426 -5.14 -2.01265 0
M  V30 3170 H 298.902 -3.28916 -2.5486 0
M  V30 3171 H 297.778 -4.05266 -3.70204 0
M  V30 3172 H 298.039 -2.31676 -3.76535 0
M  V30 3173 N 297.098 0.621204 -1.44841 0
M  V30 3174 C 298.028 1.74366 -1.55303 0
M  V30 3175 C 299.009 1.65199 -0.405385 0
M  V30 3176 O 300.194 1.83807 -0.626787 0
M  V30 3177 C 297.324 3.12931 -1.50637 0
M  V30 3178 C 296.278 3.36896 -2.63979 0
M  V30 3179 C 295.604 4.75594 -2.44366 0
M  V30 3180 C 296.904 3.28483 -4.06074 0
M  V30 3181 H 298.598 1.65867 -2.49256 0
M  V30 3182 H 296.144 0.796558 -1.19962 0
M  V30 3183 H 298.097 3.9124 -1.56555 0
M  V30 3184 H 296.821 3.22237 -0.532057 0
M  V30 3185 H 295.48 2.60972 -2.57467 0
M  V30 3186 H 295.128 4.81616 -1.45105 0
M  V30 3187 H 294.828 4.92586 -3.20364 0
M  V30 3188 H 296.352 5.5612 -2.52117 0
M  V30 3189 H 297.766 3.96684 -4.13902 0
M  V30 3190 H 296.163 3.57008 -4.82354 0
M  V30 3191 H 297.233 2.26133 -4.28943 0
M  V30 3192 N 298.576 1.31904 0.862503 0
M  V30 3193 C 299.539 1.20131 1.95195 0
M  V30 3194 C 300.539 0.126409 1.60302 0
M  V30 3195 O 301.729 0.376234 1.70089 0
M  V30 3196 C 298.861 0.845691 3.30244 0
M  V30 3197 H 300.054 2.16943 2.07064 0
M  V30 3198 H 297.607 1.15622 1.05172 0
M  V30 3199 H 298.342 -0.120957 3.24074 0
M  V30 3200 H 298.127 1.62276 3.56944 0
M  V30 3201 H 299.617 0.787418 4.10109 0
M  V30 3202 N 300.054 -1.07777 1.14986 0
M  V30 3203 C 301.301 -1.8029 0.922056 0
M  V30 3204 C 301.629 -1.86531 -0.55105 0
M  V30 3205 O 300.884 -1.34189 -1.42449 0
M  V30 3206 C 301.183 -3.25495 1.47608 0
M  V30 3207 C 300.849 -3.39361 2.96893 0
M  V30 3208 C 299.511 -3.42852 3.37647 0
M  V30 3209 C 301.863 -3.42512 3.92854 0
M  V30 3210 C 299.191 -3.47094 4.73015 0
M  V30 3211 C 301.543 -3.4829 5.28088 0
M  V30 3212 C 300.207 -3.50058 5.68345 0
M  V30 3213 H 299.477 -0.659727 0.337404 0
M  V30 3214 H 302.124 -1.26854 1.43459 0
M  V30 3215 H 300.429 -3.81683 0.88463 0
M  V30 3216 H 302.126 -3.80168 1.27568 0
M  V30 3217 H 298.716 -3.37339 2.64387 0
M  V30 3218 H 302.9 -3.3904 3.62444 0
M  V30 3219 H 298.156 -3.46758 5.03556 0
M  V30 3220 H 302.33 -3.49675 6.02246 0
M  V30 3221 H 299.957 -3.53097 6.73221 0
M  V30 3222 N 301.532 -0.945985 -1.26051 0
M  V30 3223 C 302.464 -0.416662 -2.25381 0
M  V30 3224 C 303.477 0.462712 -1.56086 0
M  V30 3225 O 304.666 0.272383 -1.7641 0
M  V30 3226 C 301.766 0.419812 -3.3629 0
M  V30 3227 C 300.939 -0.444531 -4.35135 0
M  V30 3228 C 299.998 0.332305 -5.2515 0
M  V30 3229 O 299.024 -0.266324 -5.68577 0
M  V30 3230 N 300.226 1.62763 -5.57215 0
M  V30 3231 H 302.991 -1.27059 -2.71433 0
M  V30 3232 H 300.552 -0.815392 -1.39868 0
M  V30 3233 H 302.544 0.947013 -3.93464 0
M  V30 3234 H 301.114 1.17456 -2.89694 0
M  V30 3235 H 300.334 -1.15291 -3.76964 0
M  V30 3236 H 301.622 -1.03478 -4.98166 0
M  V30 3237 H 301.02 2.13603 -5.23823 0
M  V30 3238 H 299.577 2.10097 -6.17011 0
M  V30 3239 N 303.011 1.40521 -0.713556 0
M  V30 3240 C 303.958 2.30723 -0.059684 0
M  V30 3241 C 304.928 1.48079 0.752448 0
M  V30 3242 O 306.113 1.76823 0.71681 0
M  V30 3243 C 303.253 3.34274 0.857594 0
M  V30 3244 C 302.366 4.31986 0.0351536 0
M  V30 3245 C 301.501 5.22605 0.951724 0
M  V30 3246 C 300.54 6.11976 0.123253 0
M  V30 3247 N 299.677 6.9502 0.99459 0
M  V30 3248 H 304.517 2.86074 -0.834596 0
M  V30 3249 H 302.054 1.40879 -0.42326 0
M  V30 3250 H 304.012 3.92879 1.40364 0
M  V30 3251 H 302.642 2.8043 1.59871 0
M  V30 3252 H 301.694 3.7518 -0.628052 0
M  V30 3253 H 303.006 4.95101 -0.606347 0
M  V30 3254 H 302.16 5.86131 1.56638 0
M  V30 3255 H 300.899 4.59759 1.62705 0
M  V30 3256 H 299.904 5.47482 -0.50435 0
M  V30 3257 H 301.129 6.76881 -0.548539 0
M  V30 3258 H 299.075 6.34764 1.6556 0
M  V30 3259 H 298.992 7.54892 0.40908 0
M  V30 3260 H 300.26 7.62997 1.59549 0
M  V30 3261 N 304.489 0.459591 1.5075 0
M  V30 3262 C 305.452 -0.329093 2.26825 0
M  V30 3263 C 306.452 -0.930481 1.31144 0
M  V30 3264 O 307.642 -0.801453 1.54669 0
M  V30 3265 C 304.774 -1.46768 3.07688 0
M  V30 3266 H 305.967 0.337924 2.9799 0
M  V30 3267 H 303.52 0.213336 1.54837 0
M  V30 3268 H 304.255 -2.17009 2.40993 0
M  V30 3269 H 304.04 -1.04238 3.77991 0
M  V30 3270 H 305.53 -2.02433 3.65254 0
M  V30 3271 N 305.967 -1.56429 0.191757 0
M  V30 3272 C 307.192 -2.02309 -0.456706 0
M  V30 3273 C 307.617 -1.07103 -1.5463 0
M  V30 3274 O 306.975 -0.0539677 -1.8122 0
M  V30 3275 C 307.023 -3.46654 -0.993159 0
M  V30 3276 O 306.127 -3.54559 -2.10622 0
M  V30 3277 H 305.468 -0.655303 -0.107114 0
M  V30 3278 H 307.998 -2.02364 0.301653 0
M  V30 3279 H 308.008 -3.86377 -1.31061 0
M  V30 3280 H 306.683 -4.1544 -0.195504 0
M  V30 3281 H 305.26 -3.26708 -1.79767 0
M  V30 3282 N 307.445 0.0818655 -1.57387 0
M  V30 3283 C 308.67 0.799946 -1.91352 0
M  V30 3284 C 309.095 1.70833 -0.787258 0
M  V30 3285 O 308.453 1.79419 0.26048 0
M  V30 3286 C 308.501 1.57812 -3.24234 0
M  V30 3287 O 307.605 2.68806 -3.12757 0
M  V30 3288 H 306.946 0.21891 -0.626877 0
M  V30 3289 H 309.476 0.0531256 -2.04531 0
M  V30 3290 H 309.486 1.95952 -3.57864 0
M  V30 3291 H 308.161 0.911548 -4.05788 0
M  V30 3292 H 306.738 2.33597 -2.90666 0
M  V30 3293 N 308.923 1.53595 0.353017 0
M  V30 3294 C 310.172 1.69603 1.09168 0
M  V30 3295 C 310.485 0.460925 1.90092 0
M  V30 3296 O 311.691 0.501774 2.66823 0
M  V30 3297 C 310.147 2.99872 1.9901 0
M  V30 3298 C 309.755 4.30687 1.23339 0
M  V30 3299 C 311.499 3.25246 2.72792 0
M  V30 3300 C 309.406 5.52036 2.12156 0
M  V30 3301 H 308.336 0.631966 0.411261 0
M  V30 3302 H 310.987 1.80096 0.351802 0
M  V30 3303 H 309.369 2.83212 2.7678 0
M  V30 3304 H 310.543 4.58019 0.505456 0
M  V30 3305 H 308.858 4.11853 0.613663 0
M  V30 3306 H 311.455 4.13095 3.39495 0
M  V30 3307 H 311.798 2.41846 3.38846 0
M  V30 3308 H 312.331 3.42638 2.021 0
M  V30 3309 H 309.07 6.37951 1.50659 0
M  V30 3310 H 308.59 5.28966 2.82764 0
M  V30 3311 H 310.269 5.87313 2.71427 0
M  V30 3312 N 310.401 -0.613514 1.45168 0
M  V30 3313 C 311.647 -1.37471 1.49096 0
M  V30 3314 C 311.98 -1.93765 0.129901 0
M  V30 3315 O 311.255 -1.74707 -0.854858 0
M  V30 3316 C 311.538 -2.52701 2.56542 0
M  V30 3317 C 311.391 -2.01643 4.0207 0
M  V30 3318 C 312.71 -3.54849 2.60327 0
M  V30 3319 H 309.829 -0.498502 0.54283 0
M  V30 3320 H 312.471 -0.692125 1.76945 0
M  V30 3321 H 310.621 -3.10931 2.32926 0
M  V30 3322 H 312.293 -1.48108 4.36877 0
M  V30 3323 H 310.536 -1.32688 4.13009 0
M  V30 3324 H 311.207 -2.84681 4.72928 0
M  V30 3325 H 313.683 -3.0645 2.81474 0
M  V30 3326 H 312.559 -4.32973 3.37381 0
M  V30 3327 H 312.82 -4.10079 1.6519 0
M  V30 3328 N 311.879 -1.3236 -0.855495 0
M  V30 3329 C 313.109 -1.25688 -1.6397 0
M  V30 3330 C 313.517 0.177592 -1.88365 0
M  V30 3331 O 312.86 1.12485 -1.45234 0
M  V30 3332 C 312.922 -1.94602 -3.02275 0
M  V30 3333 C 312.586 -3.43937 -3.00926 0
M  V30 3334 C 313.583 -4.39435 -2.77835 0
M  V30 3335 C 311.268 -3.85858 -3.21588 0
M  V30 3336 C 313.262 -5.74829 -2.75409 0
M  V30 3337 C 310.949 -5.21361 -3.18789 0
M  V30 3338 C 311.947 -6.15658 -2.95727 0
M  V30 3339 O 311.635 -7.48681 -2.928 0
M  V30 3340 H 311.367 -0.434972 -0.51747 0
M  V30 3341 H 313.921 -1.75023 -1.075 0
M  V30 3342 H 312.151 -1.39836 -3.60531 0
M  V30 3343 H 313.84 -1.81651 -3.62985 0
M  V30 3344 H 314.606 -4.08374 -2.6164 0
M  V30 3345 H 310.485 -3.12883 -3.38564 0
M  V30 3346 H 314.029 -6.48404 -2.57328 0
M  V30 3347 H 309.926 -5.52052 -3.34528 0
M  V30 3348 H 310.694 -7.5803 -3.0876 0
M  V30 3349 N 313.357 1.07166 -1.15556 0
M  V30 3350 C 314.304 2.14417 -0.854055 0
M  V30 3351 C 315.274 1.64965 0.193806 0
M  V30 3352 O 316.459 1.90703 0.0609443 0
M  V30 3353 C 313.599 3.43304 -0.351574 0
M  V30 3354 C 312.712 4.06537 -1.46123 0
M  V30 3355 C 311.847 5.23266 -0.914677 0
M  V30 3356 C 310.886 5.78464 -2.00114 0
M  V30 3357 N 310.023 6.86521 -1.47083 0
M  V30 3358 H 314.863 2.39548 -1.77259 0
M  V30 3359 H 312.4 1.17543 -0.884425 0
M  V30 3360 H 314.358 4.17179 -0.0419409 0
M  V30 3361 H 312.988 3.18419 0.530037 0
M  V30 3362 H 312.04 3.30297 -1.88701 0
M  V30 3363 H 313.352 4.43567 -2.28144 0
M  V30 3364 H 312.506 6.04131 -0.557698 0
M  V30 3365 H 311.245 4.87658 -0.0636583 0
M  V30 3366 H 310.25 4.96243 -2.36692 0
M  V30 3367 H 311.475 6.16126 -2.85597 0
M  V30 3368 H 309.421 6.52849 -0.642198 0
M  V30 3369 H 309.338 7.22446 -2.22729 0
M  V30 3370 H 310.606 7.71087 -1.14215 0
M  V30 3371 N 314.835 0.952656 1.25548 0
M  V30 3372 C 315.782 0.47008 2.25962 0
M  V30 3373 C 316.752 -0.476384 1.59122 0
M  V30 3374 O 317.937 -0.39007 1.8677 0
M  V30 3375 C 315.077 -0.247881 3.44209 0
M  V30 3376 C 314.19 0.735591 4.25691 0
M  V30 3377 C 313.325 -0.0047306 5.312 0
M  V30 3378 C 312.364 0.969805 6.04368 0
M  V30 3379 N 311.501 0.260486 7.01617 0
M  V30 3380 H 316.341 1.33126 2.66611 0
M  V30 3381 H 313.878 0.66765 1.31076 0
M  V30 3382 H 315.836 -0.680695 4.1161 0
M  V30 3383 H 314.466 -1.07312 3.0444 0
M  V30 3384 H 313.518 1.28689 3.57971 0
M  V30 3385 H 314.83 1.47934 4.76358 0
M  V30 3386 H 313.984 -0.496275 6.04667 0
M  V30 3387 H 312.723 -0.781282 4.81401 0
M  V30 3388 H 311.728 1.47237 5.29718 0
M  V30 3389 H 312.953 1.74655 6.56256 0
M  V30 3390 H 310.899 -0.497364 6.54112 0
M  V30 3391 H 310.816 0.943362 7.50091 0
M  V30 3392 H 312.084 -0.209587 7.79218 0
M  V30 3393 N 316.313 -1.40141 0.720998 0
M  V30 3394 C 317.223 -2.34486 0.0731031 0
M  V30 3395 C 318.239 -1.57587 -0.737723 0
M  V30 3396 O 319.415 -1.89949 -0.669429 0
M  V30 3397 C 316.48 -3.36528 -0.833656 0
M  V30 3398 C 315.541 -4.29298 -0.0121673 0
M  V30 3399 C 314.774 -5.26466 -0.875742 0
M  V30 3400 O 314.997 -5.29745 -2.11485 0
M  V30 3401 O 313.931 -6.01092 -0.31185 0
M  V30 3402 H 317.757 -2.9152 0.851444 0
M  V30 3403 H 315.342 -1.41427 0.481527 0
M  V30 3404 H 317.224 -3.99093 -1.35289 0
M  V30 3405 H 315.899 -2.81899 -1.59105 0
M  V30 3406 H 314.806 -3.70001 0.552262 0
M  V30 3407 H 316.139 -4.87094 0.707129 0
M  V30 3408 N 317.792 -0.46758 -1.50504 0
M  V30 3409 C 319.04 0.0884469 -2.01906 0
M  V30 3410 C 319.361 1.40532 -1.35188 0
M  V30 3411 O 318.631 1.89515 -0.496079 0
M  V30 3412 H 317.211 0.0356765 -0.746148 0
M  V30 3413 H 319.873 -0.6172 -1.84869 0
M  V30 3414 H 318.969 0.2425 -3.11156 0
M  V30 3415 N 319.27 1.56325 -0.20005 0
M  V30 3416 C 320.18 2.22931 0.730668 0
M  V30 3417 C 321.196 1.22997 1.23076 0
M  V30 3418 O 322.372 1.55748 1.27689 0
M  V30 3419 C 319.437 2.87948 1.93098 0
M  V30 3420 C 318.498 4.03166 1.47497 0
M  V30 3421 C 317.731 4.65073 2.61807 0
M  V30 3422 O 317.954 4.25913 3.79413 0
M  V30 3423 O 316.888 5.54452 2.34237 0
M  V30 3424 H 320.714 3.03084 0.193391 0
M  V30 3425 H 318.299 1.49371 0.0294621 0
M  V30 3426 H 320.181 3.29063 2.6324 0
M  V30 3427 H 318.856 2.10771 2.45677 0
M  V30 3428 H 317.763 3.66664 0.742201 0
M  V30 3429 H 319.096 4.82022 0.995796 0
M  V30 3430 N 320.748 -0.0735177 1.57428 0
M  V30 3431 C 321.68 -1.11423 2.00294 0
M  V30 3432 C 322.693 -1.35084 0.908637 0
M  V30 3433 O 323.882 -1.33355 1.18654 0
M  V30 3434 C 320.982 -2.46548 2.32523 0
M  V30 3435 C 320.155 -2.42867 3.63778 0
M  V30 3436 C 319.214 -3.60087 3.83697 0
M  V30 3437 O 318.24 -3.41595 4.55304 0
M  V30 3438 N 319.442 -4.80372 3.25919 0
M  V30 3439 H 322.207 -0.749206 2.90184 0
M  V30 3440 H 319.768 -0.262195 1.59763 0
M  V30 3441 H 321.76 -3.23607 2.43024 0
M  V30 3442 H 320.33 -2.75059 1.48531 0
M  V30 3443 H 319.55 -1.51206 3.64047 0
M  V30 3444 H 320.838 -2.37506 4.49965 0
M  V30 3445 H 320.236 -4.983 2.67795 0
M  V30 3446 H 318.793 -5.54948 3.41871 0
M  V30 3447 N 322.226 -1.5378 -0.344866 0
M  V30 3448 C 323.472 -1.71216 -1.08687 0
M  V30 3449 C 323.805 -0.473281 -1.88345 0
M  V30 3450 O 323.08 0.52968 -1.87149 0
M  V30 3451 C 323.363 -2.97486 -2.02914 0
M  V30 3452 C 323.216 -4.31579 -1.26727 0
M  V30 3453 C 324.535 -3.19422 -3.0275 0
M  V30 3454 H 321.654 -0.62301 -0.393735 0
M  V30 3455 H 324.296 -1.8645 -0.365563 0
M  V30 3456 H 322.446 -2.84629 -2.64421 0
M  V30 3457 H 324.118 -4.56284 -0.67845 0
M  V30 3458 H 322.361 -4.30049 -0.569273 0
M  V30 3459 H 323.032 -5.16106 -1.95803 0
M  V30 3460 H 325.508 -3.316 -2.51357 0
M  V30 3461 H 324.384 -4.09169 -3.65885 0
M  V30 3462 H 324.645 -2.35656 -3.74057 0
M  V30 3463 N 323.704 0.605807 -1.45491 0
M  V30 3464 C 324.614 1.74466 -1.56839 0
M  V30 3465 C 325.63 1.68006 -0.452772 0
M  V30 3466 O 326.806 1.8833 -0.713708 0
M  V30 3467 C 323.871 3.10931 -1.53371 0
M  V30 3468 C 322.932 3.28832 -2.75986 0
M  V30 3469 C 322.165 4.58787 -2.72673 0
M  V30 3470 O 322.388 5.4122 -1.80102 0
M  V30 3471 O 321.322 4.79438 -3.63899 0
M  V30 3472 H 325.148 1.67843 -2.53106 0
M  V30 3473 H 322.733 0.770108 -1.28022 0
M  V30 3474 H 324.615 3.92233 -1.54051 0
M  V30 3475 H 323.29 3.18042 -0.602572 0
M  V30 3476 H 322.197 2.47112 -2.80867 0
M  V30 3477 H 323.53 3.26599 -3.68231 0
M  V30 3478 N 325.182 1.32811 0.848464 0
M  V30 3479 C 326.429 1.23724 1.60308 0
M  V30 3480 C 326.757 -0.1994 1.93475 0
M  V30 3481 O 326.012 -1.15406 1.5805 0
M  V30 3482 C 326.311 2.04831 2.92881 0
M  V30 3483 C 325.977 3.54125 2.79117 0
M  V30 3484 C 324.639 3.94829 2.7507 0
M  V30 3485 C 326.991 4.49036 2.64606 0
M  V30 3486 C 324.319 5.28675 2.544 0
M  V30 3487 C 326.671 5.83033 2.4547 0
M  V30 3488 C 325.335 6.22931 2.39819 0
M  V30 3489 H 324.605 0.452737 0.586609 0
M  V30 3490 H 327.252 1.64301 0.983743 0
M  V30 3491 H 325.557 1.57001 3.58968 0
M  V30 3492 H 327.254 1.95164 3.50303 0
M  V30 3493 H 323.844 3.21801 2.83094 0
M  V30 3494 H 328.028 4.18505 2.66772 0
M  V30 3495 H 323.284 5.58637 2.48465 0
M  V30 3496 H 327.458 6.56186 2.33222 0
M  V30 3497 H 325.085 7.26584 2.23562 0
M  V30 3498 N 326.66 -1.06551 1.16123 0
M  V30 3499 C 327.885 -1.83544 0.965735 0
M  V30 3500 C 328.31 -1.81843 -0.481102 0
M  V30 3501 O 327.668 -1.21732 -1.34354 0
M  V30 3502 C 327.716 -3.28169 1.49457 0
M  V30 3503 O 326.82 -4.0643 0.699157 0
M  V30 3504 H 326.161 -0.568026 0.343864 0
M  V30 3505 H 328.691 -1.34362 1.54299 0
M  V30 3506 H 328.701 -3.78992 1.51092 0
M  V30 3507 H 327.376 -3.28722 2.54784 0
M  V30 3508 H 325.953 -3.65216 0.7531 0
M  V30 3509 N 328.138 -0.959301 -1.25041 0
M  V30 3510 C 329.385 -0.616611 -1.92884 0
M  V30 3511 C 329.713 0.847036 -1.75087 0
M  V30 3512 O 328.968 1.62374 -1.09239 0
M  V30 3513 C 329.267 -0.927136 -3.45165 0
M  V30 3514 C 328.933 -2.37757 -3.83122 0
M  V30 3515 C 327.595 -2.77402 -3.93194 0
M  V30 3516 C 329.947 -3.31929 -4.01836 0
M  V30 3517 C 327.275 -4.10277 -4.19392 0
M  V30 3518 C 329.627 -4.64423 -4.29528 0
M  V30 3519 C 328.291 -5.03857 -4.37818 0
M  V30 3520 H 327.561 -0.225634 -0.705812 0
M  V30 3521 H 330.208 -1.20921 -1.48493 0
M  V30 3522 H 328.513 -0.252195 -3.90987 0
M  V30 3523 H 330.21 -0.6405 -3.95852 0
M  V30 3524 H 326.8 -2.06013 -3.75841 0
M  V30 3525 H 330.984 -3.02488 -3.93465 0
M  V30 3526 H 326.24 -4.40467 -4.24027 0
M  V30 3527 H 330.414 -5.37369 -4.42953 0
M  V30 3528 H 328.041 -6.06843 -4.57871 0
M  V30 3529 N 329.616 1.39756 -0.72842 0
M  V30 3530 C 331.027 1.83498 -0.344289 0
M  V30 3531 C 331.378 1.60868 1.12321 0
M  V30 3532 O 330.503 1.09634 1.86573 0
M  V30 3533 C 331.098 3.33114 -0.618112 0
M  V30 3534 C 329.657 3.753 -0.287549 0
M  V30 3535 C 328.804 2.62831 -0.884048 0
M  V30 3536 H 331.755 1.28842 -0.926578 0
M  V30 3537 H 331.776 3.80334 0.112349 0
M  V30 3538 H 331.288 3.49553 -1.68625 0
M  V30 3539 H 329.389 3.64451 0.775012 0
M  V30 3540 H 329.502 4.72945 -0.765512 0
M  V30 3541 H 327.866 2.52792 -0.311149 0
M  V30 3542 H 328.649 2.82078 -1.95671 0
M  V30 3543 N 331.094 0.475555 1.50254 0
M  V30 3544 C 332.024 -0.30611 2.31485 0
M  V30 3545 C 333.005 -0.986228 1.38591 0
M  V30 3546 O 334.19 -0.982541 1.67511 0
M  V30 3547 C 331.32 -1.38588 3.1845 0
M  V30 3548 C 330.274 -0.827115 4.19932 0
M  V30 3549 C 329.6 -2.00551 4.95665 0
M  V30 3550 C 330.9 0.16463 5.2204 0
M  V30 3551 H 332.594 0.371866 2.97082 0
M  V30 3552 H 330.14 0.180282 1.42867 0
M  V30 3553 H 332.093 -1.94023 3.74076 0
M  V30 3554 H 330.817 -2.09269 2.50747 0
M  V30 3555 H 329.476 -0.294702 3.65414 0
M  V30 3556 H 329.124 -2.6994 4.2443 0
M  V30 3557 H 328.824 -1.63784 5.64313 0
M  V30 3558 H 330.348 -2.56468 5.54127 0
M  V30 3559 H 331.762 -0.300699 5.72511 0
M  V30 3560 H 330.159 0.446813 5.98434 0
M  V30 3561 H 331.229 1.08905 4.72512 0
M  V30 3562 N 332.573 -1.56217 0.208337 0
M  V30 3563 C 333.536 -2.18455 -0.693557 0
M  V30 3564 C 334.536 -1.14268 -1.13135 0
M  V30 3565 O 335.726 -1.39577 -1.0423 0
M  V30 3566 C 332.858 -2.79727 -1.94848 0
M  V30 3567 H 334.051 -2.99519 -0.15114 0
M  V30 3568 H 331.604 -1.56245 -0.041287 0
M  V30 3569 H 332.339 -2.02497 -2.53309 0
M  V30 3570 H 332.124 -3.56009 -1.64316 0
M  V30 3571 H 333.614 -3.27475 -2.59133 0
M  V30 3572 N 334.051 0.0651679 -1.57465 0
M  V30 3573 C 335.298 0.763063 -1.87573 0
M  V30 3574 C 335.626 1.77242 -0.800961 0
M  V30 3575 O 334.881 1.94651 0.202316 0
M  V30 3576 C 335.18 1.50081 -3.24362 0
M  V30 3577 C 334.846 0.630816 -4.46466 0
M  V30 3578 C 333.508 0.391082 -4.79608 0
M  V30 3579 C 335.86 0.0279465 -5.21193 0
M  V30 3580 C 333.188 -0.460894 -5.84887 0
M  V30 3581 C 335.54 -0.811522 -6.27373 0
M  V30 3582 C 334.204 -1.06106 -6.59013 0
M  V30 3583 H 333.474 0.279224 -0.686378 0
M  V30 3584 H 336.121 0.0236726 -1.91485 0
M  V30 3585 H 334.426 2.31258 -3.16271 0
M  V30 3586 H 336.123 2.04571 -3.44894 0
M  V30 3587 H 332.713 0.8278 -4.2053 0
M  V30 3588 H 336.897 0.200262 -4.95896 0
M  V30 3589 H 332.153 -0.662907 -6.07796 0
M  V30 3590 H 336.327 -1.28537 -6.84435 0
M  V30 3591 H 333.954 -1.723 -7.40417 0
M  V30 3592 N 335.529 1.53961 0.336706 0
M  V30 3593 C 336.757 1.75483 1.09605 0
M  V30 3594 C 337.172 0.4972 1.82136 0
M  V30 3595 O 336.529 -0.53149 1.74589 0
M  V30 3596 C 336.58 2.93943 2.10428 0
M  V30 3597 O 336.301 4.14842 1.40846 0
M  V30 3598 C 337.802 3.27571 2.98684 0
M  V30 3599 H 335.022 0.586166 0.326574 0
M  V30 3600 H 337.566 2.00808 0.38683 0
M  V30 3601 H 335.721 2.70929 2.76905 0
M  V30 3602 H 336.135 4.81383 2.08255 0
M  V30 3603 H 337.609 4.13791 3.6535 0
M  V30 3604 H 338.086 2.44168 3.65074 0
M  V30 3605 H 338.692 3.52615 2.37787 0
M  V30 3606 N 337.007 -0.598083 1.45811 0
M  V30 3607 C 338.253 -1.35882 1.50545 0
M  V30 3608 C 338.586 -1.93616 0.150445 0
M  V30 3609 O 337.861 -1.75604 -0.83628 0
M  V30 3610 C 338.144 -2.49966 2.59208 0
M  V30 3611 C 337.997 -1.97367 4.04186 0
M  V30 3612 C 339.316 -3.52068 2.64076 0
M  V30 3613 H 336.435 -0.492717 0.548087 0
M  V30 3614 H 339.077 -0.673319 1.77669 0
M  V30 3615 H 337.227 -3.08443 2.3621 0
M  V30 3616 H 338.899 -1.43466 4.38423 0
M  V30 3617 H 337.142 -1.283 4.14393 0
M  V30 3618 H 337.813 -2.79649 4.75921 0
M  V30 3619 H 340.289 -3.03448 2.84708 0
M  V30 3620 H 339.165 -4.2937 3.41954 0
M  V30 3621 H 339.426 -4.08304 1.69531 0
M  V30 3622 N 338.485 -1.33259 -0.841409 0
M  V30 3623 C 339.395 -1.25332 -1.98316 0
M  V30 3624 C 340.411 -0.164364 -1.73222 0
M  V30 3625 O 341.587 -0.387486 -1.97637 0
M  V30 3626 C 338.652 -0.990078 -3.32262 0
M  V30 3627 C 337.713 -2.16879 -3.70489 0
M  V30 3628 C 336.946 -1.91801 -4.98044 0
M  V30 3629 O 337.169 -0.867075 -5.63771 0
M  V30 3630 O 336.103 -2.78267 -5.33714 0
M  V30 3631 H 339.929 -2.21344 -2.07944 0
M  V30 3632 H 337.514 -1.1328 -0.974058 0
M  V30 3633 H 339.396 -0.860321 -4.12524 0
M  V30 3634 H 338.071 -0.0602155 -3.23644 0
M  V30 3635 H 336.978 -2.35407 -2.90748 0
M  V30 3636 H 338.311 -3.0819 -3.8377 0
M  V30 3637 N 339.963 1.05934 -1.16686 0
M  V30 3638 C 340.91 2.13499 -0.876748 0
M  V30 3639 C 341.88 1.65162 0.176299 0
M  V30 3640 O 343.065 1.90757 0.0407143 0
M  V30 3641 C 340.205 3.42912 -0.387967 0
M  V30 3642 C 339.318 4.04964 -1.50426 0
M  V30 3643 C 338.453 5.22266 -0.970125 0
M  V30 3644 C 337.492 5.76309 -2.06238 0
M  V30 3645 N 336.629 6.84922 -1.54356 0
M  V30 3646 H 341.469 2.37654 -1.7979 0
M  V30 3647 H 339.006 1.16598 -0.896843 0
M  V30 3648 H 340.964 4.17111 -0.086186 0
M  V30 3649 H 339.594 3.18963 0.496235 0
M  V30 3650 H 338.646 3.28277 -1.92193 0
M  V30 3651 H 339.958 4.41122 -2.32836 0
M  V30 3652 H 339.112 6.03506 -0.621743 0
M  V30 3653 H 337.851 4.87564 -0.115377 0
M  V30 3654 H 336.856 4.93704 -2.41942 0
M  V30 3655 H 338.081 6.13062 -2.92115 0
M  V30 3656 H 336.027 6.52131 -0.711406 0
M  V30 3657 H 335.944 7.20043 -2.30379 0
M  V30 3658 H 337.212 7.69832 -1.22387 0
M  V30 3659 N 341.441 0.965919 1.2453 0
M  V30 3660 C 342.371 0.513476 2.27784 0
M  V30 3661 C 343.352 -0.445974 1.6415 0
M  V30 3662 O 344.537 -0.342485 1.91156 0
M  V30 3663 C 341.667 -0.198839 3.4673 0
M  V30 3664 C 340.621 0.676456 4.2262 0
M  V30 3665 C 339.947 -0.167248 5.34438 0
M  V30 3666 C 341.247 1.96017 4.84123 0
M  V30 3667 H 342.941 1.3765 2.65881 0
M  V30 3668 H 340.487 0.663321 1.27813 0
M  V30 3669 H 342.44 -0.526567 4.18097 0
M  V30 3670 H 341.164 -1.0962 3.07654 0
M  V30 3671 H 339.823 0.98743 3.53052 0
M  V30 3672 H 339.471 -1.0647 4.91603 0
M  V30 3673 H 339.171 0.415181 5.86131 0
M  V30 3674 H 340.695 -0.489688 6.08633 0
M  V30 3675 H 342.109 1.69814 5.47573 0
M  V30 3676 H 340.506 2.48918 5.4604 0
M  V30 3677 H 341.576 2.65622 4.05676 0
M  V30 3678 N 342.919 -1.39368 0.735821 0
M  V30 3679 C 344.147 -2.04795 0.294393 0
M  V30 3680 C 344.562 -1.55478 -1.07107 0
M  V30 3681 O 343.919 -0.720038 -1.67695 0
M  V30 3682 C 343.97 -3.6035 0.288071 0
M  V30 3683 O 343.691 -4.07852 1.59963 0
M  V30 3684 C 345.192 -4.42976 -0.169422 0
M  V30 3685 H 342.412 -0.658571 0.128551 0
M  V30 3686 H 344.956 -1.78399 0.999701 0
M  V30 3687 H 343.111 -3.85645 -0.368355 0
M  V30 3688 H 343.525 -5.02181 1.51375 0
M  V30 3689 H 344.999 -5.51864 -0.122687 0
M  V30 3690 H 345.476 -4.22068 -1.21472 0
M  V30 3691 H 346.082 -4.22832 0.457469 0
M  V30 3692 N 344.397 -0.483516 -1.5 0
M  V30 3693 C 345.645 0.067027 -2.01989 0
M  V30 3694 C 345.966 1.3909 -1.36671 0
M  V30 3695 O 345.236 1.88978 -0.516152 0
M  V30 3696 H 343.816 0.0277606 -0.746484 0
M  V30 3697 H 346.478 -0.636773 -1.84204 0
M  V30 3698 H 345.574 0.209484 -3.11396 0
M  V30 3699 N 345.875 1.56104 -0.216619 0
M  V30 3700 C 347.1 2.0301 0.424462 0
M  V30 3701 C 347.525 1.0955 1.52907 0
M  V30 3702 O 346.883 0.0827914 1.81111 0
M  V30 3703 C 346.931 3.4819 0.937883 0
M  V30 3704 O 346.035 3.57865 2.04955 0
M  V30 3705 H 345.376 0.656925 0.0966755 0
M  V30 3706 H 347.906 2.01859 -0.33381 0
M  V30 3707 H 347.916 3.88413 1.24897 0
M  V30 3708 H 346.591 4.15699 0.129387 0
M  V30 3709 H 345.168 3.29527 1.74546 0
M  V30 3710 N 347.353 -0.0568162 1.57498 0
M  V30 3711 C 348.601 -0.751617 1.87604 0
M  V30 3712 C 348.922 -1.77351 0.81066 0
M  V30 3713 O 348.192 -1.95254 -0.159018 0
M  V30 3714 H 346.772 -0.280583 0.692302 0
M  V30 3715 H 349.434 -0.0293483 1.94878 0
M  V30 3716 H 348.53 -1.25852 2.856 0
M  V30 3717 N 348.832 -1.54138 -0.328536 0
M  V30 3718 C 349.742 -1.86192 -1.42723 0
M  V30 3719 C 350.758 -0.753382 -1.56844 0
M  V30 3720 O 351.934 -1.04718 -1.72035 0
M  V30 3721 C 348.999 -2.07824 -2.77507 0
M  V30 3722 C 348.06 -3.31641 -2.72603 0
M  V30 3723 C 347.293 -3.52232 -4.00959 0
M  V30 3724 O 347.516 -2.7636 -4.9898 0
M  V30 3725 O 346.45 -4.45699 -4.0452 0
M  V30 3726 H 350.276 -2.79608 -1.18547 0
M  V30 3727 H 347.861 -1.3998 -0.522104 0
M  V30 3728 H 349.743 -2.23411 -3.57303 0
M  V30 3729 H 348.418 -1.17596 -3.01584 0
M  V30 3730 H 347.325 -3.21444 -1.91376 0
M  V30 3731 H 348.658 -4.2191 -2.53481 0
M  V30 3732 N 350.31 0.590341 -1.46126 0
M  V30 3733 C 351.24 1.71032 -1.58966 0
M  V30 3734 C 352.221 1.64302 -0.440335 0
M  V30 3735 O 353.406 1.82436 -0.665634 0
M  V30 3736 C 350.536 3.09665 -1.57241 0
M  V30 3737 C 349.49 3.31221 -2.71066 0
M  V30 3738 C 348.816 4.70303 -2.54399 0
M  V30 3739 C 350.116 3.19796 -4.1295 0
M  V30 3740 H 351.81 1.60543 -2.52718 0
M  V30 3741 H 349.356 0.770933 -1.21625 0
M  V30 3742 H 351.309 3.87831 -1.64819 0
M  V30 3743 H 350.033 3.21036 -0.600289 0
M  V30 3744 H 348.692 2.55452 -2.62944 0
M  V30 3745 H 348.34 4.78429 -1.55288 0
M  V30 3746 H 348.04 4.85679 -3.30741 0
M  V30 3747 H 349.564 5.50647 -2.63857 0
M  V30 3748 H 350.978 3.87815 -4.22223 0
M  V30 3749 H 349.375 3.46696 -4.89818 0
M  V30 3750 H 350.445 2.16983 -4.33643 0
M  V30 3751 N 351.788 1.33704 0.83433 0
M  V30 3752 C 353.034 1.26612 1.59188 0
M  V30 3753 C 353.389 -0.165439 1.91687 0
M  V30 3754 O 352.682 -1.10873 1.56262 0
M  V30 3755 C 352.876 2.07926 2.90692 0
M  V30 3756 C 352.705 3.58844 2.71038 0
M  V30 3757 C 351.475 4.28148 2.68361 0
M  V30 3758 C 353.673 4.53082 2.43353 0
M  V30 3759 N 351.655 5.64987 2.40132 0
M  V30 3760 C 353.026 5.77843 2.24716 0
M  V30 3761 C 355.081 4.42119 2.28987 0
M  V30 3762 C 353.784 6.92877 1.9317 0
M  V30 3763 C 355.81 5.56973 1.98835 0
M  V30 3764 C 355.172 6.80745 1.81012 0
M  V30 3765 H 351.271 0.518517 0.585375 0
M  V30 3766 H 353.855 1.68294 0.979044 0
M  V30 3767 H 352.026 1.68558 3.49918 0
M  V30 3768 H 353.758 1.92568 3.55949 0
M  V30 3769 H 350.513 3.80469 2.82029 0
M  V30 3770 H 350.937 6.37133 2.28889 0
M  V30 3771 H 355.579 3.47058 2.41477 0
M  V30 3772 H 353.297 7.87931 1.79418 0
M  V30 3773 H 356.883 5.50428 1.88468 0
M  V30 3774 H 355.763 7.68115 1.58017 0
M  V30 3775 N 353.266 -1.05314 1.17247 0
M  V30 3776 C 354.512 -1.78699 0.971513 0
M  V30 3777 C 354.867 -1.85932 -0.494692 0
M  V30 3778 O 354.16 -1.34716 -1.36243 0
M  V30 3779 C 354.354 -3.2229 1.54479 0
M  V30 3780 C 354.183 -3.29052 3.06521 0
M  V30 3781 C 352.953 -3.3841 3.75242 0
M  V30 3782 C 355.151 -3.18095 4.04129 0
M  V30 3783 N 353.133 -3.34289 5.14902 0
M  V30 3784 C 354.504 -3.21331 5.30232 0
M  V30 3785 C 356.559 -3.02049 3.95817 0
M  V30 3786 C 355.262 -3.10169 6.4899 0
M  V30 3787 C 357.288 -2.92228 5.14156 0
M  V30 3788 C 356.65 -2.96096 6.39145 0
M  V30 3789 H 352.749 -0.66628 0.409383 0
M  V30 3790 H 355.333 -1.25553 1.4881 0
M  V30 3791 H 353.504 -3.7381 1.05455 0
M  V30 3792 H 355.236 -3.83905 1.28059 0
M  V30 3793 H 351.991 -3.43621 3.25917 0
M  V30 3794 H 352.415 -3.35702 5.87906 0
M  V30 3795 H 357.057 -2.97897 3.00029 0
M  V30 3796 H 354.775 -3.13076 7.44989 0
M  V30 3797 H 358.361 -2.80885 5.09505 0
M  V30 3798 H 357.241 -2.88568 7.29176 0
M  V30 3799 N 354.744 -0.972509 -1.24016 0
M  V30 3800 C 355.676 -0.464375 -2.24446 0
M  V30 3801 C 356.689 0.4295 -1.57032 0
M  V30 3802 O 357.878 0.234902 -1.76948 0
M  V30 3803 C 354.978 0.348385 -3.37105 0
M  V30 3804 C 354.151 -0.53673 -4.34094 0
M  V30 3805 C 353.21 0.220838 -5.25736 0
M  V30 3806 O 352.236 -0.386867 -5.67884 0
M  V30 3807 N 353.438 1.50907 -5.60542 0
M  V30 3808 H 356.203 -1.32788 -2.68677 0
M  V30 3809 H 353.764 -0.844877 -1.38107 0
M  V30 3810 H 355.756 0.863341 -3.95384 0
M  V30 3811 H 354.326 1.11285 -2.92121 0
M  V30 3812 H 353.546 -1.23261 -3.74433 0
M  V30 3813 H 354.834 -1.14022 -4.95859 0
M  V30 3814 H 354.232 2.02444 -5.28236 0
M  V30 3815 H 352.789 1.96962 -6.21329 0
M  V30 3816 N 356.222 1.38976 -0.743202 0
M  V30 3817 C 357.185 2.28901 -0.117014 0
M  V30 3818 C 358.185 1.46698 0.658503 0
M  V30 3819 O 359.375 1.67274 0.486305 0
M  V30 3820 C 356.507 3.30309 0.84315 0
M  V30 3821 H 357.7 2.8578 -0.909373 0
M  V30 3822 H 355.253 1.47761 -0.509547 0
M  V30 3823 H 355.988 2.785 1.66157 0
M  V30 3824 H 355.773 3.91029 0.289594 0
M  V30 3825 H 357.263 3.97577 1.2776 0
M  V30 3826 N 357.7 0.491464 1.49741 0
M  V30 3827 C 358.61 -0.296835 2.32715 0
M  V30 3828 C 359.626 -0.976536 1.44013 0
M  V30 3829 O 360.802 -0.960023 1.77047 0
M  V30 3830 C 357.867 -1.35288 3.19215 0
M  V30 3831 C 356.928 -0.687632 4.23757 0
M  V30 3832 C 356.161 -1.69336 5.06123 0
M  V30 3833 O 356.384 -2.92219 4.89861 0
M  V30 3834 O 355.318 -1.25394 5.88693 0
M  V30 3835 H 359.144 0.382048 3.01287 0
M  V30 3836 H 356.729 0.252953 1.47243 0
M  V30 3837 H 358.611 -1.96411 3.72828 0
M  V30 3838 H 357.286 -2.01487 2.53347 0
M  V30 3839 H 356.193 -0.0369159 3.74082 0
M  V30 3840 H 357.526 -0.0682566 4.92153 0
M  V30 3841 N 359.178 -1.55987 0.224894 0
M  V30 3842 C 360.594 -1.59066 -0.130426 0
M  V30 3843 C 360.794 -1.24176 -1.5869 0
M  V30 3844 O 359.85 -0.978592 -2.32766 0
M  V30 3845 C 361.163 -3.00042 0.198883 0
M  V30 3846 C 362.711 -3.1268 0.141391 0
M  V30 3847 C 363.186 -4.55839 0.444422 0
M  V30 3848 N 364.677 -4.6152 0.394115 0
M  V30 3849 C 365.412 -5.70231 0.602038 0
M  V30 3850 N 364.908 -6.87291 0.871914 0
M  V30 3851 N 366.701 -5.59555 0.534245 0
M  V30 3852 H 358.852 -1.76941 1.17497 0
M  V30 3853 H 361.115 -0.822604 0.471197 0
M  V30 3854 H 360.821 -3.30234 1.2099 0
M  V30 3855 H 360.695 -3.74075 -0.484535 0
M  V30 3856 H 363.082 -2.82283 -0.860265 0
M  V30 3857 H 363.163 -2.40969 0.858335 0
M  V30 3858 H 362.807 -4.86954 1.44353 0
M  V30 3859 H 362.737 -5.2578 -0.293752 0
M  V30 3860 H 365.228 -3.77405 0.193356 0
M  V30 3861 H 365.541 -7.66058 1.01858 0
M  V30 3862 H 363.886 -6.89028 0.909145 0
M  V30 3863 H 367.077 -4.6698 0.323612 0
M  V30 3864 H 367.25 -6.44211 0.699693 0
M  V30 3865 N 360.656 0.0484629 -1.57525 0
M  V30 3866 C 361.619 1.03956 -2.04269 0
M  V30 3867 C 362.619 1.30211 -0.943496 0
M  V30 3868 O 363.809 1.25539 -1.20771 0
M  V30 3869 C 360.941 2.37742 -2.44319 0
M  V30 3870 H 362.134 0.636182 -2.93075 0
M  V30 3871 H 359.687 0.294811 -1.53494 0
M  V30 3872 H 360.422 2.82866 -1.5861 0
M  V30 3873 H 360.207 2.20021 -3.24551 0
M  V30 3874 H 361.697 3.08936 -2.80978 0
M  V30 3875 N 362.134 1.5431 0.320358 0
M  V30 3876 C 363.359 1.76954 1.08175 0
M  V30 3877 C 363.784 0.518193 1.80821 0
M  V30 3878 O 363.142 -0.530411 1.73368 0
M  V30 3879 C 363.19 2.96451 2.05303 0
M  V30 3880 O 362.294 2.68221 3.13259 0
M  V30 3881 H 361.635 0.586275 0.311733 0
M  V30 3882 H 364.165 2.01342 0.363676 0
M  V30 3883 H 364.175 3.23887 2.48116 0
M  V30 3884 H 362.85 3.87196 1.51829 0
M  V30 3885 H 361.427 2.51744 2.75099 0
M  V30 3886 N 363.613 -0.582584 1.46437 0
M  V30 3887 C 364.838 -1.37168 1.55563 0
M  V30 3888 C 365.263 -1.87061 0.19743 0
M  V30 3889 O 364.621 -1.61572 -0.822451 0
M  V30 3890 C 364.669 -2.53511 2.56446 0
M  V30 3891 O 363.773 -3.54953 2.09958 0
M  V30 3892 H 363.114 -0.408494 0.523477 0
M  V30 3893 H 365.644 -0.706646 1.9201 0
M  V30 3894 H 365.654 -3.00426 2.76058 0
M  V30 3895 H 364.329 -2.16549 3.55076 0
M  V30 3896 H 362.906 -3.14516 2.00334 0
M  V30 3897 N 365.091 -1.34144 -0.827227 0
M  V30 3898 C 366.316 -1.29476 -1.62021 0
M  V30 3899 C 366.741 0.129292 -1.87655 0
M  V30 3900 O 366.099 1.08967 -1.449 0
M  V30 3901 C 366.147 -2.08702 -2.94068 0
M  V30 3902 O 365.251 -1.45359 -3.85933 0
M  V30 3903 H 364.592 -0.444881 -0.492927 0
M  V30 3904 H 367.122 -1.76882 -1.02829 0
M  V30 3905 H 367.132 -2.19898 -3.43669 0
M  V30 3906 H 365.807 -3.12241 -2.74734 0
M  V30 3907 H 364.384 -1.42879 -3.44442 0
M  V30 3908 N 366.569 1.04691 -1.17803 0
M  V30 3909 C 367.516 2.12557 -0.899343 0
M  V30 3910 C 368.486 1.65339 0.158771 0
M  V30 3911 O 369.671 1.90789 0.0204797 0
M  V30 3912 C 366.811 3.42481 -0.424315 0
M  V30 3913 C 365.924 4.03346 -1.54713 0
M  V30 3914 C 365.059 5.21208 -1.02546 0
M  V30 3915 C 364.098 5.74089 -2.12339 0
M  V30 3916 N 363.235 6.83247 -1.61612 0
M  V30 3917 H 368.075 2.35734 -1.823 0
M  V30 3918 H 365.612 1.1564 -0.909159 0
M  V30 3919 H 367.57 4.16996 -0.130421 0
M  V30 3920 H 366.2 3.19471 0.462377 0
M  V30 3921 H 365.252 3.2622 -1.95664 0
M  V30 3922 H 366.564 4.38628 -2.37501 0
M  V30 3923 H 365.718 6.02812 -0.685718 0
M  V30 3924 H 364.457 4.87414 -0.167084 0
M  V30 3925 H 363.462 4.91111 -2.47165 0
M  V30 3926 H 364.687 6.0993 -2.98601 0
M  V30 3927 H 362.633 6.5134 -0.780533 0
M  V30 3928 H 362.55 7.17559 -2.38003 0
M  V30 3929 H 363.818 7.68491 -1.30545 0
M  V30 3930 N 368.047 0.979072 1.23499 0
M  V30 3931 C 369.272 0.664845 1.96455 0
M  V30 3932 C 369.697 -0.761287 1.72006 0
M  V30 3933 O 369.055 -1.51837 0.990713 0
M  V30 3934 C 369.103 0.959479 3.47601 0
M  V30 3935 O 368.207 0.0508168 4.12369 0
M  V30 3936 H 367.548 0.250185 0.615064 0
M  V30 3937 H 370.078 1.31231 1.5697 0
M  V30 3938 H 370.088 0.895642 3.98048 0
M  V30 3939 H 368.763 1.99876 3.64723 0
M  V30 3940 H 367.34 0.16895 3.72517 0
M  V30 3941 N 369.525 -1.3858 0.750561 0
M  V30 3942 C 370.771 -2.0095 0.31477 0
M  V30 3943 C 371.126 -1.58509 -1.09053 0
M  V30 3944 O 370.419 -0.8112 -1.7358 0
M  V30 3945 C 370.613 -3.55455 0.372373 0
M  V30 3946 C 370.442 -4.12898 1.78173 0
M  V30 3947 C 369.212 -4.44797 2.39757 0
M  V30 3948 C 371.41 -4.35366 2.7379 0
M  V30 3949 N 369.392 -4.87831 3.72685 0
M  V30 3950 C 370.763 -4.80775 3.91478 0
M  V30 3951 C 372.818 -4.1746 2.71351 0
M  V30 3952 C 371.521 -5.10155 5.07084 0
M  V30 3953 C 373.547 -4.47963 3.86113 0
M  V30 3954 C 372.909 -4.93593 5.02539 0
M  V30 3955 H 369.008 -0.765083 0.161776 0
M  V30 3956 H 371.592 -1.68246 0.979867 0
M  V30 3957 H 369.763 -3.87512 -0.26244 0
M  V30 3958 H 371.495 -4.04614 -0.0834479 0
M  V30 3959 H 368.25 -4.33135 1.91548 0
M  V30 3960 H 368.674 -5.13685 4.40972 0
M  V30 3961 H 373.316 -3.81372 1.82524 0
M  V30 3962 H 371.034 -5.45141 5.96529 0
M  V30 3963 H 374.62 -4.35717 3.85542 0
M  V30 3964 H 373.5 -5.16746 5.89867 0
M  V30 3965 N 371.003 -0.499398 -1.49478 0
M  V30 3966 C 372.252 0.0475259 -2.01644 0
M  V30 3967 C 372.565 1.38195 -1.38425 0
M  V30 3968 O 373.771 2.01547 -1.8191 0
M  V30 3969 C 372.227 0.135164 -3.59646 0
M  V30 3970 C 371.835 -1.19252 -4.31837 0
M  V30 3971 C 373.579 0.632538 -4.19761 0
M  V30 3972 C 371.486 -1.06713 -5.81693 0
M  V30 3973 H 370.416 0.0215349 -0.753692 0
M  V30 3974 H 373.067 -0.638577 -1.7203 0
M  V30 3975 H 371.449 0.885681 -3.85969 0
M  V30 3976 H 372.623 -1.9562 -4.17216 0
M  V30 3977 H 370.938 -1.62321 -3.83459 0
M  V30 3978 H 373.535 0.743833 -5.29501 0
M  V30 3979 H 373.878 1.63098 -3.83021 0
M  V30 3980 H 374.411 -0.0613987 -3.97753 0
M  V30 3981 H 371.15 -2.03979 -6.22955 0
M  V30 3982 H 370.67 -0.344307 -5.98811 0
M  V30 3983 H 372.349 -0.745208 -6.42694 0
M  V30 3984 N 372.481 1.55866 -0.233164 0
M  V30 3985 C 373.709 2.02998 0.399905 0
M  V30 3986 C 374.124 1.11274 1.52524 0
M  V30 3987 O 373.481 0.124528 1.82075 0
M  V30 3988 C 373.532 3.4958 0.920639 0
M  V30 3989 O 373.253 4.37808 -0.159834 0
M  V30 3990 C 374.754 4.12411 1.62578 0
M  V30 3991 H 371.974 0.664006 0.0966281 0
M  V30 3992 H 374.518 2.0143 -0.353013 0
M  V30 3993 H 372.673 3.51727 1.62379 0
M  V30 3994 H 373.087 5.23981 0.23337 0
M  V30 3995 H 374.561 5.16711 1.94201 0
M  V30 3996 H 375.038 3.5809 2.54299 0
M  V30 3997 H 375.644 4.14148 0.967553 0
M  V30 3998 N 373.959 -0.0401083 1.57549 0
M  V30 3999 C 375.206 -0.733125 1.88763 0
M  V30 4000 C 375.534 -1.75946 0.829058 0
M  V30 4001 O 374.789 -1.94949 -0.171323 0
M  V30 4002 C 375.088 -1.44902 3.26708 0
M  V30 4003 C 374.754 -0.559707 4.47413 0
M  V30 4004 C 373.416 -0.314731 4.8017 0
M  V30 4005 C 375.768 0.0549743 5.21171 0
M  V30 4006 C 373.096 0.553886 5.8408 0
M  V30 4007 C 375.448 0.911229 6.26003 0
M  V30 4008 C 374.112 1.16577 6.57241 0
M  V30 4009 H 373.382 -0.268269 0.690733 0
M  V30 4010 H 376.029 0.00679408 1.91499 0
M  V30 4011 H 374.334 -2.26197 3.1991 0
M  V30 4012 H 376.031 -1.99058 3.48105 0
M  V30 4013 H 372.621 -0.760793 4.21794 0
M  V30 4014 H 376.805 -0.121344 4.96152 0
M  V30 4015 H 372.061 0.759518 6.06664 0
M  V30 4016 H 376.235 1.3941 6.82303 0
M  V30 4017 H 373.862 1.84058 7.37582 0
M  V30 4018 N 375.437 -1.54477 -0.31217 0
M  V30 4019 C 376.714 -1.63891 -1.06767 0
M  V30 4020 C 377.094 -0.480028 -2.0557 0
M  V30 4021 O 376.442 0.524487 -2.22399 0
M  V30 4022 C 376.652 -3.01402 -1.75948 0
M  V30 4023 C 378 -3.57838 -2.28554 0
M  V30 4024 O 379.024 -3.03782 -1.85998 0
M  V30 4025 O 377.883 -4.52462 -3.06497 0
M  V30 4026 H 374.977 -0.664125 -0.492816 0
M  V30 4027 H 377.523 -1.66823 -0.311149 0
M  V30 4028 H 376.295 -3.77187 -1.04144 0
M  V30 4029 H 375.918 -3.02199 -2.58383 0
M  V30 4030 N 376.915 0.57481 -1.46744 0
M  V30 4031 C 377.845 1.69337 -1.60771 0
M  V30 4032 C 378.826 1.63825 -0.457736 0
M  V30 4033 O 380.011 1.8172 -0.684947 0
M  V30 4034 C 377.141 3.0798 -1.60517 0
M  V30 4035 C 376.095 3.28327 -2.74564 0
M  V30 4036 C 375.421 4.67578 -2.59373 0
M  V30 4037 C 376.721 3.15398 -4.16319 0
M  V30 4038 H 378.415 1.57853 -2.54407 0
M  V30 4039 H 375.961 0.75799 -1.22436 0
M  V30 4040 H 377.914 3.86061 -1.68923 0
M  V30 4041 H 376.638 3.20381 -0.634305 0
M  V30 4042 H 375.297 2.52649 -2.65639 0
M  V30 4043 H 374.945 4.76755 -1.60353 0
M  V30 4044 H 374.645 4.82144 -3.35873 0
M  V30 4045 H 376.169 5.47817 -2.69682 0
M  V30 4046 H 377.583 3.83315 -4.26313 0
M  V30 4047 H 375.98 3.41482 -4.93468 0
M  V30 4048 H 377.05 2.12372 -4.3592 0
M  V30 4049 N 378.394 1.34581 0.820102 0
M  V30 4050 C 379.341 1.2639 1.93117 0
M  V30 4051 C 380.311 0.138554 1.65521 0
M  V30 4052 O 381.496 0.320004 1.88097 0
M  V30 4053 C 378.636 1.02812 3.29429 0
M  V30 4054 C 377.749 2.24146 3.693 0
M  V30 4055 C 376.884 1.93829 4.94574 0
M  V30 4056 C 375.923 3.1129 5.27034 0
M  V30 4057 N 375.06 2.80838 6.43486 0
M  V30 4058 H 379.9 2.21408 1.99455 0
M  V30 4059 H 377.437 1.10077 0.975784 0
M  V30 4060 H 379.395 0.871788 4.0799 0
M  V30 4061 H 378.025 0.114612 3.22596 0
M  V30 4062 H 377.077 2.50691 2.86109 0
M  V30 4063 H 378.389 3.11899 3.89257 0
M  V30 4064 H 377.543 1.74948 5.80929 0
M  V30 4065 H 376.282 1.03341 4.76626 0
M  V30 4066 H 375.287 3.30764 4.39175 0
M  V30 4067 H 376.512 4.02561 5.4692 0
M  V30 4068 H 374.458 1.92929 6.26988 0
M  V30 4069 H 374.375 3.62123 6.63629 0
M  V30 4070 H 375.643 2.65467 7.32903 0
M  V30 4071 N 379.872 -1.04064 1.18357 0
M  V30 4072 C 380.82 -2.14187 0.907007 0
M  V30 4073 C 381.814 -1.68879 -0.132725 0
M  V30 4074 O 383.02 -1.79993 0.0154248 0
M  V30 4075 H 379.395 -0.699585 0.275835 0
M  V30 4076 H 381.366 -2.34711 1.84264 0
M  V30 4077 C 380.115 -3.44785 0.449254 0
M  V30 4078 H 379.438 -3.80058 1.24081 0
M  V30 4079 H 380.878 -4.22974 0.294737 0
M  V30 4080 C 379.337 -3.26391 -0.834909 0
M  V30 4081 O 379.867 -3.53973 -1.89911 0
M  V30 4082 N 378.073 -2.79726 -0.787523 0
M  V30 4083 H 377.62 -2.5748 0.0787347 0
M  V30 4084 H 377.578 -2.67798 -1.64716 0
M  V30 4085 N 381.35 -0.985608 -1.22978 0
M  V30 4086 C 382.297 -0.529825 -2.24636 0
M  V30 4087 C 383.267 0.434028 -1.60329 0
M  V30 4088 O 384.452 0.340414 -1.87739 0
M  V30 4089 C 381.592 0.156533 -3.44745 0
M  V30 4090 C 380.705 -0.848197 -4.23591 0
M  V30 4091 C 379.84 -0.136109 -5.31026 0
M  V30 4092 C 378.879 -1.1297 -6.01585 0
M  V30 4093 N 378.016 -0.446415 -7.00679 0
M  V30 4094 H 382.856 -1.40148 -2.62988 0
M  V30 4095 H 380.393 -0.702168 -1.29259 0
M  V30 4096 H 382.351 0.571324 -4.1327 0
M  V30 4097 H 380.981 0.992025 -3.07179 0
M  V30 4098 H 380.033 -1.38135 -3.54433 0
M  V30 4099 H 381.345 -1.60512 -4.72268 0
M  V30 4100 H 380.499 0.335784 -6.0577 0
M  V30 4101 H 379.238 0.653373 -4.83304 0
M  V30 4102 H 378.243 -1.6123 -5.25628 0
M  V30 4103 H 379.468 -1.91993 -6.51395 0
M  V30 4104 H 377.414 0.323763 -6.55201 0
M  V30 4105 H 377.331 -1.1419 -7.47326 0
M  V30 4106 H 378.599 0.00291697 -7.795 0
M  V30 4107 N 382.828 1.3818 -0.7579 0
M  V30 4108 C 383.738 2.3421 -0.135247 0
M  V30 4109 C 384.754 1.59487 0.695683 0
M  V30 4110 O 385.93 1.91657 0.618832 0
M  V30 4111 C 382.995 3.3862 0.744139 0
M  V30 4112 C 382.056 4.2918 -0.101658 0
M  V30 4113 C 381.289 5.28603 0.735851 0
M  V30 4114 O 381.512 5.35166 1.97366 0
M  V30 4115 O 380.446 6.01707 0.152372 0
M  V30 4116 H 384.272 2.8916 -0.928436 0
M  V30 4117 H 381.857 1.40101 -0.518855 0
M  V30 4118 H 383.739 4.02539 1.2466 0
M  V30 4119 H 382.414 2.86019 1.51575 0
M  V30 4120 H 381.321 3.68407 -0.650167 0
M  V30 4121 H 382.654 4.85048 -0.836024 0
M  V30 4122 N 384.306 0.507319 1.49211 0
M  V30 4123 C 385.552 -0.0350047 2.0277 0
M  V30 4124 C 385.885 -1.3606 1.38569 0
M  V30 4125 O 385.16 -1.87321 0.523542 0
M  V30 4126 C 385.443 -0.180916 3.59645 0
M  V30 4127 C 385.296 1.16825 4.34364 0
M  V30 4128 C 386.615 -0.918558 4.30407 0
M  V30 4129 H 383.734 -0.0112473 0.736914 0
M  V30 4130 H 386.376 0.659956 1.7817 0
M  V30 4131 H 384.526 -0.772826 3.80736 0
M  V30 4132 H 386.198 1.79952 4.24753 0
M  V30 4133 H 384.441 1.75594 3.96673 0
M  V30 4134 H 385.112 1.01939 5.42506 0
M  V30 4135 H 387.588 -0.41649 4.1401 0
M  V30 4136 H 386.464 -0.989505 5.39907 0
M  V30 4137 H 386.725 -1.96373 3.96093 0
M  V30 4138 N 385.784 -1.5574 0.241426 0
M  V30 4139 C 387.009 -2.0366 -0.392111 0
M  V30 4140 C 387.434 -1.11969 -1.51144 0
M  V30 4141 O 386.792 -0.111594 -1.80956 0
M  V30 4142 C 386.84 -3.49638 -0.882371 0
M  V30 4143 O 385.944 -3.6108 -1.99235 0
M  V30 4144 H 385.285 -0.658379 -0.0862122 0
M  V30 4145 H 387.815 -2.01302 0.365881 0
M  V30 4146 H 387.825 -3.90351 -1.18702 0
M  V30 4147 H 386.5 -4.15852 -0.0632361 0
M  V30 4148 H 385.077 -3.32262 -1.69282 0
M  V30 4149 N 387.262 0.0317525 -1.57568 0
M  V30 4150 C 388.508 0.724175 -1.8943 0
M  V30 4151 C 388.841 1.75149 -0.838836 0
M  V30 4152 O 388.116 1.93948 0.146422 0
M  V30 4153 C 388.399 1.39615 -3.31933 0
M  V30 4154 C 388.252 0.382537 -4.4817 0
M  V30 4155 C 389.571 2.33084 -3.73309 0
M  V30 4156 H 386.69 0.261797 -0.688935 0
M  V30 4157 H 389.332 -0.013017 -1.89996 0
M  V30 4158 H 387.482 2.02451 -3.31581 0
M  V30 4159 H 389.154 -0.243689 -4.60656 0
M  V30 4160 H 387.397 -0.29844 -4.32772 0
M  V30 4161 H 388.068 0.891145 -5.44759 0
M  V30 4162 H 390.544 1.80295 -3.7501 0
M  V30 4163 H 389.42 2.77084 -4.73831 0
M  V30 4164 H 389.681 3.19643 -3.05419 0
M  V30 4165 N 388.74 1.54641 0.303973 0
M  V30 4166 C 389.687 1.85386 1.37479 0
M  V30 4167 C 390.657 0.702528 1.50512 0
M  V30 4168 O 391.842 0.950867 1.65418 0
M  V30 4169 C 388.982 2.10413 2.73533 0
M  V30 4170 C 388.095 3.38049 2.68974 0
M  V30 4171 C 387.23 3.52934 3.97002 0
M  V30 4172 C 386.269 4.74373 3.86829 0
M  V30 4173 N 385.406 4.8608 5.06627 0
M  V30 4174 H 390.246 2.76732 1.1056 0
M  V30 4175 H 387.783 1.37034 0.534805 0
M  V30 4176 H 389.741 2.22919 3.52652 0
M  V30 4177 H 388.371 1.22338 2.98719 0
M  V30 4178 H 387.423 3.3418 1.81736 0
M  V30 4179 H 388.735 4.27288 2.57346 0
M  V30 4180 H 387.889 3.65088 4.84557 0
M  V30 4181 H 386.628 2.61824 4.1146 0
M  V30 4182 H 385.633 4.62255 2.97658 0
M  V30 4183 H 386.858 5.66888 3.73918 0
M  V30 4184 H 384.804 3.97891 5.21554 0
M  V30 4185 H 384.721 5.69315 4.9741 0
M  V30 4186 H 385.989 5.02587 5.95841 0
M  V30 4187 N 390.218 -0.567019 1.47046 0
M  V30 4188 C 391.634 -0.891975 1.32348 0
M  V30 4189 C 391.834 -1.99154 0.306616 0
M  V30 4190 O 390.89 -2.50883 -0.28532 0
M  V30 4191 C 392.203 -1.29449 2.7141 0
M  V30 4192 C 393.751 -1.40646 2.79621 0
M  V30 4193 C 394.226 -1.84257 4.19301 0
M  V30 4194 N 395.717 -1.91424 4.21795 0
M  V30 4195 C 396.452 -2.26476 5.26779 0
M  V30 4196 N 395.948 -2.60211 6.42077 0
M  V30 4197 N 397.741 -2.27166 5.14152 0
M  V30 4198 H 389.892 0.159074 2.11803 0
M  V30 4199 H 392.155 0.00849752 0.947962 0
M  V30 4200 H 391.861 -0.560448 3.47206 0
M  V30 4201 H 391.735 -2.25273 3.02542 0
M  V30 4202 H 394.122 -2.13133 2.04104 0
M  V30 4203 H 394.203 -0.430339 2.52154 0
M  V30 4204 H 393.847 -1.12343 4.95319 0
M  V30 4205 H 393.777 -2.82855 4.44185 0
M  V30 4206 H 396.268 -1.6778 3.38612 0
M  V30 4207 H 396.581 -2.85956 7.17948 0
M  V30 4208 H 394.926 -2.57813 6.45413 0
M  V30 4209 H 398.117 -2.00244 4.23107 0
M  V30 4210 H 398.29 -2.54154 5.96079 0
M  V30 4211 N 391.696 -1.35014 -0.812953 0
M  V30 4212 C 392.942 -1.2812 -1.57204 0
M  V30 4213 C 393.275 0.145869 -1.93651 0
M  V30 4214 O 392.55 1.0937 -1.60836 0
M  V30 4215 C 392.833 -2.18162 -2.86492 0
M  V30 4216 C 392.686 -3.69454 -2.56561 0
M  V30 4217 C 394.005 -2.07439 -3.88145 0
M  V30 4218 H 391.124 -0.466746 -0.570366 0
M  V30 4219 H 393.766 -1.65357 -0.935783 0
M  V30 4220 H 391.916 -1.86535 -3.40789 0
M  V30 4221 H 393.588 -4.11493 -2.08497 0
M  V30 4222 H 391.831 -3.9005 -1.89851 0
M  V30 4223 H 392.502 -4.27835 -3.48799 0
M  V30 4224 H 394.978 -2.35228 -3.4323 0
M  V30 4225 H 393.854 -2.7265 -4.76396 0
M  V30 4226 H 394.115 -1.05439 -4.29343 0
M  V30 4227 N 393.175 1.03435 -1.18907 0
M  V30 4228 C 394.403 1.80381 -1.01342 0
M  V30 4229 C 394.818 1.83649 0.438005 0
M  V30 4230 O 394.175 1.27655 1.30424 0
M  V30 4231 C 394.226 3.25689 -1.56873 0
M  V30 4232 O 393.947 3.22673 -2.96334 0
M  V30 4233 C 395.448 4.19255 -1.44014 0
M  V30 4234 H 392.668 0.56784 -0.35749 0
M  V30 4235 H 395.212 1.30317 -1.576 0
M  V30 4236 H 393.367 3.72962 -1.04777 0
M  V30 4237 H 393.781 4.13748 -3.22355 0
M  V30 4238 H 395.255 5.19123 -1.87657 0
M  V30 4239 H 395.732 4.37467 -0.389815 0
M  V30 4240 H 396.338 3.77851 -1.95214 0
M  V30 4241 N 394.653 0.992116 1.22453 0
M  V30 4242 C 395.585 0.500024 2.23679 0
M  V30 4243 C 396.598 -0.404463 1.57696 0
M  V30 4244 O 397.787 -0.206722 1.77299 0
M  V30 4245 C 394.887 -0.294711 3.37616 0
M  V30 4246 C 394.06 0.605723 4.33186 0
M  V30 4247 C 393.119 -0.13717 5.26021 0
M  V30 4248 O 392.145 0.477164 5.67196 0
M  V30 4249 N 393.347 -1.4197 5.62872 0
M  V30 4250 H 396.112 1.37045 2.66531 0
M  V30 4251 H 393.673 0.866741 1.36745 0
M  V30 4252 H 395.665 -0.800329 3.96707 0
M  V30 4253 H 394.235 -1.06623 2.93854 0
M  V30 4254 H 393.455 1.29202 3.72425 0
M  V30 4255 H 394.743 1.21896 4.93983 0
M  V30 4256 H 394.141 -1.94015 5.31389 0
M  V30 4257 H 392.698 -1.87052 6.24383 0
M  V30 4258 N 396.131 -1.37776 0.765217 0
M  V30 4259 C 397.408 -1.93975 0.251596 0
M  V30 4260 C 397.788 -1.69949 -1.25222 0
M  V30 4261 O 397.136 -1.04457 -2.03226 0
M  V30 4262 C 397.346 -3.43487 0.617895 0
M  V30 4263 C 398.694 -4.20564 0.584029 0
M  V30 4264 O 399.718 -3.5182 0.556888 0
M  V30 4265 O 398.577 -5.43138 0.605291 0
M  V30 4266 H 395.671 -0.82509 0.0561806 0
M  V30 4267 H 398.217 -1.47101 0.846128 0
M  V30 4268 H 396.989 -3.5453 1.65602 0
M  V30 4269 H 396.612 -3.976 -0.00403411 0
M  V30 4270 N 397.609 -0.515225 -1.4894 0
M  V30 4271 C 399.02 -0.0710067 -1.86565 0
M  V30 4272 C 399.371 1.34733 -1.42623 0
M  V30 4273 O 398.496 2.00653 -0.810379 0
M  V30 4274 C 399.091 -0.122083 -3.3858 0
M  V30 4275 C 397.65 0.266863 -3.75453 0
M  V30 4276 C 396.797 -0.488376 -2.72966 0
M  V30 4277 H 399.748 -0.727266 -1.41055 0
M  V30 4278 H 399.769 0.669818 -3.74558 0
M  V30 4279 H 399.281 -1.15448 -3.70531 0
M  V30 4280 H 397.382 1.30196 -3.49113 0
M  V30 4281 H 397.495 -0.0624811 -4.79059 0
M  V30 4282 H 395.859 0.0635622 -2.54621 0
M  V30 4283 H 396.642 -1.52113 -3.07761 0
M  V30 4284 N 399.087 1.5561 -0.249682 0
M  V30 4285 C 400.034 2.21496 0.648694 0
M  V30 4286 C 401.004 1.17977 1.16921 0
M  V30 4287 O 402.189 1.46434 1.22318 0
M  V30 4288 C 399.329 2.92039 1.83868 0
M  V30 4289 C 398.442 4.10219 1.35442 0
M  V30 4290 C 397.577 4.6847 2.50419 0
M  V30 4291 C 396.616 5.78893 1.98869 0
M  V30 4292 N 395.753 6.31315 3.07223 0
M  V30 4293 H 400.593 2.97892 0.0801582 0
M  V30 4294 H 398.13 1.47074 0.0278031 0
M  V30 4295 H 400.088 3.31138 2.53778 0
M  V30 4296 H 398.718 2.18111 2.37965 0
M  V30 4297 H 397.77 3.76413 0.54928 0
M  V30 4298 H 399.082 4.89927 0.936649 0
M  V30 4299 H 398.236 5.10158 3.28366 0
M  V30 4300 H 396.975 3.87984 2.95499 0
M  V30 4301 H 395.98 5.3668 1.19393 0
M  V30 4302 H 397.205 6.61232 1.54755 0
M  V30 4303 H 395.151 5.53733 3.51732 0
M  V30 4304 H 395.068 7.06224 2.69784 0
M  V30 4305 H 396.336 6.77662 3.8522 0
M  V30 4306 N 400.565 -0.0233959 1.57583 0
M  V30 4307 C 401.495 -1.02162 2.09965 0
M  V30 4308 C 402.476 -1.3735 1.00344 0
M  V30 4309 O 403.661 -1.46135 1.27899 0
M  V30 4310 C 400.791 -2.32081 2.58371 0
M  V30 4311 C 399.745 -2.1112 3.72307 0
M  V30 4312 C 399.071 -3.46848 4.06941 0
M  V30 4313 C 400.371 -1.49276 5.00514 0
M  V30 4314 H 402.065 -0.585557 2.93618 0
M  V30 4315 H 399.611 -0.280218 1.41247 0
M  V30 4316 H 401.564 -3.02249 2.93639 0
M  V30 4317 H 400.288 -2.77758 1.71808 0
M  V30 4318 H 398.947 -1.43384 3.37397 0
M  V30 4319 H 398.595 -3.90184 3.17436 0
M  V30 4320 H 398.295 -3.33646 4.83688 0
M  V30 4321 H 399.819 -4.18369 4.44747 0
M  V30 4322 H 401.233 -2.09368 5.33702 0
M  V30 4323 H 399.63 -1.46632 5.8191 0
M  V30 4324 H 400.7 -0.459217 4.82721 0
M  V30 4325 N 402.043 -1.548 -0.295768 0
M  V30 4326 C 402.975 -1.82492 -1.3867 0
M  V30 4327 C 403.988 -0.708134 -1.46592 0
M  V30 4328 O 405.177 -0.985686 -1.48817 0
M  V30 4329 C 402.277 -1.95256 -2.76999 0
M  V30 4330 C 401.45 -3.25709 -2.91946 0
M  V30 4331 C 400.509 -3.28824 -4.10806 0
M  V30 4332 O 399.535 -4.02328 -4.02643 0
M  V30 4333 N 400.737 -2.5459 -5.21694 0
M  V30 4334 H 403.502 -2.76646 -1.15269 0
M  V30 4335 H 401.063 -1.54438 -0.485849 0
M  V30 4336 H 403.055 -1.94736 -3.54768 0
M  V30 4337 H 401.625 -1.08072 -2.93324 0
M  V30 4338 H 400.845 -3.38959 -2.01247 0
M  V30 4339 H 402.133 -4.11786 -2.98847 0
M  V30 4340 H 401.531 -1.94512 -5.31208 0
M  V30 4341 H 400.088 -2.59818 -5.97778 0
M  V30 4342 N 403.521 0.559213 -1.47345 0
M  V30 4343 C 404.454 1.68201 -1.5422 0
M  V30 4344 C 405.432 1.57742 -0.394497 0
M  V30 4345 O 406.616 1.78628 -0.60201 0
M  V30 4346 C 403.743 3.0643 -1.44285 0
M  V30 4347 C 402.789 3.3534 -2.63532 0
M  V30 4348 S 403.622 3.24816 -4.25741 0
M  V30 4349 C 404.778 4.65542 -4.18355 0
M  V30 4350 H 405.011 1.62114 -2.49211 0
M  V30 4351 H 402.544 0.739871 -1.35519 0
M  V30 4352 H 404.502 3.86164 -1.3924 0
M  V30 4353 H 403.163 3.09984 -0.506816 0
M  V30 4354 H 402.356 4.36107 -2.52639 0
M  V30 4355 H 401.958 2.63221 -2.65689 0
M  V30 4356 H 404.25 5.56449 -3.86485 0
M  V30 4357 H 405.193 4.81493 -5.19202 0
M  V30 4358 H 405.601 4.43495 -3.49246 0
M  V30 4359 N 404.999 1.35443 0.805782 0
M  V30 4360 C 406.247 1.28507 1.55982 0
M  V30 4361 C 406.568 -0.140046 1.94496 0
M  V30 4362 O 405.838 -1.07666 1.63661 0
M  V30 4363 H 404.418 0.472676 0.578434 0
M  V30 4364 H 407.08 1.69555 0.961098 0
M  V30 4365 H 406.176 1.90148 2.47488 0
M  V30 4366 N 406.477 -1.02803 1.19454 0
M  V30 4367 C 407.424 -2.11099 0.933046 0
M  V30 4368 C 408.394 -1.65571 -0.132447 0
M  V30 4369 O 409.579 -1.90797 0.00987576 0
M  V30 4370 C 406.719 -3.41763 0.478747 0
M  V30 4371 C 405.832 -4.00833 1.6111 0
M  V30 4372 C 404.967 -5.19511 1.10825 0
M  V30 4373 C 404.006 -5.70639 2.21445 0
M  V30 4374 N 403.143 -6.80589 1.72461 0
M  V30 4375 H 407.983 -2.32804 1.86028 0
M  V30 4376 H 405.52 -1.14179 0.927441 0
M  V30 4377 H 407.478 -4.16736 0.196745 0
M  V30 4378 H 406.108 -3.20166 -0.411493 0
M  V30 4379 H 405.16 -3.23066 2.00829 0
M  V30 4380 H 406.472 -4.34794 2.4445 0
M  V30 4381 H 405.626 -6.01645 0.781533 0
M  V30 4382 H 404.365 -4.87086 0.244606 0
M  V30 4383 H 403.37 -4.87116 2.54947 0
M  V30 4384 H 404.595 -6.05102 3.08267 0
M  V30 4385 H 402.541 -6.50016 0.884056 0
M  V30 4386 H 402.458 -7.13681 2.49389 0
M  V30 4387 H 403.726 -7.66317 1.42755 0
M  V30 4388 N 407.956 -0.998596 -1.21925 0
M  V30 4389 C 408.903 -0.553621 -2.24062 0
M  V30 4390 C 409.873 0.416999 -1.6078 0
M  V30 4391 O 411.058 0.320482 -1.88089 0
M  V30 4392 C 408.198 0.119959 -3.44891 0
M  V30 4393 C 407.311 -0.893077 -4.22668 0
M  V30 4394 C 406.446 -0.192424 -5.30851 0
M  V30 4395 C 405.485 -1.19344 -6.00353 0
M  V30 4396 N 404.622 -0.520707 -7.00166 0
M  V30 4397 H 409.462 -1.4293 -2.61486 0
M  V30 4398 H 406.999 -0.715838 -1.28507 0
M  V30 4399 H 408.957 0.527459 -4.13852 0
M  V30 4400 H 407.587 0.959389 -3.08214 0
M  V30 4401 H 406.639 -1.41886 -3.52948 0
M  V30 4402 H 407.951 -1.65512 -4.70539 0
M  V30 4403 H 407.105 0.271515 -6.06092 0
M  V30 4404 H 405.844 0.602075 -4.83969 0
M  V30 4405 H 404.849 -1.66795 -5.23889 0
M  V30 4406 H 406.074 -1.98891 -6.49322 0
M  V30 4407 H 404.02 0.254252 -6.55507 0
M  V30 4408 H 403.937 -1.2211 -7.46073 0
M  V30 4409 H 405.205 -0.0797596 -7.79459 0
M  V30 4410 N 409.434 1.37368 -0.772513 0
M  V30 4411 C 410.364 2.32856 -0.173304 0
M  V30 4412 C 411.345 1.55818 0.682262 0
M  V30 4413 O 412.53 1.84052 0.619566 0
M  V30 4414 C 409.66 3.40048 0.706007 0
M  V30 4415 C 408.614 4.27973 -0.0483144 0
M  V30 4416 C 407.94 5.26184 0.950491 0
M  V30 4417 C 409.24 5.07665 -1.22776 0
M  V30 4418 H 410.934 2.83217 -0.971002 0
M  V30 4419 H 408.48 1.3617 -0.468377 0
M  V30 4420 H 410.433 4.05827 1.13501 0
M  V30 4421 H 409.157 2.88214 1.53623 0
M  V30 4422 H 407.816 3.63726 -0.458107 0
M  V30 4423 H 407.464 4.7063 1.77529 0
M  V30 4424 H 407.164 5.85872 0.450314 0
M  V30 4425 H 408.688 5.94838 1.37842 0
M  V30 4426 H 410.102 5.66578 -0.875366 0
M  V30 4427 H 408.499 5.76681 -1.66007 0
M  V30 4428 H 409.569 4.40294 -2.03149 0
M  V30 4429 N 410.912 0.523116 1.48665 0
M  V30 4430 C 412.323 0.0808997 1.86525 0
M  V30 4431 C 412.674 -1.33975 1.43336 0
M  V30 4432 O 411.799 -2.00221 0.821009 0
M  V30 4433 C 412.394 0.140037 3.3851 0
M  V30 4434 C 410.953 -0.246948 3.75589 0
M  V30 4435 C 410.1 0.502845 2.72703 0
M  V30 4436 H 413.051 0.734736 1.40667 0
M  V30 4437 H 413.072 -0.649945 3.74908 0
M  V30 4438 H 412.584 1.17412 3.69914 0
M  V30 4439 H 410.685 -1.28343 3.49798 0
M  V30 4440 H 410.798 0.0878859 4.79019 0
M  V30 4441 H 409.162 -0.0500581 2.54651 0
M  V30 4442 H 409.945 1.53743 3.0695 0
M  V30 4443 N 412.39 -1.55475 0.257931 0
M  V30 4444 C 413.32 -2.24815 -0.630912 0
M  V30 4445 C 414.301 -1.23224 -1.17259 0
M  V30 4446 O 415.486 -1.51904 -1.20991 0
M  V30 4447 C 412.616 -2.95609 -1.82298 0
M  V30 4448 C 411.57 -4.03982 -1.41359 0
M  V30 4449 C 410.896 -4.6226 -2.68738 0
M  V30 4450 C 412.196 -5.19109 -0.57648 0
M  V30 4451 H 413.89 -2.99354 -0.0526878 0
M  V30 4452 H 411.436 -1.4398 -0.023901 0
M  V30 4453 H 413.389 -3.42822 -2.45054 0
M  V30 4454 H 412.113 -2.18577 -2.42676 0
M  V30 4455 H 410.772 -3.57555 -0.809324 0
M  V30 4456 H 410.42 -3.81915 -3.27338 0
M  V30 4457 H 410.12 -5.35424 -2.42065 0
M  V30 4458 H 411.644 -5.12212 -3.32372 0
M  V30 4459 H 413.058 -5.62479 -1.10861 0
M  V30 4460 H 411.455 -5.98729 -0.405351 0
M  V30 4461 H 412.525 -4.83174 0.408776 0
M  V30 4462 N 413.868 0.0150385 -1.57593 0
M  V30 4463 C 414.818 1.01943 -2.0394 0
M  V30 4464 C 415.802 1.31209 -0.931286 0
M  V30 4465 O 416.994 1.30559 -1.19513 0
M  V30 4466 C 414.123 2.31621 -2.53391 0
M  V30 4467 C 413.209 2.05384 -3.7105 0
M  V30 4468 N 413.6 1.49253 -4.83278 0
M  V30 4469 C 411.898 2.35601 -3.78693 0
M  V30 4470 C 412.599 1.39143 -5.64813 0
M  V30 4471 N 411.575 1.87187 -5.10355 0
M  V30 4472 H 415.377 0.57969 -2.88126 0
M  V30 4473 H 412.891 0.221056 -1.60888 0
M  V30 4474 H 414.888 3.044 -2.84862 0
M  V30 4475 H 413.548 2.76261 -1.70616 0
M  V30 4476 H 414.559 1.17334 -5.04433 0
M  V30 4477 H 411.236 2.8322 -3.06746 0
M  V30 4478 H 412.626 0.961153 -6.6499 0
M  V30 4479 N 415.346 1.54954 0.287554 0
M  V30 4480 C 416.276 1.89839 1.35954 0
M  V30 4481 C 417.257 0.758675 1.52244 0
M  V30 4482 O 418.442 1.01557 1.65529 0
M  V30 4483 C 415.572 2.15753 2.72154 0
M  V30 4484 C 414.526 3.3159 2.70614 0
M  V30 4485 C 413.852 3.42952 4.10229 0
M  V30 4486 C 415.152 4.68359 2.31165 0
M  V30 4487 H 416.846 2.79625 1.07007 0
M  V30 4488 H 414.392 1.3454 0.513316 0
M  V30 4489 H 416.345 2.38743 3.47246 0
M  V30 4490 H 415.069 1.22752 3.02654 0
M  V30 4491 H 413.728 3.08545 1.97979 0
M  V30 4492 H 413.376 2.47443 4.37928 0
M  V30 4493 H 413.076 4.20826 4.10097 0
M  V30 4494 H 414.6 3.68218 4.87081 0
M  V30 4495 H 416.014 4.9099 2.95976 0
M  V30 4496 H 414.411 5.49044 2.42221 0
M  V30 4497 H 415.481 4.68165 1.26291 0
M  V30 4498 N 416.824 -0.551391 1.4764 0
M  V30 4499 C 418.052 -1.33357 1.58189 0
M  V30 4500 C 418.467 -1.87342 0.234199 0
M  V30 4501 O 417.824 -1.65301 -0.77343 0
M  V30 4502 C 417.875 -2.49942 2.61173 0
M  V30 4503 O 417.596 -1.98187 3.90709 0
M  V30 4504 C 419.097 -3.42072 2.8196 0
M  V30 4505 H 416.317 -0.40631 0.533998 0
M  V30 4506 H 418.861 -0.667367 1.93304 0
M  V30 4507 H 417.016 -3.12489 2.28975 0
M  V30 4508 H 417.43 -2.74342 4.47031 0
M  V30 4509 H 418.904 -4.20278 3.57869 0
M  V30 4510 H 419.381 -3.95978 1.89995 0
M  V30 4511 H 419.987 -2.85336 3.15378 0
M  V30 4512 N 418.302 -1.35869 -0.798587 0
M  V30 4513 C 419.232 -1.32118 -1.92528 0
M  V30 4514 C 420.213 -0.194209 -1.68988 0
M  V30 4515 O 421.398 -0.390426 -1.90235 0
M  V30 4516 C 418.528 -1.10047 -3.29404 0
M  V30 4517 C 417.482 -2.19471 -3.67446 0
M  V30 4518 C 416.808 -1.82555 -5.02571 0
M  V30 4519 C 418.108 -3.61495 -3.76987 0
M  V30 4520 H 419.802 -2.26394 -1.95924 0
M  V30 4521 H 417.348 -1.08981 -0.94123 0
M  V30 4522 H 419.301 -1.06061 -4.07835 0
M  V30 4523 H 418.025 -0.122195 -3.26371 0
M  V30 4524 H 416.684 -2.22568 -2.91306 0
M  V30 4525 H 416.332 -0.833249 -4.9605 0
M  V30 4526 H 416.032 -2.5581 -5.28995 0
M  V30 4527 H 417.556 -1.80108 -5.83432 0
M  V30 4528 H 418.97 -3.60676 -4.4563 0
M  V30 4529 H 417.367 -4.33577 -4.14887 0
M  V30 4530 H 418.437 -3.97065 -2.78329 0
M  V30 4531 N 419.78 1.02168 -1.19998 0
M  V30 4532 C 421.191 1.57135 -1.00825 0
M  V30 4533 C 421.542 1.91276 0.436818 0
M  V30 4534 O 420.667 1.71679 1.3174 0
M  V30 4535 C 421.262 2.85514 -1.82393 0
M  V30 4536 C 419.821 3.37027 -1.67601 0
M  V30 4537 C 418.968 2.10388 -1.80644 0
M  V30 4538 H 421.919 0.846106 -1.34264 0
M  V30 4539 H 421.94 3.56711 -1.32429 0
M  V30 4540 H 421.452 2.60634 -2.87561 0
M  V30 4541 H 419.553 3.66878 -0.650485 0
M  V30 4542 H 419.666 4.09572 -2.4857 0
M  V30 4543 H 418.03 2.22601 -1.23778 0
M  V30 4544 H 418.813 1.8794 -2.87286 0
M  V30 4545 N 421.258 1.00505 1.21394 0
M  V30 4546 C 422.19 0.52372 2.23136 0
M  V30 4547 C 423.203 -0.387714 1.58116 0
M  V30 4548 O 424.392 -0.187905 1.77508 0
M  V30 4549 C 421.492 -0.258885 3.3791 0
M  V30 4550 C 420.665 0.651634 4.32519 0
M  V30 4551 C 419.724 -0.0813705 5.26137 0
M  V30 4552 O 418.75 0.537295 5.66658 0
M  V30 4553 N 419.952 -1.35992 5.64346 0
M  V30 4554 H 422.717 1.39865 2.65062 0
M  V30 4555 H 420.278 0.881196 1.35818 0
M  V30 4556 H 422.27 -0.758208 3.97534 0
M  V30 4557 H 420.84 -1.035 2.94968 0
M  V30 4558 H 420.06 1.33145 3.71034 0
M  V30 4559 H 421.348 1.27129 4.92662 0
M  V30 4560 H 420.746 -1.88368 5.33417 0
M  V30 4561 H 419.303 -1.8042 6.26332 0
M  V30 4562 N 422.737 -1.36956 0.779787 0
M  V30 4563 C 423.7 -2.2851 0.177662 0
M  V30 4564 C 424.7 -1.48393 -0.619377 0
M  V30 4565 O 425.89 -1.68505 -0.441785 0
M  V30 4566 C 423.022 -3.32428 -0.755279 0
M  V30 4567 H 424.215 -2.83269 0.984823 0
M  V30 4568 H 421.768 -1.46358 0.548544 0
M  V30 4569 H 422.503 -2.82808 -1.58714 0
M  V30 4570 H 422.288 -3.91659 -0.185817 0
M  V30 4571 H 423.778 -4.00824 -1.17174 0
M  V30 4572 N 424.215 -0.530993 -1.48385 0
M  V30 4573 C 425.145 0.219985 -2.32461 0
M  V30 4574 C 426.126 0.934111 -1.42156 0
M  V30 4575 O 427.311 0.919694 -1.71042 0
M  V30 4576 C 424.441 1.26674 -3.23375 0
M  V30 4577 C 423.395 0.67069 -4.22712 0
M  V30 4578 C 422.721 1.82017 -5.02766 0
M  V30 4579 C 424.021 -0.358268 -5.2107 0
M  V30 4580 H 425.715 -0.48187 -2.95497 0
M  V30 4581 H 423.261 -0.233182 -1.42099 0
M  V30 4582 H 425.214 1.80006 -3.81019 0
M  V30 4583 H 423.938 1.99818 -2.58341 0
M  V30 4584 H 422.597 0.158878 -3.66256 0
M  V30 4585 H 422.245 2.54002 -4.34157 0
M  V30 4586 H 421.945 1.42727 -5.70003 0
M  V30 4587 H 423.469 2.35725 -5.63264 0
M  V30 4588 H 424.883 0.0880081 -5.73232 0
M  V30 4589 H 423.28 -0.66861 -5.96364 0
M  V30 4590 H 424.35 -1.26367 -4.68145 0
M  V30 4591 N 425.693 1.55336 -0.266172 0
M  V30 4592 C 427.104 1.85236 0.233315 0
M  V30 4593 C 427.455 1.18816 1.56132 0
M  V30 4594 O 426.58 0.473307 2.11161 0
M  V30 4595 C 427.175 3.36059 0.430113 0
M  V30 4596 C 425.734 3.66116 0.873842 0
M  V30 4597 C 424.881 2.77274 -0.0380016 0
M  V30 4598 H 427.832 1.51004 -0.488214 0
M  V30 4599 H 427.853 3.58681 1.26998 0
M  V30 4600 H 427.365 3.84373 -0.536588 0
M  V30 4601 H 425.466 3.23295 1.85233 0
M  V30 4602 H 425.579 4.73699 0.717358 0
M  V30 4603 H 423.943 2.50198 0.476759 0
M  V30 4604 H 424.726 3.284 -1.00042 0
M  V30 4605 N 427.171 -0.0066808 1.57599 0
M  V30 4606 C 428.103 -1.02827 2.04839 0
M  V30 4607 C 429.116 -1.31108 0.965113 0
M  V30 4608 O 430.305 -1.28202 1.24203 0
M  V30 4609 C 427.405 -2.36464 2.42771 0
M  V30 4610 C 426.578 -2.27219 3.73751 0
M  V30 4611 C 425.637 -3.43489 3.98625 0
M  V30 4612 O 424.663 -3.21976 4.69382 0
M  V30 4613 N 425.865 -4.66116 3.46 0
M  V30 4614 H 428.63 -0.625455 2.93101 0
M  V30 4615 H 426.191 -0.194198 1.60731 0
M  V30 4616 H 428.183 -3.13008 2.56531 0
M  V30 4617 H 426.753 -2.68512 1.60063 0
M  V30 4618 H 425.973 -1.35629 3.70133 0
M  V30 4619 H 427.261 -2.18208 4.59633 0
M  V30 4620 H 426.659 -4.86493 2.88688 0
M  V30 4621 H 425.216 -5.39949 3.65101 0
M  V30 4622 N 428.649 -1.55105 -0.279332 0
M  V30 4623 C 429.879 -1.7917 -1.02867 0
M  V30 4624 C 430.287 -0.56204 -1.80659 0
M  V30 4625 O 429.63 0.478266 -1.77365 0
M  V30 4626 C 429.692 -2.96061 -2.03932 0
M  V30 4627 C 429.356 -4.33341 -1.45137 0
M  V30 4628 C 430.353 -5.12565 -0.870266 0
M  V30 4629 C 428.038 -4.79987 -1.48048 0
M  V30 4630 C 430.032 -6.36565 -0.326097 0
M  V30 4631 C 427.719 -6.03944 -0.932443 0
M  V30 4632 C 428.717 -6.8207 -0.356247 0
M  V30 4633 O 428.405 -8.03691 0.183412 0
M  V30 4634 H 428.137 -0.600796 -0.309872 0
M  V30 4635 H 430.691 -2.02932 -0.317468 0
M  V30 4636 H 428.921 -2.67975 -2.78794 0
M  V30 4637 H 430.61 -3.07506 -2.64943 0
M  V30 4638 H 431.376 -4.77661 -0.840521 0
M  V30 4639 H 427.255 -4.1919 -1.91835 0
M  V30 4640 H 430.799 -6.97489 0.124286 0
M  V30 4641 H 426.696 -6.3833 -0.959407 0
M  V30 4642 H 427.464 -8.18468 0.0721681 0
M  V30 4643 N 430.127 0.543554 -1.4793 0
M  V30 4644 C 431.09 1.63156 -1.60975 0
M  V30 4645 C 432.09 1.53346 -0.483899 0
M  V30 4646 O 433.28 1.5726 -0.749339 0
M  V30 4647 C 430.412 3.02743 -1.56716 0
M  V30 4648 H 431.605 1.52934 -2.57975 0
M  V30 4649 H 429.158 0.764557 -1.36324 0
M  V30 4650 H 429.893 3.18484 -0.611418 0
M  V30 4651 H 429.678 3.11272 -2.38438 0
M  V30 4652 H 431.168 3.81871 -1.6901 0
M  V30 4653 N 431.605 1.3629 0.791371 0
M  V30 4654 C 432.853 1.30154 1.5461 0
M  V30 4655 C 433.174 -0.119409 1.94634 0
M  V30 4656 O 432.444 -1.05924 1.64794 0
M  V30 4657 H 431.024 0.478784 0.573389 0
M  V30 4658 H 433.686 1.70565 0.94306 0
M  V30 4659 H 432.782 1.92762 2.45457 0
M  V30 4660 N 433.083 -1.0153 1.20538 0
M  V30 4661 C 434.308 -1.79283 1.04271 0
M  V30 4662 C 434.733 -1.8372 -0.403544 0
M  V30 4663 O 434.091 -1.27321 -1.2907 0
M  V30 4664 C 434.139 -3.21535 1.63241 0
M  V30 4665 O 433.243 -4.03099 0.870908 0
M  V30 4666 H 432.584 -0.55293 0.367647 0
M  V30 4667 H 435.114 -1.27696 1.59859 0
M  V30 4668 H 435.124 -3.72243 1.6703 0
M  V30 4669 H 433.799 -3.1762 2.68497 0
M  V30 4670 H 432.376 -3.61693 0.907323 0
M  V30 4671 N 434.561 -1.01147 -1.20859 0
M  V30 4672 C 435.809 -0.696486 -1.89719 0
M  V30 4673 C 436.13 0.775788 -1.78904 0
M  V30 4674 O 435.4 1.55759 -1.18811 0
M  V30 4675 H 433.98 -0.254628 -0.702263 0
M  V30 4676 H 436.642 -1.28197 -1.46804 0
M  V30 4677 H 435.738 -0.975357 -2.96468 0
M  V30 4678 N 436.039 1.36541 -0.78704 0
M  V30 4679 C 436.987 2.31965 -0.171724 0
M  V30 4680 C 437.981 1.55689 0.667631 0
M  V30 4681 O 439.187 1.70969 0.562981 0
M  V30 4682 H 435.562 0.751101 -0.0367545 0
M  V30 4683 H 437.533 2.81428 -0.992017 0
M  V30 4684 C 436.282 3.40968 0.680904 0
M  V30 4685 H 435.605 3.99775 0.0443961 0
M  V30 4686 H 437.045 4.10063 1.07815 0
M  V30 4687 C 435.504 2.82338 1.83813 0
M  V30 4688 O 436.034 2.74311 2.93456 0
M  V30 4689 N 434.24 2.39661 1.6435 0
M  V30 4690 H 433.787 2.46389 0.751668 0
M  V30 4691 H 433.745 2.00779 2.4194 0
M  V30 4692 N 437.518 0.538854 1.48102 0
M  V30 4693 C 438.448 -0.207654 2.32575 0
M  V30 4694 C 439.429 -0.926559 1.4265 0
M  V30 4695 O 440.614 -0.91061 1.71527 0
M  V30 4696 C 437.744 -1.24957 3.24042 0
M  V30 4697 C 436.698 -0.648263 4.23062 0
M  V30 4698 C 436.024 -1.79348 5.03725 0
M  V30 4699 C 437.324 0.385897 5.20872 0
M  V30 4700 H 439.018 0.497534 2.95237 0
M  V30 4701 H 436.564 0.240715 1.41974 0
M  V30 4702 H 438.517 -1.77983 3.81969 0
M  V30 4703 H 437.241 -1.98446 2.59397 0
M  V30 4704 H 435.9 -0.139452 3.66335 0
M  V30 4705 H 435.548 -2.51696 4.35498 0
M  V30 4706 H 435.248 -1.39702 5.70751 0
M  V30 4707 H 436.772 -2.32735 5.64506 0
M  V30 4708 H 438.186 -0.057607 5.73271 0
M  V30 4709 H 436.583 0.700227 5.96001 0
M  V30 4710 H 437.653 1.28848 4.67468 0
M  V30 4711 N 438.996 -1.55193 0.274407 0
M  V30 4712 C 440.224 -2.03987 -0.345943 0
M  V30 4713 C 440.639 -1.15279 -1.4952 0
M  V30 4714 O 439.996 -0.172759 -1.8168 0
M  V30 4715 C 440.047 -3.51898 -0.827631 0
M  V30 4716 O 439.768 -4.37231 0.275855 0
M  V30 4717 C 441.269 -4.16577 -1.51587 0
M  V30 4718 H 438.489 -0.666335 -0.0789892 0
M  V30 4719 H 441.033 -2.00423 0.406294 0
M  V30 4720 H 439.188 -3.55909 -1.52996 0
M  V30 4721 H 439.602 -5.24415 -0.0943638 0
M  V30 4722 H 441.076 -5.21678 -1.80433 0
M  V30 4723 H 441.553 -3.64707 -2.44716 0
M  V30 4724 H 442.159 -4.16568 -0.857409 0
M  V30 4725 N 440.474 -0.00167713 -1.576 0
M  V30 4726 C 441.404 0.988091 -2.11563 0
M  V30 4727 C 442.385 1.35736 -1.02517 0
M  V30 4728 O 443.57 1.44082 -1.30208 0
M  V30 4729 C 440.7 2.27941 -2.62031 0
M  V30 4730 C 439.654 2.0517 -3.75619 0
M  V30 4731 C 438.98 3.4033 -4.12407 0
M  V30 4732 C 440.28 1.41294 -5.02825 0
M  V30 4733 H 441.974 0.538771 -2.94513 0
M  V30 4734 H 439.52 0.257712 -1.41675 0
M  V30 4735 H 441.473 2.97539 -2.9841 0
M  V30 4736 H 440.197 2.74989 -1.76205 0
M  V30 4737 H 438.856 1.37998 -3.39635 0
M  V30 4738 H 438.504 3.85085 -3.23603 0
M  V30 4739 H 438.204 3.25909 -4.88935 0
M  V30 4740 H 439.728 4.1124 -4.51347 0
M  V30 4741 H 441.142 2.00851 -5.36965 0
M  V30 4742 H 439.539 1.37356 -5.84169 0
M  V30 4743 H 440.609 0.382362 -4.8339 0
M  V30 4744 N 441.952 1.55251 0.271103 0
M  V30 4745 C 442.915 1.87484 1.31842 0
M  V30 4746 C 443.915 0.749545 1.42262 0
M  V30 4747 O 445.105 1.01771 1.4138 0
M  V30 4748 C 442.237 2.0818 2.69951 0
M  V30 4749 H 443.43 2.81108 1.0449 0
M  V30 4750 H 440.983 1.47771 0.509258 0
M  V30 4751 H 441.718 1.16944 3.02481 0
M  V30 4752 H 441.503 2.90114 2.63774 0
M  V30 4753 H 442.993 2.34385 3.4562 0
M  V30 4754 N 443.43 -0.535701 1.48216 0
M  V30 4755 C 444.36 -1.65014 1.65204 0
M  V30 4756 C 445.341 -1.62554 0.501011 0
M  V30 4757 O 446.526 -1.7984 0.732886 0
M  V30 4758 C 443.656 -3.03616 1.68626 0
M  V30 4759 C 442.61 -3.20932 2.83172 0
M  V30 4760 C 441.936 -4.60537 2.71679 0
M  V30 4761 C 443.236 -3.04249 4.24535 0
M  V30 4762 H 444.93 -1.51053 2.58502 0
M  V30 4763 H 442.476 -0.725262 1.24402 0
M  V30 4764 H 444.429 -3.81446 1.79099 0
M  V30 4765 H 443.153 -3.18587 0.719026 0
M  V30 4766 H 441.812 -2.45517 2.72244 0
M  V30 4767 H 441.46 -4.72336 1.72937 0
M  V30 4768 H 441.16 -4.73069 3.48538 0
M  V30 4769 H 442.684 -5.40475 2.84112 0
M  V30 4770 H 444.098 -3.71877 4.36326 0
M  V30 4771 H 442.495 -3.28278 5.02348 0
M  V30 4772 H 443.565 -2.00739 4.41397 0
M  V30 4773 N 444.908 -1.36708 -0.784132 0
M  V30 4774 C 445.818 -1.3363 -1.92822 0
M  V30 4775 C 446.834 -0.237686 -1.72369 0
M  V30 4776 O 448.01 -0.470962 -1.95816 0
M  V30 4777 C 445.075 -1.13011 -3.27764 0
M  V30 4778 C 444.136 -2.32397 -3.60957 0
M  V30 4779 C 443.369 -2.12752 -4.89461 0
M  V30 4780 O 443.592 -1.10541 -5.59586 0
M  V30 4781 O 442.526 -3.00653 -5.21432 0
M  V30 4782 H 446.352 -2.29964 -1.98369 0
M  V30 4783 H 443.937 -1.1731 -0.925136 0
M  V30 4784 H 445.819 -1.03451 -4.08504 0
M  V30 4785 H 444.494 -0.19743 -3.23097 0
M  V30 4786 H 443.401 -2.47527 -2.80502 0
M  V30 4787 H 444.734 -3.2419 -3.70354 0
M  V30 4788 N 446.386 1.0089 -1.21074 0
M  V30 4789 C 447.349 2.0775 -0.968129 0
M  V30 4790 C 448.349 1.6069 0.0593445 0
M  V30 4791 O 449.539 1.73293 -0.177525 0
M  V30 4792 C 446.671 3.37794 -0.459108 0
M  V30 4793 H 447.864 2.30707 -1.9161 0
M  V30 4794 H 445.417 1.17807 -1.02719 0
M  V30 4795 H 446.152 3.20516 0.49397 0
M  V30 4796 H 445.937 3.7328 -1.20019 0
M  V30 4797 H 447.427 4.16454 -0.309099 0
M  V30 4798 N 447.864 1.01787 1.20321 0
M  V30 4799 C 448.811 0.589197 2.23153 0
M  V30 4800 C 449.781 -0.391367 1.61423 0
M  V30 4801 O 450.966 -0.290518 1.88575 0
M  V30 4802 C 448.106 -0.0650747 3.45039 0
M  V30 4803 C 447.219 0.960207 4.21194 0
M  V30 4804 C 446.354 0.276854 5.30478 0
M  V30 4805 C 445.393 1.2888 5.98378 0
M  V30 4806 N 444.53 0.632031 6.99249 0
M  V30 4807 H 449.37 1.47071 2.59179 0
M  V30 4808 H 446.907 0.736192 1.27352 0
M  V30 4809 H 448.865 -0.461552 4.14639 0
M  V30 4810 H 447.495 -0.910233 3.09701 0
M  V30 4811 H 446.547 1.47484 3.50646 0
M  V30 4812 H 447.859 1.72977 4.67847 0
M  V30 4813 H 447.013 -0.175056 6.06447 0
M  V30 4814 H 445.752 -0.525004 4.84866 0
M  V30 4815 H 444.757 1.75109 5.21169 0
M  V30 4816 H 445.982 2.09196 6.46076 0
M  V30 4817 H 443.928 -0.149935 6.55829 0
M  V30 4818 H 443.845 1.33964 7.44036 0
M  V30 4819 H 445.113 0.203755 7.79234 0
M  V30 4820 N 449.342 -1.36122 0.79427 0
M  V30 4821 C 450.57 -2.03362 0.380989 0
M  V30 4822 C 450.985 -1.59881 -1.00416 0
M  V30 4823 O 450.342 -0.790515 -1.6449 0
M  V30 4824 C 450.393 -3.58804 0.440649 0
M  V30 4825 O 450.114 -4.007 1.77118 0
M  V30 4826 C 451.615 -4.43296 0.0186117 0
M  V30 4827 H 448.835 -0.652526 0.156367 0
M  V30 4828 H 451.379 -1.73998 1.07447 0
M  V30 4829 H 449.534 -3.8686 -0.204458 0
M  V30 4830 H 449.948 -4.95309 1.72538 0
M  V30 4831 H 451.422 -5.51887 0.111488 0
M  V30 4832 H 451.899 -4.2684 -1.03461 0
M  V30 4833 H 452.505 -4.20512 0.636395 0
M  V30 4834 N 450.82 -0.546701 -1.47814 0
M  V30 4835 C 452.068 -0.0187037 -2.02091 0
M  V30 4836 C 452.389 1.33168 -1.42447 0
M  V30 4837 O 451.659 1.86619 -0.595839 0
M  V30 4838 H 450.239 -0.00392531 -0.74699 0
M  V30 4839 H 452.901 -0.714327 -1.81338 0
M  V30 4840 H 451.997 0.0772219 -3.12004 0
M  V30 4841 N 452.299 1.55045 -0.282633 0
M  V30 4842 C 453.246 2.22822 0.601566 0
M  V30 4843 C 454.216 1.20431 1.14392 0
M  V30 4844 O 455.401 1.48996 1.19184 0
M  V30 4845 C 452.541 2.95873 1.77632 0
M  V30 4846 C 451.654 4.12999 1.26711 0
M  V30 4847 C 450.789 4.73676 2.40426 0
M  V30 4848 C 449.828 5.82981 1.86545 0
M  V30 4849 N 448.965 6.3769 2.93762 0
M  V30 4850 H 453.805 2.97995 0.0169528 0
M  V30 4851 H 451.342 1.471 -0.00339964 0
M  V30 4852 H 453.3 3.36447 2.46697 0
M  V30 4853 H 451.93 2.2311 2.33285 0
M  V30 4854 H 450.982 3.77494 0.469314 0
M  V30 4855 H 452.294 4.91803 0.832518 0
M  V30 4856 H 451.448 5.17008 3.17471 0
M  V30 4857 H 450.187 3.94164 2.87203 0
M  V30 4858 H 449.192 5.39092 1.07983 0
M  V30 4859 H 450.417 6.64366 1.40694 0
M  V30 4860 H 448.363 5.61069 3.39908 0
M  V30 4861 H 448.28 7.11788 2.54744 0
M  V30 4862 H 449.548 6.8568 3.7076 0
M  V30 4863 N 453.777 0.010035 1.57597 0
M  V30 4864 C 454.707 -0.976857 2.12084 0
M  V30 4865 C 455.688 -1.35191 1.03235 0
M  V30 4866 O 456.873 -1.43389 1.3097 0
M  V30 4867 C 454.003 -2.26548 2.63236 0
M  V30 4868 C 452.957 -2.03175 3.76701 0
M  V30 4869 C 452.283 -3.38138 4.14206 0
M  V30 4870 C 453.583 -1.38625 5.03568 0
M  V30 4871 H 455.277 -0.523145 2.94794 0
M  V30 4872 H 452.823 -0.250195 1.4181 0
M  V30 4873 H 454.776 -2.95952 2.99984 0
M  V30 4874 H 453.5 -2.74051 1.77661 0
M  V30 4875 H 452.159 -1.36195 3.40362 0
M  V30 4876 H 451.807 -3.83363 3.25641 0
M  V30 4877 H 451.507 -3.23312 4.90656 0
M  V30 4878 H 453.031 -4.08841 4.53521 0
M  V30 4879 H 454.445 -1.98 5.38023 0
M  V30 4880 H 452.842 -1.34256 5.84889 0
M  V30 4881 H 453.912 -0.356722 4.83586 0
M  V30 4882 N 455.255 -1.55392 -0.262866 0
M  V30 4883 C 456.205 -1.85355 -1.32768 0
M  V30 4884 C 457.189 -0.713188 -1.44231 0
M  V30 4885 O 458.381 -0.974765 -1.47741 0
M  V30 4886 C 455.51 -2.13781 -2.68612 0
M  V30 4887 C 454.596 -3.34104 -2.61219 0
M  V30 4888 N 454.987 -4.53766 -2.2345 0
M  V30 4889 C 453.285 -3.36895 -2.92263 0
M  V30 4890 C 453.986 -5.35877 -2.26298 0
M  V30 4891 N 452.962 -4.74536 -2.65172 0
M  V30 4892 H 456.764 -2.75413 -1.02591 0
M  V30 4893 H 454.278 -1.55405 -0.471503 0
M  V30 4894 H 456.275 -2.33407 -3.45437 0
M  V30 4895 H 454.935 -1.25013 -2.99669 0
M  V30 4896 H 455.946 -4.79682 -1.95258 0
M  V30 4897 H 452.623 -2.58351 -3.27965 0
M  V30 4898 H 454.013 -6.41577 -1.99572 0
M  V30 4899 N 456.733 0.527833 -1.48498 0
M  V30 4900 C 457.665 1.6482 -1.5927 0
M  V30 4901 C 458.678 1.55659 -0.476869 0
M  V30 4902 O 459.867 1.62081 -0.747806 0
M  V30 4903 C 456.967 3.0348 -1.50842 0
M  V30 4904 C 456.14 3.381 -2.77502 0
M  V30 4905 C 455.199 4.5605 -2.62497 0
M  V30 4906 O 454.225 4.59165 -3.36387 0
M  V30 4907 N 455.427 5.54353 -1.72257 0
M  V30 4908 H 458.192 1.56015 -2.55889 0
M  V30 4909 H 455.753 0.715152 -1.45249 0
M  V30 4910 H 457.745 3.80264 -1.38496 0
M  V30 4911 H 456.315 3.06352 -0.621887 0
M  V30 4912 H 455.535 2.50473 -3.04396 0
M  V30 4913 H 456.823 3.58017 -3.61527 0
M  V30 4914 H 456.221 5.54617 -1.11431 0
M  V30 4915 H 454.778 6.30347 -1.65849 0
M  V30 4916 N 458.211 1.37122 0.776871 0
M  V30 4917 C 459.121 1.34651 1.9211 0
M  V30 4918 C 460.137 0.246824 1.7224 0
M  V30 4919 O 461.313 0.48134 1.95563 0
M  V30 4920 C 458.378 1.14748 3.2716 0
M  V30 4921 C 457.439 2.34308 3.5972 0
M  V30 4922 C 456.672 2.15345 4.88326 0
M  V30 4923 O 456.895 1.13507 5.58992 0
M  V30 4924 O 455.829 3.03414 5.1983 0
M  V30 4925 H 459.655 2.31013 1.97146 0
M  V30 4926 H 457.24 1.17799 0.918901 0
M  V30 4927 H 459.122 1.05616 4.0795 0
M  V30 4928 H 457.797 0.214562 3.22988 0
M  V30 4929 H 456.704 2.49011 2.79185 0
M  V30 4930 H 458.037 3.26149 3.68629 0
M  V30 4931 N 459.689 -1.00246 1.21608 0
M  V30 4932 C 460.935 -1.74319 1.03638 0
M  V30 4933 C 461.268 -1.89408 -0.428749 0
M  V30 4934 O 460.543 -1.43026 -1.3181 0
M  V30 4935 C 460.826 -3.15431 1.73711 0
M  V30 4936 C 460.679 -3.08049 3.27759 0
M  V30 4937 C 461.998 -4.14407 1.48173 0
M  V30 4938 H 459.117 -0.632741 0.377899 0
M  V30 4939 H 461.759 -1.16853 1.49818 0
M  V30 4940 H 459.909 -3.64493 1.34452 0
M  V30 4941 H 461.581 -2.66681 3.76403 0
M  V30 4942 H 459.824 -2.45088 3.57931 0
M  V30 4943 H 460.495 -4.07862 3.71958 0
M  V30 4944 H 462.971 -3.74061 1.82258 0
M  V30 4945 H 461.847 -5.11279 1.99713 0
M  V30 4946 H 462.108 -4.40174 0.412273 0
M  V30 4947 N 461.167 -1.02423 -1.1978 0
M  V30 4948 C 462.115 -0.594474 -2.24875 0
M  V30 4949 C 463.109 0.370598 -1.65296 0
M  V30 4950 O 464.315 0.239684 -1.78397 0
M  V30 4951 H 460.69 -0.173961 -0.731602 0
M  V30 4952 H 462.661 -1.4916 -2.58445 0
M  V30 4953 C 461.41 0.0436512 -3.47673 0
M  V30 4954 H 460.733 -0.689963 -3.93801 0
M  V30 4955 H 462.173 0.307362 -4.22884 0
M  V30 4956 C 460.632 1.28881 -3.11274 0
M  V30 4957 O 461.162 2.38135 -3.23503 0
M  V30 4958 N 459.368 1.1758 -2.6575 0
M  V30 4959 H 458.915 0.286769 -2.55999 0
M  V30 4960 H 458.873 2.00988 -2.41767 0
M  V30 4961 N 462.645 1.35699 -0.801477 0
M  V30 4962 C 463.575 2.32436 -0.222658 0
M  V30 4963 C 464.556 1.5723 0.649057 0
M  V30 4964 O 465.741 1.85324 0.580387 0
M  V30 4965 C 462.871 3.41469 0.633719 0
M  V30 4966 C 461.825 4.27774 -0.139083 0
M  V30 4967 C 461.151 5.28082 0.838666 0
M  V30 4968 C 462.451 5.04946 -1.33517 0
M  V30 4969 H 464.145 2.81094 -1.03086 0
M  V30 4970 H 461.691 1.35146 -0.497155 0
M  V30 4971 H 463.644 4.08143 1.04868 0
M  V30 4972 H 462.368 2.91408 1.47475 0
M  V30 4973 H 461.027 3.62673 -0.535156 0
M  V30 4974 H 460.675 4.7429 1.67506 0
M  V30 4975 H 460.375 5.86695 0.32594 0
M  V30 4976 H 461.899 5.97628 1.25194 0
M  V30 4977 H 463.313 5.64593 -0.995349 0
M  V30 4978 H 461.71 5.7303 -1.78202 0
M  V30 4979 H 462.78 4.35886 -2.12442 0
M  V30 4980 N 464.123 0.554532 1.47522 0
M  V30 4981 C 465.369 0.0295227 2.02779 0
M  V30 4982 C 465.702 -1.31582 1.42828 0
M  V30 4983 O 464.977 -1.85561 0.582872 0
M  V30 4984 C 465.26 -0.0664057 3.60039 0
M  V30 4985 C 465.113 1.30585 4.30427 0
M  V30 4986 C 466.432 -0.781162 4.33112 0
M  V30 4987 H 463.551 0.0122027 0.736899 0
M  V30 4988 H 466.193 0.716305 1.7598 0
M  V30 4989 H 464.343 -0.651307 3.83002 0
M  V30 4990 H 466.015 1.93374 4.18813 0
M  V30 4991 H 464.258 1.88125 3.90886 0
M  V30 4992 H 464.929 1.19147 5.38988 0
M  V30 4993 H 467.405 -0.284565 4.15126 0
M  V30 4994 H 466.281 -0.817237 5.42782 0
M  V30 4995 H 466.542 -1.83672 4.0214 0
M  V30 4996 N 465.601 -1.54893 0.290851 0
M  V30 4997 C 466.847 -2.0023 -0.321867 0
M  V30 4998 C 467.18 -1.179 -1.54316 0
M  V30 4999 O 466.455 -0.25293 -1.92848 0
M  V30 5000 C 466.738 -3.53456 -0.688515 0
M  V30 5001 C 466.591 -4.46532 0.541209 0
M  V30 5002 C 467.91 -4.13057 -1.51895 0
M  V30 5003 H 465.029 -0.727891 -0.115515 0
M  V30 5004 H 467.671 -1.85722 0.400931 0
M  V30 5005 H 465.821 -3.6595 -1.30433 0
M  V30 5006 H 467.493 -4.4596 1.17973 0
M  V30 5007 H 465.736 -4.17545 1.17636 0
M  V30 5008 H 466.407 -5.51475 0.240675 0
M  V30 5009 H 468.883 -4.03937 -0.99872 0
M  V30 5010 H 467.759 -5.20448 -1.74429 0
M  V30 5011 H 468.02 -3.64284 -2.50498 0
M  V30 5012 N 467.08 -0.0183926 -1.57589 0
M  V30 5013 C 468.013 1.00148 -2.0505 0
M  V30 5014 C 468.991 1.32387 -0.944058 0
M  V30 5015 O 470.175 1.44237 -1.21358 0
M  V30 5016 C 467.302 2.32435 -2.46357 0
M  V30 5017 C 466.348 2.15731 -3.67916 0
M  V30 5018 S 467.181 1.46613 -5.15039 0
M  V30 5019 C 468.337 2.80293 -5.59631 0
M  V30 5020 H 468.57 0.597429 -2.91235 0
M  V30 5021 H 466.103 0.193002 -1.53189 0
M  V30 5022 H 468.061 3.0849 -2.70822 0
M  V30 5023 H 466.722 2.69975 -1.60537 0
M  V30 5024 H 465.915 3.13502 -3.9463 0
M  V30 5025 H 465.517 1.4782 -3.43548 0
M  V30 5026 H 467.809 3.76557 -5.63215 0
M  V30 5027 H 468.752 2.58256 -6.59325 0
M  V30 5028 H 469.16 2.85047 -4.87246 0
M  V30 5029 N 468.558 1.5553 0.254621 0
M  V30 5030 C 469.974 1.4778 0.602753 0
M  V30 5031 C 470.174 0.707047 1.88688 0
M  V30 5032 O 469.23 0.233288 2.5142 0
M  V30 5033 C 470.543 2.92133 0.712648 0
M  V30 5034 C 472.091 3.02458 0.805488 0
M  V30 5035 C 472.566 4.48102 0.947009 0
M  V30 5036 N 474.057 4.52008 1.01207 0
M  V30 5037 C 474.792 5.61939 1.1407 0
M  V30 5038 N 474.288 6.81697 1.23536 0
M  V30 5039 N 476.081 5.49719 1.17325 0
M  V30 5040 H 468.232 2.04085 -0.588463 0
M  V30 5041 H 470.495 0.926229 -0.202001 0
M  V30 5042 H 470.201 3.51332 -0.160766 0
M  V30 5043 H 470.075 3.42187 1.58707 0
M  V30 5044 H 472.462 2.43344 1.66936 0
M  V30 5045 H 472.543 2.55627 -0.0939266 0
M  V30 5046 H 472.187 5.07824 0.087725 0
M  V30 5047 H 472.117 4.92607 1.86135 0
M  V30 5048 H 474.608 3.65749 0.950577 0
M  V30 5049 H 474.921 7.61228 1.33236 0
M  V30 5050 H 473.266 6.84473 1.20508 0
M  V30 5051 H 476.457 4.55095 1.09573 0
M  V30 5052 H 476.63 6.35432 1.27005 0
M  V30 5053 N 470.036 -0.519951 1.48776 0
M  V30 5054 C 470.999 -1.60574 1.6355 0
M  V30 5055 C 471.999 -1.52557 0.508234 0
M  V30 5056 O 473.189 -1.56047 0.774262 0
M  V30 5057 C 470.321 -3.00211 1.61512 0
M  V30 5058 H 471.514 -1.4881 2.60376 0
M  V30 5059 H 469.067 -0.742772 1.37523 0
M  V30 5060 H 469.802 -3.17471 0.662009 0
M  V30 5061 H 469.587 -3.07439 2.43359 0
M  V30 5062 H 471.077 -3.79134 1.75064 0
M  V30 5063 N 471.514 -1.37532 -0.769588 0
M  V30 5064 C 472.742 -1.36059 -1.55871 0
M  V30 5065 C 473.157 0.053544 -1.88724 0
M  V30 5066 O 472.514 1.01591 -1.5161 0
M  V30 5067 C 472.565 -2.20107 -2.86767 0
M  V30 5068 O 472.286 -3.56009 -2.55321 0
M  V30 5069 C 473.787 -2.26636 -3.80987 0
M  V30 5070 H 471.007 -0.465967 -0.482821 0
M  V30 5071 H 473.551 -1.80901 -0.953686 0
M  V30 5072 H 471.706 -1.78768 -3.43687 0
M  V30 5073 H 472.12 -4.0009 -3.39158 0
M  V30 5074 H 473.594 -2.89763 -4.69831 0
M  V30 5075 H 474.071 -1.2754 -4.20274 0
M  V30 5076 H 474.677 -2.68296 -3.29996 0
M  V30 5077 N 472.992 0.995999 -1.22138 0
M  V30 5078 C 473.924 2.08745 -0.946485 0
M  V30 5079 C 474.937 1.62633 0.0737356 0
M  V30 5080 O 476.126 1.77782 -0.159886 0
M  V30 5081 C 473.226 3.36516 -0.401305 0
M  V30 5082 C 472.399 4.11672 -1.47801 0
M  V30 5083 C 471.458 5.17728 -0.940461 0
M  V30 5084 O 470.484 5.45482 -1.62596 0
M  V30 5085 N 471.686 5.80005 0.239723 0
M  V30 5086 H 474.451 2.32908 -1.88611 0
M  V30 5087 H 472.012 1.16152 -1.12785 0
M  V30 5088 H 474.004 4.04691 -0.0270837 0
M  V30 5089 H 472.574 3.0944 0.443354 0
M  V30 5090 H 471.794 3.38171 -2.02568 0
M  V30 5091 H 473.082 4.58657 -2.20253 0
M  V30 5092 H 472.48 5.5982 0.813518 0
M  V30 5093 H 471.037 6.4943 0.555361 0
M  V30 5094 N 474.47 1.03057 1.19235 0
M  V30 5095 C 475.4 0.633497 2.24742 0
M  V30 5096 C 476.381 -0.358335 1.66283 0
M  V30 5097 O 477.566 -0.240676 1.92703 0
M  V30 5098 C 474.696 -0.0147648 3.47297 0
M  V30 5099 C 473.65 0.899527 4.18441 0
M  V30 5100 C 472.976 0.116281 5.34574 0
M  V30 5101 C 474.276 2.21404 4.73051 0
M  V30 5102 H 475.97 1.5155 2.58211 0
M  V30 5103 H 473.516 0.73014 1.24117 0
M  V30 5104 H 475.469 -0.304202 4.20301 0
M  V30 5105 H 474.193 -0.931577 3.13032 0
M  V30 5106 H 472.852 1.17319 3.47321 0
M  V30 5107 H 472.5 -0.802619 4.96555 0
M  V30 5108 H 472.2 0.725293 5.83107 0
M  V30 5109 H 473.724 -0.166376 6.10373 0
M  V30 5110 H 475.138 1.98601 5.37802 0
M  V30 5111 H 473.535 2.77512 5.32078 0
M  V30 5112 H 474.605 2.86752 3.91026 0
M  V30 5113 N 475.948 -1.35272 0.808662 0
M  V30 5114 C 476.88 -2.28507 0.178149 0
M  V30 5115 C 477.893 -1.50377 -0.623754 0
M  V30 5116 O 479.082 -1.72583 -0.455774 0
M  V30 5117 C 476.182 -3.30038 -0.769959 0
M  V30 5118 C 475.355 -4.37398 -0.0139749 0
M  V30 5119 C 474.414 -5.18775 -0.880875 0
M  V30 5120 O 473.44 -5.68236 -0.331059 0
M  V30 5121 N 474.642 -5.37087 -2.20267 0
M  V30 5122 H 477.407 -2.83255 0.979106 0
M  V30 5123 H 474.968 -1.47643 0.664308 0
M  V30 5124 H 476.96 -3.81371 -1.35418 0
M  V30 5125 H 475.53 -2.75789 -1.47171 0
M  V30 5126 H 474.75 -3.86971 0.751468 0
M  V30 5127 H 476.038 -5.06268 0.506965 0
M  V30 5128 H 475.436 -4.9855 -2.67328 0
M  V30 5129 H 473.993 -5.91593 -2.73608 0
M  V30 5130 N 477.426 -0.562348 -1.47226 0
M  V30 5131 C 478.373 0.182461 -2.30078 0
M  V30 5132 C 479.343 0.903503 -1.39377 0
M  V30 5133 O 480.528 0.898188 -1.68337 0
M  V30 5134 C 477.668 1.20322 -3.23445 0
M  V30 5135 C 476.781 0.487717 -4.29238 0
M  V30 5136 C 475.916 1.49422 -5.09752 0
M  V30 5137 C 474.955 0.763976 -6.07314 0
M  V30 5138 N 474.092 1.71755 -6.80768 0
M  V30 5139 H 478.932 -0.530169 -2.93246 0
M  V30 5140 H 476.469 -0.273276 -1.44539 0
M  V30 5141 H 478.427 1.80768 -3.76004 0
M  V30 5142 H 477.057 1.88382 -2.6213 0
M  V30 5143 H 476.109 -0.231374 -3.79696 0
M  V30 5144 H 477.421 -0.0841003 -4.98729 0
M  V30 5145 H 476.575 2.17206 -5.66486 0
M  V30 5146 H 475.314 2.09995 -4.40174 0
M  V30 5147 H 474.319 0.0722344 -5.49753 0
M  V30 5148 H 475.544 0.16391 -6.78902 0
M  V30 5149 H 473.49 2.31177 -6.13916 0
M  V30 5150 H 473.407 1.19802 -7.46447 0
M  V30 5151 H 474.675 2.38638 -7.42073 0
M  V30 5152 N 478.904 1.54736 -0.299062 0
M  V30 5153 C 479.852 2.24897 0.593658 0
M  V30 5154 C 480.846 1.25429 1.13859 0
M  V30 5155 O 482.052 1.43286 1.08945 0
M  V30 5156 H 478.427 0.72207 0.210046 0
M  V30 5157 H 480.398 2.98393 -0.0206421 0
M  V30 5158 C 479.147 3.00159 1.75499 0
M  V30 5159 H 478.47 3.76501 1.34489 0
M  V30 5160 H 479.91 3.52535 2.35574 0
M  V30 5161 C 478.369 2.07015 2.65794 0
M  V30 5162 O 478.899 1.63692 3.66835 0
M  V30 5163 N 477.105 1.73012 2.33485 0
M  V30 5164 H 476.652 2.08439 1.51364 0
M  V30 5165 H 476.61 1.10965 2.94167 0
M  V30 5166 N 480.382 0.0267497 1.57577 0
M  V30 5167 C 481.312 -0.954308 2.13108 0
M  V30 5168 C 482.293 -1.34088 1.04663 0
M  V30 5169 O 483.478 -1.41992 1.32484 0
M  V30 5170 C 480.608 -2.23744 2.65624 0
M  V30 5171 C 479.562 -1.99168 3.78835 0
M  V30 5172 C 478.888 -3.33726 4.17769 0
M  V30 5173 C 480.188 -1.33277 5.0501 0
M  V30 5174 H 481.882 -0.491848 2.95332 0
M  V30 5175 H 479.428 -0.23514 1.42067 0
M  V30 5176 H 481.381 -2.92754 3.03106 0
M  V30 5177 H 480.105 -2.72151 1.80558 0
M  V30 5178 H 478.764 -1.32577 3.41788 0
M  V30 5179 H 478.412 -3.79888 3.29688 0
M  V30 5180 H 478.112 -3.18089 4.94058 0
M  V30 5181 H 479.636 -4.04008 4.57832 0
M  V30 5182 H 481.05 -1.92283 5.40093 0
M  V30 5183 H 479.447 -1.28045 5.8628 0
M  V30 5184 H 480.517 -0.305411 4.83937 0
M  V30 5185 N 481.861 -1.55662 -0.24637 0
M  V30 5186 C 483.089 -1.81575 -0.991876 0
M  V30 5187 C 483.504 -0.602545 -1.78927 0
M  V30 5188 O 482.861 0.428795 -1.77391 0
M  V30 5189 C 482.912 -3.05711 -1.92933 0
M  V30 5190 O 482.633 -4.22348 -1.1642 0
M  V30 5191 C 484.134 -3.44428 -2.79078 0
M  V30 5192 H 481.354 -0.604209 -0.291844 0
M  V30 5193 H 483.898 -2.02722 -0.269095 0
M  V30 5194 H 482.053 -2.86612 -2.60638 0
M  V30 5195 H 482.467 -4.92706 -1.79835 0
M  V30 5196 H 483.941 -4.34388 -3.40603 0
M  V30 5197 H 484.418 -2.65037 -3.50217 0
M  V30 5198 H 485.024 -3.65879 -2.16824 0
M  V30 5199 N 483.339 0.512053 -1.4905 0
M  V30 5200 C 484.579 1.27715 -1.59588 0
M  V30 5201 C 484.943 1.90071 -0.271502 0
M  V30 5202 O 486.144 2.67616 -0.251987 0
M  V30 5203 C 484.415 2.32399 -2.71524 0
M  V30 5204 S 485.974 3.18396 -3.01943 0
M  V30 5205 H 482.792 0.43419 -0.563027 0
M  V30 5206 H 485.394 0.581315 -1.86657 0
M  V30 5207 H 484.098 1.85101 -3.66287 0
M  V30 5208 H 483.629 3.06667 -2.46412 0
M  V30 5209 H 485.644 4.32842 -2.42616 0
M  V30 5210 N 484.817 1.37938 0.762283 0
M  V30 5211 C 485.727 1.36681 1.90671 0
M  V30 5212 C 486.743 0.265078 1.71969 0
M  V30 5213 O 487.919 0.502055 1.95042 0
M  V30 5214 C 484.984 1.18211 3.25925 0
M  V30 5215 C 484.045 2.3811 3.57214 0
M  V30 5216 C 483.278 2.20512 4.86014 0
M  V30 5217 O 483.501 1.19429 5.57757 0
M  V30 5218 O 482.435 3.08911 5.16583 0
M  V30 5219 H 486.261 2.33091 1.94685 0
M  V30 5220 H 483.846 1.18767 0.906356 0
M  V30 5221 H 485.728 1.09937 4.06807 0
M  V30 5222 H 484.403 0.248807 3.22742 0
M  V30 5223 H 483.31 2.51958 2.76529 0
M  V30 5224 H 484.643 3.30041 3.65149 0
M  V30 5225 N 486.295 -0.989507 1.22664 0
M  V30 5226 C 487.541 -1.7321 1.05481 0
M  V30 5227 C 487.874 -1.89852 -0.408635 0
M  V30 5228 O 487.149 -1.44416 -1.30285 0
M  V30 5229 C 487.432 -3.1357 1.77047 0
M  V30 5230 C 487.285 -3.04555 3.31008 0
M  V30 5231 C 488.604 -4.12812 1.5256 0
M  V30 5232 H 485.723 -0.628697 0.384589 0
M  V30 5233 H 488.365 -1.15258 1.51049 0
M  V30 5234 H 486.515 -3.63046 1.3831 0
M  V30 5235 H 488.187 -2.62674 3.7921 0
M  V30 5236 H 486.43 -2.41278 3.6051 0
M  V30 5237 H 487.101 -4.03894 3.76263 0
M  V30 5238 H 489.577 -3.72106 1.86215 0
M  V30 5239 H 488.453 -5.09132 2.05124 0
M  V30 5240 H 488.714 -4.39711 0.458936 0
M  V30 5241 N 487.773 -1.03688 -1.18687 0
M  V30 5242 C 489.019 -0.74888 -1.89112 0
M  V30 5243 C 489.374 0.715345 -1.78607 0
M  V30 5244 O 488.667 1.51498 -1.17299 0
M  V30 5245 C 488.861 -1.14477 -3.3857 0
M  V30 5246 C 488.69 -2.64594 -3.63621 0
M  V30 5247 C 487.46 -3.31685 -3.812 0
M  V30 5248 C 489.658 -3.62811 -3.64517 0
M  V30 5249 N 487.64 -4.70822 -3.93955 0
M  V30 5250 C 489.011 -4.87603 -3.8294 0
M  V30 5251 C 491.066 -3.56495 -3.47585 0
M  V30 5252 C 489.769 -6.0684 -3.86184 0
M  V30 5253 C 491.795 -4.75155 -3.52111 0
M  V30 5254 C 491.157 -5.98765 -3.71026 0
M  V30 5255 H 487.256 -0.32603 -0.710794 0
M  V30 5256 H 489.84 -1.3258 -1.42586 0
M  V30 5257 H 488.011 -0.595974 -3.838 0
M  V30 5258 H 489.743 -0.808187 -3.96548 0
M  V30 5259 H 486.498 -2.82091 -3.80423 0
M  V30 5260 H 486.922 -5.43122 -4.04163 0
M  V30 5261 H 491.564 -2.61907 -3.31911 0
M  V30 5262 H 489.282 -7.01788 -4.00648 0
M  V30 5263 H 492.868 -4.71905 -3.40289 0
M  V30 5264 H 491.748 -6.89047 -3.74412 0
M  V30 5265 N 489.251 1.34841 -0.815825 0
M  V30 5266 C 490.499 1.98107 -0.399744 0
M  V30 5267 C 490.82 1.65019 1.03894 0
M  V30 5268 O 490.09 0.937311 1.72021 0
M  V30 5269 H 488.67 0.732827 -0.144823 0
M  V30 5270 H 491.332 1.64599 -1.0437 0
M  V30 5271 H 490.428 3.07856 -0.512965 0
M  V30 5272 N 490.729 0.570148 1.46925 0
M  V30 5273 C 492.14 0.1402 1.86173 0
M  V30 5274 C 492.491 -1.29347 1.47526 0
M  V30 5275 O 491.616 -1.97508 0.884292 0
M  V30 5276 C 492.211 0.247661 3.37894 0
M  V30 5277 C 490.77 -0.127332 3.76185 0
M  V30 5278 C 489.917 0.589349 2.70965 0
M  V30 5279 H 492.868 0.779117 1.38259 0
M  V30 5280 H 492.889 -0.530341 3.76786 0
M  V30 5281 H 492.401 1.29121 3.65991 0
M  V30 5282 H 490.502 -1.17149 3.53704 0
M  V30 5283 H 490.615 0.240238 4.78497 0
M  V30 5284 H 488.979 0.0309824 2.54681 0
M  V30 5285 H 489.762 1.6343 3.01903 0
M  V30 5286 N 492.207 -1.54576 0.307264 0
M  V30 5287 C 493.435 -2.04675 -0.302597 0
M  V30 5288 C 493.85 -1.18425 -1.47041 0
M  V30 5289 O 493.207 -0.211257 -1.81273 0
M  V30 5290 C 493.258 -3.53575 -0.752801 0
M  V30 5291 O 492.979 -4.36547 0.368536 0
M  V30 5292 C 494.48 -4.19699 -1.42717 0
M  V30 5293 H 491.7 -0.66786 -0.0648374 0
M  V30 5294 H 494.244 -1.99516 0.448716 0
M  V30 5295 H 492.399 -3.59074 -1.45412 0
M  V30 5296 H 492.813 -5.24497 0.0168937 0
M  V30 5297 H 494.287 -5.25388 -1.69327 0
M  V30 5298 H 494.764 -3.69815 -2.36925 0
M  V30 5299 H 495.37 -4.18293 -0.768856 0
M  V30 5300 N 493.685 -0.035106 -1.57561 0
M  V30 5301 C 494.91 0.655802 -1.96759 0
M  V30 5302 C 495.335 1.64523 -0.911809 0
M  V30 5303 O 494.693 1.80857 0.126673 0
M  V30 5304 C 494.741 1.33326 -3.35047 0
M  V30 5305 O 493.845 2.44866 -3.31835 0
M  V30 5306 H 493.186 0.171807 -0.641388 0
M  V30 5307 H 495.716 -0.0987369 -2.04362 0
M  V30 5308 H 495.726 1.68867 -3.71413 0
M  V30 5309 H 494.401 0.608033 -4.11431 0
M  V30 5310 H 492.978 2.11392 -3.07193 0
M  V30 5311 N 495.163 1.55791 0.238111 0
M  V30 5312 C 496.574 1.68383 0.806472 0
M  V30 5313 C 496.925 0.634157 1.85669 0
M  V30 5314 O 496.05 -0.217913 2.153 0
M  V30 5315 C 496.645 3.05268 1.46959 0
M  V30 5316 C 495.204 3.1977 1.98555 0
M  V30 5317 C 494.351 2.64279 0.839763 0
M  V30 5318 H 497.302 1.58694 0.0137535 0
M  V30 5319 H 497.323 3.00203 2.33792 0
M  V30 5320 H 496.835 3.81643 0.704993 0
M  V30 5321 H 494.936 2.48234 2.77868 0
M  V30 5322 H 495.049 4.26788 2.17689 0
M  V30 5323 H 493.413 2.22329 1.24265 0
M  V30 5324 H 494.196 3.43187 0.0881032 0
M  V30 5325 N 496.642 -0.504142 1.49319 0
M  V30 5326 C 497.589 -1.60603 1.65756 0
M  V30 5327 C 498.559 -1.58425 0.499082 0
M  V30 5328 O 499.744 -1.76459 0.725728 0
M  V30 5329 C 496.884 -2.98764 1.72726 0
M  V30 5330 C 495.997 -3.10982 2.99857 0
M  V30 5331 C 495.132 -4.39857 2.97824 0
M  V30 5332 C 494.171 -4.45697 4.19548 0
M  V30 5333 N 493.308 -5.65995 4.15444 0
M  V30 5334 H 498.148 -1.45895 2.59843 0
M  V30 5335 H 495.685 -0.709891 1.28837 0
M  V30 5336 H 497.643 -3.78839 1.74747 0
M  V30 5337 H 496.273 -3.12183 0.821075 0
M  V30 5338 H 495.325 -2.23991 3.07461 0
M  V30 5339 H 496.637 -3.11157 3.89849 0
M  V30 5340 H 495.791 -5.2825 2.98391 0
M  V30 5341 H 494.53 -4.42242 2.05604 0
M  V30 5342 H 493.535 -3.55707 4.19229 0
M  V30 5343 H 494.76 -4.4503 5.12957 0
M  V30 5344 H 492.706 -5.69229 3.26059 0
M  V30 5345 H 492.623 -5.67773 4.99169 0
M  V30 5346 H 493.891 -6.56604 4.20109 0
M  V30 5347 N 498.12 -1.38341 -0.754957 0
M  V30 5348 C 499.05 -1.38176 -1.88227 0
M  V30 5349 C 500.031 -0.247873 -1.68284 0
M  V30 5350 O 501.216 -0.45075 -1.88896 0
M  V30 5351 C 498.346 -1.20471 -3.25736 0
M  V30 5352 C 497.3 -2.3105 -3.60278 0
M  V30 5353 C 496.626 -1.98452 -4.96509 0
M  V30 5354 C 497.926 -3.73305 -3.65295 0
M  V30 5355 H 499.62 -2.32512 -1.88622 0
M  V30 5356 H 497.166 -1.1192 -0.906082 0
M  V30 5357 H 499.119 -1.18982 -4.04254 0
M  V30 5358 H 497.843 -0.225965 -3.25817 0
M  V30 5359 H 496.502 -2.31723 -2.84078 0
M  V30 5360 H 496.15 -0.990641 -4.93148 0
M  V30 5361 H 495.85 -2.7251 -5.20588 0
M  V30 5362 H 497.374 -1.98578 -5.77407 0
M  V30 5363 H 498.788 -3.7467 -4.3393 0
M  V30 5364 H 497.185 -4.46557 -4.00883 0
M  V30 5365 H 498.255 -4.05719 -2.65556 0
M  V30 5366 N 499.598 0.982988 -1.23187 0
M  V30 5367 C 500.531 2.07302 -0.953993 0
M  V30 5368 C 501.509 1.62249 0.106753 0
M  V30 5369 O 502.693 1.88481 -0.0269525 0
M  V30 5370 C 499.82 3.35873 -0.436716 0
M  V30 5371 C 498.866 3.99862 -1.48367 0
M  V30 5372 S 499.699 4.39443 -3.06023 0
M  V30 5373 C 500.855 5.7117 -2.55959 0
M  V30 5374 H 501.088 2.30554 -1.87702 0
M  V30 5375 H 498.621 1.11883 -1.06403 0
M  V30 5376 H 500.579 4.10244 -0.144872 0
M  V30 5377 H 499.24 3.10634 0.465351 0
M  V30 5378 H 498.433 4.92471 -1.07182 0
M  V30 5379 H 498.035 3.31857 -1.72473 0
M  V30 5380 H 500.327 6.47977 -1.97818 0
M  V30 5381 H 501.27 6.17194 -3.47098 0
M  V30 5382 H 501.678 5.29046 -1.96902 0
M  V30 5383 N 501.076 1.04316 1.18135 0
M  V30 5384 C 502.006 0.657299 2.24058 0
M  V30 5385 C 502.987 -0.340678 1.66654 0
M  V30 5386 O 504.172 -0.220223 1.92947 0
M  V30 5387 C 501.302 0.0220715 3.47293 0
M  V30 5388 C 500.256 0.943857 4.17463 0
M  V30 5389 C 499.582 0.172973 5.3442 0
M  V30 5390 C 500.882 2.26409 4.70677 0
M  V30 5391 H 502.576 1.5428 2.56589 0
M  V30 5392 H 500.122 0.743263 1.23335 0
M  V30 5393 H 502.075 -0.259607 4.206 0
M  V30 5394 H 500.799 -0.898323 3.14003 0
M  V30 5395 H 499.458 1.20996 3.46057 0
M  V30 5396 H 499.106 -0.749907 4.97379 0
M  V30 5397 H 498.806 0.787098 5.82304 0
M  V30 5398 H 500.33 -0.101628 6.10515 0
M  V30 5399 H 501.744 2.04294 5.35665 0
M  V30 5400 H 500.141 2.8314 5.29105 0
M  V30 5401 H 501.211 2.90883 3.87962 0
M  V30 5402 N 502.554 -1.34406 0.822964 0
M  V30 5403 C 503.779 -2.0304 0.423034 0
M  V30 5404 C 504.204 -1.61568 -0.963196 0
M  V30 5405 O 503.562 -0.800339 -1.62678 0
M  V30 5406 C 503.61 -3.56636 0.53321 0
M  V30 5407 O 502.714 -4.09971 -0.446939 0
M  V30 5408 H 502.055 -0.64075 0.174171 0
M  V30 5409 H 504.585 -1.71653 1.11339 0
M  V30 5410 H 504.595 -4.05945 0.408991 0
M  V30 5411 H 503.27 -3.86168 1.54425 0
M  V30 5412 H 501.847 -3.71835 -0.281601 0
M  V30 5413 N 504.032 -0.577932 -1.46621 0
M  V30 5414 C 504.962 0.145917 -2.33044 0
M  V30 5415 C 505.943 0.888412 -1.45056 0
M  V30 5416 O 507.128 0.864812 -1.73881 0
M  V30 5417 C 504.258 1.16322 -3.27241 0
M  V30 5418 C 503.212 0.535868 -4.24632 0
M  V30 5419 C 502.538 1.65929 -5.08303 0
M  V30 5420 C 503.838 -0.523861 -5.19666 0
M  V30 5421 H 505.532 -0.575636 -2.93814 0
M  V30 5422 H 503.078 -0.278272 -1.41286 0
M  V30 5423 H 505.031 1.67793 -3.86553 0
M  V30 5424 H 503.755 1.91498 -2.64567 0
M  V30 5425 H 502.414 0.0422759 -3.66576 0
M  V30 5426 H 502.062 2.40061 -4.42018 0
M  V30 5427 H 501.762 1.2452 -5.74255 0
M  V30 5428 H 503.286 2.17686 -5.70478 0
M  V30 5429 H 504.7 -0.0944059 -5.73222 0
M  V30 5430 H 503.097 -0.858 -5.93935 0
M  V30 5431 H 504.167 -1.41197 -4.63887 0
M  V30 5432 N 505.51 1.54411 -0.315457 0
M  V30 5433 C 506.457 2.24048 0.554166 0
M  V30 5434 C 507.427 1.2283 1.11812 0
M  V30 5435 O 508.612 1.51491 1.15997 0
M  V30 5436 C 505.752 2.99574 1.71316 0
M  V30 5437 C 504.865 4.15594 1.17922 0
M  V30 5438 C 504 4.78669 2.30324 0
M  V30 5439 C 503.039 5.86807 1.74137 0
M  V30 5440 N 502.176 6.43777 2.8017 0
M  V30 5441 H 507.016 2.97964 -0.0462602 0
M  V30 5442 H 504.553 1.47059 -0.0346009 0
M  V30 5443 H 506.511 3.41604 2.39505 0
M  V30 5444 H 505.141 2.28008 2.285 0
M  V30 5445 H 504.193 3.78404 0.389136 0
M  V30 5446 H 505.505 4.93459 0.728012 0
M  V30 5447 H 504.659 5.23626 3.06433 0
M  V30 5448 H 503.398 4.00168 2.78778 0
M  V30 5449 H 502.403 5.41261 0.965236 0
M  V30 5450 H 503.628 6.67201 1.2657 0
M  V30 5451 H 501.574 5.68153 3.2793 0
M  V30 5452 H 501.491 7.17031 2.39588 0
M  V30 5453 H 502.759 6.9339 3.56132 0
M  V30 5454 N 506.988 0.0434614 1.5754 0
M  V30 5455 C 507.918 -0.931651 2.14109 0
M  V30 5456 C 508.899 -1.32971 1.06079 0
M  V30 5457 O 510.084 -1.40579 1.33982 0
M  V30 5458 C 507.214 -2.20914 2.67982 0
M  V30 5459 C 506.168 -1.95139 3.80926 0
M  V30 5460 C 505.494 -3.29276 4.21285 0
M  V30 5461 C 506.794 -1.27913 5.06395 0
M  V30 5462 H 508.488 -0.460497 2.95837 0
M  V30 5463 H 506.034 -0.220058 1.42309 0
M  V30 5464 H 507.987 -2.89522 3.06194 0
M  V30 5465 H 506.711 -2.70221 1.83434 0
M  V30 5466 H 505.37 -1.28945 3.43175 0
M  V30 5467 H 505.018 -3.76369 3.33699 0
M  V30 5468 H 504.718 -3.12831 4.97404 0
M  V30 5469 H 506.242 -3.99129 4.62091 0
M  V30 5470 H 507.656 -1.86544 5.42102 0
M  V30 5471 H 506.053 -1.2182 5.87605 0
M  V30 5472 H 507.123 -0.254066 4.84234 0
M  V30 5473 N 508.466 -1.55915 -0.229846 0
M  V30 5474 C 509.376 -1.94891 -1.30593 0
M  V30 5475 C 510.392 -0.851604 -1.51736 0
M  V30 5476 O 511.568 -1.15447 -1.65027 0
M  V30 5477 C 508.633 -2.25052 -2.63728 0
M  V30 5478 C 507.694 -3.48306 -2.5096 0
M  V30 5479 C 506.927 -3.77019 -3.77747 0
M  V30 5480 O 507.15 -3.07534 -4.80395 0
M  V30 5481 O 506.084 -4.70523 -3.75356 0
M  V30 5482 H 509.91 -2.86581 -1.00525 0
M  V30 5483 H 507.495 -1.43017 -0.432025 0
M  V30 5484 H 509.377 -2.45682 -3.42372 0
M  V30 5485 H 508.052 -1.36538 -2.93495 0
M  V30 5486 H 506.959 -3.32964 -1.70546 0
M  V30 5487 H 508.292 -4.37177 -2.26136 0
M  V30 5488 N 509.944 0.496216 -1.49584 0
M  V30 5489 C 510.892 1.61805 -1.67098 0
M  V30 5490 C 511.886 1.60667 -0.536877 0
M  V30 5491 O 513.092 1.65118 -0.716654 0
M  V30 5492 H 509.467 0.53646 -0.526986 0
M  V30 5493 H 511.438 1.44187 -2.61252 0
M  V30 5494 C 510.187 2.99912 -1.75921 0
M  V30 5495 H 509.51 3.01496 -2.62565 0
M  V30 5496 H 510.95 3.77931 -1.92209 0
M  V30 5497 C 509.409 3.33092 -0.505088 0
M  V30 5498 O 509.939 4.00019 0.367085 0
M  V30 5499 N 508.145 2.88278 -0.366599 0
M  V30 5500 H 507.692 2.33989 -1.07735 0
M  V30 5501 H 507.65 3.10846 0.47142 0
M  V30 5502 N 511.423 1.38739 0.74761 0
M  V30 5503 C 512.37 1.36449 1.86146 0
M  V30 5504 C 513.34 0.226098 1.64554 0
M  V30 5505 O 514.525 0.41926 1.86137 0
M  V30 5506 C 511.665 1.2013 3.23516 0
M  V30 5507 C 510.778 2.43407 3.56899 0
M  V30 5508 C 509.913 2.19773 4.83605 0
M  V30 5509 C 508.952 3.3879 5.09792 0
M  V30 5510 N 508.089 3.14553 6.27695 0
M  V30 5511 H 512.929 2.3167 1.87438 0
M  V30 5512 H 510.466 1.15094 0.916063 0
M  V30 5513 H 512.424 1.08683 4.02795 0
M  V30 5514 H 511.054 0.285453 3.21535 0
M  V30 5515 H 510.106 2.65504 2.72418 0
M  V30 5516 H 511.418 3.32094 3.72176 0
M  V30 5517 H 510.572 2.05496 5.70838 0
M  V30 5518 H 509.311 1.28461 4.70478 0
M  V30 5519 H 508.316 3.53579 4.21025 0
M  V30 5520 H 509.541 4.30986 5.24812 0
M  V30 5521 H 507.487 2.25893 6.1588 0
M  V30 5522 H 507.404 3.96791 6.435 0
M  V30 5523 H 508.672 3.03943 7.17801 0
M  V30 5524 N 512.901 -0.976442 1.23707 0
M  V30 5525 C 513.811 -2.10359 1.03856 0
M  V30 5526 C 514.827 -1.73991 -0.0180919 0
M  V30 5527 O 516.003 -2.0061 0.178211 0
M  V30 5528 C 513.068 -3.40809 0.636387 0
M  V30 5529 C 512.129 -3.91179 1.76854 0
M  V30 5530 C 511.362 -5.15404 1.38546 0
M  V30 5531 O 511.585 -5.69754 0.27142 0
M  V30 5532 O 510.519 -5.5994 2.20797 0
M  V30 5533 H 514.345 -2.29997 1.98331 0
M  V30 5534 H 511.93 -1.08742 1.02448 0
M  V30 5535 H 513.812 -4.19269 0.423223 0
M  V30 5536 H 512.487 -3.22493 -0.279322 0
M  V30 5537 H 511.394 -3.13819 2.03638 0
M  V30 5538 H 512.727 -4.13958 2.6627 0
M  V30 5539 N 514.379 -1.04941 -1.1758 0
M  V30 5540 C 515.342 -0.652456 -2.19717 0
M  V30 5541 C 516.342 0.294745 -1.58076 0
M  V30 5542 O 517.532 0.0789579 -1.74021 0
M  V30 5543 C 514.664 0.0420712 -3.40874 0
M  V30 5544 H 515.857 -1.55642 -2.5635 0
M  V30 5545 H 513.41 -0.842995 -1.31618 0
M  V30 5546 H 514.145 0.95943 -3.09783 0
M  V30 5547 H 513.93 -0.638844 -3.86861 0
M  V30 5548 H 515.42 0.306 -4.16477 0
M  V30 5549 N 515.857 1.33968 -0.830081 0
M  V30 5550 C 516.804 2.29387 -0.255008 0
M  V30 5551 C 517.774 1.53923 0.624243 0
M  V30 5552 O 518.959 1.82262 0.564372 0
M  V30 5553 C 516.099 3.4034 0.571209 0
M  V30 5554 C 515.212 4.30729 -0.331083 0
M  V30 5555 C 514.347 5.2879 0.505389 0
M  V30 5556 C 513.386 6.10819 -0.395843 0
M  V30 5557 N 512.523 7.00948 0.401979 0
M  V30 5558 H 517.363 2.77972 -1.07404 0
M  V30 5559 H 514.9 1.36785 -0.541133 0
M  V30 5560 H 516.858 4.03361 1.06562 0
M  V30 5561 H 515.488 2.9297 1.35529 0
M  V30 5562 H 514.54 3.68507 -0.943759 0
M  V30 5563 H 515.852 4.88181 -1.02377 0
M  V30 5564 H 515.006 5.97297 1.06399 0
M  V30 5565 H 513.745 4.71894 1.23155 0
M  V30 5566 H 512.75 5.41238 -0.966529 0
M  V30 5567 H 513.975 6.69797 -1.12023 0
M  V30 5568 H 511.921 6.46512 1.11168 0
M  V30 5569 H 511.838 7.55643 -0.232167 0
M  V30 5570 H 513.106 7.73774 0.943102 0
M  V30 5571 N 517.335 0.585699 1.46312 0
M  V30 5572 C 518.581 0.0725284 2.0267 0
M  V30 5573 C 518.914 -1.28523 1.45586 0
M  V30 5574 O 518.189 -1.84283 0.622101 0
M  V30 5575 C 518.472 0.0099788 3.60099 0
M  V30 5576 C 518.325 1.39685 4.27561 0
M  V30 5577 C 519.644 -0.689117 4.34671 0
M  V30 5578 H 516.763 0.0278307 0.736474 0
M  V30 5579 H 519.405 0.753472 1.74421 0
M  V30 5580 H 517.555 -0.56992 3.84297 0
M  V30 5581 H 519.227 2.02215 4.14617 0
M  V30 5582 H 517.47 1.96374 3.86807 0
M  V30 5583 H 518.141 1.30553 5.36339 0
M  V30 5584 H 520.617 -0.196446 4.15636 0
M  V30 5585 H 519.493 -0.701921 5.44393 0
M  V30 5586 H 519.754 -1.75101 4.05946 0
M  V30 5587 N 518.813 -1.54241 0.323641 0
M  V30 5588 C 520.038 -2.05452 -0.283605 0
M  V30 5589 C 520.463 -1.19823 -1.44997 0
M  V30 5590 O 519.821 -0.207358 -1.8011 0
M  V30 5591 C 519.869 -3.53823 -0.695795 0
M  V30 5592 O 518.973 -3.71134 -1.79815 0
M  V30 5593 H 518.314 -0.662024 -0.0511917 0
M  V30 5594 H 520.844 -1.99079 0.472073 0
M  V30 5595 H 520.854 -3.96094 -0.978434 0
M  V30 5596 H 519.529 -4.15602 0.157287 0
M  V30 5597 H 518.106 -3.40768 -1.51431 0
M  V30 5598 N 520.291 -0.0518155 -1.57515 0
M  V30 5599 C 521.238 0.922352 -2.11569 0
M  V30 5600 C 522.208 1.30842 -1.02321 0
M  V30 5601 O 523.393 1.39778 -1.29872 0
M  V30 5602 C 520.533 2.19167 -2.6657 0
M  V30 5603 C 519.646 1.86003 -3.89906 0
M  V30 5604 C 518.781 3.07398 -4.33221 0
M  V30 5605 C 517.82 2.70158 -5.49255 0
M  V30 5606 N 516.957 3.84248 -5.8762 0
M  V30 5607 H 521.797 0.454506 -2.94514 0
M  V30 5608 H 519.334 0.212718 -1.45554 0
M  V30 5609 H 521.292 2.93443 -2.96559 0
M  V30 5610 H 519.922 2.63528 -1.86421 0
M  V30 5611 H 518.974 1.01874 -3.66505 0
M  V30 5612 H 520.286 1.54592 -4.74239 0
M  V30 5613 H 519.44 3.89972 -4.64765 0
M  V30 5614 H 518.179 3.41988 -3.477 0
M  V30 5615 H 517.184 1.86001 -5.17382 0
M  V30 5616 H 518.409 2.36759 -6.36492 0
M  V30 5617 H 516.355 4.18638 -5.05053 0
M  V30 5618 H 516.272 3.56538 -6.66646 0
M  V30 5619 H 517.54 4.6746 -6.2378 0
M  V30 5620 N 521.769 1.56035 0.221574 0
M  V30 5621 C 523.185 1.49026 0.571271 0
M  V30 5622 C 523.385 0.746912 1.87146 0
M  V30 5623 O 522.441 0.286566 2.50869 0
M  V30 5624 C 523.754 2.93579 0.650522 0
M  V30 5625 C 525.302 3.04099 0.741151 0
M  V30 5626 C 525.777 4.5001 0.851747 0
M  V30 5627 N 527.268 4.54053 0.915968 0
M  V30 5628 C 528.003 5.64232 1.02125 0
M  V30 5629 N 527.499 6.84164 1.09049 0
M  V30 5630 N 529.292 5.52084 1.05639 0
M  V30 5631 H 521.443 2.02791 -0.63162 0
M  V30 5632 H 523.706 0.921736 -0.221602 0
M  V30 5633 H 523.412 3.50912 -0.235253 0
M  V30 5634 H 523.286 3.45476 1.51413 0
M  V30 5635 H 525.673 2.4683 1.61737 0
M  V30 5636 H 525.754 2.55371 -0.148128 0
M  V30 5637 H 525.398 5.07896 -0.0200117 0
M  V30 5638 H 525.328 4.96444 1.75644 0
M  V30 5639 H 527.819 3.67683 0.872782 0
M  V30 5640 H 528.132 7.63883 1.1706 0
M  V30 5641 H 526.477 6.86875 1.05962 0
M  V30 5642 H 529.668 4.57317 0.998953 0
M  V30 5643 H 529.841 6.37983 1.13498 0
M  V30 5644 N 523.247 -0.488276 1.49845 0
M  V30 5645 C 524.157 -1.61451 1.70207 0
M  V30 5646 C 525.173 -1.63877 0.584846 0
M  V30 5647 O 526.349 -1.82063 0.861107 0
M  V30 5648 C 523.414 -2.9776 1.77594 0
M  V30 5649 C 522.475 -3.05861 3.01243 0
M  V30 5650 C 521.708 -4.35668 3.08268 0
M  V30 5651 O 521.931 -5.25197 2.22541 0
M  V30 5652 O 520.865 -4.49005 4.00847 0
M  V30 5653 H 524.691 -1.47199 2.65643 0
M  V30 5654 H 522.276 -0.665939 1.33737 0
M  V30 5655 H 524.158 -3.7875 1.84732 0
M  V30 5656 H 522.833 -3.12248 0.8534 0
M  V30 5657 H 521.74 -2.24012 2.99616 0
M  V30 5658 H 523.073 -2.96304 3.9302 0
M  V30 5659 N 524.725 -1.39134 -0.740242 0
M  V30 5660 C 525.672 -1.37434 -1.8542 0
M  V30 5661 C 526.642 -0.234822 -1.64432 0
M  V30 5662 O 527.827 -0.429125 -1.85912 0
M  V30 5663 C 524.967 -1.21844 -3.22875 0
M  V30 5664 C 524.08 -2.45296 -3.55603 0
M  V30 5665 C 523.215 -2.22334 -4.82432 0
M  V30 5666 C 522.254 -3.41488 -5.07988 0
M  V30 5667 N 521.391 -3.17877 -6.26018 0
M  V30 5668 H 526.231 -2.3266 -1.86207 0
M  V30 5669 H 523.768 -1.15578 -0.909946 0
M  V30 5670 H 525.726 -1.10818 -4.02213 0
M  V30 5671 H 524.356 -0.3025 -3.21379 0
M  V30 5672 H 523.408 -2.66945 -2.71006 0
M  V30 5673 H 524.72 -3.34063 -3.7041 0
M  V30 5674 H 523.874 -2.0852 -5.69741 0
M  V30 5675 H 522.613 -1.30954 -4.6979 0
M  V30 5676 H 521.618 -3.55807 -4.19144 0
M  V30 5677 H 522.843 -4.33763 -5.22519 0
M  V30 5678 H 520.789 -2.29156 -6.14673 0
M  V30 5679 H 520.706 -4.00198 -6.41387 0
M  V30 5680 H 521.974 -3.07746 -7.16179 0
M  V30 5681 N 526.204 0.969867 -1.24223 0
M  V30 5682 C 527.167 2.04564 -1.03373 0
M  V30 5683 C 528.167 1.60798 0.00819206 0
M  V30 5684 O 529.357 1.72641 -0.232567 0
M  V30 5685 C 526.489 3.36163 -0.566343 0
M  V30 5686 H 527.682 2.24494 -1.98853 0
M  V30 5687 H 525.235 1.1448 -1.06415 0
M  V30 5688 H 525.97 3.21925 0.391751 0
M  V30 5689 H 525.755 3.69273 -1.31834 0
M  V30 5690 H 527.245 4.1526 -0.441435 0
M  V30 5691 N 527.682 1.05563 1.17022 0
M  V30 5692 C 528.928 0.769074 1.87652 0
M  V30 5693 C 529.261 -0.702326 1.81055 0
M  V30 5694 O 528.536 -1.5139 1.22112 0
M  V30 5695 C 528.819 1.25492 3.37526 0
M  V30 5696 C 528.672 2.78953 3.52853 0
M  V30 5697 C 529.991 0.856919 4.31677 0
M  V30 5698 H 527.11 0.280854 0.681388 0
M  V30 5699 H 529.752 1.31027 1.37593 0
M  V30 5700 H 527.902 0.794516 3.80289 0
M  V30 5701 H 529.574 3.33146 3.19079 0
M  V30 5702 H 527.817 3.18046 2.95007 0
M  V30 5703 H 528.488 3.08011 4.58076 0
M  V30 5704 H 530.964 1.25334 3.96775 0
M  V30 5705 H 529.84 1.22443 5.35069 0
M  V30 5706 H 530.101 -0.238787 4.41455 0
M  V30 5707 N 529.16 -1.33526 0.837174 0
M  V30 5708 C 530.406 -1.98541 0.44193 0
M  V30 5709 C 530.761 -1.65124 -0.987517 0
M  V30 5710 O 530.054 -0.919948 -1.6807 0
M  V30 5711 C 530.248 -3.52367 0.597675 0
M  V30 5712 C 530.077 -4.00731 2.04071 0
M  V30 5713 C 528.847 -4.28649 2.67559 0
M  V30 5714 C 531.045 -4.17073 3.00923 0
M  V30 5715 N 529.027 -4.63142 4.02955 0
M  V30 5716 C 530.398 -4.54905 4.21261 0
M  V30 5717 C 532.453 -3.99358 2.97351 0
M  V30 5718 C 531.156 -4.76874 5.38501 0
M  V30 5719 C 533.182 -4.22501 4.1382 0
M  V30 5720 C 532.544 -4.60634 5.32912 0
M  V30 5721 H 528.643 -0.753246 0.210105 0
M  V30 5722 H 531.227 -1.61674 1.08488 0
M  V30 5723 H 529.398 -3.88397 -0.0154658 0
M  V30 5724 H 531.13 -4.04326 0.17404 0
M  V30 5725 H 527.885 -4.20077 2.18706 0
M  V30 5726 H 528.309 -4.84601 4.72748 0
M  V30 5727 H 532.951 -3.68993 2.06408 0
M  V30 5728 H 530.669 -5.06101 6.2999 0
M  V30 5729 H 534.255 -4.10316 4.12471 0
M  V30 5730 H 533.135 -4.78187 6.21536 0
M  V30 5731 N 530.638 -0.59345 -1.46 0
M  V30 5732 C 531.884 -0.0832754 -2.02629 0
M  V30 5733 C 532.217 1.27749 -1.46266 0
M  V30 5734 O 531.492 1.8395 -0.631866 0
M  V30 5735 C 531.775 -0.0290756 -3.60088 0
M  V30 5736 C 531.628 -1.41951 -4.26814 0
M  V30 5737 C 532.947 0.666055 -4.35031 0
M  V30 5738 H 530.066 -0.031736 -0.736316 0
M  V30 5739 H 532.708 -0.762711 -1.74019 0
M  V30 5740 H 530.858 0.549532 -3.84594 0
M  V30 5741 H 532.53 -2.04411 -4.13538 0
M  V30 5742 H 530.773 -1.98422 -3.8576 0
M  V30 5743 H 531.444 -1.33395 -5.3564 0
M  V30 5744 H 533.92 0.174401 -4.15734 0
M  V30 5745 H 532.796 0.673041 -5.44758 0
M  V30 5746 H 533.057 1.72946 -4.06869 0
M  V30 5747 N 532.116 1.54067 -0.331816 0
M  V30 5748 C 533.046 2.27569 0.522932 0
M  V30 5749 C 534.027 1.28679 1.11247 0
M  V30 5750 O 535.212 1.57504 1.13605 0
M  V30 5751 C 532.342 3.0397 1.67987 0
M  V30 5752 C 531.296 4.10267 1.21924 0
M  V30 5753 C 530.622 4.74555 2.46377 0
M  V30 5754 C 531.922 5.21268 0.32815 0
M  V30 5755 H 533.616 2.99264 -0.0901977 0
M  V30 5756 H 531.162 1.4393 -0.044821 0
M  V30 5757 H 533.115 3.54123 2.28418 0
M  V30 5758 H 531.839 2.29906 2.31971 0
M  V30 5759 H 530.498 3.61009 0.637809 0
M  V30 5760 H 530.146 3.97098 3.08743 0
M  V30 5761 H 529.846 5.46363 2.16243 0
M  V30 5762 H 531.37 5.27487 3.07555 0
M  V30 5763 H 532.784 5.67128 0.838978 0
M  V30 5764 H 531.181 5.99982 0.119228 0
M  V30 5765 H 532.251 4.80673 -0.638839 0
M  V30 5766 N 533.594 0.0601682 1.57485 0
M  V30 5767 C 534.542 -0.928899 2.13247 0
M  V30 5768 C 535.536 -1.31616 1.06647 0
M  V30 5769 O 536.742 -1.29476 1.25043 0
M  V30 5770 H 533.117 -0.317455 0.681708 0
M  V30 5771 H 535.088 -0.433566 2.95233 0
M  V30 5772 C 533.837 -2.19121 2.69965 0
M  V30 5773 H 533.16 -1.90204 3.51657 0
M  V30 5774 H 534.6 -2.86465 3.12592 0
M  V30 5775 C 533.059 -2.94195 1.64168 0
M  V30 5776 O 533.589 -3.87468 1.05978 0
M  V30 5777 N 531.795 -2.57089 1.35476 0
M  V30 5778 H 531.342 -1.81314 1.82984 0
M  V30 5779 H 531.3 -3.07624 0.649196 0
M  V30 5780 N 535.072 -1.5615 -0.213296 0
M  V30 5781 C 536.483 -1.69645 -0.779582 0
M  V30 5782 C 536.834 -0.663615 -1.84636 0
M  V30 5783 O 535.959 0.183633 -2.15619 0
M  V30 5784 C 536.554 -3.07567 -1.42084 0
M  V30 5785 C 535.113 -3.22889 -1.93442 0
M  V30 5786 C 534.26 -2.65581 -0.797612 0
M  V30 5787 H 537.211 -1.58696 0.0114951 0
M  V30 5788 H 537.232 -3.03884 -2.28986 0
M  V30 5789 H 536.744 -3.82716 -0.644187 0
M  V30 5790 H 534.845 -2.52623 -2.73884 0
M  V30 5791 H 534.958 -4.30197 -2.10872 0
M  V30 5792 H 533.322 -2.24278 -1.20712 0
M  V30 5793 H 534.105 -3.43284 -0.033494 0
M  V30 5794 N 536.55 0.480323 -1.50102 0
M  V30 5795 C 537.46 1.60547 -1.71061 0
M  V30 5796 C 538.476 1.63564 -0.593529 0
M  V30 5797 O 539.652 1.81604 -0.870751 0
M  V30 5798 C 536.717 2.96814 -1.79171 0
M  V30 5799 C 535.778 3.04259 -3.02861 0
M  V30 5800 C 535.011 4.34027 -3.10574 0
M  V30 5801 O 535.234 5.24009 -2.25323 0
M  V30 5802 O 534.168 4.46873 -4.03223 0
M  V30 5803 H 537.994 1.45788 -2.6642 0
M  V30 5804 H 535.579 0.658838 -1.34088 0
M  V30 5805 H 537.461 3.77765 -1.86738 0
M  V30 5806 H 536.136 3.11791 -0.869947 0
M  V30 5807 H 535.043 2.22419 -3.008 0
M  V30 5808 H 536.376 2.94216 -3.94586 0
M  V30 5809 N 538.028 1.39524 0.732853 0
M  V30 5810 C 538.991 1.38189 1.82857 0
M  V30 5811 C 539.991 0.278624 1.58368 0
M  V30 5812 O 541.181 0.536639 1.65728 0
M  V30 5813 C 538.313 1.15661 3.2068 0
M  V30 5814 H 539.506 2.35692 1.85444 0
M  V30 5815 H 537.059 1.2512 0.936728 0
M  V30 5816 H 537.794 0.188482 3.23752 0
M  V30 5817 H 537.579 1.95559 3.39852 0
M  V30 5818 H 539.069 1.17472 4.00737 0
M  V30 5819 N 539.506 -0.963266 1.24736 0
M  V30 5820 C 540.754 -1.70343 1.08755 0
M  V30 5821 C 541.075 -1.91387 -0.373619 0
M  V30 5822 O 540.345 -1.4948 -1.2662 0
M  V30 5823 H 538.925 -0.631224 0.399456 0
M  V30 5824 H 541.587 -1.15859 1.56725 0
M  V30 5825 H 540.683 -2.68616 1.58909 0
M  V30 5826 N 540.985 -1.06182 -1.16461 0
M  V30 5827 C 541.918 -0.615859 -2.19733 0
M  V30 5828 C 542.896 0.360766 -1.58547 0
M  V30 5829 O 544.08 0.270009 -1.86556 0
M  V30 5830 C 541.207 0.097312 -3.3856 0
M  V30 5831 C 540.253 -0.835889 -4.18229 0
M  V30 5832 S 541.086 -2.33052 -4.82128 0
M  V30 5833 C 542.242 -1.62881 -6.04335 0
M  V30 5834 H 542.475 -1.49079 -2.57221 0
M  V30 5835 H 540.008 -0.874692 -1.27234 0
M  V30 5836 H 541.966 0.502563 -4.07412 0
M  V30 5837 H 540.627 0.948418 -2.99439 0
M  V30 5838 H 539.82 -0.283426 -5.03202 0
M  V30 5839 H 539.422 -1.18097 -3.54865 0
M  V30 5840 H 541.714 -0.933764 -6.71034 0
M  V30 5841 H 542.657 -2.45641 -6.64128 0
M  V30 5842 H 543.065 -1.11189 -5.53441 0
M  V30 5843 N 542.463 1.3308 -0.844243 0
M  V30 5844 C 543.709 1.98304 -0.452453 0
M  V30 5845 C 544.064 1.65645 0.978746 0
M  V30 5846 O 543.357 0.928849 1.6758 0
M  V30 5847 C 543.551 3.52045 -0.616354 0
M  V30 5848 C 543.38 3.99643 -2.06193 0
M  V30 5849 C 542.15 4.27224 -2.69829 0
M  V30 5850 C 544.348 4.15471 -3.03131 0
M  V30 5851 N 542.33 4.60998 -4.05406 0
M  V30 5852 C 543.701 4.52665 -4.23668 0
M  V30 5853 C 545.756 3.97776 -2.99465 0
M  V30 5854 C 544.459 4.74011 -5.41023 0
M  V30 5855 C 546.485 4.20301 -4.16055 0
M  V30 5856 C 545.847 4.57801 -5.35348 0
M  V30 5857 H 541.946 0.752122 -0.214096 0
M  V30 5858 H 544.53 1.61096 -1.09344 0
M  V30 5859 H 542.701 3.884 -0.00513205 0
M  V30 5860 H 544.433 4.04228 -0.19548 0
M  V30 5861 H 541.188 4.18911 -2.20931 0
M  V30 5862 H 541.612 4.82087 -4.75312 0
M  V30 5863 H 546.254 3.67893 -2.08362 0
M  V30 5864 H 543.972 5.02753 -6.32665 0
M  V30 5865 H 547.558 4.08122 -4.14641 0
M  V30 5866 H 546.438 4.74884 -6.24063 0
M  V30 5867 N 543.941 0.601185 1.45683 0
M  V30 5868 C 544.873 -0.159446 2.28645 0
M  V30 5869 C 545.886 -0.837882 1.39583 0
M  V30 5870 O 547.075 -0.704344 1.64016 0
M  V30 5871 C 544.175 -1.24641 3.15147 0
M  V30 5872 C 543.348 -0.656334 4.32448 0
M  V30 5873 C 542.407 -1.63337 5.00208 0
M  V30 5874 O 541.433 -1.16217 5.57209 0
M  V30 5875 N 542.635 -2.96773 4.98905 0
M  V30 5876 H 545.4 0.5524 2.94565 0
M  V30 5877 H 542.961 0.440223 1.558 0
M  V30 5878 H 544.953 -1.8997 3.57342 0
M  V30 5879 H 543.523 -1.86087 2.51178 0
M  V30 5880 H 542.743 0.174879 3.93812 0
M  V30 5881 H 544.031 -0.242211 5.08223 0
M  V30 5882 H 543.429 -3.37662 4.53873 0
M  V30 5883 H 541.986 -3.57541 5.44984 0
M  V30 5884 N 545.419 -1.53889 0.339982 0
M  V30 5885 C 546.659 -2.02765 -0.258011 0
M  V30 5886 C 547.023 -1.22249 -1.48051 0
M  V30 5887 O 548.224 -1.61007 -2.15245 0
M  V30 5888 C 546.495 -3.5286 -0.567872 0
M  V30 5889 S 548.054 -4.23647 -1.14318 0
M  V30 5890 H 544.872 -0.706814 -0.0770389 0
M  V30 5891 H 547.474 -1.89594 0.476917 0
M  V30 5892 H 546.178 -4.09073 0.329745 0
M  V30 5893 H 545.709 -3.70144 -1.33256 0
M  V30 5894 H 547.724 -4.32676 -2.42911 0
M  V30 5895 N 546.897 -0.0685191 -1.57451 0
M  V30 5896 C 547.827 0.89747 -2.15564 0
M  V30 5897 C 548.808 1.31266 -1.08181 0
M  V30 5898 O 549.993 1.38429 -1.36202 0
M  V30 5899 C 547.123 2.16623 -2.71463 0
M  V30 5900 C 546.077 1.89054 -3.83982 0
M  V30 5901 C 545.403 3.22532 -4.26471 0
M  V30 5902 C 546.703 1.1984 -5.08366 0
M  V30 5903 H 548.397 0.413373 -2.96533 0
M  V30 5904 H 545.943 0.197391 -1.42641 0
M  V30 5905 H 547.896 2.84614 -3.10761 0
M  V30 5906 H 546.62 2.67269 -1.8771 0
M  V30 5907 H 545.279 1.23469 -3.45183 0
M  V30 5908 H 544.927 3.71013 -3.39644 0
M  V30 5909 H 544.627 3.04879 -5.02317 0
M  V30 5910 H 546.151 3.91727 -4.68383 0
M  V30 5911 H 547.565 1.77896 -5.45001 0
M  V30 5912 H 545.962 1.12456 -5.89469 0
M  V30 5913 H 547.032 0.176996 -4.84577 0
M  V30 5914 N 548.375 1.56261 0.205012 0
M  V30 5915 C 549.305 1.96779 1.257 0
M  V30 5916 C 550.286 0.838309 1.48008 0
M  V30 5917 O 551.471 1.10189 1.59913 0
M  V30 5918 C 548.601 2.29876 2.60335 0
M  V30 5919 C 547.555 3.45469 2.52656 0
M  V30 5920 C 546.881 3.64215 3.91473 0
M  V30 5921 C 548.181 4.79954 2.06014 0
M  V30 5922 H 549.875 2.84904 0.920338 0
M  V30 5923 H 547.421 1.37072 0.441277 0
M  V30 5924 H 549.374 2.56814 3.34102 0
M  V30 5925 H 548.098 1.38622 2.95722 0
M  V30 5926 H 546.757 3.18605 1.81345 0
M  V30 5927 H 546.405 2.70309 4.24196 0
M  V30 5928 H 546.105 4.41973 3.87213 0
M  V30 5929 H 547.629 3.93519 4.66878 0
M  V30 5930 H 549.043 5.05989 2.69533 0
M  V30 5931 H 547.44 5.61111 2.12777 0
M  V30 5932 H 548.51 4.74201 1.01297 0
M  V30 5933 N 549.853 -0.472356 1.50355 0
M  V30 5934 C 551.078 -1.25251 1.65309 0
M  V30 5935 C 551.503 -1.85081 0.335643 0
M  V30 5936 O 550.861 -1.67227 -0.700335 0
M  V30 5937 C 550.909 -2.3379 2.74544 0
M  V30 5938 O 550.013 -3.38401 2.35709 0
M  V30 5939 H 549.354 -0.368539 0.552336 0
M  V30 5940 H 551.884 -0.562271 1.96722 0
M  V30 5941 H 551.894 -2.79121 2.97583 0
M  V30 5942 H 550.569 -1.89614 3.70161 0
M  V30 5943 H 549.146 -2.9879 2.23112 0
M  V30 5944 N 551.331 -1.39911 -0.725443 0
M  V30 5945 C 552.608 -1.28158 -1.47766 0
M  V30 5946 C 552.988 0.104545 -2.10841 0
M  V30 5947 O 552.336 1.11657 -1.99361 0
M  V30 5948 C 552.546 -2.41306 -2.52135 0
M  V30 5949 C 553.894 -2.81076 -3.18247 0
M  V30 5950 O 554.918 -2.40827 -2.62452 0
M  V30 5951 O 553.777 -3.50581 -4.19231 0
M  V30 5952 H 550.871 -0.502761 -0.656628 0
M  V30 5953 H 553.417 -1.51808 -0.758456 0
M  V30 5954 H 552.189 -3.33932 -2.03974 0
M  V30 5955 H 551.812 -2.19374 -3.31603 0
M  V30 5956 N 552.809 0.956637 -1.25245 0
M  V30 5957 C 554.034 1.74104 -1.12706 0
M  V30 5958 C 554.459 1.85436 0.315429 0
M  V30 5959 O 553.817 1.33334 1.22848 0
M  V30 5960 C 553.865 3.1338 -1.78396 0
M  V30 5961 O 552.969 3.98485 -1.06224 0
M  V30 5962 H 552.31 0.53476 -0.393609 0
M  V30 5963 H 554.84 1.19924 -1.65769 0
M  V30 5964 H 554.85 3.6385 -1.846 0
M  V30 5965 H 553.525 3.04448 -2.83345 0
M  V30 5966 H 552.102 3.56952 -1.07886 0
M  V30 5967 N 554.287 1.06798 1.15896 0
M  V30 5968 C 555.535 0.786211 1.8618 0
M  V30 5969 C 555.856 -0.689547 1.82401 0
M  V30 5970 O 555.126 -1.49913 1.26107 0
M  V30 5971 H 553.706 0.287843 0.689315 0
M  V30 5972 H 556.368 1.35055 1.40521 0
M  V30 5973 H 555.464 1.1157 2.91477 0
M  V30 5974 N 555.766 -1.3263 0.851289 0
M  V30 5975 C 556.698 -2.27824 0.250757 0
M  V30 5976 C 557.711 -1.52285 -0.575598 0
M  V30 5977 O 558.9 -1.73946 -0.400638 0
M  V30 5978 C 556 -3.3232 -0.664571 0
M  V30 5979 C 555.173 -4.37221 0.125187 0
M  V30 5980 C 554.232 -5.21314 -0.715385 0
M  V30 5981 O 553.258 -5.69002 -0.150111 0
M  V30 5982 N 554.46 -5.43823 -2.03069 0
M  V30 5983 H 557.225 -2.79997 1.06873 0
M  V30 5984 H 554.786 -1.45455 0.710943 0
M  V30 5985 H 556.778 -3.85486 -1.23216 0
M  V30 5986 H 555.348 -2.80331 -1.38323 0
M  V30 5987 H 554.568 -3.84384 0.874199 0
M  V30 5988 H 555.856 -5.04399 0.667774 0
M  V30 5989 H 555.254 -5.06803 -2.51332 0
M  V30 5990 H 553.811 -5.99998 -2.54648 0
M  V30 5991 N 557.244 -0.608902 -1.45362 0
M  V30 5992 C 558.49 -0.104762 -2.02529 0
M  V30 5993 C 558.823 1.26191 -1.47613 0
M  V30 5994 O 558.098 1.8327 -0.65134 0
M  V30 5995 C 558.381 -0.0672661 -3.60037 0
M  V30 5996 C 558.234 -1.4647 -4.25284 0
M  V30 5997 C 559.553 0.619877 -4.35713 0
M  V30 5998 H 556.672 -0.0395438 -0.735938 0
M  V30 5999 H 559.314 -0.781126 -1.73201 0
M  V30 6000 H 557.464 0.50871 -3.85155 0
M  V30 6001 H 559.136 -2.08785 -4.11347 0
M  V30 6002 H 557.379 -2.02502 -3.83634 0
M  V30 6003 H 558.05 -1.39069 -5.34195 0
M  V30 6004 H 560.526 0.130297 -4.15896 0
M  V30 6005 H 559.402 0.615224 -5.45441 0
M  V30 6006 H 559.663 1.68621 -4.0868 0
M  V30 6007 N 558.722 1.53707 -0.348139 0
M  V30 6008 C 559.652 2.28111 0.498766 0
M  V30 6009 C 560.633 1.29851 1.09876 0
M  V30 6010 O 561.818 1.587 1.11928 0
M  V30 6011 C 558.948 3.05735 1.64753 0
M  V30 6012 C 557.902 4.11537 1.17565 0
M  V30 6013 C 557.228 4.77142 2.4133 0
M  V30 6014 C 558.528 5.21587 0.272844 0
M  V30 6015 H 560.222 2.99152 -0.121934 0
M  V30 6016 H 557.768 1.43875 -0.0600842 0
M  V30 6017 H 559.721 3.56526 2.24649 0
M  V30 6018 H 558.445 2.32354 2.2952 0
M  V30 6019 H 557.104 3.61665 0.599483 0
M  V30 6020 H 556.752 4.0035 3.04514 0
M  V30 6021 H 556.452 5.48626 2.10436 0
M  V30 6022 H 557.976 5.30719 3.01943 0
M  V30 6023 H 559.39 5.67986 0.778779 0
M  V30 6024 H 557.787 6.00074 0.0555849 0
M  V30 6025 H 558.857 4.79969 -0.689785 0
M  V30 6026 N 560.2 0.0768682 1.57412 0
M  V30 6027 C 561.13 -0.886026 2.16037 0
M  V30 6028 C 562.111 -1.30691 1.08876 0
M  V30 6029 O 563.296 -1.37705 1.36934 0
M  V30 6030 C 560.426 -2.1518 2.72608 0
M  V30 6031 C 559.38 -1.87015 3.8498 0
M  V30 6032 C 558.706 -3.20266 4.28175 0
M  V30 6033 C 560.006 -1.17143 5.08994 0
M  V30 6034 H 561.7 -0.397642 2.96748 0
M  V30 6035 H 559.246 -0.189823 1.42743 0
M  V30 6036 H 561.199 -2.82962 3.12266 0
M  V30 6037 H 559.923 -2.66269 1.89125 0
M  V30 6038 H 558.582 -1.21636 3.45833 0
M  V30 6039 H 558.23 -3.69207 3.41607 0
M  V30 6040 H 557.93 -3.0221 5.03927 0
M  V30 6041 H 559.454 -3.89237 4.70454 0
M  V30 6042 H 560.868 -1.75003 5.45937 0
M  V30 6043 H 559.265 -1.09328 5.90057 0
M  V30 6044 H 560.335 -0.151295 4.84664 0
M  V30 6045 N 561.678 -1.56367 -0.196722 0
M  V30 6046 C 562.588 -1.97617 -1.2643 0
M  V30 6047 C 563.604 -0.883598 -1.49895 0
M  V30 6048 O 564.78 -1.18921 -1.62541 0
M  V30 6049 C 561.845 -2.30595 -2.58895 0
M  V30 6050 C 560.906 -3.53551 -2.43516 0
M  V30 6051 C 560.139 -3.84946 -3.69665 0
M  V30 6052 O 560.362 -3.17655 -4.73763 0
M  V30 6053 O 559.296 -4.78379 -3.65291 0
M  V30 6054 H 563.122 -2.88648 -0.944233 0
M  V30 6055 H 560.707 -1.43901 -0.401592 0
M  V30 6056 H 562.589 -2.52889 -3.37083 0
M  V30 6057 H 561.264 -1.42732 -2.90533 0
M  V30 6058 H 560.171 -3.36507 -1.63445 0
M  V30 6059 H 561.504 -4.41875 -2.16812 0
M  V30 6060 N 563.156 0.464375 -1.50603 0
M  V30 6061 C 564.381 1.24372 -1.65971 0
M  V30 6062 C 564.806 1.84901 -0.345453 0
M  V30 6063 O 564.164 1.67596 0.691457 0
M  V30 6064 C 564.212 2.32331 -2.7578 0
M  V30 6065 O 563.316 3.37146 -2.375 0
M  V30 6066 H 562.657 0.365604 -0.554283 0
M  V30 6067 H 565.187 0.55183 -1.97018 0
M  V30 6068 H 565.197 2.77539 -2.99059 0
M  V30 6069 H 563.872 1.87648 -3.71162 0
M  V30 6070 H 562.449 2.97602 -2.24694 0
M  V30 6071 N 564.634 1.40294 0.718013 0
M  V30 6072 C 565.582 1.40536 1.85344 0
M  V30 6073 C 566.576 0.286192 1.66965 0
M  V30 6074 O 567.782 0.457105 1.74099 0
M  V30 6075 H 564.157 0.439236 0.61039 0
M  V30 6076 H 566.128 2.36275 1.82255 0
M  V30 6077 C 564.877 1.28245 3.23185 0
M  V30 6078 H 564.2 2.1364 3.37932 0
M  V30 6079 H 565.64 1.32474 4.02774 0
M  V30 6080 C 564.099 -0.0075503 3.36899 0
M  V30 6081 O 564.629 -0.971391 3.89778 0
M  V30 6082 N 562.835 -0.0762479 2.905 0
M  V30 6083 H 562.382 0.708819 2.47656 0
M  V30 6084 H 562.34 -0.938846 3.00055 0
M  V30 6085 N 566.112 -0.949982 1.2575 0
M  V30 6086 C 567.361 -1.68956 1.10168 0
M  V30 6087 C 567.674 -1.92327 -0.356309 0
M  V30 6088 O 568.88 -2.64026 -0.632657 0
M  V30 6089 C 567.336 -3.04196 1.92336 0
M  V30 6090 C 566.944 -2.88603 3.42655 0
M  V30 6091 C 568.688 -3.81904 1.85336 0
M  V30 6092 C 566.595 -4.19262 4.17101 0
M  V30 6093 H 565.525 -0.633645 0.408668 0
M  V30 6094 H 568.176 -1.05719 1.49986 0
M  V30 6095 H 566.558 -3.68363 1.45344 0
M  V30 6096 H 567.732 -2.3334 3.97353 0
M  V30 6097 H 566.047 -2.24345 3.50796 0
M  V30 6098 H 568.644 -4.78688 2.38248 0
M  V30 6099 H 568.987 -4.08099 0.822226 0
M  V30 6100 H 569.52 -3.24495 2.30104 0
M  V30 6101 H 566.259 -3.98254 5.20648 0
M  V30 6102 H 565.779 -4.74273 3.67186 0
M  V30 6103 H 567.458 -4.87775 4.25071 0
M  V30 6104 N 567.59 -1.07411 -1.15328 0
M  V30 6105 C 568.537 -0.694995 -2.20087 0
M  V30 6106 C 569.507 0.313904 -1.63107 0
M  V30 6107 O 570.692 0.200216 -1.89747 0
M  V30 6108 C 567.832 -0.0996218 -3.44956 0
M  V30 6109 C 566.945 -1.16007 -4.16133 0
M  V30 6110 C 566.08 -0.529636 -5.28553 0
M  V30 6111 C 565.119 -1.57283 -5.91548 0
M  V30 6112 N 564.256 -0.964932 -6.95438 0
M  V30 6113 H 569.096 -1.5927 -2.51867 0
M  V30 6114 H 566.633 -0.796115 -1.23695 0
M  V30 6115 H 568.591 0.263197 -4.16369 0
M  V30 6116 H 567.221 0.761435 -3.13691 0
M  V30 6117 H 566.273 -1.64045 -3.4321 0
M  V30 6118 H 567.585 -1.95101 -4.59061 0
M  V30 6119 H 566.739 -0.114487 -6.06592 0
M  V30 6120 H 565.478 0.29307 -4.86819 0
M  V30 6121 H 564.483 -1.99775 -5.12221 0
M  V30 6122 H 565.708 -2.39783 -6.35359 0
M  V30 6123 H 563.654 -0.16314 -6.55797 0
M  V30 6124 H 563.571 -1.69311 -7.36797 0
M  V30 6125 H 564.839 -0.575305 -7.77374 0
M  V30 6126 N 569.068 1.32177 -0.85831 0
M  V30 6127 C 570.314 1.97417 -0.46417 0
M  V30 6128 C 570.647 1.67746 0.978514 0
M  V30 6129 O 569.922 0.967654 1.68721 0
M  V30 6130 C 570.205 3.53069 -0.708094 0
M  V30 6131 C 570.058 3.92357 -2.19946 0
M  V30 6132 C 571.377 4.39783 -0.166881 0
M  V30 6133 H 568.496 0.717097 -0.17012 0
M  V30 6134 H 571.138 1.56499 -1.07741 0
M  V30 6135 H 569.288 3.88054 -0.186128 0
M  V30 6136 H 570.96 3.67533 -2.78779 0
M  V30 6137 H 569.203 3.41384 -2.67656 0
M  V30 6138 H 569.874 5.00841 -2.32082 0
M  V30 6139 H 572.35 4.11556 -0.613285 0
M  V30 6140 H 571.226 5.47671 -0.367093 0
M  V30 6141 H 571.487 4.32196 0.930559 0
M  V30 6142 N 570.547 0.616602 1.45037 0
M  V30 6143 C 571.477 -0.0840787 2.33349 0
M  V30 6144 C 572.458 -0.849641 1.4736 0
M  V30 6145 O 573.643 -0.818407 1.76113 0
M  V30 6146 C 570.773 -1.07604 3.3021 0
M  V30 6147 C 569.727 -0.423096 4.25904 0
M  V30 6148 C 569.053 -1.52394 5.12523 0
M  V30 6149 C 570.353 0.661457 5.18095 0
M  V30 6150 H 572.047 0.653333 2.92185 0
M  V30 6151 H 569.593 0.315634 1.40498 0
M  V30 6152 H 571.546 -1.57485 3.90866 0
M  V30 6153 H 570.27 -1.84416 2.69552 0
M  V30 6154 H 568.929 0.05493 3.66559 0
M  V30 6155 H 568.577 -2.28257 4.48227 0
M  V30 6156 H 568.277 -1.09251 5.77354 0
M  V30 6157 H 569.801 -2.02485 5.76049 0
M  V30 6158 H 571.215 0.246353 5.7277 0
M  V30 6159 H 569.612 1.01517 5.91451 0
M  V30 6160 H 570.682 1.53446 4.59981 0
M  V30 6161 N 572.025 -1.5352 0.356285 0
M  V30 6162 C 573.436 -1.86282 -0.12492 0
M  V30 6163 C 573.787 -1.27717 -1.48939 0
M  V30 6164 O 572.912 -0.595614 -2.08042 0
M  V30 6165 C 573.507 -3.37995 -0.23345 0
M  V30 6166 C 572.066 -3.70588 -0.658899 0
M  V30 6167 C 571.213 -2.76581 0.199596 0
M  V30 6168 H 574.164 -1.47901 0.575423 0
M  V30 6169 H 574.185 -3.65475 -1.0587 0
M  V30 6170 H 573.697 -3.8059 0.759776 0
M  V30 6171 H 571.798 -3.33544 -1.66069 0
M  V30 6172 H 571.911 -4.77076 -0.439957 0
M  V30 6173 H 570.275 -2.52552 -0.330076 0
M  V30 6174 H 571.058 -3.22008 1.19019 0
M  V30 6175 N 573.503 -0.0852151 -1.57369 0
M  V30 6176 C 574.731 0.58946 -1.98325 0
M  V30 6177 C 575.146 1.62333 -0.96403 0
M  V30 6178 O 574.503 1.82438 0.0476395 0
M  V30 6179 C 574.554 1.24604 -3.39347 0
M  V30 6180 O 574.275 0.253532 -4.37366 0
M  V30 6181 C 575.776 2.00726 -3.95252 0
M  V30 6182 H 572.996 0.158783 -0.651942 0
M  V30 6183 H 575.54 -0.161584 -2.03861 0
M  V30 6184 H 573.695 1.94808 -3.34856 0
M  V30 6185 H 574.109 0.726207 -5.19448 0
M  V30 6186 H 575.583 2.42039 -4.96106 0
M  V30 6187 H 576.06 2.86919 -3.32527 0
M  V30 6188 H 576.666 1.3536 -4.03185 0
M  V30 6189 N 574.981 1.5647 0.188427 0
M  V30 6190 C 576.227 1.82181 0.904534 0
M  V30 6191 C 576.582 0.663258 1.80606 0
M  V30 6192 O 575.875 -0.341231 1.88537 0
M  V30 6193 C 576.069 3.11596 1.7505 0
M  V30 6194 C 575.898 4.39928 0.932372 0
M  V30 6195 C 574.668 5.01554 0.61417 0
M  V30 6196 C 576.866 5.13527 0.281936 0
M  V30 6197 N 574.848 6.13499 -0.221896 0
M  V30 6198 C 576.219 6.18603 -0.416037 0
M  V30 6199 C 578.274 4.97505 0.198345 0
M  V30 6200 C 576.977 7.09394 -1.18965 0
M  V30 6201 C 579.003 5.88725 -0.561887 0
M  V30 6202 C 578.365 6.93251 -1.24828 0
M  V30 6203 H 574.464 0.717858 0.310168 0
M  V30 6204 H 577.048 1.93932 0.172757 0
M  V30 6205 H 575.219 3.01068 2.45383 0
M  V30 6206 H 576.951 3.25369 2.4066 0
M  V30 6207 H 573.706 4.64174 0.940187 0
M  V30 6208 H 574.13 6.74065 -0.629735 0
M  V30 6209 H 578.772 4.16716 0.714665 0
M  V30 6210 H 576.49 7.8964 -1.71737 0
M  V30 6211 H 580.076 5.78401 -0.628009 0
M  V30 6212 H 578.956 7.62618 -1.82712 0
M  V30 6213 N 576.459 -0.456382 1.50847 0
M  V30 6214 C 577.684 -1.2349 1.66628 0
M  V30 6215 C 578.109 -1.84715 0.355254 0
M  V30 6216 O 577.467 -1.67961 -0.682559 0
M  V30 6217 C 577.515 -2.30865 2.77009 0
M  V30 6218 O 576.619 -3.35882 2.39285 0
M  V30 6219 H 575.96 -0.36266 0.556214 0
M  V30 6220 H 578.49 -0.541374 1.97308 0
M  V30 6221 H 578.5 -2.75949 3.00526 0
M  V30 6222 H 577.175 -1.85677 3.72152 0
M  V30 6223 H 575.752 -2.96406 2.26269 0
M  V30 6224 N 577.937 -1.40673 -0.710563 0
M  V30 6225 C 579.165 -1.42547 -1.4996 0
M  V30 6226 C 579.58 -0.0265485 -1.88781 0
M  V30 6227 O 578.937 0.950694 -1.55782 0
M  V30 6228 C 578.988 -2.32071 -2.77173 0
M  V30 6229 O 578.709 -3.66518 -2.39992 0
M  V30 6230 C 580.21 -2.42591 -3.71032 0
M  V30 6231 H 577.43 -0.486025 -0.462623 0
M  V30 6232 H 579.974 -1.84783 -0.876102 0
M  V30 6233 H 578.129 -1.93184 -3.35795 0
M  V30 6234 H 578.543 -4.14115 -3.21884 0
M  V30 6235 H 580.017 -3.09429 -4.57119 0
M  V30 6236 H 580.494 -1.4525 -4.14486 0
M  V30 6237 H 581.1 -2.82051 -3.18319 0
M  V30 6238 N 579.415 0.9433 -1.26252 0
M  V30 6239 C 580.826 1.50404 -1.10614 0
M  V30 6240 C 581.177 1.93666 0.31429 0
M  V30 6241 O 580.302 1.79709 1.20555 0
M  V30 6242 C 580.897 2.73336 -2.00182 0
M  V30 6243 C 579.456 3.25686 -1.88695 0
M  V30 6244 C 578.603 1.98474 -1.93658 0
M  V30 6245 H 581.554 0.759006 -1.39373 0
M  V30 6246 H 581.575 3.47567 -1.54847 0
M  V30 6247 H 581.087 2.41818 -3.03555 0
M  V30 6248 H 579.188 3.61998 -0.882489 0
M  V30 6249 H 579.301 3.92935 -2.74115 0
M  V30 6250 H 577.665 2.14278 -1.37684 0
M  V30 6251 H 578.448 1.6929 -2.98657 0
M  V30 6252 N 580.893 1.08022 1.14757 0
M  V30 6253 C 582.139 0.808705 1.85978 0
M  V30 6254 C 582.472 -0.663764 1.82504 0
M  V30 6255 O 581.747 -1.48765 1.25296 0
M  V30 6256 C 582.03 1.32623 3.34788 0
M  V30 6257 C 581.883 2.86375 3.46856 0
M  V30 6258 C 583.202 0.948291 4.29762 0
M  V30 6259 H 580.321 0.295244 0.675278 0
M  V30 6260 H 582.963 1.33917 1.34783 0
M  V30 6261 H 581.113 0.875002 3.78518 0
M  V30 6262 H 582.785 3.39839 3.11941 0
M  V30 6263 H 581.028 3.24232 2.88194 0
M  V30 6264 H 581.699 3.17658 4.51439 0
M  V30 6265 H 584.175 1.33722 3.94028 0
M  V30 6266 H 583.051 1.33765 5.32352 0
M  V30 6267 H 583.312 -0.145094 4.41862 0
M  V30 6268 N 582.371 -1.3172 0.865308 0
M  V30 6269 C 583.303 -2.27545 0.274906 0
M  V30 6270 C 584.316 -1.52887 -0.559413 0
M  V30 6271 O 585.505 -1.74361 -0.382166 0
M  V30 6272 C 582.605 -3.33006 -0.629286 0
M  V30 6273 C 581.778 -4.37063 0.171553 0
M  V30 6274 C 580.837 -5.22044 -0.660052 0
M  V30 6275 O 579.863 -5.69129 -0.0897527 0
M  V30 6276 N 581.065 -5.45946 -1.97289 0
M  V30 6277 H 583.83 -2.78848 1.09836 0
M  V30 6278 H 581.391 -1.44693 0.726331 0
M  V30 6279 H 583.383 -3.86772 -1.19121 0
M  V30 6280 H 581.953 -2.81782 -1.35342 0
M  V30 6281 H 581.173 -3.83436 0.914919 0
M  V30 6282 H 582.461 -5.03662 0.721235 0
M  V30 6283 H 581.859 -5.0944 -2.45942 0
M  V30 6284 H 580.416 -6.02665 -2.4827 0
M  V30 6285 N 583.85 -0.624285 -1.44708 0
M  V30 6286 C 585.26 -0.2092 -1.85524 0
M  V30 6287 C 585.611 1.23783 -1.52225 0
M  V30 6288 O 584.736 1.94089 -0.956986 0
M  V30 6289 C 585.332 -0.372897 -3.36742 0
M  V30 6290 C 583.891 -0.012374 -3.76398 0
M  V30 6291 C 583.038 -0.68951 -2.68591 0
M  V30 6292 H 585.989 -0.829894 -1.35272 0
M  V30 6293 H 586.01 0.390134 -3.78495 0
M  V30 6294 H 585.522 -1.42615 -3.60947 0
M  V30 6295 H 583.623 1.03941 -3.57809 0
M  V30 6296 H 583.736 -0.417663 -4.77276 0
M  V30 6297 H 582.1 -0.125484 -2.54391 0
M  V30 6298 H 582.883 -1.74522 -2.9563 0
M  V30 6299 N 585.328 1.53329 -0.364422 0
M  V30 6300 C 586.261 2.22052 0.526145 0
M  V30 6301 C 587.239 1.21203 1.08391 0
M  V30 6302 O 588.423 1.50101 1.14026 0
M  V30 6303 C 585.55 2.91432 1.72583 0
M  V30 6304 C 584.596 4.06345 1.29562 0
M  V30 6305 S 585.429 5.34671 0.297885 0
M  V30 6306 C 586.585 6.07563 1.50392 0
M  V30 6307 H 586.818 2.97244 -0.0575055 0
M  V30 6308 H 584.351 1.53684 -0.148525 0
M  V30 6309 H 586.309 3.3202 2.41398 0
M  V30 6310 H 584.97 2.15966 2.28073 0
M  V30 6311 H 584.163 4.53901 2.19067 0
M  V30 6312 H 583.765 3.67642 0.686696 0
M  V30 6313 H 586.057 6.32224 2.43513 0
M  V30 6314 H 587 6.99973 1.06977 0
M  V30 6315 H 587.408 5.37994 1.70945 0
M  V30 6316 N 586.806 0.0935595 1.57322 0
M  V30 6317 C 587.769 -0.851426 2.12799 0
M  V30 6318 C 588.769 -1.21187 1.0569 0
M  V30 6319 O 589.959 -1.14156 1.31583 0
M  V30 6320 C 587.091 -2.14779 2.64731 0
M  V30 6321 H 588.284 -0.369733 2.97612 0
M  V30 6322 H 585.837 -0.155417 1.55525 0
M  V30 6323 H 586.572 -2.67437 1.83434 0
M  V30 6324 H 586.357 -1.89907 3.43042 0
M  V30 6325 H 587.847 -2.82383 3.07651 0
M  V30 6326 N 588.284 -1.56567 -0.180126 0
M  V30 6327 C 589.214 -1.98753 -1.22553 0
M  V30 6328 C 590.195 -0.86175 -1.46656 0
M  V30 6329 O 591.38 -1.12719 -1.58139 0
M  V30 6330 C 588.51 -2.33988 -2.56645 0
M  V30 6331 C 587.464 -3.49445 -2.47128 0
M  V30 6332 C 586.79 -3.70397 -3.8563 0
M  V30 6333 C 588.09 -4.83171 -1.98352 0
M  V30 6334 H 589.784 -2.86332 -0.874896 0
M  V30 6335 H 587.33 -1.37757 -0.419414 0
M  V30 6336 H 589.283 -2.62097 -3.29974 0
M  V30 6337 H 588.007 -1.43309 -2.93479 0
M  V30 6338 H 586.666 -3.2145 -1.76254 0
M  V30 6339 H 586.314 -2.77023 -4.19842 0
M  V30 6340 H 586.014 -4.48077 -3.80132 0
M  V30 6341 H 587.538 -4.00897 -4.60558 0
M  V30 6342 H 588.952 -5.10213 -2.61449 0
M  V30 6343 H 587.349 -5.64425 -2.03823 0
M  V30 6344 H 588.419 -4.75753 -0.937402 0
M  V30 6345 N 589.762 0.448376 -1.51087 0
M  V30 6346 C 591.011 1.19561 -1.62444 0
M  V30 6347 C 591.324 1.92602 -0.341151 0
M  V30 6348 O 592.53 2.69439 -0.333936 0
M  V30 6349 C 590.986 2.17373 -2.8684 0
M  V30 6350 C 590.594 1.5003 -4.22131 0
M  V30 6351 C 592.338 2.92597 -3.0755 0
M  V30 6352 C 590.245 2.46262 -5.37689 0
M  V30 6353 H 589.175 0.449975 -0.605011 0
M  V30 6354 H 591.826 0.463735 -1.77544 0
M  V30 6355 H 590.208 2.93948 -2.65349 0
M  V30 6356 H 591.382 0.790886 -4.53962 0
M  V30 6357 H 589.697 0.870011 -4.0721 0
M  V30 6358 H 592.294 3.64663 -3.91056 0
M  V30 6359 H 592.637 3.53306 -2.20183 0
M  V30 6360 H 593.17 2.23131 -3.29329 0
M  V30 6361 H 589.909 1.90258 -6.27281 0
M  V30 6362 H 589.429 3.15289 -5.10248 0
M  V30 6363 H 591.108 3.07623 -5.6919 0
M  V30 6364 N 591.24 1.41047 0.703093 0
M  V30 6365 C 592.486 1.40207 1.46526 0
M  V30 6366 C 592.819 0.00847763 1.94198 0
M  V30 6367 O 592.094 -0.962437 1.69019 0
M  V30 6368 C 592.377 2.40238 2.6825 0
M  V30 6369 C 592.23 3.88674 2.26391 0
M  V30 6370 C 593.549 2.37627 3.70434 0
M  V30 6371 H 590.668 0.510594 0.531472 0
M  V30 6372 H 593.31 1.72271 0.801422 0
M  V30 6373 H 591.46 2.13026 3.24888 0
M  V30 6374 H 593.132 4.2676 1.75138 0
M  V30 6375 H 591.375 4.03903 1.58255 0
M  V30 6376 H 592.046 4.542 3.13698 0
M  V30 6377 H 594.522 2.61759 3.23452 0
M  V30 6378 H 593.398 3.09645 4.53223 0
M  V30 6379 H 593.659 1.39223 4.19606 0
M  V30 6380 N 592.718 -0.936591 1.26751 0
M  V30 6381 C 593.648 -2.05315 1.11212 0
M  V30 6382 C 594.629 -1.70092 0.0160262 0
M  V30 6383 O 595.814 -1.93279 0.188894 0
M  V30 6384 C 592.944 -3.39123 0.749171 0
M  V30 6385 C 591.898 -3.88425 1.79751 0
M  V30 6386 C 591.224 -5.18936 1.28876 0
M  V30 6387 C 592.524 -4.12798 3.19992 0
M  V30 6388 H 594.218 -2.18573 2.04613 0
M  V30 6389 H 591.764 -1.05027 0.985159 0
M  V30 6390 H 593.717 -4.16704 0.627323 0
M  V30 6391 H 592.441 -3.25855 -0.220543 0
M  V30 6392 H 591.1 -3.13028 1.90811 0
M  V30 6393 H 590.748 -5.02051 0.308757 0
M  V30 6394 H 590.448 -5.52892 1.98958 0
M  V30 6395 H 591.972 -5.99096 1.17967 0
M  V30 6396 H 593.386 -4.80977 3.11983 0
M  V30 6397 H 591.783 -4.58044 3.87705 0
M  V30 6398 H 592.853 -3.18412 3.65707 0
M  V30 6399 N 594.196 -1.08629 -1.14182 0
M  V30 6400 C 595.444 -0.815731 -1.84906 0
M  V30 6401 C 595.765 0.660441 -1.83475 0
M  V30 6402 O 595.035 1.47888 -1.28476 0
M  V30 6403 H 593.615 -0.298773 -0.684648 0
M  V30 6404 H 596.277 -1.37274 -1.38354 0
M  V30 6405 H 595.373 -1.16193 -2.89665 0
M  V30 6406 N 595.674 1.31259 -0.872281 0
M  V30 6407 C 596.922 1.96233 -0.483409 0
M  V30 6408 C 597.243 1.69276 0.968012 0
M  V30 6409 O 596.513 1.00943 1.67891 0
M  V30 6410 H 595.093 0.726025 -0.175774 0
M  V30 6411 H 597.755 1.60024 -1.11258 0
M  V30 6412 H 596.851 3.05403 -0.643075 0
M  V30 6413 N 597.152 0.631951 1.44375 0
M  V30 6414 C 598.398 0.13697 2.02337 0
M  V30 6415 C 598.731 -1.23826 1.49602 0
M  V30 6416 O 598.006 -1.8221 0.680415 0
M  V30 6417 C 598.289 0.124536 3.59885 0
M  V30 6418 C 598.142 1.53217 4.229 0
M  V30 6419 C 599.461 -0.550481 4.36644 0
M  V30 6420 H 596.58 0.051247 0.735216 0
M  V30 6421 H 599.222 0.808581 1.71936 0
M  V30 6422 H 597.372 -0.44737 3.85916 0
M  V30 6423 H 599.044 2.15303 4.07973 0
M  V30 6424 H 597.287 2.0858 3.80364 0
M  V30 6425 H 597.958 1.4755 5.31914 0
M  V30 6426 H 600.434 -0.0641154 4.16051 0
M  V30 6427 H 599.31 -0.528371 5.46351 0
M  V30 6428 H 599.571 -1.62097 4.11311 0
M  V30 6429 N 598.631 -1.53133 0.372548 0
M  V30 6430 C 599.594 -2.24569 -0.458389 0
M  V30 6431 C 600.594 -1.25603 -1.00402 0
M  V30 6432 O 601.784 -1.49827 -0.888672 0
M  V30 6433 C 598.916 -2.98783 -1.6414 0
M  V30 6434 H 600.109 -2.99436 0.166799 0
M  V30 6435 H 597.662 -1.55805 0.124357 0
M  V30 6436 H 598.397 -2.28176 -2.30448 0
M  V30 6437 H 598.182 -3.71404 -1.25704 0
M  V30 6438 H 599.672 -3.53068 -2.23008 0
M  V30 6439 N 600.109 -0.101901 -1.5727 0
M  V30 6440 C 601.357 0.559091 -1.94213 0
M  V30 6441 C 601.678 1.68297 -0.984948 0
M  V30 6442 O 600.948 1.95863 -0.0381975 0
M  V30 6443 H 599.528 0.20952 -0.717015 0
M  V30 6444 H 602.19 -0.166831 -1.94185 0
M  V30 6445 H 601.286 0.96485 -2.96811 0
M  V30 6446 N 601.587 1.56661 0.17182 0
M  V30 6447 C 602.517 1.99401 1.21498 0
M  V30 6448 C 603.498 0.869516 1.46197 0
M  V30 6449 O 604.683 1.13556 1.57539 0
M  V30 6450 C 601.813 2.35346 2.55401 0
M  V30 6451 C 600.767 3.5075 2.45272 0
M  V30 6452 C 600.093 3.72437 3.8366 0
M  V30 6453 C 601.393 4.84216 1.95787 0
M  V30 6454 H 603.087 2.86792 0.859699 0
M  V30 6455 H 600.633 1.37977 0.412103 0
M  V30 6456 H 602.586 2.63843 3.2858 0
M  V30 6457 H 601.31 1.44864 2.92715 0
M  V30 6458 H 599.969 3.2238 1.74547 0
M  V30 6459 H 599.617 2.79246 4.18367 0
M  V30 6460 H 599.317 4.50087 3.77751 0
M  V30 6461 H 600.841 4.03334 4.58426 0
M  V30 6462 H 602.255 5.11592 2.5874 0
M  V30 6463 H 600.652 5.65498 2.00827 0
M  V30 6464 H 601.722 4.76243 0.912159 0
M  V30 6465 N 603.065 -0.440357 1.51323 0
M  V30 6466 C 603.995 -1.54174 1.75364 0
M  V30 6467 C 604.976 -1.59039 0.603375 0
M  V30 6468 O 606.161 -1.74815 0.845774 0
M  V30 6469 C 603.291 -2.92277 1.87593 0
M  V30 6470 C 602.245 -3.02274 3.03009 0
M  V30 6471 C 601.571 -4.42327 3.00418 0
M  V30 6472 C 602.871 -2.76634 4.43024 0
M  V30 6473 H 604.565 -1.34307 2.67585 0
M  V30 6474 H 602.111 -0.644678 1.28763 0
M  V30 6475 H 604.064 -3.69284 2.02995 0
M  V30 6476 H 602.788 -3.13369 0.920179 0
M  V30 6477 H 601.447 -2.27706 2.87307 0
M  V30 6478 H 601.095 -4.60382 2.02626 0
M  V30 6479 H 600.795 -4.49946 3.77918 0
M  V30 6480 H 602.319 -5.21312 3.17909 0
M  V30 6481 H 603.733 -3.43376 4.59093 0
M  V30 6482 H 602.13 -2.95666 5.22208 0
M  V30 6483 H 603.2 -1.72262 4.5327 0
M  V30 6484 N 604.543 -1.41418 -0.695603 0
M  V30 6485 C 605.473 -1.46035 -1.82197 0
M  V30 6486 C 606.454 -0.319025 -1.67082 0
M  V30 6487 O 607.639 -0.530462 -1.86815 0
M  V30 6488 C 604.769 -1.34179 -3.20333 0
M  V30 6489 C 603.723 -2.46123 -3.50154 0
M  V30 6490 C 603.049 -2.19332 -4.87645 0
M  V30 6491 C 604.349 -3.88463 -3.49133 0
M  V30 6492 H 606.043 -2.40303 -1.78591 0
M  V30 6493 H 603.589 -1.15663 -0.857797 0
M  V30 6494 H 605.542 -1.36021 -3.98844 0
M  V30 6495 H 604.266 -0.363952 -3.24566 0
M  V30 6496 H 602.925 -2.43563 -2.73994 0
M  V30 6497 H 602.573 -1.19891 -4.88503 0
M  V30 6498 H 602.273 -2.94344 -5.08562 0
M  V30 6499 H 603.797 -2.22889 -5.68465 0
M  V30 6500 H 605.211 -3.92738 -4.17648 0
M  V30 6501 H 603.608 -4.63158 -3.81582 0
M  V30 6502 H 604.678 -4.16617 -2.48109 0
M  V30 6503 N 606.021 0.929856 -1.27246 0
M  V30 6504 C 607.268 1.67731 -1.13457 0
M  V30 6505 C 607.596 1.9185 0.319998 0
M  V30 6506 O 606.851 1.50524 1.25064 0
M  V30 6507 C 607.15 3.05116 -1.86115 0
M  V30 6508 C 606.816 3.00715 -3.35978 0
M  V30 6509 C 605.478 2.99222 -3.76855 0
M  V30 6510 C 607.83 2.92168 -4.3161 0
M  V30 6511 C 605.158 2.86962 -5.11732 0
M  V30 6512 C 607.51 2.81449 -5.66542 0
M  V30 6513 C 606.174 2.78305 -6.06715 0
M  V30 6514 H 605.444 0.613772 -0.415168 0
M  V30 6515 H 608.091 1.08456 -1.57827 0
M  V30 6516 H 606.396 3.68083 -1.34246 0
M  V30 6517 H 608.093 3.61822 -1.72876 0
M  V30 6518 H 604.683 3.02664 -3.03468 0
M  V30 6519 H 608.867 2.92421 -4.01003 0
M  V30 6520 H 604.123 2.82913 -5.42006 0
M  V30 6521 H 608.297 2.738 -6.40317 0
M  V30 6522 H 605.924 2.68561 -7.11181 0
M  V30 6523 N 607.499 1.09233 1.13605 0
M  V30 6524 C 608.748 0.82205 1.84188 0
M  V30 6525 C 609.061 -0.654548 1.84323 0
M  V30 6526 O 610.267 -1.04029 2.50779 0
M  V30 6527 C 608.723 1.42066 3.30674 0
M  V30 6528 C 608.331 2.92965 3.38933 0
M  V30 6529 C 610.075 1.22924 4.06313 0
M  V30 6530 C 607.982 3.45922 4.79679 0
M  V30 6531 H 606.912 0.303854 0.690064 0
M  V30 6532 H 609.563 1.31479 1.28006 0
M  V30 6533 H 607.945 0.855613 3.86646 0
M  V30 6534 H 609.119 3.55679 2.92966 0
M  V30 6535 H 607.434 3.11118 2.76757 0
M  V30 6536 H 610.031 1.59945 5.10217 0
M  V30 6537 H 610.374 0.169726 4.15954 0
M  V30 6538 H 610.907 1.76168 3.56665 0
M  V30 6539 H 607.646 4.51484 4.75229 0
M  V30 6540 H 607.166 2.87971 5.26149 0
M  V30 6541 H 608.845 3.43009 5.48592 0
M  V30 6542 N 608.977 -1.30795 0.87923 0
M  V30 6543 C 610.225 -1.95974 0.493809 0
M  V30 6544 C 610.546 -1.69787 -0.959021 0
M  V30 6545 O 609.816 -1.01832 -1.67353 0
M  V30 6546 H 608.396 -0.725083 0.179622 0
M  V30 6547 H 611.058 -1.59432 1.12105 0
M  V30 6548 H 610.154 -3.05058 0.659263 0
M  V30 6549 N 610.455 -0.639598 -1.44038 0
M  V30 6550 C 611.385 0.0469443 -2.33453 0
M  V30 6551 C 612.366 0.82609 -1.48694 0
M  V30 6552 O 613.551 0.790285 -1.77393 0
M  V30 6553 C 610.681 1.02338 -3.3188 0
M  V30 6554 C 609.635 0.355284 -4.26523 0
M  V30 6555 C 608.961 1.44221 -5.14883 0
M  V30 6556 C 610.261 -0.743798 -5.16977 0
M  V30 6557 H 611.955 -0.699735 -2.91108 0
M  V30 6558 H 609.501 -0.337946 -1.39978 0
M  V30 6559 H 611.454 1.51247 -3.93322 0
M  V30 6560 H 610.178 1.80105 -2.72451 0
M  V30 6561 H 608.837 -0.113239 -3.66425 0
M  V30 6562 H 608.485 2.21097 -4.51802 0
M  V30 6563 H 608.185 1.00052 -5.79019 0
M  V30 6564 H 609.709 1.93295 -5.79197 0
M  V30 6565 H 611.123 -0.337444 -5.72306 0
M  V30 6566 H 609.52 -1.10914 -5.89761 0
M  V30 6567 H 610.59 -1.60745 -4.57481 0
M  V30 6568 N 611.933 1.52934 -0.380664 0
M  V30 6569 C 613.181 2.01069 0.203874 0
M  V30 6570 C 613.502 1.26922 1.4804 0
M  V30 6571 O 612.772 0.386787 1.92044 0
M  V30 6572 H 611.352 0.742882 0.0783279 0
M  V30 6573 H 614.014 1.88099 -0.510368 0
M  V30 6574 H 613.11 3.09258 0.42021 0
M  V30 6575 N 613.412 0.11024 1.57214 0
M  V30 6576 C 614.661 -0.549638 1.94067 0
M  V30 6577 C 614.974 -1.68388 0.995234 0
M  V30 6578 O 616.18 -2.40593 1.25807 0
M  V30 6579 C 614.636 -1.02912 3.44873 0
M  V30 6580 C 614.244 0.0761861 4.47935 0
M  V30 6581 C 615.988 -1.66087 3.9066 0
M  V30 6582 C 613.895 -0.419502 5.8991 0
M  V30 6583 H 612.825 -0.209092 0.724428 0
M  V30 6584 H 615.476 0.188683 1.82527 0
M  V30 6585 H 613.858 -1.82159 3.51616 0
M  V30 6586 H 615.032 0.852185 4.52851 0
M  V30 6587 H 613.347 0.614052 4.11847 0
M  V30 6588 H 615.944 -2.04272 4.94143 0
M  V30 6589 H 616.287 -2.53591 3.30148 0
M  V30 6590 H 616.82 -0.933959 3.86681 0
M  V30 6591 H 613.559 0.419277 6.54158 0
M  V30 6592 H 613.079 -1.16217 5.88433 0
M  V30 6593 H 614.758 -0.883577 6.40938 0
M  V30 6594 N 614.89 -1.56749 -0.16351 0
M  V30 6595 C 616.137 -1.82434 -0.878866 0
M  V30 6596 C 616.465 -0.688557 -1.81904 0
M  V30 6597 O 615.72 0.323644 -1.93005 0
M  V30 6598 C 616.019 -3.14342 -1.70071 0
M  V30 6599 C 615.685 -4.41647 -0.908775 0
M  V30 6600 C 614.347 -4.76224 -0.690236 0
M  V30 6601 C 616.699 -5.19998 -0.353815 0
M  V30 6602 C 614.027 -5.86624 0.0942374 0
M  V30 6603 C 616.379 -6.3122 0.41761 0
M  V30 6604 C 615.043 -6.64358 0.646879 0
M  V30 6605 H 614.313 -0.667574 -0.3216 0
M  V30 6606 H 616.96 -1.90963 -0.14337 0
M  V30 6607 H 615.265 -3.0119 -2.50583 0
M  V30 6608 H 616.962 -3.31426 -2.25738 0
M  V30 6609 H 613.552 -4.1453 -1.08916 0
M  V30 6610 H 617.736 -4.93673 -0.509975 0
M  V30 6611 H 612.992 -6.10751 0.281529 0
M  V30 6612 H 617.166 -6.91133 0.854849 0
M  V30 6613 H 614.793 -7.49742 1.25662 0
M  V30 6614 N 616.368 0.432326 -1.51554 0
M  V30 6615 C 617.615 1.18134 -1.64471 0
M  V30 6616 C 617.943 1.91076 -0.363349 0
M  V30 6617 O 617.198 1.84492 0.65279 0
M  V30 6618 C 617.497 2.21907 -2.80164 0
M  V30 6619 C 617.163 1.65941 -4.19255 0
M  V30 6620 C 615.825 1.50401 -4.57092 0
M  V30 6621 C 618.177 1.24843 -5.06027 0
M  V30 6622 C 615.505 0.922443 -5.79403 0
M  V30 6623 C 617.857 0.68113 -6.28922 0
M  V30 6624 C 616.521 0.512673 -6.65528 0
M  V30 6625 H 615.791 0.432283 -0.601841 0
M  V30 6626 H 618.438 0.471701 -1.856 0
M  V30 6627 H 616.743 2.98928 -2.53277 0
M  V30 6628 H 618.44 2.79691 -2.87357 0
M  V30 6629 H 615.03 1.79014 -3.89425 0
M  V30 6630 H 619.214 1.35667 -4.77397 0
M  V30 6631 H 614.47 0.779733 -6.06408 0
M  V30 6632 H 618.644 0.35418 -6.95499 0
M  V30 6633 H 616.271 0.0599084 -7.60176 0
M  V30 6634 N 617.846 1.41785 0.688094 0
M  V30 6635 C 619.086 1.43018 1.46032 0
M  V30 6636 C 619.45 0.0402632 1.91958 0
M  V30 6637 O 620.651 -0.0726425 2.68702 0
M  V30 6638 C 618.922 2.4151 2.63453 0
M  V30 6639 S 620.481 2.61335 3.5249 0
M  V30 6640 H 617.299 0.506546 0.498931 0
M  V30 6641 H 619.901 1.78283 0.80221 0
M  V30 6642 H 618.605 3.41286 2.27929 0
M  V30 6643 H 618.136 2.07624 3.34149 0
M  V30 6644 H 620.151 1.88637 4.58945 0
M  V30 6645 N 619.324 -0.923095 1.27737 0
M  V30 6646 C 620.57 -1.67375 1.14514 0
M  V30 6647 C 620.903 -1.91751 -0.307424 0
M  V30 6648 O 620.178 -1.51119 -1.22447 0
M  V30 6649 C 620.461 -3.03745 1.9342 0
M  V30 6650 C 620.314 -2.86581 3.46686 0
M  V30 6651 C 621.633 -4.04144 1.74228 0
M  V30 6652 H 618.752 -0.607427 0.417374 0
M  V30 6653 H 621.394 -1.07089 1.56946 0
M  V30 6654 H 619.544 -3.55204 1.5736 0
M  V30 6655 H 621.216 -2.42203 3.92601 0
M  V30 6656 H 619.459 -2.21829 3.72793 0
M  V30 6657 H 620.13 -3.83381 3.97143 0
M  V30 6658 H 622.606 -3.61712 2.05678 0
M  V30 6659 H 621.482 -4.97543 2.31824 0
M  V30 6660 H 621.743 -4.36661 0.691373 0
M  V30 6661 N 620.802 -1.09834 -1.13024 0
M  V30 6662 C 622.218 -0.828875 -1.36388 0
M  V30 6663 C 622.418 0.554756 -1.93713 0
M  V30 6664 O 621.474 1.30882 -2.15931 0
M  V30 6665 C 622.787 -1.92352 -2.3113 0
M  V30 6666 C 624.335 -1.95124 -2.44735 0
M  V30 6667 C 624.81 -3.03745 -3.42787 0
M  V30 6668 N 626.301 -3.03012 -3.5034 0
M  V30 6669 C 627.036 -3.83699 -4.26101 0
M  V30 6670 N 626.532 -4.74306 -5.04981 0
M  V30 6671 N 628.325 -3.71942 -4.21445 0
M  V30 6672 H 620.476 -1.99029 -0.74169 0
M  V30 6673 H 622.739 -0.864557 -0.388903 0
M  V30 6674 H 622.445 -2.91906 -1.96172 0
M  V30 6675 H 622.319 -1.80536 -3.3119 0
M  V30 6676 H 624.706 -0.962069 -2.78977 0
M  V30 6677 H 624.787 -2.11018 -1.44586 0
M  V30 6678 H 624.431 -4.02878 -3.09276 0
M  V30 6679 H 624.361 -2.85094 -4.42752 0
M  V30 6680 H 626.852 -2.37352 -2.94062 0
M  V30 6681 H 627.165 -5.32446 -5.60108 0
M  V30 6682 H 625.51 -4.78339 -5.04199 0
M  V30 6683 H 628.701 -3.00513 -3.589 0
M  V30 6684 H 628.874 -4.35062 -4.80235 0
M  V30 6685 N 622.28 1.30327 -0.886154 0
M  V30 6686 C 623.52 1.97886 -0.511912 0
M  V30 6687 C 623.884 1.68417 0.921944 0
M  V30 6688 O 625.085 2.29319 1.40237 0
M  V30 6689 C 623.356 3.48775 -0.780444 0
M  V30 6690 S 624.915 4.35844 -0.508482 0
M  V30 6691 H 621.733 0.685024 -0.190428 0
M  V30 6692 H 624.335 1.58413 -1.14567 0
M  V30 6693 H 623.039 3.67714 -1.82248 0
M  V30 6694 H 622.57 3.93171 -0.134284 0
M  V30 6695 H 624.585 4.91893 0.65239 0
M  V30 6696 N 623.758 0.647228 1.43697 0
M  V30 6697 C 625.174 0.314256 1.56476 0
M  V30 6698 C 625.374 -1.18191 1.63196 0
M  V30 6699 O 624.43 -1.96655 1.58376 0
M  V30 6700 C 625.743 1.02034 2.82859 0
M  V30 6701 C 627.291 1.00002 2.96595 0
M  V30 6702 C 627.766 1.68689 4.25803 0
M  V30 6703 N 629.257 1.65424 4.32654 0
M  V30 6704 C 629.992 2.1545 5.31384 0
M  V30 6705 N 629.488 2.73738 6.36427 0
M  V30 6706 N 631.281 2.05985 5.22998 0
M  V30 6707 H 623.432 1.61821 1.37578 0
M  V30 6708 H 625.695 0.680184 0.660344 0
M  V30 6709 H 625.401 2.07542 2.83935 0
M  V30 6710 H 625.275 0.568146 3.72897 0
M  V30 6711 H 627.662 -0.0466319 2.95063 0
M  V30 6712 H 627.743 1.49086 2.07863 0
M  V30 6713 H 627.387 2.73308 4.28095 0
M  V30 6714 H 627.317 1.17076 5.13421 0
M  V30 6715 H 629.808 1.22884 3.57363 0
M  V30 6716 H 630.121 3.09602 7.08072 0
M  V30 6717 H 628.466 2.77796 6.37067 0
M  V30 6718 H 631.657 1.60157 4.39849 0
M  V30 6719 H 631.83 2.45281 5.99784 0
M  V30 6720 N 625.236 -1.5273 0.388769 0
M  V30 6721 C 626.186 -2.23238 -0.463567 0
M  V30 6722 C 627.17 -1.23606 -1.03007 0
M  V30 6723 O 628.362 -1.48945 -0.956261 0
M  V30 6724 C 625.491 -3.04228 -1.5906 0
M  V30 6725 C 624.577 -4.11255 -1.03587 0
M  V30 6726 N 624.968 -5.0538 -0.206038 0
M  V30 6727 C 623.266 -4.26376 -1.30841 0
M  V30 6728 C 623.967 -5.81613 0.100359 0
M  V30 6729 N 622.943 -5.41264 -0.503447 0
M  V30 6730 H 626.745 -2.93367 0.176978 0
M  V30 6731 H 624.259 -1.61188 0.198046 0
M  V30 6732 H 626.256 -3.53277 -2.21362 0
M  V30 6733 H 624.916 -2.35634 -2.23398 0
M  V30 6734 H 625.927 -5.17663 0.156659 0
M  V30 6735 H 622.604 -3.69011 -1.95287 0
M  V30 6736 H 623.994 -6.67442 0.772676 0
M  V30 6737 N 626.714 -0.118576 -1.57153 0
M  V30 6738 C 628.13 0.238014 -1.57815 0
M  V30 6739 C 628.33 1.66747 -1.13127 0
M  V30 6740 O 627.386 2.38867 -0.818462 0
M  V30 6741 C 628.699 0.00508207 -3.007 0
M  V30 6742 C 630.247 0.0710139 -3.12919 0
M  V30 6743 C 630.722 -0.13422 -4.57803 0
M  V30 6744 N 632.213 -0.0801755 -4.63131 0
M  V30 6745 C 632.948 -0.213885 -5.73001 0
M  V30 6746 N 632.444 -0.403742 -6.91623 0
M  V30 6747 N 634.237 -0.15349 -5.6189 0
M  V30 6748 H 626.388 -1.05226 -1.84503 0
M  V30 6749 H 628.651 -0.414318 -0.852669 0
M  V30 6750 H 628.357 -0.983125 -3.3768 0
M  V30 6751 H 628.231 0.73714 -3.69927 0
M  V30 6752 H 630.618 1.04975 -2.75798 0
M  V30 6753 H 630.699 -0.692918 -2.46236 0
M  V30 6754 H 630.343 -1.10992 -4.95624 0
M  V30 6755 H 630.273 0.649692 -5.22577 0
M  V30 6756 H 632.764 0.0630689 -3.77847 0
M  V30 6757 H 633.077 -0.496645 -7.71202 0
M  V30 6758 H 631.422 -0.43971 -6.93608 0
M  V30 6759 H 634.613 -0.00613174 -4.681 0
M  V30 6760 H 634.786 -0.261138 -6.47474 0
M  V30 6761 N 628.193 1.56834 0.155195 0
M  V30 6762 C 629.609 1.51315 0.50755 0
M  V30 6763 C 629.809 0.825614 1.83809 0
M  V30 6764 O 628.865 0.39271 2.49427 0
M  V30 6765 C 630.178 2.96074 0.52542 0
M  V30 6766 C 631.726 3.06968 0.611505 0
M  V30 6767 C 632.201 4.53218 0.660115 0
M  V30 6768 N 633.692 4.5753 0.722564 0
M  V30 6769 C 634.427 5.68056 0.781023 0
M  V30 6770 N 633.923 6.88173 0.799327 0
M  V30 6771 N 635.716 5.56068 0.821278 0
M  V30 6772 H 627.867 1.9993 -0.717063 0
M  V30 6773 H 630.13 0.911507 -0.260496 0
M  V30 6774 H 629.836 3.49599 -0.383875 0
M  V30 6775 H 629.71 3.51587 1.36624 0
M  V30 6776 H 632.097 2.53468 1.51122 0
M  V30 6777 H 632.178 2.54513 -0.256306 0
M  V30 6778 H 631.822 5.07354 -0.23541 0
M  V30 6779 H 631.752 5.03447 1.5443 0
M  V30 6780 H 634.243 3.71054 0.716049 0
M  V30 6781 H 634.556 7.6816 0.845553 0
M  V30 6782 H 632.901 6.90751 0.767337 0
M  V30 6783 H 636.092 4.61142 0.804091 0
M  V30 6784 H 636.265 6.42223 0.863372 0
M  V30 6785 N 629.671 -0.424282 1.51781 0
M  V30 6786 C 631.087 -0.761768 1.40247 0
M  V30 6787 C 631.287 -1.95324 0.495041 0
M  V30 6788 O 630.343 -2.5246 -0.0448949 0
M  V30 6789 C 631.656 -1.0299 2.82513 0
M  V30 6790 C 633.204 -1.13354 2.91753 0
M  V30 6791 C 633.679 -1.43453 4.34954 0
M  V30 6792 N 635.17 -1.5035 4.3812 0
M  V30 6793 C 635.905 -1.75236 5.45967 0
M  V30 6794 N 635.401 -1.97827 6.63955 0
M  V30 6795 N 637.194 -1.77126 5.33463 0
M  V30 6796 H 629.345 0.360228 2.09323 0
M  V30 6797 H 631.608 0.0988128 0.942836 0
M  V30 6798 H 631.314 -0.226961 3.50967 0
M  V30 6799 H 631.188 -1.95411 3.22637 0
M  V30 6800 H 633.575 -1.92709 2.23489 0
M  V30 6801 H 633.656 -0.188041 2.55108 0
M  V30 6802 H 633.3 -0.646209 5.03772 0
M  V30 6803 H 633.23 -2.3923 4.69123 0
M  V30 6804 H 635.721 -1.34742 3.53062 0
M  V30 6805 H 636.034 -2.16223 7.41935 0
M  V30 6806 H 634.379 -1.95123 6.67047 0
M  V30 6807 H 637.57 -1.59005 4.40267 0
M  V30 6808 H 637.743 -1.96182 6.17589 0
M  V30 6809 N 631.149 -1.42148 -0.680565 0
M  V30 6810 C 632.081 -1.41119 -1.80605 0
M  V30 6811 C 633.094 -0.311099 -1.598 0
M  V30 6812 O 634.283 -0.573813 -1.69026 0
M  V30 6813 C 631.383 -1.18204 -3.17618 0
M  V30 6814 C 630.556 -2.40537 -3.65322 0
M  V30 6815 C 629.615 -2.13254 -4.8105 0
M  V30 6816 O 628.641 -2.8641 -4.91892 0
M  V30 6817 N 629.843 -1.13208 -5.69354 0
M  V30 6818 H 632.608 -2.38128 -1.81975 0
M  V30 6819 H 630.169 -1.36953 -0.863446 0
M  V30 6820 H 632.161 -0.97878 -3.92686 0
M  V30 6821 H 630.731 -0.29738 -3.11182 0
M  V30 6822 H 629.951 -2.76468 -2.80996 0
M  V30 6823 H 631.239 -3.22012 -3.93936 0
M  V30 6824 H 630.637 -0.526893 -5.63241 0
M  V30 6825 H 629.194 -0.988699 -6.44258 0
M  V30 6826 N 632.627 0.916307 -1.28225 0
M  V30 6827 C 633.59 1.99996 -1.11957 0
M  V30 6828 C 634.59 1.60688 -0.0600152 0
M  V30 6829 O 635.78 1.71499 -0.30558 0
M  V30 6830 C 632.912 3.33458 -0.708411 0
M  V30 6831 H 634.105 2.15858 -2.08196 0
M  V30 6832 H 631.658 1.09863 -1.11175 0
M  V30 6833 H 632.393 3.23297 0.254859 0
M  V30 6834 H 632.178 3.63349 -1.47377 0
M  V30 6835 H 633.668 4.13014 -0.617164 0
M  V30 6836 N 634.105 1.10431 1.1244 0
M  V30 6837 C 635.015 0.765502 2.21759 0
M  V30 6838 C 636.031 -0.236966 1.72379 0
M  V30 6839 O 637.207 -0.0757329 2.01258 0
M  V30 6840 C 634.272 0.202316 3.46109 0
M  V30 6841 C 633.333 1.26205 4.1033 0
M  V30 6842 C 632.566 0.725648 5.28744 0
M  V30 6843 O 632.789 -0.447942 5.68638 0
M  V30 6844 O 631.723 1.48555 5.83279 0
M  V30 6845 H 635.549 1.67801 2.53133 0
M  V30 6846 H 633.134 0.879443 1.20773 0
M  V30 6847 H 635.016 -0.107918 4.21262 0
M  V30 6848 H 633.691 -0.683052 3.16411 0
M  V30 6849 H 632.598 1.62514 3.36957 0
M  V30 6850 H 633.931 2.12044 4.44183 0
M  V30 6851 N 635.583 -1.29855 0.893053 0
M  V30 6852 C 636.999 -1.48366 0.588199 0
M  V30 6853 C 637.199 -1.81654 -0.872018 0
M  V30 6854 O 636.255 -1.909 -1.65268 0
M  V30 6855 C 637.568 -2.60136 1.5083 0
M  V30 6856 C 639.116 -2.74014 1.51279 0
M  V30 6857 C 639.591 -3.88905 2.41902 0
M  V30 6858 N 641.082 -3.96228 2.39911 0
M  V30 6859 C 641.817 -4.84458 3.06738 0
M  V30 6860 N 641.313 -5.77426 3.8282 0
M  V30 6861 N 643.106 -4.77894 2.95929 0
M  V30 6862 H 635.257 -1.06522 1.83757 0
M  V30 6863 H 637.52 -0.528495 0.787018 0
M  V30 6864 H 637.226 -2.42383 2.54839 0
M  V30 6865 H 637.1 -3.56793 1.22388 0
M  V30 6866 H 639.487 -2.91167 0.480179 0
M  V30 6867 H 639.568 -1.77952 1.83757 0
M  V30 6868 H 639.212 -3.72508 3.45253 0
M  V30 6869 H 639.142 -4.84322 2.06737 0
M  V30 6870 H 641.633 -3.29728 1.84629 0
M  V30 6871 H 641.946 -6.41529 4.30883 0
M  V30 6872 H 640.291 -5.77332 3.86927 0
M  V30 6873 H 643.482 -4.04248 2.36012 0
M  V30 6874 H 643.655 -5.46444 3.48286 0
M  V30 6875 N 637.061 -0.65484 -1.43351 0
M  V30 6876 C 637.994 0.0855537 -2.2804 0
M  V30 6877 C 638.972 0.828301 -1.39921 0
M  V30 6878 O 640.156 0.827539 -1.69364 0
M  V30 6879 C 637.283 1.12792 -3.19368 0
M  V30 6880 C 636.329 0.483037 -4.23756 0
M  V30 6881 S 637.162 -0.744605 -5.30298 0
M  V30 6882 C 638.318 0.297187 -6.25194 0
M  V30 6883 H 638.551 -0.632831 -2.90487 0
M  V30 6884 H 636.084 -0.44373 -1.47886 0
M  V30 6885 H 638.042 1.7243 -3.72529 0
M  V30 6886 H 636.703 1.81863 -2.56095 0
M  V30 6887 H 635.896 1.26888 -4.87766 0
M  V30 6888 H 635.498 -0.0392713 -3.73979 0
M  V30 6889 H 637.79 1.1629 -6.67445 0
M  V30 6890 H 638.733 -0.30793 -7.0743 0
M  V30 6891 H 639.141 0.633721 -5.60932 0
M  V30 6892 N 638.539 1.52521 -0.396863 0
M  V30 6893 C 639.764 2.06571 0.185258 0
M  V30 6894 C 640.189 1.26605 1.39115 0
M  V30 6895 O 639.547 0.293055 1.78916 0
M  V30 6896 C 639.595 3.5674 0.526189 0
M  V30 6897 O 638.699 3.7929 1.61903 0
M  V30 6898 H 638.04 0.663712 0.0195474 0
M  V30 6899 H 640.57 1.966 -0.566519 0
M  V30 6900 H 640.58 4.00311 0.788338 0
M  V30 6901 H 639.255 4.14379 -0.355397 0
M  V30 6902 H 637.832 3.47605 1.35 0
M  V30 6903 N 640.017 0.126909 1.57088 0
M  V30 6904 C 640.949 -0.850973 2.12817 0
M  V30 6905 C 641.962 -1.22457 1.07276 0
M  V30 6906 O 643.151 -1.17215 1.34622 0
M  V30 6907 C 640.251 -2.15039 2.61938 0
M  V30 6908 C 639.424 -1.94726 3.91664 0
M  V30 6909 C 638.483 -3.0847 4.26301 0
M  V30 6910 O 637.509 -2.81038 4.94981 0
M  V30 6911 N 638.711 -4.35116 3.84259 0
M  V30 6912 H 641.476 -0.3748 2.97347 0
M  V30 6913 H 639.037 -0.0572793 1.61799 0
M  V30 6914 H 641.029 -2.90141 2.82135 0
M  V30 6915 H 639.599 -2.5398 1.82244 0
M  V30 6916 H 638.819 -1.03772 3.80296 0
M  V30 6917 H 640.107 -1.78469 4.76473 0
M  V30 6918 H 639.505 -4.60276 3.2888 0
M  V30 6919 H 638.062 -5.07064 4.09548 0
M  V30 6920 N 641.495 -1.56914 -0.146875 0
M  V30 6921 C 642.744 -1.82546 -0.857898 0
M  V30 6922 C 643.057 -0.708169 -1.8233 0
M  V30 6923 O 644.263 -0.850093 -2.57848 0
M  V30 6924 C 642.719 -3.23548 -1.57623 0
M  V30 6925 C 642.327 -4.43212 -0.653224 0
M  V30 6926 C 644.071 -3.58453 -2.27402 0
M  V30 6927 C 641.978 -5.75237 -1.37318 0
M  V30 6928 H 640.908 -0.680786 -0.32411 0
M  V30 6929 H 643.559 -1.83166 -0.110639 0
M  V30 6930 H 641.941 -3.17315 -2.36912 0
M  V30 6931 H 643.115 -4.60682 0.104452 0
M  V30 6932 H 641.43 -4.16351 -0.0638336 0
M  V30 6933 H 644.027 -4.54349 -2.81907 0
M  V30 6934 H 644.37 -2.84516 -3.03901 0
M  V30 6935 H 644.903 -3.66347 -1.55032 0
M  V30 6936 H 641.642 -6.52269 -0.650041 0
M  V30 6937 H 641.162 -5.61703 -2.10357 0
M  V30 6938 H 642.841 -6.18039 -1.91406 0
M  V30 6939 N 642.974 0.416227 -1.52004 0
M  V30 6940 C 643.921 1.50666 -1.74838 0
M  V30 6941 C 644.891 1.55245 -0.590599 0
M  V30 6942 O 646.076 1.71928 -0.827374 0
M  V30 6943 C 643.216 2.88185 -1.89851 0
M  V30 6944 C 642.329 2.92971 -3.17478 0
M  V30 6945 C 641.464 4.21745 -3.22962 0
M  V30 6946 C 640.503 4.20478 -4.4482 0
M  V30 6947 N 639.64 5.40811 -4.47736 0
M  V30 6948 H 644.48 1.30498 -2.67907 0
M  V30 6949 H 642.017 0.633568 -1.32757 0
M  V30 6950 H 643.975 3.68007 -1.96537 0
M  V30 6951 H 642.605 3.06865 -1.00169 0
M  V30 6952 H 641.657 2.05684 -3.19997 0
M  V30 6953 H 642.969 2.87899 -4.07328 0
M  V30 6954 H 642.123 5.09954 -3.28682 0
M  V30 6955 H 640.862 4.29503 -2.31038 0
M  V30 6956 H 639.867 3.30659 -4.39254 0
M  V30 6957 H 641.092 4.14366 -5.38031 0
M  V30 6958 H 639.038 5.4925 -3.58692 0
M  V30 6959 H 638.955 5.37705 -5.31422 0
M  V30 6960 H 640.223 6.30993 -4.57676 0
M  V30 6961 N 644.452 1.42507 0.673017 0
M  V30 6962 C 645.868 1.25472 0.986355 0
M  V30 6963 C 646.068 0.160181 2.00862 0
M  V30 6964 O 645.124 -0.467993 2.48125 0
M  V30 6965 C 646.437 2.61219 1.48947 0
M  V30 6966 C 647.985 2.68589 1.60715 0
M  V30 6967 C 648.46 4.04707 2.14422 0
M  V30 6968 N 649.951 4.0667 2.21752 0
M  V30 6969 C 650.686 5.0881 2.64386 0
M  V30 6970 N 650.182 6.21332 3.0646 0
M  V30 6971 N 651.975 4.96166 2.64151 0
M  V30 6972 H 644.126 2.124 -0.00378532 0
M  V30 6973 H 646.389 0.946046 0.0608367 0
M  V30 6974 H 646.095 3.42179 0.812812 0
M  V30 6975 H 645.969 2.85261 2.46791 0
M  V30 6976 H 648.356 1.87974 2.27486 0
M  V30 6977 H 648.437 2.48333 0.613552 0
M  V30 6978 H 648.081 4.8578 1.48258 0
M  V30 6979 H 648.011 4.22315 3.14575 0
M  V30 6980 H 650.502 3.25438 1.92089 0
M  V30 6981 H 650.815 6.95118 3.37684 0
M  V30 6982 H 649.16 6.24835 3.04313 0
M  V30 6983 H 652.351 4.07334 2.30644 0
M  V30 6984 H 652.524 5.759 2.97057 0
M  V30 6985 N 645.93 -0.909495 1.28709 0
M  V30 6986 C 646.86 -2.0291 1.15542 0
M  V30 6987 C 647.841 -1.7002 0.0521017 0
M  V30 6988 O 649.026 -1.92835 0.229849 0
M  V30 6989 C 646.156 -3.37458 0.820935 0
M  V30 6990 C 645.11 -3.84524 1.87949 0
M  V30 6991 C 644.436 -5.16086 1.39854 0
M  V30 6992 C 645.736 -4.05918 3.28676 0
M  V30 6993 H 647.43 -2.14183 2.09203 0
M  V30 6994 H 644.976 -1.02913 1.00722 0
M  V30 6995 H 646.929 -4.1528 0.715571 0
M  V30 6996 H 645.653 -3.26249 -0.151374 0
M  V30 6997 H 644.312 -3.08911 1.97408 0
M  V30 6998 H 643.96 -5.01284 0.41518 0
M  V30 6999 H 643.66 -5.48547 2.1064 0
M  V30 7000 H 645.184 -5.96459 1.30649 0
M  V30 7001 H 646.598 -4.74252 3.22115 0
M  V30 7002 H 644.995 -4.49717 3.97334 0
M  V30 7003 H 646.065 -3.10583 3.72379 0
M  V30 7004 N 647.408 -1.11026 -1.11852 0
M  V30 7005 C 648.338 -0.786812 -2.19844 0
M  V30 7006 C 649.319 0.242935 -1.68356 0
M  V30 7007 O 650.504 0.107355 -1.93903 0
M  V30 7008 C 647.634 -0.224516 -3.46574 0
M  V30 7009 C 646.588 -1.18564 -4.1125 0
M  V30 7010 C 645.914 -0.484261 -5.32503 0
M  V30 7011 C 647.214 -2.53465 -4.56676 0
M  V30 7012 H 648.908 -1.68978 -2.47158 0
M  V30 7013 H 646.454 -0.813906 -1.18792 0
M  V30 7014 H 648.407 0.0139435 -4.21398 0
M  V30 7015 H 647.131 0.713722 -3.18706 0
M  V30 7016 H 645.79 -1.40966 -3.38414 0
M  V30 7017 H 645.438 0.458646 -5.00905 0
M  V30 7018 H 645.138 -1.12526 -5.76725 0
M  V30 7019 H 646.662 -0.254492 -6.10069 0
M  V30 7020 H 648.076 -2.35177 -5.22843 0
M  V30 7021 H 646.473 -3.13507 -5.11697 0
M  V30 7022 H 647.543 -3.13008 -3.70343 0
M  V30 7023 N 648.886 1.2938 -0.899927 0
M  V30 7024 C 650.111 2.00228 -0.540692 0
M  V30 7025 C 650.536 1.66909 0.867359 0
M  V30 7026 O 649.894 0.893824 1.57735 0
M  V30 7027 C 649.942 3.52921 -0.740232 0
M  V30 7028 O 649.046 4.11879 0.207154 0
M  V30 7029 H 648.387 0.629505 -0.211233 0
M  V30 7030 H 650.917 1.6487 -1.21158 0
M  V30 7031 H 650.927 4.0287 -0.644973 0
M  V30 7032 H 649.602 3.76508 -1.76677 0
M  V30 7033 H 648.179 3.72845 0.0643315 0
M  V30 7034 N 650.364 0.662433 1.43002 0
M  V30 7035 C 651.274 -0.0239199 2.34588 0
M  V30 7036 C 652.29 -0.802255 1.54402 0
M  V30 7037 O 653.466 -0.747401 1.87018 0
M  V30 7038 C 650.531 -0.972098 3.32793 0
M  V30 7039 C 649.592 -0.189673 4.28881 0
M  V30 7040 C 648.825 -1.09269 5.22395 0
M  V30 7041 O 649.048 -2.33209 5.20547 0
M  V30 7042 O 647.982 -0.560136 5.99288 0
M  V30 7043 H 651.808 0.730171 2.94792 0
M  V30 7044 H 649.393 0.422635 1.43297 0
M  V30 7045 H 651.275 -1.51676 3.93157 0
M  V30 7046 H 649.95 -1.70626 2.75079 0
M  V30 7047 H 648.857 0.398794 3.71968 0
M  V30 7048 H 650.19 0.50511 4.89601 0
M  V30 7049 N 651.842 -1.52309 0.404946 0
M  V30 7050 C 652.789 -2.26898 -0.422597 0
M  V30 7051 C 653.759 -1.2914 -1.04461 0
M  V30 7052 O 654.944 -1.57996 -1.06967 0
M  V30 7053 C 652.084 -3.09053 -1.53559 0
M  V30 7054 C 651.197 -4.21762 -0.934908 0
M  V30 7055 C 650.332 -4.91283 -2.02025 0
M  V30 7056 C 649.371 -5.95962 -1.39628 0
M  V30 7057 N 648.508 -6.59017 -2.42159 0
M  V30 7058 H 653.348 -2.97188 0.219903 0
M  V30 7059 H 650.885 -1.46607 0.120282 0
M  V30 7060 H 652.843 -3.54987 -2.19181 0
M  V30 7061 H 651.473 -2.40942 -2.14818 0
M  V30 7062 H 650.525 -3.80029 -0.167854 0
M  V30 7063 H 651.837 -4.96864 -0.439073 0
M  V30 7064 H 650.991 -5.40601 -2.75383 0
M  V30 7065 H 649.73 -4.15741 -2.54973 0
M  V30 7066 H 648.735 -5.45968 -0.648023 0
M  V30 7067 H 649.96 -6.73445 -0.874553 0
M  V30 7068 H 647.906 -5.86306 -2.94247 0
M  V30 7069 H 647.823 -7.2978 -1.97376 0
M  V30 7070 H 649.091 -7.12974 -3.15099 0
M  V30 7071 N 653.32 -0.135238 -1.57019 0
M  V30 7072 C 654.267 0.808908 -2.1616 0
M  V30 7073 C 655.237 1.25234 -1.09113 0
M  V30 7074 O 656.422 1.32697 -1.37099 0
M  V30 7075 C 653.562 2.04729 -2.77813 0
M  V30 7076 C 652.675 1.65074 -3.99218 0
M  V30 7077 C 651.81 2.84002 -4.48906 0
M  V30 7078 C 650.849 2.40663 -5.62803 0
M  V30 7079 N 649.986 3.5256 -6.07162 0
M  V30 7080 H 654.826 0.297751 -2.96509 0
M  V30 7081 H 652.363 0.135264 -1.46477 0
M  V30 7082 H 654.321 2.7731 -3.11697 0
M  V30 7083 H 652.951 2.53275 -2.00128 0
M  V30 7084 H 652.003 0.823029 -3.7139 0
M  V30 7085 H 653.315 1.29236 -4.81767 0
M  V30 7086 H 652.469 3.64788 -4.84783 0
M  V30 7087 H 651.208 3.23076 -3.65339 0
M  V30 7088 H 650.213 1.58314 -5.26514 0
M  V30 7089 H 651.438 2.02687 -6.48147 0
M  V30 7090 H 649.384 3.91278 -5.26534 0
M  V30 7091 H 649.301 3.20699 -6.84608 0
M  V30 7092 H 650.569 4.33738 -6.47682 0
M  V30 7093 N 654.798 1.5699 0.138552 0
M  V30 7094 C 656.026 1.87976 0.864437 0
M  V30 7095 C 656.441 0.724372 1.74351 0
M  V30 7096 O 655.798 -0.305575 1.79924 0
M  V30 7097 C 655.849 3.18276 1.71414 0
M  V30 7098 O 655.57 4.29365 0.870487 0
M  V30 7099 C 657.071 3.62834 2.54688 0
M  V30 7100 H 654.291 0.622878 0.249528 0
M  V30 7101 H 656.835 2.04094 0.128805 0
M  V30 7102 H 654.99 3.03886 2.40274 0
M  V30 7103 H 655.404 5.03924 1.45466 0
M  V30 7104 H 656.878 4.5682 3.0987 0
M  V30 7105 H 657.355 2.88533 3.31127 0
M  V30 7106 H 657.961 3.79946 1.91105 0
M  V30 7107 N 656.276 -0.40816 1.52223 0
M  V30 7108 C 657.516 -1.16418 1.68006 0
M  V30 7109 C 657.88 -1.87749 0.401793 0
M  V30 7110 O 659.081 -2.65245 0.435743 0
M  V30 7111 C 657.352 -2.13143 2.86889 0
M  V30 7112 S 658.911 -2.96839 3.2316 0
M  V30 7113 H 655.729 -0.394373 0.5916 0
M  V30 7114 H 658.331 -0.451349 1.90219 0
M  V30 7115 H 657.035 -1.59428 3.78168 0
M  V30 7116 H 656.566 -2.88963 2.66953 0
M  V30 7117 H 658.581 -4.151 2.71857 0
M  V30 7118 N 657.755 -1.42862 -0.66545 0
M  V30 7119 C 658.687 -1.43026 -1.79098 0
M  V30 7120 C 659.7 -0.32803 -1.59461 0
M  V30 7121 O 660.889 -0.591709 -1.68407 0
M  V30 7122 C 657.989 -1.21566 -3.16346 0
M  V30 7123 C 657.162 -2.44399 -3.62751 0
M  V30 7124 C 656.221 -2.18344 -4.78761 0
M  V30 7125 O 655.247 -2.91611 -4.88827 0
M  V30 7126 N 656.449 -1.1924 -5.68122 0
M  V30 7127 H 659.214 -2.40045 -1.79439 0
M  V30 7128 H 656.775 -1.37861 -0.848872 0
M  V30 7129 H 658.767 -1.02037 -3.91625 0
M  V30 7130 H 657.337 -0.330368 -3.10849 0
M  V30 7131 H 656.557 -2.79433 -2.78048 0
M  V30 7132 H 657.845 -3.26173 -3.90498 0
M  V30 7133 H 657.243 -0.586603 -5.6265 0
M  V30 7134 H 655.8 -1.05698 -6.43173 0
M  V30 7135 N 659.233 0.902656 -1.29189 0
M  V30 7136 C 660.473 1.6672 -1.18254 0
M  V30 7137 C 660.837 1.90199 0.262336 0
M  V30 7138 O 662.038 2.6421 0.494612 0
M  V30 7139 C 660.309 2.98178 -1.9704 0
M  V30 7140 S 661.868 3.89226 -2.02605 0
M  V30 7141 H 658.686 0.572432 -0.421714 0
M  V30 7142 H 661.288 1.07279 -1.63436 0
M  V30 7143 H 659.992 2.788 -3.01163 0
M  V30 7144 H 659.523 3.62661 -1.5245 0
M  V30 7145 H 661.538 4.82913 -1.14059 0
M  V30 7146 N 660.711 1.11618 1.11262 0
M  V30 7147 C 662.122 0.881942 1.64556 0
M  V30 7148 C 662.473 -0.585442 1.87262 0
M  V30 7149 O 661.598 -1.44795 1.60821 0
M  V30 7150 C 662.193 1.59446 2.98935 0
M  V30 7151 C 660.752 1.40661 3.4913 0
M  V30 7152 C 659.899 1.63593 2.23903 0
M  V30 7153 H 662.85 1.27217 0.94877 0
M  V30 7154 H 662.871 1.04054 3.65996 0
M  V30 7155 H 662.383 2.66241 2.82378 0
M  V30 7156 H 660.484 0.360835 3.70849 0
M  V30 7157 H 660.597 2.15693 4.27801 0
M  V30 7158 H 658.961 1.05944 2.3162 0
M  V30 7159 H 659.744 2.71666 2.09886 0
M  V30 7160 N 662.189 -1.289 0.906776 0
M  V30 7161 C 663.139 -2.25122 0.361109 0
M  V30 7162 C 664.123 -1.52169 -0.52283 0
M  V30 7163 O 665.315 -1.73223 -0.363691 0
M  V30 7164 C 662.444 -3.40915 -0.403982 0
M  V30 7165 C 661.53 -4.21198 0.495279 0
M  V30 7166 N 661.921 -4.79636 1.60572 0
M  V30 7167 C 660.219 -4.45027 0.294372 0
M  V30 7168 C 660.92 -5.39977 2.16332 0
M  V30 7169 N 659.896 -5.23753 1.45546 0
M  V30 7170 H 663.698 -2.67869 1.20927 0
M  V30 7171 H 661.212 -1.43592 0.758632 0
M  V30 7172 H 663.209 -4.08922 -0.811695 0
M  V30 7173 H 661.869 -2.99703 -1.24932 0
M  V30 7174 H 662.88 -4.78209 1.98838 0
M  V30 7175 H 659.557 -4.14348 -0.512021 0
M  V30 7176 H 660.947 -5.96266 3.09704 0
M  V30 7177 N 663.667 -0.670007 -1.42649 0
M  V30 7178 C 665.083 -0.33911 -1.55956 0
M  V30 7179 C 665.283 1.1558 -1.65056 0
M  V30 7180 O 664.339 1.94111 -1.61485 0
M  V30 7181 C 665.652 -1.06522 -2.812 0
M  V30 7182 C 667.2 -1.04708 -2.94966 0
M  V30 7183 C 667.675 -1.75442 -4.23065 0
M  V30 7184 N 669.166 -1.72286 -4.29967 0
M  V30 7185 C 669.901 -2.23877 -5.27889 0
M  V30 7186 N 669.397 -2.83829 -6.31991 0
M  V30 7187 N 671.19 -2.14279 -5.19654 0
M  V30 7188 H 663.341 -1.6399 -1.34986 0
M  V30 7189 H 665.604 -0.690603 -0.649439 0
M  V30 7190 H 665.31 -2.12033 -2.80597 0
M  V30 7191 H 665.184 -0.627398 -3.71946 0
M  V30 7192 H 667.571 -0.000315966 -2.951 0
M  V30 7193 H 667.652 -1.52374 -2.05465 0
M  V30 7194 H 667.296 -2.80084 -4.23693 0
M  V30 7195 H 667.226 -1.25229 -5.11493 0
M  V30 7196 H 669.717 -1.28554 -3.55362 0
M  V30 7197 H 670.03 -3.20827 -7.03057 0
M  V30 7198 H 668.375 -2.87896 -6.32567 0
M  V30 7199 H 671.566 -1.67135 -4.37245 0
M  V30 7200 H 671.739 -2.54792 -5.95806 0
M  V30 7201 N 665.145 1.52092 -0.413018 0
M  V30 7202 C 666.392 2.01855 0.161497 0
M  V30 7203 C 666.72 1.29845 1.44812 0
M  V30 7204 O 665.975 0.394471 1.91683 0
M  V30 7205 C 666.274 3.54529 0.4521 0
M  V30 7206 C 665.94 4.4469 -0.745788 0
M  V30 7207 C 664.602 4.69053 -1.07435 0
M  V30 7208 C 666.954 4.97742 -1.54604 0
M  V30 7209 C 664.282 5.43717 -2.20429 0
M  V30 7210 C 666.634 5.73642 -2.66678 0
M  V30 7211 C 665.298 5.96277 -3.00016 0
M  V30 7212 H 664.568 0.73864 0.0590961 0
M  V30 7213 H 667.215 1.83274 -0.555234 0
M  V30 7214 H 665.52 3.7131 1.25045 0
M  V30 7215 H 667.217 3.90546 0.909647 0
M  V30 7216 H 663.807 4.25907 -0.479725 0
M  V30 7217 H 667.991 4.78824 -1.30543 0
M  V30 7218 H 663.247 5.59462 -2.46602 0
M  V30 7219 H 667.421 6.13746 -3.29072 0
M  V30 7220 H 665.048 6.53913 -3.87688 0
M  V30 7221 N 666.623 0.143563 1.56945 0
M  V30 7222 C 667.555 -0.828353 2.13708 0
M  V30 7223 C 668.568 -1.21313 1.08568 0
M  V30 7224 O 669.757 -1.1578 1.35857 0
M  V30 7225 C 666.857 -2.12248 2.64204 0
M  V30 7226 C 666.03 -1.90561 3.93707 0
M  V30 7227 C 665.089 -3.03931 4.29549 0
M  V30 7228 O 664.115 -2.75772 4.97934 0
M  V30 7229 N 665.317 -4.31016 3.88852 0
M  V30 7230 H 668.082 -0.343242 2.97728 0
M  V30 7231 H 665.643 -0.0401152 1.6185 0
M  V30 7232 H 667.635 -2.87132 2.85197 0
M  V30 7233 H 666.205 -2.52033 1.84928 0
M  V30 7234 H 665.425 -0.997327 3.81375 0
M  V30 7235 H 666.713 -1.73405 4.78339 0
M  V30 7236 H 666.111 -4.56762 3.33743 0
M  V30 7237 H 664.668 -5.02691 4.14903 0
M  V30 7238 N 668.101 -1.57061 -0.130224 0
M  V30 7239 C 669.048 -1.99517 -1.16024 0
M  V30 7240 C 670.018 -0.865452 -1.41771 0
M  V30 7241 O 671.203 -1.12882 -1.53826 0
M  V30 7242 C 668.343 -2.3951 -2.48453 0
M  V30 7243 C 667.456 -3.65848 -2.29737 0
M  V30 7244 C 666.591 -3.9487 -3.55318 0
M  V30 7245 C 665.63 -5.14426 -3.31711 0
M  V30 7246 N 664.767 -5.39375 -4.49466 0
M  V30 7247 H 669.607 -2.87305 -0.791194 0
M  V30 7248 H 667.144 -1.42129 -0.379195 0
M  V30 7249 H 669.102 -2.60731 -3.25692 0
M  V30 7250 H 667.732 -1.54779 -2.83272 0
M  V30 7251 H 666.784 -3.52307 -1.4347 0
M  V30 7252 H 668.096 -4.53241 -2.08263 0
M  V30 7253 H 667.25 -4.16679 -4.4098 0
M  V30 7254 H 665.989 -3.05931 -3.79813 0
M  V30 7255 H 664.994 -4.92473 -2.44439 0
M  V30 7256 H 666.219 -6.04933 -3.08598 0
M  V30 7257 H 664.165 -4.53391 -4.74102 0
M  V30 7258 H 664.082 -6.21069 -4.31055 0
M  V30 7259 H 665.35 -5.65694 -5.36293 0
M  V30 7260 N 669.579 0.400081 -1.52437 0
M  V30 7261 C 670.807 1.16768 -1.70801 0
M  V30 7262 C 671.222 1.84036 -0.421462 0
M  V30 7263 O 670.579 1.72242 0.603228 0
M  V30 7264 C 670.63 2.22403 -2.8499 0
M  V30 7265 O 670.351 1.57879 -4.08663 0
M  V30 7266 C 671.852 3.11974 -3.1494 0
M  V30 7267 H 669.072 0.350533 -0.57216 0
M  V30 7268 H 671.616 0.469534 -1.99037 0
M  V30 7269 H 669.771 2.87871 -2.59247 0
M  V30 7270 H 670.185 2.27982 -4.7236 0
M  V30 7271 H 671.659 3.82148 -3.9833 0
M  V30 7272 H 672.136 3.74858 -2.28863 0
M  V30 7273 H 672.742 2.52165 -3.42481 0
M  V30 7274 N 671.057 1.43213 0.657864 0
M  V30 7275 C 672.297 1.46083 1.42965 0
M  V30 7276 C 672.661 0.0809712 1.91829 0
M  V30 7277 O 673.862 -0.0156305 2.68795 0
M  V30 7278 C 672.133 2.47044 2.58271 0
M  V30 7279 S 673.692 2.68753 3.46868 0
M  V30 7280 H 670.51 0.517015 0.488074 0
M  V30 7281 H 673.112 1.79945 0.764213 0
M  V30 7282 H 671.816 3.46044 2.20639 0
M  V30 7283 H 671.347 2.14665 3.2967 0
M  V30 7284 H 673.362 1.98329 4.54841 0
M  V30 7285 N 672.536 -0.895792 1.29666 0
M  V30 7286 C 673.761 -1.68528 1.20885 0
M  V30 7287 C 674.186 -1.8673 -0.226595 0
M  V30 7288 O 673.544 -1.39044 -1.16347 0
M  V30 7289 C 673.592 -3.04512 1.93144 0
M  V30 7290 O 672.696 -3.92963 1.25115 0
M  V30 7291 H 672.037 -0.515371 0.418675 0
M  V30 7292 H 674.567 -1.11878 1.71302 0
M  V30 7293 H 674.577 -3.54628 2.0175 0
M  V30 7294 H 673.252 -2.90582 2.97548 0
M  V30 7295 H 671.829 -3.51399 1.24794 0
M  V30 7296 N 674.014 -1.12206 -1.10668 0
M  V30 7297 C 675.425 -0.890657 -1.64086 0
M  V30 7298 C 675.776 0.575502 -1.8757 0
M  V30 7299 O 674.901 1.4394 -1.61587 0
M  V30 7300 C 675.496 -1.61029 -2.98085 0
M  V30 7301 C 674.055 -1.4251 -3.48379 0
M  V30 7302 C 673.202 -1.64778 -2.23033 0
M  V30 7303 H 676.153 -1.27718 -0.94201 0
M  V30 7304 H 676.174 -1.05993 -3.65439 0
M  V30 7305 H 675.686 -2.67735 -2.80962 0
M  V30 7306 H 673.787 -0.380497 -3.70652 0
M  V30 7307 H 673.9 -2.17959 -4.26651 0
M  V30 7308 H 672.264 -1.07171 -2.31055 0
M  V30 7309 H 673.047 -2.72776 -2.08443 0
M  V30 7310 N 675.492 1.28418 -0.913599 0
M  V30 7311 C 676.741 1.94265 -0.542572 0
M  V30 7312 C 677.054 1.72709 0.918207 0
M  V30 7313 O 678.26 2.32778 1.39738 0
M  V30 7314 C 676.716 3.47956 -0.919507 0
M  V30 7315 C 676.324 3.78291 -2.4 0
M  V30 7316 C 678.068 4.19962 -0.619057 0
M  V30 7317 C 675.975 5.2529 -2.71707 0
M  V30 7318 H 674.905 0.727213 -0.199192 0
M  V30 7319 H 677.556 1.45931 -1.11249 0
M  V30 7320 H 675.938 3.9502 -0.278372 0
M  V30 7321 H 677.112 3.42035 -3.08786 0
M  V30 7322 H 675.427 3.19456 -2.67089 0
M  V30 7323 H 678.024 5.28178 -0.832623 0
M  V30 7324 H 678.367 4.13935 0.443126 0
M  V30 7325 H 678.9 3.78674 -1.21865 0
M  V30 7326 H 675.639 5.36394 -3.76778 0
M  V30 7327 H 675.159 5.62743 -2.07559 0
M  V30 7328 H 676.838 5.93027 -2.58703 0
M  V30 7329 O 677.009 0.816646 1.39331 0
M  V30 7330 H 677.7 0.396491 1.89599 0
M  V30 END ATOM
M  V30 BEGIN BOND
M  V30 END BOND
M  V30 END CTAB
M  END
$$$$
