drugbank_target|P01876 Ig alpha-1 chain C region (DB01593; DB14487)
 OpenBabel12092121013D

  0  0  0     0  0            999 V3000
M  V30 BEGIN CTAB
M  V30 COUNTS 5242 5317 0 0 0
M  V30 BEGIN ATOM
M  V30 1 H -0.908 1.98254 -0.117106 0
M  V30 2 N 0 1.576 0 0
M  V30 3 C 0.963 2.07369 0.976253 0
M  V30 4 C 1.963 0.98309 1.27248 0
M  V30 5 O 3.153 1.24574 1.21766 0
M  V30 6 C 0.285 2.51514 2.30116 0
M  V30 7 H 1.478 2.94892 0.545759 0
M  V30 8 H -0.969 1.54328 0.247471 0
M  V30 9 H -0.234 1.67234 2.77855 0
M  V30 10 H -0.449 3.31163 2.09937 0
M  V30 11 H 1.041 2.90345 3.00149 0
M  V30 12 N 1.4781 -0.272755 1.55222 0
M  V30 13 C 2.7031 -1.02683 1.80197 0
M  V30 14 C 3.1281 -1.79142 0.573551 0
M  V30 15 O 2.4861 -1.74917 -0.476849 0
M  V30 16 C 2.5341 -1.9609 3.02624 0
M  V30 17 O 1.6381 -3.04863 2.77727 0
M  V30 18 H 0.9791 -0.293557 0.595584 0
M  V30 19 H 3.5091 -0.30159 2.02365 0
M  V30 20 H 3.5191 -2.38039 3.31363 0
M  V30 21 H 2.1941 -1.39851 3.91682 0
M  V30 22 H 0.7711 -2.67228 2.60084 0
M  V30 23 N 2.9562 -1.48159 -0.537278 0
M  V30 24 C 4.3672 -1.49429 -1.11928 0
M  V30 25 C 4.7182 -0.26 -1.9447 0
M  V30 26 O 3.8432 0.633489 -2.0692 0
M  V30 27 C 4.4382 -2.70758 -2.03656 0
M  V30 28 C 2.9972 -2.74923 -2.57088 0
M  V30 29 C 2.1442 -2.42835 -1.3389 0
M  V30 30 H 5.0952 -1.55381 -0.322886 0
M  V30 31 H 5.1162 -2.48861 -2.87834 0
M  V30 32 H 4.6282 -3.60575 -1.43553 0
M  V30 33 H 2.7292 -1.89296 -3.20933 0
M  V30 34 H 2.8422 -3.76157 -2.9672 0
M  V30 35 H 1.2062 -1.93836 -1.65226 0
M  V30 36 H 1.9892 -3.34884 -0.755504 0
M  V30 37 N 4.4343 0.785586 -1.36625 0
M  V30 38 C 5.6623 1.57448 -1.3423 0
M  V30 39 C 6.0773 1.88649 0.0755653 0
M  V30 40 O 5.4343 1.50414 1.03354 0
M  V30 41 C 5.4853 2.89316 -2.16745 0
M  V30 42 O 5.2063 2.59459 -3.53005 0
M  V30 43 C 6.7073 3.83606 -2.22174 0
M  V30 44 H 3.9273 0.488226 -0.4603 0
M  V30 45 H 6.4713 0.974733 -1.79775 0
M  V30 46 H 4.6263 3.4575 -1.74745 0
M  V30 47 H 5.0403 3.43804 -3.96105 0
M  V30 48 H 6.5143 4.73181 -2.8426 0
M  V30 49 H 6.9913 4.21734 -1.22627 0
M  V30 50 H 7.5973 3.33104 -2.64427 0
M  V30 51 N 5.9124 1.20967 1.01018 0
M  V30 52 C 7.1374 1.0503 1.78839 0
M  V30 53 C 7.5624 -0.395752 1.8389 0
M  V30 54 O 6.9204 -1.28529 1.27867 0
M  V30 55 C 6.9684 1.64602 3.2084 0
M  V30 56 O 6.0724 0.887988 4.02726 0
M  V30 57 H 5.4134 0.369987 0.551367 0
M  V30 58 H 7.9434 1.60399 1.27018 0
M  V30 59 H 7.9534 1.68607 3.71532 0
M  V30 60 H 6.6284 2.69841 3.16479 0
M  V30 61 H 5.2054 0.922648 3.61305 0
M  V30 62 N 7.3905 -1.2043 1.01659 0
M  V30 63 C 8.8015 -1.71517 0.737482 0
M  V30 64 C 9.1525 -1.81547 -0.743973 0
M  V30 65 O 8.2775 -1.47803 -1.58061 0
M  V30 66 C 8.8725 -3.11515 1.33206 0
M  V30 67 C 7.4315 -3.59912 1.10183 0
M  V30 68 C 6.5785 -2.37116 1.43776 0
M  V30 69 H 9.5295 -1.05444 1.18606 0
M  V30 70 H 9.5505 -3.73575 0.722636 0
M  V30 71 H 9.0625 -3.04182 2.41028 0
M  V30 72 H 7.1635 -3.72577 0.0412756 0
M  V30 73 H 7.2765 -4.44731 1.78188 0
M  V30 74 H 5.6405 -2.39857 0.856778 0
M  V30 75 H 6.4235 -2.32424 2.52654 0
M  V30 76 N 8.8686 -0.792821 -1.36206 0
M  V30 77 C 9.8156 -0.191653 -2.30003 0
M  V30 78 C 10.7856 0.666453 -1.52143 0
M  V30 79 O 11.9706 0.61442 -1.80636 0
M  V30 80 C 9.1106 0.664848 -3.38635 0
M  V30 81 C 8.2236 -0.212175 -4.31479 0
M  V30 82 C 7.3586 0.651022 -5.27196 0
M  V30 83 C 6.3976 -0.227247 -6.11678 0
M  V30 84 N 5.5346 0.595127 -6.99573 0
M  V30 85 H 10.3746 -0.996978 -2.80828 0
M  V30 86 H 7.9116 -0.503206 -1.38225 0
M  V30 87 H 9.8696 1.17645 -4.00269 0
M  V30 88 H 8.4996 1.43557 -2.89122 0
M  V30 89 H 7.5516 -0.841777 -3.70969 0
M  V30 90 H 8.8636 -0.888751 -4.90818 0
M  V30 91 H 8.0176 1.2283 -5.94136 0
M  V30 92 H 6.7566 1.36121 -4.68319 0
M  V30 93 H 5.7616 -0.816904 -5.43697 0
M  V30 94 H 6.9866 -0.93509 -6.72631 0
M  V30 95 H 4.9326 1.28955 -6.432 0
M  V30 96 H 4.8496 -0.0236952 -7.55996 0
M  V30 97 H 6.1176 1.15613 -7.70879 0
M  V30 98 N 10.3467 1.47872 -0.545128 0
M  V30 99 C 11.5927 2.02793 -0.0166104 0
M  V30 100 C 11.9257 1.41987 1.32489 0
M  V30 101 O 11.2007 0.571045 1.85928 0
M  V30 102 C 11.4837 3.59989 0.0893294 0
M  V30 103 C 11.3367 4.3125 -1.27841 0
M  V30 104 C 12.6557 4.32606 0.808724 0
M  V30 105 H 9.7747 0.736962 -0.00751035 0
M  V30 106 H 12.4167 1.76433 -0.705085 0
M  V30 107 H 10.5667 3.82579 0.675681 0
M  V30 108 H 12.2387 4.20035 -1.90704 0
M  V30 109 H 10.4817 3.92076 -1.85632 0
M  V30 110 H 11.1527 5.39736 -1.15713 0
M  V30 111 H 13.6287 4.14936 0.310992 0
M  V30 112 H 12.5047 5.42251 0.851782 0
M  V30 113 H 12.7657 4.00963 1.86229 0
M  V30 114 N 11.8248 0.280983 1.55075 0
M  V30 115 C 13.0718 -0.334115 1.99725 0
M  V30 116 C 13.3998 -1.5542 1.1694 0
M  V30 117 O 12.6548 -1.94361 0.228531 0
M  V30 118 C 12.9538 -0.754656 3.49342 0
M  V30 119 C 12.6198 0.361445 4.49449 0
M  V30 120 C 11.2818 0.667893 4.76542 0
M  V30 121 C 13.6338 1.11322 5.09173 0
M  V30 122 C 10.9618 1.7296 5.60626 0
M  V30 123 C 13.3138 2.1647 5.9441 0
M  V30 124 C 11.9778 2.47742 6.19822 0
M  V30 125 H 11.2478 -0.122261 0.730844 0
M  V30 126 H 13.8948 0.395917 1.87363 0
M  V30 127 H 12.1998 -1.56446 3.5921 0
M  V30 128 H 13.8968 -1.24142 3.813 0
M  V30 129 H 10.4868 0.112481 4.28452 0
M  V30 130 H 14.6708 0.88973 4.8826 0
M  V30 131 H 9.9268 1.97684 5.78559 0
M  V30 132 H 14.1008 2.75193 6.3972 0
M  V30 133 H 11.7278 3.30145 6.84769 0
M  V30 134 N 13.3029 -1.57598 0.00835791 0
M  V30 135 C 14.7139 -1.7892 -0.53333 0
M  V30 136 C 15.0649 -0.916609 -1.73473 0
M  V30 137 O 14.1899 -0.121336 -2.1606 0
M  V30 138 C 14.7849 -3.24488 -0.974313 0
M  V30 139 C 13.3439 -3.46878 -1.46125 0
M  V30 140 C 12.4909 -2.74157 -0.416302 0
M  V30 141 H 15.4419 -1.56958 0.234495 0
M  V30 142 H 15.4629 -3.3306 -1.83988 0
M  V30 143 H 14.9749 -3.87972 -0.099718 0
M  V30 144 H 13.0759 -2.8862 -2.35646 0
M  V30 145 H 13.1889 -4.55572 -1.48295 0
M  V30 146 H 11.5529 -2.39022 -0.87981 0
M  V30 147 H 12.3359 -3.40345 0.44947 0
M  V30 148 N 14.781 0.264519 -1.55364 0
M  V30 149 C 15.711 1.33121 -1.91836 0
M  V30 150 C 16.692 1.51101 -0.781192 0
M  V30 151 O 17.877 1.64003 -1.04003 0
M  V30 152 C 15.007 2.68921 -2.19769 0
M  V30 153 C 13.961 2.65661 -3.35571 0
M  V30 154 C 13.287 4.05093 -3.49004 0
M  V30 155 C 14.587 2.24187 -4.71739 0
M  V30 156 H 16.281 1.02844 -2.81182 0
M  V30 157 H 13.827 0.493286 -1.35287 0
M  V30 158 H 15.78 3.43663 -2.43872 0
M  V30 159 H 14.504 3.00799 -1.27231 0
M  V30 160 H 13.163 1.93377 -3.1145 0
M  V30 161 H 12.811 4.34206 -2.53917 0
M  V30 162 H 12.511 4.03804 -4.26868 0
M  V30 163 H 14.035 4.81561 -3.75408 0
M  V30 164 H 15.449 2.88654 -4.9533 0
M  V30 165 H 13.846 2.34044 -5.52579 0
M  V30 166 H 14.916 1.19327 -4.69988 0
M  V30 167 N 16.2591 1.48442 0.529413 0
M  V30 168 C 17.4841 1.60406 1.31471 0
M  V30 169 C 17.9091 0.264738 1.86228 0
M  V30 170 O 17.2671 -0.763668 1.64432 0
M  V30 171 C 17.3151 2.65419 2.44101 0
M  V30 172 O 16.4191 2.22618 3.47153 0
M  V30 173 H 15.7601 0.537863 0.389357 0
M  V30 174 H 18.2901 1.94432 0.636965 0
M  V30 175 H 18.3001 2.86709 2.90279 0
M  V30 176 H 16.9751 3.62652 2.03608 0
M  V30 177 H 15.5521 2.11543 3.0709 0
M  V30 178 N 17.7372 -0.778329 1.37039 0
M  V30 179 C 18.6672 -1.90546 1.34962 0
M  V30 180 C 19.6482 -1.68681 0.219274 0
M  V30 181 O 20.8332 -1.89634 0.418624 0
M  V30 182 C 17.9632 -3.27734 1.14925 0
M  V30 183 C 16.9172 -3.64147 2.24902 0
M  V30 184 C 16.2432 -4.99806 1.89996 0
M  V30 185 C 17.5432 -3.71579 3.67051 0
M  V30 186 H 19.2372 -1.92541 2.29277 0
M  V30 187 H 16.7832 -0.924948 1.10366 0
M  V30 188 H 18.7362 -4.06215 1.12104 0
M  V30 189 H 17.4602 -3.26154 0.170631 0
M  V30 190 H 16.1192 -2.8797 2.26868 0
M  V30 191 H 15.7672 -4.94759 0.906796 0
M  V30 192 H 15.4672 -5.25139 2.63634 0
M  V30 193 H 16.9912 -5.80694 1.88749 0
M  V30 194 H 18.4052 -4.40227 3.67251 0
M  V30 195 H 16.8022 -4.08405 4.39688 0
M  V30 196 H 17.8722 -2.72404 4.01154 0
M  V30 197 N 19.2153 -1.21501 -1.00376 0
M  V30 198 C 20.4553 -1.04444 -1.75701 0
M  V30 199 C 20.8193 0.414644 -1.87469 0
M  V30 200 O 22.0203 0.705763 -2.59369 0
M  V30 201 C 20.2913 -1.72389 -3.13077 0
M  V30 202 S 21.8503 -1.70604 -4.04277 0
M  V30 203 H 18.6683 -0.374249 -0.604532 0
M  V30 204 H 21.2703 -1.54267 -1.20091 0
M  V30 205 H 19.9743 -2.77734 -3.02146 0
M  V30 206 H 19.5053 -1.22751 -3.73759 0
M  V30 207 H 21.5203 -0.748012 -4.9053 0
M  V30 208 N 20.6934 1.19889 -1.02296 0
M  V30 209 C 21.9184 1.9393 -0.735237 0
M  V30 210 C 22.3434 1.74639 0.698782 0
M  V30 211 O 21.7014 1.04481 1.48167 0
M  V30 212 C 21.7494 3.43916 -1.08417 0
M  V30 213 O 20.8534 4.11917 -0.199446 0
M  V30 214 H 20.1944 0.605645 -0.272196 0
M  V30 215 H 22.7244 1.52137 -1.36804 0
M  V30 216 H 22.7344 3.9456 -1.03856 0
M  V30 217 H 21.4094 3.5728 -2.12894 0
M  V30 218 H 19.9864 3.71666 -0.303136 0
M  V30 219 N 22.1715 0.800033 1.35784 0
M  V30 220 C 23.3995 0.389606 2.03199 0
M  V30 221 C 23.8145 -0.997375 1.60306 0
M  V30 222 O 23.1715 -1.64154 0.797481 0
M  V30 223 C 23.2225 0.455855 3.58614 0
M  V30 224 O 22.9435 1.78815 3.99946 0
M  V30 225 C 24.4445 0.0374032 4.43284 0
M  V30 226 H 21.6645 0.159132 0.651857 0
M  V30 227 H 24.2085 1.08183 1.73541 0
M  V30 228 H 22.3635 -0.188057 3.86943 0
M  V30 229 H 22.7775 1.74636 4.94573 0
M  V30 230 H 24.2515 0.134882 5.51835 0
M  V30 231 H 24.7285 -1.01651 4.27275 0
M  V30 232 H 25.3345 0.654215 4.20238 0
M  V30 233 N 23.6496 -1.47581 0.552962 0
M  V30 234 C 24.5816 -2.27997 -0.234533 0
M  V30 235 C 25.5946 -1.36753 -0.883321 0
M  V30 236 O 26.7836 -1.61612 -0.757889 0
M  V30 237 C 23.8836 -3.10879 -1.34935 0
M  V30 238 C 23.0566 -4.30056 -0.798158 0
M  V30 239 C 22.1156 -4.94567 -1.79694 0
M  V30 240 O 21.1416 -5.53087 -1.34474 0
M  V30 241 N 22.3436 -4.88878 -3.13015 0
M  V30 242 H 25.1086 -2.96222 0.455255 0
M  V30 243 H 22.6696 -1.57163 0.388761 0
M  V30 244 H 24.6616 -3.50903 -2.01616 0
M  V30 245 H 23.2316 -2.44924 -1.94244 0
M  V30 246 H 22.4516 -3.94174 0.0453079 0
M  V30 247 H 23.7396 -5.07152 -0.409173 0
M  V30 248 H 23.1376 -4.42526 -3.52402 0
M  V30 249 H 21.6946 -5.32934 -3.75266 0
M  V30 250 N 25.1277 -0.289203 -1.54924 0
M  V30 251 C 26.5387 0.205791 -1.85562 0
M  V30 252 C 26.8897 1.54351 -1.2112 0
M  V30 253 O 26.0147 2.10435 -0.504601 0
M  V30 254 C 26.6097 0.380177 -3.3666 0
M  V30 255 C 25.1687 0.819395 -3.67373 0
M  V30 256 C 24.3157 -0.079159 -2.77187 0
M  V30 257 H 27.2667 -0.510577 -1.50262 0
M  V30 258 H 27.2877 1.21659 -3.60526 0
M  V30 259 H 26.7997 -0.593589 -3.83534 0
M  V30 260 H 24.9007 1.80413 -3.26009 0
M  V30 261 H 25.0137 0.646957 -4.74712 0
M  V30 262 H 23.3777 0.439565 -2.50878 0
M  V30 263 H 24.1607 -1.04906 -3.26878 0
M  V30 264 N 26.6058 1.57591 -0.0167156 0
M  V30 265 C 27.8828 1.82547 0.702564 0
M  V30 266 C 28.2628 0.898018 1.91047 0
M  V30 267 O 27.6108 -0.0493456 2.28447 0
M  V30 268 C 27.8208 3.31459 1.09251 0
M  V30 269 C 29.1688 3.97622 1.48937 0
M  V30 270 O 30.1928 3.35881 1.18584 0
M  V30 271 O 29.0518 5.06415 2.05442 0
M  V30 272 H 26.1458 0.752268 0.343544 0
M  V30 273 H 28.6918 1.69644 -0.0434495 0
M  V30 274 H 27.4638 3.9061 0.23227 0
M  V30 275 H 27.0868 3.49422 1.89709 0
M  V30 276 N 28.0839 -0.256276 1.55502 0
M  V30 277 C 29.3319 -0.983672 1.76545 0
M  V30 278 C 29.6529 -1.86206 0.578982 0
M  V30 279 O 28.9229 -1.91656 -0.405577 0
M  V30 280 H 27.5029 -0.366191 0.651086 0
M  V30 281 H 30.1649 -0.276479 1.92929 0
M  V30 282 H 29.2609 -1.61087 2.67315 0
M  V30 283 N 29.562 -1.4872 -0.521534 0
M  V30 284 C 30.51 -1.64328 -1.64618 0
M  V30 285 C 31.504 -0.50953 -1.61555 0
M  V30 286 O 32.71 -0.688525 -1.66311 0
M  V30 287 H 29.085 -0.517805 -0.545328 0
M  V30 288 H 31.056 -2.58767 -1.48601 0
M  V30 289 C 29.805 -1.70805 -3.02855 0
M  V30 290 H 29.128 -2.5741 -3.05909 0
M  V30 291 H 30.568 -1.85766 -3.81139 0
M  V30 292 C 29.027 -0.448479 -3.33902 0
M  V30 293 O 29.557 0.434928 -3.99339 0
M  V30 294 N 27.763 -0.317616 -2.88859 0
M  V30 295 H 27.31 -1.03748 -2.35784 0
M  V30 296 H 27.268 0.524113 -3.10001 0
M  V30 297 N 31.0401 0.771051 -1.3745 0
M  V30 298 C 32.2861 1.5319 -1.32894 0
M  V30 299 C 32.6191 1.94008 0.0862511 0
M  V30 300 O 31.8941 1.64124 1.04373 0
M  V30 301 C 32.1771 2.79648 -2.26868 0
M  V30 302 C 32.0301 2.45079 -3.77169 0
M  V30 303 C 33.3491 3.81583 -2.19277 0
M  V30 304 H 30.4681 0.555744 -0.484064 0
M  V30 305 H 33.1101 0.884492 -1.68157 0
M  V30 306 H 31.2601 3.34891 -1.96926 0
M  V30 307 H 32.9321 1.95745 -4.1771 0
M  V30 308 H 31.1751 1.77767 -3.95704 0
M  V30 309 H 31.8461 3.35478 -4.38359 0
M  V30 310 H 34.3221 3.35835 -2.45671 0
M  V30 311 H 33.1981 4.67787 -2.87171 0
M  V30 312 H 33.4591 4.25897 -1.18592 0
M  V30 313 N 32.5182 1.22032 0.997298 0
M  V30 314 C 33.7642 1.04376 1.73878 0
M  V30 315 C 34.0972 -0.420716 1.89588 0
M  V30 316 O 33.3722 -1.31202 1.43583 0
M  V30 317 C 33.6552 1.75047 3.14691 0
M  V30 318 C 33.5082 3.29062 3.06656 0
M  V30 319 C 34.8272 1.49928 4.13775 0
M  V30 320 H 31.9462 0.380578 0.631133 0
M  V30 321 H 34.5882 1.50312 1.16217 0
M  V30 322 H 32.7382 1.35996 3.63919 0
M  V30 323 H 34.4102 3.7753 2.65083 0
M  V30 324 H 32.6532 3.58967 2.43568 0
M  V30 325 H 33.3242 3.73683 4.06282 0
M  V30 326 H 35.8002 1.83842 3.73285 0
M  V30 327 H 34.6762 2.01878 5.10428 0
M  V30 328 H 34.9372 0.430929 4.39995 0
M  V30 329 N 33.9963 -1.19345 1.0293 0
M  V30 330 C 35.2453 -1.88363 0.721256 0
M  V30 331 C 35.5583 -1.80514 -0.753254 0
M  V30 332 O 36.7643 -2.44788 -1.17436 0
M  V30 333 C 35.2203 -3.37872 1.23978 0
M  V30 334 C 34.8283 -3.54278 2.74211 0
M  V30 335 C 36.5723 -4.12365 1.00775 0
M  V30 336 C 34.4793 -4.97682 3.19479 0
M  V30 337 H 33.4093 -0.705484 0.266098 0
M  V30 338 H 36.0603 -1.34928 1.24365 0
M  V30 339 H 34.4423 -3.90707 0.6453 0
M  V30 340 H 35.6163 -3.11769 3.39318 0
M  V30 341 H 33.9313 -2.93174 2.95699 0
M  V30 342 H 36.5283 -5.18119 1.32123 0
M  V30 343 H 36.8713 -4.16263 -0.0554308 0
M  V30 344 H 37.4043 -3.65668 1.56625 0
M  V30 345 H 34.1433 -4.98945 4.25128 0
M  V30 346 H 33.6633 -5.4095 2.591 0
M  V30 347 H 35.3423 -5.66337 3.12845 0
M  V30 348 N 35.4744 -0.807222 -1.35358 0
M  V30 349 C 36.4374 -0.223665 -2.28106 0
M  V30 350 C 37.4374 0.589354 -1.4961 0
M  V30 351 O 38.6274 0.407745 -1.69361 0
M  V30 352 C 35.7594 0.688149 -3.33882 0
M  V30 353 H 36.9524 -1.04169 -2.81227 0
M  V30 354 H 34.5054 -0.577921 -1.45223 0
M  V30 355 H 35.2404 1.52984 -2.85948 0
M  V30 356 H 35.0254 0.10687 -3.91954 0
M  V30 357 H 36.5154 1.09075 -4.03104 0
M  V30 358 N 36.9525 1.47285 -0.560781 0
M  V30 359 C 38.1925 2.0436 -0.0404627 0
M  V30 360 C 38.5565 1.42534 1.28639 0
M  V30 361 O 39.7575 1.90677 1.89462 0
M  V30 362 C 38.0285 3.57369 0.0471856 0
M  V30 363 S 39.5875 4.3579 0.513109 0
M  V30 364 H 36.4055 0.710492 -0.0268674 0
M  V30 365 H 39.0075 1.80611 -0.748323 0
M  V30 366 H 37.7115 3.9989 -0.922817 0
M  V30 367 H 37.2425 3.8562 0.778491 0
M  V30 368 H 39.2575 4.63476 1.77212 0
M  V30 369 N 38.4306 0.297415 1.54768 0
M  V30 370 C 39.3606 -0.573494 2.26348 0
M  V30 371 C 40.3416 -1.14085 1.26169 0
M  V30 372 O 41.5266 -1.17086 1.54934 0
M  V30 373 C 38.6566 -1.74716 3.00153 0
M  V30 374 C 37.6106 -1.31032 4.07449 0
M  V30 375 C 36.9366 -2.56887 4.68949 0
M  V30 376 C 38.2366 -0.444183 5.20408 0
M  V30 377 H 39.9306 0.0235131 2.99391 0
M  V30 378 H 37.4766 0.0127488 1.43994 0
M  V30 379 H 39.4296 -2.3625 3.48947 0
M  V30 380 H 38.1536 -2.37035 2.24682 0
M  V30 381 H 36.8126 -0.718066 3.59499 0
M  V30 382 H 36.4606 -3.17512 3.90122 0
M  V30 383 H 36.1606 -2.2836 5.41411 0
M  V30 384 H 37.6846 -3.19229 5.20505 0
M  V30 385 H 39.0986 -0.9651 5.65118 0
M  V30 386 H 37.4956 -0.252846 5.99567 0
M  V30 387 H 38.5656 0.531609 4.81977 0
M  V30 388 N 39.9087 -1.5758 0.0250728 0
M  V30 389 C 41.1547 -1.91917 -0.655413 0
M  V30 390 C 41.4877 -0.901433 -1.72011 0
M  V30 391 O 40.7627 0.0764069 -1.9435 0
M  V30 392 C 41.0457 -3.36751 -1.27558 0
M  V30 393 C 40.8987 -4.49258 -0.220719 0
M  V30 394 C 42.2177 -3.81469 -2.19475 0
M  V30 395 H 39.3367 -0.697925 -0.23679 0
M  V30 396 H 41.9787 -1.89825 0.0815036 0
M  V30 397 H 40.1287 -3.38664 -1.90365 0
M  V30 398 H 41.8007 -4.59478 0.409601 0
M  V30 399 H 40.0437 -4.31415 0.454264 0
M  V30 400 H 40.7147 -5.47618 -0.694175 0
M  V30 401 H 43.1907 -3.81266 -1.66659 0
M  V30 402 H 42.0667 -4.83512 -2.59822 0
M  V30 403 H 42.3277 -3.16744 -3.08424 0
M  V30 404 N 41.3868 0.248026 -1.55636 0
M  V30 405 C 42.3188 1.32993 -1.8667 0
M  V30 406 C 43.3318 1.44345 -0.752877 0
M  V30 407 O 44.5208 1.45715 -1.03098 0
M  V30 408 C 41.6208 2.70863 -2.03682 0
M  V30 409 C 40.7938 2.81792 -3.34532 0
M  V30 410 C 39.8528 4.005 -3.41301 0
M  V30 411 O 38.8788 3.9008 -4.14519 0
M  V30 412 N 40.0808 5.13618 -2.70512 0
M  V30 413 H 42.8458 1.06707 -2.8006 0
M  V30 414 H 40.4068 0.438129 -1.55859 0
M  V30 415 H 42.3988 3.48612 -2.05553 0
M  V30 416 H 40.9688 2.89862 -1.17041 0
M  V30 417 H 40.1888 1.90729 -3.44987 0
M  V30 418 H 41.4768 2.86043 -4.20781 0
M  V30 419 H 40.8748 5.24975 -2.10755 0
M  V30 420 H 39.4318 5.89505 -2.78077 0
M  V30 421 N 42.8649 1.48995 0.513639 0
M  V30 422 C 44.1129 1.57531 1.26604 0
M  V30 423 C 44.4339 0.258236 1.93283 0
M  V30 424 O 43.7039 -0.721502 1.8213 0
M  V30 425 H 42.2839 0.580387 0.470276 0
M  V30 426 H 44.9459 1.85552 0.596373 0
M  V30 427 H 44.0419 2.36486 2.03669 0
M  V30 428 N 44.343 -0.763751 1.37857 0
M  V30 429 C 45.59 -1.52257 1.33506 0
M  V30 430 C 45.918 -1.94343 -0.078022 0
M  V30 431 O 45.173 -1.64958 -1.05297 0
M  V30 432 C 45.472 -2.79499 2.22745 0
M  V30 433 C 45.138 -2.56426 3.70886 0
M  V30 434 C 43.8 -2.49842 4.11257 0
M  V30 435 C 46.152 -2.36008 4.64704 0
M  V30 436 C 43.48 -2.20841 5.43549 0
M  V30 437 C 45.832 -2.0853 5.97242 0
M  V30 438 C 44.496 -2.00396 6.36709 0
M  V30 439 H 43.766 -0.557149 0.488534 0
M  V30 440 H 46.413 -0.879073 1.70131 0
M  V30 441 H 44.718 -3.48447 1.79142 0
M  V30 442 H 46.415 -3.37413 2.16688 0
M  V30 443 H 43.005 -2.62416 3.38874 0
M  V30 444 H 47.189 -2.40079 4.34368 0
M  V30 445 H 42.445 -2.13045 5.73081 0
M  V30 446 H 46.619 -1.91732 6.69486 0
M  V30 447 H 44.246 -1.77688 7.39142 0
M  V30 448 N 45.8211 -1.22559 -0.990812 0
M  V30 449 C 47.0681 -1.05141 -1.73065 0
M  V30 450 C 47.3961 0.413191 -1.9006 0
M  V30 451 O 46.6511 1.32257 -1.44245 0
M  V30 452 C 46.9501 -1.71011 -3.13831 0
M  V30 453 C 46.6161 -3.20911 -3.16745 0
M  V30 454 C 45.2781 -3.61812 -3.17247 0
M  V30 455 C 47.6301 -4.16846 -3.12872 0
M  V30 456 C 44.9581 -4.97127 -3.1158 0
M  V30 457 C 47.3101 -5.5214 -3.08746 0
M  V30 458 C 45.9741 -5.92419 -3.07565 0
M  V30 459 H 45.2441 -0.384738 -0.633291 0
M  V30 460 H 47.8911 -1.5235 -1.16025 0
M  V30 461 H 46.1961 -1.16133 -3.74193 0
M  V30 462 H 47.8931 -1.55023 -3.69823 0
M  V30 463 H 44.4831 -2.88344 -3.17105 0
M  V30 464 H 48.6671 -3.86263 -3.11632 0
M  V30 465 H 43.9231 -5.27562 -3.09012 0
M  V30 466 H 48.0971 -6.26201 -3.04705 0
M  V30 467 H 45.7241 -6.97236 -3.02929 0
M  V30 468 N 47.2992 1.18797 -1.03562 0
M  V30 469 C 48.7102 1.70322 -0.764676 0
M  V30 470 C 49.0612 1.82708 0.714996 0
M  V30 471 O 48.1862 1.50299 1.55689 0
M  V30 472 C 48.7812 3.09356 -1.38145 0
M  V30 473 C 47.3402 3.58114 -1.15895 0
M  V30 474 C 46.4872 2.34798 -1.4753 0
M  V30 475 H 49.4382 1.03543 -1.20268 0
M  V30 476 H 49.4592 3.72378 -0.781977 0
M  V30 477 H 48.9712 3.00309 -2.45837 0
M  V30 478 H 47.0722 3.72464 -0.100544 0
M  V30 479 H 47.1852 4.4184 -1.8524 0
M  V30 480 H 45.5492 2.38464 -0.894829 0
M  V30 481 H 46.3322 2.28375 -2.56319 0
M  V30 482 N 48.7773 0.814389 1.34928 0
M  V30 483 C 49.7093 0.187834 2.28429 0
M  V30 484 C 50.7223 -0.617374 1.5064 0
M  V30 485 O 51.9113 -0.448454 1.72775 0
M  V30 486 C 49.0113 -0.755962 3.30361 0
M  V30 487 C 48.1843 0.00456686 4.374 0
M  V30 488 C 47.2433 -0.858876 5.19143 0
M  V30 489 O 46.2693 -0.306968 5.68372 0
M  V30 490 N 47.4713 -2.17988 5.38016 0
M  V30 491 H 50.2363 0.991105 2.82838 0
M  V30 492 H 47.7973 0.670561 1.4736 0
M  V30 493 H 49.7893 -1.338 3.81942 0
M  V30 494 H 48.3593 -1.46001 2.7641 0
M  V30 495 H 47.5793 0.767865 3.86649 0
M  V30 496 H 48.8673 0.528422 5.06049 0
M  V30 497 H 48.2653 -2.65212 4.99679 0
M  V30 498 H 46.8223 -2.71098 5.92747 0
M  V30 499 N 50.2554 -1.46986 0.568584 0
M  V30 500 C 51.1654 -2.33942 -0.17555 0
M  V30 501 C 52.1814 -1.48891 -0.90041 0
M  V30 502 O 53.3574 -1.81794 -0.86676 0
M  V30 503 C 50.4224 -3.25811 -1.18524 0
M  V30 504 C 49.4834 -4.26757 -0.466582 0
M  V30 505 C 48.7164 -5.14236 -1.42817 0
M  V30 506 O 48.9394 -5.04379 -2.66379 0
M  V30 507 O 47.8734 -5.94412 -0.946453 0
M  V30 508 H 51.6994 -2.98896 0.538036 0
M  V30 509 H 49.2844 -1.4573 0.329097 0
M  V30 510 H 51.1664 -3.82527 -1.76779 0
M  V30 511 H 49.8414 -2.63471 -1.88055 0
M  V30 512 H 48.7484 -3.73769 0.157451 0
M  V30 513 H 50.0814 -4.91843 0.187485 0
M  V30 514 N 51.7335 -0.305618 -1.54608 0
M  V30 515 C 53.1445 0.186098 -1.8577 0
M  V30 516 C 53.4955 1.53058 -1.22751 0
M  V30 517 O 52.6205 2.09888 -0.526893 0
M  V30 518 C 53.2155 0.344449 -3.37044 0
M  V30 519 C 51.7745 0.780384 -3.68221 0
M  V30 520 C 50.9215 -0.108554 -2.77087 0
M  V30 521 H 53.8725 -0.526485 -1.49712 0
M  V30 522 H 53.8935 1.17828 -3.61796 0
M  V30 523 H 53.4055 -0.634235 -3.82883 0
M  V30 524 H 51.5065 1.76945 -3.27904 0
M  V30 525 H 51.6195 0.596572 -4.75371 0
M  V30 526 H 49.9835 0.412931 -2.5133 0
M  V30 527 H 50.7665 -1.08368 -3.25747 0
M  V30 528 N 53.2116 1.57565 -0.0334293 0
M  V30 529 C 54.1416 2.13511 0.945265 0
M  V30 530 C 55.1226 1.05231 1.33643 0
M  V30 531 O 56.3076 1.33084 1.41429 0
M  V30 532 C 53.4376 2.6657 2.22616 0
M  V30 533 C 52.3916 3.79676 1.97561 0
M  V30 534 C 51.7176 4.1918 3.31952 0
M  V30 535 C 53.0176 5.0557 1.31135 0
M  V30 536 H 54.7116 2.95538 0.479325 0
M  V30 537 H 52.2576 1.42166 0.229115 0
M  V30 538 H 54.2106 3.04344 2.91466 0
M  V30 539 H 52.9346 1.8171 2.71384 0
M  V30 540 H 51.5936 3.42347 1.31127 0
M  V30 541 H 51.2416 3.31296 3.78487 0
M  V30 542 H 50.9416 4.95402 3.15992 0
M  V30 543 H 52.4656 4.59541 4.02063 0
M  V30 544 H 53.8796 5.40903 1.89992 0
M  V30 545 H 52.2766 5.86818 1.25559 0
M  V30 546 H 53.3466 4.84062 0.284894 0
M  V30 547 N 54.6897 -0.239769 1.55765 0
M  V30 548 C 55.9147 -0.988373 1.82335 0
M  V30 549 C 56.3397 -1.77886 0.611421 0
M  V30 550 O 55.6977 -1.75889 -0.439639 0
M  V30 551 C 55.7457 -1.89627 3.06715 0
M  V30 552 O 54.8497 -2.98904 2.84131 0
M  V30 553 H 54.1907 -0.280858 0.601677 0
M  V30 554 H 56.7207 -0.258597 2.02959 0
M  V30 555 H 56.7307 -2.30957 3.36338 0
M  V30 556 H 55.4057 -1.31511 3.9456 0
M  V30 557 H 53.9827 -2.61651 2.65694 0
M  V30 558 N 56.1678 -1.49265 -0.50573 0
M  V30 559 C 57.4138 -1.58748 -1.26202 0
M  V30 560 C 57.7468 -0.271227 -1.92297 0
M  V30 561 O 57.0218 0.724831 -1.80489 0
M  V30 562 C 57.3048 -2.74332 -2.33268 0
M  V30 563 C 57.1578 -4.15737 -1.71705 0
M  V30 564 C 58.4768 -2.85576 -3.34865 0
M  V30 565 H 55.5958 -0.577826 -0.457478 0
M  V30 566 H 58.2378 -1.81532 -0.560897 0
M  V30 567 H 56.3878 -2.55036 -2.93068 0
M  V30 568 H 58.0598 -4.46537 -1.15769 0
M  V30 569 H 56.3028 -4.21605 -1.02135 0
M  V30 570 H 56.9738 -4.92477 -2.49341 0
M  V30 571 H 59.4498 -3.03127 -2.8505 0
M  V30 572 H 58.3258 -3.68135 -4.07146 0
M  V30 573 H 58.5868 -1.94732 -3.96903 0
M  V30 574 N 57.6459 0.756429 -1.3826 0
M  V30 575 C 58.8739 1.54565 -1.3754 0
M  V30 576 C 59.2889 1.88767 0.0355331 0
M  V30 577 O 58.6459 1.52572 1.0014 0
M  V30 578 C 58.6969 2.84654 -2.22833 0
M  V30 579 O 58.4179 2.51912 -3.5843 0
M  V30 580 C 59.9189 3.78807 -2.30261 0
M  V30 581 H 57.1389 0.478353 -0.470553 0
M  V30 582 H 59.6829 0.936381 -1.81803 0
M  V30 583 H 57.8379 3.41965 -1.8204 0
M  V30 584 H 58.2519 3.35325 -4.03308 0
M  V30 585 H 59.7259 4.67045 -2.94233 0
M  V30 586 H 60.2029 4.19038 -1.31545 0
M  V30 587 H 60.8089 3.2742 -2.71433 0
M  V30 588 N 59.124 1.23083 0.984299 0
M  V30 589 C 60.37 1.07221 1.72845 0
M  V30 590 C 60.725 -0.387453 1.88458 0
M  V30 591 O 60.018 -1.28309 1.42293 0
M  V30 592 C 60.212 1.72673 3.1292 0
M  V30 593 C 60.041 3.24853 3.10967 0
M  V30 594 C 58.811 3.93998 3.16376 0
M  V30 595 C 61.009 4.21674 2.94441 0
M  V30 596 N 58.991 5.33192 3.04268 0
M  V30 597 C 60.362 5.47756 2.90453 0
M  V30 598 C 62.417 4.12457 2.78897 0
M  V30 599 C 61.12 6.6568 2.72512 0
M  V30 600 C 63.146 5.3004 2.62319 0
M  V30 601 C 62.508 6.55046 2.59026 0
M  V30 602 H 58.607 0.44685 0.641755 0
M  V30 603 H 61.191 1.55753 1.16829 0
M  V30 604 H 59.362 1.26679 3.67161 0
M  V30 605 H 61.094 1.49824 3.75945 0
M  V30 606 H 57.849 3.45052 3.24401 0
M  V30 607 H 58.273 6.06157 3.015 0
M  V30 608 H 62.915 3.16588 2.80235 0
M  V30 609 H 60.633 7.61689 2.69919 0
M  V30 610 H 64.219 5.24747 2.5126 0
M  V30 611 H 63.099 7.44498 2.46357 0
M  V30 612 N 60.6021 -1.18246 1.0419 0
M  V30 613 C 61.8271 -1.92736 0.765996 0
M  V30 614 C 62.2521 -1.75728 -0.67091 0
M  V30 615 O 61.6101 -1.06825 -1.46486 0
M  V30 616 C 61.6581 -3.42148 1.13875 0
M  V30 617 O 60.7621 -4.11548 0.264954 0
M  V30 618 H 60.1031 -0.601238 0.281797 0
M  V30 619 H 62.6331 -1.49942 1.39207 0
M  V30 620 H 62.6431 -3.92858 1.1012 0
M  V30 621 H 61.3181 -3.53848 2.18551 0
M  V30 622 H 59.8951 -3.71137 0.362226 0
M  V30 623 N 62.0802 -0.821533 -1.34494 0
M  V30 624 C 62.9902 -0.244355 -2.33324 0
M  V30 625 C 64.0062 0.620527 -1.62559 0
M  V30 626 O 65.1822 0.528754 -1.94335 0
M  V30 627 C 62.2472 0.585368 -3.41723 0
M  V30 628 C 61.3082 -0.301752 -4.28238 0
M  V30 629 C 60.5412 0.488466 -5.3146 0
M  V30 630 O 60.7642 1.72186 -5.4379 0
M  V30 631 O 59.6982 -0.12848 -6.01763 0
M  V30 632 H 63.5242 -1.06231 -2.84515 0
M  V30 633 H 61.1092 -0.583645 -1.37528 0
M  V30 634 H 62.9912 1.05747 -4.07916 0
M  V30 635 H 61.6662 1.38068 -2.92778 0
M  V30 636 H 60.5732 -0.821315 -3.64973 0
M  V30 637 H 61.9062 -1.06138 -4.8062 0
M  V30 638 N 63.5583 1.46682 -0.576371 0
M  V30 639 C 64.7833 2.07304 -0.0630475 0
M  V30 640 C 65.2083 1.42329 1.2298 0
M  V30 641 O 64.5663 0.504865 1.74129 0
M  V30 642 C 64.6143 3.60472 0.095895 0
M  V30 643 O 63.7183 3.95927 1.15394 0
M  V30 644 H 63.0593 0.661288 -0.0599463 0
M  V30 645 H 65.5893 1.88417 -0.797511 0
M  V30 646 H 65.5993 4.06865 0.304071 0
M  V30 647 H 64.2743 4.07157 -0.84828 0
M  V30 648 H 62.8513 3.61252 0.924724 0
M  V30 649 N 65.0364 0.313813 1.54444 0
M  V30 650 C 66.2844 -0.291099 1.99993 0
M  V30 651 C 66.6054 -1.53418 1.20366 0
M  V30 652 O 65.8754 -1.93544 0.302927 0
M  V30 653 H 64.4554 -0.110552 0.738774 0
M  V30 654 H 67.1174 0.428106 1.9014 0
M  V30 655 H 66.2134 -0.554268 3.07139 0
M  V30 656 N 66.5145 -1.57545 0.0417849 0
M  V30 657 C 67.4465 -2.07904 -0.964799 0
M  V30 658 C 68.4595 -1.00497 -1.28079 0
M  V30 659 O 69.6485 -1.28087 -1.24322 0
M  V30 660 C 66.7485 -2.49928 -2.28887 0
M  V30 661 C 65.9215 -3.80562 -2.15619 0
M  V30 662 C 64.9805 -4.08999 -3.31069 0
M  V30 663 O 64.0065 -4.79061 -3.0739 0
M  V30 664 N 65.2085 -3.6017 -4.55256 0
M  V30 665 H 67.9735 -2.94886 -0.535029 0
M  V30 666 H 65.5345 -1.61252 -0.144681 0
M  V30 667 H 67.5265 -2.66034 -3.04972 0
M  V30 668 H 66.0965 -1.68245 -2.63463 0
M  V30 669 H 65.3165 -3.74129 -1.24183 0
M  V30 670 H 66.6045 -4.66126 -2.03971 0
M  V30 671 H 66.0025 -3.03512 -4.77386 0
M  V30 672 H 64.5595 -3.81532 -5.28466 0
M  V30 673 N 67.9926 0.231505 -1.5589 0
M  V30 674 C 69.2406 0.955461 -1.78088 0
M  V30 675 C 69.5616 1.85262 -0.608533 0
M  V30 676 O 68.8316 1.92277 0.375035 0
M  V30 677 H 67.4116 0.355787 -0.656829 0
M  V30 678 H 70.0736 0.245751 -1.93344 0
M  V30 679 H 69.1696 1.56814 -2.69844 0
M  V30 680 N 69.4707 1.49531 0.497807 0
M  V30 681 C 70.7167 1.59415 1.25358 0
M  V30 682 C 71.0497 0.281422 1.9215 0
M  V30 683 O 70.3247 -0.715249 1.80871 0
M  V30 684 C 70.6077 2.75566 2.3181 0
M  V30 685 C 70.4607 4.16642 1.69498 0
M  V30 686 C 71.7797 2.87347 3.33346 0
M  V30 687 H 68.8987 0.580244 0.454408 0
M  V30 688 H 71.5407 1.81827 0.551262 0
M  V30 689 H 69.6907 2.56587 2.91711 0
M  V30 690 H 71.3627 4.47145 1.13399 0
M  V30 691 H 69.6057 4.22141 0.998978 0
M  V30 692 H 70.2767 4.93792 2.46725 0
M  V30 693 H 72.7527 3.04634 2.83438 0
M  V30 694 H 71.6287 3.70289 4.05188 0
M  V30 695 H 71.8897 1.96834 3.95865 0
M  V30 696 N 70.9488 -0.749086 1.3866 0
M  V30 697 C 72.1768 -1.53834 1.38358 0
M  V30 698 C 72.5918 -1.88783 -0.0255219 0
M  V30 699 O 71.9488 -1.53101 -0.993292 0
M  V30 700 C 71.9998 -2.83468 2.2434 0
M  V30 701 O 71.7208 -2.50008 3.5976 0
M  V30 702 C 73.2218 -3.7758 2.32267 0
M  V30 703 H 70.4418 -0.47585 0.473083 0
M  V30 704 H 72.9858 -0.926726 1.82297 0
M  V30 705 H 71.1408 -3.40995 1.83851 0
M  V30 706 H 71.5548 -3.33182 4.05081 0
M  V30 707 H 73.0288 -4.65478 2.96706 0
M  V30 708 H 73.5058 -4.18334 1.33765 0
M  V30 709 H 74.1118 -3.25976 2.73166 0
M  V30 710 N 72.4269 -1.23603 -0.977757 0
M  V30 711 C 73.3899 -1.02069 -2.05218 0
M  V30 712 C 74.3899 0.0184305 -1.60789 0
M  V30 713 O 75.5799 -0.221569 -1.72785 0
M  V30 714 C 72.7119 -0.544926 -3.36517 0
M  V30 715 H 73.9049 -1.9742 -2.25755 0
M  V30 716 H 71.4579 -1.05684 -1.15155 0
M  V30 717 H 72.1929 0.412241 -3.21669 0
M  V30 718 H 71.9779 -1.2948 -3.70105 0
M  V30 719 H 73.4679 -0.414985 -4.15533 0
M  V30 720 N 73.905 1.17692 -1.04816 0
M  V30 721 C 75.321 1.39863 -0.768794 0
M  V30 722 C 75.521 1.91118 0.638451 0
M  V30 723 O 74.577 2.10036 1.40146 0
M  V30 724 C 75.89 2.39274 -1.82122 0
M  V30 725 C 77.438 2.52987 -1.843 0
M  V30 726 C 77.913 3.55669 -2.88555 0
M  V30 727 N 79.404 3.63183 -2.87493 0
M  V30 728 C 80.139 4.42381 -3.64811 0
M  V30 729 N 79.635 5.25125 -4.51903 0
M  V30 730 N 81.428 4.37217 -3.53267 0
M  V30 731 H 73.579 0.82752 -1.95617 0
M  V30 732 H 75.842 0.426123 -0.846831 0
M  V30 733 H 75.548 2.08678 -2.83102 0
M  V30 734 H 75.422 3.38725 -1.65967 0
M  V30 735 H 77.809 2.82896 -0.839869 0
M  V30 736 H 77.89 1.53623 -2.04532 0
M  V30 737 H 77.534 3.26499 -3.89051 0
M  V30 738 H 77.464 4.54728 -2.65575 0
M  V30 739 H 79.955 3.04103 -2.24343 0
M  V30 740 H 80.268 5.82728 -5.07591 0
M  V30 741 H 78.613 5.24519 -4.55966 0
M  V30 742 H 81.804 3.71626 -2.84625 0
M  V30 743 H 81.977 4.98696 -4.13771 0
M  V30 744 N 75.3831 0.828654 1.34056 0
M  V30 745 C 76.3311 0.242973 2.31327 0
M  V30 746 C 77.3251 -0.61944 1.57668 0
M  V30 747 O 78.5311 -0.51014 1.7262 0
M  V30 748 H 74.9061 0.059834 0.749616 0
M  V30 749 H 76.8771 1.07809 2.78244 0
M  V30 750 C 75.6261 -0.575733 3.429 0
M  V30 751 H 74.9491 0.0785582 3.99723 0
M  V30 752 H 76.3891 -0.951547 4.13185 0
M  V30 753 C 74.8481 -1.75044 2.87856 0
M  V30 754 O 75.3781 -2.84882 2.83205 0
M  V30 755 N 73.5841 -1.56903 2.44602 0
M  V30 756 H 73.1311 -0.675547 2.48584 0
M  V30 757 H 73.0891 -2.35652 2.08124 0
M  V30 758 N 76.8612 -1.46375 0.584142 0
M  V30 759 C 78.1082 -2.02378 0.0702675 0
M  V30 760 C 78.4362 -1.45545 -1.29023 0
M  V30 761 O 77.6912 -0.610967 -1.85918 0
M  V30 762 C 77.9902 -3.57373 -0.0439342 0
M  V30 763 C 77.6562 -4.33252 1.24915 0
M  V30 764 C 76.3182 -4.53701 1.60341 0
M  V30 765 C 78.6702 -4.7681 2.1048 0
M  V30 766 C 75.9982 -5.1496 2.81128 0
M  V30 767 C 78.3502 -5.39404 3.30494 0
M  V30 768 C 77.0142 -5.5808 3.66201 0
M  V30 769 H 76.2842 -0.740554 0.0257127 0
M  V30 770 H 78.9312 -1.75727 0.761065 0
M  V30 771 H 77.2362 -3.83169 -0.817869 0
M  V30 772 H 78.9332 -3.98384 -0.457318 0
M  V30 773 H 75.5232 -4.17633 0.963364 0
M  V30 774 H 79.7072 -4.60766 1.84414 0
M  V30 775 H 74.9632 -5.27611 3.08928 0
M  V30 776 H 79.1372 -5.72114 3.97063 0
M  V30 777 H 76.7642 -6.05318 4.59885 0
M  V30 778 N 78.3393 -0.321999 -1.54275 0
M  V30 779 C 79.7503 0.166384 -1.85957 0
M  V30 780 C 80.1013 1.51747 -1.24367 0
M  V30 781 O 79.2263 2.09317 -0.549124 0
M  V30 782 C 79.8213 0.308681 -3.37391 0
M  V30 783 C 78.3803 0.741286 -3.69028 0
M  V30 784 C 77.5273 -0.137937 -2.76957 0
M  V30 785 H 80.4783 -0.542335 -1.49146 0
M  V30 786 H 80.4993 1.13984 -3.63026 0
M  V30 787 H 80.0113 -0.674809 -3.82188 0
M  V30 788 H 78.1123 1.73458 -3.29762 0
M  V30 789 H 78.2253 0.546118 -4.75977 0
M  V30 790 H 76.5893 0.386251 -2.51754 0
M  V30 791 H 77.3723 -1.11816 -3.2458 0
M  V30 792 N 79.8174 1.5752 -0.0501392 0
M  V30 793 C 81.2284 1.80271 0.485705 0
M  V30 794 C 81.5794 0.96228 1.70981 0
M  V30 795 O 80.7044 0.178578 2.15662 0
M  V30 796 C 81.2994 3.26957 0.887938 0
M  V30 797 C 79.8584 3.5063 1.36877 0
M  V30 798 C 79.0054 2.75165 0.343468 0
M  V30 799 H 81.9564 1.56281 -0.276028 0
M  V30 800 H 81.9774 3.37821 1.75093 0
M  V30 801 H 81.4894 3.881 -0.0031809 0
M  V30 802 H 79.5904 2.94766 2.27911 0
M  V30 803 H 79.7034 4.59343 1.36164 0
M  V30 804 H 78.0674 2.4127 0.816128 0
M  V30 805 H 78.8504 3.39034 -0.539548 0
M  V30 806 N 81.2955 -0.223234 1.56011 0
M  V30 807 C 82.5205 -0.968978 1.83373 0
M  V30 808 C 82.9455 -1.77227 0.630254 0
M  V30 809 O 82.3035 -1.76345 -0.420959 0
M  V30 810 C 82.3515 -1.86363 3.08709 0
M  V30 811 O 81.4555 -2.95873 2.87285 0
M  V30 812 H 80.7965 -0.274461 0.604622 0
M  V30 813 H 83.3265 -0.237056 2.03222 0
M  V30 814 H 83.3365 -2.27376 3.38768 0
M  V30 815 H 82.0115 -1.27319 3.95933 0
M  V30 816 H 80.5885 -2.58818 2.68454 0
M  V30 817 N 82.7736 -1.49793 -0.48987 0
M  V30 818 C 83.7056 -1.63413 -1.60713 0
M  V30 819 C 84.7186 -0.516329 -1.54395 0
M  V30 820 O 85.9076 -0.788812 -1.60125 0
M  V30 821 C 83.0076 -1.58516 -2.99543 0
M  V30 822 C 82.1806 -2.86016 -3.30928 0
M  V30 823 C 81.2396 -2.74018 -4.49222 0
M  V30 824 O 80.2656 -3.47964 -4.50455 0
M  V30 825 N 81.4676 -1.86309 -5.4979 0
M  V30 826 H 84.2326 -2.59777 -1.49452 0
M  V30 827 H 81.7936 -1.47022 -0.677955 0
M  V30 828 H 83.7856 -1.48128 -3.76617 0
M  V30 829 H 82.3556 -0.69965 -3.0467 0
M  V30 830 H 81.5756 -3.10672 -2.42645 0
M  V30 831 H 82.8636 -3.70521 -3.487 0
M  V30 832 H 82.2616 -1.2551 -5.51601 0
M  V30 833 H 80.8186 -1.81837 -6.25922 0
M  V30 834 N 84.2517 0.741722 -1.39055 0
M  V30 835 C 85.5287 1.49252 -1.26425 0
M  V30 836 C 85.9087 2.10705 0.129144 0
M  V30 837 O 85.2567 1.98045 1.13976 0
M  V30 838 C 85.4667 2.54934 -2.38347 0
M  V30 839 C 86.8147 3.21506 -2.77343 0
M  V30 840 O 87.8387 2.65245 -2.37747 0
M  V30 841 O 86.6977 4.23294 -3.45665 0
M  V30 842 H 83.7917 0.662451 -0.495064 0
M  V30 843 H 86.3377 0.776121 -1.50912 0
M  V30 844 H 85.1097 2.07857 -3.31529 0
M  V30 845 H 84.7327 3.34141 -2.15489 0
M  V30 846 N 85.7298 1.2412 0.971189 0
M  V30 847 C 86.6928 1.03156 2.04674 0
M  V30 848 C 87.6928 -0.00990322 1.60797 0
M  V30 849 O 88.8828 0.230729 1.72665 0
M  V30 850 C 86.0148 0.562765 3.36223 0
M  V30 851 H 87.2078 1.98614 2.24705 0
M  V30 852 H 84.7608 1.06293 1.14593 0
M  V30 853 H 85.4958 -0.395176 3.21883 0
M  V30 854 H 85.2808 1.31441 3.69413 0
M  V30 855 H 86.7708 0.437015 4.15307 0
M  V30 856 N 87.2079 -1.17134 1.05439 0
M  V30 857 C 88.4329 -1.91913 0.786396 0
M  V30 858 C 88.8579 -1.7643 -0.652234 0
M  V30 859 O 88.2159 -1.08372 -1.45345 0
M  V30 860 C 88.2639 -3.40921 1.17497 0
M  V30 861 O 87.3679 -4.11244 0.308589 0
M  V30 862 H 86.7089 -0.598215 0.288158 0
M  V30 863 H 89.2389 -1.48457 1.4079 0
M  V30 864 H 89.2489 -3.91668 1.14281 0
M  V30 865 H 87.9239 -3.5151 2.22292 0
M  V30 866 H 86.5009 -3.70731 0.40157 0
M  V30 867 N 88.686 -0.835752 -1.33615 0
M  V30 868 C 89.934 -0.429109 -1.97492 0
M  V30 869 C 90.255 1.01433 -1.66543 0
M  V30 870 O 89.525 1.70611 -0.962744 0
M  V30 871 H 88.105 -0.155686 -0.730596 0
M  V30 872 H 90.767 -1.06802 -1.63031 0
M  V30 873 H 89.863 -0.55861 -3.0706 0
M  V30 874 N 90.1641 1.46063 -0.591896 0
M  V30 875 C 91.4411 1.95595 -0.0137119 0
M  V30 876 C 91.8211 1.5345 1.4497 0
M  V30 877 O 91.1691 0.789543 2.14426 0
M  V30 878 C 91.3791 3.48453 -0.195373 0
M  V30 879 C 92.7271 4.24546 -0.0679765 0
M  V30 880 O 93.7511 3.55982 -0.124681 0
M  V30 881 O 92.6101 5.46467 0.0600579 0
M  V30 882 H 89.7041 0.825795 0.0446279 0
M  V30 883 H 92.2501 1.56303 -0.660859 0
M  V30 884 H 91.0221 3.72045 -1.21235 0
M  V30 885 H 90.6451 3.94597 0.487775 0
M  V30 886 N 91.6422 0.330177 1.54103 0
M  V30 887 C 92.5722 -0.525353 2.27513 0
M  V30 888 C 93.5532 -1.11383 1.2856 0
M  V30 889 O 94.7382 -1.13773 1.57383 0
M  V30 890 C 91.8682 -1.6831 3.03791 0
M  V30 891 C 90.8222 -1.2236 4.10137 0
M  V30 892 C 90.1482 -2.46882 4.74293 0
M  V30 893 C 91.4482 -0.333697 5.21233 0
M  V30 894 H 93.1422 0.087013 2.99274 0
M  V30 895 H 90.6882 0.0432893 1.43935 0
M  V30 896 H 92.6412 -2.28795 3.5388 0
M  V30 897 H 91.3652 -2.32216 2.29659 0
M  V30 898 H 90.0242 -0.64165 3.60941 0
M  V30 899 H 89.6722 -3.09165 3.96769 0
M  V30 900 H 89.3722 -2.16825 5.46133 0
M  V30 901 H 90.8962 -3.08117 5.27159 0
M  V30 902 H 92.3102 -0.845013 5.67038 0
M  V30 903 H 90.7072 -0.125612 5.99969 0
M  V30 904 H 91.7772 0.633724 4.80741 0
M  V30 905 N 93.1203 -1.57491 0.0584922 0
M  V30 906 C 94.3503 -1.9701 -0.622134 0
M  V30 907 C 94.7583 -0.935034 -1.6448 0
M  V30 908 O 94.1013 0.0882904 -1.83488 0
M  V30 909 C 94.1633 -3.32794 -1.35972 0
M  V30 910 C 93.8273 -4.54343 -0.492043 0
M  V30 911 C 94.8243 -5.19323 0.244901 0
M  V30 912 C 92.5093 -5.00534 -0.420821 0
M  V30 913 C 94.5033 -6.28835 1.04143 0
M  V30 914 C 92.1903 -6.09921 0.379389 0
M  V30 915 C 93.1883 -6.73933 1.10919 0
M  V30 916 O 92.8763 -7.81216 1.89623 0
M  V30 917 H 92.6083 -0.653127 -0.174359 0
M  V30 918 H 95.1623 -2.05029 0.123418 0
M  V30 919 H 93.3923 -3.21351 -2.15105 0
M  V30 920 H 95.0813 -3.5701 -1.93129 0
M  V30 921 H 95.8473 -4.8459 0.19939 0
M  V30 922 H 91.7263 -4.50496 -0.978474 0
M  V30 923 H 95.2703 -6.7873 1.61157 0
M  V30 924 H 91.1673 -6.44089 0.426512 0
M  V30 925 H 91.9353 -7.98029 1.81913 0
M  V30 926 N 94.5984 0.214957 -1.56127 0
M  V30 927 C 95.8264 0.955092 -1.83536 0
M  V30 928 C 96.2414 1.77677 -0.638472 0
M  V30 929 O 95.5984 1.78219 0.392968 0
M  V30 930 C 95.6494 1.86734 -3.09536 0
M  V30 931 O 95.3704 1.07887 -4.24608 0
M  V30 932 C 96.8714 2.72082 -3.4998 0
M  V30 933 H 94.0914 0.279611 -0.609966 0
M  V30 934 H 96.6354 0.228197 -2.03223 0
M  V30 935 H 94.7904 2.5481 -2.91806 0
M  V30 936 H 95.2044 1.69872 -4.9623 0
M  V30 937 H 96.6784 3.31782 -4.41163 0
M  V30 938 H 97.1554 3.44806 -2.7204 0
M  V30 939 H 97.7614 2.09409 -3.70173 0
M  V30 940 N 96.0765 1.50051 0.48192 0
M  V30 941 C 97.3045 1.64237 1.25832 0
M  V30 942 C 97.7195 0.321336 1.86045 0
M  V30 943 O 97.0765 -0.695478 1.68729 0
M  V30 944 C 97.1275 2.72548 2.37487 0
M  V30 945 O 96.8485 3.99529 1.79745 0
M  V30 946 C 98.3495 2.9761 3.28547 0
M  V30 947 H 95.5695 0.55237 0.380957 0
M  V30 948 H 98.1135 1.96207 0.576467 0
M  V30 949 H 96.2685 2.43303 3.01467 0
M  V30 950 H 96.6825 4.59342 2.5319 0
M  V30 951 H 98.1565 3.77084 4.03127 0
M  V30 952 H 98.6335 2.0826 3.86684 0
M  V30 953 H 99.2395 3.28345 2.70314 0
M  V30 954 N 97.5546 -0.734337 1.39446 0
M  V30 955 C 98.7796 -1.52866 1.40167 0
M  V30 956 C 99.2046 -1.881 -0.00171513 0
M  V30 957 O 98.5626 -1.51957 -0.988879 0
M  V30 958 C 98.6106 -2.79235 2.28167 0
M  V30 959 O 97.7146 -3.75185 1.71201 0
M  V30 960 H 97.0556 -0.461618 0.477289 0
M  V30 961 H 99.5856 -0.905949 1.8345 0
M  V30 962 H 99.5956 -3.27963 2.42702 0
M  V30 963 H 98.2706 -2.52923 3.30156 0
M  V30 964 H 96.8476 -3.33958 1.65912 0
M  V30 965 N 99.0327 -1.24633 -0.964593 0
M  V30 966 C 100.258 -1.11596 -1.74818 0
M  V30 967 C 100.683 0.32723 -1.85232 0
M  V30 968 O 100.041 1.23695 -1.32549 0
M  V30 969 C 100.089 -1.76397 -3.1451 0
M  V30 970 O 99.1927 -1.03685 -3.99153 0
M  V30 971 H 98.5337 -0.390196 -0.537255 0
M  V30 972 H 101.064 -1.65002 -1.20977 0
M  V30 973 H 101.074 -1.8228 -3.65018 0
M  V30 974 H 99.7487 -2.81401 -3.06246 0
M  V30 975 H 98.3257 -1.05611 -3.57632 0
M  V30 976 N 100.511 1.16574 -1.06058 0
M  V30 977 C 101.443 2.2045 -0.627239 0
M  V30 978 C 102.456 1.59752 0.313534 0
M  V30 979 O 103.645 1.78192 0.104896 0
M  V30 980 C 100.745 3.3875 0.100974 0
M  V30 981 C 99.9178 4.29008 -0.852687 0
M  V30 982 C 98.9768 5.25944 -0.164152 0
M  V30 983 O 98.0028 5.63535 -0.801047 0
M  V30 984 N 99.2048 5.70075 1.09518 0
M  V30 985 H 101.97 2.58249 -1.52077 0
M  V30 986 H 99.5308 1.3156 -0.943594 0
M  V30 987 H 101.523 4.00638 0.57194 0
M  V30 988 H 100.093 2.99476 0.89628 0
M  V30 989 H 99.3128 3.64419 -1.50308 0
M  V30 990 H 100.601 4.86195 -1.49972 0
M  V30 991 H 99.9988 5.41624 1.6328 0
M  V30 992 H 98.5558 6.34067 1.51006 0
M  V30 993 N 101.989 0.842826 1.3317 0
M  V30 994 C 102.919 0.294028 2.31641 0
M  V30 995 C 103.9 -0.600401 1.59151 0
M  V30 996 O 105.085 -0.523124 1.87022 0
M  V30 997 C 102.215 -0.528416 3.43257 0
M  V30 998 C 101.169 0.27056 4.27144 0
M  V30 999 C 100.495 -0.675881 5.30411 0
M  V30 1000 C 101.795 1.48981 5.00602 0
M  V30 1001 H 103.489 1.11681 2.77791 0
M  V30 1002 H 101.035 0.538478 1.33553 0
M  V30 1003 H 102.988 -0.922674 4.11175 0
M  V30 1004 H 101.712 -1.38445 2.95805 0
M  V30 1005 H 100.371 0.646427 3.60856 0
M  V30 1006 H 100.019 -1.52842 4.79216 0
M  V30 1007 H 99.7189 -0.145374 5.8742 0
M  V30 1008 H 101.243 -1.06757 6.01195 0
M  V30 1009 H 102.657 1.16849 5.61266 0
M  V30 1010 H 101.054 1.95739 5.6728 0
M  V30 1011 H 102.124 2.25746 4.29147 0
M  V30 1012 N 103.467 -1.45747 0.599634 0
M  V30 1013 C 104.695 -2.06668 0.0978551 0
M  V30 1014 C 105.11 -1.44562 -1.21439 0
M  V30 1015 O 104.467 -0.556923 -1.73795 0
M  V30 1016 C 104.518 -3.61456 -0.0567044 0
M  V30 1017 O 104.239 -4.21242 1.20361 0
M  V30 1018 C 105.74 -4.39345 -0.590869 0
M  V30 1019 H 102.96 -0.667825 0.0651943 0
M  V30 1020 H 105.504 -1.87115 0.82511 0
M  V30 1021 H 103.659 -3.80378 -0.734251 0
M  V30 1022 H 104.073 -5.14323 1.02821 0
M  V30 1023 H 105.547 -5.48182 -0.648131 0
M  V30 1024 H 106.024 -4.08568 -1.61147 0
M  V30 1025 H 106.63 -4.25268 0.0523679 0
M  V30 1026 N 104.945 -0.338344 -1.53925 0
M  V30 1027 C 105.875 0.51328 -2.27789 0
M  V30 1028 C 106.856 1.107 -1.29149 0
M  V30 1029 O 108.041 1.12937 -1.57984 0
M  V30 1030 C 105.171 1.66697 -3.04679 0
M  V30 1031 C 104.125 1.20183 -4.1078 0
M  V30 1032 C 103.451 2.44363 -4.75595 0
M  V30 1033 C 104.751 0.30605 -5.21403 0
M  V30 1034 H 106.445 -0.102883 -2.99223 0
M  V30 1035 H 103.991 -0.0509219 -1.4391 0
M  V30 1036 H 105.944 2.26915 -3.55088 0
M  V30 1037 H 104.668 2.30995 -2.30887 0
M  V30 1038 H 103.327 0.622499 -3.61276 0
M  V30 1039 H 102.975 3.07057 -3.98403 0
M  V30 1040 H 102.675 2.13925 -5.47275 0
M  V30 1041 H 104.199 3.05317 -5.28786 0
M  V30 1042 H 105.613 0.814929 -5.67478 0
M  V30 1043 H 104.01 0.0937929 -6.00027 0
M  V30 1044 H 105.08 -0.65921 -4.80398 0
M  V30 1045 N 106.423 1.57458 -0.0668435 0
M  V30 1046 C 107.834 1.80776 0.466558 0
M  V30 1047 C 108.185 0.980361 1.69951 0
M  V30 1048 O 107.31 0.201441 2.1546 0
M  V30 1049 C 107.905 3.27881 0.85321 0
M  V30 1050 C 106.464 3.52062 1.3315 0
M  V30 1051 C 105.611 2.75513 0.314264 0
M  V30 1052 H 108.562 1.5598 -0.292588 0
M  V30 1053 H 108.583 3.39659 1.715 0
M  V30 1054 H 108.095 3.88075 -0.0443439 0
M  V30 1055 H 106.196 2.97167 2.24772 0
M  V30 1056 H 106.309 4.60762 1.31285 0
M  V30 1057 H 104.673 2.42123 0.790492 0
M  V30 1058 H 105.456 3.38442 -0.575477 0
M  V30 1059 N 107.901 -0.206675 1.56239 0
M  V30 1060 C 108.864 -1.23976 1.92776 0
M  V30 1061 C 109.864 -1.39041 0.807729 0
M  V30 1062 O 111.054 -1.37051 1.0753 0
M  V30 1063 C 108.186 -2.61112 2.19165 0
M  V30 1064 H 109.379 -0.927764 2.85189 0
M  V30 1065 H 106.932 -0.447718 1.4975 0
M  V30 1066 H 107.667 -2.97386 1.29352 0
M  V30 1067 H 107.452 -2.51552 3.00772 0
M  V30 1068 H 108.942 -3.35633 2.48476 0
M  V30 1069 N 109.379 -1.50304 -0.473955 0
M  V30 1070 C 110.607 -1.64902 -1.24959 0
M  V30 1071 C 111.022 -0.331198 -1.85872 0
M  V30 1072 O 110.379 0.68652 -1.69095 0
M  V30 1073 C 110.43 -2.73803 -2.36038 0
M  V30 1074 O 110.151 -4.00477 -1.77624 0
M  V30 1075 C 111.652 -2.99349 -3.26964 0
M  V30 1076 H 108.872 -0.554383 -0.378022 0
M  V30 1077 H 111.416 -1.9651 -0.566054 0
M  V30 1078 H 109.571 -2.44898 -3.00173 0
M  V30 1079 H 109.985 -4.60678 -2.5075 0
M  V30 1080 H 111.459 -3.79217 -4.01121 0
M  V30 1081 H 111.936 -2.10307 -3.85574 0
M  V30 1082 H 112.542 -3.29774 -2.68569 0
M  V30 1083 N 110.857 0.726932 -1.39834 0
M  V30 1084 C 111.789 1.85147 -1.35104 0
M  V30 1085 C 112.802 1.60736 -0.258392 0
M  V30 1086 O 113.991 1.70821 -0.517931 0
M  V30 1087 C 111.091 3.21332 -1.07697 0
M  V30 1088 C 110.264 3.73033 -2.28396 0
M  V30 1089 C 109.323 4.87802 -1.97322 0
M  V30 1090 O 108.349 5.01043 -2.70083 0
M  V30 1091 N 109.551 5.72768 -0.944273 0
M  V30 1092 H 112.316 1.89706 -2.32017 0
M  V30 1093 H 109.877 0.908006 -1.3404 0
M  V30 1094 H 111.869 3.95691 -0.849144 0
M  V30 1095 H 110.439 3.11992 -0.194909 0
M  V30 1096 H 109.659 2.89934 -2.6708 0
M  V30 1097 H 110.947 4.0431 -3.08887 0
M  V30 1098 H 110.345 5.64669 -0.341427 0
M  V30 1099 H 108.902 6.4716 -0.776346 0
M  V30 1100 N 112.336 1.25143 0.95797 0
M  V30 1101 C 113.576 1.10893 1.71703 0
M  V30 1102 C 113.94 -0.34478 1.88879 0
M  V30 1103 O 115.141 -0.609014 2.6181 0
M  V30 1104 C 113.412 1.83889 3.06463 0
M  V30 1105 S 114.971 1.85491 3.97666 0
M  V30 1106 H 111.789 0.396428 0.590226 0
M  V30 1107 H 114.391 1.58618 1.14283 0
M  V30 1108 H 113.095 2.88756 2.9163 0
M  V30 1109 H 112.626 1.36538 3.68946 0
M  V30 1110 H 114.641 0.929553 4.87415 0
M  V30 1111 N 113.814 -1.1601 1.06675 0
M  V30 1112 C 114.744 -2.22688 0.702307 0
M  V30 1113 C 115.725 -1.67306 -0.307032 0
M  V30 1114 O 116.91 -1.93352 -0.181305 0
M  V30 1115 C 114.04 -3.47178 0.092038 0
M  V30 1116 C 112.994 -4.15477 1.02777 0
M  V30 1117 C 112.32 -5.33963 0.28061 0
M  V30 1118 C 113.62 -4.66019 2.35846 0
M  V30 1119 H 115.314 -2.53429 1.59419 0
M  V30 1120 H 112.86 -1.21813 0.767961 0
M  V30 1121 H 114.813 -4.21037 -0.174814 0
M  V30 1122 H 113.537 -3.15749 -0.834877 0
M  V30 1123 H 112.196 -3.43549 1.27944 0
M  V30 1124 H 111.844 -4.98788 -0.649545 0
M  V30 1125 H 111.544 -5.806 0.904258 0
M  V30 1126 H 113.068 -6.10596 0.021396 0
M  V30 1127 H 114.482 -5.3144 2.15045 0
M  V30 1128 H 112.879 -5.23293 2.93743 0
M  V30 1129 H 113.949 -3.82023 2.98641 0
M  V30 1130 N 115.292 -0.849877 -1.32721 0
M  V30 1131 C 116.255 -0.296122 -2.27279 0
M  V30 1132 C 117.255 0.541458 -1.5141 0
M  V30 1133 O 118.445 0.353658 -1.70572 0
M  V30 1134 C 115.577 0.581579 -3.35902 0
M  V30 1135 H 116.77 -1.13064 -2.77771 0
M  V30 1136 H 114.323 -0.62383 -1.43311 0
M  V30 1137 H 115.058 1.43809 -2.9067 0
M  V30 1138 H 114.843 -0.0178814 -3.92096 0
M  V30 1139 H 116.333 0.961951 -4.0637 0
M  V30 1140 N 116.77 1.45427 -0.607355 0
M  V30 1141 C 118.018 2.01841 -0.102253 0
M  V30 1142 C 118.339 1.47832 1.27164 0
M  V30 1143 O 117.609 0.672497 1.83995 0
M  V30 1144 H 116.189 0.746188 -0.0348101 0
M  V30 1145 H 118.851 1.78229 -0.7887 0
M  V30 1146 H 117.947 3.12057 -0.0518585 0
M  V30 1147 N 118.248 0.346503 1.53744 0
M  V30 1148 C 119.195 -0.508914 2.25119 0
M  V30 1149 C 120.165 -1.09315 1.25058 0
M  V30 1150 O 121.35 -1.12921 1.53797 0
M  V30 1151 C 118.49 -1.65246 3.02965 0
M  V30 1152 C 117.603 -1.09525 4.17886 0
M  V30 1153 C 116.738 -2.20634 4.83212 0
M  V30 1154 C 115.777 -1.62279 5.90196 0
M  V30 1155 N 114.914 -2.67143 6.49291 0
M  V30 1156 H 119.754 0.106283 2.9781 0
M  V30 1157 H 117.291 0.0642227 1.4696 0
M  V30 1158 H 119.249 -2.32574 3.4636 0
M  V30 1159 H 117.879 -2.2386 2.32565 0
M  V30 1160 H 116.931 -0.312818 3.79112 0
M  V30 1161 H 118.243 -0.628444 4.94825 0
M  V30 1162 H 117.397 -2.95821 5.29693 0
M  V30 1163 H 116.136 -2.70659 4.05703 0
M  V30 1164 H 115.141 -0.855989 5.43096 0
M  V30 1165 H 116.366 -1.13102 6.69615 0
M  V30 1166 H 114.312 -3.16417 5.74645 0
M  V30 1167 H 114.229 -2.25093 7.21713 0
M  V30 1168 H 115.497 -3.4209 7.00425 0
M  V30 1169 N 119.726 -1.57421 0.075193 0
M  V30 1170 C 120.951 -1.98364 -0.605515 0
M  V30 1171 C 121.376 -0.953383 -1.62149 0
M  V30 1172 O 120.734 0.0806053 -1.81121 0
M  V30 1173 C 120.782 -3.38332 -1.24756 0
M  V30 1174 O 119.886 -3.37959 -2.36342 0
M  V30 1175 H 119.227 -0.645553 -0.155428 0
M  V30 1176 H 121.757 -2.04044 0.150714 0
M  V30 1177 H 121.767 -3.75591 -1.5936 0
M  V30 1178 H 120.442 -4.12846 -0.503129 0
M  V30 1179 H 119.019 -3.12474 -2.03506 0
M  V30 1180 N 121.204 0.198386 -1.56346 0
M  V30 1181 C 122.45 0.920648 -1.80698 0
M  V30 1182 C 122.783 1.83045 -0.648697 0
M  V30 1183 O 122.058 1.91308 0.350925 0
M  V30 1184 C 122.341 1.73971 -3.15287 0
M  V30 1185 C 122.194 0.85485 -4.41602 0
M  V30 1186 C 123.513 2.71296 -3.46535 0
M  V30 1187 H 120.632 0.333261 -0.657348 0
M  V30 1188 H 123.274 0.188198 -1.89066 0
M  V30 1189 H 121.424 2.36416 -3.08285 0
M  V30 1190 H 123.096 0.245362 -4.60647 0
M  V30 1191 H 121.339 0.161398 -4.335 0
M  V30 1192 H 122.01 1.46286 -5.32264 0
M  V30 1193 H 124.486 2.18983 -3.53816 0
M  V30 1194 H 123.362 3.2569 -4.41834 0
M  V30 1195 H 123.623 3.5018 -2.69864 0
M  V30 1196 N 122.682 1.50554 0.465978 0
M  V30 1197 C 123.91 1.65563 1.24083 0
M  V30 1198 C 124.325 0.341051 1.85694 0
M  V30 1199 O 123.682 -0.677543 1.69457 0
M  V30 1200 C 123.733 2.75051 2.34583 0
M  V30 1201 O 123.454 4.01413 1.75497 0
M  V30 1202 C 124.955 3.01078 3.25372 0
M  V30 1203 H 122.175 0.55638 0.375077 0
M  V30 1204 H 124.719 1.96807 0.555624 0
M  V30 1205 H 122.874 2.46486 2.9887 0
M  V30 1206 H 123.288 4.62002 2.48303 0
M  V30 1207 H 124.762 3.81339 3.99105 0
M  V30 1208 H 125.239 2.12349 3.84453 0
M  V30 1209 H 125.845 3.31194 2.66816 0
M  V30 1210 N 124.16 -0.719506 1.40217 0
M  V30 1211 C 125.4 -1.49181 1.39729 0
M  V30 1212 C 125.764 -1.92 -0.00250614 0
M  V30 1213 O 126.965 -2.68473 -0.132479 0
M  V30 1214 C 125.236 -2.68767 2.35582 0
M  V30 1215 S 126.795 -3.58224 2.53418 0
M  V30 1216 H 123.613 -0.510091 0.495307 0
M  V30 1217 H 126.215 -0.841724 1.76452 0
M  V30 1218 H 124.919 -2.35475 3.36124 0
M  V30 1219 H 124.45 -3.38691 2.0013 0
M  V30 1220 H 126.465 -4.63033 1.78367 0
M  V30 1221 N 125.638 -1.25649 -0.95132 0
M  V30 1222 C 126.588 -1.03004 -2.03406 0
M  V30 1223 C 127.572 0.034187 -1.60864 0
M  V30 1224 O 128.764 -0.181549 -1.76066 0
M  V30 1225 C 125.893 -0.654255 -3.37008 0
M  V30 1226 C 124.979 -1.75542 -3.86065 0
M  V30 1227 N 125.37 -2.99113 -4.07879 0
M  V30 1228 C 123.668 -1.63669 -4.14884 0
M  V30 1229 C 124.369 -3.70611 -4.48356 0
M  V30 1230 N 123.345 -2.98247 -4.54477 0
M  V30 1231 H 127.147 -1.96813 -2.1827 0
M  V30 1232 H 124.661 -1.16017 -1.13639 0
M  V30 1233 H 126.658 -0.473206 -4.14206 0
M  V30 1234 H 125.318 0.276468 -3.23521 0
M  V30 1235 H 126.329 -3.35124 -3.94857 0
M  V30 1236 H 123.006 -0.775161 -4.10241 0
M  V30 1237 H 124.396 -4.76695 -4.73509 0
M  V30 1238 N 127.117 1.15442 -1.07289 0
M  V30 1239 C 128.363 1.86489 -0.796846 0
M  V30 1240 C 128.696 1.82078 0.675371 0
M  V30 1241 O 127.971 1.24346 1.4956 0
M  V30 1242 C 128.254 3.35626 -1.30489 0
M  V30 1243 C 128.107 3.48673 -2.84161 0
M  V30 1244 C 129.426 4.30357 -0.920907 0
M  V30 1245 H 126.545 0.677144 -0.290939 0
M  V30 1246 H 129.187 1.35633 -1.33056 0
M  V30 1247 H 127.337 3.79068 -0.850883 0
M  V30 1248 H 129.009 3.14099 -3.37846 0
M  V30 1249 H 127.252 2.90253 -3.22391 0
M  V30 1250 H 127.923 4.53453 -3.14777 0
M  V30 1251 H 130.399 3.94871 -1.3121 0
M  V30 1252 H 129.275 5.33193 -1.30372 0
M  V30 1253 H 129.536 4.4176 0.173226 0
M  V30 1254 N 128.595 0.856903 1.32268 0
M  V30 1255 C 129.542 0.301172 2.28827 0
M  V30 1256 C 130.512 -0.593104 1.5515 0
M  V30 1257 O 131.697 -0.527537 1.83362 0
M  V30 1258 C 128.837 -0.502523 3.41422 0
M  V30 1259 C 127.95 0.417797 4.29975 0
M  V30 1260 C 127.085 -0.398749 5.29701 0
M  V30 1261 C 126.124 0.518827 6.09897 0
M  V30 1262 N 125.261 -0.260674 7.01616 0
M  V30 1263 H 130.101 1.12983 2.75751 0
M  V30 1264 H 127.638 0.568582 1.35667 0
M  V30 1265 H 129.596 -0.984141 4.05426 0
M  V30 1266 H 128.226 -1.29599 2.95642 0
M  V30 1267 H 127.278 1.01781 3.66531 0
M  V30 1268 H 128.59 1.12191 4.86019 0
M  V30 1269 H 127.744 -0.943435 5.9932 0
M  V30 1270 H 126.483 -1.13622 4.7428 0
M  V30 1271 H 125.488 1.07538 5.39181 0
M  V30 1272 H 126.713 1.25495 6.67404 0
M  V30 1273 H 124.659 -0.981198 6.4862 0
M  V30 1274 H 124.576 0.384364 7.55022 0
M  V30 1275 H 125.844 -0.787014 7.75517 0
M  V30 1276 N 130.073 -1.45103 0.615059 0
M  V30 1277 C 131.023 -2.27679 -0.120966 0
M  V30 1278 C 132.007 -1.3775 -0.831491 0
M  V30 1279 O 133.199 -1.61683 -0.720249 0
M  V30 1280 C 130.328 -3.24767 -1.1127 0
M  V30 1281 C 129.414 -4.22184 -0.402627 0
M  V30 1282 N 129.805 -5.02692 0.559884 0
M  V30 1283 C 128.103 -4.4125 -0.649202 0
M  V30 1284 C 128.804 -5.73421 0.977942 0
M  V30 1285 N 127.78 -5.42657 0.320104 0
M  V30 1286 H 131.582 -2.87325 0.618181 0
M  V30 1287 H 129.096 -1.56345 0.439304 0
M  V30 1288 H 131.093 -3.82666 -1.65446 0
M  V30 1289 H 129.753 -2.66682 -1.85232 0
M  V30 1290 H 130.764 -5.09354 0.936976 0
M  V30 1291 H 127.441 -3.9428 -1.37293 0
M  V30 1292 H 128.831 -6.48107 1.77222 0
M  V30 1293 N 131.551 -0.354651 -1.53558 0
M  V30 1294 C 132.781 0.239167 -2.05211 0
M  V30 1295 C 133.189 1.43879 -1.22863 0
M  V30 1296 O 132.532 1.81857 -0.259565 0
M  V30 1297 C 132.594 0.707251 -3.52474 0
M  V30 1298 C 132.258 -0.374212 -4.55465 0
M  V30 1299 C 133.255 -1.22054 -5.0537 0
M  V30 1300 C 130.94 -0.531323 -4.99482 0
M  V30 1301 C 132.934 -2.20942 -5.97882 0
M  V30 1302 C 130.621 -1.52358 -5.91802 0
M  V30 1303 C 131.619 -2.36108 -6.40892 0
M  V30 1304 O 131.307 -3.33643 -7.31394 0
M  V30 1305 H 131.039 0.0479716 -0.674296 0
M  V30 1306 H 133.593 -0.508121 -1.99016 0
M  V30 1307 H 131.823 1.50596 -3.56171 0
M  V30 1308 H 133.512 1.22285 -3.87042 0
M  V30 1309 H 134.278 -1.1103 -4.7212 0
M  V30 1310 H 130.157 0.110738 -4.60867 0
M  V30 1311 H 133.701 -2.86348 -6.36121 0
M  V30 1312 H 129.598 -1.63434 -6.24467 0
M  V30 1313 H 130.366 -3.29244 -7.4936 0
M  V30 1314 N 133.029 1.57378 -0.0835403 0
M  V30 1315 C 134.257 1.98263 0.59157 0
M  V30 1316 C 134.672 0.962302 1.62435 0
M  V30 1317 O 134.029 -0.049581 1.82433 0
M  V30 1318 C 134.08 3.39214 1.24965 0
M  V30 1319 O 133.801 4.37339 0.258186 0
M  V30 1320 C 135.302 3.95038 2.01147 0
M  V30 1321 H 132.522 0.651773 0.159477 0
M  V30 1322 H 135.066 2.03878 -0.159415 0
M  V30 1323 H 133.221 3.34649 1.95164 0
M  V30 1324 H 133.635 5.19371 0.731734 0
M  V30 1325 H 135.109 4.95848 2.42567 0
M  V30 1326 H 135.586 3.32222 2.87272 0
M  V30 1327 H 136.192 4.0304 1.35789 0
M  V30 1328 N 134.507 -0.190092 1.56449 0
M  V30 1329 C 135.455 -1.25501 1.95837 0
M  V30 1330 C 136.449 -1.4685 0.844485 0
M  V30 1331 O 137.655 -1.47651 1.02952 0
M  V30 1332 H 134.03 -0.421447 0.622805 0
M  V30 1333 H 136.001 -0.895821 2.84636 0
M  V30 1334 C 134.75 -2.59124 2.31841 0
M  V30 1335 H 134.073 -2.43514 3.17082 0
M  V30 1336 H 135.513 -3.32371 2.6326 0
M  V30 1337 C 133.972 -3.16488 1.15486 0
M  V30 1338 O 134.502 -3.99365 0.432535 0
M  V30 1339 N 132.708 -2.75305 0.930349 0
M  V30 1340 H 132.255 -2.08013 1.51948 0
M  V30 1341 H 132.213 -3.14024 0.153634 0
M  V30 1342 N 135.985 -1.50799 -0.457987 0
M  V30 1343 C 137.396 -1.55152 -1.0385 0
M  V30 1344 C 137.747 -0.362719 -1.92818 0
M  V30 1345 O 136.872 0.522915 -2.09987 0
M  V30 1346 C 137.467 -2.81173 -1.89017 0
M  V30 1347 C 136.026 -2.88164 -2.42154 0
M  V30 1348 C 135.173 -2.49591 -1.20829 0
M  V30 1349 H 138.124 -1.56874 -0.240068 0
M  V30 1350 H 138.145 -2.63769 -2.74238 0
M  V30 1351 H 137.657 -3.67677 -1.24238 0
M  V30 1352 H 135.758 -2.06042 -3.10447 0
M  V30 1353 H 135.871 -3.91356 -2.76364 0
M  V30 1354 H 134.235 -2.02322 -1.54719 0
M  V30 1355 H 135.018 -3.38418 -0.576927 0
M  V30 1356 N 137.463 0.71206 -1.40597 0
M  V30 1357 C 138.688 1.50617 -1.42581 0
M  V30 1358 C 139.113 1.88079 -0.0282102 0
M  V30 1359 O 138.471 1.53511 0.964579 0
M  V30 1360 C 138.519 2.7557 -2.3258 0
M  V30 1361 O 137.623 3.72414 -1.77148 0
M  V30 1362 H 136.964 0.453966 -0.484573 0
M  V30 1363 H 139.494 0.876649 -1.84868 0
M  V30 1364 H 139.504 3.2406 -2.47889 0
M  V30 1365 H 138.179 2.47639 -3.34138 0
M  V30 1366 H 136.756 3.31276 -1.71204 0
M  V30 1367 N 138.941 1.26152 0.944643 0
M  V30 1368 C 139.873 1.03199 2.04652 0
M  V30 1369 C 140.886 -0.00642356 1.62799 0
M  V30 1370 O 142.075 0.233263 1.76969 0
M  V30 1371 C 139.175 0.540111 3.34568 0
M  V30 1372 C 138.348 1.64697 4.05208 0
M  V30 1373 C 137.407 1.15374 5.13396 0
M  V30 1374 O 136.433 1.85013 5.38293 0
M  V30 1375 N 137.635 0.00031529 5.805 0
M  V30 1376 H 140.4 1.9808 2.2491 0
M  V30 1377 H 137.961 1.17491 1.11389 0
M  V30 1378 H 139.953 0.194401 4.04233 0
M  V30 1379 H 138.523 -0.315021 3.11009 0
M  V30 1380 H 137.743 2.16379 3.29506 0
M  V30 1381 H 139.031 2.3903 4.49157 0
M  V30 1382 H 138.429 -0.581336 5.62705 0
M  V30 1383 H 136.986 -0.286346 6.51171 0
M  V30 1384 N 140.419 -1.14872 1.07899 0
M  V30 1385 C 141.696 -1.81928 0.71845 0
M  V30 1386 C 142.076 -1.95417 -0.798455 0
M  V30 1387 O 141.424 -1.50997 -1.715 0
M  V30 1388 C 141.634 -3.17937 1.43935 0
M  V30 1389 C 142.982 -3.93501 1.59506 0
M  V30 1390 O 144.006 -3.27509 1.40058 0
M  V30 1391 O 142.865 -5.1183 1.91551 0
M  V30 1392 H 139.959 -0.78628 0.256305 0
M  V30 1393 H 142.505 -1.21934 1.18026 0
M  V30 1394 H 141.277 -3.0325 2.47295 0
M  V30 1395 H 140.9 -3.85619 0.968687 0
M  V30 1396 N 141.898 -0.863906 -1.31812 0
M  V30 1397 C 143.144 -0.472535 -1.97218 0
M  V30 1398 C 143.477 0.971394 -1.68159 0
M  V30 1399 O 142.752 1.68309 -0.974798 0
M  V30 1400 C 143.035 -0.723054 -3.52766 0
M  V30 1401 C 142.888 -2.21608 -3.91421 0
M  V30 1402 C 144.207 -0.185522 -4.39709 0
M  V30 1403 H 141.326 -0.173158 -0.71637 0
M  V30 1404 H 143.968 -1.08403 -1.56041 0
M  V30 1405 H 142.118 -0.202577 -3.87971 0
M  V30 1406 H 143.79 -2.80334 -3.66347 0
M  V30 1407 H 142.033 -2.691 -3.40246 0
M  V30 1408 H 142.704 -2.34203 -4.99853 0
M  V30 1409 H 145.18 -0.630726 -4.11292 0
M  V30 1410 H 144.056 -0.390306 -5.47511 0
M  V30 1411 H 144.317 0.912229 -4.32586 0
M  V30 1412 N 143.376 1.44774 -0.622745 0
M  V30 1413 C 144.604 2.06487 -0.130722 0
M  V30 1414 C 145.019 1.46476 1.19123 0
M  V30 1415 O 144.376 0.584502 1.72887 0
M  V30 1416 C 144.427 3.615 -0.000807207 0
M  V30 1417 O 144.148 4.19274 -1.27048 0
M  V30 1418 C 145.649 4.40229 0.520898 0
M  V30 1419 H 142.869 0.666704 -0.0758106 0
M  V30 1420 H 145.413 1.85779 -0.854774 0
M  V30 1421 H 143.568 3.81498 0.673643 0
M  V30 1422 H 143.982 5.12622 -1.1099 0
M  V30 1423 H 145.456 5.49144 0.560838 0
M  V30 1424 H 145.933 4.1108 1.54627 0
M  V30 1425 H 146.539 4.25131 -0.120018 0
M  V30 1426 N 144.854 0.36279 1.53368 0
M  V30 1427 C 146.1 -0.228113 2.01513 0
M  V30 1428 C 146.433 -1.48648 1.2497 0
M  V30 1429 O 145.708 -1.91459 0.342616 0
M  V30 1430 C 145.991 -0.522884 3.56284 0
M  V30 1431 C 145.844 0.74892 4.43521 0
M  V30 1432 C 147.163 -1.32461 4.19693 0
M  V30 1433 H 144.282 -0.0814343 0.732487 0
M  V30 1434 H 146.924 0.48713 1.83649 0
M  V30 1435 H 145.074 -1.1322 3.71636 0
M  V30 1436 H 146.746 1.38648 4.39971 0
M  V30 1437 H 144.989 1.36986 4.11603 0
M  V30 1438 H 145.66 0.497667 5.49752 0
M  V30 1439 H 148.136 -0.809203 4.08156 0
M  V30 1440 H 147.012 -1.49961 5.28018 0
M  V30 1441 H 147.273 -2.33232 3.75573 0
M  V30 1442 N 146.332 -1.57332 0.0918853 0
M  V30 1443 C 147.743 -1.81496 -0.437739 0
M  V30 1444 C 148.094 -1.00727 -1.6837 0
M  V30 1445 O 147.219 -0.235694 -2.15113 0
M  V30 1446 C 147.814 -3.29197 -0.800939 0
M  V30 1447 C 146.373 -3.54136 -1.27532 0
M  V30 1448 C 145.52 -2.75979 -0.270392 0
M  V30 1449 H 148.471 -1.55494 0.317366 0
M  V30 1450 H 148.492 -3.42344 -1.66074 0
M  V30 1451 H 148.004 -3.87955 0.106078 0
M  V30 1452 H 146.105 -3.00705 -2.20016 0
M  V30 1453 H 146.218 -4.62792 -1.23938 0
M  V30 1454 H 144.582 -2.43349 -0.751872 0
M  V30 1455 H 145.365 -3.37484 0.629248 0
M  V30 1456 N 147.81 0.181792 -1.56548 0
M  V30 1457 C 149.05 0.906711 -1.83189 0
M  V30 1458 C 149.414 1.79882 -0.671312 0
M  V30 1459 O 150.615 2.56054 -0.81792 0
M  V30 1460 C 148.886 1.69023 -3.14906 0
M  V30 1461 S 150.445 2.46535 -3.62996 0
M  V30 1462 H 147.263 0.303877 -0.642791 0
M  V30 1463 H 149.865 0.169107 -1.94767 0
M  V30 1464 H 148.569 1.02571 -3.97376 0
M  V30 1465 H 148.1 2.46941 -3.06241 0
M  V30 1466 H 150.115 3.71014 -3.29489 0
M  V30 1467 N 149.288 1.51039 0.449983 0
M  V30 1468 C 150.699 1.557 1.03026 0
M  V30 1469 C 151.05 0.372939 1.92623 0
M  V30 1470 O 150.175 -0.511771 2.10261 0
M  V30 1471 C 150.77 2.82171 1.87523 0
M  V30 1472 C 149.329 2.89444 2.40622 0
M  V30 1473 C 148.476 2.50228 1.19504 0
M  V30 1474 H 151.427 1.56999 0.231745 0
M  V30 1475 H 151.448 2.65219 2.72835 0
M  V30 1476 H 150.96 3.68331 1.22286 0
M  V30 1477 H 149.061 2.07685 3.0935 0
M  V30 1478 H 149.174 3.92816 2.74285 0
M  V30 1479 H 147.538 2.03139 1.53644 0
M  V30 1480 H 148.321 3.38719 0.558972 0
M  V30 1481 N 150.766 -0.704594 1.40972 0
M  V30 1482 C 152.012 -1.46675 1.40051 0
M  V30 1483 C 152.345 -1.94199 0.00641102 0
M  V30 1484 O 151.62 -1.68916 -0.964235 0
M  V30 1485 C 151.903 -2.68505 2.39952 0
M  V30 1486 C 151.756 -2.26805 3.88432 0
M  V30 1487 C 153.075 -3.70686 2.37233 0
M  V30 1488 H 150.194 -0.532015 0.510028 0
M  V30 1489 H 152.836 -0.803255 1.72185 0
M  V30 1490 H 150.986 -3.25114 2.1268 0
M  V30 1491 H 152.658 -1.75592 4.26574 0
M  V30 1492 H 150.901 -1.58685 4.03734 0
M  V30 1493 H 151.572 -3.14181 4.53866 0
M  V30 1494 H 154.048 -3.23731 2.61415 0
M  V30 1495 H 152.924 -4.53553 3.09162 0
M  V30 1496 H 153.185 -4.19754 1.38777 0
M  V30 1497 N 152.244 -1.26651 -0.937939 0
M  V30 1498 C 153.655 -1.1125 -1.49934 0
M  V30 1499 C 154.006 0.306077 -1.93798 0
M  V30 1500 O 153.131 1.19792 -1.80219 0
M  V30 1501 C 153.726 -2.01339 -2.72485 0
M  V30 1502 C 152.285 -1.90074 -3.24883 0
M  V30 1503 C 151.432 -1.94498 -1.97651 0
M  V30 1504 H 154.383 -1.39693 -0.753091 0
M  V30 1505 H 154.404 -1.56319 -3.46907 0
M  V30 1506 H 153.916 -3.04577 -2.40529 0
M  V30 1507 H 152.017 -0.897827 -3.61621 0
M  V30 1508 H 152.13 -2.75778 -3.9177 0
M  V30 1509 H 150.494 -1.38591 -2.13693 0
M  V30 1510 H 151.277 -2.99372 -1.68022 0
M  V30 1511 N 153.722 1.14298 -1.08507 0
M  V30 1512 C 154.947 1.8976 -0.837001 0
M  V30 1513 C 155.372 1.78097 0.605228 0
M  V30 1514 O 154.73 1.12188 1.4242 0
M  V30 1515 C 154.778 3.37685 -1.26495 0
M  V30 1516 O 153.882 4.10281 -0.417514 0
M  V30 1517 H 153.223 0.590365 -0.303917 0
M  V30 1518 H 155.753 1.44672 -1.44676 0
M  V30 1519 H 155.763 3.88501 -1.24625 0
M  V30 1520 H 154.438 3.45492 -2.31534 0
M  V30 1521 H 153.015 3.69536 -0.499722 0
M  V30 1522 N 155.201 0.870884 1.31352 0
M  V30 1523 C 156.429 0.49677 2.00848 0
M  V30 1524 C 156.844 -0.910998 1.65367 0
M  V30 1525 O 156.201 -1.59696 0.883374 0
M  V30 1526 C 156.252 0.645308 3.55694 0
M  V30 1527 O 155.973 1.99764 3.89905 0
M  V30 1528 C 157.474 0.272326 4.42463 0
M  V30 1529 H 154.694 0.193462 0.642506 0
M  V30 1530 H 157.238 1.1723 1.67563 0
M  V30 1531 H 155.393 0.0173176 3.87396 0
M  V30 1532 H 155.807 2.00607 4.84621 0
M  V30 1533 H 157.281 0.427208 5.50344 0
M  V30 1534 H 157.758 -0.788587 4.32062 0
M  V30 1535 H 158.364 0.876054 4.1618 0
M  V30 1536 N 156.679 -1.44442 0.630414 0
M  V30 1537 C 158.09 -1.85434 0.217063 0
M  V30 1538 C 158.441 -1.52748 -1.23136 0
M  V30 1539 O 157.566 -0.965205 -1.93682 0
M  V30 1540 C 158.161 -3.36581 0.387168 0
M  V30 1541 C 156.72 -3.76389 0.0283297 0
M  V30 1542 C 155.867 -2.68296 0.700889 0
M  V30 1543 H 158.818 -1.34919 0.83562 0
M  V30 1544 H 158.839 -3.78657 -0.374086 0
M  V30 1545 H 158.351 -3.60339 1.44144 0
M  V30 1546 H 156.452 -3.58246 -1.02423 0
M  V30 1547 H 156.565 -4.77095 0.437892 0
M  V30 1548 H 154.929 -2.54335 0.136267 0
M  V30 1549 H 155.712 -2.94887 1.75774 0
M  V30 1550 N 158.157 -0.370918 -1.53173 0
M  V30 1551 C 159.568 0.107139 -1.86392 0
M  V30 1552 C 159.919 1.47714 -1.29132 0
M  V30 1553 O 159.044 2.07464 -0.615439 0
M  V30 1554 C 159.639 0.201187 -3.38202 0
M  V30 1555 C 158.198 0.623507 -3.712 0
M  V30 1556 C 157.345 -0.225978 -2.76378 0
M  V30 1557 H 160.296 -0.58951 -1.47345 0
M  V30 1558 H 160.317 1.02377 -3.66468 0
M  V30 1559 H 159.829 -0.796058 -3.79848 0
M  V30 1560 H 157.93 1.62879 -3.35114 0
M  V30 1561 H 158.043 0.394414 -4.77474 0
M  V30 1562 H 156.407 0.305962 -2.52856 0
M  V30 1563 H 157.19 -1.22086 -3.20858 0
M  V30 1564 N 159.635 1.57281 -0.100228 0
M  V30 1565 C 160.863 1.98879 0.570509 0
M  V30 1566 C 161.278 0.979476 1.61405 0
M  V30 1567 O 160.635 -0.0302288 1.82475 0
M  V30 1568 C 160.686 3.4052 1.2136 0
M  V30 1569 O 160.407 4.37588 0.211786 0
M  V30 1570 C 161.908 3.97149 1.96945 0
M  V30 1571 H 159.128 0.653428 0.152555 0
M  V30 1572 H 161.672 2.03697 -0.18103 0
M  V30 1573 H 159.827 3.367 1.91603 0
M  V30 1574 H 160.241 5.20118 0.676607 0
M  V30 1575 H 161.715 4.98393 2.37294 0
M  V30 1576 H 162.192 3.3525 2.83733 0
M  V30 1577 H 162.798 4.04458 1.31506 0
M  V30 1578 N 161.113 -0.173488 1.56642 0
M  V30 1579 C 162.524 -0.736155 1.71574 0
M  V30 1580 C 162.875 -1.82888 0.710389 0
M  V30 1581 O 162 -2.16017 -0.1287 0
M  V30 1582 C 162.595 -1.34211 3.11083 0
M  V30 1583 C 161.154 -1.85162 3.27707 0
M  V30 1584 C 160.301 -0.729765 2.67525 0
M  V30 1585 H 163.252 0.0518786 1.58615 0
M  V30 1586 H 163.273 -2.21178 3.09613 0
M  V30 1587 H 162.785 -0.546579 3.84232 0
M  V30 1588 H 160.886 -2.67366 2.59512 0
M  V30 1589 H 160.999 -1.99855 4.35425 0
M  V30 1590 H 159.363 -1.14965 2.27278 0
M  V30 1591 H 160.146 0.0538806 3.43258 0
M  V30 1592 N 162.591 -1.51276 -0.441967 0
M  V30 1593 C 163.816 -1.67799 -1.21895 0
M  V30 1594 C 164.241 -0.372864 -1.84367 0
M  V30 1595 O 163.599 0.666501 -1.68604 0
M  V30 1596 C 163.647 -2.79199 -2.28211 0
M  V30 1597 O 162.751 -2.42479 -3.33583 0
M  V30 1598 H 162.092 -0.559649 -0.357336 0
M  V30 1599 H 164.622 -1.97815 -0.522522 0
M  V30 1600 H 164.632 -3.03146 -2.73069 0
M  V30 1601 H 163.307 -3.73906 -1.82118 0
M  V30 1602 H 161.884 -2.29087 -2.94234 0
M  V30 1603 N 164.069 0.697108 -1.41344 0
M  V30 1604 C 165.48 1.27697 -1.36199 0
M  V30 1605 C 165.831 1.9615 -0.0443463 0
M  V30 1606 O 164.956 1.98689 0.857419 0
M  V30 1607 C 165.551 2.32223 -2.46694 0
M  V30 1608 C 164.11 2.8579 -2.44952 0
M  V30 1609 C 163.257 1.59807 -2.26621 0
M  V30 1610 H 166.208 0.491968 -1.50882 0
M  V30 1611 H 166.229 3.1348 -2.15664 0
M  V30 1612 H 165.741 1.82373 -3.42581 0
M  V30 1613 H 163.842 3.3982 -1.52817 0
M  V30 1614 H 163.955 3.36325 -3.41207 0
M  V30 1615 H 162.319 1.8556 -1.7447 0
M  V30 1616 H 163.102 1.11956 -3.24532 0
M  V30 1617 N 165.547 1.27147 0.931209 0
M  V30 1618 C 166.772 1.16191 1.71797 0
M  V30 1619 C 167.197 -0.278004 1.86034 0
M  V30 1620 O 166.555 -1.20137 1.35782 0
M  V30 1621 C 166.603 1.84673 3.09723 0
M  V30 1622 O 165.707 1.14231 3.96264 0
M  V30 1623 H 165.048 0.404303 0.526721 0
M  V30 1624 H 167.578 1.68152 1.1656 0
M  V30 1625 H 167.588 1.91893 3.60057 0
M  V30 1626 H 166.263 2.89421 2.98677 0
M  V30 1627 H 164.84 1.15056 3.54706 0
M  V30 1628 N 167.025 -1.13721 1.09112 0
M  V30 1629 C 168.253 -1.88773 0.846899 0
M  V30 1630 C 168.668 -1.7896 -0.601572 0
M  V30 1631 O 168.025 -1.15394 -1.41388 0
M  V30 1632 C 168.076 -3.3849 1.26913 0
M  V30 1633 O 167.797 -3.48043 2.66079 0
M  V30 1634 C 169.298 -4.30518 1.05682 0
M  V30 1635 H 166.518 -0.59772 0.304914 0
M  V30 1636 H 169.062 -1.43977 1.45227 0
M  V30 1637 H 167.217 -3.80881 0.707723 0
M  V30 1638 H 167.631 -4.4109 2.83795 0
M  V30 1639 H 169.105 -5.3391 1.40156 0
M  V30 1640 H 169.582 -4.392 -0.00563416 0
M  V30 1641 H 170.188 -3.93893 1.60402 0
M  V30 1642 N 168.503 -0.877838 -1.30888 0
M  V30 1643 C 169.914 -0.544193 -1.78593 0
M  V30 1644 C 170.265 0.939301 -1.72254 0
M  V30 1645 O 169.39 1.7337 -1.29505 0
M  V30 1646 C 169.985 -0.98105 -3.24285 0
M  V30 1647 C 168.544 -0.698935 -3.69854 0
M  V30 1648 C 167.691 -1.168 -2.51502 0
M  V30 1649 H 170.642 -1.06278 -1.17859 0
M  V30 1650 H 170.663 -0.307009 -3.79259 0
M  V30 1651 H 170.175 -2.06079 -3.28866 0
M  V30 1652 H 168.276 0.369112 -3.70767 0
M  V30 1653 H 168.389 -1.28148 -4.61644 0
M  V30 1654 H 166.753 -0.587535 -2.47831 0
M  V30 1655 H 167.536 -2.25533 -2.58824 0
M  V30 1656 N 169.982 1.44106 -0.638065 0
M  V30 1657 C 171.393 1.85316 -0.226894 0
M  V30 1658 C 171.744 1.53399 1.22324 0
M  V30 1659 O 170.869 0.975463 1.93167 0
M  V30 1660 C 171.464 3.3637 -0.405013 0
M  V30 1661 C 170.023 3.76369 -0.0482902 0
M  V30 1662 C 169.17 2.67921 -0.715108 0
M  V30 1663 H 172.121 1.34474 -0.842764 0
M  V30 1664 H 172.142 3.7885 0.354 0
M  V30 1665 H 171.654 3.59569 -1.46053 0
M  V30 1666 H 169.755 3.58784 1.00522 0
M  V30 1667 H 169.868 4.76856 -0.463187 0
M  V30 1668 H 168.232 2.54259 -0.149753 0
M  V30 1669 H 169.015 2.93951 -1.77335 0
M  V30 1670 N 171.46 0.379036 1.52974 0
M  V30 1671 C 172.688 -0.20679 2.05864 0
M  V30 1672 C 173.103 -1.41356 1.25155 0
M  V30 1673 O 172.46 -1.8009 0.295588 0
M  V30 1674 C 172.511 -0.587045 3.56702 0
M  V30 1675 O 172.232 0.571776 4.34353 0
M  V30 1676 C 173.733 -1.22983 4.25899 0
M  V30 1677 H 170.953 -0.0336123 0.670158 0
M  V30 1678 H 173.497 0.541298 1.97206 0
M  V30 1679 H 171.652 -1.28504 3.65466 0
M  V30 1680 H 172.066 0.261544 5.23847 0
M  V30 1681 H 173.54 -1.44635 5.32715 0
M  V30 1682 H 174.017 -2.19416 3.80465 0
M  V30 1683 H 174.623 -0.572892 4.21424 0
M  V30 1684 N 172.938 -1.57226 0.108567 0
M  V30 1685 C 174.349 -1.8195 -0.418464 0
M  V30 1686 C 174.7 -1.02508 -1.67292 0
M  V30 1687 O 173.825 -0.258496 -2.14851 0
M  V30 1688 C 174.42 -3.30028 -0.765979 0
M  V30 1689 C 172.979 -3.55469 -1.23769 0
M  V30 1690 C 172.126 -2.7625 -0.241106 0
M  V30 1691 H 175.077 -1.55149 0.33384 0
M  V30 1692 H 175.098 -3.44086 -1.62434 0
M  V30 1693 H 174.61 -3.87821 0.147219 0
M  V30 1694 H 172.711 -3.03022 -2.16814 0
M  V30 1695 H 172.824 -4.6408 -1.19022 0
M  V30 1696 H 171.188 -2.44133 -0.72602 0
M  V30 1697 H 171.971 -3.36797 0.665007 0
M  V30 1698 N 174.416 0.165178 -1.56732 0
M  V30 1699 C 175.641 0.900253 -1.86843 0
M  V30 1700 C 176.066 1.74766 -0.695596 0
M  V30 1701 O 175.424 1.77786 0.35522 0
M  V30 1702 C 175.472 1.74777 -3.15413 0
M  V30 1703 O 174.576 2.85007 -2.98068 0
M  V30 1704 H 173.917 0.251832 -0.614391 0
M  V30 1705 H 176.447 0.161468 -2.03962 0
M  V30 1706 H 176.457 2.14646 -3.46974 0
M  V30 1707 H 175.132 1.12537 -4.00385 0
M  V30 1708 H 173.709 2.48676 -2.77875 0
M  V30 1709 N 175.894 1.51508 0.433938 0
M  V30 1710 C 177.305 1.56784 1.01369 0
M  V30 1711 C 177.656 0.393349 1.92217 0
M  V30 1712 O 176.781 -0.489441 2.10792 0
M  V30 1713 C 177.376 2.84144 1.8452 0
M  V30 1714 C 175.935 2.9198 2.37539 0
M  V30 1715 C 175.082 2.51482 1.16843 0
M  V30 1716 H 178.033 1.57236 0.215081 0
M  V30 1717 H 178.054 2.68098 2.70007 0
M  V30 1718 H 177.566 3.69607 1.18373 0
M  V30 1719 H 175.667 2.10955 3.0713 0
M  V30 1720 H 175.78 3.95704 2.70103 0
M  V30 1721 H 174.144 2.04758 1.51481 0
M  V30 1722 H 174.927 3.39293 0.523015 0
M  V30 1723 N 177.372 -0.689602 1.41712 0
M  V30 1724 C 178.597 -1.48329 1.44959 0
M  V30 1725 C 179.022 -1.8801 0.0581283 0
M  V30 1726 O 178.38 -1.55026 -0.940035 0
M  V30 1727 C 178.428 -2.71835 2.36935 0
M  V30 1728 O 177.532 -3.69549 1.8305 0
M  V30 1729 H 176.873 -0.446199 0.491734 0
M  V30 1730 H 179.403 -0.847127 1.86239 0
M  V30 1731 H 179.413 -3.20076 2.53013 0
M  V30 1732 H 178.088 -2.42291 3.38035 0
M  V30 1733 H 176.665 -3.2851 1.76452 0
M  V30 1734 N 178.85 -1.27639 -0.924453 0
M  V30 1735 C 180.09 -1.15407 -1.68703 0
M  V30 1736 C 180.454 0.294581 -1.89727 0
M  V30 1737 O 181.655 0.539385 -2.63333 0
M  V30 1738 C 179.926 -1.9195 -3.0148 0
M  V30 1739 S 181.485 -1.95969 -3.92609 0
M  V30 1740 H 178.303 -0.411937 -0.579507 0
M  V30 1741 H 180.905 -1.61592 -1.10038 0
M  V30 1742 H 179.609 -2.96387 -2.83871 0
M  V30 1743 H 179.14 -1.46272 -3.65196 0
M  V30 1744 H 181.155 -1.05846 -4.84779 0
M  V30 1745 N 180.328 1.1314 -1.09713 0
M  V30 1746 C 181.568 1.8613 -0.844683 0
M  V30 1747 C 181.932 1.81765 0.618491 0
M  V30 1748 O 183.133 2.50024 0.98699 0
M  V30 1749 C 181.404 3.30151 -1.36877 0
M  V30 1750 S 182.963 4.206 -1.25064 0
M  V30 1751 H 179.781 0.642056 -0.305427 0
M  V30 1752 H 182.383 1.36343 -1.4011 0
M  V30 1753 H 181.087 3.30883 -2.42786 0
M  V30 1754 H 180.618 3.85 -0.808614 0
M  V30 1755 H 182.633 4.95783 -0.203486 0
M  V30 1756 N 181.806 0.884767 1.30421 0
M  V30 1757 C 182.756 0.322846 2.25703 0
M  V30 1758 C 183.74 -0.548582 1.51259 0
M  V30 1759 O 184.932 -0.39304 1.72581 0
M  V30 1760 C 182.061 -0.461787 3.4018 0
M  V30 1761 C 181.147 0.423717 4.21978 0
M  V30 1762 N 181.538 1.52408 4.82292 0
M  V30 1763 C 179.836 0.218795 4.45463 0
M  V30 1764 C 180.537 2.07136 5.43571 0
M  V30 1765 N 179.513 1.36635 5.26148 0
M  V30 1766 H 183.315 1.16363 2.69883 0
M  V30 1767 H 180.829 0.73415 1.44859 0
M  V30 1768 H 182.826 -0.880985 4.07485 0
M  V30 1769 H 181.486 -1.30001 2.9754 0
M  V30 1770 H 182.497 1.90693 4.81515 0
M  V30 1771 H 179.174 -0.582275 4.1342 0
M  V30 1772 H 180.564 2.99538 6.01437 0
M  V30 1773 N 183.284 -1.43765 0.645699 0
M  V30 1774 C 184.695 -1.85193 0.236719 0
M  V30 1775 C 185.046 -1.54045 -1.21509 0
M  V30 1776 O 184.171 -0.985694 -1.92647 0
M  V30 1777 C 184.766 -3.36151 0.422845 0
M  V30 1778 C 183.325 -3.76338 0.0682492 0
M  V30 1779 C 182.472 -2.67538 0.729306 0
M  V30 1780 H 185.423 -1.34025 0.849883 0
M  V30 1781 H 185.444 -3.79032 -0.333904 0
M  V30 1782 H 184.956 -3.5879 1.47958 0
M  V30 1783 H 183.057 -3.59312 -0.986179 0
M  V30 1784 H 183.17 -4.76603 0.488469 0
M  V30 1785 H 181.534 -2.54176 0.163235 0
M  V30 1786 H 182.317 -2.93006 1.78892 0
M  V30 1787 N 184.763 -0.387143 -1.52771 0
M  V30 1788 C 186.179 -0.037007 -1.59557 0
M  V30 1789 C 186.379 1.44801 -1.40124 0
M  V30 1790 O 185.435 2.21227 -1.21716 0
M  V30 1791 C 186.748 -0.512256 -2.96305 0
M  V30 1792 C 188.296 -0.468328 -3.09476 0
M  V30 1793 C 188.771 -0.919731 -4.4867 0
M  V30 1794 N 190.262 -0.875656 -4.54848 0
M  V30 1795 C 190.997 -1.19637 -5.6078 0
M  V30 1796 N 190.493 -1.58745 -6.74368 0
M  V30 1797 N 192.286 -1.11776 -5.50874 0
M  V30 1798 H 184.437 -1.35395 -1.63652 0
M  V30 1799 H 186.7 -0.554818 -0.768688 0
M  V30 1800 H 186.406 -1.54935 -3.15734 0
M  V30 1801 H 186.28 0.089805 -3.77093 0
M  V30 1802 H 188.667 0.559671 -2.89744 0
M  V30 1803 H 188.748 -1.10616 -2.30646 0
M  V30 1804 H 188.392 -1.94595 -4.69143 0
M  V30 1805 H 188.322 -0.258927 -5.25963 0
M  V30 1806 H 190.813 -0.587843 -3.733 0
M  V30 1807 H 191.126 -1.81586 -7.51163 0
M  V30 1808 H 189.471 -1.6263 -6.75705 0
M  V30 1809 H 192.662 -0.811264 -4.61016 0
M  V30 1810 H 192.835 -1.37103 -6.3333 0
M  V30 1811 N 186.241 1.57166 -0.116904 0
M  V30 1812 C 187.171 2.18222 0.830759 0
M  V30 1813 C 188.152 1.12167 1.27877 0
M  V30 1814 O 189.337 1.40394 1.34176 0
M  V30 1815 C 186.467 2.77996 2.08172 0
M  V30 1816 C 185.421 3.89614 1.77157 0
M  V30 1817 C 184.747 4.36187 3.09265 0
M  V30 1818 C 186.047 5.1181 1.04151 0
M  V30 1819 H 187.741 2.97664 0.321992 0
M  V30 1820 H 185.287 1.4318 0.153434 0
M  V30 1821 H 187.24 3.19366 2.74924 0
M  V30 1822 H 185.964 1.9584 2.6137 0
M  V30 1823 H 184.623 3.48816 1.12796 0
M  V30 1824 H 184.271 3.50893 3.60393 0
M  V30 1825 H 183.971 5.11455 2.89288 0
M  V30 1826 H 185.495 4.80207 3.77139 0
M  V30 1827 H 186.909 5.50214 1.61052 0
M  V30 1828 H 185.306 5.92648 0.942762 0
M  V30 1829 H 186.376 4.84892 0.0279022 0
M  V30 1830 N 187.719 -0.156864 1.56817 0
M  V30 1831 C 188.944 -0.890331 1.87318 0
M  V30 1832 C 189.369 -1.74394 0.704855 0
M  V30 1833 O 188.727 -1.77972 -0.345786 0
M  V30 1834 C 188.775 -1.73102 3.16336 0
M  V30 1835 O 187.879 -2.83422 2.99576 0
M  V30 1836 H 187.22 -0.24857 0.615718 0
M  V30 1837 H 189.75 -0.150649 2.04045 0
M  V30 1838 H 189.76 -2.12803 3.48107 0
M  V30 1839 H 188.435 -1.10412 4.00976 0
M  V30 1840 H 187.012 -2.47199 2.7919 0
M  V30 1841 N 189.197 -1.51736 -0.425897 0
M  V30 1842 C 190.127 -1.76827 -1.52494 0
M  V30 1843 C 191.108 -0.618524 -1.58456 0
M  V30 1844 O 192.293 -0.862416 -1.74 0
M  V30 1845 C 189.423 -1.90374 -2.90474 0
M  V30 1846 C 188.377 -3.0588 -2.99369 0
M  V30 1847 C 187.703 -3.04625 -4.3944 0
M  V30 1848 C 189.003 -4.45644 -2.72394 0
M  V30 1849 H 190.697 -2.68855 -1.31748 0
M  V30 1850 H 188.243 -1.29372 -0.632362 0
M  V30 1851 H 190.196 -2.0651 -3.6733 0
M  V30 1852 H 188.92 -0.95004 -3.12477 0
M  V30 1853 H 187.579 -2.89467 -2.24954 0
M  V30 1854 H 187.227 -2.0701 -4.58428 0
M  V30 1855 H 186.927 -3.82195 -4.46319 0
M  V30 1856 H 188.451 -3.22869 -5.18255 0
M  V30 1857 H 189.865 -4.62348 -3.38979 0
M  V30 1858 H 188.262 -5.25006 -2.9067 0
M  V30 1859 H 189.332 -4.54893 -1.67929 0
M  V30 1860 N 190.675 0.682077 -1.42076 0
M  V30 1861 C 191.625 1.78823 -1.41444 0
M  V30 1862 C 192.609 1.58323 -0.28681 0
M  V30 1863 O 193.801 1.68926 -0.528498 0
M  V30 1864 C 190.93 3.17232 -1.3122 0
M  V30 1865 C 190.016 3.4338 -2.489 0
M  V30 1866 N 190.407 3.40152 -3.7434 0
M  V30 1867 C 188.705 3.73986 -2.43003 0
M  V30 1868 C 189.406 3.65581 -4.52466 0
M  V30 1869 N 188.382 3.85989 -3.8277 0
M  V30 1870 H 192.184 1.7471 -2.36334 0
M  V30 1871 H 189.698 0.882622 -1.36321 0
M  V30 1872 H 191.695 3.96489 -1.2885 0
M  V30 1873 H 190.355 3.22547 -0.373263 0
M  V30 1874 H 191.366 3.20221 -4.07037 0
M  V30 1875 H 188.043 3.86591 -1.57651 0
M  V30 1876 H 189.433 3.69108 -5.61435 0
M  V30 1877 N 192.153 1.28127 0.917671 0
M  V30 1878 C 193.569 1.05749 1.19538 0
M  V30 1879 C 193.769 -0.202633 2.00479 0
M  V30 1880 O 192.825 -0.905382 2.3571 0
M  V30 1881 C 194.138 2.30273 1.93378 0
M  V30 1882 C 195.686 2.35412 2.06277 0
M  V30 1883 C 196.161 3.59692 2.83524 0
M  V30 1884 N 197.652 3.60309 2.91087 0
M  V30 1885 C 198.387 4.53147 3.51348 0
M  V30 1886 N 197.883 5.563 4.12919 0
M  V30 1887 N 199.676 4.40751 3.48849 0
M  V30 1888 H 191.827 2.09024 0.377184 0
M  V30 1889 H 194.09 0.919798 0.22951 0
M  V30 1890 H 193.796 3.22055 1.41328 0
M  V30 1891 H 193.67 2.36378 2.93947 0
M  V30 1892 H 196.057 1.4413 2.57508 0
M  V30 1893 H 196.138 2.33304 1.04895 0
M  V30 1894 H 195.782 4.51316 2.32973 0
M  V30 1895 H 195.712 3.59054 3.85211 0
M  V30 1896 H 198.203 2.85714 2.47338 0
M  V30 1897 H 198.516 6.2329 4.56869 0
M  V30 1898 H 196.861 5.60131 4.11435 0
M  V30 1899 H 200.052 3.59367 2.99955 0
M  V30 1900 H 200.225 5.13291 3.9552 0
M  V30 1901 N 193.631 -1.12557 1.10312 0
M  V30 1902 C 195.042 -1.65574 0.862678 0
M  V30 1903 C 195.393 -1.86566 -0.607256 0
M  V30 1904 O 194.518 -1.59121 -1.46662 0
M  V30 1905 C 195.113 -3.00776 1.55947 0
M  V30 1906 C 193.672 -3.50748 1.36576 0
M  V30 1907 C 192.819 -2.25797 1.60968 0
M  V30 1908 H 195.77 -0.963552 1.26101 0
M  V30 1909 H 195.791 -3.67185 0.997753 0
M  V30 1910 H 195.303 -2.85465 2.62928 0
M  V30 1911 H 193.404 -3.71245 0.317531 0
M  V30 1912 H 193.517 -4.30289 2.10686 0
M  V30 1913 H 191.881 -2.32841 1.03234 0
M  V30 1914 H 192.664 -2.13043 2.69198 0
M  V30 1915 N 195.109 -0.891671 -1.2995 0
M  V30 1916 C 196.072 -0.36828 -2.26222 0
M  V30 1917 C 197.072 0.493014 -1.53056 0
M  V30 1918 O 198.262 0.299213 -1.71611 0
M  V30 1919 C 195.394 0.47442 -3.37583 0
M  V30 1920 H 196.587 -1.21844 -2.74033 0
M  V30 1921 H 194.14 -0.669107 -1.41254 0
M  V30 1922 H 194.875 1.34489 -2.95099 0
M  V30 1923 H 194.66 -0.142615 -3.91841 0
M  V30 1924 H 196.15 0.83218 -4.09224 0
M  V30 1925 N 196.587 1.43421 -0.653314 0
M  V30 1926 C 197.517 2.33487 0.0246656 0
M  V30 1927 C 198.498 1.49475 0.811863 0
M  V30 1928 O 199.683 1.78139 0.773322 0
M  V30 1929 C 196.813 3.32841 0.99166 0
M  V30 1930 C 195.767 4.26842 0.314568 0
M  V30 1931 C 195.093 5.16236 1.39302 0
M  V30 1932 C 196.393 5.16243 -0.793095 0
M  V30 1933 H 198.087 2.90427 -0.727481 0
M  V30 1934 H 195.633 1.39649 -0.351287 0
M  V30 1935 H 197.586 3.94747 1.47487 0
M  V30 1936 H 196.31 2.74158 1.77497 0
M  V30 1937 H 194.969 3.663 -0.148199 0
M  V30 1938 H 194.617 4.53891 2.16776 0
M  V30 1939 H 194.317 5.79948 0.945223 0
M  V30 1940 H 195.841 5.81015 1.87759 0
M  V30 1941 H 197.255 5.71958 -0.392039 0
M  V30 1942 H 195.652 5.88676 -1.16536 0
M  V30 1943 H 196.722 4.55927 -1.65103 0
M  V30 1944 N 198.065 0.39524 1.52563 0
M  V30 1945 C 198.975 -0.444232 2.30356 0
M  V30 1946 C 199.991 -1.06615 1.37511 0
M  V30 1947 O 201.167 -1.07067 1.70583 0
M  V30 1948 C 198.232 -1.55315 3.09964 0
M  V30 1949 C 197.293 -0.955734 4.18526 0
M  V30 1950 C 196.526 -2.01181 4.9433 0
M  V30 1951 O 196.749 -3.22781 4.70285 0
M  V30 1952 O 195.683 -1.62579 5.79527 0
M  V30 1953 H 199.509 0.189667 3.03107 0
M  V30 1954 H 197.094 0.1588 1.48554 0
M  V30 1955 H 198.976 -2.19724 3.59582 0
M  V30 1956 H 197.651 -2.17191 2.4002 0
M  V30 1957 H 196.558 -0.274743 3.7309 0
M  V30 1958 H 197.891 -0.381109 4.90722 0
M  V30 1959 N 199.544 -1.57102 0.125237 0
M  V30 1960 C 200.821 -1.86953 -0.575142 0
M  V30 1961 C 201.201 -1.02749 -1.84407 0
M  V30 1962 O 200.549 -0.108144 -2.28244 0
M  V30 1963 C 200.759 -3.38198 -0.861583 0
M  V30 1964 C 202.107 -4.06937 -1.21192 0
M  V30 1965 O 203.131 -3.43252 -0.951645 0
M  V30 1966 O 201.99 -5.19364 -1.70068 0
M  V30 1967 H 199.084 -0.774147 -0.290906 0
M  V30 1968 H 201.63 -1.68942 0.160211 0
M  V30 1969 H 200.402 -3.91282 0.0373647 0
M  V30 1970 H 200.025 -3.61661 -1.65188 0
M  V30 1971 N 201.022 0.148545 -1.56898 0
M  V30 1972 C 201.952 1.18524 -2.01182 0
M  V30 1973 C 202.933 1.4489 -0.891123 0
M  V30 1974 O 204.118 1.55836 -1.15882 0
M  V30 1975 C 201.248 2.51879 -2.39112 0
M  V30 1976 C 200.202 2.40038 -3.54353 0
M  V30 1977 C 199.528 3.78089 -3.78091 0
M  V30 1978 C 200.828 1.88577 -4.87069 0
M  V30 1979 H 202.522 0.817029 -2.88036 0
M  V30 1980 H 200.068 0.391575 -1.38574 0
M  V30 1981 H 202.021 3.24627 -2.68692 0
M  V30 1982 H 200.745 2.90532 -1.49193 0
M  V30 1983 H 199.404 1.69742 -3.24936 0
M  V30 1984 H 199.052 4.14175 -2.85426 0
M  V30 1985 H 198.752 3.71028 -4.55645 0
M  V30 1986 H 200.276 4.52387 -4.10095 0
M  V30 1987 H 201.69 2.51117 -5.15377 0
M  V30 1988 H 200.087 1.9241 -5.68417 0
M  V30 1989 H 201.157 0.84136 -4.77545 0
M  V30 1990 N 202.5 1.5196 0.417844 0
M  V30 1991 C 203.43 1.77634 1.51554 0
M  V30 1992 C 204.411 0.626918 1.58126 0
M  V30 1993 O 205.596 0.871632 1.7354 0
M  V30 1994 C 202.726 1.91911 2.8946 0
M  V30 1995 C 201.68 3.07463 2.97743 0
M  V30 1996 C 201.006 3.06951 4.37819 0
M  V30 1997 C 202.306 4.47082 2.70027 0
M  V30 1998 H 204 2.6955 1.3032 0
M  V30 1999 H 201.546 1.29706 0.625492 0
M  V30 2000 H 203.499 2.08455 3.6623 0
M  V30 2001 H 202.223 0.966598 3.11969 0
M  V30 2002 H 200.882 2.90656 2.23416 0
M  V30 2003 H 200.53 2.09438 4.57323 0
M  V30 2004 H 200.23 3.84556 4.44286 0
M  V30 2005 H 201.754 3.25613 5.16535 0
M  V30 2006 H 203.168 4.6414 3.36522 0
M  V30 2007 H 201.565 5.2654 2.87881 0
M  V30 2008 H 202.635 4.55777 1.65514 0
M  V30 2009 N 203.978 -0.674533 1.42435 0
M  V30 2010 C 204.908 -1.80009 1.48724 0
M  V30 2011 C 205.889 -1.6659 0.343793 0
M  V30 2012 O 207.074 -1.86007 0.558137 0
M  V30 2013 C 204.204 -3.18306 1.38919 0
M  V30 2014 C 203.158 -3.46461 2.51294 0
M  V30 2015 C 202.484 -4.84335 2.26547 0
M  V30 2016 C 203.784 -3.43328 3.93603 0
M  V30 2017 H 205.478 -1.75004 2.42928 0
M  V30 2018 H 203.024 -0.840533 1.16923 0
M  V30 2019 H 204.977 -3.9678 1.41927 0
M  V30 2020 H 203.701 -3.2399 0.412094 0
M  V30 2021 H 202.36 -2.70348 2.47604 0
M  V30 2022 H 202.008 -4.86669 1.2713 0
M  V30 2023 H 201.708 -5.04136 3.01861 0
M  V30 2024 H 203.232 -5.65094 2.31304 0
M  V30 2025 H 204.646 -4.11772 3.98894 0
M  V30 2026 H 203.043 -3.74664 4.68771 0
M  V30 2027 H 204.113 -2.41897 4.20255 0
M  V30 2028 N 205.456 -1.28612 -0.910864 0
M  V30 2029 C 206.704 -1.15705 -1.65701 0
M  V30 2030 C 207.025 0.29416 -1.92769 0
M  V30 2031 O 206.295 1.20331 -1.54588 0
M  V30 2032 H 204.875 -0.425216 -0.614167 0
M  V30 2033 H 207.537 -1.61381 -1.0928 0
M  V30 2034 H 206.633 -1.6988 -2.61815 0
M  V30 2035 N 206.934 1.1197 -1.10907 0
M  V30 2036 C 208.159 1.87942 -0.877064 0
M  V30 2037 C 208.584 1.79341 0.567314 0
M  V30 2038 O 207.942 1.15184 1.40009 0
M  V30 2039 C 207.99 3.34926 -1.33629 0
M  V30 2040 O 207.094 4.09303 -0.504447 0
M  V30 2041 H 206.435 0.583785 -0.316371 0
M  V30 2042 H 208.965 1.4157 -1.47712 0
M  V30 2043 H 208.975 3.8577 -1.32837 0
M  V30 2044 H 207.65 3.40504 -2.3881 0
M  V30 2045 H 206.227 3.68393 -0.577993 0
M  V30 2046 N 208.412 0.89855 1.29475 0
M  V30 2047 C 209.322 0.379974 2.31502 0
M  V30 2048 C 210.338 -0.524695 1.659 0
M  V30 2049 O 211.514 -0.414551 1.97087 0
M  V30 2050 C 208.579 -0.385138 3.44554 0
M  V30 2051 C 207.64 0.550914 4.2575 0
M  V30 2052 C 206.873 -0.177778 5.33404 0
M  V30 2053 O 207.096 -1.40189 5.52904 0
M  V30 2054 O 206.03 0.479106 5.9999 0
M  V30 2055 H 209.856 1.22639 2.77837 0
M  V30 2056 H 207.441 0.662834 1.33891 0
M  V30 2057 H 209.323 -0.817841 4.13388 0
M  V30 2058 H 207.998 -1.20763 3.0033 0
M  V30 2059 H 206.905 1.03271 3.59564 0
M  V30 2060 H 208.238 1.33979 4.73614 0
M  V30 2061 N 209.89 -1.43072 0.660911 0
M  V30 2062 C 210.853 -2.29194 -0.0166406 0
M  V30 2063 C 211.853 -1.42609 -0.742912 0
M  V30 2064 O 213.043 -1.64155 -0.583004 0
M  V30 2065 C 210.175 -3.24831 -1.0343 0
M  V30 2066 H 211.368 -2.90596 0.741208 0
M  V30 2067 H 208.921 -1.5048 0.422532 0
M  V30 2068 H 209.656 -2.68339 -1.82111 0
M  V30 2069 H 209.441 -3.88676 -0.517082 0
M  V30 2070 H 210.931 -3.89451 -1.50723 0
M  V30 2071 N 211.368 -0.403325 -1.52352 0
M  V30 2072 C 212.316 0.439752 -2.28405 0
M  V30 2073 C 213.31 1.05089 -1.32863 0
M  V30 2074 O 214.516 0.989759 -1.50345 0
M  V30 2075 H 210.891 0.160587 -0.734653 0
M  V30 2076 H 212.862 -0.222983 -2.97566 0
M  V30 2077 C 211.611 1.54736 -3.11371 0
M  V30 2078 H 210.934 1.08643 -3.84755 0
M  V30 2079 H 212.374 2.1112 -3.67701 0
M  V30 2080 C 210.833 2.51141 -2.24566 0
M  V30 2081 O 211.363 3.54887 -1.88196 0
M  V30 2082 N 209.569 2.21213 -1.8845 0
M  V30 2083 H 209.116 1.36878 -2.18225 0
M  V30 2084 H 209.074 2.85963 -1.30662 0
M  V30 2085 N 212.846 1.57033 -0.133567 0
M  V30 2086 C 213.776 2.1909 0.807567 0
M  V30 2087 C 214.757 1.13517 1.26681 0
M  V30 2088 O 215.942 1.41809 1.32679 0
M  V30 2089 C 213.072 2.80188 2.05212 0
M  V30 2090 C 212.026 3.91471 1.73015 0
M  V30 2091 C 211.352 4.39443 3.04622 0
M  V30 2092 C 212.652 5.12886 0.987168 0
M  V30 2093 H 214.346 2.97988 0.290403 0
M  V30 2094 H 211.892 1.43335 0.138239 0
M  V30 2095 H 213.845 3.22264 2.71521 0
M  V30 2096 H 212.569 1.98601 2.59278 0
M  V30 2097 H 211.228 3.49993 1.0909 0
M  V30 2098 H 210.876 3.54695 3.56651 0
M  V30 2099 H 210.576 5.14495 2.83847 0
M  V30 2100 H 212.1 4.8418 3.72024 0
M  V30 2101 H 213.514 5.51891 1.55208 0
M  V30 2102 H 211.911 5.93615 0.87985 0
M  V30 2103 H 212.981 4.84894 -0.0235286 0
M  V30 2104 N 214.325 -0.140222 1.56975 0
M  V30 2105 C 215.553 -0.866437 1.87884 0
M  V30 2106 C 215.968 -1.74428 0.722517 0
M  V30 2107 O 215.325 -1.79891 -0.30749 0
M  V30 2108 C 215.376 -1.71753 3.18093 0
M  V30 2109 O 215.097 -0.875056 4.29272 0
M  V30 2110 C 216.598 -2.55074 3.62563 0
M  V30 2111 H 213.818 -0.25019 0.622612 0
M  V30 2112 H 216.362 -0.130977 2.0408 0
M  V30 2113 H 214.517 -2.40598 3.03631 0
M  V30 2114 H 214.931 -1.46002 5.03769 0
M  V30 2115 H 216.405 -3.10356 4.5649 0
M  V30 2116 H 216.882 -3.31434 2.88181 0
M  V30 2117 H 217.488 -1.91509 3.79743 0
M  V30 2118 N 215.803 -1.52179 -0.40978 0
M  V30 2119 C 217.043 -1.67882 -1.16597 0
M  V30 2120 C 217.407 -0.399795 -1.87791 0
M  V30 2121 O 218.608 -0.43292 -2.65291 0
M  V30 2122 C 216.879 -2.86662 -2.13448 0
M  V30 2123 S 218.438 -3.22843 -2.97183 0
M  V30 2124 H 215.256 -0.59118 -0.395002 0
M  V30 2125 H 217.858 -1.9017 -0.453373 0
M  V30 2126 H 216.562 -3.77998 -1.59831 0
M  V30 2127 H 216.093 -2.66645 -2.89247 0
M  V30 2128 H 218.108 -2.71415 -4.15389 0
M  V30 2129 N 217.281 0.66697 -1.42791 0
M  V30 2130 C 218.509 1.45505 -1.47091 0
M  V30 2131 C 218.924 1.8861 -0.0845873 0
M  V30 2132 O 218.281 1.58632 0.90234 0
M  V30 2133 C 218.332 2.69906 -2.40485 0
M  V30 2134 O 218.053 2.28608 -3.73725 0
M  V30 2135 C 219.554 3.63396 -2.53886 0
M  V30 2136 H 216.774 0.447459 -0.500022 0
M  V30 2137 H 219.318 0.818866 -1.8739 0
M  V30 2138 H 217.473 3.29696 -2.03419 0
M  V30 2139 H 217.887 3.08997 -4.23817 0
M  V30 2140 H 219.361 4.47387 -3.2334 0
M  V30 2141 H 219.838 4.09824 -1.57927 0
M  V30 2142 H 220.444 3.09495 -2.91706 0
M  V30 2143 N 218.759 1.29093 0.90403 0
M  V30 2144 C 219.689 1.16401 2.02418 0
M  V30 2145 C 220.67 0.0593085 1.69997 0
M  V30 2146 O 221.855 0.238021 1.92736 0
M  V30 2147 C 218.985 0.835233 3.37107 0
M  V30 2148 C 217.939 1.89578 3.83724 0
M  V30 2149 C 217.265 1.42041 5.15489 0
M  V30 2150 C 218.565 3.30394 4.04521 0
M  V30 2151 H 220.259 2.10109 2.13295 0
M  V30 2152 H 217.805 1.01157 1.02486 0
M  V30 2153 H 219.758 0.733169 4.14973 0
M  V30 2154 H 218.482 -0.137543 3.2631 0
M  V30 2155 H 217.141 1.98715 3.08071 0
M  V30 2156 H 216.789 0.436426 5.01103 0
M  V30 2157 H 216.489 2.12964 5.4765 0
M  V30 2158 H 218.013 1.33176 5.959 0
M  V30 2159 H 219.427 3.24123 4.72882 0
M  V30 2160 H 217.824 3.99237 4.48029 0
M  V30 2161 H 218.894 3.73692 3.09002 0
M  V30 2162 N 220.237 -1.11381 1.11499 0
M  V30 2163 C 221.465 -1.86934 0.88675 0
M  V30 2164 C 221.88 -1.80195 -0.563476 0
M  V30 2165 O 221.237 -1.18367 -1.38908 0
M  V30 2166 C 221.288 -3.35722 1.34064 0
M  V30 2167 O 221.009 -3.4232 2.73401 0
M  V30 2168 C 222.51 -4.2818 1.14791 0
M  V30 2169 H 219.73 -0.591117 0.317523 0
M  V30 2170 H 222.274 -1.40865 1.48248 0
M  V30 2171 H 220.429 -3.79294 0.788355 0
M  V30 2172 H 220.843 -4.34971 2.93087 0
M  V30 2173 H 222.317 -5.30817 1.5145 0
M  V30 2174 H 222.794 -4.39113 0.0875279 0
M  V30 2175 H 223.4 -3.90402 1.68721 0
M  V30 2176 N 221.715 -0.905404 -1.28997 0
M  V30 2177 C 222.963 -0.533192 -1.9494 0
M  V30 2178 C 223.284 0.924618 -1.71685 0
M  V30 2179 O 222.554 1.65268 -1.05183 0
M  V30 2180 H 221.134 -0.194194 -0.721317 0
M  V30 2181 H 223.796 -1.15294 -1.57141 0
M  V30 2182 H 222.892 -0.72059 -3.03667 0
M  V30 2183 N 223.193 1.4272 -0.668489 0
M  V30 2184 C 224.123 2.335 -0.000100175 0
M  V30 2185 C 225.104 1.50328 0.795964 0
M  V30 2186 O 226.289 1.78949 0.754385 0
M  V30 2187 C 223.419 3.33874 0.956302 0
M  V30 2188 C 222.373 4.27152 0.269278 0
M  V30 2189 C 221.699 5.17684 1.33818 0
M  V30 2190 C 222.999 5.15373 -0.847805 0
M  V30 2191 H 224.693 2.89639 -0.758244 0
M  V30 2192 H 222.239 1.39269 -0.366079 0
M  V30 2193 H 224.192 3.9629 1.43292 0
M  V30 2194 H 222.916 2.76025 1.74579 0
M  V30 2195 H 221.575 3.66123 -0.187042 0
M  V30 2196 H 221.223 4.56165 2.1195 0
M  V30 2197 H 220.923 5.80918 0.883659 0
M  V30 2198 H 222.447 5.82974 1.81586 0
M  V30 2199 H 223.861 5.7151 -0.452681 0
M  V30 2200 H 222.258 5.87407 -1.22773 0
M  V30 2201 H 223.328 4.5415 -1.69929 0
M  V30 2202 N 224.671 0.411399 1.52136 0
M  V30 2203 C 226.087 0.0623865 1.59478 0
M  V30 2204 C 226.287 -1.42554 1.4241 0
M  V30 2205 O 225.343 -2.19263 1.2522 0
M  V30 2206 C 226.656 0.559331 2.95452 0
M  V30 2207 C 228.204 0.517503 3.08692 0
M  V30 2208 C 228.679 0.990994 4.4715 0
M  V30 2209 N 230.17 0.947908 4.53397 0
M  V30 2210 C 230.905 1.28544 5.58806 0
M  V30 2211 N 230.401 1.69454 6.71757 0
M  V30 2212 N 232.194 1.20526 5.49026 0
M  V30 2213 H 224.345 1.37982 1.61477 0
M  V30 2214 H 226.608 0.566977 0.759764 0
M  V30 2215 H 226.314 1.59938 3.1323 0
M  V30 2216 H 226.188 -0.0298014 3.77188 0
M  V30 2217 H 228.575 -0.513505 2.90598 0
M  V30 2218 H 228.656 1.14272 2.28857 0
M  V30 2219 H 228.3 2.02034 4.65988 0
M  V30 2220 H 228.23 0.34257 5.25485 0
M  V30 2221 H 230.721 0.647157 3.72317 0
M  V30 2222 H 231.034 1.93513 7.48179 0
M  V30 2223 H 229.379 1.73359 6.73032 0
M  V30 2224 H 232.57 0.884505 4.59667 0
M  V30 2225 H 232.743 1.47161 6.31069 0
M  V30 2226 N 226.149 -1.5696 0.141893 0
M  V30 2227 C 227.426 -1.87553 -0.555281 0
M  V30 2228 C 227.806 -1.04699 -1.83306 0
M  V30 2229 O 227.154 -0.132346 -2.28116 0
M  V30 2230 C 227.364 -3.39093 -0.825664 0
M  V30 2231 C 228.712 -4.08199 -1.16869 0
M  V30 2232 O 229.736 -3.44242 -0.915185 0
M  V30 2233 O 228.595 -5.21139 -1.6455 0
M  V30 2234 H 225.689 -0.777188 -0.282679 0
M  V30 2235 H 228.235 -1.68763 0.17812 0
M  V30 2236 H 227.007 -3.91221 0.0788633 0
M  V30 2237 H 226.63 -3.63393 -1.61343 0
M  V30 2238 N 227.627 0.131896 -1.57047 0
M  V30 2239 C 228.59 1.14638 -1.98471 0
M  V30 2240 C 229.59 1.35029 -0.873148 0
M  V30 2241 O 230.78 1.31764 -1.13946 0
M  V30 2242 C 227.912 2.50358 -2.31373 0
M  V30 2243 H 229.105 0.79064 -2.8929 0
M  V30 2244 H 226.658 0.375761 -1.51716 0
M  V30 2245 H 227.393 2.90876 -1.43393 0
M  V30 2246 H 227.178 2.36915 -3.12432 0
M  V30 2247 H 228.668 3.23395 -2.64207 0
M  V30 2248 N 229.106 1.52395 0.401703 0
M  V30 2249 C 230.331 1.70972 1.17403 0
M  V30 2250 C 230.756 0.421615 1.83314 0
M  V30 2251 O 230.114 -0.621564 1.70312 0
M  V30 2252 C 230.162 2.85151 2.20728 0
M  V30 2253 O 229.266 2.51238 3.27037 0
M  V30 2254 H 228.607 0.568927 0.342372 0
M  V30 2255 H 231.137 1.99131 0.469891 0
M  V30 2256 H 231.147 3.10279 2.64936 0
M  V30 2257 H 229.822 3.78603 1.7214 0
M  V30 2258 H 228.399 2.36808 2.88057 0
M  V30 2259 N 230.584 -0.659388 1.43143 0
M  V30 2260 C 231.832 -1.41654 1.44147 0
M  V30 2261 C 232.153 -1.94893 0.0645739 0
M  V30 2262 O 231.423 -1.74044 -0.899198 0
M  V30 2263 H 230.003 -0.525708 0.530697 0
M  V30 2264 H 232.665 -0.778097 1.78694 0
M  V30 2265 H 231.761 -2.26195 2.1504 0
M  V30 2266 N 232.062 -1.29571 -0.897171 0
M  V30 2267 C 233.308 -1.17863 -1.65034 0
M  V30 2268 C 233.641 0.268729 -1.92332 0
M  V30 2269 O 232.916 1.19378 -1.53555 0
M  V30 2270 C 233.199 -1.995 -2.99786 0
M  V30 2271 C 233.052 -3.5239 -2.79538 0
M  V30 2272 C 234.371 -1.82335 -4.00552 0
M  V30 2273 H 231.49 -0.429528 -0.598895 0
M  V30 2274 H 234.132 -1.59072 -1.03905 0
M  V30 2275 H 232.282 -1.64485 -3.51962 0
M  V30 2276 H 233.954 -3.97401 -2.34244 0
M  V30 2277 H 232.197 -3.77187 -2.14273 0
M  V30 2278 H 232.868 -4.04787 -3.75302 0
M  V30 2279 H 235.344 -2.12924 -3.57495 0
M  V30 2280 H 234.22 -2.41801 -4.92771 0
M  V30 2281 H 234.481 -0.779209 -4.35179 0
M  V30 2282 N 233.54 1.10788 -1.12088 0
M  V30 2283 C 234.768 1.86461 -0.896651 0
M  V30 2284 C 235.183 1.80492 0.553912 0
M  V30 2285 O 234.54 1.19102 1.38278 0
M  V30 2286 C 234.591 3.35006 -1.35843 0
M  V30 2287 O 234.312 3.40866 -2.75213 0
M  V30 2288 C 235.813 4.27565 -1.1706 0
M  V30 2289 H 233.033 0.589425 -0.320654 0
M  V30 2290 H 235.577 1.40076 -1.48993 0
M  V30 2291 H 233.732 3.7887 -0.808458 0
M  V30 2292 H 234.146 4.33411 -2.9539 0
M  V30 2293 H 235.62 5.30007 -1.54263 0
M  V30 2294 H 236.097 4.3906 -0.110814 0
M  V30 2295 H 236.703 3.89501 -1.70789 0
M  V30 2296 N 235.018 0.912232 1.28515 0
M  V30 2297 C 236.265 0.544599 1.95039 0
M  V30 2298 C 236.593 -0.911435 1.71823 0
M  V30 2299 O 235.848 -1.66317 1.03137 0
M  V30 2300 C 236.147 0.798392 3.48368 0
M  V30 2301 C 235.813 2.23374 3.91682 0
M  V30 2302 C 234.475 2.62617 4.03219 0
M  V30 2303 C 236.827 3.16786 4.13879 0
M  V30 2304 C 234.155 3.94429 4.3433 0
M  V30 2305 C 236.507 4.48161 4.46469 0
M  V30 2306 C 235.171 4.8726 4.56217 0
M  V30 2307 H 234.441 0.199283 0.7137 0
M  V30 2308 H 237.088 1.15327 1.52879 0
M  V30 2309 H 235.393 0.106908 3.91654 0
M  V30 2310 H 237.09 0.493141 3.97956 0
M  V30 2311 H 233.68 1.91922 3.83228 0
M  V30 2312 H 237.864 2.87677 4.0442 0
M  V30 2313 H 233.12 4.24426 4.40082 0
M  V30 2314 H 237.294 5.20559 4.62592 0
M  V30 2315 H 234.921 5.89431 4.80078 0
M  V30 2316 N 236.496 -1.42363 0.676048 0
M  V30 2317 C 237.724 -2.05859 0.207268 0
M  V30 2318 C 238.139 -1.50796 -1.13605 0
M  V30 2319 O 237.496 -0.648265 -1.70598 0
M  V30 2320 C 237.547 -3.61248 0.134975 0
M  V30 2321 O 237.268 -4.1427 1.42521 0
M  V30 2322 C 238.769 -4.41859 -0.357151 0
M  V30 2323 H 235.989 -0.663431 0.100503 0
M  V30 2324 H 238.533 -1.82479 0.923136 0
M  V30 2325 H 236.688 -3.83735 -0.531588 0
M  V30 2326 H 237.102 -5.0815 1.29939 0
M  V30 2327 H 238.576 -5.50847 -0.356641 0
M  V30 2328 H 239.053 -4.16536 -1.39264 0
M  V30 2329 H 239.659 -4.24392 0.27772 0
M  V30 2330 N 237.974 -0.419461 -1.51915 0
M  V30 2331 C 239.22 0.145505 -2.02879 0
M  V30 2332 C 239.575 1.41926 -1.29903 0
M  V30 2333 O 238.868 1.87383 -0.399782 0
M  V30 2334 C 239.062 0.437067 -3.54717 0
M  V30 2335 C 238.891 -0.806877 -4.42402 0
M  V30 2336 C 237.661 -1.33514 -4.87342 0
M  V30 2337 C 239.859 -1.68796 -4.85811 0
M  V30 2338 N 237.841 -2.53349 -5.59185 0
M  V30 2339 C 239.212 -2.73247 -5.56539 0
M  V30 2340 C 241.267 -1.70449 -4.67816 0
M  V30 2341 C 239.97 -3.79276 -6.11181 0
M  V30 2342 C 241.996 -2.75403 -5.23361 0
M  V30 2343 C 241.358 -3.78575 -5.9402 0
M  V30 2344 H 237.457 0.0145424 -0.781865 0
M  V30 2345 H 240.041 -0.576126 -1.85981 0
M  V30 2346 H 238.212 1.12774 -3.71667 0
M  V30 2347 H 239.944 0.99182 -3.92358 0
M  V30 2348 H 236.699 -0.891657 -4.65131 0
M  V30 2349 H 237.123 -3.14066 -5.99743 0
M  V30 2350 H 241.765 -0.920209 -4.12664 0
M  V30 2351 H 239.483 -4.58554 -6.65397 0
M  V30 2352 H 243.069 -2.77603 -5.113 0
M  V30 2353 H 241.949 -4.58453 -6.36231 0
M  V30 2354 N 239.452 1.56882 -0.150215 0
M  V30 2355 C 240.68 2.00593 0.506948 0
M  V30 2356 C 241.095 1.03033 1.58208 0
M  V30 2357 O 240.452 0.0278396 1.82479 0
M  V30 2358 C 240.503 3.44209 1.10465 0
M  V30 2359 O 240.224 4.3804 0.0724636 0
M  V30 2360 C 241.725 4.03214 1.84211 0
M  V30 2361 H 238.945 0.65795 0.13169 0
M  V30 2362 H 241.489 2.03018 -0.245743 0
M  V30 2363 H 239.644 3.42625 1.80795 0
M  V30 2364 H 240.058 5.22007 0.510793 0
M  V30 2365 H 241.532 5.0569 2.21318 0
M  V30 2366 H 242.009 3.44107 2.72923 0
M  V30 2367 H 242.615 4.08437 1.18572 0
M  V30 2368 N 240.93 -0.123565 1.57115 0
M  V30 2369 C 242.341 -0.681198 1.73829 0
M  V30 2370 C 242.692 -1.80535 0.768214 0
M  V30 2371 O 241.817 -2.16317 -0.0599103 0
M  V30 2372 C 242.412 -1.24246 3.15196 0
M  V30 2373 C 240.971 -1.74643 3.33432 0
M  V30 2374 C 240.118 -0.644284 2.69711 0
M  V30 2375 H 243.069 0.102315 1.5837 0
M  V30 2376 H 243.09 -2.11216 3.16493 0
M  V30 2377 H 242.602 -0.424062 3.85776 0
M  V30 2378 H 240.703 -2.58974 2.67886 0
M  V30 2379 H 240.816 -1.85902 4.41562 0
M  V30 2380 H 239.18 -1.07676 2.3082 0
M  V30 2381 H 239.963 0.163058 3.42913 0
M  V30 2382 N 242.408 -1.52605 -0.393616 0
M  V30 2383 C 243.633 -1.71592 -1.16495 0
M  V30 2384 C 244.058 -0.43133 -1.83088 0
M  V30 2385 O 243.416 0.612523 -1.7064 0
M  V30 2386 C 243.464 -2.86318 -2.19213 0
M  V30 2387 O 242.568 -2.52969 -3.257 0
M  V30 2388 H 241.909 -0.570734 -0.33935 0
M  V30 2389 H 244.439 -1.99377 -0.459324 0
M  V30 2390 H 244.449 -3.1168 -2.63286 0
M  V30 2391 H 243.124 -3.79511 -1.7013 0
M  V30 2392 H 241.701 -2.38332 -2.86797 0
M  V30 2393 N 243.887 0.651787 -1.4349 0
M  V30 2394 C 245.112 1.44434 -1.48841 0
M  V30 2395 C 245.537 1.8779 -0.107955 0
M  V30 2396 O 244.895 1.57464 0.898602 0
M  V30 2397 C 244.943 2.65458 -2.44059 0
M  V30 2398 O 244.047 3.64566 -1.92784 0
M  V30 2399 H 243.388 0.433005 -0.503391 0
M  V30 2400 H 245.918 0.797451 -1.88419 0
M  V30 2401 H 245.928 3.13255 -2.6141 0
M  V30 2402 H 244.603 2.33244 -3.4434 0
M  V30 2403 H 243.18 3.23716 -1.851 0
M  V30 2404 N 245.365 1.30045 0.890287 0
M  V30 2405 C 246.613 1.18327 1.63839 0
M  V30 2406 C 246.934 -0.263455 1.93212 0
M  V30 2407 O 246.204 -1.17856 1.56482 0
M  V30 2408 H 244.784 0.434933 0.607324 0
M  V30 2409 H 247.446 1.631 1.06698 0
M  V30 2410 H 246.542 1.74024 2.59079 0
M  V30 2411 N 246.843 -1.10192 1.12674 0
M  V30 2412 C 247.79 -2.16606 0.796906 0
M  V30 2413 C 248.76 -1.64394 -0.237476 0
M  V30 2414 O 249.945 -1.90474 -0.111484 0
M  V30 2415 C 247.085 -3.44116 0.26043 0
M  V30 2416 C 246.198 -4.10268 1.35293 0
M  V30 2417 C 245.333 -5.25507 0.775621 0
M  V30 2418 C 244.372 -5.83567 1.84706 0
M  V30 2419 N 243.509 -6.90179 1.28829 0
M  V30 2420 H 248.349 -2.44163 1.70846 0
M  V30 2421 H 245.886 -1.19846 0.85295 0
M  V30 2422 H 247.844 -4.17143 -0.0686814 0
M  V30 2423 H 246.474 -3.16901 -0.614274 0
M  V30 2424 H 245.526 -3.35184 1.79877 0
M  V30 2425 H 246.838 -4.4946 2.16303 0
M  V30 2426 H 245.992 -6.05398 0.397327 0
M  V30 2427 H 244.731 -4.87656 -0.0656581 0
M  V30 2428 H 243.736 -5.02344 2.23452 0
M  V30 2429 H 244.961 -6.23482 2.69161 0
M  V30 2430 H 242.907 -6.54322 0.468881 0
M  V30 2431 H 242.824 -7.28097 2.03497 0
M  V30 2432 H 244.092 -7.73844 0.937311 0
M  V30 2433 N 248.321 -0.919034 -1.28029 0
M  V30 2434 C 249.546 -0.570357 -1.99403 0
M  V30 2435 C 249.971 0.842486 -1.68178 0
M  V30 2436 O 249.329 1.56391 -0.917141 0
M  V30 2437 C 249.377 -0.792541 -3.51783 0
M  V30 2438 O 248.481 0.145988 -4.12142 0
M  V30 2439 H 247.822 -0.220555 -0.6263 0
M  V30 2440 H 250.352 -1.23592 -1.63053 0
M  V30 2441 H 250.362 -0.704708 -4.01868 0
M  V30 2442 H 249.037 -1.82247 -3.73844 0
M  V30 2443 H 247.614 0.00897528 -3.72899 0
M  V30 2444 N 249.799 1.42003 -0.683588 0
M  V30 2445 C 250.762 2.29191 -0.0198243 0
M  V30 2446 C 251.762 1.43773 0.72013 0
M  V30 2447 O 252.952 1.65061 0.556815 0
M  V30 2448 C 250.084 3.26435 0.982487 0
M  V30 2449 H 251.277 2.8938 -0.787345 0
M  V30 2450 H 248.83 1.49789 -0.446418 0
M  V30 2451 H 249.565 2.71203 1.77819 0
M  V30 2452 H 249.35 3.89449 0.455182 0
M  V30 2453 H 250.84 3.918 1.44508 0
M  V30 2454 N 251.277 0.427512 1.51691 0
M  V30 2455 C 252.523 -0.142439 2.02299 0
M  V30 2456 C 252.856 -1.43214 1.31162 0
M  V30 2457 O 252.131 -1.89833 0.423511 0
M  V30 2458 C 252.414 -0.371301 3.58181 0
M  V30 2459 C 252.267 0.936358 4.39946 0
M  V30 2460 C 253.586 -1.14542 4.24933 0
M  V30 2461 H 250.705 -0.0502937 0.735282 0
M  V30 2462 H 253.347 0.564584 1.81418 0
M  V30 2463 H 251.497 -0.973559 3.76104 0
M  V30 2464 H 253.169 1.57184 4.33694 0
M  V30 2465 H 251.412 1.5432 4.05423 0
M  V30 2466 H 252.083 0.730388 5.47147 0
M  V30 2467 H 254.559 -0.635362 4.11221 0
M  V30 2468 H 253.435 -1.27431 5.33903 0
M  V30 2469 H 253.696 -2.17093 3.85127 0
M  V30 2470 N 252.755 -1.56801 0.158532 0
M  V30 2471 C 253.687 -2.14488 -0.807923 0
M  V30 2472 C 254.7 -1.09721 -1.20271 0
M  V30 2473 O 255.889 -1.36956 -1.14478 0
M  V30 2474 C 252.989 -2.66217 -2.09718 0
M  V30 2475 C 252.162 -3.95507 -1.86796 0
M  V30 2476 C 251.221 -4.3243 -2.99818 0
M  V30 2477 O 250.247 -5.00543 -2.71008 0
M  V30 2478 N 251.449 -3.92947 -4.27285 0
M  V30 2479 H 254.214 -2.98042 -0.314816 0
M  V30 2480 H 251.775 -1.61881 -0.0246692 0
M  V30 2481 H 253.767 -2.87924 -2.84398 0
M  V30 2482 H 252.337 -1.87324 -2.50257 0
M  V30 2483 H 251.557 -3.82309 -0.96089 0
M  V30 2484 H 252.845 -4.79972 -1.68833 0
M  V30 2485 H 252.243 -3.38087 -4.53557 0
M  V30 2486 H 250.8 -4.19681 -4.9871 0
M  V30 2487 N 254.233 0.115231 -1.57178 0
M  V30 2488 C 255.481 0.820727 -1.84685 0
M  V30 2489 C 255.802 1.80237 -0.744279 0
M  V30 2490 O 255.072 1.94529 0.231375 0
M  V30 2491 H 253.652 0.306084 -0.681411 0
M  V30 2492 H 256.314 0.101656 -1.94635 0
M  V30 2493 H 255.41 1.36366 -2.80733 0
M  V30 2494 N 255.711 1.52812 0.385517 0
M  V30 2495 C 257.122 1.5993 0.963293 0
M  V30 2496 C 257.473 0.454302 1.90868 0
M  V30 2497 O 256.598 -0.422132 2.12243 0
M  V30 2498 C 257.193 2.89871 1.75387 0
M  V30 2499 C 255.752 2.99389 2.28129 0
M  V30 2500 C 254.899 2.55071 1.08783 0
M  V30 2501 H 257.85 1.5784 0.164948 0
M  V30 2502 H 257.871 2.76553 2.61341 0
M  V30 2503 H 257.383 3.73186 1.06554 0
M  V30 2504 H 255.484 2.20619 3.00263 0
M  V30 2505 H 255.597 4.04096 2.57377 0
M  V30 2506 H 253.961 2.09473 1.4489 0
M  V30 2507 H 254.744 3.40785 0.414807 0
M  V30 2508 N 257.189 -0.644168 1.43834 0
M  V30 2509 C 258.6 -1.22554 1.40845 0
M  V30 2510 C 258.951 -1.9585 0.117115 0
M  V30 2511 O 258.076 -2.01734 -0.783086 0
M  V30 2512 C 258.671 -2.22907 2.55143 0
M  V30 2513 C 257.23 -2.76501 2.5539 0
M  V30 2514 C 256.377 -1.51287 2.32396 0
M  V30 2515 H 259.328 -0.43563 1.52604 0
M  V30 2516 H 259.349 -3.05259 2.2715 0
M  V30 2517 H 258.861 -1.69533 3.49114 0
M  V30 2518 H 256.962 -3.33914 1.65324 0
M  V30 2519 H 257.075 -3.23429 3.53455 0
M  V30 2520 H 255.439 -1.78957 1.81236 0
M  V30 2521 H 256.222 -0.998336 3.28463 0
M  V30 2522 N 258.668 -1.30515 -0.883378 0
M  V30 2523 C 259.578 -1.18959 -2.02203 0
M  V30 2524 C 260.594 -0.109172 -1.73657 0
M  V30 2525 O 261.77 -0.324413 -1.9877 0
M  V30 2526 C 258.835 -0.883871 -3.35244 0
M  V30 2527 C 257.896 -2.04982 -3.77201 0
M  V30 2528 C 257.129 -1.75859 -5.03894 0
M  V30 2529 O 257.352 -0.687276 -5.66244 0
M  V30 2530 O 256.286 -2.61146 -5.42297 0
M  V30 2531 H 260.112 -2.14616 -2.1488 0
M  V30 2532 H 257.697 -1.10124 -1.0096 0
M  V30 2533 H 259.579 -0.728644 -4.15053 0
M  V30 2534 H 258.254 0.0427798 -3.23672 0
M  V30 2535 H 257.161 -2.26038 -2.9809 0
M  V30 2536 H 258.494 -2.95825 -3.93381 0
M  V30 2537 N 260.146 1.09593 -1.13257 0
M  V30 2538 C 261.562 1.33775 -0.870423 0
M  V30 2539 C 261.762 1.95327 0.494926 0
M  V30 2540 O 260.818 2.19853 1.2418 0
M  V30 2541 C 262.131 2.25106 -1.99369 0
M  V30 2542 C 263.679 2.3862 -2.02558 0
M  V30 2543 C 264.154 3.33285 -3.14142 0
M  V30 2544 N 265.645 3.40857 -3.13641 0
M  V30 2545 C 266.38 4.14101 -3.96621 0
M  V30 2546 N 265.876 4.90157 -4.8961 0
M  V30 2547 N 267.669 4.09808 -3.84726 0
M  V30 2548 H 259.82 0.680136 -2.01216 0
M  V30 2549 H 262.083 0.362133 -0.876107 0
M  V30 2550 H 261.789 1.87103 -2.97801 0
M  V30 2551 H 261.663 3.25481 -1.90635 0
M  V30 2552 H 264.05 2.75887 -1.0474 0
M  V30 2553 H 264.131 1.38028 -2.15364 0
M  V30 2554 H 263.775 2.96741 -4.12198 0
M  V30 2555 H 263.705 4.33776 -2.98574 0
M  V30 2556 H 266.196 2.86624 -2.46282 0
M  V30 2557 H 266.509 5.4347 -5.49418 0
M  V30 2558 H 264.854 4.89251 -4.93617 0
M  V30 2559 H 268.045 3.4949 -3.11408 0
M  V30 2560 H 268.218 4.66629 -4.49623 0
M  V30 2561 N 261.624 0.925811 1.2754 0
M  V30 2562 C 262.901 0.483726 1.89524 0
M  V30 2563 C 263.281 -1.03809 1.83812 0
M  V30 2564 O 262.629 -1.89143 1.28207 0
M  V30 2565 C 262.839 1.02769 3.33526 0
M  V30 2566 C 264.187 1.08703 4.10449 0
M  V30 2567 O 265.211 0.977175 3.42534 0
M  V30 2568 O 264.07 1.25599 5.31871 0
M  V30 2569 H 261.164 0.15529 0.812289 0
M  V30 2570 H 263.71 1.01738 1.35822 0
M  V30 2571 H 262.482 2.07155 3.31967 0
M  V30 2572 H 262.105 0.475567 3.94746 0
M  V30 2573 N 263.102 -1.41638 0.69111 0
M  V30 2574 C 264.032 -2.3347 0.037248 0
M  V30 2575 C 265.013 -1.51575 -0.771947 0
M  V30 2576 O 266.198 -1.80126 -0.72582 0
M  V30 2577 C 263.328 -3.35354 -0.903064 0
M  V30 2578 C 262.282 -4.27526 -0.201288 0
M  V30 2579 C 261.608 -5.19747 -1.25565 0
M  V30 2580 C 262.908 -5.13959 0.929689 0
M  V30 2581 H 264.602 -2.88397 0.804227 0
M  V30 2582 H 262.148 -1.38669 0.388189 0
M  V30 2583 H 264.101 -3.98519 -1.36969 0
M  V30 2584 H 262.825 -2.78767 -1.70166 0
M  V30 2585 H 261.484 -3.65779 0.245265 0
M  V30 2586 H 261.132 -4.59479 -2.04666 0
M  V30 2587 H 260.832 -5.8225 -0.791128 0
M  V30 2588 H 262.356 -5.85789 -1.72288 0
M  V30 2589 H 263.77 -5.70718 0.543546 0
M  V30 2590 H 262.167 -5.85379 1.32103 0
M  V30 2591 H 263.237 -4.51389 1.77133 0
M  V30 2592 N 264.58 -0.43555 -1.51462 0
M  V30 2593 C 265.82 0.130708 -2.03982 0
M  V30 2594 C 266.184 1.40117 -1.31268 0
M  V30 2595 O 267.385 2.04755 -1.74152 0
M  V30 2596 C 265.656 0.346102 -3.5572 0
M  V30 2597 S 267.215 0.876022 -4.29967 0
M  V30 2598 H 264.033 0.0326881 -0.710248 0
M  V30 2599 H 266.635 -0.594544 -1.8624 0
M  V30 2600 H 265.339 -0.584911 -4.0621 0
M  V30 2601 H 264.87 1.09849 -3.77752 0
M  V30 2602 H 266.885 2.15379 -4.47019 0
M  V30 2603 N 266.058 1.56714 -0.166846 0
M  V30 2604 C 267.306 1.96358 0.478305 0
M  V30 2605 C 267.627 1.0537 1.6408 0
M  V30 2606 O 266.897 0.119154 1.95537 0
M  V30 2607 H 265.477 0.725065 0.179692 0
M  V30 2608 H 268.139 1.93329 -0.246985 0
M  V30 2609 H 267.235 3.00547 0.841292 0
M  V30 2610 N 267.536 -0.106894 1.57237 0
M  V30 2611 C 268.776 -0.818277 1.87306 0
M  V30 2612 C 269.14 -1.76474 0.756371 0
M  V30 2613 O 270.341 -2.5186 0.939155 0
M  V30 2614 C 268.612 -1.53806 3.22612 0
M  V30 2615 S 270.171 -2.28935 3.74345 0
M  V30 2616 H 266.989 -0.272862 0.656557 0
M  V30 2617 H 269.591 -0.075988 1.95352 0
M  V30 2618 H 268.295 -0.834951 4.01817 0
M  V30 2619 H 267.826 -2.32049 3.17674 0
M  V30 2620 H 269.841 -3.54871 3.46815 0
M  V30 2621 N 269.014 -1.53014 -0.377408 0
M  V30 2622 C 270.244 -1.72265 -1.14054 0
M  V30 2623 C 270.652 -0.44601 -1.83868 0
M  V30 2624 O 269.995 0.590095 -1.73964 0
M  V30 2625 C 270.057 -2.82492 -2.22348 0
M  V30 2626 C 269.721 -4.23233 -1.72402 0
M  V30 2627 C 270.718 -5.05992 -1.19448 0
M  V30 2628 C 268.403 -4.696 -1.78273 0
M  V30 2629 C 270.397 -6.33203 -0.730268 0
M  V30 2630 C 268.084 -5.96792 -1.31464 0
M  V30 2631 C 269.082 -6.78424 -0.789297 0
M  V30 2632 O 268.77 -8.0323 -0.328077 0
M  V30 2633 H 268.502 -0.579873 -0.347453 0
M  V30 2634 H 271.056 -2.00502 -0.445882 0
M  V30 2635 H 269.286 -2.49702 -2.95272 0
M  V30 2636 H 270.975 -2.90034 -2.83963 0
M  V30 2637 H 271.741 -4.71349 -1.14259 0
M  V30 2638 H 267.62 -4.06142 -2.18106 0
M  V30 2639 H 271.164 -6.96868 -0.319542 0
M  V30 2640 H 267.061 -6.30937 -1.36342 0
M  V30 2641 H 267.829 -8.1727 -0.448493 0
M  V30 2642 N 270.492 0.636531 -1.44174 0
M  V30 2643 C 271.717 1.42847 -1.50364 0
M  V30 2644 C 272.142 1.87665 -0.127867 0
M  V30 2645 O 271.5 1.58408 0.88185 0
M  V30 2646 C 271.548 2.62854 -2.4686 0
M  V30 2647 O 270.652 3.62501 -1.9664 0
M  V30 2648 H 269.993 0.427642 -0.507955 0
M  V30 2649 H 272.523 0.777422 -1.89255 0
M  V30 2650 H 272.533 3.10465 -2.64718 0
M  V30 2651 H 271.208 2.29578 -3.46795 0
M  V30 2652 H 269.785 3.21735 -1.88523 0
M  V30 2653 N 271.97 1.30982 0.876444 0
M  V30 2654 C 273.216 1.20474 1.63138 0
M  V30 2655 C 273.549 -0.238096 1.92735 0
M  V30 2656 O 272.824 -1.1692 1.55435 0
M  V30 2657 C 273.107 2.04244 2.96574 0
M  V30 2658 C 272.96 3.56793 2.73896 0
M  V30 2659 C 274.279 1.88684 3.97601 0
M  V30 2660 H 271.398 0.439001 0.591985 0
M  V30 2661 H 274.04 1.60704 1.01361 0
M  V30 2662 H 272.19 1.70063 3.493 0
M  V30 2663 H 273.862 4.01077 2.27892 0
M  V30 2664 H 272.105 3.80548 2.08245 0
M  V30 2665 H 272.776 4.10706 3.68815 0
M  V30 2666 H 275.252 2.18584 3.54062 0
M  V30 2667 H 274.128 2.4961 4.88862 0
M  V30 2668 H 274.389 0.848343 4.33884 0
M  V30 2669 N 273.449 -1.08991 1.13837 0
M  V30 2670 C 274.674 -1.85551 0.926585 0
M  V30 2671 C 275.099 -1.80782 -0.519566 0
M  V30 2672 O 274.457 -1.18855 -1.36906 0
M  V30 2673 C 274.505 -3.31266 1.42462 0
M  V30 2674 O 273.609 -4.07822 0.612789 0
M  V30 2675 H 272.95 -0.575192 0.331738 0
M  V30 2676 H 275.48 -1.37604 1.51414 0
M  V30 2677 H 275.49 -3.82112 1.43019 0
M  V30 2678 H 274.165 -3.34052 2.47754 0
M  V30 2679 H 272.742 -3.66731 0.675463 0
M  V30 2680 N 274.927 -0.932562 -1.27047 0
M  V30 2681 C 276.152 -0.591474 -1.98787 0
M  V30 2682 C 276.577 0.824601 -1.69062 0
M  V30 2683 O 275.935 1.5541 -0.933677 0
M  V30 2684 C 275.983 -0.829808 -3.50922 0
M  V30 2685 O 275.087 0.102266 -4.12273 0
M  V30 2686 H 274.428 -0.227185 -0.623926 0
M  V30 2687 H 276.958 -1.25314 -1.61733 0
M  V30 2688 H 276.968 -0.747292 -4.01098 0
M  V30 2689 H 275.643 -1.86201 -3.7189 0
M  V30 2690 H 274.22 -0.0305761 -3.72887 0
M  V30 2691 N 276.405 1.4127 -0.698611 0
M  V30 2692 C 277.651 2.01478 -0.231207 0
M  V30 2693 C 277.984 1.55215 1.16713 0
M  V30 2694 O 277.259 0.764672 1.78838 0
M  V30 2695 C 277.542 3.58912 -0.292281 0
M  V30 2696 C 277.395 4.15293 -1.72778 0
M  V30 2697 C 278.714 4.38736 0.346194 0
M  V30 2698 H 275.833 0.732025 -0.0854878 0
M  V30 2699 H 278.475 1.67977 -0.887906 0
M  V30 2700 H 276.625 3.87582 0.26686 0
M  V30 2701 H 278.297 3.97486 -2.341 0
M  V30 2702 H 276.54 3.7022 -2.26096 0
M  V30 2703 H 277.211 5.24452 -1.72202 0
M  V30 2704 H 279.687 4.15897 -0.130035 0
M  V30 2705 H 278.563 5.48221 0.272932 0
M  V30 2706 H 278.824 4.18425 1.42734 0
M  V30 2707 N 277.883 0.443576 1.51229 0
M  V30 2708 C 278.813 -0.355142 2.30783 0
M  V30 2709 C 279.794 -1.0154 1.36468 0
M  V30 2710 O 280.979 -1.01785 1.65389 0
M  V30 2711 C 278.109 -1.45312 3.15439 0
M  V30 2712 C 277.063 -0.916002 4.18083 0
M  V30 2713 C 276.389 -2.1102 4.91299 0
M  V30 2714 C 277.689 0.0538602 5.22272 0
M  V30 2715 H 279.383 0.308767 2.97804 0
M  V30 2716 H 276.929 0.149937 1.43217 0
M  V30 2717 H 278.882 -2.01914 3.69876 0
M  V30 2718 H 277.606 -2.14541 2.46252 0
M  V30 2719 H 276.265 -0.372145 3.64706 0
M  V30 2720 H 275.913 -2.78882 4.18609 0
M  V30 2721 H 275.613 -1.75717 5.60712 0
M  V30 2722 H 277.137 -2.68164 5.48562 0
M  V30 2723 H 278.551 -0.422069 5.71744 0
M  V30 2724 H 276.948 0.319776 5.99247 0
M  V30 2725 H 278.018 0.98858 4.74716 0
M  V30 2726 N 279.361 -1.56624 0.175154 0
M  V30 2727 C 280.772 -1.83561 -0.340916 0
M  V30 2728 C 281.123 -1.09511 -1.62794 0
M  V30 2729 O 280.248 -0.349389 -2.13561 0
M  V30 2730 C 280.843 -3.32979 -0.625313 0
M  V30 2731 C 279.402 -3.60399 -1.08581 0
M  V30 2732 C 278.549 -2.77024 -0.123722 0
M  V30 2733 H 281.5 -1.53593 0.399344 0
M  V30 2734 H 281.521 -3.50666 -1.47694 0
M  V30 2735 H 281.033 -3.86847 0.311575 0
M  V30 2736 H 279.134 -3.11945 -2.03767 0
M  V30 2737 H 279.247 -4.68711 -0.992317 0
M  V30 2738 H 277.611 -2.46993 -0.621821 0
M  V30 2739 H 278.394 -3.33674 0.807256 0
M  V30 2740 N 280.839 0.0985539 -1.57292 0
M  V30 2741 C 282.087 0.801092 -1.85545 0
M  V30 2742 C 282.408 1.79438 -0.763353 0
M  V30 2743 O 281.678 1.94763 0.21073 0
M  V30 2744 H 280.258 0.29884 -0.684619 0
M  V30 2745 H 282.92 0.0810064 -1.94732 0
M  V30 2746 H 282.016 1.3338 -2.82163 0
M  V30 2747 N 282.317 1.53212 0.369288 0
M  V30 2748 C 283.557 1.70915 1.12105 0
M  V30 2749 C 283.921 0.449444 1.86665 0
M  V30 2750 O 285.122 0.503105 2.6405 0
M  V30 2751 C 283.393 2.9222 2.05772 0
M  V30 2752 S 284.952 3.30609 2.88519 0
M  V30 2753 H 281.77 0.601445 0.379189 0
M  V30 2754 H 284.372 1.91306 0.402794 0
M  V30 2755 H 283.076 3.82103 1.49752 0
M  V30 2756 H 282.607 2.7422 2.82076 0
M  V30 2757 H 284.622 2.82333 4.08047 0
M  V30 2758 N 283.795 -0.628877 1.44509 0
M  V30 2759 C 284.758 -1.72263 1.51188 0
M  V30 2760 C 285.758 -1.55907 0.39367 0
M  V30 2761 O 286.948 -1.61361 0.656377 0
M  V30 2762 C 284.08 -3.11365 1.38798 0
M  V30 2763 H 285.273 -1.67714 2.4862 0
M  V30 2764 H 282.826 -0.842737 1.31634 0
M  V30 2765 H 283.561 -3.21507 0.424693 0
M  V30 2766 H 283.346 -3.24644 2.19884 0
M  V30 2767 H 284.836 -3.91075 1.46458 0
M  V30 2768 N 285.273 -1.31445 -0.869486 0
M  V30 2769 C 286.183 -1.21097 -2.0093 0
M  V30 2770 C 287.199 -0.127584 -1.73532 0
M  V30 2771 O 288.375 -0.345477 -1.98415 0
M  V30 2772 C 285.44 -0.919378 -3.34288 0
M  V30 2773 C 284.501 -2.08971 -3.75006 0
M  V30 2774 C 283.734 -1.81194 -5.02001 0
M  V30 2775 O 283.957 -0.747296 -5.65484 0
M  V30 2776 O 282.891 -2.66883 -5.39497 0
M  V30 2777 H 286.717 -2.16883 -2.12592 0
M  V30 2778 H 284.302 -1.11189 -0.997868 0
M  V30 2779 H 286.184 -0.772625 -4.14257 0
M  V30 2780 H 284.859 0.00844772 -3.23699 0
M  V30 2781 H 283.766 -2.29187 -2.95676 0
M  V30 2782 H 285.099 -2.9998 -3.90221 0
M  V30 2783 N 286.751 1.08385 -1.14413 0
M  V30 2784 C 288.162 1.62258 -0.923535 0
M  V30 2785 C 288.513 1.88691 0.537595 0
M  V30 2786 O 287.638 1.64454 1.40655 0
M  V30 2787 C 288.233 2.94781 -1.67002 0
M  V30 2788 C 286.792 3.45437 -1.495 0
M  V30 2789 C 285.939 2.19668 -1.69238 0
M  V30 2790 H 288.89 0.916086 -1.2959 0
M  V30 2791 H 288.911 3.63229 -1.13334 0
M  V30 2792 H 288.423 2.7551 -2.73342 0
M  V30 2793 H 286.524 3.6981 -0.455097 0
M  V30 2794 H 286.637 4.22173 -2.2651 0
M  V30 2795 H 285.001 2.28849 -1.11804 0
M  V30 2796 H 285.784 2.02905 -2.7692 0
M  V30 2797 N 288.23 0.939286 1.26551 0
M  V30 2798 C 289.476 0.596234 1.94465 0
M  V30 2799 C 289.831 -0.855013 1.72358 0
M  V30 2800 O 289.124 -1.6034 1.04889 0
M  V30 2801 C 289.318 0.872106 3.46596 0
M  V30 2802 C 289.147 2.34862 3.83497 0
M  V30 2803 C 287.917 3.00344 4.06352 0
M  V30 2804 C 290.115 3.32697 3.92195 0
M  V30 2805 N 288.097 4.38027 4.30123 0
M  V30 2806 C 289.468 4.55631 4.20476 0
M  V30 2807 C 291.523 3.27747 3.74815 0
M  V30 2808 C 290.226 5.74233 4.33185 0
M  V30 2809 C 292.252 4.45672 3.88755 0
M  V30 2810 C 291.614 5.67388 4.17433 0
M  V30 2811 H 287.713 0.268515 0.734455 0
M  V30 2812 H 290.297 1.2083 1.5267 0
M  V30 2813 H 288.468 0.289102 3.87323 0
M  V30 2814 H 290.2 0.490513 4.01716 0
M  V30 2815 H 286.955 2.50969 4.01636 0
M  V30 2816 H 287.379 5.09288 4.46044 0
M  V30 2817 H 292.021 2.34703 3.51673 0
M  V30 2818 H 289.739 6.67731 4.55149 0
M  V30 2819 H 293.325 4.43372 3.76713 0
M  V30 2820 H 292.205 6.57115 4.27983 0
M  V30 2821 N 289.708 -1.40897 0.706093 0
M  V30 2822 C 290.656 -2.32572 0.0361893 0
M  V30 2823 C 291.65 -1.51532 -0.757266 0
M  V30 2824 O 292.856 -1.67396 -0.661703 0
M  V30 2825 H 289.231 -0.751966 -0.00709935 0
M  V30 2826 H 291.202 -2.86733 0.826249 0
M  V30 2827 C 289.951 -3.36418 -0.87854 0
M  V30 2828 H 289.274 -3.98836 -0.277401 0
M  V30 2829 H 290.714 -4.0308 -1.3154 0
M  V30 2830 C 289.173 -2.71141 -1.99961 0
M  V30 2831 O 289.703 -2.56735 -3.0895 0
M  V30 2832 N 287.909 -2.29671 -1.78043 0
M  V30 2833 H 287.456 -2.41588 -0.894042 0
M  V30 2834 H 287.414 -1.86332 -2.53235 0
M  V30 2835 N 291.186 -0.45159 -1.50991 0
M  V30 2836 C 292.136 0.370861 -2.24964 0
M  V30 2837 C 293.12 0.978074 -1.2776 0
M  V30 2838 O 294.312 0.893854 -1.52772 0
M  V30 2839 C 291.441 1.46344 -3.10545 0
M  V30 2840 C 290.527 0.864924 -4.15187 0
M  V30 2841 N 290.918 -0.00311354 -5.058 0
M  V30 2842 C 289.216 1.13099 -4.31422 0
M  V30 2843 C 289.917 -0.340772 -5.80701 0
M  V30 2844 N 288.893 0.279203 -5.42883 0
M  V30 2845 H 292.695 -0.298134 -2.92384 0
M  V30 2846 H 290.209 -0.264528 -1.60231 0
M  V30 2847 H 292.206 2.06565 -3.62128 0
M  V30 2848 H 290.866 2.13463 -2.4467 0
M  V30 2849 H 291.877 -0.37058 -5.16572 0
M  V30 2850 H 288.554 1.79861 -3.76771 0
M  V30 2851 H 289.944 -1.048 -6.63677 0
M  V30 2852 N 292.664 1.56529 -0.183458 0
M  V30 2853 C 293.912 1.96855 0.457452 0
M  V30 2854 C 294.233 1.07104 1.62953 0
M  V30 2855 O 293.503 0.139887 1.954 0
M  V30 2856 H 292.083 0.72693 0.171992 0
M  V30 2857 H 294.745 1.93056 -0.267476 0
M  V30 2858 H 293.841 3.01423 0.809368 0
M  V30 2859 N 294.142 -0.090211 1.57342 0
M  V30 2860 C 295.089 -1.10909 2.02405 0
M  V30 2861 C 296.059 -1.39523 0.901252 0
M  V30 2862 O 297.244 -1.50903 1.1676 0
M  V30 2863 C 294.384 -2.42277 2.45755 0
M  V30 2864 C 293.497 -2.20352 3.71576 0
M  V30 2865 C 292.632 -3.45154 4.03785 0
M  V30 2866 C 291.671 -3.18512 5.22701 0
M  V30 2867 N 290.808 -4.35593 5.50639 0
M  V30 2868 H 295.648 -0.71782 2.89225 0
M  V30 2869 H 293.185 -0.342901 1.43048 0
M  V30 2870 H 295.143 -3.18951 2.68935 0
M  V30 2871 H 293.773 -2.79242 1.61938 0
M  V30 2872 H 292.825 -1.34458 3.55844 0
M  V30 2873 H 294.137 -1.96661 4.58395 0
M  V30 2874 H 293.291 -4.30233 4.27767 0
M  V30 2875 H 292.03 -3.71904 3.15498 0
M  V30 2876 H 291.035 -2.31827 4.98534 0
M  V30 2877 H 292.26 -2.93103 6.12591 0
M  V30 2878 H 290.206 -4.6241 4.6531 0
M  V30 2879 H 290.123 -4.1511 6.31838 0
M  V30 2880 H 291.391 -5.21723 5.7916 0
M  V30 2881 N 295.62 -1.53406 -0.361157 0
M  V30 2882 C 296.848 -1.73717 -1.12383 0
M  V30 2883 C 297.263 -0.468161 -1.82904 0
M  V30 2884 O 296.62 0.559198 -1.73722 0
M  V30 2885 C 296.671 -2.90558 -2.15078 0
M  V30 2886 O 296.392 -4.12549 -1.47428 0
M  V30 2887 C 297.893 -3.22777 -3.03858 0
M  V30 2888 H 295.113 -0.580896 -0.335858 0
M  V30 2889 H 297.657 -2.00167 -0.418728 0
M  V30 2890 H 295.812 -2.66489 -2.8118 0
M  V30 2891 H 296.226 -4.78009 -2.15887 0
M  V30 2892 H 297.7 -4.07927 -3.71887 0
M  V30 2893 H 298.177 -2.38329 -3.68912 0
M  V30 2894 H 298.783 -3.48787 -2.43367 0
M  V30 2895 N 297.098 0.621204 -1.44841 0
M  V30 2896 C 298.345 1.38055 -1.48145 0
M  V30 2897 C 298.673 1.94143 -0.117867 0
M  V30 2898 O 297.928 1.74713 0.881694 0
M  V30 2899 C 298.227 2.55675 -2.4973 0
M  V30 2900 C 297.893 2.17817 -3.94799 0
M  V30 2901 C 296.555 2.07205 -4.34303 0
M  V30 2902 C 298.907 1.88065 -4.86087 0
M  V30 2903 C 296.235 1.65045 -5.63007 0
M  V30 2904 C 298.587 1.47394 -6.15189 0
M  V30 2905 C 297.251 1.35331 -6.53637 0
M  V30 2906 H 296.521 0.505181 -0.542101 0
M  V30 2907 H 299.168 0.703477 -1.78111 0
M  V30 2908 H 297.473 3.2866 -2.13284 0
M  V30 2909 H 299.17 3.13904 -2.4953 0
M  V30 2910 H 295.76 2.26998 -3.63552 0
M  V30 2911 H 299.944 1.95168 -4.56315 0
M  V30 2912 H 295.2 1.54317 -5.91605 0
M  V30 2913 H 299.374 1.23415 -6.85377 0
M  V30 2914 H 297.001 1.02435 -7.53267 0
M  V30 2915 N 298.576 1.31904 0.862503 0
M  V30 2916 C 299.804 1.24998 1.64873 0
M  V30 2917 C 300.219 -0.183425 1.87907 0
M  V30 2918 O 299.576 -1.11794 1.44251 0
M  V30 2919 C 299.627 1.99829 3.01248 0
M  V30 2920 O 299.348 3.37575 2.79239 0
M  V30 2921 C 300.849 1.99852 3.95694 0
M  V30 2922 H 298.069 0.431599 0.513773 0
M  V30 2923 H 300.613 1.73901 1.07604 0
M  V30 2924 H 298.768 1.54668 3.55185 0
M  V30 2925 H 299.182 3.75776 3.65914 0
M  V30 2926 H 300.656 2.56709 4.88676 0
M  V30 2927 H 301.133 0.982852 4.28062 0
M  V30 2928 H 301.739 2.44926 3.47694 0
M  V30 2929 N 300.054 -1.07777 1.14986 0
M  V30 2930 C 301.294 -1.81888 0.932527 0
M  V30 2931 C 301.658 -1.84509 -0.531064 0
M  V30 2932 O 302.859 -2.54448 -0.866577 0
M  V30 2933 C 301.13 -3.23244 1.52473 0
M  V30 2934 S 302.689 -4.14154 1.44989 0
M  V30 2935 H 299.507 -0.626752 0.335712 0
M  V30 2936 H 302.109 -1.29503 1.46455 0
M  V30 2937 H 300.813 -3.18922 2.58296 0
M  V30 2938 H 300.344 -3.80704 0.991381 0
M  V30 2939 H 302.359 -4.94247 0.439799 0
M  V30 2940 N 301.532 -0.945985 -1.26051 0
M  V30 2941 C 302.76 -0.613025 -1.9761 0
M  V30 2942 C 303.175 0.813035 -1.70397 0
M  V30 2943 O 302.532 1.54274 -0.974979 0
M  V30 2944 C 302.583 -0.85159 -3.51326 0
M  V30 2945 O 302.304 -2.22157 -3.77595 0
M  V30 2946 C 303.805 -0.529831 -4.40122 0
M  V30 2947 H 301.025 -0.230593 -0.630133 0
M  V30 2948 H 303.569 -1.268 -1.60443 0
M  V30 2949 H 301.724 -0.243151 -3.86636 0
M  V30 2950 H 302.138 -2.2852 -4.721 0
M  V30 2951 H 303.612 -0.747348 -5.46917 0
M  V30 2952 H 304.089 0.535341 -4.35925 0
M  V30 2953 H 304.695 -1.11721 -4.10364 0
M  V30 2954 N 303.011 1.40521 -0.713556 0
M  V30 2955 C 303.974 2.29098 -0.0684347 0
M  V30 2956 C 304.974 1.45268 0.689472 0
M  V30 2957 O 306.164 1.66205 0.521677 0
M  V30 2958 C 303.296 3.28446 0.913024 0
M  V30 2959 H 304.489 2.87645 -0.84855 0
M  V30 2960 H 302.042 1.48809 -0.47809 0
M  V30 2961 H 302.777 2.74913 1.72027 0
M  V30 2962 H 302.562 3.90327 0.372472 0
M  V30 2963 H 304.052 3.94777 1.36165 0
M  V30 2964 N 304.489 0.459591 1.5075 0
M  V30 2965 C 305.452 -0.329093 2.26825 0
M  V30 2966 C 306.452 -0.930481 1.31144 0
M  V30 2967 O 307.642 -0.801453 1.54669 0
M  V30 2968 C 304.774 -1.46768 3.07688 0
M  V30 2969 H 305.967 0.337924 2.9799 0
M  V30 2970 H 303.52 0.213336 1.54837 0
M  V30 2971 H 304.255 -2.17009 2.40993 0
M  V30 2972 H 304.04 -1.04238 3.77991 0
M  V30 2973 H 305.53 -2.02433 3.65254 0
M  V30 2974 N 305.967 -1.56429 0.191757 0
M  V30 2975 C 307.197 -2.01574 -0.452928 0
M  V30 2976 C 307.605 -1.07107 -1.55964 0
M  V30 2977 O 306.948 -0.067534 -1.83576 0
M  V30 2978 C 307.01 -3.43121 -1.07278 0
M  V30 2979 C 306.674 -4.56879 -0.105214 0
M  V30 2980 C 307.671 -5.15379 0.684149 0
M  V30 2981 C 305.356 -5.023 0.00489824 0
M  V30 2982 C 307.35 -6.17746 1.57062 0
M  V30 2983 C 305.037 -6.04511 0.894935 0
M  V30 2984 C 306.035 -6.62108 1.67637 0
M  V30 2985 O 305.723 -7.62335 2.55149 0
M  V30 2986 H 305.455 -0.665554 -0.118379 0
M  V30 2987 H 308.009 -2.03245 0.296737 0
M  V30 2988 H 306.239 -3.38425 -1.87097 0
M  V30 2989 H 307.928 -3.72093 -1.62177 0
M  V30 2990 H 308.694 -4.81157 0.609365 0
M  V30 2991 H 304.573 -4.57168 -0.593156 0
M  V30 2992 H 308.117 -6.6263 2.181 0
M  V30 2993 H 304.014 -6.38157 0.970847 0
M  V30 2994 H 304.782 -7.79741 2.48892 0
M  V30 2995 N 307.445 0.0818655 -1.57387 0
M  V30 2996 C 308.856 0.634871 -1.75574 0
M  V30 2997 C 309.207 1.78435 -0.815809 0
M  V30 2998 O 308.332 2.164 0.0025366 0
M  V30 2999 C 308.927 1.15845 -3.18379 0
M  V30 3000 C 307.486 1.65741 -3.37945 0
M  V30 3001 C 306.633 0.572549 -2.71325 0
M  V30 3002 H 309.584 -0.144268 -1.58043 0
M  V30 3003 H 309.605 2.02751 -3.21982 0
M  V30 3004 H 309.117 0.321631 -3.86765 0
M  V30 3005 H 307.218 2.51781 -2.74658 0
M  V30 3006 H 307.331 1.74129 -4.46336 0
M  V30 3007 H 305.695 1.01518 -2.33594 0
M  V30 3008 H 306.478 -0.253918 -3.4236 0
M  V30 3009 N 308.923 1.53595 0.353017 0
M  V30 3010 C 309.833 1.83897 1.45667 0
M  V30 3011 C 310.849 0.728334 1.58023 0
M  V30 3012 O 312.025 1.01968 1.73679 0
M  V30 3013 C 309.09 2.03383 2.80778 0
M  V30 3014 C 308.151 3.27262 2.77845 0
M  V30 3015 C 307.384 3.45809 4.06512 0
M  V30 3016 O 307.607 2.68387 5.03314 0
M  V30 3017 O 306.541 4.39207 4.11559 0
M  V30 3018 H 310.367 2.77686 1.2298 0
M  V30 3019 H 307.952 1.39132 0.544308 0
M  V30 3020 H 309.834 2.17698 3.60812 0
M  V30 3021 H 308.509 1.12783 3.03417 0
M  V30 3022 H 307.416 3.18359 1.96465 0
M  V30 3023 H 308.749 4.17824 2.60161 0
M  V30 3024 N 310.401 -0.613514 1.45168 0
M  V30 3025 C 311.626 -1.40437 1.52618 0
M  V30 3026 C 312.051 -1.87438 0.157707 0
M  V30 3027 O 311.409 -1.59791 -0.856537 0
M  V30 3028 C 311.457 -2.58894 2.51011 0
M  V30 3029 O 310.561 -3.59326 2.02382 0
M  V30 3030 H 309.902 -0.419506 0.514695 0
M  V30 3031 H 312.432 -0.747215 1.90467 0
M  V30 3032 H 312.442 -3.06214 2.69624 0
M  V30 3033 H 311.117 -2.24032 3.50403 0
M  V30 3034 H 309.694 -3.18695 1.93618 0
M  V30 3035 N 311.879 -1.3236 -0.855495 0
M  V30 3036 C 312.826 -1.21225 -1.964 0
M  V30 3037 C 313.796 -0.0946204 -1.6583 0
M  V30 3038 O 314.981 -0.27002 -1.8888 0
M  V30 3039 C 312.121 -0.940419 -3.32039 0
M  V30 3040 C 311.234 -2.14276 -3.75113 0
M  V30 3041 C 310.369 -1.80648 -4.9954 0
M  V30 3042 C 309.408 -2.97208 -5.35102 0
M  V30 3043 N 308.545 -2.63678 -6.50706 0
M  V30 3044 H 313.385 -2.16042 -2.05255 0
M  V30 3045 H 310.922 -1.07451 -1.00463 0
M  V30 3046 H 312.88 -0.763311 -4.10158 0
M  V30 3047 H 311.51 -0.0290413 -3.22787 0
M  V30 3048 H 310.562 -2.43017 -2.92655 0
M  V30 3049 H 311.874 -3.01468 -3.97389 0
M  V30 3050 H 311.028 -1.59484 -5.85363 0
M  V30 3051 H 309.767 -0.906678 -4.79198 0
M  V30 3052 H 308.772 -3.19004 -4.47791 0
M  V30 3053 H 309.997 -3.87918 -5.57401 0
M  V30 3054 H 307.943 -1.76238 -6.31883 0
M  V30 3055 H 307.86 -3.444 -6.72997 0
M  V30 3056 H 309.128 -2.45942 -7.39684 0
M  V30 3057 N 313.357 1.07166 -1.15556 0
M  V30 3058 C 314.585 1.83514 -0.955519 0
M  V30 3059 C 315 1.82163 0.49621 0
M  V30 3060 O 314.357 1.23441 1.34419 0
M  V30 3061 C 314.408 3.30515 -1.46432 0
M  V30 3062 O 314.129 3.31937 -2.85918 0
M  V30 3063 C 315.63 4.23625 -1.30603 0
M  V30 3064 H 312.85 0.578926 -0.339244 0
M  V30 3065 H 315.394 1.35265 -1.53374 0
M  V30 3066 H 313.549 3.76106 -0.928584 0
M  V30 3067 H 313.963 4.23794 -3.09029 0
M  V30 3068 H 315.437 5.24831 -1.71047 0
M  V30 3069 H 315.914 4.38485 -0.250441 0
M  V30 3070 H 316.52 3.83871 -1.83094 0
M  V30 3071 N 314.835 0.952656 1.25548 0
M  V30 3072 C 316.246 0.647392 1.75116 0
M  V30 3073 C 316.597 -0.837274 1.77438 0
M  V30 3074 O 315.722 -1.65525 1.39393 0
M  V30 3075 C 316.317 1.16845 3.18014 0
M  V30 3076 C 314.876 0.913382 3.6515 0
M  V30 3077 C 314.023 1.31265 2.44264 0
M  V30 3078 H 316.974 1.12968 1.11462 0
M  V30 3079 H 316.995 0.527606 3.76824 0
M  V30 3080 H 316.507 2.24902 3.16292 0
M  V30 3081 H 314.608 -0.152316 3.72289 0
M  V30 3082 H 314.721 1.54845 4.53387 0
M  V30 3083 H 313.085 0.731028 2.43984 0
M  V30 3084 H 313.868 2.40239 2.45234 0
M  V30 3085 N 316.313 -1.40141 0.720998 0
M  V30 3086 C 317.243 -2.33339 0.0867621 0
M  V30 3087 C 318.224 -1.53178 -0.739622 0
M  V30 3088 O 319.409 -1.81625 -0.687449 0
M  V30 3089 C 316.539 -3.37194 -0.831728 0
M  V30 3090 C 315.493 -4.27857 -0.110558 0
M  V30 3091 C 314.819 -5.22294 -1.14513 0
M  V30 3092 C 316.119 -5.11872 1.0385 0
M  V30 3093 H 317.813 -2.86626 0.865219 0
M  V30 3094 H 315.359 -1.37814 0.417516 0
M  V30 3095 H 317.312 -4.01335 -1.28485 0
M  V30 3096 H 316.036 -2.82314 -1.64214 0
M  V30 3097 H 314.695 -3.65176 0.322797 0
M  V30 3098 H 314.343 -4.63717 -1.94874 0
M  V30 3099 H 314.043 -5.83797 -0.667446 0
M  V30 3100 H 315.567 -5.89312 -1.59824 0
M  V30 3101 H 316.981 -5.69436 0.664482 0
M  V30 3102 H 315.378 -5.82445 1.4449 0
M  V30 3103 H 316.448 -4.4753 1.86668 0
M  V30 3104 N 317.792 -0.46758 -1.50504 0
M  V30 3105 C 319.02 0.0864133 -2.06719 0
M  V30 3106 C 319.435 1.33819 -1.33184 0
M  V30 3107 O 318.792 1.78061 -0.400083 0
M  V30 3108 C 318.843 0.378079 -3.59517 0
M  V30 3109 O 318.564 -0.824044 -4.3028 0
M  V30 3110 C 320.065 0.979426 -4.32345 0
M  V30 3111 H 317.285 -0.00551697 -0.670977 0
M  V30 3112 H 319.829 -0.655354 -1.93715 0
M  V30 3113 H 317.984 1.06977 -3.72337 0
M  V30 3114 H 318.398 -0.566518 -5.21432 0
M  V30 3115 H 319.872 1.1333 -5.40241 0
M  V30 3116 H 320.349 1.9686 -3.9261 0
M  V30 3117 H 320.955 0.326216 -4.24047 0
M  V30 3118 N 319.27 1.56325 -0.20005 0
M  V30 3119 C 320.233 2.18084 0.705132 0
M  V30 3120 C 321.233 1.13666 1.1374 0
M  V30 3121 O 322.423 1.39023 1.04968 0
M  V30 3122 C 319.555 2.78689 1.96329 0
M  V30 3123 H 320.748 2.99435 0.167023 0
M  V30 3124 H 318.301 1.56221 0.0495725 0
M  V30 3125 H 319.036 2.0115 2.5438 0
M  V30 3126 H 318.821 3.55133 1.66202 0
M  V30 3127 H 320.311 3.26096 2.60866 0
M  V30 3128 N 320.748 -0.0735177 1.57428 0
M  V30 3129 C 321.976 -0.785969 1.9139 0
M  V30 3130 C 322.391 -1.71207 0.795847 0
M  V30 3131 O 321.748 -1.81033 -0.230915 0
M  V30 3132 C 321.799 -1.58107 3.25091 0
M  V30 3133 O 321.52 -0.6922 4.32597 0
M  V30 3134 C 323.021 -2.39467 3.73055 0
M  V30 3135 H 320.241 -0.223558 0.632663 0
M  V30 3136 H 322.785 -0.044302 2.04452 0
M  V30 3137 H 320.94 -2.27503 3.13562 0
M  V30 3138 H 321.354 -1.24504 5.09508 0
M  V30 3139 H 322.828 -2.90716 4.69242 0
M  V30 3140 H 323.305 -3.18913 3.01979 0
M  V30 3141 H 323.911 -1.7523 3.87523 0
M  V30 3142 N 322.226 -1.5378 -0.344866 0
M  V30 3143 C 323.156 -1.84662 -1.42906 0
M  V30 3144 C 324.137 -0.701648 -1.54955 0
M  V30 3145 O 325.322 -0.953438 -1.69184 0
M  V30 3146 C 322.452 -2.05503 -2.79974 0
M  V30 3147 C 321.406 -3.21318 -2.82734 0
M  V30 3148 C 320.732 -3.2749 -4.22675 0
M  V30 3149 C 322.032 -4.59456 -2.48389 0
M  V30 3150 H 323.726 -2.75461 -1.17311 0
M  V30 3151 H 321.272 -1.32542 -0.562896 0
M  V30 3152 H 323.225 -2.25691 -3.55867 0
M  V30 3153 H 321.949 -1.11434 -3.07002 0
M  V30 3154 H 320.608 -3.00984 -2.09294 0
M  V30 3155 H 320.256 -2.31019 -4.4681 0
M  V30 3156 H 319.956 -4.05316 -4.25433 0
M  V30 3157 H 321.48 -3.49887 -5.00412 0
M  V30 3158 H 322.894 -4.79667 -3.13995 0
M  V30 3159 H 321.291 -5.39675 -2.62432 0
M  V30 3160 H 322.361 -4.63155 -1.4358 0
M  V30 3161 N 323.704 0.605807 -1.45491 0
M  V30 3162 C 324.929 1.39625 -1.53361 0
M  V30 3163 C 325.354 1.87351 -0.167645 0
M  V30 3164 O 324.712 1.60243 0.848051 0
M  V30 3165 C 324.76 2.57559 -2.5238 0
M  V30 3166 O 323.864 3.58248 -2.04285 0
M  V30 3167 H 323.205 0.416771 -0.516912 0
M  V30 3168 H 325.735 0.737103 -1.90861 0
M  V30 3169 H 325.745 3.0478 -2.71244 0
M  V30 3170 H 324.42 2.22171 -3.51586 0
M  V30 3171 H 322.997 3.17664 -1.95305 0
M  V30 3172 N 325.182 1.32811 0.848464 0
M  V30 3173 C 326.129 1.22265 1.95755 0
M  V30 3174 C 327.099 0.103413 1.65778 0
M  V30 3175 O 328.284 0.280033 1.88734 0
M  V30 3176 C 325.424 0.958014 3.31536 0
M  V30 3177 C 324.537 2.16262 3.73971 0
M  V30 3178 C 323.672 1.83295 4.98575 0
M  V30 3179 C 322.711 3.00041 5.33518 0
M  V30 3180 N 321.848 2.67125 6.49299 0
M  V30 3181 H 326.688 2.17128 2.04107 0
M  V30 3182 H 324.225 1.07982 0.998913 0
M  V30 3183 H 326.183 0.785052 4.09747 0
M  V30 3184 H 324.813 0.046159 3.22767 0
M  V30 3185 H 323.865 2.44565 2.91362 0
M  V30 3186 H 325.177 3.03572 3.95785 0
M  V30 3187 H 324.331 1.62586 5.84509 0
M  V30 3188 H 323.07 0.932078 4.7871 0
M  V30 3189 H 322.075 3.21374 4.46093 0
M  V30 3190 H 323.3 3.90869 5.55336 0
M  V30 3191 H 321.246 1.79586 6.3094 0
M  V30 3192 H 321.163 3.47965 6.71161 0
M  V30 3193 H 322.431 2.49861 7.3837 0
M  V30 3194 N 326.66 -1.06551 1.16123 0
M  V30 3195 C 327.885 -1.83544 0.965735 0
M  V30 3196 C 328.31 -1.81843 -0.481102 0
M  V30 3197 O 327.668 -1.21732 -1.34354 0
M  V30 3198 C 327.716 -3.28169 1.49457 0
M  V30 3199 O 326.82 -4.0643 0.699157 0
M  V30 3200 H 326.161 -0.568026 0.343864 0
M  V30 3201 H 328.691 -1.34362 1.54299 0
M  V30 3202 H 328.701 -3.78992 1.51092 0
M  V30 3203 H 327.376 -3.28722 2.54784 0
M  V30 3204 H 325.953 -3.65216 0.7531 0
M  V30 3205 N 328.138 -0.959301 -1.25041 0
M  V30 3206 C 329.386 -0.615393 -1.92503 0
M  V30 3207 C 329.707 0.850969 -1.75452 0
M  V30 3208 O 328.977 1.60658 -1.12098 0
M  V30 3209 H 327.557 -0.224613 -0.712431 0
M  V30 3210 H 330.219 -1.21855 -1.5211 0
M  V30 3211 H 329.315 -0.848738 -3.00338 0
M  V30 3212 N 329.616 1.39756 -0.72842 0
M  V30 3213 C 330.564 2.32485 -0.0731849 0
M  V30 3214 C 331.558 1.52717 0.733063 0
M  V30 3215 O 332.764 1.68428 0.634988 0
M  V30 3216 H 329.139 0.751984 -0.00486469 0
M  V30 3217 H 331.11 2.85382 -0.871761 0
M  V30 3218 C 329.859 3.37773 0.824908 0
M  V30 3219 H 329.182 3.99227 0.213915 0
M  V30 3220 H 330.622 4.05121 1.25111 0
M  V30 3221 C 329.081 2.74287 1.95622 0
M  V30 3222 O 329.611 2.61618 3.04826 0
M  V30 3223 N 327.817 2.32475 1.74367 0
M  V30 3224 H 327.364 2.4298 0.855494 0
M  V30 3225 H 327.322 1.90337 2.50238 0
M  V30 3226 N 331.094 0.475555 1.50254 0
M  V30 3227 C 332.322 -0.0754493 2.06762 0
M  V30 3228 C 332.737 -1.33111 1.33891 0
M  V30 3229 O 332.094 -1.77846 0.40952 0
M  V30 3230 C 332.145 -0.359008 3.59713 0
M  V30 3231 O 331.866 0.846851 4.29837 0
M  V30 3232 C 333.367 -0.956484 4.32858 0
M  V30 3233 H 330.587 0.00907525 0.670939 0
M  V30 3234 H 333.131 0.665618 1.93364 0
M  V30 3235 H 331.286 -1.05001 3.72899 0
M  V30 3236 H 331.7 0.594162 5.21124 0
M  V30 3237 H 333.174 -1.10463 5.40834 0
M  V30 3238 H 333.651 -1.94775 3.93649 0
M  V30 3239 H 334.257 -0.303723 4.24214 0
M  V30 3240 N 332.573 -1.56217 0.208337 0
M  V30 3241 C 333.82 -1.97949 -0.42692 0
M  V30 3242 C 334.148 -1.09562 -1.60706 0
M  V30 3243 O 333.403 -0.137616 -1.95216 0
M  V30 3244 C 333.702 -3.45441 -0.916797 0
M  V30 3245 C 333.368 -4.50646 0.151391 0
M  V30 3246 C 332.03 -4.79139 0.444867 0
M  V30 3247 C 334.382 -5.13811 0.874492 0
M  V30 3248 C 331.71 -5.68084 1.46619 0
M  V30 3249 C 334.062 -6.03861 1.88506 0
M  V30 3250 C 332.726 -6.30704 2.18559 0
M  V30 3251 H 331.996 -0.724345 -0.156221 0
M  V30 3252 H 334.643 -1.89006 0.308084 0
M  V30 3253 H 332.948 -3.51521 -1.73032 0
M  V30 3254 H 334.645 -3.75094 -1.41794 0
M  V30 3255 H 331.235 -4.28511 -0.0875068 0
M  V30 3256 H 335.419 -4.91879 0.660996 0
M  V30 3257 H 330.675 -5.87151 1.7048 0
M  V30 3258 H 334.849 -6.51861 2.45051 0
M  V30 3259 H 332.476 -6.99424 2.97843 0
M  V30 3260 N 334.051 0.0651679 -1.57465 0
M  V30 3261 C 335.467 0.420105 -1.53972 0
M  V30 3262 C 335.667 1.78782 -0.929474 0
M  V30 3263 O 334.723 2.46771 -0.534839 0
M  V30 3264 C 336.036 0.355084 -2.98596 0
M  V30 3265 C 337.584 0.434792 -3.09965 0
M  V30 3266 C 338.059 0.399609 -4.56253 0
M  V30 3267 N 339.55 0.459488 -4.60915 0
M  V30 3268 C 340.285 0.454584 -5.71595 0
M  V30 3269 N 339.781 0.404102 -6.9162 0
M  V30 3270 N 341.574 0.501635 -5.59857 0
M  V30 3271 H 333.725 -0.830328 -1.95498 0
M  V30 3272 H 335.988 -0.312244 -0.895102 0
M  V30 3273 H 335.694 -0.583357 -3.46828 0
M  V30 3274 H 335.568 1.16275 -3.58831 0
M  V30 3275 H 337.955 1.36366 -2.61703 0
M  V30 3276 H 338.036 -0.40157 -2.52628 0
M  V30 3277 H 337.68 -0.525436 -5.05175 0
M  V30 3278 H 337.61 1.25359 -5.11461 0
M  V30 3279 H 340.101 0.502482 -3.74544 0
M  V30 3280 H 340.414 0.404468 -7.71741 0
M  V30 3281 H 338.759 0.37069 -6.94011 0
M  V30 3282 H 341.95 0.538812 -4.64989 0
M  V30 3283 H 342.123 0.494345 -6.46112 0
M  V30 3284 N 335.529 1.53961 0.336706 0
M  V30 3285 C 336.94 1.62914 0.911925 0
M  V30 3286 C 337.291 0.514795 1.89326 0
M  V30 3287 O 336.416 -0.354395 2.13478 0
M  V30 3288 C 337.011 2.95304 1.66076 0
M  V30 3289 C 335.57 3.06496 2.18489 0
M  V30 3290 C 334.717 2.58403 1.00613 0
M  V30 3291 H 337.668 1.58285 0.114649 0
M  V30 3292 H 337.689 2.84727 2.5241 0
M  V30 3293 H 337.201 3.76387 0.946276 0
M  V30 3294 H 335.302 2.3006 2.93092 0
M  V30 3295 H 335.415 4.1208 2.44391 0
M  V30 3296 H 333.779 2.13977 1.38152 0
M  V30 3297 H 334.562 3.41932 0.306179 0
M  V30 3298 N 337.007 -0.598083 1.45811 0
M  V30 3299 C 337.917 -1.73632 1.57763 0
M  V30 3300 C 338.933 -1.67763 0.461676 0
M  V30 3301 O 340.109 -1.87949 0.723685 0
M  V30 3302 C 337.174 -3.10114 1.55018 0
M  V30 3303 C 336.235 -3.27364 2.77726 0
M  V30 3304 C 335.468 -4.57334 2.75102 0
M  V30 3305 O 335.691 -5.40258 1.8297 0
M  V30 3306 O 334.625 -4.77502 3.66437 0
M  V30 3307 H 338.451 -1.66498 2.53992 0
M  V30 3308 H 336.036 -0.763308 1.28429 0
M  V30 3309 H 337.918 -3.9141 1.56129 0
M  V30 3310 H 336.593 -3.17718 0.619431 0
M  V30 3311 H 335.5 -2.45619 2.82174 0
M  V30 3312 H 336.833 -3.24641 3.69958 0
M  V30 3313 N 338.485 -1.33259 -0.841409 0
M  V30 3314 C 339.731 -1.24757 -1.59886 0
M  V30 3315 C 340.064 0.186913 -1.93298 0
M  V30 3316 O 339.339 1.12757 -1.5848 0
M  V30 3317 C 339.622 -2.12036 -2.91055 0
M  V30 3318 C 339.475 -3.63929 -2.6434 0
M  V30 3319 C 340.794 -1.9916 -3.92458 0
M  V30 3320 H 337.913 -0.454542 -0.580138 0
M  V30 3321 H 340.555 -1.63335 -0.970647 0
M  V30 3322 H 338.705 -1.79265 -3.44669 0
M  V30 3323 H 340.377 -4.06978 -2.17178 0
M  V30 3324 H 338.62 -3.85935 -1.98082 0
M  V30 3325 H 339.291 -4.20341 -3.57796 0
M  V30 3326 H 341.767 -2.27895 -3.48143 0
M  V30 3327 H 340.643 -2.62484 -4.82072 0
M  V30 3328 H 340.904 -0.963082 -4.31482 0
M  V30 3329 N 339.963 1.05934 -1.16686 0
M  V30 3330 C 340.913 2.11764 -0.844978 0
M  V30 3331 C 341.897 1.59922 0.177178 0
M  V30 3332 O 343.089 1.76983 -0.0241768 0
M  V30 3333 C 340.218 3.41493 -0.351812 0
M  V30 3334 C 339.304 4.00152 -1.40496 0
M  V30 3335 N 339.695 4.32874 -2.61636 0
M  V30 3336 C 337.993 4.278 -1.26106 0
M  V30 3337 C 338.694 4.79552 -3.29249 0
M  V30 3338 N 337.67 4.79211 -2.56628 0
M  V30 3339 H 341.472 2.34916 -1.76612 0
M  V30 3340 H 338.986 1.23511 -1.05446 0
M  V30 3341 H 340.983 4.16773 -0.102796 0
M  V30 3342 H 339.643 3.19778 0.56322 0
M  V30 3343 H 340.654 4.23109 -2.98663 0
M  V30 3344 H 337.331 4.15511 -0.407081 0
M  V30 3345 H 338.721 5.14045 -4.32675 0
M  V30 3346 N 341.441 0.965919 1.2453 0
M  V30 3347 C 342.371 0.513476 2.27784 0
M  V30 3348 C 343.352 -0.445974 1.6415 0
M  V30 3349 O 344.537 -0.342485 1.91156 0
M  V30 3350 C 341.667 -0.198839 3.4673 0
M  V30 3351 C 340.621 0.676456 4.2262 0
M  V30 3352 C 339.947 -0.167248 5.34438 0
M  V30 3353 C 341.247 1.96017 4.84123 0
M  V30 3354 H 342.941 1.3765 2.65881 0
M  V30 3355 H 340.487 0.663321 1.27813 0
M  V30 3356 H 342.44 -0.526567 4.18097 0
M  V30 3357 H 341.164 -1.0962 3.07654 0
M  V30 3358 H 339.823 0.98743 3.53052 0
M  V30 3359 H 339.471 -1.0647 4.91603 0
M  V30 3360 H 339.171 0.415181 5.86131 0
M  V30 3361 H 340.695 -0.489688 6.08633 0
M  V30 3362 H 342.109 1.69814 5.47573 0
M  V30 3363 H 340.506 2.48918 5.4604 0
M  V30 3364 H 341.576 2.65622 4.05676 0
M  V30 3365 N 342.919 -1.39368 0.735821 0
M  V30 3366 C 343.849 -2.33234 0.111506 0
M  V30 3367 C 344.83 -1.53954 -0.723334 0
M  V30 3368 O 346.015 -1.82344 -0.668147 0
M  V30 3369 C 343.145 -3.38057 -0.795917 0
M  V30 3370 C 342.099 -4.2795 -0.065172 0
M  V30 3371 C 341.425 -5.23479 -1.08967 0
M  V30 3372 C 342.725 -5.10741 1.09273 0
M  V30 3373 H 344.419 -2.85692 0.895571 0
M  V30 3374 H 341.965 -1.37364 0.432109 0
M  V30 3375 H 343.918 -4.02675 -1.24221 0
M  V30 3376 H 342.642 -2.8404 -1.61211 0
M  V30 3377 H 341.301 -3.64813 0.361511 0
M  V30 3378 H 340.949 -4.65758 -1.89944 0
M  V30 3379 H 340.649 -5.84472 -0.605489 0
M  V30 3380 H 342.173 -5.90974 -1.53565 0
M  V30 3381 H 343.587 -5.68699 0.724841 0
M  V30 3382 H 341.984 -5.8088 1.50659 0
M  V30 3383 H 343.054 -4.45525 1.91404 0
M  V30 3384 N 344.397 -0.483516 -1.5 0
M  V30 3385 C 345.808 -0.0314176 -1.86674 0
M  V30 3386 C 346.159 1.37728 -1.39733 0
M  V30 3387 O 345.284 2.02327 -0.767635 0
M  V30 3388 C 345.879 -0.0502376 -3.38763 0
M  V30 3389 C 344.438 0.346442 -3.74802 0
M  V30 3390 C 343.585 -0.430366 -2.7394 0
M  V30 3391 H 346.536 -0.697182 -1.42566 0
M  V30 3392 H 346.557 0.749116 -3.73053 0
M  V30 3393 H 346.069 -1.07563 -3.72897 0
M  V30 3394 H 344.17 1.37572 -3.46273 0
M  V30 3395 H 344.283 0.0391486 -4.79084 0
M  V30 3396 H 342.647 0.117557 -2.54429 0
M  V30 3397 H 343.43 -1.4555 -3.10918 0
M  V30 3398 N 345.875 1.56104 -0.216619 0
M  V30 3399 C 347.286 1.844 0.292128 0
M  V30 3400 C 347.637 1.13788 1.59833 0
M  V30 3401 O 346.762 0.405888 2.12559 0
M  V30 3402 C 347.357 3.3452 0.53681 0
M  V30 3403 C 345.916 3.63151 0.989876 0
M  V30 3404 C 345.063 2.77255 0.0502302 0
M  V30 3405 H 348.014 1.52481 -0.439926 0
M  V30 3406 H 348.035 3.54459 1.38345 0
M  V30 3407 H 347.547 3.85885 -0.414031 0
M  V30 3408 H 345.648 3.17238 1.95425 0
M  V30 3409 H 345.761 4.71177 0.867698 0
M  V30 3410 H 344.125 2.48555 0.556117 0
M  V30 3411 H 344.908 3.31416 -0.89544 0
M  V30 3412 N 347.353 -0.0568162 1.57498 0
M  V30 3413 C 348.764 -0.606858 1.76562 0
M  V30 3414 C 349.115 -1.77114 0.844094 0
M  V30 3415 O 348.24 -2.16376 0.0318911 0
M  V30 3416 C 348.835 -1.10766 3.20182 0
M  V30 3417 C 347.394 -1.60344 3.40539 0
M  V30 3418 C 346.541 -0.529311 2.72201 0
M  V30 3419 H 349.492 0.169393 1.57793 0
M  V30 3420 H 349.513 -1.97602 3.25167 0
M  V30 3421 H 349.025 -0.26006 3.87228 0
M  V30 3422 H 347.126 -2.47379 2.78629 0
M  V30 3423 H 347.239 -1.67006 4.4905 0
M  V30 3424 H 345.603 -0.977893 2.35179 0
M  V30 3425 H 346.386 0.308352 3.41912 0
M  V30 3426 N 348.832 -1.54138 -0.328536 0
M  V30 3427 C 350.057 -1.76378 -1.09112 0
M  V30 3428 C 350.482 -0.508596 -1.81094 0
M  V30 3429 O 349.84 0.539598 -1.73084 0
M  V30 3430 C 349.888 -2.95358 -2.06872 0
M  V30 3431 O 348.992 -2.66556 -3.14677 0
M  V30 3432 H 348.333 -0.584614 -0.314838 0
M  V30 3433 H 350.863 -2.01146 -0.374348 0
M  V30 3434 H 350.873 -3.22566 -2.4983 0
M  V30 3435 H 349.548 -3.86385 -1.5388 0
M  V30 3436 H 348.125 -2.50282 -2.7643 0
M  V30 3437 N 350.31 0.590341 -1.46126 0
M  V30 3438 C 351.22 1.72793 -1.58681 0
M  V30 3439 C 352.236 1.67516 -0.470566 0
M  V30 3440 O 353.412 1.87562 -0.733642 0
M  V30 3441 C 350.477 3.09287 -1.5666 0
M  V30 3442 C 349.538 3.25886 -2.79458 0
M  V30 3443 C 348.771 4.55869 -2.77524 0
M  V30 3444 O 348.994 5.3928 -1.85832 0
M  V30 3445 O 347.928 4.75552 -3.68964 0
M  V30 3446 H 351.754 1.65149 -2.54872 0
M  V30 3447 H 349.339 0.756486 -1.28832 0
M  V30 3448 H 351.221 3.90577 -1.58202 0
M  V30 3449 H 349.896 3.17385 -0.636271 0
M  V30 3450 H 348.803 2.44119 -2.83472 0
M  V30 3451 H 350.136 3.22675 -3.71674 0
M  V30 3452 N 351.788 1.33704 0.83433 0
M  V30 3453 C 352.698 1.26382 1.97648 0
M  V30 3454 C 353.714 0.173548 1.73132 0
M  V30 3455 O 354.89 0.397962 1.97429 0
M  V30 3456 C 351.955 1.00769 3.31733 0
M  V30 3457 C 351.016 2.1884 3.69334 0
M  V30 3458 C 350.249 1.9444 4.9702 0
M  V30 3459 O 350.472 0.896961 5.63303 0
M  V30 3460 O 349.406 2.81093 5.32231 0
M  V30 3461 H 353.232 2.22444 2.06767 0
M  V30 3462 H 350.817 1.13795 0.968037 0
M  V30 3463 H 352.699 0.882186 4.12062 0
M  V30 3464 H 351.374 0.0773783 3.23608 0
M  V30 3465 H 350.281 2.36946 2.89495 0
M  V30 3466 H 351.614 3.10221 3.82131 0
M  V30 3467 N 353.266 -1.05314 1.17247 0
M  V30 3468 C 354.196 -2.1498 0.911362 0
M  V30 3469 C 355.177 -1.69471 -0.146169 0
M  V30 3470 O 356.362 -1.942 0.003812 0
M  V30 3471 C 353.492 -3.4472 0.422528 0
M  V30 3472 C 352.446 -4.03789 1.4191 0
M  V30 3473 C 351.772 -5.28858 0.788274 0
M  V30 3474 C 353.072 -4.41418 2.7919 0
M  V30 3475 H 354.766 -2.3708 1.82848 0
M  V30 3476 H 352.312 -1.13938 0.880569 0
M  V30 3477 H 354.265 -4.20787 0.227289 0
M  V30 3478 H 352.989 -3.22269 -0.530123 0
M  V30 3479 H 351.648 -3.2979 1.60106 0
M  V30 3480 H 351.296 -5.02709 -0.171173 0
M  V30 3481 H 350.996 -5.69338 1.45353 0
M  V30 3482 H 352.52 -6.07612 0.603282 0
M  V30 3483 H 353.934 -5.08524 2.64719 0
M  V30 3484 H 352.331 -4.92913 3.42282 0
M  V30 3485 H 353.401 -3.51819 3.33693 0
M  V30 3486 N 354.744 -0.972509 -1.24016 0
M  V30 3487 C 355.707 -0.511403 -2.23422 0
M  V30 3488 C 356.707 0.394679 -1.55881 0
M  V30 3489 O 357.897 0.189469 -1.73167 0
M  V30 3490 C 355.029 0.258769 -3.39916 0
M  V30 3491 H 356.222 -1.39024 -2.6573 0
M  V30 3492 H 353.775 -0.757585 -1.36713 0
M  V30 3493 H 354.51 1.1545 -3.03054 0
M  V30 3494 H 354.295 -0.391522 -3.9014 0
M  V30 3495 H 355.785 0.570244 -4.13688 0
M  V30 3496 N 356.222 1.38976 -0.743202 0
M  V30 3497 C 357.152 2.33171 -0.123873 0
M  V30 3498 C 358.133 1.54336 0.71516 0
M  V30 3499 O 359.318 1.82696 0.658467 0
M  V30 3500 C 356.448 3.38474 0.777978 0
M  V30 3501 C 355.402 4.27979 0.0424758 0
M  V30 3502 C 354.728 5.2405 1.06189 0
M  V30 3503 C 356.028 5.10155 -1.1198 0
M  V30 3504 H 357.722 2.85213 -0.910709 0
M  V30 3505 H 355.268 1.37133 -0.439388 0
M  V30 3506 H 357.221 4.03328 1.22084 0
M  V30 3507 H 355.945 2.84891 1.59702 0
M  V30 3508 H 354.604 3.64616 -0.380853 0
M  V30 3509 H 354.252 4.66758 1.87472 0
M  V30 3510 H 353.952 5.84785 0.574485 0
M  V30 3511 H 355.476 5.9178 1.50428 0
M  V30 3512 H 356.89 5.68307 -0.75499 0
M  V30 3513 H 355.287 5.80073 -1.53738 0
M  V30 3514 H 356.357 4.44504 -1.93764 0
M  V30 3515 N 357.7 0.491464 1.49741 0
M  V30 3516 C 358.648 -0.305837 2.30581 0
M  V30 3517 C 359.642 -0.971642 1.38764 0
M  V30 3518 O 360.848 -0.90042 1.5586 0
M  V30 3519 H 357.223 -0.117482 0.742767 0
M  V30 3520 H 359.194 0.396093 2.95759 0
M  V30 3521 C 357.943 -1.36319 3.19863 0
M  V30 3522 H 357.266 -0.860258 3.90435 0
M  V30 3523 H 358.706 -1.89323 3.79385 0
M  V30 3524 C 357.165 -2.37621 2.38826 0
M  V30 3525 O 357.695 -3.43311 2.08567 0
M  V30 3526 N 355.901 -2.09849 2.01026 0
M  V30 3527 H 355.448 -1.23922 2.25834 0
M  V30 3528 H 355.406 -2.77859 1.47112 0
M  V30 3529 N 359.178 -1.55987 0.224894 0
M  V30 3530 C 360.088 -2.24066 -0.69511 0
M  V30 3531 C 361.104 -1.24939 -1.21104 0
M  V30 3532 O 362.28 -1.5776 -1.25195 0
M  V30 3533 C 359.345 -2.90983 -1.88493 0
M  V30 3534 C 358.406 -4.05462 -1.41064 0
M  V30 3535 C 357.639 -4.69179 -2.54375 0
M  V30 3536 O 357.862 -4.31895 -3.72589 0
M  V30 3537 O 356.796 -5.58108 -2.25386 0
M  V30 3538 H 360.622 -3.03353 -0.145149 0
M  V30 3539 H 358.207 -1.49399 -0.00569476 0
M  V30 3540 H 360.089 -3.33209 -2.57972 0
M  V30 3541 H 358.764 -2.14653 -2.42293 0
M  V30 3542 H 357.671 -3.67798 -0.683774 0
M  V30 3543 H 359.004 -4.83545 -0.918985 0
M  V30 3544 N 360.656 0.0484629 -1.57525 0
M  V30 3545 C 361.586 1.0549 -2.08313 0
M  V30 3546 C 362.567 1.38929 -0.981463 0
M  V30 3547 O 363.752 1.48151 -1.25558 0
M  V30 3548 C 360.882 2.36162 -2.54646 0
M  V30 3549 C 359.836 2.17016 -3.68901 0
M  V30 3550 C 359.162 3.53278 -4.01371 0
M  V30 3551 C 360.462 1.57219 -4.98076 0
M  V30 3552 H 362.156 0.632195 -2.92649 0
M  V30 3553 H 359.702 0.302654 -1.40784 0
M  V30 3554 H 361.655 3.06882 -2.88793 0
M  V30 3555 H 360.379 2.80456 -1.67368 0
M  V30 3556 H 359.038 1.48733 -3.35073 0
M  V30 3557 H 358.686 3.95185 -3.11188 0
M  V30 3558 H 358.386 3.41299 -4.78318 0
M  V30 3559 H 359.91 4.25391 -4.38035 0
M  V30 3560 H 361.324 2.17832 -5.30304 0
M  V30 3561 H 359.721 1.55871 -5.79503 0
M  V30 3562 H 360.791 0.535956 -4.81929 0
M  V30 3563 N 362.134 1.5431 0.320358 0
M  V30 3564 C 363.38 1.72924 1.05949 0
M  V30 3565 C 363.713 0.503185 1.87568 0
M  V30 3566 O 362.988 -0.499839 1.87968 0
M  V30 3567 C 363.271 3.00676 1.98156 0
M  V30 3568 C 363.124 4.3354 1.19845 0
M  V30 3569 C 364.443 3.24198 2.9763 0
M  V30 3570 H 361.562 0.629195 0.383774 0
M  V30 3571 H 364.204 1.87008 0.335854 0
M  V30 3572 H 362.354 2.888 2.59859 0
M  V30 3573 H 364.026 4.57305 0.605773 0
M  V30 3574 H 362.269 4.309 0.500784 0
M  V30 3575 H 362.94 5.19156 1.87567 0
M  V30 3576 H 365.416 3.35557 2.4605 0
M  V30 3577 H 364.292 4.14938 3.59329 0
M  V30 3578 H 364.553 2.41577 3.7026 0
M  V30 3579 N 363.613 -0.582584 1.46437 0
M  V30 3580 C 364.841 -1.36682 1.55324 0
M  V30 3581 C 365.256 -1.87796 0.194409 0
M  V30 3582 O 364.613 -1.63623 -0.808318 0
M  V30 3583 C 364.664 -2.55426 2.55812 0
M  V30 3584 O 364.385 -2.0643 3.86417 0
M  V30 3585 C 365.886 -3.47976 2.74641 0
M  V30 3586 H 363.106 -0.417545 0.525259 0
M  V30 3587 H 365.65 -0.708219 1.91845 0
M  V30 3588 H 363.805 -3.17275 2.22295 0
M  V30 3589 H 364.219 -2.83762 4.41111 0
M  V30 3590 H 365.693 -4.27775 3.48874 0
M  V30 3591 H 366.17 -3.99919 1.81553 0
M  V30 3592 H 366.776 -2.91962 3.09255 0
M  V30 3593 N 365.091 -1.34144 -0.827227 0
M  V30 3594 C 366.021 -1.28005 -1.95287 0
M  V30 3595 C 367.002 -0.158321 -1.69362 0
M  V30 3596 O 368.187 -0.349987 -1.9102 0
M  V30 3597 C 365.317 -1.03036 -3.31664 0
M  V30 3598 C 364.271 -2.11628 -3.72019 0
M  V30 3599 C 363.597 -1.71854 -5.0633 0
M  V30 3600 C 364.897 -3.53417 -3.8457 0
M  V30 3601 H 366.591 -2.22187 -2.00682 0
M  V30 3602 H 364.137 -1.0696 -0.964135 0
M  V30 3603 H 366.09 -0.973863 -4.09993 0
M  V30 3604 H 364.814 -0.0529391 -3.26557 0
M  V30 3605 H 363.473 -2.16339 -2.95961 0
M  V30 3606 H 363.121 -0.727841 -4.97706 0
M  V30 3607 H 362.821 -2.44531 -5.34302 0
M  V30 3608 H 364.345 -1.67692 -5.87122 0
M  V30 3609 H 365.759 -3.51142 -4.5318 0
M  V30 3610 H 364.156 -4.24679 -4.2399 0
M  V30 3611 H 365.226 -3.91072 -2.86689 0
M  V30 3612 N 366.569 1.04691 -1.17803 0
M  V30 3613 C 367.797 1.81446 -0.99423 0
M  V30 3614 C 368.212 1.83174 0.457459 0
M  V30 3615 O 367.569 1.26265 1.31771 0
M  V30 3616 C 367.62 3.27334 -1.5341 0
M  V30 3617 O 367.341 3.25798 -2.92895 0
M  V30 3618 C 368.842 4.20759 -1.39559 0
M  V30 3619 H 366.062 0.571599 -0.351447 0
M  V30 3620 H 368.606 1.31982 -1.56208 0
M  V30 3621 H 366.761 3.74052 -1.00815 0
M  V30 3622 H 367.175 4.17144 -3.17949 0
M  V30 3623 H 368.649 5.21084 -1.82141 0
M  V30 3624 H 369.126 4.37856 -0.343394 0
M  V30 3625 H 369.732 3.79901 -1.91195 0
M  V30 3626 N 368.047 0.979072 1.23499 0
M  V30 3627 C 369.287 0.655228 1.93613 0
M  V30 3628 C 369.651 -0.796336 1.74707 0
M  V30 3629 O 370.852 -1.23094 2.38959 0
M  V30 3630 C 369.123 1.03337 3.42135 0
M  V30 3631 S 370.682 0.825793 4.3096 0
M  V30 3632 H 367.5 0.240004 0.669267 0
M  V30 3633 H 370.102 1.25843 1.49612 0
M  V30 3634 H 368.806 2.08646 3.53405 0
M  V30 3635 H 368.337 0.421397 3.91137 0
M  V30 3636 H 370.352 -0.290991 4.95346 0
M  V30 3637 N 369.525 -1.3858 0.750561 0
M  V30 3638 C 370.455 -2.33102 0.136237 0
M  V30 3639 C 371.436 -1.54713 -0.706965 0
M  V30 3640 O 372.621 -1.83043 -0.648769 0
M  V30 3641 C 369.751 -3.38882 -0.760017 0
M  V30 3642 C 368.705 -4.27995 -0.0197785 0
M  V30 3643 C 368.031 -5.24605 -1.03408 0
M  V30 3644 C 369.331 -5.09554 1.14684 0
M  V30 3645 H 371.025 -2.84726 0.925822 0
M  V30 3646 H 368.571 -1.36898 0.446654 0
M  V30 3647 H 370.524 -4.0397 -1.19943 0
M  V30 3648 H 369.248 -2.85734 -1.58189 0
M  V30 3649 H 367.907 -3.64409 0.400184 0
M  V30 3650 H 367.555 -4.67746 -1.84994 0
M  V30 3651 H 367.255 -5.85081 -0.543464 0
M  V30 3652 H 368.779 -5.9257 -1.47288 0
M  V30 3653 H 370.193 -5.67899 0.785118 0
M  V30 3654 H 368.59 -5.7925 1.56812 0
M  V30 3655 H 369.66 -4.4347 1.96118 0
M  V30 3656 N 371.003 -0.499398 -1.49478 0
M  V30 3657 C 371.966 0.268838 -2.27618 0
M  V30 3658 C 372.966 0.895383 -1.33565 0
M  V30 3659 O 374.156 0.760164 -1.56739 0
M  V30 3660 C 371.288 1.38559 -3.11471 0
M  V30 3661 H 372.481 -0.416812 -2.96989 0
M  V30 3662 H 370.034 -0.254313 -1.54217 0
M  V30 3663 H 370.769 2.10544 -2.46661 0
M  V30 3664 H 370.554 0.941797 -3.80621 0
M  V30 3665 H 372.044 1.92678 -3.70493 0
M  V30 3666 N 372.481 1.55866 -0.233164 0
M  V30 3667 C 373.897 1.59133 0.121988 0
M  V30 3668 C 374.097 1.25016 1.58029 0
M  V30 3669 O 373.153 0.990922 2.32243 0
M  V30 3670 C 374.466 2.99932 -0.214792 0
M  V30 3671 C 376.014 3.12601 -0.157971 0
M  V30 3672 C 376.489 4.55597 -0.46859 0
M  V30 3673 N 377.98 4.61305 -0.418585 0
M  V30 3674 C 378.715 5.69903 -0.63227 0
M  V30 3675 N 378.211 6.86819 -0.90835 0
M  V30 3676 N 380.004 5.59264 -0.563913 0
M  V30 3677 H 372.155 1.76315 -1.18434 0
M  V30 3678 H 374.418 0.820093 -0.475553 0
M  V30 3679 H 374.124 3.29588 -1.22739 0
M  V30 3680 H 373.998 3.74327 0.464691 0
M  V30 3681 H 376.385 2.82735 0.845283 0
M  V30 3682 H 376.466 2.40511 -0.871102 0
M  V30 3683 H 376.11 4.86182 -1.46934 0
M  V30 3684 H 376.04 5.25928 0.265865 0
M  V30 3685 H 378.531 3.77297 -0.213368 0
M  V30 3686 H 378.844 7.65507 -1.05919 0
M  V30 3687 H 377.189 6.88536 -0.945673 0
M  V30 3688 H 380.38 4.66802 -0.348372 0
M  V30 3689 H 380.553 6.43831 -0.733847 0
M  V30 3690 N 373.959 -0.0401083 1.57549 0
M  V30 3691 C 375.207 -0.731677 1.8839 0
M  V30 3692 C 375.528 -1.76481 0.829425 0
M  V30 3693 O 374.798 -1.95411 -0.1383 0
M  V30 3694 H 373.378 -0.273225 0.695239 0
M  V30 3695 H 376.04 -0.00867725 1.94898 0
M  V30 3696 H 375.136 -1.22816 2.86919 0
M  V30 3697 N 375.437 -1.54477 -0.31217 0
M  V30 3698 C 376.684 -1.73227 -1.04875 0
M  V30 3699 C 377.012 -0.512042 -1.87639 0
M  V30 3700 O 376.267 0.506131 -1.89042 0
M  V30 3701 C 376.566 -2.967 -1.99258 0
M  V30 3702 C 376.232 -4.30974 -1.32559 0
M  V30 3703 C 374.894 -4.67477 -1.141 0
M  V30 3704 C 377.246 -5.14258 -0.847835 0
M  V30 3705 C 374.574 -5.84852 -0.465326 0
M  V30 3706 C 376.926 -6.32327 -0.185931 0
M  V30 3707 C 375.59 -6.67499 0.0107077 0
M  V30 3708 H 374.86 -0.633881 -0.383765 0
M  V30 3709 H 377.507 -1.88727 -0.324731 0
M  V30 3710 H 375.812 -2.75935 -2.7815 0
M  V30 3711 H 377.509 -3.08401 -2.563 0
M  V30 3712 H 374.099 -4.02262 -1.4793 0
M  V30 3713 H 378.283 -4.86565 -0.978192 0
M  V30 3714 H 373.539 -6.10654 -0.301883 0
M  V30 3715 H 377.713 -6.96135 0.192211 0
M  V30 3716 H 375.34 -7.58306 0.536287 0
M  V30 3717 N 376.915 0.57481 -1.46744 0
M  V30 3718 C 378.14 1.36341 -1.56288 0
M  V30 3719 C 378.565 1.86954 -0.207347 0
M  V30 3720 O 377.923 1.62006 0.813871 0
M  V30 3721 C 377.971 2.52147 -2.57787 0
M  V30 3722 O 377.075 3.53834 -2.11838 0
M  V30 3723 H 376.416 0.405713 -0.525636 0
M  V30 3724 H 378.946 0.696453 -1.92382 0
M  V30 3725 H 378.956 2.98958 -2.77648 0
M  V30 3726 H 377.631 2.14663 -3.5622 0
M  V30 3727 H 376.208 3.1345 -2.01999 0
M  V30 3728 N 378.394 1.34581 0.820102 0
M  V30 3729 C 379.805 1.24298 1.39309 0
M  V30 3730 C 380.156 -0.130351 1.95767 0
M  V30 3731 O 379.281 -1.0308 1.90272 0
M  V30 3732 C 379.876 2.25054 2.53251 0
M  V30 3733 C 378.435 2.18552 3.0645 0
M  V30 3734 C 377.582 2.11503 1.79337 0
M  V30 3735 H 380.533 1.45906 0.624262 0
M  V30 3736 H 380.554 1.86917 3.31425 0
M  V30 3737 H 380.066 3.24996 2.1213 0
M  V30 3738 H 378.167 1.21976 3.52069 0
M  V30 3739 H 378.28 3.0993 3.65349 0
M  V30 3740 H 376.644 1.57268 2.00347 0
M  V30 3741 H 377.427 3.13284 1.40386 0
M  V30 3742 N 379.872 -1.04064 1.18357 0
M  V30 3743 C 380.819 -2.12077 0.910603 0
M  V30 3744 C 381.789 -1.65421 -0.15 0
M  V30 3745 O 382.974 -1.90797 -0.0103614 0
M  V30 3746 C 380.114 -3.42252 0.442472 0
M  V30 3747 C 379.227 -4.0252 1.5685 0
M  V30 3748 C 378.362 -5.20657 1.05309 0
M  V30 3749 C 377.401 -5.72955 2.1538 0
M  V30 3750 N 376.538 -6.8238 1.65233 0
M  V30 3751 H 381.378 -2.34764 1.83548 0
M  V30 3752 H 378.915 -1.15157 0.915279 0
M  V30 3753 H 380.873 -4.16921 0.152534 0
M  V30 3754 H 379.503 -3.19712 -0.445428 0
M  V30 3755 H 378.555 -3.25178 1.97391 0
M  V30 3756 H 379.867 -4.37362 2.39824 0
M  V30 3757 H 379.021 -6.0244 0.717677 0
M  V30 3758 H 377.76 -4.87318 0.19293 0
M  V30 3759 H 376.765 -4.89793 2.49766 0
M  V30 3760 H 377.99 -6.08337 3.01832 0
M  V30 3761 H 375.936 -6.50917 0.815064 0
M  V30 3762 H 375.853 -7.16286 2.41805 0
M  V30 3763 H 377.121 -7.67788 1.34619 0
M  V30 3764 N 381.35 -0.985608 -1.22978 0
M  V30 3765 C 382.627 -0.573599 -1.87001 0
M  V30 3766 C 383.007 0.949213 -1.88555 0
M  V30 3767 O 382.355 1.82811 -1.37086 0
M  V30 3768 C 382.565 -1.18564 -3.28243 0
M  V30 3769 C 383.913 -1.28163 -4.04796 0
M  V30 3770 O 384.937 -1.13949 -3.37482 0
M  V30 3771 O 383.796 -1.50832 -5.25273 0
M  V30 3772 H 380.89 -0.193868 -0.803955 0
M  V30 3773 H 383.436 -1.08102 -1.30813 0
M  V30 3774 H 382.208 -2.22758 -3.21706 0
M  V30 3775 H 381.831 -0.663363 -3.92027 0
M  V30 3776 N 382.828 1.3818 -0.7579 0
M  V30 3777 C 384.074 2.00316 -0.316453 0
M  V30 3778 C 384.407 1.60026 1.10025 0
M  V30 3779 O 383.682 0.839835 1.75434 0
M  V30 3780 C 383.965 3.57349 -0.444245 0
M  V30 3781 C 383.818 4.07591 -1.90236 0
M  V30 3782 C 385.137 4.3981 0.1598 0
M  V30 3783 H 382.256 0.727741 -0.116459 0
M  V30 3784 H 384.898 1.6406 -0.958352 0
M  V30 3785 H 383.048 3.88365 0.102233 0
M  V30 3786 H 384.72 3.87199 -2.50748 0
M  V30 3787 H 382.963 3.60297 -2.41595 0
M  V30 3788 H 383.634 5.16677 -1.94291 0
M  V30 3789 H 386.11 4.14971 -0.306314 0
M  V30 3790 H 384.986 5.48885 0.0401675 0
M  V30 3791 H 385.247 4.24102 1.24859 0
M  V30 3792 N 384.306 0.507319 1.49211 0
M  V30 3793 C 385.236 -0.256939 2.32082 0
M  V30 3794 C 386.217 -0.956609 1.40652 0
M  V30 3795 O 387.402 -0.946788 1.69557 0
M  V30 3796 C 384.532 -1.31802 3.21318 0
M  V30 3797 C 383.486 -0.737855 4.21592 0
M  V30 3798 C 382.812 -1.89992 4.99807 0
M  V30 3799 C 384.112 0.275325 5.21574 0
M  V30 3800 H 385.806 0.434798 2.96226 0
M  V30 3801 H 383.352 0.210546 1.42452 0
M  V30 3802 H 385.305 -1.86045 3.78107 0
M  V30 3803 H 384.029 -2.03903 2.5513 0
M  V30 3804 H 382.688 -0.217126 3.65956 0
M  V30 3805 H 382.336 -2.60877 4.30061 0
M  V30 3806 H 382.036 -1.51777 5.6766 0
M  V30 3807 H 383.56 -2.44657 5.59442 0
M  V30 3808 H 384.974 -0.179193 5.7302 0
M  V30 3809 H 383.371 0.573649 5.97352 0
M  V30 3810 H 384.441 1.18903 4.70096 0
M  V30 3811 N 385.784 -1.5574 0.241426 0
M  V30 3812 C 387.03 -1.99104 -0.385406 0
M  V30 3813 C 387.363 -1.1293 -1.57988 0
M  V30 3814 O 386.638 -0.191449 -1.93555 0
M  V30 3815 C 386.921 -3.51087 -0.800616 0
M  V30 3816 C 386.774 -4.48028 0.398874 0
M  V30 3817 C 388.093 -4.08015 -1.64959 0
M  V30 3818 H 385.212 -0.723848 -0.138614 0
M  V30 3819 H 387.854 -1.86903 0.341642 0
M  V30 3820 H 386.004 -3.61615 -1.4201 0
M  V30 3821 H 387.676 -4.49487 1.03726 0
M  V30 3822 H 385.919 -4.21077 1.04293 0
M  V30 3823 H 386.59 -5.51962 0.0651056 0
M  V30 3824 H 389.066 -4.00555 -1.12672 0
M  V30 3825 H 387.942 -5.14635 -1.90898 0
M  V30 3826 H 388.203 -3.56131 -2.61961 0
M  V30 3827 N 387.262 0.0317525 -1.57568 0
M  V30 3828 C 388.678 0.38735 -1.54828 0
M  V30 3829 C 388.878 1.7677 -0.967187 0
M  V30 3830 O 387.934 2.45581 -0.587063 0
M  V30 3831 C 389.247 0.291667 -2.99282 0
M  V30 3832 C 390.795 0.368946 -3.10818 0
M  V30 3833 C 391.27 0.302741 -4.56998 0
M  V30 3834 N 392.761 0.361617 -4.61786 0
M  V30 3835 C 393.496 0.333238 -5.72431 0
M  V30 3836 N 392.992 0.257308 -6.92322 0
M  V30 3837 N 394.785 0.382769 -5.60795 0
M  V30 3838 H 386.936 -0.871609 -1.93692 0
M  V30 3839 H 389.199 -0.331161 -0.888277 0
M  V30 3840 H 388.905 -0.656794 -3.45513 0
M  V30 3841 H 388.779 1.08638 -3.61217 0
M  V30 3842 H 391.166 1.30784 -2.64536 0
M  V30 3843 H 391.247 -0.455066 -2.5172 0
M  V30 3844 H 390.891 -0.632473 -5.03947 0
M  V30 3845 H 390.821 1.14482 -5.14005 0
M  V30 3846 H 393.312 0.422923 -3.75526 0
M  V30 3847 H 393.625 0.24068 -7.72425 0
M  V30 3848 H 391.97 0.223396 -6.94641 0
M  V30 3849 H 395.161 0.44006 -4.66027 0
M  V30 3850 H 395.334 0.357184 -6.47015 0
M  V30 3851 N 388.74 1.54641 0.303973 0
M  V30 3852 C 389.986 1.74969 1.03718 0
M  V30 3853 C 390.341 0.527461 1.85029 0
M  V30 3854 O 389.634 -0.480143 1.85486 0
M  V30 3855 C 389.828 2.97753 1.97681 0
M  V30 3856 C 389.657 4.318 1.25613 0
M  V30 3857 C 388.427 4.95616 0.984518 0
M  V30 3858 C 390.625 5.10021 0.662081 0
M  V30 3859 N 388.607 6.13455 0.233794 0
M  V30 3860 C 389.978 6.19984 0.0439736 0
M  V30 3861 C 392.033 4.94663 0.566835 0
M  V30 3862 C 390.736 7.16264 -0.66016 0
M  V30 3863 C 392.762 5.91271 -0.123637 0
M  V30 3864 C 392.124 7.00601 -0.730608 0
M  V30 3865 H 388.223 0.692873 0.362562 0
M  V30 3866 H 390.807 1.92116 0.316135 0
M  V30 3867 H 388.978 2.82036 2.6704 0
M  V30 3868 H 390.71 3.06621 2.64132 0
M  V30 3869 H 387.465 4.55921 1.28191 0
M  V30 3870 H 387.889 6.76879 -0.127996 0
M  V30 3871 H 392.531 4.10267 1.02181 0
M  V30 3872 H 390.249 8.00204 -1.12691 0
M  V30 3873 H 393.835 5.81466 -0.197236 0
M  V30 3874 H 392.715 7.7407 -1.2564 0
M  V30 3875 N 390.218 -0.567019 1.47046 0
M  V30 3876 C 391.148 -1.68482 1.61667 0
M  V30 3877 C 392.129 -1.6358 0.466418 0
M  V30 3878 O 393.314 -1.81354 0.694574 0
M  V30 3879 C 390.444 -3.07124 1.62148 0
M  V30 3880 C 389.398 -3.26867 2.76301 0
M  V30 3881 C 388.724 -4.66196 2.61849 0
M  V30 3882 C 390.024 -3.13186 4.17986 0
M  V30 3883 H 391.718 -1.56502 2.5524 0
M  V30 3884 H 389.264 -0.751486 1.22836 0
M  V30 3885 H 391.217 -3.8516 1.70968 0
M  V30 3886 H 389.941 -3.2004 0.651287 0
M  V30 3887 H 388.6 -2.51237 2.66975 0
M  V30 3888 H 388.248 -4.75898 1.62879 0
M  V30 3889 H 387.948 -4.80356 3.38425 0
M  V30 3890 H 389.472 -5.46379 2.72584 0
M  V30 3891 H 390.886 -3.81049 4.2834 0
M  V30 3892 H 389.283 -3.3886 4.95272 0
M  V30 3893 H 390.353 -2.10057 4.3704 0
M  V30 3894 N 391.696 -1.35014 -0.812953 0
M  V30 3895 C 392.628 -1.23262 -1.93233 0
M  V30 3896 C 393.641 -0.157371 -1.62038 0
M  V30 3897 O 394.83 -0.410096 -1.73725 0
M  V30 3898 C 391.93 -0.87392 -3.27438 0
M  V30 3899 C 391.103 -2.04622 -3.86586 0
M  V30 3900 C 390.162 -1.66432 -4.99186 0
M  V30 3901 O 389.188 -2.38222 -5.16951 0
M  V30 3902 N 390.39 -0.584248 -5.77552 0
M  V30 3903 H 393.155 -2.19699 -2.03844 0
M  V30 3904 H 390.716 -1.281 -0.99005 0
M  V30 3905 H 392.708 -0.600039 -4.00227 0
M  V30 3906 H 391.278 0.00057392 -3.126 0
M  V30 3907 H 390.498 -2.48427 -3.06068 0
M  V30 3908 H 391.786 -2.82999 -4.22835 0
M  V30 3909 H 391.184 0.0123526 -5.65699 0
M  V30 3910 H 389.741 -0.37013 -6.50748 0
M  V30 3911 N 393.175 1.03435 -1.18907 0
M  V30 3912 C 394.423 1.76394 -0.986382 0
M  V30 3913 C 394.744 1.88883 0.484567 0
M  V30 3914 O 394.014 1.41843 1.3512 0
M  V30 3915 H 392.594 0.65344 -0.361975 0
M  V30 3916 H 395.256 1.248 -1.49703 0
M  V30 3917 H 394.352 2.77424 -1.42978 0
M  V30 3918 N 394.653 0.992116 1.22453 0
M  V30 3919 C 395.878 0.685644 1.95739 0
M  V30 3920 C 396.303 -0.743 1.72804 0
M  V30 3921 O 395.661 -1.50778 1.00676 0
M  V30 3922 C 395.709 0.996293 3.46564 0
M  V30 3923 O 394.813 0.0945512 4.12292 0
M  V30 3924 H 394.154 0.256694 0.612376 0
M  V30 3925 H 396.684 1.32888 1.5557 0
M  V30 3926 H 396.694 0.93781 3.97076 0
M  V30 3927 H 395.369 2.03733 3.62582 0
M  V30 3928 H 393.946 0.208451 3.72317 0
M  V30 3929 N 396.131 -1.37776 0.765217 0
M  V30 3930 C 397.063 -2.28958 0.105361 0
M  V30 3931 C 398.076 -1.48316 -0.67128 0
M  V30 3932 O 399.265 -1.71046 -0.51045 0
M  V30 3933 C 396.365 -3.27421 -0.874569 0
M  V30 3934 C 395.538 -4.37132 -0.153123 0
M  V30 3935 C 394.597 -5.1571 -1.04547 0
M  V30 3936 O 393.623 -5.66896 -0.511672 0
M  V30 3937 N 394.825 -5.29808 -2.37243 0
M  V30 3938 H 397.59 -2.86227 0.888495 0
M  V30 3939 H 395.151 -1.49682 0.617 0
M  V30 3940 H 397.143 -3.7687 -1.47483 0
M  V30 3941 H 395.713 -2.70967 -1.55871 0
M  V30 3942 H 394.933 -3.89166 0.627975 0
M  V30 3943 H 396.221 -5.07625 0.345643 0
M  V30 3944 H 395.619 -4.89793 -2.83054 0
M  V30 3945 H 394.176 -5.82589 -2.9229 0
M  V30 3946 N 397.609 -0.515225 -1.4894 0
M  V30 3947 C 398.519 0.259774 -2.33157 0
M  V30 3948 C 399.535 0.953501 -1.45548 0
M  V30 3949 O 400.711 0.931735 -1.78552 0
M  V30 3950 C 397.776 1.30193 -3.21326 0
M  V30 3951 C 396.837 0.620129 -4.24797 0
M  V30 3952 C 396.07 1.61263 -5.08753 0
M  V30 3953 O 396.293 2.84389 -4.94448 0
M  V30 3954 O 395.227 1.16013 -5.90614 0
M  V30 3955 H 399.053 -0.429932 -3.00641 0
M  V30 3956 H 396.638 -0.276346 -1.46822 0
M  V30 3957 H 398.52 1.90455 -3.75905 0
M  V30 3958 H 397.195 1.97431 -2.56521 0
M  V30 3959 H 396.102 -0.0226019 -3.74093 0
M  V30 3960 H 397.435 -0.0100493 -4.92199 0
M  V30 3961 N 399.087 1.5561 -0.249682 0
M  V30 3962 C 400.017 2.24477 0.642826 0
M  V30 3963 C 400.998 1.22601 1.17911 0
M  V30 3964 O 402.183 1.5126 1.21795 0
M  V30 3965 C 399.313 2.94638 1.83863 0
M  V30 3966 C 398.267 4.03227 1.435 0
M  V30 3967 C 397.593 4.60828 2.71186 0
M  V30 3968 C 398.893 5.18796 0.604002 0
M  V30 3969 H 400.587 2.99321 0.0685625 0
M  V30 3970 H 398.133 1.43965 0.0315363 0
M  V30 3971 H 400.086 3.41517 2.46868 0
M  V30 3972 H 398.81 2.17287 2.43832 0
M  V30 3973 H 397.469 3.57121 0.828275 0
M  V30 3974 H 397.117 3.80174 3.29358 0
M  V30 3975 H 396.817 5.34132 2.44901 0
M  V30 3976 H 398.341 5.10442 3.35084 0
M  V30 3977 H 399.755 5.61883 1.13842 0
M  V30 3978 H 398.152 5.98506 0.437097 0
M  V30 3979 H 399.222 4.83384 -0.383147 0
M  V30 3980 N 400.565 -0.0233959 1.57583 0
M  V30 3981 C 401.976 -0.56927 1.77809 0
M  V30 3982 C 402.327 -1.75284 0.881472 0
M  V30 3983 O 401.452 -2.1626 0.0777805 0
M  V30 3984 C 402.047 -1.03949 3.22459 0
M  V30 3985 C 400.606 -1.53084 3.43864 0
M  V30 3986 C 399.753 -0.471454 2.73263 0
M  V30 3987 H 402.704 0.202825 1.57399 0
M  V30 3988 H 402.725 -1.90661 3.29285 0
M  V30 3989 H 402.237 -0.177865 3.87692 0
M  V30 3990 H 400.338 -2.41414 2.83814 0
M  V30 3991 H 400.451 -1.57443 4.52491 0
M  V30 3992 H 398.815 -0.927788 2.37201 0
M  V30 3993 H 399.598 0.380808 3.41181 0
M  V30 3994 N 402.043 -1.548 -0.295768 0
M  V30 3995 C 403.459 -1.4613 -0.641722 0
M  V30 3996 C 403.659 -0.656771 -1.90496 0
M  V30 3997 O 402.715 -0.166547 -2.5195 0
M  V30 3998 C 404.028 -2.90141 -0.789852 0
M  V30 3999 C 405.576 -3.00216 -0.885396 0
M  V30 4000 C 406.051 -4.45434 -1.06548 0
M  V30 4001 N 407.542 -4.49166 -1.13156 0
M  V30 4002 C 408.277 -5.58717 -1.28929 0
M  V30 4003 N 407.773 -6.78182 -1.41567 0
M  V30 4004 N 409.566 -5.46415 -1.31859 0
M  V30 4005 H 401.717 -2.05574 0.534147 0
M  V30 4006 H 403.98 -0.931259 0.177372 0
M  V30 4007 H 403.686 -3.51635 0.0675598 0
M  V30 4008 H 403.56 -3.37859 -1.67724 0
M  V30 4009 H 405.947 -2.38833 -1.73329 0
M  V30 4010 H 406.028 -2.55787 0.0261185 0
M  V30 4011 H 405.672 -5.07413 -0.222335 0
M  V30 4012 H 405.602 -4.87499 -1.9913 0
M  V30 4013 H 408.093 -3.631 -1.04721 0
M  V30 4014 H 408.406 -7.57428 -1.53372 0
M  V30 4015 H 406.751 -6.81037 -1.38613 0
M  V30 4016 H 409.942 -4.5203 -1.21601 0
M  V30 4017 H 410.115 -6.31841 -1.43808 0
M  V30 4018 N 403.521 0.559213 -1.47345 0
M  V30 4019 C 404.431 1.69388 -1.62311 0
M  V30 4020 C 405.447 1.6648 -0.505993 0
M  V30 4021 O 406.623 1.85964 -0.773262 0
M  V30 4022 C 403.688 3.05894 -1.63185 0
M  V30 4023 C 402.749 3.19885 -2.86307 0
M  V30 4024 C 401.982 4.49879 -2.87131 0
M  V30 4025 O 402.205 5.35217 -1.97229 0
M  V30 4026 O 401.139 4.67618 -3.78968 0
M  V30 4027 H 404.965 1.59706 -2.58317 0
M  V30 4028 H 402.55 0.728989 -1.30407 0
M  V30 4029 H 404.432 3.87133 -1.66451 0
M  V30 4030 H 403.107 3.15964 -0.70345 0
M  V30 4031 H 402.014 2.38052 -2.88587 0
M  V30 4032 H 403.347 3.14718 -3.78435 0
M  V30 4033 N 404.999 1.35443 0.805782 0
M  V30 4034 C 405.946 1.28431 1.91766 0
M  V30 4035 C 406.916 0.156102 1.65365 0
M  V30 4036 O 408.101 0.339936 1.87747 0
M  V30 4037 C 405.241 1.06301 3.2832 0
M  V30 4038 C 404.354 2.2805 3.66902 0
M  V30 4039 C 403.489 1.99064 4.92491 0
M  V30 4040 C 402.528 3.16863 5.23703 0
M  V30 4041 N 401.665 2.87647 6.40471 0
M  V30 4042 H 406.505 2.23511 1.97096 0
M  V30 4043 H 404.042 1.11105 0.964054 0
M  V30 4044 H 406 0.915012 4.07042 0
M  V30 4045 H 404.63 0.148822 3.22457 0
M  V30 4046 H 403.682 2.53711 2.83434 0
M  V30 4047 H 404.994 3.1601 3.85927 0
M  V30 4048 H 404.148 1.81099 5.7904 0
M  V30 4049 H 402.887 1.0839 4.75503 0
M  V30 4050 H 401.892 3.35404 4.35642 0
M  V30 4051 H 403.117 4.08339 5.4262 0
M  V30 4052 H 401.063 1.99568 6.24907 0
M  V30 4053 H 400.98 3.69141 6.59751 0
M  V30 4054 H 402.248 2.73226 7.30047 0
M  V30 4055 N 406.477 -1.02803 1.19454 0
M  V30 4056 C 407.707 -1.79581 1.02149 0
M  V30 4057 C 408.115 -1.84182 -0.432851 0
M  V30 4058 O 407.458 -1.28534 -1.31243 0
M  V30 4059 C 407.52 -3.25993 1.51554 0
M  V30 4060 C 407.184 -3.45025 2.99678 0
M  V30 4061 C 408.181 -3.35175 3.97434 0
M  V30 4062 C 405.866 -3.71212 3.38389 0
M  V30 4063 C 407.86 -3.51238 5.31893 0
M  V30 4064 C 405.547 -3.8692 4.73008 0
M  V30 4065 C 406.545 -3.76936 5.69569 0
M  V30 4066 O 406.233 -3.92179 7.01748 0
M  V30 4067 H 405.965 -0.571962 0.360327 0
M  V30 4068 H 408.519 -1.30367 1.58725 0
M  V30 4069 H 406.749 -3.76235 0.893543 0
M  V30 4070 H 408.438 -3.84368 1.30444 0
M  V30 4071 H 409.204 -3.14895 3.68872 0
M  V30 4072 H 405.083 -3.78075 2.6378 0
M  V30 4073 H 408.627 -3.43362 6.07247 0
M  V30 4074 H 404.524 -4.06699 5.01265 0
M  V30 4075 H 405.292 -4.09265 7.08833 0
M  V30 4076 N 407.956 -0.998596 -1.21925 0
M  V30 4077 C 408.886 -0.573688 -2.26343 0
M  V30 4078 C 409.867 0.402296 -1.65274 0
M  V30 4079 O 411.052 0.291683 -1.91997 0
M  V30 4080 C 408.182 0.106839 -3.47136 0
M  V30 4081 C 407.136 -0.788269 -4.20678 0
M  V30 4082 C 406.462 0.0254927 -5.34694 0
M  V30 4083 C 407.762 -2.08784 -4.78755 0
M  V30 4084 H 409.456 -1.44651 -2.62138 0
M  V30 4085 H 407.002 -0.696975 -1.26009 0
M  V30 4086 H 408.955 0.415531 -4.19346 0
M  V30 4087 H 407.679 1.01424 -3.10452 0
M  V30 4088 H 406.338 -1.08069 -3.50309 0
M  V30 4089 H 405.986 0.933989 -4.94253 0
M  V30 4090 H 405.686 -0.570437 -5.84825 0
M  V30 4091 H 407.21 0.328147 -6.09718 0
M  V30 4092 H 408.624 -1.84272 -5.42878 0
M  V30 4093 H 407.021 -2.63307 -5.39249 0
M  V30 4094 H 408.091 -2.76284 -3.98491 0
M  V30 4095 N 409.434 1.37368 -0.772513 0
M  V30 4096 C 410.662 2.03942 -0.348588 0
M  V30 4097 C 411.077 1.58264 1.02947 0
M  V30 4098 O 410.434 0.764246 1.65727 0
M  V30 4099 C 410.485 3.5946 -0.38351 0
M  V30 4100 O 410.206 4.03468 -1.70721 0
M  V30 4101 C 411.707 4.4327 0.0519152 0
M  V30 4102 H 408.927 0.654931 -0.145966 0
M  V30 4103 H 411.471 1.75686 -1.04665 0
M  V30 4104 H 409.626 3.86486 0.265978 0
M  V30 4105 H 410.04 4.97991 -1.64636 0
M  V30 4106 H 411.514 5.51995 -0.0236733 0
M  V30 4107 H 411.991 4.2514 1.10238 0
M  V30 4108 H 412.597 4.21471 -0.569415 0
M  V30 4109 N 410.912 0.523116 1.48665 0
M  V30 4110 C 412.158 -0.00540031 2.03399 0
M  V30 4111 C 412.513 -1.3264 1.39372 0
M  V30 4112 O 411.806 -1.84184 0.527916 0
M  V30 4113 C 412 -0.191671 3.56886 0
M  V30 4114 C 411.829 1.10972 4.35793 0
M  V30 4115 C 410.599 1.66769 4.76987 0
M  V30 4116 C 412.797 2.01861 4.73029 0
M  V30 4117 N 410.779 2.91268 5.40404 0
M  V30 4118 C 412.15 3.10937 5.36394 0
M  V30 4119 C 414.205 2.02271 4.54962 0
M  V30 4120 C 412.908 4.20478 5.83601 0
M  V30 4121 C 414.934 3.10802 5.03146 0
M  V30 4122 C 414.296 4.18597 5.6653 0
M  V30 4123 H 410.395 0.0393531 0.781009 0
M  V30 4124 H 412.979 0.702876 1.8157 0
M  V30 4125 H 411.15 -0.869025 3.78553 0
M  V30 4126 H 412.882 -0.719177 3.98259 0
M  V30 4127 H 409.637 1.20996 4.57883 0
M  V30 4128 H 410.061 3.54635 5.76683 0
M  V30 4129 H 414.703 1.2023 4.05345 0
M  V30 4130 H 412.421 5.03303 6.32228 0
M  V30 4131 H 416.007 3.12166 4.90962 0
M  V30 4132 H 414.887 5.01193 6.03138 0
M  V30 4133 N 412.39 -1.55475 0.257931 0
M  V30 4134 C 413.353 -2.20551 -0.623706 0
M  V30 4135 C 414.353 -1.17809 -1.09443 0
M  V30 4136 O 415.543 -1.42823 -0.997362 0
M  V30 4137 C 412.675 -2.85784 -1.8585 0
M  V30 4138 H 413.868 -2.99848 -0.0557743 0
M  V30 4139 H 411.421 -1.56298 0.0084422 0
M  V30 4140 H 412.156 -2.10453 -2.46739 0
M  V30 4141 H 411.941 -3.61057 -1.52907 0
M  V30 4142 H 413.431 -3.35553 -2.48584 0
M  V30 4143 N 413.868 0.0150385 -1.57593 0
M  V30 4144 C 415.093 0.718067 -1.94573 0
M  V30 4145 C 415.518 1.6734 -0.859005 0
M  V30 4146 O 414.876 1.80362 0.184147 0
M  V30 4147 C 414.924 1.43918 -3.30636 0
M  V30 4148 O 414.028 2.55299 -3.23876 0
M  V30 4149 H 413.369 0.192125 -0.635597 0
M  V30 4150 H 415.899 -0.0336708 -2.04572 0
M  V30 4151 H 415.909 1.80598 -3.65853 0
M  V30 4152 H 414.584 0.738619 -4.09289 0
M  V30 4153 H 413.161 2.21058 -3.00312 0
M  V30 4154 N 415.346 1.54954 0.287554 0
M  V30 4155 C 416.762 1.46469 0.633964 0
M  V30 4156 C 416.962 0.666865 1.90145 0
M  V30 4157 O 416.018 0.179906 2.51858 0
M  V30 4158 C 417.331 2.90556 0.774454 0
M  V30 4159 C 418.879 3.00681 0.869462 0
M  V30 4160 C 419.354 4.45993 1.04184 0
M  V30 4161 N 420.845 4.4976 1.10772 0
M  V30 4162 C 421.58 5.59393 1.25964 0
M  V30 4163 N 421.076 6.78923 1.37968 0
M  V30 4164 N 422.869 5.47107 1.28959 0
M  V30 4165 H 415.02 2.05288 -0.545041 0
M  V30 4166 H 417.283 0.930305 -0.182308 0
M  V30 4167 H 416.989 3.51594 -0.086207 0
M  V30 4168 H 416.863 3.38743 1.6593 0
M  V30 4169 H 419.25 2.39749 1.7206 0
M  V30 4170 H 419.331 2.55769 -0.0396831 0
M  V30 4171 H 418.975 5.07524 0.195422 0
M  V30 4172 H 418.905 4.88548 1.96542 0
M  V30 4173 H 421.396 3.63651 1.02794 0
M  V30 4174 H 421.709 7.58231 1.49353 0
M  V30 4175 H 420.054 6.81763 1.34999 0
M  V30 4176 H 423.245 4.52668 1.19202 0
M  V30 4177 H 423.418 6.32595 1.40455 0
M  V30 4178 N 416.824 -0.551391 1.4764 0
M  V30 4179 C 417.756 -1.67333 1.56628 0
M  V30 4180 C 418.769 -1.56398 0.452045 0
M  V30 4181 O 419.958 -1.6325 0.721926 0
M  V30 4182 C 417.058 -3.05841 1.45994 0
M  V30 4183 C 416.231 -3.42472 2.72088 0
M  V30 4184 C 415.29 -4.60168 2.55209 0
M  V30 4185 O 414.316 -4.64458 3.2904 0
M  V30 4186 N 415.518 -5.57024 1.63416 0
M  V30 4187 H 418.283 -1.60066 2.53375 0
M  V30 4188 H 415.844 -0.738169 1.44093 0
M  V30 4189 H 417.836 -3.8242 1.32428 0
M  V30 4190 H 416.406 -3.07302 0.573071 0
M  V30 4191 H 415.626 -2.55284 3.00373 0
M  V30 4192 H 416.914 -3.63723 3.55785 0
M  V30 4193 H 416.312 -5.56319 1.02594 0
M  V30 4194 H 414.869 -6.32906 1.558 0
M  V30 4195 N 418.302 -1.35869 -0.798587 0
M  V30 4196 C 419.212 -1.31578 -1.94228 0
M  V30 4197 C 420.228 -0.21939 -1.72611 0
M  V30 4198 O 421.404 -0.450167 -1.96305 0
M  V30 4199 C 418.469 -1.09528 -3.28944 0
M  V30 4200 C 417.53 -2.28556 -3.63402 0
M  V30 4201 C 416.763 -2.07549 -4.9169 0
M  V30 4202 O 416.986 -1.046 -5.60727 0
M  V30 4203 O 415.92 -2.95106 -5.24591 0
M  V30 4204 H 419.746 -2.27847 -2.00796 0
M  V30 4205 H 417.331 -1.16322 -0.937526 0
M  V30 4206 H 419.213 -0.991127 -4.09579 0
M  V30 4207 H 417.888 -0.16315 -3.23289 0
M  V30 4208 H 416.795 -2.44538 -2.83112 0
M  V30 4209 H 418.128 -3.20244 -3.73771 0
M  V30 4210 N 419.78 1.02168 -1.19998 0
M  V30 4211 C 421.191 1.57135 -1.00825 0
M  V30 4212 C 421.542 1.91276 0.436818 0
M  V30 4213 O 420.667 1.71679 1.3174 0
M  V30 4214 C 421.262 2.85514 -1.82393 0
M  V30 4215 C 419.821 3.37027 -1.67601 0
M  V30 4216 C 418.968 2.10388 -1.80644 0
M  V30 4217 H 421.919 0.846106 -1.34264 0
M  V30 4218 H 421.94 3.56711 -1.32429 0
M  V30 4219 H 421.452 2.60634 -2.87561 0
M  V30 4220 H 419.553 3.66878 -0.650485 0
M  V30 4221 H 419.666 4.09572 -2.4857 0
M  V30 4222 H 418.03 2.22601 -1.23778 0
M  V30 4223 H 418.813 1.8794 -2.87286 0
M  V30 4224 N 421.258 1.00505 1.21394 0
M  V30 4225 C 422.483 0.706367 1.95001 0
M  V30 4226 C 422.908 -0.72463 1.73582 0
M  V30 4227 O 422.266 -1.49702 1.0227 0
M  V30 4228 C 422.314 1.03299 3.45487 0
M  V30 4229 O 421.418 0.138275 4.12168 0
M  V30 4230 H 420.759 0.263175 0.609619 0
M  V30 4231 H 423.289 1.34531 1.54151 0
M  V30 4232 H 423.299 0.979872 3.96059 0
M  V30 4233 H 421.974 2.07567 3.60401 0
M  V30 4234 H 420.551 0.247928 3.72075 0
M  V30 4235 N 422.737 -1.36956 0.779787 0
M  V30 4236 C 423.669 -2.28833 0.129639 0
M  V30 4237 C 424.682 -1.4902 -0.655511 0
M  V30 4238 O 425.871 -1.71578 -0.492279 0
M  V30 4239 C 422.971 -3.2833 -0.839792 0
M  V30 4240 C 422.144 -4.3727 -0.10675 0
M  V30 4241 C 421.203 -5.16789 -0.990717 0
M  V30 4242 O 420.229 -5.67406 -0.451516 0
M  V30 4243 N 421.431 -5.32294 -2.3161 0
M  V30 4244 H 424.196 -2.85268 0.918803 0
M  V30 4245 H 421.757 -1.49019 0.632841 0
M  V30 4246 H 423.749 -3.78413 -1.43477 0
M  V30 4247 H 422.319 -2.72605 -1.52988 0
M  V30 4248 H 421.539 -3.88478 0.669216 0
M  V30 4249 H 422.827 -5.07229 0.399464 0
M  V30 4250 H 422.225 -4.92768 -2.77843 0
M  V30 4251 H 420.782 -5.85656 -2.86095 0
M  V30 4252 N 424.215 -0.530993 -1.48385 0
M  V30 4253 C 425.463 0.00273189 -2.021 0
M  V30 4254 C 425.784 1.34672 -1.41027 0
M  V30 4255 O 425.054 1.8724 -0.576012 0
M  V30 4256 H 423.634 0.00399774 -0.746989 0
M  V30 4257 H 426.296 -0.695054 -1.82085 0
M  V30 4258 H 425.392 0.11031 -3.11905 0
M  V30 4259 N 425.693 1.55336 -0.266172 0
M  V30 4260 C 426.921 2.03801 0.356756 0
M  V30 4261 C 427.336 1.14485 1.50129 0
M  V30 4262 O 426.693 0.163121 1.8177 0
M  V30 4263 C 426.744 3.51455 0.846281 0
M  V30 4264 O 426.465 4.37371 -0.252663 0
M  V30 4265 C 427.966 4.15767 1.53794 0
M  V30 4266 H 425.186 0.665906 0.0825218 0
M  V30 4267 H 427.73 2.00636 -0.39566 0
M  V30 4268 H 425.885 3.55092 1.54881 0
M  V30 4269 H 426.299 5.24358 0.122173 0
M  V30 4270 H 427.773 5.20714 1.83198 0
M  V30 4271 H 428.25 3.63404 2.46646 0
M  V30 4272 H 428.856 4.16107 0.879488 0
M  V30 4273 N 427.171 -0.0066808 1.57599 0
M  V30 4274 C 428.399 -0.704087 1.94551 0
M  V30 4275 C 428.814 -1.67677 0.867746 0
M  V30 4276 O 428.171 -1.8185 -0.153925 0
M  V30 4277 C 428.222 -1.44177 3.31505 0
M  V30 4278 O 427.943 -0.508097 4.35144 0
M  V30 4279 C 429.444 -2.23429 3.82876 0
M  V30 4280 H 426.664 -0.196523 0.641576 0
M  V30 4281 H 429.208 0.042453 2.04456 0
M  V30 4282 H 427.363 -2.13999 3.22929 0
M  V30 4283 H 427.777 -1.02782 5.14331 0
M  V30 4284 H 429.251 -2.70552 4.8115 0
M  V30 4285 H 429.728 -3.05818 3.15233 0
M  V30 4286 H 430.334 -1.58636 3.94607 0
M  V30 4287 N 428.649 -1.55105 -0.279332 0
M  V30 4288 C 429.877 -1.7943 -1.03017 0
M  V30 4289 C 430.292 -0.564456 -1.80165 0
M  V30 4290 O 429.649 0.466326 -1.76442 0
M  V30 4291 C 429.7 -3.0155 -1.99374 0
M  V30 4292 O 429.421 -4.19784 -1.25352 0
M  V30 4293 C 430.922 -3.3843 -2.86321 0
M  V30 4294 H 428.142 -0.597882 -0.304594 0
M  V30 4295 H 430.686 -2.02105 -0.312035 0
M  V30 4296 H 428.841 -2.81019 -2.66659 0
M  V30 4297 H 429.255 -4.88781 -1.90246 0
M  V30 4298 H 430.729 -4.27066 -3.49741 0
M  V30 4299 H 431.206 -2.57549 -3.5576 0
M  V30 4300 H 431.812 -3.61197 -2.24536 0
M  V30 4301 N 430.127 0.543554 -1.4793 0
M  V30 4302 C 431.374 1.30008 -1.55255 0
M  V30 4303 C 431.702 1.93245 -0.220612 0
M  V30 4304 O 430.957 1.79141 0.787843 0
M  V30 4305 C 431.256 2.42078 -2.62932 0
M  V30 4306 C 430.922 1.96583 -4.0579 0
M  V30 4307 C 429.584 1.83893 -4.44676 0
M  V30 4308 C 431.936 1.62034 -4.95373 0
M  V30 4309 C 429.264 1.34969 -5.70964 0
M  V30 4310 C 431.616 1.14577 -6.22137 0
M  V30 4311 C 430.28 1.00493 -6.59892 0
M  V30 4312 H 429.55 0.475735 -0.568117 0
M  V30 4313 H 432.197 0.608075 -1.81589 0
M  V30 4314 H 430.502 3.16892 -2.30406 0
M  V30 4315 H 432.199 3.00236 -2.65818 0
M  V30 4316 H 428.789 2.07407 -3.75074 0
M  V30 4317 H 432.973 1.70705 -4.66019 0
M  V30 4318 H 428.229 1.2274 -5.98953 0
M  V30 4319 H 432.403 0.869109 -6.90955 0
M  V30 4320 H 430.03 0.623624 -7.57638 0
M  V30 4321 N 431.605 1.3629 0.791371 0
M  V30 4322 C 432.568 1.30309 1.88553 0
M  V30 4323 C 433.568 0.211204 1.59407 0
M  V30 4324 O 434.758 0.465865 1.67855 0
M  V30 4325 C 431.89 1.01956 3.25297 0
M  V30 4326 H 433.083 2.27614 1.95273 0
M  V30 4327 H 430.636 1.21035 0.988953 0
M  V30 4328 H 431.371 0.050998 3.2426 0
M  V30 4329 H 431.156 1.80968 3.4784 0
M  V30 4330 H 432.646 1.0037 4.05359 0
M  V30 4331 N 433.083 -1.0153 1.20538 0
M  V30 4332 C 434.329 -1.75408 1.01783 0
M  V30 4333 C 434.662 -1.88943 -0.448814 0
M  V30 4334 O 433.937 -1.4162 -1.33319 0
M  V30 4335 C 434.22 -3.17255 1.70356 0
M  V30 4336 C 434.073 -3.11508 3.24473 0
M  V30 4337 C 435.392 -4.15955 1.43769 0
M  V30 4338 H 432.511 -0.636713 0.371167 0
M  V30 4339 H 435.153 -1.18436 1.4857 0
M  V30 4340 H 433.303 -3.65898 1.30578 0
M  V30 4341 H 434.975 -2.70658 3.73553 0
M  V30 4342 H 433.218 -2.4887 3.55311 0
M  V30 4343 H 433.889 -4.11784 3.67611 0
M  V30 4344 H 436.365 -3.75973 1.7828 0
M  V30 4345 H 435.241 -5.13368 1.94279 0
M  V30 4346 H 435.502 -4.40586 0.365564 0
M  V30 4347 N 434.561 -1.01147 -1.20859 0
M  V30 4348 C 435.789 -0.716911 -1.94082 0
M  V30 4349 C 436.204 0.721568 -1.74467 0
M  V30 4350 O 435.561 1.48889 -1.05539 0
M  V30 4351 C 435.612 -1.03662 -3.46318 0
M  V30 4352 O 435.333 -2.4186 -3.65288 0
M  V30 4353 C 436.834 -0.762386 -4.36695 0
M  V30 4354 H 434.054 -0.26367 -0.617024 0
M  V30 4355 H 436.598 -1.35127 -1.53496 0
M  V30 4356 H 434.753 -0.447757 -3.84804 0
M  V30 4357 H 435.167 -2.53224 -4.59323 0
M  V30 4358 H 436.641 -1.03621 -5.42187 0
M  V30 4359 H 437.118 0.303514 -4.3815 0
M  V30 4360 H 437.724 -1.33316 -4.03865 0
M  V30 4361 N 436.039 1.36541 -0.78704 0
M  V30 4362 C 437.264 2.0409 -0.369053 0
M  V30 4363 C 437.689 1.58957 1.00569 0
M  V30 4364 O 437.047 0.756926 1.64743 0
M  V30 4365 C 437.095 3.57924 -0.438466 0
M  V30 4366 O 436.199 4.08642 0.555479 0
M  V30 4367 H 435.54 0.645142 -0.157122 0
M  V30 4368 H 438.07 1.74545 -1.06749 0
M  V30 4369 H 438.08 4.06887 -0.301218 0
M  V30 4370 H 436.755 3.90127 -1.44132 0
M  V30 4371 H 435.332 3.70958 0.380088 0
M  V30 4372 N 437.518 0.538854 1.48102 0
M  V30 4373 C 438.767 0.0059532 2.01699 0
M  V30 4374 C 439.08 -1.34476 1.42041 0
M  V30 4375 O 440.286 -1.96653 1.87189 0
M  V30 4376 C 438.742 -0.0397627 3.59878 0
M  V30 4377 C 438.35 1.30659 4.28523 0
M  V30 4378 C 440.094 -0.521024 4.2129 0
M  V30 4379 C 438.001 1.22098 5.78659 0
M  V30 4380 H 436.931 -0.00154456 0.753998 0
M  V30 4381 H 439.582 0.683963 1.70277 0
M  V30 4382 H 437.964 -0.783037 3.88181 0
M  V30 4383 H 439.138 2.06613 4.11883 0
M  V30 4384 H 437.453 1.7243 3.79021 0
M  V30 4385 H 440.05 -0.603184 5.31287 0
M  V30 4386 H 440.393 -1.52885 3.8721 0
M  V30 4387 H 440.926 0.166834 3.9745 0
M  V30 4388 H 437.665 2.20424 6.17328 0
M  V30 4389 H 437.185 0.50295 5.97688 0
M  V30 4390 H 438.864 0.915345 6.40492 0
M  V30 4391 N 438.996 -1.55193 0.274407 0
M  V30 4392 C 439.926 -2.25471 -0.607032 0
M  V30 4393 C 440.907 -1.24461 -1.15946 0
M  V30 4394 O 442.092 -1.53179 -1.19373 0
M  V30 4395 C 439.222 -2.97526 -1.79153 0
M  V30 4396 C 438.176 -4.05459 -1.37067 0
M  V30 4397 C 437.502 -4.65084 -2.6382 0
M  V30 4398 C 438.802 -5.19691 -0.521389 0
M  V30 4399 H 440.496 -2.99393 -0.0209343 0
M  V30 4400 H 438.042 -1.43997 -0.00862866 0
M  V30 4401 H 439.995 -3.45402 -2.41404 0
M  V30 4402 H 438.719 -2.21138 -2.40344 0
M  V30 4403 H 437.378 -3.58393 -0.771355 0
M  V30 4404 H 437.026 -3.85365 -3.23268 0
M  V30 4405 H 436.726 -5.37961 -2.36372 0
M  V30 4406 H 438.25 -5.15708 -3.26921 0
M  V30 4407 H 439.664 -5.63623 -1.04889 0
M  V30 4408 H 438.061 -5.99126 -0.341825 0
M  V30 4409 H 439.131 -4.82713 0.46 0
M  V30 4410 N 440.474 -0.00167713 -1.576 0
M  V30 4411 C 441.89 0.354422 -1.55615 0
M  V30 4412 C 442.09 1.74679 -1.00447 0
M  V30 4413 O 441.146 2.4428 -0.639022 0
M  V30 4414 C 442.459 0.22812 -2.99833 0
M  V30 4415 C 444.007 0.302934 -3.11531 0
M  V30 4416 C 444.482 0.205737 -4.57538 0
M  V30 4417 N 445.973 0.263584 -4.62449 0
M  V30 4418 C 446.708 0.211742 -5.73009 0
M  V30 4419 N 446.204 0.110399 -6.92712 0
M  V30 4420 N 447.997 0.263729 -5.61481 0
M  V30 4421 H 440.148 -0.912498 -1.918 0
M  V30 4422 H 442.411 -0.349928 -0.881053 0
M  V30 4423 H 442.117 -0.729934 -3.44042 0
M  V30 4424 H 441.991 1.00951 -3.6344 0
M  V30 4425 H 444.378 1.25143 -2.67251 0
M  V30 4426 H 444.459 -0.508357 -2.50698 0
M  V30 4427 H 444.103 -0.739225 -5.02492 0
M  V30 4428 H 444.033 1.03554 -5.16318 0
M  V30 4429 H 446.524 0.343173 -3.76339 0
M  V30 4430 H 446.837 0.0767828 -7.72762 0
M  V30 4431 H 445.182 0.0760025 -6.94958 0
M  V30 4432 H 448.373 0.34111 -4.66855 0
M  V30 4433 H 448.546 0.219862 -6.47627 0
M  V30 4434 N 441.952 1.55251 0.271103 0
M  V30 4435 C 443.198 1.76207 1.00394 0
M  V30 4436 C 443.531 0.562604 1.85872 0
M  V30 4437 O 442.806 -0.439785 1.89463 0
M  V30 4438 C 443.089 3.06828 1.8849 0
M  V30 4439 C 442.942 4.37134 1.05992 0
M  V30 4440 C 444.261 3.33503 2.87165 0
M  V30 4441 H 441.38 0.641086 0.363562 0
M  V30 4442 H 444.022 1.87982 0.276189 0
M  V30 4443 H 442.172 2.96921 2.5054 0
M  V30 4444 H 443.844 4.59001 0.459978 0
M  V30 4445 H 442.087 4.32275 0.363443 0
M  V30 4446 H 442.758 5.2486 1.70955 0
M  V30 4447 H 445.234 3.43215 2.3525 0
M  V30 4448 H 444.11 4.2616 3.45946 0
M  V30 4449 H 444.371 2.53235 3.62387 0
M  V30 4450 N 443.43 -0.535701 1.48216 0
M  V30 4451 C 444.393 -1.623 1.61838 0
M  V30 4452 C 445.393 -1.53087 0.492024 0
M  V30 4453 O 446.583 -1.5686 0.757668 0
M  V30 4454 C 443.715 -3.01907 1.58319 0
M  V30 4455 H 444.908 -1.51564 2.58783 0
M  V30 4456 H 442.461 -0.757317 1.36727 0
M  V30 4457 H 443.196 -3.18155 0.628299 0
M  V30 4458 H 442.981 -3.10003 2.40085 0
M  V30 4459 H 444.471 -3.80969 1.71033 0
M  V30 4460 N 444.908 -1.36708 -0.784132 0
M  V30 4461 C 445.871 -1.31307 -1.87859 0
M  V30 4462 C 446.871 -0.219654 -1.59293 0
M  V30 4463 O 448.061 -0.47476 -1.67606 0
M  V30 4464 C 445.193 -1.03679 -3.24751 0
M  V30 4465 H 446.386 -2.28647 -1.94064 0
M  V30 4466 H 443.939 -1.21558 -0.98252 0
M  V30 4467 H 444.674 -0.0681936 -3.24228 0
M  V30 4468 H 444.459 -1.82811 -3.46876 0
M  V30 4469 H 445.949 -1.02518 -4.04821 0
M  V30 4470 N 446.386 1.0089 -1.21074 0
M  V30 4471 C 447.296 2.13039 -0.982425 0
M  V30 4472 C 448.312 1.73881 0.0642161 0
M  V30 4473 O 449.488 2.01012 -0.12496 0
M  V30 4474 C 446.553 3.42377 -0.545803 0
M  V30 4475 C 445.614 3.95731 -1.6642 0
M  V30 4476 C 444.847 5.18896 -1.24832 0
M  V30 4477 O 445.07 5.70273 -0.120265 0
M  V30 4478 O 444.004 5.65597 -2.05873 0
M  V30 4479 H 447.83 2.35175 -1.92163 0
M  V30 4480 H 445.415 1.1142 -0.995285 0
M  V30 4481 H 447.297 4.20244 -0.311912 0
M  V30 4482 H 445.972 3.21639 0.364727 0
M  V30 4483 H 444.879 3.19108 -1.95246 0
M  V30 4484 H 446.212 4.20872 -2.55201 0
M  V30 4485 N 447.864 1.01787 1.20321 0
M  V30 4486 C 449.141 0.622978 1.85414 0
M  V30 4487 C 449.521 -0.898887 1.91006 0
M  V30 4488 O 448.869 -1.79112 1.41884 0
M  V30 4489 C 449.079 1.27226 3.24984 0
M  V30 4490 C 450.427 1.3885 4.01255 0
M  V30 4491 O 451.451 1.22857 3.34342 0
M  V30 4492 O 450.31 1.64705 5.2109 0
M  V30 4493 H 447.404 0.215116 0.798533 0
M  V30 4494 H 449.95 1.11533 1.27901 0
M  V30 4495 H 448.722 2.31209 3.15687 0
M  V30 4496 H 448.345 0.767069 3.90131 0
M  V30 4497 N 449.342 -1.36122 0.79427 0
M  V30 4498 C 450.588 -1.99846 0.378542 0
M  V30 4499 C 450.943 -1.61898 -1.03955 0
M  V30 4500 O 450.236 -0.866013 -1.70912 0
M  V30 4501 C 450.43 -3.5409 0.48527 0
M  V30 4502 C 450.259 -4.0702 1.91219 0
M  V30 4503 C 449.029 -4.36944 2.53787 0
M  V30 4504 C 451.227 -4.26435 2.87502 0
M  V30 4505 N 449.209 -4.75727 3.88017 0
M  V30 4506 C 450.58 -4.68077 4.06576 0
M  V30 4507 C 452.635 -4.08616 2.84495 0
M  V30 4508 C 451.338 -4.93765 5.23057 0
M  V30 4509 C 453.364 -4.35453 4.00169 0
M  V30 4510 C 452.726 -4.77355 5.17988 0
M  V30 4511 H 448.825 -0.759549 0.186034 0
M  V30 4512 H 451.409 -1.65043 1.0329 0
M  V30 4513 H 449.58 -3.88151 -0.139023 0
M  V30 4514 H 451.312 -4.04675 0.0453192 0
M  V30 4515 H 448.067 -4.26822 2.05231 0
M  V30 4516 H 448.491 -4.99396 4.57092 0
M  V30 4517 H 453.133 -3.75373 1.94564 0
M  V30 4518 H 450.851 -5.25887 6.1357 0
M  V30 4519 H 454.437 -4.2323 3.99208 0
M  V30 4520 H 453.317 -4.97718 6.06008 0
M  V30 4521 N 450.82 -0.546701 -1.47814 0
M  V30 4522 C 451.767 0.206854 -2.29871 0
M  V30 4523 C 452.737 0.918235 -1.38411 0
M  V30 4524 O 453.922 0.915991 -1.67375 0
M  V30 4525 C 451.062 1.23746 -3.22151 0
M  V30 4526 C 450.175 0.533216 -4.28697 0
M  V30 4527 C 449.31 1.5482 -5.08138 0
M  V30 4528 C 448.349 0.828347 -6.06469 0
M  V30 4529 N 447.486 1.78966 -6.78908 0
M  V30 4530 H 452.326 -0.499037 -2.93792 0
M  V30 4531 H 449.863 -0.25793 -1.44821 0
M  V30 4532 H 451.821 1.84746 -3.74065 0
M  V30 4533 H 450.451 1.91151 -2.60117 0
M  V30 4534 H 449.503 -0.191089 -3.7992 0
M  V30 4535 H 450.815 -0.0311987 -4.9879 0
M  V30 4536 H 449.969 2.23202 -5.6415 0
M  V30 4537 H 448.708 2.14652 -4.37922 0
M  V30 4538 H 447.713 0.130539 -5.49645 0
M  V30 4539 H 448.938 0.235907 -6.7869 0
M  V30 4540 H 446.884 2.37675 -6.1143 0
M  V30 4541 H 446.801 1.27712 -7.45135 0
M  V30 4542 H 448.069 2.46496 -7.395 0
M  V30 4543 N 452.299 1.55045 -0.282633 0
M  V30 4544 C 453.246 2.22822 0.601566 0
M  V30 4545 C 454.216 1.20431 1.14392 0
M  V30 4546 O 455.401 1.48996 1.19184 0
M  V30 4547 C 452.541 2.95873 1.77632 0
M  V30 4548 C 451.654 4.12999 1.26711 0
M  V30 4549 C 450.789 4.73676 2.40426 0
M  V30 4550 C 449.828 5.82981 1.86545 0
M  V30 4551 N 448.965 6.3769 2.93762 0
M  V30 4552 H 453.805 2.97995 0.0169528 0
M  V30 4553 H 451.342 1.471 -0.00339964 0
M  V30 4554 H 453.3 3.36447 2.46697 0
M  V30 4555 H 451.93 2.2311 2.33285 0
M  V30 4556 H 450.982 3.77494 0.469314 0
M  V30 4557 H 452.294 4.91803 0.832518 0
M  V30 4558 H 451.448 5.17008 3.17471 0
M  V30 4559 H 450.187 3.94164 2.87203 0
M  V30 4560 H 449.192 5.39092 1.07983 0
M  V30 4561 H 450.417 6.64366 1.40694 0
M  V30 4562 H 448.363 5.61069 3.39908 0
M  V30 4563 H 448.28 7.11788 2.54744 0
M  V30 4564 H 449.548 6.8568 3.7076 0
M  V30 4565 N 453.777 0.010035 1.57597 0
M  V30 4566 C 455.025 -0.671371 1.90623 0
M  V30 4567 C 455.346 -1.73753 0.885151 0
M  V30 4568 O 454.616 -1.95752 -0.0760611 0
M  V30 4569 H 453.196 -0.250968 0.703579 0
M  V30 4570 H 455.858 0.0533325 1.94827 0
M  V30 4571 H 454.954 -1.13626 2.90681 0
M  V30 4572 N 455.255 -1.55392 -0.262866 0
M  V30 4573 C 456.532 -1.67204 -1.01499 0
M  V30 4574 C 456.912 -0.545186 -2.03939 0
M  V30 4575 O 456.26 0.453467 -2.23955 0
M  V30 4576 C 456.47 -3.06847 -1.6627 0
M  V30 4577 C 457.818 -3.64928 -2.17054 0
M  V30 4578 O 458.842 -3.09545 -1.76239 0
M  V30 4579 O 457.701 -4.61984 -2.91947 0
M  V30 4580 H 454.795 -0.679467 -0.471438 0
M  V30 4581 H 457.341 -1.67729 -0.257918 0
M  V30 4582 H 456.113 -3.80309 -0.920915 0
M  V30 4583 H 455.736 -3.10266 -2.48638 0
M  V30 4584 N 456.733 0.527833 -1.48498 0
M  V30 4585 C 457.961 1.30823 -1.6029 0
M  V30 4586 C 458.376 1.86945 -0.263974 0
M  V30 4587 O 457.733 1.6651 0.747034 0
M  V30 4588 C 457.784 2.45756 -2.65116 0
M  V30 4589 O 457.505 1.91946 -3.93813 0
M  V30 4590 C 459.006 3.37543 -2.87367 0
M  V30 4591 H 456.226 0.397763 -0.540394 0
M  V30 4592 H 458.77 0.636529 -1.94341 0
M  V30 4593 H 456.925 3.08806 -2.33917 0
M  V30 4594 H 457.339 2.67195 -4.51339 0
M  V30 4595 H 458.813 4.14532 -3.6451 0
M  V30 4596 H 459.29 3.92905 -1.9627 0
M  V30 4597 H 459.896 2.80283 -3.19878 0
M  V30 4598 N 458.211 1.37122 0.776871 0
M  V30 4599 C 459.458 1.32047 1.53524 0
M  V30 4600 C 459.786 -0.0965631 1.9426 0
M  V30 4601 O 459.041 -1.06866 1.63945 0
M  V30 4602 C 459.34 2.20068 2.81611 0
M  V30 4603 C 459.006 3.68423 2.59953 0
M  V30 4604 C 457.668 4.08854 2.53755 0
M  V30 4605 C 460.02 4.62431 2.40431 0
M  V30 4606 C 457.348 5.41417 2.26018 0
M  V30 4607 C 459.7 5.95225 2.14219 0
M  V30 4608 C 458.364 6.34767 2.06462 0
M  V30 4609 H 457.634 0.483196 0.561785 0
M  V30 4610 H 460.281 1.69284 0.895268 0
M  V30 4611 H 458.586 1.75809 3.50141 0
M  V30 4612 H 460.283 2.13458 3.39465 0
M  V30 4613 H 456.873 3.36354 2.65638 0
M  V30 4614 H 461.057 4.32057 2.44213 0
M  V30 4615 H 456.313 5.71022 2.18504 0
M  V30 4616 H 460.487 6.67626 1.98112 0
M  V30 4617 H 458.114 7.37413 1.84733 0
M  V30 4618 N 459.689 -1.00246 1.21608 0
M  V30 4619 C 460.914 -1.78167 1.06167 0
M  V30 4620 C 461.339 -1.84138 -0.384035 0
M  V30 4621 O 460.697 -1.28683 -1.27712 0
M  V30 4622 C 460.745 -3.19786 1.66642 0
M  V30 4623 O 459.849 -4.02153 0.913613 0
M  V30 4624 H 459.19 -0.549 0.37349 0
M  V30 4625 H 461.72 -1.25994 1.61204 0
M  V30 4626 H 461.73 -3.70451 1.70969 0
M  V30 4627 H 460.405 -3.14754 2.7185 0
M  V30 4628 H 458.982 -3.60711 0.945635 0
M  V30 4629 N 461.167 -1.02423 -1.1978 0
M  V30 4630 C 462.407 -0.726635 -1.91048 0
M  V30 4631 C 462.771 0.730947 -1.77542 0
M  V30 4632 O 463.972 1.14141 -2.43362 0
M  V30 4633 C 462.243 -1.15964 -3.38064 0
M  V30 4634 S 463.802 -0.985172 -4.27598 0
M  V30 4635 H 460.62 -0.264679 -0.659899 0
M  V30 4636 H 463.222 -1.31309 -1.44838 0
M  V30 4637 H 461.926 -2.21619 -3.45417 0
M  V30 4638 H 461.457 -0.566274 -3.89303 0
M  V30 4639 H 463.472 0.106946 -4.96085 0
M  V30 4640 N 462.645 1.35699 -0.801477 0
M  V30 4641 C 463.578 2.2768 -0.153922 0
M  V30 4642 C 464.556 1.47832 0.67709 0
M  V30 4643 O 465.74 1.77104 0.645474 0
M  V30 4644 C 462.867 3.2943 0.786986 0
M  V30 4645 C 461.913 4.26485 0.0362447 0
M  V30 4646 S 462.746 5.19573 -1.2963 0
M  V30 4647 C 463.902 6.24866 -0.359705 0
M  V30 4648 H 464.135 2.82254 -0.9338 0
M  V30 4649 H 461.668 1.42421 -0.596283 0
M  V30 4650 H 463.626 3.8855 1.32436 0
M  V30 4651 H 462.287 2.73745 1.54021 0
M  V30 4652 H 461.48 4.98378 0.750668 0
M  V30 4653 H 461.082 3.71508 -0.431017 0
M  V30 4654 H 463.374 6.75957 0.456954 0
M  V30 4655 H 464.317 7.00307 -1.04768 0
M  V30 4656 H 464.725 5.64484 0.0423274 0
M  V30 4657 N 464.123 0.554532 1.47522 0
M  V30 4658 C 465.369 0.0295227 2.02779 0
M  V30 4659 C 465.702 -1.31582 1.42828 0
M  V30 4660 O 464.977 -1.85561 0.582872 0
M  V30 4661 C 465.26 -0.0664057 3.60039 0
M  V30 4662 C 465.113 1.30585 4.30427 0
M  V30 4663 C 466.432 -0.781162 4.33112 0
M  V30 4664 H 463.551 0.0122027 0.736899 0
M  V30 4665 H 466.193 0.716305 1.7598 0
M  V30 4666 H 464.343 -0.651307 3.83002 0
M  V30 4667 H 466.015 1.93374 4.18813 0
M  V30 4668 H 464.258 1.88125 3.90886 0
M  V30 4669 H 464.929 1.19147 5.38988 0
M  V30 4670 H 467.405 -0.284565 4.15126 0
M  V30 4671 H 466.281 -0.817237 5.42782 0
M  V30 4672 H 466.542 -1.83672 4.0214 0
M  V30 4673 N 465.601 -1.54893 0.290851 0
M  V30 4674 C 466.849 -1.99538 -0.320756 0
M  V30 4675 C 467.17 -1.18075 -1.55188 0
M  V30 4676 O 466.44 -0.274162 -1.93972 0
M  V30 4677 H 465.02 -0.737052 -0.121507 0
M  V30 4678 H 467.682 -1.90755 0.399832 0
M  V30 4679 H 466.778 -3.06282 -0.599802 0
M  V30 4680 N 467.08 -0.0183926 -1.57589 0
M  V30 4681 C 468.03 0.975944 -2.06057 0
M  V30 4682 C 469.014 1.29204 -0.958908 0
M  V30 4683 O 470.206 1.27995 -1.22255 0
M  V30 4684 C 467.335 2.26194 -2.58247 0
M  V30 4685 C 466.421 1.97467 -3.75323 0
M  V30 4686 N 466.812 1.38968 -4.86335 0
M  V30 4687 C 465.11 2.27515 -3.83605 0
M  V30 4688 C 465.811 1.27131 -5.67638 0
M  V30 4689 N 464.787 1.76319 -5.14211 0
M  V30 4690 H 468.589 0.518444 -2.89291 0
M  V30 4691 H 466.103 0.18688 -1.61321 0
M  V30 4692 H 468.1 2.98289 -2.91255 0
M  V30 4693 H 466.76 2.7258 -1.76438 0
M  V30 4694 H 467.771 1.06608 -5.06809 0
M  V30 4695 H 464.448 2.76649 -3.12684 0
M  V30 4696 H 465.838 0.819882 -6.66879 0
M  V30 4697 N 468.558 1.5553 0.254621 0
M  V30 4698 C 469.468 1.92789 1.33677 0
M  V30 4699 C 470.484 0.827356 1.53071 0
M  V30 4700 O 471.66 1.12807 1.66843 0
M  V30 4701 C 468.725 2.20827 2.67275 0
M  V30 4702 C 467.786 3.4427 2.5647 0
M  V30 4703 C 467.019 3.70961 3.83697 0
M  V30 4704 O 467.242 2.99852 4.85227 0
M  V30 4705 O 466.176 4.64491 3.82794 0
M  V30 4706 H 470.002 2.84945 1.05071 0
M  V30 4707 H 467.587 1.42312 0.454723 0
M  V30 4708 H 469.469 2.40204 3.46237 0
M  V30 4709 H 468.144 1.31851 2.9563 0
M  V30 4710 H 467.051 3.30209 1.75821 0
M  V30 4711 H 468.384 4.33524 2.33062 0
M  V30 4712 N 470.036 -0.519951 1.48776 0
M  V30 4713 C 470.999 -1.60574 1.6355 0
M  V30 4714 C 471.999 -1.52557 0.508234 0
M  V30 4715 O 473.189 -1.56047 0.774262 0
M  V30 4716 C 470.321 -3.00211 1.61512 0
M  V30 4717 H 471.514 -1.4881 2.60376 0
M  V30 4718 H 469.067 -0.742772 1.37523 0
M  V30 4719 H 469.802 -3.17471 0.662009 0
M  V30 4720 H 469.587 -3.07439 2.43359 0
M  V30 4721 H 471.077 -3.79134 1.75064 0
M  V30 4722 N 471.514 -1.37532 -0.769588 0
M  V30 4723 C 472.444 -1.36172 -1.89682 0
M  V30 4724 C 473.425 -0.23001 -1.68538 0
M  V30 4725 O 474.61 -0.43069 -1.89364 0
M  V30 4726 C 471.74 -1.1701 -3.26995 0
M  V30 4727 C 470.694 -2.27216 -3.62708 0
M  V30 4728 C 470.02 -1.93174 -4.98586 0
M  V30 4729 C 471.32 -3.6941 -3.69234 0
M  V30 4730 H 473.014 -2.30499 -1.91078 0
M  V30 4731 H 470.56 -1.10953 -0.917902 0
M  V30 4732 H 472.513 -1.14688 -4.05493 0
M  V30 4733 H 471.237 -0.191395 -3.26039 0
M  V30 4734 H 469.896 -2.28697 -2.86519 0
M  V30 4735 H 469.544 -0.938281 -4.94171 0
M  V30 4736 H 469.244 -2.66973 -5.23449 0
M  V30 4737 H 470.768 -1.92443 -5.79481 0
M  V30 4738 H 472.182 -3.70047 -4.37879 0
M  V30 4739 H 470.579 -4.4228 -4.05597 0
M  V30 4740 H 471.649 -4.0288 -2.69844 0
M  V30 4741 N 472.992 0.995999 -1.22138 0
M  V30 4742 C 474.403 1.54961 -1.04135 0
M  V30 4743 C 474.754 1.92159 0.396147 0
M  V30 4744 O 473.879 1.74435 1.28069 0
M  V30 4745 C 474.474 2.81581 -1.88408 0
M  V30 4746 C 473.033 3.33396 -1.74712 0
M  V30 4747 C 472.18 2.06509 -1.85066 0
M  V30 4748 H 475.131 0.817436 -1.36028 0
M  V30 4749 H 475.152 3.53822 -1.39966 0
M  V30 4750 H 474.664 2.54476 -2.93025 0
M  V30 4751 H 472.765 3.65416 -0.728159 0
M  V30 4752 H 472.878 4.04208 -2.57202 0
M  V30 4753 H 471.242 2.19925 -1.28472 0
M  V30 4754 H 472.025 1.81804 -2.91208 0
M  V30 4755 N 474.47 1.03057 1.19235 0
M  V30 4756 C 475.4 0.633497 2.24742 0
M  V30 4757 C 476.381 -0.358335 1.66283 0
M  V30 4758 O 477.566 -0.240676 1.92703 0
M  V30 4759 C 474.696 -0.0147648 3.47297 0
M  V30 4760 C 473.65 0.899527 4.18441 0
M  V30 4761 C 472.976 0.116281 5.34574 0
M  V30 4762 C 474.276 2.21404 4.73051 0
M  V30 4763 H 475.97 1.5155 2.58211 0
M  V30 4764 H 473.516 0.73014 1.24117 0
M  V30 4765 H 475.469 -0.304202 4.20301 0
M  V30 4766 H 474.193 -0.931577 3.13032 0
M  V30 4767 H 472.852 1.17319 3.47321 0
M  V30 4768 H 472.5 -0.802619 4.96555 0
M  V30 4769 H 472.2 0.725293 5.83107 0
M  V30 4770 H 473.724 -0.166376 6.10373 0
M  V30 4771 H 475.138 1.98601 5.37802 0
M  V30 4772 H 473.535 2.77512 5.32078 0
M  V30 4773 H 474.605 2.86752 3.91026 0
M  V30 4774 N 475.948 -1.35272 0.808662 0
M  V30 4775 C 476.911 -2.28082 0.226093 0
M  V30 4776 C 477.911 -1.49673 -0.587762 0
M  V30 4777 O 479.101 -1.69404 -0.405943 0
M  V30 4778 C 476.233 -3.33955 -0.684596 0
M  V30 4779 H 477.426 -2.81116 1.04469 0
M  V30 4780 H 474.979 -1.45162 0.579466 0
M  V30 4781 H 475.714 -2.86111 -1.5268 0
M  V30 4782 H 475.499 -3.91965 -0.102699 0
M  V30 4783 H 476.989 -4.03219 -1.08646 0
M  V30 4784 N 477.426 -0.562348 -1.47226 0
M  V30 4785 C 478.673 -0.0402165 -2.0246 0
M  V30 4786 C 479.001 1.31169 -1.43614 0
M  V30 4787 O 478.256 1.86805 -0.5833 0
M  V30 4788 C 478.555 0.0969817 -3.57268 0
M  V30 4789 C 478.221 -1.1847 -4.35058 0
M  V30 4790 C 476.883 -1.53588 -4.56031 0
M  V30 4791 C 479.235 -2.03378 -4.79882 0
M  V30 4792 C 476.563 -2.73452 -5.19077 0
M  V30 4793 C 478.915 -3.2245 -5.44251 0
M  V30 4794 C 477.579 -3.57876 -5.63455 0
M  V30 4795 H 476.849 -0.0147163 -0.740854 0
M  V30 4796 H 479.496 -0.734895 -1.76838 0
M  V30 4797 H 477.801 0.87466 -3.81912 0
M  V30 4798 H 479.498 0.516408 -3.97661 0
M  V30 4799 H 476.088 -0.90126 -4.19017 0
M  V30 4800 H 480.272 -1.77553 -4.63453 0
M  V30 4801 H 475.528 -3.01062 -5.32139 0
M  V30 4802 H 479.702 -3.88526 -5.77945 0
M  V30 4803 H 477.329 -4.50849 -6.12078 0
M  V30 4804 N 478.904 1.54736 -0.299062 0
M  V30 4805 C 480.132 2.04512 0.313447 0
M  V30 4806 C 480.547 1.17643 1.47667 0
M  V30 4807 O 479.904 0.20164 1.81383 0
M  V30 4808 C 479.955 3.53171 0.771542 0
M  V30 4809 O 479.676 4.36736 -0.345379 0
M  V30 4810 C 481.177 4.18936 1.4494 0
M  V30 4811 H 478.397 0.667507 0.0683784 0
M  V30 4812 H 480.941 1.99752 -0.438129 0
M  V30 4813 H 479.096 3.58298 1.47314 0
M  V30 4814 H 479.51 5.24499 0.0109219 0
M  V30 4815 H 480.984 5.24482 1.72111 0
M  V30 4816 H 481.461 3.68554 2.38883 0
M  V30 4817 H 482.067 4.17879 0.791028 0
M  V30 4818 N 480.382 0.0267497 1.57577 0
M  V30 4819 C 481.314 -0.984594 2.06974 0
M  V30 4820 C 482.327 -1.29032 0.992705 0
M  V30 4821 O 483.516 -1.25539 1.26895 0
M  V30 4822 C 480.616 -2.31262 2.47732 0
M  V30 4823 C 479.789 -2.1924 3.78487 0
M  V30 4824 C 478.848 -3.34956 4.05821 0
M  V30 4825 O 477.874 -3.11948 4.76106 0
M  V30 4826 N 479.076 -4.58672 3.55809 0
M  V30 4827 H 481.841 -0.563143 2.94362 0
M  V30 4828 H 479.402 -0.160061 1.61107 0
M  V30 4829 H 481.394 -3.07496 2.63112 0
M  V30 4830 H 479.964 -2.65056 1.65723 0
M  V30 4831 H 479.184 -1.27747 3.72927 0
M  V30 4832 H 480.472 -2.08409 4.64158 0
M  V30 4833 H 479.87 -4.8026 2.98942 0
M  V30 4834 H 478.427 -5.32083 3.76472 0
M  V30 4835 N 481.861 -1.55662 -0.24637 0
M  V30 4836 C 482.808 -1.90361 -1.30504 0
M  V30 4837 C 483.778 -0.757905 -1.47801 0
M  V30 4838 O 484.963 -1.01161 -1.61775 0
M  V30 4839 C 482.103 -2.2042 -2.65535 0
M  V30 4840 C 481.216 -3.47799 -2.56242 0
M  V30 4841 C 480.351 -3.67426 -3.8363 0
M  V30 4842 C 479.39 -4.88403 -3.68956 0
M  V30 4843 N 478.527 -5.04548 -4.88237 0
M  V30 4844 H 483.367 -2.80645 -1.00213 0
M  V30 4845 H 480.904 -1.38924 -0.483577 0
M  V30 4846 H 482.862 -2.35853 -3.44135 0
M  V30 4847 H 481.492 -1.3334 -2.93973 0
M  V30 4848 H 480.544 -3.40694 -1.69208 0
M  V30 4849 H 481.856 -4.36544 -2.4131 0
M  V30 4850 H 481.01 -3.82821 -4.70673 0
M  V30 4851 H 479.749 -2.76914 -4.01459 0
M  V30 4852 H 478.754 -4.72984 -2.80296 0
M  V30 4853 H 479.979 -5.80375 -3.52621 0
M  V30 4854 H 477.925 -4.16974 -5.06427 0
M  V30 4855 H 477.842 -5.87384 -4.75937 0
M  V30 4856 H 479.11 -5.24355 -5.76777 0
M  V30 4857 N 483.339 0.512053 -1.4905 0
M  V30 4858 C 484.567 1.29116 -1.61669 0
M  V30 4859 C 484.982 1.86655 -0.283787 0
M  V30 4860 O 484.339 1.67293 0.729331 0
M  V30 4861 C 484.39 2.4293 -2.67707 0
M  V30 4862 O 484.111 1.87758 -3.95826 0
M  V30 4863 C 485.612 3.34476 -2.90931 0
M  V30 4864 H 482.832 0.392009 -0.544583 0
M  V30 4865 H 485.376 0.615881 -1.95006 0
M  V30 4866 H 483.531 3.06308 -2.37179 0
M  V30 4867 H 483.945 2.62393 -4.54148 0
M  V30 4868 H 485.419 4.10642 -3.68886 0
M  V30 4869 H 485.896 3.90801 -2.00427 0
M  V30 4870 H 486.502 2.76874 -3.22832 0
M  V30 4871 N 484.817 1.37938 0.762283 0
M  V30 4872 C 486.066 1.32989 1.51647 0
M  V30 4873 C 486.379 -0.0802922 1.95435 0
M  V30 4874 O 487.585 -0.252295 2.70325 0
M  V30 4875 C 486.041 2.33485 2.73885 0
M  V30 4876 C 485.649 3.80079 2.37157 0
M  V30 4877 C 487.393 2.37563 3.51801 0
M  V30 4878 C 485.3 4.72283 3.55954 0
M  V30 4879 H 484.23 0.494301 0.56937 0
M  V30 4880 H 486.881 1.63448 0.834083 0
M  V30 4881 H 485.263 1.96056 3.44061 0
M  V30 4882 H 486.437 4.26398 1.74704 0
M  V30 4883 H 484.752 3.79037 1.72395 0
M  V30 4884 H 487.349 3.0365 4.40114 0
M  V30 4885 H 487.692 1.39199 3.92338 0
M  V30 4886 H 488.225 2.73747 2.8863 0
M  V30 4887 H 484.964 5.7181 3.2049 0
M  V30 4888 H 484.484 4.30663 4.1748 0
M  V30 4889 H 486.163 4.89876 4.22647 0
M  V30 4890 N 486.295 -0.989507 1.22664 0
M  V30 4891 C 487.572 -1.70326 0.961688 0
M  V30 4892 C 487.952 -2.04537 -0.522279 0
M  V30 4893 O 487.3 -1.73136 -1.49118 0
M  V30 4894 C 487.51 -2.95135 1.86269 0
M  V30 4895 C 488.858 -3.67842 2.12078 0
M  V30 4896 O 489.882 -3.0515 1.83745 0
M  V30 4897 O 488.741 -4.80644 2.60083 0
M  V30 4898 H 485.835 -0.743589 0.361946 0
M  V30 4899 H 488.381 -1.04555 1.33665 0
M  V30 4900 H 487.153 -2.66382 2.8663 0
M  V30 4901 H 486.776 -3.68645 1.48952 0
M  V30 4902 N 487.773 -1.03688 -1.18687 0
M  V30 4903 C 489.189 -0.755413 -1.4059 0
M  V30 4904 C 489.389 0.656659 -1.905 0
M  V30 4905 O 488.445 1.42144 -2.08689 0
M  V30 4906 C 489.758 -1.7983 -2.41001 0
M  V30 4907 C 491.306 -1.81877 -2.54735 0
M  V30 4908 C 491.781 -2.85148 -3.58406 0
M  V30 4909 N 493.272 -2.84015 -3.6591 0
M  V30 4910 C 494.007 -3.60573 -4.45841 0
M  V30 4911 N 493.503 -4.46871 -5.29413 0
M  V30 4912 N 495.296 -3.49079 -4.40568 0
M  V30 4913 H 487.447 -1.94818 -0.846148 0
M  V30 4914 H 489.71 -0.842727 -0.434184 0
M  V30 4915 H 489.416 -2.81097 -2.1137 0
M  V30 4916 H 489.29 -1.62727 -3.40294 0
M  V30 4917 H 491.677 -0.812836 -2.83685 0
M  V30 4918 H 491.758 -2.03057 -1.55568 0
M  V30 4919 H 491.402 -3.85918 -3.30197 0
M  V30 4920 H 491.332 -2.61224 -4.57241 0
M  V30 4921 H 493.823 -2.21431 -3.0623 0
M  V30 4922 H 494.136 -5.02007 -5.87545 0
M  V30 4923 H 492.481 -4.5094 -5.28846 0
M  V30 4924 H 495.672 -2.81066 -3.74325 0
M  V30 4925 H 495.845 -4.08994 -5.02621 0
M  V30 4926 N 489.251 1.34841 -0.815825 0
M  V30 4927 C 490.181 2.32187 -0.247298 0
M  V30 4928 C 491.162 1.5791 0.632344 0
M  V30 4929 O 492.347 1.8593 0.560698 0
M  V30 4930 C 489.477 3.42122 0.597466 0
M  V30 4931 C 488.431 4.27602 -0.184446 0
M  V30 4932 C 487.757 5.28942 0.782609 0
M  V30 4933 C 489.057 5.03502 -1.38865 0
M  V30 4934 H 490.751 2.79985 -1.06061 0
M  V30 4935 H 488.297 1.34611 -0.511461 0
M  V30 4936 H 490.25 4.09232 1.00533 0
M  V30 4937 H 488.974 2.92956 1.44376 0
M  V30 4938 H 487.633 3.62085 -0.573592 0
M  V30 4939 H 487.281 4.7604 1.62466 0
M  V30 4940 H 486.981 5.87008 0.263695 0
M  V30 4941 H 488.505 5.98922 1.18848 0
M  V30 4942 H 489.919 5.63506 -1.05518 0
M  V30 4943 H 488.316 5.71108 -1.8427 0
M  V30 4944 H 489.386 4.33608 -2.17054 0
M  V30 4945 N 490.729 0.570148 1.46925 0
M  V30 4946 C 491.692 -0.159933 2.28641 0
M  V30 4947 C 492.692 -0.830638 1.37685 0
M  V30 4948 O 493.882 -0.684516 1.60187 0
M  V30 4949 C 491.014 -1.2354 3.17727 0
M  V30 4950 H 492.207 0.558035 2.94662 0
M  V30 4951 H 489.76 0.327603 1.52828 0
M  V30 4952 H 490.495 -1.98535 2.56426 0
M  V30 4953 H 490.28 -0.759125 3.84681 0
M  V30 4954 H 491.77 -1.74782 3.79264 0
M  V30 4955 N 492.207 -1.54576 0.307264 0
M  V30 4956 C 493.455 -1.99867 -0.299574 0
M  V30 4957 C 493.776 -1.19714 -1.53927 0
M  V30 4958 O 493.046 -0.29472 -1.9367 0
M  V30 4959 H 491.626 -0.738299 -0.113683 0
M  V30 4960 H 494.288 -1.9032 0.420042 0
M  V30 4961 H 493.384 -3.06901 -0.567283 0
M  V30 4962 N 493.685 -0.035106 -1.57561 0
M  V30 4963 C 494.632 0.94474 -2.10578 0
M  V30 4964 C 495.602 1.3192 -1.00927 0
M  V30 4965 O 496.787 1.41147 -1.28382 0
M  V30 4966 C 493.927 2.21982 -2.64231 0
M  V30 4967 C 493.04 1.90128 -3.87911 0
M  V30 4968 C 492.175 3.11975 -4.29936 0
M  V30 4969 C 491.214 2.75968 -5.46359 0
M  V30 4970 N 490.351 3.90459 -5.83512 0
M  V30 4971 H 495.191 0.485717 -2.94015 0
M  V30 4972 H 492.728 0.228143 -1.4532 0
M  V30 4973 H 494.686 2.96572 -2.9343 0
M  V30 4974 H 493.316 2.6549 -1.83616 0
M  V30 4975 H 492.368 1.05755 -3.65404 0
M  V30 4976 H 493.68 1.59613 -4.72573 0
M  V30 4977 H 492.834 3.9488 -4.60603 0
M  V30 4978 H 491.573 3.45657 -3.44053 0
M  V30 4979 H 490.578 1.91478 -5.1538 0
M  V30 4980 H 491.803 2.43497 -6.33945 0
M  V30 4981 H 489.749 4.23971 -5.00584 0
M  V30 4982 H 489.666 3.63588 -6.62827 0
M  V30 4983 H 490.934 4.7405 -6.18787 0
M  V30 4984 N 495.163 1.55791 0.238111 0
M  V30 4985 C 496.574 1.68383 0.806472 0
M  V30 4986 C 496.925 0.634157 1.85669 0
M  V30 4987 O 496.05 -0.217913 2.153 0
M  V30 4988 C 496.645 3.05268 1.46959 0
M  V30 4989 C 495.204 3.1977 1.98555 0
M  V30 4990 C 494.351 2.64279 0.839763 0
M  V30 4991 H 497.302 1.58694 0.0137535 0
M  V30 4992 H 497.323 3.00203 2.33792 0
M  V30 4993 H 496.835 3.81643 0.704993 0
M  V30 4994 H 494.936 2.48234 2.77868 0
M  V30 4995 H 495.049 4.26788 2.17689 0
M  V30 4996 H 493.413 2.22329 1.24265 0
M  V30 4997 H 494.196 3.43187 0.0881032 0
M  V30 4998 N 496.642 -0.504142 1.49319 0
M  V30 4999 C 497.87 -1.28256 1.62351 0
M  V30 5000 C 498.285 -1.86502 0.293682 0
M  V30 5001 O 497.642 -1.67678 -0.720449 0
M  V30 5002 C 497.693 -2.41507 2.68992 0
M  V30 5003 O 497.414 -1.85656 3.96817 0
M  V30 5004 C 498.915 -3.32929 2.927 0
M  V30 5005 H 496.135 -0.389115 0.546654 0
M  V30 5006 H 498.679 -0.605531 1.95329 0
M  V30 5007 H 496.834 -3.05046 2.38801 0
M  V30 5008 H 497.248 -2.59981 4.55533 0
M  V30 5009 H 498.722 -4.0868 3.71058 0
M  V30 5010 H 499.199 -3.89733 2.02496 0
M  V30 5011 H 499.805 -2.75158 3.24296 0
M  V30 5012 N 498.12 -1.38341 -0.754957 0
M  V30 5013 C 499.07 -1.31964 -1.85929 0
M  V30 5014 C 500.054 -0.204181 -1.59599 0
M  V30 5015 O 501.246 -0.440036 -1.71443 0
M  V30 5016 C 498.375 -1.14565 -3.2362 0
M  V30 5017 C 497.461 -2.30727 -3.55846 0
M  V30 5018 N 497.852 -3.56165 -3.59138 0
M  V30 5019 C 496.15 -2.23249 -3.86104 0
M  V30 5020 C 496.851 -4.32865 -3.88591 0
M  V30 5021 N 495.827 -3.62203 -4.05351 0
M  V30 5022 H 499.629 -2.2694 -1.8675 0
M  V30 5023 H 497.143 -1.31553 -0.952243 0
M  V30 5024 H 499.14 -1.0808 -4.02647 0
M  V30 5025 H 497.8 -0.205212 -3.24051 0
M  V30 5026 H 498.811 -3.89854 -3.40932 0
M  V30 5027 H 495.488 -1.37357 -3.94258 0
M  V30 5028 H 496.878 -5.41504 -3.97773 0
M  V30 5029 N 499.598 0.982988 -1.23187 0
M  V30 5030 C 500.844 1.72648 -1.06398 0
M  V30 5031 C 501.177 1.90066 0.398561 0
M  V30 5032 O 500.452 1.45105 1.29518 0
M  V30 5033 C 500.735 3.12627 -1.78707 0
M  V30 5034 C 500.588 3.02795 -3.32618 0
M  V30 5035 C 501.907 4.11997 -1.54747 0
M  V30 5036 H 499.026 0.626649 -0.387918 0
M  V30 5037 H 501.668 1.14455 -1.51658 0
M  V30 5038 H 499.818 3.62308 -1.40234 0
M  V30 5039 H 501.49 2.60659 -3.80598 0
M  V30 5040 H 499.733 2.39362 -3.61785 0
M  V30 5041 H 500.404 4.01893 -3.78399 0
M  V30 5042 H 502.88 3.71114 -1.88186 0
M  V30 5043 H 501.756 5.08037 -2.07821 0
M  V30 5044 H 502.017 4.39462 -0.482249 0
M  V30 5045 N 501.076 1.04316 1.18135 0
M  V30 5046 C 502.024 0.630175 2.23901 0
M  V30 5047 C 503.018 -0.344254 1.65865 0
M  V30 5048 O 504.224 -0.211273 1.78756 0
M  V30 5049 H 500.599 0.185578 0.728742 0
M  V30 5050 H 502.57 1.53253 2.56039 0
M  V30 5051 C 501.319 0.011666 3.47698 0
M  V30 5052 H 500.642 0.752526 3.92654 0
M  V30 5053 H 502.082 -0.240046 4.2332 0
M  V30 5054 C 500.541 -1.23913 3.13285 0
M  V30 5055 O 501.071 -2.32959 3.27251 0
M  V30 5056 N 499.277 -1.13338 2.67587 0
M  V30 5057 H 498.824 -0.246006 2.56423 0
M  V30 5058 H 498.782 -1.97116 2.44934 0
M  V30 5059 N 502.554 -1.34406 0.822964 0
M  V30 5060 C 503.8 -1.98578 0.411666 0
M  V30 5061 C 504.133 -1.65093 -1.02264 0
M  V30 5062 O 503.408 -0.92258 -1.71227 0
M  V30 5063 C 503.691 -3.54823 0.614235 0
M  V30 5064 C 503.544 -3.9805 2.09466 0
M  V30 5065 C 504.863 -4.40071 0.050221 0
M  V30 5066 H 501.982 -0.721355 0.151047 0
M  V30 5067 H 504.624 -1.59301 1.03554 0
M  V30 5068 H 502.774 -3.88411 0.0831774 0
M  V30 5069 H 504.446 -3.74795 2.68936 0
M  V30 5070 H 502.689 -3.4836 2.5851 0
M  V30 5071 H 503.36 -5.06819 2.18721 0
M  V30 5072 H 505.836 -4.13037 0.503953 0
M  V30 5073 H 504.712 -5.48452 0.221759 0
M  V30 5074 H 504.973 -4.29576 -1.04482 0
M  V30 5075 N 504.032 -0.577932 -1.46621 0
M  V30 5076 C 505.257 -0.0652536 -2.07297 0
M  V30 5077 C 505.682 1.22828 -1.4246 0
M  V30 5078 O 505.04 1.74075 -0.506718 0
M  V30 5079 C 505.088 0.0920589 -3.60482 0
M  V30 5080 O 504.192 1.14972 -3.96049 0
M  V30 5081 H 503.533 -0.06065 -0.661224 0
M  V30 5082 H 506.063 -0.799515 -1.88332 0
M  V30 5083 H 506.073 0.299741 -4.06897 0
M  V30 5084 H 504.748 -0.852612 -4.07067 0
M  V30 5085 H 503.325 0.920879 -3.61351 0
M  V30 5086 N 505.51 1.54411 -0.315457 0
M  V30 5087 C 506.756 2.00716 0.289972 0
M  V30 5088 C 507.089 1.2034 1.5242 0
M  V30 5089 O 506.364 0.283579 1.92422 0
M  V30 5090 C 506.647 3.54507 0.632196 0
M  V30 5091 C 506.5 4.45615 -0.61218 0
M  V30 5092 C 507.819 4.15421 1.45305 0
M  V30 5093 H 504.938 0.729637 0.10392 0
M  V30 5094 H 507.58 1.8506 -0.430427 0
M  V30 5095 H 505.73 3.67979 1.24595 0
M  V30 5096 H 507.402 4.44026 -1.25053 0
M  V30 5097 H 505.645 4.15621 -1.24264 0
M  V30 5098 H 506.316 5.51022 -0.328379 0
M  V30 5099 H 508.792 4.05474 0.934331 0
M  V30 5100 H 507.668 5.23157 1.66127 0
M  V30 5101 H 507.929 3.68223 2.44671 0
M  V30 5102 N 506.988 0.0434614 1.5754 0
M  V30 5103 C 508.234 -0.632971 1.92669 0
M  V30 5104 C 508.567 -1.70947 0.921446 0
M  V30 5105 O 507.842 -1.94426 -0.0537202 0
M  V30 5106 C 508.125 -1.23619 3.38216 0
M  V30 5107 C 507.978 -0.168274 4.49485 0
M  V30 5108 C 509.297 -2.15008 3.84005 0
M  V30 5109 H 506.416 -0.228629 0.700641 0
M  V30 5110 H 509.058 0.103651 1.89717 0
M  V30 5111 H 507.208 -1.864 3.40863 0
M  V30 5112 H 508.88 0.463196 4.58969 0
M  V30 5113 H 507.123 0.504581 4.30855 0
M  V30 5114 H 507.794 -0.630218 5.48391 0
M  V30 5115 H 510.27 -1.62198 3.83185 0
M  V30 5116 H 509.146 -2.54161 4.86511 0
M  V30 5117 H 509.407 -3.04707 3.20322 0
M  V30 5118 N 508.466 -1.55915 -0.229846 0
M  V30 5119 C 509.399 -1.86734 -1.3117 0
M  V30 5120 C 510.377 -0.723947 -1.45595 0
M  V30 5121 O 511.561 -0.971462 -1.61539 0
M  V30 5122 C 508.688 -2.06707 -2.68309 0
M  V30 5123 C 507.734 -3.2938 -2.70944 0
M  V30 5124 S 508.567 -4.85547 -2.25842 0
M  V30 5125 C 509.723 -5.08546 -3.64873 0
M  V30 5126 H 509.956 -2.78204 -1.04832 0
M  V30 5127 H 507.489 -1.48243 -0.431681 0
M  V30 5128 H 509.447 -2.18898 -3.47267 0
M  V30 5129 H 508.108 -1.16049 -2.91876 0
M  V30 5130 H 507.301 -3.40374 -3.71701 0
M  V30 5131 H 506.903 -3.16004 -2.00044 0
M  V30 5132 H 509.195 -4.96935 -4.60502 0
M  V30 5133 H 510.138 -6.10465 -3.58801 0
M  V30 5134 H 510.546 -4.36314 -3.58176 0
M  V30 5135 N 509.944 0.496216 -1.49584 0
M  V30 5136 C 510.907 1.57952 -1.66084 0
M  V30 5137 C 511.907 1.51729 -0.53244 0
M  V30 5138 O 513.097 1.54796 -0.79899 0
M  V30 5139 C 510.229 2.97604 -1.66268 0
M  V30 5140 H 511.422 1.44649 -2.6271 0
M  V30 5141 H 508.975 0.7208 -1.38687 0
M  V30 5142 H 509.71 3.16378 -0.712432 0
M  V30 5143 H 509.495 3.03528 -2.4822 0
M  V30 5144 H 510.985 3.76301 -1.81073 0
M  V30 5145 N 511.423 1.38739 0.74761 0
M  V30 5146 C 512.333 1.38696 1.89211 0
M  V30 5147 C 513.349 0.283303 1.71678 0
M  V30 5148 O 514.525 0.522713 1.94498 0
M  V30 5149 C 511.59 1.21662 3.24653 0
M  V30 5150 C 510.651 2.41886 3.54669 0
M  V30 5151 C 509.884 2.25655 4.83648 0
M  V30 5152 O 510.107 1.25339 5.56459 0
M  V30 5153 O 509.041 3.14372 5.13277 0
M  V30 5154 H 512.867 2.35143 1.92202 0
M  V30 5155 H 510.452 1.19721 0.893708 0
M  V30 5156 H 512.334 1.14246 4.05618 0
M  V30 5157 H 511.009 0.283024 3.2246 0
M  V30 5158 H 509.916 2.54877 2.73841 0
M  V30 5159 H 511.249 3.33895 3.61628 0
M  V30 5160 N 512.901 -0.976442 1.23707 0
M  V30 5161 C 514.147 -1.72081 1.07312 0
M  V30 5162 C 514.48 -1.90275 -0.388476 0
M  V30 5163 O 513.755 -1.4579 -1.28746 0
M  V30 5164 C 514.038 -3.11675 1.80363 0
M  V30 5165 C 513.891 -3.01027 3.3422 0
M  V30 5166 C 515.21 -4.1117 1.5693 0
M  V30 5167 H 512.329 -0.624583 0.391236 0
M  V30 5168 H 514.971 -1.13649 1.52263 0
M  V30 5169 H 513.121 -3.61559 1.42153 0
M  V30 5170 H 514.793 -2.58637 3.81975 0
M  V30 5171 H 513.036 -2.3744 3.63049 0
M  V30 5172 H 513.707 -3.9988 3.80525 0
M  V30 5173 H 516.183 -3.7011 1.90151 0
M  V30 5174 H 515.059 -5.06928 2.10513 0
M  V30 5175 H 515.32 -4.392 0.505548 0
M  V30 5176 N 514.379 -1.04941 -1.1758 0
M  V30 5177 C 515.656 -0.671918 -1.83697 0
M  V30 5178 C 516.036 0.847929 -1.93322 0
M  V30 5179 O 515.384 1.75287 -1.46583 0
M  V30 5180 C 515.594 -1.35797 -3.21497 0
M  V30 5181 C 516.942 -1.4944 -3.97433 0
M  V30 5182 O 517.966 -1.31678 -3.30967 0
M  V30 5183 O 516.825 -1.78463 -5.1654 0
M  V30 5184 H 513.919 -0.236212 -0.792548 0
M  V30 5185 H 516.465 -1.14884 -1.24899 0
M  V30 5186 H 515.237 -2.39498 -3.09446 0
M  V30 5187 H 514.86 -0.870236 -3.8796 0
M  V30 5188 N 515.857 1.33968 -0.830081 0
M  V30 5189 C 517.105 1.97672 -0.420734 0
M  V30 5190 C 517.426 1.66111 1.02138 0
M  V30 5191 O 516.696 0.955503 1.71017 0
M  V30 5192 H 515.276 0.73125 -0.152587 0
M  V30 5193 H 517.938 1.63483 -1.0611 0
M  V30 5194 H 517.034 3.07294 -0.545588 0
M  V30 5195 N 517.335 0.585699 1.46312 0
M  V30 5196 C 518.563 0.0781299 2.06752 0
M  V30 5197 C 518.978 -1.22812 1.43396 0
M  V30 5198 O 518.335 -1.74318 0.540314 0
M  V30 5199 C 518.386 -0.0911927 3.61385 0
M  V30 5200 O 518.107 1.16336 4.22371 0
M  V30 5201 C 519.608 -0.632765 4.38761 0
M  V30 5202 H 516.828 0.0588188 0.668417 0
M  V30 5203 H 519.372 0.807218 1.87894 0
M  V30 5204 H 517.527 -0.770514 3.7966 0
M  V30 5205 H 517.941 0.979082 5.15281 0
M  V30 5206 H 519.415 -0.70041 5.47538 0
M  V30 5207 H 519.892 -1.65039 4.07012 0
M  V30 5208 H 520.498 0.0117856 4.25298 0
M  V30 5209 N 518.813 -1.54241 0.323641 0
M  V30 5210 C 520.053 -2.0248 -0.279502 0
M  V30 5211 C 520.417 -1.20672 -1.49339 0
M  V30 5212 O 521.618 -1.58715 -2.1694 0
M  V30 5213 C 519.889 -3.52238 -0.605266 0
M  V30 5214 S 521.448 -4.22411 -1.18805 0
M  V30 5215 H 518.266 -0.705957 -0.0845313 0
M  V30 5216 H 520.868 -1.90089 0.456781 0
M  V30 5217 H 519.572 -4.094 0.286339 0
M  V30 5218 H 519.103 -3.6871 -1.37174 0
M  V30 5219 H 521.118 -4.30075 -2.47487 0
M  V30 5220 N 520.291 -0.0518155 -1.57515 0
M  V30 5221 C 521.521 0.63048 -1.96745 0
M  V30 5222 C 521.929 1.64875 -0.928054 0
M  V30 5223 O 521.272 1.83449 0.0960678 0
M  V30 5224 C 521.334 1.37381 -3.32215 0
M  V30 5225 C 520.998 0.511298 -4.54131 0
M  V30 5226 C 521.995 -0.222884 -5.19422 0
M  V30 5227 C 519.68 0.442035 -5.00351 0
M  V30 5228 C 521.674 -1.01476 -6.2927 0
M  V30 5229 C 519.361 -0.35353 -6.10077 0
M  V30 5230 C 520.359 -1.08062 -6.74397 0
M  V30 5231 O 520.047 -1.8631 -7.82013 0
M  V30 5232 H 519.779 0.177126 -0.652382 0
M  V30 5233 H 522.333 -0.114726 -2.05079 0
M  V30 5234 H 520.563 2.16466 -3.20436 0
M  V30 5235 H 522.252 1.9464 -3.56188 0
M  V30 5236 H 523.018 -0.178846 -4.8467 0
M  V30 5237 H 518.897 0.997562 -4.50077 0
M  V30 5238 H 522.441 -1.58279 -6.79407 0
M  V30 5239 H 518.338 -0.399205 -6.44264 0
M  V30 5240 H 519.106 -1.78528 -7.98793 0
M  V30 5241 O 521.808 1.61253 0.0892961 0
M  V30 5242 H 522.499 1.79931 0.717249 0
M  V30 END ATOM
M  V30 BEGIN BOND
M  V30 END BOND
M  V30 END CTAB
M  END
$$$$
