drugbank_target|P01871 Ig mu chain C region (DB01593; DB14487)
 OpenBabel12092121013D

  0  0  0     0  0            999 V3000
M  V30 BEGIN CTAB
M  V30 COUNTS 6870 6954 0 0 0
M  V30 BEGIN ATOM
M  V30 1 H -0.908 1.98254 -0.117106 0
M  V30 2 N 0 1.576 0 0
M  V30 3 C 1.248 1.90191 0.683495 0
M  V30 4 C 1.569 0.874069 1.74313 0
M  V30 5 O 0.839 -0.0885238 1.957 0
M  V30 6 H -0.581 0.701967 0.255443 0
M  V30 7 H 2.081 1.94857 -0.040926 0
M  V30 8 H 1.177 2.89952 1.15474 0
M  V30 9 N 1.4781 -0.272755 1.55222 0
M  V30 10 C 2.7031 -1.02683 1.80197 0
M  V30 11 C 3.1281 -1.79142 0.573551 0
M  V30 12 O 2.4861 -1.74917 -0.476849 0
M  V30 13 C 2.5341 -1.9609 3.02624 0
M  V30 14 O 1.6381 -3.04863 2.77727 0
M  V30 15 H 0.9791 -0.293557 0.595584 0
M  V30 16 H 3.5091 -0.30159 2.02365 0
M  V30 17 H 3.5191 -2.38039 3.31363 0
M  V30 18 H 2.1941 -1.39851 3.91682 0
M  V30 19 H 0.7711 -2.67228 2.60084 0
M  V30 20 N 2.9562 -1.48159 -0.537278 0
M  V30 21 C 3.9192 -1.61665 -1.62472 0
M  V30 22 C 4.9192 -0.490395 -1.5314 0
M  V30 23 O 6.1092 -0.755998 -1.5694 0
M  V30 24 C 3.2412 -1.57997 -3.02076 0
M  V30 25 H 4.4342 -2.58621 -1.51839 0
M  V30 26 H 1.9872 -1.36647 -0.758771 0
M  V30 27 H 2.7222 -0.624913 -3.18222 0
M  V30 28 H 2.5072 -2.39755 -3.10258 0
M  V30 29 H 3.9972 -1.70627 -3.81151 0
M  V30 30 N 4.4343 0.785586 -1.36625 0
M  V30 31 C 5.6593 1.57963 -1.34397 0
M  V30 32 C 6.0843 1.87964 0.071526 0
M  V30 33 O 5.4423 1.48182 1.0446 0
M  V30 34 C 5.4903 2.87511 -2.17646 0
M  V30 35 O 4.5943 3.81281 -1.57158 0
M  V30 36 H 3.9353 0.479014 -0.459828 0
M  V30 37 H 6.4653 0.973411 -1.79961 0
M  V30 38 H 6.4753 3.36745 -2.30362 0
M  V30 39 H 5.1503 2.65002 -3.20541 0
M  V30 40 H 3.7273 3.39885 -1.53403 0
M  V30 41 N 5.9124 1.20967 1.01018 0
M  V30 42 C 6.8754 0.965918 2.07853 0
M  V30 43 C 7.8754 -0.0610545 1.60684 0
M  V30 44 O 9.0654 0.175681 1.73312 0
M  V30 45 C 6.1974 0.455513 3.37843 0
M  V30 46 H 7.3904 1.91365 2.3091 0
M  V30 47 H 4.9434 1.02594 1.17916 0
M  V30 48 H 5.6784 -0.497381 3.20463 0
M  V30 49 H 5.4634 1.19622 3.73407 0
M  V30 50 H 6.9534 0.304667 4.16487 0
M  V30 51 N 7.3905 -1.2043 1.01659 0
M  V30 52 C 8.8015 -1.71517 0.737482 0
M  V30 53 C 9.1525 -1.81547 -0.743973 0
M  V30 54 O 8.2775 -1.47803 -1.58061 0
M  V30 55 C 8.8725 -3.11515 1.33206 0
M  V30 56 C 7.4315 -3.59912 1.10183 0
M  V30 57 C 6.5785 -2.37116 1.43776 0
M  V30 58 H 9.5295 -1.05444 1.18606 0
M  V30 59 H 9.5505 -3.73575 0.722636 0
M  V30 60 H 9.0625 -3.04182 2.41028 0
M  V30 61 H 7.1635 -3.72577 0.0412756 0
M  V30 62 H 7.2765 -4.44731 1.78188 0
M  V30 63 H 5.6405 -2.39857 0.856778 0
M  V30 64 H 6.4235 -2.32424 2.52654 0
M  V30 65 N 8.8686 -0.792821 -1.36206 0
M  V30 66 C 10.0966 -0.378825 -2.03402 0
M  V30 67 C 10.5116 1.00586 -1.59774 0
M  V30 68 O 9.8686 1.64574 -0.788764 0
M  V30 69 C 9.9196 -0.43683 -3.58851 0
M  V30 70 O 9.6406 -1.76691 -4.00889 0
M  V30 71 C 11.1416 -0.0138943 -4.43298 0
M  V30 72 H 8.3616 -0.155673 -0.652692 0
M  V30 73 H 10.9056 -1.07261 -1.74113 0
M  V30 74 H 9.0606 0.208575 -3.86838 0
M  V30 75 H 9.4746 -1.72011 -4.95492 0
M  V30 76 H 10.9486 -0.105615 -5.51899 0
M  V30 77 H 11.4256 1.03915 -4.2673 0
M  V30 78 H 12.0316 -0.63192 -4.20579 0
M  V30 79 N 10.3467 1.47872 -0.545128 0
M  V30 80 C 11.2767 2.32661 0.197793 0
M  V30 81 C 12.2577 1.43041 0.920504 0
M  V30 82 O 13.4427 1.71912 0.90333 0
M  V30 83 C 10.5727 3.24569 1.23582 0
M  V30 84 C 9.5267 4.23333 0.630323 0
M  V30 85 C 8.8527 5.0448 1.77211 0
M  V30 86 C 10.1527 5.20704 -0.407974 0
M  V30 87 H 11.8467 2.95024 -0.510045 0
M  V30 88 H 9.3927 1.4187 -0.246731 0
M  V30 89 H 11.3457 3.8272 1.76362 0
M  V30 90 H 10.0697 2.60236 1.97344 0
M  V30 91 H 8.7287 3.6639 0.123922 0
M  V30 92 H 8.3767 4.36561 2.49847 0
M  V30 93 H 8.0767 5.71339 1.37281 0
M  V30 94 H 9.6007 5.65487 2.3034 0
M  V30 95 H 11.0147 5.7329 0.033305 0
M  V30 96 H 9.4117 5.95699 -0.725486 0
M  V30 97 H 10.4817 4.66917 -1.30828 0
M  V30 98 N 11.8248 0.280983 1.55075 0
M  V30 99 C 13.0718 -0.334115 1.99725 0
M  V30 100 C 13.3998 -1.5542 1.1694 0
M  V30 101 O 12.6548 -1.94361 0.228531 0
M  V30 102 C 12.9538 -0.754656 3.49342 0
M  V30 103 C 12.6198 0.361445 4.49449 0
M  V30 104 C 11.2818 0.667893 4.76542 0
M  V30 105 C 13.6338 1.11322 5.09173 0
M  V30 106 C 10.9618 1.7296 5.60626 0
M  V30 107 C 13.3138 2.1647 5.9441 0
M  V30 108 C 11.9778 2.47742 6.19822 0
M  V30 109 H 11.2478 -0.122261 0.730844 0
M  V30 110 H 13.8948 0.395917 1.87363 0
M  V30 111 H 12.1998 -1.56446 3.5921 0
M  V30 112 H 13.8968 -1.24142 3.813 0
M  V30 113 H 10.4868 0.112481 4.28452 0
M  V30 114 H 14.6708 0.88973 4.8826 0
M  V30 115 H 9.9268 1.97684 5.78559 0
M  V30 116 H 14.1008 2.75193 6.3972 0
M  V30 117 H 11.7278 3.30145 6.84769 0
M  V30 118 N 13.3029 -1.57598 0.00835791 0
M  V30 119 C 14.7139 -1.7892 -0.53333 0
M  V30 120 C 15.0649 -0.916609 -1.73473 0
M  V30 121 O 14.1899 -0.121336 -2.1606 0
M  V30 122 C 14.7849 -3.24488 -0.974313 0
M  V30 123 C 13.3439 -3.46878 -1.46125 0
M  V30 124 C 12.4909 -2.74157 -0.416302 0
M  V30 125 H 15.4419 -1.56958 0.234495 0
M  V30 126 H 15.4629 -3.3306 -1.83988 0
M  V30 127 H 14.9749 -3.87972 -0.099718 0
M  V30 128 H 13.0759 -2.8862 -2.35646 0
M  V30 129 H 13.1889 -4.55572 -1.48295 0
M  V30 130 H 11.5529 -2.39022 -0.87981 0
M  V30 131 H 12.3359 -3.40345 0.44947 0
M  V30 132 N 14.781 0.264519 -1.55364 0
M  V30 133 C 15.711 1.33121 -1.91836 0
M  V30 134 C 16.692 1.51101 -0.781192 0
M  V30 135 O 17.877 1.64003 -1.04003 0
M  V30 136 C 15.007 2.68921 -2.19769 0
M  V30 137 C 13.961 2.65661 -3.35571 0
M  V30 138 C 13.287 4.05093 -3.49004 0
M  V30 139 C 14.587 2.24187 -4.71739 0
M  V30 140 H 16.281 1.02844 -2.81182 0
M  V30 141 H 13.827 0.493286 -1.35287 0
M  V30 142 H 15.78 3.43663 -2.43872 0
M  V30 143 H 14.504 3.00799 -1.27231 0
M  V30 144 H 13.163 1.93377 -3.1145 0
M  V30 145 H 12.811 4.34206 -2.53917 0
M  V30 146 H 12.511 4.03804 -4.26868 0
M  V30 147 H 14.035 4.81561 -3.75408 0
M  V30 148 H 15.449 2.88654 -4.9533 0
M  V30 149 H 13.846 2.34044 -5.52579 0
M  V30 150 H 14.916 1.19327 -4.69988 0
M  V30 151 N 16.2591 1.48442 0.529413 0
M  V30 152 C 17.5051 1.5672 1.28711 0
M  V30 153 C 17.8381 0.2406 1.92704 0
M  V30 154 O 17.1131 -0.753454 1.79313 0
M  V30 155 C 17.3961 2.70587 2.37603 0
M  V30 156 C 17.2491 4.12953 1.78297 0
M  V30 157 C 18.5681 2.80212 3.39366 0
M  V30 158 H 15.6871 0.570474 0.466613 0
M  V30 159 H 18.3291 1.80617 0.589706 0
M  V30 160 H 16.4791 2.50342 2.97088 0
M  V30 161 H 18.1511 4.44639 1.22858 0
M  V30 162 H 16.3941 4.19927 1.0883 0
M  V30 163 H 17.0651 4.88448 2.57144 0
M  V30 164 H 19.5411 2.98553 2.89836 0
M  V30 165 H 18.4171 3.61611 4.12951 0
M  V30 166 H 18.6781 1.88393 3.99951 0
M  V30 167 N 17.7372 -0.778329 1.37039 0
M  V30 168 C 18.9622 -1.57248 1.35233 0
M  V30 169 C 19.3872 -1.87999 -0.0615568 0
M  V30 170 O 18.7452 -1.48734 -1.03672 0
M  V30 171 C 18.7932 -2.86353 2.19167 0
M  V30 172 O 17.8972 -3.80442 1.59178 0
M  V30 173 H 17.2382 -0.476569 0.462362 0
M  V30 174 H 19.7682 -0.963853 1.80474 0
M  V30 175 H 19.7782 -3.35519 2.32145 0
M  V30 176 H 18.4532 -2.63299 3.21942 0
M  V30 177 H 17.0302 -3.39067 1.55203 0
M  V30 178 N 19.2153 -1.21501 -1.00376 0
M  V30 179 C 20.4553 -1.04444 -1.75701 0
M  V30 180 C 20.8193 0.414644 -1.87469 0
M  V30 181 O 22.0203 0.705763 -2.59369 0
M  V30 182 C 20.2913 -1.72389 -3.13077 0
M  V30 183 S 21.8503 -1.70604 -4.04277 0
M  V30 184 H 18.6683 -0.374249 -0.604532 0
M  V30 185 H 21.2703 -1.54267 -1.20091 0
M  V30 186 H 19.9743 -2.77734 -3.02146 0
M  V30 187 H 19.5053 -1.22751 -3.73759 0
M  V30 188 H 21.5203 -0.748012 -4.9053 0
M  V30 189 N 20.6934 1.19889 -1.02296 0
M  V30 190 C 21.6034 2.26571 -0.608508 0
M  V30 191 C 22.6194 1.70299 0.356964 0
M  V30 192 O 23.7954 2.00235 0.216326 0
M  V30 193 C 20.8604 3.46677 0.0402814 0
M  V30 194 C 19.9214 4.18153 -0.97194 0
M  V30 195 C 19.1544 5.32525 -0.354016 0
M  V30 196 O 19.3774 5.64112 0.844604 0
M  V30 197 O 18.3114 5.92242 -1.07391 0
M  V30 198 H 22.1374 2.64251 -1.49684 0
M  V30 199 H 19.7224 1.26629 -0.792809 0
M  V30 200 H 21.6044 4.19475 0.402324 0
M  V30 201 H 20.2794 3.10858 0.902707 0
M  V30 202 H 19.1864 3.47499 -1.38546 0
M  V30 203 H 20.5194 4.57927 -1.80454 0
M  V30 204 N 22.1715 0.800033 1.35784 0
M  V30 205 C 23.1195 0.193851 2.31791 0
M  V30 206 C 24.1135 -0.652744 1.56319 0
M  V30 207 O 25.3195 -0.546641 1.71499 0
M  V30 208 H 21.6945 0.04392 0.750716 0
M  V30 209 H 23.6655 1.01883 2.80468 0
M  V30 210 C 22.4145 -0.648338 3.41602 0
M  V30 211 H 21.7375 -0.00624665 3.998 0
M  V30 212 H 23.1775 -1.03898 4.11073 0
M  V30 213 C 21.6365 -1.8111 2.84079 0
M  V30 214 O 22.1665 -2.90825 2.77099 0
M  V30 215 N 20.3725 -1.62056 2.41218 0
M  V30 216 H 19.9195 -0.728123 2.47095 0
M  V30 217 H 19.8775 -2.40013 2.03079 0
M  V30 218 N 23.6496 -1.47581 0.552962 0
M  V30 219 C 24.8746 -2.07378 0.0300593 0
M  V30 220 C 25.2996 -1.40355 -1.25229 0
M  V30 221 O 24.6576 -0.477099 -1.7491 0
M  V30 222 C 24.7056 -3.60274 -0.153231 0
M  V30 223 O 23.8096 -3.94041 -1.21678 0
M  V30 224 H 23.1506 -0.662158 0.0494182 0
M  V30 225 H 25.6806 -1.89662 0.767434 0
M  V30 226 H 25.6906 -4.0633 -0.368761 0
M  V30 227 H 24.3656 -4.08455 0.783397 0
M  V30 228 H 22.9426 -3.59735 -0.982079 0
M  V30 229 N 25.1277 -0.289203 -1.54924 0
M  V30 230 C 26.5387 0.205791 -1.85562 0
M  V30 231 C 26.8897 1.54351 -1.2112 0
M  V30 232 O 26.0147 2.10435 -0.504601 0
M  V30 233 C 26.6097 0.380177 -3.3666 0
M  V30 234 C 25.1687 0.819395 -3.67373 0
M  V30 235 C 24.3157 -0.079159 -2.77187 0
M  V30 236 H 27.2667 -0.510577 -1.50262 0
M  V30 237 H 27.2877 1.21659 -3.60526 0
M  V30 238 H 26.7997 -0.593589 -3.83534 0
M  V30 239 H 24.9007 1.80413 -3.26009 0
M  V30 240 H 25.0137 0.646957 -4.74712 0
M  V30 241 H 23.3777 0.439565 -2.50878 0
M  V30 242 H 24.1607 -1.04906 -3.26878 0
M  V30 243 N 26.6058 1.57591 -0.0167156 0
M  V30 244 C 27.8308 1.9598 0.67872 0
M  V30 245 C 28.2558 0.892546 1.65575 0
M  V30 246 O 27.6138 -0.147772 1.80697 0
M  V30 247 C 27.6618 3.33468 1.37227 0
M  V30 248 O 26.7658 3.28954 2.48722 0
M  V30 249 H 26.1068 0.639339 0.17928 0
M  V30 250 H 28.6368 2.04463 -0.0748802 0
M  V30 251 H 28.6468 3.69417 1.7319 0
M  V30 252 H 27.3218 4.10694 0.656007 0
M  V30 253 H 25.8988 3.04705 2.14963 0
M  V30 254 N 28.0839 -0.256276 1.55502 0
M  V30 255 C 29.3609 -1.00789 1.67633 0
M  V30 256 C 29.7409 -2.03706 0.553826 0
M  V30 257 O 29.0889 -2.24145 -0.443969 0
M  V30 258 C 29.2989 -1.64968 3.07549 0
M  V30 259 C 30.6469 -2.15505 3.65845 0
M  V30 260 O 31.6709 -1.74925 3.1029 0
M  V30 261 O 30.5299 -2.89986 4.63217 0
M  V30 262 H 27.6239 -0.468553 0.681459 0
M  V30 263 H 30.1699 -0.250806 1.67836 0
M  V30 264 H 28.9419 -0.904785 3.80696 0
M  V30 265 H 28.5649 -2.47321 3.11317 0
M  V30 266 N 29.562 -1.4872 -0.521534 0
M  V30 267 C 30.79 -1.60843 -1.30142 0
M  V30 268 C 31.205 -0.271897 -1.86832 0
M  V30 269 O 30.562 0.739969 -1.66825 0
M  V30 270 C 30.613 -2.66155 -2.4463 0
M  V30 271 O 30.334 -3.94623 -1.90275 0
M  V30 272 C 31.835 -2.88795 -3.36322 0
M  V30 273 H 29.055 -0.542075 -0.395468 0
M  V30 274 H 31.599 -1.94609 -0.628285 0
M  V30 275 H 29.754 -2.35224 -3.07812 0
M  V30 276 H 30.168 -4.52468 -2.65279 0
M  V30 277 H 31.642 -3.66264 -4.12983 0
M  V30 278 H 32.119 -1.97934 -3.9207 0
M  V30 279 H 32.725 -3.21063 -2.78924 0
M  V30 280 N 31.0401 0.771051 -1.3745 0
M  V30 281 C 32.2651 1.56529 -1.36065 0
M  V30 282 C 32.6901 1.88029 0.0515859 0
M  V30 283 O 32.0481 1.49282 1.02882 0
M  V30 284 C 32.0961 2.85187 -2.20683 0
M  V30 285 O 31.2001 3.79593 -1.61193 0
M  V30 286 H 30.5411 0.47411 -0.464883 0
M  V30 287 H 33.0711 0.954269 -1.80983 0
M  V30 288 H 33.0811 3.34283 -2.33921 0
M  V30 289 H 31.7561 2.61588 -3.23334 0
M  V30 290 H 30.3331 3.38239 -1.56999 0
M  V30 291 N 32.5182 1.22032 0.997298 0
M  V30 292 C 33.7432 1.06921 1.77715 0
M  V30 293 C 34.1682 -0.376226 1.84299 0
M  V30 294 O 33.5262 -1.27165 1.29223 0
M  V30 295 C 33.5742 1.67996 3.19076 0
M  V30 296 O 32.6782 0.930653 4.01762 0
M  V30 297 H 32.0192 0.375814 0.547412 0
M  V30 298 H 34.5492 1.61737 1.25309 0
M  V30 299 H 34.5592 1.72538 3.69723 0
M  V30 300 H 33.2342 2.73182 3.13599 0
M  V30 301 H 31.8112 0.960917 3.60307 0
M  V30 302 N 33.9963 -1.19345 1.0293 0
M  V30 303 C 35.2423 -1.89318 0.727083 0
M  V30 304 C 35.5753 -1.79446 -0.742483 0
M  V30 305 O 34.8503 -1.1871 -1.54072 0
M  V30 306 C 35.1333 -3.40238 1.17942 0
M  V30 307 C 34.9863 -3.58979 2.71024 0
M  V30 308 C 36.3053 -4.33479 0.760548 0
M  V30 309 H 33.4243 -0.687475 0.265606 0
M  V30 310 H 36.0663 -1.40477 1.2793 0
M  V30 311 H 34.2163 -3.81964 0.709608 0
M  V30 312 H 35.8883 -3.26421 3.25955 0
M  V30 313 H 34.1313 -3.02018 3.11396 0
M  V30 314 H 34.8023 -4.64823 2.9773 0
M  V30 315 H 37.2783 -3.99469 1.16464 0
M  V30 316 H 36.1543 -5.37664 1.10493 0
M  V30 317 H 36.4153 -4.40813 -0.337063 0
M  V30 318 N 35.4744 -0.807222 -1.35358 0
M  V30 319 C 36.4374 -0.223665 -2.28106 0
M  V30 320 C 37.4374 0.589354 -1.4961 0
M  V30 321 O 38.6274 0.407745 -1.69361 0
M  V30 322 C 35.7594 0.688149 -3.33882 0
M  V30 323 H 36.9524 -1.04169 -2.81227 0
M  V30 324 H 34.5054 -0.577921 -1.45223 0
M  V30 325 H 35.2404 1.52984 -2.85948 0
M  V30 326 H 35.0254 0.10687 -3.91954 0
M  V30 327 H 36.5154 1.09075 -4.03104 0
M  V30 328 N 36.9525 1.47285 -0.560781 0
M  V30 329 C 38.1985 2.02764 -0.0381184 0
M  V30 330 C 38.5315 1.43384 1.30976 0
M  V30 331 O 37.8065 0.590733 1.85312 0
M  V30 332 C 38.0895 3.60064 0.0511427 0
M  V30 333 C 37.9425 4.2987 -1.32408 0
M  V30 334 C 39.2615 4.33439 0.762795 0
M  V30 335 H 36.3805 0.736841 -0.0153264 0
M  V30 336 H 39.0225 1.75675 -0.723759 0
M  V30 337 H 37.1725 3.83274 0.635065 0
M  V30 338 H 38.8445 4.17989 -1.95148 0
M  V30 339 H 37.0875 3.90085 -1.8978 0
M  V30 340 H 37.7585 5.38478 -1.21431 0
M  V30 341 H 40.2345 4.15243 0.266965 0
M  V30 342 H 39.1105 5.43124 0.794221 0
M  V30 343 H 39.3715 4.02915 1.81966 0
M  V30 344 N 38.4306 0.297415 1.54768 0
M  V30 345 C 39.6786 -0.312295 1.99673 0
M  V30 346 C 39.9996 -1.54686 1.18732 0
M  V30 347 O 39.2696 -1.93854 0.282382 0
M  V30 348 H 37.8496 -0.118381 0.73756 0
M  V30 349 H 40.5116 0.407915 1.90583 0
M  V30 350 H 39.6076 -0.586813 3.06534 0
M  V30 351 N 39.9087 -1.5758 0.0250728 0
M  V30 352 C 41.1487 -1.93497 -0.65865 0
M  V30 353 C 41.5127 -0.901409 -1.69525 0
M  V30 354 O 42.7137 -1.14664 -2.43116 0
M  V30 355 C 40.9847 -3.34352 -1.26267 0
M  V30 356 S 42.5437 -3.92191 -1.96803 0
M  V30 357 H 39.3617 -0.67709 -0.216958 0
M  V30 358 H 41.9637 -1.95303 0.0877692 0
M  V30 359 H 40.6677 -4.07395 -0.495741 0
M  V30 360 H 40.1987 -3.3598 -2.04648 0
M  V30 361 H 42.2137 -3.75298 -3.24601 0
M  V30 362 N 41.3868 0.248026 -1.55636 0
M  V30 363 C 42.3168 1.31079 -1.93237 0
M  V30 364 C 43.2978 1.50264 -0.797174 0
M  V30 365 O 44.4828 1.62891 -1.05737 0
M  V30 366 C 41.6128 2.66575 -2.22609 0
M  V30 367 C 40.5668 2.62087 -3.3837 0
M  V30 368 C 39.8928 4.01369 -3.53281 0
M  V30 369 C 41.1928 2.19171 -4.7409 0
M  V30 370 H 42.8868 0.998556 -2.82257 0
M  V30 371 H 40.4328 0.47891 -1.35803 0
M  V30 372 H 42.3858 3.41057 -2.47503 0
M  V30 373 H 41.1098 2.99432 -1.30414 0
M  V30 374 H 39.7688 1.90063 -3.13483 0
M  V30 375 H 39.4168 4.31489 -2.58508 0
M  V30 376 H 39.1168 3.99254 -4.31127 0
M  V30 377 H 40.6408 4.77552 -3.80495 0
M  V30 378 H 42.0548 2.83384 -4.98363 0
M  V30 379 H 40.4518 2.2817 -5.5503 0
M  V30 380 H 41.5218 1.14336 -4.71227 0
M  V30 381 N 42.8649 1.48995 0.513639 0
M  V30 382 C 43.8279 1.64229 1.59879 0
M  V30 383 C 44.8279 0.514696 1.5234 0
M  V30 384 O 46.0179 0.78087 1.55718 0
M  V30 385 C 43.1499 1.62783 2.99524 0
M  V30 386 H 44.3429 2.61004 1.47705 0
M  V30 387 H 41.8959 1.37837 0.736936 0
M  V30 388 H 42.6309 0.675461 3.17188 0
M  V30 389 H 42.4159 2.4466 3.06404 0
M  V30 390 H 43.9059 1.76669 3.78388 0
M  V30 391 N 44.343 -0.763751 1.37857 0
M  V30 392 C 45.275 -1.88664 1.30148 0
M  V30 393 C 46.288 -1.61365 0.215685 0
M  V30 394 O 47.477 -1.72134 0.472459 0
M  V30 395 C 44.577 -3.24075 0.991396 0
M  V30 396 C 43.75 -3.78958 2.18426 0
M  V30 397 C 42.809 -4.92862 1.8432 0
M  V30 398 O 41.835 -5.08027 2.56704 0
M  V30 399 N 43.037 -5.75071 0.792081 0
M  V30 400 H 45.802 -1.95791 2.26905 0
M  V30 401 H 43.363 -0.943226 1.31586 0
M  V30 402 H 45.355 -3.97804 0.743935 0
M  V30 403 H 43.925 -3.12399 0.112122 0
M  V30 404 H 43.145 -2.96913 2.59299 0
M  V30 405 H 44.433 -4.12357 2.98058 0
M  V30 406 H 43.831 -5.65375 0.191595 0
M  V30 407 H 42.388 -6.48991 0.60449 0
M  V30 408 N 45.8211 -1.22559 -0.990812 0
M  V30 409 C 47.0981 -0.959875 -1.70428 0
M  V30 410 C 47.4781 0.524455 -2.04481 0
M  V30 411 O 46.8261 1.49302 -1.72977 0
M  V30 412 C 47.0361 -1.85955 -2.95333 0
M  V30 413 C 48.3841 -2.11687 -3.68068 0
M  V30 414 O 49.4081 -1.8342 -3.05345 0
M  V30 415 O 48.2671 -2.59572 -4.80921 0
M  V30 416 H 45.3611 -0.361154 -0.743974 0
M  V30 417 H 47.9071 -1.33554 -1.04697 0
M  V30 418 H 46.6791 -2.86346 -2.66687 0
M  V30 419 H 46.3021 -1.4856 -3.68803 0
M  V30 420 N 47.2992 1.18797 -1.03562 0
M  V30 421 C 48.5462 1.8865 -0.736023 0
M  V30 422 C 48.8742 1.80041 0.735889 0
M  V30 423 O 48.1292 1.19179 1.55225 0
M  V30 424 C 48.4282 3.38692 -1.14117 0
M  V30 425 C 48.0942 3.67504 -2.6125 0
M  V30 426 C 46.7562 3.75078 -3.01447 0
M  V30 427 C 49.1082 3.80293 -3.56408 0
M  V30 428 C 46.4362 3.92915 -4.35701 0
M  V30 429 C 48.7882 3.99645 -4.90374 0
M  V30 430 C 47.4522 4.05453 -5.30249 0
M  V30 431 H 46.7222 0.690321 -0.26933 0
M  V30 432 H 49.3692 1.40641 -1.29971 0
M  V30 433 H 47.6742 3.88645 -0.496202 0
M  V30 434 H 49.3712 3.91072 -0.886789 0
M  V30 435 H 45.9612 3.62223 -2.29113 0
M  V30 436 H 50.1452 3.73779 -3.26501 0
M  V30 437 H 45.4012 3.95653 -4.66121 0
M  V30 438 H 49.5752 4.08482 -5.64017 0
M  V30 439 H 47.2022 4.19027 -6.34288 0
M  V30 440 N 48.7773 0.814389 1.34928 0
M  V30 441 C 49.7073 0.244827 2.32213 0
M  V30 442 C 50.6883 -0.634024 1.57842 0
M  V30 443 O 51.8733 -0.562676 1.8587 0
M  V30 444 C 49.0033 -0.601106 3.42058 0
M  V30 445 C 47.9573 0.179896 4.27622 0
M  V30 446 C 47.2833 -0.788237 5.28858 0
M  V30 447 C 48.5833 1.38329 5.03649 0
M  V30 448 H 50.2773 1.05763 2.80097 0
M  V30 449 H 47.8233 0.510029 1.34665 0
M  V30 450 H 49.7763 -1.00968 4.09125 0
M  V30 451 H 48.5003 -1.44688 2.92802 0
M  V30 452 H 47.1593 0.569739 3.62146 0
M  V30 453 H 46.8073 -1.62973 4.75866 0
M  V30 454 H 46.5073 -0.269942 5.8698 0
M  V30 455 H 48.0313 -1.19485 5.98795 0
M  V30 456 H 49.4453 1.04918 5.63618 0
M  V30 457 H 47.8423 1.83662 5.71304 0
M  V30 458 H 48.9123 2.16592 4.33839 0
M  V30 459 N 50.2554 -1.46986 0.568584 0
M  V30 460 C 51.6664 -1.86188 0.138219 0
M  V30 461 C 52.0174 -1.47388 -1.29504 0
M  V30 462 O 51.1424 -0.88219 -1.97602 0
M  V30 463 C 51.7374 -3.3792 0.244065 0
M  V30 464 C 50.2964 -3.76171 -0.131335 0
M  V30 465 C 49.4434 -2.71027 0.586465 0
M  V30 466 H 52.3944 -1.38342 0.777645 0
M  V30 467 H 52.4154 -3.76729 -0.534351 0
M  V30 468 H 51.9274 -3.66128 1.28731 0
M  V30 469 H 50.0284 -3.5358 -1.17526 0
M  V30 470 H 50.1414 -4.78523 0.235146 0
M  V30 471 H 48.5054 -2.54684 0.0282722 0
M  V30 472 H 49.2884 -3.02077 1.63109 0
M  V30 473 N 51.7335 -0.305618 -1.54608 0
M  V30 474 C 53.0105 0.355652 -1.92339 0
M  V30 475 C 53.3905 1.71324 -1.23335 0
M  V30 476 O 52.7385 2.25473 -0.370702 0
M  V30 477 C 52.9485 0.46572 -3.45879 0
M  V30 478 C 54.2965 0.734426 -4.182 0
M  V30 479 O 55.3205 0.54935 -3.51938 0
M  V30 480 O 54.1795 1.09024 -5.35515 0
M  V30 481 H 51.2735 0.199666 -0.802535 0
M  V30 482 H 53.8195 -0.354017 -1.65966 0
M  V30 483 H 52.5915 -0.488461 -3.88239 0
M  V30 484 H 52.2145 1.22367 -3.78301 0
M  V30 485 N 53.2116 1.57565 -0.0334293 0
M  V30 486 C 54.4366 1.96689 0.657895 0
M  V30 487 C 54.8616 0.910057 1.64619 0
M  V30 488 O 54.2196 -0.128598 1.80843 0
M  V30 489 C 54.2676 3.34905 1.33683 0
M  V30 490 O 53.3716 3.31574 2.45219 0
M  V30 491 H 52.7126 0.641205 0.172489 0
M  V30 492 H 55.2426 2.04372 -0.0965621 0
M  V30 493 H 55.2526 3.71234 1.69262 0
M  V30 494 H 53.9276 4.11366 0.612411 0
M  V30 495 H 52.5046 3.06968 2.11719 0
M  V30 496 N 54.6897 -0.239769 1.55765 0
M  V30 497 C 55.9387 -0.964754 1.77131 0
M  V30 498 C 56.2517 -1.86213 0.59868 0
M  V30 499 O 57.4577 -2.6244 0.695522 0
M  V30 500 C 55.9137 -1.76552 3.1362 0
M  V30 501 C 55.5217 -0.915185 4.38553 0
M  V30 502 C 57.2657 -2.48281 3.44321 0
M  V30 503 C 55.1727 -1.71225 5.66071 0
M  V30 504 H 54.1027 -0.363953 0.660344 0
M  V30 505 H 56.7537 -0.219181 1.82186 0
M  V30 506 H 55.1357 -2.55331 3.02691 0
M  V30 507 H 56.3097 -0.169217 4.60489 0
M  V30 508 H 54.6247 -0.310889 4.15238 0
M  V30 509 H 57.2217 -3.08382 4.36812 0
M  V30 510 H 57.5647 -3.20256 2.65973 0
M  V30 511 H 58.0977 -1.76507 3.56497 0
M  V30 512 H 54.8367 -1.03612 6.4726 0
M  V30 513 H 54.3567 -2.43331 5.48224 0
M  V30 514 H 56.0357 -2.27758 6.05587 0
M  V30 515 N 56.1678 -1.49265 -0.50573 0
M  V30 516 C 57.3958 -1.62215 -1.28429 0
M  V30 517 C 57.8108 -0.291697 -1.86533 0
M  V30 518 O 57.1678 0.722233 -1.67601 0
M  V30 519 C 57.2188 -2.68735 -2.41793 0
M  V30 520 O 56.9398 -3.96619 -1.86078 0
M  V30 521 C 58.4408 -2.92346 -3.3324 0
M  V30 522 H 55.6608 -0.546239 -0.389697 0
M  V30 523 H 58.2048 -1.95265 -0.607609 0
M  V30 524 H 56.3598 -2.38476 -3.053 0
M  V30 525 H 56.7738 -4.55256 -2.60465 0
M  V30 526 H 58.2478 -3.70623 -4.09075 0
M  V30 527 H 58.7248 -2.02081 -3.89948 0
M  V30 528 H 59.3308 -3.24003 -2.75503 0
M  V30 529 N 57.6459 0.756429 -1.3826 0
M  V30 530 C 58.5759 1.88374 -1.37976 0
M  V30 531 C 59.5569 1.68311 -0.246082 0
M  V30 532 O 60.7419 1.88944 -0.44874 0
M  V30 533 C 57.8719 3.25864 -1.20125 0
M  V30 534 C 56.8259 3.60523 -2.30666 0
M  V30 535 C 56.1519 4.9672 -1.97923 0
M  V30 536 C 57.4519 3.65692 -3.72916 0
M  V30 537 H 59.1459 1.88869 -2.32312 0
M  V30 538 H 56.6919 0.907272 -1.11824 0
M  V30 539 H 58.6449 4.0438 -1.18552 0
M  V30 540 H 57.3689 3.25841 -0.222498 0
M  V30 541 H 56.0279 2.84324 -2.3142 0
M  V30 542 H 55.6759 4.93253 -0.985393 0
M  V30 543 H 55.3759 5.20878 -2.71955 0
M  V30 544 H 56.8999 5.77618 -1.97964 0
M  V30 545 H 58.3139 4.34328 -3.74208 0
M  V30 546 H 56.7109 4.01358 -4.4613 0
M  V30 547 H 57.7809 2.65987 -4.05436 0
M  V30 548 N 59.124 1.23083 0.984299 0
M  V30 549 C 60.349 1.088 1.76571 0
M  V30 550 C 60.774 -0.356657 1.84688 0
M  V30 551 O 60.132 -1.25788 1.30565 0
M  V30 552 C 60.18 1.71371 3.17277 0
M  V30 553 O 59.284 0.973213 4.00752 0
M  V30 554 H 58.625 0.381599 0.543395 0
M  V30 555 H 61.155 1.63057 1.23587 0
M  V30 556 H 61.165 1.76449 3.67872 0
M  V30 557 H 59.84 2.76493 3.10684 0
M  V30 558 H 58.417 0.999078 3.59267 0
M  V30 559 N 60.6021 -1.18246 1.0419 0
M  V30 560 C 61.8481 -1.88793 0.75689 0
M  V30 561 C 62.2031 -1.78909 -0.707767 0
M  V30 562 O 61.4961 -1.1794 -1.50999 0
M  V30 563 C 61.6901 -3.38082 1.15911 0
M  V30 564 C 61.5191 -3.62496 2.66133 0
M  V30 565 C 60.2891 -3.7979 3.33298 0
M  V30 566 C 62.4871 -3.62976 3.64353 0
M  V30 567 N 60.4691 -3.91955 4.72487 0
M  V30 568 C 61.8401 -3.80869 4.89222 0
M  V30 569 C 63.8951 -3.46071 3.57965 0
M  V30 570 C 62.5981 -3.83608 6.08471 0
M  V30 571 C 64.6241 -3.50093 4.76643 0
M  V30 572 C 63.9861 -3.68484 6.00332 0
M  V30 573 H 60.0851 -0.709406 0.32904 0
M  V30 574 H 62.6691 -1.42022 1.33183 0
M  V30 575 H 60.8401 -3.83544 0.612238 0
M  V30 576 H 62.5721 -3.96202 0.824989 0
M  V30 577 H 59.3271 -3.79224 2.83701 0
M  V30 578 H 59.7511 -4.01857 5.44831 0
M  V30 579 H 64.3931 -3.30797 2.63311 0
M  V30 580 H 62.1111 -3.97669 7.0348 0
M  V30 581 H 65.6971 -3.38285 4.73344 0
M  V30 582 H 64.5771 -3.71488 6.90627 0
M  V30 583 N 62.0802 -0.821533 -1.34494 0
M  V30 584 C 63.0272 -0.240397 -2.29545 0
M  V30 585 C 63.9972 0.634031 -1.53523 0
M  V30 586 O 65.1822 0.575966 -1.81899 0
M  V30 587 C 62.3222 0.592869 -3.39969 0
M  V30 588 C 61.4352 -0.30365 -4.30932 0
M  V30 589 C 60.5702 0.539049 -5.28458 0
M  V30 590 C 59.6092 -0.356942 -6.11058 0
M  V30 591 N 58.7462 0.446603 -7.00678 0
M  V30 592 H 63.5862 -1.05632 -2.7865 0
M  V30 593 H 61.1232 -0.532413 -1.37127 0
M  V30 594 H 63.0812 1.09129 -4.02675 0
M  V30 595 H 61.7112 1.37392 -2.92102 0
M  V30 596 H 60.7632 -0.920276 -3.691 0
M  V30 597 H 62.0752 -0.992661 -4.88823 0
M  V30 598 H 61.2292 1.102 -5.96608 0
M  V30 599 H 59.9682 1.26157 -4.71101 0
M  V30 600 H 58.9732 -0.932047 -5.41842 0
M  V30 601 H 60.1982 -1.07755 -6.70497 0
M  V30 602 H 58.1442 1.15282 -6.45791 0
M  V30 603 H 58.0612 -0.184048 -7.55776 0
M  V30 604 H 59.3292 0.992352 -7.73158 0
M  V30 605 N 63.5583 1.46682 -0.576371 0
M  V30 606 C 64.7883 2.06498 -0.0648694 0
M  V30 607 C 65.1963 1.42665 1.24271 0
M  V30 608 O 64.5393 0.523886 1.76071 0
M  V30 609 C 64.6013 3.5904 0.181816 0
M  V30 610 C 64.2653 4.45028 -1.0392 0
M  V30 611 C 65.2623 4.81959 -1.94966 0
M  V30 612 C 62.9473 4.86259 -1.25927 0
M  V30 613 C 64.9413 5.58942 -3.06371 0
M  V30 614 C 62.6283 5.63002 -2.37638 0
M  V30 615 C 63.6263 5.99257 -3.2769 0
M  V30 616 O 63.3143 6.7445 -4.37461 0
M  V30 617 H 63.0463 0.674028 -0.0515987 0
M  V30 618 H 65.6003 1.89393 -0.794951 0
M  V30 619 H 63.8303 3.74429 0.966436 0
M  V30 620 H 65.5193 4.00806 0.641047 0
M  V30 621 H 66.2853 4.50689 -1.79177 0
M  V30 622 H 62.1643 4.57494 -0.567448 0
M  V30 623 H 65.7083 5.87158 -3.76684 0
M  V30 624 H 61.6053 5.93686 -2.53392 0
M  V30 625 H 62.3733 6.92867 -4.35749 0
M  V30 626 N 65.0364 0.313813 1.54444 0
M  V30 627 C 65.9834 -0.55655 2.23989 0
M  V30 628 C 66.9534 -1.11943 1.22711 0
M  V30 629 O 68.1384 -1.16158 1.51367 0
M  V30 630 C 65.2784 -1.71635 2.99392 0
M  V30 631 C 64.3914 -1.18364 4.15468 0
M  V30 632 C 63.5264 -2.30834 4.78424 0
M  V30 633 C 62.5654 -1.74762 5.86622 0
M  V30 634 N 61.7024 -2.80855 6.43479 0
M  V30 635 H 66.5424 0.0430893 2.97969 0
M  V30 636 H 64.0794 0.0330359 1.47063 0
M  V30 637 H 66.0374 -2.39868 3.41349 0
M  V30 638 H 64.6674 -2.28742 2.27765 0
M  V30 639 H 63.7194 -0.393163 3.78363 0
M  V30 640 H 65.0314 -0.733262 4.93381 0
M  V30 641 H 64.1854 -3.0699 5.23299 0
M  V30 642 H 62.9244 -2.79204 3.99871 0
M  V30 643 H 61.9294 -0.970995 5.41158 0
M  V30 644 H 63.1544 -1.2728 6.67066 0
M  V30 645 H 61.1004 -3.28535 5.67804 0
M  V30 646 H 61.0174 -2.40351 7.16776 0
M  V30 647 H 62.2854 -3.5687 6.93011 0
M  V30 648 N 66.5145 -1.57545 0.0417849 0
M  V30 649 C 67.4625 -2.12148 -0.953723 0
M  V30 650 C 68.4565 -1.05104 -1.32852 0
M  V30 651 O 69.6625 -1.23524 -1.30927 0
M  V30 652 H 66.0375 -0.677957 -0.325389 0
M  V30 653 H 68.0085 -2.94707 -0.467991 0
M  V30 654 C 66.7575 -2.6739 -2.22257 0
M  V30 655 H 66.0805 -3.49413 -1.94295 0
M  V30 656 H 67.5205 -3.09227 -2.90094 0
M  V30 657 C 65.9795 -1.60723 -2.96091 0
M  V30 658 O 66.5095 -1.01449 -3.88679 0
M  V30 659 N 64.7155 -1.32466 -2.58652 0
M  V30 660 H 64.2625 -1.80856 -1.83437 0
M  V30 661 H 64.2205 -0.61325 -3.08361 0
M  V30 662 N 67.9926 0.231505 -1.5589 0
M  V30 663 C 68.9406 1.30649 -1.92441 0
M  V30 664 C 69.9346 1.49037 -0.805254 0
M  V30 665 O 71.1406 1.50329 -0.990007 0
M  V30 666 H 67.5156 0.437812 -0.611412 0
M  V30 667 H 69.4866 0.970973 -2.82161 0
M  V30 668 C 68.2356 2.65179 -2.24889 0
M  V30 669 H 67.5586 2.51835 -3.10514 0
M  V30 670 H 68.9986 3.39234 -2.54355 0
M  V30 671 C 67.4576 3.19439 -1.07054 0
M  V30 672 O 67.9876 4.00371 -0.326499 0
M  V30 673 N 66.1936 2.77675 -0.85703 0
M  V30 674 H 65.7406 2.11969 -1.46379 0
M  V30 675 H 65.6986 3.14321 -0.0703223 0
M  V30 676 N 69.4707 1.49531 0.497807 0
M  V30 677 C 70.6957 1.63159 1.28039 0
M  V30 678 C 71.1207 0.30418 1.85624 0
M  V30 679 O 70.4787 -0.728618 1.66015 0
M  V30 680 C 70.5267 2.70537 2.38416 0
M  V30 681 O 69.6307 2.29931 3.42353 0
M  V30 682 H 68.9717 0.546001 0.377861 0
M  V30 683 H 71.5017 1.9574 0.59558 0
M  V30 684 H 71.5117 2.92802 2.84132 0
M  V30 685 H 70.1867 3.6689 1.95869 0
M  V30 686 H 68.7637 2.18009 3.02533 0
M  V30 687 N 70.9488 -0.749086 1.3866 0
M  V30 688 C 72.2258 -1.4992 1.25632 0
M  V30 689 C 72.6058 -2.10633 -0.140317 0
M  V30 690 O 71.9538 -1.97437 -1.15025 0
M  V30 691 C 72.1638 -2.56195 2.36992 0
M  V30 692 C 73.5118 -3.22972 2.75634 0
M  V30 693 O 74.5358 -2.66502 2.36337 0
M  V30 694 O 73.3948 -4.25122 3.43415 0
M  V30 695 H 70.4888 -0.665067 0.491544 0
M  V30 696 H 73.0348 -0.784113 1.50498 0
M  V30 697 H 71.8068 -2.09612 3.30422 0
M  V30 698 H 71.4298 -3.35279 2.13714 0
M  V30 699 N 72.4269 -1.23603 -0.977757 0
M  V30 700 C 73.6759 -1.06377 -1.71368 0
M  V30 701 C 73.9889 0.399062 -1.91486 0
M  V30 702 O 75.1949 0.691312 -2.62551 0
M  V30 703 C 73.6509 -1.85512 -3.08404 0
M  V30 704 C 73.2589 -3.36141 -2.96164 0
M  V30 705 C 75.0029 -1.76783 -3.85938 0
M  V30 706 C 72.9099 -4.07659 -4.28449 0
M  V30 707 H 71.8399 -0.394452 -0.642591 0
M  V30 708 H 74.4909 -1.47594 -1.09034 0
M  V30 709 H 72.8729 -1.37103 -3.71509 0
M  V30 710 H 74.0469 -3.92056 -2.42133 0
M  V30 711 H 72.3619 -3.45712 -2.32104 0
M  V30 712 H 74.9589 -2.27526 -4.83876 0
M  V30 713 H 75.3019 -0.731116 -4.0983 0
M  V30 714 H 75.8349 -2.22818 -3.2954 0
M  V30 715 H 72.5739 -5.11648 -4.09752 0
M  V30 716 H 72.0939 -3.5653 -4.82334 0
M  V30 717 H 73.7729 -4.141 -4.97122 0
M  V30 718 N 73.905 1.17692 -1.04816 0
M  V30 719 C 75.13 1.92327 -0.776207 0
M  V30 720 C 75.555 1.76082 0.661581 0
M  V30 721 O 74.913 1.076 1.45917 0
M  V30 722 C 74.961 3.41539 -1.15687 0
M  V30 723 O 74.065 4.11402 -0.286775 0
M  V30 724 H 73.406 0.599735 -0.284981 0
M  V30 725 H 75.936 1.49201 -1.4 0
M  V30 726 H 75.946 3.92269 -1.12202 0
M  V30 727 H 74.621 3.52684 -2.20425 0
M  V30 728 H 73.198 3.70939 -0.381903 0
M  V30 729 N 75.3831 0.828654 1.34056 0
M  V30 730 C 76.6081 0.431637 2.02859 0
M  V30 731 C 77.0331 -0.956339 1.61975 0
M  V30 732 O 76.3911 -1.62338 0.807228 0
M  V30 733 C 76.4391 0.548323 3.56407 0
M  V30 734 O 75.5431 -0.429556 4.10157 0
M  V30 735 H 74.8841 0.176886 0.640006 0
M  V30 736 H 77.4141 1.12066 1.71179 0
M  V30 737 H 77.4241 0.426196 4.05768 0
M  V30 738 H 76.0991 1.5606 3.8551 0
M  V30 739 H 74.6761 -0.265836 3.71951 0
M  V30 740 N 76.8612 -1.46375 0.584142 0
M  V30 741 C 78.0892 -2.06761 0.0759296 0
M  V30 742 C 78.5042 -1.43266 -1.22965 0
M  V30 743 O 77.8612 -0.538458 -1.74376 0
M  V30 744 C 77.9122 -3.61375 -0.0950384 0
M  V30 745 O 77.6332 -4.22495 1.15887 0
M  V30 746 C 79.1342 -4.38693 -0.637434 0
M  V30 747 H 76.3542 -0.668479 0.0581075 0
M  V30 748 H 78.8982 -1.8798 0.805218 0
M  V30 749 H 77.0532 -3.79578 -0.774554 0
M  V30 750 H 77.4672 -5.15385 0.973598 0
M  V30 751 H 78.9412 -5.47464 -0.706237 0
M  V30 752 H 79.4182 -4.06836 -1.65472 0
M  V30 753 H 80.0242 -4.25299 0.00725967 0
M  V30 754 N 78.3393 -0.321999 -1.54275 0
M  V30 755 C 79.7553 0.0306999 -1.5957 0
M  V30 756 C 79.9553 1.50614 -1.33857 0
M  V30 757 O 79.0113 2.2619 -1.12223 0
M  V30 758 C 80.3243 -0.386122 -2.98211 0
M  V30 759 C 81.8723 -0.336647 -3.11184 0
M  V30 760 C 82.3473 -0.728607 -4.52167 0
M  V30 761 N 83.8383 -0.681952 -4.58152 0
M  V30 762 C 84.5733 -0.957449 -5.6535 0
M  V30 763 N 84.0693 -1.3 -6.80494 0
M  V30 764 N 85.8623 -0.883113 -5.55119 0
M  V30 765 H 78.0133 -1.28332 -1.69247 0
M  V30 766 H 80.2763 -0.521716 -0.791528 0
M  V30 767 H 79.9823 -1.41404 -3.22022 0
M  V30 768 H 79.8563 0.249662 -3.76373 0
M  V30 769 H 82.2433 0.682058 -2.8711 0
M  V30 770 H 82.3243 -1.00734 -2.3513 0
M  V30 771 H 81.9683 -1.74522 -4.76974 0
M  V30 772 H 81.8983 -0.0356152 -5.26588 0
M  V30 773 H 84.3893 -0.428985 -3.75457 0
M  V30 774 H 84.7023 -1.49563 -7.58189 0
M  V30 775 H 83.0473 -1.33824 -6.81994 0
M  V30 776 H 86.2383 -0.615001 -4.64042 0
M  V30 777 H 86.4113 -1.10118 -6.38575 0
M  V30 778 N 79.8174 1.5752 -0.0501392 0
M  V30 779 C 81.0654 1.9227 0.622642 0
M  V30 780 C 81.3864 0.929083 1.71444 0
M  V30 781 O 80.6564 -0.0262186 1.95882 0
M  V30 782 H 79.2364 0.709739 0.232981 0
M  V30 783 H 81.8984 1.94628 -0.102898 0
M  V30 784 H 80.9944 2.93479 1.06191 0
M  V30 785 N 81.2955 -0.223234 1.56011 0
M  V30 786 C 82.5425 -0.947875 1.78946 0
M  V30 787 C 82.8705 -1.844 0.618608 0
M  V30 788 O 82.1255 -1.91629 -0.397093 0
M  V30 789 C 82.4245 -1.81948 3.0762 0
M  V30 790 C 82.0905 -1.07672 4.37856 0
M  V30 791 C 80.7525 -0.871544 4.73242 0
M  V30 792 C 83.1045 -0.552081 5.18268 0
M  V30 793 C 80.4325 -0.129791 5.86556 0
M  V30 794 C 82.7845 0.17632 6.32354 0
M  V30 795 C 81.4485 0.39277 6.66343 0
M  V30 796 H 80.7185 -0.346852 0.654809 0
M  V30 797 H 83.3655 -0.216171 1.90276 0
M  V30 798 H 81.6705 -2.61899 2.91404 0
M  V30 799 H 83.3675 -2.38227 3.22566 0
M  V30 800 H 79.9575 -1.24662 4.1007 0
M  V30 801 H 84.1415 -0.698076 4.91366 0
M  V30 802 H 79.3975 0.048153 6.11381 0
M  V30 803 H 83.5715 0.590367 6.93893 0
M  V30 804 H 81.1985 0.969466 7.53993 0
M  V30 805 N 82.7736 -1.49793 -0.48987 0
M  V30 806 C 84.1846 -1.52914 -1.07118 0
M  V30 807 C 84.5356 -0.321738 -1.93544 0
M  V30 808 O 83.6606 0.567338 -2.08831 0
M  V30 809 C 84.2556 -2.771 -1.94938 0
M  V30 810 C 82.8146 -2.82963 -2.48212 0
M  V30 811 C 81.9616 -2.46972 -1.26096 0
M  V30 812 H 84.9126 -1.56329 -0.273289 0
M  V30 813 H 84.9336 -2.57892 -2.79771 0
M  V30 814 H 84.4456 -3.64959 -1.32009 0
M  V30 815 H 82.5466 -1.99411 -3.14748 0
M  V30 816 H 82.6596 -3.85406 -2.84603 0
M  V30 817 H 81.0236 -1.98994 -1.58976 0
M  V30 818 H 81.8066 -3.37118 -0.648581 0
M  V30 819 N 84.2517 0.741722 -1.39055 0
M  V30 820 C 85.4767 1.53607 -1.39354 0
M  V30 821 C 85.9017 1.88096 0.0116905 0
M  V30 822 O 85.2597 1.5143 0.996924 0
M  V30 823 C 85.3077 2.80441 -2.26682 0
M  V30 824 O 84.4117 3.76088 -1.69208 0
M  V30 825 H 83.7527 0.464142 -0.474835 0
M  V30 826 H 86.2827 0.915665 -1.82967 0
M  V30 827 H 86.2927 3.29246 -2.40959 0
M  V30 828 H 84.9677 2.5467 -3.2881 0
M  V30 829 H 83.5447 3.34833 -1.64138 0
M  V30 830 N 85.7298 1.2412 0.971189 0
M  V30 831 C 86.9758 1.08041 1.71625 0
M  V30 832 C 87.3088 -0.380407 1.90438 0
M  V30 833 O 86.5838 -1.28127 1.46334 0
M  V30 834 C 86.8668 1.81682 3.10908 0
M  V30 835 C 86.7198 3.35493 2.99608 0
M  V30 836 C 88.0388 1.58671 4.10501 0
M  V30 837 H 85.1578 0.39388 0.622919 0
M  V30 838 H 87.7998 1.52743 1.13003 0
M  V30 839 H 85.9498 1.43684 3.60953 0
M  V30 840 H 87.6218 3.83068 2.57015 0
M  V30 841 H 85.8648 3.64052 2.35899 0
M  V30 842 H 86.5358 3.82217 3.98264 0
M  V30 843 H 89.0118 1.91719 3.69301 0
M  V30 844 H 87.8878 2.1266 5.06031 0
M  V30 845 H 88.1488 0.524161 4.38982 0
M  V30 846 N 87.2079 -1.17134 1.05439 0
M  V30 847 C 88.1379 -2.2342 0.678649 0
M  V30 848 C 89.1189 -1.66971 -0.32476 0
M  V30 849 O 90.3039 -1.93149 -0.201802 0
M  V30 850 C 87.4339 -3.47256 0.0552099 0
M  V30 851 C 86.3879 -4.16543 0.98365 0
M  V30 852 C 85.7139 -5.34231 0.223961 0
M  V30 853 C 87.0139 -4.68495 2.3089 0
M  V30 854 H 88.7079 -2.55105 1.56722 0
M  V30 855 H 86.2539 -1.2262 0.754998 0
M  V30 856 H 88.2069 -4.20828 -0.21946 0
M  V30 857 H 86.9309 -3.14846 -0.868319 0
M  V30 858 H 85.5899 -3.44887 1.24293 0
M  V30 859 H 85.2379 -4.98071 -0.702412 0
M  V30 860 H 84.9379 -5.81527 0.842627 0
M  V30 861 H 86.4619 -6.10585 -0.0433671 0
M  V30 862 H 87.8759 -5.33691 2.09396 0
M  V30 863 H 86.2729 -5.26379 2.88176 0
M  V30 864 H 87.3429 -3.85169 2.94572 0
M  V30 865 N 88.686 -0.835752 -1.33615 0
M  V30 866 C 90.102 -0.523139 -1.50783 0
M  V30 867 C 90.302 0.950171 -1.77691 0
M  V30 868 O 89.358 1.73411 -1.83534 0
M  V30 869 C 90.671 -1.39378 -2.66448 0
M  V30 870 C 92.219 -1.39223 -2.80332 0
M  V30 871 C 92.694 -2.24765 -3.99055 0
M  V30 872 N 94.185 -2.22458 -4.06284 0
M  V30 873 C 94.92 -2.85386 -4.97336 0
M  V30 874 N 94.416 -3.57354 -5.93523 0
M  V30 875 N 96.209 -2.74872 -4.90308 0
M  V30 876 H 88.36 -1.78952 -1.14411 0
M  V30 877 H 90.623 -0.763297 -0.562212 0
M  V30 878 H 90.329 -2.44061 -2.53234 0
M  V30 879 H 90.203 -1.0676 -3.61776 0
M  V30 880 H 92.59 -0.353136 -2.92979 0
M  V30 881 H 92.671 -1.75846 -1.85773 0
M  V30 882 H 92.315 -3.28732 -3.87167 0
M  V30 883 H 92.245 -1.85485 -4.92852 0
M  V30 884 H 94.736 -1.70119 -3.37443 0
M  V30 885 H 95.049 -4.02584 -6.59656 0
M  V30 886 H 93.394 -3.61461 -5.93608 0
M  V30 887 H 96.585 -2.18213 -4.14126 0
M  V30 888 H 96.758 -3.24199 -5.61069 0
M  V30 889 N 90.1641 1.46063 -0.591896 0
M  V30 890 C 91.4121 2.01938 -0.0808391 0
M  V30 891 C 91.7331 1.46475 1.28725 0
M  V30 892 O 91.0031 0.652944 1.84698 0
M  V30 893 H 89.5831 0.746516 -0.0268938 0
M  V30 894 H 92.2451 1.79055 -0.769752 0
M  V30 895 H 91.3411 3.12094 -0.0187578 0
M  V30 896 N 91.6422 0.330177 1.54103 0
M  V30 897 C 92.8902 -0.269871 2.0029 0
M  V30 898 C 93.2112 -1.52133 1.21986 0
M  V30 899 O 92.4812 -1.93212 0.323438 0
M  V30 900 H 91.0612 -0.10271 0.739905 0
M  V30 901 H 93.7232 0.448249 1.89675 0
M  V30 902 H 92.8192 -0.52166 3.07709 0
M  V30 903 N 93.1203 -1.57491 0.0584922 0
M  V30 904 C 94.0673 -2.11958 -0.913376 0
M  V30 905 C 95.0373 -1.02875 -1.30407 0
M  V30 906 O 96.2223 -1.30464 -1.39226 0
M  V30 907 C 93.3623 -2.67497 -2.18035 0
M  V30 908 C 92.4753 -3.90691 -1.84349 0
M  V30 909 C 91.6103 -4.3452 -3.05559 0
M  V30 910 C 90.6493 -5.50395 -2.67827 0
M  V30 911 N 89.7863 -5.89244 -3.81754 0
M  V30 912 H 94.6263 -2.94704 -0.442017 0
M  V30 913 H 92.1633 -1.45643 -0.206545 0
M  V30 914 H 94.1213 -2.978 -2.92183 0
M  V30 915 H 92.7513 -1.87537 -2.62735 0
M  V30 916 H 91.8033 -3.66934 -1.00319 0
M  V30 917 H 93.1153 -4.7489 -1.5258 0
M  V30 918 H 92.2693 -4.66414 -3.87998 0
M  V30 919 H 91.0083 -3.49147 -3.40511 0
M  V30 920 H 90.0133 -5.18165 -1.83806 0
M  V30 921 H 91.2383 -6.3749 -2.34059 0
M  V30 922 H 89.1843 -5.06823 -4.16493 0
M  V30 923 H 89.1013 -6.68151 -3.53708 0
M  V30 924 H 90.3693 -6.25756 -4.64811 0
M  V30 925 N 94.5984 0.214957 -1.56127 0
M  V30 926 C 95.8284 0.953707 -1.8327 0
M  V30 927 C 96.2364 1.78181 -0.636262 0
M  V30 928 O 95.5794 1.79191 0.404516 0
M  V30 929 C 95.6414 1.91516 -3.0424 0
M  V30 930 C 95.3054 1.27094 -4.38972 0
M  V30 931 C 96.3024 0.657575 -5.15725 0
M  V30 932 C 93.9874 1.28073 -4.85698 0
M  V30 933 C 95.9814 0.0625968 -6.37369 0
M  V30 934 C 93.6684 0.681914 -6.07283 0
M  V30 935 C 94.6664 0.0739046 -6.8296 0
M  V30 936 O 94.3544 -0.515582 -8.02245 0
M  V30 937 H 94.0864 0.284764 -0.613095 0
M  V30 938 H 96.6404 0.233283 -2.04071 0
M  V30 939 H 94.8704 2.67475 -2.79274 0
M  V30 940 H 96.5594 2.52001 -3.18198 0
M  V30 941 H 97.3254 0.642288 -4.80728 0
M  V30 942 H 93.2044 1.74337 -4.26764 0
M  V30 943 H 96.7484 -0.412593 -6.96379 0
M  V30 944 H 92.6454 0.694636 -6.41752 0
M  V30 945 H 93.4134 -0.410544 -8.1747 0
M  V30 946 N 96.0765 1.50051 0.48192 0
M  V30 947 C 97.0395 1.67584 1.5636 0
M  V30 948 C 98.0395 0.546894 1.51214 0
M  V30 949 O 99.2295 0.813725 1.54026 0
M  V30 950 C 96.3615 1.691 2.96003 0
M  V30 951 H 97.5545 2.64078 1.42136 0
M  V30 952 H 95.1075 1.39369 0.707533 0
M  V30 953 H 95.8425 0.742589 3.15684 0
M  V30 954 H 95.6275 2.51105 3.01146 0
M  V30 955 H 97.1175 1.84656 3.74556 0
M  V30 956 N 97.5546 -0.734337 1.39446 0
M  V30 957 C 98.5176 -1.83004 1.37994 0
M  V30 958 C 99.5176 -1.58397 0.276938 0
M  V30 959 O 100.708 -1.65785 0.534875 0
M  V30 960 C 97.8396 -3.20802 1.1532 0
M  V30 961 H 99.0326 -1.85694 2.35494 0
M  V30 962 H 96.5856 -0.938059 1.25021 0
M  V30 963 H 97.3206 -3.23772 0.185036 0
M  V30 964 H 97.1056 -3.4006 1.95197 0
M  V30 965 H 98.5956 -4.00862 1.17046 0
M  V30 966 N 99.0327 -1.24633 -0.964593 0
M  V30 967 C 100.261 -1.11501 -1.74285 0
M  V30 968 C 100.676 0.332165 -1.85855 0
M  V30 969 O 100.033 1.22903 -1.34911 0
M  V30 970 C 100.084 -1.75258 -3.16175 0
M  V30 971 O 99.8047 -3.14318 -3.05182 0
M  V30 972 C 101.306 -1.67776 -4.10324 0
M  V30 973 H 98.5257 -0.389407 -0.546446 0
M  V30 974 H 101.07 -1.64801 -1.21083 0
M  V30 975 H 99.2247 -1.25954 -3.66353 0
M  V30 976 H 99.6387 -3.4551 -3.94618 0
M  V30 977 H 101.113 -2.17064 -5.0753 0
M  V30 978 H 101.59 -0.639584 -4.34518 0
M  V30 979 H 102.196 -2.16522 -3.66058 0
M  V30 980 N 100.511 1.16574 -1.06058 0
M  V30 981 C 101.736 1.91493 -0.796562 0
M  V30 982 C 102.161 1.76773 0.642868 0
M  V30 983 O 101.519 1.09142 1.44768 0
M  V30 984 C 101.567 3.40293 -1.19303 0
M  V30 985 O 100.671 4.11074 -0.330394 0
M  V30 986 H 100.012 0.596678 -0.291326 0
M  V30 987 H 102.542 1.47708 -1.41575 0
M  V30 988 H 102.552 3.91057 -1.16356 0
M  V30 989 H 101.227 3.50326 -2.24153 0
M  V30 990 H 99.8038 3.70513 -0.421225 0
M  V30 991 N 101.989 0.842826 1.3317 0
M  V30 992 C 102.921 0.236245 2.27979 0
M  V30 993 C 103.934 -0.585282 1.51915 0
M  V30 994 O 105.123 -0.411705 1.73687 0
M  V30 995 C 102.223 -0.685717 3.3189 0
M  V30 996 C 101.396 0.0973448 4.37292 0
M  V30 997 C 100.455 -0.748565 5.20848 0
M  V30 998 O 99.4809 -0.186339 5.68895 0
M  V30 999 N 100.683 -2.06527 5.42519 0
M  V30 1000 H 103.448 1.05088 2.80672 0
M  V30 1001 H 101.009 0.701667 1.45905 0
M  V30 1002 H 103.001 -1.25669 3.84694 0
M  V30 1003 H 101.571 -1.40105 2.79445 0
M  V30 1004 H 100.791 0.849706 3.84933 0
M  V30 1005 H 102.079 0.635643 5.04814 0
M  V30 1006 H 101.477 -2.54554 5.05192 0
M  V30 1007 H 100.034 -2.58464 5.98364 0
M  V30 1008 N 103.467 -1.45747 0.599634 0
M  V30 1009 C 104.713 -2.02592 0.0918643 0
M  V30 1010 C 105.046 -1.46806 -1.27128 0
M  V30 1011 O 104.321 -0.639658 -1.83681 0
M  V30 1012 C 104.604 -3.60073 0.0443398 0
M  V30 1013 C 104.457 -4.26208 1.43759 0
M  V30 1014 C 105.776 -4.35309 -0.647608 0
M  V30 1015 H 102.895 -0.736175 0.034857 0
M  V30 1016 H 105.537 -1.73694 0.770081 0
M  V30 1017 H 103.687 -3.84823 -0.533224 0
M  V30 1018 H 105.359 -4.12668 2.06162 0
M  V30 1019 H 103.602 -3.84916 2.00056 0
M  V30 1020 H 104.273 -5.35069 1.35665 0
M  V30 1021 H 106.749 -4.15805 -0.156776 0
M  V30 1022 H 105.625 -5.45038 -0.649942 0
M  V30 1023 H 105.886 -4.07598 -1.71219 0
M  V30 1024 N 104.945 -0.338344 -1.53925 0
M  V30 1025 C 105.875 0.51328 -2.27789 0
M  V30 1026 C 106.856 1.107 -1.29149 0
M  V30 1027 O 108.041 1.12937 -1.57984 0
M  V30 1028 C 105.171 1.66697 -3.04679 0
M  V30 1029 C 104.125 1.20183 -4.1078 0
M  V30 1030 C 103.451 2.44363 -4.75595 0
M  V30 1031 C 104.751 0.30605 -5.21403 0
M  V30 1032 H 106.445 -0.102883 -2.99223 0
M  V30 1033 H 103.991 -0.0509219 -1.4391 0
M  V30 1034 H 105.944 2.26915 -3.55088 0
M  V30 1035 H 104.668 2.30995 -2.30887 0
M  V30 1036 H 103.327 0.622499 -3.61276 0
M  V30 1037 H 102.975 3.07057 -3.98403 0
M  V30 1038 H 102.675 2.13925 -5.47275 0
M  V30 1039 H 104.199 3.05317 -5.28786 0
M  V30 1040 H 105.613 0.814929 -5.67478 0
M  V30 1041 H 104.01 0.0937929 -6.00027 0
M  V30 1042 H 105.08 -0.65921 -4.80398 0
M  V30 1043 N 106.423 1.57458 -0.0668435 0
M  V30 1044 C 107.353 2.15468 0.899764 0
M  V30 1045 C 108.334 1.08042 1.31381 0
M  V30 1046 O 109.519 1.36054 1.38574 0
M  V30 1047 C 106.649 2.71232 2.16911 0
M  V30 1048 C 105.603 3.83781 1.89463 0
M  V30 1049 C 104.929 4.26127 3.22986 0
M  V30 1050 C 106.229 5.08238 1.20381 0
M  V30 1051 H 107.923 2.96488 0.416529 0
M  V30 1052 H 105.469 1.4262 0.198908 0
M  V30 1053 H 107.422 3.10458 2.84945 0
M  V30 1054 H 106.146 1.87426 2.67468 0
M  V30 1055 H 104.805 3.45051 1.23836 0
M  V30 1056 H 104.453 3.39249 3.71374 0
M  V30 1057 H 104.153 5.01993 3.05413 0
M  V30 1058 H 105.677 4.67966 3.92225 0
M  V30 1059 H 107.091 5.44811 1.78475 0
M  V30 1060 H 105.488 5.89349 1.13083 0
M  V30 1061 H 106.558 4.84558 0.182153 0
M  V30 1062 N 107.901 -0.206675 1.56239 0
M  V30 1063 C 109.312 -0.772383 1.69974 0
M  V30 1064 C 109.663 -1.84353 0.671436 0
M  V30 1065 O 108.788 -2.15695 -0.174491 0
M  V30 1066 C 109.383 -1.40779 3.08167 0
M  V30 1067 C 107.942 -1.92072 3.23706 0
M  V30 1068 C 107.089 -0.786347 2.65917 0
M  V30 1069 H 110.04 0.0182223 1.5869 0
M  V30 1070 H 110.061 -2.27696 3.04852 0
M  V30 1071 H 109.573 -0.627958 3.82986 0
M  V30 1072 H 107.674 -2.7281 2.53782 0
M  V30 1073 H 107.787 -2.09046 4.31087 0
M  V30 1074 H 106.151 -1.1976 2.24788 0
M  V30 1075 H 106.934 -0.0189416 3.43295 0
M  V30 1076 N 109.379 -1.50304 -0.473955 0
M  V30 1077 C 110.604 -1.65175 -1.25427 0
M  V30 1078 C 111.029 -0.333673 -1.85117 0
M  V30 1079 O 110.387 0.702114 -1.67153 0
M  V30 1080 C 110.435 -2.74295 -2.34082 0
M  V30 1081 O 109.539 -2.35349 -3.38651 0
M  V30 1082 H 108.88 -0.551944 -0.369126 0
M  V30 1083 H 111.41 -1.96662 -0.564364 0
M  V30 1084 H 111.42 -2.97285 -2.79438 0
M  V30 1085 H 110.095 -3.69959 -1.90008 0
M  V30 1086 H 108.672 -2.22794 -2.99027 0
M  V30 1087 N 110.857 0.726932 -1.39834 0
M  V30 1088 C 111.804 1.841 -1.39197 0
M  V30 1089 C 112.774 1.642 -0.250502 0
M  V30 1090 O 113.959 1.85494 -0.446846 0
M  V30 1091 C 111.099 3.21697 -1.24919 0
M  V30 1092 C 110.212 3.53247 -2.48678 0
M  V30 1093 C 109.347 4.80289 -2.26928 0
M  V30 1094 C 108.386 5.04707 -3.4632 0
M  V30 1095 N 107.523 6.22956 -3.23836 0
M  V30 1096 H 112.363 1.83979 -2.34427 0
M  V30 1097 H 109.9 0.898876 -1.16442 0
M  V30 1098 H 111.858 4.01137 -1.1465 0
M  V30 1099 H 110.488 3.21076 -0.333153 0
M  V30 1100 H 109.54 2.68447 -2.69519 0
M  V30 1101 H 110.852 3.67205 -3.37582 0
M  V30 1102 H 110.006 5.67725 -2.13947 0
M  V30 1103 H 108.745 4.68519 -1.35431 0
M  V30 1104 H 107.75 4.1573 -3.5979 0
M  V30 1105 H 108.975 5.18357 -4.38729 0
M  V30 1106 H 106.921 6.12459 -2.35011 0
M  V30 1107 H 106.838 6.37539 -4.063 0
M  V30 1108 H 108.106 7.1321 -3.14566 0
M  V30 1109 N 112.336 1.25143 0.95797 0
M  V30 1110 C 113.613 1.00472 1.67823 0
M  V30 1111 C 113.993 -0.470056 2.058 0
M  V30 1112 O 113.341 -1.44663 1.76875 0
M  V30 1113 C 113.551 1.9372 2.90299 0
M  V30 1114 C 114.899 2.21371 3.62326 0
M  V30 1115 O 115.923 1.91451 3.00375 0
M  V30 1116 O 114.782 2.72231 4.7387 0
M  V30 1117 H 111.876 0.380752 0.734137 0
M  V30 1118 H 114.422 1.36283 1.01119 0
M  V30 1119 H 113.194 2.93316 2.59001 0
M  V30 1120 H 112.817 1.58286 3.64735 0
M  V30 1121 N 113.814 -1.1601 1.06675 0
M  V30 1122 C 115.06 -1.86909 0.786945 0
M  V30 1123 C 115.393 -1.81717 -0.685018 0
M  V30 1124 O 114.668 -1.23551 -1.50218 0
M  V30 1125 C 114.951 -3.36313 1.28707 0
M  V30 1126 C 114.804 -3.50175 2.82308 0
M  V30 1127 C 116.123 -4.3084 0.898071 0
M  V30 1128 H 113.242 -0.678677 0.287343 0
M  V30 1129 H 115.884 -1.36336 1.32334 0
M  V30 1130 H 114.034 -3.79513 0.830768 0
M  V30 1131 H 115.706 -3.15886 3.36175 0
M  V30 1132 H 113.949 -2.91959 3.20847 0
M  V30 1133 H 114.62 -4.55116 3.12368 0
M  V30 1134 H 117.096 -3.95561 1.29114 0
M  V30 1135 H 115.972 -5.33876 1.27543 0
M  V30 1136 H 116.233 -4.41662 -0.196651 0
M  V30 1137 N 115.292 -0.849877 -1.32721 0
M  V30 1138 C 116.225 -0.235903 -2.26977 0
M  V30 1139 C 117.203 0.623355 -1.50177 0
M  V30 1140 O 118.387 0.581207 -1.79316 0
M  V30 1141 C 115.514 0.667712 -3.32053 0
M  V30 1142 C 114.56 -0.11753 -4.26338 0
M  V30 1143 S 115.393 -1.48277 -5.14562 0
M  V30 1144 C 116.549 -0.584741 -6.23163 0
M  V30 1145 H 116.782 -1.03495 -2.78704 0
M  V30 1146 H 114.315 -0.64724 -1.40179 0
M  V30 1147 H 116.273 1.18343 -3.93072 0
M  V30 1148 H 114.934 1.44052 -2.7912 0
M  V30 1149 H 114.127 0.57051 -5.00761 0
M  V30 1150 H 113.729 -0.564668 -3.69713 0
M  V30 1151 H 116.021 0.212968 -6.77165 0
M  V30 1152 H 116.964 -1.29947 -6.96074 0
M  V30 1153 H 117.372 -0.161202 -5.6427 0
M  V30 1154 N 116.77 1.45427 -0.607355 0
M  V30 1155 C 117.702 2.2871 0.149752 0
M  V30 1156 C 118.715 1.39937 0.831958 0
M  V30 1157 O 119.904 1.64313 0.697385 0
M  V30 1158 C 117.004 3.15673 1.23304 0
M  V30 1159 C 116.177 4.32722 0.637996 0
M  V30 1160 C 115.236 5.00895 1.61215 0
M  V30 1161 O 114.262 5.57697 1.13854 0
M  V30 1162 N 115.464 5.00159 2.94655 0
M  V30 1163 H 118.229 2.94328 -0.564882 0
M  V30 1164 H 115.79 1.55612 -0.446823 0
M  V30 1165 H 117.782 3.58144 1.88454 0
M  V30 1166 H 116.352 2.51965 1.8502 0
M  V30 1167 H 115.572 3.93734 -0.191572 0
M  V30 1168 H 116.86 5.08321 0.220665 0
M  V30 1169 H 116.258 4.553 3.35735 0
M  V30 1170 H 114.815 5.46495 3.55228 0
M  V30 1171 N 118.248 0.346503 1.53744 0
M  V30 1172 C 119.496 -0.248612 2.00565 0
M  V30 1173 C 119.817 -1.5083 1.23593 0
M  V30 1174 O 119.087 -1.92858 0.343912 0
M  V30 1175 H 117.667 -0.0948564 0.740953 0
M  V30 1176 H 120.329 0.468341 1.89189 0
M  V30 1177 H 119.425 -0.488994 3.08245 0
M  V30 1178 N 119.726 -1.57421 0.075193 0
M  V30 1179 C 120.954 -1.97946 -0.602076 0
M  V30 1180 C 121.369 -0.953674 -1.62943 0
M  V30 1181 O 120.726 0.0592551 -1.82404 0
M  V30 1182 C 120.777 -3.38546 -1.26762 0
M  V30 1183 O 120.498 -4.37195 -0.281376 0
M  V30 1184 C 121.999 -3.93966 -2.03239 0
M  V30 1185 H 119.219 -0.650918 -0.162931 0
M  V30 1186 H 121.763 -2.03959 0.148601 0
M  V30 1187 H 119.918 -3.33609 -1.96936 0
M  V30 1188 H 120.332 -5.18975 -0.759267 0
M  V30 1189 H 121.806 -4.94555 -2.45193 0
M  V30 1190 H 122.283 -3.30693 -2.8903 0
M  V30 1191 H 122.889 -4.02315 -1.37924 0
M  V30 1192 N 121.204 0.198386 -1.56346 0
M  V30 1193 C 122.481 0.944982 -1.71258 0
M  V30 1194 C 122.861 2.0151 -0.629048 0
M  V30 1195 O 122.209 2.25639 0.360473 0
M  V30 1196 C 122.419 1.5344 -3.1346 0
M  V30 1197 C 123.767 2.01778 -3.73591 0
M  V30 1198 O 124.791 1.63288 -3.16568 0
M  V30 1199 O 123.65 2.72594 -4.73661 0
M  V30 1200 H 120.744 0.442939 -0.69838 0
M  V30 1201 H 123.29 0.188342 -1.68652 0
M  V30 1202 H 122.062 0.762869 -3.83792 0
M  V30 1203 H 121.685 2.35596 -3.20282 0
M  V30 1204 N 122.682 1.50554 0.465978 0
M  V30 1205 C 123.592 1.72585 1.58907 0
M  V30 1206 C 124.608 0.60911 1.6299 0
M  V30 1207 O 125.784 0.88804 1.80765 0
M  V30 1208 C 122.849 1.81995 2.95091 0
M  V30 1209 C 121.91 3.05751 3.01355 0
M  V30 1210 C 121.143 3.14702 4.31043 0
M  V30 1211 O 121.366 2.30313 5.21835 0
M  V30 1212 O 120.3 4.07468 4.43005 0
M  V30 1213 H 124.126 2.67799 1.43239 0
M  V30 1214 H 121.711 1.34711 0.646013 0
M  V30 1215 H 123.593 1.90335 3.75966 0
M  V30 1216 H 122.268 0.899659 3.10947 0
M  V30 1217 H 121.175 3.02908 2.19539 0
M  V30 1218 H 122.508 3.97375 2.90437 0
M  V30 1219 N 124.16 -0.719506 1.40217 0
M  V30 1220 C 125.11 -1.8251 1.36653 0
M  V30 1221 C 126.094 -1.59028 0.244732 0
M  V30 1222 O 127.286 -1.70268 0.483524 0
M  V30 1223 C 124.415 -3.20599 1.22763 0
M  V30 1224 C 123.501 -3.49858 2.39708 0
M  V30 1225 N 123.892 -3.49957 3.6519 0
M  V30 1226 C 122.19 -3.80297 2.33002 0
M  V30 1227 C 122.891 -3.77449 4.42614 0
M  V30 1228 N 121.867 -3.96002 3.72402 0
M  V30 1229 H 125.669 -1.80914 2.31619 0
M  V30 1230 H 123.183 -0.918455 1.33933 0
M  V30 1231 H 125.18 -3.99766 1.18292 0
M  V30 1232 H 123.84 -3.23424 0.287614 0
M  V30 1233 H 124.851 -3.309 3.98404 0
M  V30 1234 H 121.528 -3.90635 1.47346 0
M  V30 1235 H 122.918 -3.83863 5.51451 0
M  V30 1236 N 125.638 -1.25649 -0.95132 0
M  V30 1237 C 126.884 -1.10757 -1.69884 0
M  V30 1238 C 127.217 0.350061 -1.91019 0
M  V30 1239 O 126.492 1.25783 -1.48354 0
M  V30 1240 C 126.775 -1.86606 -3.07978 0
M  V30 1241 C 126.628 -3.40217 -2.94232 0
M  V30 1242 C 127.947 -1.65182 -4.07925 0
M  V30 1243 H 125.066 -0.40374 -0.616574 0
M  V30 1244 H 127.708 -1.54521 -1.10558 0
M  V30 1245 H 125.858 -1.49409 -3.58621 0
M  V30 1246 H 127.53 -3.87108 -2.50889 0
M  V30 1247 H 125.773 -3.67759 -2.30078 0
M  V30 1248 H 126.444 -3.88505 -3.92133 0
M  V30 1249 H 128.92 -1.9757 -3.66204 0
M  V30 1250 H 127.796 -2.20683 -5.02583 0
M  V30 1251 H 128.057 -0.593933 -4.38092 0
M  V30 1252 N 127.117 1.15442 -1.07289 0
M  V30 1253 C 128.363 1.86489 -0.796846 0
M  V30 1254 C 128.696 1.82078 0.675371 0
M  V30 1255 O 127.971 1.24346 1.4956 0
M  V30 1256 C 128.254 3.35626 -1.30489 0
M  V30 1257 C 128.107 3.48673 -2.84161 0
M  V30 1258 C 129.426 4.30357 -0.920907 0
M  V30 1259 H 126.545 0.677144 -0.290939 0
M  V30 1260 H 129.187 1.35633 -1.33056 0
M  V30 1261 H 127.337 3.79068 -0.850883 0
M  V30 1262 H 129.009 3.14099 -3.37846 0
M  V30 1263 H 127.252 2.90253 -3.22391 0
M  V30 1264 H 127.923 4.53453 -3.14777 0
M  V30 1265 H 130.399 3.94871 -1.3121 0
M  V30 1266 H 129.275 5.33193 -1.30372 0
M  V30 1267 H 129.536 4.4176 0.173226 0
M  V30 1268 N 128.595 0.856903 1.32268 0
M  V30 1269 C 129.835 0.467705 1.98977 0
M  V30 1270 C 130.199 -0.959231 1.66321 0
M  V30 1271 O 131.4 -1.4531 2.26138 0
M  V30 1272 C 129.671 0.70256 3.50427 0
M  V30 1273 S 131.23 0.411269 4.36868 0
M  V30 1274 H 128.048 0.175121 0.689096 0
M  V30 1275 H 130.65 1.1101 1.60925 0
M  V30 1276 H 129.354 1.74012 3.71683 0
M  V30 1277 H 128.885 0.0466707 3.93372 0
M  V30 1278 H 130.9 -0.761799 4.90317 0
M  V30 1279 N 130.073 -1.45103 0.615059 0
M  V30 1280 C 131.02 -2.30586 -0.0993978 0
M  V30 1281 C 131.99 -1.42544 -0.852669 0
M  V30 1282 O 133.175 -1.71465 -0.836917 0
M  V30 1283 C 130.315 -3.27572 -1.08583 0
M  V30 1284 C 129.428 -4.30717 -0.332656 0
M  V30 1285 C 128.563 -5.14807 -1.30947 0
M  V30 1286 C 127.602 -6.09673 -0.544538 0
M  V30 1287 N 126.739 -6.86517 -1.47101 0
M  V30 1288 H 131.579 -2.91144 0.635542 0
M  V30 1289 H 129.116 -1.4346 0.325206 0
M  V30 1290 H 131.074 -3.82276 -1.67095 0
M  V30 1291 H 129.704 -2.68751 -1.78809 0
M  V30 1292 H 128.756 -3.78615 0.368107 0
M  V30 1293 H 130.068 -4.98102 0.263842 0
M  V30 1294 H 129.222 -5.73948 -1.96643 0
M  V30 1295 H 127.961 -4.47458 -1.9399 0
M  V30 1296 H 126.966 -5.49656 0.126003 0
M  V30 1297 H 128.191 -6.79052 0.080947 0
M  V30 1298 H 126.137 -6.21851 -2.08895 0
M  V30 1299 H 126.054 -7.50281 -0.928137 0
M  V30 1300 H 127.322 -7.50194 -2.11731 0
M  V30 1301 N 131.551 -0.354651 -1.53558 0
M  V30 1302 C 132.797 0.238797 -2.01389 0
M  V30 1303 C 133.13 1.49309 -1.2418 0
M  V30 1304 O 132.405 1.91638 -0.332457 0
M  V30 1305 C 132.688 0.541771 -3.56001 0
M  V30 1306 C 132.541 -0.725388 -4.43912 0
M  V30 1307 C 133.86 1.34685 -4.18984 0
M  V30 1308 H 130.979 0.0853177 -0.732045 0
M  V30 1309 H 133.621 -0.477384 -1.83905 0
M  V30 1310 H 131.771 1.15189 -3.71031 0
M  V30 1311 H 133.443 -1.36313 -4.407 0
M  V30 1312 H 131.686 -1.34801 -4.12324 0
M  V30 1313 H 132.357 -0.468505 -5.50008 0
M  V30 1314 H 134.833 0.830837 -4.07721 0
M  V30 1315 H 133.709 1.52759 -5.27215 0
M  V30 1316 H 133.97 2.35221 -3.74331 0
M  V30 1317 N 133.029 1.57378 -0.0835403 0
M  V30 1318 C 133.961 2.10389 0.909338 0
M  V30 1319 C 134.974 1.03858 1.25369 0
M  V30 1320 O 136.163 1.31338 1.20882 0
M  V30 1321 C 133.263 2.55908 2.2218 0
M  V30 1322 C 132.436 3.86145 2.05453 0
M  V30 1323 C 131.495 4.17633 3.20108 0
M  V30 1324 O 130.521 4.87043 2.94581 0
M  V30 1325 N 131.723 3.72113 4.45547 0
M  V30 1326 H 134.488 2.962 0.456657 0
M  V30 1327 H 132.049 1.61579 0.101877 0
M  V30 1328 H 134.041 2.74027 2.97811 0
M  V30 1329 H 132.611 1.75171 2.58909 0
M  V30 1330 H 131.831 3.7729 1.1422 0
M  V30 1331 H 133.119 4.7137 1.91541 0
M  V30 1332 H 132.517 3.16062 4.69171 0
M  V30 1333 H 131.074 3.95409 5.18165 0
M  V30 1334 N 134.507 -0.190092 1.56449 0
M  V30 1335 C 135.457 -1.23977 1.91347 0
M  V30 1336 C 136.441 -1.40747 0.779693 0
M  V30 1337 O 137.633 -1.43033 1.04262 0
M  V30 1338 C 134.762 -2.58347 2.26079 0
M  V30 1339 C 133.848 -2.4535 3.45925 0
M  V30 1340 N 134.239 -2.02039 4.63696 0
M  V30 1341 C 132.537 -2.76229 3.50162 0
M  V30 1342 C 133.238 -2.01053 5.4585 0
M  V30 1343 N 132.214 -2.42747 4.8639 0
M  V30 1344 H 136.016 -0.896318 2.79899 0
M  V30 1345 H 133.53 -0.398496 1.57435 0
M  V30 1346 H 135.527 -3.34173 2.49267 0
M  V30 1347 H 134.187 -2.93512 1.38856 0
M  V30 1348 H 135.198 -1.7267 4.88268 0
M  V30 1349 H 131.875 -3.15556 2.73369 0
M  V30 1350 H 133.265 -1.69426 6.50188 0
M  V30 1351 N 135.985 -1.50799 -0.457987 0
M  V30 1352 C 137.396 -1.55152 -1.0385 0
M  V30 1353 C 137.747 -0.362719 -1.92818 0
M  V30 1354 O 136.872 0.522915 -2.09987 0
M  V30 1355 C 137.467 -2.81173 -1.89017 0
M  V30 1356 C 136.026 -2.88164 -2.42154 0
M  V30 1357 C 135.173 -2.49591 -1.20829 0
M  V30 1358 H 138.124 -1.56874 -0.240068 0
M  V30 1359 H 138.145 -2.63769 -2.74238 0
M  V30 1360 H 137.657 -3.67677 -1.24238 0
M  V30 1361 H 135.758 -2.06042 -3.10447 0
M  V30 1362 H 135.871 -3.91356 -2.76364 0
M  V30 1363 H 134.235 -2.02322 -1.54719 0
M  V30 1364 H 135.018 -3.38418 -0.576927 0
M  V30 1365 N 137.463 0.71206 -1.40597 0
M  V30 1366 C 138.411 1.84746 -1.41321 0
M  V30 1367 C 139.405 1.66842 -0.293268 0
M  V30 1368 O 140.611 1.73904 -0.464481 0
M  V30 1369 H 136.986 0.608522 -0.441819 0
M  V30 1370 H 138.957 1.81252 -2.37045 0
M  V30 1371 C 137.706 3.22638 -1.29614 0
M  V30 1372 H 137.029 3.37023 -2.15071 0
M  V30 1373 H 138.469 4.02209 -1.3418 0
M  V30 1374 C 136.928 3.36899 -0.00673121 0
M  V30 1375 O 137.458 3.90186 0.954859 0
M  V30 1376 N 135.664 2.9053 0.0639327 0
M  V30 1377 H 135.211 2.47353 -0.719311 0
M  V30 1378 H 135.169 3.0045 0.926118 0
M  V30 1379 N 138.941 1.26152 0.944643 0
M  V30 1380 C 140.189 1.11271 1.6871 0
M  V30 1381 C 140.51 -0.345166 1.91921 0
M  V30 1382 O 139.78 -1.24387 1.51343 0
M  V30 1383 H 138.36 0.408783 0.625224 0
M  V30 1384 H 141.022 1.58427 1.1352 0
M  V30 1385 H 140.118 1.62879 2.66227 0
M  V30 1386 N 140.419 -1.14872 1.07899 0
M  V30 1387 C 141.367 -2.21857 0.698727 0
M  V30 1388 C 142.361 -1.66845 -0.293086 0
M  V30 1389 O 143.567 -1.79321 -0.156204 0
M  V30 1390 H 139.942 -0.722691 0.207899 0
M  V30 1391 H 141.913 -2.51205 1.61054 0
M  V30 1392 C 140.662 -3.47498 0.11858 0
M  V30 1393 H 139.985 -3.90154 0.872914 0
M  V30 1394 H 141.425 -4.23858 -0.109759 0
M  V30 1395 C 139.884 -3.16947 -1.1422 0
M  V30 1396 O 140.414 -3.3426 -2.22785 0
M  V30 1397 N 138.62 -2.70946 -1.05055 0
M  V30 1398 H 138.167 -2.57058 -0.167038 0
M  V30 1399 H 138.125 -2.50879 -1.89491 0
M  V30 1400 N 141.898 -0.863906 -1.31812 0
M  V30 1401 C 142.845 -0.313303 -2.28664 0
M  V30 1402 C 143.815 0.584868 -1.55462 0
M  V30 1403 O 145 0.517805 -1.83639 0
M  V30 1404 C 142.14 0.48441 -3.41683 0
M  V30 1405 C 141.253 -0.440594 -4.29747 0
M  V30 1406 C 140.388 0.370652 -5.29905 0
M  V30 1407 C 139.427 -0.551164 -6.09613 0
M  V30 1408 N 138.564 0.223462 -7.01744 0
M  V30 1409 H 143.404 -1.14444 -2.75148 0
M  V30 1410 H 140.941 -0.575769 -1.35364 0
M  V30 1411 H 142.899 0.962627 -4.05943 0
M  V30 1412 H 141.529 1.28029 -2.96325 0
M  V30 1413 H 140.581 -1.03724 -3.65986 0
M  V30 1414 H 141.893 -1.14767 -4.85417 0
M  V30 1415 H 141.047 0.911638 -5.99812 0
M  V30 1416 H 139.786 1.11105 -4.74876 0
M  V30 1417 H 138.791 -1.10396 -5.38603 0
M  V30 1418 H 140.016 -1.29032 -6.66729 0
M  V30 1419 H 137.962 0.946787 -6.49132 0
M  V30 1420 H 137.879 -0.424399 -7.54808 0
M  V30 1421 H 139.147 0.745876 -7.75923 0
M  V30 1422 N 143.376 1.44774 -0.622745 0
M  V30 1423 C 144.286 2.34433 0.0886031 0
M  V30 1424 C 145.302 1.52131 0.844529 0
M  V30 1425 O 146.478 1.84886 0.798691 0
M  V30 1426 C 143.543 3.29986 1.0635 0
M  V30 1427 C 142.604 4.28195 0.307873 0
M  V30 1428 C 141.837 5.19183 1.23633 0
M  V30 1429 O 142.06 5.13918 2.47476 0
M  V30 1430 O 140.994 5.97515 0.725189 0
M  V30 1431 H 144.82 2.96693 -0.648599 0
M  V30 1432 H 142.405 1.44408 -0.382957 0
M  V30 1433 H 144.287 3.88825 1.6246 0
M  V30 1434 H 142.962 2.70269 1.78146 0
M  V30 1435 H 141.869 3.72927 -0.296064 0
M  V30 1436 H 143.202 4.90808 -0.3699 0
M  V30 1437 N 144.854 0.36279 1.53368 0
M  V30 1438 C 145.801 -0.485008 2.25646 0
M  V30 1439 C 146.771 -1.07982 1.2621 0
M  V30 1440 O 147.956 -1.11284 1.54986 0
M  V30 1441 C 145.096 -1.62023 3.04701 0
M  V30 1442 C 144.209 -1.05086 4.19024 0
M  V30 1443 C 143.344 -2.15496 4.85525 0
M  V30 1444 C 142.383 -1.5601 5.91884 0
M  V30 1445 N 141.52 -2.60241 6.52088 0
M  V30 1446 H 146.36 0.137864 2.97681 0
M  V30 1447 H 143.897 0.0798061 1.46883 0
M  V30 1448 H 145.855 -2.28887 3.48807 0
M  V30 1449 H 144.485 -2.2138 2.34927 0
M  V30 1450 H 143.537 -0.27259 3.79422 0
M  V30 1451 H 144.849 -0.575926 4.95464 0
M  V30 1452 H 144.003 -2.90186 5.32801 0
M  V30 1453 H 142.742 -2.66341 4.08551 0
M  V30 1454 H 141.747 -0.798338 5.43973 0
M  V30 1455 H 142.972 -1.05994 6.70777 0
M  V30 1456 H 140.918 -3.10304 5.77968 0
M  V30 1457 H 140.835 -2.17426 7.24059 0
M  V30 1458 H 142.103 -3.34641 7.04014 0
M  V30 1459 N 146.332 -1.57332 0.0918853 0
M  V30 1460 C 147.28 -2.15075 -0.885747 0
M  V30 1461 C 148.274 -1.09277 -1.29441 0
M  V30 1462 O 149.48 -1.27627 -1.26931 0
M  V30 1463 H 145.855 -0.687966 -0.303656 0
M  V30 1464 H 147.826 -2.96047 -0.373995 0
M  V30 1465 C 146.575 -2.74325 -2.13638 0
M  V30 1466 H 145.898 -3.55418 -1.8308 0
M  V30 1467 H 147.338 -3.183 -2.80109 0
M  V30 1468 C 145.797 -1.70062 -2.90827 0
M  V30 1469 O 146.327 -1.13763 -3.85254 0
M  V30 1470 N 144.533 -1.40628 -2.54307 0
M  V30 1471 H 144.08 -1.866 -1.7759 0
M  V30 1472 H 144.038 -0.711043 -3.06254 0
M  V30 1473 N 147.81 0.181792 -1.56548 0
M  V30 1474 C 149.056 0.901431 -1.81665 0
M  V30 1475 C 149.389 1.82347 -0.668075 0
M  V30 1476 O 148.664 1.91669 0.330615 0
M  V30 1477 C 148.947 1.70618 -3.17115 0
M  V30 1478 C 148.8 0.807964 -4.42484 0
M  V30 1479 C 150.119 2.67605 -3.49393 0
M  V30 1480 H 147.238 0.32627 -0.660846 0
M  V30 1481 H 149.88 0.168134 -1.89255 0
M  V30 1482 H 148.03 2.33133 -3.10775 0
M  V30 1483 H 149.702 0.19649 -4.60881 0
M  V30 1484 H 147.945 0.115411 -4.33646 0
M  V30 1485 H 148.616 1.40632 -5.33785 0
M  V30 1486 H 151.092 2.15218 -3.56118 0
M  V30 1487 H 149.968 3.20985 -4.45264 0
M  V30 1488 H 150.229 3.47298 -2.73563 0
M  V30 1489 N 149.288 1.51039 0.449983 0
M  V30 1490 C 150.699 1.557 1.03026 0
M  V30 1491 C 151.05 0.372939 1.92623 0
M  V30 1492 O 150.175 -0.511771 2.10261 0
M  V30 1493 C 150.77 2.82171 1.87523 0
M  V30 1494 C 149.329 2.89444 2.40622 0
M  V30 1495 C 148.476 2.50228 1.19504 0
M  V30 1496 H 151.427 1.56999 0.231745 0
M  V30 1497 H 151.448 2.65219 2.72835 0
M  V30 1498 H 150.96 3.68331 1.22286 0
M  V30 1499 H 149.061 2.07685 3.0935 0
M  V30 1500 H 149.174 3.92816 2.74285 0
M  V30 1501 H 147.538 2.03139 1.53644 0
M  V30 1502 H 148.321 3.38719 0.558972 0
M  V30 1503 N 150.766 -0.704594 1.40972 0
M  V30 1504 C 151.696 -1.83124 1.44872 0
M  V30 1505 C 152.677 -1.67281 0.30838 0
M  V30 1506 O 153.862 -1.87149 0.518556 0
M  V30 1507 C 150.992 -3.21181 1.32136 0
M  V30 1508 C 149.946 -3.51714 2.43888 0
M  V30 1509 C 149.272 -4.89032 2.16222 0
M  V30 1510 C 150.572 -3.516 3.86232 0
M  V30 1511 H 152.266 -1.80117 2.39161 0
M  V30 1512 H 149.812 -0.865145 1.15114 0
M  V30 1513 H 151.765 -3.99702 1.33479 0
M  V30 1514 H 150.489 -3.24791 0.343279 0
M  V30 1515 H 149.148 -2.75539 2.41813 0
M  V30 1516 H 148.796 -4.89256 1.16778 0
M  V30 1517 H 148.496 -5.10426 2.911 0
M  V30 1518 H 150.02 -5.69873 2.19265 0
M  V30 1519 H 151.434 -4.2014 3.9007 0
M  V30 1520 H 149.831 -3.84523 4.60719 0
M  V30 1521 H 150.901 -2.50757 4.15029 0
M  V30 1522 N 152.244 -1.26651 -0.937939 0
M  V30 1523 C 153.655 -1.1125 -1.49934 0
M  V30 1524 C 154.006 0.306077 -1.93798 0
M  V30 1525 O 153.131 1.19792 -1.80219 0
M  V30 1526 C 153.726 -2.01339 -2.72485 0
M  V30 1527 C 152.285 -1.90074 -3.24883 0
M  V30 1528 C 151.432 -1.94498 -1.97651 0
M  V30 1529 H 154.383 -1.39693 -0.753091 0
M  V30 1530 H 154.404 -1.56319 -3.46907 0
M  V30 1531 H 153.916 -3.04577 -2.40529 0
M  V30 1532 H 152.017 -0.897827 -3.61621 0
M  V30 1533 H 152.13 -2.75778 -3.9177 0
M  V30 1534 H 150.494 -1.38591 -2.13693 0
M  V30 1535 H 151.277 -2.99372 -1.68022 0
M  V30 1536 N 153.722 1.14298 -1.08507 0
M  V30 1537 C 154.968 1.85633 -0.816581 0
M  V30 1538 C 155.301 1.82784 0.656021 0
M  V30 1539 O 154.576 1.25926 1.48233 0
M  V30 1540 C 154.859 3.34223 -1.34041 0
M  V30 1541 C 154.712 3.45639 -2.87843 0
M  V30 1542 C 156.031 4.29356 -0.9665 0
M  V30 1543 H 153.15 0.67402 -0.298104 0
M  V30 1544 H 155.792 1.34214 -1.34487 0
M  V30 1545 H 153.942 3.78144 -0.89104 0
M  V30 1546 H 155.614 3.10498 -3.41158 0
M  V30 1547 H 153.857 2.86817 -3.25451 0
M  V30 1548 H 154.528 4.50089 -3.19569 0
M  V30 1549 H 157.004 3.93457 -1.35391 0
M  V30 1550 H 155.88 5.3178 -1.3602 0
M  V30 1551 H 156.141 4.41919 0.126362 0
M  V30 1552 N 155.201 0.870884 1.31352 0
M  V30 1553 C 156.45 0.478408 1.95944 0
M  V30 1554 C 156.763 -0.974493 1.69597 0
M  V30 1555 O 157.969 -1.47316 2.28058 0
M  V30 1556 C 156.425 0.804609 3.50791 0
M  V30 1557 C 156.033 2.27433 3.85977 0
M  V30 1558 C 157.777 0.480648 4.2177 0
M  V30 1559 C 155.684 2.5429 5.33939 0
M  V30 1560 H 154.614 0.175175 0.733369 0
M  V30 1561 H 157.265 1.06391 1.4951 0
M  V30 1562 H 155.647 0.148347 3.95722 0
M  V30 1563 H 156.821 2.97373 3.52002 0
M  V30 1564 H 155.136 2.56442 3.28065 0
M  V30 1565 H 157.733 0.658519 5.30629 0
M  V30 1566 H 158.076 -0.578979 4.12254 0
M  V30 1567 H 158.609 1.09349 3.82476 0
M  V30 1568 H 155.348 3.58939 5.48491 0
M  V30 1569 H 154.868 1.88945 5.69263 0
M  V30 1570 H 156.547 2.39066 6.01212 0
M  V30 1571 N 156.679 -1.44442 0.630414 0
M  V30 1572 C 157.642 -2.29107 -0.0652523 0
M  V30 1573 C 158.642 -1.41002 -0.772995 0
M  V30 1574 O 159.832 -1.62881 -0.617692 0
M  V30 1575 C 156.964 -3.22564 -1.10296 0
M  V30 1576 H 158.157 -2.92103 0.679401 0
M  V30 1577 H 155.71 -1.51343 0.390517 0
M  V30 1578 H 156.445 -2.64416 -1.87762 0
M  V30 1579 H 156.23 -3.87491 -0.59941 0
M  V30 1580 H 157.72 -3.86167 -1.5895 0
M  V30 1581 N 158.157 -0.370918 -1.53173 0
M  V30 1582 C 159.067 0.480823 -2.2962 0
M  V30 1583 C 160.083 1.08789 -1.35798 0
M  V30 1584 O 161.259 1.09768 -1.68858 0
M  V30 1585 C 158.324 1.60227 -3.07454 0
M  V30 1586 C 157.385 1.0222 -4.16953 0
M  V30 1587 C 156.618 2.0902 -4.91066 0
M  V30 1588 O 156.841 3.30222 -4.65091 0
M  V30 1589 O 155.775 1.71778 -5.76867 0
M  V30 1590 H 159.601 -0.141421 -3.03371 0
M  V30 1591 H 157.186 -0.135146 -1.48787 0
M  V30 1592 H 159.068 2.25417 -3.56041 0
M  V30 1593 H 157.743 2.20982 -2.36535 0
M  V30 1594 H 156.65 0.334064 -3.72605 0
M  V30 1595 H 157.983 0.459131 -4.90054 0
M  V30 1596 N 159.635 1.57281 -0.100228 0
M  V30 1597 C 160.565 2.17328 0.853857 0
M  V30 1598 C 161.546 1.10804 1.2906 0
M  V30 1599 O 162.731 1.38963 1.35657 0
M  V30 1600 C 159.861 2.75772 2.11109 0
M  V30 1601 C 158.815 3.87713 1.81279 0
M  V30 1602 C 158.141 4.32882 3.13874 0
M  V30 1603 C 159.441 5.10677 1.09574 0
M  V30 1604 H 161.135 2.97305 0.353545 0
M  V30 1605 H 158.681 1.43009 0.168612 0
M  V30 1606 H 160.634 3.16433 2.78296 0
M  V30 1607 H 159.358 1.93057 2.63432 0
M  V30 1608 H 158.017 3.476 1.16489 0
M  V30 1609 H 157.665 3.47051 3.64095 0
M  V30 1610 H 157.365 5.08358 2.94696 0
M  V30 1611 H 158.889 4.7618 3.82211 0
M  V30 1612 H 160.303 5.48474 1.66879 0
M  V30 1613 H 158.7 5.91615 1.00557 0
M  V30 1614 H 159.77 4.84835 0.0793299 0
M  V30 1615 N 161.113 -0.173488 1.56642 0
M  V30 1616 C 162.524 -0.736155 1.71574 0
M  V30 1617 C 162.875 -1.82888 0.710389 0
M  V30 1618 O 162 -2.16017 -0.1287 0
M  V30 1619 C 162.595 -1.34211 3.11083 0
M  V30 1620 C 161.154 -1.85162 3.27707 0
M  V30 1621 C 160.301 -0.729765 2.67525 0
M  V30 1622 H 163.252 0.0518786 1.58615 0
M  V30 1623 H 163.273 -2.21178 3.09613 0
M  V30 1624 H 162.785 -0.546579 3.84232 0
M  V30 1625 H 160.886 -2.67366 2.59512 0
M  V30 1626 H 160.999 -1.99855 4.35425 0
M  V30 1627 H 159.363 -1.14965 2.27278 0
M  V30 1628 H 160.146 0.0538806 3.43258 0
M  V30 1629 N 162.591 -1.51276 -0.441967 0
M  V30 1630 C 164.002 -1.56244 -1.02199 0
M  V30 1631 C 164.353 -0.383149 -1.92422 0
M  V30 1632 O 163.478 0.500613 -2.1053 0
M  V30 1633 C 164.073 -2.83162 -1.86024 0
M  V30 1634 C 162.632 -2.90716 -2.39084 0
M  V30 1635 C 161.779 -2.50858 -1.18175 0
M  V30 1636 H 164.73 -1.5712 -0.223416 0
M  V30 1637 H 164.751 -2.66663 -2.71425 0
M  V30 1638 H 164.263 -3.68974 -1.20331 0
M  V30 1639 H 162.364 -2.09323 -3.08244 0
M  V30 1640 H 162.477 -3.94266 -2.72198 0
M  V30 1641 H 160.841 -2.03951 -1.52565 0
M  V30 1642 H 161.624 -3.3901 -0.541001 0
M  V30 1643 N 164.069 0.697108 -1.41344 0
M  V30 1644 C 165.016 1.81106 -1.43071 0
M  V30 1645 C 165.986 1.63632 -0.285275 0
M  V30 1646 O 167.171 1.84504 -0.486091 0
M  V30 1647 C 164.311 3.18975 -1.31715 0
M  V30 1648 C 163.424 3.47892 -2.56115 0
M  V30 1649 C 162.559 4.75367 -2.37064 0
M  V30 1650 C 161.598 4.97247 -3.56948 0
M  V30 1651 N 160.735 6.15947 -3.36977 0
M  V30 1652 H 165.575 1.78965 -2.38276 0
M  V30 1653 H 163.112 0.873975 -1.18322 0
M  V30 1654 H 165.07 3.98615 -1.23133 0
M  V30 1655 H 163.7 3.20297 -0.401183 0
M  V30 1656 H 162.752 2.62669 -2.75153 0
M  V30 1657 H 164.064 3.59962 -3.45295 0
M  V30 1658 H 163.218 5.63059 -2.25941 0
M  V30 1659 H 161.957 4.65541 -1.45338 0
M  V30 1660 H 160.962 4.08004 -3.68527 0
M  V30 1661 H 162.187 5.08934 -4.49626 0
M  V30 1662 H 160.133 6.07336 -2.47949 0
M  V30 1663 H 160.05 6.28777 -4.19732 0
M  V30 1664 H 161.318 7.06377 -3.29623 0
M  V30 1665 N 165.547 1.27147 0.931209 0
M  V30 1666 C 166.793 1.13446 1.68101 0
M  V30 1667 C 167.126 -0.319628 1.91552 0
M  V30 1668 O 166.401 -1.23407 1.50336 0
M  V30 1669 C 166.684 1.91482 3.0497 0
M  V30 1670 C 166.537 3.44855 2.88782 0
M  V30 1671 C 167.856 1.71651 4.05246 0
M  V30 1672 H 164.975 0.413498 0.610072 0
M  V30 1673 H 167.617 1.56261 1.08086 0
M  V30 1674 H 165.767 1.55095 3.56199 0
M  V30 1675 H 167.439 3.9105 2.44698 0
M  V30 1676 H 165.682 3.71373 2.24198 0
M  V30 1677 H 166.353 3.94694 3.85902 0
M  V30 1678 H 168.829 2.0337 3.63015 0
M  V30 1679 H 167.705 2.28651 4.99009 0
M  V30 1680 H 167.966 0.663555 4.37092 0
M  V30 1681 N 167.025 -1.13721 1.09112 0
M  V30 1682 C 168.25 -1.89314 0.847053 0
M  V30 1683 C 168.675 -1.78416 -0.595774 0
M  V30 1684 O 168.033 -1.12942 -1.41823 0
M  V30 1685 C 168.081 -3.3701 1.28284 0
M  V30 1686 O 167.185 -4.10054 0.439267 0
M  V30 1687 H 166.526 -0.588745 0.307044 0
M  V30 1688 H 169.056 -1.43902 1.45442 0
M  V30 1689 H 169.066 -3.87834 1.26683 0
M  V30 1690 H 167.741 -3.4426 2.33363 0
M  V30 1691 H 166.318 -3.69266 0.519312 0
M  V30 1692 N 168.503 -0.877838 -1.30888 0
M  V30 1693 C 169.749 -0.493426 -1.96706 0
M  V30 1694 C 170.082 0.953504 -1.6918 0
M  V30 1695 O 169.357 1.67266 -0.992594 0
M  V30 1696 C 169.64 -0.760429 -3.51979 0
M  V30 1697 C 169.493 -2.25747 -3.89048 0
M  V30 1698 C 170.812 -0.232148 -4.39487 0
M  V30 1699 H 167.931 -0.180746 -0.714493 0
M  V30 1700 H 170.573 -1.10052 -1.54882 0
M  V30 1701 H 168.723 -0.243715 -3.87735 0
M  V30 1702 H 170.395 -2.84204 -3.63354 0
M  V30 1703 H 168.638 -2.72694 -3.37373 0
M  V30 1704 H 169.309 -2.39491 -4.97341 0
M  V30 1705 H 171.785 -0.674314 -4.106 0
M  V30 1706 H 170.661 -0.448355 -5.47066 0
M  V30 1707 H 170.922 0.866297 -4.33529 0
M  V30 1708 N 169.982 1.44106 -0.638065 0
M  V30 1709 C 171.229 2.01978 -0.14533 0
M  V30 1710 C 171.557 1.50234 1.23532 0
M  V30 1711 O 170.812 0.679548 1.83523 0
M  V30 1712 C 171.111 3.5729 -0.0887327 0
M  V30 1713 C 170.777 4.28317 -1.40909 0
M  V30 1714 C 169.439 4.47437 -1.77069 0
M  V30 1715 C 171.791 4.6867 -2.28031 0
M  V30 1716 C 169.119 5.04171 -3.00047 0
M  V30 1717 C 171.471 5.26766 -3.50286 0
M  V30 1718 C 170.135 5.44104 -3.86661 0
M  V30 1719 H 169.405 0.739089 -0.0531801 0
M  V30 1720 H 172.052 1.72781 -0.825761 0
M  V30 1721 H 170.357 3.8594 0.675095 0
M  V30 1722 H 172.054 3.99807 0.309145 0
M  V30 1723 H 168.644 4.1377 -1.1177 0
M  V30 1724 H 172.828 4.53604 -2.01388 0
M  V30 1725 H 168.084 5.15782 -3.28298 0
M  V30 1726 H 172.258 5.56983 -4.18023 0
M  V30 1727 H 169.885 5.87832 -4.82034 0
M  V30 1728 N 171.46 0.379036 1.52974 0
M  V30 1729 C 172.706 -0.206727 2.01744 0
M  V30 1730 C 173.039 -1.47314 1.26539 0
M  V30 1731 O 172.314 -1.91084 0.362903 0
M  V30 1732 C 172.597 -0.485066 3.56818 0
M  V30 1733 C 172.45 0.795919 4.42702 0
M  V30 1734 C 173.769 -1.28003 4.21074 0
M  V30 1735 H 170.888 -0.0736607 0.73331 0
M  V30 1736 H 173.53 0.506581 1.83122 0
M  V30 1737 H 171.68 -1.09272 3.72816 0
M  V30 1738 H 173.352 1.43307 4.38476 0
M  V30 1739 H 171.595 1.41344 4.10127 0
M  V30 1740 H 172.266 0.555947 5.49193 0
M  V30 1741 H 174.742 -0.765867 4.08991 0
M  V30 1742 H 173.618 -1.44352 5.29579 0
M  V30 1743 H 173.879 -2.29236 3.78026 0
M  V30 1744 N 172.938 -1.57226 0.108567 0
M  V30 1745 C 174.349 -1.8195 -0.418464 0
M  V30 1746 C 174.7 -1.02508 -1.67292 0
M  V30 1747 O 173.825 -0.258496 -2.14851 0
M  V30 1748 C 174.42 -3.30028 -0.765979 0
M  V30 1749 C 172.979 -3.55469 -1.23769 0
M  V30 1750 C 172.126 -2.7625 -0.241106 0
M  V30 1751 H 175.077 -1.55149 0.33384 0
M  V30 1752 H 175.098 -3.44086 -1.62434 0
M  V30 1753 H 174.61 -3.87821 0.147219 0
M  V30 1754 H 172.711 -3.03022 -2.16814 0
M  V30 1755 H 172.824 -4.6408 -1.19022 0
M  V30 1756 H 171.188 -2.44133 -0.72602 0
M  V30 1757 H 171.971 -3.36797 0.665007 0
M  V30 1758 N 174.416 0.165178 -1.56732 0
M  V30 1759 C 175.827 0.727046 -1.71962 0
M  V30 1760 C 176.178 1.82508 -0.720078 0
M  V30 1761 O 175.303 2.16082 0.117242 0
M  V30 1762 C 175.898 1.32559 -3.11791 0
M  V30 1763 C 174.457 1.83422 -3.28684 0
M  V30 1764 C 173.604 0.715567 -2.67908 0
M  V30 1765 H 176.555 -0.0602896 -1.58585 0
M  V30 1766 H 176.576 2.19533 -3.10782 0
M  V30 1767 H 176.088 0.526195 -3.84516 0
M  V30 1768 H 174.189 2.65986 -2.60926 0
M  V30 1769 H 174.302 1.97543 -4.36478 0
M  V30 1770 H 172.666 1.13758 -2.27884 0
M  V30 1771 H 173.449 -0.0720836 -3.43224 0
M  V30 1772 N 175.894 1.51508 0.433938 0
M  V30 1773 C 177.31 1.39759 0.770682 0
M  V30 1774 C 177.51 0.482594 1.95636 0
M  V30 1775 O 176.566 -0.0609691 2.52426 0
M  V30 1776 C 177.879 2.81851 1.04787 0
M  V30 1777 C 179.427 2.91025 1.1521 0
M  V30 1778 C 179.902 4.34032 1.46219 0
M  V30 1779 N 181.393 4.37154 1.53136 0
M  V30 1780 C 182.128 5.4484 1.78709 0
M  V30 1781 N 181.624 6.62682 2.02051 0
M  V30 1782 N 183.417 5.32324 1.80519 0
M  V30 1783 H 175.568 2.09548 -0.346892 0
M  V30 1784 H 177.831 0.943446 -0.0928074 0
M  V30 1785 H 177.537 3.50815 0.249304 0
M  V30 1786 H 177.411 3.21386 1.97461 0
M  V30 1787 H 179.798 2.22257 1.94128 0
M  V30 1788 H 179.879 2.54983 0.204281 0
M  V30 1789 H 179.523 5.03351 0.678274 0
M  V30 1790 H 179.453 4.6759 2.42212 0
M  V30 1791 H 181.944 3.52197 1.36987 0
M  V30 1792 H 182.257 7.40543 2.20943 0
M  V30 1793 H 180.602 6.65791 1.99366 0
M  V30 1794 H 183.793 4.39246 1.61805 0
M  V30 1795 H 183.966 6.16328 2.00111 0
M  V30 1796 N 177.372 -0.689602 1.41712 0
M  V30 1797 C 178.649 -1.44457 1.31877 0
M  V30 1798 C 179.029 -2.11039 -0.0508537 0
M  V30 1799 O 178.377 -2.02138 -1.06547 0
M  V30 1800 C 178.587 -2.45913 2.47645 0
M  V30 1801 C 179.935 -3.10991 2.89084 0
M  V30 1802 O 180.959 -2.56238 2.47428 0
M  V30 1803 O 179.818 -4.10174 3.61137 0
M  V30 1804 H 176.912 -0.64362 0.519309 0
M  V30 1805 H 179.458 -0.719576 1.53689 0
M  V30 1806 H 178.23 -1.95409 3.39015 0
M  V30 1807 H 177.853 -3.25913 2.27742 0
M  V30 1808 N 178.85 -1.27639 -0.924453 0
M  V30 1809 C 180.098 -1.13941 -1.66918 0
M  V30 1810 C 180.419 0.314589 -1.92446 0
M  V30 1811 O 179.689 1.21964 -1.53303 0
M  V30 1812 H 178.269 -0.418678 -0.618642 0
M  V30 1813 H 180.931 -1.60213 -1.10985 0
M  V30 1814 H 180.027 -1.67094 -2.63602 0
M  V30 1815 N 180.328 1.1314 -1.09713 0
M  V30 1816 C 181.575 1.84484 -0.834987 0
M  V30 1817 C 181.903 1.83689 0.639418 0
M  V30 1818 O 181.158 1.2724 1.4869 0
M  V30 1819 C 181.457 3.32167 -1.3191 0
M  V30 1820 C 181.123 3.53139 -2.80363 0
M  V30 1821 C 179.785 3.58571 -3.20905 0
M  V30 1822 C 182.137 3.60866 -3.76065 0
M  V30 1823 C 179.465 3.69267 -4.55916 0
M  V30 1824 C 181.817 3.73089 -5.10869 0
M  V30 1825 C 180.481 3.76775 -5.50996 0
M  V30 1826 H 179.751 0.675073 -0.305544 0
M  V30 1827 H 182.398 1.33554 -1.37243 0
M  V30 1828 H 180.703 3.85469 -0.701517 0
M  V30 1829 H 182.4 3.85821 -1.09284 0
M  V30 1830 H 178.99 3.49569 -2.47991 0
M  V30 1831 H 183.174 3.55946 -3.45855 0
M  V30 1832 H 178.43 3.70388 -4.86438 0
M  V30 1833 H 182.604 3.78011 -5.84877 0
M  V30 1834 H 180.231 3.84815 -6.55608 0
M  V30 1835 N 181.806 0.884767 1.30421 0
M  V30 1836 C 183.053 0.503105 1.96151 0
M  V30 1837 C 183.381 -0.947676 1.69851 0
M  V30 1838 O 182.636 -1.68467 0.995861 0
M  V30 1839 C 182.935 0.724318 3.49983 0
M  V30 1840 C 182.601 2.15015 3.96332 0
M  V30 1841 C 181.263 2.54005 4.08699 0
M  V30 1842 C 183.615 3.07936 4.20505 0
M  V30 1843 C 180.943 3.85128 4.42599 0
M  V30 1844 C 183.295 4.3859 4.55874 0
M  V30 1845 C 181.959 4.77474 4.66449 0
M  V30 1846 H 181.229 0.184099 0.717766 0
M  V30 1847 H 183.876 1.12058 1.55291 0
M  V30 1848 H 182.181 0.0238086 3.91793 0
M  V30 1849 H 183.878 0.408617 3.98913 0
M  V30 1850 H 180.468 1.8375 3.87213 0
M  V30 1851 H 184.652 2.79033 4.10431 0
M  V30 1852 H 179.908 4.14996 4.48986 0
M  V30 1853 H 184.082 5.10629 4.7353 0
M  V30 1854 H 181.709 5.79115 4.92473 0
M  V30 1855 N 183.284 -1.43765 0.645699 0
M  V30 1856 C 184.532 -2.01499 0.155731 0
M  V30 1857 C 184.853 -1.51151 -1.232 0
M  V30 1858 O 184.123 -0.721044 -1.82148 0
M  V30 1859 H 182.703 -0.745003 0.0545817 0
M  V30 1860 H 185.365 -1.76075 0.835677 0
M  V30 1861 H 184.461 -3.1181 0.134577 0
M  V30 1862 N 184.763 -0.387143 -1.52771 0
M  V30 1863 C 185.711 0.463953 -2.27926 0
M  V30 1864 C 186.705 1.06493 -1.31741 0
M  V30 1865 O 187.911 1.00565 -1.49287 0
M  V30 1866 H 184.286 0.16837 -0.732909 0
M  V30 1867 H 186.257 -0.19141 -2.97785 0
M  V30 1868 C 185.006 1.5803 -3.09713 0
M  V30 1869 H 184.329 1.12718 -3.83581 0
M  V30 1870 H 185.769 2.15008 -3.65442 0
M  V30 1871 C 184.228 2.53509 -2.2189 0
M  V30 1872 O 184.758 3.56863 -1.84422 0
M  V30 1873 N 182.964 2.23199 -1.86093 0
M  V30 1874 H 182.511 1.39185 -2.16761 0
M  V30 1875 H 182.469 2.87333 -1.27621 0
M  V30 1876 N 186.241 1.57166 -0.116904 0
M  V30 1877 C 187.652 1.82169 0.408809 0
M  V30 1878 C 188.003 1.03393 1.66746 0
M  V30 1879 O 187.128 0.269886 2.1471 0
M  V30 1880 C 187.723 3.30429 0.748466 0
M  V30 1881 C 186.282 3.5612 1.21882 0
M  V30 1882 C 185.429 2.76374 0.226452 0
M  V30 1883 H 188.38 1.5497 -0.342063 0
M  V30 1884 H 188.401 3.44943 1.60607 0
M  V30 1885 H 187.913 3.87737 -0.167784 0
M  V30 1886 H 186.014 3.04168 2.15204 0
M  V30 1887 H 186.127 4.64705 1.16559 0
M  V30 1888 H 184.491 2.44515 0.713063 0
M  V30 1889 H 185.274 3.3644 -0.682859 0
M  V30 1890 N 187.719 -0.156864 1.56817 0
M  V30 1891 C 189.135 -0.50916 1.5126 0
M  V30 1892 C 189.335 -1.83897 0.823658 0
M  V30 1893 O 188.391 -2.49469 0.390055 0
M  V30 1894 C 189.704 -0.52857 2.96018 0
M  V30 1895 C 191.252 -0.614771 3.06903 0
M  V30 1896 C 191.727 -0.664938 4.53147 0
M  V30 1897 N 193.218 -0.727433 4.57452 0
M  V30 1898 C 193.953 -0.787067 5.67973 0
M  V30 1899 N 193.449 -0.806649 6.88088 0
M  V30 1900 N 195.242 -0.827195 5.5598 0
M  V30 1901 H 187.393 0.714935 2.00006 0
M  V30 1902 H 189.656 0.259526 0.911784 0
M  V30 1903 H 189.362 0.380154 3.49639 0
M  V30 1904 H 189.236 -1.36998 3.51442 0
M  V30 1905 H 191.623 -1.51392 2.53307 0
M  V30 1906 H 191.704 0.253597 2.5454 0
M  V30 1907 H 191.348 0.230011 5.07379 0
M  V30 1908 H 191.278 -1.54966 5.03282 0
M  V30 1909 H 193.769 -0.719998 3.70978 0
M  V30 1910 H 194.082 -0.853727 7.6807 0
M  V30 1911 H 192.427 -0.774687 6.90669 0
M  V30 1912 H 195.618 -0.808998 4.61056 0
M  V30 1913 H 195.791 -0.870206 6.4213 0
M  V30 1914 N 189.197 -1.51736 -0.425897 0
M  V30 1915 C 190.144 -1.73875 -1.51776 0
M  V30 1916 C 191.114 -0.580702 -1.55618 0
M  V30 1917 O 192.299 -0.81641 -1.72451 0
M  V30 1918 C 189.439 -1.88012 -2.89388 0
M  V30 1919 C 188.552 -3.15606 -2.94986 0
M  V30 1920 C 187.687 -3.20271 -4.23793 0
M  V30 1921 C 186.726 -4.42134 -4.23302 0
M  V30 1922 N 185.863 -4.44284 -5.43651 0
M  V30 1923 H 190.703 -2.67071 -1.32201 0
M  V30 1924 H 188.24 -1.32351 -0.642008 0
M  V30 1925 H 190.198 -1.9419 -3.69251 0
M  V30 1926 H 188.828 -0.98213 -3.07496 0
M  V30 1927 H 187.88 -3.18681 -2.07717 0
M  V30 1928 H 189.192 -4.05486 -2.90486 0
M  V30 1929 H 188.346 -3.25428 -5.12036 0
M  V30 1930 H 187.085 -2.28299 -4.30965 0
M  V30 1931 H 186.09 -4.3714 -3.3345 0
M  V30 1932 H 187.315 -5.35382 -4.17783 0
M  V30 1933 H 185.261 -3.55188 -5.51523 0
M  V30 1934 H 185.178 -5.27988 -5.41078 0
M  V30 1935 H 186.446 -4.53649 -6.33895 0
M  V30 1936 N 190.675 0.682077 -1.42076 0
M  V30 1937 C 191.9 1.47558 -1.45744 0
M  V30 1938 C 192.325 1.87977 -0.0680981 0
M  V30 1939 O 191.683 1.55522 0.9318 0
M  V30 1940 C 191.731 2.70575 -2.38373 0
M  V30 1941 O 190.835 3.68573 -1.85007 0
M  V30 1942 H 190.176 0.443585 -0.494093 0
M  V30 1943 H 192.706 0.837238 -1.86686 0
M  V30 1944 H 192.716 3.18729 -2.54707 0
M  V30 1945 H 191.391 2.40495 -3.39315 0
M  V30 1946 H 189.968 3.2757 -1.78192 0
M  V30 1947 N 192.153 1.28127 0.917671 0
M  V30 1948 C 193.1 1.11717 2.0196 0
M  V30 1949 C 194.07 0.0153929 1.66093 0
M  V30 1950 O 195.255 0.179596 1.89953 0
M  V30 1951 C 192.395 0.780927 3.36148 0
M  V30 1952 C 191.508 1.96135 3.84909 0
M  V30 1953 C 190.643 1.56609 5.0759 0
M  V30 1954 C 189.682 2.71339 5.48673 0
M  V30 1955 N 188.819 2.32332 6.62545 0
M  V30 1956 H 193.659 2.06003 2.15329 0
M  V30 1957 H 191.196 1.02535 1.05475 0
M  V30 1958 H 193.154 0.56675 4.13333 0
M  V30 1959 H 191.784 -0.124998 3.22558 0
M  V30 1960 H 190.836 2.28777 3.03916 0
M  V30 1961 H 192.148 2.82165 4.1132 0
M  V30 1962 H 191.302 1.31374 5.92305 0
M  V30 1963 H 190.041 0.677014 4.82978 0
M  V30 1964 H 189.046 2.97276 4.62501 0
M  V30 1965 H 190.271 3.60882 5.75274 0
M  V30 1966 H 188.217 1.45889 6.39572 0
M  V30 1967 H 188.134 3.11899 6.88662 0
M  V30 1968 H 189.402 2.10371 7.50576 0
M  V30 1969 N 193.631 -1.12557 1.10312 0
M  V30 1970 C 194.561 -2.20341 0.772798 0
M  V30 1971 C 195.542 -1.68198 -0.25365 0
M  V30 1972 O 196.727 -1.93831 -0.119699 0
M  V30 1973 C 193.857 -3.46709 0.202443 0
M  V30 1974 C 192.811 -4.11996 1.15943 0
M  V30 1975 C 192.137 -5.328 0.450345 0
M  V30 1976 C 193.437 -4.5828 2.50552 0
M  V30 1977 H 195.131 -2.48229 1.674 0
M  V30 1978 H 192.677 -1.19308 0.806326 0
M  V30 1979 H 194.63 -4.2138 -0.0407752 0
M  V30 1980 H 193.354 -3.18245 -0.734001 0
M  V30 1981 H 192.013 -3.39305 1.38808 0
M  V30 1982 H 191.661 -5.00602 -0.490531 0
M  V30 1983 H 191.361 -5.7743 1.08851 0
M  V30 1984 H 192.885 -6.10219 0.215642 0
M  V30 1985 H 194.299 -5.2433 2.31843 0
M  V30 1986 H 192.696 -5.13683 3.10242 0
M  V30 1987 H 193.766 -3.72329 3.10643 0
M  V30 1988 N 195.109 -0.891671 -1.2995 0
M  V30 1989 C 196.358 -0.509521 -1.95158 0
M  V30 1990 C 196.671 0.947388 -1.71125 0
M  V30 1991 O 197.877 1.43669 -2.30372 0
M  V30 1992 C 196.333 -0.860315 -3.49466 0
M  V30 1993 C 195.941 -2.33545 -3.8231 0
M  V30 1994 C 197.685 -0.547687 -4.20952 0
M  V30 1995 C 195.592 -2.62752 -5.29826 0
M  V30 1996 H 194.522 -0.18682 -0.730489 0
M  V30 1997 H 197.173 -1.08756 -1.47798 0
M  V30 1998 H 195.555 -0.211285 -3.95436 0
M  V30 1999 H 196.729 -3.02936 -3.47227 0
M  V30 2000 H 195.044 -2.61629 -3.23944 0
M  V30 2001 H 197.641 -0.742854 -5.29515 0
M  V30 2002 H 197.984 0.51332 -4.13123 0
M  V30 2003 H 198.517 -1.1542 -3.80688 0
M  V30 2004 H 195.256 -3.6762 -5.42712 0
M  V30 2005 H 194.776 -1.97977 -5.66185 0
M  V30 2006 H 196.455 -2.48601 -5.97333 0
M  V30 2007 N 196.587 1.43421 -0.653314 0
M  V30 2008 C 197.827 2.03689 -0.170346 0
M  V30 2009 C 198.191 1.50427 1.19314 0
M  V30 2010 O 199.392 2.0234 1.76952 0
M  V30 2011 C 197.663 3.56946 -0.180183 0
M  V30 2012 S 199.222 4.38171 0.234925 0
M  V30 2013 H 196.04 0.707345 -0.0719976 0
M  V30 2014 H 198.642 1.75486 -0.86167 0
M  V30 2015 H 197.346 3.93212 -1.17526 0
M  V30 2016 H 196.877 3.89791 0.531675 0
M  V30 2017 H 198.892 4.73808 1.47378 0
M  V30 2018 N 198.065 0.39524 1.52563 0
M  V30 2019 C 198.997 -0.472201 2.24283 0
M  V30 2020 C 200.01 -1.02178 1.26742 0
M  V30 2021 O 201.199 -0.923097 1.52778 0
M  V30 2022 C 198.299 -1.66775 2.95024 0
M  V30 2023 C 197.472 -1.2445 4.19322 0
M  V30 2024 C 196.531 -2.30539 4.7301 0
M  V30 2025 O 195.557 -1.91702 5.35947 0
M  V30 2026 N 196.759 -3.6253 4.53379 0
M  V30 2027 H 199.524 0.142282 2.99362 0
M  V30 2028 H 197.085 0.2219 1.60372 0
M  V30 2029 H 199.077 -2.37283 3.27839 0
M  V30 2030 H 197.647 -2.18845 2.23217 0
M  V30 2031 H 196.867 -0.368069 3.92478 0
M  V30 2032 H 198.155 -0.938457 5.0007 0
M  V30 2033 H 197.553 -3.96841 4.03154 0
M  V30 2034 H 196.11 -4.29055 4.90668 0
M  V30 2035 N 199.544 -1.57102 0.125237 0
M  V30 2036 C 200.507 -2.14471 -0.80838 0
M  V30 2037 C 201.507 -1.0811 -1.19033 0
M  V30 2038 O 202.697 -1.33856 -1.11482 0
M  V30 2039 C 199.829 -2.69005 -2.09402 0
M  V30 2040 H 201.022 -2.98297 -0.309696 0
M  V30 2041 H 198.575 -1.55807 -0.124051 0
M  V30 2042 H 199.31 -1.88785 -2.63687 0
M  V30 2043 H 199.095 -3.46799 -1.82957 0
M  V30 2044 H 200.585 -3.13278 -2.76128 0
M  V30 2045 N 201.022 0.148545 -1.56898 0
M  V30 2046 C 202.25 0.876389 -1.87422 0
M  V30 2047 C 202.665 1.74809 -0.713256 0
M  V30 2048 O 202.022 1.79725 0.317025 0
M  V30 2049 C 202.073 1.73438 -3.17178 0
M  V30 2050 O 201.794 0.897809 -4.28802 0
M  V30 2051 C 203.295 2.56993 -3.61205 0
M  V30 2052 H 200.515 0.253489 -0.621277 0
M  V30 2053 H 203.059 0.141798 -2.04008 0
M  V30 2054 H 201.214 2.42205 -3.0235 0
M  V30 2055 H 201.628 1.48672 -5.02988 0
M  V30 2056 H 203.102 3.12773 -4.54838 0
M  V30 2057 H 203.579 3.32958 -2.86419 0
M  V30 2058 H 204.185 1.9352 -3.78722 0
M  V30 2059 N 202.5 1.5196 0.417844 0
M  V30 2060 C 203.748 1.65263 1.16329 0
M  V30 2061 C 204.069 0.380634 1.91249 0
M  V30 2062 O 203.339 -0.604214 1.86349 0
M  V30 2063 H 201.919 0.60912 0.432414 0
M  V30 2064 H 204.581 1.88969 0.477162 0
M  V30 2065 H 203.677 2.4896 1.88217 0
M  V30 2066 N 203.978 -0.674533 1.42435 0
M  V30 2067 C 205.225 -1.43459 1.42919 0
M  V30 2068 C 205.553 -1.94446 0.0457312 0
M  V30 2069 O 204.808 -1.7132 -0.94593 0
M  V30 2070 C 205.107 -2.64767 2.40069 0
M  V30 2071 C 204.773 -2.3232 3.86443 0
M  V30 2072 C 203.435 -2.23182 4.26314 0
M  V30 2073 C 205.787 -2.05977 4.78773 0
M  V30 2074 C 203.115 -1.85827 5.56494 0
M  V30 2075 C 205.467 -1.70125 6.09295 0
M  V30 2076 C 204.131 -1.59498 6.48164 0
M  V30 2077 H 203.401 -0.524952 0.522978 0
M  V30 2078 H 206.048 -0.769097 1.75377 0
M  V30 2079 H 204.353 -3.36349 2.00939 0
M  V30 2080 H 206.05 -3.22949 2.37707 0
M  V30 2081 H 202.64 -2.40334 3.54877 0
M  V30 2082 H 206.824 -2.11969 4.48757 0
M  V30 2083 H 202.08 -1.76168 5.8547 0
M  V30 2084 H 206.254 -1.48767 6.80324 0
M  V30 2085 H 203.881 -1.30322 7.48946 0
M  V30 2086 N 205.456 -1.28612 -0.910864 0
M  V30 2087 C 206.681 -1.1891 -1.69927 0
M  V30 2088 C 207.106 0.248372 -1.86453 0
M  V30 2089 O 206.464 1.17961 -1.37676 0
M  V30 2090 C 206.512 -1.89578 -3.06745 0
M  V30 2091 O 205.616 -1.20521 -3.94396 0
M  V30 2092 H 204.957 -0.412632 -0.520222 0
M  V30 2093 H 207.487 -1.69985 -1.1387 0
M  V30 2094 H 207.497 -1.97597 -3.56958 0
M  V30 2095 H 206.172 -2.94136 -2.94035 0
M  V30 2096 H 204.749 -1.20684 -3.52831 0
M  V30 2097 N 206.934 1.1197 -1.10907 0
M  V30 2098 C 208.345 1.65114 -0.871446 0
M  V30 2099 C 208.696 1.86885 0.597353 0
M  V30 2100 O 207.821 1.59896 1.45816 0
M  V30 2101 C 208.416 2.99944 -1.5754 0
M  V30 2102 C 206.975 3.50018 -1.38435 0
M  V30 2103 C 206.122 2.24941 -1.62164 0
M  V30 2104 H 209.073 0.956851 -1.2661 0
M  V30 2105 H 209.094 3.66651 -1.01721 0
M  V30 2106 H 208.606 2.84067 -2.64438 0
M  V30 2107 H 206.707 3.71071 -0.337214 0
M  V30 2108 H 206.82 4.29165 -2.12965 0
M  V30 2109 H 205.184 2.3229 -1.04467 0
M  V30 2110 H 205.967 2.11612 -2.70324 0
M  V30 2111 N 208.412 0.89855 1.29475 0
M  V30 2112 C 209.828 0.594483 1.48115 0
M  V30 2113 C 210.028 -0.86431 1.82022 0
M  V30 2114 O 209.084 -1.64457 1.91599 0
M  V30 2115 C 210.397 1.51932 2.59494 0
M  V30 2116 C 211.945 1.5244 2.7337 0
M  V30 2117 C 212.42 2.43548 3.87877 0
M  V30 2118 N 213.911 2.41589 3.95208 0
M  V30 2119 C 214.646 3.08789 4.83153 0
M  V30 2120 N 214.142 3.85265 5.75798 0
M  V30 2121 N 215.935 2.97952 4.76635 0
M  V30 2122 H 208.086 1.84207 1.05742 0
M  V30 2123 H 210.349 0.789251 0.525154 0
M  V30 2124 H 210.055 2.55865 2.41301 0
M  V30 2125 H 209.929 1.23899 3.56271 0
M  V30 2126 H 212.316 0.492518 2.90961 0
M  V30 2127 H 212.397 1.8451 1.77172 0
M  V30 2128 H 212.041 3.46829 3.71041 0
M  V30 2129 H 211.971 2.08788 4.83441 0
M  V30 2130 H 214.462 1.86025 3.28943 0
M  V30 2131 H 214.775 4.33598 6.39697 0
M  V30 2132 H 213.12 3.89371 5.75687 0
M  V30 2133 H 216.311 2.37723 4.03244 0
M  V30 2134 H 216.484 3.50599 5.44962 0
M  V30 2135 N 209.89 -1.43072 0.660911 0
M  V30 2136 C 210.822 -2.29108 -0.0647641 0
M  V30 2137 C 211.835 -1.42928 -0.779448 0
M  V30 2138 O 213.024 -1.66788 -0.635921 0
M  V30 2139 C 210.124 -3.20032 -1.11503 0
M  V30 2140 C 209.297 -4.34792 -0.476955 0
M  V30 2141 C 208.356 -5.06534 -1.42513 0
M  V30 2142 O 207.382 -5.61538 -0.930771 0
M  V30 2143 N 208.584 -5.1075 -2.75889 0
M  V30 2144 H 211.349 -2.92029 0.673731 0
M  V30 2145 H 208.91 -1.53846 0.50427 0
M  V30 2146 H 210.902 -3.64892 -1.75032 0
M  V30 2147 H 209.472 -2.58658 -1.75541 0
M  V30 2148 H 208.692 -3.92752 0.337572 0
M  V30 2149 H 209.98 -5.0879 -0.0318525 0
M  V30 2150 H 209.378 -4.67447 -3.18606 0
M  V30 2151 H 207.935 -5.59302 -3.347 0
M  V30 2152 N 211.368 -0.403325 -1.52352 0
M  V30 2153 C 212.617 0.175668 -2.00934 0
M  V30 2154 C 212.93 1.46718 -1.29356 0
M  V30 2155 O 214.136 2.12708 -1.68724 0
M  V30 2156 C 212.592 0.363612 -3.58058 0
M  V30 2157 C 212.2 -0.915472 -4.38547 0
M  V30 2158 C 213.944 0.89821 -4.14888 0
M  V30 2159 C 211.851 -0.695035 -5.87302 0
M  V30 2160 H 210.781 0.0694234 -0.750797 0
M  V30 2161 H 213.432 -0.527879 -1.75743 0
M  V30 2162 H 211.814 1.12935 -3.79555 0
M  V30 2163 H 212.988 -1.68691 -4.28812 0
M  V30 2164 H 211.303 -1.37606 -3.93006 0
M  V30 2165 H 213.9 1.07907 -5.23699 0
M  V30 2166 H 214.243 1.87126 -3.71873 0
M  V30 2167 H 214.776 0.191681 -3.97338 0
M  V30 2168 H 211.515 -1.63948 -6.34666 0
M  V30 2169 H 211.035 0.0372116 -5.99788 0
M  V30 2170 H 212.714 -0.33497 -6.46132 0
M  V30 2171 N 212.846 1.57033 -0.133567 0
M  V30 2172 C 213.778 2.13176 0.841944 0
M  V30 2173 C 214.791 1.07794 1.22001 0
M  V30 2174 O 215.98 1.35117 1.16643 0
M  V30 2175 C 213.08 2.62847 2.13926 0
M  V30 2176 C 212.253 3.92486 1.93064 0
M  V30 2177 C 211.312 4.27605 3.0666 0
M  V30 2178 O 210.338 4.96168 2.78937 0
M  V30 2179 N 211.54 3.861 4.33483 0
M  V30 2180 H 214.305 2.97503 0.362192 0
M  V30 2181 H 211.866 1.61821 0.05042 0
M  V30 2182 H 213.858 2.83363 2.88942 0
M  V30 2183 H 212.428 1.83319 2.53205 0
M  V30 2184 H 211.648 3.80732 1.02159 0
M  V30 2185 H 212.936 4.77225 1.76447 0
M  V30 2186 H 212.334 3.30828 4.58878 0
M  V30 2187 H 210.891 4.11694 5.05323 0
M  V30 2188 N 214.325 -0.140222 1.56975 0
M  V30 2189 C 215.571 -0.852949 1.83991 0
M  V30 2190 C 215.904 -1.80512 0.716187 0
M  V30 2191 O 215.179 -1.92479 -0.279681 0
M  V30 2192 C 215.462 -1.6215 3.21527 0
M  V30 2193 C 215.315 -0.690363 4.4447 0
M  V30 2194 C 216.634 -2.58247 3.56366 0
M  V30 2195 H 213.753 -0.308634 0.669264 0
M  V30 2196 H 216.395 -0.117898 1.89634 0
M  V30 2197 H 214.545 -2.24812 3.16847 0
M  V30 2198 H 216.217 -0.0742264 4.6124 0
M  V30 2199 H 214.46 -0.000396433 4.338 0
M  V30 2200 H 215.131 -1.2643 5.37326 0
M  V30 2201 H 217.607 -2.05701 3.61699 0
M  V30 2202 H 216.483 -3.09067 4.53617 0
M  V30 2203 H 216.744 -3.39923 2.82674 0
M  V30 2204 N 215.803 -1.52179 -0.40978 0
M  V30 2205 C 217.028 -1.70347 -1.18308 0
M  V30 2206 C 217.453 -0.411887 -1.83535 0
M  V30 2207 O 216.811 0.630587 -1.6998 0
M  V30 2208 C 216.859 -2.83977 -2.22238 0
M  V30 2209 O 215.963 -2.495 -3.28365 0
M  V30 2210 H 215.304 -0.567103 -0.345384 0
M  V30 2211 H 217.834 -1.98879 -0.480445 0
M  V30 2212 H 217.844 -3.0887 -2.66577 0
M  V30 2213 H 216.519 -3.77685 -1.74146 0
M  V30 2214 H 215.096 -2.35277 -2.89308 0
M  V30 2215 N 217.281 0.66697 -1.42791 0
M  V30 2216 C 218.527 1.42754 -1.44889 0
M  V30 2217 C 218.882 1.92283 -0.0669755 0
M  V30 2218 O 218.175 1.68494 0.912154 0
M  V30 2219 C 218.369 2.6349 -2.4147 0
M  V30 2220 C 218.198 2.25776 -3.88915 0
M  V30 2221 C 216.968 2.1476 -4.57391 0
M  V30 2222 C 219.166 1.86927 -4.79127 0
M  V30 2223 N 217.148 1.70232 -5.89826 0
M  V30 2224 C 218.519 1.53378 -6.00729 0
M  V30 2225 C 220.574 1.73989 -4.66511 0
M  V30 2226 C 219.277 1.08187 -7.11117 0
M  V30 2227 C 221.303 1.30203 -5.76889 0
M  V30 2228 C 220.665 0.975818 -6.97608 0
M  V30 2229 H 216.764 0.518559 -0.585338 0
M  V30 2230 H 219.348 0.768906 -1.78874 0
M  V30 2231 H 217.519 3.27033 -2.09533 0
M  V30 2232 H 219.251 3.30123 -2.34096 0
M  V30 2233 H 216.006 2.3408 -4.11708 0
M  V30 2234 H 216.43 1.50369 -6.6009 0
M  V30 2235 H 221.072 1.97853 -3.7365 0
M  V30 2236 H 218.79 0.830701 -8.03819 0
M  V30 2237 H 222.376 1.20701 -5.69142 0
M  V30 2238 H 221.256 0.642157 -7.81566 0
M  V30 2239 N 218.759 1.29093 0.90403 0
M  V30 2240 C 219.689 1.16401 2.02418 0
M  V30 2241 C 220.67 0.0593085 1.69997 0
M  V30 2242 O 221.855 0.238021 1.92736 0
M  V30 2243 C 218.985 0.835233 3.37107 0
M  V30 2244 C 217.939 1.89578 3.83724 0
M  V30 2245 C 217.265 1.42041 5.15489 0
M  V30 2246 C 218.565 3.30394 4.04521 0
M  V30 2247 H 220.259 2.10109 2.13295 0
M  V30 2248 H 217.805 1.01157 1.02486 0
M  V30 2249 H 219.758 0.733169 4.14973 0
M  V30 2250 H 218.482 -0.137543 3.2631 0
M  V30 2251 H 217.141 1.98715 3.08071 0
M  V30 2252 H 216.789 0.436426 5.01103 0
M  V30 2253 H 216.489 2.12964 5.4765 0
M  V30 2254 H 218.013 1.33176 5.959 0
M  V30 2255 H 219.427 3.24123 4.72882 0
M  V30 2256 H 217.824 3.99237 4.48029 0
M  V30 2257 H 218.894 3.73692 3.09002 0
M  V30 2258 N 220.237 -1.11381 1.11499 0
M  V30 2259 C 221.653 -1.35143 0.849031 0
M  V30 2260 C 221.853 -1.94515 -0.525938 0
M  V30 2261 O 220.909 -2.1785 -1.27662 0
M  V30 2262 C 222.222 -2.28249 1.95762 0
M  V30 2263 C 223.77 -2.41812 1.98736 0
M  V30 2264 C 224.245 -3.3824 3.088 0
M  V30 2265 N 225.736 -3.45803 3.08179 0
M  V30 2266 C 226.471 -4.20358 3.89982 0
M  V30 2267 N 225.967 -4.97884 4.8175 0
M  V30 2268 N 227.76 -4.15877 3.78157 0
M  V30 2269 H 219.911 -0.712062 2.00109 0
M  V30 2270 H 222.174 -0.376025 0.870235 0
M  V30 2271 H 221.88 -1.91817 2.94787 0
M  V30 2272 H 221.754 -3.28473 1.85433 0
M  V30 2273 H 224.141 -2.77518 1.00338 0
M  V30 2274 H 224.222 -1.41437 2.13141 0
M  V30 2275 H 223.866 -3.03261 4.07425 0
M  V30 2276 H 223.796 -4.38471 2.91635 0
M  V30 2277 H 226.287 -2.90506 2.41691 0
M  V30 2278 H 226.6 -5.52142 5.40702 0
M  V30 2279 H 224.945 -4.97043 4.85771 0
M  V30 2280 H 228.136 -3.544 3.05808 0
M  V30 2281 H 228.309 -4.73723 4.42143 0
M  V30 2282 N 221.715 -0.905404 -1.28997 0
M  V30 2283 C 222.625 -0.392246 -2.31298 0
M  V30 2284 C 223.641 0.515889 -1.66176 0
M  V30 2285 O 224.817 0.404093 -1.97304 0
M  V30 2286 C 221.882 0.36686 -3.44754 0
M  V30 2287 C 220.943 -0.573485 -4.25452 0
M  V30 2288 C 220.176 0.149488 -5.33491 0
M  V30 2289 O 220.399 1.37255 -5.5364 0
M  V30 2290 O 219.333 -0.510919 -5.99728 0
M  V30 2291 H 223.159 -1.2411 -2.77183 0
M  V30 2292 H 220.744 -0.669926 -1.33538 0
M  V30 2293 H 222.626 0.795907 -4.13816 0
M  V30 2294 H 221.301 1.19169 -3.00966 0
M  V30 2295 H 220.208 -1.05176 -3.59011 0
M  V30 2296 H 221.541 -1.36489 -4.72897 0
M  V30 2297 N 223.193 1.4272 -0.668489 0
M  V30 2298 C 224.441 2.01226 -0.187769 0
M  V30 2299 C 224.762 1.53092 1.2078 0
M  V30 2300 O 224.032 0.74993 1.80977 0
M  V30 2301 H 222.612 0.744041 -0.0664272 0
M  V30 2302 H 225.274 1.74723 -0.863583 0
M  V30 2303 H 224.37 3.11556 -0.184166 0
M  V30 2304 N 224.671 0.411399 1.52136 0
M  V30 2305 C 225.618 -0.412975 2.27075 0
M  V30 2306 C 226.588 -1.03912 1.29582 0
M  V30 2307 O 227.773 -1.06296 1.58448 0
M  V30 2308 C 224.913 -1.52247 3.09701 0
M  V30 2309 C 224.026 -0.917021 4.22155 0
M  V30 2310 C 223.161 -1.9994 4.92135 0
M  V30 2311 C 222.2 -1.37101 5.96548 0
M  V30 2312 N 221.337 -2.39364 6.60038 0
M  V30 2313 H 226.177 0.232499 2.97092 0
M  V30 2314 H 223.714 0.126496 1.46555 0
M  V30 2315 H 225.672 -2.17674 3.55913 0
M  V30 2316 H 224.302 -2.13794 2.41851 0
M  V30 2317 H 223.354 -0.151742 3.80097 0
M  V30 2318 H 224.666 -0.418006 4.97045 0
M  V30 2319 H 223.82 -2.73088 5.41763 0
M  V30 2320 H 222.559 -2.53208 4.16818 0
M  V30 2321 H 221.564 -0.624873 5.46237 0
M  V30 2322 H 222.789 -0.845998 6.7381 0
M  V30 2323 H 220.735 -2.91759 5.87548 0
M  V30 2324 H 220.652 -1.9428 7.3061 0
M  V30 2325 H 221.92 -3.12074 7.14304 0
M  V30 2326 N 226.149 -1.5696 0.141893 0
M  V30 2327 C 227.081 -2.13619 -0.830627 0
M  V30 2328 C 228.094 -1.08439 -1.21428 0
M  V30 2329 O 229.283 -1.35734 -1.15925 0
M  V30 2330 C 226.383 -2.63978 -2.12529 0
M  V30 2331 C 225.556 -3.93504 -1.9098 0
M  V30 2332 C 224.615 -4.29225 -3.04388 0
M  V30 2333 O 223.641 -4.97641 -2.76302 0
M  V30 2334 N 224.843 -3.88393 -4.31429 0
M  V30 2335 H 227.608 -2.97691 -0.34641 0
M  V30 2336 H 225.169 -1.61846 -0.0418375 0
M  V30 2337 H 227.161 -2.84891 -2.87436 0
M  V30 2338 H 225.731 -1.84659 -2.52229 0
M  V30 2339 H 224.951 -3.81269 -1.00139 0
M  V30 2340 H 226.239 -4.78154 -1.73914 0
M  V30 2341 H 225.637 -3.33257 -4.57117 0
M  V30 2342 H 224.194 -4.14368 -5.03133 0
M  V30 2343 N 227.627 0.131896 -1.57047 0
M  V30 2344 C 228.873 0.843179 -1.84441 0
M  V30 2345 C 229.206 1.80129 -0.725749 0
M  V30 2346 O 228.481 1.92624 0.269469 0
M  V30 2347 C 228.764 1.60442 -3.22382 0
M  V30 2348 C 228.617 0.666782 -4.4483 0
M  V30 2349 C 229.936 2.56354 -3.5773 0
M  V30 2350 H 227.055 0.305081 -0.670891 0
M  V30 2351 H 229.697 0.107839 -1.89694 0
M  V30 2352 H 227.847 2.23128 -3.18035 0
M  V30 2353 H 229.519 0.0497646 -4.61273 0
M  V30 2354 H 227.762 -0.022609 -4.33794 0
M  V30 2355 H 228.433 1.23579 -5.37989 0
M  V30 2356 H 230.909 2.0378 -3.62785 0
M  V30 2357 H 229.785 3.06657 -4.5525 0
M  V30 2358 H 230.046 3.38419 -2.84473 0
M  V30 2359 N 229.106 1.52395 0.401703 0
M  V30 2360 C 230.354 1.66488 1.14569 0
M  V30 2361 C 230.675 0.400897 1.90835 0
M  V30 2362 O 229.945 -0.584415 1.8698 0
M  V30 2363 H 228.525 0.613672 0.425929 0
M  V30 2364 H 231.187 1.89464 0.457093 0
M  V30 2365 H 230.283 2.50942 1.85566 0
M  V30 2366 N 230.584 -0.659388 1.43143 0
M  V30 2367 C 231.809 -1.45221 1.48073 0
M  V30 2368 C 232.234 -1.87845 0.097995 0
M  V30 2369 O 231.592 -1.56985 -0.90694 0
M  V30 2370 C 231.64 -2.66748 2.42647 0
M  V30 2371 O 230.744 -3.65583 1.90848 0
M  V30 2372 H 230.085 -0.435669 0.501088 0
M  V30 2373 H 232.615 -0.807432 1.87994 0
M  V30 2374 H 232.625 -3.14637 2.59745 0
M  V30 2375 H 231.3 -2.35067 3.43098 0
M  V30 2376 H 229.877 -3.24693 1.83381 0
M  V30 2377 N 232.062 -1.29571 -0.897171 0
M  V30 2378 C 233.31 -1.17456 -1.64464 0
M  V30 2379 C 233.631 0.273698 -1.9307 0
M  V30 2380 O 232.901 1.18684 -1.55855 0
M  V30 2381 H 231.481 -0.431706 -0.609622 0
M  V30 2382 H 234.143 -1.62531 -1.07562 0
M  V30 2383 H 233.239 -1.72648 -2.59998 0
M  V30 2384 N 233.54 1.10788 -1.12088 0
M  V30 2385 C 234.786 1.82942 -0.875226 0
M  V30 2386 C 235.119 1.84779 0.597538 0
M  V30 2387 O 234.394 1.30578 1.44152 0
M  V30 2388 C 234.677 3.29789 -1.44606 0
M  V30 2389 C 234.53 3.36307 -2.98693 0
M  V30 2390 C 235.849 4.26064 -1.10261 0
M  V30 2391 H 232.968 0.664195 -0.319397 0
M  V30 2392 H 235.61 1.29867 -1.38689 0
M  V30 2393 H 233.76 3.75118 -1.01089 0
M  V30 2394 H 235.432 2.99487 -3.50864 0
M  V30 2395 H 233.675 2.76318 -3.34411 0
M  V30 2396 H 234.346 4.39694 -3.33726 0
M  V30 2397 H 236.822 3.88951 -1.4784 0
M  V30 2398 H 235.698 5.27183 -1.52869 0
M  V30 2399 H 235.959 4.42098 -0.0142953 0
M  V30 2400 N 235.018 0.912232 1.28515 0
M  V30 2401 C 236.246 0.560416 1.99166 0
M  V30 2402 C 236.661 -0.857927 1.68182 0
M  V30 2403 O 236.018 -1.56805 0.933733 0
M  V30 2404 C 236.069 0.758142 3.53461 0
M  V30 2405 O 235.79 2.12067 3.83352 0
M  V30 2406 C 237.291 0.412954 4.41372 0
M  V30 2407 H 234.511 0.213805 0.636026 0
M  V30 2408 H 237.055 1.22502 1.63749 0
M  V30 2409 H 235.21 0.140556 3.87145 0
M  V30 2410 H 235.624 2.15923 4.77993 0
M  V30 2411 H 237.098 0.60208 5.48707 0
M  V30 2412 H 237.575 -0.65073 4.34353 0
M  V30 2413 H 238.181 1.00802 4.13182 0
M  V30 2414 N 236.496 -1.42363 0.676048 0
M  V30 2415 C 237.724 -2.05859 0.207268 0
M  V30 2416 C 238.139 -1.50796 -1.13605 0
M  V30 2417 O 237.496 -0.648265 -1.70598 0
M  V30 2418 C 237.547 -3.61248 0.134975 0
M  V30 2419 O 237.268 -4.1427 1.42521 0
M  V30 2420 C 238.769 -4.41859 -0.357151 0
M  V30 2421 H 235.989 -0.663431 0.100503 0
M  V30 2422 H 238.533 -1.82479 0.923136 0
M  V30 2423 H 236.688 -3.83735 -0.531588 0
M  V30 2424 H 237.102 -5.0815 1.29939 0
M  V30 2425 H 238.576 -5.50847 -0.356641 0
M  V30 2426 H 239.053 -4.16536 -1.39264 0
M  V30 2427 H 239.659 -4.24392 0.27772 0
M  V30 2428 N 237.974 -0.419461 -1.51915 0
M  V30 2429 C 239.251 0.211999 -1.94448 0
M  V30 2430 C 239.631 1.61703 -1.35703 0
M  V30 2431 O 238.979 2.22102 -0.536931 0
M  V30 2432 C 239.189 0.207872 -3.4838 0
M  V30 2433 C 240.537 0.422192 -4.22496 0
M  V30 2434 O 241.561 0.286778 -3.55044 0
M  V30 2435 O 240.42 0.690009 -5.42126 0
M  V30 2436 H 237.514 0.139586 -0.815135 0
M  V30 2437 H 240.06 -0.476151 -1.62883 0
M  V30 2438 H 238.832 -0.775102 -3.83546 0
M  V30 2439 H 238.455 0.939688 -3.86336 0
M  V30 2440 N 239.452 1.56882 -0.150215 0
M  V30 2441 C 240.384 2.14057 0.819286 0
M  V30 2442 C 241.397 1.09082 1.20851 0
M  V30 2443 O 242.586 1.36347 1.15203 0
M  V30 2444 C 239.686 2.65102 2.11127 0
M  V30 2445 C 238.859 3.94511 1.88891 0
M  V30 2446 C 237.918 4.30834 3.02107 0
M  V30 2447 O 236.944 4.99099 2.73659 0
M  V30 2448 N 238.146 3.90676 4.29363 0
M  V30 2449 H 240.911 2.97871 0.330618 0
M  V30 2450 H 238.472 1.61866 0.0332538 0
M  V30 2451 H 240.464 2.86411 2.85921 0
M  V30 2452 H 239.034 1.85994 2.51247 0
M  V30 2453 H 238.254 3.81795 0.981152 0
M  V30 2454 H 239.542 4.7907 1.71376 0
M  V30 2455 H 238.94 3.35677 4.55343 0
M  V30 2456 H 237.497 4.1703 5.00928 0
M  V30 2457 N 240.93 -0.123565 1.57115 0
M  V30 2458 C 242.176 -0.833386 1.84885 0
M  V30 2459 C 242.509 -1.79742 0.735292 0
M  V30 2460 O 241.784 -1.92764 -0.25925 0
M  V30 2461 C 242.067 -1.5873 3.23228 0
M  V30 2462 C 241.92 -0.643183 4.45178 0
M  V30 2463 C 243.239 -2.54453 3.59085 0
M  V30 2464 H 240.358 -0.301518 0.6725 0
M  V30 2465 H 243 -0.097778 1.89748 0
M  V30 2466 H 241.15 -2.21438 3.19214 0
M  V30 2467 H 242.822 -0.0253015 4.61293 0
M  V30 2468 H 241.065 0.0456139 4.33776 0
M  V30 2469 H 241.736 -1.20724 5.38637 0
M  V30 2470 H 244.212 -2.01853 3.63861 0
M  V30 2471 H 243.088 -3.04238 4.5687 0
M  V30 2472 H 243.349 -3.36906 2.86264 0
M  V30 2473 N 242.408 -1.52605 -0.393616 0
M  V30 2474 C 243.34 -1.73303 -1.49995 0
M  V30 2475 C 244.353 -0.613473 -1.50799 0
M  V30 2476 O 245.542 -0.889049 -1.54784 0
M  V30 2477 C 242.642 -1.77245 -2.88855 0
M  V30 2478 C 241.815 -3.06483 -3.12069 0
M  V30 2479 C 240.874 -3.02033 -4.30886 0
M  V30 2480 O 239.9 -3.75907 -4.27414 0
M  V30 2481 N 241.102 -2.20897 -5.36828 0
M  V30 2482 H 243.867 -2.68756 -1.32629 0
M  V30 2483 H 241.428 -1.51036 -0.583083 0
M  V30 2484 H 243.42 -1.7178 -3.66434 0
M  V30 2485 H 241.99 -0.891993 -2.99603 0
M  V30 2486 H 241.21 -3.25474 -2.22396 0
M  V30 2487 H 242.498 -3.91947 -3.2443 0
M  V30 2488 H 241.896 -1.60336 -5.42502 0
M  V30 2489 H 240.453 -2.21275 -6.13091 0
M  V30 2490 N 243.887 0.651787 -1.4349 0
M  V30 2491 C 244.85 1.74647 -1.48429 0
M  V30 2492 C 245.85 1.56513 -0.368817 0
M  V30 2493 O 247.04 1.62385 -0.630623 0
M  V30 2494 C 244.172 3.13533 -1.33827 0
M  V30 2495 H 245.365 1.71649 -2.4592 0
M  V30 2496 H 242.918 0.863573 -1.30277 0
M  V30 2497 H 243.653 3.22142 -0.37349 0
M  V30 2498 H 243.438 3.28101 -2.14691 0
M  V30 2499 H 244.928 3.93356 -1.40218 0
M  V30 2500 N 245.365 1.30045 0.890287 0
M  V30 2501 C 246.275 1.17885 2.02831 0
M  V30 2502 C 247.291 0.0999609 1.73713 0
M  V30 2503 O 248.467 0.313867 1.98939 0
M  V30 2504 C 245.532 0.866079 3.35708 0
M  V30 2505 C 244.593 2.02979 3.78283 0
M  V30 2506 C 243.826 1.73184 5.0482 0
M  V30 2507 O 244.049 0.657237 5.66601 0
M  V30 2508 O 242.983 2.58267 5.43674 0
M  V30 2509 H 246.809 2.13474 2.16015 0
M  V30 2510 H 244.394 1.09587 1.01543 0
M  V30 2511 H 246.276 0.706623 4.15433 0
M  V30 2512 H 244.951 -0.0599443 3.23644 0
M  V30 2513 H 243.858 2.24454 2.99285 0
M  V30 2514 H 245.191 2.93734 3.94944 0
M  V30 2515 N 246.843 -1.10192 1.12674 0
M  V30 2516 C 247.806 -2.14786 0.799979 0
M  V30 2517 C 248.806 -1.59711 -0.18685 0
M  V30 2518 O 249.996 -1.74156 0.0392558 0
M  V30 2519 C 247.128 -3.40374 0.189228 0
M  V30 2520 H 248.321 -2.45203 1.72671 0
M  V30 2521 H 245.874 -1.25597 0.930326 0
M  V30 2522 H 246.609 -3.15577 -0.747107 0
M  V30 2523 H 246.394 -3.81637 0.899766 0
M  V30 2524 H 247.884 -4.17594 -0.0228143 0
M  V30 2525 N 248.321 -0.919034 -1.28029 0
M  V30 2526 C 249.268 -0.410005 -2.27129 0
M  V30 2527 C 250.238 0.518405 -1.57803 0
M  V30 2528 O 251.423 0.439451 -1.8567 0
M  V30 2529 C 248.563 0.339054 -3.4343 0
M  V30 2530 C 247.676 -0.622468 -4.27492 0
M  V30 2531 C 246.811 0.145567 -5.31001 0
M  V30 2532 C 245.85 -0.809226 -6.06727 0
M  V30 2533 N 244.987 -0.0743728 -7.02061 0
M  V30 2534 H 249.827 -1.26011 -2.70047 0
M  V30 2535 H 247.364 -0.632663 -1.328 0
M  V30 2536 H 249.322 0.789586 -4.0966 0
M  V30 2537 H 247.952 1.15346 -3.01488 0
M  V30 2538 H 247.004 -1.19153 -3.61257 0
M  V30 2539 H 248.316 -1.35252 -4.80113 0
M  V30 2540 H 247.47 0.656417 -6.03139 0
M  V30 2541 H 246.209 0.908643 -4.79161 0
M  V30 2542 H 245.214 -1.3314 -5.33436 0
M  V30 2543 H 246.439 -1.57194 -6.60656 0
M  V30 2544 H 244.385 0.670616 -6.52563 0
M  V30 2545 H 244.302 -0.744157 -7.52329 0
M  V30 2546 H 245.57 0.416109 -7.78389 0
M  V30 2547 N 249.799 1.42003 -0.683588 0
M  V30 2548 C 250.709 2.34597 -0.0109075 0
M  V30 2549 C 251.725 1.55576 0.779245 0
M  V30 2550 O 252.901 1.88107 0.719555 0
M  V30 2551 C 249.966 3.34199 0.922588 0
M  V30 2552 C 249.027 4.29115 0.125984 0
M  V30 2553 C 248.26 5.23959 1.01502 0
M  V30 2554 O 248.483 5.23952 2.25456 0
M  V30 2555 O 247.417 6.00053 0.47111 0
M  V30 2556 H 251.243 2.93675 -0.773853 0
M  V30 2557 H 248.828 1.42654 -0.443861 0
M  V30 2558 H 250.71 3.95365 1.45823 0
M  V30 2559 H 249.385 2.77582 1.66523 0
M  V30 2560 H 248.292 3.71335 -0.453969 0
M  V30 2561 H 249.625 4.88798 -0.577736 0
M  V30 2562 N 251.277 0.427512 1.51691 0
M  V30 2563 C 252.502 -0.143601 2.06902 0
M  V30 2564 C 252.927 -1.36536 1.29382 0
M  V30 2565 O 252.285 -1.78289 0.329043 0
M  V30 2566 C 252.333 -0.454207 3.57728 0
M  V30 2567 O 251.437 -1.54228 3.82475 0
M  V30 2568 H 250.778 -0.00617128 0.663971 0
M  V30 2569 H 253.308 0.606014 1.95419 0
M  V30 2570 H 253.318 -0.707525 4.01818 0
M  V30 2571 H 251.993 0.438812 4.13579 0
M  V30 2572 H 250.57 -1.2797 3.50254 0
M  V30 2573 N 252.755 -1.56801 0.158532 0
M  V30 2574 C 254.003 -1.96102 -0.488712 0
M  V30 2575 C 254.324 -1.04498 -1.64636 0
M  V30 2576 O 253.594 -0.108783 -1.95598 0
M  V30 2577 H 252.174 -0.724102 -0.183535 0
M  V30 2578 H 254.836 -1.93457 0.236728 0
M  V30 2579 H 253.932 -3.00097 -0.857219 0
M  V30 2580 N 254.233 0.115231 -1.57178 0
M  V30 2581 C 255.644 0.67197 -1.74188 0
M  V30 2582 C 255.995 1.80125 -0.777777 0
M  V30 2583 O 255.12 2.16346 0.0484376 0
M  V30 2584 C 255.715 1.22573 -3.1585 0
M  V30 2585 C 254.274 1.72872 -3.34353 0
M  V30 2586 C 253.421 0.629972 -2.70049 0
M  V30 2587 H 256.372 -0.110712 -1.58313 0
M  V30 2588 H 256.393 2.09535 -3.17609 0
M  V30 2589 H 255.905 0.403598 -3.85996 0
M  V30 2590 H 254.006 2.5755 -2.69256 0
M  V30 2591 H 254.119 1.83557 -4.42542 0
M  V30 2592 H 252.483 1.0645 -2.31388 0
M  V30 2593 H 253.266 -0.181241 -3.42821 0
M  V30 2594 N 255.711 1.52812 0.385517 0
M  V30 2595 C 256.939 1.71907 1.15133 0
M  V30 2596 C 257.354 0.439004 1.83625 0
M  V30 2597 O 256.711 -0.586765 1.7281 0
M  V30 2598 C 256.762 2.87099 2.19673 0
M  V30 2599 O 256.483 4.10151 1.53973 0
M  V30 2600 C 257.984 3.17902 3.08955 0
M  V30 2601 H 255.204 0.575479 0.345057 0
M  V30 2602 H 257.748 1.99476 0.45052 0
M  V30 2603 H 255.903 2.61982 2.85384 0
M  V30 2604 H 256.317 4.74514 2.23465 0
M  V30 2605 H 257.791 4.01959 3.7833 0
M  V30 2606 H 258.268 2.3243 3.72657 0
M  V30 2607 H 258.874 3.44871 2.48885 0
M  V30 2608 N 257.189 -0.644168 1.43834 0
M  V30 2609 C 258.417 -1.43147 1.49387 0
M  V30 2610 C 258.832 -1.88452 0.114583 0
M  V30 2611 O 258.189 -1.60047 -0.876989 0
M  V30 2612 C 258.24 -2.66046 2.44748 0
M  V30 2613 O 257.961 -2.22633 3.77314 0
M  V30 2614 C 259.462 -3.59311 2.59635 0
M  V30 2615 H 256.682 -0.439447 0.507077 0
M  V30 2616 H 259.226 -0.78895 1.88669 0
M  V30 2617 H 257.381 -3.26418 2.08638 0
M  V30 2618 H 257.795 -3.02216 4.28679 0
M  V30 2619 H 259.269 -4.42187 3.30416 0
M  V30 2620 H 259.746 -4.07259 1.64427 0
M  V30 2621 H 260.352 -3.04816 2.96593 0
M  V30 2622 N 258.668 -1.30515 -0.883378 0
M  V30 2623 C 259.898 -1.22182 -1.66599 0
M  V30 2624 C 260.306 0.217507 -1.87946 0
M  V30 2625 O 259.649 1.1554 -1.42815 0
M  V30 2626 C 259.711 -1.88146 -3.06335 0
M  V30 2627 C 259.375 -3.37476 -3.08154 0
M  V30 2628 C 260.372 -4.33443 -2.87094 0
M  V30 2629 C 258.057 -3.7895 -3.29701 0
M  V30 2630 C 260.051 -5.68858 -2.8754 0
M  V30 2631 C 257.738 -5.14482 -3.29776 0
M  V30 2632 C 258.736 -6.09246 -3.0872 0
M  V30 2633 O 258.424 -7.42302 -3.08615 0
M  V30 2634 H 258.156 -0.423898 -0.52658 0
M  V30 2635 H 260.71 -1.72703 -1.11188 0
M  V30 2636 H 258.94 -1.32157 -3.63416 0
M  V30 2637 H 260.629 -1.7391 -3.66756 0
M  V30 2638 H 261.395 -4.02733 -2.70243 0
M  V30 2639 H 257.274 -3.05631 -3.45124 0
M  V30 2640 H 260.818 -6.428 -2.71024 0
M  V30 2641 H 256.715 -5.44832 -3.46163 0
M  V30 2642 H 257.483 -7.5131 -3.24769 0
M  V30 2643 N 260.146 1.09593 -1.13257 0
M  V30 2644 C 261.093 2.1618 -0.808381 0
M  V30 2645 C 262.063 1.64517 0.228754 0
M  V30 2646 O 263.248 1.9053 0.101381 0
M  V30 2647 C 260.388 3.43973 -0.278675 0
M  V30 2648 C 259.501 4.09545 -1.37466 0
M  V30 2649 C 258.636 5.25088 -0.803479 0
M  V30 2650 C 257.675 5.82579 -1.87799 0
M  V30 2651 N 256.812 6.89486 -1.32488 0
M  V30 2652 H 261.652 2.43254 -1.72138 0
M  V30 2653 H 259.189 1.19392 -0.859294 0
M  V30 2654 H 261.147 4.17174 0.0465583 0
M  V30 2655 H 259.777 3.17223 0.597459 0
M  V30 2656 H 258.829 3.34226 -1.81652 0
M  V30 2657 H 260.141 4.48307 -2.18684 0
M  V30 2658 H 259.295 6.05178 -0.429427 0
M  V30 2659 H 258.034 4.87684 0.0397956 0
M  V30 2660 H 257.039 5.01152 -2.26113 0
M  V30 2661 H 258.264 6.22045 -2.72463 0
M  V30 2662 H 256.21 6.54064 -0.503575 0
M  V30 2663 H 256.127 7.27007 -2.07355 0
M  V30 2664 H 257.395 7.73336 -0.978336 0
M  V30 2665 N 261.624 0.925811 1.2754 0
M  V30 2666 C 262.87 0.566092 1.94739 0
M  V30 2667 C 263.203 -0.890057 1.72603 0
M  V30 2668 O 262.478 -1.63467 1.05399 0
M  V30 2669 C 262.761 0.89054 3.48915 0
M  V30 2670 C 262.614 2.4003 3.80402 0
M  V30 2671 C 263.933 0.395101 4.38323 0
M  V30 2672 H 261.052 0.20714 0.707292 0
M  V30 2673 H 263.694 1.15725 1.50691 0
M  V30 2674 H 261.844 0.387452 3.86563 0
M  V30 2675 H 263.516 2.97494 3.52555 0
M  V30 2676 H 261.759 2.85028 3.2702 0
M  V30 2677 H 262.43 2.57785 4.8811 0
M  V30 2678 H 264.906 0.826241 4.07814 0
M  V30 2679 H 263.782 0.651086 5.45025 0
M  V30 2680 H 264.043 -0.704798 4.36446 0
M  V30 2681 N 263.102 -1.41638 0.69111 0
M  V30 2682 C 264.33 -2.05628 0.22909 0
M  V30 2683 C 264.745 -1.51992 -1.11999 0
M  V30 2684 O 264.102 -0.666322 -1.69901 0
M  V30 2685 C 264.153 -3.61084 0.173283 0
M  V30 2686 O 263.874 -4.12735 1.46907 0
M  V30 2687 C 265.375 -4.42213 -0.310266 0
M  V30 2688 H 262.595 -0.662327 0.107534 0
M  V30 2689 H 265.139 -1.81489 0.942438 0
M  V30 2690 H 263.294 -3.84278 -0.490858 0
M  V30 2691 H 263.708 -5.06743 1.35322 0
M  V30 2692 H 265.182 -5.51194 -0.298196 0
M  V30 2693 H 265.659 -4.1799 -1.34838 0
M  V30 2694 H 266.265 -4.24074 0.322716 0
M  V30 2695 N 264.58 -0.43555 -1.51462 0
M  V30 2696 C 265.805 0.132627 -2.06976 0
M  V30 2697 C 266.23 1.35848 -1.30104 0
M  V30 2698 O 265.588 1.78112 -0.338493 0
M  V30 2699 C 265.636 0.43523 -3.57964 0
M  V30 2700 O 264.74 1.52198 -3.83288 0
M  V30 2701 H 264.081 0.00265 -0.663995 0
M  V30 2702 H 266.611 -0.616369 -1.95095 0
M  V30 2703 H 266.621 0.686206 -4.02188 0
M  V30 2704 H 265.296 -0.460739 -4.1334 0
M  V30 2705 H 263.873 1.2611 -3.50928 0
M  V30 2706 N 266.058 1.56714 -0.166846 0
M  V30 2707 C 267.286 2.0112 0.485644 0
M  V30 2708 C 267.701 1.04705 1.57106 0
M  V30 2709 O 267.058 0.0471923 1.82439 0
M  V30 2710 C 267.109 3.45361 1.06808 0
M  V30 2711 O 266.83 4.38092 0.0259995 0
M  V30 2712 C 268.331 4.05145 1.79924 0
M  V30 2713 H 265.551 0.65931 0.124704 0
M  V30 2714 H 268.095 2.02746 -0.267262 0
M  V30 2715 H 266.25 3.44524 1.7715 0
M  V30 2716 H 266.664 5.22519 0.455398 0
M  V30 2717 H 268.138 5.08009 2.15942 0
M  V30 2718 H 268.615 3.46982 2.69258 0
M  V30 2719 H 269.221 4.09672 1.14234 0
M  V30 2720 N 267.536 -0.106894 1.57237 0
M  V30 2721 C 268.466 -1.13148 2.04254 0
M  V30 2722 C 269.447 -1.42476 0.929224 0
M  V30 2723 O 270.632 -1.52709 1.19973 0
M  V30 2724 C 267.762 -2.4545 2.45706 0
M  V30 2725 C 266.716 -2.30558 3.60592 0
M  V30 2726 C 266.042 -3.67931 3.87983 0
M  V30 2727 C 267.342 -1.75597 4.91897 0
M  V30 2728 H 269.036 -0.740374 2.90101 0
M  V30 2729 H 266.582 -0.354696 1.39563 0
M  V30 2730 H 268.535 -3.17389 2.77205 0
M  V30 2731 H 267.259 -2.86475 1.56843 0
M  V30 2732 H 265.918 -1.61067 3.29322 0
M  V30 2733 H 265.566 -4.06462 2.96306 0
M  V30 2734 H 265.266 -3.58817 4.65322 0
M  V30 2735 H 266.79 -4.41356 4.21945 0
M  V30 2736 H 268.204 -2.37364 5.21854 0
M  V30 2737 H 266.601 -1.77272 5.73319 0
M  V30 2738 H 267.671 -0.714451 4.79608 0
M  V30 2739 N 269.014 -1.53014 -0.377408 0
M  V30 2740 C 270.242 -1.72515 -1.14219 0
M  V30 2741 C 270.657 -0.448735 -1.8339 0
M  V30 2742 O 270.014 0.577592 -1.73119 0
M  V30 2743 C 270.065 -2.8826 -2.18148 0
M  V30 2744 O 269.786 -4.10962 -1.51795 0
M  V30 2745 C 271.287 -3.19536 -3.07264 0
M  V30 2746 H 268.507 -0.577301 -0.342001 0
M  V30 2747 H 271.051 -1.99712 -0.439935 0
M  V30 2748 H 269.206 -2.63492 -2.83991 0
M  V30 2749 H 269.62 -4.75693 -2.20945 0
M  V30 2750 H 271.094 -4.03959 -3.76193 0
M  V30 2751 H 271.571 -2.34403 -3.71419 0
M  V30 2752 H 272.177 -3.46186 -2.47053 0
M  V30 2753 N 270.492 0.636531 -1.44174 0
M  V30 2754 C 271.741 1.39213 -1.45954 0
M  V30 2755 C 272.054 1.95374 -0.0939119 0
M  V30 2756 O 273.26 2.71498 0.0107767 0
M  V30 2757 C 271.716 2.52025 -2.56927 0
M  V30 2758 C 271.324 2.024 -3.99673 0
M  V30 2759 C 273.068 3.29269 -2.67922 0
M  V30 2760 C 270.975 3.12521 -5.0208 0
M  V30 2761 H 269.905 0.523132 -0.542999 0
M  V30 2762 H 272.556 0.685349 -1.70221 0
M  V30 2763 H 270.938 3.25253 -2.25891 0
M  V30 2764 H 272.112 1.36073 -4.40251 0
M  V30 2765 H 270.427 1.37987 -3.92872 0
M  V30 2766 H 273.024 4.11352 -3.41605 0
M  V30 2767 H 273.367 3.78397 -1.73555 0
M  V30 2768 H 273.9 2.63129 -2.98342 0
M  V30 2769 H 270.639 2.68343 -5.98057 0
M  V30 2770 H 270.159 3.77507 -4.66099 0
M  V30 2771 H 271.838 3.77385 -5.25538 0
M  V30 2772 N 271.97 1.30982 0.876444 0
M  V30 2773 C 272.917 1.18085 1.98304 0
M  V30 2774 C 273.887 0.0682263 1.6596 0
M  V30 2775 O 275.072 0.239937 1.89285 0
M  V30 2776 C 272.212 0.887475 3.33493 0
M  V30 2777 C 271.325 2.08281 3.78475 0
M  V30 2778 C 270.46 1.72678 5.0235 0
M  V30 2779 C 269.499 2.88657 5.39762 0
M  V30 2780 N 268.636 2.53292 6.54819 0
M  V30 2781 H 273.476 2.1275 2.08666 0
M  V30 2782 H 271.013 1.05839 1.02159 0
M  V30 2783 H 272.971 0.697961 4.1132 0
M  V30 2784 H 271.601 -0.022315 3.22792 0
M  V30 2785 H 270.653 2.3833 2.96484 0
M  V30 2786 H 271.965 2.95108 4.02135 0
M  V30 2787 H 271.119 1.50151 5.87826 0
M  V30 2788 H 269.858 0.830327 4.8058 0
M  V30 2789 H 268.863 3.1184 4.52809 0
M  V30 2790 H 270.088 3.79002 5.63502 0
M  V30 2791 H 268.034 1.66163 6.34607 0
M  V30 2792 H 267.951 3.3365 6.7839 0
M  V30 2793 H 269.219 2.34143 7.43503 0
M  V30 2794 N 273.449 -1.08991 1.13837 0
M  V30 2795 C 274.359 -2.19301 0.833333 0
M  V30 2796 C 275.375 -1.73026 -0.183847 0
M  V30 2797 O 276.551 -2.01395 -0.0138092 0
M  V30 2798 C 273.616 -3.45323 0.308651 0
M  V30 2799 C 272.677 -4.06255 1.38764 0
M  V30 2800 C 271.91 -5.26262 0.887896 0
M  V30 2801 O 272.133 -5.69747 -0.27287 0
M  V30 2802 O 271.067 -5.78435 1.66421 0
M  V30 2803 H 274.893 -2.47854 1.75506 0
M  V30 2804 H 272.478 -1.18012 0.916166 0
M  V30 2805 H 274.36 -4.21394 0.0216739 0
M  V30 2806 H 273.035 -3.18362 -0.585431 0
M  V30 2807 H 271.942 -3.318 1.72799 0
M  V30 2808 H 273.275 -4.37452 2.25602 0
M  V30 2809 N 274.927 -0.932562 -1.27047 0
M  V30 2810 C 276.152 -0.591474 -1.98787 0
M  V30 2811 C 276.577 0.824601 -1.69062 0
M  V30 2812 O 275.935 1.5541 -0.933677 0
M  V30 2813 C 275.983 -0.829808 -3.50922 0
M  V30 2814 O 275.087 0.102266 -4.12273 0
M  V30 2815 H 274.428 -0.227185 -0.623926 0
M  V30 2816 H 276.958 -1.25314 -1.61733 0
M  V30 2817 H 276.968 -0.747292 -4.01098 0
M  V30 2818 H 275.643 -1.86201 -3.7189 0
M  V30 2819 H 274.22 -0.0305761 -3.72887 0
M  V30 2820 N 276.405 1.4127 -0.698611 0
M  V30 2821 C 277.682 1.94955 -0.158762 0
M  V30 2822 C 278.062 1.63781 1.33188 0
M  V30 2823 O 277.41 0.946423 2.07979 0
M  V30 2824 C 277.62 3.46044 -0.453309 0
M  V30 2825 C 278.968 4.22872 -0.382707 0
M  V30 2826 O 279.992 3.54076 -0.388396 0
M  V30 2827 O 278.851 5.45407 -0.345463 0
M  V30 2828 H 275.945 0.82683 -0.0167505 0
M  V30 2829 H 278.491 1.50971 -0.77498 0
M  V30 2830 H 277.263 3.62028 -1.48498 0
M  V30 2831 H 276.886 3.97128 0.19373 0
M  V30 2832 N 277.883 0.443576 1.51229 0
M  V30 2833 C 279.129 -0.11321 2.03085 0
M  V30 2834 C 279.484 -1.39841 1.32145 0
M  V30 2835 O 278.777 -1.86723 0.429542 0
M  V30 2836 C 278.971 -0.380579 3.55368 0
M  V30 2837 C 278.8 0.877157 4.41062 0
M  V30 2838 C 277.57 1.4125 4.85156 0
M  V30 2839 C 279.768 1.76503 4.83064 0
M  V30 2840 N 277.75 2.62213 5.55083 0
M  V30 2841 C 279.121 2.82067 5.52122 0
M  V30 2842 C 281.176 1.7787 4.65045 0
M  V30 2843 C 279.879 3.88952 6.05069 0
M  V30 2844 C 281.905 2.83694 5.18914 0
M  V30 2845 C 281.267 3.87978 5.87922 0
M  V30 2846 H 277.366 -0.00210178 0.781997 0
M  V30 2847 H 279.95 0.605641 1.85041 0
M  V30 2848 H 278.121 -1.06847 3.73414 0
M  V30 2849 H 279.853 -0.929274 3.93887 0
M  V30 2850 H 276.608 0.965542 4.63653 0
M  V30 2851 H 277.032 3.23568 5.9467 0
M  V30 2852 H 281.674 0.985744 4.11148 0
M  V30 2853 H 279.392 4.69082 6.58018 0
M  V30 2854 H 282.978 2.85702 5.06819 0
M  V30 2855 H 281.858 4.68517 6.28857 0
M  V30 2856 N 279.361 -1.56624 0.175154 0
M  V30 2857 C 280.291 -2.21155 -0.749195 0
M  V30 2858 C 281.272 -1.16836 -1.23626 0
M  V30 2859 O 282.457 -1.45277 -1.28873 0
M  V30 2860 C 279.587 -2.8553 -1.97711 0
M  V30 2861 C 278.541 -3.95921 -1.62575 0
M  V30 2862 C 277.867 -4.47365 -2.92864 0
M  V30 2863 C 279.167 -5.15323 -0.850838 0
M  V30 2864 H 280.861 -2.98653 -0.211295 0
M  V30 2865 H 278.407 -1.43651 -0.100188 0
M  V30 2866 H 280.36 -3.2935 -2.62881 0
M  V30 2867 H 279.084 -2.05406 -2.53921 0
M  V30 2868 H 277.743 -3.52762 -0.997719 0
M  V30 2869 H 277.391 -3.64027 -3.47122 0
M  V30 2870 H 277.091 -5.21839 -2.70106 0
M  V30 2871 H 278.615 -4.93873 -3.59056 0
M  V30 2872 H 280.029 -5.55812 -1.40521 0
M  V30 2873 H 278.426 -5.95739 -0.722154 0
M  V30 2874 H 279.496 -4.84661 0.152082 0
M  V30 2875 N 280.839 0.0985539 -1.57292 0
M  V30 2876 C 282.087 0.801092 -1.85545 0
M  V30 2877 C 282.408 1.79438 -0.763353 0
M  V30 2878 O 281.678 1.94763 0.21073 0
M  V30 2879 H 280.258 0.29884 -0.684619 0
M  V30 2880 H 282.92 0.0810064 -1.94732 0
M  V30 2881 H 282.016 1.3338 -2.82163 0
M  V30 2882 N 282.317 1.53212 0.369288 0
M  V30 2883 C 283.249 1.75668 1.47219 0
M  V30 2884 C 284.262 0.637387 1.49804 0
M  V30 2885 O 285.451 0.913561 1.5335 0
M  V30 2886 C 282.551 1.81818 2.85999 0
M  V30 2887 C 281.724 3.11409 3.07153 0
M  V30 2888 C 280.783 3.08849 4.26026 0
M  V30 2889 O 279.809 3.82659 4.2138 0
M  V30 2890 N 281.011 2.29409 5.33246 0
M  V30 2891 H 283.776 2.70832 1.28337 0
M  V30 2892 H 281.337 1.51944 0.55898 0
M  V30 2893 H 283.329 1.77588 3.63655 0
M  V30 2894 H 281.899 0.939544 2.98146 0
M  V30 2895 H 281.119 3.28971 2.1719 0
M  V30 2896 H 282.407 3.97059 3.18154 0
M  V30 2897 H 281.805 1.68946 5.39883 0
M  V30 2898 H 280.362 2.31001 6.09493 0
M  V30 2899 N 283.795 -0.628877 1.44509 0
M  V30 2900 C 285.02 -1.42048 1.5112 0
M  V30 2901 C 285.445 -1.87594 0.137818 0
M  V30 2902 O 284.803 -1.58873 -0.873437 0
M  V30 2903 C 284.851 -2.61541 2.48251 0
M  V30 2904 O 283.955 -3.61453 1.98559 0
M  V30 2905 H 283.296 -0.424942 0.510216 0
M  V30 2906 H 285.826 -0.767374 1.89664 0
M  V30 2907 H 285.836 -3.09057 2.66361 0
M  V30 2908 H 284.511 -2.27736 3.48007 0
M  V30 2909 H 283.088 -3.20731 1.90227 0
M  V30 2910 N 285.273 -1.31445 -0.869486 0
M  V30 2911 C 286.206 -1.13465 -1.97992 0
M  V30 2912 C 287.184 -0.0380291 -1.62556 0
M  V30 2913 O 288.368 -0.194544 -1.87493 0
M  V30 2914 C 285.495 -0.733822 -3.30655 0
M  V30 2915 C 284.541 -1.83356 -3.85075 0
M  V30 2916 S 285.374 -3.43909 -4.10472 0
M  V30 2917 C 286.53 -3.05763 -5.46132 0
M  V30 2918 H 286.763 -2.07471 -2.1294 0
M  V30 2919 H 284.296 -1.15936 -1.01972 0
M  V30 2920 H 286.254 -0.509306 -4.07328 0
M  V30 2921 H 284.915 0.187123 -3.13542 0
M  V30 2922 H 284.108 -1.50574 -4.80982 0
M  V30 2923 H 283.71 -2.01315 -3.15195 0
M  V30 2924 H 286.002 -2.54686 -6.27807 0
M  V30 2925 H 286.945 -4.00635 -5.83864 0
M  V30 2926 H 287.353 -2.43192 -5.09429 0
M  V30 2927 N 286.751 1.08385 -1.14413 0
M  V30 2928 C 287.998 1.80776 -0.912482 0
M  V30 2929 C 288.326 1.86236 0.560934 0
M  V30 2930 O 287.581 1.33431 1.43159 0
M  V30 2931 C 287.88 3.26273 -1.45879 0
M  V30 2932 C 287.546 3.4093 -2.95089 0
M  V30 2933 C 286.208 3.44638 -3.35824 0
M  V30 2934 C 288.56 3.44591 -3.91033 0
M  V30 2935 C 285.888 3.49597 -4.71167 0
M  V30 2936 C 288.24 3.51086 -5.26233 0
M  V30 2937 C 286.904 3.53067 -5.6648 0
M  V30 2938 H 286.174 0.661507 -0.333901 0
M  V30 2939 H 288.821 1.27613 -1.42784 0
M  V30 2940 H 287.126 3.82146 -0.864376 0
M  V30 2941 H 288.823 3.80839 -1.2555 0
M  V30 2942 H 285.413 3.38736 -2.62594 0
M  V30 2943 H 289.597 3.40957 -3.60641 0
M  V30 2944 H 284.853 3.49424 -5.0171 0
M  V30 2945 H 289.027 3.52864 -6.00383 0
M  V30 2946 H 286.654 3.56662 -6.71339 0
M  V30 2947 N 288.23 0.939286 1.26551 0
M  V30 2948 C 289.458 0.602536 1.97932 0
M  V30 2949 C 289.873 -0.82206 1.69964 0
M  V30 2950 O 289.23 -1.54789 0.966784 0
M  V30 2951 C 289.281 0.832946 3.51773 0
M  V30 2952 O 289.002 2.20151 3.78768 0
M  V30 2953 C 290.503 0.506483 4.40397 0
M  V30 2954 H 287.723 0.227248 0.631347 0
M  V30 2955 H 290.267 1.25948 1.61113 0
M  V30 2956 H 288.422 0.222644 3.8676 0
M  V30 2957 H 288.836 2.26013 4.73306 0
M  V30 2958 H 290.31 0.718333 5.47306 0
M  V30 2959 H 290.787 -0.558451 4.35635 0
M  V30 2960 H 291.393 1.09543 4.10951 0
M  V30 2961 N 289.708 -1.40897 0.706093 0
M  V30 2962 C 290.948 -2.02916 0.245827 0
M  V30 2963 C 291.312 -1.54751 -1.13649 0
M  V30 2964 O 292.513 -2.08768 -1.69321 0
M  V30 2965 C 290.784 -3.56031 0.312537 0
M  V30 2966 S 292.343 -4.38741 -0.0721388 0
M  V30 2967 H 289.161 -0.704186 0.0982007 0
M  V30 2968 H 291.763 -1.72168 0.926207 0
M  V30 2969 H 290.467 -3.88579 1.32039 0
M  V30 2970 H 289.998 -3.91495 -0.386641 0
M  V30 2971 H 292.013 -4.78952 -1.29692 0
M  V30 2972 N 291.186 -0.45159 -1.50991 0
M  V30 2973 C 292.602 -0.104647 -1.59257 0
M  V30 2974 C 292.802 1.38728 -1.4614 0
M  V30 2975 O 291.858 2.15866 -1.30989 0
M  V30 2976 C 293.171 -0.637468 -2.93865 0
M  V30 2977 C 294.719 -0.599166 -3.07212 0
M  V30 2978 C 295.194 -1.1092 -4.44366 0
M  V30 2979 N 296.685 -1.06778 -4.50725 0
M  V30 2980 C 297.42 -1.43314 -5.55201 0
M  V30 2981 N 296.916 -1.87204 -6.67028 0
M  V30 2982 N 298.709 -1.3504 -5.45638 0
M  V30 2983 H 290.86 -1.42214 -1.57762 0
M  V30 2984 H 293.123 -0.586921 -0.744465 0
M  V30 2985 H 292.829 -1.68187 -3.08879 0
M  V30 2986 H 292.703 -0.0702139 -3.77135 0
M  V30 2987 H 295.09 0.436277 -2.91857 0
M  V30 2988 H 295.171 -1.20299 -2.25747 0
M  V30 2989 H 294.815 -2.14318 -4.60467 0
M  V30 2990 H 294.745 -0.481773 -5.24392 0
M  V30 2991 H 297.236 -0.745643 -3.70471 0
M  V30 2992 H 297.549 -2.13282 -7.42786 0
M  V30 2993 H 295.894 -1.91142 -6.68199 0
M  V30 2994 H 299.085 -1.00607 -4.57161 0
M  V30 2995 H 299.258 -1.63841 -6.26945 0
M  V30 2996 N 292.664 1.56529 -0.183458 0
M  V30 2997 C 293.91 1.97537 0.459036 0
M  V30 2998 C 294.243 1.06989 1.62071 0
M  V30 2999 O 293.518 0.11948 1.94133 0
M  V30 3000 C 293.801 3.47874 0.930368 0
M  V30 3001 C 293.654 4.492 -0.232317 0
M  V30 3002 C 294.973 4.01612 1.79989 0
M  V30 3003 H 292.092 0.718204 0.165383 0
M  V30 3004 H 294.734 1.88042 -0.272038 0
M  V30 3005 H 292.884 3.56095 1.55333 0
M  V30 3006 H 294.556 4.53027 -0.86972 0
M  V30 3007 H 292.799 4.24657 -0.885928 0
M  V30 3008 H 293.47 5.51823 0.139796 0
M  V30 3009 H 295.946 3.96097 1.27461 0
M  V30 3010 H 294.822 5.07195 2.09867 0
M  V30 3011 H 295.083 3.46163 2.74998 0
M  V30 3012 N 294.142 -0.090211 1.57342 0
M  V30 3013 C 295.419 -0.824761 1.77361 0
M  V30 3014 C 295.799 -1.96698 0.76637 0
M  V30 3015 O 295.147 -2.27586 -0.204179 0
M  V30 3016 C 295.357 -1.31481 3.23286 0
M  V30 3017 C 296.705 -1.75563 3.86604 0
M  V30 3018 O 297.729 -1.41093 3.27065 0
M  V30 3019 O 296.588 -2.39317 4.91314 0
M  V30 3020 H 293.682 -0.393776 0.727234 0
M  V30 3021 H 296.228 -0.0717138 1.69548 0
M  V30 3022 H 295 -0.496671 3.88135 0
M  V30 3023 H 294.623 -2.12973 3.35751 0
M  V30 3024 N 295.62 -1.53406 -0.361157 0
M  V30 3025 C 296.57 -1.76536 -1.44287 0
M  V30 3026 C 297.554 -0.620019 -1.48474 0
M  V30 3027 O 298.746 -0.878834 -1.53641 0
M  V30 3028 C 295.875 -1.96266 -2.81664 0
M  V30 3029 C 294.961 -3.16815 -2.81938 0
M  V30 3030 N 295.352 -4.38637 -2.51855 0
M  V30 3031 C 293.65 -3.17627 -3.13096 0
M  V30 3032 C 294.351 -5.20401 -2.59919 0
M  V30 3033 N 293.327 -4.56712 -2.94814 0
M  V30 3034 H 297.129 -2.68331 -1.19899 0
M  V30 3035 H 294.643 -1.52091 -0.56938 0
M  V30 3036 H 296.64 -2.10966 -3.59582 0
M  V30 3037 H 295.3 -1.05702 -3.07013 0
M  V30 3038 H 296.311 -4.66293 -2.25369 0
M  V30 3039 H 292.988 -2.36971 -3.43731 0
M  V30 3040 H 294.378 -6.27586 -2.39969 0
M  V30 3041 N 297.098 0.621204 -1.44841 0
M  V30 3042 C 298.514 0.94048 -1.28946 0
M  V30 3043 C 298.714 2.00154 -0.23249 0
M  V30 3044 O 297.77 2.49651 0.378237 0
M  V30 3045 C 299.083 1.39433 -2.66419 0
M  V30 3046 C 300.631 1.50927 -2.74208 0
M  V30 3047 C 301.106 1.99692 -4.12174 0
M  V30 3048 N 302.597 2.06947 -4.144 0
M  V30 3049 C 303.332 2.45871 -5.1801 0
M  V30 3050 N 302.828 2.83862 -6.31977 0
M  V30 3051 N 304.621 2.46092 -5.05366 0
M  V30 3052 H 296.772 -0.0803548 -2.12248 0
M  V30 3053 H 299.035 0.0266913 -0.947624 0
M  V30 3054 H 298.741 0.688925 -3.44887 0
M  V30 3055 H 298.615 2.36347 -2.93973 0
M  V30 3056 H 301.002 2.20561 -1.96053 0
M  V30 3057 H 301.083 0.523627 -2.50383 0
M  V30 3058 H 300.727 1.30649 -4.90809 0
M  V30 3059 H 300.657 2.99146 -4.33381 0
M  V30 3060 H 303.148 1.80232 -3.32152 0
M  V30 3061 H 303.461 3.12405 -7.0684 0
M  V30 3062 H 301.806 2.8159 -6.35399 0
M  V30 3063 H 304.997 2.1581 -4.15384 0
M  V30 3064 H 305.17 2.76102 -5.86235 0
M  V30 3065 N 298.576 1.31904 0.862503 0
M  V30 3066 C 299.824 1.21776 1.61292 0
M  V30 3067 C 300.145 -0.222413 1.93727 0
M  V30 3068 O 299.415 -1.1451 1.58947 0
M  V30 3069 H 297.995 0.447717 0.597962 0
M  V30 3070 H 300.657 1.65326 1.03215 0
M  V30 3071 H 299.753 1.7948 2.5533 0
M  V30 3072 N 300.054 -1.07777 1.14986 0
M  V30 3073 C 300.984 -2.16865 0.865557 0
M  V30 3074 C 301.965 -1.69123 -0.182083 0
M  V30 3075 O 303.15 -1.94164 -0.0373815 0
M  V30 3076 C 300.28 -3.45539 0.349313 0
M  V30 3077 C 299.234 -4.06708 1.33313 0
M  V30 3078 C 298.56 -5.30411 0.675918 0
M  V30 3079 C 299.86 -4.47241 2.69764 0
M  V30 3080 H 301.554 -2.40905 1.77778 0
M  V30 3081 H 299.1 -1.15781 0.856203 0
M  V30 3082 H 301.053 -4.21174 0.137983 0
M  V30 3083 H 299.777 -3.21072 -0.598362 0
M  V30 3084 H 298.436 -3.33112 1.53075 0
M  V30 3085 H 298.084 -5.02232 -0.277767 0
M  V30 3086 H 297.784 -5.72293 1.33244 0
M  V30 3087 H 299.308 -6.08755 0.474262 0
M  V30 3088 H 300.722 -5.14025 2.53873 0
M  V30 3089 H 299.119 -5.00062 3.3175 0
M  V30 3090 H 300.189 -3.58818 3.26156 0
M  V30 3091 N 301.532 -0.945985 -1.26051 0
M  V30 3092 C 302.76 -0.613025 -1.9761 0
M  V30 3093 C 303.175 0.813035 -1.70397 0
M  V30 3094 O 302.532 1.54274 -0.974979 0
M  V30 3095 C 302.583 -0.85159 -3.51326 0
M  V30 3096 O 302.304 -2.22157 -3.77595 0
M  V30 3097 C 303.805 -0.529831 -4.40122 0
M  V30 3098 H 301.025 -0.230593 -0.630133 0
M  V30 3099 H 303.569 -1.268 -1.60443 0
M  V30 3100 H 301.724 -0.243151 -3.86636 0
M  V30 3101 H 302.138 -2.2852 -4.721 0
M  V30 3102 H 303.612 -0.747348 -5.46917 0
M  V30 3103 H 304.089 0.535341 -4.35925 0
M  V30 3104 H 304.695 -1.11721 -4.10364 0
M  V30 3105 N 303.011 1.40521 -0.713556 0
M  V30 3106 C 304.258 2.00923 -0.25219 0
M  V30 3107 C 304.586 1.56571 1.15395 0
M  V30 3108 O 303.841 0.775874 1.79663 0
M  V30 3109 C 304.14 3.56317 -0.278 0
M  V30 3110 C 303.806 4.20246 -1.63415 0
M  V30 3111 C 302.468 4.37422 -2.00538 0
M  V30 3112 C 304.82 4.55923 -2.52554 0
M  V30 3113 C 302.148 4.87558 -3.2635 0
M  V30 3114 C 304.5 5.07458 -3.77716 0
M  V30 3115 C 303.164 5.22843 -4.14959 0
M  V30 3116 H 302.434 0.735231 -0.0922829 0
M  V30 3117 H 305.081 1.68161 -0.916188 0
M  V30 3118 H 303.386 3.88976 0.469567 0
M  V30 3119 H 305.083 4.00883 0.0967819 0
M  V30 3120 H 301.673 4.07263 -1.33546 0
M  V30 3121 H 305.857 4.42291 -2.25149 0
M  V30 3122 H 301.113 4.97654 -3.55176 0
M  V30 3123 H 305.287 5.34041 -4.4696 0
M  V30 3124 H 302.914 5.61454 -5.12516 0
M  V30 3125 N 304.489 0.459591 1.5075 0
M  V30 3126 C 305.421 -0.37665 2.26084 0
M  V30 3127 C 306.434 -0.967109 1.30961 0
M  V30 3128 O 307.623 -0.857468 1.56556 0
M  V30 3129 C 304.723 -1.54112 3.01832 0
M  V30 3130 C 303.896 -1.06553 4.24223 0
M  V30 3131 C 302.955 -2.1027 4.82362 0
M  V30 3132 O 301.981 -1.68798 5.43595 0
M  V30 3133 N 303.183 -3.42974 4.68347 0
M  V30 3134 H 305.948 0.269124 2.98489 0
M  V30 3135 H 303.509 0.28972 1.59287 0
M  V30 3136 H 305.501 -2.23165 3.37608 0
M  V30 3137 H 304.071 -2.0918 2.32298 0
M  V30 3138 H 303.291 -0.201274 3.93686 0
M  V30 3139 H 304.579 -0.725516 5.03601 0
M  V30 3140 H 303.977 -3.79385 4.19623 0
M  V30 3141 H 302.534 -4.07858 5.08424 0
M  V30 3142 N 305.967 -1.56429 0.191757 0
M  V30 3143 C 306.899 -2.16154 -0.762245 0
M  V30 3144 C 307.912 -1.12247 -1.17917 0
M  V30 3145 O 309.101 -1.39353 -1.11548 0
M  V30 3146 C 306.201 -2.70606 -2.04024 0
M  V30 3147 C 305.374 -3.99381 -1.78364 0
M  V30 3148 C 304.433 -4.38692 -2.90578 0
M  V30 3149 O 303.459 -5.06179 -2.6033 0
M  V30 3150 N 304.661 -4.01922 -4.18854 0
M  V30 3151 H 307.426 -2.98643 -0.251526 0
M  V30 3152 H 304.987 -1.61897 0.00967373 0
M  V30 3153 H 306.979 -2.93891 -2.78227 0
M  V30 3154 H 305.549 -1.9259 -2.46227 0
M  V30 3155 H 304.769 -3.84262 -0.879581 0
M  V30 3156 H 306.057 -4.83445 -1.58614 0
M  V30 3157 H 305.455 -3.47631 -4.46283 0
M  V30 3158 H 304.012 -4.30165 -4.89695 0
M  V30 3159 N 307.445 0.0818655 -1.57387 0
M  V30 3160 C 308.393 1.11712 -2.04018 0
M  V30 3161 C 309.387 1.40683 -0.94364 0
M  V30 3162 O 310.593 1.40209 -1.12878 0
M  V30 3163 H 306.968 0.377542 -0.650358 0
M  V30 3164 H 308.939 0.697614 -2.90131 0
M  V30 3165 C 307.688 2.42537 -2.49141 0
M  V30 3166 H 307.011 2.21092 -3.33104 0
M  V30 3167 H 308.451 3.13446 -2.85531 0
M  V30 3168 C 306.91 3.0778 -1.37014 0
M  V30 3169 O 307.44 3.95436 -0.706621 0
M  V30 3170 N 305.646 2.68242 -1.11779 0
M  V30 3171 H 305.193 1.97052 -1.65917 0
M  V30 3172 H 305.151 3.1222 -0.369594 0
M  V30 3173 N 308.923 1.53595 0.353017 0
M  V30 3174 C 309.886 1.80232 1.41594 0
M  V30 3175 C 310.886 0.673081 1.46035 0
M  V30 3176 O 312.076 0.941335 1.46576 0
M  V30 3177 C 309.208 1.93578 2.80607 0
M  V30 3178 H 310.401 2.75174 1.19244 0
M  V30 3179 H 307.954 1.44864 0.586872 0
M  V30 3180 H 308.689 1.00746 3.08254 0
M  V30 3181 H 308.474 2.75724 2.78781 0
M  V30 3182 H 309.964 2.15735 3.57558 0
M  V30 3183 N 310.401 -0.613514 1.45168 0
M  V30 3184 C 311.626 -1.40437 1.52618 0
M  V30 3185 C 312.051 -1.87438 0.157707 0
M  V30 3186 O 311.409 -1.59791 -0.856537 0
M  V30 3187 C 311.457 -2.58894 2.51011 0
M  V30 3188 O 310.561 -3.59326 2.02382 0
M  V30 3189 H 309.902 -0.419506 0.514695 0
M  V30 3190 H 312.432 -0.747215 1.90467 0
M  V30 3191 H 312.442 -3.06214 2.69624 0
M  V30 3192 H 311.117 -2.24032 3.50403 0
M  V30 3193 H 309.694 -3.18695 1.93618 0
M  V30 3194 N 311.879 -1.3236 -0.855495 0
M  V30 3195 C 313.104 -1.2601 -1.64731 0
M  V30 3196 C 313.529 0.169068 -1.87339 0
M  V30 3197 O 312.887 1.12016 -1.42556 0
M  V30 3198 C 312.935 -2.02417 -2.98429 0
M  V30 3199 O 312.039 -1.3714 -3.8893 0
M  V30 3200 H 311.38 -0.434325 -0.502253 0
M  V30 3201 H 313.91 -1.74661 -1.06558 0
M  V30 3202 H 313.92 -2.12559 -3.48257 0
M  V30 3203 H 312.595 -3.06343 -2.81295 0
M  V30 3204 H 311.172 -1.3554 -3.47395 0
M  V30 3205 N 313.357 1.07166 -1.15556 0
M  V30 3206 C 314.29 2.13808 -0.797593 0
M  V30 3207 C 315.268 1.6101 0.226812 0
M  V30 3208 O 316.452 1.88161 0.112932 0
M  V30 3209 C 313.579 3.38187 -0.186371 0
M  V30 3210 C 312.625 4.09766 -1.18297 0
M  V30 3211 S 313.458 4.60932 -2.72584 0
M  V30 3212 C 314.614 5.88583 -2.12886 0
M  V30 3213 H 314.847 2.43843 -1.70083 0
M  V30 3214 H 312.38 1.19467 -0.978106 0
M  V30 3215 H 314.338 4.10189 0.159837 0
M  V30 3216 H 312.999 3.06326 0.694489 0
M  V30 3217 H 312.192 4.99065 -0.703562 0
M  V30 3218 H 311.794 3.43736 -1.47381 0
M  V30 3219 H 314.086 6.60866 -1.49208 0
M  V30 3220 H 315.029 6.41241 -3.0036 0
M  V30 3221 H 315.437 5.42194 -1.57116 0
M  V30 3222 N 314.835 0.952656 1.25548 0
M  V30 3223 C 316.075 0.614013 1.9496 0
M  V30 3224 C 316.439 -0.833215 1.72978 0
M  V30 3225 O 317.64 -1.28135 2.36294 0
M  V30 3226 C 315.911 0.960562 3.4425 0
M  V30 3227 S 317.47 0.734195 4.32614 0
M  V30 3228 H 314.288 0.225754 0.674208 0
M  V30 3229 H 316.89 1.22641 1.52248 0
M  V30 3230 H 315.594 2.01103 3.57751 0
M  V30 3231 H 315.125 0.338336 3.91942 0
M  V30 3232 H 317.14 -0.395995 4.94617 0
M  V30 3233 N 316.313 -1.40141 0.720998 0
M  V30 3234 C 317.559 -2.01084 0.263231 0
M  V30 3235 C 317.892 -1.57052 -1.14229 0
M  V30 3236 O 317.167 -0.793027 -1.77599 0
M  V30 3237 C 317.45 -3.58401 0.349344 0
M  V30 3238 C 317.303 -4.12491 1.79363 0
M  V30 3239 C 318.622 -4.39231 -0.276351 0
M  V30 3240 H 315.741 -0.730572 0.0971228 0
M  V30 3241 H 318.383 -1.66543 0.914518 0
M  V30 3242 H 316.533 -3.87958 -0.205165 0
M  V30 3243 H 318.205 -3.93711 2.40394 0
M  V30 3244 H 316.448 -3.66576 2.31958 0
M  V30 3245 H 317.119 -5.21646 1.80524 0
M  V30 3246 H 319.595 -4.15637 0.196184 0
M  V30 3247 H 318.471 -5.48586 -0.185681 0
M  V30 3248 H 318.732 -4.20643 -1.36059 0
M  V30 3249 N 317.792 -0.46758 -1.50504 0
M  V30 3250 C 319.203 -0.0116166 -1.86696 0
M  V30 3251 C 319.554 1.39202 -1.38265 0
M  V30 3252 O 318.679 2.0313 -0.746132 0
M  V30 3253 C 319.274 -0.0143044 -3.38797 0
M  V30 3254 C 317.833 0.386175 -3.74414 0
M  V30 3255 C 316.98 -0.401287 -2.74381 0
M  V30 3256 H 319.931 -0.682022 -1.43297 0
M  V30 3257 H 319.952 0.788641 -3.72237 0
M  V30 3258 H 319.464 -1.03602 -3.74016 0
M  V30 3259 H 317.565 1.41237 -3.44794 0
M  V30 3260 H 317.678 0.0899596 -4.79016 0
M  V30 3261 H 316.042 0.144536 -2.5429 0
M  V30 3262 H 316.825 -1.42244 -3.12444 0
M  V30 3263 N 319.27 1.56325 -0.20005 0
M  V30 3264 C 320.547 1.89484 0.48529 0
M  V30 3265 C 320.927 1.1143 1.79294 0
M  V30 3266 O 320.275 0.216919 2.27468 0
M  V30 3267 C 320.485 3.41923 0.699243 0
M  V30 3268 C 321.833 4.12256 1.01638 0
M  V30 3269 O 322.857 3.47402 0.786792 0
M  V30 3270 O 321.716 5.26887 1.45095 0
M  V30 3271 H 318.81 0.787144 0.253639 0
M  V30 3272 H 321.356 1.67985 -0.240633 0
M  V30 3273 H 320.128 3.90658 -0.224008 0
M  V30 3274 H 319.751 3.69131 1.47744 0
M  V30 3275 N 320.748 -0.0735177 1.57428 0
M  V30 3276 C 321.68 -1.11423 2.00294 0
M  V30 3277 C 322.693 -1.35084 0.908637 0
M  V30 3278 O 323.882 -1.33355 1.18654 0
M  V30 3279 C 320.982 -2.46548 2.32523 0
M  V30 3280 C 320.155 -2.42867 3.63778 0
M  V30 3281 C 319.214 -3.60087 3.83697 0
M  V30 3282 O 318.24 -3.41595 4.55304 0
M  V30 3283 N 319.442 -4.80372 3.25919 0
M  V30 3284 H 322.207 -0.749206 2.90184 0
M  V30 3285 H 319.768 -0.262195 1.59763 0
M  V30 3286 H 321.76 -3.23607 2.43024 0
M  V30 3287 H 320.33 -2.75059 1.48531 0
M  V30 3288 H 319.55 -1.51206 3.64047 0
M  V30 3289 H 320.838 -2.37506 4.49965 0
M  V30 3290 H 320.236 -4.983 2.67795 0
M  V30 3291 H 318.793 -5.54948 3.41871 0
M  V30 3292 N 322.226 -1.5378 -0.344866 0
M  V30 3293 C 323.503 -1.61589 -1.10219 0
M  V30 3294 C 323.883 -0.436316 -2.06542 0
M  V30 3295 O 323.231 0.571543 -2.21237 0
M  V30 3296 C 323.441 -2.97602 -1.82301 0
M  V30 3297 C 324.789 -3.5291 -2.36093 0
M  V30 3298 O 325.813 -2.99768 -1.924 0
M  V30 3299 O 324.672 -4.45859 -3.16026 0
M  V30 3300 H 321.766 -0.653522 -0.506792 0
M  V30 3301 H 324.312 -1.66126 -0.346465 0
M  V30 3302 H 323.084 -3.74893 -1.12121 0
M  V30 3303 H 322.707 -2.9665 -2.64735 0
M  V30 3304 N 323.704 0.605807 -1.45491 0
M  V30 3305 C 324.932 1.39136 -1.5313 0
M  V30 3306 C 325.347 1.88082 -0.164507 0
M  V30 3307 O 324.704 1.62316 0.834247 0
M  V30 3308 C 324.755 2.59463 -2.51716 0
M  V30 3309 O 324.476 2.12551 -3.83084 0
M  V30 3310 C 325.977 3.52301 -2.6907 0
M  V30 3311 H 323.197 0.425849 -0.51855 0
M  V30 3312 H 325.741 0.73865 -1.90694 0
M  V30 3313 H 323.896 3.20772 -2.17219 0
M  V30 3314 H 324.31 2.90744 -4.36541 0
M  V30 3315 H 325.784 4.33271 -3.42024 0
M  V30 3316 H 326.261 4.02757 -1.75167 0
M  V30 3317 H 326.867 2.96845 -3.04571 0
M  V30 3318 N 325.182 1.32811 0.848464 0
M  V30 3319 C 326.145 1.22194 1.9391 0
M  V30 3320 C 327.145 0.143404 1.60159 0
M  V30 3321 O 328.335 0.394253 1.6968 0
M  V30 3322 C 325.467 0.88067 3.29328 0
M  V30 3323 H 326.66 2.19127 2.04752 0
M  V30 3324 H 324.213 1.16731 1.0394 0
M  V30 3325 H 324.948 -0.0865776 3.24184 0
M  V30 3326 H 324.733 1.66052 3.55203 0
M  V30 3327 H 326.223 0.830871 4.09251 0
M  V30 3328 N 326.66 -1.06551 1.16123 0
M  V30 3329 C 327.909 -1.78687 0.935622 0
M  V30 3330 C 328.222 -1.88056 -0.538001 0
M  V30 3331 O 329.428 -2.56794 -0.88143 0
M  V30 3332 C 327.884 -3.21143 1.62466 0
M  V30 3333 C 327.492 -3.19949 3.13587 0
M  V30 3334 C 329.236 -3.9783 1.48092 0
M  V30 3335 C 327.143 -4.57108 3.75241 0
M  V30 3336 H 326.073 -0.669712 0.346412 0
M  V30 3337 H 328.724 -1.19534 1.39226 0
M  V30 3338 H 327.106 -3.80539 1.09572 0
M  V30 3339 H 328.28 -2.70151 3.73303 0
M  V30 3340 H 326.595 -2.5676 3.27816 0
M  V30 3341 H 329.192 -4.99217 1.91538 0
M  V30 3342 H 329.535 -4.14078 0.429507 0
M  V30 3343 H 330.068 -3.4495 1.98127 0
M  V30 3344 H 326.807 -4.46065 4.80319 0
M  V30 3345 H 326.327 -5.07111 3.20309 0
M  V30 3346 H 328.006 -5.26069 3.76644 0
M  V30 3347 N 328.138 -0.959301 -1.25041 0
M  V30 3348 C 329.554 -0.664474 -1.4511 0
M  V30 3349 C 329.754 0.776481 -1.85938 0
M  V30 3350 O 328.81 1.55128 -1.99227 0
M  V30 3351 C 330.123 -1.64139 -2.5195 0
M  V30 3352 C 331.671 -1.65309 -2.65786 0
M  V30 3353 C 332.146 -2.61777 -3.75815 0
M  V30 3354 N 333.637 -2.60169 -3.83231 0
M  V30 3355 C 334.372 -3.31489 -4.6787 0
M  V30 3356 N 333.868 -4.12298 -5.56761 0
M  V30 3357 N 335.661 -3.20354 -4.61876 0
M  V30 3358 H 327.812 -1.89043 -0.968332 0
M  V30 3359 H 330.075 -0.813408 -0.4869 0
M  V30 3360 H 329.781 -2.67086 -2.28819 0
M  V30 3361 H 329.655 -1.40756 -3.49954 0
M  V30 3362 H 332.042 -0.630778 -2.8828 0
M  V30 3363 H 332.123 -1.92753 -1.68167 0
M  V30 3364 H 331.767 -3.64137 -3.54071 0
M  V30 3365 H 331.697 -2.31616 -4.72929 0
M  V30 3366 H 334.188 -2.01507 -3.19692 0
M  V30 3367 H 334.501 -4.63625 -6.18281 0
M  V30 3368 H 332.846 -4.16395 -5.56454 0
M  V30 3369 H 336.037 -2.56692 -3.91442 0
M  V30 3370 H 336.21 -3.76201 -5.27614 0
M  V30 3371 N 329.616 1.39756 -0.72842 0
M  V30 3372 C 330.862 2.00942 -0.273892 0
M  V30 3373 C 331.195 1.57656 1.13394 0
M  V30 3374 O 330.47 0.802434 1.77176 0
M  V30 3375 C 330.753 3.58211 -0.368346 0
M  V30 3376 C 330.606 4.11534 -1.81548 0
M  V30 3377 C 331.925 4.39372 0.253054 0
M  V30 3378 H 329.044 0.730047 -0.100996 0
M  V30 3379 H 331.686 1.66056 -0.923337 0
M  V30 3380 H 329.836 3.88061 0.184588 0
M  V30 3381 H 331.508 3.92431 -2.42478 0
M  V30 3382 H 329.751 3.65341 -2.33898 0
M  V30 3383 H 330.422 5.20682 -1.83288 0
M  V30 3384 H 332.898 4.15527 -0.218224 0
M  V30 3385 H 331.774 5.48677 0.156585 0
M  V30 3386 H 332.035 4.21358 1.33826 0
M  V30 3387 N 331.094 0.475555 1.50254 0
M  V30 3388 C 332.341 -0.0778919 2.0235 0
M  V30 3389 C 332.669 -1.39319 1.35722 0
M  V30 3390 O 331.924 -1.89888 0.473395 0
M  V30 3391 C 332.223 -0.305114 3.56095 0
M  V30 3392 C 331.889 0.92903 4.41225 0
M  V30 3393 C 330.551 1.26739 4.6421 0
M  V30 3394 C 332.903 1.75054 4.90923 0
M  V30 3395 C 330.231 2.42724 5.34137 0
M  V30 3396 C 332.583 2.9017 5.62125 0
M  V30 3397 C 331.247 3.24416 5.83362 0
M  V30 3398 H 330.517 -0.0285027 0.740452 0
M  V30 3399 H 333.164 0.630543 1.80821 0
M  V30 3400 H 331.469 -1.09584 3.76163 0
M  V30 3401 H 333.166 -0.747377 3.93974 0
M  V30 3402 H 329.756 0.655428 4.23559 0
M  V30 3403 H 333.94 1.50231 4.73016 0
M  V30 3404 H 329.196 2.69525 5.48786 0
M  V30 3405 H 333.37 3.54169 5.99614 0
M  V30 3406 H 330.997 4.14396 6.37323 0
M  V30 3407 N 332.573 -1.56217 0.208337 0
M  V30 3408 C 333.536 -2.18455 -0.693557 0
M  V30 3409 C 334.536 -1.14268 -1.13135 0
M  V30 3410 O 335.726 -1.39577 -1.0423 0
M  V30 3411 C 332.858 -2.79727 -1.94848 0
M  V30 3412 H 334.051 -2.99519 -0.15114 0
M  V30 3413 H 331.604 -1.56245 -0.041287 0
M  V30 3414 H 332.339 -2.02497 -2.53309 0
M  V30 3415 H 332.124 -3.56009 -1.64316 0
M  V30 3416 H 333.614 -3.27475 -2.59133 0
M  V30 3417 N 334.051 0.0651679 -1.57465 0
M  V30 3418 C 335.3 0.761916 -1.86756 0
M  V30 3419 C 335.613 1.78406 -0.801925 0
M  V30 3420 O 336.819 2.53084 -0.982885 0
M  V30 3421 C 335.275 1.40603 -3.31299 0
M  V30 3422 C 334.883 0.422115 -4.46007 0
M  V30 3423 C 336.627 2.08476 -3.69781 0
M  V30 3424 C 334.534 1.07252 -5.81593 0
M  V30 3425 H 333.464 0.288308 -0.696702 0
M  V30 3426 H 336.115 0.015344 -1.83494 0
M  V30 3427 H 334.497 2.20109 -3.29193 0
M  V30 3428 H 335.671 -0.343613 -4.59517 0
M  V30 3429 H 333.986 -0.152527 -4.16121 0
M  V30 3430 H 336.583 2.57925 -4.68379 0
M  V30 3431 H 336.926 2.88712 -2.99919 0
M  V30 3432 H 337.459 1.35792 -3.73905 0
M  V30 3433 H 334.198 0.310342 -6.54765 0
M  V30 3434 H 333.718 1.80895 -5.71872 0
M  V30 3435 H 335.397 1.59043 -6.27148 0
M  V30 3436 N 335.529 1.53961 0.336706 0
M  V30 3437 C 336.94 1.62914 0.911925 0
M  V30 3438 C 337.291 0.514795 1.89326 0
M  V30 3439 O 336.416 -0.354395 2.13478 0
M  V30 3440 C 337.011 2.95304 1.66076 0
M  V30 3441 C 335.57 3.06496 2.18489 0
M  V30 3442 C 334.717 2.58403 1.00613 0
M  V30 3443 H 337.668 1.58285 0.114649 0
M  V30 3444 H 337.689 2.84727 2.5241 0
M  V30 3445 H 337.201 3.76387 0.946276 0
M  V30 3446 H 335.302 2.3006 2.93092 0
M  V30 3447 H 335.415 4.1208 2.44391 0
M  V30 3448 H 333.779 2.13977 1.38152 0
M  V30 3449 H 334.562 3.41932 0.306179 0
M  V30 3450 N 337.007 -0.598083 1.45811 0
M  V30 3451 C 338.418 -1.18011 1.44673 0
M  V30 3452 C 338.769 -1.95378 0.179364 0
M  V30 3453 O 337.894 -2.04124 -0.718509 0
M  V30 3454 C 338.489 -2.14677 2.62105 0
M  V30 3455 C 337.048 -2.68236 2.64057 0
M  V30 3456 C 336.195 -1.43816 2.37091 0
M  V30 3457 H 339.146 -0.38686 1.53913 0
M  V30 3458 H 339.167 -2.97878 2.36746 0
M  V30 3459 H 338.679 -1.5834 3.5433 0
M  V30 3460 H 336.78 -3.28486 1.75864 0
M  V30 3461 H 336.893 -3.12021 3.63566 0
M  V30 3462 H 335.257 -1.731 1.86838 0
M  V30 3463 H 336.04 -0.893333 3.31473 0
M  V30 3464 N 338.485 -1.33259 -0.841409 0
M  V30 3465 C 339.71 -1.2775 -1.63385 0
M  V30 3466 C 340.135 0.149188 -1.87507 0
M  V30 3467 O 339.493 1.10498 -1.43736 0
M  V30 3468 C 339.541 -2.05571 -2.96265 0
M  V30 3469 O 338.645 -1.41257 -3.87453 0
M  V30 3470 H 337.986 -0.439627 -0.497618 0
M  V30 3471 H 340.516 -1.75782 -1.04699 0
M  V30 3472 H 340.526 -2.16241 -3.45982 0
M  V30 3473 H 339.201 -3.09309 -2.7803 0
M  V30 3474 H 337.778 -1.39217 -3.45938 0
M  V30 3475 N 339.963 1.05934 -1.16686 0
M  V30 3476 C 341.21 1.788 -0.950622 0
M  V30 3477 C 341.538 1.87384 0.521305 0
M  V30 3478 O 340.793 1.36438 1.40297 0
M  V30 3479 C 341.092 3.23105 -1.52767 0
M  V30 3480 C 340.758 3.34594 -3.02254 0
M  V30 3481 C 339.42 3.37437 -3.43059 0
M  V30 3482 C 341.772 3.36219 -3.98254 0
M  V30 3483 C 339.1 3.39525 -4.78477 0
M  V30 3484 C 341.452 3.39845 -5.33562 0
M  V30 3485 C 340.116 3.40971 -5.73842 0
M  V30 3486 H 339.386 0.654275 -0.347857 0
M  V30 3487 H 342.033 1.24555 -1.45459 0
M  V30 3488 H 340.338 3.80227 -0.94524 0
M  V30 3489 H 342.035 3.7809 -1.336 0
M  V30 3490 H 338.625 3.3309 -2.6972 0
M  V30 3491 H 342.809 3.33231 -3.67792 0
M  V30 3492 H 338.065 3.38703 -5.09009 0
M  V30 3493 H 342.239 3.4005 -6.07733 0
M  V30 3494 H 339.866 3.42342 -6.78753 0
M  V30 3495 N 341.441 0.965919 1.2453 0
M  V30 3496 C 342.404 0.499547 2.2369 0
M  V30 3497 C 343.404 -0.40294 1.5567 0
M  V30 3498 O 344.594 -0.19865 1.73064 0
M  V30 3499 C 341.726 -0.276792 3.39774 0
M  V30 3500 H 342.919 1.37613 2.66463 0
M  V30 3501 H 340.472 0.750324 1.37112 0
M  V30 3502 H 341.207 -1.17055 3.02438 0
M  V30 3503 H 340.992 0.370826 3.90343 0
M  V30 3504 H 342.482 -0.592175 4.1338 0
M  V30 3505 N 342.919 -1.39368 0.735821 0
M  V30 3506 C 344.144 -2.05319 0.293052 0
M  V30 3507 C 344.569 -1.55115 -1.064 0
M  V30 3508 O 343.927 -0.695261 -1.67439 0
M  V30 3509 C 343.975 -3.59305 0.305323 0
M  V30 3510 O 343.079 -4.06299 -0.706761 0
M  V30 3511 H 342.42 -0.650529 0.13307 0
M  V30 3512 H 344.95 -1.78386 1.00197 0
M  V30 3513 H 344.96 -4.07724 0.149997 0
M  V30 3514 H 343.635 -3.95207 1.29553 0
M  V30 3515 H 342.212 -3.69292 -0.517504 0
M  V30 3516 N 344.397 -0.483516 -1.5 0
M  V30 3517 C 345.646 0.0689102 -2.01582 0
M  V30 3518 C 345.959 1.39655 -1.36952 0
M  V30 3519 O 347.165 2.03465 -1.79762 0
M  V30 3520 C 345.621 0.173302 -3.59483 0
M  V30 3521 C 345.229 -1.14665 -4.33077 0
M  V30 3522 C 346.973 0.677024 -4.19066 0
M  V30 3523 C 344.88 -1.00537 -5.82792 0
M  V30 3524 H 343.81 0.0295277 -0.753422 0
M  V30 3525 H 346.461 -0.620295 -1.72698 0
M  V30 3526 H 344.843 0.926569 -3.85007 0
M  V30 3527 H 346.017 -1.91184 -4.19268 0
M  V30 3528 H 344.332 -1.58244 -3.85159 0
M  V30 3529 H 346.929 0.799952 -5.28682 0
M  V30 3530 H 347.272 1.67151 -3.81269 0
M  V30 3531 H 347.805 -0.0192083 -3.97795 0
M  V30 3532 H 344.544 -1.9736 -6.25083 0
M  V30 3533 H 344.064 -0.280776 -5.99142 0
M  V30 3534 H 345.743 -0.677 -6.43448 0
M  V30 3535 N 345.875 1.56104 -0.216619 0
M  V30 3536 C 347.122 1.98172 0.416416 0
M  V30 3537 C 347.45 1.10413 1.60122 0
M  V30 3538 O 346.705 0.147967 1.9514 0
M  V30 3539 C 347.004 3.45923 0.898464 0
M  V30 3540 C 346.67 4.50559 -0.175288 0
M  V30 3541 C 345.332 4.78897 -0.470271 0
M  V30 3542 C 347.684 5.1334 -0.901728 0
M  V30 3543 C 345.012 5.67299 -1.4963 0
M  V30 3544 C 347.364 6.02853 -1.91705 0
M  V30 3545 C 346.028 6.29537 -2.21901 0
M  V30 3546 H 345.298 0.725164 0.152377 0
M  V30 3547 H 347.945 1.88839 -0.318103 0
M  V30 3548 H 346.25 3.52434 1.71165 0
M  V30 3549 H 347.947 3.75841 1.39803 0
M  V30 3550 H 344.537 4.28551 0.0647806 0
M  V30 3551 H 348.721 4.91521 -0.687072 0
M  V30 3552 H 343.977 5.86239 -1.73592 0
M  V30 3553 H 348.151 6.50552 -2.48505 0
M  V30 3554 H 345.778 6.97835 -3.01548 0
M  V30 3555 N 347.353 -0.0568162 1.57498 0
M  V30 3556 C 348.283 -1.06593 2.0775 0
M  V30 3557 C 349.264 -1.39448 0.974082 0
M  V30 3558 O 350.449 -1.48815 1.24771 0
M  V30 3559 C 347.579 -2.37509 2.5339 0
M  V30 3560 C 346.533 -2.1897 3.67745 0
M  V30 3561 C 345.859 -3.55402 3.99492 0
M  V30 3562 C 347.159 -1.59859 4.97235 0
M  V30 3563 H 348.853 -0.647706 2.9231 0
M  V30 3564 H 346.399 -0.310116 1.40621 0
M  V30 3565 H 348.352 -3.08409 2.87162 0
M  V30 3566 H 347.076 -2.8134 1.65878 0
M  V30 3567 H 345.735 -1.50508 3.3428 0
M  V30 3568 H 345.383 -3.9683 3.09088 0
M  V30 3569 H 345.083 -3.43831 4.76502 0
M  V30 3570 H 346.607 -4.27708 4.35773 0
M  V30 3571 H 348.021 -2.20642 5.29141 0
M  V30 3572 H 346.418 -1.58942 5.78669 0
M  V30 3573 H 347.488 -0.561506 4.81638 0
M  V30 3574 N 348.832 -1.54138 -0.328536 0
M  V30 3575 C 350.06 -1.76062 -1.08673 0
M  V30 3576 C 350.475 -0.506852 -1.81869 0
M  V30 3577 O 349.832 0.522223 -1.74869 0
M  V30 3578 C 349.883 -2.95054 -2.08866 0
M  V30 3579 O 349.604 -4.15583 -1.38644 0
M  V30 3580 C 351.105 -3.2915 -2.96943 0
M  V30 3581 H 348.325 -0.587889 -0.323461 0
M  V30 3582 H 350.869 -2.0101 -0.376175 0
M  V30 3583 H 349.024 -2.72394 -2.75464 0
M  V30 3584 H 349.438 -4.82481 -2.05699 0
M  V30 3585 H 350.912 -4.15723 -3.63151 0
M  V30 3586 H 351.389 -2.461 -3.63774 0
M  V30 3587 H 351.995 -3.53871 -2.35914 0
M  V30 3588 N 350.31 0.590341 -1.46126 0
M  V30 3589 C 351.257 1.69994 -1.56111 0
M  V30 3590 C 352.227 1.61065 -0.405867 0
M  V30 3591 O 353.412 1.8039 -0.621613 0
M  V30 3592 C 350.552 3.08326 -1.55013 0
M  V30 3593 C 349.665 3.27936 -2.81215 0
M  V30 3594 C 348.8 4.56473 -2.71673 0
M  V30 3595 C 347.839 4.694 -3.92849 0
M  V30 3596 N 346.976 5.89254 -3.81738 0
M  V30 3597 H 351.816 1.60797 -2.50895 0
M  V30 3598 H 349.353 0.783799 -1.24479 0
M  V30 3599 H 351.311 3.88383 -1.52362 0
M  V30 3600 H 349.941 3.16439 -0.637667 0
M  V30 3601 H 348.993 2.41536 -2.93879 0
M  V30 3602 H 350.305 3.33357 -3.71045 0
M  V30 3603 H 349.459 5.44748 -2.67085 0
M  V30 3604 H 348.198 4.53477 -1.7947 0
M  V30 3605 H 347.203 3.79544 -3.97777 0
M  V30 3606 H 348.428 4.7418 -4.86138 0
M  V30 3607 H 346.374 5.87271 -2.92317 0
M  V30 3608 H 346.291 5.95911 -4.65217 0
M  V30 3609 H 347.559 6.79981 -3.81112 0
M  V30 3610 N 351.788 1.33704 0.83433 0
M  V30 3611 C 353.013 1.28615 1.62705 0
M  V30 3612 C 353.438 -0.139242 1.87584 0
M  V30 3613 O 352.796 -1.09734 1.4432 0
M  V30 3614 C 352.844 2.07139 2.95171 0
M  V30 3615 O 351.948 1.4331 3.86699 0
M  V30 3616 H 351.289 0.44226 0.49528 0
M  V30 3617 H 353.819 1.76335 1.03766 0
M  V30 3618 H 353.829 2.18073 3.44831 0
M  V30 3619 H 352.504 3.10779 2.76386 0
M  V30 3620 H 351.081 1.4105 3.45195 0
M  V30 3621 N 353.266 -1.05314 1.17247 0
M  V30 3622 C 354.494 -1.81971 0.984593 0
M  V30 3623 C 354.909 -1.82929 -0.467166 0
M  V30 3624 O 354.266 -1.25564 -1.32438 0
M  V30 3625 C 354.317 -3.28143 1.51672 0
M  V30 3626 O 354.038 -3.27347 2.91163 0
M  V30 3627 C 355.539 -4.21493 1.37326 0
M  V30 3628 H 352.759 -0.573455 0.348411 0
M  V30 3629 H 355.303 -1.32808 1.55506 0
M  V30 3630 H 353.458 -3.74582 0.988302 0
M  V30 3631 H 353.872 -4.18824 3.15732 0
M  V30 3632 H 355.346 -5.22043 1.79375 0
M  V30 3633 H 355.823 -4.38031 0.320169 0
M  V30 3634 H 356.429 -3.80909 1.89178 0
M  V30 3635 N 354.744 -0.972509 -1.24016 0
M  V30 3636 C 355.691 -0.505969 -2.25186 0
M  V30 3637 C 356.661 0.451009 -1.5986 0
M  V30 3638 O 357.846 0.360307 -1.87367 0
M  V30 3639 C 354.986 0.193089 -3.44559 0
M  V30 3640 C 354.099 -0.803222 -4.24467 0
M  V30 3641 C 353.234 -0.0797793 -5.3114 0
M  V30 3642 C 352.273 -1.06583 -6.02749 0
M  V30 3643 N 351.41 -0.372074 -7.01113 0
M  V30 3644 H 356.25 -1.37351 -2.64459 0
M  V30 3645 H 353.787 -0.688419 -1.29997 0
M  V30 3646 H 355.745 0.615125 -4.1264 0
M  V30 3647 H 354.375 1.02455 -3.06109 0
M  V30 3648 H 353.427 -1.34368 -3.55878 0
M  V30 3649 H 354.739 -1.55494 -4.73944 0
M  V30 3650 H 353.893 0.400015 -6.0538 0
M  V30 3651 H 352.632 0.704597 -4.82583 0
M  V30 3652 H 351.637 -1.55645 -5.27309 0
M  V30 3653 H 352.862 -1.85074 -6.53395 0
M  V30 3654 H 350.808 0.393238 -6.5482 0
M  V30 3655 H 350.725 -1.06258 -7.48495 0
M  V30 3656 H 351.993 0.0855932 -7.79453 0
M  V30 3657 N 356.222 1.38976 -0.743202 0
M  V30 3658 C 357.152 2.33171 -0.123873 0
M  V30 3659 C 358.133 1.54336 0.71516 0
M  V30 3660 O 359.318 1.82696 0.658467 0
M  V30 3661 C 356.448 3.38474 0.777978 0
M  V30 3662 C 355.402 4.27979 0.0424758 0
M  V30 3663 C 354.728 5.2405 1.06189 0
M  V30 3664 C 356.028 5.10155 -1.1198 0
M  V30 3665 H 357.722 2.85213 -0.910709 0
M  V30 3666 H 355.268 1.37133 -0.439388 0
M  V30 3667 H 357.221 4.03328 1.22084 0
M  V30 3668 H 355.945 2.84891 1.59702 0
M  V30 3669 H 354.604 3.64616 -0.380853 0
M  V30 3670 H 354.252 4.66758 1.87472 0
M  V30 3671 H 353.952 5.84785 0.574485 0
M  V30 3672 H 355.476 5.9178 1.50428 0
M  V30 3673 H 356.89 5.68307 -0.75499 0
M  V30 3674 H 355.287 5.80073 -1.53738 0
M  V30 3675 H 356.357 4.44504 -1.93764 0
M  V30 3676 N 357.7 0.491464 1.49741 0
M  V30 3677 C 358.928 -0.0535151 2.06831 0
M  V30 3678 C 359.343 -1.31683 1.35296 0
M  V30 3679 O 358.7 -1.77402 0.42836 0
M  V30 3680 C 358.751 -0.320835 3.60073 0
M  V30 3681 O 358.472 0.892394 4.28915 0
M  V30 3682 C 359.973 -0.910519 4.33848 0
M  V30 3683 H 357.193 0.0161909 0.670805 0
M  V30 3684 H 359.737 0.68609 1.92647 0
M  V30 3685 H 357.892 -1.0104 3.73991 0
M  V30 3686 H 358.306 0.649401 5.20464 0
M  V30 3687 H 359.78 -1.04721 5.41976 0
M  V30 3688 H 360.257 -1.90589 3.95692 0
M  V30 3689 H 360.863 -0.258712 4.24512 0
M  V30 3690 N 359.178 -1.55987 0.224894 0
M  V30 3691 C 360.418 -2.00293 -0.407706 0
M  V30 3692 C 360.782 -1.1093 -1.56711 0
M  V30 3693 O 361.983 -1.44597 -2.26595 0
M  V30 3694 C 360.254 -3.47675 -0.82805 0
M  V30 3695 S 361.813 -4.14 -1.45429 0
M  V30 3696 H 358.631 -0.699152 -0.129256 0
M  V30 3697 H 361.233 -1.92609 0.334967 0
M  V30 3698 H 359.937 -4.10392 0.0253964 0
M  V30 3699 H 359.468 -3.59239 -1.60345 0
M  V30 3700 H 361.483 -4.13465 -2.74337 0
M  V30 3701 N 360.656 0.0484629 -1.57525 0
M  V30 3702 C 361.586 1.0549 -2.08313 0
M  V30 3703 C 362.567 1.38929 -0.981463 0
M  V30 3704 O 363.752 1.48151 -1.25558 0
M  V30 3705 C 360.882 2.36162 -2.54646 0
M  V30 3706 C 359.836 2.17016 -3.68901 0
M  V30 3707 C 359.162 3.53278 -4.01371 0
M  V30 3708 C 360.462 1.57219 -4.98076 0
M  V30 3709 H 362.156 0.632195 -2.92649 0
M  V30 3710 H 359.702 0.302654 -1.40784 0
M  V30 3711 H 361.655 3.06882 -2.88793 0
M  V30 3712 H 360.379 2.80456 -1.67368 0
M  V30 3713 H 359.038 1.48733 -3.35073 0
M  V30 3714 H 358.686 3.95185 -3.11188 0
M  V30 3715 H 358.386 3.41299 -4.78318 0
M  V30 3716 H 359.91 4.25391 -4.38035 0
M  V30 3717 H 361.324 2.17832 -5.30304 0
M  V30 3718 H 359.721 1.55871 -5.79503 0
M  V30 3719 H 360.791 0.535956 -4.81929 0
M  V30 3720 N 362.134 1.5431 0.320358 0
M  V30 3721 C 363.38 1.72924 1.05949 0
M  V30 3722 C 363.713 0.503185 1.87568 0
M  V30 3723 O 362.988 -0.499839 1.87968 0
M  V30 3724 C 363.271 3.00676 1.98156 0
M  V30 3725 C 363.124 4.3354 1.19845 0
M  V30 3726 C 364.443 3.24198 2.9763 0
M  V30 3727 H 361.562 0.629195 0.383774 0
M  V30 3728 H 364.204 1.87008 0.335854 0
M  V30 3729 H 362.354 2.888 2.59859 0
M  V30 3730 H 364.026 4.57305 0.605773 0
M  V30 3731 H 362.269 4.309 0.500784 0
M  V30 3732 H 362.94 5.19156 1.87567 0
M  V30 3733 H 365.416 3.35557 2.4605 0
M  V30 3734 H 364.292 4.14938 3.59329 0
M  V30 3735 H 364.553 2.41577 3.7026 0
M  V30 3736 N 363.613 -0.582584 1.46437 0
M  V30 3737 C 364.841 -1.36682 1.55324 0
M  V30 3738 C 365.256 -1.87796 0.194409 0
M  V30 3739 O 364.613 -1.63623 -0.808318 0
M  V30 3740 C 364.664 -2.55426 2.55812 0
M  V30 3741 O 364.385 -2.0643 3.86417 0
M  V30 3742 C 365.886 -3.47976 2.74641 0
M  V30 3743 H 363.106 -0.417545 0.525259 0
M  V30 3744 H 365.65 -0.708219 1.91845 0
M  V30 3745 H 363.805 -3.17275 2.22295 0
M  V30 3746 H 364.219 -2.83762 4.41111 0
M  V30 3747 H 365.693 -4.27775 3.48874 0
M  V30 3748 H 366.17 -3.99919 1.81553 0
M  V30 3749 H 366.776 -2.91962 3.09255 0
M  V30 3750 N 365.091 -1.34144 -0.827227 0
M  V30 3751 C 366.368 -1.16844 -1.56865 0
M  V30 3752 C 366.748 0.260654 -2.09485 0
M  V30 3753 O 366.096 1.26138 -1.9053 0
M  V30 3754 C 366.306 -2.21939 -2.6934 0
M  V30 3755 C 367.654 -2.56695 -3.3822 0
M  V30 3756 O 368.678 -2.20695 -2.79593 0
M  V30 3757 O 367.537 -3.18518 -4.44082 0
M  V30 3758 H 364.631 -0.452669 -0.692112 0
M  V30 3759 H 367.177 -1.45763 -0.868973 0
M  V30 3760 H 365.949 -3.17882 -2.28182 0
M  V30 3761 H 365.572 -1.94172 -3.46962 0
M  V30 3762 N 366.569 1.04691 -1.17803 0
M  V30 3763 C 367.499 2.14494 -0.92275 0
M  V30 3764 C 368.48 1.69546 0.137179 0
M  V30 3765 O 369.665 1.94195 -0.0141108 0
M  V30 3766 C 366.795 3.44491 -0.440803 0
M  V30 3767 C 365.749 4.03031 -1.4405 0
M  V30 3768 C 365.075 5.28432 -0.81631 0
M  V30 3769 C 366.375 4.39932 -2.81527 0
M  V30 3770 H 368.069 2.36107 -1.84103 0
M  V30 3771 H 365.615 1.1347 -0.886599 0
M  V30 3772 H 367.568 4.2066 -0.249602 0
M  V30 3773 H 366.292 3.22546 0.513025 0
M  V30 3774 H 364.951 3.28937 -1.61853 0
M  V30 3775 H 364.599 5.02792 0.144511 0
M  V30 3776 H 364.299 5.68559 -1.48371 0
M  V30 3777 H 365.823 6.07284 -0.635496 0
M  V30 3778 H 367.237 5.07113 -2.67412 0
M  V30 3779 H 365.634 4.9109 -3.44892 0
M  V30 3780 H 366.704 3.50045 -3.35554 0
M  V30 3781 N 368.047 0.979072 1.23499 0
M  V30 3782 C 369.275 0.665202 1.95915 0
M  V30 3783 C 369.69 -0.767571 1.72493 0
M  V30 3784 O 369.047 -1.51635 1.01554 0
M  V30 3785 C 369.098 0.944438 3.48945 0
M  V30 3786 O 368.819 2.3209 3.71572 0
M  V30 3787 C 370.32 0.646336 4.38563 0
M  V30 3788 H 367.54 0.247218 0.623798 0
M  V30 3789 H 370.084 1.31009 1.57025 0
M  V30 3790 H 368.239 0.345575 3.85856 0
M  V30 3791 H 368.653 2.40957 4.65876 0
M  V30 3792 H 370.127 0.892091 5.44744 0
M  V30 3793 H 370.604 -0.419575 4.37191 0
M  V30 3794 H 371.21 1.22562 4.07258 0
M  V30 3795 N 369.525 -1.3858 0.750561 0
M  V30 3796 C 370.753 -2.04471 0.316098 0
M  V30 3797 C 371.168 -1.56606 -1.05452 0
M  V30 3798 O 370.525 -0.737784 -1.66922 0
M  V30 3799 C 370.576 -3.60025 0.326275 0
M  V30 3800 O 370.297 -4.06133 1.6428 0
M  V30 3801 C 371.798 -4.43131 -0.122429 0
M  V30 3802 H 369.018 -0.65717 0.135528 0
M  V30 3803 H 371.562 -1.77329 1.01857 0
M  V30 3804 H 369.717 -3.86014 -0.327431 0
M  V30 3805 H 370.131 -5.00547 1.56693 0
M  V30 3806 H 371.605 -5.51963 -0.0641473 0
M  V30 3807 H 372.082 -4.23333 -1.16988 0
M  V30 3808 H 372.688 -4.22323 0.50229 0
M  V30 3809 N 371.003 -0.499398 -1.49478 0
M  V30 3810 C 372.233 0.0424839 -2.06556 0
M  V30 3811 C 372.641 1.31514 -1.36018 0
M  V30 3812 O 371.984 1.78555 -0.431718 0
M  V30 3813 C 372.046 0.368074 -3.57611 0
M  V30 3814 C 371.71 -0.806631 -4.49825 0
M  V30 3815 C 372.707 -1.69667 -4.91436 0
M  V30 3816 C 370.392 -1.00498 -4.92144 0
M  V30 3817 C 372.386 -2.76923 -5.74101 0
M  V30 3818 C 370.073 -2.08072 -5.74586 0
M  V30 3819 C 371.071 -2.96119 -6.15469 0
M  V30 3820 O 370.759 -4.01836 -6.96264 0
M  V30 3821 H 370.491 -0.0165165 -0.675798 0
M  V30 3822 H 373.045 -0.695497 -1.93267 0
M  V30 3823 H 371.275 1.15963 -3.68903 0
M  V30 3824 H 372.964 0.848381 -3.96935 0
M  V30 3825 H 373.73 -1.55524 -4.59388 0
M  V30 3826 H 369.609 -0.329036 -4.59824 0
M  V30 3827 H 373.153 -3.45676 -6.05932 0
M  V30 3828 H 369.05 -2.22211 -6.06047 0
M  V30 3829 H 369.818 -3.9917 -7.14567 0
M  V30 3830 N 372.481 1.55866 -0.233164 0
M  V30 3831 C 373.758 1.90471 0.444988 0
M  V30 3832 C 374.138 1.15209 1.7689 0
M  V30 3833 O 373.486 0.265119 2.26957 0
M  V30 3834 C 373.696 3.4333 0.626559 0
M  V30 3835 C 375.044 4.14319 0.92871 0
M  V30 3836 O 376.068 3.48993 0.712926 0
M  V30 3837 O 374.927 5.29846 1.33887 0
M  V30 3838 H 372.021 0.792347 0.236885 0
M  V30 3839 H 374.567 1.67437 -0.276211 0
M  V30 3840 H 373.339 3.90095 -0.306822 0
M  V30 3841 H 372.962 3.72181 1.39881 0
M  V30 3842 N 373.959 -0.0401083 1.57549 0
M  V30 3843 C 375.184 -0.748931 1.93406 0
M  V30 3844 C 375.609 -1.68686 0.832274 0
M  V30 3845 O 374.967 -1.80047 -0.212818 0
M  V30 3846 C 375.015 -1.4916 3.28304 0
M  V30 3847 O 374.119 -2.6042 3.19774 0
M  V30 3848 H 373.46 -0.202212 0.63246 0
M  V30 3849 H 375.99 0.00112086 2.046 0
M  V30 3850 H 376 -1.86395 3.62934 0
M  V30 3851 H 374.675 -0.80364 4.08062 0
M  V30 3852 H 373.252 -2.25808 2.96758 0
M  V30 3853 N 375.437 -1.54477 -0.31217 0
M  V30 3854 C 376.683 -1.73483 -1.0503 0
M  V30 3855 C 377.016 -0.513125 -1.87298 0
M  V30 3856 O 376.291 0.489864 -1.8823 0
M  V30 3857 C 376.574 -3.01723 -1.96558 0
M  V30 3858 C 376.427 -4.3417 -1.17545 0
M  V30 3859 C 377.746 -3.25772 -2.95907 0
M  V30 3860 H 374.865 -0.631222 -0.380432 0
M  V30 3861 H 377.507 -1.87184 -0.325932 0
M  V30 3862 H 375.657 -2.90174 -2.58324 0
M  V30 3863 H 377.329 -4.5762 -0.581513 0
M  V30 3864 H 375.572 -4.31159 -0.477925 0
M  V30 3865 H 376.243 -5.20143 -1.84811 0
M  V30 3866 H 378.719 -3.36857 -2.44267 0
M  V30 3867 H 377.595 -4.16838 -3.57123 0
M  V30 3868 H 377.856 -2.43537 -3.68974 0
M  V30 3869 N 376.915 0.57481 -1.46744 0
M  V30 3870 C 378.143 1.35856 -1.56047 0
M  V30 3871 C 378.558 1.87691 -0.204365 0
M  V30 3872 O 377.915 1.64049 0.79963 0
M  V30 3873 C 377.966 2.54066 -2.57163 0
M  V30 3874 O 377.687 2.04377 -3.87507 0
M  V30 3875 C 379.188 3.46514 -2.76483 0
M  V30 3876 H 376.408 0.414754 -0.527466 0
M  V30 3877 H 378.952 0.698035 -1.92218 0
M  V30 3878 H 377.107 3.16092 -2.23974 0
M  V30 3879 H 377.521 2.81419 -4.4261 0
M  V30 3880 H 378.995 4.25919 -3.51137 0
M  V30 3881 H 379.472 3.98951 -1.83671 0
M  V30 3882 H 380.078 2.90318 -3.10799 0
M  V30 3883 N 378.394 1.34581 0.820102 0
M  V30 3884 C 379.643 1.26437 1.57151 0
M  V30 3885 C 379.956 -0.163111 1.94919 0
M  V30 3886 O 381.162 -0.366722 2.69012 0
M  V30 3887 C 379.618 2.21658 2.83541 0
M  V30 3888 C 379.226 3.69679 2.53065 0
M  V30 3889 C 380.97 2.22428 3.61561 0
M  V30 3890 C 378.877 4.56761 3.75664 0
M  V30 3891 H 377.807 0.469707 0.589823 0
M  V30 3892 H 380.458 1.59763 0.902656 0
M  V30 3893 H 378.84 1.81287 3.52067 0
M  V30 3894 H 380.014 4.18605 1.92631 0
M  V30 3895 H 378.329 3.71384 1.88316 0
M  V30 3896 H 380.926 2.8471 4.52597 0
M  V30 3897 H 381.269 1.22434 3.97889 0
M  V30 3898 H 381.802 2.61259 2.99981 0
M  V30 3899 H 378.541 5.57702 3.44454 0
M  V30 3900 H 378.061 4.12568 4.35371 0
M  V30 3901 H 379.74 4.71509 4.43044 0
M  V30 3902 N 379.872 -1.04064 1.18357 0
M  V30 3903 C 381.097 -1.81454 1.00445 0
M  V30 3904 C 381.522 -1.82823 -0.442423 0
M  V30 3905 O 380.88 -1.24555 -1.31741 0
M  V30 3906 C 380.928 -3.24925 1.56384 0
M  V30 3907 O 380.032 -4.04856 0.785209 0
M  V30 3908 H 379.373 -0.560604 0.355835 0
M  V30 3909 H 381.903 -1.31059 1.57114 0
M  V30 3910 H 381.913 -3.75702 1.59097 0
M  V30 3911 H 380.588 -3.23244 2.61699 0
M  V30 3912 H 379.165 -3.63537 0.830399 0
M  V30 3913 N 381.35 -0.985608 -1.22978 0
M  V30 3914 C 382.596 -0.667998 -1.92118 0
M  V30 3915 C 382.951 0.790454 -1.75413 0
M  V30 3916 O 382.244 1.56336 -1.10768 0
M  V30 3917 C 382.438 -1.00014 -3.43121 0
M  V30 3918 C 382.267 -2.48933 -3.74516 0
M  V30 3919 C 381.037 -3.15218 -3.94925 0
M  V30 3920 C 383.235 -3.47024 -3.79577 0
M  V30 3921 N 381.217 -4.53689 -4.13569 0
M  V30 3922 C 382.588 -4.70923 -4.03276 0
M  V30 3923 C 384.643 -3.41432 -3.62393 0
M  V30 3924 C 383.346 -5.89914 -4.11574 0
M  V30 3925 C 385.372 -4.59793 -3.71947 0
M  V30 3926 C 384.734 -5.82489 -3.96088 0
M  V30 3927 H 380.833 -0.295589 -0.723983 0
M  V30 3928 H 383.417 -1.26413 -1.4808 0
M  V30 3929 H 381.588 -0.432655 -3.85983 0
M  V30 3930 H 383.32 -0.63927 -3.99619 0
M  V30 3931 H 380.075 -2.65702 -3.92045 0
M  V30 3932 H 380.499 -5.25492 -4.26834 0
M  V30 3933 H 385.141 -2.47594 -3.4272 0
M  V30 3934 H 382.859 -6.84164 -4.30053 0
M  V30 3935 H 386.445 -4.57048 -3.59998 0
M  V30 3936 H 385.325 -6.72546 -4.033 0
M  V30 3937 N 382.828 1.3818 -0.7579 0
M  V30 3938 C 384.056 2.04301 -0.326937 0
M  V30 3939 C 384.471 1.57163 1.0462 0
M  V30 3940 O 383.828 0.746626 1.66529 0
M  V30 3941 C 383.879 3.59846 -0.345363 0
M  V30 3942 O 383.6 4.05256 -1.66432 0
M  V30 3943 C 385.101 4.4319 0.098927 0
M  V30 3944 H 382.321 0.656443 -0.139012 0
M  V30 3945 H 384.865 1.76786 -1.02796 0
M  V30 3946 H 383.02 3.86182 0.306955 0
M  V30 3947 H 383.434 4.99709 -1.59345 0
M  V30 3948 H 384.908 5.51989 0.0348745 0
M  V30 3949 H 385.385 4.23947 1.14741 0
M  V30 3950 H 385.991 4.22051 -0.52468 0
M  V30 3951 N 384.306 0.507319 1.49211 0
M  V30 3952 C 385.722 0.163682 1.58758 0
M  V30 3953 C 385.922 -1.33208 1.51188 0
M  V30 3954 O 384.978 -2.10855 1.38911 0
M  V30 3955 C 386.291 0.746095 2.91297 0
M  V30 3956 C 387.839 0.712773 3.04776 0
M  V30 3957 C 388.314 1.27336 4.39943 0
M  V30 3958 N 389.805 1.23433 4.46451 0
M  V30 3959 C 390.54 1.63821 5.495 0
M  V30 3960 N 390.036 2.11832 6.5962 0
M  V30 3961 N 391.829 1.55198 5.4025 0
M  V30 3962 H 383.98 1.47972 1.52375 0
M  V30 3963 H 386.243 0.614147 0.722168 0
M  V30 3964 H 385.949 1.79534 3.02424 0
M  V30 3965 H 385.823 0.210137 3.76614 0
M  V30 3966 H 388.21 -0.327656 2.93275 0
M  V30 3967 H 388.291 1.28595 2.21127 0
M  V30 3968 H 387.935 2.3126 4.52196 0
M  V30 3969 H 387.865 0.676066 5.22242 0
M  V30 3970 H 390.356 0.882627 3.67448 0
M  V30 3971 H 390.669 2.40703 7.34358 0
M  V30 3972 H 389.014 2.1581 6.60644 0
M  V30 3973 H 392.205 1.17505 4.53112 0
M  V30 3974 H 392.378 1.86997 6.20432 0
M  V30 3975 N 385.784 -1.5574 0.241426 0
M  V30 3976 C 386.716 -2.18469 -0.693091 0
M  V30 3977 C 387.729 -1.15942 -1.14286 0
M  V30 3978 O 388.918 -1.42832 -1.07058 0
M  V30 3979 C 386.018 -2.7696 -1.95311 0
M  V30 3980 C 385.191 -4.04853 -1.65568 0
M  V30 3981 C 384.25 -4.47715 -2.76474 0
M  V30 3982 O 383.276 -5.14205 -2.44094 0
M  V30 3983 N 384.478 -4.15044 -4.05855 0
M  V30 3984 H 387.243 -2.99292 -0.156388 0
M  V30 3985 H 384.804 -1.61784 0.0611752 0
M  V30 3986 H 386.796 -3.02594 -2.68736 0
M  V30 3987 H 385.366 -2.00326 -2.39975 0
M  V30 3988 H 384.586 -3.86865 -0.756886 0
M  V30 3989 H 385.874 -4.88246 -1.43153 0
M  V30 3990 H 385.272 -3.61654 -4.34998 0
M  V30 3991 H 383.829 -4.45526 -4.75762 0
M  V30 3992 N 387.262 0.0317525 -1.57568 0
M  V30 3993 C 388.21 1.05165 -2.07468 0
M  V30 3994 C 389.204 1.3761 -0.98792 0
M  V30 3995 O 390.41 1.36546 -1.17282 0
M  V30 3996 H 386.785 0.35666 -0.66204 0
M  V30 3997 H 388.756 0.604958 -2.92203 0
M  V30 3998 C 387.505 2.34488 -2.56731 0
M  V30 3999 H 386.828 2.10383 -3.39969 0
M  V30 4000 H 388.268 3.04203 -2.95358 0
M  V30 4001 C 386.727 3.03266 -1.46736 0
M  V30 4002 O 387.257 3.92988 -0.832069 0
M  V30 4003 N 385.463 2.6455 -1.20256 0
M  V30 4004 H 385.01 1.91674 -1.72102 0
M  V30 4005 H 384.968 3.10886 -0.468737 0
M  V30 4006 N 388.74 1.54641 0.303973 0
M  V30 4007 C 389.988 1.73437 1.0375 0
M  V30 4008 C 390.309 0.521449 1.87899 0
M  V30 4009 O 389.579 -0.46432 1.90318 0
M  V30 4010 H 388.159 0.639518 0.386039 0
M  V30 4011 H 390.821 1.91988 0.335675 0
M  V30 4012 H 389.917 2.62235 1.69231 0
M  V30 4013 N 390.218 -0.567019 1.47046 0
M  V30 4014 C 391.128 -1.70247 1.6141 0
M  V30 4015 C 392.144 -1.66746 0.497157 0
M  V30 4016 O 393.32 -1.86371 0.763389 0
M  V30 4017 C 390.385 -3.06756 1.61561 0
M  V30 4018 C 389.446 -3.21399 2.84607 0
M  V30 4019 C 388.679 -4.51396 2.84741 0
M  V30 4020 O 388.902 -5.36255 1.94388 0
M  V30 4021 O 387.836 -4.69621 3.76483 0
M  V30 4022 H 391.662 -1.61073 2.57467 0
M  V30 4023 H 389.247 -0.735894 1.30019 0
M  V30 4024 H 391.129 -3.8801 1.64396 0
M  V30 4025 H 389.804 -3.16333 0.686684 0
M  V30 4026 H 388.711 -2.39579 2.8732 0
M  V30 4027 H 390.044 -3.16721 3.76761 0
M  V30 4028 N 391.696 -1.35014 -0.812953 0
M  V30 4029 C 392.659 -1.27292 -1.90602 0
M  V30 4030 C 393.659 -0.185817 -1.59723 0
M  V30 4031 O 394.849 -0.439102 -1.68575 0
M  V30 4032 C 391.981 -0.967676 -3.26877 0
M  V30 4033 H 393.174 -2.24479 -1.9887 0
M  V30 4034 H 390.727 -1.19446 -1.00808 0
M  V30 4035 H 391.462 0.0005954 -3.243 0
M  V30 4036 H 391.247 -1.75412 -3.50675 0
M  V30 4037 H 392.737 -0.939085 -4.06904 0
M  V30 4038 N 393.175 1.03435 -1.18907 0
M  V30 4039 C 394.421 1.77005 -0.989798 0
M  V30 4040 C 394.754 1.88205 0.478816 0
M  V30 4041 O 394.029 1.39481 1.35556 0
M  V30 4042 C 394.312 3.19925 -1.65287 0
M  V30 4043 C 394.165 3.1663 -3.19477 0
M  V30 4044 C 395.484 4.18189 -1.37134 0
M  V30 4045 H 392.603 0.642538 -0.360991 0
M  V30 4046 H 395.245 1.20784 -1.46667 0
M  V30 4047 H 393.395 3.67929 -1.24741 0
M  V30 4048 H 395.067 2.76567 -3.692 0
M  V30 4049 H 393.31 2.54491 -3.51307 0
M  V30 4050 H 393.981 4.1758 -3.61013 0
M  V30 4051 H 396.457 3.78761 -1.72276 0
M  V30 4052 H 395.333 5.16394 -1.86087 0
M  V30 4053 H 395.594 4.41112 -0.295424 0
M  V30 4054 N 394.653 0.992116 1.22453 0
M  V30 4055 C 395.6 0.541731 2.24352 0
M  V30 4056 C 396.57 -0.425519 1.60557 0
M  V30 4057 O 397.755 -0.330453 1.87917 0
M  V30 4058 C 394.895 -0.138248 3.44823 0
M  V30 4059 C 394.008 0.870649 4.23136 0
M  V30 4060 C 393.143 0.164269 5.30946 0
M  V30 4061 C 392.182 1.16159 6.00977 0
M  V30 4062 N 391.319 0.483568 7.00433 0
M  V30 4063 H 396.159 1.41541 2.62241 0
M  V30 4064 H 393.696 0.709013 1.28885 0
M  V30 4065 H 395.654 -0.5494 4.13567 0
M  V30 4066 H 394.284 -0.975721 3.077 0
M  V30 4067 H 393.336 1.40013 3.53696 0
M  V30 4068 H 394.648 1.63014 4.7141 0
M  V30 4069 H 393.802 -0.303653 6.0594 0
M  V30 4070 H 392.541 -0.627733 4.83643 0
M  V30 4071 H 391.546 1.64015 5.24766 0
M  V30 4072 H 392.771 1.95445 6.50368 0
M  V30 4073 H 390.717 -0.289012 6.55363 0
M  V30 4074 H 390.634 1.18152 7.4671 0
M  V30 4075 H 391.902 0.0384219 7.79491 0
M  V30 4076 N 396.131 -1.37776 0.765217 0
M  V30 4077 C 397.359 -2.04124 0.337767 0
M  V30 4078 C 397.774 -1.57715 -1.03785 0
M  V30 4079 O 397.131 -0.755447 -1.6613 0
M  V30 4080 C 397.182 -3.59658 0.364442 0
M  V30 4081 O 396.903 -4.04367 1.68579 0
M  V30 4082 C 398.404 -4.43236 -0.0754221 0
M  V30 4083 H 395.624 -0.655696 0.142491 0
M  V30 4084 H 398.168 -1.76238 1.03732 0
M  V30 4085 H 396.323 -3.86339 -0.286471 0
M  V30 4086 H 396.737 -4.98857 1.61993 0
M  V30 4087 H 398.211 -5.52 -0.00560067 0
M  V30 4088 H 398.688 -4.2455 -1.12491 0
M  V30 4089 H 399.294 -4.21767 0.547055 0
M  V30 4090 N 397.609 -0.515225 -1.4894 0
M  V30 4091 C 398.559 0.275113 -2.26334 0
M  V30 4092 C 399.543 0.923007 -1.31793 0
M  V30 4093 O 400.735 0.828254 -1.56426 0
M  V30 4094 C 397.864 1.33041 -3.16473 0
M  V30 4095 C 396.95 0.688051 -4.18481 0
M  V30 4096 N 397.341 -0.217638 -5.05332 0
M  V30 4097 C 395.639 0.94699 -4.3583 0
M  V30 4098 C 396.34 -0.58676 -5.78733 0
M  V30 4099 N 395.316 0.0486966 -5.43578 0
M  V30 4100 H 399.118 -0.421876 -2.90856 0
M  V30 4101 H 396.632 -0.332249 -1.58965 0
M  V30 4102 H 398.629 1.9102 -3.70563 0
M  V30 4103 H 397.289 2.02894 -2.53504 0
M  V30 4104 H 398.3 -0.589343 -5.14536 0
M  V30 4105 H 394.977 1.63719 -3.8406 0
M  V30 4106 H 396.367 -1.32855 -6.58634 0
M  V30 4107 N 399.087 1.5561 -0.249682 0
M  V30 4108 C 400.315 2.03411 0.378352 0
M  V30 4109 C 400.73 1.12886 1.51335 0
M  V30 4110 O 400.087 0.143833 1.81932 0
M  V30 4111 C 400.138 3.50537 0.88351 0
M  V30 4112 O 399.859 4.37614 -0.20626 0
M  V30 4113 C 401.36 4.14113 1.58195 0
M  V30 4114 H 398.58 0.664994 0.08958 0
M  V30 4115 H 401.124 2.01044 -0.374357 0
M  V30 4116 H 399.279 3.5343 1.58639 0
M  V30 4117 H 399.693 5.24199 0.177782 0
M  V30 4118 H 401.167 5.18741 1.8871 0
M  V30 4119 H 401.644 3.60767 2.50487 0
M  V30 4120 H 402.25 4.15151 0.923573 0
M  V30 4121 N 400.565 -0.0233959 1.57583 0
M  V30 4122 C 401.513 -1.04063 2.08023 0
M  V30 4123 C 402.507 -1.37084 0.995204 0
M  V30 4124 O 403.713 -1.35923 1.18004 0
M  V30 4125 H 400.088 -0.353144 0.663922 0
M  V30 4126 H 402.059 -0.589453 2.9252 0
M  V30 4127 C 400.808 -2.33123 2.57971 0
M  V30 4128 H 400.131 -2.08577 3.4108 0
M  V30 4129 H 401.571 -3.02632 2.96967 0
M  V30 4130 C 400.03 -3.02483 1.48342 0
M  V30 4131 O 400.56 -3.92541 0.852898 0
M  V30 4132 N 398.766 -2.63909 1.21658 0
M  V30 4133 H 398.313 -1.90758 1.73116 0
M  V30 4134 H 398.271 -3.10633 0.485218 0
M  V30 4135 N 402.043 -1.548 -0.295768 0
M  V30 4136 C 403.292 -1.73538 -1.02798 0
M  V30 4137 C 403.605 -0.531159 -1.8825 0
M  V30 4138 O 404.811 -0.600458 -2.64777 0
M  V30 4139 C 403.267 -3.07051 -1.87744 0
M  V30 4140 C 402.875 -4.34968 -1.07269 0
M  V30 4141 C 404.619 -3.35146 -2.60533 0
M  V30 4142 C 402.526 -5.5953 -1.91521 0
M  V30 4143 H 401.456 -0.646794 -0.387522 0
M  V30 4144 H 404.107 -1.81278 -0.284718 0
M  V30 4145 H 402.489 -2.93289 -2.66078 0
M  V30 4146 H 403.663 -4.5958 -0.335117 0
M  V30 4147 H 401.978 -4.13847 -0.460384 0
M  V30 4148 H 404.575 -4.2541 -3.23929 0
M  V30 4149 H 404.918 -2.54255 -3.29636 0
M  V30 4150 H 405.451 -3.49902 -1.89244 0
M  V30 4151 H 402.19 -6.43103 -1.26878 0
M  V30 4152 H 401.71 -5.39096 -2.62937 0
M  V30 4153 H 403.389 -5.96982 -2.49442 0
M  V30 4154 N 403.521 0.559213 -1.47345 0
M  V30 4155 C 404.746 1.34676 -1.57725 0
M  V30 4156 C 405.171 1.86723 -0.227164 0
M  V30 4157 O 404.529 1.6286 0.796642 0
M  V30 4158 C 404.577 2.49399 -2.60447 0
M  V30 4159 O 403.681 3.51567 -2.15578 0
M  V30 4160 H 403.022 0.400115 -0.52991 0
M  V30 4161 H 405.552 0.676009 -1.93109 0
M  V30 4162 H 405.562 2.95996 -2.80803 0
M  V30 4163 H 404.237 2.10873 -3.58477 0
M  V30 4164 H 402.814 3.11289 -2.05313 0
M  V30 4165 N 404.999 1.35443 0.805782 0
M  V30 4166 C 405.909 1.30546 1.94923 0
M  V30 4167 C 406.925 0.210233 1.72725 0
M  V30 4168 O 408.101 0.43975 1.9654 0
M  V30 4169 C 405.166 1.07782 3.29521 0
M  V30 4170 C 404.227 2.26625 3.64609 0
M  V30 4171 C 403.46 2.04938 4.92784 0
M  V30 4172 O 403.683 1.01624 5.61274 0
M  V30 4173 O 402.617 2.9232 5.26149 0
M  V30 4174 H 406.443 2.26779 2.02002 0
M  V30 4175 H 404.028 1.15823 0.943682 0
M  V30 4176 H 405.91 0.969392 4.10098 0
M  V30 4177 H 404.585 0.146003 3.23371 0
M  V30 4178 H 403.492 2.43033 2.84404 0
M  V30 4179 H 404.825 3.18257 3.75464 0
M  V30 4180 N 406.477 -1.02803 1.19454 0
M  V30 4181 C 407.702 -1.80378 1.02364 0
M  V30 4182 C 408.127 -1.83282 -0.423007 0
M  V30 4183 O 407.485 -1.25945 -1.30413 0
M  V30 4184 C 407.533 -3.23248 1.59821 0
M  V30 4185 O 406.637 -4.04 0.828105 0
M  V30 4186 H 405.978 -0.556799 0.361761 0
M  V30 4187 H 408.508 -1.29385 1.58495 0
M  V30 4188 H 408.518 -3.73994 1.63073 0
M  V30 4189 H 407.193 -3.2045 2.65113 0
M  V30 4190 H 405.77 -3.62635 0.86891 0
M  V30 4191 N 407.956 -0.998596 -1.21925 0
M  V30 4192 C 408.906 -0.524743 -2.21879 0
M  V30 4193 C 409.89 0.41017 -1.55584 0
M  V30 4194 O 411.082 0.236063 -1.75419 0
M  V30 4195 C 408.211 0.153636 -3.42956 0
M  V30 4196 C 407.297 -0.801918 -4.16449 0
M  V30 4197 N 407.688 -1.95211 -4.66611 0
M  V30 4198 C 405.986 -0.618972 -4.41684 0
M  V30 4199 C 406.687 -2.55234 -5.22715 0
M  V30 4200 N 405.663 -1.83451 -5.1171 0
M  V30 4201 H 409.465 -1.40189 -2.58311 0
M  V30 4202 H 406.979 -0.86159 -1.3766 0
M  V30 4203 H 408.976 0.510534 -4.13762 0
M  V30 4204 H 407.636 1.02684 -3.08036 0
M  V30 4205 H 408.647 -2.33271 -4.62391 0
M  V30 4206 H 405.324 0.207694 -4.16983 0
M  V30 4207 H 406.714 -3.52471 -5.72026 0
M  V30 4208 N 409.434 1.37368 -0.772513 0
M  V30 4209 C 410.845 1.8231 -0.402493 0
M  V30 4210 C 411.196 1.6436 1.07146 0
M  V30 4211 O 410.321 1.15514 1.82991 0
M  V30 4212 C 410.916 3.30979 -0.723776 0
M  V30 4213 C 409.475 3.74195 -0.406802 0
M  V30 4214 C 408.622 2.59885 -0.967218 0
M  V30 4215 H 411.573 1.25829 -0.967099 0
M  V30 4216 H 411.594 3.80499 -0.00870832 0
M  V30 4217 H 411.106 3.44011 -1.7966 0
M  V30 4218 H 409.207 3.66732 0.658673 0
M  V30 4219 H 409.32 4.7027 -0.915588 0
M  V30 4220 H 407.684 2.51674 -0.391416 0
M  V30 4221 H 408.467 2.7571 -2.04546 0
M  V30 4222 N 410.912 0.523116 1.48665 0
M  V30 4223 C 411.86 -0.256859 2.31177 0
M  V30 4224 C 412.854 -0.94199 1.40794 0
M  V30 4225 O 414.06 -0.867157 1.57735 0
M  V30 4226 H 410.435 -0.1017 0.745091 0
M  V30 4227 H 412.406 0.458739 2.94853 0
M  V30 4228 C 411.155 -1.29503 3.22683 0
M  V30 4229 H 410.478 -0.777248 3.92172 0
M  V30 4230 H 411.918 -1.81233 3.83315 0
M  V30 4231 C 410.377 -2.32501 2.43813 0
M  V30 4232 O 410.907 -3.3881 2.15803 0
M  V30 4233 N 409.113 -2.05538 2.05432 0
M  V30 4234 H 408.66 -1.19104 2.28412 0
M  V30 4235 H 408.618 -2.74676 1.52973 0
M  V30 4236 N 412.39 -1.55475 0.257931 0
M  V30 4237 C 413.353 -2.20551 -0.623706 0
M  V30 4238 C 414.353 -1.17809 -1.09443 0
M  V30 4239 O 415.543 -1.42823 -0.997362 0
M  V30 4240 C 412.675 -2.85784 -1.8585 0
M  V30 4241 H 413.868 -2.99848 -0.0557743 0
M  V30 4242 H 411.421 -1.56298 0.0084422 0
M  V30 4243 H 412.156 -2.10453 -2.46739 0
M  V30 4244 H 411.941 -3.61057 -1.52907 0
M  V30 4245 H 413.431 -3.35553 -2.48584 0
M  V30 4246 N 413.868 0.0150385 -1.57593 0
M  V30 4247 C 415.096 0.714395 -1.94175 0
M  V30 4248 C 415.511 1.68135 -0.858841 0
M  V30 4249 O 414.868 1.81766 0.163567 0
M  V30 4250 C 414.919 1.45933 -3.30735 0
M  V30 4251 O 414.64 0.531167 -4.34868 0
M  V30 4252 C 416.141 2.25456 -3.81686 0
M  V30 4253 H 413.361 0.199923 -0.640525 0
M  V30 4254 H 415.905 -0.0316096 -2.04476 0
M  V30 4255 H 414.06 2.15709 -3.21789 0
M  V30 4256 H 414.474 1.05509 -5.13778 0
M  V30 4257 H 415.948 2.731 -4.79709 0
M  V30 4258 H 416.425 3.07485 -3.13607 0
M  V30 4259 H 417.031 1.60727 -3.9376 0
M  V30 4260 N 415.346 1.54954 0.287554 0
M  V30 4261 C 416.593 1.74873 1.02106 0
M  V30 4262 C 416.921 0.541829 1.86801 0
M  V30 4263 O 416.176 -0.475992 1.89823 0
M  V30 4264 C 416.475 2.99833 1.94512 0
M  V30 4265 C 416.141 4.33029 1.25686 0
M  V30 4266 C 414.803 4.69233 1.06649 0
M  V30 4267 C 417.155 5.15542 0.765913 0
M  V30 4268 C 414.483 5.85518 0.372222 0
M  V30 4269 C 416.835 6.32542 0.0853101 0
M  V30 4270 C 415.499 6.67398 -0.1169 0
M  V30 4271 H 414.769 0.639906 0.373632 0
M  V30 4272 H 417.416 1.89219 0.294665 0
M  V30 4273 H 415.721 2.80325 2.73725 0
M  V30 4274 H 417.418 3.1244 2.51361 0
M  V30 4275 H 414.008 4.04564 1.41512 0
M  V30 4276 H 418.192 4.88059 0.90066 0
M  V30 4277 H 413.448 6.11057 0.204695 0
M  V30 4278 H 417.622 6.95741 -0.302936 0
M  V30 4279 H 415.249 7.57357 -0.656859 0
M  V30 4280 N 416.824 -0.551391 1.4764 0
M  V30 4281 C 418.049 -1.33837 1.58437 0
M  V30 4282 C 418.474 -1.866 0.237063 0
M  V30 4283 O 417.832 -1.6328 -0.787994 0
M  V30 4284 C 417.88 -2.48014 2.61766 0
M  V30 4285 O 416.984 -3.50419 2.1744 0
M  V30 4286 H 416.325 -0.397299 0.532024 0
M  V30 4287 H 418.855 -0.665759 1.93465 0
M  V30 4288 H 418.865 -2.94503 2.82369 0
M  V30 4289 H 417.54 -2.08969 3.5959 0
M  V30 4290 H 416.117 -3.10196 2.06961 0
M  V30 4291 N 418.302 -1.35869 -0.798587 0
M  V30 4292 C 419.265 -1.29307 -1.89242 0
M  V30 4293 C 420.265 -0.202747 -1.59517 0
M  V30 4294 O 421.455 -0.456957 -1.681 0
M  V30 4295 C 418.587 -1.00229 -3.25833 0
M  V30 4296 H 419.78 -2.26576 -1.96478 0
M  V30 4297 H 417.333 -1.20509 -0.995358 0
M  V30 4298 H 418.068 -0.033801 -3.24282 0
M  V30 4299 H 417.853 -1.79121 -3.48795 0
M  V30 4300 H 419.343 -0.98219 -4.05885 0
M  V30 4301 N 419.78 1.02168 -1.19998 0
M  V30 4302 C 421.026 1.75945 -1.00852 0
M  V30 4303 C 421.359 1.88702 0.458828 0
M  V30 4304 O 420.634 1.40911 1.34069 0
M  V30 4305 C 420.917 3.18154 -1.68671 0
M  V30 4306 C 420.77 3.13224 -3.22817 0
M  V30 4307 C 422.089 4.16711 -1.41561 0
M  V30 4308 H 419.208 0.638673 -0.367785 0
M  V30 4309 H 421.85 1.19222 -1.4794 0
M  V30 4310 H 420 3.66586 -1.28636 0
M  V30 4311 H 421.672 2.72635 -3.72112 0
M  V30 4312 H 419.915 2.50751 -3.53986 0
M  V30 4313 H 420.586 4.13728 -3.65422 0
M  V30 4314 H 423.062 3.76913 -1.76284 0
M  V30 4315 H 421.938 5.14391 -1.91553 0
M  V30 4316 H 422.199 4.40774 -0.342193 0
M  V30 4317 N 421.258 1.00505 1.21394 0
M  V30 4318 C 422.506 0.686415 1.90086 0
M  V30 4319 C 422.827 -0.785264 1.7849 0
M  V30 4320 O 422.097 -1.56387 1.17983 0
M  V30 4321 H 420.677 0.2509 0.703604 0
M  V30 4322 H 423.339 1.27417 1.47482 0
M  V30 4323 H 422.435 0.959621 2.96981 0
M  V30 4324 N 422.737 -1.36956 0.779787 0
M  V30 4325 C 423.647 -2.33965 0.172491 0
M  V30 4326 C 424.663 -1.60574 -0.670222 0
M  V30 4327 O 425.839 -1.92617 -0.588263 0
M  V30 4328 C 422.904 -3.39761 -0.690173 0
M  V30 4329 C 421.965 -4.28964 0.169924 0
M  V30 4330 C 421.198 -5.29707 -0.651662 0
M  V30 4331 O 421.421 -5.38238 -1.88827 0
M  V30 4332 O 420.355 -6.01873 -0.0566264 0
M  V30 4333 H 424.181 -2.87647 0.974321 0
M  V30 4334 H 421.766 -1.39258 0.541078 0
M  V30 4335 H 423.648 -4.04471 -1.1824 0
M  V30 4336 H 422.323 -2.88394 -1.47006 0
M  V30 4337 H 421.23 -3.67326 0.708696 0
M  V30 4338 H 422.563 -4.83656 0.913085 0
M  V30 4339 N 424.215 -0.530993 -1.48385 0
M  V30 4340 C 425.178 0.220497 -2.28137 0
M  V30 4341 C 426.178 0.866851 -1.35434 0
M  V30 4342 O 427.368 0.726746 -1.58316 0
M  V30 4343 C 424.5 1.31921 -3.1434 0
M  V30 4344 H 425.693 -0.479714 -2.96038 0
M  V30 4345 H 423.246 -0.286968 -1.53643 0
M  V30 4346 H 423.981 2.05264 -2.51072 0
M  V30 4347 H 423.766 0.86085 -3.82533 0
M  V30 4348 H 425.256 1.84776 -3.74497 0
M  V30 4349 N 425.693 1.55336 -0.266172 0
M  V30 4350 C 426.918 2.04258 0.359661 0
M  V30 4351 C 427.343 1.14359 1.49344 0
M  V30 4352 O 426.701 0.140369 1.80756 0
M  V30 4353 C 426.749 3.50997 0.826635 0
M  V30 4354 O 425.853 3.64204 1.93466 0
M  V30 4355 H 425.194 0.659668 0.075727 0
M  V30 4356 H 427.724 2.00694 -0.39786 0
M  V30 4357 H 427.734 3.9219 1.12477 0
M  V30 4358 H 426.409 4.159 -0.00293032 0
M  V30 4359 H 424.986 3.34913 1.63974 0
M  V30 4360 N 427.171 -0.0066808 1.57599 0
M  V30 4361 C 428.42 -0.692078 1.89455 0
M  V30 4362 C 428.733 -1.75306 0.867586 0
M  V30 4363 O 429.939 -2.49262 1.07614 0
M  V30 4364 C 428.395 -1.2821 3.36289 0
M  V30 4365 C 428.003 -0.256291 4.47266 0
M  V30 4366 C 429.747 -1.94608 3.77264 0
M  V30 4367 C 427.654 -0.855927 5.85173 0
M  V30 4368 H 426.584 -0.262252 0.706923 0
M  V30 4369 H 429.235 0.052769 1.83424 0
M  V30 4370 H 427.617 -2.0774 3.37135 0
M  V30 4371 H 428.791 0.513923 4.57925 0
M  V30 4372 H 427.106 0.306862 4.15268 0
M  V30 4373 H 429.703 -2.40364 4.77629 0
M  V30 4374 H 430.046 -2.77382 3.10427 0
M  V30 4375 H 430.579 -1.21822 3.78688 0
M  V30 4376 H 427.318 -0.0671161 6.55466 0
M  V30 4377 H 426.838 -1.59546 5.78191 0
M  V30 4378 H 428.517 -1.35658 6.32618 0
M  V30 4379 N 428.649 -1.55105 -0.279332 0
M  V30 4380 C 429.889 -1.7716 -1.01949 0
M  V30 4381 C 430.253 -0.557511 -1.83728 0
M  V30 4382 O 431.454 -0.656198 -2.60667 0
M  V30 4383 C 429.725 -3.0372 -1.88385 0
M  V30 4384 S 431.284 -3.46868 -2.68752 0
M  V30 4385 H 428.102 -0.62253 -0.343478 0
M  V30 4386 H 430.704 -1.93329 -0.290572 0
M  V30 4387 H 429.408 -3.90184 -1.2722 0
M  V30 4388 H 428.939 -2.902 -2.65608 0
M  V30 4389 H 430.954 -3.05643 -3.90892 0
M  V30 4390 N 430.127 0.543554 -1.4793 0
M  V30 4391 C 431.037 1.67657 -1.64098 0
M  V30 4392 C 432.053 1.65934 -0.523622 0
M  V30 4393 O 433.229 1.85133 -0.792943 0
M  V30 4394 C 430.294 3.04146 -1.66421 0
M  V30 4395 C 429.355 3.16831 -2.89684 0
M  V30 4396 C 428.588 4.46809 -2.91886 0
M  V30 4397 O 428.811 5.33095 -2.02895 0
M  V30 4398 O 427.745 4.63573 -3.83906 0
M  V30 4399 H 431.571 1.56957 -2.59997 0
M  V30 4400 H 429.156 0.715116 -1.31173 0
M  V30 4401 H 431.038 3.85346 -1.70548 0
M  V30 4402 H 429.713 3.152 -0.736923 0
M  V30 4403 H 428.62 2.34977 -2.91095 0
M  V30 4404 H 429.953 3.10687 -3.81752 0
M  V30 4405 N 431.605 1.3629 0.791371 0
M  V30 4406 C 432.882 1.20962 1.53712 0
M  V30 4407 C 433.262 -0.205021 2.10102 0
M  V30 4408 O 432.61 -1.21042 1.93807 0
M  V30 4409 C 432.82 2.29002 2.63361 0
M  V30 4410 C 434.168 2.65572 3.31295 0
M  V30 4411 O 435.192 2.2803 2.73643 0
M  V30 4412 O 434.051 3.3018 4.35481 0
M  V30 4413 H 431.145 0.47086 0.679867 0
M  V30 4414 H 433.691 1.48016 0.830021 0
M  V30 4415 H 432.463 3.2382 2.19674 0
M  V30 4416 H 432.086 2.03303 3.41692 0
M  V30 4417 N 433.083 -1.0153 1.20538 0
M  V30 4418 C 434.36 -1.72327 0.925343 0
M  V30 4419 C 434.74 -2.03383 -0.565547 0
M  V30 4420 O 434.088 -1.69934 -1.52757 0
M  V30 4421 C 434.298 -2.9902 1.79967 0
M  V30 4422 C 435.646 -3.72258 2.04228 0
M  V30 4423 O 436.67 -3.08979 1.77231 0
M  V30 4424 O 435.529 -4.86053 2.4983 0
M  V30 4425 H 432.623 -0.751099 0.346092 0
M  V30 4426 H 435.169 -1.07366 1.31417 0
M  V30 4427 H 433.941 -2.72402 2.80915 0
M  V30 4428 H 433.564 -3.71721 1.41099 0
M  V30 4429 N 434.561 -1.01147 -1.20859 0
M  V30 4430 C 435.807 -0.708598 -1.90658 0
M  V30 4431 C 436.162 0.753069 -1.7705 0
M  V30 4432 O 435.455 1.53952 -1.14059 0
M  V30 4433 C 435.649 -1.0727 -3.40922 0
M  V30 4434 C 435.478 -2.56821 -3.69152 0
M  V30 4435 C 434.248 -3.23524 -3.8815 0
M  V30 4436 C 436.446 -3.54997 -3.72131 0
M  V30 4437 N 434.428 -4.62359 -4.03853 0
M  V30 4438 C 435.799 -4.79371 -3.93196 0
M  V30 4439 C 437.854 -3.49042 -3.55069 0
M  V30 4440 C 436.557 -5.98512 -3.98969 0
M  V30 4441 C 438.583 -4.67579 -3.6211 0
M  V30 4442 C 437.945 -5.9076 -3.83643 0
M  V30 4443 H 434.044 -0.31088 -0.71755 0
M  V30 4444 H 436.628 -1.29526 -1.45366 0
M  V30 4445 H 434.799 -0.51443 -3.84978 0
M  V30 4446 H 436.531 -0.723891 -3.98173 0
M  V30 4447 H 433.286 -2.73958 -3.86321 0
M  V30 4448 H 433.71 -5.34427 -4.15592 0
M  V30 4449 H 438.352 -2.54808 -3.37391 0
M  V30 4450 H 436.07 -6.93132 -4.15444 0
M  V30 4451 H 439.656 -4.64581 -3.50222 0
M  V30 4452 H 438.536 -6.8095 -3.88944 0
M  V30 4453 N 436.039 1.36541 -0.78704 0
M  V30 4454 C 436.987 2.31965 -0.171724 0
M  V30 4455 C 437.981 1.55689 0.667631 0
M  V30 4456 O 439.187 1.70969 0.562981 0
M  V30 4457 H 435.562 0.751101 -0.0367545 0
M  V30 4458 H 437.533 2.81428 -0.992017 0
M  V30 4459 C 436.282 3.40968 0.680904 0
M  V30 4460 H 435.605 3.99775 0.0443961 0
M  V30 4461 H 437.045 4.10063 1.07815 0
M  V30 4462 C 435.504 2.82338 1.83813 0
M  V30 4463 O 436.034 2.74311 2.93456 0
M  V30 4464 N 434.24 2.39661 1.6435 0
M  V30 4465 H 433.787 2.46389 0.751668 0
M  V30 4466 H 433.745 2.00779 2.4194 0
M  V30 4467 N 437.518 0.538854 1.48102 0
M  V30 4468 C 438.743 0.0102694 2.07397 0
M  V30 4469 C 439.168 -1.26562 1.39153 0
M  V30 4470 O 438.526 -1.75357 0.460387 0
M  V30 4471 C 438.574 -0.187602 3.60112 0
M  V30 4472 O 437.678 -1.25432 3.92862 0
M  V30 4473 H 437.019 0.0430975 0.6626 0
M  V30 4474 H 439.549 0.749301 1.90385 0
M  V30 4475 H 439.559 -0.407517 4.0596 0
M  V30 4476 H 438.234 0.744386 4.09184 0
M  V30 4477 H 436.811 -1.01636 3.58782 0
M  V30 4478 N 438.996 -1.55193 0.274407 0
M  V30 4479 C 440.244 -1.99187 -0.341902 0
M  V30 4480 C 440.565 -1.16422 -1.56431 0
M  V30 4481 O 439.835 -0.253573 -1.94252 0
M  V30 4482 H 438.415 -0.735721 -0.129317 0
M  V30 4483 H 441.077 -1.91168 0.379578 0
M  V30 4484 H 440.173 -3.05629 -0.632253 0
M  V30 4485 N 440.474 -0.00167713 -1.576 0
M  V30 4486 C 441.384 1.00548 -2.1196 0
M  V30 4487 C 442.4 1.3758 -1.06526 0
M  V30 4488 O 443.576 1.46278 -1.38436 0
M  V30 4489 C 440.641 2.27809 -2.6135 0
M  V30 4490 C 439.702 1.97074 -3.81393 0
M  V30 4491 C 438.935 3.18267 -4.28417 0
M  V30 4492 O 439.158 4.30009 -3.74765 0
M  V30 4493 O 438.092 3.02167 -5.20556 0
M  V30 4494 H 441.918 0.573373 -2.98238 0
M  V30 4495 H 439.503 0.217255 -1.47812 0
M  V30 4496 H 441.385 3.02568 -2.93309 0
M  V30 4497 H 440.06 2.70254 -1.78169 0
M  V30 4498 H 438.967 1.19785 -3.54404 0
M  V30 4499 H 440.3 1.59464 -4.65652 0
M  V30 4500 N 441.952 1.55251 0.271103 0
M  V30 4501 C 443.368 1.47133 0.618393 0
M  V30 4502 C 443.568 0.686994 1.89427 0
M  V30 4503 O 442.624 0.206609 2.51653 0
M  V30 4504 C 443.937 2.91361 0.743593 0
M  V30 4505 C 445.485 3.01587 0.837522 0
M  V30 4506 C 445.96 4.47073 0.994483 0
M  V30 4507 N 447.451 4.50909 1.05996 0
M  V30 4508 C 448.186 5.60698 1.20024 0
M  V30 4509 N 447.682 6.80348 1.30759 0
M  V30 4510 N 449.475 5.48444 1.23149 0
M  V30 4511 H 441.626 2.04698 -0.566784 0
M  V30 4512 H 443.889 0.928319 -0.192165 0
M  V30 4513 H 443.595 3.51483 -0.123493 0
M  V30 4514 H 443.469 3.40484 1.62328 0
M  V30 4515 H 445.856 2.4156 1.69507 0
M  V30 4516 H 445.937 2.55713 -0.0668086 0
M  V30 4517 H 445.581 5.07703 0.141582 0
M  V30 4518 H 445.511 4.90605 1.91349 0
M  V30 4519 H 448.002 3.6472 0.989316 0
M  V30 4520 H 448.315 7.59772 1.41303 0
M  V30 4521 H 446.66 6.83156 1.27761 0
M  V30 4522 H 449.851 4.53907 1.14394 0
M  V30 4523 H 450.024 6.34049 1.33738 0
M  V30 4524 N 443.43 -0.535701 1.48216 0
M  V30 4525 C 444.677 -1.29183 1.55942 0
M  V30 4526 C 445.005 -1.93125 0.230857 0
M  V30 4527 O 444.26 -1.79556 -0.778331 0
M  V30 4528 C 444.559 -2.4068 2.64212 0
M  V30 4529 C 444.225 -1.94428 4.06827 0
M  V30 4530 C 442.887 -1.81532 4.45645 0
M  V30 4531 C 445.239 -1.59405 4.96225 0
M  V30 4532 C 442.567 -1.31939 5.71672 0
M  V30 4533 C 444.919 -1.11276 6.22736 0
M  V30 4534 C 443.583 -0.969924 6.60416 0
M  V30 4535 H 442.853 -0.472715 0.570632 0
M  V30 4536 H 445.5 -0.598437 1.81909 0
M  V30 4537 H 443.805 -3.15666 2.32083 0
M  V30 4538 H 445.502 -2.98822 2.67407 0
M  V30 4539 H 442.092 -2.05415 3.76168 0
M  V30 4540 H 446.276 -1.68231 4.66917 0
M  V30 4541 H 441.532 -1.19562 5.99596 0
M  V30 4542 H 445.706 -0.832453 6.91407 0
M  V30 4543 H 443.333 -0.583436 7.57958 0
M  V30 4544 N 444.908 -1.36708 -0.784132 0
M  V30 4545 C 446.136 -1.34398 -1.57305 0
M  V30 4546 C 446.551 0.0735577 -1.88657 0
M  V30 4547 O 445.908 1.03193 -1.50524 0
M  V30 4548 C 445.959 -2.17053 -2.89085 0
M  V30 4549 O 445.68 -3.53281 -2.59083 0
M  V30 4550 C 447.181 -2.22583 -3.83369 0
M  V30 4551 H 444.401 -0.460819 -0.487736 0
M  V30 4552 H 446.945 -1.79879 -0.972819 0
M  V30 4553 H 445.1 -1.75113 -3.45564 0
M  V30 4554 H 445.514 -3.9647 -3.43383 0
M  V30 4555 H 446.988 -2.84763 -4.72878 0
M  V30 4556 H 447.465 -1.23075 -4.21603 0
M  V30 4557 H 448.071 -2.64781 -3.32823 0
M  V30 4558 N 446.386 1.0089 -1.21074 0
M  V30 4559 C 447.626 1.76142 -1.03699 0
M  V30 4560 C 447.99 1.87292 0.422587 0
M  V30 4561 O 449.191 2.59068 0.716752 0
M  V30 4562 C 447.462 3.13805 -1.7106 0
M  V30 4563 S 449.021 4.04996 -1.68889 0
M  V30 4564 H 445.839 0.606113 -0.371683 0
M  V30 4565 H 448.441 1.20744 -1.53756 0
M  V30 4566 H 447.145 3.0332 -2.76451 0
M  V30 4567 H 446.676 3.74276 -1.21166 0
M  V30 4568 H 448.691 4.90842 -0.727211 0
M  V30 4569 N 447.864 1.01787 1.20321 0
M  V30 4570 C 449.092 0.727194 1.937 0
M  V30 4571 C 449.507 -0.712305 1.74848 0
M  V30 4572 O 448.864 -1.48327 1.06327 0
M  V30 4573 C 448.915 1.05497 3.45764 0
M  V30 4574 O 448.636 2.43794 3.64 0
M  V30 4575 C 450.137 0.785534 4.36285 0
M  V30 4576 H 447.357 0.266939 0.615617 0
M  V30 4577 H 449.901 1.35939 1.52777 0
M  V30 4578 H 448.056 0.468158 3.84561 0
M  V30 4579 H 448.47 2.55656 4.57974 0
M  V30 4580 H 449.944 1.06495 5.4163 0
M  V30 4581 H 450.421 -0.280273 4.38305 0
M  V30 4582 H 451.027 1.35456 4.03152 0
M  V30 4583 N 449.342 -1.36122 0.79427 0
M  V30 4584 C 450.588 -1.99406 0.369452 0
M  V30 4585 C 450.921 -1.62886 -1.05743 0
M  V30 4586 O 450.196 -0.886053 -1.73145 0
M  V30 4587 C 450.479 -3.56046 0.538833 0
M  V30 4588 C 450.332 -4.02404 2.00976 0
M  V30 4589 C 451.651 -4.40079 -0.0431359 0
M  V30 4590 H 448.77 -0.724397 0.135712 0
M  V30 4591 H 451.412 -1.61461 1.00151 0
M  V30 4592 H 449.562 -3.885 0.000771004 0
M  V30 4593 H 451.234 -3.80415 2.60926 0
M  V30 4594 H 449.477 -3.53765 2.51063 0
M  V30 4595 H 450.148 -5.11344 2.07922 0
M  V30 4596 H 452.624 -4.14013 0.416228 0
M  V30 4597 H 451.5 -5.48799 0.105374 0
M  V30 4598 H 451.761 -4.27264 -1.13571 0
M  V30 4599 N 450.82 -0.546701 -1.47814 0
M  V30 4600 C 452.048 -0.0232857 -2.06887 0
M  V30 4601 C 452.463 1.26571 -1.4009 0
M  V30 4602 O 451.82 1.7569 -0.493906 0
M  V30 4603 C 451.871 0.186975 -3.61016 0
M  V30 4604 O 451.592 -1.05097 -4.25307 0
M  V30 4605 C 453.093 0.748872 -4.36929 0
M  V30 4606 H 450.313 -0.0410763 -0.669742 0
M  V30 4607 H 452.857 -0.757117 -1.89968 0
M  V30 4608 H 451.012 0.870903 -3.77484 0
M  V30 4609 H 451.426 -0.842121 -5.17695 0
M  V30 4610 H 452.9 0.845334 -5.45489 0
M  V30 4611 H 453.377 1.75772 -4.02493 0
M  V30 4612 H 453.983 0.100979 -4.2518 0
M  V30 4613 N 452.299 1.55045 -0.282633 0
M  V30 4614 C 453.249 2.19514 0.616249 0
M  V30 4615 C 454.233 1.16216 1.11277 0
M  V30 4616 O 455.425 1.42004 1.05659 0
M  V30 4617 C 452.554 2.92548 1.7964 0
M  V30 4618 C 451.64 4.03142 1.31671 0
M  V30 4619 N 452.031 5.0276 0.553695 0
M  V30 4620 C 450.329 4.1635 1.59903 0
M  V30 4621 C 451.03 5.80923 0.30054 0
M  V30 4622 N 450.006 5.3651 0.875116 0
M  V30 4623 H 453.808 2.93889 0.0255363 0
M  V30 4624 H 451.322 1.62169 -0.0865362 0
M  V30 4625 H 453.319 3.37188 2.45173 0
M  V30 4626 H 451.979 2.19685 2.39099 0
M  V30 4627 H 452.99 5.17512 0.20032 0
M  V30 4628 H 449.667 3.54682 2.20243 0
M  V30 4629 H 451.057 6.7118 -0.311053 0
M  V30 4630 N 453.777 0.010035 1.57597 0
M  V30 4631 C 455.005 -0.683413 1.95287 0
M  V30 4632 C 455.42 -1.66747 0.885481 0
M  V30 4633 O 454.777 -1.82003 -0.134629 0
M  V30 4634 C 454.828 -1.40652 3.33015 0
M  V30 4635 O 454.549 -0.461916 4.35658 0
M  V30 4636 C 456.05 -2.19356 3.85225 0
M  V30 4637 H 453.27 -0.189708 0.643624 0
M  V30 4638 H 455.814 0.0641359 2.04399 0
M  V30 4639 H 453.969 -2.10562 3.2518 0
M  V30 4640 H 454.383 -0.973215 5.15392 0
M  V30 4641 H 455.857 -2.65433 4.83993 0
M  V30 4642 H 456.334 -3.02457 3.18459 0
M  V30 4643 H 456.94 -1.54442 3.96267 0
M  V30 4644 N 455.255 -1.55392 -0.262866 0
M  V30 4645 C 456.532 -1.67204 -1.01499 0
M  V30 4646 C 456.912 -0.545186 -2.03939 0
M  V30 4647 O 456.26 0.453467 -2.23955 0
M  V30 4648 C 456.47 -3.06847 -1.6627 0
M  V30 4649 C 457.818 -3.64928 -2.17054 0
M  V30 4650 O 458.842 -3.09545 -1.76239 0
M  V30 4651 O 457.701 -4.61984 -2.91947 0
M  V30 4652 H 454.795 -0.679467 -0.471438 0
M  V30 4653 H 457.341 -1.67729 -0.257918 0
M  V30 4654 H 456.113 -3.80309 -0.920915 0
M  V30 4655 H 455.736 -3.10266 -2.48638 0
M  V30 4656 N 456.733 0.527833 -1.48498 0
M  V30 4657 C 457.663 1.64136 -1.66077 0
M  V30 4658 C 458.644 1.62286 -0.509625 0
M  V30 4659 O 459.829 1.79449 -0.742413 0
M  V30 4660 C 456.959 3.02717 -1.70234 0
M  V30 4661 C 455.913 3.19426 -2.8487 0
M  V30 4662 C 455.239 4.5909 -2.74118 0
M  V30 4663 C 456.539 3.01993 -4.26142 0
M  V30 4664 H 458.233 1.4968 -2.593 0
M  V30 4665 H 455.779 0.718654 -1.24785 0
M  V30 4666 H 457.732 3.80491 -1.8112 0
M  V30 4667 H 456.456 3.18201 -0.735911 0
M  V30 4668 H 455.115 2.4407 -2.73542 0
M  V30 4669 H 454.763 4.71413 -1.7544 0
M  V30 4670 H 454.463 4.71214 -3.51042 0
M  V30 4671 H 455.987 5.3896 -2.86974 0
M  V30 4672 H 457.401 3.69558 -4.38292 0
M  V30 4673 H 455.798 3.2561 -5.04082 0
M  V30 4674 H 456.868 1.98396 -4.42456 0
M  V30 4675 N 458.211 1.37122 0.776871 0
M  V30 4676 C 459.622 1.28667 1.35284 0
M  V30 4677 C 459.973 -0.0680035 1.96082 0
M  V30 4678 O 459.098 -0.969743 1.93455 0
M  V30 4679 C 459.693 2.32997 2.45963 0
M  V30 4680 C 458.252 2.28191 2.99342 0
M  V30 4681 C 457.399 2.17101 1.72517 0
M  V30 4682 H 460.35 1.47819 0.577527 0
M  V30 4683 H 460.371 1.97366 3.2531 0
M  V30 4684 H 459.883 3.3158 2.01684 0
M  V30 4685 H 457.984 1.33115 3.4801 0
M  V30 4686 H 458.097 3.21397 3.55304 0
M  V30 4687 H 456.461 1.63562 1.95242 0
M  V30 4688 H 457.244 3.17591 1.30348 0
M  V30 4689 N 459.689 -1.00246 1.21608 0
M  V30 4690 C 460.914 -1.78167 1.06167 0
M  V30 4691 C 461.339 -1.84138 -0.384035 0
M  V30 4692 O 460.697 -1.28683 -1.27712 0
M  V30 4693 C 460.745 -3.19786 1.66642 0
M  V30 4694 O 459.849 -4.02153 0.913613 0
M  V30 4695 H 459.19 -0.549 0.37349 0
M  V30 4696 H 461.72 -1.25994 1.61204 0
M  V30 4697 H 461.73 -3.70451 1.70969 0
M  V30 4698 H 460.405 -3.14754 2.7185 0
M  V30 4699 H 458.982 -3.60711 0.945635 0
M  V30 4700 N 461.167 -1.02423 -1.1978 0
M  V30 4701 C 462.578 -0.748389 -1.71044 0
M  V30 4702 C 462.929 0.732398 -1.82017 0
M  V30 4703 O 462.054 1.57116 -1.48807 0
M  V30 4704 C 462.649 -1.35187 -3.1066 0
M  V30 4705 C 461.208 -1.12472 -3.59203 0
M  V30 4706 C 460.355 -1.45283 -2.36195 0
M  V30 4707 H 463.306 -1.19275 -1.04686 0
M  V30 4708 H 463.327 -0.746408 -3.73107 0
M  V30 4709 H 462.839 -2.4296 -3.02642 0
M  V30 4710 H 460.94 -0.0649983 -3.72543 0
M  V30 4711 H 461.053 -1.81016 -4.43588 0
M  V30 4712 H 459.417 -0.872034 -2.39307 0
M  V30 4713 H 460.2 -2.54129 -2.30811 0
M  V30 4714 N 462.645 1.35699 -0.801477 0
M  V30 4715 C 463.575 2.32436 -0.222658 0
M  V30 4716 C 464.556 1.5723 0.649057 0
M  V30 4717 O 465.741 1.85324 0.580387 0
M  V30 4718 C 462.871 3.41469 0.633719 0
M  V30 4719 C 461.825 4.27774 -0.139083 0
M  V30 4720 C 461.151 5.28082 0.838666 0
M  V30 4721 C 462.451 5.04946 -1.33517 0
M  V30 4722 H 464.145 2.81094 -1.03086 0
M  V30 4723 H 461.691 1.35146 -0.497155 0
M  V30 4724 H 463.644 4.08143 1.04868 0
M  V30 4725 H 462.368 2.91408 1.47475 0
M  V30 4726 H 461.027 3.62673 -0.535156 0
M  V30 4727 H 460.675 4.7429 1.67506 0
M  V30 4728 H 460.375 5.86695 0.32594 0
M  V30 4729 H 461.899 5.97628 1.25194 0
M  V30 4730 H 463.313 5.64593 -0.995349 0
M  V30 4731 H 461.71 5.7303 -1.78202 0
M  V30 4732 H 462.78 4.35886 -2.12442 0
M  V30 4733 N 464.123 0.554532 1.47522 0
M  V30 4734 C 465.07 -0.19466 2.29978 0
M  V30 4735 C 466.04 -0.910882 1.38896 0
M  V30 4736 O 467.225 -0.907102 1.67858 0
M  V30 4737 C 464.365 -1.22035 3.22802 0
M  V30 4738 C 463.478 -0.510474 4.28973 0
M  V30 4739 C 462.613 -1.52123 5.08952 0
M  V30 4740 C 461.652 -0.796173 6.069 0
M  V30 4741 N 460.789 -1.75363 6.79847 0
M  V30 4742 H 465.629 0.51461 2.93523 0
M  V30 4743 H 463.166 0.265607 1.44682 0
M  V30 4744 H 465.124 -1.8276 3.7504 0
M  V30 4745 H 463.754 -1.89769 2.61127 0
M  V30 4746 H 462.806 0.211234 3.79813 0
M  V30 4747 H 464.118 0.0576503 4.98767 0
M  V30 4748 H 463.272 -2.20207 5.65326 0
M  V30 4749 H 462.011 -2.12327 4.39054 0
M  V30 4750 H 461.016 -0.101388 5.49707 0
M  V30 4751 H 462.241 -0.199911 6.78806 0
M  V30 4752 H 460.187 -2.3443 6.12682 0
M  V30 4753 H 460.104 -1.23759 7.45801 0
M  V30 4754 H 461.372 -2.4257 7.40797 0
M  V30 4755 N 465.601 -1.54893 0.290851 0
M  V30 4756 C 466.533 -2.20564 -0.623236 0
M  V30 4757 C 467.546 -1.19519 -1.1054 0
M  V30 4758 O 468.735 -1.46165 -1.02459 0
M  V30 4759 C 465.835 -2.83033 -1.86401 0
M  V30 4760 C 465.008 -4.09916 -1.52604 0
M  V30 4761 C 464.067 -4.56284 -2.62091 0
M  V30 4762 O 463.093 -5.2171 -2.27612 0
M  V30 4763 N 464.295 -4.27746 -3.92446 0
M  V30 4764 H 467.06 -2.99638 -0.0610915 0
M  V30 4765 H 464.621 -1.61508 0.112615 0
M  V30 4766 H 466.613 -3.1099 -2.58973 0
M  V30 4767 H 465.183 -2.0786 -2.33481 0
M  V30 4768 H 464.403 -3.89078 -0.633424 0
M  V30 4769 H 465.691 -4.92554 -1.27547 0
M  V30 4770 H 465.089 -3.7531 -4.23272 0
M  V30 4771 H 463.646 -4.60437 -4.61347 0
M  V30 4772 N 467.08 -0.0183926 -1.57589 0
M  V30 4773 C 468.308 0.673046 -1.95647 0
M  V30 4774 C 468.723 1.66275 -0.894312 0
M  V30 4775 O 468.08 1.82072 0.124975 0
M  V30 4776 C 468.131 1.38884 -3.33756 0
M  V30 4777 O 467.852 0.438806 -4.35897 0
M  V30 4778 C 469.353 2.1731 -3.86383 0
M  V30 4779 H 466.573 0.186292 -0.644621 0
M  V30 4780 H 469.117 -0.0749748 -2.04363 0
M  V30 4781 H 467.272 2.08835 -3.26293 0
M  V30 4782 H 467.686 0.945869 -5.15901 0
M  V30 4783 H 469.16 2.62863 -4.85394 0
M  V30 4784 H 469.637 3.00764 -3.20059 0
M  V30 4785 H 470.243 1.52339 -3.97081 0
M  V30 4786 N 468.558 1.5553 0.254621 0
M  V30 4787 C 469.807 1.76202 0.981612 0
M  V30 4788 C 470.12 0.580883 1.86776 0
M  V30 4789 O 471.326 0.670448 2.63092 0
M  V30 4790 C 469.782 3.11921 1.79537 0
M  V30 4791 C 469.39 4.37659 0.956991 0
M  V30 4792 C 471.134 3.41936 2.51555 0
M  V30 4793 C 469.041 5.64411 1.76619 0
M  V30 4794 H 467.971 0.656841 0.370237 0
M  V30 4795 H 470.622 1.81969 0.236556 0
M  V30 4796 H 469.004 3.00241 2.58208 0
M  V30 4797 H 470.178 4.60307 0.21315 0
M  V30 4798 H 468.493 4.14922 0.350497 0
M  V30 4799 H 471.09 4.33849 3.12536 0
M  V30 4800 H 471.433 2.62905 3.22779 0
M  V30 4801 H 471.966 3.54797 1.799 0
M  V30 4802 H 468.705 6.46241 1.09783 0
M  V30 4803 H 468.225 5.45877 2.48551 0
M  V30 4804 H 469.904 6.03386 2.33527 0
M  V30 4805 N 470.036 -0.519951 1.48776 0
M  V30 4806 C 471.261 -1.30447 1.6124 0
M  V30 4807 C 471.686 -1.86055 0.276591 0
M  V30 4808 O 471.044 -1.64915 -0.753183 0
M  V30 4809 C 471.092 -2.42406 2.66967 0
M  V30 4810 O 470.196 -3.45728 2.24824 0
M  V30 4811 H 469.537 -0.385924 0.540332 0
M  V30 4812 H 472.067 -0.624572 1.94834 0
M  V30 4813 H 472.077 -2.88447 2.88552 0
M  V30 4814 H 470.752 -2.01294 3.63941 0
M  V30 4815 H 469.329 -3.05737 2.13494 0
M  V30 4816 N 471.514 -1.37532 -0.769588 0
M  V30 4817 C 472.93 -1.18379 -1.07045 0
M  V30 4818 C 473.13 -0.0214312 -2.01489 0
M  V30 4819 O 472.186 0.637809 -2.44312 0
M  V30 4820 C 473.499 -2.50338 -1.66588 0
M  V30 4821 C 475.047 -2.56879 -1.78835 0
M  V30 4822 C 475.522 -3.88974 -2.41792 0
M  V30 4823 N 477.013 -3.90428 -2.4924 0
M  V30 4824 C 477.748 -4.89388 -2.98809 0
M  V30 4825 N 477.244 -5.98745 -3.48535 0
M  V30 4826 N 479.037 -4.76791 -2.97703 0
M  V30 4827 H 471.188 -2.11921 -0.142541 0
M  V30 4828 H 473.451 -0.939608 -0.125863 0
M  V30 4829 H 473.157 -3.35767 -1.0466 0
M  V30 4830 H 473.031 -2.67583 -2.65856 0
M  V30 4831 H 475.418 -1.71856 -2.39895 0
M  V30 4832 H 475.499 -2.43516 -0.783166 0
M  V30 4833 H 475.143 -4.74412 -1.81371 0
M  V30 4834 H 475.073 -3.99641 -3.4292 0
M  V30 4835 H 477.564 -3.11433 -2.14052 0
M  V30 4836 H 477.877 -6.70205 -3.84767 0
M  V30 4837 H 476.222 -6.02387 -3.46634 0
M  V30 4838 H 479.413 -3.90478 -2.58157 0
M  V30 4839 H 479.586 -5.54069 -3.36024 0
M  V30 4840 N 472.992 0.995999 -1.22138 0
M  V30 4841 C 474.403 1.54961 -1.04135 0
M  V30 4842 C 474.754 1.92159 0.396147 0
M  V30 4843 O 473.879 1.74435 1.28069 0
M  V30 4844 C 474.474 2.81581 -1.88408 0
M  V30 4845 C 473.033 3.33396 -1.74712 0
M  V30 4846 C 472.18 2.06509 -1.85066 0
M  V30 4847 H 475.131 0.817436 -1.36028 0
M  V30 4848 H 475.152 3.53822 -1.39966 0
M  V30 4849 H 474.664 2.54476 -2.93025 0
M  V30 4850 H 472.765 3.65416 -0.728159 0
M  V30 4851 H 472.878 4.04208 -2.57202 0
M  V30 4852 H 471.242 2.19925 -1.28472 0
M  V30 4853 H 472.025 1.81804 -2.91208 0
M  V30 4854 N 474.47 1.03057 1.19235 0
M  V30 4855 C 475.417 0.612832 2.22515 0
M  V30 4856 C 476.387 -0.374224 1.61829 0
M  V30 4857 O 477.572 -0.270501 1.88873 0
M  V30 4858 C 474.712 -0.028475 3.45088 0
M  V30 4859 C 473.825 1.00483 4.20151 0
M  V30 4860 C 472.96 0.333102 5.30155 0
M  V30 4861 C 471.999 1.3522 5.96977 0
M  V30 4862 N 471.136 0.70616 6.9854 0
M  V30 4863 H 475.976 1.49812 2.57605 0
M  V30 4864 H 473.513 0.749658 1.26564 0
M  V30 4865 H 475.471 -0.417548 4.15105 0
M  V30 4866 H 474.101 -0.877334 3.10649 0
M  V30 4867 H 473.153 1.51194 3.49062 0
M  V30 4868 H 474.465 1.77929 4.65986 0
M  V30 4869 H 473.619 -0.110725 6.06599 0
M  V30 4870 H 472.358 -0.473547 4.85396 0
M  V30 4871 H 471.363 1.80627 5.19282 0
M  V30 4872 H 472.588 2.16037 6.4382 0
M  V30 4873 H 470.534 -0.0803667 6.55951 0
M  V30 4874 H 470.451 1.41848 7.42573 0
M  V30 4875 H 471.719 0.286391 7.78974 0
M  V30 4876 N 475.948 -1.35272 0.808662 0
M  V30 4877 C 477.196 -1.98316 0.389233 0
M  V30 4878 C 477.517 -1.64465 -1.04767 0
M  V30 4879 O 476.787 -0.928175 -1.72516 0
M  V30 4880 H 475.367 -0.733585 0.140935 0
M  V30 4881 H 478.029 -1.6515 1.03496 0
M  V30 4882 H 477.125 -3.08123 0.496631 0
M  V30 4883 N 477.426 -0.562348 -1.47226 0
M  V30 4884 C 478.672 -0.0402761 -2.0276 0
M  V30 4885 C 479.005 1.30823 -1.43523 0
M  V30 4886 O 478.28 1.85249 -0.592705 0
M  V30 4887 C 478.563 0.047311 -3.60069 0
M  V30 4888 C 478.416 -1.32865 -4.29729 0
M  V30 4889 C 479.735 0.758182 -4.3352 0
M  V30 4890 H 476.854 -0.0161105 -0.736824 0
M  V30 4891 H 479.496 -0.725628 -1.75598 0
M  V30 4892 H 477.646 0.630986 -3.83342 0
M  V30 4893 H 479.318 -1.95593 -4.17781 0
M  V30 4894 H 477.561 -1.90195 -3.89882 0
M  V30 4895 H 478.232 -1.22004 -5.38349 0
M  V30 4896 H 480.708 0.262546 -4.15271 0
M  V30 4897 H 479.584 0.78844 -5.43208 0
M  V30 4898 H 479.845 1.81537 -4.03109 0
M  V30 4899 N 478.904 1.54736 -0.299062 0
M  V30 4900 C 479.867 2.22127 0.565012 0
M  V30 4901 C 480.867 1.20669 1.06281 0
M  V30 4902 O 482.057 1.45417 0.959145 0
M  V30 4903 C 479.189 2.90611 1.78208 0
M  V30 4904 H 480.382 2.99891 -0.0237448 0
M  V30 4905 H 477.935 1.5622 -0.0498788 0
M  V30 4906 H 478.67 2.16921 2.41072 0
M  V30 4907 H 478.455 3.64984 1.43281 0
M  V30 4908 H 479.945 3.42026 2.396 0
M  V30 4909 N 480.382 0.0267497 1.57577 0
M  V30 4910 C 481.312 -0.954308 2.13108 0
M  V30 4911 C 482.293 -1.34088 1.04663 0
M  V30 4912 O 483.478 -1.41992 1.32484 0
M  V30 4913 C 480.608 -2.23744 2.65624 0
M  V30 4914 C 479.562 -1.99168 3.78835 0
M  V30 4915 C 478.888 -3.33726 4.17769 0
M  V30 4916 C 480.188 -1.33277 5.0501 0
M  V30 4917 H 481.882 -0.491848 2.95332 0
M  V30 4918 H 479.428 -0.23514 1.42067 0
M  V30 4919 H 481.381 -2.92754 3.03106 0
M  V30 4920 H 480.105 -2.72151 1.80558 0
M  V30 4921 H 478.764 -1.32577 3.41788 0
M  V30 4922 H 478.412 -3.79888 3.29688 0
M  V30 4923 H 478.112 -3.18089 4.94058 0
M  V30 4924 H 479.636 -4.04008 4.57832 0
M  V30 4925 H 481.05 -1.92283 5.40093 0
M  V30 4926 H 479.447 -1.28045 5.8628 0
M  V30 4927 H 480.517 -0.305411 4.83937 0
M  V30 4928 N 481.861 -1.55662 -0.24637 0
M  V30 4929 C 482.811 -1.86753 -1.30795 0
M  V30 4930 C 483.795 -0.728445 -1.43466 0
M  V30 4931 O 484.987 -0.99038 -1.46699 0
M  V30 4932 C 482.116 -2.16618 -2.66329 0
M  V30 4933 C 481.202 -3.36855 -2.57661 0
M  V30 4934 N 481.593 -4.56111 -2.18624 0
M  V30 4935 C 479.891 -3.39976 -2.88673 0
M  V30 4936 C 480.592 -5.38247 -2.20601 0
M  V30 4937 N 479.568 -4.77322 -2.60124 0
M  V30 4938 H 483.37 -2.76486 -0.996642 0
M  V30 4939 H 480.884 -1.55896 -0.454994 0
M  V30 4940 H 482.881 -2.37057 -3.42942 0
M  V30 4941 H 481.541 -1.28185 -2.98327 0
M  V30 4942 H 482.552 -4.81726 -1.9016 0
M  V30 4943 H 479.229 -2.61815 -3.25206 0
M  V30 4944 H 480.619 -6.43657 -1.92756 0
M  V30 4945 N 483.339 0.512053 -1.4905 0
M  V30 4946 C 484.755 0.84224 -1.35567 0
M  V30 4947 C 484.955 1.97878 -0.380319 0
M  V30 4948 O 484.011 2.51769 0.19201 0
M  V30 4949 C 485.324 1.19286 -2.76028 0
M  V30 4950 C 486.872 1.30171 -2.84648 0
M  V30 4951 C 487.347 1.68568 -4.25851 0
M  V30 4952 N 488.838 1.75638 -4.28609 0
M  V30 4953 C 489.573 2.06769 -5.34821 0
M  V30 4954 N 489.069 2.36201 -6.51292 0
M  V30 4955 N 490.862 2.07927 -5.22229 0
M  V30 4956 H 483.013 -0.237574 -2.11067 0
M  V30 4957 H 485.276 -0.0436747 -0.946993 0
M  V30 4958 H 484.982 0.431199 -3.49047 0
M  V30 4959 H 484.856 2.13889 -3.10695 0
M  V30 4960 H 487.243 2.05411 -2.11873 0
M  V30 4961 H 487.324 0.336457 -2.53578 0
M  V30 4962 H 486.968 0.938824 -4.99148 0
M  V30 4963 H 486.898 2.66174 -4.54377 0
M  V30 4964 H 489.389 1.55097 -3.44606 0
M  V30 4965 H 489.702 2.59112 -7.28066 0
M  V30 4966 H 488.047 2.33681 -6.54536 0
M  V30 4967 H 491.238 1.84403 -4.30248 0
M  V30 4968 H 491.411 2.31856 -6.05101 0
M  V30 4969 N 484.817 1.37938 0.762283 0
M  V30 4970 C 486.228 1.30094 1.33912 0
M  V30 4971 C 486.579 -0.0472026 1.96143 0
M  V30 4972 O 485.704 -0.94917 1.94473 0
M  V30 4973 C 486.299 2.35592 2.43478 0
M  V30 4974 C 484.858 2.31353 2.96905 0
M  V30 4975 C 484.005 2.18919 1.70205 0
M  V30 4976 H 486.956 1.48423 0.561816 0
M  V30 4977 H 486.977 2.00806 3.23199 0
M  V30 4978 H 486.489 3.33701 1.98155 0
M  V30 4979 H 484.59 1.36799 3.46579 0
M  V30 4980 H 484.703 3.25147 3.51875 0
M  V30 4981 H 483.067 1.65624 1.93496 0
M  V30 4982 H 483.85 3.18956 1.26973 0
M  V30 4983 N 486.295 -0.989507 1.22664 0
M  V30 4984 C 487.572 -1.70326 0.961688 0
M  V30 4985 C 487.952 -2.04537 -0.522279 0
M  V30 4986 O 487.3 -1.73136 -1.49118 0
M  V30 4987 C 487.51 -2.95135 1.86269 0
M  V30 4988 C 488.858 -3.67842 2.12078 0
M  V30 4989 O 489.882 -3.0515 1.83745 0
M  V30 4990 O 488.741 -4.80644 2.60083 0
M  V30 4991 H 485.835 -0.743589 0.361946 0
M  V30 4992 H 488.381 -1.04555 1.33665 0
M  V30 4993 H 487.153 -2.66382 2.8663 0
M  V30 4994 H 486.776 -3.68645 1.48952 0
M  V30 4995 N 487.773 -1.03688 -1.18687 0
M  V30 4996 C 489.019 -0.739123 -1.88851 0
M  V30 4997 C 489.352 0.731042 -1.79915 0
M  V30 4998 O 488.627 1.53313 -1.19688 0
M  V30 4999 C 488.91 -1.20106 -3.3948 0
M  V30 5000 C 488.763 -2.73304 -3.57246 0
M  V30 5001 C 490.082 -0.788134 -4.32986 0
M  V30 5002 H 487.201 -0.269978 -0.68577 0
M  V30 5003 H 489.843 -1.28822 -1.3966 0
M  V30 5004 H 487.993 -0.733915 -3.81505 0
M  V30 5005 H 489.665 -3.28027 -3.24339 0
M  V30 5006 H 487.908 -3.13313 -3.00029 0
M  V30 5007 H 488.579 -3.00684 -4.62918 0
M  V30 5008 H 491.055 -1.19005 -3.98719 0
M  V30 5009 H 489.931 -1.13915 -5.36949 0
M  V30 5010 H 490.192 0.308988 -4.41019 0
M  V30 5011 N 489.251 1.34841 -0.815825 0
M  V30 5012 C 490.481 2.02436 -0.412695 0
M  V30 5013 C 490.889 1.61604 0.983906 0
M  V30 5014 O 490.232 0.813729 1.64694 0
M  V30 5015 C 490.294 3.56953 -0.427182 0
M  V30 5016 C 489.958 4.21083 -1.77589 0
M  V30 5017 C 490.955 4.42107 -2.73564 0
M  V30 5018 C 488.64 4.58006 -2.06243 0
M  V30 5019 C 490.634 4.99169 -3.9637 0
M  V30 5020 C 488.321 5.1478 -3.2931 0
M  V30 5021 C 489.319 5.35304 -4.24191 0
M  V30 5022 O 489.007 5.90878 -5.45086 0
M  V30 5023 H 488.739 0.655631 -0.164695 0
M  V30 5024 H 491.293 1.73246 -1.1034 0
M  V30 5025 H 489.523 3.85372 0.320175 0
M  V30 5026 H 491.212 4.05875 -0.0450875 0
M  V30 5027 H 491.978 4.13953 -2.52721 0
M  V30 5028 H 487.857 4.41339 -1.33196 0
M  V30 5029 H 491.401 5.15105 -4.70439 0
M  V30 5030 H 487.298 5.42362 -3.5002 0
M  V30 5031 H 488.066 6.0932 -5.46508 0
M  V30 5032 N 490.729 0.570148 1.46925 0
M  V30 5033 C 491.659 -0.158274 2.32963 0
M  V30 5034 C 492.64 -0.896093 1.44583 0
M  V30 5035 O 493.825 -0.874022 1.7342 0
M  V30 5036 C 490.955 -1.18055 3.26619 0
M  V30 5037 C 489.909 -0.558379 4.24342 0
M  V30 5038 C 489.235 -1.68623 5.07415 0
M  V30 5039 C 490.535 0.496295 5.19937 0
M  V30 5040 H 492.229 0.560046 2.94115 0
M  V30 5041 H 489.775 0.270775 1.41431 0
M  V30 5042 H 491.728 -1.69841 3.85658 0
M  V30 5043 H 490.452 -1.92899 2.63548 0
M  V30 5044 H 489.111 -0.0617157 3.66548 0
M  V30 5045 H 488.759 -2.42402 4.40738 0
M  V30 5046 H 488.459 -1.27564 5.73586 0
M  V30 5047 H 489.983 -2.20709 5.69315 0
M  V30 5048 H 491.397 0.0640052 5.73264 0
M  V30 5049 H 489.794 0.82649 5.94381 0
M  V30 5050 H 490.864 1.38735 4.6463 0
M  V30 5051 N 492.207 -1.54576 0.307264 0
M  V30 5052 C 493.137 -2.26708 -0.55907 0
M  V30 5053 C 494.118 -1.26893 -1.1328 0
M  V30 5054 O 495.303 -1.55677 -1.16097 0
M  V30 5055 C 492.433 -3.01259 -1.72801 0
M  V30 5056 C 491.387 -4.08275 -1.28435 0
M  V30 5057 C 490.713 -4.70575 -2.53895 0
M  V30 5058 C 492.013 -5.2068 -0.411038 0
M  V30 5059 H 493.707 -2.9937 0.042576 0
M  V30 5060 H 491.253 -1.43983 0.0219173 0
M  V30 5061 H 493.206 -3.50444 -2.34023 0
M  V30 5062 H 491.93 -2.26187 -2.356 0
M  V30 5063 H 490.589 -3.59949 -0.695161 0
M  V30 5064 H 490.237 -3.92136 -3.15021 0
M  V30 5065 H 489.937 -5.42854 -2.24908 0
M  V30 5066 H 491.461 -5.22527 -3.15908 0
M  V30 5067 H 492.875 -5.65721 -0.929097 0
M  V30 5068 H 491.272 -5.99716 -0.214664 0
M  V30 5069 H 492.342 -4.81629 0.562287 0
M  V30 5070 N 493.685 -0.035106 -1.57561 0
M  V30 5071 C 495.096 0.502885 -1.798 0
M  V30 5072 C 495.447 1.71892 -0.945921 0
M  V30 5073 O 494.572 2.15822 -0.157991 0
M  V30 5074 C 495.167 0.919097 -3.26095 0
M  V30 5075 C 493.726 1.40216 -3.49308 0
M  V30 5076 C 492.873 0.369709 -2.74824 0
M  V30 5077 H 495.824 -0.261102 -1.56537 0
M  V30 5078 H 495.845 1.78308 -3.36135 0
M  V30 5079 H 495.357 0.0338526 -3.88085 0
M  V30 5080 H 493.458 2.30714 -2.92578 0
M  V30 5081 H 493.571 1.40541 -4.58023 0
M  V30 5082 H 491.935 0.839113 -2.40481 0
M  V30 5083 H 492.718 -0.507173 -3.39533 0
M  V30 5084 N 495.163 1.55791 0.238111 0
M  V30 5085 C 496.574 1.68383 0.806472 0
M  V30 5086 C 496.925 0.634157 1.85669 0
M  V30 5087 O 496.05 -0.217913 2.153 0
M  V30 5088 C 496.645 3.05268 1.46959 0
M  V30 5089 C 495.204 3.1977 1.98555 0
M  V30 5090 C 494.351 2.64279 0.839763 0
M  V30 5091 H 497.302 1.58694 0.0137535 0
M  V30 5092 H 497.323 3.00203 2.33792 0
M  V30 5093 H 496.835 3.81643 0.704993 0
M  V30 5094 H 494.936 2.48234 2.77868 0
M  V30 5095 H 495.049 4.26788 2.17689 0
M  V30 5096 H 493.413 2.22329 1.24265 0
M  V30 5097 H 494.196 3.43187 0.0881032 0
M  V30 5098 N 496.642 -0.504142 1.49319 0
M  V30 5099 C 497.605 -1.5883 1.65244 0
M  V30 5100 C 498.605 -1.52009 0.524386 0
M  V30 5101 O 499.795 -1.55218 0.79077 0
M  V30 5102 C 496.927 -2.98481 1.64687 0
M  V30 5103 H 498.12 -1.4604 2.61939 0
M  V30 5104 H 495.673 -0.728144 1.38303 0
M  V30 5105 H 496.408 -3.16751 0.695644 0
M  V30 5106 H 496.193 -3.0484 2.46607 0
M  V30 5107 H 497.683 -3.77256 1.79075 0
M  V30 5108 N 498.12 -1.38341 -0.754957 0
M  V30 5109 C 499.536 -1.19508 -1.05783 0
M  V30 5110 C 499.736 -0.0428005 -2.01455 0
M  V30 5111 O 498.792 0.611861 -2.44975 0
M  V30 5112 C 500.105 -2.52091 -1.63923 0
M  V30 5113 C 501.653 -2.58762 -1.76101 0
M  V30 5114 C 502.128 -3.91517 -2.37652 0
M  V30 5115 N 503.619 -3.93049 -2.45085 0
M  V30 5116 C 504.354 -4.9253 -2.93602 0
M  V30 5117 N 503.85 -6.02408 -3.42165 0
M  V30 5118 N 505.643 -4.79921 -2.92629 0
M  V30 5119 H 497.794 -2.1206 -0.120056 0
M  V30 5120 H 500.057 -0.94089 -0.11589 0
M  V30 5121 H 499.763 -3.36858 -1.01093 0
M  V30 5122 H 499.637 -2.70388 -2.63003 0
M  V30 5123 H 502.024 -1.74391 -2.38058 0
M  V30 5124 H 502.105 -2.44333 -0.757294 0
M  V30 5125 H 501.749 -4.76309 -1.76329 0
M  V30 5126 H 501.679 -4.03256 -3.38662 0
M  V30 5127 H 504.17 -3.13685 -2.10736 0
M  V30 5128 H 504.483 -6.74248 -3.77637 0
M  V30 5129 H 502.828 -6.0603 -3.40225 0
M  V30 5130 H 506.019 -3.93194 -2.54001 0
M  V30 5131 H 506.192 -5.57601 -3.30128 0
M  V30 5132 N 499.598 0.982988 -1.23187 0
M  V30 5133 C 500.508 2.10907 -1.02739 0
M  V30 5134 C 501.524 1.73979 0.0273188 0
M  V30 5135 O 502.7 2.00702 -0.16757 0
M  V30 5136 C 499.765 3.41142 -0.618304 0
M  V30 5137 C 498.826 3.92112 -1.74777 0
M  V30 5138 C 498.059 5.16131 -1.3581 0
M  V30 5139 O 498.282 5.6989 -0.241201 0
M  V30 5140 O 497.216 5.61103 -2.17824 0
M  V30 5141 H 501.042 2.31046 -1.97108 0
M  V30 5142 H 498.627 1.09284 -1.01869 0
M  V30 5143 H 500.509 4.19488 -0.400982 0
M  V30 5144 H 499.184 3.2234 0.296421 0
M  V30 5145 H 498.091 3.14895 -2.0197 0
M  V30 5146 H 499.424 4.15364 -2.64071 0
M  V30 5147 N 501.076 1.04316 1.18135 0
M  V30 5148 C 502.008 0.594444 2.21357 0
M  V30 5149 C 503.021 -0.337215 1.59269 0
M  V30 5150 O 504.21 -0.131337 1.78016 0
M  V30 5151 C 501.31 -0.151251 3.38562 0
M  V30 5152 C 500.483 0.788907 4.30227 0
M  V30 5153 C 499.542 0.0860572 5.2613 0
M  V30 5154 O 498.568 0.717302 5.64662 0
M  V30 5155 N 499.77 -1.17969 5.68387 0
M  V30 5156 H 502.535 1.48227 2.60478 0
M  V30 5157 H 500.096 0.92396 1.32946 0
M  V30 5158 H 502.088 -0.631352 3.99745 0
M  V30 5159 H 500.658 -0.940639 2.98112 0
M  V30 5160 H 499.878 1.44882 3.6661 0
M  V30 5161 H 501.166 1.42738 4.88368 0
M  V30 5162 H 500.564 -1.71302 5.3914 0
M  V30 5163 H 499.121 -1.60402 6.31755 0
M  V30 5164 N 502.554 -1.34406 0.822964 0
M  V30 5165 C 503.484 -2.32052 0.259608 0
M  V30 5166 C 504.465 -1.58243 -0.623961 0
M  V30 5167 O 505.65 -1.86224 -0.55083 0
M  V30 5168 C 502.78 -3.42434 -0.579314 0
M  V30 5169 C 501.734 -4.27499 0.20712 0
M  V30 5170 C 501.06 -5.29349 -0.754547 0
M  V30 5171 C 502.36 -5.02758 1.41533 0
M  V30 5172 H 504.054 -2.79418 1.07545 0
M  V30 5173 H 501.6 -1.34338 0.518593 0
M  V30 5174 H 503.553 -4.0976 -0.983612 0
M  V30 5175 H 502.277 -2.93717 -1.4282 0
M  V30 5176 H 500.936 -3.61776 0.592787 0
M  V30 5177 H 500.584 -4.76895 -1.59939 0
M  V30 5178 H 500.284 -5.8714 -0.232561 0
M  V30 5179 H 501.808 -5.99544 -1.1567 0
M  V30 5180 H 503.222 -5.62938 1.08504 0
M  V30 5181 H 501.619 -5.70123 1.87296 0
M  V30 5182 H 502.689 -4.32451 2.1935 0
M  V30 5183 N 504.032 -0.577932 -1.46621 0
M  V30 5184 C 504.98 0.170882 -2.31971 0
M  V30 5185 C 505.974 0.889086 -1.44193 0
M  V30 5186 O 507.18 0.808017 -1.60845 0
M  V30 5187 H 503.555 0.0739763 -0.748353 0
M  V30 5188 H 505.526 -0.567856 -2.92947 0
M  V30 5189 C 504.275 1.17438 -3.27267 0
M  V30 5190 H 503.598 0.63116 -3.94787 0
M  V30 5191 H 505.038 1.66882 -3.89778 0
M  V30 5192 C 503.497 2.23292 -2.52274 0
M  V30 5193 O 504.027 3.30567 -2.28229 0
M  V30 5194 N 502.233 1.97772 -2.12919 0
M  V30 5195 H 501.78 1.10545 -2.32675 0
M  V30 5196 H 501.738 2.68809 -1.63062 0
M  V30 5197 N 505.51 1.54411 -0.315457 0
M  V30 5198 C 506.44 2.27002 0.547039 0
M  V30 5199 C 507.421 1.27492 1.12605 0
M  V30 5200 O 508.606 1.5629 1.15269 0
M  V30 5201 C 505.736 3.02171 1.71201 0
M  V30 5202 C 504.69 4.0895 1.26268 0
M  V30 5203 C 504.016 4.71915 2.51396 0
M  V30 5204 C 505.316 5.20891 0.383419 0
M  V30 5205 H 507.01 2.99343 -0.0584517 0
M  V30 5206 H 504.556 1.4397 -0.0295527 0
M  V30 5207 H 506.509 3.51681 2.32161 0
M  V30 5208 H 505.233 2.27433 2.34397 0
M  V30 5209 H 503.892 3.60312 0.676062 0
M  V30 5210 H 503.54 3.93801 3.12937 0
M  V30 5211 H 503.24 5.44039 2.22026 0
M  V30 5212 H 504.764 5.24195 3.13133 0
M  V30 5213 H 506.178 5.66206 0.899082 0
M  V30 5214 H 504.575 5.99821 0.182857 0
M  V30 5215 H 505.645 4.81324 -0.587821 0
M  V30 5216 N 506.988 0.0434614 1.5754 0
M  V30 5217 C 508.404 -0.313039 1.565 0
M  V30 5218 C 508.604 -1.71954 1.05043 0
M  V30 5219 O 507.66 -2.425 0.703564 0
M  V30 5220 C 508.973 -0.148544 3.00333 0
M  V30 5221 C 510.521 -0.220231 3.12224 0
M  V30 5222 C 510.996 -0.0843565 4.57922 0
M  V30 5223 N 512.487 -0.140881 4.62986 0
M  V30 5224 C 513.222 -0.0597443 5.73369 0
M  V30 5225 N 512.718 0.0733004 6.92761 0
M  V30 5226 N 514.511 -0.11477 5.61983 0
M  V30 5227 H 506.662 0.96303 1.89313 0
M  V30 5228 H 508.925 0.373164 0.871466 0
M  V30 5229 H 508.631 0.820894 3.41986 0
M  V30 5230 H 508.505 -0.912798 3.65989 0
M  V30 5231 H 510.892 -1.18014 2.70475 0
M  V30 5232 H 510.973 0.574646 2.49262 0
M  V30 5233 H 510.617 0.872192 5.00355 0
M  V30 5234 H 510.547 -0.898281 5.18882 0
M  V30 5235 H 513.038 -0.243273 3.77116 0
M  V30 5236 H 513.351 0.128128 7.72694 0
M  V30 5237 H 511.696 0.10828 6.94916 0
M  V30 5238 H 514.887 -0.217212 4.67596 0
M  V30 5239 H 515.06 -0.0480779 6.47982 0
M  V30 5240 N 508.466 -1.55915 -0.229846 0
M  V30 5241 C 509.376 -1.94891 -1.30593 0
M  V30 5242 C 510.392 -0.851604 -1.51736 0
M  V30 5243 O 511.568 -1.15447 -1.65027 0
M  V30 5244 C 508.633 -2.25052 -2.63728 0
M  V30 5245 C 507.694 -3.48306 -2.5096 0
M  V30 5246 C 506.927 -3.77019 -3.77747 0
M  V30 5247 O 507.15 -3.07534 -4.80395 0
M  V30 5248 O 506.084 -4.70523 -3.75356 0
M  V30 5249 H 509.91 -2.86581 -1.00525 0
M  V30 5250 H 507.495 -1.43017 -0.432025 0
M  V30 5251 H 509.377 -2.45682 -3.42372 0
M  V30 5252 H 508.052 -1.36538 -2.93495 0
M  V30 5253 H 506.959 -3.32964 -1.70546 0
M  V30 5254 H 508.292 -4.37177 -2.26136 0
M  V30 5255 N 509.944 0.496216 -1.49584 0
M  V30 5256 C 511.169 1.27865 -1.63295 0
M  V30 5257 C 511.594 1.85592 -0.306156 0
M  V30 5258 O 510.952 1.66092 0.726851 0
M  V30 5259 C 511 2.38128 -2.7079 0
M  V30 5260 O 510.104 3.42108 -2.30296 0
M  V30 5261 H 509.445 0.377279 -0.546403 0
M  V30 5262 H 511.975 0.593497 -1.95803 0
M  V30 5263 H 511.985 2.8382 -2.93104 0
M  V30 5264 H 510.66 1.95479 -3.67098 0
M  V30 5265 H 509.237 3.02301 -2.18331 0
M  V30 5266 N 511.423 1.38739 0.74761 0
M  V30 5267 C 512.386 1.36241 1.84312 0
M  V30 5268 C 513.386 0.261811 1.58654 0
M  V30 5269 O 514.576 0.519031 1.66288 0
M  V30 5270 C 511.708 1.12253 3.21888 0
M  V30 5271 H 512.901 2.33712 1.87933 0
M  V30 5272 H 510.454 1.2412 0.949946 0
M  V30 5273 H 511.189 0.154133 3.23934 0
M  V30 5274 H 510.974 1.91943 3.41907 0
M  V30 5275 H 512.464 1.13215 4.0196 0
M  V30 5276 N 512.901 -0.976442 1.23707 0
M  V30 5277 C 514.129 -1.75341 1.09833 0
M  V30 5278 C 514.544 -1.8553 -0.349885 0
M  V30 5279 O 513.901 -1.33732 -1.24185 0
M  V30 5280 C 513.952 -3.17833 1.72233 0
M  V30 5281 O 513.673 -3.08167 3.11391 0
M  V30 5282 C 515.174 -4.11906 1.63853 0
M  V30 5283 H 512.394 -0.550137 0.384175 0
M  V30 5284 H 514.938 -1.2265 1.63638 0
M  V30 5285 H 513.093 -3.67538 1.22452 0
M  V30 5286 H 513.507 -3.97897 3.41729 0
M  V30 5287 H 514.981 -5.09579 2.12211 0
M  V30 5288 H 515.458 -4.35109 0.598092 0
M  V30 5289 H 516.064 -3.68107 2.13019 0
M  V30 5290 N 514.379 -1.04941 -1.1758 0
M  V30 5291 C 515.628 -0.753124 -1.87112 0
M  V30 5292 C 515.941 0.722507 -1.81767 0
M  V30 5293 O 517.147 1.13265 -2.46746 0
M  V30 5294 C 515.603 -1.29695 -3.35719 0
M  V30 5295 C 515.211 -2.80184 -3.49572 0
M  V30 5296 C 516.955 -1.07759 -4.10595 0
M  V30 5297 C 514.862 -3.2788 -4.92187 0
M  V30 5298 H 513.792 -0.278034 -0.700866 0
M  V30 5299 H 516.443 -1.26637 -1.32798 0
M  V30 5300 H 514.825 -0.711522 -3.89555 0
M  V30 5301 H 515.999 -3.44561 -3.05965 0
M  V30 5302 H 514.314 -3.00632 -2.88113 0
M  V30 5303 H 516.911 -1.40899 -5.15802 0
M  V30 5304 H 517.254 -0.0152302 -4.16297 0
M  V30 5305 H 517.787 -1.62809 -3.62957 0
M  V30 5306 H 514.526 -4.33535 -4.91658 0
M  V30 5307 H 514.046 -2.68245 -5.36475 0
M  V30 5308 H 515.725 -3.22412 -5.60945 0
M  V30 5309 N 515.857 1.33968 -0.830081 0
M  V30 5310 C 517.085 2.0228 -0.434773 0
M  V30 5311 C 517.5 1.62487 0.961419 0
M  V30 5312 O 516.857 0.833849 1.62337 0
M  V30 5313 C 516.908 3.5751 -0.535625 0
M  V30 5314 O 516.629 3.95864 -1.87679 0
M  V30 5315 C 518.13 4.43091 -0.136137 0
M  V30 5316 H 515.35 0.648151 -0.173613 0
M  V30 5317 H 517.894 1.71089 -1.12022 0
M  V30 5318 H 516.049 3.87266 0.101817 0
M  V30 5319 H 516.463 4.9056 -1.85609 0
M  V30 5320 H 517.937 5.51398 -0.257772 0
M  V30 5321 H 518.414 4.29433 0.921076 0
M  V30 5322 H 519.02 4.18677 -0.747662 0
M  V30 5323 N 517.335 0.585699 1.46312 0
M  V30 5324 C 518.575 0.0751432 2.04262 0
M  V30 5325 C 518.939 -1.26201 1.44697 0
M  V30 5326 O 520.14 -1.86198 1.93865 0
M  V30 5327 C 518.411 0.013478 3.57397 0
M  V30 5328 S 519.97 -0.439068 4.36598 0
M  V30 5329 H 516.788 0.0389228 0.709934 0
M  V30 5330 H 519.39 0.778871 1.79315 0
M  V30 5331 H 518.094 0.990558 3.98266 0
M  V30 5332 H 517.625 -0.712927 3.86886 0
M  V30 5333 H 519.64 -1.6932 4.66417 0
M  V30 5334 N 518.813 -1.54241 0.323641 0
M  V30 5335 C 519.743 -2.27289 -0.534993 0
M  V30 5336 C 520.724 -1.28087 -1.11927 0
M  V30 5337 O 521.909 -1.56899 -1.14439 0
M  V30 5338 C 519.039 -3.03075 -1.69596 0
M  V30 5339 C 517.993 -4.09614 -1.24098 0
M  V30 5340 C 517.319 -4.73242 -2.4889 0
M  V30 5341 C 518.619 -5.21087 -0.355789 0
M  V30 5342 H 520.313 -2.99308 0.0743257 0
M  V30 5343 H 517.859 -1.43952 0.0371874 0
M  V30 5344 H 519.812 -3.52907 -2.30293 0
M  V30 5345 H 518.536 -2.28673 -2.33187 0
M  V30 5346 H 517.195 -3.60666 -0.656945 0
M  V30 5347 H 516.843 -3.95455 -3.10845 0
M  V30 5348 H 516.543 -5.45209 -2.19138 0
M  V30 5349 H 518.067 -5.25848 -3.10348 0
M  V30 5350 H 519.481 -5.66675 -0.869042 0
M  V30 5351 H 517.878 -5.9991 -0.151045 0
M  V30 5352 H 518.948 -4.81005 0.613339 0
M  V30 5353 N 520.291 -0.0518155 -1.57515 0
M  V30 5354 C 521.537 0.622745 -1.93002 0
M  V30 5355 C 521.87 1.70456 -0.930499 0
M  V30 5356 O 521.145 1.94452 0.0434086 0
M  V30 5357 C 521.428 1.21824 -3.38867 0
M  V30 5358 C 521.281 0.144434 -4.49568 0
M  V30 5359 C 522.6 2.12968 -3.8514 0
M  V30 5360 H 519.719 0.22491 -0.701844 0
M  V30 5361 H 522.361 -0.113711 -1.89659 0
M  V30 5362 H 520.511 1.8459 -3.41846 0
M  V30 5363 H 522.183 -0.48753 -4.58717 0
M  V30 5364 H 520.426 -0.527424 -4.30582 0
M  V30 5365 H 521.097 0.601127 -5.48717 0
M  V30 5366 H 523.573 1.60163 -3.8404 0
M  V30 5367 H 522.449 2.51578 -4.87852 0
M  V30 5368 H 522.71 3.03004 -3.21934 0
M  V30 5369 N 521.769 1.56035 0.221574 0
M  V30 5370 C 522.997 1.8313 0.962864 0
M  V30 5371 C 523.412 0.630934 1.77946 0
M  V30 5372 O 522.769 -0.400519 1.78051 0
M  V30 5373 C 522.82 3.08742 1.88045 0
M  V30 5374 O 522.541 4.24147 1.09686 0
M  V30 5375 C 524.042 3.48824 2.73563 0
M  V30 5376 H 521.262 0.608775 0.282194 0
M  V30 5377 H 523.806 2.03124 0.23681 0
M  V30 5378 H 521.961 2.90723 2.56045 0
M  V30 5379 H 522.375 4.95505 1.71974 0
M  V30 5380 H 523.849 4.39752 3.3365 0
M  V30 5381 H 524.326 2.70575 3.45956 0
M  V30 5382 H 524.932 3.69282 2.10976 0
M  V30 5383 N 523.247 -0.488276 1.49845 0
M  V30 5384 C 524.495 -1.23911 1.59657 0
M  V30 5385 C 524.816 -1.92816 0.291005 0
M  V30 5386 O 524.086 -1.83328 -0.690485 0
M  V30 5387 H 522.666 -0.460357 0.588286 0
M  V30 5388 H 525.328 -0.564794 1.86537 0
M  V30 5389 H 524.424 -1.99625 2.39909 0
M  V30 5390 N 524.725 -1.39134 -0.740242 0
M  V30 5391 C 525.972 -1.36071 -1.49969 0
M  V30 5392 C 526.3 0.0450245 -1.94448 0
M  V30 5393 O 525.555 1.02482 -1.66721 0
M  V30 5394 C 525.854 -2.27457 -2.75678 0
M  V30 5395 C 525.52 -3.75185 -2.50094 0
M  V30 5396 C 524.182 -4.15439 -2.42825 0
M  V30 5397 C 526.534 -4.68643 -2.28086 0
M  V30 5398 C 523.862 -5.4722 -2.11584 0
M  V30 5399 C 526.214 -6.00695 -1.98363 0
M  V30 5400 C 524.878 -6.40018 -1.8956 0
M  V30 5401 H 524.148 -0.497921 -0.548777 0
M  V30 5402 H 526.795 -1.71599 -0.85007 0
M  V30 5403 H 525.1 -1.8503 -3.45356 0
M  V30 5404 H 526.797 -2.22384 -3.33686 0
M  V30 5405 H 523.387 -3.43279 -2.56627 0
M  V30 5406 H 527.571 -4.3838 -2.32672 0
M  V30 5407 H 522.827 -5.76615 -2.03287 0
M  V30 5408 H 527.001 -6.72644 -1.80341 0
M  V30 5409 H 524.628 -7.42051 -1.65117 0
M  V30 5410 N 526.204 0.969867 -1.24223 0
M  V30 5411 C 527.429 1.75289 -1.10853 0
M  V30 5412 C 527.854 1.85091 0.335079 0
M  V30 5413 O 527.212 1.32024 1.24255 0
M  V30 5414 C 527.26 3.15255 -1.75062 0
M  V30 5415 O 526.364 3.99589 -1.01992 0
M  V30 5416 H 525.705 0.538904 -0.387915 0
M  V30 5417 H 528.235 1.21675 -1.64488 0
M  V30 5418 H 528.245 3.65787 -1.80731 0
M  V30 5419 H 526.92 3.07436 -2.801 0
M  V30 5420 H 525.497 3.58077 -1.04094 0
M  V30 5421 N 527.682 1.05563 1.17022 0
M  V30 5422 C 529.093 0.793475 1.69 0
M  V30 5423 C 529.444 -0.683882 1.83895 0
M  V30 5424 O 528.569 -1.53116 1.5292 0
M  V30 5425 C 529.164 1.43376 3.06967 0
M  V30 5426 C 527.723 1.21956 3.56095 0
M  V30 5427 C 526.87 1.51494 2.3226 0
M  V30 5428 H 529.821 1.22008 1.01487 0
M  V30 5429 H 529.842 0.845068 3.70997 0
M  V30 5430 H 529.354 2.50899 2.96093 0
M  V30 5431 H 527.455 0.163749 3.7224 0
M  V30 5432 H 527.568 1.92713 4.38633 0
M  V30 5433 H 525.932 0.935175 2.3691 0
M  V30 5434 H 526.715 2.60159 2.23992 0
M  V30 5435 N 529.16 -1.33526 0.837174 0
M  V30 5436 C 530.123 -2.27551 0.274421 0
M  V30 5437 C 531.123 -1.50886 -0.555881 0
M  V30 5438 O 532.313 -1.70227 -0.369918 0
M  V30 5439 C 529.445 -3.35332 -0.613605 0
M  V30 5440 H 530.638 -2.78837 1.10408 0
M  V30 5441 H 528.191 -1.439 0.610126 0
M  V30 5442 H 528.926 -2.89285 -1.46577 0
M  V30 5443 H 528.711 -3.92095 -0.0195341 0
M  V30 5444 H 530.201 -4.05433 -1.00068 0
M  V30 5445 N 530.638 -0.59345 -1.46 0
M  V30 5446 C 531.915 -0.0157933 -1.95594 0
M  V30 5447 C 532.295 1.44807 -1.53604 0
M  V30 5448 O 531.643 2.14342 -0.791824 0
M  V30 5449 C 531.853 -0.199081 -3.48432 0
M  V30 5450 C 533.201 -0.0724943 -4.24538 0
M  V30 5451 O 534.225 -0.128469 -3.55968 0
M  V30 5452 O 533.084 0.0542426 -5.46473 0
M  V30 5453 H 530.178 0.043749 -0.825842 0
M  V30 5454 H 532.724 -0.662522 -1.56233 0
M  V30 5455 H 531.496 -1.21631 -3.71916 0
M  V30 5456 H 531.119 0.483576 -3.94648 0
M  V30 5457 N 532.116 1.54067 -0.331816 0
M  V30 5458 C 533.362 2.01012 0.268667 0
M  V30 5459 C 533.695 1.2195 1.51136 0
M  V30 5460 O 532.97 0.303972 1.9211 0
M  V30 5461 C 533.253 3.55158 0.59456 0
M  V30 5462 C 533.106 4.4494 -0.659409 0
M  V30 5463 C 534.425 4.16939 1.4089 0
M  V30 5464 H 531.544 0.730698 0.0961756 0
M  V30 5465 H 534.186 1.84593 -0.450031 0
M  V30 5466 H 532.336 3.6928 1.20685 0
M  V30 5467 H 534.008 4.42675 -1.29756 0
M  V30 5468 H 532.251 4.1428 -1.28665 0
M  V30 5469 H 532.922 5.50643 -0.386804 0
M  V30 5470 H 535.398 4.06443 0.891272 0
M  V30 5471 H 534.274 5.24889 1.60569 0
M  V30 5472 H 534.535 3.70798 2.40752 0
M  V30 5473 N 533.594 0.0601682 1.57485 0
M  V30 5474 C 534.841 -0.611594 1.93043 0
M  V30 5475 C 535.169 -1.70317 0.939274 0
M  V30 5476 O 534.424 -1.95644 -0.046996 0
M  V30 5477 C 534.723 -1.23831 3.35262 0
M  V30 5478 C 534.389 -0.274037 4.50066 0
M  V30 5479 C 533.051 -0.00872394 4.81199 0
M  V30 5480 C 535.403 0.386308 5.19766 0
M  V30 5481 C 532.731 0.924218 5.79375 0
M  V30 5482 C 535.083 1.3075 6.1894 0
M  V30 5483 C 533.747 1.58139 6.48497 0
M  V30 5484 H 533.017 -0.223798 0.706396 0
M  V30 5485 H 535.664 0.128566 1.91068 0
M  V30 5486 H 533.969 -2.05394 3.33647 0
M  V30 5487 H 535.666 -1.76517 3.60059 0
M  V30 5488 H 532.256 -0.491008 4.25778 0
M  V30 5489 H 536.44 0.194436 4.95919 0
M  V30 5490 H 531.696 1.1438 6.00606 0
M  V30 5491 H 535.87 1.82519 6.72056 0
M  V30 5492 H 533.497 2.30593 7.24383 0
M  V30 5493 N 535.072 -1.5615 -0.213296 0
M  V30 5494 C 536.318 -1.79812 -0.937849 0
M  V30 5495 C 536.651 -0.631201 -1.83656 0
M  V30 5496 O 535.926 0.369165 -1.90964 0
M  V30 5497 C 536.209 -3.13613 -1.76972 0
M  V30 5498 C 536.062 -4.40766 -0.89695 0
M  V30 5499 C 537.381 -3.43931 -2.7459 0
M  V30 5500 H 534.5 -0.654138 -0.339518 0
M  V30 5501 H 537.142 -1.88877 -0.20623 0
M  V30 5502 H 535.292 -3.06015 -2.39347 0
M  V30 5503 H 536.964 -4.60392 -0.289306 0
M  V30 5504 H 535.207 -4.33326 -0.202756 0
M  V30 5505 H 535.878 -5.30843 -1.51358 0
M  V30 5506 H 538.354 -3.5171 -2.22349 0
M  V30 5507 H 537.23 -4.38706 -3.29891 0
M  V30 5508 H 537.491 -2.6651 -3.52739 0
M  V30 5509 N 536.55 0.480323 -1.50102 0
M  V30 5510 C 537.482 1.59669 -1.64433 0
M  V30 5511 C 538.495 1.54063 -0.52615 0
M  V30 5512 O 539.684 1.59619 -0.798992 0
M  V30 5513 C 536.784 2.98527 -1.6042 0
M  V30 5514 C 535.957 3.291 -2.88117 0
M  V30 5515 C 535.016 4.47468 -2.76873 0
M  V30 5516 O 534.042 4.4823 -3.50825 0
M  V30 5517 N 535.244 5.48593 -1.89806 0
M  V30 5518 H 538.009 1.47795 -2.60723 0
M  V30 5519 H 535.57 0.66858 -1.4745 0
M  V30 5520 H 537.562 3.75666 -1.50523 0
M  V30 5521 H 536.132 3.04218 -0.719036 0
M  V30 5522 H 535.352 2.40662 -3.12211 0
M  V30 5523 H 536.64 3.46334 -3.72734 0
M  V30 5524 H 536.038 5.50791 -1.2902 0
M  V30 5525 H 534.595 6.24752 -1.85819 0
M  V30 5526 N 538.028 1.39524 0.732853 0
M  V30 5527 C 539.274 1.38072 1.49358 0
M  V30 5528 C 539.629 -0.0227943 1.92386 0
M  V30 5529 O 538.922 -0.98976 1.64056 0
M  V30 5530 C 539.116 2.28916 2.74468 0
M  V30 5531 C 538.945 3.7796 2.43673 0
M  V30 5532 C 537.715 4.46874 2.35863 0
M  V30 5533 C 539.913 4.69886 2.09074 0
M  V30 5534 N 537.895 5.81242 1.97561 0
M  V30 5535 C 539.266 5.9292 1.81234 0
M  V30 5536 C 541.321 4.57887 1.95561 0
M  V30 5537 C 540.024 7.05297 1.41242 0
M  V30 5538 C 542.05 5.70187 1.56972 0
M  V30 5539 C 541.412 6.92297 1.30018 0
M  V30 5540 H 537.511 0.56051 0.5453 0
M  V30 5541 H 540.095 1.75093 0.85151 0
M  V30 5542 H 538.266 1.9405 3.36451 0
M  V30 5543 H 539.998 2.18441 3.40684 0
M  V30 5544 H 536.753 4.00341 2.5303 0
M  V30 5545 H 537.177 6.52356 1.80997 0
M  V30 5546 H 541.819 3.64014 2.15067 0
M  V30 5547 H 539.537 7.99069 1.20476 0
M  V30 5548 H 543.123 5.62892 1.47119 0
M  V30 5549 H 542.003 7.7772 1.00605 0
M  V30 5550 N 539.506 -0.963266 1.24736 0
M  V30 5551 C 540.439 -2.05758 0.986852 0
M  V30 5552 C 541.417 -1.62398 -0.0809272 0
M  V30 5553 O 542.601 -1.88414 0.0569347 0
M  V30 5554 C 539.728 -3.35135 0.490095 0
M  V30 5555 C 538.774 -3.97451 1.54709 0
M  V30 5556 S 539.607 -4.34519 3.12976 0
M  V30 5557 C 540.763 -5.67026 2.65014 0
M  V30 5558 H 540.996 -2.27539 1.91346 0
M  V30 5559 H 538.529 -1.10176 1.08169 0
M  V30 5560 H 540.487 -4.09962 0.21012 0
M  V30 5561 H 539.148 -3.11335 -0.415873 0
M  V30 5562 H 538.341 -4.90704 1.15003 0
M  V30 5563 H 537.943 -3.29071 1.77731 0
M  V30 5564 H 540.235 -6.44748 2.08102 0
M  V30 5565 H 541.178 -6.11594 3.56873 0
M  V30 5566 H 541.586 -5.25847 2.05294 0
M  V30 5567 N 540.985 -1.06182 -1.16461 0
M  V30 5568 C 541.917 -0.629584 -2.20383 0
M  V30 5569 C 542.93 0.311834 -1.59786 0
M  V30 5570 O 544.119 0.103 -1.78203 0
M  V30 5571 C 541.219 0.0973695 -3.3876 0
M  V30 5572 C 540.392 -0.857252 -4.28917 0
M  V30 5573 C 539.451 -0.169749 -5.25926 0
M  V30 5574 O 538.477 -0.807044 -5.6345 0
M  V30 5575 N 539.679 1.08911 -5.70192 0
M  V30 5576 H 542.444 -1.52352 -2.58087 0
M  V30 5577 H 540.005 -0.944993 -1.31459 0
M  V30 5578 H 541.997 0.567676 -4.00699 0
M  V30 5579 H 540.567 0.893093 -2.99571 0
M  V30 5580 H 539.787 -1.50696 -3.64259 0
M  V30 5581 H 541.075 -1.50489 -4.86035 0
M  V30 5582 H 540.473 1.62703 -5.41797 0
M  V30 5583 H 539.03 1.50331 -6.34227 0
M  V30 5584 N 542.463 1.3308 -0.844243 0
M  V30 5585 C 543.879 1.50447 -0.532729 0
M  V30 5586 C 544.079 1.78292 0.938837 0
M  V30 5587 O 543.135 1.84635 1.72239 0
M  V30 5588 C 544.448 2.65555 -1.41072 0
M  V30 5589 C 545.996 2.7944 -1.41005 0
M  V30 5590 C 546.471 3.97616 -2.27301 0
M  V30 5591 N 547.962 4.0486 -2.2504 0
M  V30 5592 C 548.697 4.95508 -2.88547 0
M  V30 5593 N 548.193 5.91236 -3.61126 0
M  V30 5594 N 549.986 4.88548 -2.77989 0
M  V30 5595 H 542.137 1.13269 -1.79677 0
M  V30 5596 H 544.4 0.55734 -0.766861 0
M  V30 5597 H 544.106 2.51675 -2.45668 0
M  V30 5598 H 543.98 3.61089 -1.09061 0
M  V30 5599 H 546.367 2.92749 -0.371784 0
M  V30 5600 H 546.448 1.8465 -1.77026 0
M  V30 5601 H 546.092 3.85066 -3.3119 0
M  V30 5602 H 546.022 4.91661 -1.88619 0
M  V30 5603 H 548.513 3.36353 -1.72264 0
M  V30 5604 H 548.826 6.57079 -4.06776 0
M  V30 5605 H 547.171 5.91295 -3.65234 0
M  V30 5606 H 550.362 4.12729 -2.20846 0
M  V30 5607 H 550.535 5.58994 -3.27765 0
M  V30 5608 N 543.941 0.601185 1.45683 0
M  V30 5609 C 545.189 0.0936957 2.01883 0
M  V30 5610 C 545.51 -1.2779 1.47291 0
M  V30 5611 O 544.78 -1.84279 0.664691 0
M  V30 5612 H 543.36 0.0316466 0.746329 0
M  V30 5613 H 546.022 0.781137 1.78562 0
M  V30 5614 H 545.118 0.0386297 3.12076 0
M  V30 5615 N 545.419 -1.53889 0.339982 0
M  V30 5616 C 546.351 -2.22435 -0.55275 0
M  V30 5617 C 547.364 -1.22975 -1.06681 0
M  V30 5618 O 548.553 -1.49351 -0.977575 0
M  V30 5619 C 545.653 -2.8882 -1.77302 0
M  V30 5620 C 544.826 -4.14563 -1.39486 0
M  V30 5621 C 543.885 -4.64391 -2.47442 0
M  V30 5622 O 542.911 -5.28687 -2.10899 0
M  V30 5623 N 544.113 -4.40015 -3.78639 0
M  V30 5624 H 546.878 -2.9968 0.0342669 0
M  V30 5625 H 544.439 -1.61068 0.16394 0
M  V30 5626 H 546.431 -3.19072 -2.48948 0
M  V30 5627 H 545.001 -2.15182 -2.26749 0
M  V30 5628 H 544.221 -3.90896 -0.509321 0
M  V30 5629 H 545.509 -4.96362 -1.11813 0
M  V30 5630 H 544.907 -3.88586 -4.11118 0
M  V30 5631 H 543.464 -4.74881 -4.46465 0
M  V30 5632 N 546.897 -0.0685191 -1.57451 0
M  V30 5633 C 548.308 0.464634 -1.80826 0
M  V30 5634 C 548.659 1.69847 -0.982169 0
M  V30 5635 O 547.784 2.15439 -0.203734 0
M  V30 5636 C 548.379 0.849721 -3.27971 0
M  V30 5637 C 546.938 1.32776 -3.52204 0
M  V30 5638 C 546.085 0.311332 -2.75547 0
M  V30 5639 H 549.036 -0.294248 -1.55948 0
M  V30 5640 H 549.057 1.71138 -3.39841 0
M  V30 5641 H 548.569 -0.0484736 -3.8807 0
M  V30 5642 H 546.67 2.24456 -2.97406 0
M  V30 5643 H 546.783 1.30794 -4.60901 0
M  V30 5644 H 545.147 0.787915 -2.42206 0
M  V30 5645 H 545.93 -0.579078 -3.38381 0
M  V30 5646 N 548.375 1.56261 0.205012 0
M  V30 5647 C 549.305 1.96779 1.257 0
M  V30 5648 C 550.286 0.838309 1.48008 0
M  V30 5649 O 551.471 1.10189 1.59913 0
M  V30 5650 C 548.601 2.29876 2.60335 0
M  V30 5651 C 547.555 3.45469 2.52656 0
M  V30 5652 C 546.881 3.64215 3.91473 0
M  V30 5653 C 548.181 4.79954 2.06014 0
M  V30 5654 H 549.875 2.84904 0.920338 0
M  V30 5655 H 547.421 1.37072 0.441277 0
M  V30 5656 H 549.374 2.56814 3.34102 0
M  V30 5657 H 548.098 1.38622 2.95722 0
M  V30 5658 H 546.757 3.18605 1.81345 0
M  V30 5659 H 546.405 2.70309 4.24196 0
M  V30 5660 H 546.105 4.41973 3.87213 0
M  V30 5661 H 547.629 3.93519 4.66878 0
M  V30 5662 H 549.043 5.05989 2.69533 0
M  V30 5663 H 547.44 5.61111 2.12777 0
M  V30 5664 H 548.51 4.74201 1.01297 0
M  V30 5665 N 549.853 -0.472356 1.50355 0
M  V30 5666 C 551.078 -1.25251 1.65309 0
M  V30 5667 C 551.503 -1.85081 0.335643 0
M  V30 5668 O 550.861 -1.67227 -0.700335 0
M  V30 5669 C 550.909 -2.3379 2.74544 0
M  V30 5670 O 550.013 -3.38401 2.35709 0
M  V30 5671 H 549.354 -0.368539 0.552336 0
M  V30 5672 H 551.884 -0.562271 1.96722 0
M  V30 5673 H 551.894 -2.79121 2.97583 0
M  V30 5674 H 550.569 -1.89614 3.70161 0
M  V30 5675 H 549.146 -2.9879 2.23112 0
M  V30 5676 N 551.331 -1.39911 -0.725443 0
M  V30 5677 C 552.742 -1.33599 -1.30415 0
M  V30 5678 C 553.093 -0.00481792 -1.96199 0
M  V30 5679 O 552.218 0.897275 -1.96921 0
M  V30 5680 C 552.813 -2.41965 -2.37146 0
M  V30 5681 C 551.372 -2.39144 -2.90667 0
M  V30 5682 C 550.519 -2.23355 -1.64341 0
M  V30 5683 H 553.47 -1.4986 -0.522267 0
M  V30 5684 H 553.491 -2.09304 -3.17761 0
M  V30 5685 H 553.003 -3.38837 -1.89238 0
M  V30 5686 H 551.104 -1.4594 -3.4283 0
M  V30 5687 H 551.217 -3.34362 -3.43131 0
M  V30 5688 H 549.581 -1.70696 -1.89037 0
M  V30 5689 H 550.364 -3.2221 -1.18471 0
M  V30 5690 N 552.809 0.956637 -1.25245 0
M  V30 5691 C 553.719 2.0868 -1.0719 0
M  V30 5692 C 554.735 1.73997 -0.00959074 0
M  V30 5693 O 555.911 2.00301 -0.210104 0
M  V30 5694 C 552.976 3.39754 -0.690526 0
M  V30 5695 C 552.037 3.88316 -1.83055 0
M  V30 5696 C 551.27 5.13134 -1.46728 0
M  V30 5697 O 551.493 5.6925 -0.362029 0
M  V30 5698 O 550.427 5.56356 -2.29677 0
M  V30 5699 H 554.253 2.26813 -2.01965 0
M  V30 5700 H 551.838 1.07098 -1.04165 0
M  V30 5701 H 553.72 4.18543 -0.489871 0
M  V30 5702 H 552.395 3.22896 0.227981 0
M  V30 5703 H 551.302 3.1054 -2.08604 0
M  V30 5704 H 552.635 4.09669 -2.72822 0
M  V30 5705 N 554.287 1.06798 1.15896 0
M  V30 5706 C 555.234 0.683314 2.20453 0
M  V30 5707 C 556.204 -0.32255 1.62938 0
M  V30 5708 O 557.389 -0.210276 1.89638 0
M  V30 5709 C 554.529 0.0813266 3.45004 0
M  V30 5710 C 553.642 1.13799 4.16742 0
M  V30 5711 C 552.777 0.501598 5.28826 0
M  V30 5712 C 551.816 1.54144 5.92373 0
M  V30 5713 N 550.953 0.928038 6.9594 0
M  V30 5714 H 555.793 1.57932 2.52708 0
M  V30 5715 H 553.33 0.789544 1.24115 0
M  V30 5716 H 555.288 -0.285274 4.16224 0
M  V30 5717 H 553.918 -0.77806 3.13283 0
M  V30 5718 H 552.97 1.62223 3.44075 0
M  V30 5719 H 554.282 1.92664 4.60089 0
M  V30 5720 H 553.436 0.0823162 6.06644 0
M  V30 5721 H 552.175 -0.318883 4.86656 0
M  V30 5722 H 551.18 1.97056 5.13273 0
M  V30 5723 H 552.405 2.3641 6.36621 0
M  V30 5724 H 550.351 0.12836 6.55874 0
M  V30 5725 H 550.268 1.65401 7.37685 0
M  V30 5726 H 551.536 0.534071 7.77668 0
M  V30 5727 N 555.766 -1.3263 0.851289 0
M  V30 5728 C 556.996 -2.01271 0.466222 0
M  V30 5729 C 557.404 -1.64156 -0.940714 0
M  V30 5730 O 556.747 -0.857109 -1.62479 0
M  V30 5731 C 556.809 -3.55695 0.521672 0
M  V30 5732 C 556.473 -4.16227 1.88691 0
M  V30 5733 C 557.47 -4.34699 2.85189 0
M  V30 5734 C 555.155 -4.52377 2.18313 0
M  V30 5735 C 557.149 -4.88484 4.09465 0
M  V30 5736 C 554.836 -5.05868 3.42843 0
M  V30 5737 C 555.834 -5.23869 4.38235 0
M  V30 5738 O 555.522 -5.76218 5.6056 0
M  V30 5739 H 555.254 -0.651034 0.18202 0
M  V30 5740 H 557.808 -1.7026 1.14894 0
M  V30 5741 H 556.038 -3.86086 -0.217888 0
M  V30 5742 H 557.727 -4.05613 0.152682 0
M  V30 5743 H 558.493 -4.07107 2.63607 0
M  V30 5744 H 554.372 -4.37652 1.44851 0
M  V30 5745 H 557.916 -5.02451 4.83931 0
M  V30 5746 H 553.813 -5.32891 3.64277 0
M  V30 5747 H 554.581 -5.94616 5.62471 0
M  V30 5748 N 557.244 -0.608902 -1.45362 0
M  V30 5749 C 558.49 -0.104762 -2.02529 0
M  V30 5750 C 558.823 1.26191 -1.47613 0
M  V30 5751 O 558.098 1.8327 -0.65134 0
M  V30 5752 C 558.381 -0.0672661 -3.60037 0
M  V30 5753 C 558.234 -1.4647 -4.25284 0
M  V30 5754 C 559.553 0.619877 -4.35713 0
M  V30 5755 H 556.672 -0.0395438 -0.735938 0
M  V30 5756 H 559.314 -0.781126 -1.73201 0
M  V30 5757 H 557.464 0.50871 -3.85155 0
M  V30 5758 H 559.136 -2.08785 -4.11347 0
M  V30 5759 H 557.379 -2.02502 -3.83634 0
M  V30 5760 H 558.05 -1.39069 -5.34195 0
M  V30 5761 H 560.526 0.130297 -4.15896 0
M  V30 5762 H 559.402 0.615224 -5.45441 0
M  V30 5763 H 559.663 1.68621 -4.0868 0
M  V30 5764 N 558.722 1.53707 -0.348139 0
M  V30 5765 C 559.95 2.05406 0.248224 0
M  V30 5766 C 560.365 1.22282 1.43849 0
M  V30 5767 O 559.722 0.259244 1.80649 0
M  V30 5768 C 559.773 3.55446 0.658793 0
M  V30 5769 O 559.494 4.35417 -0.484149 0
M  V30 5770 C 560.995 4.23335 1.31539 0
M  V30 5771 H 558.215 0.669344 0.0471075 0
M  V30 5772 H 560.759 1.98257 -0.501456 0
M  V30 5773 H 558.914 3.62803 1.35841 0
M  V30 5774 H 559.328 5.24268 -0.155949 0
M  V30 5775 H 560.802 5.29692 1.55338 0
M  V30 5776 H 561.279 3.75967 2.27036 0
M  V30 5777 H 561.885 4.20184 0.657683 0
M  V30 5778 N 560.2 0.0768682 1.57412 0
M  V30 5779 C 561.425 -0.603404 1.98428 0
M  V30 5780 C 561.85 -1.62047 0.955108 0
M  V30 5781 O 561.208 -1.81129 -0.0786778 0
M  V30 5782 C 561.256 -1.24396 3.38464 0
M  V30 5783 O 560.36 -2.35982 3.3821 0
M  V30 5784 H 559.701 -0.154741 0.645718 0
M  V30 5785 H 562.231 0.152885 2.04028 0
M  V30 5786 H 562.241 -1.5896 3.7576 0
M  V30 5787 H 560.916 -0.498735 4.12899 0
M  V30 5788 H 559.493 -2.03173 3.1269 0
M  V30 5789 N 561.678 -1.56367 -0.196722 0
M  V30 5790 C 562.641 -1.93561 -1.22746 0
M  V30 5791 C 563.641 -0.816566 -1.38524 0
M  V30 5792 O 564.831 -1.084 -1.36363 0
M  V30 5793 C 561.963 -2.20823 -2.59712 0
M  V30 5794 H 563.156 -2.85774 -0.909586 0
M  V30 5795 H 560.709 -1.50032 -0.438174 0
M  V30 5796 H 561.444 -1.31243 -2.96557 0
M  V30 5797 H 561.229 -3.02368 -2.49632 0
M  V30 5798 H 562.719 -2.50608 -3.34044 0
M  V30 5799 N 563.156 0.464375 -1.50603 0
M  V30 5800 C 564.567 1.04507 -1.5471 0
M  V30 5801 C 564.918 1.9297 -0.354542 0
M  V30 5802 O 564.043 2.09763 0.531812 0
M  V30 5803 C 564.638 1.90207 -2.80369 0
M  V30 5804 C 563.197 2.43373 -2.87135 0
M  V30 5805 C 562.344 1.21886 -2.49076 0
M  V30 5806 H 565.295 0.246716 -1.56771 0
M  V30 5807 H 565.316 2.75353 -2.62604 0
M  V30 5808 H 564.828 1.25796 -3.67147 0
M  V30 5809 H 562.929 3.11318 -2.04724 0
M  V30 5810 H 563.042 2.7802 -3.90181 0
M  V30 5811 H 561.406 1.55575 -2.01664 0
M  V30 5812 H 562.189 0.591268 -3.3817 0
M  V30 5813 N 564.634 1.40294 0.718013 0
M  V30 5814 C 565.567 1.34767 1.84155 0
M  V30 5815 C 566.545 0.218455 1.61126 0
M  V30 5816 O 567.729 0.401716 1.8417 0
M  V30 5817 C 564.856 1.09676 3.20451 0
M  V30 5818 C 563.902 2.25016 3.62312 0
M  V30 5819 S 564.735 3.87397 3.69707 0
M  V30 5820 C 565.891 3.64565 5.08766 0
M  V30 5821 H 566.124 2.29851 1.88562 0
M  V30 5822 H 563.657 1.2655 0.884555 0
M  V30 5823 H 565.615 0.95885 3.99144 0
M  V30 5824 H 564.276 0.162502 3.13679 0
M  V30 5825 H 563.469 2.03097 4.61268 0
M  V30 5826 H 563.071 2.35098 2.90869 0
M  V30 5827 H 565.363 3.22882 5.95612 0
M  V30 5828 H 566.306 4.63043 5.35721 0
M  V30 5829 H 566.714 2.98303 4.79245 0
M  V30 5830 N 566.112 -0.949982 1.2575 0
M  V30 5831 C 567.523 -1.50989 1.09815 0
M  V30 5832 C 567.874 -1.93497 -0.324556 0
M  V30 5833 O 566.999 -1.79068 -1.21506 0
M  V30 5834 C 567.594 -2.74394 1.98729 0
M  V30 5835 C 566.153 -3.26682 1.86965 0
M  V30 5836 C 565.3 -1.99498 1.92603 0
M  V30 5837 H 568.251 -0.766387 1.38968 0
M  V30 5838 H 568.272 -3.48383 1.53001 0
M  V30 5839 H 567.784 -2.43425 3.02268 0
M  V30 5840 H 565.885 -3.62461 0.863279 0
M  V30 5841 H 565.998 -3.94383 2.72027 0
M  V30 5842 H 564.362 -2.15005 1.36546 0
M  V30 5843 H 565.145 -1.70871 2.97755 0
M  V30 5844 N 567.59 -1.07411 -1.15328 0
M  V30 5845 C 568.5 -0.706438 -2.23711 0
M  V30 5846 C 569.516 0.282586 -1.7169 0
M  V30 5847 O 570.692 0.129066 -2.00986 0
M  V30 5848 C 567.757 -0.11048 -3.46524 0
M  V30 5849 C 566.818 -1.15282 -4.13532 0
M  V30 5850 C 566.051 -0.585205 -5.30482 0
M  V30 5851 O 566.274 0.598549 -5.67251 0
M  V30 5852 O 565.208 -1.33039 -5.87013 0
M  V30 5853 H 569.034 -1.61031 -2.57493 0
M  V30 5854 H 566.619 -0.847113 -1.23062 0
M  V30 5855 H 568.501 0.21957 -4.20828 0
M  V30 5856 H 567.176 0.766703 -3.14489 0
M  V30 5857 H 566.083 -1.53523 -3.41147 0
M  V30 5858 H 567.416 -2.00192 -4.49649 0
M  V30 5859 N 569.068 1.32177 -0.85831 0
M  V30 5860 C 570.479 1.79381 -0.517621 0
M  V30 5861 C 570.83 1.70841 0.964769 0
M  V30 5862 O 569.955 1.26917 1.75274 0
M  V30 5863 C 570.55 3.25706 -0.932801 0
M  V30 5864 C 569.109 3.70851 -0.643953 0
M  V30 5865 C 568.256 2.53208 -1.13054 0
M  V30 5866 H 571.207 1.19424 -1.04516 0
M  V30 5867 H 571.228 3.79673 -0.250674 0
M  V30 5868 H 570.74 3.31889 -2.01174 0
M  V30 5869 H 568.841 3.70178 0.424112 0
M  V30 5870 H 568.954 4.63495 -1.21281 0
M  V30 5871 H 567.318 2.48676 -0.550679 0
M  V30 5872 H 568.101 2.62143 -2.21666 0
M  V30 5873 N 570.547 0.616602 1.45037 0
M  V30 5874 C 571.479 -0.135186 2.28801 0
M  V30 5875 C 572.492 -0.82303 1.40464 0
M  V30 5876 O 573.681 -0.686909 1.64754 0
M  V30 5877 C 570.781 -1.21292 3.16451 0
M  V30 5878 C 569.954 -0.61043 4.3312 0
M  V30 5879 C 569.013 -1.58022 5.01912 0
M  V30 5880 O 568.039 -1.10301 5.58411 0
M  V30 5881 N 569.241 -2.91464 5.02025 0
M  V30 5882 H 572.006 0.583612 2.93963 0
M  V30 5883 H 569.567 0.456723 1.55324 0
M  V30 5884 H 571.559 -1.86169 3.59337 0
M  V30 5885 H 570.129 -1.83412 2.53138 0
M  V30 5886 H 569.349 0.216638 3.93604 0
M  V30 5887 H 570.637 -0.188293 5.08451 0
M  V30 5888 H 570.035 -3.32829 4.57429 0
M  V30 5889 H 568.592 -3.51741 5.48745 0
M  V30 5890 N 572.025 -1.5352 0.356285 0
M  V30 5891 C 572.988 -2.24071 -0.482182 0
M  V30 5892 C 573.988 -1.24531 -1.01729 0
M  V30 5893 O 575.178 -1.48876 -0.904513 0
M  V30 5894 C 572.31 -2.97025 -1.67299 0
M  V30 5895 H 573.503 -2.99596 0.135031 0
M  V30 5896 H 571.056 -1.55928 0.107825 0
M  V30 5897 H 571.791 -2.25719 -2.32855 0
M  V30 5898 H 571.576 -3.7005 -1.29636 0
M  V30 5899 H 573.066 -3.50683 -2.26741 0
M  V30 5900 N 573.503 -0.0852151 -1.57369 0
M  V30 5901 C 574.914 0.445428 -1.81309 0
M  V30 5902 C 575.265 1.68795 -1.00013 0
M  V30 5903 O 574.39 2.15211 -0.226573 0
M  V30 5904 C 574.985 0.814887 -3.28854 0
M  V30 5905 C 573.544 1.29032 -3.53592 0
M  V30 5906 C 572.691 0.282089 -2.75861 0
M  V30 5907 H 575.642 -0.310771 -1.55627 0
M  V30 5908 H 575.663 1.67524 -3.41637 0
M  V30 5909 H 575.175 -0.0896309 -3.87996 0
M  V30 5910 H 573.276 2.21289 -2.9977 0
M  V30 5911 H 573.389 1.25898 -4.62262 0
M  V30 5912 H 571.753 0.762182 -2.43029 0
M  V30 5913 H 572.536 -0.614936 -3.37748 0
M  V30 5914 N 574.981 1.5647 0.188427 0
M  V30 5915 C 576.229 1.80655 0.905986 0
M  V30 5916 C 576.55 0.659391 1.83513 0
M  V30 5917 O 575.82 -0.321868 1.93238 0
M  V30 5918 H 574.4 0.666391 0.337538 0
M  V30 5919 H 577.062 1.93949 0.192339 0
M  V30 5920 H 576.158 2.74066 1.49313 0
M  V30 5921 N 576.459 -0.456382 1.50847 0
M  V30 5922 C 577.875 -0.791345 1.386 0
M  V30 5923 C 578.075 -1.9633 0.453498 0
M  V30 5924 O 577.131 -2.52308 -0.0984353 0
M  V30 5925 C 578.444 -1.08959 2.80265 0
M  V30 5926 C 579.992 -1.19517 2.89283 0
M  V30 5927 C 580.467 -1.52647 4.31814 0
M  V30 5928 N 581.958 -1.59609 4.34832 0
M  V30 5929 C 582.693 -1.86777 5.42127 0
M  V30 5930 N 582.189 -2.11866 6.59609 0
M  V30 5931 N 583.982 -1.88402 5.29586 0
M  V30 5932 H 576.133 0.315746 2.1004 0
M  V30 5933 H 578.396 0.0787916 0.94472 0
M  V30 5934 H 578.102 -0.301355 3.50407 0
M  V30 5935 H 577.976 -2.02211 3.18419 0
M  V30 5936 H 580.363 -1.97406 2.19351 0
M  V30 5937 H 580.444 -0.242111 2.54652 0
M  V30 5938 H 580.088 -0.752922 5.02288 0
M  V30 5939 H 580.018 -2.49127 4.63943 0
M  V30 5940 H 582.509 -1.42201 3.50125 0
M  V30 5941 H 582.822 -2.31912 7.37182 0
M  V30 5942 H 581.167 -2.09228 6.62758 0
M  V30 5943 H 584.358 -1.68307 4.36795 0
M  V30 5944 H 584.531 -2.09238 6.13289 0
M  V30 5945 N 577.937 -1.40673 -0.710563 0
M  V30 5946 C 579.167 -1.4234 -1.49742 0
M  V30 5947 C 579.575 -0.022821 -1.89186 0
M  V30 5948 O 578.918 0.964773 -1.56326 0
M  V30 5949 C 578.98 -2.25509 -2.79975 0
M  V30 5950 C 578.644 -3.73862 -2.62824 0
M  V30 5951 C 579.641 -4.66379 -2.29752 0
M  V30 5952 C 577.326 -4.17735 -2.78932 0
M  V30 5953 C 579.32 -6.00756 -2.13006 0
M  V30 5954 C 577.007 -5.5218 -2.61802 0
M  V30 5955 C 578.005 -6.43505 -2.28888 0
M  V30 5956 O 577.693 -7.75472 -2.11894 0
M  V30 5957 H 577.425 -0.487311 -0.468513 0
M  V30 5958 H 579.979 -1.8542 -0.883668 0
M  V30 5959 H 578.209 -1.77218 -3.43701 0
M  V30 5960 H 579.898 -2.19058 -3.41714 0
M  V30 5961 H 580.664 -4.33778 -2.16936 0
M  V30 5962 H 576.543 -3.46967 -3.03537 0
M  V30 5963 H 580.087 -6.72003 -1.87237 0
M  V30 5964 H 575.984 -5.84365 -2.74204 0
M  V30 5965 H 576.752 -7.86458 -2.26775 0
M  V30 5966 N 579.415 0.9433 -1.26252 0
M  V30 5967 C 580.662 1.68925 -1.11672 0
M  V30 5968 C 580.99 1.91499 0.340329 0
M  V30 5969 O 580.245 1.49189 1.26653 0
M  V30 5970 C 580.544 3.07073 -1.82868 0
M  V30 5971 C 580.21 3.04262 -3.32769 0
M  V30 5972 C 578.872 3.03203 -3.7366 0
M  V30 5973 C 581.224 2.96729 -4.28487 0
M  V30 5974 C 578.552 2.92373 -5.0866 0
M  V30 5975 C 580.904 2.87442 -5.63525 0
M  V30 5976 C 579.568 2.84724 -6.03729 0
M  V30 5977 H 578.838 0.618141 -0.408635 0
M  V30 5978 H 581.485 1.10124 -1.56668 0
M  V30 5979 H 579.79 3.69486 -1.30335 0
M  V30 5980 H 581.487 3.63635 -1.69029 0
M  V30 5981 H 578.077 3.05865 -3.00241 0
M  V30 5982 H 582.261 2.96658 -3.97879 0
M  V30 5983 H 577.517 2.88645 -5.38975 0
M  V30 5984 H 581.691 2.80576 -6.37377 0
M  V30 5985 H 579.318 2.76089 -7.08293 0
M  V30 5986 N 580.893 1.08022 1.14757 0
M  V30 5987 C 581.856 0.71048 2.1791 0
M  V30 5988 C 582.856 -0.252731 1.58801 0
M  V30 5989 O 584.046 -0.0327915 1.74169 0
M  V30 5990 C 581.178 0.0483203 3.40866 0
M  V30 5991 H 582.371 1.62384 2.52134 0
M  V30 5992 H 579.924 0.877595 1.29337 0
M  V30 5993 H 580.659 -0.876959 3.12218 0
M  V30 5994 H 580.444 0.741189 3.85031 0
M  V30 5995 H 581.934 -0.195471 4.17142 0
M  V30 5996 N 582.371 -1.3172 0.865308 0
M  V30 5997 C 583.321 -2.26157 0.289305 0
M  V30 5998 C 584.305 -1.50428 -0.570977 0
M  V30 5999 O 585.497 -1.71978 -0.418617 0
M  V30 6000 C 582.626 -3.39457 -0.512237 0
M  V30 6001 C 581.712 -4.22561 0.361028 0
M  V30 6002 N 582.103 -4.84501 1.45231 0
M  V30 6003 C 580.401 -4.45739 0.152641 0
M  V30 6004 C 581.102 -5.46586 1.99043 0
M  V30 6005 N 580.078 -5.28119 1.28809 0
M  V30 6006 H 583.88 -2.71581 1.12344 0
M  V30 6007 H 581.394 -1.45932 0.712565 0
M  V30 6008 H 583.391 -4.06133 -0.941379 0
M  V30 6009 H 582.051 -2.95577 -1.34404 0
M  V30 6010 H 583.062 -4.84293 1.83524 0
M  V30 6011 H 579.739 -4.1251 -0.643583 0
M  V30 6012 H 581.129 -6.05817 2.90577 0
M  V30 6013 N 583.85 -0.624285 -1.44708 0
M  V30 6014 C 585.075 -0.131171 -2.06985 0
M  V30 6015 C 585.5 1.18234 -1.46295 0
M  V30 6016 O 584.858 1.72375 -0.561842 0
M  V30 6017 C 584.906 -0.0226724 -3.60593 0
M  V30 6018 O 584.01 1.02314 -3.99507 0
M  V30 6019 H 583.351 -0.0816556 -0.65896 0
M  V30 6020 H 585.88 -0.859027 -1.85693 0
M  V30 6021 H 585.891 0.170138 -4.07645 0
M  V30 6022 H 584.566 -0.981685 -4.04148 0
M  V30 6023 H 583.143 0.805452 -3.64097 0
M  V30 6024 N 585.328 1.53329 -0.364422 0
M  V30 6025 C 586.577 2.00421 0.226747 0
M  V30 6026 C 586.89 1.25581 1.49963 0
M  V30 6027 O 588.096 1.63256 2.16933 0
M  V30 6028 C 586.552 3.57017 0.454618 0
M  V30 6029 C 586.16 4.40734 -0.803568 0
M  V30 6030 C 587.904 4.12468 1.00351 0
M  V30 6031 C 585.811 5.8888 -0.545345 0
M  V30 6032 H 584.741 0.748787 0.0885082 0
M  V30 6033 H 587.392 1.7703 -0.482983 0
M  V30 6034 H 585.774 3.76558 1.22558 0
M  V30 6035 H 586.948 4.32967 -1.57723 0
M  V30 6036 H 585.263 3.96381 -1.27559 0
M  V30 6037 H 587.86 5.20783 1.212 0
M  V30 6038 H 588.203 3.6699 1.9653 0
M  V30 6039 H 588.736 3.96721 0.29274 0
M  V30 6040 H 585.475 6.38633 -1.47743 0
M  V30 6041 H 584.995 5.99499 0.189842 0
M  V30 6042 H 586.674 6.46776 -0.170425 0
M  V30 6043 N 586.806 0.0935595 1.57322 0
M  V30 6044 C 587.736 -0.863062 2.16964 0
M  V30 6045 C 588.717 -1.29528 1.10256 0
M  V30 6046 O 589.902 -1.36245 1.38387 0
M  V30 6047 C 587.032 -2.12276 2.74875 0
M  V30 6048 C 585.986 -1.82921 3.86942 0
M  V30 6049 C 585.312 -3.15707 4.31548 0
M  V30 6050 C 586.612 -1.11737 5.10208 0
M  V30 6051 H 588.306 -0.366145 2.97153 0
M  V30 6052 H 585.852 -0.174673 1.42937 0
M  V30 6053 H 587.805 -2.79634 3.1525 0
M  V30 6054 H 586.529 -2.64248 1.91938 0
M  V30 6055 H 585.188 -1.17961 3.47103 0
M  V30 6056 H 584.836 -3.65563 3.45504 0
M  V30 6057 H 584.536 -2.96849 5.07104 0
M  V30 6058 H 586.06 -3.84226 4.74555 0
M  V30 6059 H 587.474 -1.69203 5.47762 0
M  V30 6060 H 585.871 -1.03064 5.91183 0
M  V30 6061 H 586.941 -0.0998818 4.84797 0
M  V30 6062 N 588.284 -1.56567 -0.180126 0
M  V30 6063 C 589.512 -1.85618 -0.913972 0
M  V30 6064 C 589.927 -0.677892 -1.7621 0
M  V30 6065 O 589.284 0.353171 -1.7905 0
M  V30 6066 C 589.335 -3.13619 -1.79793 0
M  V30 6067 O 589.056 -4.26906 -0.98402 0
M  V30 6068 C 590.557 -3.55954 -2.64219 0
M  V30 6069 H 587.777 -0.616043 -0.265954 0
M  V30 6070 H 590.321 -2.03681 -0.182872 0
M  V30 6071 H 588.476 -2.97409 -2.48247 0
M  V30 6072 H 588.89 -4.9989 -1.58776 0
M  V30 6073 H 590.364 -4.48444 -3.21873 0
M  V30 6074 H 590.841 -2.79653 -3.38661 0
M  V30 6075 H 591.447 -3.74746 -2.01111 0
M  V30 6076 N 589.762 0.448376 -1.51087 0
M  V30 6077 C 591.008 1.20049 -1.6345 0
M  V30 6078 C 591.341 1.91121 -0.344444 0
M  V30 6079 O 590.616 1.83125 0.655396 0
M  V30 6080 C 590.899 2.22624 -2.83038 0
M  V30 6081 C 590.752 1.55708 -4.21989 0
M  V30 6082 C 592.071 3.23718 -2.98152 0
M  V30 6083 H 589.19 0.435085 -0.59487 0
M  V30 6084 H 591.832 0.491183 -1.83541 0
M  V30 6085 H 589.982 2.83117 -2.66039 0
M  V30 6086 H 591.654 0.986367 -4.50631 0
M  V30 6087 H 589.897 0.859647 -4.25197 0
M  V30 6088 H 590.568 2.30357 -5.01637 0
M  V30 6089 H 593.044 2.73269 -3.13788 0
M  V30 6090 H 591.92 3.92795 -3.83411 0
M  V30 6091 H 592.181 3.89179 -2.09743 0
M  V30 6092 N 591.24 1.41047 0.703093 0
M  V30 6093 C 592.465 1.43537 1.49706 0
M  V30 6094 C 592.89 0.0401853 1.88057 0
M  V30 6095 O 592.248 -0.954785 1.54122 0
M  V30 6096 C 592.296 2.3433 2.74084 0
M  V30 6097 O 591.4 1.79515 3.71279 0
M  V30 6098 H 590.741 0.487454 0.450871 0
M  V30 6099 H 593.271 1.85422 0.86486 0
M  V30 6100 H 593.281 2.49947 3.22476 0
M  V30 6101 H 591.956 3.35708 2.45506 0
M  V30 6102 H 590.533 1.7331 3.30179 0
M  V30 6103 N 592.718 -0.936591 1.26751 0
M  V30 6104 C 593.628 -2.06949 1.10496 0
M  V30 6105 C 594.644 -1.7396 0.037271 0
M  V30 6106 O 595.82 -1.99941 0.241944 0
M  V30 6107 C 592.885 -3.38612 0.744491 0
M  V30 6108 C 591.946 -3.85355 1.89209 0
M  V30 6109 C 591.179 -5.10735 1.54873 0
M  V30 6110 O 591.402 -5.68602 0.452546 0
M  V30 6111 O 590.336 -5.52632 2.38499 0
M  V30 6112 H 594.162 -2.23571 2.05547 0
M  V30 6113 H 591.747 -1.05428 1.05855 0
M  V30 6114 H 593.629 -4.17711 0.556396 0
M  V30 6115 H 592.304 -3.23218 -0.176582 0
M  V30 6116 H 591.211 -3.07182 2.13518 0
M  V30 6117 H 592.544 -4.05277 2.79305 0
M  V30 6118 N 594.196 -1.08629 -1.14182 0
M  V30 6119 C 595.106 -0.730126 -2.22949 0
M  V30 6120 C 596.122 0.26436 -1.7198 0
M  V30 6121 O 597.298 0.107742 -2.01112 0
M  V30 6122 C 594.363 -0.147227 -3.46387 0
M  V30 6123 C 593.424 -1.19662 -4.12286 0
M  V30 6124 C 592.657 -0.641437 -5.29831 0
M  V30 6125 O 592.88 0.538351 -5.67854 0
M  V30 6126 O 591.814 -1.39257 -5.85569 0
M  V30 6127 H 595.64 -1.63753 -2.55771 0
M  V30 6128 H 593.225 -0.860118 -1.22157 0
M  V30 6129 H 595.107 0.174923 -4.21037 0
M  V30 6130 H 593.782 0.733304 -3.15285 0
M  V30 6131 H 592.689 -1.57133 -3.395 0
M  V30 6132 H 594.022 -2.0495 -4.475 0
M  V30 6133 N 595.674 1.31259 -0.872281 0
M  V30 6134 C 596.584 2.32221 -0.333255 0
M  V30 6135 C 597.6 1.6481 0.558013 0
M  V30 6136 O 598.776 1.96212 0.454175 0
M  V30 6137 C 595.841 3.43708 0.454479 0
M  V30 6138 C 594.902 4.26774 -0.465024 0
M  V30 6139 C 594.135 5.32937 0.28521 0
M  V30 6140 O 594.358 5.49968 1.513 0
M  V30 6141 O 593.292 6.00834 -0.358126 0
M  V30 6142 H 597.118 2.80252 -1.17016 0
M  V30 6143 H 594.703 1.352 -0.635724 0
M  V30 6144 H 596.585 4.11656 0.900963 0
M  V30 6145 H 595.26 2.97836 1.26789 0
M  V30 6146 H 594.167 3.61571 -0.960055 0
M  V30 6147 H 595.5 4.76217 -1.2441 0
M  V30 6148 N 597.152 0.631951 1.44375 0
M  V30 6149 C 598.398 0.145491 2.02879 0
M  V30 6150 C 598.753 -1.21936 1.48827 0
M  V30 6151 O 598.046 -1.7976 0.663085 0
M  V30 6152 C 598.24 0.0735861 3.57324 0
M  V30 6153 C 598.069 1.42992 4.2636 0
M  V30 6154 C 596.839 2.01691 4.63302 0
M  V30 6155 C 599.037 2.36393 4.56752 0
M  V30 6156 N 597.019 3.30551 5.17309 0
M  V30 6157 C 598.39 3.49869 5.11851 0
M  V30 6158 C 600.445 2.35462 4.38705 0
M  V30 6159 C 599.148 4.6261 5.50803 0
M  V30 6160 C 601.174 3.47268 4.78706 0
M  V30 6161 C 600.536 4.59467 5.33919 0
M  V30 6162 H 596.635 0.0971781 0.775938 0
M  V30 6163 H 599.219 0.835624 1.75856 0
M  V30 6164 H 597.39 -0.585829 3.83957 0
M  V30 6165 H 599.122 -0.421777 4.02496 0
M  V30 6166 H 595.877 1.54627 4.47647 0
M  V30 6167 H 596.301 3.96435 5.48788 0
M  V30 6168 H 600.943 1.49966 3.9531 0
M  V30 6169 H 598.661 5.48813 5.93152 0
M  V30 6170 H 602.247 3.47724 4.66454 0
M  V30 6171 H 601.127 5.44551 5.64299 0
M  V30 6172 N 598.631 -1.53133 0.372548 0
M  V30 6173 C 599.579 -2.27473 -0.485681 0
M  V30 6174 C 600.573 -1.30719 -1.07745 0
M  V30 6175 O 601.779 -1.48321 -1.01985 0
M  V30 6176 H 598.154 -0.731269 -0.175356 0
M  V30 6177 H 600.125 -2.97955 0.162986 0
M  V30 6178 C 598.874 -3.08191 -1.60978 0
M  V30 6179 H 598.197 -3.82488 -1.16373 0
M  V30 6180 H 599.637 -3.63373 -2.18485 0
M  V30 6181 C 598.096 -2.19461 -2.55614 0
M  V30 6182 O 598.626 -1.81008 -3.58607 0
M  V30 6183 N 596.832 -1.83955 -2.24965 0
M  V30 6184 H 596.379 -2.15423 -1.41247 0
M  V30 6185 H 596.337 -1.24874 -2.88538 0
M  V30 6186 N 600.109 -0.101901 -1.5727 0
M  V30 6187 C 601.337 0.568392 -1.98939 0
M  V30 6188 C 601.752 1.61301 -0.981194 0
M  V30 6189 O 601.109 1.82478 0.0282869 0
M  V30 6190 C 601.16 1.20997 -3.40649 0
M  V30 6191 O 600.881 0.207129 -4.3761 0
M  V30 6192 C 602.382 1.96523 -3.97358 0
M  V30 6193 H 599.602 0.15186 -0.65359 0
M  V30 6194 H 602.146 -0.183198 -2.03678 0
M  V30 6195 H 600.301 1.91245 -3.36904 0
M  V30 6196 H 600.715 0.671071 -5.20189 0
M  V30 6197 H 602.189 2.36764 -4.98645 0
M  V30 6198 H 602.666 2.83376 -3.35552 0
M  V30 6199 H 603.272 1.31076 -4.04598 0
M  V30 6200 N 601.587 1.56661 0.17182 0
M  V30 6201 C 602.835 1.81606 0.886774 0
M  V30 6202 C 603.156 0.678818 1.82803 0
M  V30 6203 O 602.426 -0.301354 1.93568 0
M  V30 6204 H 601.006 0.669934 0.330451 0
M  V30 6205 H 603.668 1.94142 0.171757 0
M  V30 6206 H 602.764 2.75634 1.46398 0
M  V30 6207 N 603.065 -0.440357 1.51323 0
M  V30 6208 C 603.975 -1.55955 1.75258 0
M  V30 6209 C 604.991 -1.61933 0.636687 0
M  V30 6210 O 606.167 -1.79231 0.918593 0
M  V30 6211 C 603.232 -2.9196 1.86977 0
M  V30 6212 C 602.293 -2.96122 3.10822 0
M  V30 6213 C 601.526 -4.2564 3.21973 0
M  V30 6214 O 601.749 -5.17851 2.39137 0
M  V30 6215 O 600.683 -4.36025 4.14929 0
M  V30 6216 H 604.509 -1.38673 2.70191 0
M  V30 6217 H 602.094 -0.623055 1.35788 0
M  V30 6218 H 603.976 -3.72682 1.96688 0
M  V30 6219 H 602.651 -3.09375 0.952307 0
M  V30 6220 H 601.558 -2.14366 3.06591 0
M  V30 6221 H 602.891 -2.83651 4.02247 0
M  V30 6222 N 604.543 -1.41418 -0.695603 0
M  V30 6223 C 605.771 -1.4413 -1.48439 0
M  V30 6224 C 606.186 -0.0465698 -1.88743 0
M  V30 6225 O 605.543 0.934117 -1.56782 0
M  V30 6226 C 605.594 -2.34998 -2.74696 0
M  V30 6227 O 605.315 -3.69043 -2.36091 0
M  V30 6228 C 606.816 -2.46513 -3.68438 0
M  V30 6229 H 604.036 -0.490905 -0.457442 0
M  V30 6230 H 606.58 -1.85702 -0.856454 0
M  V30 6231 H 604.735 -1.96735 -3.33728 0
M  V30 6232 H 605.149 -4.17505 -3.17474 0
M  V30 6233 H 606.623 -3.1426 -4.53811 0
M  V30 6234 H 607.1 -1.49638 -4.12922 0
M  V30 6235 H 607.706 -2.85412 -3.1531 0
M  V30 6236 N 606.021 0.929856 -1.27246 0
M  V30 6237 C 607.251 1.70895 -1.16096 0
M  V30 6238 C 607.659 1.87039 0.285122 0
M  V30 6239 O 607.002 1.38557 1.20614 0
M  V30 6240 C 607.064 3.12919 -1.7698 0
M  V30 6241 C 606.728 3.2012 -3.26148 0
M  V30 6242 C 607.725 3.02533 -4.22812 0
M  V30 6243 C 605.41 3.43148 -3.66817 0
M  V30 6244 C 607.404 3.07861 -5.58122 0
M  V30 6245 C 605.091 3.48109 -5.02258 0
M  V30 6246 C 606.089 3.30483 -5.97721 0
M  V30 6247 O 605.777 3.35175 -7.30694 0
M  V30 6248 H 605.509 0.54152 -0.404639 0
M  V30 6249 H 608.063 1.17342 -1.68582 0
M  V30 6250 H 606.293 3.67945 -1.18969 0
M  V30 6251 H 607.982 3.72787 -1.60576 0
M  V30 6252 H 608.748 2.84586 -3.92728 0
M  V30 6253 H 604.627 3.55918 -2.9299 0
M  V30 6254 H 608.171 2.94021 -6.32612 0
M  V30 6255 H 604.068 3.65579 -5.31998 0
M  V30 6256 H 604.836 3.51644 -7.39114 0
M  V30 6257 N 607.499 1.09233 1.13605 0
M  V30 6258 C 608.727 0.848908 1.88683 0
M  V30 6259 C 609.142 -0.599667 1.79024 0
M  V30 6260 O 608.499 -1.41265 1.15544 0
M  V30 6261 C 608.55 1.27273 3.38355 0
M  V30 6262 O 608.271 2.66449 3.47759 0
M  V30 6263 C 609.772 1.0614 4.30406 0
M  V30 6264 H 606.992 0.305549 0.597395 0
M  V30 6265 H 609.536 1.4538 1.43823 0
M  V30 6266 H 607.691 0.711776 3.80805 0
M  V30 6267 H 608.105 2.84264 4.40788 0
M  V30 6268 H 609.579 1.40725 5.33761 0
M  V30 6269 H 610.056 -0.000960332 4.392 0
M  V30 6270 H 610.662 1.60821 3.93722 0
M  V30 6271 N 608.977 -1.30795 0.87923 0
M  V30 6272 C 610.217 -1.98155 0.50141 0
M  V30 6273 C 610.581 -1.67925 -0.930863 0
M  V30 6274 O 611.782 -2.28572 -1.41451 0
M  V30 6275 C 610.053 -3.49184 0.761937 0
M  V30 6276 S 611.612 -4.36107 0.485361 0
M  V30 6277 H 608.43 -0.686025 0.186792 0
M  V30 6278 H 611.032 -1.59018 1.13726 0
M  V30 6279 H 609.736 -3.68676 1.80295 0
M  V30 6280 H 609.267 -3.93236 0.113432 0
M  V30 6281 H 611.282 -4.9154 -0.678467 0
M  V30 6282 N 610.455 -0.639598 -1.44038 0
M  V30 6283 C 611.701 -0.147698 -2.02261 0
M  V30 6284 C 612.034 1.23031 -1.50256 0
M  V30 6285 O 611.309 1.81847 -0.690068 0
M  V30 6286 C 611.592 -0.14362 -3.59813 0
M  V30 6287 C 611.445 -1.55458 -4.22082 0
M  V30 6288 C 612.764 0.527317 -4.36929 0
M  V30 6289 H 609.883 -0.0551453 -0.734934 0
M  V30 6290 H 612.525 -0.817688 -1.71505 0
M  V30 6291 H 610.675 0.426898 -3.86147 0
M  V30 6292 H 612.347 -2.17464 -4.06826 0
M  V30 6293 H 610.59 -2.10594 -3.79253 0
M  V30 6294 H 611.261 -1.50369 -5.31124 0
M  V30 6295 H 613.737 0.0420504 -4.16079 0
M  V30 6296 H 612.613 0.499389 -5.46624 0
M  V30 6297 H 612.874 1.59914 -4.12165 0
M  V30 6298 N 611.933 1.52934 -0.380664 0
M  V30 6299 C 612.896 2.24809 0.446473 0
M  V30 6300 C 613.896 1.26133 0.997347 0
M  V30 6301 O 615.086 1.50297 0.880714 0
M  V30 6302 C 612.218 2.99649 1.62553 0
M  V30 6303 H 613.411 2.99343 -0.182677 0
M  V30 6304 H 610.964 1.55736 -0.132618 0
M  V30 6305 H 611.699 2.29395 2.29235 0
M  V30 6306 H 611.484 3.72066 1.23732 0
M  V30 6307 H 612.974 3.54246 2.21133 0
M  V30 6308 N 613.412 0.11024 1.57214 0
M  V30 6309 C 614.362 -0.854147 2.11396 0
M  V30 6310 C 615.346 -1.23394 1.03261 0
M  V30 6311 O 616.538 -1.20649 1.2951 0
M  V30 6312 C 613.667 -2.10752 2.70995 0
M  V30 6313 C 612.753 -1.75249 3.86198 0
M  V30 6314 N 613.144 -1.10377 4.9361 0
M  V30 6315 C 611.442 -2.04763 3.96217 0
M  V30 6316 C 612.143 -0.938199 5.74084 0
M  V30 6317 N 611.119 -1.46039 5.23616 0
M  V30 6318 H 614.921 -0.348897 2.91822 0
M  V30 6319 H 612.435 -0.0925071 1.62136 0
M  V30 6320 H 614.432 -2.80801 3.0815 0
M  V30 6321 H 613.092 -2.61829 1.9203 0
M  V30 6322 H 614.103 -0.768785 5.12162 0
M  V30 6323 H 610.78 -2.57948 3.28282 0
M  V30 6324 H 612.17 -0.429678 6.70525 0
M  V30 6325 N 614.89 -1.56749 -0.16351 0
M  V30 6326 C 615.8 -2.00255 -1.2221 0
M  V30 6327 C 616.816 -0.915194 -1.47987 0
M  V30 6328 O 617.992 -1.22342 -1.59982 0
M  V30 6329 C 615.057 -2.36035 -2.53946 0
M  V30 6330 C 614.118 -3.58637 -2.35962 0
M  V30 6331 C 613.351 -3.92701 -3.61416 0
M  V30 6332 O 613.574 -3.27632 -4.66919 0
M  V30 6333 O 612.508 -4.86019 -3.55062 0
M  V30 6334 H 616.334 -2.90586 -0.882794 0
M  V30 6335 H 613.919 -1.44721 -0.370978 0
M  V30 6336 H 615.801 -2.59982 -3.31643 0
M  V30 6337 H 614.476 -1.48863 -2.8744 0
M  V30 6338 H 613.383 -3.39898 -1.5627 0
M  V30 6339 H 614.716 -4.46374 -2.0739 0
M  V30 6340 N 616.368 0.432326 -1.51554 0
M  V30 6341 C 617.331 1.50765 -1.72634 0
M  V30 6342 C 618.331 1.49334 -0.596314 0
M  V30 6343 O 619.521 1.51268 -0.863925 0
M  V30 6344 C 616.653 2.90284 -1.7874 0
M  V30 6345 H 617.846 1.33377 -2.68609 0
M  V30 6346 H 615.399 0.661329 -1.4162 0
M  V30 6347 H 616.134 3.13071 -0.845977 0
M  V30 6348 H 615.919 2.92727 -2.6087 0
M  V30 6349 H 617.409 3.68282 -1.96871 0
M  V30 6350 N 617.846 1.41785 0.688094 0
M  V30 6351 C 618.776 1.47 1.8142 0
M  V30 6352 C 619.757 0.327881 1.6691 0
M  V30 6353 O 620.942 0.540362 1.86531 0
M  V30 6354 C 618.072 1.35876 3.19617 0
M  V30 6355 C 617.026 2.47976 3.48844 0
M  V30 6356 C 616.352 2.21915 4.86475 0
M  V30 6357 C 617.652 3.90309 3.47068 0
M  V30 6358 H 619.346 2.41247 1.77314 0
M  V30 6359 H 616.892 1.16116 0.851651 0
M  V30 6360 H 618.845 1.38134 3.98117 0
M  V30 6361 H 617.569 0.38116 3.24368 0
M  V30 6362 H 616.228 2.45013 2.72698 0
M  V30 6363 H 615.876 1.2248 4.8786 0
M  V30 6364 H 615.576 2.97037 5.06994 0
M  V30 6365 H 617.1 2.25901 5.67275 0
M  V30 6366 H 618.514 3.94947 4.1556 0
M  V30 6367 H 616.911 4.65175 3.7912 0
M  V30 6368 H 617.981 4.17927 2.45896 0
M  V30 6369 N 619.324 -0.923095 1.27737 0
M  V30 6370 C 620.735 -1.48626 1.12993 0
M  V30 6371 C 621.086 -1.94142 -0.283439 0
M  V30 6372 O 620.211 -1.81605 -1.17681 0
M  V30 6373 C 620.806 -2.70117 2.04505 0
M  V30 6374 C 619.365 -3.22642 1.93853 0
M  V30 6375 C 618.512 -1.95368 1.96791 0
M  V30 6376 H 621.463 -0.736737 1.40563 0
M  V30 6377 H 621.484 -3.4506 1.60356 0
M  V30 6378 H 620.996 -2.36959 3.07363 0
M  V30 6379 H 619.097 -3.60549 0.939968 0
M  V30 6380 H 619.21 -3.88525 2.80331 0
M  V30 6381 H 617.574 -2.12061 1.41076 0
M  V30 6382 H 618.357 -1.64517 3.01312 0
M  V30 6383 N 620.802 -1.09834 -1.13024 0
M  V30 6384 C 621.75 -0.736283 -2.20639 0
M  V30 6385 C 622.744 0.264725 -1.67319 0
M  V30 6386 O 623.95 0.125745 -1.7956 0
M  V30 6387 H 620.325 -0.220136 -0.719058 0
M  V30 6388 H 622.296 -1.65295 -2.48436 0
M  V30 6389 C 621.045 -0.177544 -3.47246 0
M  V30 6390 H 620.368 -0.939009 -3.88616 0
M  V30 6391 H 621.808 0.0378007 -4.23983 0
M  V30 6392 C 620.267 1.08824 -3.1884 0
M  V30 6393 O 620.797 2.1708 -3.37993 0
M  V30 6394 N 619.003 1.00442 -2.7269 0
M  V30 6395 H 618.55 0.123383 -2.57304 0
M  V30 6396 H 618.508 1.85206 -2.5406 0
M  V30 6397 N 622.28 1.30327 -0.886154 0
M  V30 6398 C 623.696 1.48676 -0.580323 0
M  V30 6399 C 623.896 1.81189 0.881639 0
M  V30 6400 O 622.952 1.90021 1.66278 0
M  V30 6401 C 624.265 2.60932 -1.49449 0
M  V30 6402 C 625.813 2.74812 -1.49824 0
M  V30 6403 C 626.288 3.90183 -2.39836 0
M  V30 6404 N 627.779 3.97495 -2.37806 0
M  V30 6405 C 628.514 4.86078 -3.04165 0
M  V30 6406 N 628.01 5.79448 -3.79753 0
M  V30 6407 N 629.803 4.79456 -2.93391 0
M  V30 6408 H 621.954 1.07495 -1.8319 0
M  V30 6409 H 624.217 0.532661 -0.784204 0
M  V30 6410 H 623.923 2.43731 -2.5355 0
M  V30 6411 H 623.797 3.57437 -1.20494 0
M  V30 6412 H 626.184 2.91418 -0.464731 0
M  V30 6413 H 626.265 1.78924 -1.82811 0
M  V30 6414 H 625.909 3.74334 -3.43273 0
M  V30 6415 H 625.839 4.85411 -2.04166 0
M  V30 6416 H 628.33 3.30703 -1.82877 0
M  V30 6417 H 628.643 6.43805 -4.27475 0
M  V30 6418 H 626.988 5.79376 -3.8386 0
M  V30 6419 H 630.179 4.05494 -2.33864 0
M  V30 6420 H 630.352 5.48283 -3.45383 0
M  V30 6421 N 623.758 0.647228 1.43697 0
M  V30 6422 C 625.004 0.158422 2.0218 0
M  V30 6423 C 625.337 -1.22233 1.50907 0
M  V30 6424 O 624.612 -1.81478 0.699702 0
M  V30 6425 C 624.895 0.1627 3.59732 0
M  V30 6426 C 624.748 1.57694 4.21251 0
M  V30 6427 C 626.067 -0.504138 4.37203 0
M  V30 6428 H 623.186 0.059042 0.734631 0
M  V30 6429 H 625.828 0.826772 1.71069 0
M  V30 6430 H 623.978 -0.406414 3.86368 0
M  V30 6431 H 625.65 2.19618 4.05667 0
M  V30 6432 H 623.893 2.12603 3.7813 0
M  V30 6433 H 624.564 1.53183 5.3032 0
M  V30 6434 H 627.04 -0.0199841 4.16095 0
M  V30 6435 H 625.916 -0.470394 5.46881 0
M  V30 6436 H 626.177 -1.57726 4.13007 0
M  V30 6437 N 625.236 -1.5273 0.388769 0
M  V30 6438 C 626.464 -2.05992 -0.193677 0
M  V30 6439 C 626.879 -1.26053 -1.40557 0
M  V30 6440 O 626.236 -0.307049 -1.79898 0
M  V30 6441 C 626.287 -3.57068 -0.564321 0
M  V30 6442 O 626.008 -4.3398 0.599422 0
M  V30 6443 C 627.509 -4.26674 -1.20269 0
M  V30 6444 H 624.729 -0.670358 -0.0293445 0
M  V30 6445 H 627.273 -1.96857 0.553844 0
M  V30 6446 H 625.428 -3.66277 -1.26174 0
M  V30 6447 H 625.842 -5.2367 0.294895 0
M  V30 6448 H 627.316 -5.33625 -1.4124 0
M  V30 6449 H 627.793 -3.81854 -2.16989 0
M  V30 6450 H 628.399 -4.2178 -0.546047 0
M  V30 6451 N 626.714 -0.118576 -1.57153 0
M  V30 6452 C 627.624 0.845484 -2.18835 0
M  V30 6453 C 628.64 1.29299 -1.16438 0
M  V30 6454 O 629.816 1.35607 -1.48905 0
M  V30 6455 C 626.881 2.07795 -2.77529 0
M  V30 6456 C 625.942 1.6824 -3.9496 0
M  V30 6457 C 625.175 2.85612 -4.50845 0
M  V30 6458 O 625.398 4.01025 -4.05629 0
M  V30 6459 O 624.332 2.62721 -5.41536 0
M  V30 6460 H 628.158 0.350568 -3.0167 0
M  V30 6461 H 625.743 0.107013 -1.49016 0
M  V30 6462 H 627.625 2.79978 -3.14945 0
M  V30 6463 H 626.3 2.56294 -1.97725 0
M  V30 6464 H 625.207 0.931663 -3.62313 0
M  V30 6465 H 626.54 1.24484 -4.76198 0
M  V30 6466 N 628.193 1.56834 0.155195 0
M  V30 6467 C 629.609 1.51315 0.50755 0
M  V30 6468 C 629.809 0.825614 1.83809 0
M  V30 6469 O 628.865 0.39271 2.49427 0
M  V30 6470 C 630.178 2.96074 0.52542 0
M  V30 6471 C 631.726 3.06968 0.611505 0
M  V30 6472 C 632.201 4.53218 0.660115 0
M  V30 6473 N 633.692 4.5753 0.722564 0
M  V30 6474 C 634.427 5.68056 0.781023 0
M  V30 6475 N 633.923 6.88173 0.799327 0
M  V30 6476 N 635.716 5.56068 0.821278 0
M  V30 6477 H 627.867 1.9993 -0.717063 0
M  V30 6478 H 630.13 0.911507 -0.260496 0
M  V30 6479 H 629.836 3.49599 -0.383875 0
M  V30 6480 H 629.71 3.51587 1.36624 0
M  V30 6481 H 632.097 2.53468 1.51122 0
M  V30 6482 H 632.178 2.54513 -0.256306 0
M  V30 6483 H 631.822 5.07354 -0.23541 0
M  V30 6484 H 631.752 5.03447 1.5443 0
M  V30 6485 H 634.243 3.71054 0.716049 0
M  V30 6486 H 634.556 7.6816 0.845553 0
M  V30 6487 H 632.901 6.90751 0.767337 0
M  V30 6488 H 636.092 4.61142 0.804091 0
M  V30 6489 H 636.265 6.42223 0.863372 0
M  V30 6490 N 629.671 -0.424282 1.51781 0
M  V30 6491 C 630.899 -1.1947 1.68921 0
M  V30 6492 C 631.314 -1.84683 0.39213 0
M  V30 6493 O 630.671 -1.71261 -0.630554 0
M  V30 6494 C 630.722 -2.26909 2.81416 0
M  V30 6495 O 630.443 -1.64361 4.061 0
M  V30 6496 C 631.944 -3.16945 3.09937 0
M  V30 6497 H 629.164 -0.359591 0.566511 0
M  V30 6498 H 631.708 -0.501139 1.98265 0
M  V30 6499 H 629.863 -2.91959 2.54635 0
M  V30 6500 H 630.277 -2.35468 4.68674 0
M  V30 6501 H 631.751 -3.88437 3.922 0
M  V30 6502 H 632.228 -3.78451 2.22871 0
M  V30 6503 H 632.834 -2.57581 3.38426 0
M  V30 6504 N 631.149 -1.42148 -0.680565 0
M  V30 6505 C 632.395 -1.42521 -1.44277 0
M  V30 6506 C 632.728 -0.0393718 -1.9416 0
M  V30 6507 O 632.003 0.935425 -1.70529 0
M  V30 6508 C 632.286 -2.44475 -2.64394 0
M  V30 6509 C 632.139 -3.92226 -2.20179 0
M  V30 6510 C 633.458 -2.43491 -3.66606 0
M  V30 6511 H 630.577 -0.518985 -0.523282 0
M  V30 6512 H 633.219 -1.73524 -0.773914 0
M  V30 6513 H 631.369 -2.18168 -3.21458 0
M  V30 6514 H 633.041 -4.29493 -1.68327 0
M  V30 6515 H 631.284 -4.0637 -1.5181 0
M  V30 6516 H 631.955 -4.59133 -3.06433 0
M  V30 6517 H 634.431 -2.66872 -3.19247 0
M  V30 6518 H 633.307 -3.16816 -4.4824 0
M  V30 6519 H 633.568 -1.45881 -4.17338 0
M  V30 6520 N 632.627 0.916307 -1.28225 0
M  V30 6521 C 633.904 1.64429 -1.05936 0
M  V30 6522 C 634.284 2.07234 0.402139 0
M  V30 6523 O 633.632 1.81535 1.3877 0
M  V30 6524 C 633.842 2.83773 -2.03159 0
M  V30 6525 C 635.19 3.54852 -2.33164 0
M  V30 6526 O 636.214 2.93918 -2.01223 0
M  V30 6527 O 635.073 4.64663 -2.87664 0
M  V30 6528 H 632.167 0.721221 -0.404683 0
M  V30 6529 H 634.713 0.965838 -1.39534 0
M  V30 6530 H 633.485 2.49217 -3.01673 0
M  V30 6531 H 633.108 3.59333 -1.70192 0
M  V30 6532 N 634.105 1.10431 1.1244 0
M  V30 6533 C 635.052 0.753103 2.18167 0
M  V30 6534 C 636.022 -0.270549 1.63882 0
M  V30 6535 O 637.207 -0.149837 1.90211 0
M  V30 6536 C 634.347 0.191046 3.44571 0
M  V30 6537 C 633.46 1.26999 4.12911 0
M  V30 6538 C 632.595 0.669586 5.26963 0
M  V30 6539 C 631.634 1.72912 5.87169 0
M  V30 6540 N 630.771 1.14898 6.92635 0
M  V30 6541 H 635.611 1.65892 2.47556 0
M  V30 6542 H 633.148 0.828631 1.21541 0
M  V30 6543 H 635.106 -0.152712 4.1692 0
M  V30 6544 H 633.736 -0.677997 3.15599 0
M  V30 6545 H 632.788 1.73087 3.3874 0
M  V30 6546 H 634.1 2.07204 4.53727 0
M  V30 6547 H 633.254 0.275274 6.06075 0
M  V30 6548 H 631.993 -0.163895 4.87425 0
M  V30 6549 H 630.998 2.13286 5.06744 0
M  V30 6550 H 632.223 2.56544 6.28778 0
M  V30 6551 H 630.169 0.336956 6.55134 0
M  V30 6552 H 630.086 1.88786 7.32049 0
M  V30 6553 H 631.354 0.78121 7.75576 0
M  V30 6554 N 635.583 -1.29855 0.893053 0
M  V30 6555 C 636.808 -2.00512 0.530066 0
M  V30 6556 C 637.233 -1.66446 -0.876199 0
M  V30 6557 O 636.591 -0.885446 -1.58207 0
M  V30 6558 C 636.639 -3.53308 0.721505 0
M  V30 6559 O 635.743 -4.11764 -0.228994 0
M  V30 6560 H 635.084 -0.630617 0.207891 0
M  V30 6561 H 637.614 -1.6551 1.20282 0
M  V30 6562 H 637.624 -4.03206 0.623599 0
M  V30 6563 H 636.299 -3.77439 1.74678 0
M  V30 6564 H 634.876 -3.72805 -0.0841034 0
M  V30 6565 N 637.061 -0.65484 -1.43351 0
M  V30 6566 C 638.289 -0.176685 -2.06144 0
M  V30 6567 C 638.704 1.15831 -1.49093 0
M  V30 6568 O 638.061 1.71542 -0.622868 0
M  V30 6569 C 638.112 -0.0813326 -3.61408 0
M  V30 6570 O 637.833 -1.36355 -4.1634 0
M  V30 6571 C 639.334 0.422706 -4.4128 0
M  V30 6572 H 636.554 -0.0906429 -0.66485 0
M  V30 6573 H 639.098 -0.895945 -1.83829 0
M  V30 6574 H 637.253 0.588496 -3.82904 0
M  V30 6575 H 637.667 -1.22381 -5.10023 0
M  V30 6576 H 639.141 0.438375 -5.50257 0
M  V30 6577 H 639.618 1.45432 -4.14423 0
M  V30 6578 H 640.224 -0.214687 -4.24758 0
M  V30 6579 N 638.539 1.52521 -0.396863 0
M  V30 6580 C 639.787 2.01274 0.182536 0
M  V30 6581 C 640.108 1.28485 1.46685 0
M  V30 6582 O 639.378 0.407134 1.91623 0
M  V30 6583 H 637.958 0.743671 0.0704442 0
M  V30 6584 H 640.62 1.87547 -0.530289 0
M  V30 6585 H 639.716 3.09687 0.387385 0
M  V30 6586 N 640.017 0.126909 1.57088 0
M  V30 6587 C 640.964 -0.82036 2.15728 0
M  V30 6588 C 641.934 -1.25811 1.08447 0
M  V30 6589 O 643.119 -1.33422 1.36393 0
M  V30 6590 C 640.259 -2.06199 2.76724 0
M  V30 6591 C 639.372 -1.67188 3.98337 0
M  V30 6592 C 638.507 -2.86378 4.47393 0
M  V30 6593 C 637.546 -2.43644 5.61519 0
M  V30 6594 N 636.683 -3.55775 6.05284 0
M  V30 6595 H 641.523 -0.313472 2.96347 0
M  V30 6596 H 639.06 -0.14303 1.46403 0
M  V30 6597 H 641.018 -2.78959 3.10222 0
M  V30 6598 H 639.648 -2.54333 1.98782 0
M  V30 6599 H 638.7 -0.842714 3.70948 0
M  V30 6600 H 640.012 -1.31789 4.81075 0
M  V30 6601 H 639.166 -3.67353 4.82842 0
M  V30 6602 H 637.905 -3.25009 3.63621 0
M  V30 6603 H 636.91 -1.61104 5.25667 0
M  V30 6604 H 638.135 -2.06122 6.47063 0
M  V30 6605 H 636.081 -3.94065 5.24451 0
M  V30 6606 H 635.998 -3.24325 6.82898 0
M  V30 6607 H 637.266 -4.37166 6.45373 0
M  V30 6608 N 641.495 -1.56914 -0.146875 0
M  V30 6609 C 642.906 -1.72799 -0.706928 0
M  V30 6610 C 643.257 -0.741329 -1.81656 0
M  V30 6611 O 642.382 0.0920162 -2.16204 0
M  V30 6612 C 642.977 -3.13317 -1.28911 0
M  V30 6613 C 641.536 -3.30803 -1.79573 0
M  V30 6614 C 640.683 -2.68725 -0.684252 0
M  V30 6615 H 643.634 -1.58504 0.0787931 0
M  V30 6616 H 643.655 -3.13323 -2.15891 0
M  V30 6617 H 643.167 -3.85104 -0.481284 0
M  V30 6618 H 641.268 -2.64012 -2.62923 0
M  V30 6619 H 641.381 -4.38754 -1.92436 0
M  V30 6620 H 639.745 -2.29196 -1.11091 0
M  V30 6621 H 640.528 -3.43117 0.112134 0
M  V30 6622 N 642.974 0.416227 -1.52004 0
M  V30 6623 C 644.202 1.18573 -1.69553 0
M  V30 6624 C 644.617 1.84472 -0.401919 0
M  V30 6625 O 643.974 1.71593 0.621463 0
M  V30 6626 C 644.025 2.25413 -2.82615 0
M  V30 6627 O 643.746 1.62205 -4.06966 0
M  V30 6628 C 645.247 3.15297 -3.11613 0
M  V30 6629 H 642.467 0.356582 -0.56841 0
M  V30 6630 H 645.011 0.490618 -1.98528 0
M  V30 6631 H 643.166 2.90604 -2.56179 0
M  V30 6632 H 643.58 2.3298 -4.69916 0
M  V30 6633 H 645.054 3.86351 -3.94255 0
M  V30 6634 H 645.531 3.77264 -2.24874 0
M  V30 6635 H 646.137 2.55783 -3.39787 0
M  V30 6636 N 644.452 1.42507 0.673017 0
M  V30 6637 C 645.382 1.48916 1.79851 0
M  V30 6638 C 646.363 0.345566 1.66553 0
M  V30 6639 O 647.548 0.560116 1.85947 0
M  V30 6640 C 644.678 1.39258 3.18158 0
M  V30 6641 C 643.632 2.51662 3.46194 0
M  V30 6642 C 642.958 2.27062 4.84094 0
M  V30 6643 C 644.258 3.93968 3.42909 0
M  V30 6644 H 645.952 2.43114 1.74745 0
M  V30 6645 H 643.498 1.17013 0.839288 0
M  V30 6646 H 645.451 1.42349 3.96629 0
M  V30 6647 H 644.175 0.415542 3.23946 0
M  V30 6648 H 642.834 2.47891 2.70084 0
M  V30 6649 H 642.482 1.27648 4.86534 0
M  V30 6650 H 642.182 3.02398 5.03815 0
M  V30 6651 H 643.706 2.31905 5.64847 0
M  V30 6652 H 645.12 3.99332 4.11347 0
M  V30 6653 H 643.517 4.6917 3.74165 0
M  V30 6654 H 644.587 4.20512 2.41449 0
M  V30 6655 N 645.93 -0.909495 1.28709 0
M  V30 6656 C 647.16 -1.69027 1.188 0
M  V30 6657 C 647.568 -1.87469 -0.255329 0
M  V30 6658 O 646.911 -1.40458 -1.18394 0
M  V30 6659 C 646.973 -3.10064 1.81936 0
M  V30 6660 C 646.637 -3.14891 3.31199 0
M  V30 6661 C 647.634 -2.95768 4.27571 0
M  V30 6662 C 645.319 -3.37269 3.7223 0
M  V30 6663 C 647.313 -2.98942 5.6295 0
M  V30 6664 C 645 -3.40074 5.07733 0
M  V30 6665 C 645.998 -3.20932 6.02903 0
M  V30 6666 O 645.686 -3.23507 7.35934 0
M  V30 6667 H 645.418 -0.535014 0.413203 0
M  V30 6668 H 647.972 -1.14645 1.70428 0
M  V30 6669 H 646.202 -3.66005 1.24808 0
M  V30 6670 H 647.891 -3.70185 1.66486 0
M  V30 6671 H 648.657 -2.78302 3.97206 0
M  V30 6672 H 644.536 -3.51212 2.98615 0
M  V30 6673 H 648.08 -2.83919 6.37209 0
M  V30 6674 H 643.977 -3.5707 5.37747 0
M  V30 6675 H 644.745 -3.3984 7.44615 0
M  V30 6676 N 647.408 -1.11026 -1.11852 0
M  V30 6677 C 648.356 -0.759643 -2.19846 0
M  V30 6678 C 649.35 0.246964 -1.6759 0
M  V30 6679 O 650.556 0.106693 -1.79684 0
M  V30 6680 H 646.931 -0.22775 -0.716683 0
M  V30 6681 H 648.902 -1.6792 -2.46669 0
M  V30 6682 C 647.651 -0.214364 -3.47039 0
M  V30 6683 H 646.974 -0.980175 -3.87599 0
M  V30 6684 H 648.414 -0.00717047 -4.23999 0
M  V30 6685 C 646.873 1.05436 -3.19976 0
M  V30 6686 O 647.403 2.13483 -3.40276 0
M  V30 6687 N 645.609 0.975436 -2.7374 0
M  V30 6688 H 645.156 0.0960853 -2.57421 0
M  V30 6689 H 645.114 1.82501 -2.5601 0
M  V30 6690 N 648.886 1.2938 -0.899927 0
M  V30 6691 C 650.132 1.9584 -0.526742 0
M  V30 6692 C 650.465 1.70774 0.924651 0
M  V30 6693 O 649.74 1.02084 1.65557 0
M  V30 6694 C 650.023 3.50638 -0.820062 0
M  V30 6695 C 649.876 3.85161 -2.32317 0
M  V30 6696 C 651.195 4.3903 -0.30671 0
M  V30 6697 H 648.314 0.711322 -0.192848 0
M  V30 6698 H 650.956 1.52992 -1.12665 0
M  V30 6699 H 649.106 3.87265 -0.309491 0
M  V30 6700 H 650.778 3.58477 -2.9033 0
M  V30 6701 H 649.021 3.32696 -2.78381 0
M  V30 6702 H 649.692 4.93204 -2.47898 0
M  V30 6703 H 652.168 4.09396 -0.743908 0
M  V30 6704 H 651.044 5.46226 -0.541144 0
M  V30 6705 H 651.305 4.34937 0.792588 0
M  V30 6706 N 650.364 0.662433 1.43002 0
M  V30 6707 C 651.589 0.186003 2.06564 0
M  V30 6708 C 652.014 -1.14314 1.49379 0
M  V30 6709 O 651.372 -1.70824 0.607346 0
M  V30 6710 C 651.42 0.118269 3.60406 0
M  V30 6711 O 650.524 -0.916859 4.02079 0
M  V30 6712 H 649.865 0.0990981 0.656563 0
M  V30 6713 H 652.395 0.907958 1.8335 0
M  V30 6714 H 652.405 -0.0619981 4.07953 0
M  V30 6715 H 651.08 1.08849 4.01403 0
M  V30 6716 H 649.657 -0.708635 3.66105 0
M  V30 6717 N 651.842 -1.52309 0.404946 0
M  V30 6718 C 652.772 -2.29805 -0.41376 0
M  V30 6719 C 653.753 -1.3384 -1.0498 0
M  V30 6720 O 654.938 -1.62745 -1.05961 0
M  V30 6721 C 652.068 -3.11639 -1.53292 0
M  V30 6722 C 651.022 -4.15616 -1.02211 0
M  V30 6723 C 650.348 -4.8577 -2.23455 0
M  V30 6724 C 651.648 -5.2224 -0.0790725 0
M  V30 6725 H 653.342 -2.98493 0.232878 0
M  V30 6726 H 650.888 -1.43552 0.113441 0
M  V30 6727 H 652.841 -3.64618 -2.11262 0
M  V30 6728 H 651.565 -2.40712 -2.20738 0
M  V30 6729 H 650.224 -3.63641 -0.46484 0
M  V30 6730 H 649.872 -4.11376 -2.89445 0
M  V30 6731 H 649.572 -5.56058 -1.89929 0
M  V30 6732 H 651.096 -5.4156 -2.82038 0
M  V30 6733 H 652.51 -5.70485 -0.567438 0
M  V30 6734 H 650.907 -5.99867 0.167167 0
M  V30 6735 H 651.977 -4.77078 0.867447 0
M  V30 6736 N 653.32 -0.135238 -1.57019 0
M  V30 6737 C 654.566 0.519563 -1.96032 0
M  V30 6738 C 654.899 1.65284 -1.01955 0
M  V30 6739 O 654.174 1.94408 -0.059727 0
M  V30 6740 C 654.457 1.0369 -3.44848 0
M  V30 6741 C 654.31 -0.0940754 -4.49702 0
M  V30 6742 C 655.629 1.92254 -3.95887 0
M  V30 6743 H 652.748 0.18739 -0.712779 0
M  V30 6744 H 655.39 -0.214086 -1.8879 0
M  V30 6745 H 653.54 1.66209 -3.5115 0
M  V30 6746 H 655.212 -0.73 -4.55487 0
M  V30 6747 H 653.455 -0.754924 -4.27181 0
M  V30 6748 H 654.126 0.309419 -5.51132 0
M  V30 6749 H 656.602 1.39581 -3.9199 0
M  V30 6750 H 655.478 2.25364 -5.00502 0
M  V30 6751 H 655.739 2.85513 -3.37543 0
M  V30 6752 N 654.798 1.5699 0.138552 0
M  V30 6753 C 655.731 1.94064 1.2006 0
M  V30 6754 C 656.709 0.807601 1.41126 0
M  V30 6755 O 657.893 1.06399 1.556 0
M  V30 6756 C 655.02 2.21999 2.55801 0
M  V30 6757 C 654.066 3.44617 2.5128 0
M  V30 6758 S 654.899 4.97888 1.97149 0
M  V30 6759 C 656.055 5.28954 3.34602 0
M  V30 6760 H 656.288 2.83843 0.884337 0
M  V30 6761 H 653.821 1.50507 0.344517 0
M  V30 6762 H 655.779 2.38772 3.33914 0
M  V30 6763 H 654.44 1.32869 2.84613 0
M  V30 6764 H 653.633 3.61466 3.51224 0
M  V30 6765 H 653.235 3.27129 1.8128 0
M  V30 6766 H 655.527 5.22938 4.30745 0
M  V30 6767 H 656.47 6.30346 3.22598 0
M  V30 6768 H 656.878 4.56455 3.32128 0
M  V30 6769 N 656.276 -0.40816 1.52223 0
M  V30 6770 C 657.501 -1.18127 1.70472 0
M  V30 6771 C 657.926 -1.83491 0.41384 0
M  V30 6772 O 657.284 -1.70047 -0.628778 0
M  V30 6773 C 657.332 -2.21935 2.84213 0
M  V30 6774 O 656.436 -3.28099 2.4985 0
M  V30 6775 H 655.777 -0.344781 0.56747 0
M  V30 6776 H 658.307 -0.478328 1.9893 0
M  V30 6777 H 658.317 -2.66248 3.09153 0
M  V30 6778 H 656.992 -1.73744 3.7787 0
M  V30 6779 H 655.569 -2.89058 2.35584 0
M  V30 6780 N 657.755 -1.42862 -0.66545 0
M  V30 6781 C 659.032 -1.3431 -1.42197 0
M  V30 6782 C 659.412 0.0150265 -2.11095 0
M  V30 6783 O 658.76 1.03101 -2.03918 0
M  V30 6784 C 658.97 -2.51783 -2.41674 0
M  V30 6785 C 660.318 -2.94321 -3.0604 0
M  V30 6786 O 661.342 -2.51741 -2.52001 0
M  V30 6787 O 660.201 -3.68047 -4.03985 0
M  V30 6788 H 657.295 -0.530159 -0.634713 0
M  V30 6789 H 659.841 -1.54888 -0.693386 0
M  V30 6790 H 658.613 -3.42282 -1.89627 0
M  V30 6791 H 658.236 -2.33241 -3.22001 0
M  V30 6792 N 659.233 0.902656 -1.29189 0
M  V30 6793 C 660.461 1.68639 -1.19869 0
M  V30 6794 C 660.876 1.87254 0.241121 0
M  V30 6795 O 660.233 1.40745 1.16177 0
M  V30 6796 C 660.284 3.07251 -1.90471 0
M  V30 6797 O 660.005 2.89488 -3.28829 0
M  V30 6798 C 661.506 4.01653 -1.8759 0
M  V30 6799 H 658.726 0.526802 -0.415596 0
M  V30 6800 H 661.27 1.12901 -1.7051 0
M  V30 6801 H 659.425 3.59774 -1.43672 0
M  V30 6802 H 659.839 3.77296 -3.64346 0
M  V30 6803 H 661.313 4.96339 -2.4156 0
M  V30 6804 H 661.79 4.30881 -0.850756 0
M  V30 6805 H 662.396 3.55061 -2.34119 0
M  V30 6806 N 660.711 1.11618 1.11262 0
M  V30 6807 C 661.674 0.779447 2.15539 0
M  V30 6808 C 662.674 -0.202081 1.59525 0
M  V30 6809 O 663.864 0.0226356 1.74185 0
M  V30 6810 C 660.996 0.15674 3.40539 0
M  V30 6811 H 662.189 1.70324 2.4684 0
M  V30 6812 H 659.742 0.918298 1.26479 0
M  V30 6813 H 660.477 -0.777186 3.1485 0
M  V30 6814 H 660.262 0.863308 3.82478 0
M  V30 6815 H 661.752 -0.062661 4.17553 0
M  V30 6816 N 662.189 -1.289 0.906776 0
M  V30 6817 C 663.437 -1.94883 0.535266 0
M  V30 6818 C 663.758 -1.71784 -0.922791 0
M  V30 6819 O 663.028 -1.05359 -1.65156 0
M  V30 6820 H 661.608 -0.721109 0.194962 0
M  V30 6821 H 664.27 -1.57018 1.15461 0
M  V30 6822 H 663.366 -3.03591 0.723821 0
M  V30 6823 N 663.667 -0.670007 -1.42649 0
M  V30 6824 C 664.895 -0.19854 -2.05945 0
M  V30 6825 C 665.31 1.14243 -1.50313 0
M  V30 6826 O 664.667 1.70872 -0.641027 0
M  V30 6827 C 664.718 -0.11966 -3.61302 0
M  V30 6828 O 664.439 -1.40764 -4.1487 0
M  V30 6829 C 665.94 0.375878 -4.41704 0
M  V30 6830 H 663.16 -0.0976894 -0.663851 0
M  V30 6831 H 665.704 -0.915392 -1.82868 0
M  V30 6832 H 663.859 0.547851 -3.83507 0
M  V30 6833 H 664.273 -1.27784 -5.08696 0
M  V30 6834 H 665.747 0.379988 -5.50691 0
M  V30 6835 H 666.224 1.41028 -4.15942 0
M  V30 6836 H 666.83 -0.259727 -4.24506 0
M  V30 6837 N 665.145 1.52092 -0.413018 0
M  V30 6838 C 666.385 2.03765 0.160975 0
M  V30 6839 C 666.749 1.29174 1.4205 0
M  V30 6840 O 667.95 1.71093 2.07318 0
M  V30 6841 C 666.221 3.55167 0.398871 0
M  V30 6842 S 667.78 4.28619 0.939755 0
M  V30 6843 H 664.598 0.709685 0.0432281 0
M  V30 6844 H 667.2 1.87102 -0.566831 0
M  V30 6845 H 665.904 4.07034 -0.524544 0
M  V30 6846 H 665.435 3.7608 1.15444 0
M  V30 6847 H 667.45 4.43773 2.21991 0
M  V30 6848 N 666.623 0.143563 1.56945 0
M  V30 6849 C 667.853 -0.514699 2.00086 0
M  V30 6850 C 668.261 -1.59184 1.0226 0
M  V30 6851 O 667.604 -1.83697 0.0110514 0
M  V30 6852 C 667.666 -1.17778 3.39659 0
M  V30 6853 C 667.33 -0.245657 4.56339 0
M  V30 6854 C 668.327 0.525343 5.17239 0
M  V30 6855 C 666.012 -0.149564 5.02077 0
M  V30 6856 C 668.006 1.37992 6.22284 0
M  V30 6857 C 665.693 0.708621 6.06978 0
M  V30 6858 C 666.691 1.47197 6.6695 0
M  V30 6859 O 666.379 2.31586 7.6982 0
M  V30 6860 H 666.111 -0.138789 0.661599 0
M  V30 6861 H 668.665 0.234098 2.04062 0
M  V30 6862 H 666.895 -1.97415 3.32512 0
M  V30 6863 H 668.584 -1.73542 3.6693 0
M  V30 6864 H 669.35 0.461118 4.82803 0
M  V30 6865 H 665.229 -0.733457 4.55128 0
M  V30 6866 H 668.773 1.97621 6.69023 0
M  V30 6867 H 664.67 0.77415 6.40841 0
M  V30 6868 H 665.438 2.24796 7.87025 0
M  V30 6869 O 668.14 -1.61499 0.00487092 0
M  V30 6870 H 668.831 -1.83807 -0.611124 0
M  V30 END ATOM
M  V30 BEGIN BOND
M  V30 END BOND
M  V30 END CTAB
M  END
$$$$
