drugbank_target|P01860 Immunoglobulin heavy constant gamma 3 (DB15258)
 OpenBabel12092121283D

  0  0  0     0  0            999 V3000
M  V30 BEGIN CTAB
M  V30 COUNTS 5750 5837 0 0 0
M  V30 BEGIN ATOM
M  V30 1 H -0.908 1.98254 -0.117106 0
M  V30 2 N 0 1.576 0 0
M  V30 3 C 0.963 2.07369 0.976253 0
M  V30 4 C 1.963 0.98309 1.27248 0
M  V30 5 O 3.153 1.24574 1.21766 0
M  V30 6 C 0.285 2.51514 2.30116 0
M  V30 7 H 1.478 2.94892 0.545759 0
M  V30 8 H -0.969 1.54328 0.247471 0
M  V30 9 H -0.234 1.67234 2.77855 0
M  V30 10 H -0.449 3.31163 2.09937 0
M  V30 11 H 1.041 2.90345 3.00149 0
M  V30 12 N 1.4781 -0.272755 1.55222 0
M  V30 13 C 2.7031 -1.02683 1.80197 0
M  V30 14 C 3.1281 -1.79142 0.573551 0
M  V30 15 O 2.4861 -1.74917 -0.476849 0
M  V30 16 C 2.5341 -1.9609 3.02624 0
M  V30 17 O 1.6381 -3.04863 2.77727 0
M  V30 18 H 0.9791 -0.293557 0.595584 0
M  V30 19 H 3.5091 -0.30159 2.02365 0
M  V30 20 H 3.5191 -2.38039 3.31363 0
M  V30 21 H 2.1941 -1.39851 3.91682 0
M  V30 22 H 0.7711 -2.67228 2.60084 0
M  V30 23 N 2.9562 -1.48159 -0.537278 0
M  V30 24 C 4.1842 -1.59454 -1.31841 0
M  V30 25 C 4.5992 -0.252065 -1.8711 0
M  V30 26 O 3.9562 0.757621 -1.66031 0
M  V30 27 C 4.0072 -2.63546 -2.47439 0
M  V30 28 O 3.7282 -3.92583 -1.94449 0
M  V30 29 C 5.2292 -2.85212 -3.39366 0
M  V30 30 H 2.4492 -0.53785 -0.401196 0
M  V30 31 H 4.9932 -1.93932 -0.648891 0
M  V30 32 H 3.1482 -2.31946 -3.1029 0
M  V30 33 H 3.5622 -4.49629 -2.70063 0
M  V30 34 H 5.0362 -3.61863 -4.16844 0
M  V30 35 H 5.5132 -1.93765 -3.94147 0
M  V30 36 H 6.1192 -3.18086 -2.82314 0
M  V30 37 N 4.4343 0.785586 -1.36625 0
M  V30 38 C 5.3813 1.89838 -1.31264 0
M  V30 39 C 6.3513 1.65115 -0.180633 0
M  V30 40 O 7.5363 1.87222 -0.36777 0
M  V30 41 C 4.6763 3.26706 -1.11163 0
M  V30 42 C 3.7893 3.63476 -2.33472 0
M  V30 43 C 2.9243 4.89481 -2.06353 0
M  V30 44 C 1.9633 5.18941 -3.24602 0
M  V30 45 N 1.1003 6.36131 -2.97123 0
M  V30 46 H 5.9403 1.93756 -2.26413 0
M  V30 47 H 3.4773 0.947454 -1.12524 0
M  V30 48 H 5.4353 4.05639 -0.975337 0
M  V30 49 H 4.0653 3.222 -0.196674 0
M  V30 50 H 3.1173 2.79636 -2.57891 0
M  V30 51 H 4.4293 3.81193 -3.21704 0
M  V30 52 H 3.5833 5.76288 -1.89675 0
M  V30 53 H 2.3223 4.73841 -1.15437 0
M  V30 54 H 1.3273 4.30615 -3.41834 0
M  V30 55 H 2.5523 5.36498 -4.16349 0
M  V30 56 H 0.4983 6.21875 -2.08823 0
M  V30 57 H 0.4153 6.54198 -3.78894 0
M  V30 58 H 1.6833 7.2591 -2.84033 0
M  V30 59 N 5.9124 1.20967 1.01018 0
M  V30 60 C 7.1604 1.02172 1.74371 0
M  V30 61 C 7.4814 -0.446414 1.89821 0
M  V30 62 O 6.7514 -1.32234 1.44537 0
M  V30 63 H 5.3314 0.375066 0.646014 0
M  V30 64 H 7.9934 1.52187 1.21758 0
M  V30 65 H 7.0894 1.48538 2.74487 0
M  V30 66 N 7.3905 -1.2043 1.01659 0
M  V30 67 C 8.8015 -1.71517 0.737482 0
M  V30 68 C 9.1525 -1.81547 -0.743973 0
M  V30 69 O 8.2775 -1.47803 -1.58061 0
M  V30 70 C 8.8725 -3.11515 1.33206 0
M  V30 71 C 7.4315 -3.59912 1.10183 0
M  V30 72 C 6.5785 -2.37116 1.43776 0
M  V30 73 H 9.5295 -1.05444 1.18606 0
M  V30 74 H 9.5505 -3.73575 0.722636 0
M  V30 75 H 9.0625 -3.04182 2.41028 0
M  V30 76 H 7.1635 -3.72577 0.0412756 0
M  V30 77 H 7.2765 -4.44731 1.78188 0
M  V30 78 H 5.6405 -2.39857 0.856778 0
M  V30 79 H 6.4235 -2.32424 2.52654 0
M  V30 80 N 8.8686 -0.792821 -1.36206 0
M  V30 81 C 10.0936 -0.377701 -2.03932 0
M  V30 82 C 10.5186 0.998947 -1.59382 0
M  V30 83 O 9.8766 1.64421 -0.763903 0
M  V30 84 C 9.9246 -0.453635 -3.57735 0
M  V30 85 O 9.0286 0.538151 -4.08874 0
M  V30 86 H 8.3696 -0.159855 -0.644471 0
M  V30 87 H 10.8996 -1.07488 -1.7409 0
M  V30 88 H 10.9096 -0.318464 -4.06755 0
M  V30 89 H 9.5846 -1.45784 -3.89512 0
M  V30 90 H 8.1616 0.364359 -3.71116 0
M  V30 91 N 10.3467 1.47872 -0.545128 0
M  V30 92 C 11.5927 2.02793 -0.0166104 0
M  V30 93 C 11.9257 1.41987 1.32489 0
M  V30 94 O 11.2007 0.571045 1.85928 0
M  V30 95 C 11.4837 3.59989 0.0893294 0
M  V30 96 C 11.3367 4.3125 -1.27841 0
M  V30 97 C 12.6557 4.32606 0.808724 0
M  V30 98 H 9.7747 0.736962 -0.00751035 0
M  V30 99 H 12.4167 1.76433 -0.705085 0
M  V30 100 H 10.5667 3.82579 0.675681 0
M  V30 101 H 12.2387 4.20035 -1.90704 0
M  V30 102 H 10.4817 3.92076 -1.85632 0
M  V30 103 H 11.1527 5.39736 -1.15713 0
M  V30 104 H 13.6287 4.14936 0.310992 0
M  V30 105 H 12.5047 5.42251 0.851782 0
M  V30 106 H 12.7657 4.00963 1.86229 0
M  V30 107 N 11.8248 0.280983 1.55075 0
M  V30 108 C 13.0718 -0.334115 1.99725 0
M  V30 109 C 13.3998 -1.5542 1.1694 0
M  V30 110 O 12.6548 -1.94361 0.228531 0
M  V30 111 C 12.9538 -0.754656 3.49342 0
M  V30 112 C 12.6198 0.361445 4.49449 0
M  V30 113 C 11.2818 0.667893 4.76542 0
M  V30 114 C 13.6338 1.11322 5.09173 0
M  V30 115 C 10.9618 1.7296 5.60626 0
M  V30 116 C 13.3138 2.1647 5.9441 0
M  V30 117 C 11.9778 2.47742 6.19822 0
M  V30 118 H 11.2478 -0.122261 0.730844 0
M  V30 119 H 13.8948 0.395917 1.87363 0
M  V30 120 H 12.1998 -1.56446 3.5921 0
M  V30 121 H 13.8968 -1.24142 3.813 0
M  V30 122 H 10.4868 0.112481 4.28452 0
M  V30 123 H 14.6708 0.88973 4.8826 0
M  V30 124 H 9.9268 1.97684 5.78559 0
M  V30 125 H 14.1008 2.75193 6.3972 0
M  V30 126 H 11.7278 3.30145 6.84769 0
M  V30 127 N 13.3029 -1.57598 0.00835791 0
M  V30 128 C 14.7139 -1.7892 -0.53333 0
M  V30 129 C 15.0649 -0.916609 -1.73473 0
M  V30 130 O 14.1899 -0.121336 -2.1606 0
M  V30 131 C 14.7849 -3.24488 -0.974313 0
M  V30 132 C 13.3439 -3.46878 -1.46125 0
M  V30 133 C 12.4909 -2.74157 -0.416302 0
M  V30 134 H 15.4419 -1.56958 0.234495 0
M  V30 135 H 15.4629 -3.3306 -1.83988 0
M  V30 136 H 14.9749 -3.87972 -0.099718 0
M  V30 137 H 13.0759 -2.8862 -2.35646 0
M  V30 138 H 13.1889 -4.55572 -1.48295 0
M  V30 139 H 11.5529 -2.39022 -0.87981 0
M  V30 140 H 12.3359 -3.40345 0.44947 0
M  V30 141 N 14.781 0.264519 -1.55364 0
M  V30 142 C 15.711 1.33121 -1.91836 0
M  V30 143 C 16.692 1.51101 -0.781192 0
M  V30 144 O 17.877 1.64003 -1.04003 0
M  V30 145 C 15.007 2.68921 -2.19769 0
M  V30 146 C 13.961 2.65661 -3.35571 0
M  V30 147 C 13.287 4.05093 -3.49004 0
M  V30 148 C 14.587 2.24187 -4.71739 0
M  V30 149 H 16.281 1.02844 -2.81182 0
M  V30 150 H 13.827 0.493286 -1.35287 0
M  V30 151 H 15.78 3.43663 -2.43872 0
M  V30 152 H 14.504 3.00799 -1.27231 0
M  V30 153 H 13.163 1.93377 -3.1145 0
M  V30 154 H 12.811 4.34206 -2.53917 0
M  V30 155 H 12.511 4.03804 -4.26868 0
M  V30 156 H 14.035 4.81561 -3.75408 0
M  V30 157 H 15.449 2.88654 -4.9533 0
M  V30 158 H 13.846 2.34044 -5.52579 0
M  V30 159 H 14.916 1.19327 -4.69988 0
M  V30 160 N 16.2591 1.48442 0.529413 0
M  V30 161 C 17.2221 1.62524 1.61612 0
M  V30 162 C 18.2221 0.498509 1.52877 0
M  V30 163 O 19.4121 0.76431 1.56537 0
M  V30 164 C 16.5441 1.59597 3.01233 0
M  V30 165 H 17.7371 2.59423 1.50465 0
M  V30 166 H 15.2901 1.37047 0.751514 0
M  V30 167 H 16.0251 0.641781 3.17886 0
M  V30 168 H 15.8101 2.41397 3.08982 0
M  V30 169 H 17.3001 1.72646 3.80241 0
M  V30 170 N 17.7372 -0.778329 1.37039 0
M  V30 171 C 19.1482 -1.35421 1.28523 0
M  V30 172 C 19.4992 -1.96075 -0.0700901 0
M  V30 173 O 18.6242 -1.93352 -0.971801 0
M  V30 174 C 19.2192 -2.46211 2.32735 0
M  V30 175 C 17.7782 -2.99585 2.27873 0
M  V30 176 C 16.9252 -1.72748 2.16918 0
M  V30 177 H 19.8762 -0.5791 1.47757 0
M  V30 178 H 19.8972 -3.2552 1.9702 0
M  V30 179 H 19.4092 -2.02036 3.31365 0
M  V30 180 H 17.5102 -3.48152 1.32745 0
M  V30 181 H 17.6232 -3.55646 3.21018 0
M  V30 182 H 15.9872 -1.95416 1.63354 0
M  V30 183 H 16.7702 -1.30686 3.17452 0
M  V30 184 N 19.2153 -1.21501 -1.00376 0
M  V30 185 C 20.4553 -1.04444 -1.75701 0
M  V30 186 C 20.8193 0.414644 -1.87469 0
M  V30 187 O 22.0203 0.705763 -2.59369 0
M  V30 188 C 20.2913 -1.72389 -3.13077 0
M  V30 189 S 21.8503 -1.70604 -4.04277 0
M  V30 190 H 18.6683 -0.374249 -0.604532 0
M  V30 191 H 21.2703 -1.54267 -1.20091 0
M  V30 192 H 19.9743 -2.77734 -3.02146 0
M  V30 193 H 19.5053 -1.22751 -3.73759 0
M  V30 194 H 21.5203 -0.748012 -4.9053 0
M  V30 195 N 20.6934 1.19889 -1.02296 0
M  V30 196 C 21.9184 1.9393 -0.735237 0
M  V30 197 C 22.3434 1.74639 0.698782 0
M  V30 198 O 21.7014 1.04481 1.48167 0
M  V30 199 C 21.7494 3.43916 -1.08417 0
M  V30 200 O 20.8534 4.11917 -0.199446 0
M  V30 201 H 20.1944 0.605645 -0.272196 0
M  V30 202 H 22.7244 1.52137 -1.36804 0
M  V30 203 H 22.7344 3.9456 -1.03856 0
M  V30 204 H 21.4094 3.5728 -2.12894 0
M  V30 205 H 19.9864 3.71666 -0.303136 0
M  V30 206 N 22.1715 0.800033 1.35784 0
M  V30 207 C 23.5875 0.482977 1.52117 0
M  V30 208 C 23.7875 -0.996948 1.75109 0
M  V30 209 O 22.8435 -1.78216 1.78872 0
M  V30 210 C 24.1565 1.32264 2.70049 0
M  V30 211 C 25.7045 1.31742 2.83924 0
M  V30 212 C 26.1795 2.14106 4.04874 0
M  V30 213 N 27.6705 2.11607 4.12039 0
M  V30 214 C 28.4055 2.72099 5.04727 0
M  V30 215 N 27.9015 3.41492 6.02789 0
M  V30 216 N 29.6945 2.61776 4.97423 0
M  V30 217 H 21.8455 1.75856 1.19115 0
M  V30 218 H 24.1085 0.748122 0.582252 0
M  V30 219 H 23.8145 2.37261 2.59616 0
M  V30 220 H 23.6885 0.971303 3.6448 0
M  V30 221 H 26.0755 0.275333 2.93813 0
M  V30 222 H 26.1565 1.70859 1.9037 0
M  V30 223 H 25.8005 3.18351 3.95746 0
M  V30 224 H 25.7305 1.72353 4.97596 0
M  V30 225 H 28.2215 1.61112 3.41835 0
M  V30 226 H 28.5345 3.84953 6.70098 0
M  V30 227 H 26.8795 3.45596 6.02983 0
M  V30 228 H 30.0705 2.07157 4.19766 0
M  V30 229 H 30.2435 3.0921 5.69468 0
M  V30 230 N 23.6496 -1.47581 0.552962 0
M  V30 231 C 24.8746 -2.07378 0.0300593 0
M  V30 232 C 25.2996 -1.40355 -1.25229 0
M  V30 233 O 24.6576 -0.477099 -1.7491 0
M  V30 234 C 24.7056 -3.60274 -0.153231 0
M  V30 235 O 23.8096 -3.94041 -1.21678 0
M  V30 236 H 23.1506 -0.662158 0.0494182 0
M  V30 237 H 25.6806 -1.89662 0.767434 0
M  V30 238 H 25.6906 -4.0633 -0.368761 0
M  V30 239 H 24.3656 -4.08455 0.783397 0
M  V30 240 H 22.9426 -3.59735 -0.982079 0
M  V30 241 N 25.1277 -0.289203 -1.54924 0
M  V30 242 C 26.3557 0.326463 -2.04308 0
M  V30 243 C 26.7707 1.48413 -1.16701 0
M  V30 244 O 26.1277 1.81507 -0.190087 0
M  V30 245 C 26.1787 0.794014 -3.52672 0
M  V30 246 O 25.8997 -0.317564 -4.36948 0
M  V30 247 C 27.4007 1.47605 -4.18004 0
M  V30 248 H 24.6207 0.0726272 -0.667058 0
M  V30 249 H 27.1647 -0.425401 -2.00026 0
M  V30 250 H 25.3197 1.49593 -3.57352 0
M  V30 251 H 25.7337 0.0443186 -5.24481 0
M  V30 252 H 27.2077 1.75447 -5.23376 0
M  V30 253 H 27.6847 2.41224 -3.67025 0
M  V30 254 H 28.2907 0.81762 -4.17367 0
M  V30 255 N 26.6058 1.57591 -0.0167156 0
M  V30 256 C 27.8308 1.9598 0.67872 0
M  V30 257 C 28.2558 0.892546 1.65575 0
M  V30 258 O 27.6138 -0.147772 1.80697 0
M  V30 259 C 27.6618 3.33468 1.37227 0
M  V30 260 O 26.7658 3.28954 2.48722 0
M  V30 261 H 26.1068 0.639339 0.17928 0
M  V30 262 H 28.6368 2.04463 -0.0748802 0
M  V30 263 H 28.6468 3.69417 1.7319 0
M  V30 264 H 27.3218 4.10694 0.656007 0
M  V30 265 H 25.8988 3.04705 2.14963 0
M  V30 266 N 28.0839 -0.256276 1.55502 0
M  V30 267 C 29.3319 -0.983672 1.76545 0
M  V30 268 C 29.6529 -1.86206 0.578982 0
M  V30 269 O 28.9229 -1.91656 -0.405577 0
M  V30 270 H 27.5029 -0.366191 0.651086 0
M  V30 271 H 30.1649 -0.276479 1.92929 0
M  V30 272 H 29.2609 -1.61087 2.67315 0
M  V30 273 N 29.562 -1.4872 -0.521534 0
M  V30 274 C 30.81 -1.56857 -1.27437 0
M  V30 275 C 31.131 -0.247982 -1.93417 0
M  V30 276 O 30.401 0.731151 -1.81744 0
M  V30 277 H 28.981 -0.577885 -0.473347 0
M  V30 278 H 31.643 -1.85233 -0.606205 0
M  V30 279 H 30.739 -2.35402 -2.0492 0
M  V30 280 N 31.0401 0.771051 -1.3745 0
M  V30 281 C 32.2681 1.56015 -1.35893 0
M  V30 282 C 32.6831 1.88718 0.0555523 0
M  V30 283 O 32.0401 1.51502 1.01752 0
M  V30 284 C 32.0911 2.87001 -2.19801 0
M  V30 285 O 31.8121 2.557 -3.55738 0
M  V30 286 C 33.3131 3.81228 -2.26231 0
M  V30 287 H 30.5331 0.483317 -0.465453 0
M  V30 288 H 33.0771 0.955611 -1.80799 0
M  V30 289 H 31.2321 3.43877 -1.78402 0
M  V30 290 H 31.6461 3.39584 -3.99729 0
M  V30 291 H 33.1201 4.70139 -2.89263 0
M  V30 292 H 33.5971 4.20409 -1.27093 0
M  V30 293 H 34.2031 3.30281 -2.67945 0
M  V30 294 N 32.5182 1.22032 0.997298 0
M  V30 295 C 33.4812 0.987909 2.06816 0
M  V30 296 C 34.4812 -0.0440084 1.6074 0
M  V30 297 O 35.6712 0.194053 1.73116 0
M  V30 298 C 32.8032 0.49132 3.37341 0
M  V30 299 H 33.9962 1.93803 2.28868 0
M  V30 300 H 31.5492 1.03838 1.16822 0
M  V30 301 H 32.2842 -0.463364 3.20973 0
M  V30 302 H 32.0692 1.23575 3.72118 0
M  V30 303 H 33.5592 0.348824 4.16141 0
M  V30 304 N 33.9963 -1.19345 1.0293 0
M  V30 305 C 34.9593 -2.20793 0.615069 0
M  V30 306 C 35.9593 -1.57553 -0.321533 0
M  V30 307 O 37.1493 -1.73862 -0.108483 0
M  V30 308 C 34.2813 -3.40754 -0.0999222 0
M  V30 309 H 35.4743 -2.58955 1.51269 0
M  V30 310 H 33.0273 -1.3303 0.820534 0
M  V30 311 H 33.7623 -3.0811 -1.01187 0
M  V30 312 H 33.5473 -3.87889 0.57309 0
M  V30 313 H 35.0373 -4.15898 -0.376645 0
M  V30 314 N 35.4744 -0.807222 -1.35358 0
M  V30 315 C 36.4044 -0.232509 -2.3234 0
M  V30 316 C 37.3854 0.642386 -1.57504 0
M  V30 317 O 38.5704 0.572526 -1.85569 0
M  V30 318 C 35.7004 0.619238 -3.41735 0
M  V30 319 C 34.6544 -0.157215 -4.27711 0
M  V30 320 C 33.9804 0.816273 -5.28433 0
M  V30 321 C 35.2804 -1.35656 -5.04376 0
M  V30 322 H 36.9744 -1.04276 -2.80654 0
M  V30 323 H 34.5204 -0.50288 -1.34934 0
M  V30 324 H 36.4734 1.03137 -4.08584 0
M  V30 325 H 35.1974 1.46239 -2.92031 0
M  V30 326 H 33.8564 -0.550525 -3.62443 0
M  V30 327 H 33.5044 1.65494 -4.74996 0
M  V30 328 H 33.2044 0.301067 -5.86828 0
M  V30 329 H 34.7284 1.22659 -5.98153 0
M  V30 330 H 36.1424 -1.01927 -5.64166 0
M  V30 331 H 34.5394 -1.8063 -5.7227 0
M  V30 332 H 35.6094 -2.14288 -4.34981 0
M  V30 333 N 36.9525 1.47285 -0.560781 0
M  V30 334 C 38.2005 2.02064 -0.0379868 0
M  V30 335 C 38.5215 1.43711 1.31803 0
M  V30 336 O 37.7915 0.61362 1.86042 0
M  V30 337 H 36.3715 0.746918 -0.0110531 0
M  V30 338 H 39.0335 1.80648 -0.731598 0
M  V30 339 H 38.1295 3.12064 0.0474463 0
M  V30 340 N 38.4306 0.297415 1.54768 0
M  V30 341 C 39.6706 -0.313829 2.01976 0
M  V30 342 C 40.0346 -1.51366 1.1812 0
M  V30 343 O 41.2356 -2.19603 1.5501 0
M  V30 344 C 39.5066 -0.664964 3.51159 0
M  V30 345 S 41.0656 -1.25958 4.20333 0
M  V30 346 H 37.8836 -0.0965014 0.704421 0
M  V30 347 H 40.4856 0.424451 1.90837 0
M  V30 348 H 39.1896 0.21681 4.09827 0
M  V30 349 H 38.7206 -1.43413 3.66328 0
M  V30 350 H 40.7356 -2.54751 4.25813 0
M  V30 351 N 39.9087 -1.5758 0.0250728 0
M  V30 352 C 40.8387 -2.13007 -0.956575 0
M  V30 353 C 41.8197 -1.0452 -1.342 0
M  V30 354 O 43.0047 -1.32332 -1.42133 0
M  V30 355 C 40.1347 -2.65386 -2.24026 0
M  V30 356 C 39.0887 -3.78623 -1.99571 0
M  V30 357 C 38.4147 -4.17414 -3.3417 0
M  V30 358 C 39.7147 -5.04867 -1.33814 0
M  V30 359 H 41.4087 -2.9528 -0.494991 0
M  V30 360 H 38.9547 -1.42042 -0.236651 0
M  V30 361 H 40.9077 -3.02794 -2.93076 0
M  V30 362 H 39.6317 -1.80268 -2.72343 0
M  V30 363 H 38.2907 -3.41646 -1.32941 0
M  V30 364 H 37.9387 -3.29284 -3.80238 0
M  V30 365 H 37.6387 -4.93719 -3.18615 0
M  V30 366 H 39.1627 -4.57402 -4.04495 0
M  V30 367 H 40.5767 -5.39888 -1.92857 0
M  V30 368 H 38.9737 -5.86144 -1.28669 0
M  V30 369 H 40.0437 -4.83904 -0.310561 0
M  V30 370 N 41.3868 0.248026 -1.55636 0
M  V30 371 C 42.6328 0.97767 -1.77678 0
M  V30 372 C 42.9658 1.85016 -0.590135 0
M  V30 373 O 42.2408 1.90095 0.411611 0
M  V30 374 C 42.5238 1.83914 -3.09593 0
M  V30 375 C 42.3768 0.99491 -4.38659 0
M  V30 376 C 43.6958 2.82183 -3.37729 0
M  V30 377 H 40.8148 0.354005 -0.646413 0
M  V30 378 H 43.4568 0.248253 -1.88371 0
M  V30 379 H 41.6068 2.46104 -3.00608 0
M  V30 380 H 43.2788 0.391789 -4.59633 0
M  V30 381 H 41.5218 0.299231 -4.32767 0
M  V30 382 H 42.1928 1.63145 -5.2734 0
M  V30 383 H 44.6688 2.30129 -3.4667 0
M  V30 384 H 43.5448 3.39582 -4.31249 0
M  V30 385 H 43.8058 3.58588 -2.58586 0
M  V30 386 N 42.8649 1.48995 0.513639 0
M  V30 387 C 43.8119 1.6473 1.61656 0
M  V30 388 C 44.7819 0.488984 1.58739 0
M  V30 389 O 45.9669 0.714478 1.76918 0
M  V30 390 C 43.1069 1.7082 2.99858 0
M  V30 391 C 42.2199 2.9787 3.12885 0
M  V30 392 C 41.3549 2.95017 4.41744 0
M  V30 393 C 40.3939 4.16702 4.48359 0
M  V30 394 N 39.5309 4.11832 5.68629 0
M  V30 395 H 44.3709 2.58909 1.47547 0
M  V30 396 H 41.9079 1.28382 0.71808 0
M  V30 397 H 43.8659 1.72331 3.79944 0
M  V30 398 H 42.4959 0.801181 3.12699 0
M  V30 399 H 41.5479 3.06029 2.25944 0
M  V30 400 H 42.8599 3.8786 3.13633 0
M  V30 401 H 42.0139 2.95021 5.30139 0
M  V30 402 H 40.7529 2.02784 4.43542 0
M  V30 403 H 39.7579 4.16955 3.58369 0
M  V30 404 H 40.9829 5.10113 4.48287 0
M  V30 405 H 38.9289 3.22428 5.71293 0
M  V30 406 H 38.8459 4.95543 5.7094 0
M  V30 407 H 40.1139 4.1592 6.59266 0
M  V30 408 N 44.343 -0.763751 1.37857 0
M  V30 409 C 45.62 -1.51244 1.24035 0
M  V30 410 C 46 -2.10472 -0.162649 0
M  V30 411 O 45.348 -1.96206 -1.17112 0
M  V30 412 C 45.558 -2.58694 2.34261 0
M  V30 413 C 46.906 -3.25878 2.72193 0
M  V30 414 O 47.93 -2.68993 2.33497 0
M  V30 415 O 46.789 -4.2874 3.38887 0
M  V30 416 H 43.883 -0.670243 0.484462 0
M  V30 417 H 46.429 -0.800031 1.49658 0
M  V30 418 H 45.201 -2.13105 3.2818 0
M  V30 419 H 44.824 -3.37527 2.10146 0
M  V30 420 N 45.8211 -1.22559 -0.990812 0
M  V30 421 C 47.0511 -1.07623 -1.76355 0
M  V30 422 C 47.4591 0.37601 -1.85426 0
M  V30 423 O 46.8021 1.27228 -1.32509 0
M  V30 424 C 46.8641 -1.61507 -3.21179 0
M  V30 425 C 46.5281 -3.10146 -3.35646 0
M  V30 426 C 47.5251 -4.07553 -3.22796 0
M  V30 427 C 45.2101 -3.49644 -3.60631 0
M  V30 428 C 47.2041 -5.42442 -3.34716 0
M  V30 429 C 44.8911 -4.84682 -3.72192 0
M  V30 430 C 45.8891 -5.8089 -3.59243 0
M  V30 431 O 45.5771 -7.13476 -3.70415 0
M  V30 432 H 45.3091 -0.377745 -0.560611 0
M  V30 433 H 47.8631 -1.62658 -1.25425 0
M  V30 434 H 46.0931 -1.00881 -3.73309 0
M  V30 435 H 47.7821 -1.42202 -3.80175 0
M  V30 436 H 48.5481 -3.78381 -3.03403 0
M  V30 437 H 44.4271 -2.75282 -3.69785 0
M  V30 438 H 47.9711 -6.17518 -3.24526 0
M  V30 439 H 43.8681 -5.13534 -3.91092 0
M  V30 440 H 44.6361 -7.21083 -3.87275 0
M  V30 441 N 47.2992 1.18797 -1.03562 0
M  V30 442 C 48.5462 1.8865 -0.736023 0
M  V30 443 C 48.8742 1.80041 0.735889 0
M  V30 444 O 48.1292 1.19179 1.55225 0
M  V30 445 C 48.4282 3.38692 -1.14117 0
M  V30 446 C 48.0942 3.67504 -2.6125 0
M  V30 447 C 46.7562 3.75078 -3.01447 0
M  V30 448 C 49.1082 3.80293 -3.56408 0
M  V30 449 C 46.4362 3.92915 -4.35701 0
M  V30 450 C 48.7882 3.99645 -4.90374 0
M  V30 451 C 47.4522 4.05453 -5.30249 0
M  V30 452 H 46.7222 0.690321 -0.26933 0
M  V30 453 H 49.3692 1.40641 -1.29971 0
M  V30 454 H 47.6742 3.88645 -0.496202 0
M  V30 455 H 49.3712 3.91072 -0.886789 0
M  V30 456 H 45.9612 3.62223 -2.29113 0
M  V30 457 H 50.1452 3.73779 -3.26501 0
M  V30 458 H 45.4012 3.95653 -4.66121 0
M  V30 459 H 49.5752 4.08482 -5.64017 0
M  V30 460 H 47.2022 4.19027 -6.34288 0
M  V30 461 N 48.7773 0.814389 1.34928 0
M  V30 462 C 50.1883 0.458364 1.80986 0
M  V30 463 C 50.5393 -1.02042 1.67577 0
M  V30 464 O 49.6643 -1.79352 1.21086 0
M  V30 465 C 50.2593 0.825212 3.28597 0
M  V30 466 C 48.8183 0.521677 3.72767 0
M  V30 467 C 47.9653 1.04668 2.56788 0
M  V30 468 H 50.9163 1.00533 1.22795 0
M  V30 469 H 50.9373 0.12571 3.80292 0
M  V30 470 H 50.4493 1.90154 3.38324 0
M  V30 471 H 48.5503 -0.545589 3.68584 0
M  V30 472 H 48.6633 1.05977 4.67232 0
M  V30 473 H 47.0273 0.468622 2.50352 0
M  V30 474 H 47.8103 2.12927 2.6929 0
M  V30 475 N 50.2554 -1.46986 0.568584 0
M  V30 476 C 51.1654 -2.33942 -0.17555 0
M  V30 477 C 52.1814 -1.48891 -0.90041 0
M  V30 478 O 53.3574 -1.81794 -0.86676 0
M  V30 479 C 50.4224 -3.25811 -1.18524 0
M  V30 480 C 49.4834 -4.26757 -0.466582 0
M  V30 481 C 48.7164 -5.14236 -1.42817 0
M  V30 482 O 48.9394 -5.04379 -2.66379 0
M  V30 483 O 47.8734 -5.94412 -0.946453 0
M  V30 484 H 51.6994 -2.98896 0.538036 0
M  V30 485 H 49.2844 -1.4573 0.329097 0
M  V30 486 H 51.1664 -3.82527 -1.76779 0
M  V30 487 H 49.8414 -2.63471 -1.88055 0
M  V30 488 H 48.7484 -3.73769 0.157451 0
M  V30 489 H 50.0814 -4.91843 0.187485 0
M  V30 490 N 51.7335 -0.305618 -1.54608 0
M  V30 491 C 53.1445 0.186098 -1.8577 0
M  V30 492 C 53.4955 1.53058 -1.22751 0
M  V30 493 O 52.6205 2.09888 -0.526893 0
M  V30 494 C 53.2155 0.344449 -3.37044 0
M  V30 495 C 51.7745 0.780384 -3.68221 0
M  V30 496 C 50.9215 -0.108554 -2.77087 0
M  V30 497 H 53.8725 -0.526485 -1.49712 0
M  V30 498 H 53.8935 1.17828 -3.61796 0
M  V30 499 H 53.4055 -0.634235 -3.82883 0
M  V30 500 H 51.5065 1.76945 -3.27904 0
M  V30 501 H 51.6195 0.596572 -4.75371 0
M  V30 502 H 49.9835 0.412931 -2.5133 0
M  V30 503 H 50.7665 -1.08368 -3.25747 0
M  V30 504 N 53.2116 1.57565 -0.0334293 0
M  V30 505 C 54.4576 1.92262 0.645226 0
M  V30 506 C 54.7906 0.910543 1.71531 0
M  V30 507 O 54.0656 -0.066099 1.94388 0
M  V30 508 C 54.3486 3.37422 1.2577 0
M  V30 509 C 54.2016 4.49369 0.196891 0
M  V30 510 C 55.5206 3.82628 2.17449 0
M  V30 511 H 52.6396 0.699171 0.233085 0
M  V30 512 H 55.2816 1.89779 -0.0915694 0
M  V30 513 H 53.4316 3.39669 1.88566 0
M  V30 514 H 55.1036 4.59254 -0.433962 0
M  V30 515 H 53.3466 4.31168 -0.477137 0
M  V30 516 H 54.0176 5.47978 0.665124 0
M  V30 517 H 56.4936 3.82145 1.64634 0
M  V30 518 H 55.3696 4.84883 2.57254 0
M  V30 519 H 55.6306 3.18376 3.0674 0
M  V30 520 N 54.6897 -0.239769 1.55765 0
M  V30 521 C 55.9177 -0.98417 1.81994 0
M  V30 522 C 56.3327 -1.7867 0.610124 0
M  V30 523 O 55.6897 -1.77571 -0.421271 0
M  V30 524 C 55.7407 -1.91635 3.06526 0
M  V30 525 O 55.4617 -1.14629 4.22838 0
M  V30 526 C 56.9627 -2.77616 3.45607 0
M  V30 527 H 54.1827 -0.28928 0.605441 0
M  V30 528 H 56.7267 -0.260499 2.02834 0
M  V30 529 H 54.8817 -2.5942 2.87715 0
M  V30 530 H 55.2957 -1.77745 4.93464 0
M  V30 531 H 56.7697 -3.38759 4.35828 0
M  V30 532 H 57.2467 -3.4909 2.6652 0
M  V30 533 H 57.8527 -2.15271 3.66795 0
M  V30 534 N 56.1678 -1.49265 -0.50573 0
M  V30 535 C 57.4138 -1.58748 -1.26202 0
M  V30 536 C 57.7468 -0.271227 -1.92297 0
M  V30 537 O 57.0218 0.724831 -1.80489 0
M  V30 538 C 57.3048 -2.74332 -2.33268 0
M  V30 539 C 57.1578 -4.15737 -1.71705 0
M  V30 540 C 58.4768 -2.85576 -3.34865 0
M  V30 541 H 55.5958 -0.577826 -0.457478 0
M  V30 542 H 58.2378 -1.81532 -0.560897 0
M  V30 543 H 56.3878 -2.55036 -2.93068 0
M  V30 544 H 58.0598 -4.46537 -1.15769 0
M  V30 545 H 56.3028 -4.21605 -1.02135 0
M  V30 546 H 56.9738 -4.92477 -2.49341 0
M  V30 547 H 59.4498 -3.03127 -2.8505 0
M  V30 548 H 58.3258 -3.68135 -4.07146 0
M  V30 549 H 58.5868 -1.94732 -3.96903 0
M  V30 550 N 57.6459 0.756429 -1.3826 0
M  V30 551 C 58.8709 1.55077 -1.37717 0
M  V30 552 C 59.2959 1.88073 0.03164 0
M  V30 553 O 58.6539 1.50364 1.01293 0
M  V30 554 C 58.7019 2.8283 -2.23695 0
M  V30 555 O 57.8059 3.77862 -1.6521 0
M  V30 556 H 57.1469 0.469152 -0.469885 0
M  V30 557 H 59.6769 0.935019 -1.81985 0
M  V30 558 H 59.6869 3.31783 -2.37453 0
M  V30 559 H 58.3619 2.58144 -3.2609 0
M  V30 560 H 56.9389 3.36555 -1.60578 0
M  V30 561 N 59.124 1.23083 0.984299 0
M  V30 562 C 60.37 1.07221 1.72845 0
M  V30 563 C 60.725 -0.387453 1.88458 0
M  V30 564 O 60.018 -1.28309 1.42293 0
M  V30 565 C 60.212 1.72673 3.1292 0
M  V30 566 C 60.041 3.24853 3.10967 0
M  V30 567 C 58.811 3.93998 3.16376 0
M  V30 568 C 61.009 4.21674 2.94441 0
M  V30 569 N 58.991 5.33192 3.04268 0
M  V30 570 C 60.362 5.47756 2.90453 0
M  V30 571 C 62.417 4.12457 2.78897 0
M  V30 572 C 61.12 6.6568 2.72512 0
M  V30 573 C 63.146 5.3004 2.62319 0
M  V30 574 C 62.508 6.55046 2.59026 0
M  V30 575 H 58.607 0.44685 0.641755 0
M  V30 576 H 61.191 1.55753 1.16829 0
M  V30 577 H 59.362 1.26679 3.67161 0
M  V30 578 H 61.094 1.49824 3.75945 0
M  V30 579 H 57.849 3.45052 3.24401 0
M  V30 580 H 58.273 6.06157 3.015 0
M  V30 581 H 62.915 3.16588 2.80235 0
M  V30 582 H 60.633 7.61689 2.69919 0
M  V30 583 H 64.219 5.24747 2.5126 0
M  V30 584 H 63.099 7.44498 2.46357 0
M  V30 585 N 60.6021 -1.18246 1.0419 0
M  V30 586 C 61.5501 -2.23968 0.627792 0
M  V30 587 C 62.5441 -1.65828 -0.346019 0
M  V30 588 O 63.7501 -1.78733 -0.213175 0
M  V30 589 H 60.1251 -0.728939 0.184802 0
M  V30 590 H 62.0961 -2.56202 1.52981 0
M  V30 591 C 60.8451 -3.47699 0.00796591 0
M  V30 592 H 60.1681 -3.92734 0.748347 0
M  V30 593 H 61.6081 -4.23294 -0.24455 0
M  V30 594 C 60.0671 -3.13153 -1.24246 0
M  V30 595 O 60.5971 -3.27003 -2.33307 0
M  V30 596 N 58.8031 -2.67467 -1.13622 0
M  V30 597 H 58.3501 -2.56396 -0.248734 0
M  V30 598 H 58.3081 -2.44724 -1.97377 0
M  V30 599 N 62.0802 -0.821533 -1.34494 0
M  V30 600 C 63.3052 -0.420873 -2.03085 0
M  V30 601 C 63.7302 0.964915 -1.61465 0
M  V30 602 O 63.0882 1.62763 -0.798607 0
M  V30 603 C 63.1362 -0.529414 -3.56693 0
M  V30 604 O 62.2402 0.451302 -4.09923 0
M  V30 605 H 61.5812 -0.173489 -0.640935 0
M  V30 606 H 64.1112 -1.11157 -1.71771 0
M  V30 607 H 64.1212 -0.404671 -4.05988 0
M  V30 608 H 62.7962 -1.54014 -3.86332 0
M  V30 609 H 61.3732 0.285558 -3.71805 0
M  V30 610 N 63.5583 1.46682 -0.576371 0
M  V30 611 C 64.8063 2.02013 -0.0594163 0
M  V30 612 C 65.1273 1.45101 1.30271 0
M  V30 613 O 64.3973 0.633317 1.8538 0
M  V30 614 H 62.9773 0.746759 -0.0189745 0
M  V30 615 H 65.6393 1.79862 -0.750717 0
M  V30 616 H 64.7353 3.12097 0.014345 0
M  V30 617 N 65.0364 0.313813 1.54444 0
M  V30 618 C 65.9994 -0.54379 2.22656 0
M  V30 619 C 66.9994 -1.05124 1.21678 0
M  V30 620 O 68.1894 -0.945225 1.46325 0
M  V30 621 C 65.3214 -1.75427 2.92298 0
M  V30 622 H 66.5144 0.0523599 2.99854 0
M  V30 623 H 64.0674 0.0647834 1.56166 0
M  V30 624 H 64.8024 -2.38991 2.19211 0
M  V30 625 H 64.5874 -1.39791 3.66334 0
M  V30 626 H 66.0774 -2.36325 3.44297 0
M  V30 627 N 66.5145 -1.57545 0.0417849 0
M  V30 628 C 67.4445 -2.14009 -0.933929 0
M  V30 629 C 68.4255 -1.05938 -1.33083 0
M  V30 630 O 69.6105 -1.33833 -1.40721 0
M  V30 631 C 66.7405 -2.67747 -2.21199 0
M  V30 632 C 65.6945 -3.80718 -1.95544 0
M  V30 633 C 65.0205 -4.20935 -3.29724 0
M  V30 634 C 66.3205 -5.06258 -1.28452 0
M  V30 635 H 68.0145 -2.95788 -0.463645 0
M  V30 636 H 65.5605 -1.42285 -0.221573 0
M  V30 637 H 67.5135 -3.05886 -2.89848 0
M  V30 638 H 66.2375 -1.83147 -2.70416 0
M  V30 639 H 64.8965 -3.43037 -1.2931 0
M  V30 640 H 64.5445 -3.33298 -3.76724 0
M  V30 641 H 64.2445 -4.9707 -3.13361 0
M  V30 642 H 65.7685 -4.61666 -3.9962 0
M  V30 643 H 67.1825 -5.41903 -1.8712 0
M  V30 644 H 65.5795 -5.87475 -1.22445 0
M  V30 645 H 66.6495 -4.84207 -0.259219 0
M  V30 646 N 67.9926 0.231505 -1.5589 0
M  V30 647 C 69.2206 0.974505 -1.82513 0
M  V30 648 C 69.6356 1.78344 -0.619591 0
M  V30 649 O 68.9926 1.77792 0.411848 0
M  V30 650 C 69.0436 1.90007 -3.07538 0
M  V30 651 O 68.7646 1.12385 -4.2344 0
M  V30 652 C 70.2656 2.75779 -3.47075 0
M  V30 653 H 67.4856 0.286065 -0.606966 0
M  V30 654 H 70.0296 0.249739 -2.02969 0
M  V30 655 H 68.1846 2.57891 -2.89086 0
M  V30 656 H 68.5986 1.75125 -4.944 0
M  V30 657 H 70.0726 3.36443 -4.37619 0
M  V30 658 H 70.5496 3.47672 -2.68367 0
M  V30 659 H 71.1556 2.13323 -3.67931 0
M  V30 660 N 69.4707 1.49531 0.497807 0
M  V30 661 C 70.6957 1.63159 1.28039 0
M  V30 662 C 71.1207 0.30418 1.85624 0
M  V30 663 O 70.4787 -0.728618 1.66015 0
M  V30 664 C 70.5267 2.70537 2.38416 0
M  V30 665 O 69.6307 2.29931 3.42353 0
M  V30 666 H 68.9717 0.546001 0.377861 0
M  V30 667 H 71.5017 1.9574 0.59558 0
M  V30 668 H 71.5117 2.92802 2.84132 0
M  V30 669 H 70.1867 3.6689 1.95869 0
M  V30 670 H 68.7637 2.18009 3.02533 0
M  V30 671 N 70.9488 -0.749086 1.3866 0
M  V30 672 C 72.1968 -1.50535 1.34847 0
M  V30 673 C 72.5178 -1.94909 -0.0595016 0
M  V30 674 O 71.7878 -1.67973 -1.00806 0
M  V30 675 H 70.3678 -0.558395 0.49619 0
M  V30 676 H 73.0298 -0.890165 1.73384 0
M  V30 677 H 72.1258 -2.39413 2.00219 0
M  V30 678 N 72.4269 -1.23603 -0.977757 0
M  V30 679 C 73.6729 -1.07129 -1.72195 0
M  V30 680 C 74.0059 0.390501 -1.90233 0
M  V30 681 O 73.2809 1.28902 -1.45653 0
M  V30 682 C 73.5639 -1.80031 -3.11867 0
M  V30 683 C 73.4169 -3.33899 -3.01383 0
M  V30 684 C 74.7359 -1.56492 -4.11337 0
M  V30 685 H 71.8549 -0.390571 -0.624999 0
M  V30 686 H 74.4969 -1.52142 -1.13811 0
M  V30 687 H 72.6469 -1.41768 -3.6171 0
M  V30 688 H 74.3189 -3.81699 -2.59043 0
M  V30 689 H 72.5619 -3.62796 -2.37827 0
M  V30 690 H 73.2329 -3.801 -4.00285 0
M  V30 691 H 75.7089 -1.89757 -3.70313 0
M  V30 692 H 74.5849 -2.09973 -5.07151 0
M  V30 693 H 74.8459 -0.500874 -4.39254 0
M  V30 694 N 73.905 1.17692 -1.04816 0
M  V30 695 C 74.855 2.1952 -0.616042 0
M  V30 696 C 75.839 1.57147 0.345485 0
M  V30 697 O 77.031 1.76245 0.163325 0
M  V30 698 C 74.16 3.43298 0.0116917 0
M  V30 699 C 73.246 4.12777 -0.973435 0
M  V30 700 N 73.637 4.5814 -2.14339 0
M  V30 701 C 71.935 4.38747 -0.80108 0
M  V30 702 C 72.636 5.11713 -2.7663 0
M  V30 703 N 71.612 5.03686 -2.04453 0
M  V30 704 H 75.414 2.52293 -1.5075 0
M  V30 705 H 72.928 1.3398 -0.917776 0
M  V30 706 H 74.925 4.15519 0.339006 0
M  V30 707 H 73.585 3.12018 0.898593 0
M  V30 708 H 74.596 4.52349 -2.52191 0
M  V30 709 H 71.273 4.17485 0.0350934 0
M  V30 710 H 72.663 5.56962 -3.75823 0
M  V30 711 N 75.3831 0.828654 1.34056 0
M  V30 712 C 76.6111 0.43262 2.02326 0
M  V30 713 C 77.0261 -0.963147 1.62385 0
M  V30 714 O 76.3831 -1.62425 0.832121 0
M  V30 715 C 76.4341 0.53182 3.57567 0
M  V30 716 O 76.1551 1.87258 3.96063 0
M  V30 717 C 77.6561 0.131422 4.43105 0
M  V30 718 H 74.8761 0.172923 0.648335 0
M  V30 719 H 77.4201 1.1184 1.71208 0
M  V30 720 H 75.5751 -0.105938 3.87255 0
M  V30 721 H 75.9891 1.85087 4.90758 0
M  V30 722 H 77.4631 0.251904 5.51425 0
M  V30 723 H 77.9401 -0.925645 4.29335 0
M  V30 724 H 78.5461 0.743207 4.18756 0
M  V30 725 N 76.8612 -1.46375 0.584142 0
M  V30 726 C 78.1082 -2.02378 0.0702675 0
M  V30 727 C 78.4362 -1.45545 -1.29023 0
M  V30 728 O 77.6912 -0.610967 -1.85918 0
M  V30 729 C 77.9902 -3.57373 -0.0439342 0
M  V30 730 C 77.6562 -4.33252 1.24915 0
M  V30 731 C 76.3182 -4.53701 1.60341 0
M  V30 732 C 78.6702 -4.7681 2.1048 0
M  V30 733 C 75.9982 -5.1496 2.81128 0
M  V30 734 C 78.3502 -5.39404 3.30494 0
M  V30 735 C 77.0142 -5.5808 3.66201 0
M  V30 736 H 76.2842 -0.740554 0.0257127 0
M  V30 737 H 78.9312 -1.75727 0.761065 0
M  V30 738 H 77.2362 -3.83169 -0.817869 0
M  V30 739 H 78.9332 -3.98384 -0.457318 0
M  V30 740 H 75.5232 -4.17633 0.963364 0
M  V30 741 H 79.7072 -4.60766 1.84414 0
M  V30 742 H 74.9632 -5.27611 3.08928 0
M  V30 743 H 79.1372 -5.72114 3.97063 0
M  V30 744 H 76.7642 -6.05318 4.59885 0
M  V30 745 N 78.3393 -0.321999 -1.54275 0
M  V30 746 C 79.7503 0.166384 -1.85957 0
M  V30 747 C 80.1013 1.51747 -1.24367 0
M  V30 748 O 79.2263 2.09317 -0.549124 0
M  V30 749 C 79.8213 0.308681 -3.37391 0
M  V30 750 C 78.3803 0.741286 -3.69028 0
M  V30 751 C 77.5273 -0.137937 -2.76957 0
M  V30 752 H 80.4783 -0.542335 -1.49146 0
M  V30 753 H 80.4993 1.13984 -3.63026 0
M  V30 754 H 80.0113 -0.674809 -3.82188 0
M  V30 755 H 78.1123 1.73458 -3.29762 0
M  V30 756 H 78.2253 0.546118 -4.75977 0
M  V30 757 H 76.5893 0.386251 -2.51754 0
M  V30 758 H 77.3723 -1.11816 -3.2458 0
M  V30 759 N 79.8174 1.5752 -0.0501392 0
M  V30 760 C 80.7804 2.1037 0.909786 0
M  V30 761 C 81.7804 1.02308 1.24056 0
M  V30 762 O 82.9704 1.28385 1.17741 0
M  V30 763 C 80.1024 2.58708 2.21998 0
M  V30 764 H 81.2954 2.96479 0.451665 0
M  V30 765 H 78.8484 1.55038 0.198248 0
M  V30 766 H 79.5834 1.75989 2.72394 0
M  V30 767 H 79.3684 3.37675 1.99295 0
M  V30 768 H 80.8584 2.99747 2.9076 0
M  V30 769 N 81.2955 -0.223234 1.56011 0
M  V30 770 C 82.5415 -0.949279 1.79211 0
M  V30 771 C 82.8745 -1.84054 0.619494 0
M  V30 772 O 82.1495 -1.90726 -0.381317 0
M  V30 773 C 82.4325 -1.78965 3.12479 0
M  V30 774 C 82.2855 -0.924997 4.40186 0
M  V30 775 C 83.6045 -2.76774 3.42175 0
M  V30 776 H 80.7235 -0.343676 0.651963 0
M  V30 777 H 83.3655 -0.218253 1.88742 0
M  V30 778 H 81.5155 -2.41291 3.04485 0
M  V30 779 H 83.1875 -0.318615 4.60198 0
M  V30 780 H 81.4305 -0.230344 4.33188 0
M  V30 781 H 82.1015 -1.54735 5.29869 0
M  V30 782 H 84.5775 -2.24584 3.50287 0
M  V30 783 H 83.4535 -3.32678 4.36597 0
M  V30 784 H 83.7145 -3.54429 2.64258 0
M  V30 785 N 82.7736 -1.49793 -0.48987 0
M  V30 786 C 83.7036 -1.70201 -1.59856 0
M  V30 787 C 84.6846 -0.55076 -1.60937 0
M  V30 788 O 85.8696 -0.787841 -1.77501 0
M  V30 789 C 82.9996 -1.77882 -2.98287 0
M  V30 790 C 81.9536 -2.92907 -3.12073 0
M  V30 791 C 81.2796 -2.85712 -4.51965 0
M  V30 792 C 82.5796 -4.3369 -2.91051 0
M  V30 793 H 84.2736 -2.63025 -1.43032 0
M  V30 794 H 81.8196 -1.26574 -0.686664 0
M  V30 795 H 83.7726 -1.90744 -3.75759 0
M  V30 796 H 82.4966 -0.816653 -3.16225 0
M  V30 797 H 81.1556 -2.79665 -2.37029 0
M  V30 798 H 80.8036 -1.8738 -4.66795 0
M  V30 799 H 80.5036 -3.62921 -4.62128 0
M  V30 800 H 82.0276 -3.00598 -5.31482 0
M  V30 801 H 83.4416 -4.47555 -3.58284 0
M  V30 802 H 81.8386 -5.12205 -3.12675 0
M  V30 803 H 82.9086 -4.47362 -1.87071 0
M  V30 804 N 84.2517 0.741722 -1.39055 0
M  V30 805 C 85.1837 1.8657 -1.33133 0
M  V30 806 C 86.1967 1.61001 -0.241329 0
M  V30 807 O 87.3857 1.7136 -0.499784 0
M  V30 808 C 84.4857 3.22457 -1.04283 0
M  V30 809 C 83.6587 3.75435 -2.24427 0
M  V30 810 C 82.7177 4.89867 -1.92138 0
M  V30 811 O 81.7437 5.03879 -2.64754 0
M  V30 812 N 82.9457 5.73738 -0.88347 0
M  V30 813 H 85.7107 1.92156 -2.29991 0
M  V30 814 H 83.2717 0.922172 -1.3307 0
M  V30 815 H 85.2637 3.9657 -0.807128 0
M  V30 816 H 83.8337 3.12181 -0.161807 0
M  V30 817 H 83.0537 2.92751 -2.6399 0
M  V30 818 H 84.3417 4.07563 -3.04581 0
M  V30 819 H 83.7397 5.64999 -0.281517 0
M  V30 820 H 82.2967 6.47947 -0.707662 0
M  V30 821 N 85.7298 1.2412 0.971189 0
M  V30 822 C 86.9548 1.10667 1.75407 0
M  V30 823 C 87.3798 -0.337048 1.85056 0
M  V30 824 O 86.7378 -1.24396 1.31892 0
M  V30 825 C 86.7858 1.74726 3.15441 0
M  V30 826 O 85.8898 1.01566 3.99697 0
M  V30 827 H 85.2308 0.387341 0.539317 0
M  V30 828 H 87.7608 1.64358 1.2185 0
M  V30 829 H 87.7708 1.80341 3.6598 0
M  V30 830 H 86.4458 2.79773 3.07734 0
M  V30 831 H 85.0228 1.03713 3.58187 0
M  V30 832 N 87.2079 -1.17134 1.05439 0
M  V30 833 C 88.4329 -1.91913 0.786396 0
M  V30 834 C 88.8579 -1.7643 -0.652234 0
M  V30 835 O 88.2159 -1.08372 -1.45345 0
M  V30 836 C 88.2639 -3.40921 1.17497 0
M  V30 837 O 87.3679 -4.11244 0.308589 0
M  V30 838 H 86.7089 -0.598215 0.288158 0
M  V30 839 H 89.2389 -1.48457 1.4079 0
M  V30 840 H 89.2489 -3.91668 1.14281 0
M  V30 841 H 87.9239 -3.5151 2.22292 0
M  V30 842 H 86.5009 -3.70731 0.40157 0
M  V30 843 N 88.686 -0.835752 -1.33615 0
M  V30 844 C 89.934 -0.429109 -1.97492 0
M  V30 845 C 90.255 1.01433 -1.66543 0
M  V30 846 O 89.525 1.70611 -0.962744 0
M  V30 847 H 88.105 -0.155686 -0.730596 0
M  V30 848 H 90.767 -1.06802 -1.63031 0
M  V30 849 H 89.863 -0.55861 -3.0706 0
M  V30 850 N 90.1641 1.46063 -0.591896 0
M  V30 851 C 91.0941 2.33172 0.123673 0
M  V30 852 C 92.0751 1.45897 0.87453 0
M  V30 853 O 93.2601 1.74698 0.848181 0
M  V30 854 C 90.3901 3.28336 1.13194 0
M  V30 855 C 89.3441 4.25124 0.495324 0
M  V30 856 C 88.6701 5.09863 1.61071 0
M  V30 857 C 89.9701 5.19143 -0.573425 0
M  V30 858 H 91.6641 2.93252 -0.603646 0
M  V30 859 H 89.2101 1.41014 -0.291741 0
M  V30 860 H 91.1631 3.88137 1.64097 0
M  V30 861 H 89.8871 2.66383 1.88965 0
M  V30 862 H 88.5461 3.66599 0.00729452 0
M  V30 863 H 88.1941 4.44288 2.35832 0
M  V30 864 H 87.8941 5.75417 1.19035 0
M  V30 865 H 89.4181 5.72529 2.12233 0
M  V30 866 H 90.8321 5.73106 -0.1491 0
M  V30 867 H 89.2291 5.93089 -0.914636 0
M  V30 868 H 90.2991 4.62519 -1.45617 0
M  V30 869 N 91.6422 0.330177 1.54103 0
M  V30 870 C 92.8722 -0.271784 2.04805 0
M  V30 871 C 93.2802 -1.45816 1.20559 0
M  V30 872 O 92.6232 -1.82247 0.2306 0
M  V30 873 C 92.6852 -0.763238 3.51305 0
M  V30 874 C 92.3492 0.301705 4.56003 0
M  V30 875 C 93.3462 1.13999 5.07248 0
M  V30 876 C 91.0312 0.451793 5.00264 0
M  V30 877 C 93.0252 2.11402 6.01322 0
M  V30 878 C 90.7122 1.42924 5.94151 0
M  V30 879 C 91.7102 2.25882 6.44567 0
M  V30 880 O 91.3982 3.21965 7.3661 0
M  V30 881 H 91.1302 -0.058693 0.673447 0
M  V30 882 H 93.6842 0.476395 1.99799 0
M  V30 883 H 91.9142 -1.56244 3.5373 0
M  V30 884 H 93.6032 -1.28427 3.85047 0
M  V30 885 H 94.3692 1.03505 4.73827 0
M  V30 886 H 90.2482 -0.184044 4.60632 0
M  V30 887 H 93.7922 2.76192 6.40596 0
M  V30 888 H 89.6892 1.53479 6.26988 0
M  V30 889 H 90.4572 3.17281 7.54503 0
M  V30 890 N 93.1203 -1.57491 0.0584922 0
M  V30 891 C 94.3453 -1.97711 -0.62652 0
M  V30 892 C 94.7703 -0.936132 -1.63151 0
M  V30 893 O 94.1283 0.099811 -1.81025 0
M  V30 894 C 94.1763 -3.36989 -1.28338 0
M  V30 895 O 93.2803 -3.35433 -2.39913 0
M  V30 896 H 92.6213 -0.643868 -0.162266 0
M  V30 897 H 95.1513 -2.04193 0.129064 0
M  V30 898 H 95.1613 -3.73879 -1.63335 0
M  V30 899 H 93.8363 -4.12289 -0.546889 0
M  V30 900 H 92.4133 -3.10298 -2.06809 0
M  V30 901 N 94.5984 0.214957 -1.56127 0
M  V30 902 C 95.5284 1.2695 -1.95974 0
M  V30 903 C 96.5094 1.48539 -0.828868 0
M  V30 904 O 97.6944 1.60611 -1.09168 0
M  V30 905 C 94.8244 2.61794 -2.28214 0
M  V30 906 C 93.7784 2.54851 -3.43853 0
M  V30 907 C 93.1044 3.93785 -3.61715 0
M  V30 908 C 94.4044 2.09065 -4.78632 0
M  V30 909 H 96.0984 0.93846 -2.84312 0
M  V30 910 H 93.6444 0.449996 -1.36788 0
M  V30 911 H 95.5974 3.35731 -2.54682 0
M  V30 912 H 94.3214 2.96599 -1.36736 0
M  V30 913 H 92.9804 1.8337 -3.17444 0
M  V30 914 H 92.6284 4.25908 -2.67602 0
M  V30 915 H 92.3284 3.90019 -4.39498 0
M  V30 916 H 93.8524 4.69374 -3.90539 0
M  V30 917 H 95.2664 2.7275 -5.04262 0
M  V30 918 H 93.6634 2.16346 -5.59745 0
M  V30 919 H 94.7334 1.04315 -4.73547 0
M  V30 920 N 96.0765 1.50051 0.48192 0
M  V30 921 C 97.3015 1.64508 1.26301 0
M  V30 922 C 97.7265 0.323851 1.85291 0
M  V30 923 O 97.0845 -0.710969 1.66778 0
M  V30 924 C 97.1325 2.7305 2.35533 0
M  V30 925 O 96.2365 2.3355 3.39895 0
M  V30 926 H 95.5775 0.549978 0.372048 0
M  V30 927 H 98.1075 1.9636 0.574786 0
M  V30 928 H 98.1175 2.95799 2.8101 0
M  V30 929 H 96.7925 3.68946 1.91967 0
M  V30 930 H 95.3695 2.21205 3.00204 0
M  V30 931 N 97.5546 -0.734337 1.39446 0
M  V30 932 C 98.7796 -1.52866 1.40167 0
M  V30 933 C 99.2046 -1.881 -0.00171513 0
M  V30 934 O 98.5626 -1.51957 -0.988879 0
M  V30 935 C 98.6106 -2.79235 2.28167 0
M  V30 936 O 97.7146 -3.75185 1.71201 0
M  V30 937 H 97.0556 -0.461618 0.477289 0
M  V30 938 H 99.5856 -0.905949 1.8345 0
M  V30 939 H 99.5956 -3.27963 2.42702 0
M  V30 940 H 98.2706 -2.52923 3.30156 0
M  V30 941 H 96.8476 -3.33958 1.65912 0
M  V30 942 N 99.0327 -1.24633 -0.964593 0
M  V30 943 C 100.279 -1.08949 -1.71049 0
M  V30 944 C 100.612 0.370302 -1.90637 0
M  V30 945 O 99.8867 1.27349 -1.47011 0
M  V30 946 C 100.17 -1.83329 -3.0994 0
M  V30 947 C 100.023 -3.37077 -2.97824 0
M  V30 948 C 101.342 -1.60846 -4.09654 0
M  V30 949 H 98.4607 -0.397178 -0.620821 0
M  V30 950 H 101.103 -1.5334 -1.12191 0
M  V30 951 H 99.2527 -1.45597 -3.60186 0
M  V30 952 H 100.925 -3.84425 -2.5498 0
M  V30 953 H 99.1677 -3.65298 -2.33965 0
M  V30 954 H 99.8387 -3.84324 -3.96231 0
M  V30 955 H 102.315 -1.93674 -3.68279 0
M  V30 956 H 101.191 -2.1534 -5.04896 0
M  V30 957 H 101.452 -0.547434 -4.38698 0
M  V30 958 N 100.511 1.16574 -1.06058 0
M  V30 959 C 101.757 1.87324 -0.777022 0
M  V30 960 C 102.09 1.81351 0.694645 0
M  V30 961 O 101.365 1.22753 1.50871 0
M  V30 962 C 101.648 3.36991 -1.26922 0
M  V30 963 C 101.501 3.51667 -2.80447 0
M  V30 964 C 102.82 4.3131 -0.87521 0
M  V30 965 H 99.9388 0.680191 -0.28374 0
M  V30 966 H 102.581 1.37036 -1.3161 0
M  V30 967 H 100.731 3.79949 -0.81063 0
M  V30 968 H 102.403 3.17664 -3.34495 0
M  V30 969 H 100.646 2.93656 -3.19294 0
M  V30 970 H 101.317 4.56766 -3.0995 0
M  V30 971 H 103.793 3.9624 -1.27014 0
M  V30 972 H 102.669 5.34545 -1.2471 0
M  V30 973 H 102.93 4.41552 0.220071 0
M  V30 974 N 101.989 0.842826 1.3317 0
M  V30 975 C 103.217 0.454055 2.01856 0
M  V30 976 C 103.632 -0.94587 1.63397 0
M  V30 977 O 102.989 -1.61534 0.849302 0
M  V30 978 C 103.04 0.569715 3.56982 0
M  V30 979 O 102.761 1.91448 3.94055 0
M  V30 980 C 104.262 0.178412 4.42941 0
M  V30 981 H 101.482 0.17979 0.646465 0
M  V30 982 H 104.026 1.1365 1.70012 0
M  V30 983 H 102.181 -0.0648587 3.87346 0
M  V30 984 H 102.595 1.90282 4.88767 0
M  V30 985 H 104.069 0.310376 5.51127 0
M  V30 986 H 104.546 -0.880056 4.30293 0
M  V30 987 H 105.152 0.787579 4.17944 0
M  V30 988 N 103.467 -1.45747 0.599634 0
M  V30 989 C 104.713 -2.02592 0.0918643 0
M  V30 990 C 105.046 -1.46806 -1.27128 0
M  V30 991 O 104.321 -0.639658 -1.83681 0
M  V30 992 C 104.604 -3.60073 0.0443398 0
M  V30 993 C 104.457 -4.26208 1.43759 0
M  V30 994 C 105.776 -4.35309 -0.647608 0
M  V30 995 H 102.895 -0.736175 0.034857 0
M  V30 996 H 105.537 -1.73694 0.770081 0
M  V30 997 H 103.687 -3.84823 -0.533224 0
M  V30 998 H 105.359 -4.12668 2.06162 0
M  V30 999 H 103.602 -3.84916 2.00056 0
M  V30 1000 H 104.273 -5.35069 1.35665 0
M  V30 1001 H 106.749 -4.15805 -0.156776 0
M  V30 1002 H 105.625 -5.45038 -0.649942 0
M  V30 1003 H 105.886 -4.07598 -1.71219 0
M  V30 1004 N 104.945 -0.338344 -1.53925 0
M  V30 1005 C 106.356 0.146651 -1.86123 0
M  V30 1006 C 106.707 1.5042 -1.2597 0
M  V30 1007 O 105.832 2.08723 -0.571294 0
M  V30 1008 C 106.427 0.272879 -3.37699 0
M  V30 1009 C 104.986 0.702103 -3.69794 0
M  V30 1010 C 104.133 -0.167304 -2.76795 0
M  V30 1011 H 107.084 -0.558123 -1.48562 0
M  V30 1012 H 107.105 1.10128 -3.64214 0
M  V30 1013 H 106.617 -0.715307 -3.81451 0
M  V30 1014 H 104.718 1.6995 -3.31584 0
M  V30 1015 H 104.831 0.495604 -4.7653 0
M  V30 1016 H 103.195 0.359527 -2.5215 0
M  V30 1017 H 103.978 -1.15253 -3.23375 0
M  V30 1018 N 106.423 1.57458 -0.0668435 0
M  V30 1019 C 107.648 1.9804 0.616027 0
M  V30 1020 C 108.073 0.944771 1.62652 0
M  V30 1021 O 107.431 -0.0902094 1.81075 0
M  V30 1022 C 107.479 3.37665 1.26549 0
M  V30 1023 O 106.583 3.36701 2.38131 0
M  V30 1024 H 105.924 0.644719 0.158849 0
M  V30 1025 H 108.454 2.04121 -0.139891 0
M  V30 1026 H 108.464 3.7474 1.6135 0
M  V30 1027 H 107.139 4.12573 0.525016 0
M  V30 1028 H 105.716 3.1139 2.0516 0
M  V30 1029 N 107.901 -0.206675 1.56239 0
M  V30 1030 C 109.126 -0.949474 1.8439 0
M  V30 1031 C 109.551 -1.76549 0.649016 0
M  V30 1032 O 108.909 -1.76782 -0.402231 0
M  V30 1033 C 108.957 -1.83078 3.10668 0
M  V30 1034 O 108.061 -2.9281 2.90407 0
M  V30 1035 H 107.402 -0.268033 0.607499 0
M  V30 1036 H 109.932 -0.215488 2.03462 0
M  V30 1037 H 109.942 -2.2377 3.41161 0
M  V30 1038 H 108.617 -1.23112 3.97261 0
M  V30 1039 H 107.194 -2.55956 2.71184 0
M  V30 1040 N 109.379 -1.50304 -0.473955 0
M  V30 1041 C 110.604 -1.65175 -1.25427 0
M  V30 1042 C 111.029 -0.333673 -1.85117 0
M  V30 1043 O 110.387 0.702114 -1.67153 0
M  V30 1044 C 110.435 -2.74295 -2.34082 0
M  V30 1045 O 109.539 -2.35349 -3.38651 0
M  V30 1046 H 108.88 -0.551944 -0.369126 0
M  V30 1047 H 111.41 -1.96662 -0.564364 0
M  V30 1048 H 111.42 -2.97285 -2.79438 0
M  V30 1049 H 110.095 -3.69959 -1.90008 0
M  V30 1050 H 108.672 -2.22794 -2.99027 0
M  V30 1051 N 110.857 0.726932 -1.39834 0
M  V30 1052 C 111.787 1.85405 -1.41941 0
M  V30 1053 C 112.768 1.67751 -0.281728 0
M  V30 1054 O 113.953 1.8795 -0.488717 0
M  V30 1055 C 111.083 3.23243 -1.2701 0
M  V30 1056 C 110.037 3.55549 -2.38262 0
M  V30 1057 C 109.363 4.9241 -2.08415 0
M  V30 1058 C 110.663 3.577 -3.80589 0
M  V30 1059 H 112.357 1.83899 -2.36266 0
M  V30 1060 H 109.903 0.883349 -1.13723 0
M  V30 1061 H 111.856 4.01775 -1.27103 0
M  V30 1062 H 110.58 3.25296 -0.291564 0
M  V30 1063 H 109.239 2.79351 -2.37399 0
M  V30 1064 H 108.887 4.91052 -1.0898 0
M  V30 1065 H 108.587 5.14992 -2.82943 0
M  V30 1066 H 110.111 5.73289 -2.10171 0
M  V30 1067 H 111.525 4.26293 -3.83337 0
M  V30 1068 H 109.922 3.91804 -4.54543 0
M  V30 1069 H 110.992 2.57328 -4.10987 0
M  V30 1070 N 112.336 1.25143 0.95797 0
M  V30 1071 C 113.584 1.09476 1.69881 0
M  V30 1072 C 113.905 -0.365502 1.91544 0
M  V30 1073 O 113.175 -1.25985 1.50015 0
M  V30 1074 H 111.755 0.402128 0.629525 0
M  V30 1075 H 114.417 1.57214 1.15194 0
M  V30 1076 H 113.513 1.60046 2.6794 0
M  V30 1077 N 113.814 -1.1601 1.06675 0
M  V30 1078 C 115.042 -1.90527 0.806667 0
M  V30 1079 C 115.457 -1.77643 -0.639396 0
M  V30 1080 O 114.814 -1.12369 -1.43803 0
M  V30 1081 C 114.865 -3.41106 1.19705 0
M  V30 1082 O 114.586 -3.53608 2.58636 0
M  V30 1083 C 116.087 -4.32663 0.965266 0
M  V30 1084 H 113.307 -0.604053 0.292166 0
M  V30 1085 H 115.851 -1.47026 1.4214 0
M  V30 1086 H 114.006 -3.82296 0.626774 0
M  V30 1087 H 114.42 -4.47011 2.74375 0
M  V30 1088 H 115.894 -5.36763 1.288 0
M  V30 1089 H 116.371 -4.39089 -0.0987936 0
M  V30 1090 H 116.977 -3.97206 1.52011 0
M  V30 1091 N 115.292 -0.849877 -1.32721 0
M  V30 1092 C 116.224 -0.248332 -2.27851 0
M  V30 1093 C 117.237 0.577218 -1.52224 0
M  V30 1094 O 118.426 0.402489 -1.73903 0
M  V30 1095 C 115.526 0.668107 -3.32249 0
M  V30 1096 C 114.699 -0.120534 -4.37234 0
M  V30 1097 C 113.758 0.720932 -5.21238 0
M  V30 1098 O 112.784 0.156166 -5.68986 0
M  V30 1099 N 113.986 2.03647 -5.43607 0
M  V30 1100 H 116.751 -1.06575 -2.80111 0
M  V30 1101 H 114.312 -0.709395 -1.45531 0
M  V30 1102 H 116.304 1.23627 -3.85355 0
M  V30 1103 H 114.874 1.38621 -2.80184 0
M  V30 1104 H 114.094 -0.870108 -3.84477 0
M  V30 1105 H 115.382 -0.662406 -5.0447 0
M  V30 1106 H 114.78 2.51871 -5.06535 0
M  V30 1107 H 113.337 2.55287 -5.99727 0
M  V30 1108 N 116.77 1.45427 -0.607355 0
M  V30 1109 C 117.998 2.06614 -0.108814 0
M  V30 1110 C 118.413 1.45204 1.2067 0
M  V30 1111 O 117.77 0.566132 1.73497 0
M  V30 1112 C 117.821 3.61481 0.0375347 0
M  V30 1113 O 117.542 4.20598 -1.22593 0
M  V30 1114 C 119.043 4.39652 0.567561 0
M  V30 1115 H 116.263 0.66747 -0.0687351 0
M  V30 1116 H 118.807 1.86675 -0.835022 0
M  V30 1117 H 116.962 3.80762 0.714068 0
M  V30 1118 H 117.376 5.1377 -1.05547 0
M  V30 1119 H 118.85 5.48518 0.61905 0
M  V30 1120 H 119.327 4.09417 1.58978 0
M  V30 1121 H 119.933 4.25234 -0.0749202 0
M  V30 1122 N 118.248 0.346503 1.53744 0
M  V30 1123 C 119.478 -0.250047 2.05081 0
M  V30 1124 C 119.886 -1.44529 1.22098 0
M  V30 1125 O 119.229 -1.81992 0.249917 0
M  V30 1126 C 119.291 -0.725934 3.52094 0
M  V30 1127 C 118.955 0.350053 4.55657 0
M  V30 1128 C 119.952 1.19372 5.0601 0
M  V30 1129 C 117.637 0.504827 4.99757 0
M  V30 1130 C 119.631 2.17768 5.99046 0
M  V30 1131 C 117.318 1.49218 5.92602 0
M  V30 1132 C 118.316 2.32706 6.42135 0
M  V30 1133 O 118.004 3.2976 7.33153 0
M  V30 1134 H 117.736 -0.0515469 0.674032 0
M  V30 1135 H 120.29 0.497559 1.99282 0
M  V30 1136 H 118.52 -1.52483 3.55367 0
M  V30 1137 H 120.209 -1.24336 3.86388 0
M  V30 1138 H 120.975 1.08525 4.72702 0
M  V30 1139 H 116.854 -0.135178 4.60802 0
M  V30 1140 H 120.398 2.82971 6.37631 0
M  V30 1141 H 116.295 1.6012 6.25325 0
M  V30 1142 H 117.063 3.25265 7.51096 0
M  V30 1143 N 119.726 -1.57421 0.075193 0
M  V30 1144 C 120.954 -1.97946 -0.602076 0
M  V30 1145 C 121.369 -0.953674 -1.62943 0
M  V30 1146 O 120.726 0.0592551 -1.82404 0
M  V30 1147 C 120.777 -3.38546 -1.26762 0
M  V30 1148 O 120.498 -4.37195 -0.281376 0
M  V30 1149 C 121.999 -3.93966 -2.03239 0
M  V30 1150 H 119.219 -0.650918 -0.162931 0
M  V30 1151 H 121.763 -2.03959 0.148601 0
M  V30 1152 H 119.918 -3.33609 -1.96936 0
M  V30 1153 H 120.332 -5.18975 -0.759267 0
M  V30 1154 H 121.806 -4.94555 -2.45193 0
M  V30 1155 H 122.283 -3.30693 -2.8903 0
M  V30 1156 H 122.889 -4.02315 -1.37924 0
M  V30 1157 N 121.204 0.198386 -1.56346 0
M  V30 1158 C 122.444 0.92609 -1.82217 0
M  V30 1159 C 122.808 1.80584 -0.652195 0
M  V30 1160 O 124.009 2.56907 -0.790716 0
M  V30 1161 C 122.28 1.72354 -3.13096 0
M  V30 1162 S 123.839 2.50371 -3.6036 0
M  V30 1163 H 120.657 0.310677 -0.639532 0
M  V30 1164 H 123.259 0.189755 -1.94577 0
M  V30 1165 H 121.963 1.0678 -3.96265 0
M  V30 1166 H 121.494 2.50175 -3.03605 0
M  V30 1167 H 123.509 3.74488 -3.25535 0
M  V30 1168 N 122.682 1.50554 0.465978 0
M  V30 1169 C 123.63 1.70324 1.58406 0
M  V30 1170 C 124.624 0.569139 1.59553 0
M  V30 1171 O 125.83 0.749776 1.63641 0
M  V30 1172 H 122.205 0.537688 0.525734 0
M  V30 1173 H 124.176 2.64104 1.38894 0
M  V30 1174 C 122.925 1.81928 2.96307 0
M  V30 1175 H 122.248 2.68586 2.96144 0
M  V30 1176 H 123.688 1.99784 3.73982 0
M  V30 1177 C 122.147 0.572095 3.32007 0
M  V30 1178 O 122.677 -0.286416 4.00678 0
M  V30 1179 N 120.883 0.424606 2.87481 0
M  V30 1180 H 120.43 1.12427 2.31771 0
M  V30 1181 H 120.388 -0.408697 3.11732 0
M  V30 1182 N 124.16 -0.719506 1.40217 0
M  V30 1183 C 125.406 -1.48152 1.38488 0
M  V30 1184 C 125.739 -1.94195 -0.0141867 0
M  V30 1185 O 125.014 -1.67884 -0.982096 0
M  V30 1186 C 125.297 -2.71035 2.37091 0
M  V30 1187 C 125.15 -2.30912 3.86005 0
M  V30 1188 C 126.469 -3.73182 2.33288 0
M  V30 1189 H 123.588 -0.537395 0.504357 0
M  V30 1190 H 126.23 -0.821472 1.71324 0
M  V30 1191 H 124.38 -3.27352 2.0922 0
M  V30 1192 H 126.052 -1.80107 4.24687 0
M  V30 1193 H 124.295 -1.62958 4.02029 0
M  V30 1194 H 124.966 -3.18978 4.50508 0
M  V30 1195 H 127.442 -3.26485 2.57966 0
M  V30 1196 H 126.318 -4.56806 3.04334 0
M  V30 1197 H 126.579 -4.21202 1.34317 0
M  V30 1198 N 125.638 -1.25649 -0.95132 0
M  V30 1199 C 126.586 -1.06118 -2.06982 0
M  V30 1200 C 127.58 0.00889169 -1.69398 0
M  V30 1201 O 128.786 -0.146988 -1.79399 0
M  V30 1202 H 125.161 -0.326248 -0.677544 0
M  V30 1203 H 127.132 -2.00932 -2.2061 0
M  V30 1204 C 125.881 -0.700145 -3.40578 0
M  V30 1205 H 125.204 -1.51537 -3.69968 0
M  V30 1206 H 126.644 -0.603211 -4.19687 0
M  V30 1207 C 125.103 0.59403 -3.31622 0
M  V30 1208 O 125.633 1.63522 -3.66911 0
M  V30 1209 N 123.839 0.58089 -2.84735 0
M  V30 1210 H 123.386 -0.266783 -2.56215 0
M  V30 1211 H 123.344 1.44695 -2.79125 0
M  V30 1212 N 127.117 1.15442 -1.07289 0
M  V30 1213 C 128.067 2.18164 -0.662467 0
M  V30 1214 C 129.051 1.57845 0.312074 0
M  V30 1215 O 130.243 1.76552 0.125905 0
M  V30 1216 C 127.372 3.43246 -0.0611295 0
M  V30 1217 C 126.458 4.1062 -1.06077 0
M  V30 1218 N 126.849 4.53491 -2.24008 0
M  V30 1219 C 125.147 4.36949 -0.893964 0
M  V30 1220 C 125.848 5.05731 -2.87422 0
M  V30 1221 N 124.824 4.99236 -2.15091 0
M  V30 1222 H 128.626 2.49038 -1.56068 0
M  V30 1223 H 126.14 1.32003 -0.945988 0
M  V30 1224 H 128.137 4.16145 0.250792 0
M  V30 1225 H 126.797 3.13854 0.832207 0
M  V30 1226 H 127.808 4.46898 -2.6173 0
M  V30 1227 H 124.485 4.17466 -0.0534693 0
M  V30 1228 H 125.875 5.48865 -3.87553 0
M  V30 1229 N 128.595 0.856903 1.32268 0
M  V30 1230 C 129.542 0.301172 2.28827 0
M  V30 1231 C 130.512 -0.593104 1.5515 0
M  V30 1232 O 131.697 -0.527537 1.83362 0
M  V30 1233 C 128.837 -0.502523 3.41422 0
M  V30 1234 C 127.95 0.417797 4.29975 0
M  V30 1235 C 127.085 -0.398749 5.29701 0
M  V30 1236 C 126.124 0.518827 6.09897 0
M  V30 1237 N 125.261 -0.260674 7.01616 0
M  V30 1238 H 130.101 1.12983 2.75751 0
M  V30 1239 H 127.638 0.568582 1.35667 0
M  V30 1240 H 129.596 -0.984141 4.05426 0
M  V30 1241 H 128.226 -1.29599 2.95642 0
M  V30 1242 H 127.278 1.01781 3.66531 0
M  V30 1243 H 128.59 1.12191 4.86019 0
M  V30 1244 H 127.744 -0.943435 5.9932 0
M  V30 1245 H 126.483 -1.13622 4.7428 0
M  V30 1246 H 125.488 1.07538 5.39181 0
M  V30 1247 H 126.713 1.25495 6.67404 0
M  V30 1248 H 124.659 -0.981198 6.4862 0
M  V30 1249 H 124.576 0.384364 7.55022 0
M  V30 1250 H 125.844 -0.787014 7.75517 0
M  V30 1251 N 130.073 -1.45103 0.615059 0
M  V30 1252 C 131.484 -1.85654 0.197383 0
M  V30 1253 C 131.835 -1.51433 -1.24749 0
M  V30 1254 O 130.96 -0.944608 -1.94695 0
M  V30 1255 C 131.555 -3.36972 0.351448 0
M  V30 1256 C 130.114 -3.76398 -0.011593 0
M  V30 1257 C 129.261 -2.69024 0.672394 0
M  V30 1258 H 132.212 -1.35797 0.821263 0
M  V30 1259 H 132.233 -3.78239 -0.414227 0
M  V30 1260 H 131.745 -3.61847 1.40314 0
M  V30 1261 H 129.846 -3.5714 -1.06217 0
M  V30 1262 H 129.959 -4.77532 0.387265 0
M  V30 1263 H 128.323 -2.54465 0.109284 0
M  V30 1264 H 129.106 -2.96735 1.72636 0
M  V30 1265 N 131.551 -0.354651 -1.53558 0
M  V30 1266 C 132.776 0.242153 -2.05981 0
M  V30 1267 C 133.201 1.42553 -1.2272 0
M  V30 1268 O 132.559 1.79656 -0.243604 0
M  V30 1269 C 132.607 0.624367 -3.55154 0
M  V30 1270 O 131.711 1.72301 -3.74681 0
M  V30 1271 H 131.052 0.0378432 -0.662921 0
M  V30 1272 H 133.582 -0.512087 -1.98088 0
M  V30 1273 H 133.592 0.898433 -3.97985 0
M  V30 1274 H 132.267 -0.240989 -4.15201 0
M  V30 1275 H 130.844 1.44535 -3.4375 0
M  V30 1276 N 133.029 1.57378 -0.0835403 0
M  V30 1277 C 133.977 2.14602 0.89714 0
M  V30 1278 C 134.971 1.08589 1.30018 0
M  V30 1279 O 136.177 1.26952 1.27606 0
M  V30 1280 H 132.552 0.686346 0.3073 0
M  V30 1281 H 134.523 2.95845 0.38969 0
M  V30 1282 C 133.272 2.73188 2.15089 0
M  V30 1283 H 132.595 3.54442 1.84962 0
M  V30 1284 H 134.035 3.1681 2.81793 0
M  V30 1285 C 132.494 1.68517 2.91725 0
M  V30 1286 O 133.024 1.11718 3.85852 0
M  V30 1287 N 131.23 1.39277 2.55049 0
M  V30 1288 H 130.777 1.85655 1.78577 0
M  V30 1289 H 130.735 0.694791 3.06627 0
M  V30 1290 N 134.507 -0.190092 1.56449 0
M  V30 1291 C 135.735 -0.925772 1.85033 0
M  V30 1292 C 136.15 -1.76638 0.666658 0
M  V30 1293 O 135.507 -1.78822 -0.364565 0
M  V30 1294 C 135.558 -1.81786 3.12468 0
M  V30 1295 O 135.279 -1.01118 4.26271 0
M  V30 1296 C 136.78 -2.6648 3.54265 0
M  V30 1297 H 134 -0.269872 0.614337 0
M  V30 1298 H 136.544 -0.195837 2.0356 0
M  V30 1299 H 134.699 -2.50136 2.95822 0
M  V30 1300 H 135.113 -1.61956 4.98869 0
M  V30 1301 H 136.587 -3.24722 4.46385 0
M  V30 1302 H 137.064 -3.40434 2.77491 0
M  V30 1303 H 137.67 -2.03493 3.73458 0
M  V30 1304 N 135.985 -1.50799 -0.457987 0
M  V30 1305 C 136.932 -1.70617 -1.5543 0
M  V30 1306 C 137.902 -0.547562 -1.56815 0
M  V30 1307 O 139.087 -0.779647 -1.74144 0
M  V30 1308 C 136.227 -1.81831 -2.93311 0
M  V30 1309 C 135.34 -3.09278 -3.01615 0
M  V30 1310 C 134.475 -3.11209 -4.30491 0
M  V30 1311 C 133.514 -4.33055 -4.32585 0
M  V30 1312 N 132.651 -4.32652 -5.52952 0
M  V30 1313 H 137.491 -2.64207 -1.37836 0
M  V30 1314 H 135.028 -1.30959 -0.669937 0
M  V30 1315 H 136.986 -1.86314 -3.73287 0
M  V30 1316 H 135.616 -0.916685 -3.0951 0
M  V30 1317 H 134.668 -3.14203 -2.1443 0
M  V30 1318 H 135.98 -3.99233 -2.99022 0
M  V30 1319 H 135.134 -3.14494 -5.18824 0
M  V30 1320 H 133.873 -2.19106 -4.35711 0
M  V30 1321 H 132.878 -4.29969 -3.42647 0
M  V30 1322 H 134.103 -5.264 -4.29046 0
M  V30 1323 H 132.049 -3.43409 -5.58933 0
M  V30 1324 H 131.966 -5.16392 -5.52155 0
M  V30 1325 H 133.234 -4.40101 -6.43375 0
M  V30 1326 N 137.463 0.71206 -1.40597 0
M  V30 1327 C 138.709 1.47416 -1.39271 0
M  V30 1328 C 139.042 1.942 0.00388791 0
M  V30 1329 O 138.317 1.68403 0.973179 0
M  V30 1330 C 138.6 2.69774 -2.38525 0
M  V30 1331 C 138.453 2.28861 -3.87224 0
M  V30 1332 C 139.772 3.71939 -2.35264 0
M  V30 1333 H 136.891 0.534713 -0.5072 0
M  V30 1334 H 139.533 0.812375 -1.71757 0
M  V30 1335 H 137.683 3.26238 -2.10953 0
M  V30 1336 H 139.355 1.77852 -4.25636 0
M  V30 1337 H 137.598 1.60824 -4.02887 0
M  V30 1338 H 138.269 3.16584 -4.52193 0
M  V30 1339 H 140.745 3.25113 -2.59694 0
M  V30 1340 H 139.621 4.55186 -3.06753 0
M  V30 1341 H 139.882 4.20484 -1.36549 0
M  V30 1342 N 138.941 1.26152 0.944643 0
M  V30 1343 C 140.218 1.02247 1.66748 0
M  V30 1344 C 140.598 -0.448202 2.06287 0
M  V30 1345 O 139.946 -1.42779 1.78399 0
M  V30 1346 C 140.156 1.96788 2.88228 0
M  V30 1347 C 141.504 2.25201 3.59958 0
M  V30 1348 O 142.528 1.94626 2.98327 0
M  V30 1349 O 141.387 2.77242 4.70956 0
M  V30 1350 H 138.481 0.388517 0.730057 0
M  V30 1351 H 141.027 1.37348 0.99668 0
M  V30 1352 H 139.799 2.96047 2.55875 0
M  V30 1353 H 139.422 1.62145 3.63035 0
M  V30 1354 N 140.419 -1.14872 1.07899 0
M  V30 1355 C 141.366 -2.19791 0.704319 0
M  V30 1356 C 142.336 -1.63238 -0.306987 0
M  V30 1357 O 143.521 -1.8983 -0.192171 0
M  V30 1358 C 140.661 -3.44911 0.114244 0
M  V30 1359 C 139.774 -4.15637 1.1777 0
M  V30 1360 C 138.909 -5.28324 0.552037 0
M  V30 1361 C 137.948 -5.90875 1.59789 0
M  V30 1362 N 137.085 -6.95022 0.994404 0
M  V30 1363 H 141.925 -2.5119 1.60336 0
M  V30 1364 H 139.462 -1.23356 0.801352 0
M  V30 1365 H 141.42 -4.16477 -0.245544 0
M  V30 1366 H 140.05 -3.14011 -0.74813 0
M  V30 1367 H 139.102 -3.42512 1.65499 0
M  V30 1368 H 140.414 -4.5823 1.97046 0
M  V30 1369 H 139.568 -6.06538 0.1402 0
M  V30 1370 H 138.307 -4.86939 -0.272431 0
M  V30 1371 H 137.312 -5.11369 2.01945 0
M  V30 1372 H 138.537 -6.34337 2.42474 0
M  V30 1373 H 136.483 -6.55722 0.190939 0
M  V30 1374 H 136.4 -7.36073 1.72432 0
M  V30 1375 H 137.668 -7.77123 0.608253 0
M  V30 1376 N 141.898 -0.863906 -1.31812 0
M  V30 1377 C 143.314 -0.555004 -1.49639 0
M  V30 1378 C 143.514 0.912266 -1.79666 0
M  V30 1379 O 142.57 1.69479 -1.87171 0
M  V30 1380 C 143.883 -1.44998 -2.63431 0
M  V30 1381 C 145.431 -1.45138 -2.77316 0
M  V30 1382 C 145.906 -2.33179 -3.94197 0
M  V30 1383 N 147.397 -2.31025 -4.01474 0
M  V30 1384 C 148.132 -2.95871 -4.9117 0
M  V30 1385 N 147.628 -3.69863 -5.8581 0
M  V30 1386 N 149.421 -2.85211 -4.84367 0
M  V30 1387 H 141.572 -1.81339 -1.10589 0
M  V30 1388 H 143.835 -0.77505 -0.545895 0
M  V30 1389 H 143.541 -2.49377 -2.48 0
M  V30 1390 H 143.415 -1.14409 -3.59431 0
M  V30 1391 H 145.802 -0.415201 -2.92164 0
M  V30 1392 H 145.883 -1.79747 -1.82001 0
M  V30 1393 H 145.527 -3.3687 -3.80107 0
M  V30 1394 H 145.457 -1.95897 -4.88807 0
M  V30 1395 H 147.948 -1.77238 -3.33759 0
M  V30 1396 H 148.261 -4.16486 -6.50968 0
M  V30 1397 H 146.606 -3.73971 -5.85808 0
M  V30 1398 H 149.797 -2.26948 -4.09405 0
M  V30 1399 H 149.97 -3.36027 -5.54066 0
M  V30 1400 N 143.376 1.44774 -0.622745 0
M  V30 1401 C 144.622 2.0242 -0.124083 0
M  V30 1402 C 144.955 1.4881 1.24777 0
M  V30 1403 O 144.23 0.668799 1.8264 0
M  V30 1404 C 144.513 3.59957 -0.101619 0
M  V30 1405 C 144.366 4.23867 -1.50521 0
M  V30 1406 C 145.685 4.36284 0.578272 0
M  V30 1407 H 142.804 0.735528 -0.0465645 0
M  V30 1408 H 145.446 1.72447 -0.797617 0
M  V30 1409 H 143.596 3.85623 0.471934 0
M  V30 1410 H 145.268 4.09336 -2.12701 0
M  V30 1411 H 143.511 3.81684 -2.06154 0
M  V30 1412 H 144.182 5.32843 -1.4416 0
M  V30 1413 H 146.658 4.16001 0.0906057 0
M  V30 1414 H 145.534 5.46004 0.563149 0
M  V30 1415 H 145.795 4.10271 1.64713 0
M  V30 1416 N 144.854 0.36279 1.53368 0
M  V30 1417 C 145.764 -0.492994 2.29362 0
M  V30 1418 C 146.78 -1.09507 1.35219 0
M  V30 1419 O 147.956 -1.10662 1.68273 0
M  V30 1420 C 145.021 -1.61855 3.066 0
M  V30 1421 C 144.082 -1.04429 4.16405 0
M  V30 1422 C 143.315 -2.11621 4.89951 0
M  V30 1423 O 143.538 -3.32684 4.63333 0
M  V30 1424 O 142.472 -1.74835 5.75948 0
M  V30 1425 H 146.298 0.125331 3.03441 0
M  V30 1426 H 143.883 0.127253 1.48857 0
M  V30 1427 H 145.765 -2.27302 3.54841 0
M  V30 1428 H 144.44 -2.22233 2.3536 0
M  V30 1429 H 143.347 -0.353819 3.72423 0
M  V30 1430 H 144.68 -0.485113 4.89804 0
M  V30 1431 N 146.332 -1.57332 0.0918853 0
M  V30 1432 C 147.262 -2.16872 -0.865371 0
M  V30 1433 C 148.243 -1.10118 -1.29646 0
M  V30 1434 O 149.428 -1.38242 -1.36392 0
M  V30 1435 C 146.558 -2.74649 -2.12569 0
M  V30 1436 C 145.512 -3.86747 -1.83333 0
M  V30 1437 C 144.838 -4.31212 -3.16166 0
M  V30 1438 C 146.138 -5.10089 -1.1228 0
M  V30 1439 H 147.832 -2.97114 -0.369307 0
M  V30 1440 H 145.378 -1.42918 -0.176194 0
M  V30 1441 H 147.331 -3.14952 -2.7997 0
M  V30 1442 H 146.055 -1.91657 -2.64452 0
M  V30 1443 H 144.714 -3.46978 -1.18331 0
M  V30 1444 H 144.362 -3.45115 -3.6593 0
M  V30 1445 H 144.062 -5.06788 -2.97388 0
M  V30 1446 H 145.586 -4.74146 -3.84731 0
M  V30 1447 H 147 -5.47582 -1.69785 0
M  V30 1448 H 145.397 -5.91073 -1.03693 0
M  V30 1449 H 146.467 -4.84786 -0.105041 0
M  V30 1450 N 147.81 0.181792 -1.56548 0
M  V30 1451 C 148.757 1.22521 -1.95595 0
M  V30 1452 C 149.727 1.4454 -0.818373 0
M  V30 1453 O 150.912 1.57454 -1.07763 0
M  V30 1454 C 148.052 2.56193 -2.31212 0
M  V30 1455 C 147.165 2.41641 -3.58097 0
M  V30 1456 C 146.3 3.68108 -3.82975 0
M  V30 1457 C 145.339 3.48445 -5.03242 0
M  V30 1458 N 144.476 4.66956 -5.24306 0
M  V30 1459 H 149.316 0.885226 -2.84548 0
M  V30 1460 H 146.853 0.425718 -1.40805 0
M  V30 1461 H 148.811 3.34088 -2.49882 0
M  V30 1462 H 147.441 2.88208 -1.45382 0
M  V30 1463 H 146.493 1.54976 -3.474 0
M  V30 1464 H 147.805 2.23052 -4.46149 0
M  V30 1465 H 146.959 4.54441 -4.01956 0
M  V30 1466 H 145.698 3.89666 -2.93278 0
M  V30 1467 H 144.703 2.60499 -4.8417 0
M  V30 1468 H 145.928 3.2832 -5.9446 0
M  V30 1469 H 143.874 4.88752 -4.37559 0
M  V30 1470 H 143.791 4.51242 -6.06561 0
M  V30 1471 H 145.059 5.54602 -5.47756 0
M  V30 1472 N 149.288 1.51039 0.449983 0
M  V30 1473 C 150.516 1.66869 1.2232 0
M  V30 1474 C 150.931 0.360727 1.85322 0
M  V30 1475 O 150.288 -0.659531 1.70166 0
M  V30 1476 C 150.339 2.77524 2.31652 0
M  V30 1477 O 150.06 4.03252 1.7123 0
M  V30 1478 C 151.561 3.04512 3.2216 0
M  V30 1479 H 148.781 0.560326 0.369155 0
M  V30 1480 H 151.325 1.97385 0.534719 0
M  V30 1481 H 149.48 2.49642 2.96239 0
M  V30 1482 H 149.894 4.64609 2.43389 0
M  V30 1483 H 151.368 3.85551 3.95038 0
M  V30 1484 H 151.845 2.16415 3.8218 0
M  V30 1485 H 152.451 3.34005 2.63288 0
M  V30 1486 N 150.766 -0.704594 1.40972 0
M  V30 1487 C 152.177 -1.28418 1.3552 0
M  V30 1488 C 152.528 -1.96171 0.0339434 0
M  V30 1489 O 151.653 -1.98231 -0.867944 0
M  V30 1490 C 152.248 -2.33528 2.45459 0
M  V30 1491 C 150.807 -2.87085 2.43433 0
M  V30 1492 C 149.954 -1.61007 2.2577 0
M  V30 1493 H 152.905 -0.499963 1.50619 0
M  V30 1494 H 152.926 -3.14619 2.13998 0
M  V30 1495 H 152.438 -1.84187 3.41609 0
M  V30 1496 H 150.539 -3.40626 1.51013 0
M  V30 1497 H 150.652 -3.3813 3.39419 0
M  V30 1498 H 149.016 -1.86482 1.73483 0
M  V30 1499 H 149.799 -1.13675 3.23933 0
M  V30 1500 N 152.244 -1.26651 -0.937939 0
M  V30 1501 C 153.174 -1.10993 -2.05433 0
M  V30 1502 C 154.155 -0.0142161 -1.70094 0
M  V30 1503 O 155.34 -0.186837 -1.93299 0
M  V30 1504 C 152.47 -0.745561 -3.39203 0
M  V30 1505 C 151.424 -1.79337 -3.88616 0
M  V30 1506 C 150.75 -1.28324 -5.19073 0
M  V30 1507 C 152.05 -3.19553 -4.13138 0
M  V30 1508 H 153.744 -2.0438 -2.1879 0
M  V30 1509 H 151.29 -0.984041 -1.05131 0
M  V30 1510 H 153.243 -0.622888 -4.16771 0
M  V30 1511 H 151.967 0.22401 -3.25831 0
M  V30 1512 H 150.626 -1.90477 -3.13231 0
M  V30 1513 H 150.274 -0.303414 -5.02084 0
M  V30 1514 H 149.974 -1.98369 -5.53103 0
M  V30 1515 H 151.498 -1.1733 -5.99221 0
M  V30 1516 H 152.912 -3.11471 -4.81309 0
M  V30 1517 H 151.309 -3.87218 -4.58457 0
M  V30 1518 H 152.379 -3.65368 -3.18801 0
M  V30 1519 N 153.722 1.14298 -1.08507 0
M  V30 1520 C 154.97 1.84993 -0.813763 0
M  V30 1521 C 155.291 1.83405 0.662393 0
M  V30 1522 O 154.561 1.28319 1.48024 0
M  V30 1523 H 153.141 0.684966 -0.298045 0
M  V30 1524 H 155.803 1.385 -1.37126 0
M  V30 1525 H 154.899 2.89788 -1.15884 0
M  V30 1526 N 155.201 0.870884 1.31352 0
M  V30 1527 C 156.478 0.402907 1.91405 0
M  V30 1528 C 156.858 -1.11512 1.79244 0
M  V30 1529 O 156.206 -1.94411 1.2007 0
M  V30 1530 C 156.416 0.885301 3.37585 0
M  V30 1531 C 157.764 0.911971 4.14691 0
M  V30 1532 O 158.788 0.831016 3.46371 0
M  V30 1533 O 157.647 1.02927 5.3672 0
M  V30 1534 H 154.741 0.120698 0.818145 0
M  V30 1535 H 157.287 0.958857 1.40014 0
M  V30 1536 H 156.059 1.92889 3.40455 0
M  V30 1537 H 155.682 0.307714 3.96407 0
M  V30 1538 N 156.679 -1.44442 0.630414 0
M  V30 1539 C 157.907 -2.06414 0.141671 0
M  V30 1540 C 158.322 -1.47105 -1.18345 0
M  V30 1541 O 157.679 -0.593662 -1.72574 0
M  V30 1542 C 157.73 -3.61494 0.0199784 0
M  V30 1543 O 157.451 -4.18594 1.29269 0
M  V30 1544 C 158.952 -4.40499 -0.497544 0
M  V30 1545 H 156.172 -0.666292 0.0793452 0
M  V30 1546 H 158.716 -1.85323 0.864614 0
M  V30 1547 H 156.871 -3.8185 -0.653402 0
M  V30 1548 H 157.285 -5.12026 1.13707 0
M  V30 1549 H 158.759 -5.49433 -0.531708 0
M  V30 1550 H 159.236 -4.11895 -1.52445 0
M  V30 1551 H 159.842 -4.25061 0.142562 0
M  V30 1552 N 158.157 -0.370918 -1.53173 0
M  V30 1553 C 159.385 0.217704 -2.05751 0
M  V30 1554 C 159.8 1.42018 -1.24404 0
M  V30 1555 O 159.157 1.80245 -0.286033 0
M  V30 1556 C 159.208 0.605954 -3.56385 0
M  V30 1557 O 158.929 -0.548734 -4.3465 0
M  V30 1558 C 160.43 1.2524 -4.25241 0
M  V30 1559 H 157.65 0.0371659 -0.66997 0
M  V30 1560 H 160.194 -0.530832 -1.9749 0
M  V30 1561 H 158.349 1.3044 -3.6478 0
M  V30 1562 H 158.763 -0.23376 -5.23979 0
M  V30 1563 H 160.237 1.47458 -5.3194 0
M  V30 1564 H 160.714 2.2143 -3.79296 0
M  V30 1565 H 161.32 0.595233 -4.21114 0
M  V30 1566 N 159.635 1.57281 -0.100228 0
M  V30 1567 C 160.585 2.10848 0.86759 0
M  V30 1568 C 161.569 1.02473 1.24049 0
M  V30 1569 O 162.761 1.28739 1.21471 0
M  V30 1570 C 159.89 2.69648 2.12474 0
M  V30 1571 C 158.976 3.85074 1.77704 0
M  V30 1572 N 159.367 4.92897 1.13518 0
M  V30 1573 C 157.665 3.94905 2.07282 0
M  V30 1574 C 158.366 5.73475 0.974735 0
M  V30 1575 N 157.342 5.22675 1.4937 0
M  V30 1576 H 161.144 2.91594 0.367471 0
M  V30 1577 H 158.658 1.62074 0.102829 0
M  V30 1578 H 160.655 3.06356 2.82757 0
M  V30 1579 H 159.315 1.90359 2.63047 0
M  V30 1580 H 160.326 5.11662 0.801381 0
M  V30 1581 H 157.003 3.26633 2.60033 0
M  V30 1582 H 158.393 6.70238 0.472364 0
M  V30 1583 N 161.113 -0.173488 1.56642 0
M  V30 1584 C 162.341 -0.906095 1.86004 0
M  V30 1585 C 162.756 -1.75921 0.685355 0
M  V30 1586 O 162.113 -1.79198 -0.345578 0
M  V30 1587 C 162.164 -1.78462 3.14378 0
M  V30 1588 O 161.885 -0.965914 4.27319 0
M  V30 1589 C 163.386 -2.62707 3.57071 0
M  V30 1590 H 160.606 -0.263341 0.617165 0
M  V30 1591 H 163.15 -0.174236 2.03756 0
M  V30 1592 H 161.305 -2.46984 2.98459 0
M  V30 1593 H 161.719 -1.56655 5.00559 0
M  V30 1594 H 163.193 -3.19969 4.49804 0
M  V30 1595 H 163.67 -3.37472 2.81086 0
M  V30 1596 H 164.276 -1.99521 3.75595 0
M  V30 1597 N 162.591 -1.51276 -0.441967 0
M  V30 1598 C 163.831 -1.65372 -1.20132 0
M  V30 1599 C 164.195 -0.359871 -1.88597 0
M  V30 1600 O 165.396 -0.376551 -2.66149 0
M  V30 1601 C 163.667 -2.8207 -2.1948 0
M  V30 1602 S 165.226 -3.16467 -3.03964 0
M  V30 1603 H 162.044 -0.582669 -0.407453 0
M  V30 1604 H 164.646 -1.89166 -0.493609 0
M  V30 1605 H 163.35 -3.74523 -1.67812 0
M  V30 1606 H 162.881 -2.6045 -2.94838 0
M  V30 1607 H 164.896 -2.62543 -4.21053 0
M  V30 1608 N 164.069 0.697108 -1.41344 0
M  V30 1609 C 165.48 1.27697 -1.36199 0
M  V30 1610 C 165.831 1.9615 -0.0443463 0
M  V30 1611 O 164.956 1.98689 0.857419 0
M  V30 1612 C 165.551 2.32223 -2.46694 0
M  V30 1613 C 164.11 2.8579 -2.44952 0
M  V30 1614 C 163.257 1.59807 -2.26621 0
M  V30 1615 H 166.208 0.491968 -1.50882 0
M  V30 1616 H 166.229 3.1348 -2.15664 0
M  V30 1617 H 165.741 1.82373 -3.42581 0
M  V30 1618 H 163.842 3.3982 -1.52817 0
M  V30 1619 H 163.955 3.36325 -3.41207 0
M  V30 1620 H 162.319 1.8556 -1.7447 0
M  V30 1621 H 163.102 1.11956 -3.24532 0
M  V30 1622 N 165.547 1.27147 0.931209 0
M  V30 1623 C 166.963 1.04475 1.20653 0
M  V30 1624 C 167.163 -0.223885 2.00252 0
M  V30 1625 O 166.219 -0.930332 2.34736 0
M  V30 1626 C 167.532 2.28209 1.95809 0
M  V30 1627 C 169.08 2.33211 2.08762 0
M  V30 1628 C 169.555 3.56665 2.87323 0
M  V30 1629 N 171.046 3.57201 2.94892 0
M  V30 1630 C 171.781 4.49395 3.56134 0
M  V30 1631 N 171.277 5.51889 4.18796 0
M  V30 1632 N 173.07 4.37026 3.53504 0
M  V30 1633 H 165.221 2.08612 0.399333 0
M  V30 1634 H 167.484 0.917312 0.239253 0
M  V30 1635 H 167.19 3.20538 1.44736 0
M  V30 1636 H 167.064 2.33247 2.96438 0
M  V30 1637 H 169.451 1.41391 2.59023 0
M  V30 1638 H 169.532 2.32178 1.07364 0
M  V30 1639 H 169.176 4.4882 2.37746 0
M  V30 1640 H 169.106 3.54948 3.88998 0
M  V30 1641 H 171.597 2.83074 2.50354 0
M  V30 1642 H 171.91 6.18409 4.63454 0
M  V30 1643 H 170.255 5.55735 4.17353 0
M  V30 1644 H 173.446 3.56166 3.03749 0
M  V30 1645 H 173.619 5.09067 4.00942 0
M  V30 1646 N 167.025 -1.13721 1.09112 0
M  V30 1647 C 168.265 -1.86576 0.834801 0
M  V30 1648 C 168.629 -1.81435 -0.628122 0
M  V30 1649 O 169.83 -2.49497 -1.00024 0
M  V30 1650 C 168.101 -3.30872 1.35124 0
M  V30 1651 S 169.66 -4.21257 1.22832 0
M  V30 1652 H 166.478 -0.643666 0.302017 0
M  V30 1653 H 169.08 -1.37085 1.39385 0
M  V30 1654 H 167.784 -3.32166 2.41027 0
M  V30 1655 H 167.315 -3.85423 0.788185 0
M  V30 1656 H 169.33 -4.95884 0.177191 0
M  V30 1657 N 168.503 -0.877838 -1.30888 0
M  V30 1658 C 169.914 -0.544193 -1.78593 0
M  V30 1659 C 170.265 0.939301 -1.72254 0
M  V30 1660 O 169.39 1.7337 -1.29505 0
M  V30 1661 C 169.985 -0.98105 -3.24285 0
M  V30 1662 C 168.544 -0.698935 -3.69854 0
M  V30 1663 C 167.691 -1.168 -2.51502 0
M  V30 1664 H 170.642 -1.06278 -1.17859 0
M  V30 1665 H 170.663 -0.307009 -3.79259 0
M  V30 1666 H 170.175 -2.06079 -3.28866 0
M  V30 1667 H 168.276 0.369112 -3.70767 0
M  V30 1668 H 168.389 -1.28148 -4.61644 0
M  V30 1669 H 166.753 -0.587535 -2.47831 0
M  V30 1670 H 167.536 -2.25533 -2.58824 0
M  V30 1671 N 169.982 1.44106 -0.638065 0
M  V30 1672 C 170.892 2.34513 0.0637334 0
M  V30 1673 C 171.908 1.53018 0.828346 0
M  V30 1674 O 173.084 1.85723 0.779036 0
M  V30 1675 C 170.149 3.31095 1.02844 0
M  V30 1676 C 169.21 4.28497 0.26244 0
M  V30 1677 C 168.443 5.20465 1.1812 0
M  V30 1678 O 168.666 5.16514 2.42011 0
M  V30 1679 O 167.6 5.98251 0.661774 0
M  V30 1680 H 171.426 2.95989 -0.68003 0
M  V30 1681 H 169.011 1.43994 -0.398252 0
M  V30 1682 H 170.893 3.90526 1.58327 0
M  V30 1683 H 169.568 2.72144 1.7527 0
M  V30 1684 H 168.475 3.72592 -0.335602 0
M  V30 1685 H 169.808 4.90388 -0.421936 0
M  V30 1686 N 171.46 0.379036 1.52974 0
M  V30 1687 C 172.871 -0.0972525 1.86447 0
M  V30 1688 C 173.222 -1.47027 1.29914 0
M  V30 1689 O 172.347 -2.07135 0.626433 0
M  V30 1690 C 172.942 -0.183248 3.38304 0
M  V30 1691 C 171.501 -0.603812 3.71525 0
M  V30 1692 C 170.648 0.240632 2.76254 0
M  V30 1693 H 173.599 0.597316 1.4703 0
M  V30 1694 H 173.62 -1.00432 3.67006 0
M  V30 1695 H 173.132 0.816191 3.79421 0
M  V30 1696 H 171.233 -1.61099 3.35973 0
M  V30 1697 H 171.346 -0.369086 4.77676 0
M  V30 1698 H 169.71 -0.292548 2.53014 0
M  V30 1699 H 170.493 1.23786 3.20206 0
M  V30 1700 N 172.938 -1.57226 0.108567 0
M  V30 1701 C 173.885 -2.14756 -0.845481 0
M  V30 1702 C 174.855 -1.06971 -1.27068 0
M  V30 1703 O 176.04 -1.34827 -1.35005 0
M  V30 1704 C 173.18 -2.74298 -2.09415 0
M  V30 1705 C 172.293 -3.96358 -1.71826 0
M  V30 1706 C 171.428 -4.44021 -2.9158 0
M  V30 1707 C 170.467 -5.58637 -2.50181 0
M  V30 1708 N 169.604 -6.01091 -3.62814 0
M  V30 1709 H 174.444 -2.95961 -0.348035 0
M  V30 1710 H 171.981 -1.46226 -0.160106 0
M  V30 1711 H 173.939 -3.06945 -2.82561 0
M  V30 1712 H 172.569 -1.95801 -2.56636 0
M  V30 1713 H 171.621 -3.69939 -0.885947 0
M  V30 1714 H 172.933 -4.79504 -1.37394 0
M  V30 1715 H 172.087 -4.78522 -3.72963 0
M  V30 1716 H 170.826 -3.59803 -3.29231 0
M  V30 1717 H 169.831 -5.23751 -1.67228 0
M  V30 1718 H 171.056 -6.44613 -2.13659 0
M  V30 1719 H 169.002 -5.19817 -4.00158 0
M  V30 1720 H 168.919 -6.79066 -3.32273 0
M  V30 1721 H 170.187 -6.40227 -4.44668 0
M  V30 1722 N 174.416 0.165178 -1.56732 0
M  V30 1723 C 175.641 0.900253 -1.86843 0
M  V30 1724 C 176.066 1.74766 -0.695596 0
M  V30 1725 O 175.424 1.77786 0.35522 0
M  V30 1726 C 175.472 1.74777 -3.15413 0
M  V30 1727 O 174.576 2.85007 -2.98068 0
M  V30 1728 H 173.917 0.251832 -0.614391 0
M  V30 1729 H 176.447 0.161468 -2.03962 0
M  V30 1730 H 176.457 2.14646 -3.46974 0
M  V30 1731 H 175.132 1.12537 -4.00385 0
M  V30 1732 H 173.709 2.48676 -2.77875 0
M  V30 1733 N 175.894 1.51508 0.433938 0
M  V30 1734 C 177.134 1.66006 1.19253 0
M  V30 1735 C 177.498 0.369868 1.88404 0
M  V30 1736 O 178.699 0.39066 2.65946 0
M  V30 1737 C 176.97 2.83229 2.17981 0
M  V30 1738 S 178.529 3.18075 3.02281 0
M  V30 1739 H 175.347 0.584821 0.404358 0
M  V30 1740 H 177.949 1.89425 0.48357 0
M  V30 1741 H 176.653 3.75407 1.65824 0
M  V30 1742 H 176.184 2.6201 2.93453 0
M  V30 1743 H 178.199 2.64772 4.19655 0
M  V30 1744 N 177.372 -0.689602 1.41712 0
M  V30 1745 C 178.649 -1.44457 1.31877 0
M  V30 1746 C 179.029 -2.11039 -0.0508537 0
M  V30 1747 O 178.377 -2.02138 -1.06547 0
M  V30 1748 C 178.587 -2.45913 2.47645 0
M  V30 1749 C 179.935 -3.10991 2.89084 0
M  V30 1750 O 180.959 -2.56238 2.47428 0
M  V30 1751 O 179.818 -4.10174 3.61137 0
M  V30 1752 H 176.912 -0.64362 0.519309 0
M  V30 1753 H 179.458 -0.719576 1.53689 0
M  V30 1754 H 178.23 -1.95409 3.39015 0
M  V30 1755 H 177.853 -3.25913 2.27742 0
M  V30 1756 N 178.85 -1.27639 -0.924453 0
M  V30 1757 C 180.078 -1.16989 -1.70649 0
M  V30 1758 C 180.493 0.272869 -1.86818 0
M  V30 1759 O 179.85 1.18549 -1.38753 0
M  V30 1760 C 179.901 -1.85229 -3.10439 0
M  V30 1761 O 179.622 -3.23868 -2.95028 0
M  V30 1762 C 181.123 -1.80746 -4.04779 0
M  V30 1763 H 178.343 -0.406595 -0.53378 0
M  V30 1764 H 180.887 -1.68569 -1.15778 0
M  V30 1765 H 179.042 -1.37545 -3.6216 0
M  V30 1766 H 179.456 -3.57889 -3.83426 0
M  V30 1767 H 180.93 -2.33101 -5.00368 0
M  V30 1768 H 181.407 -0.777499 -4.32263 0
M  V30 1769 H 182.013 -2.28059 -3.58984 0
M  V30 1770 N 180.328 1.1314 -1.09713 0
M  V30 1771 C 181.739 1.66029 -0.853885 0
M  V30 1772 C 182.09 1.86241 0.617142 0
M  V30 1773 O 181.215 1.5834 1.47503 0
M  V30 1774 C 181.81 3.01599 -1.5435 0
M  V30 1775 C 180.369 3.51467 -1.34714 0
M  V30 1776 C 179.516 2.26648 -1.59769 0
M  V30 1777 H 182.467 0.970226 -1.25588 0
M  V30 1778 H 182.488 3.67709 -0.978267 0
M  V30 1779 H 182 2.86856 -2.6141 0
M  V30 1780 H 180.101 3.71408 -0.297838 0
M  V30 1781 H 180.214 4.314 -2.08401 0
M  V30 1782 H 178.578 2.33385 -1.01998 0
M  V30 1783 H 179.361 2.14467 -2.68065 0
M  V30 1784 N 181.806 0.884767 1.30421 0
M  V30 1785 C 183.217 0.553656 1.78302 0
M  V30 1786 C 183.568 -0.930153 1.7275 0
M  V30 1787 O 182.693 -1.72681 1.30423 0
M  V30 1788 C 183.288 0.998234 3.2376 0
M  V30 1789 C 181.847 0.71854 3.69478 0
M  V30 1790 C 180.994 1.18132 2.50879 0
M  V30 1791 H 183.945 1.06901 1.17294 0
M  V30 1792 H 183.966 0.327118 3.79091 0
M  V30 1793 H 183.478 2.0782 3.27769 0
M  V30 1794 H 181.579 -0.349444 3.70958 0
M  V30 1795 H 181.692 1.30595 4.60958 0
M  V30 1796 H 180.056 0.600669 2.47516 0
M  V30 1797 H 180.839 2.26902 2.57624 0
M  V30 1798 N 183.284 -1.43765 0.645699 0
M  V30 1799 C 184.695 -1.85193 0.236719 0
M  V30 1800 C 185.046 -1.54045 -1.21509 0
M  V30 1801 O 184.171 -0.985694 -1.92647 0
M  V30 1802 C 184.766 -3.36151 0.422845 0
M  V30 1803 C 183.325 -3.76338 0.0682492 0
M  V30 1804 C 182.472 -2.67538 0.729306 0
M  V30 1805 H 185.423 -1.34025 0.849883 0
M  V30 1806 H 185.444 -3.79032 -0.333904 0
M  V30 1807 H 184.956 -3.5879 1.47958 0
M  V30 1808 H 183.057 -3.59312 -0.986179 0
M  V30 1809 H 183.17 -4.76603 0.488469 0
M  V30 1810 H 181.534 -2.54176 0.163235 0
M  V30 1811 H 182.317 -2.93006 1.78892 0
M  V30 1812 N 184.763 -0.387143 -1.52771 0
M  V30 1813 C 186.003 0.195537 -2.03463 0
M  V30 1814 C 186.367 1.44222 -1.26744 0
M  V30 1815 O 187.568 2.10192 -1.67549 0
M  V30 1816 C 185.839 0.459097 -3.54439 0
M  V30 1817 S 187.398 1.01237 -4.26962 0
M  V30 1818 H 184.216 0.0552675 -0.708849 0
M  V30 1819 H 186.818 -0.534992 -1.88037 0
M  V30 1820 H 185.522 -0.455382 -4.07866 0
M  V30 1821 H 185.053 1.21811 -3.74066 0
M  V30 1822 H 187.068 2.29492 -4.39941 0
M  V30 1823 N 186.241 1.57166 -0.116904 0
M  V30 1824 C 187.652 1.82169 0.408809 0
M  V30 1825 C 188.003 1.03393 1.66746 0
M  V30 1826 O 187.128 0.269886 2.1471 0
M  V30 1827 C 187.723 3.30429 0.748466 0
M  V30 1828 C 186.282 3.5612 1.21882 0
M  V30 1829 C 185.429 2.76374 0.226452 0
M  V30 1830 H 188.38 1.5497 -0.342063 0
M  V30 1831 H 188.401 3.44943 1.60607 0
M  V30 1832 H 187.913 3.87737 -0.167784 0
M  V30 1833 H 186.014 3.04168 2.15204 0
M  V30 1834 H 186.127 4.64705 1.16559 0
M  V30 1835 H 184.491 2.44515 0.713063 0
M  V30 1836 H 185.274 3.3644 -0.682859 0
M  V30 1837 N 187.719 -0.156864 1.56817 0
M  V30 1838 C 189.135 -0.50916 1.5126 0
M  V30 1839 C 189.335 -1.83897 0.823658 0
M  V30 1840 O 188.391 -2.49469 0.390055 0
M  V30 1841 C 189.704 -0.52857 2.96018 0
M  V30 1842 C 191.252 -0.614771 3.06903 0
M  V30 1843 C 191.727 -0.664938 4.53147 0
M  V30 1844 N 193.218 -0.727433 4.57452 0
M  V30 1845 C 193.953 -0.787067 5.67973 0
M  V30 1846 N 193.449 -0.806649 6.88088 0
M  V30 1847 N 195.242 -0.827195 5.5598 0
M  V30 1848 H 187.393 0.714935 2.00006 0
M  V30 1849 H 189.656 0.259526 0.911784 0
M  V30 1850 H 189.362 0.380154 3.49639 0
M  V30 1851 H 189.236 -1.36998 3.51442 0
M  V30 1852 H 191.623 -1.51392 2.53307 0
M  V30 1853 H 191.704 0.253597 2.5454 0
M  V30 1854 H 191.348 0.230011 5.07379 0
M  V30 1855 H 191.278 -1.54966 5.03282 0
M  V30 1856 H 193.769 -0.719998 3.70978 0
M  V30 1857 H 194.082 -0.853727 7.6807 0
M  V30 1858 H 192.427 -0.774687 6.90669 0
M  V30 1859 H 195.618 -0.808998 4.61056 0
M  V30 1860 H 195.791 -0.870206 6.4213 0
M  V30 1861 N 189.197 -1.51736 -0.425897 0
M  V30 1862 C 190.437 -1.66636 -1.18371 0
M  V30 1863 C 190.801 -0.379854 -1.88205 0
M  V30 1864 O 192.002 -0.404758 -2.65735 0
M  V30 1865 C 190.273 -2.84382 -2.16476 0
M  V30 1866 S 191.832 -3.19673 -3.0059 0
M  V30 1867 H 188.65 -0.586957 -0.40125 0
M  V30 1868 H 191.252 -1.89679 -0.473518 0
M  V30 1869 H 189.956 -3.76281 -1.63831 0
M  V30 1870 H 189.487 -2.63562 -2.92059 0
M  V30 1871 H 191.502 -2.66994 -4.18245 0
M  V30 1872 N 190.675 0.682077 -1.42076 0
M  V30 1873 C 192.086 1.26246 -1.37546 0
M  V30 1874 C 192.437 1.96092 -0.0651481 0
M  V30 1875 O 191.562 1.99587 0.836297 0
M  V30 1876 C 192.157 2.29594 -2.49143 0
M  V30 1877 C 190.716 2.83175 -2.47969 0
M  V30 1878 C 189.863 1.57395 -2.28303 0
M  V30 1879 H 192.814 0.475937 -1.51395 0
M  V30 1880 H 192.835 3.11175 -2.18976 0
M  V30 1881 H 192.347 1.78729 -3.44496 0
M  V30 1882 H 190.448 3.3818 -1.56413 0
M  V30 1883 H 190.561 3.32687 -3.44755 0
M  V30 1884 H 188.925 1.83699 -1.76428 0
M  V30 1885 H 189.708 1.08507 -3.25701 0
M  V30 1886 N 192.153 1.28127 0.917671 0
M  V30 1887 C 193.063 1.13556 2.05286 0
M  V30 1888 C 194.079 0.0630914 1.73886 0
M  V30 1889 O 195.255 0.271598 1.9956 0
M  V30 1890 C 192.32 0.794676 3.3747 0
M  V30 1891 C 191.381 1.94909 3.82504 0
M  V30 1892 C 190.614 1.62437 5.0838 0
M  V30 1893 O 190.837 0.536905 5.67867 0
M  V30 1894 O 189.771 2.46677 5.4903 0
M  V30 1895 H 193.597 2.08844 2.20495 0
M  V30 1896 H 191.182 1.07409 1.03845 0
M  V30 1897 H 193.064 0.618344 4.16839 0
M  V30 1898 H 191.739 -0.128581 3.23445 0
M  V30 1899 H 190.646 2.18055 3.03978 0
M  V30 1900 H 191.979 2.85291 4.01086 0
M  V30 1901 N 193.631 -1.12557 1.10312 0
M  V30 1902 C 195.042 -1.65574 0.862678 0
M  V30 1903 C 195.393 -1.86566 -0.607256 0
M  V30 1904 O 194.518 -1.59121 -1.46662 0
M  V30 1905 C 195.113 -3.00776 1.55947 0
M  V30 1906 C 193.672 -3.50748 1.36576 0
M  V30 1907 C 192.819 -2.25797 1.60968 0
M  V30 1908 H 195.77 -0.963552 1.26101 0
M  V30 1909 H 195.791 -3.67185 0.997753 0
M  V30 1910 H 195.303 -2.85465 2.62928 0
M  V30 1911 H 193.404 -3.71245 0.317531 0
M  V30 1912 H 193.517 -4.30289 2.10686 0
M  V30 1913 H 191.881 -2.32841 1.03234 0
M  V30 1914 H 192.664 -2.13043 2.69198 0
M  V30 1915 N 195.109 -0.891671 -1.2995 0
M  V30 1916 C 196.056 -0.361736 -2.27948 0
M  V30 1917 C 197.026 0.551761 -1.56668 0
M  V30 1918 O 198.211 0.478736 -1.84696 0
M  V30 1919 C 195.351 0.411825 -3.42634 0
M  V30 1920 C 194.464 -0.531651 -4.28716 0
M  V30 1921 C 193.599 0.258167 -5.30572 0
M  V30 1922 C 192.638 -0.680349 -6.08307 0
M  V30 1923 N 191.775 0.0745613 -7.0206 0
M  V30 1924 H 196.615 -1.20254 -2.72659 0
M  V30 1925 H 194.152 -0.604352 -1.34112 0
M  V30 1926 H 196.11 0.876304 -4.07893 0
M  V30 1927 H 194.74 1.21715 -2.98974 0
M  V30 1928 H 193.792 -1.11463 -3.63703 0
M  V30 1929 H 195.104 -1.25038 -4.82874 0
M  V30 1930 H 194.258 0.784204 -6.0161 0
M  V30 1931 H 192.997 1.01008 -4.77126 0
M  V30 1932 H 192.002 -1.21796 -5.3614 0
M  V30 1933 H 193.227 -1.43145 -6.63842 0
M  V30 1934 H 191.173 0.808883 -6.50994 0
M  V30 1935 H 191.09 -0.584409 -7.53738 0
M  V30 1936 H 192.358 0.581123 -7.77331 0
M  V30 1937 N 196.587 1.43421 -0.653314 0
M  V30 1938 C 197.812 2.06678 -0.172846 0
M  V30 1939 C 198.237 1.48648 1.15262 0
M  V30 1940 O 197.595 0.596457 1.71208 0
M  V30 1941 C 197.643 3.60474 -0.0953184 0
M  V30 1942 O 196.747 4.01487 0.942442 0
M  V30 1943 H 196.088 0.657181 -0.0949155 0
M  V30 1944 H 198.618 1.83925 -0.896265 0
M  V30 1945 H 198.628 4.07905 0.0879728 0
M  V30 1946 H 197.303 4.02088 -1.06291 0
M  V30 1947 H 195.88 3.65646 0.731932 0
M  V30 1948 N 198.065 0.39524 1.52563 0
M  V30 1949 C 199.305 -0.184744 2.03563 0
M  V30 1950 C 199.669 -1.43548 1.27507 0
M  V30 1951 O 200.87 -2.093 1.68662 0
M  V30 1952 C 199.141 -0.440294 3.54678 0
M  V30 1953 S 200.7 -0.989712 4.27493 0
M  V30 1954 H 197.518 -0.0515075 0.709132 0
M  V30 1955 H 200.12 0.544957 1.87751 0
M  V30 1956 H 198.824 0.477005 4.07618 0
M  V30 1957 H 198.355 -1.19825 3.74707 0
M  V30 1958 H 200.37 -2.27155 4.41152 0
M  V30 1959 N 199.544 -1.57102 0.125237 0
M  V30 1960 C 200.821 -1.86953 -0.575142 0
M  V30 1961 C 201.201 -1.02749 -1.84407 0
M  V30 1962 O 200.549 -0.108144 -2.28244 0
M  V30 1963 C 200.759 -3.38198 -0.861583 0
M  V30 1964 C 202.107 -4.06937 -1.21192 0
M  V30 1965 O 203.131 -3.43252 -0.951645 0
M  V30 1966 O 201.99 -5.19364 -1.70068 0
M  V30 1967 H 199.084 -0.774147 -0.290906 0
M  V30 1968 H 201.63 -1.68942 0.160211 0
M  V30 1969 H 200.402 -3.91282 0.0373647 0
M  V30 1970 H 200.025 -3.61661 -1.65188 0
M  V30 1971 N 201.022 0.148545 -1.56898 0
M  V30 1972 C 202.25 0.876389 -1.87422 0
M  V30 1973 C 202.665 1.74809 -0.713256 0
M  V30 1974 O 202.022 1.79725 0.317025 0
M  V30 1975 C 202.073 1.73438 -3.17178 0
M  V30 1976 O 201.794 0.897809 -4.28802 0
M  V30 1977 C 203.295 2.56993 -3.61205 0
M  V30 1978 H 200.515 0.253489 -0.621277 0
M  V30 1979 H 203.059 0.141798 -2.04008 0
M  V30 1980 H 201.214 2.42205 -3.0235 0
M  V30 1981 H 201.628 1.48672 -5.02988 0
M  V30 1982 H 203.102 3.12773 -4.54838 0
M  V30 1983 H 203.579 3.32958 -2.86419 0
M  V30 1984 H 204.185 1.9352 -3.78722 0
M  V30 1985 N 202.5 1.5196 0.417844 0
M  V30 1986 C 203.911 1.57851 0.997 0
M  V30 1987 C 204.262 0.413714 1.91789 0
M  V30 1988 O 203.387 -0.467057 2.113 0
M  V30 1989 C 203.982 2.86085 1.81496 0
M  V30 1990 C 202.541 2.94483 2.34428 0
M  V30 1991 C 201.688 2.52707 1.14169 0
M  V30 1992 H 204.639 1.57455 0.198392 0
M  V30 1993 H 204.66 2.70947 2.67148 0
M  V30 1994 H 204.172 3.70842 1.14446 0
M  V30 1995 H 202.273 2.142 3.04875 0
M  V30 1996 H 202.386 3.98546 2.65891 0
M  V30 1997 H 200.75 2.06353 1.49301 0
M  V30 1998 H 201.533 3.39828 0.486999 0
M  V30 1999 N 203.978 -0.674533 1.42435 0
M  V30 2000 C 205.389 -1.25514 1.38214 0
M  V30 2001 C 205.74 -1.96055 0.0755464 0
M  V30 2002 O 204.865 -2.00028 -0.8257 0
M  V30 2003 C 205.46 -2.28269 2.50357 0
M  V30 2004 C 204.019 -2.81856 2.49467 0
M  V30 2005 C 203.166 -1.56182 2.29134 0
M  V30 2006 H 206.117 -0.467902 1.51646 0
M  V30 2007 H 206.138 -3.10009 2.20624 0
M  V30 2008 H 205.65 -1.769 3.45439 0
M  V30 2009 H 203.751 -3.37346 1.58204 0
M  V30 2010 H 203.864 -3.30854 3.46515 0
M  V30 2011 H 202.228 -1.82761 1.774 0
M  V30 2012 H 203.011 -1.06778 3.26272 0
M  V30 2013 N 205.456 -1.28612 -0.910864 0
M  V30 2014 C 206.867 -1.14406 -1.47541 0
M  V30 2015 C 207.218 0.264901 -1.94403 0
M  V30 2016 O 206.343 1.15942 -1.82719 0
M  V30 2017 C 206.938 -2.07073 -2.68153 0
M  V30 2018 C 205.497 -1.96923 -3.20778 0
M  V30 2019 C 204.644 -1.98646 -1.93481 0
M  V30 2020 H 207.595 -1.41259 -0.723291 0
M  V30 2021 H 207.616 -1.63642 -3.43514 0
M  V30 2022 H 207.128 -3.09611 -2.34015 0
M  V30 2023 H 205.229 -0.97433 -3.59635 0
M  V30 2024 H 205.342 -2.84026 -3.85832 0
M  V30 2025 H 203.706 -1.43093 -2.10705 0
M  V30 2026 H 204.489 -3.02868 -1.61634 0
M  V30 2027 N 206.934 1.1197 -1.10907 0
M  V30 2028 C 208.174 1.85224 -0.864378 0
M  V30 2029 C 208.538 1.82411 0.599178 0
M  V30 2030 O 209.739 2.51057 0.960416 0
M  V30 2031 C 208.01 3.2868 -1.40371 0
M  V30 2032 S 209.569 4.1925 -1.29518 0
M  V30 2033 H 206.387 0.63878 -0.312219 0
M  V30 2034 H 208.989 1.3485 -1.41548 0
M  V30 2035 H 207.693 3.28289 -2.46281 0
M  V30 2036 H 207.224 3.84121 -0.849402 0
M  V30 2037 H 209.239 4.95539 -0.256059 0
M  V30 2038 N 208.412 0.89855 1.29475 0
M  V30 2039 C 209.823 0.572537 1.77705 0
M  V30 2040 C 210.174 -0.911778 1.73727 0
M  V30 2041 O 209.299 -1.71288 1.32247 0
M  V30 2042 C 209.894 1.03252 3.22683 0
M  V30 2043 C 208.453 0.757687 3.68695 0
M  V30 2044 C 207.6 1.20787 2.49612 0
M  V30 2045 H 210.551 1.08139 1.16153 0
M  V30 2046 H 210.572 0.367307 3.78723 0
M  V30 2047 H 210.084 2.11285 3.25546 0
M  V30 2048 H 208.185 -0.310079 3.71308 0
M  V30 2049 H 208.298 1.35476 4.59547 0
M  V30 2050 H 206.662 0.626888 2.46865 0
M  V30 2051 H 207.445 2.29622 2.55203 0
M  V30 2052 N 209.89 -1.43072 0.660911 0
M  V30 2053 C 211.306 -1.56169 0.329173 0
M  V30 2054 C 211.506 -1.64317 -1.16629 0
M  V30 2055 O 210.562 -1.60245 -1.95135 0
M  V30 2056 C 211.875 -2.81873 1.04729 0
M  V30 2057 C 213.423 -2.95627 1.02828 0
M  V30 2058 C 213.898 -4.24174 1.72744 0
M  V30 2059 N 215.389 -4.31055 1.69545 0
M  V30 2060 C 216.124 -5.29304 2.20511 0
M  V30 2061 N 215.62 -6.33786 2.79799 0
M  V30 2062 N 217.413 -5.21008 2.10966 0
M  V30 2063 H 209.564 -1.36027 1.63127 0
M  V30 2064 H 211.827 -0.653823 0.686454 0
M  V30 2065 H 211.533 -2.81942 2.10242 0
M  V30 2066 H 211.407 -3.72338 0.603702 0
M  V30 2067 H 213.794 -2.95094 -0.0184742 0
M  V30 2068 H 213.875 -2.06431 1.51063 0
M  V30 2069 H 213.519 -4.25467 2.7738 0
M  V30 2070 H 213.449 -5.1228 1.2197 0
M  V30 2071 H 215.94 -3.56174 1.26288 0
M  V30 2072 H 216.253 -7.05086 3.16344 0
M  V30 2073 H 214.598 -6.34387 2.83863 0
M  V30 2074 H 217.789 -4.38301 1.64347 0
M  V30 2075 H 217.962 -5.97416 2.50993 0
M  V30 2076 N 211.368 -0.403325 -1.52352 0
M  V30 2077 C 212.608 0.173946 -2.03659 0
M  V30 2078 C 212.972 1.42869 -1.28267 0
M  V30 2079 O 214.173 2.08403 -1.69769 0
M  V30 2080 C 212.444 0.421478 -3.54906 0
M  V30 2081 S 214.003 0.967027 -4.28012 0
M  V30 2082 H 210.821 0.0477461 -0.709395 0
M  V30 2083 H 213.423 -0.554906 -1.87459 0
M  V30 2084 H 212.127 -0.498616 -4.0736 0
M  V30 2085 H 211.658 1.17837 -3.75337 0
M  V30 2086 H 213.673 2.24812 -4.4235 0
M  V30 2087 N 212.846 1.57033 -0.133567 0
M  V30 2088 C 214.257 1.82593 0.389464 0
M  V30 2089 C 214.608 1.05156 1.6564 0
M  V30 2090 O 213.733 0.292644 2.14412 0
M  V30 2091 C 214.328 3.31204 0.713377 0
M  V30 2092 C 212.887 3.57393 1.18098 0
M  V30 2093 C 212.034 2.76598 0.197126 0
M  V30 2094 H 214.985 1.54598 -0.358481 0
M  V30 2095 H 215.006 3.46627 1.56939 0
M  V30 2096 H 214.518 3.87537 -0.2089 0
M  V30 2097 H 212.619 3.06433 2.11966 0
M  V30 2098 H 212.732 4.65915 1.11624 0
M  V30 2099 H 211.096 2.45257 0.687088 0
M  V30 2100 H 211.879 3.35697 -0.718504 0
M  V30 2101 N 214.325 -0.140222 1.56975 0
M  V30 2102 C 215.235 -1.19223 2.02047 0
M  V30 2103 C 216.251 -1.46612 0.937062 0
M  V30 2104 O 217.427 -1.58148 1.24704 0
M  V30 2105 C 214.492 -2.50414 2.39778 0
M  V30 2106 C 213.553 -2.30612 3.621 0
M  V30 2107 C 212.786 -3.55547 3.98023 0
M  V30 2108 O 213.009 -4.62004 3.34528 0
M  V30 2109 O 211.943 -3.47808 4.91237 0
M  V30 2110 H 215.769 -0.839559 2.91865 0
M  V30 2111 H 213.354 -0.349453 1.45256 0
M  V30 2112 H 215.236 -3.27747 2.64877 0
M  V30 2113 H 213.911 -2.85198 1.53114 0
M  V30 2114 H 212.818 -1.51207 3.4218 0
M  V30 2115 H 214.151 -2.00741 4.49404 0
M  V30 2116 N 215.803 -1.52179 -0.40978 0
M  V30 2117 C 217.214 -1.58377 -0.988615 0
M  V30 2118 C 217.565 -0.423879 -1.91566 0
M  V30 2119 O 216.69 0.455844 -2.11544 0
M  V30 2120 C 217.285 -2.87044 -1.79976 0
M  V30 2121 C 215.844 -2.95722 -2.32863 0
M  V30 2122 C 214.991 -2.53309 -1.12828 0
M  V30 2123 H 217.942 -1.57558 -0.190039 0
M  V30 2124 H 217.963 -2.7236 -2.65707 0
M  V30 2125 H 217.475 -3.71444 -1.12478 0
M  V30 2126 H 215.576 -2.15814 -3.03735 0
M  V30 2127 H 215.689 -3.99951 -2.63773 0
M  V30 2128 H 214.053 -2.07142 -1.48204 0
M  V30 2129 H 214.836 -3.40082 -0.46897 0
M  V30 2130 N 217.281 0.66697 -1.42791 0
M  V30 2131 C 218.228 1.7803 -1.4688 0
M  V30 2132 C 219.198 1.6299 -0.319919 0
M  V30 2133 O 220.383 1.83432 -0.525118 0
M  V30 2134 C 217.523 3.1611 -1.38451 0
M  V30 2135 C 216.636 3.42381 -2.63437 0
M  V30 2136 C 215.771 4.70232 -2.47094 0
M  V30 2137 C 214.81 4.89564 -3.67415 0
M  V30 2138 N 213.947 6.08661 -3.49966 0
M  V30 2139 H 218.787 1.7387 -2.42019 0
M  V30 2140 H 216.324 0.84868 -1.20149 0
M  V30 2141 H 218.282 3.95914 -1.31561 0
M  V30 2142 H 216.912 3.19374 -0.469033 0
M  V30 2143 H 215.964 2.56774 -2.80662 0
M  V30 2144 H 217.276 3.52557 -3.52853 0
M  V30 2145 H 216.43 5.5814 -2.37834 0
M  V30 2146 H 215.169 4.62353 -1.5518 0
M  V30 2147 H 214.174 4.00096 -3.77099 0
M  V30 2148 H 215.399 4.99282 -4.6032 0
M  V30 2149 H 213.345 6.0194 -2.60776 0
M  V30 2150 H 213.262 6.19733 -4.32975 0
M  V30 2151 H 214.53 6.99226 -3.44532 0
M  V30 2152 N 218.759 1.29093 0.90403 0
M  V30 2153 C 219.984 1.19809 1.69294 0
M  V30 2154 C 220.409 -0.238481 1.86582 0
M  V30 2155 O 219.767 -1.1723 1.383 0
M  V30 2156 C 219.815 1.91202 3.05736 0
M  V30 2157 O 218.919 1.22611 3.93752 0
M  V30 2158 H 218.26 0.415385 0.518027 0
M  V30 2159 H 220.79 1.70586 1.12967 0
M  V30 2160 H 220.8 1.99487 3.55906 0
M  V30 2161 H 219.475 2.95692 2.92471 0
M  V30 2162 H 218.052 1.22554 3.52186 0
M  V30 2163 N 220.237 -1.11381 1.11499 0
M  V30 2164 C 221.477 -1.84763 0.874188 0
M  V30 2165 C 221.841 -1.82726 -0.589496 0
M  V30 2166 O 223.042 -2.51562 -0.947089 0
M  V30 2167 C 221.313 -3.27931 1.42112 0
M  V30 2168 S 222.872 -4.18557 1.31739 0
M  V30 2169 H 219.69 -0.637115 0.315603 0
M  V30 2170 H 222.292 -1.34097 1.42261 0
M  V30 2171 H 220.996 -3.26978 2.48019 0
M  V30 2172 H 220.527 -3.83665 0.869761 0
M  V30 2173 H 222.542 -4.95396 0.282335 0
M  V30 2174 N 221.715 -0.905404 -1.28997 0
M  V30 2175 C 222.992 -0.453513 -1.9027 0
M  V30 2176 C 223.372 1.06721 -1.82137 0
M  V30 2177 O 222.72 1.91159 -1.25182 0
M  V30 2178 C 222.93 -0.974494 -3.35119 0
M  V30 2179 C 224.278 -1.0216 -4.12127 0
M  V30 2180 O 225.302 -0.922557 -3.44046 0
M  V30 2181 O 224.161 -1.17121 -5.33802 0
M  V30 2182 H 221.255 -0.142347 -0.814657 0
M  V30 2183 H 223.801 -0.995642 -1.37423 0
M  V30 2184 H 222.573 -2.01848 -3.35221 0
M  V30 2185 H 222.196 -0.412706 -3.95452 0
M  V30 2186 N 223.193 1.4272 -0.668489 0
M  V30 2187 C 224.421 2.05966 -0.196348 0
M  V30 2188 C 224.836 1.50191 1.14403 0
M  V30 2189 O 224.193 0.639208 1.7094 0
M  V30 2190 C 224.244 3.61314 -0.115815 0
M  V30 2191 O 223.965 4.1502 -1.40322 0
M  V30 2192 C 225.466 4.41663 0.380579 0
M  V30 2193 H 222.686 0.663954 -0.0969829 0
M  V30 2194 H 225.23 1.82966 -0.913446 0
M  V30 2195 H 223.385 3.83448 0.551931 0
M  V30 2196 H 223.799 5.08832 -1.27243 0
M  V30 2197 H 225.273 5.5065 0.385848 0
M  V30 2198 H 225.75 4.15792 1.41471 0
M  V30 2199 H 226.356 4.24534 -0.255209 0
M  V30 2200 N 224.671 0.411399 1.52136 0
M  V30 2201 C 226.082 -0.0576826 1.86611 0
M  V30 2202 C 226.433 -1.44238 1.33003 0
M  V30 2203 O 225.558 -2.05759 0.670228 0
M  V30 2204 C 226.153 -0.111448 3.38617 0
M  V30 2205 C 224.712 -0.52487 3.72723 0
M  V30 2206 C 223.859 0.299176 2.75681 0
M  V30 2207 H 226.81 0.628368 1.4573 0
M  V30 2208 H 226.831 -0.926252 3.69054 0
M  V30 2209 H 226.343 0.896488 3.77604 0
M  V30 2210 H 224.444 -1.53936 3.39315 0
M  V30 2211 H 224.557 -0.267681 4.78352 0
M  V30 2212 H 222.921 -0.238814 2.53578 0
M  V30 2213 H 223.704 1.3055 3.17508 0
M  V30 2214 N 226.149 -1.5696 0.141893 0
M  V30 2215 C 227.56 -1.82797 -0.379776 0
M  V30 2216 C 227.911 -1.06033 -1.6508 0
M  V30 2217 O 227.036 -0.304011 -2.14254 0
M  V30 2218 C 227.631 -3.31578 -0.695802 0
M  V30 2219 C 226.19 -3.58014 -1.16201 0
M  V30 2220 C 225.337 -2.76699 -0.182455 0
M  V30 2221 H 228.288 -1.54406 0.366675 0
M  V30 2222 H 228.309 -3.47454 -1.55099 0
M  V30 2223 H 227.821 -3.87421 0.229449 0
M  V30 2224 H 225.922 -3.07553 -2.10338 0
M  V30 2225 H 226.035 -4.66501 -1.09151 0
M  V30 2226 H 224.399 -2.45618 -0.674072 0
M  V30 2227 H 225.182 -3.35311 0.736297 0
M  V30 2228 N 227.627 0.131896 -1.57047 0
M  V30 2229 C 229.038 0.690407 -1.73465 0
M  V30 2230 C 229.389 1.8094 -0.758629 0
M  V30 2231 O 228.514 2.16282 0.0713813 0
M  V30 2232 C 229.109 1.25916 -3.14532 0
M  V30 2233 C 227.668 1.76409 -3.32501 0
M  V30 2234 C 226.815 0.658579 -2.69366 0
M  V30 2235 H 229.766 -0.0939144 -1.58422 0
M  V30 2236 H 229.787 2.12892 -3.15369 0
M  V30 2237 H 229.299 0.444515 -3.85546 0
M  V30 2238 H 227.4 2.60391 -2.66509 0
M  V30 2239 H 227.513 1.88241 -4.4057 0
M  V30 2240 H 225.877 1.08899 -2.30246 0
M  V30 2241 H 226.66 -0.14487 -3.42994 0
M  V30 2242 N 229.106 1.52395 0.401703 0
M  V30 2243 C 230.346 1.68498 1.15705 0
M  V30 2244 C 230.71 0.409748 1.87577 0
M  V30 2245 O 231.911 0.446983 2.65058 0
M  V30 2246 C 230.182 2.87789 2.11924 0
M  V30 2247 S 231.741 3.24415 2.95466 0
M  V30 2248 H 228.559 0.593267 0.391862 0
M  V30 2249 H 231.161 1.90408 0.443282 0
M  V30 2250 H 229.865 3.7884 1.57824 0
M  V30 2251 H 229.396 2.68175 2.87829 0
M  V30 2252 H 231.411 2.73614 4.13944 0
M  V30 2253 N 230.584 -0.659388 1.43143 0
M  V30 2254 C 231.995 -1.24041 1.39537 0
M  V30 2255 C 232.346 -1.95963 0.0963364 0
M  V30 2256 O 231.471 -2.00892 -0.804438 0
M  V30 2257 C 232.066 -2.25601 2.52764 0
M  V30 2258 C 230.625 -2.79195 2.52443 0
M  V30 2259 C 229.772 -1.53743 2.30778 0
M  V30 2260 H 232.723 -0.451792 1.52133 0
M  V30 2261 H 232.744 -3.07651 2.23899 0
M  V30 2262 H 232.256 -1.73226 3.47296 0
M  V30 2263 H 230.357 -3.35649 1.61773 0
M  V30 2264 H 230.47 -3.2716 3.50004 0
M  V30 2265 H 228.834 -1.80869 1.79328 0
M  V30 2266 H 229.617 -1.03312 3.27386 0
M  V30 2267 N 232.062 -1.29571 -0.897171 0
M  V30 2268 C 233.478 -1.07637 -1.17841 0
M  V30 2269 C 233.678 0.170713 -2.00776 0
M  V30 2270 O 232.734 0.867768 -2.3712 0
M  V30 2271 C 234.047 -2.3332 -1.8969 0
M  V30 2272 C 235.595 -2.38664 -2.02505 0
M  V30 2273 C 236.07 -3.64157 -2.77765 0
M  V30 2274 N 237.561 -3.64894 -2.85318 0
M  V30 2275 C 238.296 -4.58679 -3.44094 0
M  V30 2276 N 237.792 -5.62799 -4.04017 0
M  V30 2277 N 239.585 -4.46245 -3.41793 0
M  V30 2278 H 231.736 -2.09598 -0.343883 0
M  V30 2279 H 233.999 -0.923333 -0.214848 0
M  V30 2280 H 233.705 -3.24262 -1.36187 0
M  V30 2281 H 233.579 -2.41025 -2.9015 0
M  V30 2282 H 235.966 -1.48208 -2.55183 0
M  V30 2283 H 236.047 -2.34943 -1.01171 0
M  V30 2284 H 235.691 -4.54965 -2.25763 0
M  V30 2285 H 235.621 -3.65137 -3.7945 0
M  V30 2286 H 238.112 -2.89613 -2.42761 0
M  V30 2287 H 238.425 -6.3048 -4.46895 0
M  V30 2288 H 236.77 -5.66605 -4.02472 0
M  V30 2289 H 239.961 -3.64094 -2.94199 0
M  V30 2290 H 240.134 -5.19518 -3.87304 0
M  V30 2291 N 233.54 1.10788 -1.12088 0
M  V30 2292 C 234.78 1.84297 -0.883974 0
M  V30 2293 C 235.144 1.83036 0.579797 0
M  V30 2294 O 236.345 2.52061 0.933734 0
M  V30 2295 C 234.616 3.27173 -1.43849 0
M  V30 2296 S 236.175 4.17853 -1.33957 0
M  V30 2297 H 232.993 0.635433 -0.318977 0
M  V30 2298 H 235.595 1.33341 -1.4297 0
M  V30 2299 H 234.299 3.25658 -2.49749 0
M  V30 2300 H 233.83 3.83198 -0.890096 0
M  V30 2301 H 235.845 4.95239 -0.308603 0
M  V30 2302 N 235.018 0.912232 1.28515 0
M  V30 2303 C 236.429 0.591352 1.77087 0
M  V30 2304 C 236.78 -0.8933 1.74684 0
M  V30 2305 O 235.905 -1.69876 1.34056 0
M  V30 2306 C 236.5 1.06668 3.2157 0
M  V30 2307 C 235.059 0.79675 3.67871 0
M  V30 2308 C 234.206 1.23427 2.48316 0
M  V30 2309 H 237.157 1.09365 1.15 0
M  V30 2310 H 237.178 0.407455 3.78312 0
M  V30 2311 H 236.69 2.14726 3.23287 0
M  V30 2312 H 234.791 -0.270679 3.71616 0
M  V30 2313 H 234.904 1.40343 4.58084 0
M  V30 2314 H 233.268 0.653036 2.46186 0
M  V30 2315 H 234.051 2.32316 2.52753 0
M  V30 2316 N 236.496 -1.42363 0.676048 0
M  V30 2317 C 237.459 -2.29199 0.00766941 0
M  V30 2318 C 238.459 -1.43389 -0.727745 0
M  V30 2319 O 239.649 -1.64764 -0.56556 0
M  V30 2320 C 236.781 -3.2591 -0.999785 0
M  V30 2321 H 237.974 -2.89794 0.771988 0
M  V30 2322 H 235.527 -1.50024 0.438468 0
M  V30 2323 H 236.262 -2.70256 -1.79255 0
M  V30 2324 H 236.047 -3.89202 -0.475829 0
M  V30 2325 H 237.537 -3.91028 -1.46583 0
M  V30 2326 N 237.974 -0.419461 -1.51915 0
M  V30 2327 C 239.385 0.0477853 -1.86639 0
M  V30 2328 C 239.736 1.43531 -1.33766 0
M  V30 2329 O 238.861 2.05401 -0.68113 0
M  V30 2330 C 239.456 0.0934885 -3.38671 0
M  V30 2331 C 238.015 0.505097 -3.72996 0
M  V30 2332 C 237.162 -0.313792 -2.75519 0
M  V30 2333 H 240.113 -0.636088 -1.45395 0
M  V30 2334 H 240.134 0.906667 -3.6954 0
M  V30 2335 H 239.646 -0.916501 -3.77123 0
M  V30 2336 H 237.747 1.52135 -3.40126 0
M  V30 2337 H 237.86 0.242309 -4.78487 0
M  V30 2338 H 236.224 0.225363 -2.53701 0
M  V30 2339 H 237.007 -1.32232 -3.16812 0
M  V30 2340 N 239.452 1.56882 -0.150215 0
M  V30 2341 C 240.362 2.20494 0.801222 0
M  V30 2342 C 241.378 1.19019 1.26927 0
M  V30 2343 O 242.554 1.51607 1.32579 0
M  V30 2344 C 239.619 2.81659 2.02161 0
M  V30 2345 C 238.68 3.9827 1.60249 0
M  V30 2346 C 237.913 4.56508 2.7647 0
M  V30 2347 O 238.136 4.13627 3.92771 0
M  V30 2348 O 237.07 5.46719 2.51757 0
M  V30 2349 H 240.896 3.02315 0.289717 0
M  V30 2350 H 238.481 1.49202 0.0769684 0
M  V30 2351 H 240.363 3.20522 2.73576 0
M  V30 2352 H 239.038 2.02849 2.52258 0
M  V30 2353 H 237.945 3.64117 0.858477 0
M  V30 2354 H 239.278 4.78609 1.14864 0
M  V30 2355 N 240.93 -0.123565 1.57115 0
M  V30 2356 C 241.86 -1.15309 2.03042 0
M  V30 2357 C 242.841 -1.43454 0.914061 0
M  V30 2358 O 244.026 -1.53973 1.18347 0
M  V30 2359 C 241.156 -2.48043 2.43089 0
M  V30 2360 C 240.11 -2.3437 3.58127 0
M  V30 2361 C 239.436 -3.72026 3.84059 0
M  V30 2362 C 240.736 -1.80804 4.90007 0
M  V30 2363 H 242.43 -0.771102 2.893 0
M  V30 2364 H 239.976 -0.369479 1.39179 0
M  V30 2365 H 241.929 -3.20311 2.73823 0
M  V30 2366 H 240.653 -2.88122 1.53796 0
M  V30 2367 H 239.312 -1.64551 3.27595 0
M  V30 2368 H 238.96 -4.09582 2.91979 0
M  V30 2369 H 238.66 -3.63732 4.6149 0
M  V30 2370 H 240.184 -4.45806 4.1724 0
M  V30 2371 H 241.598 -2.42886 5.19307 0
M  V30 2372 H 239.995 -1.83343 5.71407 0
M  V30 2373 H 241.065 -0.76528 4.78823 0
M  V30 2374 N 242.408 -1.52605 -0.393616 0
M  V30 2375 C 243.338 -1.80022 -1.48709 0
M  V30 2376 C 244.319 -0.651995 -1.57108 0
M  V30 2377 O 245.504 -0.89913 -1.72132 0
M  V30 2378 C 242.634 -1.96492 -2.86371 0
M  V30 2379 C 241.588 -3.12161 -2.92813 0
M  V30 2380 C 240.914 -3.13877 -4.3288 0
M  V30 2381 C 242.214 -4.51322 -2.6288 0
M  V30 2382 H 243.908 -2.71589 -1.26015 0
M  V30 2383 H 241.454 -1.30684 -0.604778 0
M  V30 2384 H 243.407 -2.14255 -3.62867 0
M  V30 2385 H 242.131 -1.01611 -3.10391 0
M  V30 2386 H 240.79 -2.94173 -2.18764 0
M  V30 2387 H 240.438 -2.16687 -4.53933 0
M  V30 2388 H 240.138 -3.91576 -4.38112 0
M  V30 2389 H 241.662 -3.33789 -5.1129 0
M  V30 2390 H 243.076 -4.69435 -3.29096 0
M  V30 2391 H 241.473 -5.31053 -2.79468 0
M  V30 2392 H 242.543 -4.58353 -1.58242 0
M  V30 2393 N 243.887 0.651787 -1.4349 0
M  V30 2394 C 245.135 1.40888 -1.44897 0
M  V30 2395 C 245.456 1.94856 -0.0749086 0
M  V30 2396 O 244.726 1.74518 0.889956 0
M  V30 2397 H 243.306 0.522887 -0.533478 0
M  V30 2398 H 245.968 0.768609 -1.79104 0
M  V30 2399 H 245.064 2.25052 -2.16236 0
M  V30 2400 N 245.365 1.30045 0.890287 0
M  V30 2401 C 246.613 1.18327 1.63839 0
M  V30 2402 C 246.934 -0.263455 1.93212 0
M  V30 2403 O 246.204 -1.17856 1.56482 0
M  V30 2404 H 244.784 0.434933 0.607324 0
M  V30 2405 H 247.446 1.631 1.06698 0
M  V30 2406 H 246.542 1.74024 2.59079 0
M  V30 2407 N 246.843 -1.10192 1.12674 0
M  V30 2408 C 248.254 -1.63707 0.897604 0
M  V30 2409 C 248.605 -1.87812 -0.567546 0
M  V30 2410 O 247.73 -1.62196 -1.43253 0
M  V30 2411 C 248.325 -2.974 1.62292 0
M  V30 2412 C 246.884 -3.47772 1.43986 0
M  V30 2413 C 246.031 -2.22332 1.65722 0
M  V30 2414 H 248.982 -0.936587 1.28116 0
M  V30 2415 H 249.003 -3.64986 1.07541 0
M  V30 2416 H 248.515 -2.79824 2.68924 0
M  V30 2417 H 246.616 -3.70487 0.396206 0
M  V30 2418 H 246.729 -4.25723 2.19765 0
M  V30 2419 H 245.093 -2.30599 1.08149 0
M  V30 2420 H 245.876 -2.07285 2.73657 0
M  V30 2421 N 248.321 -0.919034 -1.28029 0
M  V30 2422 C 249.546 -0.570357 -1.99403 0
M  V30 2423 C 249.971 0.842486 -1.68178 0
M  V30 2424 O 249.329 1.56391 -0.917141 0
M  V30 2425 C 249.377 -0.792541 -3.51783 0
M  V30 2426 O 248.481 0.145988 -4.12142 0
M  V30 2427 H 247.822 -0.220555 -0.6263 0
M  V30 2428 H 250.352 -1.23592 -1.63053 0
M  V30 2429 H 250.362 -0.704708 -4.01868 0
M  V30 2430 H 249.037 -1.82247 -3.73844 0
M  V30 2431 H 247.614 0.00897528 -3.72899 0
M  V30 2432 N 249.799 1.42003 -0.683588 0
M  V30 2433 C 251.045 2.01712 -0.209825 0
M  V30 2434 C 251.378 1.53968 1.18353 0
M  V30 2435 O 250.653 0.745661 1.79639 0
M  V30 2436 C 250.936 3.59202 -0.254197 0
M  V30 2437 C 250.789 4.17102 -1.68363 0
M  V30 2438 C 252.108 4.38344 0.392709 0
M  V30 2439 H 249.227 0.732891 -0.0777189 0
M  V30 2440 H 251.869 1.68909 -0.87004 0
M  V30 2441 H 250.019 3.87278 0.307954 0
M  V30 2442 H 251.691 3.99946 -2.29871 0
M  V30 2443 H 249.934 3.72597 -2.22157 0
M  V30 2444 H 250.605 5.26249 -1.6663 0
M  V30 2445 H 253.081 4.16011 -0.0859162 0
M  V30 2446 H 251.957 5.47901 0.331063 0
M  V30 2447 H 252.218 4.16887 1.47164 0
M  V30 2448 N 251.277 0.427512 1.51691 0
M  V30 2449 C 252.524 -0.142229 2.02 0
M  V30 2450 C 252.852 -1.43566 1.31221 0
M  V30 2451 O 252.107 -1.91298 0.412744 0
M  V30 2452 C 252.406 -0.418249 3.54944 0
M  V30 2453 C 252.072 0.788187 4.43958 0
M  V30 2454 C 250.734 1.11906 4.68007 0
M  V30 2455 C 253.086 1.59347 4.96244 0
M  V30 2456 C 250.414 2.25608 5.41588 0
M  V30 2457 C 252.766 2.7214 5.71072 0
M  V30 2458 C 251.43 3.05692 5.93387 0
M  V30 2459 H 250.7 -0.0520451 0.73917 0
M  V30 2460 H 253.347 0.572697 1.82736 0
M  V30 2461 H 251.652 -1.21496 3.72486 0
M  V30 2462 H 253.349 -0.872339 3.91397 0
M  V30 2463 H 249.939 0.520344 4.2543 0
M  V30 2464 H 254.123 1.35106 4.77556 0
M  V30 2465 H 249.379 2.51929 5.57083 0
M  V30 2466 H 253.553 3.34914 6.10578 0
M  V30 2467 H 251.18 3.9391 6.50184 0
M  V30 2468 N 252.755 -1.56801 0.158532 0
M  V30 2469 C 253.685 -2.20347 -0.772609 0
M  V30 2470 C 254.666 -1.15518 -1.24859 0
M  V30 2471 O 255.851 -1.43902 -1.30406 0
M  V30 2472 C 252.981 -2.83417 -2.00729 0
M  V30 2473 C 251.935 -3.94174 -1.66765 0
M  V30 2474 C 251.261 -4.44233 -2.97592 0
M  V30 2475 C 252.561 -5.14392 -0.905447 0
M  V30 2476 H 254.255 -2.98413 -0.242959 0
M  V30 2477 H 251.801 -1.43537 -0.115419 0
M  V30 2478 H 253.754 -3.26543 -2.6636 0
M  V30 2479 H 252.478 -2.02701 -2.56086 0
M  V30 2480 H 251.137 -3.51684 -1.03508 0
M  V30 2481 H 250.785 -3.60325 -3.50963 0
M  V30 2482 H 250.485 -5.18945 -2.75626 0
M  V30 2483 H 252.009 -4.90037 -3.64274 0
M  V30 2484 H 253.423 -5.5429 -1.46408 0
M  V30 2485 H 251.82 -5.9494 -0.7853 0
M  V30 2486 H 252.89 -4.84795 0.100668 0
M  V30 2487 N 254.233 0.115231 -1.57178 0
M  V30 2488 C 255.48 0.822351 -1.8505 0
M  V30 2489 C 255.808 1.79701 -0.744168 0
M  V30 2490 O 255.063 1.93909 0.26414 0
M  V30 2491 C 255.362 1.60324 -3.19423 0
M  V30 2492 C 255.028 0.772536 -4.44233 0
M  V30 2493 C 253.69 0.543468 -4.78121 0
M  V30 2494 C 256.042 0.193746 -5.2084 0
M  V30 2495 C 253.37 -0.274583 -5.86057 0
M  V30 2496 C 255.722 -0.611517 -6.29637 0
M  V30 2497 C 254.386 -0.850867 -6.62055 0
M  V30 2498 H 253.656 0.30092 -0.677147 0
M  V30 2499 H 256.303 0.0845802 -1.91313 0
M  V30 2500 H 254.608 2.41203 -3.08753 0
M  V30 2501 H 256.305 2.1544 -3.38211 0
M  V30 2502 H 252.895 0.96117 -4.17683 0
M  V30 2503 H 257.079 0.357926 -4.95008 0
M  V30 2504 H 252.335 -0.469206 -6.09597 0
M  V30 2505 H 256.509 -1.06697 -6.88178 0
M  V30 2506 H 254.136 -1.48657 -7.45523 0
M  V30 2507 N 255.711 1.52812 0.385517 0
M  V30 2508 C 257.122 1.5993 0.963293 0
M  V30 2509 C 257.473 0.454302 1.90868 0
M  V30 2510 O 256.598 -0.422132 2.12243 0
M  V30 2511 C 257.193 2.89871 1.75387 0
M  V30 2512 C 255.752 2.99389 2.28129 0
M  V30 2513 C 254.899 2.55071 1.08783 0
M  V30 2514 H 257.85 1.5784 0.164948 0
M  V30 2515 H 257.871 2.76553 2.61341 0
M  V30 2516 H 257.383 3.73186 1.06554 0
M  V30 2517 H 255.484 2.20619 3.00263 0
M  V30 2518 H 255.597 4.04096 2.57377 0
M  V30 2519 H 253.961 2.09473 1.4489 0
M  V30 2520 H 254.744 3.40785 0.414807 0
M  V30 2521 N 257.189 -0.644168 1.43834 0
M  V30 2522 C 258.6 -1.22554 1.40845 0
M  V30 2523 C 258.951 -1.9585 0.117115 0
M  V30 2524 O 258.076 -2.01734 -0.783086 0
M  V30 2525 C 258.671 -2.22907 2.55143 0
M  V30 2526 C 257.23 -2.76501 2.5539 0
M  V30 2527 C 256.377 -1.51287 2.32396 0
M  V30 2528 H 259.328 -0.43563 1.52604 0
M  V30 2529 H 259.349 -3.05259 2.2715 0
M  V30 2530 H 258.861 -1.69533 3.49114 0
M  V30 2531 H 256.962 -3.33914 1.65324 0
M  V30 2532 H 257.075 -3.23429 3.53455 0
M  V30 2533 H 255.439 -1.78957 1.81236 0
M  V30 2534 H 256.222 -0.998336 3.28463 0
M  V30 2535 N 258.668 -1.30515 -0.883378 0
M  V30 2536 C 259.615 -1.17032 -1.98927 0
M  V30 2537 C 260.585 -0.0594241 -1.65994 0
M  V30 2538 O 261.77 -0.229895 -1.8941 0
M  V30 2539 C 258.91 -0.869777 -3.33959 0
M  V30 2540 C 258.023 -2.06271 -3.79574 0
M  V30 2541 C 257.158 -1.70011 -5.03259 0
M  V30 2542 C 256.197 -2.8579 -5.41286 0
M  V30 2543 N 255.334 -2.49816 -6.56153 0
M  V30 2544 H 260.174 -2.1164 -2.09792 0
M  V30 2545 H 257.711 -1.05296 -1.02719 0
M  V30 2546 H 259.669 -0.676138 -4.11685 0
M  V30 2547 H 258.299 0.0394332 -3.22776 0
M  V30 2548 H 257.351 -2.36755 -2.97744 0
M  V30 2549 H 258.663 -2.92971 -4.03694 0
M  V30 2550 H 257.817 -1.47032 -5.88614 0
M  V30 2551 H 256.556 -0.804829 -4.81013 0
M  V30 2552 H 255.561 -3.09434 -4.54456 0
M  V30 2553 H 256.786 -3.76008 -5.65504 0
M  V30 2554 H 254.732 -1.62795 -6.35479 0
M  V30 2555 H 254.649 -3.30048 -6.8015 0
M  V30 2556 H 255.917 -2.30197 -7.44735 0
M  V30 2557 N 260.146 1.09593 -1.13257 0
M  V30 2558 C 261.557 1.63229 -0.906274 0
M  V30 2559 C 261.908 1.8811 0.557578 0
M  V30 2560 O 261.033 1.62953 1.42391 0
M  V30 2561 C 261.628 2.96535 -1.63867 0
M  V30 2562 C 260.187 3.47003 -1.45828 0
M  V30 2563 C 259.334 2.2145 -1.66898 0
M  V30 2564 H 262.285 0.92978 -1.28611 0
M  V30 2565 H 262.306 3.64411 -1.09476 0
M  V30 2566 H 261.818 2.78394 -2.70404 0
M  V30 2567 H 259.919 3.70272 -0.415848 0
M  V30 2568 H 260.032 4.24551 -2.2202 0
M  V30 2569 H 258.396 2.30022 -1.09371 0
M  V30 2570 H 259.179 2.0583 -2.74752 0
M  V30 2571 N 261.624 0.925811 1.2754 0
M  V30 2572 C 262.571 0.422045 2.26908 0
M  V30 2573 C 263.541 -0.510029 1.58076 0
M  V30 2574 O 264.726 -0.429599 1.85901 0
M  V30 2575 C 261.866 -0.320837 3.43605 0
M  V30 2576 C 260.979 0.64513 4.27156 0
M  V30 2577 C 260.114 -0.117405 5.3107 0
M  V30 2578 C 259.153 0.841391 6.0629 0
M  V30 2579 N 258.29 0.111604 7.02011 0
M  V30 2580 H 263.13 1.27441 2.69375 0
M  V30 2581 H 260.667 0.639697 1.32462 0
M  V30 2582 H 262.625 -0.76785 4.10073 0
M  V30 2583 H 261.255 -1.13745 3.02096 0
M  V30 2584 H 260.307 1.21067 3.6062 0
M  V30 2585 H 261.619 1.37797 4.79389 0
M  V30 2586 H 260.773 -0.624422 6.03478 0
M  V30 2587 H 259.512 -0.883219 4.79636 0
M  V30 2588 H 258.517 1.35967 5.32722 0
M  V30 2589 H 259.742 1.60696 6.59813 0
M  V30 2590 H 257.688 -0.635999 6.5291 0
M  V30 2591 H 257.605 0.784044 7.51923 0
M  V30 2592 H 258.873 -0.374823 7.78598 0
M  V30 2593 N 263.102 -1.41638 0.69111 0
M  V30 2594 C 264.379 -1.95036 0.148421 0
M  V30 2595 C 264.759 -1.63072 -1.34055 0
M  V30 2596 O 264.107 -0.93538 -2.08478 0
M  V30 2597 C 264.317 -3.46279 0.434951 0
M  V30 2598 C 265.665 -4.23069 0.360275 0
M  V30 2599 O 266.689 -3.54277 0.369613 0
M  V30 2600 O 265.548 -5.45583 0.316534 0
M  V30 2601 H 262.642 -0.826908 0.0123654 0
M  V30 2602 H 265.188 -1.5138 0.766963 0
M  V30 2603 H 263.96 -3.6281 1.46576 0
M  V30 2604 H 263.583 -3.97019 -0.214787 0
M  V30 2605 N 264.58 -0.43555 -1.51462 0
M  V30 2606 C 265.808 0.130242 -2.0649 0
M  V30 2607 C 266.223 1.36614 -1.30315 0
M  V30 2608 O 265.58 1.78869 -0.362223 0
M  V30 2609 C 265.631 0.454253 -3.58635 0
M  V30 2610 O 265.352 -0.73259 -4.31931 0
M  V30 2611 C 266.853 1.07091 -4.3017 0
M  V30 2612 H 264.073 0.00871669 -0.670943 0
M  V30 2613 H 266.617 -0.614117 -1.95061 0
M  V30 2614 H 264.772 1.14851 -3.69984 0
M  V30 2615 H 265.186 -0.455787 -5.22516 0
M  V30 2616 H 266.66 1.24764 -5.37716 0
M  V30 2617 H 267.137 2.05144 -3.88346 0
M  V30 2618 H 267.743 0.416089 -4.2326 0
M  V30 2619 N 266.058 1.56714 -0.166846 0
M  V30 2620 C 266.988 2.20754 0.760913 0
M  V30 2621 C 267.969 1.16178 1.24244 0
M  V30 2622 O 269.154 1.44592 1.29641 0
M  V30 2623 C 266.284 2.84478 1.99223 0
M  V30 2624 C 265.238 3.95053 1.64672 0
M  V30 2625 C 264.564 4.45805 2.95232 0
M  V30 2626 C 265.864 5.14865 0.878155 0
M  V30 2627 H 267.558 2.98537 0.22713 0
M  V30 2628 H 265.104 1.43596 0.107805 0
M  V30 2629 H 267.057 3.27951 2.64624 0
M  V30 2630 H 265.781 2.04056 2.55007 0
M  V30 2631 H 264.44 3.52228 1.01641 0
M  V30 2632 H 264.088 3.62181 3.49047 0
M  V30 2633 H 263.788 5.204 2.7287 0
M  V30 2634 H 265.312 4.91962 3.6167 0
M  V30 2635 H 266.726 5.55059 1.43466 0
M  V30 2636 H 265.123 5.95348 0.753738 0
M  V30 2637 H 266.193 4.84735 -0.126377 0
M  V30 2638 N 267.536 -0.106894 1.57237 0
M  V30 2639 C 268.469 -1.16125 1.96444 0
M  V30 2640 C 269.447 -1.3947 0.835871 0
M  V30 2641 O 270.631 -1.53425 1.09513 0
M  V30 2642 C 267.758 -2.51277 2.27107 0
M  V30 2643 C 266.804 -2.44285 3.4961 0
M  V30 2644 S 267.637 -1.87077 5.01759 0
M  V30 2645 C 268.793 -3.23877 5.35588 0
M  V30 2646 H 269.026 -0.826971 2.85567 0
M  V30 2647 H 266.559 -0.314124 1.51171 0
M  V30 2648 H 268.517 -3.29035 2.45451 0
M  V30 2649 H 267.178 -2.81879 1.38576 0
M  V30 2650 H 266.371 -3.4387 3.68469 0
M  V30 2651 H 265.973 -1.74652 3.30715 0
M  V30 2652 H 268.265 -4.20122 5.31511 0
M  V30 2653 H 269.208 -3.09833 6.36717 0
M  V30 2654 H 269.616 -3.22864 4.63054 0
M  V30 2655 N 269.014 -1.53014 -0.377408 0
M  V30 2656 C 270.263 -1.67845 -1.11853 0
M  V30 2657 C 270.576 -0.430625 -1.90801 0
M  V30 2658 O 271.782 -0.459261 -2.67587 0
M  V30 2659 C 270.238 -2.96668 -2.03756 0
M  V30 2660 C 269.846 -4.28671 -1.30175 0
M  V30 2661 C 271.59 -3.20865 -2.77932 0
M  V30 2662 C 269.497 -5.48591 -2.20911 0
M  V30 2663 H 268.427 -0.625343 -0.421263 0
M  V30 2664 H 271.078 -1.79514 -0.380409 0
M  V30 2665 H 269.46 -2.78773 -2.8125 0
M  V30 2666 H 270.634 -4.57157 -0.578259 0
M  V30 2667 H 268.949 -4.10825 -0.679108 0
M  V30 2668 H 271.546 -4.07642 -3.46024 0
M  V30 2669 H 271.889 -2.36424 -3.4265 0
M  V30 2670 H 272.422 -3.39379 -2.07525 0
M  V30 2671 H 269.161 -6.35474 -1.6079 0
M  V30 2672 H 268.681 -5.244 -2.91144 0
M  V30 2673 H 270.36 -5.8292 -2.80736 0
M  V30 2674 N 270.492 0.636531 -1.44174 0
M  V30 2675 C 271.717 1.42847 -1.50364 0
M  V30 2676 C 272.142 1.87665 -0.127867 0
M  V30 2677 O 271.5 1.58408 0.88185 0
M  V30 2678 C 271.548 2.62854 -2.4686 0
M  V30 2679 O 270.652 3.62501 -1.9664 0
M  V30 2680 H 269.993 0.427642 -0.507955 0
M  V30 2681 H 272.523 0.777422 -1.89255 0
M  V30 2682 H 272.533 3.10465 -2.64718 0
M  V30 2683 H 271.208 2.29578 -3.46795 0
M  V30 2684 H 269.785 3.21735 -1.88523 0
M  V30 2685 N 271.97 1.30982 0.876444 0
M  V30 2686 C 273.386 1.09498 1.16113 0
M  V30 2687 C 273.586 -0.13875 2.01022 0
M  V30 2688 O 272.642 -0.829935 2.38471 0
M  V30 2689 C 273.955 2.36308 1.85954 0
M  V30 2690 C 275.503 2.41856 1.98683 0
M  V30 2691 C 275.978 3.6853 2.71937 0
M  V30 2692 N 277.469 3.69387 2.79477 0
M  V30 2693 C 278.204 4.64096 3.36753 0
M  V30 2694 N 277.7 5.69155 3.95012 0
M  V30 2695 N 279.493 4.51626 3.3465 0
M  V30 2696 H 271.644 2.10118 0.310494 0
M  V30 2697 H 273.907 0.926634 0.200131 0
M  V30 2698 H 273.613 3.26388 1.31011 0
M  V30 2699 H 273.487 2.4561 2.86278 0
M  V30 2700 H 275.874 1.52249 2.52793 0
M  V30 2701 H 275.955 2.36523 0.9742 0
M  V30 2702 H 275.599 4.58499 2.18496 0
M  V30 2703 H 275.529 3.71127 3.73593 0
M  V30 2704 H 278.02 2.93438 2.38123 0
M  V30 2705 H 278.333 6.3751 4.36808 0
M  V30 2706 H 276.678 5.72937 3.93406 0
M  V30 2707 H 279.869 3.68728 2.8837 0
M  V30 2708 H 280.042 5.25614 3.7899 0
M  V30 2709 N 273.449 -1.08991 1.13837 0
M  V30 2710 C 274.677 -1.85011 0.926202 0
M  V30 2711 C 275.092 -1.8135 -0.525127 0
M  V30 2712 O 274.449 -1.21287 -1.36366 0
M  V30 2713 C 274.5 -3.32802 1.41155 0
M  V30 2714 O 274.221 -3.36444 2.80601 0
M  V30 2715 C 275.722 -4.25649 1.23847 0
M  V30 2716 H 272.942 -0.584249 0.32999 0
M  V30 2717 H 275.486 -1.37688 1.51202 0
M  V30 2718 H 273.641 -3.77536 0.868631 0
M  V30 2719 H 274.055 -4.28657 3.02248 0
M  V30 2720 H 275.529 -5.27485 1.62675 0
M  V30 2721 H 276.006 -4.38828 0.18065 0
M  V30 2722 H 276.612 -3.86735 1.76964 0
M  V30 2723 N 274.927 -0.932562 -1.27047 0
M  V30 2724 C 276.338 -0.619451 -1.76124 0
M  V30 2725 C 276.689 0.865397 -1.76083 0
M  V30 2726 O 275.814 1.67722 -1.36742 0
M  V30 2727 C 276.409 -1.11771 -3.19832 0
M  V30 2728 C 274.968 -0.855174 -3.66557 0
M  V30 2729 C 274.115 -1.27362 -2.46321 0
M  V30 2730 H 277.066 -1.11181 -1.13245 0
M  V30 2731 H 277.087 -0.46759 -3.77616 0
M  V30 2732 H 276.599 -2.19842 -3.1983 0
M  V30 2733 H 274.7 0.211524 -3.71999 0
M  V30 2734 H 274.813 -1.47613 -4.55793 0
M  V30 2735 H 273.177 -0.692119 -2.45116 0
M  V30 2736 H 273.96 -2.36307 -2.49025 0
M  V30 2737 N 276.405 1.4127 -0.698611 0
M  V30 2738 C 277.315 2.34573 -0.0357891 0
M  V30 2739 C 278.331 1.56393 0.762701 0
M  V30 2740 O 279.507 1.8886 0.699564 0
M  V30 2741 C 276.572 3.35159 0.887089 0
M  V30 2742 C 275.633 4.29225 0.0804634 0
M  V30 2743 C 274.866 5.25006 0.959387 0
M  V30 2744 O 275.089 5.26314 2.19886 0
M  V30 2745 O 274.023 6.00519 0.407439 0
M  V30 2746 H 277.849 2.92838 -0.804957 0
M  V30 2747 H 275.434 1.42175 -0.458966 0
M  V30 2748 H 277.316 3.9689 1.41621 0
M  V30 2749 H 275.991 2.79333 1.6357 0
M  V30 2750 H 274.898 3.70833 -0.493328 0
M  V30 2751 H 276.231 4.88157 -0.629547 0
M  V30 2752 N 277.883 0.443576 1.51229 0
M  V30 2753 C 279.129 -0.120975 2.02439 0
M  V30 2754 C 279.462 -1.41815 1.32674 0
M  V30 2755 O 278.737 -1.89373 0.443622 0
M  V30 2756 C 279.02 -0.333291 3.58554 0
M  V30 2757 C 278.873 0.982968 4.38928 0
M  V30 2758 C 280.192 -1.10028 4.26124 0
M  V30 2759 H 277.311 -0.0424923 0.735774 0
M  V30 2760 H 279.953 0.583794 1.80809 0
M  V30 2761 H 278.103 -0.933614 3.77115 0
M  V30 2762 H 279.775 1.61775 4.32003 0
M  V30 2763 H 278.018 1.58611 4.03763 0
M  V30 2764 H 278.689 0.788379 5.46341 0
M  V30 2765 H 281.165 -0.591711 4.11871 0
M  V30 2766 H 280.041 -1.21761 5.35225 0
M  V30 2767 H 280.302 -2.12996 3.87408 0
M  V30 2768 N 279.361 -1.56624 0.175154 0
M  V30 2769 C 280.589 -2.01374 -0.474971 0
M  V30 2770 C 281.004 -1.05537 -1.56548 0
M  V30 2771 O 280.361 -0.0568668 -1.82411 0
M  V30 2772 C 280.412 -3.45923 -1.04975 0
M  V30 2773 O 280.133 -4.381 -0.00276605 0
M  V30 2774 C 281.634 -4.06093 -1.77773 0
M  V30 2775 H 278.854 -0.659962 -0.121206 0
M  V30 2776 H 281.398 -2.02601 0.27801 0
M  V30 2777 H 279.553 -3.45458 -1.75321 0
M  V30 2778 H 279.967 -5.22753 -0.427681 0
M  V30 2779 H 281.441 -5.09147 -2.13245 0
M  V30 2780 H 281.918 -3.48405 -2.67414 0
M  V30 2781 H 282.524 -4.10272 -1.12059 0
M  V30 2782 N 280.839 0.0985539 -1.57292 0
M  V30 2783 C 282.079 0.808332 -1.87737 0
M  V30 2784 C 282.443 1.7607 -0.76572 0
M  V30 2785 O 283.644 2.51358 -0.952499 0
M  V30 2786 C 281.915 1.52093 -3.23423 0
M  V30 2787 S 283.474 2.26947 -3.75554 0
M  V30 2788 H 280.292 0.269377 -0.657995 0
M  V30 2789 H 282.894 0.0656269 -1.9539 0
M  V30 2790 H 281.598 0.81363 -4.02254 0
M  V30 2791 H 281.129 2.30361 -3.189 0
M  V30 2792 H 283.144 3.53027 -3.48692 0
M  V30 2793 N 282.317 1.53212 0.369288 0
M  V30 2794 C 283.563 1.69466 1.11397 0
M  V30 2795 C 283.896 0.443257 1.89074 0
M  V30 2796 O 283.171 -0.559386 1.86282 0
M  V30 2797 C 283.454 2.9422 2.07621 0
M  V30 2798 C 283.307 4.29508 1.33577 0
M  V30 2799 C 284.626 3.14565 3.07794 0
M  V30 2800 H 281.745 0.616667 0.403597 0
M  V30 2801 H 284.387 1.85845 0.395179 0
M  V30 2802 H 282.537 2.80387 2.68916 0
M  V30 2803 H 284.209 4.55147 0.750955 0
M  V30 2804 H 282.452 4.29088 0.637618 0
M  V30 2805 H 283.123 5.12926 2.03989 0
M  V30 2806 H 285.599 3.2756 2.56601 0
M  V30 2807 H 284.475 4.03297 3.72348 0
M  V30 2808 H 284.736 2.29675 3.77759 0
M  V30 2809 N 283.795 -0.628877 1.44509 0
M  V30 2810 C 285.041 -1.39045 1.47629 0
M  V30 2811 C 285.374 -1.93892 0.109343 0
M  V30 2812 O 284.649 -1.7379 -0.87334 0
M  V30 2813 C 284.932 -2.55408 2.53848 0
M  V30 2814 C 284.785 -2.05896 3.99909 0
M  V30 2815 C 286.104 -3.5759 2.56549 0
M  V30 2816 H 283.223 -0.504232 0.537512 0
M  V30 2817 H 285.865 -0.710854 1.76201 0
M  V30 2818 H 284.015 -3.13384 2.29615 0
M  V30 2819 H 285.687 -1.52734 4.35282 0
M  V30 2820 H 283.93 -1.37061 4.11578 0
M  V30 2821 H 284.601 -2.89681 4.69882 0
M  V30 2822 H 287.077 -3.09419 2.78207 0
M  V30 2823 H 285.953 -4.36527 3.32769 0
M  V30 2824 H 286.214 -4.11808 1.60832 0
M  V30 2825 N 285.273 -1.31445 -0.869486 0
M  V30 2826 C 286.519 -1.21337 -1.62496 0
M  V30 2827 C 286.852 0.227872 -1.92858 0
M  V30 2828 O 286.127 1.16094 -1.56053 0
M  V30 2829 C 286.41 -2.05814 -2.95487 0
M  V30 2830 C 286.263 -3.5824 -2.72 0
M  V30 2831 C 287.582 -1.9079 -3.96594 0
M  V30 2832 H 284.701 -0.442135 -0.589649 0
M  V30 2833 H 287.343 -1.6124 -1.00507 0
M  V30 2834 H 285.493 -1.71913 -3.48394 0
M  V30 2835 H 287.165 -4.0228 -2.25762 0
M  V30 2836 H 285.408 -3.81647 -2.06224 0
M  V30 2837 H 286.079 -4.12657 -3.66631 0
M  V30 2838 H 288.555 -2.20459 -3.52898 0
M  V30 2839 H 287.431 -2.52199 -4.87531 0
M  V30 2840 H 287.692 -0.871341 -4.33428 0
M  V30 2841 N 286.751 1.08385 -1.14413 0
M  V30 2842 C 288.028 1.77429 -0.823297 0
M  V30 2843 C 288.408 1.9974 0.683163 0
M  V30 2844 O 287.756 1.60739 1.62405 0
M  V30 2845 C 287.966 3.09004 -1.62227 0
M  V30 2846 C 289.314 3.83532 -1.82177 0
M  V30 2847 O 290.338 3.18786 -1.58915 0
M  V30 2848 O 289.197 4.99792 -2.21067 0
M  V30 2849 H 286.291 0.769999 -0.301712 0
M  V30 2850 H 288.837 1.14846 -1.24934 0
M  V30 2851 H 287.609 2.88316 -2.64555 0
M  V30 2852 H 287.232 3.79316 -1.19187 0
M  V30 2853 N 288.23 0.939286 1.26551 0
M  V30 2854 C 289.476 0.586715 1.94128 0
M  V30 2855 C 289.809 -0.8717 1.73537 0
M  V30 2856 O 289.084 -1.62339 1.07127 0
M  V30 2857 C 289.367 0.927497 3.4795 0
M  V30 2858 C 289.22 2.44052 3.77834 0
M  V30 2859 C 290.539 0.441569 4.37879 0
M  V30 2860 H 287.658 0.21463 0.705055 0
M  V30 2861 H 290.3 1.17316 1.49455 0
M  V30 2862 H 288.45 0.428431 3.8613 0
M  V30 2863 H 290.122 3.01216 3.4938 0
M  V30 2864 H 288.365 2.8848 3.23978 0
M  V30 2865 H 289.036 2.62947 4.85348 0
M  V30 2866 H 291.512 0.869448 4.06915 0
M  V30 2867 H 290.388 0.708856 5.44304 0
M  V30 2868 H 290.649 -0.658467 4.37169 0
M  V30 2869 N 289.708 -1.40897 0.706093 0
M  V30 2870 C 290.933 -2.05895 0.249435 0
M  V30 2871 C 291.358 -1.52823 -1.09666 0
M  V30 2872 O 290.716 -0.659589 -1.68876 0
M  V30 2873 C 290.764 -3.59872 0.22904 0
M  V30 2874 O 289.868 -4.04708 -0.792784 0
M  V30 2875 H 289.209 -0.653206 0.119241 0
M  V30 2876 H 291.739 -1.80471 0.96391 0
M  V30 2877 H 291.749 -4.07951 0.0634791 0
M  V30 2878 H 290.424 -3.97866 1.21141 0
M  V30 2879 H 289.001 -3.68111 -0.59572 0
M  V30 2880 N 291.186 -0.45159 -1.50991 0
M  V30 2881 C 292.136 0.370861 -2.24964 0
M  V30 2882 C 293.12 0.978074 -1.2776 0
M  V30 2883 O 294.312 0.893854 -1.52772 0
M  V30 2884 C 291.441 1.46344 -3.10545 0
M  V30 2885 C 290.527 0.864924 -4.15187 0
M  V30 2886 N 290.918 -0.00311354 -5.058 0
M  V30 2887 C 289.216 1.13099 -4.31422 0
M  V30 2888 C 289.917 -0.340772 -5.80701 0
M  V30 2889 N 288.893 0.279203 -5.42883 0
M  V30 2890 H 292.695 -0.298134 -2.92384 0
M  V30 2891 H 290.209 -0.264528 -1.60231 0
M  V30 2892 H 292.206 2.06565 -3.62128 0
M  V30 2893 H 290.866 2.13463 -2.4467 0
M  V30 2894 H 291.877 -0.37058 -5.16572 0
M  V30 2895 H 288.554 1.79861 -3.76771 0
M  V30 2896 H 289.944 -1.048 -6.63677 0
M  V30 2897 N 292.664 1.56529 -0.183458 0
M  V30 2898 C 293.574 2.22144 0.754272 0
M  V30 2899 C 294.59 1.21684 1.24374 0
M  V30 2900 O 295.766 1.54385 1.29333 0
M  V30 2901 C 292.831 2.85884 1.96141 0
M  V30 2902 C 291.892 4.01579 1.51765 0
M  V30 2903 C 291.125 4.6227 2.66725 0
M  V30 2904 O 291.348 4.21865 3.83909 0
M  V30 2905 O 290.282 5.51936 2.40104 0
M  V30 2906 H 294.108 3.02861 0.225527 0
M  V30 2907 H 291.693 1.49331 0.0453032 0
M  V30 2908 H 293.575 3.26253 2.66715 0
M  V30 2909 H 292.25 2.08154 2.47899 0
M  V30 2910 H 291.157 3.65856 0.781049 0
M  V30 2911 H 292.49 4.80938 1.04686 0
M  V30 2912 N 294.142 -0.090211 1.57342 0
M  V30 2913 C 295.419 -0.824761 1.77361 0
M  V30 2914 C 295.799 -1.96698 0.76637 0
M  V30 2915 O 295.147 -2.27586 -0.204179 0
M  V30 2916 C 295.357 -1.31481 3.23286 0
M  V30 2917 C 296.705 -1.75563 3.86604 0
M  V30 2918 O 297.729 -1.41093 3.27065 0
M  V30 2919 O 296.588 -2.39317 4.91314 0
M  V30 2920 H 293.682 -0.393776 0.727234 0
M  V30 2921 H 296.228 -0.0717138 1.69548 0
M  V30 2922 H 295 -0.496671 3.88135 0
M  V30 2923 H 294.623 -2.12973 3.35751 0
M  V30 2924 N 295.62 -1.53406 -0.361157 0
M  V30 2925 C 297.031 -1.61442 -0.937728 0
M  V30 2926 C 297.382 -0.48461 -1.90121 0
M  V30 2927 O 296.507 0.388312 -2.12888 0
M  V30 2928 C 297.102 -2.92624 -1.70753 0
M  V30 2929 C 295.661 -3.02981 -2.23337 0
M  V30 2930 C 294.808 -2.5677 -1.04712 0
M  V30 2931 H 297.759 -1.58083 -0.139816 0
M  V30 2932 H 297.78 -2.80675 -2.56908 0
M  V30 2933 H 297.292 -3.74834 -1.00604 0
M  V30 2934 H 295.393 -2.25368 -2.96715 0
M  V30 2935 H 295.506 -4.0814 -2.50916 0
M  V30 2936 H 293.87 -2.11752 -1.41539 0
M  V30 2937 H 294.653 -3.41402 -0.360539 0
M  V30 2938 N 297.098 0.621204 -1.44841 0
M  V30 2939 C 298.008 1.7612 -1.5498 0
M  V30 2940 C 299.024 1.68477 -0.434927 0
M  V30 2941 O 300.2 1.89076 -0.693693 0
M  V30 2942 C 297.265 3.1254 -1.50065 0
M  V30 2943 C 296.326 3.31741 -2.72482 0
M  V30 2944 C 295.559 4.61653 -2.67792 0
M  V30 2945 O 295.782 5.431 -1.74352 0
M  V30 2946 O 294.716 4.83271 -3.58794 0
M  V30 2947 H 298.542 1.70518 -2.51311 0
M  V30 2948 H 296.127 0.783643 -1.27198 0
M  V30 2949 H 298.009 3.93844 -1.49882 0
M  V30 2950 H 296.684 3.18663 -0.568806 0
M  V30 2951 H 295.591 2.50077 -2.7823 0
M  V30 2952 H 296.924 3.30486 -3.64746 0
M  V30 2953 N 298.576 1.31904 0.862503 0
M  V30 2954 C 299.822 1.22197 1.61851 0
M  V30 2955 C 300.155 -0.217641 1.92977 0
M  V30 2956 O 299.43 -1.15264 1.56666 0
M  V30 2957 C 299.713 2.07378 2.94391 0
M  V30 2958 C 299.566 3.59678 2.70096 0
M  V30 2959 C 300.885 1.92891 3.95577 0
M  V30 2960 H 298.004 0.445255 0.587296 0
M  V30 2961 H 300.646 1.6177 0.99651 0
M  V30 2962 H 298.796 1.73758 3.47477 0
M  V30 2963 H 300.468 4.03472 2.23625 0
M  V30 2964 H 298.711 3.82735 2.04197 0
M  V30 2965 H 299.382 4.14595 3.64438 0
M  V30 2966 H 301.858 2.22327 3.51724 0
M  V30 2967 H 300.734 2.54781 4.86187 0
M  V30 2968 H 300.995 0.894315 4.3296 0
M  V30 2969 N 300.054 -1.07777 1.14986 0
M  V30 2970 C 300.986 -2.14769 0.800436 0
M  V30 2971 C 301.999 -1.61739 -0.185595 0
M  V30 2972 O 303.188 -1.78462 0.0370358 0
M  V30 2973 C 300.288 -3.38481 0.168533 0
M  V30 2974 C 299.461 -4.20876 1.1909 0
M  V30 2975 C 298.52 -5.22976 0.581575 0
M  V30 2976 O 297.546 -5.55388 1.24633 0
M  V30 2977 N 298.748 -5.76976 -0.638706 0
M  V30 2978 H 301.513 -2.45348 1.72118 0
M  V30 2979 H 299.074 -1.23645 1.04515 0
M  V30 2980 H 301.066 -4.03916 -0.251764 0
M  V30 2981 H 299.636 -3.05651 -0.655467 0
M  V30 2982 H 298.856 -3.51322 1.78791 0
M  V30 2983 H 300.144 -4.7274 1.88133 0
M  V30 2984 H 299.542 -5.52886 -1.19723 0
M  V30 2985 H 298.099 -6.44061 -1.00142 0
M  V30 2986 N 301.532 -0.945985 -1.26051 0
M  V30 2987 C 302.779 -0.596118 -1.93527 0
M  V30 2988 C 303.107 0.865559 -1.74179 0
M  V30 2989 O 302.362 1.63524 -1.0751 0
M  V30 2990 C 302.661 -0.890475 -3.46129 0
M  V30 2991 C 302.327 -2.3368 -3.85622 0
M  V30 2992 C 300.989 -2.73216 -3.96114 0
M  V30 2993 C 303.341 -3.27648 -4.05334 0
M  V30 2994 C 300.669 -4.05806 -4.2372 0
M  V30 2995 C 303.021 -4.59841 -4.3443 0
M  V30 2996 C 301.685 -4.99185 -4.43137 0
M  V30 2997 H 300.955 -0.218135 -0.708165 0
M  V30 2998 H 303.602 -1.1934 -1.49768 0
M  V30 2999 H 301.907 -0.210711 -3.91233 0
M  V30 3000 H 303.604 -0.598478 -3.96509 0
M  V30 3001 H 300.194 -2.02015 -3.78005 0
M  V30 3002 H 304.378 -2.98298 -3.96651 0
M  V30 3003 H 299.634 -4.35945 -4.28675 0
M  V30 3004 H 303.808 -5.32641 -4.48628 0
M  V30 3005 H 301.435 -6.01952 -4.64282 0
M  V30 3006 N 303.011 1.40521 -0.713556 0
M  V30 3007 C 303.958 2.30723 -0.059684 0
M  V30 3008 C 304.928 1.48079 0.752448 0
M  V30 3009 O 306.113 1.76823 0.71681 0
M  V30 3010 C 303.253 3.34274 0.857594 0
M  V30 3011 C 302.366 4.31986 0.0351536 0
M  V30 3012 C 301.501 5.22605 0.951724 0
M  V30 3013 C 300.54 6.11976 0.123253 0
M  V30 3014 N 299.677 6.9502 0.99459 0
M  V30 3015 H 304.517 2.86074 -0.834596 0
M  V30 3016 H 302.054 1.40879 -0.42326 0
M  V30 3017 H 304.012 3.92879 1.40364 0
M  V30 3018 H 302.642 2.8043 1.59871 0
M  V30 3019 H 301.694 3.7518 -0.628052 0
M  V30 3020 H 303.006 4.95101 -0.606347 0
M  V30 3021 H 302.16 5.86131 1.56638 0
M  V30 3022 H 300.899 4.59759 1.62705 0
M  V30 3023 H 299.904 5.47482 -0.50435 0
M  V30 3024 H 301.129 6.76881 -0.548539 0
M  V30 3025 H 299.075 6.34764 1.6556 0
M  V30 3026 H 298.992 7.54892 0.40908 0
M  V30 3027 H 300.26 7.62997 1.59549 0
M  V30 3028 N 304.489 0.459591 1.5075 0
M  V30 3029 C 305.735 -0.091664 2.03193 0
M  V30 3030 C 306.09 -1.38432 1.3362 0
M  V30 3031 O 305.383 -1.86257 0.449322 0
M  V30 3032 C 305.577 -0.342866 3.55752 0
M  V30 3033 C 305.406 0.923888 4.40107 0
M  V30 3034 C 304.176 1.46388 4.83631 0
M  V30 3035 C 306.374 1.81617 4.81165 0
M  V30 3036 N 304.356 2.68086 5.52271 0
M  V30 3037 C 305.727 2.87907 5.49099 0
M  V30 3038 C 307.782 1.82793 4.63132 0
M  V30 3039 C 306.485 3.95347 6.0091 0
M  V30 3040 C 308.511 2.89182 5.15876 0
M  V30 3041 C 307.873 3.94191 5.83774 0
M  V30 3042 H 303.972 0.00619247 0.781975 0
M  V30 3043 H 306.556 0.625233 1.84388 0
M  V30 3044 H 304.727 -1.0288 3.74527 0
M  V30 3045 H 306.459 -0.887445 3.9485 0
M  V30 3046 H 303.214 1.01466 4.62603 0
M  V30 3047 H 303.638 3.29857 5.91205 0
M  V30 3048 H 308.28 1.0293 4.1008 0
M  V30 3049 H 305.998 4.76035 6.53006 0
M  V30 3050 H 309.584 2.91061 5.0376 0
M  V30 3051 H 308.464 4.75161 6.23853 0
M  V30 3052 N 305.967 -1.56429 0.191757 0
M  V30 3053 C 307.197 -2.01574 -0.452928 0
M  V30 3054 C 307.605 -1.07107 -1.55964 0
M  V30 3055 O 306.948 -0.067534 -1.83576 0
M  V30 3056 C 307.01 -3.43121 -1.07278 0
M  V30 3057 C 306.674 -4.56879 -0.105214 0
M  V30 3058 C 307.671 -5.15379 0.684149 0
M  V30 3059 C 305.356 -5.023 0.00489824 0
M  V30 3060 C 307.35 -6.17746 1.57062 0
M  V30 3061 C 305.037 -6.04511 0.894935 0
M  V30 3062 C 306.035 -6.62108 1.67637 0
M  V30 3063 O 305.723 -7.62335 2.55149 0
M  V30 3064 H 305.455 -0.665554 -0.118379 0
M  V30 3065 H 308.009 -2.03245 0.296737 0
M  V30 3066 H 306.239 -3.38425 -1.87097 0
M  V30 3067 H 307.928 -3.72093 -1.62177 0
M  V30 3068 H 308.694 -4.81157 0.609365 0
M  V30 3069 H 304.573 -4.57168 -0.593156 0
M  V30 3070 H 308.117 -6.6263 2.181 0
M  V30 3071 H 304.014 -6.38157 0.970847 0
M  V30 3072 H 304.782 -7.79741 2.48892 0
M  V30 3073 N 307.445 0.0818655 -1.57387 0
M  V30 3074 C 308.691 0.784074 -1.8703 0
M  V30 3075 C 309.024 1.77729 -0.782689 0
M  V30 3076 O 308.299 1.93384 0.208051 0
M  V30 3077 C 308.582 1.50105 -3.27323 0
M  V30 3078 C 308.435 0.524925 -4.46727 0
M  V30 3079 C 309.754 2.44843 -3.65705 0
M  V30 3080 H 306.873 0.283582 -0.680257 0
M  V30 3081 H 309.515 0.0474352 -1.89941 0
M  V30 3082 H 307.665 2.12897 -3.24972 0
M  V30 3083 H 309.337 -0.0970111 -4.61198 0
M  V30 3084 H 307.58 -0.160606 -4.33503 0
M  V30 3085 H 308.251 1.064 -5.41648 0
M  V30 3086 H 310.727 1.92135 -3.69085 0
M  V30 3087 H 309.603 2.92018 -4.64776 0
M  V30 3088 H 309.864 3.29197 -2.95096 0
M  V30 3089 N 308.923 1.53595 0.353017 0
M  V30 3090 C 310.2 1.61002 1.11075 0
M  V30 3091 C 310.58 0.425356 2.0677 0
M  V30 3092 O 309.928 -0.583267 2.2093 0
M  V30 3093 C 310.138 2.96631 1.83877 0
M  V30 3094 C 311.486 3.51653 2.37961 0
M  V30 3095 O 312.51 2.98743 1.93987 0
M  V30 3096 O 311.369 4.44177 3.18386 0
M  V30 3097 H 308.463 0.650825 0.510251 0
M  V30 3098 H 311.009 1.6594 0.35527 0
M  V30 3099 H 309.781 3.74293 1.14108 0
M  V30 3100 H 309.404 2.95242 2.66304 0
M  V30 3101 N 310.401 -0.613514 1.45168 0
M  V30 3102 C 311.649 -1.36997 1.48581 0
M  V30 3103 C 311.97 -1.94589 0.126545 0
M  V30 3104 O 311.24 -1.76816 -0.843372 0
M  V30 3105 H 309.82 -0.508558 0.547154 0
M  V30 3106 H 312.482 -0.720853 1.81079 0
M  V30 3107 H 311.578 -2.1924 2.22127 0
M  V30 3108 N 311.879 -1.3236 -0.855495 0
M  V30 3109 C 313.125 -1.23054 -1.612 0
M  V30 3110 C 313.458 0.207404 -1.93089 0
M  V30 3111 O 312.733 1.14432 -1.57275 0
M  V30 3112 C 313.016 -2.08937 -2.93287 0
M  V30 3113 C 312.869 -3.61105 -2.68185 0
M  V30 3114 C 314.188 -1.94986 -3.94549 0
M  V30 3115 H 311.307 -0.448364 -0.584926 0
M  V30 3116 H 313.949 -1.62297 -0.987917 0
M  V30 3117 H 312.099 -1.75599 -3.46551 0
M  V30 3118 H 313.771 -4.04652 -2.21483 0
M  V30 3119 H 312.014 -3.83813 -2.02164 0
M  V30 3120 H 312.685 -4.16522 -3.62234 0
M  V30 3121 H 315.161 -2.24189 -3.5054 0
M  V30 3122 H 314.037 -2.57356 -4.84829 0
M  V30 3123 H 314.298 -0.917263 -4.3248 0
M  V30 3124 N 313.357 1.07166 -1.15556 0
M  V30 3125 C 314.267 2.17947 -0.868116 0
M  V30 3126 C 315.283 1.73297 0.156297 0
M  V30 3127 O 316.459 2.01392 -0.0182327 0
M  V30 3128 C 313.524 3.44789 -0.36355 0
M  V30 3129 C 312.585 4.03996 -1.45209 0
M  V30 3130 C 311.818 5.24783 -0.971508 0
M  V30 3131 O 312.041 5.70109 0.182194 0
M  V30 3132 O 310.975 5.75715 -1.75603 0
M  V30 3133 H 314.801 2.4503 -1.79427 0
M  V30 3134 H 312.386 1.16539 -0.934824 0
M  V30 3135 H 314.268 4.21307 -0.0887113 0
M  V30 3136 H 312.943 3.19253 0.534708 0
M  V30 3137 H 311.85 3.29009 -1.78056 0
M  V30 3138 H 313.183 4.33808 -2.32533 0
M  V30 3139 N 314.835 0.952656 1.25548 0
M  V30 3140 C 316.081 0.607272 1.93494 0
M  V30 3141 C 316.414 -0.853245 1.74452 0
M  V30 3142 O 315.689 -1.61194 1.08843 0
M  V30 3143 C 315.972 0.96435 3.46947 0
M  V30 3144 C 315.825 2.48045 3.75225 0
M  V30 3145 C 317.144 0.487987 4.37386 0
M  V30 3146 H 314.263 0.222096 0.702739 0
M  V30 3147 H 316.905 1.18895 1.48203 0
M  V30 3148 H 315.055 0.469361 3.85654 0
M  V30 3149 H 316.727 3.04905 3.46166 0
M  V30 3150 H 314.97 2.919 3.209 0
M  V30 3151 H 315.641 2.6808 4.82532 0
M  V30 3152 H 318.117 0.912558 4.0597 0
M  V30 3153 H 316.993 0.766547 5.43521 0
M  V30 3154 H 317.254 -0.612063 4.37843 0
M  V30 3155 N 316.313 -1.40141 0.720998 0
M  V30 3156 C 317.263 -2.27949 0.0482544 0
M  V30 3157 C 318.247 -1.43538 -0.727021 0
M  V30 3158 O 319.439 -1.6658 -0.598332 0
M  V30 3159 C 316.568 -3.32126 -0.868729 0
M  V30 3160 C 315.654 -4.24008 -0.0883515 0
M  V30 3161 N 316.045 -4.97154 0.931226 0
M  V30 3162 C 314.343 -4.4485 -0.320105 0
M  V30 3163 C 315.044 -5.64587 1.4006 0
M  V30 3164 N 314.02 -5.38787 0.721752 0
M  V30 3165 H 317.822 -2.81948 0.829609 0
M  V30 3166 H 315.336 -1.52656 0.554067 0
M  V30 3167 H 317.333 -3.93884 -1.36605 0
M  V30 3168 H 315.993 -2.79687 -1.6494 0
M  V30 3169 H 317.004 -5.01 1.31222 0
M  V30 3170 H 313.681 -4.03378 -1.07668 0
M  V30 3171 H 315.071 -6.33175 2.24808 0
M  V30 3172 N 317.792 -0.46758 -1.50504 0
M  V30 3173 C 318.74 0.342482 -2.30065 0
M  V30 3174 C 319.734 0.993596 -1.37201 0
M  V30 3175 O 320.94 0.925102 -1.54408 0
M  V30 3176 H 317.315 0.129283 -0.740803 0
M  V30 3177 H 319.286 -0.34899 -2.96352 0
M  V30 3178 C 318.035 1.4139 -3.17654 0
M  V30 3179 H 317.358 0.922264 -3.89017 0
M  V30 3180 H 318.798 1.95335 -3.76325 0
M  V30 3181 C 317.257 2.4139 -2.35016 0
M  V30 3182 O 317.787 3.46586 -2.03079 0
M  V30 3183 N 315.993 2.13021 -1.97662 0
M  V30 3184 H 315.54 1.27499 -2.23834 0
M  V30 3185 H 315.498 2.80164 -1.42673 0
M  V30 3186 N 319.27 1.56325 -0.20005 0
M  V30 3187 C 320.233 2.18084 0.705132 0
M  V30 3188 C 321.233 1.13666 1.1374 0
M  V30 3189 O 322.423 1.39023 1.04968 0
M  V30 3190 C 319.555 2.78689 1.96329 0
M  V30 3191 H 320.748 2.99435 0.167023 0
M  V30 3192 H 318.301 1.56221 0.0495725 0
M  V30 3193 H 319.036 2.0115 2.5438 0
M  V30 3194 H 318.821 3.55133 1.66202 0
M  V30 3195 H 320.311 3.26096 2.60866 0
M  V30 3196 N 320.748 -0.0735177 1.57428 0
M  V30 3197 C 321.695 -1.08756 2.0357 0
M  V30 3198 C 322.665 -1.38559 0.916 0
M  V30 3199 O 323.85 -1.49656 1.18354 0
M  V30 3200 C 320.99 -2.39657 2.48311 0
M  V30 3201 C 320.103 -2.16399 3.73892 0
M  V30 3202 C 319.238 -3.40852 4.07423 0
M  V30 3203 C 318.277 -3.1295 5.2605 0
M  V30 3204 N 317.414 -4.29729 5.55228 0
M  V30 3205 H 322.254 -0.687104 2.8997 0
M  V30 3206 H 319.791 -0.327709 1.43403 0
M  V30 3207 H 321.749 -3.16081 2.72303 0
M  V30 3208 H 320.379 -2.77508 1.64891 0
M  V30 3209 H 319.431 -1.30676 3.57251 0
M  V30 3210 H 320.743 -1.91788 4.60455 0
M  V30 3211 H 319.897 -4.25671 4.32306 0
M  V30 3212 H 318.636 -3.68537 3.19425 0
M  V30 3213 H 317.641 -2.26526 5.00965 0
M  V30 3214 H 318.866 -2.86589 6.15665 0
M  V30 3215 H 316.812 -4.57448 4.70188 0
M  V30 3216 H 316.729 -4.08385 6.36206 0
M  V30 3217 H 317.997 -5.1555 5.84661 0
M  V30 3218 N 322.226 -1.5378 -0.344866 0
M  V30 3219 C 323.454 -1.74899 -1.10534 0
M  V30 3220 C 323.869 -0.487534 -1.82397 0
M  V30 3221 O 323.226 0.540741 -1.74305 0
M  V30 3222 C 323.277 -2.92822 -2.11984 0
M  V30 3223 O 322.998 -4.14089 -1.43044 0
M  V30 3224 C 324.499 -3.25982 -3.00417 0
M  V30 3225 H 321.719 -0.584426 -0.329678 0
M  V30 3226 H 324.263 -2.006 -0.397474 0
M  V30 3227 H 322.418 -2.69457 -2.78338 0
M  V30 3228 H 322.832 -4.80272 -2.10805 0
M  V30 3229 H 324.306 -4.11848 -3.67539 0
M  V30 3230 H 324.783 -2.42228 -3.66363 0
M  V30 3231 H 325.389 -3.51349 -2.39654 0
M  V30 3232 N 323.704 0.605807 -1.45491 0
M  V30 3233 C 324.651 1.7164 -1.54299 0
M  V30 3234 C 325.621 1.61486 -0.388761 0
M  V30 3235 O 326.806 1.81039 -0.602445 0
M  V30 3236 C 323.946 3.09953 -1.51734 0
M  V30 3237 C 323.059 3.309 -2.77721 0
M  V30 3238 C 322.194 4.59329 -2.66816 0
M  V30 3239 C 321.233 4.7354 -3.87848 0
M  V30 3240 N 320.37 5.9327 -3.75467 0
M  V30 3241 H 325.21 1.63449 -2.49176 0
M  V30 3242 H 322.747 0.796957 -1.23641 0
M  V30 3243 H 324.705 3.89977 -1.48235 0
M  V30 3244 H 323.335 3.17098 -0.604068 0
M  V30 3245 H 322.387 2.44639 -2.913 0
M  V30 3246 H 323.699 3.37274 -3.67488 0
M  V30 3247 H 322.853 5.4755 -2.61292 0
M  V30 3248 H 321.592 4.55355 -1.74651 0
M  V30 3249 H 320.597 3.83741 -3.93729 0
M  V30 3250 H 321.822 4.79309 -4.81082 0
M  V30 3251 H 319.768 5.90338 -2.86072 0
M  V30 3252 H 319.685 6.00811 -4.5887 0
M  V30 3253 H 320.953 6.83984 -3.73879 0
M  V30 3254 N 325.182 1.32811 0.848464 0
M  V30 3255 C 326.593 1.21315 1.41914 0
M  V30 3256 C 326.944 -0.171847 1.95446 0
M  V30 3257 O 326.069 -1.07093 1.88043 0
M  V30 3258 C 326.664 2.19631 2.57968 0
M  V30 3259 C 325.223 2.12003 3.11017 0
M  V30 3260 C 324.37 2.07651 1.83783 0
M  V30 3261 H 327.321 1.44549 0.655071 0
M  V30 3262 H 327.342 1.79845 3.35315 0
M  V30 3263 H 326.854 3.20423 2.18976 0
M  V30 3264 H 324.955 1.14481 3.54577 0
M  V30 3265 H 325.068 3.02111 3.71841 0
M  V30 3266 H 323.432 1.52983 2.03638 0
M  V30 3267 H 324.215 3.10235 1.47 0
M  V30 3268 N 326.66 -1.06551 1.16123 0
M  V30 3269 C 328.076 -1.3142 0.905585 0
M  V30 3270 C 328.276 -1.96571 -0.442964 0
M  V30 3271 O 327.332 -2.23068 -1.18308 0
M  V30 3272 C 328.645 -2.19741 2.05267 0
M  V30 3273 C 330.193 -2.33165 2.08813 0
M  V30 3274 C 330.668 -3.24838 3.22868 0
M  V30 3275 N 332.159 -3.32421 3.22568 0
M  V30 3276 C 332.894 -4.0344 4.0746 0
M  V30 3277 N 332.39 -4.77003 5.02434 0
M  V30 3278 N 334.183 -3.99464 3.95456 0
M  V30 3279 H 326.334 -0.626548 2.02949 0
M  V30 3280 H 328.597 -0.338777 0.8854 0
M  V30 3281 H 328.303 -1.79142 3.02657 0
M  V30 3282 H 328.177 -3.20313 1.99198 0
M  V30 3283 H 330.564 -2.73013 1.12018 0
M  V30 3284 H 330.645 -1.3227 2.18948 0
M  V30 3285 H 330.289 -2.85708 4.19921 0
M  V30 3286 H 330.219 -4.25707 3.0997 0
M  V30 3287 H 332.71 -2.79994 2.53795 0
M  V30 3288 H 333.023 -5.28712 5.63634 0
M  V30 3289 H 331.368 -4.75992 5.06415 0
M  V30 3290 H 334.559 -3.4111 3.20564 0
M  V30 3291 H 334.732 -4.54544 4.61837 0
M  V30 3292 N 328.138 -0.959301 -1.25041 0
M  V30 3293 C 329.048 -0.489994 -2.29426 0
M  V30 3294 C 330.064 0.444944 -1.68215 0
M  V30 3295 O 331.24 0.320046 -1.98841 0
M  V30 3296 C 328.305 0.220309 -3.45999 0
M  V30 3297 C 327.366 -0.753418 -4.22637 0
M  V30 3298 C 326.599 -0.076918 -5.33645 0
M  V30 3299 O 326.822 1.13649 -5.58963 0
M  V30 3300 O 325.756 -0.764824 -5.97021 0
M  V30 3301 H 329.582 -1.35755 -2.71669 0
M  V30 3302 H 327.167 -0.725961 -1.30576 0
M  V30 3303 H 329.049 0.619677 -4.16819 0
M  V30 3304 H 327.724 1.06296 -3.0575 0
M  V30 3305 H 326.631 -1.20308 -3.54227 0
M  V30 3306 H 327.964 -1.56423 -4.66683 0
M  V30 3307 N 329.616 1.39756 -0.72842 0
M  V30 3308 C 330.526 2.34444 -0.0855374 0
M  V30 3309 C 331.542 1.57976 0.729356 0
M  V30 3310 O 332.718 1.90301 0.659346 0
M  V30 3311 C 329.783 3.36965 0.815798 0
M  V30 3312 C 328.844 4.29299 -0.0105996 0
M  V30 3313 C 328.077 5.26923 0.84781 0
M  V30 3314 O 328.3 5.30859 2.08673 0
M  V30 3315 O 327.234 6.01249 0.279969 0
M  V30 3316 H 331.06 2.91065 -0.866892 0
M  V30 3317 H 328.645 1.4117 -0.48902 0
M  V30 3318 H 330.527 3.99804 1.33171 0
M  V30 3319 H 329.202 2.82739 1.57608 0
M  V30 3320 H 328.109 3.69703 -0.571877 0
M  V30 3321 H 329.442 4.86712 -0.73295 0
M  V30 3322 N 331.094 0.475555 1.50254 0
M  V30 3323 C 332.026 -0.352649 2.26471 0
M  V30 3324 C 333.039 -0.953165 1.3198 0
M  V30 3325 O 334.228 -0.840815 1.57457 0
M  V30 3326 C 331.328 -1.50902 3.0345 0
M  V30 3327 C 330.501 -1.02047 4.25329 0
M  V30 3328 C 329.56 -2.05142 4.84565 0
M  V30 3329 O 328.586 -1.63023 5.45355 0
M  V30 3330 N 329.788 -3.37987 4.71959 0
M  V30 3331 H 332.553 0.300767 2.98187 0
M  V30 3332 H 330.114 0.306598 1.5897 0
M  V30 3333 H 332.106 -2.19572 3.39956 0
M  V30 3334 H 330.676 -2.06705 2.34504 0
M  V30 3335 H 329.896 -0.159507 3.93877 0
M  V30 3336 H 331.184 -0.672061 5.04342 0
M  V30 3337 H 330.582 -3.74913 4.23623 0
M  V30 3338 H 329.139 -4.02443 5.12721 0
M  V30 3339 N 332.573 -1.56217 0.208337 0
M  V30 3340 C 333.803 -2.02043 -0.431523 0
M  V30 3341 C 334.211 -1.08755 -1.54819 0
M  V30 3342 O 333.554 -0.0870009 -1.83494 0
M  V30 3343 C 333.616 -3.44239 -1.03633 0
M  V30 3344 C 333.28 -4.56965 -0.0567502 0
M  V30 3345 C 334.277 -5.14624 0.738773 0
M  V30 3346 C 331.962 -5.02266 0.0581736 0
M  V30 3347 C 333.956 -6.16045 1.63605 0
M  V30 3348 C 331.643 -6.03528 0.959001 0
M  V30 3349 C 332.641 -6.60293 1.7465 0
M  V30 3350 O 332.329 -7.59586 2.6322 0
M  V30 3351 H 332.061 -0.666772 -0.111313 0
M  V30 3352 H 334.615 -2.02919 0.318277 0
M  V30 3353 H 332.845 -3.40391 -1.83497 0
M  V30 3354 H 334.534 -3.73793 -1.58221 0
M  V30 3355 H 335.3 -4.80483 0.660364 0
M  V30 3356 H 331.179 -4.57771 -0.544633 0
M  V30 3357 H 334.723 -6.60279 2.25116 0
M  V30 3358 H 330.62 -6.37092 1.03848 0
M  V30 3359 H 331.388 -7.77057 2.57148 0
M  V30 3360 N 334.051 0.0651679 -1.57465 0
M  V30 3361 C 334.999 1.09542 -2.05191 0
M  V30 3362 C 335.993 1.39675 -0.958509 0
M  V30 3363 O 337.199 1.39003 -1.14359 0
M  V30 3364 H 333.574 0.370623 -0.654326 0
M  V30 3365 H 335.545 0.666802 -2.90854 0
M  V30 3366 C 334.294 2.39881 -2.51699 0
M  V30 3367 H 333.617 2.17547 -3.3543 0
M  V30 3368 H 335.057 3.104 -2.88839 0
M  V30 3369 C 333.516 3.0631 -1.40271 0
M  V30 3370 O 334.046 3.94664 -0.748523 0
M  V30 3371 N 332.252 2.67041 -1.14618 0
M  V30 3372 H 331.799 1.95281 -1.67997 0
M  V30 3373 H 331.757 3.1181 -0.402688 0
M  V30 3374 N 335.529 1.53961 0.336706 0
M  V30 3375 C 336.754 1.75797 1.10046 0
M  V30 3376 C 337.179 0.498985 1.81361 0
M  V30 3377 O 336.537 -0.548769 1.72795 0
M  V30 3378 C 336.585 2.94257 2.08436 0
M  V30 3379 O 335.689 2.64883 3.16087 0
M  V30 3380 H 335.03 0.582936 0.317934 0
M  V30 3381 H 337.56 2.00945 0.38501 0
M  V30 3382 H 337.57 3.21237 2.51537 0
M  V30 3383 H 336.245 3.85564 1.55927 0
M  V30 3384 H 334.822 2.48812 2.77753 0
M  V30 3385 N 337.007 -0.598083 1.45811 0
M  V30 3386 C 338.235 -1.38322 1.53866 0
M  V30 3387 C 338.65 -1.87992 0.174479 0
M  V30 3388 O 338.007 -1.62756 -0.825627 0
M  V30 3389 C 338.058 -2.58125 2.53089 0
M  V30 3390 O 337.779 -2.10516 3.84206 0
M  V30 3391 C 339.28 -3.50869 2.70935 0
M  V30 3392 H 336.5 -0.423093 0.520801 0
M  V30 3393 H 339.044 -0.728527 1.91083 0
M  V30 3394 H 337.199 -3.19615 2.18917 0
M  V30 3395 H 337.613 -2.88425 4.38077 0
M  V30 3396 H 339.087 -4.31451 3.44317 0
M  V30 3397 H 339.564 -4.01822 1.77301 0
M  V30 3398 H 340.17 -2.95225 3.06141 0
M  V30 3399 N 338.485 -1.33259 -0.841409 0
M  V30 3400 C 339.732 -1.24572 -1.5965 0
M  V30 3401 C 340.06 0.189137 -1.93578 0
M  V30 3402 O 339.315 1.14566 -1.5866 0
M  V30 3403 C 339.614 -2.06381 -2.9179 0
M  V30 3404 C 339.28 -3.556 -2.77235 0
M  V30 3405 C 337.942 -3.96282 -2.72973 0
M  V30 3406 C 340.294 -4.50433 -2.62221 0
M  V30 3407 C 337.622 -5.30017 -2.51592 0
M  V30 3408 C 339.974 -5.84327 -2.42374 0
M  V30 3409 C 338.638 -6.24194 -2.36512 0
M  V30 3410 H 337.908 -0.455842 -0.5842 0
M  V30 3411 H 340.555 -1.6482 -0.975016 0
M  V30 3412 H 338.86 -1.58903 -3.5813 0
M  V30 3413 H 340.557 -1.97019 -3.49263 0
M  V30 3414 H 337.147 -3.23298 -2.81384 0
M  V30 3415 H 341.331 -4.19914 -2.64549 0
M  V30 3416 H 336.587 -5.59947 -2.45499 0
M  V30 3417 H 340.761 -6.57414 -2.29739 0
M  V30 3418 H 338.388 -7.27759 -2.19706 0
M  V30 3419 N 339.963 1.05934 -1.16686 0
M  V30 3420 C 341.379 1.30938 -0.912542 0
M  V30 3421 C 341.579 1.96803 0.432533 0
M  V30 3422 O 340.635 2.23693 1.17123 0
M  V30 3423 C 341.948 2.18649 -2.06429 0
M  V30 3424 C 343.496 2.32055 -2.10047 0
M  V30 3425 C 343.971 3.23122 -3.24586 0
M  V30 3426 N 345.462 3.30706 -3.24327 0
M  V30 3427 C 346.197 4.01273 -4.09594 0
M  V30 3428 N 345.693 4.74332 -5.04956 0
M  V30 3429 N 347.486 3.97361 -3.97569 0
M  V30 3430 H 339.637 0.615777 -2.03278 0
M  V30 3431 H 341.9 0.334077 -0.887185 0
M  V30 3432 H 341.606 1.77534 -3.03603 0
M  V30 3433 H 341.48 3.19252 -2.00894 0
M  V30 3434 H 343.867 2.72415 -1.13464 0
M  V30 3435 H 343.948 1.31107 -2.19647 0
M  V30 3436 H 343.592 2.83477 -4.2143 0
M  V30 3437 H 343.522 4.24057 -3.12223 0
M  V30 3438 H 346.013 2.78644 -2.55276 0
M  V30 3439 H 346.326 5.25716 -5.6643 0
M  V30 3440 H 344.671 4.733 -5.08933 0
M  V30 3441 H 347.862 3.39405 -3.22369 0
M  V30 3442 H 348.035 4.52089 -4.64241 0
M  V30 3443 N 341.441 0.965919 1.2453 0
M  V30 3444 C 342.687 0.62776 1.92839 0
M  V30 3445 C 343.02 -0.834694 1.75347 0
M  V30 3446 O 342.295 -1.60031 1.10546 0
M  V30 3447 C 342.578 1.00109 3.45905 0
M  V30 3448 C 342.431 2.52011 3.72573 0
M  V30 3449 C 343.75 0.53435 4.36844 0
M  V30 3450 H 340.869 0.229537 0.700344 0
M  V30 3451 H 343.511 1.2046 1.46933 0
M  V30 3452 H 341.661 0.510238 3.85135 0
M  V30 3453 H 343.333 3.08559 3.42912 0
M  V30 3454 H 341.576 2.95287 3.17786 0
M  V30 3455 H 342.247 2.73183 4.79661 0
M  V30 3456 H 344.723 0.955565 4.04979 0
M  V30 3457 H 343.599 0.824152 5.42678 0
M  V30 3458 H 343.86 -0.565589 4.38467 0
M  V30 3459 N 342.919 -1.39368 0.735821 0
M  V30 3460 C 344.165 -2.00794 0.284544 0
M  V30 3461 C 344.498 -1.58255 -1.12557 0
M  V30 3462 O 343.773 -0.811819 -1.76748 0
M  V30 3463 C 344.056 -3.58011 0.387337 0
M  V30 3464 C 343.909 -4.10566 1.83728 0
M  V30 3465 C 345.228 -4.395 -0.22975 0
M  V30 3466 H 342.347 -0.729501 0.104866 0
M  V30 3467 H 344.989 -1.65564 0.93213 0
M  V30 3468 H 343.139 -3.88154 -0.164006 0
M  V30 3469 H 344.811 -3.91139 2.44556 0
M  V30 3470 H 343.054 -3.64095 2.35833 0
M  V30 3471 H 343.725 -5.19702 1.86047 0
M  V30 3472 H 346.201 -4.15406 0.240257 0
M  V30 3473 H 345.077 -5.48752 -0.127485 0
M  V30 3474 H 345.338 -4.22062 -1.3159 0
M  V30 3475 N 344.397 -0.483516 -1.5 0
M  V30 3476 C 345.622 0.0667119 -2.07293 0
M  V30 3477 C 346.047 1.3164 -1.3436 0
M  V30 3478 O 345.405 1.76945 -0.394987 0
M  V30 3479 C 345.453 0.321126 -3.59167 0
M  V30 3480 O 344.557 1.39927 -3.87936 0
M  V30 3481 H 343.898 -0.0184758 -0.663743 0
M  V30 3482 H 346.428 -0.678125 -1.93035 0
M  V30 3483 H 346.438 0.557906 -4.04168 0
M  V30 3484 H 345.113 -0.592007 -4.11665 0
M  V30 3485 H 343.69 1.14882 -3.54763 0
M  V30 3486 N 345.875 1.56104 -0.216619 0
M  V30 3487 C 347.121 1.98466 0.417033 0
M  V30 3488 C 347.454 1.10403 1.59765 0
M  V30 3489 O 346.729 0.160632 1.93836 0
M  V30 3490 C 347.012 3.49769 0.85637 0
M  V30 3491 C 346.865 4.48606 -0.327546 0
M  V30 3492 C 348.184 4.05339 1.7143 0
M  V30 3493 H 345.303 0.721551 0.150112 0
M  V30 3494 H 347.945 1.87423 -0.311864 0
M  V30 3495 H 346.095 3.5931 1.47745 0
M  V30 3496 H 347.767 4.5108 -0.965618 0
M  V30 3497 H 346.01 4.22682 -0.975805 0
M  V30 3498 H 346.681 5.51995 0.0227149 0
M  V30 3499 H 349.157 3.98712 1.19031 0
M  V30 3500 H 348.033 5.11533 1.99061 0
M  V30 3501 H 348.294 3.51918 2.67593 0
M  V30 3502 N 347.353 -0.0568162 1.57498 0
M  V30 3503 C 348.283 -1.06593 2.0775 0
M  V30 3504 C 349.264 -1.39448 0.974082 0
M  V30 3505 O 350.449 -1.48815 1.24771 0
M  V30 3506 C 347.579 -2.37509 2.5339 0
M  V30 3507 C 346.533 -2.1897 3.67745 0
M  V30 3508 C 345.859 -3.55402 3.99492 0
M  V30 3509 C 347.159 -1.59859 4.97235 0
M  V30 3510 H 348.853 -0.647706 2.9231 0
M  V30 3511 H 346.399 -0.310116 1.40621 0
M  V30 3512 H 348.352 -3.08409 2.87162 0
M  V30 3513 H 347.076 -2.8134 1.65878 0
M  V30 3514 H 345.735 -1.50508 3.3428 0
M  V30 3515 H 345.383 -3.9683 3.09088 0
M  V30 3516 H 345.083 -3.43831 4.76502 0
M  V30 3517 H 346.607 -4.27708 4.35773 0
M  V30 3518 H 348.021 -2.20642 5.29141 0
M  V30 3519 H 346.418 -1.58942 5.78669 0
M  V30 3520 H 347.488 -0.561506 4.81638 0
M  V30 3521 N 348.832 -1.54138 -0.328536 0
M  V30 3522 C 350.06 -1.76062 -1.08673 0
M  V30 3523 C 350.475 -0.506852 -1.81869 0
M  V30 3524 O 349.832 0.522223 -1.74869 0
M  V30 3525 C 349.883 -2.95054 -2.08866 0
M  V30 3526 O 349.604 -4.15583 -1.38644 0
M  V30 3527 C 351.105 -3.2915 -2.96943 0
M  V30 3528 H 348.325 -0.587889 -0.323461 0
M  V30 3529 H 350.869 -2.0101 -0.376175 0
M  V30 3530 H 349.024 -2.72394 -2.75464 0
M  V30 3531 H 349.438 -4.82481 -2.05699 0
M  V30 3532 H 350.912 -4.15723 -3.63151 0
M  V30 3533 H 351.389 -2.461 -3.63774 0
M  V30 3534 H 351.995 -3.53871 -2.35914 0
M  V30 3535 N 350.31 0.590341 -1.46126 0
M  V30 3536 C 351.556 1.35082 -1.51264 0
M  V30 3537 C 351.889 1.93534 -0.160711 0
M  V30 3538 O 351.164 1.76045 0.826956 0
M  V30 3539 C 351.447 2.48588 -2.6053 0
M  V30 3540 C 351.3 1.95221 -4.05227 0
M  V30 3541 C 352.619 3.50662 -2.6594 0
M  V30 3542 H 349.738 0.489803 -0.550692 0
M  V30 3543 H 352.38 0.663887 -1.78024 0
M  V30 3544 H 350.53 3.07186 -2.37843 0
M  V30 3545 H 352.202 1.41139 -4.39178 0
M  V30 3546 H 350.445 1.26101 -4.15068 0
M  V30 3547 H 351.116 2.77121 -4.77397 0
M  V30 3548 H 353.592 3.01934 -2.86313 0
M  V30 3549 H 352.468 4.27551 -3.44226 0
M  V30 3550 H 352.729 4.07399 -1.71694 0
M  V30 3551 N 351.788 1.33704 0.83433 0
M  V30 3552 C 352.718 1.26967 1.95963 0
M  V30 3553 C 353.699 0.149337 1.69443 0
M  V30 3554 O 354.884 0.339852 1.91203 0
M  V30 3555 C 352.014 1.01275 3.32206 0
M  V30 3556 C 350.968 2.09652 3.73136 0
M  V30 3557 C 350.294 1.69166 5.07235 0
M  V30 3558 C 351.594 3.51372 3.86439 0
M  V30 3559 H 353.288 2.2112 2.01857 0
M  V30 3560 H 350.834 1.06447 0.969793 0
M  V30 3561 H 352.787 0.952106 4.10503 0
M  V30 3562 H 351.511 0.0356203 3.26581 0
M  V30 3563 H 350.17 2.14766 2.97104 0
M  V30 3564 H 349.818 0.701437 4.98085 0
M  V30 3565 H 349.518 2.41694 5.35591 0
M  V30 3566 H 351.042 1.64576 5.88003 0
M  V30 3567 H 352.456 3.48734 4.55036 0
M  V30 3568 H 350.853 4.22425 4.26236 0
M  V30 3569 H 351.923 3.89546 2.88759 0
M  V30 3570 N 353.266 -1.05314 1.17247 0
M  V30 3571 C 354.216 -2.11313 0.856196 0
M  V30 3572 C 355.2 -1.60013 -0.168694 0
M  V30 3573 O 356.392 -1.76968 0.0335624 0
M  V30 3574 C 353.521 -3.41301 0.369917 0
M  V30 3575 C 352.607 -3.99401 1.42616 0
M  V30 3576 N 352.998 -4.31481 2.63928 0
M  V30 3577 C 351.296 -4.27126 1.28373 0
M  V30 3578 C 351.997 -4.77799 3.31787 0
M  V30 3579 N 350.973 -4.77843 2.59166 0
M  V30 3580 H 354.775 -2.33976 1.77856 0
M  V30 3581 H 352.289 -1.2295 1.06099 0
M  V30 3582 H 354.286 -4.16713 0.124897 0
M  V30 3583 H 352.946 -3.20072 -0.546253 0
M  V30 3584 H 353.957 -4.21519 3.00902 0
M  V30 3585 H 350.634 -4.15289 0.429111 0
M  V30 3586 H 352.024 -5.11743 4.35395 0
M  V30 3587 N 354.744 -0.972509 -1.24016 0
M  V30 3588 C 355.676 -0.464375 -2.24446 0
M  V30 3589 C 356.689 0.4295 -1.57032 0
M  V30 3590 O 357.878 0.234902 -1.76948 0
M  V30 3591 C 354.978 0.348385 -3.37105 0
M  V30 3592 C 354.151 -0.53673 -4.34094 0
M  V30 3593 C 353.21 0.220838 -5.25736 0
M  V30 3594 O 352.236 -0.386867 -5.67884 0
M  V30 3595 N 353.438 1.50907 -5.60542 0
M  V30 3596 H 356.203 -1.32788 -2.68677 0
M  V30 3597 H 353.764 -0.844877 -1.38107 0
M  V30 3598 H 355.756 0.863341 -3.95384 0
M  V30 3599 H 354.326 1.11285 -2.92121 0
M  V30 3600 H 353.546 -1.23261 -3.74433 0
M  V30 3601 H 354.834 -1.14022 -4.95859 0
M  V30 3602 H 354.232 2.02444 -5.28236 0
M  V30 3603 H 352.789 1.96962 -6.21329 0
M  V30 3604 N 356.222 1.38976 -0.743202 0
M  V30 3605 C 357.499 1.94351 -0.220705 0
M  V30 3606 C 357.879 1.67935 1.2791 0
M  V30 3607 O 357.227 1.01211 2.04862 0
M  V30 3608 C 357.437 3.44426 -0.563171 0
M  V30 3609 C 358.785 4.2144 -0.517046 0
M  V30 3610 O 359.809 3.52661 -0.500846 0
M  V30 3611 O 358.668 5.44032 -0.518806 0
M  V30 3612 H 355.762 0.825879 -0.043047 0
M  V30 3613 H 358.308 1.48429 -0.822618 0
M  V30 3614 H 357.08 3.5712 -1.59941 0
M  V30 3615 H 356.703 3.97543 0.0672883 0
M  V30 3616 N 357.7 0.491464 1.49741 0
M  V30 3617 C 358.946 -0.0485431 2.03342 0
M  V30 3618 C 359.301 -1.35566 1.36527 0
M  V30 3619 O 358.594 -1.85262 0.488729 0
M  V30 3620 C 358.788 -0.267329 3.56399 0
M  V30 3621 C 358.617 1.01703 4.38049 0
M  V30 3622 C 357.387 1.56614 4.80417 0
M  V30 3623 C 359.585 1.91782 4.77204 0
M  V30 3624 N 357.567 2.7974 5.4646 0
M  V30 3625 C 358.938 2.99489 5.42868 0
M  V30 3626 C 360.993 1.92575 4.5915 0
M  V30 3627 C 359.696 4.08005 5.92389 0
M  V30 3628 C 361.722 3.0006 5.09626 0
M  V30 3629 C 361.084 4.06485 5.75282 0
M  V30 3630 H 357.183 0.0227779 0.781668 0
M  V30 3631 H 359.767 0.664204 1.8302 0
M  V30 3632 H 357.938 -0.949126 3.76625 0
M  V30 3633 H 359.67 -0.803492 3.96644 0
M  V30 3634 H 356.425 1.11256 4.60347 0
M  V30 3635 H 356.849 3.42323 5.84075 0
M  V30 3636 H 361.491 1.11605 4.07804 0
M  V30 3637 H 359.209 4.89779 6.42761 0
M  V30 3638 H 362.795 3.01681 4.97473 0
M  V30 3639 H 361.675 4.88287 6.13633 0
M  V30 3640 N 359.178 -1.55987 0.224894 0
M  V30 3641 C 360.108 -2.23426 -0.678457 0
M  V30 3642 C 361.089 -1.20709 -1.19847 0
M  V30 3643 O 362.274 -1.49304 -1.24186 0
M  V30 3644 C 359.404 -2.91676 -1.88527 0
M  V30 3645 C 358.358 -4.00893 -1.49896 0
M  V30 3646 C 357.684 -4.56455 -2.78483 0
M  V30 3647 C 358.984 -5.17769 -0.686461 0
M  V30 3648 H 360.678 -2.99175 -0.116173 0
M  V30 3649 H 358.224 -1.43897 -0.054436 0
M  V30 3650 H 360.177 -3.37547 -2.5227 0
M  V30 3651 H 358.901 -2.1338 -2.47258 0
M  V30 3652 H 357.56 -3.55758 -0.884985 0
M  V30 3653 H 357.208 -3.74886 -3.35365 0
M  V30 3654 H 356.908 -5.30169 -2.53368 0
M  V30 3655 H 358.432 -5.05047 -3.43162 0
M  V30 3656 H 359.846 -5.60001 -1.22767 0
M  V30 3657 H 358.243 -5.97735 -0.532259 0
M  V30 3658 H 359.313 -4.83932 0.306196 0
M  V30 3659 N 360.656 0.0484629 -1.57525 0
M  V30 3660 C 361.604 1.07359 -2.06341 0
M  V30 3661 C 362.598 1.3865 -0.973269 0
M  V30 3662 O 363.804 1.37783 -1.15827 0
M  V30 3663 H 360.179 0.363662 -0.65822 0
M  V30 3664 H 362.15 0.635916 -2.91545 0
M  V30 3665 C 360.899 2.37198 -2.54229 0
M  V30 3666 H 360.222 2.13977 -3.37719 0
M  V30 3667 H 361.662 3.07319 -2.92115 0
M  V30 3668 C 360.121 3.04805 -1.43511 0
M  V30 3669 O 360.651 3.93848 -0.79034 0
M  V30 3670 N 358.857 2.65811 -1.17444 0
M  V30 3671 H 358.404 1.93488 -1.70059 0
M  V30 3672 H 358.362 3.11366 -0.435737 0
M  V30 3673 N 362.134 1.5431 0.320358 0
M  V30 3674 C 363.382 1.72327 1.05583 0
M  V30 3675 C 363.703 0.50149 1.88441 0
M  V30 3676 O 362.973 -0.48448 1.89815 0
M  V30 3677 H 361.553 0.635387 0.3928 0
M  V30 3678 H 364.215 1.91621 0.356019 0
M  V30 3679 H 363.311 2.60426 1.72003 0
M  V30 3680 N 363.613 -0.582584 1.46437 0
M  V30 3681 C 364.56 -1.69164 1.5701 0
M  V30 3682 C 365.53 -1.60847 0.414403 0
M  V30 3683 O 366.715 -1.80058 0.631171 0
M  V30 3684 C 363.855 -3.075 1.56646 0
M  V30 3685 C 362.968 -3.2644 2.82951 0
M  V30 3686 C 362.103 -4.55026 2.7409 0
M  V30 3687 C 361.142 -4.6731 3.95333 0
M  V30 3688 N 360.279 -5.87221 3.84858 0
M  V30 3689 H 365.119 -1.59464 2.51744 0
M  V30 3690 H 362.656 -0.777186 1.24893 0
M  V30 3691 H 364.614 -3.8757 1.5442 0
M  V30 3692 H 363.244 -3.16096 0.654439 0
M  V30 3693 H 362.296 -2.39974 2.95155 0
M  V30 3694 H 363.608 -3.31385 3.72808 0
M  V30 3695 H 362.762 -5.43324 2.6997 0
M  V30 3696 H 361.501 -4.52519 1.81873 0
M  V30 3697 H 360.506 -3.77429 3.99784 0
M  V30 3698 H 361.731 -4.71595 4.88646 0
M  V30 3699 H 359.677 -5.85712 2.95427 0
M  V30 3700 H 359.594 -5.93435 4.6837 0
M  V30 3701 H 360.862 -6.7795 3.84713 0
M  V30 3702 N 365.091 -1.34144 -0.827227 0
M  V30 3703 C 366.001 -1.27428 -1.96975 0
M  V30 3704 C 367.017 -0.182728 -1.73038 0
M  V30 3705 O 368.193 -0.408426 -1.97215 0
M  V30 3706 C 365.258 -1.02526 -3.31194 0
M  V30 3707 C 364.319 -2.20796 -3.68168 0
M  V30 3708 C 363.552 -1.97073 -4.95982 0
M  V30 3709 O 363.775 -0.926822 -5.6282 0
M  V30 3710 O 362.709 -2.83912 -5.30733 0
M  V30 3711 H 366.535 -2.23537 -2.05584 0
M  V30 3712 H 364.12 -1.14307 -0.961989 0
M  V30 3713 H 366.002 -0.904026 -4.11589 0
M  V30 3714 H 364.677 -0.0945389 -3.23562 0
M  V30 3715 H 363.584 -2.38477 -2.88235 0
M  V30 3716 H 364.917 -3.12243 -3.8048 0
M  V30 3717 N 366.569 1.04691 -1.17803 0
M  V30 3718 C 367.799 1.81183 -0.992788 0
M  V30 3719 C 368.207 1.8347 0.462098 0
M  V30 3720 O 367.55 1.2643 1.33271 0
M  V30 3721 C 367.612 3.28363 -1.46349 0
M  V30 3722 C 367.276 3.49749 -2.94151 0
M  V30 3723 C 368.273 3.41456 -3.92051 0
M  V30 3724 C 365.958 3.76548 -3.32441 0
M  V30 3725 C 367.952 3.59656 -5.26238 0
M  V30 3726 C 365.639 3.94396 -4.66792 0
M  V30 3727 C 366.637 3.8595 -5.635 0
M  V30 3728 O 366.325 4.03294 -6.9542 0
M  V30 3729 H 366.057 0.577622 -0.351182 0
M  V30 3730 H 368.611 1.32876 -1.5663 0
M  V30 3731 H 366.841 3.77609 -0.833574 0
M  V30 3732 H 368.53 3.86395 -1.24313 0
M  V30 3733 H 369.296 3.20723 -3.63815 0
M  V30 3734 H 365.175 3.82224 -2.57732 0
M  V30 3735 H 368.719 3.52979 -6.01707 0
M  V30 3736 H 364.616 4.14622 -4.94731 0
M  V30 3737 H 365.384 4.2049 -7.02232 0
M  V30 3738 N 368.047 0.979072 1.23499 0
M  V30 3739 C 368.994 0.517904 2.24914 0
M  V30 3740 C 369.964 -0.442525 1.60097 0
M  V30 3741 O 371.149 -0.350365 1.87556 0
M  V30 3742 C 368.289 -0.174813 3.44657 0
M  V30 3743 C 367.402 0.825721 4.24035 0
M  V30 3744 C 366.537 0.107946 5.3109 0
M  V30 3745 C 365.576 1.09778 6.02175 0
M  V30 3746 N 364.713 0.40925 7.00906 0
M  V30 3747 H 369.553 1.38751 2.63727 0
M  V30 3748 H 367.09 0.695303 1.2963 0
M  V30 3749 H 369.048 -0.593233 4.12961 0
M  V30 3750 H 367.678 -1.0083 3.06648 0
M  V30 3751 H 366.73 1.36253 3.55161 0
M  V30 3752 H 368.042 1.58005 4.73113 0
M  V30 3753 H 367.196 -0.367904 6.05583 0
M  V30 3754 H 365.935 -0.678994 4.8295 0
M  V30 3755 H 364.94 1.5844 5.26476 0
M  V30 3756 H 366.165 1.88536 6.52404 0
M  V30 3757 H 364.111 -0.358506 6.5502 0
M  V30 3758 H 364.028 1.10226 7.47921 0
M  V30 3759 H 365.296 -0.0442557 7.79487 0
M  V30 3760 N 369.525 -1.3858 0.750561 0
M  V30 3761 C 370.765 -2.02032 0.310258 0
M  V30 3762 C 371.129 -1.58288 -1.08668 0
M  V30 3763 O 372.33 -2.14049 -1.62593 0
M  V30 3764 C 370.601 -3.54856 0.425647 0
M  V30 3765 S 372.16 -4.38748 0.0674797 0
M  V30 3766 H 368.978 -0.700705 0.120554 0
M  V30 3767 H 371.58 -1.69134 0.980512 0
M  V30 3768 H 370.284 -3.84182 1.44335 0
M  V30 3769 H 369.815 -3.92527 -0.261894 0
M  V30 3770 H 371.83 -4.82835 -1.14388 0
M  V30 3771 N 371.003 -0.499398 -1.49478 0
M  V30 3772 C 371.95 0.279881 -2.29097 0
M  V30 3773 C 372.92 0.961805 -1.3542 0
M  V30 3774 O 374.105 0.968777 -1.64376 0
M  V30 3775 C 371.245 1.33932 -3.18051 0
M  V30 3776 C 370.358 0.669333 -4.26783 0
M  V30 3777 C 369.493 1.70907 -5.02955 0
M  V30 3778 C 368.532 1.02087 -6.03527 0
M  V30 3779 N 367.669 2.00474 -6.7287 0
M  V30 3780 H 372.509 -0.405317 -2.95231 0
M  V30 3781 H 370.046 -0.211726 -1.45568 0
M  V30 3782 H 372.004 1.96553 -3.67998 0
M  V30 3783 H 370.634 1.9933 -2.53904 0
M  V30 3784 H 369.686 -0.0701234 -3.80335 0
M  V30 3785 H 370.998 0.127503 -4.98637 0
M  V30 3786 H 370.152 2.41037 -5.56764 0
M  V30 3787 H 368.891 2.28476 -4.30871 0
M  V30 3788 H 367.896 0.305338 -5.48951 0
M  V30 3789 H 369.121 0.451708 -6.77596 0
M  V30 3790 H 367.067 2.57007 -6.03559 0
M  V30 3791 H 366.984 1.51353 -7.40694 0
M  V30 3792 H 368.252 2.69897 -7.31284 0
M  V30 3793 N 372.481 1.55866 -0.233164 0
M  V30 3794 C 373.727 1.98897 0.395959 0
M  V30 3795 C 374.06 1.12091 1.58585 0
M  V30 3796 O 373.335 0.181182 1.93654 0
M  V30 3797 C 373.618 3.50658 0.819224 0
M  V30 3798 C 373.471 4.48233 -0.375109 0
M  V30 3799 C 374.79 4.07135 1.67121 0
M  V30 3800 H 371.909 0.723102 0.142451 0
M  V30 3801 H 374.551 1.87082 -0.331725 0
M  V30 3802 H 372.701 3.60857 1.43925 0
M  V30 3803 H 374.373 4.50031 -1.01341 0
M  V30 3804 H 372.616 4.21624 -1.02058 0
M  V30 3805 H 373.287 5.51988 -0.0358328 0
M  V30 3806 H 375.763 3.99952 1.14795 0
M  V30 3807 H 374.639 5.13615 1.93625 0
M  V30 3808 H 374.9 3.54736 2.63846 0
M  V30 3809 N 373.959 -0.0401083 1.57549 0
M  V30 3810 C 375.184 -0.748931 1.93406 0
M  V30 3811 C 375.609 -1.68686 0.832274 0
M  V30 3812 O 374.967 -1.80047 -0.212818 0
M  V30 3813 C 375.015 -1.4916 3.28304 0
M  V30 3814 O 374.119 -2.6042 3.19774 0
M  V30 3815 H 373.46 -0.202212 0.63246 0
M  V30 3816 H 375.99 0.00112086 2.046 0
M  V30 3817 H 376 -1.86395 3.62934 0
M  V30 3818 H 374.675 -0.80364 4.08062 0
M  V30 3819 H 373.252 -2.25808 2.96758 0
M  V30 3820 N 375.437 -1.54477 -0.31217 0
M  V30 3821 C 376.385 -1.85395 -1.40469 0
M  V30 3822 C 377.379 -0.726749 -1.53019 0
M  V30 3823 O 378.585 -0.910582 -1.55269 0
M  V30 3824 H 374.96 -0.587845 -0.46898 0
M  V30 3825 H 376.931 -2.76736 -1.11623 0
M  V30 3826 C 375.68 -2.10811 -2.76503 0
M  V30 3827 H 375.003 -2.97014 -2.67625 0
M  V30 3828 H 376.443 -2.3639 -3.51988 0
M  V30 3829 C 374.902 -0.903165 -3.24568 0
M  V30 3830 O 375.432 -0.118085 -4.01526 0
M  V30 3831 N 373.638 -0.711634 -2.81752 0
M  V30 3832 H 373.185 -1.35171 -2.19286 0
M  V30 3833 H 373.143 0.0930473 -3.14262 0
M  V30 3834 N 376.915 0.57481 -1.46744 0
M  V30 3835 C 377.862 1.68329 -1.57905 0
M  V30 3836 C 378.832 1.60625 -0.422927 0
M  V30 3837 O 380.017 1.79721 -0.640711 0
M  V30 3838 C 377.157 3.06665 -1.58274 0
M  V30 3839 C 376.27 3.24935 -2.84678 0
M  V30 3840 C 375.405 4.53566 -2.76499 0
M  V30 3841 C 374.444 4.65207 -3.97806 0
M  V30 3842 N 373.581 5.85172 -3.87967 0
M  V30 3843 H 378.421 1.58127 -2.52587 0
M  V30 3844 H 375.958 0.770552 -1.25303 0
M  V30 3845 H 377.916 3.86745 -1.56473 0
M  V30 3846 H 376.546 3.15745 -0.671194 0
M  V30 3847 H 375.598 2.38405 -2.96424 0
M  V30 3848 H 376.91 3.29403 -3.7456 0
M  V30 3849 H 376.064 5.41885 -2.72848 0
M  V30 3850 H 374.803 4.51548 -1.8427 0
M  V30 3851 H 373.808 3.75304 -4.0178 0
M  V30 3852 H 375.033 4.68997 -4.9114 0
M  V30 3853 H 372.979 5.84137 -2.98529 0
M  V30 3854 H 372.896 5.90943 -4.71511 0
M  V30 3855 H 374.164 6.759 -3.88303 0
M  V30 3856 N 378.394 1.34581 0.820102 0
M  V30 3857 C 379.357 1.2628 1.91275 0
M  V30 3858 C 380.357 0.177344 1.59819 0
M  V30 3859 O 381.547 0.430156 1.68806 0
M  V30 3860 C 378.679 0.950327 3.27386 0
M  V30 3861 H 379.872 2.23421 2.00057 0
M  V30 3862 H 377.425 1.1891 1.0144 0
M  V30 3863 H 378.16 -0.0177938 3.24295 0
M  V30 3864 H 377.945 1.73549 3.51601 0
M  V30 3865 H 379.435 0.917492 4.07396 0
M  V30 3866 N 379.872 -1.04064 1.18357 0
M  V30 3867 C 380.802 -2.14001 0.934113 0
M  V30 3868 C 381.783 -1.69616 -0.128186 0
M  V30 3869 O 382.968 -1.94185 0.0244093 0
M  V30 3870 C 380.098 -3.44253 0.459066 0
M  V30 3871 C 379.052 -4.02261 1.46185 0
M  V30 3872 C 378.378 -5.27992 0.844322 0
M  V30 3873 C 379.678 -4.38432 2.83856 0
M  V30 3874 H 381.372 -2.35127 1.85352 0
M  V30 3875 H 378.918 -1.12998 0.892604 0
M  V30 3876 H 380.871 -4.20522 0.271907 0
M  V30 3877 H 379.595 -3.22813 -0.495912 0
M  V30 3878 H 378.254 -3.28074 1.63595 0
M  V30 3879 H 377.902 -5.02862 -0.117845 0
M  V30 3880 H 377.602 -5.67765 1.51384 0
M  V30 3881 H 379.126 -6.06938 0.667693 0
M  V30 3882 H 380.54 -5.05688 2.70098 0
M  V30 3883 H 378.937 -4.89254 3.47491 0
M  V30 3884 H 380.007 -3.4826 3.37406 0
M  V30 3885 N 381.35 -0.985608 -1.22978 0
M  V30 3886 C 382.761 -0.693593 -1.73338 0
M  V30 3887 C 383.112 0.789935 -1.79595 0
M  V30 3888 O 382.237 1.61771 -1.43733 0
M  V30 3889 C 382.832 -1.25235 -3.14804 0
M  V30 3890 C 381.391 -1.00987 -3.626 0
M  V30 3891 C 380.538 -1.37695 -2.40698 0
M  V30 3892 H 383.489 -1.15884 -1.08428 0
M  V30 3893 H 383.51 -0.627329 -3.75293 0
M  V30 3894 H 383.022 -2.33209 -3.10218 0
M  V30 3895 H 381.123 0.0535565 -3.72562 0
M  V30 3896 H 381.236 -1.66812 -4.49122 0
M  V30 3897 H 379.6 -0.795459 -2.4196 0
M  V30 3898 H 380.383 -2.46657 -2.38779 0
M  V30 3899 N 382.828 1.3818 -0.7579 0
M  V30 3900 C 383.791 2.28764 -0.141286 0
M  V30 3901 C 384.791 1.47388 0.642907 0
M  V30 3902 O 385.981 1.67781 0.468536 0
M  V30 3903 C 383.113 3.31184 0.808069 0
M  V30 3904 H 384.306 2.848 -0.939633 0
M  V30 3905 H 381.859 1.47212 -0.525191 0
M  V30 3906 H 382.594 2.80247 1.63193 0
M  V30 3907 H 382.379 3.91314 0.248104 0
M  V30 3908 H 383.869 3.98909 1.23536 0
M  V30 3909 N 384.306 0.507319 1.49211 0
M  V30 3910 C 385.717 0.0611118 1.866 0
M  V30 3911 C 386.068 -1.35488 1.41907 0
M  V30 3912 O 385.193 -2.0108 0.799726 0
M  V30 3913 C 385.788 0.104125 3.3864 0
M  V30 3914 C 384.347 -0.28677 3.75306 0
M  V30 3915 C 383.494 0.473893 2.73221 0
M  V30 3916 H 386.445 0.719775 1.41439 0
M  V30 3917 H 386.466 -0.689672 3.74198 0
M  V30 3918 H 385.978 1.13482 3.71138 0
M  V30 3919 H 384.079 -1.32046 3.48417 0
M  V30 3920 H 384.192 0.0370745 4.79086 0
M  V30 3921 H 382.556 -0.0770644 2.54583 0
M  V30 3922 H 383.339 1.50478 3.08563 0
M  V30 3923 N 385.784 -1.5574 0.241426 0
M  V30 3924 C 387.033 -1.97986 -0.385295 0
M  V30 3925 C 387.346 -1.13267 -1.59468 0
M  V30 3926 O 388.552 -1.45501 -2.2922 0
M  V30 3927 C 387.008 -3.52275 -0.736884 0
M  V30 3928 C 386.616 -4.45726 0.450796 0
M  V30 3929 C 388.36 -4.03189 -1.3281 0
M  V30 3930 C 386.267 -5.91352 0.0756662 0
M  V30 3931 H 385.197 -0.739386 -0.147731 0
M  V30 3932 H 387.848 -1.80308 0.340779 0
M  V30 3933 H 386.23 -3.65628 -1.52094 0
M  V30 3934 H 387.404 -4.44131 1.22819 0
M  V30 3935 H 385.719 -4.05264 0.956573 0
M  V30 3936 H 388.316 -5.09505 -1.62201 0
M  V30 3937 H 388.659 -3.50212 -2.25071 0
M  V30 3938 H 389.192 -3.93141 -0.607069 0
M  V30 3939 H 385.931 -6.48354 0.965272 0
M  V30 3940 H 385.451 -5.96095 -0.665635 0
M  V30 3941 H 387.13 -6.46084 -0.344075 0
M  V30 3942 N 387.262 0.0317525 -1.57568 0
M  V30 3943 C 388.172 1.05021 -2.0978 0
M  V30 3944 C 389.188 1.39809 -1.03583 0
M  V30 3945 O 390.364 1.49182 -1.35302 0
M  V30 3946 C 387.429 2.33301 -2.56459 0
M  V30 3947 C 386.49 2.0512 -3.77127 0
M  V30 3948 C 385.723 3.27283 -4.2157 0
M  V30 3949 O 385.946 4.37861 -3.65559 0
M  V30 3950 O 384.88 3.13141 -5.14029 0
M  V30 3951 H 388.706 0.636505 -2.96955 0
M  V30 3952 H 386.291 0.248559 -1.47318 0
M  V30 3953 H 388.173 3.08722 -2.86825 0
M  V30 3954 H 386.848 2.73973 -1.72397 0
M  V30 3955 H 385.755 1.27276 -3.51784 0
M  V30 3956 H 387.088 1.69305 -4.62165 0
M  V30 3957 N 388.74 1.54641 0.303973 0
M  V30 3958 C 389.687 1.85386 1.37479 0
M  V30 3959 C 390.657 0.702528 1.50512 0
M  V30 3960 O 391.842 0.950867 1.65418 0
M  V30 3961 C 388.982 2.10413 2.73533 0
M  V30 3962 C 388.095 3.38049 2.68974 0
M  V30 3963 C 387.23 3.52934 3.97002 0
M  V30 3964 C 386.269 4.74373 3.86829 0
M  V30 3965 N 385.406 4.8608 5.06627 0
M  V30 3966 H 390.246 2.76732 1.1056 0
M  V30 3967 H 387.783 1.37034 0.534805 0
M  V30 3968 H 389.741 2.22919 3.52652 0
M  V30 3969 H 388.371 1.22338 2.98719 0
M  V30 3970 H 387.423 3.3418 1.81736 0
M  V30 3971 H 388.735 4.27288 2.57346 0
M  V30 3972 H 387.889 3.65088 4.84557 0
M  V30 3973 H 386.628 2.61824 4.1146 0
M  V30 3974 H 385.633 4.62255 2.97658 0
M  V30 3975 H 386.858 5.66888 3.73918 0
M  V30 3976 H 384.804 3.97891 5.21554 0
M  V30 3977 H 384.721 5.69315 4.9741 0
M  V30 3978 H 385.989 5.02587 5.95841 0
M  V30 3979 N 390.218 -0.567019 1.47046 0
M  V30 3980 C 391.446 -1.35027 1.56765 0
M  V30 3981 C 391.861 -1.8758 0.214316 0
M  V30 3982 O 391.218 -1.64471 -0.790919 0
M  V30 3983 C 391.269 -2.52698 2.58507 0
M  V30 3984 O 390.99 -2.0232 3.88585 0
M  V30 3985 C 392.491 -3.45043 2.78316 0
M  V30 3986 H 389.711 -0.41195 0.529658 0
M  V30 3987 H 392.255 -0.687832 1.92585 0
M  V30 3988 H 390.41 -3.149 2.25648 0
M  V30 3989 H 390.824 -2.79068 4.44096 0
M  V30 3990 H 392.298 -4.2405 3.53391 0
M  V30 3991 H 392.775 -3.97971 1.85784 0
M  V30 3992 H 393.381 -2.88665 3.12334 0
M  V30 3993 N 391.696 -1.35014 -0.812953 0
M  V30 3994 C 392.945 -1.27269 -1.56479 0
M  V30 3995 C 393.258 0.152771 -1.95002 0
M  V30 3996 O 394.464 0.352451 -2.69203 0
M  V30 3997 C 392.92 -2.23159 -2.82362 0
M  V30 3998 C 392.528 -3.71016 -2.511 0
M  V30 3999 C 394.272 -2.24342 -3.60376 0
M  V30 4000 C 392.179 -4.58746 -3.73237 0
M  V30 4001 H 391.109 -0.472829 -0.587324 0
M  V30 4002 H 393.76 -1.6024 -0.894171 0
M  V30 4003 H 392.142 -1.83151 -3.51101 0
M  V30 4004 H 393.316 -4.1962 -1.90409 0
M  V30 4005 H 391.631 -3.72378 -1.86343 0
M  V30 4006 H 394.228 -2.87107 -4.51081 0
M  V30 4007 H 394.571 -1.24542 -3.97234 0
M  V30 4008 H 395.104 -2.62846 -2.98591 0
M  V30 4009 H 391.843 -5.59521 -3.41492 0
M  V30 4010 H 391.363 -4.14871 -4.33176 0
M  V30 4011 H 393.042 -4.73852 -4.40537 0
M  V30 4012 N 393.175 1.03435 -1.18907 0
M  V30 4013 C 394.4 1.80919 -1.01406 0
M  V30 4014 C 394.825 1.83055 0.432721 0
M  V30 4015 O 394.183 1.25252 1.31079 0
M  V30 4016 C 394.231 3.24091 -1.58105 0
M  V30 4017 O 393.335 4.04434 -0.806669 0
M  V30 4018 H 392.676 0.558709 -0.358803 0
M  V30 4019 H 395.206 1.30223 -1.57807 0
M  V30 4020 H 395.216 3.74853 -1.61087 0
M  V30 4021 H 393.891 3.21851 -2.6341 0
M  V30 4022 H 392.468 3.63091 -0.849666 0
M  V30 4023 N 394.653 0.992116 1.22453 0
M  V30 4024 C 395.6 0.541731 2.24352 0
M  V30 4025 C 396.57 -0.425519 1.60557 0
M  V30 4026 O 397.755 -0.330453 1.87917 0
M  V30 4027 C 394.895 -0.138248 3.44823 0
M  V30 4028 C 394.008 0.870649 4.23136 0
M  V30 4029 C 393.143 0.164269 5.30946 0
M  V30 4030 C 392.182 1.16159 6.00977 0
M  V30 4031 N 391.319 0.483568 7.00433 0
M  V30 4032 H 396.159 1.41541 2.62241 0
M  V30 4033 H 393.696 0.709013 1.28885 0
M  V30 4034 H 395.654 -0.5494 4.13567 0
M  V30 4035 H 394.284 -0.975721 3.077 0
M  V30 4036 H 393.336 1.40013 3.53696 0
M  V30 4037 H 394.648 1.63014 4.7141 0
M  V30 4038 H 393.802 -0.303653 6.0594 0
M  V30 4039 H 392.541 -0.627733 4.83643 0
M  V30 4040 H 391.546 1.64015 5.24766 0
M  V30 4041 H 392.771 1.95445 6.50368 0
M  V30 4042 H 390.717 -0.289012 6.55363 0
M  V30 4043 H 390.634 1.18152 7.4671 0
M  V30 4044 H 391.902 0.0384219 7.79491 0
M  V30 4045 N 396.131 -1.37776 0.765217 0
M  V30 4046 C 397.359 -2.04124 0.337767 0
M  V30 4047 C 397.774 -1.57715 -1.03785 0
M  V30 4048 O 397.131 -0.755447 -1.6613 0
M  V30 4049 C 397.182 -3.59658 0.364442 0
M  V30 4050 O 396.903 -4.04367 1.68579 0
M  V30 4051 C 398.404 -4.43236 -0.0754221 0
M  V30 4052 H 395.624 -0.655696 0.142491 0
M  V30 4053 H 398.168 -1.76238 1.03732 0
M  V30 4054 H 396.323 -3.86339 -0.286471 0
M  V30 4055 H 396.737 -4.98857 1.61993 0
M  V30 4056 H 398.211 -5.52 -0.00560067 0
M  V30 4057 H 398.688 -4.2455 -1.12491 0
M  V30 4058 H 399.294 -4.21767 0.547055 0
M  V30 4059 N 397.609 -0.515225 -1.4894 0
M  V30 4060 C 398.556 0.255567 -2.29381 0
M  V30 4061 C 399.526 0.947387 -1.36432 0
M  V30 4062 O 400.711 0.951288 -1.65394 0
M  V30 4063 C 397.851 1.30551 -3.19453 0
M  V30 4064 C 396.964 0.624029 -4.27469 0
M  V30 4065 C 396.099 1.65563 -5.0474 0
M  V30 4066 C 395.138 0.956802 -6.04576 0
M  V30 4067 N 394.275 1.93326 -6.74959 0
M  V30 4068 H 399.115 -0.436607 -2.94784 0
M  V30 4069 H 396.652 -0.227154 -1.45336 0
M  V30 4070 H 398.61 1.92639 -3.70062 0
M  V30 4071 H 397.24 1.96626 -2.56004 0
M  V30 4072 H 396.292 -0.110459 -3.8024 0
M  V30 4073 H 397.604 0.0746092 -4.98744 0
M  V30 4074 H 396.758 2.35119 -5.59289 0
M  V30 4075 H 395.497 2.23893 -4.3327 0
M  V30 4076 H 394.502 0.247097 -5.49244 0
M  V30 4077 H 395.727 0.379814 -6.78037 0
M  V30 4078 H 393.673 2.50591 -6.06251 0
M  V30 4079 H 393.59 1.43489 -7.42258 0
M  V30 4080 H 394.858 2.62126 -7.34105 0
M  V30 4081 N 399.087 1.5561 -0.249682 0
M  V30 4082 C 400.335 1.98618 0.373548 0
M  V30 4083 C 400.656 1.13919 1.58264 0
M  V30 4084 O 399.926 0.222637 1.94631 0
M  V30 4085 H 398.506 0.733571 0.141006 0
M  V30 4086 H 401.168 1.91748 -0.349117 0
M  V30 4087 H 400.264 3.04584 0.680796 0
M  V30 4088 N 400.565 -0.0233959 1.57583 0
M  V30 4089 C 401.497 -1.04994 2.03737 0
M  V30 4090 C 402.51 -1.32125 0.951152 0
M  V30 4091 O 403.699 -1.29512 1.22837 0
M  V30 4092 C 400.799 -2.39026 2.40249 0
M  V30 4093 C 399.972 -2.31171 3.7132 0
M  V30 4094 C 399.031 -3.47698 3.94959 0
M  V30 4095 O 398.057 -3.26937 4.65941 0
M  V30 4096 N 399.259 -4.6976 3.41037 0
M  V30 4097 H 402.024 -0.656507 2.92421 0
M  V30 4098 H 399.585 -0.211235 1.60516 0
M  V30 4099 H 401.577 -3.15712 2.53196 0
M  V30 4100 H 400.147 -2.70194 1.57207 0
M  V30 4101 H 399.367 -1.39547 3.68674 0
M  V30 4102 H 400.655 -2.23071 4.57293 0
M  V30 4103 H 400.053 -4.89528 2.83512 0
M  V30 4104 H 398.61 -5.43791 3.59353 0
M  V30 4105 N 402.043 -1.548 -0.295768 0
M  V30 4106 C 403.454 -1.65274 -0.868411 0
M  V30 4107 C 403.805 -0.56481 -1.87894 0
M  V30 4108 O 402.93 0.29767 -2.14343 0
M  V30 4109 C 403.525 -2.99603 -1.58188 0
M  V30 4110 C 402.084 -3.12181 -2.10286 0
M  V30 4111 C 401.231 -2.6098 -0.93727 0
M  V30 4112 H 404.182 -1.58534 -0.0726422 0
M  V30 4113 H 404.203 -2.91319 -2.44772 0
M  V30 4114 H 403.715 -3.78764 -0.846151 0
M  V30 4115 H 401.816 -2.3775 -2.8689 0
M  V30 4116 H 401.929 -4.18415 -2.33379 0
M  V30 4117 H 400.293 -2.17564 -1.32431 0
M  V30 4118 H 401.076 -3.42623 -0.215414 0
M  V30 4119 N 403.521 0.559213 -1.47345 0
M  V30 4120 C 404.937 0.884943 -1.32819 0
M  V30 4121 C 405.137 1.98988 -0.317173 0
M  V30 4122 O 404.193 2.51031 0.272011 0
M  V30 4123 C 405.506 1.28007 -2.72093 0
M  V30 4124 C 407.054 1.39161 -2.80363 0
M  V30 4125 C 407.529 1.82031 -4.20272 0
M  V30 4126 N 409.02 1.89185 -4.22804 0
M  V30 4127 C 409.755 2.2368 -5.27973 0
M  V30 4128 N 409.251 2.56802 -6.43447 0
M  V30 4129 N 411.044 2.24436 -5.15349 0
M  V30 4130 H 403.195 -0.170304 -2.11716 0
M  V30 4131 H 405.458 -0.0135247 -0.947904 0
M  V30 4132 H 405.164 0.542027 -3.47498 0
M  V30 4133 H 405.038 2.23665 -3.03733 0
M  V30 4134 H 407.425 2.12048 -2.05231 0
M  V30 4135 H 407.506 0.41696 -2.52379 0
M  V30 4136 H 407.15 1.09715 -4.95908 0
M  V30 4137 H 407.08 2.80495 -4.45679 0
M  V30 4138 H 409.571 1.65982 -3.39497 0
M  V30 4139 H 409.884 2.82144 -7.19454 0
M  V30 4140 H 408.229 2.54387 -6.46771 0
M  V30 4141 H 411.42 1.97998 -4.24163 0
M  V30 4142 H 411.593 2.50989 -5.97418 0
M  V30 4143 N 404.999 1.35443 0.805782 0
M  V30 4144 C 405.909 1.30546 1.94923 0
M  V30 4145 C 406.925 0.210233 1.72725 0
M  V30 4146 O 408.101 0.43975 1.9654 0
M  V30 4147 C 405.166 1.07782 3.29521 0
M  V30 4148 C 404.227 2.26625 3.64609 0
M  V30 4149 C 403.46 2.04938 4.92784 0
M  V30 4150 O 403.683 1.01624 5.61274 0
M  V30 4151 O 402.617 2.9232 5.26149 0
M  V30 4152 H 406.443 2.26779 2.02002 0
M  V30 4153 H 404.028 1.15823 0.943682 0
M  V30 4154 H 405.91 0.969392 4.10098 0
M  V30 4155 H 404.585 0.146003 3.23371 0
M  V30 4156 H 403.492 2.43033 2.84404 0
M  V30 4157 H 404.825 3.18257 3.75464 0
M  V30 4158 N 406.477 -1.02803 1.19454 0
M  V30 4159 C 407.888 -1.57667 0.999899 0
M  V30 4160 C 408.239 -1.91041 -0.446956 0
M  V30 4161 O 407.364 -1.70978 -1.32648 0
M  V30 4162 C 407.959 -2.86477 1.80877 0
M  V30 4163 C 406.518 -3.37911 1.65811 0
M  V30 4164 C 405.665 -2.11343 1.79526 0
M  V30 4165 H 408.616 -0.853214 1.33813 0
M  V30 4166 H 408.637 -3.57408 1.30536 0
M  V30 4167 H 408.149 -2.62155 2.86175 0
M  V30 4168 H 406.25 -3.67218 0.63102 0
M  V30 4169 H 406.363 -4.10885 2.46395 0
M  V30 4170 H 404.727 -2.23254 1.22596 0
M  V30 4171 H 405.51 -1.89461 2.86285 0
M  V30 4172 N 407.956 -0.998596 -1.21925 0
M  V30 4173 C 408.888 -0.511879 -2.23411 0
M  V30 4174 C 409.901 0.396094 -1.57908 0
M  V30 4175 O 411.09 0.197316 -1.77406 0
M  V30 4176 C 408.19 0.276802 -3.37768 0
M  V30 4177 C 407.363 -0.628687 -4.32858 0
M  V30 4178 C 406.422 0.109272 -5.26087 0
M  V30 4179 O 405.448 -0.507237 -5.66935 0
M  V30 4180 N 406.65 1.38983 -5.63617 0
M  V30 4181 H 409.415 -1.38457 -2.658 0
M  V30 4182 H 406.976 -0.873981 -1.36283 0
M  V30 4183 H 408.968 0.77928 -3.97126 0
M  V30 4184 H 407.538 1.05063 -2.94415 0
M  V30 4185 H 406.758 -1.31175 -3.71735 0
M  V30 4186 H 408.046 -1.24514 -4.93329 0
M  V30 4187 H 407.444 1.91194 -5.32411 0
M  V30 4188 H 406.001 1.83739 -6.25367 0
M  V30 4189 N 409.434 1.37368 -0.772513 0
M  V30 4190 C 410.68 1.99969 -0.337681 0
M  V30 4191 C 411.013 1.61184 1.08321 0
M  V30 4192 O 410.288 0.858395 1.74533 0
M  V30 4193 C 410.571 3.56858 -0.482121 0
M  V30 4194 C 410.424 4.0555 -1.94549 0
M  V30 4195 C 411.743 4.39955 0.113143 0
M  V30 4196 H 408.862 0.726464 -0.124171 0
M  V30 4197 H 411.504 1.63034 -0.975699 0
M  V30 4198 H 409.654 3.88452 0.0610361 0
M  V30 4199 H 411.326 3.84518 -2.54841 0
M  V30 4200 H 409.569 3.57715 -2.45403 0
M  V30 4201 H 410.24 5.14587 -1.9976 0
M  V30 4202 H 412.716 4.14623 -0.35031 0
M  V30 4203 H 411.592 5.48897 -0.0180514 0
M  V30 4204 H 411.853 4.25403 1.20354 0
M  V30 4205 N 410.912 0.523116 1.48665 0
M  V30 4206 C 412.142 -0.00961724 2.06598 0
M  V30 4207 C 412.55 -1.29333 1.38093 0
M  V30 4208 O 411.893 -1.77846 0.46007 0
M  V30 4209 C 411.955 -0.311135 3.58151 0
M  V30 4210 C 411.619 0.878092 4.48485 0
M  V30 4211 C 412.616 1.77464 4.88674 0
M  V30 4212 C 410.301 1.08315 4.90483 0
M  V30 4213 C 412.295 2.86021 5.69623 0
M  V30 4214 C 409.982 2.17187 5.71203 0
M  V30 4215 C 410.98 3.05873 6.10681 0
M  V30 4216 O 410.668 4.12862 6.89783 0
M  V30 4217 H 410.4 0.0272658 0.67545 0
M  V30 4218 H 412.954 0.726156 1.92136 0
M  V30 4219 H 411.184 -1.10079 3.70701 0
M  V30 4220 H 412.873 -0.785125 3.98234 0
M  V30 4221 H 413.639 1.62813 4.56855 0
M  V30 4222 H 409.518 0.402149 4.59243 0
M  V30 4223 H 413.062 3.55272 6.00356 0
M  V30 4224 H 408.959 2.31824 6.02435 0
M  V30 4225 H 409.727 4.10487 7.08126 0
M  V30 4226 N 412.39 -1.55475 0.257931 0
M  V30 4227 C 413.618 -2.03609 -0.367559 0
M  V30 4228 C 414.033 -1.13687 -1.50734 0
M  V30 4229 O 413.39 -0.153479 -1.81853 0
M  V30 4230 C 413.441 -3.51001 -0.864908 0
M  V30 4231 O 413.162 -4.37499 0.229465 0
M  V30 4232 C 414.663 -4.14946 -1.55997 0
M  V30 4233 H 411.883 -0.665459 -0.0860521 0
M  V30 4234 H 414.427 -2.00843 0.385014 0
M  V30 4235 H 412.582 -3.54266 -1.56762 0
M  V30 4236 H 412.996 -5.24286 -0.14998 0
M  V30 4237 H 414.47 -5.19735 -1.85956 0
M  V30 4238 H 414.947 -3.6209 -2.4857 0
M  V30 4239 H 415.553 -4.15635 -0.901543 0
M  V30 4240 N 413.868 0.0150385 -1.57593 0
M  V30 4241 C 414.798 1.01047 -2.10503 0
M  V30 4242 C 415.779 1.36816 -1.01071 0
M  V30 4243 O 416.964 1.45455 -1.28672 0
M  V30 4244 C 414.094 2.30708 -2.59598 0
M  V30 4245 C 413.048 2.09142 -3.73421 0
M  V30 4246 C 412.374 3.44685 -4.08774 0
M  V30 4247 C 413.674 1.46619 -5.01298 0
M  V30 4248 H 415.368 0.569978 -2.93925 0
M  V30 4249 H 412.914 0.272724 -1.41394 0
M  V30 4250 H 414.867 3.00687 -2.95238 0
M  V30 4251 H 413.591 2.76843 -1.73279 0
M  V30 4252 H 412.25 1.41592 -3.38153 0
M  V30 4253 H 411.898 3.88495 -3.195 0
M  V30 4254 H 411.598 3.31077 -4.8545 0
M  V30 4255 H 413.122 4.16004 -4.4696 0
M  V30 4256 H 414.536 2.06535 -5.34805 0
M  V30 4257 H 412.933 1.43544 -5.82679 0
M  V30 4258 H 414.003 0.433611 -4.82957 0
M  V30 4259 N 415.346 1.54954 0.287554 0
M  V30 4260 C 416.757 1.65732 0.859634 0
M  V30 4261 C 417.108 0.574767 1.87592 0
M  V30 4262 O 416.233 -0.286299 2.14498 0
M  V30 4263 C 416.828 3.00438 1.56597 0
M  V30 4264 C 415.387 3.13292 2.08627 0
M  V30 4265 C 414.534 2.61473 0.923416 0
M  V30 4266 H 417.485 1.5857 0.0642338 0
M  V30 4267 H 417.506 2.92613 2.43224 0
M  V30 4268 H 417.018 3.79207 0.826053 0
M  V30 4269 H 415.119 2.39268 2.85625 0
M  V30 4270 H 415.232 4.19647 2.31157 0
M  V30 4271 H 413.596 2.18264 1.31275 0
M  V30 4272 H 414.379 3.42733 0.197241 0
M  V30 4273 N 416.824 -0.551391 1.4764 0
M  V30 4274 C 418.235 -1.13349 1.48354 0
M  V30 4275 C 418.586 -1.94709 0.241432 0
M  V30 4276 O 417.711 -2.06306 -0.653205 0
M  V30 4277 C 418.306 -2.0623 2.68802 0
M  V30 4278 C 416.865 -2.597 2.72457 0
M  V30 4279 C 416.012 -1.36201 2.41546 0
M  V30 4280 H 418.963 -0.337698 1.55065 0
M  V30 4281 H 418.984 -2.90196 2.46103 0
M  V30 4282 H 418.496 -1.46987 3.59188 0
M  V30 4283 H 416.597 -3.22724 1.86225 0
M  V30 4284 H 416.71 -3.00296 3.73308 0
M  V30 4285 H 415.074 -1.67068 1.9225 0
M  V30 4286 H 415.857 -0.787425 3.34147 0
M  V30 4287 N 418.302 -1.35869 -0.798587 0
M  V30 4288 C 419.527 -1.32883 -1.59238 0
M  V30 4289 C 419.952 0.0894587 -1.87887 0
M  V30 4290 O 419.31 1.05869 -1.47178 0
M  V30 4291 C 419.358 -2.14892 -2.89575 0
M  V30 4292 O 418.462 -1.53512 -3.82763 0
M  V30 4293 H 417.803 -0.455236 -0.48338 0
M  V30 4294 H 420.333 -1.79024 -0.990539 0
M  V30 4295 H 420.343 -2.27139 -3.38928 0
M  V30 4296 H 419.018 -3.17998 -2.68049 0
M  V30 4297 H 417.595 -1.50153 -3.41334 0
M  V30 4298 N 419.78 1.02168 -1.19998 0
M  V30 4299 C 421.196 1.27969 -0.953737 0
M  V30 4300 C 421.396 1.98079 0.369703 0
M  V30 4301 O 420.452 2.27306 1.09947 0
M  V30 4302 C 421.765 2.11971 -2.13281 0
M  V30 4303 C 423.313 2.25255 -2.17323 0
M  V30 4304 C 423.788 3.12632 -3.34702 0
M  V30 4305 N 425.279 3.2022 -3.34684 0
M  V30 4306 C 426.014 3.88039 -4.22153 0
M  V30 4307 N 425.51 4.58027 -5.19791 0
M  V30 4308 N 427.303 3.84511 -4.10009 0
M  V30 4309 H 419.454 0.550794 -2.05134 0
M  V30 4310 H 421.717 0.305683 -0.897364 0
M  V30 4311 H 421.423 1.67785 -3.09097 0
M  V30 4312 H 421.297 3.12699 -2.10949 0
M  V30 4313 H 423.684 2.68667 -1.22073 0
M  V30 4314 H 423.765 1.24053 -2.23706 0
M  V30 4315 H 423.409 2.69926 -4.30235 0
M  V30 4316 H 423.339 4.13909 -3.25556 0
M  V30 4317 H 425.83 2.70382 -2.64012 0
M  V30 4318 H 426.143 5.07429 -5.82868 0
M  V30 4319 H 424.488 4.56869 -5.23733 0
M  V30 4320 H 427.679 3.28978 -3.33003 0
M  V30 4321 H 427.852 4.3709 -4.78389 0
M  V30 4322 N 421.258 1.00505 1.21394 0
M  V30 4323 C 422.168 0.574806 2.27449 0
M  V30 4324 C 423.184 -0.382206 1.6975 0
M  V30 4325 O 424.36 -0.246027 1.99892 0
M  V30 4326 C 421.425 -0.0917414 3.46579 0
M  V30 4327 C 420.486 0.909758 4.1955 0
M  V30 4328 C 419.719 0.274924 5.32991 0
M  V30 4329 O 419.942 -0.928254 5.62796 0
M  V30 4330 O 418.876 0.985877 5.93771 0
M  V30 4331 H 422.702 1.45744 2.66444 0
M  V30 4332 H 420.287 0.773923 1.27792 0
M  V30 4333 H 422.169 -0.464551 4.18832 0
M  V30 4334 H 420.844 -0.948755 3.09484 0
M  V30 4335 H 419.751 1.33372 3.49518 0
M  V30 4336 H 421.084 1.73636 4.60555 0
M  V30 4337 N 422.737 -1.36956 0.779787 0
M  V30 4338 C 423.647 -2.33965 0.172491 0
M  V30 4339 C 424.663 -1.60574 -0.670222 0
M  V30 4340 O 425.839 -1.92617 -0.588263 0
M  V30 4341 C 422.904 -3.39761 -0.690173 0
M  V30 4342 C 421.965 -4.28964 0.169924 0
M  V30 4343 C 421.198 -5.29707 -0.651662 0
M  V30 4344 O 421.421 -5.38238 -1.88827 0
M  V30 4345 O 420.355 -6.01873 -0.0566264 0
M  V30 4346 H 424.181 -2.87647 0.974321 0
M  V30 4347 H 421.766 -1.39258 0.541078 0
M  V30 4348 H 423.648 -4.04471 -1.1824 0
M  V30 4349 H 422.323 -2.88394 -1.47006 0
M  V30 4350 H 421.23 -3.67326 0.708696 0
M  V30 4351 H 422.563 -4.83656 0.913085 0
M  V30 4352 N 424.215 -0.530993 -1.48385 0
M  V30 4353 C 425.148 0.278511 -2.26494 0
M  V30 4354 C 426.126 0.943905 -1.32398 0
M  V30 4355 O 427.31 0.968098 -1.61741 0
M  V30 4356 C 424.437 1.39453 -3.08659 0
M  V30 4357 C 423.483 0.840434 -4.18137 0
M  V30 4358 S 424.316 -0.292496 -5.34701 0
M  V30 4359 C 425.472 0.825973 -6.20426 0
M  V30 4360 H 425.705 -0.384365 -2.94805 0
M  V30 4361 H 423.238 -0.316799 -1.51115 0
M  V30 4362 H 425.196 2.03382 -3.56575 0
M  V30 4363 H 423.857 2.02913 -2.3976 0
M  V30 4364 H 423.05 1.67769 -4.75257 0
M  V30 4365 H 422.652 0.277819 -3.72967 0
M  V30 4366 H 424.944 1.72438 -6.55188 0
M  V30 4367 H 425.887 0.292728 -7.07495 0
M  V30 4368 H 426.295 1.10683 -5.53543 0
M  V30 4369 N 425.693 1.55336 -0.266172 0
M  V30 4370 C 426.921 2.03801 0.356756 0
M  V30 4371 C 427.336 1.14485 1.50129 0
M  V30 4372 O 426.693 0.163121 1.8177 0
M  V30 4373 C 426.744 3.51455 0.846281 0
M  V30 4374 O 426.465 4.37371 -0.252663 0
M  V30 4375 C 427.966 4.15767 1.53794 0
M  V30 4376 H 425.186 0.665906 0.0825218 0
M  V30 4377 H 427.73 2.00636 -0.39566 0
M  V30 4378 H 425.885 3.55092 1.54881 0
M  V30 4379 H 426.299 5.24358 0.122173 0
M  V30 4380 H 427.773 5.20714 1.83198 0
M  V30 4381 H 428.25 3.63404 2.46646 0
M  V30 4382 H 428.856 4.16107 0.879488 0
M  V30 4383 N 427.171 -0.0066808 1.57599 0
M  V30 4384 C 428.118 -1.00024 2.08 0
M  V30 4385 C 429.088 -1.34549 0.973943 0
M  V30 4386 O 430.273 -1.44502 1.24595 0
M  V30 4387 C 427.413 -2.2891 2.58252 0
M  V30 4388 C 426.526 -2.00346 3.82734 0
M  V30 4389 C 425.661 -3.23265 4.21513 0
M  V30 4390 C 424.7 -2.90357 5.3885 0
M  V30 4391 N 423.837 -4.05793 5.72954 0
M  V30 4392 H 428.677 -0.563499 2.92624 0
M  V30 4393 H 426.214 -0.266592 1.44664 0
M  V30 4394 H 428.172 -3.04247 2.85464 0
M  V30 4395 H 426.802 -2.70265 1.76512 0
M  V30 4396 H 425.854 -1.15406 3.62471 0
M  V30 4397 H 427.166 -1.72086 4.68175 0
M  V30 4398 H 426.32 -4.06953 4.49971 0
M  V30 4399 H 425.059 -3.54657 3.34768 0
M  V30 4400 H 424.064 -2.05075 5.10122 0
M  V30 4401 H 425.289 -2.60219 6.27266 0
M  V30 4402 H 423.235 -4.37094 4.89167 0
M  V30 4403 H 423.152 -3.81034 6.52954 0
M  V30 4404 H 424.42 -4.90289 6.06001 0
M  V30 4405 N 428.649 -1.55105 -0.279332 0
M  V30 4406 C 429.597 -1.88333 -1.36505 0
M  V30 4407 C 430.591 -0.759043 -1.51443 0
M  V30 4408 O 431.797 -0.943312 -1.53302 0
M  V30 4409 H 428.172 -0.59766 -0.456406 0
M  V30 4410 H 430.143 -2.79041 -1.05728 0
M  V30 4411 C 428.892 -2.16628 -2.7197 0
M  V30 4412 H 428.215 -3.02624 -2.61264 0
M  V30 4413 H 429.655 -2.43803 -3.46895 0
M  V30 4414 C 428.114 -0.971807 -3.22579 0
M  V30 4415 O 428.644 -0.203228 -4.01186 0
M  V30 4416 N 426.85 -0.771238 -2.80179 0
M  V30 4417 H 426.397 -1.39792 -2.1637 0
M  V30 4418 H 426.355 0.0263667 -3.14389 0
M  V30 4419 N 430.127 0.543554 -1.4793 0
M  V30 4420 C 431.059 1.665 -1.57513 0
M  V30 4421 C 432.072 1.56156 -0.460333 0
M  V30 4422 O 433.261 1.62865 -0.730573 0
M  V30 4423 C 430.361 3.05063 -1.47614 0
M  V30 4424 C 429.534 3.41024 -2.739 0
M  V30 4425 C 428.593 4.58809 -2.57645 0
M  V30 4426 O 427.619 4.62707 -3.31498 0
M  V30 4427 N 428.821 5.56149 -1.66368 0
M  V30 4428 H 431.586 1.5872 -2.5422 0
M  V30 4429 H 429.147 0.730517 -1.44482 0
M  V30 4430 H 431.139 3.81712 -1.34455 0
M  V30 4431 H 429.709 3.06994 -0.589359 0
M  V30 4432 H 428.929 2.53687 -3.01723 0
M  V30 4433 H 430.217 3.61831 -3.57709 0
M  V30 4434 H 429.615 5.55767 -1.05543 0
M  V30 4435 H 428.172 6.32071 -1.59154 0
M  V30 4436 N 431.605 1.3629 0.791371 0
M  V30 4437 C 432.851 1.30605 1.55146 0
M  V30 4438 C 433.184 -0.115042 1.93859 0
M  V30 4439 O 432.459 -1.06798 1.62556 0
M  V30 4440 C 432.742 2.22692 2.82985 0
M  V30 4441 C 432.595 3.73489 2.50651 0
M  V30 4442 C 433.914 2.13588 3.84796 0
M  V30 4443 H 431.033 0.475761 0.562868 0
M  V30 4444 H 433.675 1.66825 0.909358 0
M  V30 4445 H 431.825 1.91933 3.37778 0
M  V30 4446 H 433.497 4.14758 2.01924 0
M  V30 4447 H 431.74 3.93021 1.83622 0
M  V30 4448 H 432.411 4.3333 3.41949 0
M  V30 4449 H 434.887 2.40659 3.39445 0
M  V30 4450 H 433.763 2.80195 4.71998 0
M  V30 4451 H 434.024 1.12256 4.27611 0
M  V30 4452 N 433.083 -1.0153 1.20538 0
M  V30 4453 C 434.308 -1.79283 1.04271 0
M  V30 4454 C 434.733 -1.8372 -0.403544 0
M  V30 4455 O 434.091 -1.27321 -1.2907 0
M  V30 4456 C 434.139 -3.21535 1.63241 0
M  V30 4457 O 433.243 -4.03099 0.870908 0
M  V30 4458 H 432.584 -0.55293 0.367647 0
M  V30 4459 H 435.114 -1.27696 1.59859 0
M  V30 4460 H 435.124 -3.72243 1.6703 0
M  V30 4461 H 433.799 -3.1762 2.68497 0
M  V30 4462 H 432.376 -3.61693 0.907323 0
M  V30 4463 N 434.561 -1.01147 -1.20859 0
M  V30 4464 C 435.491 -0.597663 -2.25722 0
M  V30 4465 C 436.472 0.384744 -1.65692 0
M  V30 4466 O 437.657 0.271303 -1.92296 0
M  V30 4467 C 434.787 0.0700149 -3.47229 0
M  V30 4468 C 433.741 -0.832843 -4.19819 0
M  V30 4469 C 433.067 -0.0312202 -5.34691 0
M  V30 4470 C 434.367 -2.1385 -4.76514 0
M  V30 4471 H 436.061 -1.47423 -2.60589 0
M  V30 4472 H 433.607 -0.710301 -1.25263 0
M  V30 4473 H 435.56 0.37103 -4.19763 0
M  V30 4474 H 434.284 0.981259 -3.11511 0
M  V30 4475 H 432.943 -1.11778 -3.49144 0
M  V30 4476 H 432.591 0.881515 -4.95215 0
M  V30 4477 H 432.291 -0.632434 -5.84187 0
M  V30 4478 H 433.815 0.26346 -6.10031 0
M  V30 4479 H 435.229 -1.9002 -5.40893 0
M  V30 4480 H 433.626 -2.69012 -5.36426 0
M  V30 4481 H 434.696 -2.80495 -3.95538 0
M  V30 4482 N 436.039 1.36541 -0.78704 0
M  V30 4483 C 437.267 2.03561 -0.370199 0
M  V30 4484 C 437.682 1.59347 1.01263 0
M  V30 4485 O 437.039 0.781781 1.64907 0
M  V30 4486 C 437.09 3.59033 -0.421614 0
M  V30 4487 O 436.811 4.01634 -1.7499 0
M  V30 4488 C 438.312 4.433 0.00489763 0
M  V30 4489 H 435.532 0.653346 -0.152904 0
M  V30 4490 H 438.076 1.74566 -1.06522 0
M  V30 4491 H 436.231 3.86746 0.224971 0
M  V30 4492 H 436.645 4.96217 -1.69909 0
M  V30 4493 H 438.119 5.51939 -0.0822184 0
M  V30 4494 H 438.596 4.26285 1.05723 0
M  V30 4495 H 439.202 4.20843 -0.614085 0
M  V30 4496 N 437.518 0.538854 1.48102 0
M  V30 4497 C 438.758 0.0101209 2.04397 0
M  V30 4498 C 439.122 -1.30741 1.40609 0
M  V30 4499 O 440.323 -1.92272 1.87843 0
M  V30 4500 C 438.594 -0.100232 3.57259 0
M  V30 4501 S 440.153 -0.577746 4.3498 0
M  V30 4502 H 436.971 0.0163171 0.710813 0
M  V30 4503 H 439.573 0.721429 1.81702 0
M  V30 4504 H 438.277 0.863351 4.01216 0
M  V30 4505 H 437.808 -0.835651 3.84422 0
M  V30 4506 H 439.823 -1.84073 4.60794 0
M  V30 4507 N 438.996 -1.55193 0.274407 0
M  V30 4508 C 439.926 -2.25471 -0.607032 0
M  V30 4509 C 440.907 -1.24461 -1.15946 0
M  V30 4510 O 442.092 -1.53179 -1.19373 0
M  V30 4511 C 439.222 -2.97526 -1.79153 0
M  V30 4512 C 438.176 -4.05459 -1.37067 0
M  V30 4513 C 437.502 -4.65084 -2.6382 0
M  V30 4514 C 438.802 -5.19691 -0.521389 0
M  V30 4515 H 440.496 -2.99393 -0.0209343 0
M  V30 4516 H 438.042 -1.43997 -0.00862866 0
M  V30 4517 H 439.995 -3.45402 -2.41404 0
M  V30 4518 H 438.719 -2.21138 -2.40344 0
M  V30 4519 H 437.378 -3.58393 -0.771355 0
M  V30 4520 H 437.026 -3.85365 -3.23268 0
M  V30 4521 H 436.726 -5.37961 -2.36372 0
M  V30 4522 H 438.25 -5.15708 -3.26921 0
M  V30 4523 H 439.664 -5.63623 -1.04889 0
M  V30 4524 H 438.061 -5.99126 -0.341825 0
M  V30 4525 H 439.131 -4.82713 0.46 0
M  V30 4526 N 440.474 -0.00167713 -1.576 0
M  V30 4527 C 441.72 0.683832 -1.90923 0
M  V30 4528 C 442.053 1.7333 -0.875799 0
M  V30 4529 O 441.328 1.94215 0.10525 0
M  V30 4530 C 441.611 1.32543 -3.3482 0
M  V30 4531 C 441.464 0.287387 -4.48881 0
M  V30 4532 C 442.783 2.25114 -3.78169 0
M  V30 4533 H 439.902 0.247125 -0.694333 0
M  V30 4534 H 442.544 -0.0533149 -1.89925 0
M  V30 4535 H 440.694 1.95372 -3.35801 0
M  V30 4536 H 442.366 -0.341346 -4.60035 0
M  V30 4537 H 440.609 -0.39017 -4.32042 0
M  V30 4538 H 441.28 0.775393 -5.46527 0
M  V30 4539 H 443.756 1.723 -3.7875 0
M  V30 4540 H 442.632 2.66971 -4.79602 0
M  V30 4541 H 442.893 3.13092 -3.12131 0
M  V30 4542 N 441.952 1.55251 0.271103 0
M  V30 4543 C 442.899 1.88261 1.33516 0
M  V30 4544 C 443.869 0.734296 1.48988 0
M  V30 4545 O 445.054 0.985741 1.63364 0
M  V30 4546 C 442.194 2.16168 2.69008 0
M  V30 4547 C 441.307 3.43678 2.61743 0
M  V30 4548 C 440.442 3.61276 3.89427 0
M  V30 4549 C 439.481 4.82472 3.7668 0
M  V30 4550 N 438.618 4.96717 4.96202 0
M  V30 4551 H 443.458 2.79015 1.04665 0
M  V30 4552 H 440.995 1.38137 0.505618 0
M  V30 4553 H 442.953 2.30349 3.47844 0
M  V30 4554 H 441.583 1.28646 2.96057 0
M  V30 4555 H 440.635 3.37959 1.74607 0
M  V30 4556 H 441.947 4.3265 2.48224 0
M  V30 4557 H 441.101 3.75284 4.76704 0
M  V30 4558 H 439.84 2.70492 4.05814 0
M  V30 4559 H 438.845 4.68465 2.87786 0
M  V30 4560 H 440.07 5.74692 3.61809 0
M  V30 4561 H 438.016 4.08865 5.12997 0
M  V30 4562 H 437.933 5.79738 4.85222 0
M  V30 4563 H 439.201 5.15113 5.85046 0
M  V30 4564 N 443.43 -0.535701 1.48216 0
M  V30 4565 C 444.678 -1.28928 1.55634 0
M  V30 4566 C 444.999 -1.93645 0.229514 0
M  V30 4567 O 444.269 -1.81038 -0.74846 0
M  V30 4568 H 442.849 -0.47884 0.573342 0
M  V30 4569 H 445.511 -0.623853 1.84646 0
M  V30 4570 H 444.607 -2.07157 2.33436 0
M  V30 4571 N 444.908 -1.36708 -0.784132 0
M  V30 4572 C 446.155 -1.31231 -1.54222 0
M  V30 4573 C 446.483 0.106864 -1.94206 0
M  V30 4574 O 445.738 1.07734 -1.63376 0
M  V30 4575 C 446.037 -2.18571 -2.82774 0
M  V30 4576 C 445.703 -3.67039 -2.61903 0
M  V30 4577 C 444.365 -4.07503 -2.55919 0
M  V30 4578 C 446.717 -4.61149 -2.4288 0
M  V30 4579 C 444.045 -5.40211 -2.28886 0
M  V30 4580 C 446.397 -5.94081 -2.17373 0
M  V30 4581 C 445.061 -6.33664 -2.09825 0
M  V30 4582 H 444.331 -0.48021 -0.56434 0
M  V30 4583 H 446.978 -1.68807 -0.904233 0
M  V30 4584 H 445.283 -1.73949 -3.51068 0
M  V30 4585 H 446.98 -2.11655 -3.40592 0
M  V30 4586 H 443.57 -3.34941 -2.67418 0
M  V30 4587 H 447.754 -4.30756 -2.46501 0
M  V30 4588 H 443.01 -5.69855 -2.21529 0
M  V30 4589 H 447.184 -6.66566 -2.01649 0
M  V30 4590 H 444.811 -7.36423 -1.88641 0
M  V30 4591 N 446.386 1.0089 -1.21074 0
M  V30 4592 C 447.616 1.77933 -1.04993 0
M  V30 4593 C 448.024 1.84847 0.403495 0
M  V30 4594 O 447.367 1.30606 1.29181 0
M  V30 4595 C 447.429 3.23541 -1.56722 0
M  V30 4596 C 447.093 3.40214 -3.05129 0
M  V30 4597 C 448.09 3.2881 -4.02716 0
M  V30 4598 C 445.775 3.65781 -3.44252 0
M  V30 4599 C 447.769 3.42732 -5.37414 0
M  V30 4600 C 445.456 3.79346 -4.79103 0
M  V30 4601 C 446.454 3.67827 -5.75493 0
M  V30 4602 O 446.142 3.80965 -7.07899 0
M  V30 4603 H 445.874 0.566157 -0.369381 0
M  V30 4604 H 448.428 1.27826 -1.60779 0
M  V30 4605 H 446.658 3.74766 -0.953285 0
M  V30 4606 H 448.347 3.82245 -1.36543 0
M  V30 4607 H 449.113 3.08986 -3.73835 0
M  V30 4608 H 444.992 3.73831 -2.69762 0
M  V30 4609 H 448.536 3.33658 -6.12632 0
M  V30 4610 H 444.433 3.98672 -5.07672 0
M  V30 4611 H 445.201 3.97937 -7.15254 0
M  V30 4612 N 447.864 1.01787 1.20321 0
M  V30 4613 C 449.275 0.739307 1.71438 0
M  V30 4614 C 449.626 -0.742041 1.81627 0
M  V30 4615 O 448.751 -1.57903 1.47971 0
M  V30 4616 C 449.346 1.33538 3.11373 0
M  V30 4617 C 447.905 1.10566 3.59795 0
M  V30 4618 C 447.052 1.44028 2.36962 0
M  V30 4619 H 450.003 1.18718 1.05317 0
M  V30 4620 H 450.024 0.726611 3.73498 0
M  V30 4621 H 449.536 2.41352 3.03926 0
M  V30 4622 H 447.637 0.0452405 3.72573 0
M  V30 4623 H 447.75 1.78661 4.44542 0
M  V30 4624 H 446.114 0.85933 2.39766 0
M  V30 4625 H 446.897 2.52901 2.32155 0
M  V30 4626 N 449.342 -1.36122 0.79427 0
M  V30 4627 C 450.567 -2.03891 0.379871 0
M  V30 4628 C 450.992 -1.59488 -0.997251 0
M  V30 4629 O 450.35 -0.765652 -1.64339 0
M  V30 4630 C 450.398 -3.57687 0.457442 0
M  V30 4631 O 449.502 -4.08931 -0.5338 0
M  V30 4632 H 448.843 -0.6443 0.160541 0
M  V30 4633 H 451.373 -1.73976 1.07673 0
M  V30 4634 H 451.383 -4.06721 0.322792 0
M  V30 4635 H 450.058 -3.89357 1.46199 0
M  V30 4636 H 448.635 -3.71154 -0.360409 0
M  V30 4637 N 450.82 -0.546701 -1.47814 0
M  V30 4638 C 452.097 0.0464413 -1.95545 0
M  V30 4639 C 452.477 1.4962 -1.48919 0
M  V30 4640 O 451.825 2.16752 -0.723232 0
M  V30 4641 C 452.035 -0.0881298 -3.48889 0
M  V30 4642 C 453.383 0.0626059 -4.24554 0
M  V30 4643 O 454.407 -0.0151555 -3.56197 0
M  V30 4644 O 453.266 0.228071 -5.46024 0
M  V30 4645 H 450.36 0.0700004 -0.824032 0
M  V30 4646 H 452.906 -0.612482 -1.58262 0
M  V30 4647 H 451.678 -1.09737 -3.75597 0
M  V30 4648 H 451.301 0.608886 -3.9291 0
M  V30 4649 N 452.299 1.55045 -0.282633 0
M  V30 4650 C 453.548 1.98938 0.332667 0
M  V30 4651 C 453.861 1.17455 1.56409 0
M  V30 4652 O 455.067 1.51527 2.25282 0
M  V30 4653 C 453.523 3.54105 0.643226 0
M  V30 4654 C 453.131 4.44374 -0.568814 0
M  V30 4655 C 454.875 4.06569 1.22074 0
M  V30 4656 C 452.782 5.90943 -0.232426 0
M  V30 4657 H 451.712 0.743043 0.128075 0
M  V30 4658 H 454.363 1.79341 -0.388464 0
M  V30 4659 H 452.745 3.69532 1.42346 0
M  V30 4660 H 453.919 4.40718 -1.34551 0
M  V30 4661 H 452.234 4.02585 -1.06369 0
M  V30 4662 H 454.831 5.13626 1.48635 0
M  V30 4663 H 455.174 3.56057 2.15707 0
M  V30 4664 H 455.707 3.94612 0.502621 0
M  V30 4665 H 452.446 6.45567 -1.13683 0
M  V30 4666 H 451.966 5.9765 0.507357 0
M  V30 4667 H 453.645 6.4677 0.172657 0
M  V30 4668 N 453.777 0.010035 1.57597 0
M  V30 4669 C 454.74 -0.963029 2.07986 0
M  V30 4670 C 455.74 -1.26619 0.991173 0
M  V30 4671 O 456.93 -1.2097 1.25347 0
M  V30 4672 C 454.062 -2.2851 2.52974 0
M  V30 4673 H 455.255 -0.526971 2.95234 0
M  V30 4674 H 452.808 -0.237639 1.54483 0
M  V30 4675 H 453.543 -2.76784 1.69 0
M  V30 4676 H 453.328 -2.07824 3.32493 0
M  V30 4677 H 454.818 -2.98294 2.9225 0
M  V30 4678 N 455.255 -1.55392 -0.262866 0
M  V30 4679 C 456.501 -1.76737 -0.99458 0
M  V30 4680 C 456.834 -0.572453 -1.85571 0
M  V30 4681 O 456.109 0.429732 -1.89693 0
M  V30 4682 C 456.392 -3.07824 -1.8686 0
M  V30 4683 C 456.245 -4.3769 -1.03672 0
M  V30 4684 C 457.564 -3.35021 -2.85393 0
M  V30 4685 H 454.683 -0.643005 -0.360157 0
M  V30 4686 H 457.325 -1.88126 -0.266216 0
M  V30 4687 H 455.475 -2.98245 -2.48962 0
M  V30 4688 H 457.147 -4.59238 -0.43563 0
M  V30 4689 H 455.39 -4.32461 -0.340513 0
M  V30 4690 H 456.061 -5.25759 -1.6817 0
M  V30 4691 H 458.537 -3.44458 -2.33426 0
M  V30 4692 H 457.413 -4.27989 -3.43681 0
M  V30 4693 H 457.674 -2.55153 -3.61039 0
M  V30 4694 N 456.733 0.527833 -1.48498 0
M  V30 4695 C 457.643 1.65907 -1.65867 0
M  V30 4696 C 458.659 1.6537 -0.541192 0
M  V30 4697 O 459.835 1.84282 -0.812534 0
M  V30 4698 C 456.9 3.02364 -1.69637 0
M  V30 4699 C 455.961 3.1374 -2.93028 0
M  V30 4700 C 455.194 4.43688 -2.96609 0
M  V30 4701 O 455.417 5.30913 -2.08538 0
M  V30 4702 O 454.351 4.59475 -3.88802 0
M  V30 4703 H 458.177 1.5419 -2.61647 0
M  V30 4704 H 455.762 0.701163 -1.31924 0
M  V30 4705 H 457.644 3.83515 -1.74625 0
M  V30 4706 H 456.319 3.14401 -0.770312 0
M  V30 4707 H 455.226 2.31877 -2.93571 0
M  V30 4708 H 456.559 3.06621 -3.85026 0
M  V30 4709 N 458.211 1.37122 0.776871 0
M  V30 4710 C 459.457 1.3325 1.53675 0
M  V30 4711 C 459.812 -0.0839891 1.92217 0
M  V30 4712 O 459.105 -1.04145 1.60824 0
M  V30 4713 C 459.299 2.20068 2.81611 0
M  V30 4714 C 459.128 3.70016 2.55574 0
M  V30 4715 C 457.898 4.39144 2.4996 0
M  V30 4716 C 460.096 4.62996 2.23917 0
M  V30 4717 N 458.078 5.74663 2.15953 0
M  V30 4718 C 459.449 5.86854 2.00005 0
M  V30 4719 C 461.504 4.51433 2.1003 0
M  V30 4720 C 460.207 7.00446 1.63609 0
M  V30 4721 C 462.233 5.64905 1.75033 0
M  V30 4722 C 461.595 6.8781 1.51977 0
M  V30 4723 H 457.694 0.542878 0.562856 0
M  V30 4724 H 460.278 1.72295 0.906784 0
M  V30 4725 H 458.449 1.83248 3.42454 0
M  V30 4726 H 460.181 2.07492 3.47461 0
M  V30 4727 H 456.936 3.92088 2.65639 0
M  V30 4728 H 457.36 6.46268 2.0166 0
M  V30 4729 H 462.002 3.56987 2.26539 0
M  V30 4730 H 459.72 7.94831 1.45837 0
M  V30 4731 H 463.306 5.57926 1.64952 0
M  V30 4732 H 462.186 7.74126 1.25296 0
M  V30 4733 N 459.689 -1.00246 1.21608 0
M  V30 4734 C 460.599 -2.12515 0.993709 0
M  V30 4735 C 461.615 -1.73913 -0.0549939 0
M  V30 4736 O 462.791 -2.00943 0.135619 0
M  V30 4737 C 459.856 -3.42083 0.563953 0
M  V30 4738 C 458.917 -3.94843 1.68516 0
M  V30 4739 C 458.15 -5.18226 1.27582 0
M  V30 4740 O 458.373 -5.70201 0.150506 0
M  V30 4741 O 457.307 -5.64497 2.0887 0
M  V30 4742 H 461.133 -2.34152 1.93407 0
M  V30 4743 H 458.718 -1.10891 1.00118 0
M  V30 4744 H 460.6 -4.20073 0.334194 0
M  V30 4745 H 459.275 -3.21828 -0.347665 0
M  V30 4746 H 458.182 -3.18068 1.96935 0
M  V30 4747 H 459.515 -4.19512 2.5743 0
M  V30 4748 N 461.167 -1.02423 -1.1978 0
M  V30 4749 C 462.392 -0.7373 -1.93852 0
M  V30 4750 C 462.817 0.696923 -1.74713 0
M  V30 4751 O 462.175 1.48056 -1.04638 0
M  V30 4752 C 462.223 -1.08783 -3.438 0
M  V30 4753 O 461.327 -0.20383 -4.11896 0
M  V30 4754 H 460.668 -0.27284 -0.605355 0
M  V30 4755 H 463.198 -1.36966 -1.51992 0
M  V30 4756 H 463.208 -1.04276 -3.9445 0
M  V30 4757 H 461.883 -2.13274 -3.57053 0
M  V30 4758 H 460.46 -0.307091 -3.71633 0
M  V30 4759 N 462.645 1.35699 -0.801477 0
M  V30 4760 C 463.87 2.03687 -0.390678 0
M  V30 4761 C 464.295 1.60015 0.988778 0
M  V30 4762 O 463.653 0.774357 1.63931 0
M  V30 4763 C 463.701 3.57439 -0.476404 0
M  V30 4764 O 462.805 4.09208 0.512106 0
M  V30 4765 H 462.146 0.64344 -0.163956 0
M  V30 4766 H 464.676 1.73403 -1.08594 0
M  V30 4767 H 464.686 4.06544 -0.344357 0
M  V30 4768 H 463.361 3.88576 -1.48262 0
M  V30 4769 H 461.938 3.7134 0.340721 0
M  V30 4770 N 464.123 0.554532 1.47522 0
M  V30 4771 C 465.371 0.0294208 2.02079 0
M  V30 4772 C 465.692 -1.32411 1.43151 0
M  V30 4773 O 464.962 -1.863 0.605728 0
M  V30 4774 H 463.542 0.00788672 0.746958 0
M  V30 4775 H 466.204 0.723934 1.80956 0
M  V30 4776 H 465.3 -0.0606745 3.12041 0
M  V30 4777 N 465.601 -1.54893 0.290851 0
M  V30 4778 C 466.533 -2.20564 -0.623236 0
M  V30 4779 C 467.546 -1.19519 -1.1054 0
M  V30 4780 O 468.735 -1.46165 -1.02459 0
M  V30 4781 C 465.835 -2.83033 -1.86401 0
M  V30 4782 C 465.008 -4.09916 -1.52604 0
M  V30 4783 C 464.067 -4.56284 -2.62091 0
M  V30 4784 O 463.093 -5.2171 -2.27612 0
M  V30 4785 N 464.295 -4.27746 -3.92446 0
M  V30 4786 H 467.06 -2.99638 -0.0610915 0
M  V30 4787 H 464.621 -1.61508 0.112615 0
M  V30 4788 H 466.613 -3.1099 -2.58973 0
M  V30 4789 H 465.183 -2.0786 -2.33481 0
M  V30 4790 H 464.403 -3.89078 -0.633424 0
M  V30 4791 H 465.691 -4.92554 -1.27547 0
M  V30 4792 H 465.089 -3.7531 -4.23272 0
M  V30 4793 H 463.646 -4.60437 -4.61347 0
M  V30 4794 N 467.08 -0.0183926 -1.57589 0
M  V30 4795 C 468.491 0.521927 -1.79256 0
M  V30 4796 C 468.842 1.72885 -0.927636 0
M  V30 4797 O 467.967 2.15978 -0.135091 0
M  V30 4798 C 468.562 0.953632 -3.25102 0
M  V30 4799 C 467.121 1.43913 -3.47801 0
M  V30 4800 C 466.268 0.398837 -2.74417 0
M  V30 4801 H 469.219 -0.244485 -1.56805 0
M  V30 4802 H 469.24 1.81863 -3.34224 0
M  V30 4803 H 468.752 0.0750123 -3.88028 0
M  V30 4804 H 466.853 2.33804 -2.90115 0
M  V30 4805 H 466.966 1.45391 -4.56507 0
M  V30 4806 H 465.33 0.864572 -2.39577 0
M  V30 4807 H 466.113 -0.471132 -3.40052 0
M  V30 4808 N 468.558 1.5553 0.254621 0
M  V30 4809 C 469.468 1.92789 1.33677 0
M  V30 4810 C 470.484 0.827356 1.53071 0
M  V30 4811 O 471.66 1.12807 1.66843 0
M  V30 4812 C 468.725 2.20827 2.67275 0
M  V30 4813 C 467.786 3.4427 2.5647 0
M  V30 4814 C 467.019 3.70961 3.83697 0
M  V30 4815 O 467.242 2.99852 4.85227 0
M  V30 4816 O 466.176 4.64491 3.82794 0
M  V30 4817 H 470.002 2.84945 1.05071 0
M  V30 4818 H 467.587 1.42312 0.454723 0
M  V30 4819 H 469.469 2.40204 3.46237 0
M  V30 4820 H 468.144 1.31851 2.9563 0
M  V30 4821 H 467.051 3.30209 1.75821 0
M  V30 4822 H 468.384 4.33524 2.33062 0
M  V30 4823 N 470.036 -0.519951 1.48776 0
M  V30 4824 C 470.984 -1.64443 1.64503 0
M  V30 4825 C 471.978 -1.61501 0.511248 0
M  V30 4826 O 473.184 -1.66238 0.690294 0
M  V30 4827 H 469.559 -0.544776 0.518385 0
M  V30 4828 H 471.53 -1.48325 2.58925 0
M  V30 4829 C 470.279 -3.02673 1.71127 0
M  V30 4830 H 469.602 -3.05635 2.57735 0
M  V30 4831 H 471.042 -3.80941 1.86172 0
M  V30 4832 C 469.501 -3.33854 0.452032 0
M  V30 4833 O 470.031 -3.99385 -0.430678 0
M  V30 4834 N 468.237 -2.88825 0.32069 0
M  V30 4835 H 467.784 -2.35674 1.03998 0
M  V30 4836 H 467.742 -3.10056 -0.520814 0
M  V30 4837 N 471.514 -1.37532 -0.769588 0
M  V30 4838 C 472.462 -1.33561 -1.90432 0
M  V30 4839 C 473.456 -0.224027 -1.67912 0
M  V30 4840 O 474.662 -0.392174 -1.75676 0
M  V30 4841 H 471.037 -0.416279 -0.626271 0
M  V30 4842 H 473.008 -2.29348 -1.90899 0
M  V30 4843 C 471.757 -1.16162 -3.27722 0
M  V30 4844 H 471.08 -2.00951 -3.45628 0
M  V30 4845 H 472.52 -1.17434 -4.07413 0
M  V30 4846 C 470.979 0.132583 -3.36639 0
M  V30 4847 O 471.509 1.11539 -3.85904 0
M  V30 4848 N 469.715 0.184013 -2.90017 0
M  V30 4849 H 469.262 -0.616415 -2.50116 0
M  V30 4850 H 469.22 1.04956 -2.96364 0
M  V30 4851 N 472.992 0.995999 -1.22138 0
M  V30 4852 C 474.222 1.76809 -1.06874 0
M  V30 4853 C 474.63 1.85265 0.383866 0
M  V30 4854 O 473.973 1.31969 1.27789 0
M  V30 4855 C 474.035 3.2186 -1.60144 0
M  V30 4856 C 473.699 3.36958 -3.0872 0
M  V30 4857 C 474.696 3.2452 -4.0618 0
M  V30 4858 C 472.381 3.62109 -3.48112 0
M  V30 4859 C 474.375 3.37013 -5.41019 0
M  V30 4860 C 472.062 3.74243 -4.831 0
M  V30 4861 C 473.06 3.61702 -5.79362 0
M  V30 4862 O 472.748 3.73436 -7.119 0
M  V30 4863 H 472.48 0.562207 -0.375365 0
M  V30 4864 H 475.034 1.26113 -1.62125 0
M  V30 4865 H 473.264 3.73734 -0.992981 0
M  V30 4866 H 474.953 3.80775 -1.40589 0
M  V30 4867 H 475.719 3.05004 -3.77091 0
M  V30 4868 H 471.598 3.70949 -2.73712 0
M  V30 4869 H 475.142 3.27141 -6.16137 0
M  V30 4870 H 471.039 3.93266 -5.11872 0
M  V30 4871 H 471.807 3.90328 -7.19435 0
M  V30 4872 N 474.47 1.03057 1.19235 0
M  V30 4873 C 475.418 0.606391 2.24557 0
M  V30 4874 C 476.412 -0.361826 1.65491 0
M  V30 4875 O 477.618 -0.23022 1.78522 0
M  V30 4876 H 473.993 0.177838 0.730669 0
M  V30 4877 H 475.964 1.50529 2.5765 0
M  V30 4878 C 474.713 -0.0252127 3.47691 0
M  V30 4879 H 474.036 0.710838 3.9343 0
M  V30 4880 H 475.476 -0.284931 4.23042 0
M  V30 4881 C 473.935 -1.27229 3.11953 0
M  V30 4882 O 474.465 -2.36416 3.24762 0
M  V30 4883 N 472.671 -1.16169 2.6637 0
M  V30 4884 H 472.218 -0.273189 2.56147 0
M  V30 4885 H 472.176 -1.99703 2.42829 0
M  V30 4886 N 475.948 -1.35272 0.808662 0
M  V30 4887 C 477.176 -2.02946 0.402537 0
M  V30 4888 C 477.591 -1.60937 -0.987147 0
M  V30 4889 O 476.948 -0.807917 -1.63643 0
M  V30 4890 C 476.999 -3.58317 0.47868 0
M  V30 4891 O 476.72 -3.98799 1.81358 0
M  V30 4892 C 478.221 -4.43251 0.0656281 0
M  V30 4893 H 475.441 -0.650831 0.163279 0
M  V30 4894 H 477.985 -1.72849 1.09286 0
M  V30 4895 H 476.14 -3.87055 -0.163415 0
M  V30 4896 H 476.554 -4.93451 1.77781 0
M  V30 4897 H 478.028 -5.51738 0.170017 0
M  V30 4898 H 478.505 -4.27913 -0.989278 0
M  V30 4899 H 479.111 -4.19813 0.68096 0
M  V30 4900 N 477.426 -0.562348 -1.47226 0
M  V30 4901 C 478.654 -0.0452275 -2.06851 0
M  V30 4902 C 479.069 1.25078 -1.41424 0
M  V30 4903 O 478.426 1.75156 -0.512513 0
M  V30 4904 C 478.477 0.148674 -3.61194 0
M  V30 4905 O 478.198 -1.09602 -4.24169 0
M  V30 4906 C 479.699 0.702488 -4.37699 0
M  V30 4907 H 476.919 -0.0481775 -0.669268 0
M  V30 4908 H 479.463 -0.777223 -1.89155 0
M  V30 4909 H 477.618 0.830817 -3.78386 0
M  V30 4910 H 478.032 -0.896982 -5.16773 0
M  V30 4911 H 479.506 0.78743 -5.46355 0
M  V30 4912 H 479.983 1.71493 -4.04335 0
M  V30 4913 H 480.589 0.0558772 -4.25263 0
M  V30 4914 N 478.904 1.54736 -0.299062 0
M  V30 4915 C 480.315 1.8569 0.193971 0
M  V30 4916 C 480.666 1.22101 1.53577 0
M  V30 4917 O 479.791 0.51799 2.10109 0
M  V30 4918 C 480.386 3.36895 0.358733 0
M  V30 4919 C 478.945 3.67887 0.795986 0
M  V30 4920 C 478.092 2.77131 -0.096807 0
M  V30 4921 H 481.043 1.49934 -0.520134 0
M  V30 4922 H 481.064 3.61294 1.19361 0
M  V30 4923 H 480.576 3.83148 -0.617998 0
M  V30 4924 H 478.677 3.27151 1.78334 0
M  V30 4925 H 478.79 4.75114 0.616718 0
M  V30 4926 H 477.154 2.51153 0.423581 0
M  V30 4927 H 477.937 3.26204 -1.06986 0
M  V30 4928 N 480.382 0.0267497 1.57577 0
M  V30 4929 C 481.793 -0.512413 1.79531 0
M  V30 4930 C 482.144 -1.72391 0.936791 0
M  V30 4931 O 481.269 -2.15903 0.146543 0
M  V30 4932 C 481.864 -0.936378 3.25603 0
M  V30 4933 C 480.423 -1.42067 3.4856 0
M  V30 4934 C 479.57 -0.384278 2.74624 0
M  V30 4935 H 482.521 0.252797 1.56674 0
M  V30 4936 H 482.542 -1.80088 3.35184 0
M  V30 4937 H 482.054 -0.0544332 3.88062 0
M  V30 4938 H 480.155 -2.32262 2.9135 0
M  V30 4939 H 480.268 -1.42968 4.57271 0
M  V30 4940 H 478.632 -0.851855 2.40032 0
M  V30 4941 H 479.415 0.489159 3.39797 0
M  V30 4942 N 481.861 -1.55662 -0.24637 0
M  V30 4943 C 482.794 -1.85332 -1.33143 0
M  V30 4944 C 483.772 -0.708464 -1.46354 0
M  V30 4945 O 484.956 -0.954274 -1.6256 0
M  V30 4946 C 482.083 -2.0385 -2.70487 0
M  V30 4947 C 481.129 -3.26488 -2.74423 0
M  V30 4948 S 481.962 -4.83124 -2.30979 0
M  V30 4949 C 483.118 -5.04647 -3.70246 0
M  V30 4950 H 483.351 -2.77077 -1.07777 0
M  V30 4951 H 480.884 -1.47776 -0.44738 0
M  V30 4952 H 482.842 -2.15202 -3.49569 0
M  V30 4953 H 481.503 -1.12947 -2.9309 0
M  V30 4954 H 480.696 -3.36413 -3.7529 0
M  V30 4955 H 480.298 -3.13864 -2.03385 0
M  V30 4956 H 482.59 -4.92023 -4.65746 0
M  V30 4957 H 483.533 -6.06625 -3.65255 0
M  V30 4958 H 483.941 -4.32491 -3.62784 0
M  V30 4959 N 483.339 0.512053 -1.4905 0
M  V30 4960 C 484.269 1.62365 -1.67809 0
M  V30 4961 C 485.25 1.61737 -0.526809 0
M  V30 4962 O 486.435 1.78651 -0.761404 0
M  V30 4963 C 483.565 3.00895 -1.73435 0
M  V30 4964 C 482.519 3.16387 -2.88242 0
M  V30 4965 C 481.845 4.56157 -2.78971 0
M  V30 4966 C 483.145 2.97457 -4.29321 0
M  V30 4967 H 484.839 1.46921 -2.60873 0
M  V30 4968 H 482.385 0.705379 -1.2554 0
M  V30 4969 H 484.338 3.78549 -1.85145 0
M  V30 4970 H 483.062 3.17403 -0.769619 0
M  V30 4971 H 481.721 2.41155 -2.76116 0
M  V30 4972 H 481.369 4.69525 -1.8043 0
M  V30 4973 H 481.069 4.67465 -3.5602 0
M  V30 4974 H 482.593 5.35886 -2.92675 0
M  V30 4975 H 484.007 3.64888 -4.42187 0
M  V30 4976 H 482.404 3.20245 -5.07507 0
M  V30 4977 H 483.474 1.93692 -4.44535 0
M  V30 4978 N 484.817 1.37938 0.762283 0
M  V30 4979 C 486.094 1.24196 1.51112 0
M  V30 4980 C 486.474 -0.160409 2.1049 0
M  V30 4981 O 485.822 -1.16904 1.96331 0
M  V30 4982 C 486.032 2.34537 2.58445 0
M  V30 4983 C 487.38 2.7254 3.25588 0
M  V30 4984 O 488.404 2.33783 2.68745 0
M  V30 4985 O 487.263 3.39343 4.28379 0
M  V30 4986 H 484.357 0.485175 0.669727 0
M  V30 4987 H 486.903 1.49743 0.798438 0
M  V30 4988 H 485.675 3.28406 2.12756 0
M  V30 4989 H 485.298 2.10505 3.37303 0
M  V30 4990 N 486.295 -0.989507 1.22664 0
M  V30 4991 C 487.52 -1.77031 1.08051 0
M  V30 4992 C 487.945 -1.84535 -0.364483 0
M  V30 4993 O 487.303 -1.3003 -1.2634 0
M  V30 4994 C 487.351 -3.18 1.70024 0
M  V30 4995 O 486.455 -4.01161 0.956216 0
M  V30 4996 H 485.796 -0.545008 0.379292 0
M  V30 4997 H 488.326 -1.24277 1.62531 0
M  V30 4998 H 488.336 -3.68616 1.74888 0
M  V30 4999 H 487.011 -3.11853 2.75174 0
M  V30 5000 H 485.588 -3.59687 0.98384 0
M  V30 5001 N 487.773 -1.03688 -1.18687 0
M  V30 5002 C 489.05 -0.652397 -1.84399 0
M  V30 5003 C 489.43 0.868386 -1.92412 0
M  V30 5004 O 488.778 1.76832 -1.44716 0
M  V30 5005 C 488.988 -1.3238 -3.22919 0
M  V30 5006 C 490.336 -1.45216 -3.98996 0
M  V30 5007 O 491.36 -1.2816 -3.32345 0
M  V30 5008 O 490.219 -1.72975 -5.18403 0
M  V30 5009 H 487.313 -0.227793 -0.795009 0
M  V30 5010 H 489.859 -1.13553 -1.2611 0
M  V30 5011 H 488.631 -2.36202 -3.11968 0
M  V30 5012 H 488.254 -0.829039 -3.88861 0
M  V30 5013 N 489.251 1.34841 -0.815825 0
M  V30 5014 C 490.499 1.98107 -0.399744 0
M  V30 5015 C 490.82 1.65019 1.03894 0
M  V30 5016 O 490.09 0.937311 1.72021 0
M  V30 5017 H 488.67 0.732827 -0.144823 0
M  V30 5018 H 491.332 1.64599 -1.0437 0
M  V30 5019 H 490.428 3.07856 -0.512965 0
M  V30 5020 N 490.729 0.570148 1.46925 0
M  V30 5021 C 491.954 0.0542592 2.07329 0
M  V30 5022 C 492.379 -1.23582 1.41806 0
M  V30 5023 O 491.737 -1.74341 0.497479 0
M  V30 5024 C 491.785 -0.111175 3.60429 0
M  V30 5025 O 490.889 -1.17071 3.95434 0
M  V30 5026 H 490.23 0.0571425 0.661537 0
M  V30 5027 H 492.76 0.789516 1.88753 0
M  V30 5028 H 492.77 -0.321315 4.06733 0
M  V30 5029 H 491.445 0.831012 4.07513 0
M  V30 5030 H 490.022 -0.940029 3.60857 0
M  V30 5031 N 492.207 -1.54576 0.307264 0
M  V30 5032 C 493.454 -2.00263 -0.300167 0
M  V30 5033 C 493.782 -1.19561 -1.53413 0
M  V30 5034 O 493.037 -0.261487 -1.93945 0
M  V30 5035 C 493.336 -3.50572 -0.695253 0
M  V30 5036 C 493.002 -4.48771 0.437679 0
M  V30 5037 C 491.664 -4.7534 0.748681 0
M  V30 5038 C 494.016 -5.0721 1.19949 0
M  V30 5039 C 491.344 -5.5761 1.8245 0
M  V30 5040 C 493.696 -5.90651 2.26527 0
M  V30 5041 C 492.36 -6.15528 2.58227 0
M  V30 5042 H 491.63 -0.732814 -0.109839 0
M  V30 5043 H 494.277 -1.86664 0.427661 0
M  V30 5044 H 492.582 -3.61814 -1.50326 0
M  V30 5045 H 494.279 -3.83352 -1.17653 0
M  V30 5046 H 490.869 -4.282 0.185187 0
M  V30 5047 H 495.053 -4.86679 0.972474 0
M  V30 5048 H 490.309 -5.75121 2.07476 0
M  V30 5049 H 494.483 -6.34957 2.86011 0
M  V30 5050 H 492.11 -6.79066 3.4172 0
M  V30 5051 N 493.685 -0.035106 -1.57561 0
M  V30 5052 C 494.932 0.642229 -1.92046 0
M  V30 5053 C 495.26 1.7179 -0.91206 0
M  V30 5054 O 494.515 1.95544 0.0781153 0
M  V30 5055 C 494.814 1.29149 -3.3325 0
M  V30 5056 C 494.48 0.345604 -4.49574 0
M  V30 5057 C 493.142 0.0852775 -4.81124 0
M  V30 5058 C 495.494 -0.303569 -5.20315 0
M  V30 5059 C 492.822 -0.831927 -5.80772 0
M  V30 5060 C 495.174 -1.20886 -6.20942 0
M  V30 5061 C 493.838 -1.47802 -6.50931 0
M  V30 5062 H 493.108 0.235008 -0.702746 0
M  V30 5063 H 495.755 -0.0981529 -1.91248 0
M  V30 5064 H 494.06 2.10676 -3.30337 0
M  V30 5065 H 495.757 1.82223 -3.57205 0
M  V30 5066 H 492.347 0.558683 -4.24943 0
M  V30 5067 H 496.531 -0.115515 -4.96166 0
M  V30 5068 H 491.787 -1.0481 -6.02349 0
M  V30 5069 H 495.961 -1.71804 -6.74875 0
M  V30 5070 H 493.588 -2.19039 -7.2796 0
M  V30 5071 N 495.163 1.55791 0.238111 0
M  V30 5072 C 496.093 1.94068 1.29846 0
M  V30 5073 C 497.074 0.806726 1.49753 0
M  V30 5074 O 498.259 1.06772 1.62214 0
M  V30 5075 C 495.389 2.24302 2.65153 0
M  V30 5076 C 494.343 3.40032 2.59927 0
M  V30 5077 C 493.669 3.55829 3.99111 0
M  V30 5078 C 494.969 4.75476 2.16148 0
M  V30 5079 H 496.663 2.82887 0.980563 0
M  V30 5080 H 494.209 1.36105 0.470253 0
M  V30 5081 H 496.162 2.4967 3.39475 0
M  V30 5082 H 494.886 1.32318 2.98596 0
M  V30 5083 H 493.545 3.14687 1.88063 0
M  V30 5084 H 493.193 2.6125 4.29834 0
M  V30 5085 H 492.893 4.3366 3.96501 0
M  V30 5086 H 494.417 3.83528 4.7512 0
M  V30 5087 H 495.831 5.00158 2.80205 0
M  V30 5088 H 494.228 5.56472 2.24631 0
M  V30 5089 H 495.298 4.71946 1.11333 0
M  V30 5090 N 496.642 -0.504142 1.49319 0
M  V30 5091 C 497.872 -1.28071 1.62116 0
M  V30 5092 C 498.28 -1.86955 0.290566 0
M  V30 5093 O 497.623 -1.68415 -0.733616 0
M  V30 5094 C 497.685 -2.4521 2.62893 0
M  V30 5095 C 497.349 -2.07218 4.0732 0
M  V30 5096 C 498.346 -1.61375 4.94221 0
M  V30 5097 C 496.031 -2.16949 4.53033 0
M  V30 5098 C 498.025 -1.25763 6.2487 0
M  V30 5099 C 495.712 -1.80949 5.83696 0
M  V30 5100 C 496.71 -1.3543 6.69438 0
M  V30 5101 O 496.398 -0.99915 7.97667 0
M  V30 5102 H 496.13 -0.394763 0.54876 0
M  V30 5103 H 498.684 -0.612118 1.96067 0
M  V30 5104 H 496.914 -3.15134 2.24115 0
M  V30 5105 H 498.603 -3.0724 2.65252 0
M  V30 5106 H 499.369 -1.53306 4.60133 0
M  V30 5107 H 495.248 -2.5133 3.86463 0
M  V30 5108 H 498.792 -0.901631 6.91749 0
M  V30 5109 H 494.689 -1.88667 6.17313 0
M  V30 5110 H 495.457 -1.13089 8.1065 0
M  V30 5111 N 498.12 -1.38341 -0.754957 0
M  V30 5112 C 499.345 -1.37882 -1.5493 0
M  V30 5113 C 499.77 0.0296385 -1.88077 0
M  V30 5114 O 499.128 1.01133 -1.50472 0
M  V30 5115 C 499.176 -2.23996 -2.82592 0
M  V30 5116 O 498.28 -1.65612 -3.77686 0
M  V30 5117 H 497.621 -0.470384 -0.468652 0
M  V30 5118 H 500.151 -1.82084 -0.933082 0
M  V30 5119 H 500.161 -2.37806 -3.3153 0
M  V30 5120 H 498.836 -3.26365 -2.57796 0
M  V30 5121 H 497.413 -1.60936 -3.36384 0
M  V30 5122 N 499.598 0.982988 -1.23187 0
M  V30 5123 C 500.545 2.07491 -1.01075 0
M  V30 5124 C 501.515 1.65949 0.070905 0
M  V30 5125 O 502.7 1.90629 -0.0806822 0
M  V30 5126 C 499.84 3.39751 -0.605261 0
M  V30 5127 C 498.953 3.94578 -1.75876 0
M  V30 5128 C 498.088 5.15039 -1.3003 0
M  V30 5129 C 497.127 5.62027 -2.42472 0
M  V30 5130 N 496.264 6.73719 -1.97602 0
M  V30 5131 H 501.104 2.25739 -1.9454 0
M  V30 5132 H 498.641 1.10659 -0.969179 0
M  V30 5133 H 500.599 4.15719 -0.351279 0
M  V30 5134 H 499.229 3.21473 0.292382 0
M  V30 5135 H 498.281 3.1539 -2.12681 0
M  V30 5136 H 499.593 4.25422 -2.60418 0
M  V30 5137 H 498.747 5.9833 -1.00429 0
M  V30 5138 H 497.486 4.85843 -0.425216 0
M  V30 5139 H 496.491 4.77318 -2.7285 0
M  V30 5140 H 497.716 5.93244 -3.30512 0
M  V30 5141 H 495.662 6.46287 -1.1247 0
M  V30 5142 H 495.579 7.03934 -2.75705 0
M  V30 5143 H 496.847 7.6049 -1.71098 0
M  V30 5144 N 501.076 1.04316 1.18135 0
M  V30 5145 C 502.006 0.657299 2.24058 0
M  V30 5146 C 502.987 -0.340678 1.66654 0
M  V30 5147 O 504.172 -0.220223 1.92947 0
M  V30 5148 C 501.302 0.0220715 3.47293 0
M  V30 5149 C 500.256 0.943857 4.17463 0
M  V30 5150 C 499.582 0.172973 5.3442 0
M  V30 5151 C 500.882 2.26409 4.70677 0
M  V30 5152 H 502.576 1.5428 2.56589 0
M  V30 5153 H 500.122 0.743263 1.23335 0
M  V30 5154 H 502.075 -0.259607 4.206 0
M  V30 5155 H 500.799 -0.898323 3.14003 0
M  V30 5156 H 499.458 1.20996 3.46057 0
M  V30 5157 H 499.106 -0.749907 4.97379 0
M  V30 5158 H 498.806 0.787098 5.82304 0
M  V30 5159 H 500.33 -0.101628 6.10515 0
M  V30 5160 H 501.744 2.04294 5.35665 0
M  V30 5161 H 500.141 2.8314 5.29105 0
M  V30 5162 H 501.211 2.90883 3.87962 0
M  V30 5163 N 502.554 -1.34406 0.822964 0
M  V30 5164 C 503.782 -2.02508 0.424039 0
M  V30 5165 C 504.197 -1.61975 -0.970022 0
M  V30 5166 O 503.554 -0.825228 -1.62777 0
M  V30 5167 C 503.605 -3.57789 0.516657 0
M  V30 5168 O 503.326 -3.96853 1.85577 0
M  V30 5169 C 504.827 -4.43157 0.112637 0
M  V30 5170 H 502.047 -0.649063 0.170173 0
M  V30 5171 H 504.591 -1.7168 1.11113 0
M  V30 5172 H 502.746 -3.87207 -0.122353 0
M  V30 5173 H 503.16 -4.91538 1.83005 0
M  V30 5174 H 504.634 -5.51527 0.228526 0
M  V30 5175 H 505.111 -4.28939 -0.943837 0
M  V30 5176 H 505.717 -4.19067 0.725449 0
M  V30 5177 N 504.032 -0.577932 -1.46621 0
M  V30 5178 C 505.278 -0.0617793 -2.02706 0
M  V30 5179 C 505.611 1.29294 -1.44903 0
M  V30 5180 O 504.886 1.8461 -0.61232 0
M  V30 5181 C 505.169 0.00911824 -3.60099 0
M  V30 5182 C 505.022 -1.37416 -4.28295 0
M  V30 5183 C 506.341 0.712159 -4.343 0
M  V30 5184 H 503.46 -0.0239246 -0.736612 0
M  V30 5185 H 506.102 -0.744211 -1.74818 0
M  V30 5186 H 504.252 0.590292 -3.83989 0
M  V30 5187 H 505.924 -2.00013 -4.15683 0
M  V30 5188 H 504.167 -1.94319 -3.87843 0
M  V30 5189 H 504.838 -1.27707 -5.37024 0
M  V30 5190 H 507.314 0.218486 -4.15526 0
M  V30 5191 H 506.19 0.730782 -5.44014 0
M  V30 5192 H 506.451 1.77251 -4.05012 0
M  V30 5193 N 505.51 1.54411 -0.315457 0
M  V30 5194 C 506.787 1.92562 0.343398 0
M  V30 5195 C 507.167 1.24423 1.70535 0
M  V30 5196 O 506.515 0.385051 2.25232 0
M  V30 5197 C 506.725 3.46168 0.443687 0
M  V30 5198 C 508.073 4.18659 0.707783 0
M  V30 5199 O 509.097 3.52281 0.52693 0
M  V30 5200 O 507.956 5.36198 1.05612 0
M  V30 5201 H 505.05 0.80379 0.194552 0
M  V30 5202 H 507.596 1.65738 -0.364577 0
M  V30 5203 H 506.368 3.8792 -0.513172 0
M  V30 5204 H 505.991 3.79073 1.19956 0
M  V30 5205 N 506.988 0.0434614 1.5754 0
M  V30 5206 C 507.935 -0.93356 2.11077 0
M  V30 5207 C 508.905 -1.31383 1.01626 0
M  V30 5208 O 510.09 -1.40465 1.29129 0
M  V30 5209 C 507.23 -2.20578 2.65404 0
M  V30 5210 C 506.343 -1.88068 3.88914 0
M  V30 5211 C 505.478 -3.09691 4.31584 0
M  V30 5212 C 504.517 -2.73067 5.47815 0
M  V30 5213 N 503.654 -3.87359 5.85574 0
M  V30 5214 H 508.494 -0.470118 2.94268 0
M  V30 5215 H 506.031 -0.220434 1.45439 0
M  V30 5216 H 507.989 -2.95011 2.94999 0
M  V30 5217 H 506.619 -2.64513 1.85021 0
M  V30 5218 H 505.671 -1.03816 3.6596 0
M  V30 5219 H 506.983 -1.57104 4.73413 0
M  V30 5220 H 506.137 -3.92431 4.62691 0
M  V30 5221 H 504.876 -3.43827 3.45882 0
M  V30 5222 H 503.881 -1.88742 5.16388 0
M  V30 5223 H 505.106 -2.40131 6.35227 0
M  V30 5224 H 503.052 -4.21311 5.02825 0
M  V30 5225 H 502.969 -3.60068 6.64746 0
M  V30 5226 H 504.237 -4.70761 6.21292 0
M  V30 5227 N 508.466 -1.55915 -0.229846 0
M  V30 5228 C 509.691 -1.8296 -0.976743 0
M  V30 5229 C 510.116 -0.622735 -1.77493 0
M  V30 5230 O 509.474 0.428431 -1.76165 0
M  V30 5231 C 509.522 -3.07916 -1.8767 0
M  V30 5232 O 508.626 -2.86028 -2.97088 0
M  V30 5233 H 507.967 -0.603453 -0.277021 0
M  V30 5234 H 510.497 -2.0312 -0.245669 0
M  V30 5235 H 510.507 -3.37802 -2.2881 0
M  V30 5236 H 509.182 -3.95389 -1.28996 0
M  V30 5237 H 507.759 -2.67355 -2.59954 0
M  V30 5238 N 509.944 0.496216 -1.49584 0
M  V30 5239 C 511.36 0.827814 -1.36453 0
M  V30 5240 C 511.56 1.97464 -0.401285 0
M  V30 5241 O 510.616 2.51958 0.165296 0
M  V30 5242 C 511.929 1.16352 -2.77277 0
M  V30 5243 C 513.477 1.27145 -2.86013 0
M  V30 5244 C 513.952 1.64042 -4.27615 0
M  V30 5245 N 515.443 1.71082 -4.30448 0
M  V30 5246 C 516.178 2.01085 -5.36984 0
M  V30 5247 N 515.674 2.2928 -6.5376 0
M  V30 5248 N 517.467 2.02376 -5.24405 0
M  V30 5249 H 509.618 -0.259947 -2.10803 0
M  V30 5250 H 511.881 -0.0537163 -0.946477 0
M  V30 5251 H 511.587 0.394153 -3.49484 0
M  V30 5252 H 511.461 2.10582 -3.12946 0
M  V30 5253 H 513.848 2.03152 -2.1404 0
M  V30 5254 H 513.929 0.309542 -2.5392 0
M  V30 5255 H 513.573 0.88583 -5.00115 0
M  V30 5256 H 513.503 2.6134 -4.57175 0
M  V30 5257 H 515.994 1.51434 -3.46232 0
M  V30 5258 H 516.307 2.51376 -7.30774 0
M  V30 5259 H 514.652 2.26726 -6.56978 0
M  V30 5260 H 517.843 1.79829 -4.32179 0
M  V30 5261 H 518.016 2.25425 -6.07526 0
M  V30 5262 N 511.423 1.38739 0.74761 0
M  V30 5263 C 512.669 1.3648 1.50814 0
M  V30 5264 C 513.024 -0.0431982 1.92351 0
M  V30 5265 O 512.317 -1.0071 1.62997 0
M  V30 5266 C 512.511 2.25992 2.7688 0
M  V30 5267 C 512.34 3.75354 2.47668 0
M  V30 5268 C 511.11 4.44348 2.40589 0
M  V30 5269 C 513.308 4.67642 2.14046 0
M  V30 5270 N 511.29 5.79114 2.03715 0
M  V30 5271 C 512.661 5.90965 1.87512 0
M  V30 5272 C 514.716 4.55787 2.00407 0
M  V30 5273 C 513.419 7.03759 1.48714 0
M  V30 5274 C 515.445 5.68491 1.63011 0
M  V30 5275 C 514.807 6.90879 1.37353 0
M  V30 5276 H 510.906 0.554695 0.551214 0
M  V30 5277 H 513.49 1.7418 0.870033 0
M  V30 5278 H 511.661 1.9047 3.3849 0
M  V30 5279 H 513.393 2.14815 3.42982 0
M  V30 5280 H 510.148 3.97634 2.57262 0
M  V30 5281 H 510.572 6.504 1.87906 0
M  V30 5282 H 515.214 3.61712 2.18916 0
M  V30 5283 H 512.932 7.97746 1.28945 0
M  V30 5284 H 516.518 5.613 1.53081 0
M  V30 5285 H 515.398 7.76609 1.08848 0
M  V30 5286 N 512.901 -0.976442 1.23707 0
M  V30 5287 C 513.833 -2.07212 0.979574 0
M  V30 5288 C 514.846 -1.6273 -0.0478528 0
M  V30 5289 O 516.035 -1.77506 0.18815 0
M  V30 5290 C 513.135 -3.35835 0.45479 0
M  V30 5291 C 512.308 -4.09268 1.54331 0
M  V30 5292 C 511.367 -5.16166 1.02271 0
M  V30 5293 O 510.393 -5.42827 1.71254 0
M  V30 5294 N 511.595 -5.80313 -0.147419 0
M  V30 5295 H 514.36 -2.29878 1.92292 0
M  V30 5296 H 511.921 -1.14343 1.14618 0
M  V30 5297 H 513.913 -4.04597 0.0914631 0
M  V30 5298 H 512.483 -3.10106 -0.394068 0
M  V30 5299 H 511.703 -3.34906 2.07923 0
M  V30 5300 H 512.991 -4.55095 2.27522 0
M  V30 5301 H 512.389 -5.61043 -0.724353 0
M  V30 5302 H 510.946 -6.50231 -0.451972 0
M  V30 5303 N 514.379 -1.04941 -1.1758 0
M  V30 5304 C 515.311 -0.606174 -2.21039 0
M  V30 5305 C 516.324 0.328763 -1.59446 0
M  V30 5306 O 517.513 0.121895 -1.78083 0
M  V30 5307 C 514.613 0.133294 -3.38638 0
M  V30 5308 C 513.786 -0.811711 -4.29802 0
M  V30 5309 C 512.845 -0.113958 -5.26077 0
M  V30 5310 O 511.871 -0.747237 -5.64274 0
M  V30 5311 N 513.073 1.14953 -5.69004 0
M  V30 5312 H 515.838 -1.49606 -2.59689 0
M  V30 5313 H 513.399 -0.930997 -1.32454 0
M  V30 5314 H 515.391 0.610144 -4.00074 0
M  V30 5315 H 513.961 0.924816 -2.98607 0
M  V30 5316 H 513.181 -1.46824 -3.65837 0
M  V30 5317 H 514.469 -1.45326 -4.87604 0
M  V30 5318 H 513.867 1.68441 -5.40041 0
M  V30 5319 H 512.424 1.57049 -6.32597 0
M  V30 5320 N 515.857 1.33968 -0.830081 0
M  V30 5321 C 517.105 1.97672 -0.420734 0
M  V30 5322 C 517.426 1.66111 1.02138 0
M  V30 5323 O 516.696 0.955503 1.71017 0
M  V30 5324 H 515.276 0.73125 -0.152587 0
M  V30 5325 H 517.938 1.63483 -1.0611 0
M  V30 5326 H 517.034 3.07294 -0.545588 0
M  V30 5327 N 517.335 0.585699 1.46312 0
M  V30 5328 C 518.283 -0.158577 2.32059 0
M  V30 5329 C 519.277 -0.881427 1.44662 0
M  V30 5330 O 520.483 -0.799476 1.61271 0
M  V30 5331 H 516.858 -0.0700066 0.748734 0
M  V30 5332 H 518.829 0.583383 2.92642 0
M  V30 5333 C 517.578 -1.15701 3.27885 0
M  V30 5334 H 516.901 -0.610215 3.95116 0
M  V30 5335 H 518.341 -1.64812 3.90657 0
M  V30 5336 C 516.8 -2.21951 2.53455 0
M  V30 5337 O 517.33 -3.29352 2.29978 0
M  V30 5338 N 515.536 -1.9664 2.13965 0
M  V30 5339 H 515.083 -1.09309 2.33258 0
M  V30 5340 H 515.041 -2.6794 1.64485 0
M  V30 5341 N 518.813 -1.54241 0.323641 0
M  V30 5342 C 520.062 -1.9975 -0.279806 0
M  V30 5343 C 520.375 -1.2156 -1.5324 0
M  V30 5344 O 521.581 -1.57447 -2.21185 0
M  V30 5345 C 520.037 -3.55686 -0.549115 0
M  V30 5346 C 519.645 -4.4271 0.686432 0
M  V30 5347 C 521.389 -4.09663 -1.11251 0
M  V30 5348 C 519.296 -5.90119 0.389022 0
M  V30 5349 H 518.226 -0.746177 -0.10833 0
M  V30 5350 H 520.877 -1.78248 0.435877 0
M  V30 5351 H 519.259 -3.73176 -1.32499 0
M  V30 5352 H 520.433 -4.36996 1.46188 0
M  V30 5353 H 518.748 -3.99623 1.17005 0
M  V30 5354 H 521.345 -5.17386 -1.34965 0
M  V30 5355 H 521.688 -3.61651 -2.06191 0
M  V30 5356 H 522.221 -3.95806 -0.39782 0
M  V30 5357 H 518.96 -6.42326 1.30759 0
M  V30 5358 H 518.48 -5.98785 -0.348722 0
M  V30 5359 H 520.159 -6.47 -0.0011164 0
M  V30 5360 N 520.291 -0.0518155 -1.57515 0
M  V30 5361 C 521.538 0.621823 -1.92716 0
M  V30 5362 C 521.866 1.70813 -0.930229 0
M  V30 5363 O 521.121 1.95616 0.0573708 0
M  V30 5364 C 521.42 1.25607 -3.34601 0
M  V30 5365 C 521.086 0.297901 -4.49915 0
M  V30 5366 C 519.748 0.034243 -4.81188 0
M  V30 5367 C 522.1 -0.358738 -5.19964 0
M  V30 5368 C 519.428 -0.893479 -5.79857 0
M  V30 5369 C 521.78 -1.27466 -6.19625 0
M  V30 5370 C 520.444 -1.54698 -6.49326 0
M  V30 5371 H 519.714 0.227541 -0.705199 0
M  V30 5372 H 522.361 -0.118432 -1.91133 0
M  V30 5373 H 520.666 2.07161 -3.32553 0
M  V30 5374 H 522.363 1.78424 -3.59118 0
M  V30 5375 H 518.953 0.513581 -4.25512 0
M  V30 5376 H 523.137 -0.168133 -4.96015 0
M  V30 5377 H 518.393 -1.11193 -6.01204 0
M  V30 5378 H 522.567 -1.78953 -6.73015 0
M  V30 5379 H 520.194 -2.26748 -7.25596 0
M  V30 5380 N 521.769 1.56035 0.221574 0
M  V30 5381 C 522.994 1.83476 0.967026 0
M  V30 5382 C 523.419 0.632139 1.7716 0
M  V30 5383 O 522.777 -0.419082 1.7639 0
M  V30 5384 C 522.825 3.08907 1.86034 0
M  V30 5385 O 521.929 2.876 2.95567 0
M  V30 5386 H 521.27 0.604913 0.273817 0
M  V30 5387 H 523.8 2.03247 0.234893 0
M  V30 5388 H 523.81 3.3901 2.27016 0
M  V30 5389 H 522.485 3.96068 1.26898 0
M  V30 5390 H 521.062 2.6873 2.58532 0
M  V30 5391 N 523.247 -0.488276 1.49845 0
M  V30 5392 C 524.487 -1.2516 1.61599 0
M  V30 5393 C 524.851 -1.89615 0.301706 0
M  V30 5394 O 526.052 -2.67182 0.29453 0
M  V30 5395 C 524.323 -2.2805 2.75187 0
M  V30 5396 S 525.882 -3.13552 3.0697 0
M  V30 5397 H 522.7 -0.425178 0.569864 0
M  V30 5398 H 525.302 -0.551545 1.87559 0
M  V30 5399 H 524.006 -1.7925 3.69185 0
M  V30 5400 H 523.537 -3.02708 2.5126 0
M  V30 5401 H 525.552 -4.28927 2.49471 0
M  V30 5402 N 524.725 -1.39134 -0.740242 0
M  V30 5403 C 525.95 -1.39518 -1.53459 0
M  V30 5404 C 526.375 0.00968883 -1.88098 0
M  V30 5405 O 525.733 0.995312 -1.51536 0
M  V30 5406 C 525.781 -2.26981 -2.802 0
M  V30 5407 O 524.885 -1.69609 -3.75908 0
M  V30 5408 H 524.226 -0.475328 -0.463637 0
M  V30 5409 H 526.756 -1.83064 -0.913717 0
M  V30 5410 H 526.766 -2.41309 -3.28989 0
M  V30 5411 H 525.441 -3.29081 -2.5432 0
M  V30 5412 H 524.018 -1.64495 -3.34658 0
M  V30 5413 N 526.204 0.969867 -1.24223 0
M  V30 5414 C 527.45 1.7151 -1.08223 0
M  V30 5415 C 527.783 1.90478 0.37838 0
M  V30 5416 O 527.058 1.4647 1.27971 0
M  V30 5417 C 527.341 3.10714 -1.82013 0
M  V30 5418 C 527.194 2.9925 -3.35811 0
M  V30 5419 C 528.513 4.10332 -1.59108 0
M  V30 5420 H 525.632 0.622499 -0.394543 0
M  V30 5421 H 528.274 1.1284 -1.52863 0
M  V30 5422 H 526.424 3.608 -1.44068 0
M  V30 5423 H 528.096 2.56608 -3.83341 0
M  V30 5424 H 526.339 2.35512 -3.64303 0
M  V30 5425 H 527.01 3.97857 -3.82641 0
M  V30 5426 H 529.486 3.69097 -1.92111 0
M  V30 5427 H 528.362 5.05804 -2.13198 0
M  V30 5428 H 528.623 4.38926 -0.528832 0
M  V30 5429 N 527.682 1.05563 1.17022 0
M  V30 5430 C 528.615 0.604197 2.20056 0
M  V30 5431 C 529.593 -0.369169 1.58354 0
M  V30 5432 O 530.777 -0.279898 1.8641 0
M  V30 5433 C 527.904 -0.115265 3.38504 0
M  V30 5434 C 526.95 0.813698 4.18666 0
M  V30 5435 S 527.783 2.30492 4.83357 0
M  V30 5436 C 528.939 1.59674 6.0519 0
M  V30 5437 H 529.172 1.47713 2.58008 0
M  V30 5438 H 526.705 0.867932 1.27696 0
M  V30 5439 H 528.663 -0.524162 4.0714 0
M  V30 5440 H 527.324 -0.964284 2.98932 0
M  V30 5441 H 526.517 0.256736 5.03346 0
M  V30 5442 H 526.119 1.16213 3.55486 0
M  V30 5443 H 528.411 0.898164 6.7152 0
M  V30 5444 H 529.354 2.42115 6.65422 0
M  V30 5445 H 529.762 1.08252 5.54023 0
M  V30 5446 N 529.16 -1.33526 0.837174 0
M  V30 5447 C 530.11 -2.2672 0.241269 0
M  V30 5448 C 531.094 -1.49183 -0.602756 0
M  V30 5449 O 532.286 -1.71052 -0.455002 0
M  V30 5450 C 529.415 -3.38294 -0.584125 0
M  V30 5451 C 528.501 -4.23231 0.271315 0
M  V30 5452 N 528.892 -4.87473 1.34922 0
M  V30 5453 C 527.19 -4.45962 0.0580589 0
M  V30 5454 C 527.891 -5.50685 1.87405 0
M  V30 5455 N 526.867 -5.30732 1.17578 0
M  V30 5456 H 530.669 -2.73903 1.06558 0
M  V30 5457 H 528.183 -1.47411 0.68145 0
M  V30 5458 H 530.18 -4.04044 -1.02731 0
M  V30 5459 H 528.84 -2.9266 -1.40643 0
M  V30 5460 H 529.851 -4.88077 1.7321 0
M  V30 5461 H 526.528 -4.11052 -0.730938 0
M  V30 5462 H 527.918 -6.11845 2.77661 0
M  V30 5463 N 530.638 -0.59345 -1.46 0
M  V30 5464 C 531.548 0.135817 -2.34207 0
M  V30 5465 C 532.564 0.875008 -1.50398 0
M  V30 5466 O 533.74 0.835778 -1.83239 0
M  V30 5467 C 530.805 1.12977 -3.27776 0
M  V30 5468 C 529.866 0.394081 -4.27487 0
M  V30 5469 C 529.099 1.34068 -5.16586 0
M  V30 5470 O 529.322 2.5778 -5.08828 0
M  V30 5471 O 528.256 0.845426 -5.95933 0
M  V30 5472 H 532.082 -0.588691 -2.9794 0
M  V30 5473 H 529.667 -0.353784 -1.45151 0
M  V30 5474 H 531.549 1.70261 -3.85473 0
M  V30 5475 H 530.224 1.83556 -2.66625 0
M  V30 5476 H 529.131 -0.220869 -3.73447 0
M  V30 5477 H 530.464 -0.270939 -4.91454 0
M  V30 5478 N 532.116 1.54067 -0.331816 0
M  V30 5479 C 533.079 2.23275 0.517768 0
M  V30 5480 C 534.079 1.22897 1.03697 0
M  V30 5481 O 535.269 1.47419 0.928084 0
M  V30 5482 C 532.401 2.94326 1.72004 0
M  V30 5483 H 533.594 2.99773 -0.0873507 0
M  V30 5484 H 531.147 1.56079 -0.0830042 0
M  V30 5485 H 531.882 2.21986 2.36417 0
M  V30 5486 H 531.667 3.67941 1.35507 0
M  V30 5487 H 533.157 3.47031 2.32291 0
M  V30 5488 N 533.594 0.0601682 1.57485 0
M  V30 5489 C 534.524 -0.90889 2.15085 0
M  V30 5490 C 535.505 -1.31838 1.07484 0
M  V30 5491 O 536.69 -1.3915 1.35466 0
M  V30 5492 C 533.82 -2.18059 2.7031 0
M  V30 5493 C 532.774 -1.91088 3.82974 0
M  V30 5494 C 532.1 -3.24789 4.24754 0
M  V30 5495 C 533.4 -1.22535 5.07723 0
M  V30 5496 H 535.094 -0.429093 2.96309 0
M  V30 5497 H 532.64 -0.204952 1.42534 0
M  V30 5498 H 534.593 -2.86258 3.09248 0
M  V30 5499 H 533.317 -2.6826 1.8629 0
M  V30 5500 H 531.976 -1.25297 3.44523 0
M  V30 5501 H 531.624 -3.72809 3.37672 0
M  V30 5502 H 531.324 -3.07538 5.00694 0
M  V30 5503 H 532.848 -3.94205 4.66299 0
M  V30 5504 H 534.262 -1.80783 5.4405 0
M  V30 5505 H 532.659 -1.1558 5.88864 0
M  V30 5506 H 533.729 -0.202692 4.84476 0
M  V30 5507 N 535.072 -1.5615 -0.213296 0
M  V30 5508 C 536.022 -1.89485 -1.26804 0
M  V30 5509 C 537.006 -0.758713 -1.41889 0
M  V30 5510 O 538.198 -1.02127 -1.44565 0
M  V30 5511 C 535.327 -2.22219 -2.61675 0
M  V30 5512 C 534.413 -3.42245 -2.50458 0
M  V30 5513 N 534.804 -4.60645 -2.089 0
M  V30 5514 C 533.102 -3.46023 -2.81397 0
M  V30 5515 C 533.803 -5.42805 -2.09135 0
M  V30 5516 N 532.779 -4.82732 -2.49941 0
M  V30 5517 H 536.581 -2.78537 -0.937771 0
M  V30 5518 H 534.095 -1.56826 -0.421824 0
M  V30 5519 H 536.092 -2.44278 -3.37837 0
M  V30 5520 H 534.752 -1.34484 -2.95541 0
M  V30 5521 H 535.763 -4.85651 -1.79899 0
M  V30 5522 H 532.44 -2.68654 -3.1958 0
M  V30 5523 H 533.83 -6.47601 -1.79059 0
M  V30 5524 N 536.55 0.480323 -1.50102 0
M  V30 5525 C 537.498 1.60024 -1.68805 0
M  V30 5526 C 538.492 1.60089 -0.553888 0
M  V30 5527 O 539.698 1.64349 -0.734127 0
M  V30 5528 H 536.073 0.530841 -0.532646 0
M  V30 5529 H 538.044 1.41408 -2.62767 0
M  V30 5530 C 536.793 2.98029 -1.79092 0
M  V30 5531 H 536.116 2.98694 -2.65748 0
M  V30 5532 H 537.556 3.75871 -1.96206 0
M  V30 5533 C 536.015 3.32538 -0.540388 0
M  V30 5534 O 536.545 4.00386 0.324637 0
M  V30 5535 N 534.751 2.87873 -0.397154 0
M  V30 5536 H 534.298 2.32834 -1.1021 0
M  V30 5537 H 534.256 3.11328 0.438425 0
M  V30 5538 N 538.028 1.39524 0.732853 0
M  V30 5539 C 539.444 1.21176 1.03868 0
M  V30 5540 C 539.644 0.0748448 2.01361 0
M  V30 5541 O 538.7 -0.57281 2.45917 0
M  V30 5542 C 540.013 2.54667 1.59892 0
M  V30 5543 C 541.561 2.6153 1.71962 0
M  V30 5544 C 542.036 3.95248 2.31394 0
M  V30 5545 N 543.527 3.96899 2.38801 0
M  V30 5546 C 544.262 4.97138 2.85729 0
M  V30 5547 N 543.758 6.07775 3.32537 0
M  V30 5548 N 545.551 4.84516 2.84957 0
M  V30 5549 H 537.702 2.12225 0.086304 0
M  V30 5550 H 539.965 0.942614 0.100907 0
M  V30 5551 H 539.671 3.38423 0.95721 0
M  V30 5552 H 539.545 2.74538 2.58668 0
M  V30 5553 H 541.932 1.78156 2.35254 0
M  V30 5554 H 542.013 2.45507 0.718327 0
M  V30 5555 H 541.657 4.79054 1.68729 0
M  V30 5556 H 541.587 4.08593 3.32204 0
M  V30 5557 H 544.078 3.16998 2.05719 0
M  V30 5558 H 544.391 6.8017 3.66862 0
M  V30 5559 H 542.736 6.11366 3.30541 0
M  V30 5560 H 545.927 3.97185 2.47713 0
M  V30 5561 H 546.1 5.62783 3.21215 0
M  V30 5562 N 539.506 -0.963266 1.24736 0
M  V30 5563 C 540.753 -1.7068 1.0897 0
M  V30 5564 C 541.081 -1.90934 -0.370751 0
M  V30 5565 O 540.336 -1.47155 -1.29011 0
M  V30 5566 C 540.635 -3.09944 1.7796 0
M  V30 5567 C 540.301 -3.09518 3.27887 0
M  V30 5568 C 538.963 -3.09109 3.68789 0
M  V30 5569 C 541.315 -3.03509 4.23712 0
M  V30 5570 C 538.643 -3.00429 5.03944 0
M  V30 5571 C 540.995 -2.96371 5.5888 0
M  V30 5572 C 539.659 -2.94293 5.99123 0
M  V30 5573 H 538.929 -0.624564 0.398749 0
M  V30 5574 H 541.576 -1.12603 1.54896 0
M  V30 5575 H 539.881 -3.71513 1.2444 0
M  V30 5576 H 541.578 -3.66278 1.63222 0
M  V30 5577 H 538.168 -3.10603 2.95337 0
M  V30 5578 H 542.352 -3.0295 3.93109 0
M  V30 5579 H 537.608 -2.97183 5.34314 0
M  V30 5580 H 541.782 -2.90681 6.32833 0
M  V30 5581 H 539.409 -2.87322 7.03811 0
M  V30 5582 N 540.985 -1.06182 -1.16461 0
M  V30 5583 C 542.213 -0.798583 -1.90867 0
M  V30 5584 C 542.628 0.646921 -1.77371 0
M  V30 5585 O 541.985 1.44279 -1.11758 0
M  V30 5586 C 542.036 -1.18258 -3.4161 0
M  V30 5587 O 541.757 -2.57135 -3.54701 0
M  V30 5588 C 543.258 -0.946917 -4.33069 0
M  V30 5589 H 540.478 -0.289603 -0.605286 0
M  V30 5590 H 543.022 -1.41515 -1.47627 0
M  V30 5591 H 541.177 -0.610562 -3.82558 0
M  V30 5592 H 541.591 -2.72477 -4.4817 0
M  V30 5593 H 543.065 -1.26523 -5.37304 0
M  V30 5594 H 543.542 0.117406 -4.39043 0
M  V30 5595 H 544.148 -1.50326 -3.97847 0
M  V30 5596 N 542.463 1.3308 -0.844243 0
M  V30 5597 C 543.395 2.27954 -0.238671 0
M  V30 5598 C 544.408 1.51978 0.583665 0
M  V30 5599 O 545.597 1.73731 0.409857 0
M  V30 5600 C 542.697 3.31963 0.682185 0
M  V30 5601 C 541.87 4.37281 -0.101998 0
M  V30 5602 C 540.929 5.20928 0.743022 0
M  V30 5603 O 539.955 5.68914 0.180285 0
M  V30 5604 N 541.157 5.42738 2.0595 0
M  V30 5605 H 543.922 2.8056 -1.05386 0
M  V30 5606 H 541.483 1.4583 -0.70322 0
M  V30 5607 H 543.475 3.84828 1.25259 0
M  V30 5608 H 542.045 2.79594 1.39808 0
M  V30 5609 H 541.265 3.84843 -0.853802 0
M  V30 5610 H 542.553 5.04746 -0.641015 0
M  V30 5611 H 541.951 5.05463 2.54016 0
M  V30 5612 H 540.508 5.98639 2.57827 0
M  V30 5613 N 543.941 0.601185 1.45683 0
M  V30 5614 C 544.888 -0.121396 2.30481 0
M  V30 5615 C 545.858 -0.866232 1.41724 0
M  V30 5616 O 547.043 -0.85324 1.70659 0
M  V30 5617 C 544.183 -1.11704 3.26521 0
M  V30 5618 C 543.296 -0.373741 4.3038 0
M  V30 5619 C 542.431 -1.35854 5.13534 0
M  V30 5620 C 541.47 -0.602689 6.09126 0
M  V30 5621 N 540.607 -1.53645 6.85082 0
M  V30 5622 H 545.447 0.607732 2.91737 0
M  V30 5623 H 542.984 0.311502 1.43764 0
M  V30 5624 H 544.942 -1.70735 3.80664 0
M  V30 5625 H 543.572 -1.81366 2.67032 0
M  V30 5626 H 542.624 0.331962 3.78949 0
M  V30 5627 H 543.936 0.2163 4.98331 0
M  V30 5628 H 543.09 -2.02111 5.72046 0
M  V30 5629 H 541.829 -1.98251 4.45587 0
M  V30 5630 H 540.834 0.0735482 5.49751 0
M  V30 5631 H 542.059 0.0161467 6.79098 0
M  V30 5632 H 540.005 -2.14819 6.1983 0
M  V30 5633 H 539.922 -0.999688 7.49361 0
M  V30 5634 H 541.19 -2.1888 7.48139 0
M  V30 5635 N 545.419 -1.53889 0.339982 0
M  V30 5636 C 546.644 -2.05741 -0.261798 0
M  V30 5637 C 547.069 -1.21354 -1.43718 0
M  V30 5638 O 546.427 -0.22645 -1.7988 0
M  V30 5639 C 546.475 -3.54542 -0.658228 0
M  V30 5640 O 545.579 -3.7302 -1.75869 0
M  V30 5641 H 544.92 -0.662529 -0.0441672 0
M  V30 5642 H 547.45 -1.98568 0.493161 0
M  V30 5643 H 547.46 -3.9711 -0.936368 0
M  V30 5644 H 546.135 -4.15412 0.201358 0
M  V30 5645 H 544.712 -3.42355 -1.47809 0
M  V30 5646 N 546.897 -0.0685191 -1.57451 0
M  V30 5647 C 547.827 0.89747 -2.15564 0
M  V30 5648 C 548.808 1.31266 -1.08181 0
M  V30 5649 O 549.993 1.38429 -1.36202 0
M  V30 5650 C 547.123 2.16623 -2.71463 0
M  V30 5651 C 546.077 1.89054 -3.83982 0
M  V30 5652 C 545.403 3.22532 -4.26471 0
M  V30 5653 C 546.703 1.1984 -5.08366 0
M  V30 5654 H 548.397 0.413373 -2.96533 0
M  V30 5655 H 545.943 0.197391 -1.42641 0
M  V30 5656 H 547.896 2.84614 -3.10761 0
M  V30 5657 H 546.62 2.67269 -1.8771 0
M  V30 5658 H 545.279 1.23469 -3.45183 0
M  V30 5659 H 544.927 3.71013 -3.39644 0
M  V30 5660 H 544.627 3.04879 -5.02317 0
M  V30 5661 H 546.151 3.91727 -4.68383 0
M  V30 5662 H 547.565 1.77896 -5.45001 0
M  V30 5663 H 545.962 1.12456 -5.89469 0
M  V30 5664 H 547.032 0.176996 -4.84577 0
M  V30 5665 N 548.375 1.56261 0.205012 0
M  V30 5666 C 549.6 1.84491 0.947512 0
M  V30 5667 C 550.025 0.650894 1.76479 0
M  V30 5668 O 549.383 -0.40035 1.76824 0
M  V30 5669 C 549.431 3.10863 1.82747 0
M  V30 5670 O 548.535 2.90719 2.925 0
M  V30 5671 H 547.876 0.607783 0.267386 0
M  V30 5672 H 550.406 2.03485 0.213323 0
M  V30 5673 H 550.416 3.41399 2.23407 0
M  V30 5674 H 549.091 3.97392 1.2269 0
M  V30 5675 H 547.668 2.71457 2.55667 0
M  V30 5676 N 549.853 -0.472356 1.50355 0
M  V30 5677 C 550.783 -1.57859 1.72055 0
M  V30 5678 C 551.764 -1.60283 0.569505 0
M  V30 5679 O 552.949 -1.7657 0.808503 0
M  V30 5680 C 550.079 -2.96191 1.81351 0
M  V30 5681 C 549.033 -3.08633 2.96529 0
M  V30 5682 C 548.359 -4.486 2.90968 0
M  V30 5683 C 549.659 -2.85969 4.37057 0
M  V30 5684 H 551.353 -1.39953 2.64676 0
M  V30 5685 H 548.899 -0.671846 1.27367 0
M  V30 5686 H 550.852 -3.73507 1.95117 0
M  V30 5687 H 549.576 -3.15251 0.853502 0
M  V30 5688 H 548.235 -2.33749 2.82413 0
M  V30 5689 H 547.883 -4.64577 1.92815 0
M  V30 5690 H 547.583 -4.57861 3.68289 0
M  V30 5691 H 549.107 -5.27938 3.0678 0
M  V30 5692 H 550.521 -3.53036 4.51706 0
M  V30 5693 H 548.918 -3.06677 5.15819 0
M  V30 5694 H 549.988 -1.81838 4.49514 0
M  V30 5695 N 551.331 -1.39911 -0.725443 0
M  V30 5696 C 552.556 -1.41137 -1.5197 0
M  V30 5697 C 552.981 -0.010262 -1.88097 0
M  V30 5698 O 552.339 0.979184 -1.52583 0
M  V30 5699 C 552.387 -2.2994 -2.77777 0
M  V30 5700 O 551.491 -1.73586 -3.74088 0
M  V30 5701 H 550.832 -0.480219 -0.458569 0
M  V30 5702 H 553.362 -1.84023 -0.894249 0
M  V30 5703 H 553.372 -2.44785 -3.26411 0
M  V30 5704 H 552.047 -3.31759 -2.50816 0
M  V30 5705 H 550.624 -1.68035 -3.32894 0
M  V30 5706 N 552.809 0.956637 -1.25245 0
M  V30 5707 C 554.22 1.51569 -1.09012 0
M  V30 5708 C 554.571 1.93322 0.334813 0
M  V30 5709 O 553.696 1.78421 1.22454 0
M  V30 5710 C 554.291 2.75444 -1.97271 0
M  V30 5711 C 552.85 3.27669 -1.8523 0
M  V30 5712 C 551.997 2.00517 -1.91542 0
M  V30 5713 H 554.948 0.773746 -1.3856 0
M  V30 5714 H 554.969 3.4919 -1.51151 0
M  V30 5715 H 554.481 2.45024 -3.00973 0
M  V30 5716 H 552.582 3.62914 -0.844045 0
M  V30 5717 H 552.695 3.9582 -2.69932 0
M  V30 5718 H 551.059 2.15727 -1.35404 0
M  V30 5719 H 551.842 1.72448 -2.96844 0
M  V30 5720 N 554.287 1.06798 1.15896 0
M  V30 5721 C 555.535 0.786211 1.8618 0
M  V30 5722 C 555.856 -0.689547 1.82401 0
M  V30 5723 O 555.126 -1.49913 1.26107 0
M  V30 5724 H 553.706 0.287843 0.689315 0
M  V30 5725 H 556.368 1.35055 1.40521 0
M  V30 5726 H 555.464 1.1157 2.91477 0
M  V30 5727 N 555.766 -1.3263 0.851289 0
M  V30 5728 C 556.713 -2.28952 0.291469 0
M  V30 5729 C 557.683 -1.54897 -0.599676 0
M  V30 5730 O 558.868 -1.83137 -0.535305 0
M  V30 5731 C 556.008 -3.41206 -0.516992 0
M  V30 5732 C 555.121 -4.30148 0.399566 0
M  V30 5733 C 554.256 -5.29527 -0.4212 0
M  V30 5734 C 553.295 -6.10112 0.492969 0
M  V30 5735 N 552.432 -7.01499 -0.290414 0
M  V30 5736 H 557.272 -2.76228 1.11813 0
M  V30 5737 H 554.809 -1.35907 0.562826 0
M  V30 5738 H 556.767 -4.05005 -1.00132 0
M  V30 5739 H 555.397 -2.9509 -1.30851 0
M  V30 5740 H 554.449 -3.66959 1.00227 0
M  V30 5741 H 555.761 -4.8649 1.1013 0
M  V30 5742 H 554.915 -5.98914 -0.968832 0
M  V30 5743 H 553.654 -4.73794 -1.15632 0
M  V30 5744 H 552.659 -5.39632 1.05251 0
M  V30 5745 H 553.884 -6.6793 1.22664 0
M  V30 5746 H 551.83 -6.48199 -1.00868 0
M  V30 5747 H 551.747 -7.55178 0.352354 0
M  V30 5748 H 553.015 -7.75176 -0.819882 0
M  V30 5749 O 557.283 -0.749239 -1.43069 0
M  V30 5750 H 557.974 -0.305579 -1.91274 0
M  V30 END ATOM
M  V30 BEGIN BOND
M  V30 END BOND
M  V30 END CTAB
M  END
$$$$
