drugbank_target|P01877 Ig alpha-2 chain C region (DB04676)
 OpenBabel12092120563D

  0  0  0     0  0            999 V3000
M  V30 BEGIN CTAB
M  V30 COUNTS 5071 5143 0 0 0
M  V30 BEGIN ATOM
M  V30 1 H -0.908 1.98254 -0.117106 0
M  V30 2 N 0 1.576 0 0
M  V30 3 C 0.963 2.07369 0.976253 0
M  V30 4 C 1.963 0.98309 1.27248 0
M  V30 5 O 3.153 1.24574 1.21766 0
M  V30 6 C 0.285 2.51514 2.30116 0
M  V30 7 H 1.478 2.94892 0.545759 0
M  V30 8 H -0.969 1.54328 0.247471 0
M  V30 9 H -0.234 1.67234 2.77855 0
M  V30 10 H -0.449 3.31163 2.09937 0
M  V30 11 H 1.041 2.90345 3.00149 0
M  V30 12 N 1.4781 -0.272755 1.55222 0
M  V30 13 C 2.7031 -1.02683 1.80197 0
M  V30 14 C 3.1281 -1.79142 0.573551 0
M  V30 15 O 2.4861 -1.74917 -0.476849 0
M  V30 16 C 2.5341 -1.9609 3.02624 0
M  V30 17 O 1.6381 -3.04863 2.77727 0
M  V30 18 H 0.9791 -0.293557 0.595584 0
M  V30 19 H 3.5091 -0.30159 2.02365 0
M  V30 20 H 3.5191 -2.38039 3.31363 0
M  V30 21 H 2.1941 -1.39851 3.91682 0
M  V30 22 H 0.7711 -2.67228 2.60084 0
M  V30 23 N 2.9562 -1.48159 -0.537278 0
M  V30 24 C 4.3672 -1.49429 -1.11928 0
M  V30 25 C 4.7182 -0.26 -1.9447 0
M  V30 26 O 3.8432 0.633489 -2.0692 0
M  V30 27 C 4.4382 -2.70758 -2.03656 0
M  V30 28 C 2.9972 -2.74923 -2.57088 0
M  V30 29 C 2.1442 -2.42835 -1.3389 0
M  V30 30 H 5.0952 -1.55381 -0.322886 0
M  V30 31 H 5.1162 -2.48861 -2.87834 0
M  V30 32 H 4.6282 -3.60575 -1.43553 0
M  V30 33 H 2.7292 -1.89296 -3.20933 0
M  V30 34 H 2.8422 -3.76157 -2.9672 0
M  V30 35 H 1.2062 -1.93836 -1.65226 0
M  V30 36 H 1.9892 -3.34884 -0.755504 0
M  V30 37 N 4.4343 0.785586 -1.36625 0
M  V30 38 C 5.6623 1.57448 -1.3423 0
M  V30 39 C 6.0773 1.88649 0.0755653 0
M  V30 40 O 5.4343 1.50414 1.03354 0
M  V30 41 C 5.4853 2.89316 -2.16745 0
M  V30 42 O 5.2063 2.59459 -3.53005 0
M  V30 43 C 6.7073 3.83606 -2.22174 0
M  V30 44 H 3.9273 0.488226 -0.4603 0
M  V30 45 H 6.4713 0.974733 -1.79775 0
M  V30 46 H 4.6263 3.4575 -1.74745 0
M  V30 47 H 5.0403 3.43804 -3.96105 0
M  V30 48 H 6.5143 4.73181 -2.8426 0
M  V30 49 H 6.9913 4.21734 -1.22627 0
M  V30 50 H 7.5973 3.33104 -2.64427 0
M  V30 51 N 5.9124 1.20967 1.01018 0
M  V30 52 C 7.1374 1.0503 1.78839 0
M  V30 53 C 7.5624 -0.395752 1.8389 0
M  V30 54 O 6.9204 -1.28529 1.27867 0
M  V30 55 C 6.9684 1.64602 3.2084 0
M  V30 56 O 6.0724 0.887988 4.02726 0
M  V30 57 H 5.4134 0.369987 0.551367 0
M  V30 58 H 7.9434 1.60399 1.27018 0
M  V30 59 H 7.9534 1.68607 3.71532 0
M  V30 60 H 6.6284 2.69841 3.16479 0
M  V30 61 H 5.2054 0.922648 3.61305 0
M  V30 62 N 7.3905 -1.2043 1.01659 0
M  V30 63 C 8.8015 -1.71517 0.737482 0
M  V30 64 C 9.1525 -1.81547 -0.743973 0
M  V30 65 O 8.2775 -1.47803 -1.58061 0
M  V30 66 C 8.8725 -3.11515 1.33206 0
M  V30 67 C 7.4315 -3.59912 1.10183 0
M  V30 68 C 6.5785 -2.37116 1.43776 0
M  V30 69 H 9.5295 -1.05444 1.18606 0
M  V30 70 H 9.5505 -3.73575 0.722636 0
M  V30 71 H 9.0625 -3.04182 2.41028 0
M  V30 72 H 7.1635 -3.72577 0.0412756 0
M  V30 73 H 7.2765 -4.44731 1.78188 0
M  V30 74 H 5.6405 -2.39857 0.856778 0
M  V30 75 H 6.4235 -2.32424 2.52654 0
M  V30 76 N 8.8686 -0.792821 -1.36206 0
M  V30 77 C 9.8156 -0.191653 -2.30003 0
M  V30 78 C 10.7856 0.666453 -1.52143 0
M  V30 79 O 11.9706 0.61442 -1.80636 0
M  V30 80 C 9.1106 0.664848 -3.38635 0
M  V30 81 C 8.2236 -0.212175 -4.31479 0
M  V30 82 C 7.3586 0.651022 -5.27196 0
M  V30 83 C 6.3976 -0.227247 -6.11678 0
M  V30 84 N 5.5346 0.595127 -6.99573 0
M  V30 85 H 10.3746 -0.996978 -2.80828 0
M  V30 86 H 7.9116 -0.503206 -1.38225 0
M  V30 87 H 9.8696 1.17645 -4.00269 0
M  V30 88 H 8.4996 1.43557 -2.89122 0
M  V30 89 H 7.5516 -0.841777 -3.70969 0
M  V30 90 H 8.8636 -0.888751 -4.90818 0
M  V30 91 H 8.0176 1.2283 -5.94136 0
M  V30 92 H 6.7566 1.36121 -4.68319 0
M  V30 93 H 5.7616 -0.816904 -5.43697 0
M  V30 94 H 6.9866 -0.93509 -6.72631 0
M  V30 95 H 4.9326 1.28955 -6.432 0
M  V30 96 H 4.8496 -0.0236952 -7.55996 0
M  V30 97 H 6.1176 1.15613 -7.70879 0
M  V30 98 N 10.3467 1.47872 -0.545128 0
M  V30 99 C 11.5927 2.02793 -0.0166104 0
M  V30 100 C 11.9257 1.41987 1.32489 0
M  V30 101 O 11.2007 0.571045 1.85928 0
M  V30 102 C 11.4837 3.59989 0.0893294 0
M  V30 103 C 11.3367 4.3125 -1.27841 0
M  V30 104 C 12.6557 4.32606 0.808724 0
M  V30 105 H 9.7747 0.736962 -0.00751035 0
M  V30 106 H 12.4167 1.76433 -0.705085 0
M  V30 107 H 10.5667 3.82579 0.675681 0
M  V30 108 H 12.2387 4.20035 -1.90704 0
M  V30 109 H 10.4817 3.92076 -1.85632 0
M  V30 110 H 11.1527 5.39736 -1.15713 0
M  V30 111 H 13.6287 4.14936 0.310992 0
M  V30 112 H 12.5047 5.42251 0.851782 0
M  V30 113 H 12.7657 4.00963 1.86229 0
M  V30 114 N 11.8248 0.280983 1.55075 0
M  V30 115 C 13.0718 -0.334115 1.99725 0
M  V30 116 C 13.3998 -1.5542 1.1694 0
M  V30 117 O 12.6548 -1.94361 0.228531 0
M  V30 118 C 12.9538 -0.754656 3.49342 0
M  V30 119 C 12.6198 0.361445 4.49449 0
M  V30 120 C 11.2818 0.667893 4.76542 0
M  V30 121 C 13.6338 1.11322 5.09173 0
M  V30 122 C 10.9618 1.7296 5.60626 0
M  V30 123 C 13.3138 2.1647 5.9441 0
M  V30 124 C 11.9778 2.47742 6.19822 0
M  V30 125 H 11.2478 -0.122261 0.730844 0
M  V30 126 H 13.8948 0.395917 1.87363 0
M  V30 127 H 12.1998 -1.56446 3.5921 0
M  V30 128 H 13.8968 -1.24142 3.813 0
M  V30 129 H 10.4868 0.112481 4.28452 0
M  V30 130 H 14.6708 0.88973 4.8826 0
M  V30 131 H 9.9268 1.97684 5.78559 0
M  V30 132 H 14.1008 2.75193 6.3972 0
M  V30 133 H 11.7278 3.30145 6.84769 0
M  V30 134 N 13.3029 -1.57598 0.00835791 0
M  V30 135 C 14.7139 -1.7892 -0.53333 0
M  V30 136 C 15.0649 -0.916609 -1.73473 0
M  V30 137 O 14.1899 -0.121336 -2.1606 0
M  V30 138 C 14.7849 -3.24488 -0.974313 0
M  V30 139 C 13.3439 -3.46878 -1.46125 0
M  V30 140 C 12.4909 -2.74157 -0.416302 0
M  V30 141 H 15.4419 -1.56958 0.234495 0
M  V30 142 H 15.4629 -3.3306 -1.83988 0
M  V30 143 H 14.9749 -3.87972 -0.099718 0
M  V30 144 H 13.0759 -2.8862 -2.35646 0
M  V30 145 H 13.1889 -4.55572 -1.48295 0
M  V30 146 H 11.5529 -2.39022 -0.87981 0
M  V30 147 H 12.3359 -3.40345 0.44947 0
M  V30 148 N 14.781 0.264519 -1.55364 0
M  V30 149 C 15.711 1.33121 -1.91836 0
M  V30 150 C 16.692 1.51101 -0.781192 0
M  V30 151 O 17.877 1.64003 -1.04003 0
M  V30 152 C 15.007 2.68921 -2.19769 0
M  V30 153 C 13.961 2.65661 -3.35571 0
M  V30 154 C 13.287 4.05093 -3.49004 0
M  V30 155 C 14.587 2.24187 -4.71739 0
M  V30 156 H 16.281 1.02844 -2.81182 0
M  V30 157 H 13.827 0.493286 -1.35287 0
M  V30 158 H 15.78 3.43663 -2.43872 0
M  V30 159 H 14.504 3.00799 -1.27231 0
M  V30 160 H 13.163 1.93377 -3.1145 0
M  V30 161 H 12.811 4.34206 -2.53917 0
M  V30 162 H 12.511 4.03804 -4.26868 0
M  V30 163 H 14.035 4.81561 -3.75408 0
M  V30 164 H 15.449 2.88654 -4.9533 0
M  V30 165 H 13.846 2.34044 -5.52579 0
M  V30 166 H 14.916 1.19327 -4.69988 0
M  V30 167 N 16.2591 1.48442 0.529413 0
M  V30 168 C 17.4841 1.60406 1.31471 0
M  V30 169 C 17.9091 0.264738 1.86228 0
M  V30 170 O 17.2671 -0.763668 1.64432 0
M  V30 171 C 17.3151 2.65419 2.44101 0
M  V30 172 O 16.4191 2.22618 3.47153 0
M  V30 173 H 15.7601 0.537863 0.389357 0
M  V30 174 H 18.2901 1.94432 0.636965 0
M  V30 175 H 18.3001 2.86709 2.90279 0
M  V30 176 H 16.9751 3.62652 2.03608 0
M  V30 177 H 15.5521 2.11543 3.0709 0
M  V30 178 N 17.7372 -0.778329 1.37039 0
M  V30 179 C 18.6672 -1.90546 1.34962 0
M  V30 180 C 19.6482 -1.68681 0.219274 0
M  V30 181 O 20.8332 -1.89634 0.418624 0
M  V30 182 C 17.9632 -3.27734 1.14925 0
M  V30 183 C 16.9172 -3.64147 2.24902 0
M  V30 184 C 16.2432 -4.99806 1.89996 0
M  V30 185 C 17.5432 -3.71579 3.67051 0
M  V30 186 H 19.2372 -1.92541 2.29277 0
M  V30 187 H 16.7832 -0.924948 1.10366 0
M  V30 188 H 18.7362 -4.06215 1.12104 0
M  V30 189 H 17.4602 -3.26154 0.170631 0
M  V30 190 H 16.1192 -2.8797 2.26868 0
M  V30 191 H 15.7672 -4.94759 0.906796 0
M  V30 192 H 15.4672 -5.25139 2.63634 0
M  V30 193 H 16.9912 -5.80694 1.88749 0
M  V30 194 H 18.4052 -4.40227 3.67251 0
M  V30 195 H 16.8022 -4.08405 4.39688 0
M  V30 196 H 17.8722 -2.72404 4.01154 0
M  V30 197 N 19.2153 -1.21501 -1.00376 0
M  V30 198 C 20.4923 -0.941745 -1.71437 0
M  V30 199 C 20.8723 0.546114 -2.03914 0
M  V30 200 O 20.2203 1.51128 -1.71384 0
M  V30 201 C 20.4303 -1.82812 -2.97289 0
M  V30 202 C 21.7783 -2.07771 -3.70292 0
M  V30 203 O 22.8023 -1.80171 -3.07273 0
M  V30 204 O 21.6613 -2.54456 -4.83647 0
M  V30 205 H 18.7553 -0.353243 -0.747762 0
M  V30 206 H 21.3013 -1.32436 -1.06108 0
M  V30 207 H 20.0733 -2.83501 -2.69709 0
M  V30 208 H 19.6963 -1.4464 -3.70358 0
M  V30 209 N 20.6934 1.19889 -1.02296 0
M  V30 210 C 21.9184 1.9393 -0.735237 0
M  V30 211 C 22.3434 1.74639 0.698782 0
M  V30 212 O 21.7014 1.04481 1.48167 0
M  V30 213 C 21.7494 3.43916 -1.08417 0
M  V30 214 O 20.8534 4.11917 -0.199446 0
M  V30 215 H 20.1944 0.605645 -0.272196 0
M  V30 216 H 22.7244 1.52137 -1.36804 0
M  V30 217 H 22.7344 3.9456 -1.03856 0
M  V30 218 H 21.4094 3.5728 -2.12894 0
M  V30 219 H 19.9864 3.71666 -0.303136 0
M  V30 220 N 22.1715 0.800033 1.35784 0
M  V30 221 C 23.3995 0.389606 2.03199 0
M  V30 222 C 23.8145 -0.997375 1.60306 0
M  V30 223 O 23.1715 -1.64154 0.797481 0
M  V30 224 C 23.2225 0.455855 3.58614 0
M  V30 225 O 22.9435 1.78815 3.99946 0
M  V30 226 C 24.4445 0.0374032 4.43284 0
M  V30 227 H 21.6645 0.159132 0.651857 0
M  V30 228 H 24.2085 1.08183 1.73541 0
M  V30 229 H 22.3635 -0.188057 3.86943 0
M  V30 230 H 22.7775 1.74636 4.94573 0
M  V30 231 H 24.2515 0.134882 5.51835 0
M  V30 232 H 24.7285 -1.01651 4.27275 0
M  V30 233 H 25.3345 0.654215 4.20238 0
M  V30 234 N 23.6496 -1.47581 0.552962 0
M  V30 235 C 25.0606 -1.86324 0.118463 0
M  V30 236 C 25.4116 -1.46006 -1.3106 0
M  V30 237 O 24.5366 -0.861182 -1.98526 0
M  V30 238 C 25.1316 -3.3816 0.20821 0
M  V30 239 C 23.6906 -3.7601 -0.171226 0
M  V30 240 C 22.8376 -2.71634 0.557686 0
M  V30 241 H 25.7886 -1.39159 0.762928 0
M  V30 242 H 25.8096 -3.76141 -0.574278 0
M  V30 243 H 25.3216 -3.67473 1.24841 0
M  V30 244 H 23.4226 -3.52313 -1.21269 0
M  V30 245 H 23.5356 -4.78745 0.184379 0
M  V30 246 H 21.8996 -2.547 0.00125792 0
M  V30 247 H 22.6826 -3.0379 1.59896 0
M  V30 248 N 25.1277 -0.289203 -1.54924 0
M  V30 249 C 26.0597 0.625583 -2.20497 0
M  V30 250 C 27.0727 1.10667 -1.19402 0
M  V30 251 O 28.2617 1.02615 -1.46056 0
M  V30 252 C 25.3617 1.86702 -2.82835 0
M  V30 253 C 24.5347 1.5304 -4.09753 0
M  V30 254 C 23.5937 2.62576 -4.56005 0
M  V30 255 O 22.6197 2.28167 -5.21468 0
M  V30 256 N 23.8217 3.92901 -4.27328 0
M  V30 257 H 26.5867 0.0642801 -2.99631 0
M  V30 258 H 24.1477 -0.110896 -1.6152 0
M  V30 259 H 26.1397 2.59304 -3.10715 0
M  V30 260 H 24.7097 2.33702 -2.07611 0
M  V30 261 H 23.9297 0.637564 -3.8901 0
M  V30 262 H 25.2177 1.28072 -4.92418 0
M  V30 263 H 24.6157 4.23671 -3.74859 0
M  V30 264 H 23.1727 4.61837 -4.59946 0
M  V30 265 N 26.6058 1.57591 -0.0167156 0
M  V30 266 C 27.8828 1.82547 0.702564 0
M  V30 267 C 28.2628 0.898018 1.91047 0
M  V30 268 O 27.6108 -0.0493456 2.28447 0
M  V30 269 C 27.8208 3.31459 1.09251 0
M  V30 270 C 29.1688 3.97622 1.48937 0
M  V30 271 O 30.1928 3.35881 1.18584 0
M  V30 272 O 29.0518 5.06415 2.05442 0
M  V30 273 H 26.1458 0.752268 0.343544 0
M  V30 274 H 28.6918 1.69644 -0.0434495 0
M  V30 275 H 27.4638 3.9061 0.23227 0
M  V30 276 H 27.0868 3.49422 1.89709 0
M  V30 277 N 28.0839 -0.256276 1.55502 0
M  V30 278 C 29.3319 -0.983672 1.76545 0
M  V30 279 C 29.6529 -1.86206 0.578982 0
M  V30 280 O 28.9229 -1.91656 -0.405577 0
M  V30 281 H 27.5029 -0.366191 0.651086 0
M  V30 282 H 30.1649 -0.276479 1.92929 0
M  V30 283 H 29.2609 -1.61087 2.67315 0
M  V30 284 N 29.562 -1.4872 -0.521534 0
M  V30 285 C 30.51 -1.64328 -1.64618 0
M  V30 286 C 31.504 -0.50953 -1.61555 0
M  V30 287 O 32.71 -0.688525 -1.66311 0
M  V30 288 H 29.085 -0.517805 -0.545328 0
M  V30 289 H 31.056 -2.58767 -1.48601 0
M  V30 290 C 29.805 -1.70805 -3.02855 0
M  V30 291 H 29.128 -2.5741 -3.05909 0
M  V30 292 H 30.568 -1.85766 -3.81139 0
M  V30 293 C 29.027 -0.448479 -3.33902 0
M  V30 294 O 29.557 0.434928 -3.99339 0
M  V30 295 N 27.763 -0.317616 -2.88859 0
M  V30 296 H 27.31 -1.03748 -2.35784 0
M  V30 297 H 27.268 0.524113 -3.10001 0
M  V30 298 N 31.0401 0.771051 -1.3745 0
M  V30 299 C 32.2861 1.5319 -1.32894 0
M  V30 300 C 32.6191 1.94008 0.0862511 0
M  V30 301 O 31.8941 1.64124 1.04373 0
M  V30 302 C 32.1771 2.79648 -2.26868 0
M  V30 303 C 32.0301 2.45079 -3.77169 0
M  V30 304 C 33.3491 3.81583 -2.19277 0
M  V30 305 H 30.4681 0.555744 -0.484064 0
M  V30 306 H 33.1101 0.884492 -1.68157 0
M  V30 307 H 31.2601 3.34891 -1.96926 0
M  V30 308 H 32.9321 1.95745 -4.1771 0
M  V30 309 H 31.1751 1.77767 -3.95704 0
M  V30 310 H 31.8461 3.35478 -4.38359 0
M  V30 311 H 34.3221 3.35835 -2.45671 0
M  V30 312 H 33.1981 4.67787 -2.87171 0
M  V30 313 H 33.4591 4.25897 -1.18592 0
M  V30 314 N 32.5182 1.22032 0.997298 0
M  V30 315 C 33.7642 1.04376 1.73878 0
M  V30 316 C 34.0972 -0.420716 1.89588 0
M  V30 317 O 33.3722 -1.31202 1.43583 0
M  V30 318 C 33.6552 1.75047 3.14691 0
M  V30 319 C 33.5082 3.29062 3.06656 0
M  V30 320 C 34.8272 1.49928 4.13775 0
M  V30 321 H 31.9462 0.380578 0.631133 0
M  V30 322 H 34.5882 1.50312 1.16217 0
M  V30 323 H 32.7382 1.35996 3.63919 0
M  V30 324 H 34.4102 3.7753 2.65083 0
M  V30 325 H 32.6532 3.58967 2.43568 0
M  V30 326 H 33.3242 3.73683 4.06282 0
M  V30 327 H 35.8002 1.83842 3.73285 0
M  V30 328 H 34.6762 2.01878 5.10428 0
M  V30 329 H 34.9372 0.430929 4.39995 0
M  V30 330 N 33.9963 -1.19345 1.0293 0
M  V30 331 C 35.2423 -1.89318 0.727083 0
M  V30 332 C 35.5753 -1.79446 -0.742483 0
M  V30 333 O 34.8503 -1.1871 -1.54072 0
M  V30 334 C 35.1333 -3.40238 1.17942 0
M  V30 335 C 34.9863 -3.58979 2.71024 0
M  V30 336 C 36.3053 -4.33479 0.760548 0
M  V30 337 H 33.4243 -0.687475 0.265606 0
M  V30 338 H 36.0663 -1.40477 1.2793 0
M  V30 339 H 34.2163 -3.81964 0.709608 0
M  V30 340 H 35.8883 -3.26421 3.25955 0
M  V30 341 H 34.1313 -3.02018 3.11396 0
M  V30 342 H 34.8023 -4.64823 2.9773 0
M  V30 343 H 37.2783 -3.99469 1.16464 0
M  V30 344 H 36.1543 -5.37664 1.10493 0
M  V30 345 H 36.4153 -4.40813 -0.337063 0
M  V30 346 N 35.4744 -0.807222 -1.35358 0
M  V30 347 C 36.4374 -0.223665 -2.28106 0
M  V30 348 C 37.4374 0.589354 -1.4961 0
M  V30 349 O 38.6274 0.407745 -1.69361 0
M  V30 350 C 35.7594 0.688149 -3.33882 0
M  V30 351 H 36.9524 -1.04169 -2.81227 0
M  V30 352 H 34.5054 -0.577921 -1.45223 0
M  V30 353 H 35.2404 1.52984 -2.85948 0
M  V30 354 H 35.0254 0.10687 -3.91954 0
M  V30 355 H 36.5154 1.09075 -4.03104 0
M  V30 356 N 36.9525 1.47285 -0.560781 0
M  V30 357 C 38.1925 2.0436 -0.0404627 0
M  V30 358 C 38.5565 1.42534 1.28639 0
M  V30 359 O 39.7575 1.90677 1.89462 0
M  V30 360 C 38.0285 3.57369 0.0471856 0
M  V30 361 S 39.5875 4.3579 0.513109 0
M  V30 362 H 36.4055 0.710492 -0.0268674 0
M  V30 363 H 39.0075 1.80611 -0.748323 0
M  V30 364 H 37.7115 3.9989 -0.922817 0
M  V30 365 H 37.2425 3.8562 0.778491 0
M  V30 366 H 39.2575 4.63476 1.77212 0
M  V30 367 N 38.4306 0.297415 1.54768 0
M  V30 368 C 39.3606 -0.573494 2.26348 0
M  V30 369 C 40.3416 -1.14085 1.26169 0
M  V30 370 O 41.5266 -1.17086 1.54934 0
M  V30 371 C 38.6566 -1.74716 3.00153 0
M  V30 372 C 37.6106 -1.31032 4.07449 0
M  V30 373 C 36.9366 -2.56887 4.68949 0
M  V30 374 C 38.2366 -0.444183 5.20408 0
M  V30 375 H 39.9306 0.0235131 2.99391 0
M  V30 376 H 37.4766 0.0127488 1.43994 0
M  V30 377 H 39.4296 -2.3625 3.48947 0
M  V30 378 H 38.1536 -2.37035 2.24682 0
M  V30 379 H 36.8126 -0.718066 3.59499 0
M  V30 380 H 36.4606 -3.17512 3.90122 0
M  V30 381 H 36.1606 -2.2836 5.41411 0
M  V30 382 H 37.6846 -3.19229 5.20505 0
M  V30 383 H 39.0986 -0.9651 5.65118 0
M  V30 384 H 37.4956 -0.252846 5.99567 0
M  V30 385 H 38.5656 0.531609 4.81977 0
M  V30 386 N 39.9087 -1.5758 0.0250728 0
M  V30 387 C 41.1547 -1.91917 -0.655413 0
M  V30 388 C 41.4877 -0.901433 -1.72011 0
M  V30 389 O 40.7627 0.0764069 -1.9435 0
M  V30 390 C 41.0457 -3.36751 -1.27558 0
M  V30 391 C 40.8987 -4.49258 -0.220719 0
M  V30 392 C 42.2177 -3.81469 -2.19475 0
M  V30 393 H 39.3367 -0.697925 -0.23679 0
M  V30 394 H 41.9787 -1.89825 0.0815036 0
M  V30 395 H 40.1287 -3.38664 -1.90365 0
M  V30 396 H 41.8007 -4.59478 0.409601 0
M  V30 397 H 40.0437 -4.31415 0.454264 0
M  V30 398 H 40.7147 -5.47618 -0.694175 0
M  V30 399 H 43.1907 -3.81266 -1.66659 0
M  V30 400 H 42.0667 -4.83512 -2.59822 0
M  V30 401 H 42.3277 -3.16744 -3.08424 0
M  V30 402 N 41.3868 0.248026 -1.55636 0
M  V30 403 C 42.3188 1.32993 -1.8667 0
M  V30 404 C 43.3318 1.44345 -0.752877 0
M  V30 405 O 44.5208 1.45715 -1.03098 0
M  V30 406 C 41.6208 2.70863 -2.03682 0
M  V30 407 C 40.7938 2.81792 -3.34532 0
M  V30 408 C 39.8528 4.005 -3.41301 0
M  V30 409 O 38.8788 3.9008 -4.14519 0
M  V30 410 N 40.0808 5.13618 -2.70512 0
M  V30 411 H 42.8458 1.06707 -2.8006 0
M  V30 412 H 40.4068 0.438129 -1.55859 0
M  V30 413 H 42.3988 3.48612 -2.05553 0
M  V30 414 H 40.9688 2.89862 -1.17041 0
M  V30 415 H 40.1888 1.90729 -3.44987 0
M  V30 416 H 41.4768 2.86043 -4.20781 0
M  V30 417 H 40.8748 5.24975 -2.10755 0
M  V30 418 H 39.4318 5.89505 -2.78077 0
M  V30 419 N 42.8649 1.48995 0.513639 0
M  V30 420 C 44.1129 1.57531 1.26604 0
M  V30 421 C 44.4339 0.258236 1.93283 0
M  V30 422 O 43.7039 -0.721502 1.8213 0
M  V30 423 H 42.2839 0.580387 0.470276 0
M  V30 424 H 44.9459 1.85552 0.596373 0
M  V30 425 H 44.0419 2.36486 2.03669 0
M  V30 426 N 44.343 -0.763751 1.37857 0
M  V30 427 C 45.59 -1.52257 1.33506 0
M  V30 428 C 45.918 -1.94343 -0.078022 0
M  V30 429 O 45.173 -1.64958 -1.05297 0
M  V30 430 C 45.472 -2.79499 2.22745 0
M  V30 431 C 45.138 -2.56426 3.70886 0
M  V30 432 C 43.8 -2.49842 4.11257 0
M  V30 433 C 46.152 -2.36008 4.64704 0
M  V30 434 C 43.48 -2.20841 5.43549 0
M  V30 435 C 45.832 -2.0853 5.97242 0
M  V30 436 C 44.496 -2.00396 6.36709 0
M  V30 437 H 43.766 -0.557149 0.488534 0
M  V30 438 H 46.413 -0.879073 1.70131 0
M  V30 439 H 44.718 -3.48447 1.79142 0
M  V30 440 H 46.415 -3.37413 2.16688 0
M  V30 441 H 43.005 -2.62416 3.38874 0
M  V30 442 H 47.189 -2.40079 4.34368 0
M  V30 443 H 42.445 -2.13045 5.73081 0
M  V30 444 H 46.619 -1.91732 6.69486 0
M  V30 445 H 44.246 -1.77688 7.39142 0
M  V30 446 N 45.8211 -1.22559 -0.990812 0
M  V30 447 C 47.0681 -1.05141 -1.73065 0
M  V30 448 C 47.3961 0.413191 -1.9006 0
M  V30 449 O 46.6511 1.32257 -1.44245 0
M  V30 450 C 46.9501 -1.71011 -3.13831 0
M  V30 451 C 46.6161 -3.20911 -3.16745 0
M  V30 452 C 45.2781 -3.61812 -3.17247 0
M  V30 453 C 47.6301 -4.16846 -3.12872 0
M  V30 454 C 44.9581 -4.97127 -3.1158 0
M  V30 455 C 47.3101 -5.5214 -3.08746 0
M  V30 456 C 45.9741 -5.92419 -3.07565 0
M  V30 457 H 45.2441 -0.384738 -0.633291 0
M  V30 458 H 47.8911 -1.5235 -1.16025 0
M  V30 459 H 46.1961 -1.16133 -3.74193 0
M  V30 460 H 47.8931 -1.55023 -3.69823 0
M  V30 461 H 44.4831 -2.88344 -3.17105 0
M  V30 462 H 48.6671 -3.86263 -3.11632 0
M  V30 463 H 43.9231 -5.27562 -3.09012 0
M  V30 464 H 48.0971 -6.26201 -3.04705 0
M  V30 465 H 45.7241 -6.97236 -3.02929 0
M  V30 466 N 47.2992 1.18797 -1.03562 0
M  V30 467 C 48.7102 1.70322 -0.764676 0
M  V30 468 C 49.0612 1.82708 0.714996 0
M  V30 469 O 48.1862 1.50299 1.55689 0
M  V30 470 C 48.7812 3.09356 -1.38145 0
M  V30 471 C 47.3402 3.58114 -1.15895 0
M  V30 472 C 46.4872 2.34798 -1.4753 0
M  V30 473 H 49.4382 1.03543 -1.20268 0
M  V30 474 H 49.4592 3.72378 -0.781977 0
M  V30 475 H 48.9712 3.00309 -2.45837 0
M  V30 476 H 47.0722 3.72464 -0.100544 0
M  V30 477 H 47.1852 4.4184 -1.8524 0
M  V30 478 H 45.5492 2.38464 -0.894829 0
M  V30 479 H 46.3322 2.28375 -2.56319 0
M  V30 480 N 48.7773 0.814389 1.34928 0
M  V30 481 C 49.7093 0.187834 2.28429 0
M  V30 482 C 50.7223 -0.617374 1.5064 0
M  V30 483 O 51.9113 -0.448454 1.72775 0
M  V30 484 C 49.0113 -0.755962 3.30361 0
M  V30 485 C 48.1843 0.00456686 4.374 0
M  V30 486 C 47.2433 -0.858876 5.19143 0
M  V30 487 O 46.2693 -0.306968 5.68372 0
M  V30 488 N 47.4713 -2.17988 5.38016 0
M  V30 489 H 50.2363 0.991105 2.82838 0
M  V30 490 H 47.7973 0.670561 1.4736 0
M  V30 491 H 49.7893 -1.338 3.81942 0
M  V30 492 H 48.3593 -1.46001 2.7641 0
M  V30 493 H 47.5793 0.767865 3.86649 0
M  V30 494 H 48.8673 0.528422 5.06049 0
M  V30 495 H 48.2653 -2.65212 4.99679 0
M  V30 496 H 46.8223 -2.71098 5.92747 0
M  V30 497 N 50.2554 -1.46986 0.568584 0
M  V30 498 C 51.1654 -2.33942 -0.17555 0
M  V30 499 C 52.1814 -1.48891 -0.90041 0
M  V30 500 O 53.3574 -1.81794 -0.86676 0
M  V30 501 C 50.4224 -3.25811 -1.18524 0
M  V30 502 C 49.4834 -4.26757 -0.466582 0
M  V30 503 C 48.7164 -5.14236 -1.42817 0
M  V30 504 O 48.9394 -5.04379 -2.66379 0
M  V30 505 O 47.8734 -5.94412 -0.946453 0
M  V30 506 H 51.6994 -2.98896 0.538036 0
M  V30 507 H 49.2844 -1.4573 0.329097 0
M  V30 508 H 51.1664 -3.82527 -1.76779 0
M  V30 509 H 49.8414 -2.63471 -1.88055 0
M  V30 510 H 48.7484 -3.73769 0.157451 0
M  V30 511 H 50.0814 -4.91843 0.187485 0
M  V30 512 N 51.7335 -0.305618 -1.54608 0
M  V30 513 C 53.1445 0.186098 -1.8577 0
M  V30 514 C 53.4955 1.53058 -1.22751 0
M  V30 515 O 52.6205 2.09888 -0.526893 0
M  V30 516 C 53.2155 0.344449 -3.37044 0
M  V30 517 C 51.7745 0.780384 -3.68221 0
M  V30 518 C 50.9215 -0.108554 -2.77087 0
M  V30 519 H 53.8725 -0.526485 -1.49712 0
M  V30 520 H 53.8935 1.17828 -3.61796 0
M  V30 521 H 53.4055 -0.634235 -3.82883 0
M  V30 522 H 51.5065 1.76945 -3.27904 0
M  V30 523 H 51.6195 0.596572 -4.75371 0
M  V30 524 H 49.9835 0.412931 -2.5133 0
M  V30 525 H 50.7665 -1.08368 -3.25747 0
M  V30 526 N 53.2116 1.57565 -0.0334293 0
M  V30 527 C 54.1416 2.13511 0.945265 0
M  V30 528 C 55.1226 1.05231 1.33643 0
M  V30 529 O 56.3076 1.33084 1.41429 0
M  V30 530 C 53.4376 2.6657 2.22616 0
M  V30 531 C 52.3916 3.79676 1.97561 0
M  V30 532 C 51.7176 4.1918 3.31952 0
M  V30 533 C 53.0176 5.0557 1.31135 0
M  V30 534 H 54.7116 2.95538 0.479325 0
M  V30 535 H 52.2576 1.42166 0.229115 0
M  V30 536 H 54.2106 3.04344 2.91466 0
M  V30 537 H 52.9346 1.8171 2.71384 0
M  V30 538 H 51.5936 3.42347 1.31127 0
M  V30 539 H 51.2416 3.31296 3.78487 0
M  V30 540 H 50.9416 4.95402 3.15992 0
M  V30 541 H 52.4656 4.59541 4.02063 0
M  V30 542 H 53.8796 5.40903 1.89992 0
M  V30 543 H 52.2766 5.86818 1.25559 0
M  V30 544 H 53.3466 4.84062 0.284894 0
M  V30 545 N 54.6897 -0.239769 1.55765 0
M  V30 546 C 55.9147 -0.988373 1.82335 0
M  V30 547 C 56.3397 -1.77886 0.611421 0
M  V30 548 O 55.6977 -1.75889 -0.439639 0
M  V30 549 C 55.7457 -1.89627 3.06715 0
M  V30 550 O 54.8497 -2.98904 2.84131 0
M  V30 551 H 54.1907 -0.280858 0.601677 0
M  V30 552 H 56.7207 -0.258597 2.02959 0
M  V30 553 H 56.7307 -2.30957 3.36338 0
M  V30 554 H 55.4057 -1.31511 3.9456 0
M  V30 555 H 53.9827 -2.61651 2.65694 0
M  V30 556 N 56.1678 -1.49265 -0.50573 0
M  V30 557 C 57.4138 -1.58748 -1.26202 0
M  V30 558 C 57.7468 -0.271227 -1.92297 0
M  V30 559 O 57.0218 0.724831 -1.80489 0
M  V30 560 C 57.3048 -2.74332 -2.33268 0
M  V30 561 C 57.1578 -4.15737 -1.71705 0
M  V30 562 C 58.4768 -2.85576 -3.34865 0
M  V30 563 H 55.5958 -0.577826 -0.457478 0
M  V30 564 H 58.2378 -1.81532 -0.560897 0
M  V30 565 H 56.3878 -2.55036 -2.93068 0
M  V30 566 H 58.0598 -4.46537 -1.15769 0
M  V30 567 H 56.3028 -4.21605 -1.02135 0
M  V30 568 H 56.9738 -4.92477 -2.49341 0
M  V30 569 H 59.4498 -3.03127 -2.8505 0
M  V30 570 H 58.3258 -3.68135 -4.07146 0
M  V30 571 H 58.5868 -1.94732 -3.96903 0
M  V30 572 N 57.6459 0.756429 -1.3826 0
M  V30 573 C 58.8739 1.54565 -1.3754 0
M  V30 574 C 59.2889 1.88767 0.0355331 0
M  V30 575 O 58.6459 1.52572 1.0014 0
M  V30 576 C 58.6969 2.84654 -2.22833 0
M  V30 577 O 58.4179 2.51912 -3.5843 0
M  V30 578 C 59.9189 3.78807 -2.30261 0
M  V30 579 H 57.1389 0.478353 -0.470553 0
M  V30 580 H 59.6829 0.936381 -1.81803 0
M  V30 581 H 57.8379 3.41965 -1.8204 0
M  V30 582 H 58.2519 3.35325 -4.03308 0
M  V30 583 H 59.7259 4.67045 -2.94233 0
M  V30 584 H 60.2029 4.19038 -1.31545 0
M  V30 585 H 60.8089 3.2742 -2.71433 0
M  V30 586 N 59.124 1.23083 0.984299 0
M  V30 587 C 60.37 1.07221 1.72845 0
M  V30 588 C 60.725 -0.387453 1.88458 0
M  V30 589 O 60.018 -1.28309 1.42293 0
M  V30 590 C 60.212 1.72673 3.1292 0
M  V30 591 C 60.041 3.24853 3.10967 0
M  V30 592 C 58.811 3.93998 3.16376 0
M  V30 593 C 61.009 4.21674 2.94441 0
M  V30 594 N 58.991 5.33192 3.04268 0
M  V30 595 C 60.362 5.47756 2.90453 0
M  V30 596 C 62.417 4.12457 2.78897 0
M  V30 597 C 61.12 6.6568 2.72512 0
M  V30 598 C 63.146 5.3004 2.62319 0
M  V30 599 C 62.508 6.55046 2.59026 0
M  V30 600 H 58.607 0.44685 0.641755 0
M  V30 601 H 61.191 1.55753 1.16829 0
M  V30 602 H 59.362 1.26679 3.67161 0
M  V30 603 H 61.094 1.49824 3.75945 0
M  V30 604 H 57.849 3.45052 3.24401 0
M  V30 605 H 58.273 6.06157 3.015 0
M  V30 606 H 62.915 3.16588 2.80235 0
M  V30 607 H 60.633 7.61689 2.69919 0
M  V30 608 H 64.219 5.24747 2.5126 0
M  V30 609 H 63.099 7.44498 2.46357 0
M  V30 610 N 60.6021 -1.18246 1.0419 0
M  V30 611 C 61.8271 -1.92736 0.765996 0
M  V30 612 C 62.2521 -1.75728 -0.67091 0
M  V30 613 O 61.6101 -1.06825 -1.46486 0
M  V30 614 C 61.6581 -3.42148 1.13875 0
M  V30 615 O 60.7621 -4.11548 0.264954 0
M  V30 616 H 60.1031 -0.601238 0.281797 0
M  V30 617 H 62.6331 -1.49942 1.39207 0
M  V30 618 H 62.6431 -3.92858 1.1012 0
M  V30 619 H 61.3181 -3.53848 2.18551 0
M  V30 620 H 59.8951 -3.71137 0.362226 0
M  V30 621 N 62.0802 -0.821533 -1.34494 0
M  V30 622 C 62.9902 -0.244355 -2.33324 0
M  V30 623 C 64.0062 0.620527 -1.62559 0
M  V30 624 O 65.1822 0.528754 -1.94335 0
M  V30 625 C 62.2472 0.585368 -3.41723 0
M  V30 626 C 61.3082 -0.301752 -4.28238 0
M  V30 627 C 60.5412 0.488466 -5.3146 0
M  V30 628 O 60.7642 1.72186 -5.4379 0
M  V30 629 O 59.6982 -0.12848 -6.01763 0
M  V30 630 H 63.5242 -1.06231 -2.84515 0
M  V30 631 H 61.1092 -0.583645 -1.37528 0
M  V30 632 H 62.9912 1.05747 -4.07916 0
M  V30 633 H 61.6662 1.38068 -2.92778 0
M  V30 634 H 60.5732 -0.821315 -3.64973 0
M  V30 635 H 61.9062 -1.06138 -4.8062 0
M  V30 636 N 63.5583 1.46682 -0.576371 0
M  V30 637 C 64.7833 2.07304 -0.0630475 0
M  V30 638 C 65.2083 1.42329 1.2298 0
M  V30 639 O 64.5663 0.504865 1.74129 0
M  V30 640 C 64.6143 3.60472 0.095895 0
M  V30 641 O 63.7183 3.95927 1.15394 0
M  V30 642 H 63.0593 0.661288 -0.0599463 0
M  V30 643 H 65.5893 1.88417 -0.797511 0
M  V30 644 H 65.5993 4.06865 0.304071 0
M  V30 645 H 64.2743 4.07157 -0.84828 0
M  V30 646 H 62.8513 3.61252 0.924724 0
M  V30 647 N 65.0364 0.313813 1.54444 0
M  V30 648 C 66.2844 -0.291099 1.99993 0
M  V30 649 C 66.6054 -1.53418 1.20366 0
M  V30 650 O 65.8754 -1.93544 0.302927 0
M  V30 651 H 64.4554 -0.110552 0.738774 0
M  V30 652 H 67.1174 0.428106 1.9014 0
M  V30 653 H 66.2134 -0.554268 3.07139 0
M  V30 654 N 66.5145 -1.57545 0.0417849 0
M  V30 655 C 67.4465 -2.07904 -0.964799 0
M  V30 656 C 68.4595 -1.00497 -1.28079 0
M  V30 657 O 69.6485 -1.28087 -1.24322 0
M  V30 658 C 66.7485 -2.49928 -2.28887 0
M  V30 659 C 65.9215 -3.80562 -2.15619 0
M  V30 660 C 64.9805 -4.08999 -3.31069 0
M  V30 661 O 64.0065 -4.79061 -3.0739 0
M  V30 662 N 65.2085 -3.6017 -4.55256 0
M  V30 663 H 67.9735 -2.94886 -0.535029 0
M  V30 664 H 65.5345 -1.61252 -0.144681 0
M  V30 665 H 67.5265 -2.66034 -3.04972 0
M  V30 666 H 66.0965 -1.68245 -2.63463 0
M  V30 667 H 65.3165 -3.74129 -1.24183 0
M  V30 668 H 66.6045 -4.66126 -2.03971 0
M  V30 669 H 66.0025 -3.03512 -4.77386 0
M  V30 670 H 64.5595 -3.81532 -5.28466 0
M  V30 671 N 67.9926 0.231505 -1.5589 0
M  V30 672 C 68.9406 1.30649 -1.92441 0
M  V30 673 C 69.9346 1.49037 -0.805254 0
M  V30 674 O 71.1406 1.50329 -0.990007 0
M  V30 675 H 67.5156 0.437812 -0.611412 0
M  V30 676 H 69.4866 0.970973 -2.82161 0
M  V30 677 C 68.2356 2.65179 -2.24889 0
M  V30 678 H 67.5586 2.51835 -3.10514 0
M  V30 679 H 68.9986 3.39234 -2.54355 0
M  V30 680 C 67.4576 3.19439 -1.07054 0
M  V30 681 O 67.9876 4.00371 -0.326499 0
M  V30 682 N 66.1936 2.77675 -0.85703 0
M  V30 683 H 65.7406 2.11969 -1.46379 0
M  V30 684 H 65.6986 3.14321 -0.0703223 0
M  V30 685 N 69.4707 1.49531 0.497807 0
M  V30 686 C 70.7167 1.59415 1.25358 0
M  V30 687 C 71.0497 0.281422 1.9215 0
M  V30 688 O 70.3247 -0.715249 1.80871 0
M  V30 689 C 70.6077 2.75566 2.3181 0
M  V30 690 C 70.4607 4.16642 1.69498 0
M  V30 691 C 71.7797 2.87347 3.33346 0
M  V30 692 H 68.8987 0.580244 0.454408 0
M  V30 693 H 71.5407 1.81827 0.551262 0
M  V30 694 H 69.6907 2.56587 2.91711 0
M  V30 695 H 71.3627 4.47145 1.13399 0
M  V30 696 H 69.6057 4.22141 0.998978 0
M  V30 697 H 70.2767 4.93792 2.46725 0
M  V30 698 H 72.7527 3.04634 2.83438 0
M  V30 699 H 71.6287 3.70289 4.05188 0
M  V30 700 H 71.8897 1.96834 3.95865 0
M  V30 701 N 70.9488 -0.749086 1.3866 0
M  V30 702 C 72.1768 -1.53834 1.38358 0
M  V30 703 C 72.5918 -1.88783 -0.0255219 0
M  V30 704 O 71.9488 -1.53101 -0.993292 0
M  V30 705 C 71.9998 -2.83468 2.2434 0
M  V30 706 O 71.7208 -2.50008 3.5976 0
M  V30 707 C 73.2218 -3.7758 2.32267 0
M  V30 708 H 70.4418 -0.47585 0.473083 0
M  V30 709 H 72.9858 -0.926726 1.82297 0
M  V30 710 H 71.1408 -3.40995 1.83851 0
M  V30 711 H 71.5548 -3.33182 4.05081 0
M  V30 712 H 73.0288 -4.65478 2.96706 0
M  V30 713 H 73.5058 -4.18334 1.33765 0
M  V30 714 H 74.1118 -3.25976 2.73166 0
M  V30 715 N 72.4269 -1.23603 -0.977757 0
M  V30 716 C 73.3899 -1.02069 -2.05218 0
M  V30 717 C 74.3899 0.0184305 -1.60789 0
M  V30 718 O 75.5799 -0.221569 -1.72785 0
M  V30 719 C 72.7119 -0.544926 -3.36517 0
M  V30 720 H 73.9049 -1.9742 -2.25755 0
M  V30 721 H 71.4579 -1.05684 -1.15155 0
M  V30 722 H 72.1929 0.412241 -3.21669 0
M  V30 723 H 71.9779 -1.2948 -3.70105 0
M  V30 724 H 73.4679 -0.414985 -4.15533 0
M  V30 725 N 73.905 1.17692 -1.04816 0
M  V30 726 C 75.321 1.39863 -0.768794 0
M  V30 727 C 75.521 1.91118 0.638451 0
M  V30 728 O 74.577 2.10036 1.40146 0
M  V30 729 C 75.89 2.39274 -1.82122 0
M  V30 730 C 77.438 2.52987 -1.843 0
M  V30 731 C 77.913 3.55669 -2.88555 0
M  V30 732 N 79.404 3.63183 -2.87493 0
M  V30 733 C 80.139 4.42381 -3.64811 0
M  V30 734 N 79.635 5.25125 -4.51903 0
M  V30 735 N 81.428 4.37217 -3.53267 0
M  V30 736 H 73.579 0.82752 -1.95617 0
M  V30 737 H 75.842 0.426123 -0.846831 0
M  V30 738 H 75.548 2.08678 -2.83102 0
M  V30 739 H 75.422 3.38725 -1.65967 0
M  V30 740 H 77.809 2.82896 -0.839869 0
M  V30 741 H 77.89 1.53623 -2.04532 0
M  V30 742 H 77.534 3.26499 -3.89051 0
M  V30 743 H 77.464 4.54728 -2.65575 0
M  V30 744 H 79.955 3.04103 -2.24343 0
M  V30 745 H 80.268 5.82728 -5.07591 0
M  V30 746 H 78.613 5.24519 -4.55966 0
M  V30 747 H 81.804 3.71626 -2.84625 0
M  V30 748 H 81.977 4.98696 -4.13771 0
M  V30 749 N 75.3831 0.828654 1.34056 0
M  V30 750 C 76.3311 0.242973 2.31327 0
M  V30 751 C 77.3251 -0.61944 1.57668 0
M  V30 752 O 78.5311 -0.51014 1.7262 0
M  V30 753 H 74.9061 0.059834 0.749616 0
M  V30 754 H 76.8771 1.07809 2.78244 0
M  V30 755 C 75.6261 -0.575733 3.429 0
M  V30 756 H 74.9491 0.0785582 3.99723 0
M  V30 757 H 76.3891 -0.951547 4.13185 0
M  V30 758 C 74.8481 -1.75044 2.87856 0
M  V30 759 O 75.3781 -2.84882 2.83205 0
M  V30 760 N 73.5841 -1.56903 2.44602 0
M  V30 761 H 73.1311 -0.675547 2.48584 0
M  V30 762 H 73.0891 -2.35652 2.08124 0
M  V30 763 N 76.8612 -1.46375 0.584142 0
M  V30 764 C 78.1082 -2.02378 0.0702675 0
M  V30 765 C 78.4362 -1.45545 -1.29023 0
M  V30 766 O 77.6912 -0.610967 -1.85918 0
M  V30 767 C 77.9902 -3.57373 -0.0439342 0
M  V30 768 C 77.6562 -4.33252 1.24915 0
M  V30 769 C 76.3182 -4.53701 1.60341 0
M  V30 770 C 78.6702 -4.7681 2.1048 0
M  V30 771 C 75.9982 -5.1496 2.81128 0
M  V30 772 C 78.3502 -5.39404 3.30494 0
M  V30 773 C 77.0142 -5.5808 3.66201 0
M  V30 774 H 76.2842 -0.740554 0.0257127 0
M  V30 775 H 78.9312 -1.75727 0.761065 0
M  V30 776 H 77.2362 -3.83169 -0.817869 0
M  V30 777 H 78.9332 -3.98384 -0.457318 0
M  V30 778 H 75.5232 -4.17633 0.963364 0
M  V30 779 H 79.7072 -4.60766 1.84414 0
M  V30 780 H 74.9632 -5.27611 3.08928 0
M  V30 781 H 79.1372 -5.72114 3.97063 0
M  V30 782 H 76.7642 -6.05318 4.59885 0
M  V30 783 N 78.3393 -0.321999 -1.54275 0
M  V30 784 C 79.7503 0.166384 -1.85957 0
M  V30 785 C 80.1013 1.51747 -1.24367 0
M  V30 786 O 79.2263 2.09317 -0.549124 0
M  V30 787 C 79.8213 0.308681 -3.37391 0
M  V30 788 C 78.3803 0.741286 -3.69028 0
M  V30 789 C 77.5273 -0.137937 -2.76957 0
M  V30 790 H 80.4783 -0.542335 -1.49146 0
M  V30 791 H 80.4993 1.13984 -3.63026 0
M  V30 792 H 80.0113 -0.674809 -3.82188 0
M  V30 793 H 78.1123 1.73458 -3.29762 0
M  V30 794 H 78.2253 0.546118 -4.75977 0
M  V30 795 H 76.5893 0.386251 -2.51754 0
M  V30 796 H 77.3723 -1.11816 -3.2458 0
M  V30 797 N 79.8174 1.5752 -0.0501392 0
M  V30 798 C 81.2284 1.80271 0.485705 0
M  V30 799 C 81.5794 0.96228 1.70981 0
M  V30 800 O 80.7044 0.178578 2.15662 0
M  V30 801 C 81.2994 3.26957 0.887938 0
M  V30 802 C 79.8584 3.5063 1.36877 0
M  V30 803 C 79.0054 2.75165 0.343468 0
M  V30 804 H 81.9564 1.56281 -0.276028 0
M  V30 805 H 81.9774 3.37821 1.75093 0
M  V30 806 H 81.4894 3.881 -0.0031809 0
M  V30 807 H 79.5904 2.94766 2.27911 0
M  V30 808 H 79.7034 4.59343 1.36164 0
M  V30 809 H 78.0674 2.4127 0.816128 0
M  V30 810 H 78.8504 3.39034 -0.539548 0
M  V30 811 N 81.2955 -0.223234 1.56011 0
M  V30 812 C 82.5205 -0.968978 1.83373 0
M  V30 813 C 82.9455 -1.77227 0.630254 0
M  V30 814 O 82.3035 -1.76345 -0.420959 0
M  V30 815 C 82.3515 -1.86363 3.08709 0
M  V30 816 O 81.4555 -2.95873 2.87285 0
M  V30 817 H 80.7965 -0.274461 0.604622 0
M  V30 818 H 83.3265 -0.237056 2.03222 0
M  V30 819 H 83.3365 -2.27376 3.38768 0
M  V30 820 H 82.0115 -1.27319 3.95933 0
M  V30 821 H 80.5885 -2.58818 2.68454 0
M  V30 822 N 82.7736 -1.49793 -0.48987 0
M  V30 823 C 83.7056 -1.63413 -1.60713 0
M  V30 824 C 84.7186 -0.516329 -1.54395 0
M  V30 825 O 85.9076 -0.788812 -1.60125 0
M  V30 826 C 83.0076 -1.58516 -2.99543 0
M  V30 827 C 82.1806 -2.86016 -3.30928 0
M  V30 828 C 81.2396 -2.74018 -4.49222 0
M  V30 829 O 80.2656 -3.47964 -4.50455 0
M  V30 830 N 81.4676 -1.86309 -5.4979 0
M  V30 831 H 84.2326 -2.59777 -1.49452 0
M  V30 832 H 81.7936 -1.47022 -0.677955 0
M  V30 833 H 83.7856 -1.48128 -3.76617 0
M  V30 834 H 82.3556 -0.69965 -3.0467 0
M  V30 835 H 81.5756 -3.10672 -2.42645 0
M  V30 836 H 82.8636 -3.70521 -3.487 0
M  V30 837 H 82.2616 -1.2551 -5.51601 0
M  V30 838 H 80.8186 -1.81837 -6.25922 0
M  V30 839 N 84.2517 0.741722 -1.39055 0
M  V30 840 C 85.5287 1.49252 -1.26425 0
M  V30 841 C 85.9087 2.10705 0.129144 0
M  V30 842 O 85.2567 1.98045 1.13976 0
M  V30 843 C 85.4667 2.54934 -2.38347 0
M  V30 844 C 86.8147 3.21506 -2.77343 0
M  V30 845 O 87.8387 2.65245 -2.37747 0
M  V30 846 O 86.6977 4.23294 -3.45665 0
M  V30 847 H 83.7917 0.662451 -0.495064 0
M  V30 848 H 86.3377 0.776121 -1.50912 0
M  V30 849 H 85.1097 2.07857 -3.31529 0
M  V30 850 H 84.7327 3.34141 -2.15489 0
M  V30 851 N 85.7298 1.2412 0.971189 0
M  V30 852 C 86.6928 1.03156 2.04674 0
M  V30 853 C 87.6928 -0.00990322 1.60797 0
M  V30 854 O 88.8828 0.230729 1.72665 0
M  V30 855 C 86.0148 0.562765 3.36223 0
M  V30 856 H 87.2078 1.98614 2.24705 0
M  V30 857 H 84.7608 1.06293 1.14593 0
M  V30 858 H 85.4958 -0.395176 3.21883 0
M  V30 859 H 85.2808 1.31441 3.69413 0
M  V30 860 H 86.7708 0.437015 4.15307 0
M  V30 861 N 87.2079 -1.17134 1.05439 0
M  V30 862 C 88.4329 -1.91913 0.786396 0
M  V30 863 C 88.8579 -1.7643 -0.652234 0
M  V30 864 O 88.2159 -1.08372 -1.45345 0
M  V30 865 C 88.2639 -3.40921 1.17497 0
M  V30 866 O 87.3679 -4.11244 0.308589 0
M  V30 867 H 86.7089 -0.598215 0.288158 0
M  V30 868 H 89.2389 -1.48457 1.4079 0
M  V30 869 H 89.2489 -3.91668 1.14281 0
M  V30 870 H 87.9239 -3.5151 2.22292 0
M  V30 871 H 86.5009 -3.70731 0.40157 0
M  V30 872 N 88.686 -0.835752 -1.33615 0
M  V30 873 C 89.934 -0.429109 -1.97492 0
M  V30 874 C 90.255 1.01433 -1.66543 0
M  V30 875 O 89.525 1.70611 -0.962744 0
M  V30 876 H 88.105 -0.155686 -0.730596 0
M  V30 877 H 90.767 -1.06802 -1.63031 0
M  V30 878 H 89.863 -0.55861 -3.0706 0
M  V30 879 N 90.1641 1.46063 -0.591896 0
M  V30 880 C 91.4411 1.95595 -0.0137119 0
M  V30 881 C 91.8211 1.5345 1.4497 0
M  V30 882 O 91.1691 0.789543 2.14426 0
M  V30 883 C 91.3791 3.48453 -0.195373 0
M  V30 884 C 92.7271 4.24546 -0.0679765 0
M  V30 885 O 93.7511 3.55982 -0.124681 0
M  V30 886 O 92.6101 5.46467 0.0600579 0
M  V30 887 H 89.7041 0.825795 0.0446279 0
M  V30 888 H 92.2501 1.56303 -0.660859 0
M  V30 889 H 91.0221 3.72045 -1.21235 0
M  V30 890 H 90.6451 3.94597 0.487775 0
M  V30 891 N 91.6422 0.330177 1.54103 0
M  V30 892 C 92.5722 -0.525353 2.27513 0
M  V30 893 C 93.5532 -1.11383 1.2856 0
M  V30 894 O 94.7382 -1.13773 1.57383 0
M  V30 895 C 91.8682 -1.6831 3.03791 0
M  V30 896 C 90.8222 -1.2236 4.10137 0
M  V30 897 C 90.1482 -2.46882 4.74293 0
M  V30 898 C 91.4482 -0.333697 5.21233 0
M  V30 899 H 93.1422 0.087013 2.99274 0
M  V30 900 H 90.6882 0.0432893 1.43935 0
M  V30 901 H 92.6412 -2.28795 3.5388 0
M  V30 902 H 91.3652 -2.32216 2.29659 0
M  V30 903 H 90.0242 -0.64165 3.60941 0
M  V30 904 H 89.6722 -3.09165 3.96769 0
M  V30 905 H 89.3722 -2.16825 5.46133 0
M  V30 906 H 90.8962 -3.08117 5.27159 0
M  V30 907 H 92.3102 -0.845013 5.67038 0
M  V30 908 H 90.7072 -0.125612 5.99969 0
M  V30 909 H 91.7772 0.633724 4.80741 0
M  V30 910 N 93.1203 -1.57491 0.0584922 0
M  V30 911 C 94.3503 -1.9701 -0.622134 0
M  V30 912 C 94.7583 -0.935034 -1.6448 0
M  V30 913 O 94.1013 0.0882904 -1.83488 0
M  V30 914 C 94.1633 -3.32794 -1.35972 0
M  V30 915 C 93.8273 -4.54343 -0.492043 0
M  V30 916 C 94.8243 -5.19323 0.244901 0
M  V30 917 C 92.5093 -5.00534 -0.420821 0
M  V30 918 C 94.5033 -6.28835 1.04143 0
M  V30 919 C 92.1903 -6.09921 0.379389 0
M  V30 920 C 93.1883 -6.73933 1.10919 0
M  V30 921 O 92.8763 -7.81216 1.89623 0
M  V30 922 H 92.6083 -0.653127 -0.174359 0
M  V30 923 H 95.1623 -2.05029 0.123418 0
M  V30 924 H 93.3923 -3.21351 -2.15105 0
M  V30 925 H 95.0813 -3.5701 -1.93129 0
M  V30 926 H 95.8473 -4.8459 0.19939 0
M  V30 927 H 91.7263 -4.50496 -0.978474 0
M  V30 928 H 95.2703 -6.7873 1.61157 0
M  V30 929 H 91.1673 -6.44089 0.426512 0
M  V30 930 H 91.9353 -7.98029 1.81913 0
M  V30 931 N 94.5984 0.214957 -1.56127 0
M  V30 932 C 95.8264 0.955092 -1.83536 0
M  V30 933 C 96.2414 1.77677 -0.638472 0
M  V30 934 O 95.5984 1.78219 0.392968 0
M  V30 935 C 95.6494 1.86734 -3.09536 0
M  V30 936 O 95.3704 1.07887 -4.24608 0
M  V30 937 C 96.8714 2.72082 -3.4998 0
M  V30 938 H 94.0914 0.279611 -0.609966 0
M  V30 939 H 96.6354 0.228197 -2.03223 0
M  V30 940 H 94.7904 2.5481 -2.91806 0
M  V30 941 H 95.2044 1.69872 -4.9623 0
M  V30 942 H 96.6784 3.31782 -4.41163 0
M  V30 943 H 97.1554 3.44806 -2.7204 0
M  V30 944 H 97.7614 2.09409 -3.70173 0
M  V30 945 N 96.0765 1.50051 0.48192 0
M  V30 946 C 97.3045 1.64237 1.25832 0
M  V30 947 C 97.7195 0.321336 1.86045 0
M  V30 948 O 97.0765 -0.695478 1.68729 0
M  V30 949 C 97.1275 2.72548 2.37487 0
M  V30 950 O 96.8485 3.99529 1.79745 0
M  V30 951 C 98.3495 2.9761 3.28547 0
M  V30 952 H 95.5695 0.55237 0.380957 0
M  V30 953 H 98.1135 1.96207 0.576467 0
M  V30 954 H 96.2685 2.43303 3.01467 0
M  V30 955 H 96.6825 4.59342 2.5319 0
M  V30 956 H 98.1565 3.77084 4.03127 0
M  V30 957 H 98.6335 2.0826 3.86684 0
M  V30 958 H 99.2395 3.28345 2.70314 0
M  V30 959 N 97.5546 -0.734337 1.39446 0
M  V30 960 C 98.7796 -1.52866 1.40167 0
M  V30 961 C 99.2046 -1.881 -0.00171513 0
M  V30 962 O 98.5626 -1.51957 -0.988879 0
M  V30 963 C 98.6106 -2.79235 2.28167 0
M  V30 964 O 97.7146 -3.75185 1.71201 0
M  V30 965 H 97.0556 -0.461618 0.477289 0
M  V30 966 H 99.5856 -0.905949 1.8345 0
M  V30 967 H 99.5956 -3.27963 2.42702 0
M  V30 968 H 98.2706 -2.52923 3.30156 0
M  V30 969 H 96.8476 -3.33958 1.65912 0
M  V30 970 N 99.0327 -1.24633 -0.964593 0
M  V30 971 C 100.258 -1.11596 -1.74818 0
M  V30 972 C 100.683 0.32723 -1.85232 0
M  V30 973 O 100.041 1.23695 -1.32549 0
M  V30 974 C 100.089 -1.76397 -3.1451 0
M  V30 975 O 99.1927 -1.03685 -3.99153 0
M  V30 976 H 98.5337 -0.390196 -0.537255 0
M  V30 977 H 101.064 -1.65002 -1.20977 0
M  V30 978 H 101.074 -1.8228 -3.65018 0
M  V30 979 H 99.7487 -2.81401 -3.06246 0
M  V30 980 H 98.3257 -1.05611 -3.57632 0
M  V30 981 N 100.511 1.16574 -1.06058 0
M  V30 982 C 101.443 2.2045 -0.627239 0
M  V30 983 C 102.456 1.59752 0.313534 0
M  V30 984 O 103.645 1.78192 0.104896 0
M  V30 985 C 100.745 3.3875 0.100974 0
M  V30 986 C 99.9178 4.29008 -0.852687 0
M  V30 987 C 98.9768 5.25944 -0.164152 0
M  V30 988 O 98.0028 5.63535 -0.801047 0
M  V30 989 N 99.2048 5.70075 1.09518 0
M  V30 990 H 101.97 2.58249 -1.52077 0
M  V30 991 H 99.5308 1.3156 -0.943594 0
M  V30 992 H 101.523 4.00638 0.57194 0
M  V30 993 H 100.093 2.99476 0.89628 0
M  V30 994 H 99.3128 3.64419 -1.50308 0
M  V30 995 H 100.601 4.86195 -1.49972 0
M  V30 996 H 99.9988 5.41624 1.6328 0
M  V30 997 H 98.5558 6.34067 1.51006 0
M  V30 998 N 101.989 0.842826 1.3317 0
M  V30 999 C 102.919 0.294028 2.31641 0
M  V30 1000 C 103.9 -0.600401 1.59151 0
M  V30 1001 O 105.085 -0.523124 1.87022 0
M  V30 1002 C 102.215 -0.528416 3.43257 0
M  V30 1003 C 101.169 0.27056 4.27144 0
M  V30 1004 C 100.495 -0.675881 5.30411 0
M  V30 1005 C 101.795 1.48981 5.00602 0
M  V30 1006 H 103.489 1.11681 2.77791 0
M  V30 1007 H 101.035 0.538478 1.33553 0
M  V30 1008 H 102.988 -0.922674 4.11175 0
M  V30 1009 H 101.712 -1.38445 2.95805 0
M  V30 1010 H 100.371 0.646427 3.60856 0
M  V30 1011 H 100.019 -1.52842 4.79216 0
M  V30 1012 H 99.7189 -0.145374 5.8742 0
M  V30 1013 H 101.243 -1.06757 6.01195 0
M  V30 1014 H 102.657 1.16849 5.61266 0
M  V30 1015 H 101.054 1.95739 5.6728 0
M  V30 1016 H 102.124 2.25746 4.29147 0
M  V30 1017 N 103.467 -1.45747 0.599634 0
M  V30 1018 C 104.695 -2.06668 0.0978551 0
M  V30 1019 C 105.11 -1.44562 -1.21439 0
M  V30 1020 O 104.467 -0.556923 -1.73795 0
M  V30 1021 C 104.518 -3.61456 -0.0567044 0
M  V30 1022 O 104.239 -4.21242 1.20361 0
M  V30 1023 C 105.74 -4.39345 -0.590869 0
M  V30 1024 H 102.96 -0.667825 0.0651943 0
M  V30 1025 H 105.504 -1.87115 0.82511 0
M  V30 1026 H 103.659 -3.80378 -0.734251 0
M  V30 1027 H 104.073 -5.14323 1.02821 0
M  V30 1028 H 105.547 -5.48182 -0.648131 0
M  V30 1029 H 106.024 -4.08568 -1.61147 0
M  V30 1030 H 106.63 -4.25268 0.0523679 0
M  V30 1031 N 104.945 -0.338344 -1.53925 0
M  V30 1032 C 105.875 0.51328 -2.27789 0
M  V30 1033 C 106.856 1.107 -1.29149 0
M  V30 1034 O 108.041 1.12937 -1.57984 0
M  V30 1035 C 105.171 1.66697 -3.04679 0
M  V30 1036 C 104.125 1.20183 -4.1078 0
M  V30 1037 C 103.451 2.44363 -4.75595 0
M  V30 1038 C 104.751 0.30605 -5.21403 0
M  V30 1039 H 106.445 -0.102883 -2.99223 0
M  V30 1040 H 103.991 -0.0509219 -1.4391 0
M  V30 1041 H 105.944 2.26915 -3.55088 0
M  V30 1042 H 104.668 2.30995 -2.30887 0
M  V30 1043 H 103.327 0.622499 -3.61276 0
M  V30 1044 H 102.975 3.07057 -3.98403 0
M  V30 1045 H 102.675 2.13925 -5.47275 0
M  V30 1046 H 104.199 3.05317 -5.28786 0
M  V30 1047 H 105.613 0.814929 -5.67478 0
M  V30 1048 H 104.01 0.0937929 -6.00027 0
M  V30 1049 H 105.08 -0.65921 -4.80398 0
M  V30 1050 N 106.423 1.57458 -0.0668435 0
M  V30 1051 C 107.834 1.80776 0.466558 0
M  V30 1052 C 108.185 0.980361 1.69951 0
M  V30 1053 O 107.31 0.201441 2.1546 0
M  V30 1054 C 107.905 3.27881 0.85321 0
M  V30 1055 C 106.464 3.52062 1.3315 0
M  V30 1056 C 105.611 2.75513 0.314264 0
M  V30 1057 H 108.562 1.5598 -0.292588 0
M  V30 1058 H 108.583 3.39659 1.715 0
M  V30 1059 H 108.095 3.88075 -0.0443439 0
M  V30 1060 H 106.196 2.97167 2.24772 0
M  V30 1061 H 106.309 4.60762 1.31285 0
M  V30 1062 H 104.673 2.42123 0.790492 0
M  V30 1063 H 105.456 3.38442 -0.575477 0
M  V30 1064 N 107.901 -0.206675 1.56239 0
M  V30 1065 C 108.864 -1.23976 1.92776 0
M  V30 1066 C 109.864 -1.39041 0.807729 0
M  V30 1067 O 111.054 -1.37051 1.0753 0
M  V30 1068 C 108.186 -2.61112 2.19165 0
M  V30 1069 H 109.379 -0.927764 2.85189 0
M  V30 1070 H 106.932 -0.447718 1.4975 0
M  V30 1071 H 107.667 -2.97386 1.29352 0
M  V30 1072 H 107.452 -2.51552 3.00772 0
M  V30 1073 H 108.942 -3.35633 2.48476 0
M  V30 1074 N 109.379 -1.50304 -0.473955 0
M  V30 1075 C 110.607 -1.64902 -1.24959 0
M  V30 1076 C 111.022 -0.331198 -1.85872 0
M  V30 1077 O 110.379 0.68652 -1.69095 0
M  V30 1078 C 110.43 -2.73803 -2.36038 0
M  V30 1079 O 110.151 -4.00477 -1.77624 0
M  V30 1080 C 111.652 -2.99349 -3.26964 0
M  V30 1081 H 108.872 -0.554383 -0.378022 0
M  V30 1082 H 111.416 -1.9651 -0.566054 0
M  V30 1083 H 109.571 -2.44898 -3.00173 0
M  V30 1084 H 109.985 -4.60678 -2.5075 0
M  V30 1085 H 111.459 -3.79217 -4.01121 0
M  V30 1086 H 111.936 -2.10307 -3.85574 0
M  V30 1087 H 112.542 -3.29774 -2.68569 0
M  V30 1088 N 110.857 0.726932 -1.39834 0
M  V30 1089 C 111.789 1.85147 -1.35104 0
M  V30 1090 C 112.802 1.60736 -0.258392 0
M  V30 1091 O 113.991 1.70821 -0.517931 0
M  V30 1092 C 111.091 3.21332 -1.07697 0
M  V30 1093 C 110.264 3.73033 -2.28396 0
M  V30 1094 C 109.323 4.87802 -1.97322 0
M  V30 1095 O 108.349 5.01043 -2.70083 0
M  V30 1096 N 109.551 5.72768 -0.944273 0
M  V30 1097 H 112.316 1.89706 -2.32017 0
M  V30 1098 H 109.877 0.908006 -1.3404 0
M  V30 1099 H 111.869 3.95691 -0.849144 0
M  V30 1100 H 110.439 3.11992 -0.194909 0
M  V30 1101 H 109.659 2.89934 -2.6708 0
M  V30 1102 H 110.947 4.0431 -3.08887 0
M  V30 1103 H 110.345 5.64669 -0.341427 0
M  V30 1104 H 108.902 6.4716 -0.776346 0
M  V30 1105 N 112.336 1.25143 0.95797 0
M  V30 1106 C 113.576 1.10893 1.71703 0
M  V30 1107 C 113.94 -0.34478 1.88879 0
M  V30 1108 O 115.141 -0.609014 2.6181 0
M  V30 1109 C 113.412 1.83889 3.06463 0
M  V30 1110 S 114.971 1.85491 3.97666 0
M  V30 1111 H 111.789 0.396428 0.590226 0
M  V30 1112 H 114.391 1.58618 1.14283 0
M  V30 1113 H 113.095 2.88756 2.9163 0
M  V30 1114 H 112.626 1.36538 3.68946 0
M  V30 1115 H 114.641 0.929553 4.87415 0
M  V30 1116 N 113.814 -1.1601 1.06675 0
M  V30 1117 C 115.225 -1.68235 0.809565 0
M  V30 1118 C 115.576 -1.8454 -0.666303 0
M  V30 1119 O 114.701 -1.54374 -1.5165 0
M  V30 1120 C 115.296 -3.05585 1.46299 0
M  V30 1121 C 113.855 -3.54915 1.25349 0
M  V30 1122 C 113.002 -2.30804 1.53703 0
M  V30 1123 H 115.953 -1.00318 1.22971 0
M  V30 1124 H 115.974 -3.70174 0.880431 0
M  V30 1125 H 115.486 -2.93686 2.53713 0
M  V30 1126 H 113.587 -3.72067 0.199261 0
M  V30 1127 H 113.7 -4.36774 1.9689 0
M  V30 1128 H 112.064 -2.36007 0.957739 0
M  V30 1129 H 112.847 -2.21499 2.62284 0
M  V30 1130 N 115.292 -0.849877 -1.32721 0
M  V30 1131 C 116.569 -0.372405 -1.92022 0
M  V30 1132 C 116.949 1.1435 -1.77447 0
M  V30 1133 O 116.297 1.96296 -1.16962 0
M  V30 1134 C 116.507 -0.831482 -3.3895 0
M  V30 1135 C 117.855 -0.845882 -4.16089 0
M  V30 1136 O 118.879 -0.775806 -3.47649 0
M  V30 1137 O 117.738 -0.943753 -5.38289 0
M  V30 1138 H 114.832 -0.107667 -0.819961 0
M  V30 1139 H 117.378 -0.93646 -1.41522 0
M  V30 1140 H 116.15 -1.87448 -3.4348 0
M  V30 1141 H 115.773 -0.24461 -3.96847 0
M  V30 1142 N 116.77 1.45427 -0.607355 0
M  V30 1143 C 118.018 2.01841 -0.102253 0
M  V30 1144 C 118.339 1.47832 1.27164 0
M  V30 1145 O 117.609 0.672497 1.83995 0
M  V30 1146 H 116.189 0.746188 -0.0348101 0
M  V30 1147 H 118.851 1.78229 -0.7887 0
M  V30 1148 H 117.947 3.12057 -0.0518585 0
M  V30 1149 N 118.248 0.346503 1.53744 0
M  V30 1150 C 119.195 -0.508914 2.25119 0
M  V30 1151 C 120.165 -1.09315 1.25058 0
M  V30 1152 O 121.35 -1.12921 1.53797 0
M  V30 1153 C 118.49 -1.65246 3.02965 0
M  V30 1154 C 117.603 -1.09525 4.17886 0
M  V30 1155 C 116.738 -2.20634 4.83212 0
M  V30 1156 C 115.777 -1.62279 5.90196 0
M  V30 1157 N 114.914 -2.67143 6.49291 0
M  V30 1158 H 119.754 0.106283 2.9781 0
M  V30 1159 H 117.291 0.0642227 1.4696 0
M  V30 1160 H 119.249 -2.32574 3.4636 0
M  V30 1161 H 117.879 -2.2386 2.32565 0
M  V30 1162 H 116.931 -0.312818 3.79112 0
M  V30 1163 H 118.243 -0.628444 4.94825 0
M  V30 1164 H 117.397 -2.95821 5.29693 0
M  V30 1165 H 116.136 -2.70659 4.05703 0
M  V30 1166 H 115.141 -0.855989 5.43096 0
M  V30 1167 H 116.366 -1.13102 6.69615 0
M  V30 1168 H 114.312 -3.16417 5.74645 0
M  V30 1169 H 114.229 -2.25093 7.21713 0
M  V30 1170 H 115.497 -3.4209 7.00425 0
M  V30 1171 N 119.726 -1.57421 0.075193 0
M  V30 1172 C 120.951 -1.98364 -0.605515 0
M  V30 1173 C 121.376 -0.953383 -1.62149 0
M  V30 1174 O 120.734 0.0806053 -1.81121 0
M  V30 1175 C 120.782 -3.38332 -1.24756 0
M  V30 1176 O 119.886 -3.37959 -2.36342 0
M  V30 1177 H 119.227 -0.645553 -0.155428 0
M  V30 1178 H 121.757 -2.04044 0.150714 0
M  V30 1179 H 121.767 -3.75591 -1.5936 0
M  V30 1180 H 120.442 -4.12846 -0.503129 0
M  V30 1181 H 119.019 -3.12474 -2.03506 0
M  V30 1182 N 121.204 0.198386 -1.56346 0
M  V30 1183 C 122.45 0.920648 -1.80698 0
M  V30 1184 C 122.783 1.83045 -0.648697 0
M  V30 1185 O 122.058 1.91308 0.350925 0
M  V30 1186 C 122.341 1.73971 -3.15287 0
M  V30 1187 C 122.194 0.85485 -4.41602 0
M  V30 1188 C 123.513 2.71296 -3.46535 0
M  V30 1189 H 120.632 0.333261 -0.657348 0
M  V30 1190 H 123.274 0.188198 -1.89066 0
M  V30 1191 H 121.424 2.36416 -3.08285 0
M  V30 1192 H 123.096 0.245362 -4.60647 0
M  V30 1193 H 121.339 0.161398 -4.335 0
M  V30 1194 H 122.01 1.46286 -5.32264 0
M  V30 1195 H 124.486 2.18983 -3.53816 0
M  V30 1196 H 123.362 3.2569 -4.41834 0
M  V30 1197 H 123.623 3.5018 -2.69864 0
M  V30 1198 N 122.682 1.50554 0.465978 0
M  V30 1199 C 123.91 1.65563 1.24083 0
M  V30 1200 C 124.325 0.341051 1.85694 0
M  V30 1201 O 123.682 -0.677543 1.69457 0
M  V30 1202 C 123.733 2.75051 2.34583 0
M  V30 1203 O 123.454 4.01413 1.75497 0
M  V30 1204 C 124.955 3.01078 3.25372 0
M  V30 1205 H 122.175 0.55638 0.375077 0
M  V30 1206 H 124.719 1.96807 0.555624 0
M  V30 1207 H 122.874 2.46486 2.9887 0
M  V30 1208 H 123.288 4.62002 2.48303 0
M  V30 1209 H 124.762 3.81339 3.99105 0
M  V30 1210 H 125.239 2.12349 3.84453 0
M  V30 1211 H 125.845 3.31194 2.66816 0
M  V30 1212 N 124.16 -0.719506 1.40217 0
M  V30 1213 C 125.4 -1.49181 1.39729 0
M  V30 1214 C 125.764 -1.92 -0.00250614 0
M  V30 1215 O 126.965 -2.68473 -0.132479 0
M  V30 1216 C 125.236 -2.68767 2.35582 0
M  V30 1217 S 126.795 -3.58224 2.53418 0
M  V30 1218 H 123.613 -0.510091 0.495307 0
M  V30 1219 H 126.215 -0.841724 1.76452 0
M  V30 1220 H 124.919 -2.35475 3.36124 0
M  V30 1221 H 124.45 -3.38691 2.0013 0
M  V30 1222 H 126.465 -4.63033 1.78367 0
M  V30 1223 N 125.638 -1.25649 -0.95132 0
M  V30 1224 C 126.588 -1.03004 -2.03406 0
M  V30 1225 C 127.572 0.034187 -1.60864 0
M  V30 1226 O 128.764 -0.181549 -1.76066 0
M  V30 1227 C 125.893 -0.654255 -3.37008 0
M  V30 1228 C 124.979 -1.75542 -3.86065 0
M  V30 1229 N 125.37 -2.99113 -4.07879 0
M  V30 1230 C 123.668 -1.63669 -4.14884 0
M  V30 1231 C 124.369 -3.70611 -4.48356 0
M  V30 1232 N 123.345 -2.98247 -4.54477 0
M  V30 1233 H 127.147 -1.96813 -2.1827 0
M  V30 1234 H 124.661 -1.16017 -1.13639 0
M  V30 1235 H 126.658 -0.473206 -4.14206 0
M  V30 1236 H 125.318 0.276468 -3.23521 0
M  V30 1237 H 126.329 -3.35124 -3.94857 0
M  V30 1238 H 123.006 -0.775161 -4.10241 0
M  V30 1239 H 124.396 -4.76695 -4.73509 0
M  V30 1240 N 127.117 1.15442 -1.07289 0
M  V30 1241 C 128.363 1.86489 -0.796846 0
M  V30 1242 C 128.696 1.82078 0.675371 0
M  V30 1243 O 127.971 1.24346 1.4956 0
M  V30 1244 C 128.254 3.35626 -1.30489 0
M  V30 1245 C 128.107 3.48673 -2.84161 0
M  V30 1246 C 129.426 4.30357 -0.920907 0
M  V30 1247 H 126.545 0.677144 -0.290939 0
M  V30 1248 H 129.187 1.35633 -1.33056 0
M  V30 1249 H 127.337 3.79068 -0.850883 0
M  V30 1250 H 129.009 3.14099 -3.37846 0
M  V30 1251 H 127.252 2.90253 -3.22391 0
M  V30 1252 H 127.923 4.53453 -3.14777 0
M  V30 1253 H 130.399 3.94871 -1.3121 0
M  V30 1254 H 129.275 5.33193 -1.30372 0
M  V30 1255 H 129.536 4.4176 0.173226 0
M  V30 1256 N 128.595 0.856903 1.32268 0
M  V30 1257 C 129.542 0.301172 2.28827 0
M  V30 1258 C 130.512 -0.593104 1.5515 0
M  V30 1259 O 131.697 -0.527537 1.83362 0
M  V30 1260 C 128.837 -0.502523 3.41422 0
M  V30 1261 C 127.95 0.417797 4.29975 0
M  V30 1262 C 127.085 -0.398749 5.29701 0
M  V30 1263 C 126.124 0.518827 6.09897 0
M  V30 1264 N 125.261 -0.260674 7.01616 0
M  V30 1265 H 130.101 1.12983 2.75751 0
M  V30 1266 H 127.638 0.568582 1.35667 0
M  V30 1267 H 129.596 -0.984141 4.05426 0
M  V30 1268 H 128.226 -1.29599 2.95642 0
M  V30 1269 H 127.278 1.01781 3.66531 0
M  V30 1270 H 128.59 1.12191 4.86019 0
M  V30 1271 H 127.744 -0.943435 5.9932 0
M  V30 1272 H 126.483 -1.13622 4.7428 0
M  V30 1273 H 125.488 1.07538 5.39181 0
M  V30 1274 H 126.713 1.25495 6.67404 0
M  V30 1275 H 124.659 -0.981198 6.4862 0
M  V30 1276 H 124.576 0.384364 7.55022 0
M  V30 1277 H 125.844 -0.787014 7.75517 0
M  V30 1278 N 130.073 -1.45103 0.615059 0
M  V30 1279 C 131.023 -2.27679 -0.120966 0
M  V30 1280 C 132.007 -1.3775 -0.831491 0
M  V30 1281 O 133.199 -1.61683 -0.720249 0
M  V30 1282 C 130.328 -3.24767 -1.1127 0
M  V30 1283 C 129.414 -4.22184 -0.402627 0
M  V30 1284 N 129.805 -5.02692 0.559884 0
M  V30 1285 C 128.103 -4.4125 -0.649202 0
M  V30 1286 C 128.804 -5.73421 0.977942 0
M  V30 1287 N 127.78 -5.42657 0.320104 0
M  V30 1288 H 131.582 -2.87325 0.618181 0
M  V30 1289 H 129.096 -1.56345 0.439304 0
M  V30 1290 H 131.093 -3.82666 -1.65446 0
M  V30 1291 H 129.753 -2.66682 -1.85232 0
M  V30 1292 H 130.764 -5.09354 0.936976 0
M  V30 1293 H 127.441 -3.9428 -1.37293 0
M  V30 1294 H 128.831 -6.48107 1.77222 0
M  V30 1295 N 131.551 -0.354651 -1.53558 0
M  V30 1296 C 132.781 0.239167 -2.05211 0
M  V30 1297 C 133.189 1.43879 -1.22863 0
M  V30 1298 O 132.532 1.81857 -0.259565 0
M  V30 1299 C 132.594 0.707251 -3.52474 0
M  V30 1300 C 132.258 -0.374212 -4.55465 0
M  V30 1301 C 133.255 -1.22054 -5.0537 0
M  V30 1302 C 130.94 -0.531323 -4.99482 0
M  V30 1303 C 132.934 -2.20942 -5.97882 0
M  V30 1304 C 130.621 -1.52358 -5.91802 0
M  V30 1305 C 131.619 -2.36108 -6.40892 0
M  V30 1306 O 131.307 -3.33643 -7.31394 0
M  V30 1307 H 131.039 0.0479716 -0.674296 0
M  V30 1308 H 133.593 -0.508121 -1.99016 0
M  V30 1309 H 131.823 1.50596 -3.56171 0
M  V30 1310 H 133.512 1.22285 -3.87042 0
M  V30 1311 H 134.278 -1.1103 -4.7212 0
M  V30 1312 H 130.157 0.110738 -4.60867 0
M  V30 1313 H 133.701 -2.86348 -6.36121 0
M  V30 1314 H 129.598 -1.63434 -6.24467 0
M  V30 1315 H 130.366 -3.29244 -7.4936 0
M  V30 1316 N 133.029 1.57378 -0.0835403 0
M  V30 1317 C 134.257 1.98263 0.59157 0
M  V30 1318 C 134.672 0.962302 1.62435 0
M  V30 1319 O 134.029 -0.049581 1.82433 0
M  V30 1320 C 134.08 3.39214 1.24965 0
M  V30 1321 O 133.801 4.37339 0.258186 0
M  V30 1322 C 135.302 3.95038 2.01147 0
M  V30 1323 H 132.522 0.651773 0.159477 0
M  V30 1324 H 135.066 2.03878 -0.159415 0
M  V30 1325 H 133.221 3.34649 1.95164 0
M  V30 1326 H 133.635 5.19371 0.731734 0
M  V30 1327 H 135.109 4.95848 2.42567 0
M  V30 1328 H 135.586 3.32222 2.87272 0
M  V30 1329 H 136.192 4.0304 1.35789 0
M  V30 1330 N 134.507 -0.190092 1.56449 0
M  V30 1331 C 135.455 -1.25501 1.95837 0
M  V30 1332 C 136.449 -1.4685 0.844485 0
M  V30 1333 O 137.655 -1.47651 1.02952 0
M  V30 1334 H 134.03 -0.421447 0.622805 0
M  V30 1335 H 136.001 -0.895821 2.84636 0
M  V30 1336 C 134.75 -2.59124 2.31841 0
M  V30 1337 H 134.073 -2.43514 3.17082 0
M  V30 1338 H 135.513 -3.32371 2.6326 0
M  V30 1339 C 133.972 -3.16488 1.15486 0
M  V30 1340 O 134.502 -3.99365 0.432535 0
M  V30 1341 N 132.708 -2.75305 0.930349 0
M  V30 1342 H 132.255 -2.08013 1.51948 0
M  V30 1343 H 132.213 -3.14024 0.153634 0
M  V30 1344 N 135.985 -1.50799 -0.457987 0
M  V30 1345 C 137.396 -1.55152 -1.0385 0
M  V30 1346 C 137.747 -0.362719 -1.92818 0
M  V30 1347 O 136.872 0.522915 -2.09987 0
M  V30 1348 C 137.467 -2.81173 -1.89017 0
M  V30 1349 C 136.026 -2.88164 -2.42154 0
M  V30 1350 C 135.173 -2.49591 -1.20829 0
M  V30 1351 H 138.124 -1.56874 -0.240068 0
M  V30 1352 H 138.145 -2.63769 -2.74238 0
M  V30 1353 H 137.657 -3.67677 -1.24238 0
M  V30 1354 H 135.758 -2.06042 -3.10447 0
M  V30 1355 H 135.871 -3.91356 -2.76364 0
M  V30 1356 H 134.235 -2.02322 -1.54719 0
M  V30 1357 H 135.018 -3.38418 -0.576927 0
M  V30 1358 N 137.463 0.71206 -1.40597 0
M  V30 1359 C 138.688 1.50617 -1.42581 0
M  V30 1360 C 139.113 1.88079 -0.0282102 0
M  V30 1361 O 138.471 1.53511 0.964579 0
M  V30 1362 C 138.519 2.7557 -2.3258 0
M  V30 1363 O 137.623 3.72414 -1.77148 0
M  V30 1364 H 136.964 0.453966 -0.484573 0
M  V30 1365 H 139.494 0.876649 -1.84868 0
M  V30 1366 H 139.504 3.2406 -2.47889 0
M  V30 1367 H 138.179 2.47639 -3.34138 0
M  V30 1368 H 136.756 3.31276 -1.71204 0
M  V30 1369 N 138.941 1.26152 0.944643 0
M  V30 1370 C 139.873 1.03199 2.04652 0
M  V30 1371 C 140.886 -0.00642356 1.62799 0
M  V30 1372 O 142.075 0.233263 1.76969 0
M  V30 1373 C 139.175 0.540111 3.34568 0
M  V30 1374 C 138.348 1.64697 4.05208 0
M  V30 1375 C 137.407 1.15374 5.13396 0
M  V30 1376 O 136.433 1.85013 5.38293 0
M  V30 1377 N 137.635 0.00031529 5.805 0
M  V30 1378 H 140.4 1.9808 2.2491 0
M  V30 1379 H 137.961 1.17491 1.11389 0
M  V30 1380 H 139.953 0.194401 4.04233 0
M  V30 1381 H 138.523 -0.315021 3.11009 0
M  V30 1382 H 137.743 2.16379 3.29506 0
M  V30 1383 H 139.031 2.3903 4.49157 0
M  V30 1384 H 138.429 -0.581336 5.62705 0
M  V30 1385 H 136.986 -0.286346 6.51171 0
M  V30 1386 N 140.419 -1.14872 1.07899 0
M  V30 1387 C 141.696 -1.81928 0.71845 0
M  V30 1388 C 142.076 -1.95417 -0.798455 0
M  V30 1389 O 141.424 -1.50997 -1.715 0
M  V30 1390 C 141.634 -3.17937 1.43935 0
M  V30 1391 C 142.982 -3.93501 1.59506 0
M  V30 1392 O 144.006 -3.27509 1.40058 0
M  V30 1393 O 142.865 -5.1183 1.91551 0
M  V30 1394 H 139.959 -0.78628 0.256305 0
M  V30 1395 H 142.505 -1.21934 1.18026 0
M  V30 1396 H 141.277 -3.0325 2.47295 0
M  V30 1397 H 140.9 -3.85619 0.968687 0
M  V30 1398 N 141.898 -0.863906 -1.31812 0
M  V30 1399 C 143.144 -0.472535 -1.97218 0
M  V30 1400 C 143.477 0.971394 -1.68159 0
M  V30 1401 O 142.752 1.68309 -0.974798 0
M  V30 1402 C 143.035 -0.723054 -3.52766 0
M  V30 1403 C 142.888 -2.21608 -3.91421 0
M  V30 1404 C 144.207 -0.185522 -4.39709 0
M  V30 1405 H 141.326 -0.173158 -0.71637 0
M  V30 1406 H 143.968 -1.08403 -1.56041 0
M  V30 1407 H 142.118 -0.202577 -3.87971 0
M  V30 1408 H 143.79 -2.80334 -3.66347 0
M  V30 1409 H 142.033 -2.691 -3.40246 0
M  V30 1410 H 142.704 -2.34203 -4.99853 0
M  V30 1411 H 145.18 -0.630726 -4.11292 0
M  V30 1412 H 144.056 -0.390306 -5.47511 0
M  V30 1413 H 144.317 0.912229 -4.32586 0
M  V30 1414 N 143.376 1.44774 -0.622745 0
M  V30 1415 C 144.604 2.06487 -0.130722 0
M  V30 1416 C 145.019 1.46476 1.19123 0
M  V30 1417 O 144.376 0.584502 1.72887 0
M  V30 1418 C 144.427 3.615 -0.000807207 0
M  V30 1419 O 144.148 4.19274 -1.27048 0
M  V30 1420 C 145.649 4.40229 0.520898 0
M  V30 1421 H 142.869 0.666704 -0.0758106 0
M  V30 1422 H 145.413 1.85779 -0.854774 0
M  V30 1423 H 143.568 3.81498 0.673643 0
M  V30 1424 H 143.982 5.12622 -1.1099 0
M  V30 1425 H 145.456 5.49144 0.560838 0
M  V30 1426 H 145.933 4.1108 1.54627 0
M  V30 1427 H 146.539 4.25131 -0.120018 0
M  V30 1428 N 144.854 0.36279 1.53368 0
M  V30 1429 C 146.1 -0.228113 2.01513 0
M  V30 1430 C 146.433 -1.48648 1.2497 0
M  V30 1431 O 145.708 -1.91459 0.342616 0
M  V30 1432 C 145.991 -0.522884 3.56284 0
M  V30 1433 C 145.844 0.74892 4.43521 0
M  V30 1434 C 147.163 -1.32461 4.19693 0
M  V30 1435 H 144.282 -0.0814343 0.732487 0
M  V30 1436 H 146.924 0.48713 1.83649 0
M  V30 1437 H 145.074 -1.1322 3.71636 0
M  V30 1438 H 146.746 1.38648 4.39971 0
M  V30 1439 H 144.989 1.36986 4.11603 0
M  V30 1440 H 145.66 0.497667 5.49752 0
M  V30 1441 H 148.136 -0.809203 4.08156 0
M  V30 1442 H 147.012 -1.49961 5.28018 0
M  V30 1443 H 147.273 -2.33232 3.75573 0
M  V30 1444 N 146.332 -1.57332 0.0918853 0
M  V30 1445 C 147.743 -1.81496 -0.437739 0
M  V30 1446 C 148.094 -1.00727 -1.6837 0
M  V30 1447 O 147.219 -0.235694 -2.15113 0
M  V30 1448 C 147.814 -3.29197 -0.800939 0
M  V30 1449 C 146.373 -3.54136 -1.27532 0
M  V30 1450 C 145.52 -2.75979 -0.270392 0
M  V30 1451 H 148.471 -1.55494 0.317366 0
M  V30 1452 H 148.492 -3.42344 -1.66074 0
M  V30 1453 H 148.004 -3.87955 0.106078 0
M  V30 1454 H 146.105 -3.00705 -2.20016 0
M  V30 1455 H 146.218 -4.62792 -1.23938 0
M  V30 1456 H 144.582 -2.43349 -0.751872 0
M  V30 1457 H 145.365 -3.37484 0.629248 0
M  V30 1458 N 147.81 0.181792 -1.56548 0
M  V30 1459 C 149.05 0.906711 -1.83189 0
M  V30 1460 C 149.414 1.79882 -0.671312 0
M  V30 1461 O 150.615 2.56054 -0.81792 0
M  V30 1462 C 148.886 1.69023 -3.14906 0
M  V30 1463 S 150.445 2.46535 -3.62996 0
M  V30 1464 H 147.263 0.303877 -0.642791 0
M  V30 1465 H 149.865 0.169107 -1.94767 0
M  V30 1466 H 148.569 1.02571 -3.97376 0
M  V30 1467 H 148.1 2.46941 -3.06241 0
M  V30 1468 H 150.115 3.71014 -3.29489 0
M  V30 1469 N 149.288 1.51039 0.449983 0
M  V30 1470 C 150.699 1.557 1.03026 0
M  V30 1471 C 151.05 0.372939 1.92623 0
M  V30 1472 O 150.175 -0.511771 2.10261 0
M  V30 1473 C 150.77 2.82171 1.87523 0
M  V30 1474 C 149.329 2.89444 2.40622 0
M  V30 1475 C 148.476 2.50228 1.19504 0
M  V30 1476 H 151.427 1.56999 0.231745 0
M  V30 1477 H 151.448 2.65219 2.72835 0
M  V30 1478 H 150.96 3.68331 1.22286 0
M  V30 1479 H 149.061 2.07685 3.0935 0
M  V30 1480 H 149.174 3.92816 2.74285 0
M  V30 1481 H 147.538 2.03139 1.53644 0
M  V30 1482 H 148.321 3.38719 0.558972 0
M  V30 1483 N 150.766 -0.704594 1.40972 0
M  V30 1484 C 152.012 -1.46675 1.40051 0
M  V30 1485 C 152.345 -1.94199 0.00641102 0
M  V30 1486 O 151.62 -1.68916 -0.964235 0
M  V30 1487 C 151.903 -2.68505 2.39952 0
M  V30 1488 C 151.756 -2.26805 3.88432 0
M  V30 1489 C 153.075 -3.70686 2.37233 0
M  V30 1490 H 150.194 -0.532015 0.510028 0
M  V30 1491 H 152.836 -0.803255 1.72185 0
M  V30 1492 H 150.986 -3.25114 2.1268 0
M  V30 1493 H 152.658 -1.75592 4.26574 0
M  V30 1494 H 150.901 -1.58685 4.03734 0
M  V30 1495 H 151.572 -3.14181 4.53866 0
M  V30 1496 H 154.048 -3.23731 2.61415 0
M  V30 1497 H 152.924 -4.53553 3.09162 0
M  V30 1498 H 153.185 -4.19754 1.38777 0
M  V30 1499 N 152.244 -1.26651 -0.937939 0
M  V30 1500 C 153.655 -1.1125 -1.49934 0
M  V30 1501 C 154.006 0.306077 -1.93798 0
M  V30 1502 O 153.131 1.19792 -1.80219 0
M  V30 1503 C 153.726 -2.01339 -2.72485 0
M  V30 1504 C 152.285 -1.90074 -3.24883 0
M  V30 1505 C 151.432 -1.94498 -1.97651 0
M  V30 1506 H 154.383 -1.39693 -0.753091 0
M  V30 1507 H 154.404 -1.56319 -3.46907 0
M  V30 1508 H 153.916 -3.04577 -2.40529 0
M  V30 1509 H 152.017 -0.897827 -3.61621 0
M  V30 1510 H 152.13 -2.75778 -3.9177 0
M  V30 1511 H 150.494 -1.38591 -2.13693 0
M  V30 1512 H 151.277 -2.99372 -1.68022 0
M  V30 1513 N 153.722 1.14298 -1.08507 0
M  V30 1514 C 155.133 1.66926 -0.836227 0
M  V30 1515 C 155.484 1.85576 0.63686 0
M  V30 1516 O 154.609 1.56767 1.49175 0
M  V30 1517 C 155.204 3.03219 -1.51142 0
M  V30 1518 C 153.763 3.52876 -1.30979 0
M  V30 1519 C 152.91 2.2833 -1.57356 0
M  V30 1520 H 155.861 0.983491 -1.24552 0
M  V30 1521 H 155.882 3.68726 -0.939211 0
M  V30 1522 H 155.394 2.89612 -2.58353 0
M  V30 1523 H 153.495 3.71703 -0.258429 0
M  V30 1524 H 153.608 4.33586 -2.03814 0
M  V30 1525 H 151.972 2.34454 -0.995164 0
M  V30 1526 H 152.755 2.17298 -2.65775 0
M  V30 1527 N 155.201 0.870884 1.31352 0
M  V30 1528 C 156.612 0.534714 1.78879 0
M  V30 1529 C 156.963 -0.948423 1.71754 0
M  V30 1530 O 156.088 -1.74055 1.28584 0
M  V30 1531 C 156.683 0.963839 3.24801 0
M  V30 1532 C 155.242 0.679311 3.70219 0
M  V30 1533 C 154.389 1.15465 2.52117 0
M  V30 1534 H 157.34 1.05651 1.18421 0
M  V30 1535 H 157.361 0.286892 3.79417 0
M  V30 1536 H 156.873 2.04332 3.29955 0
M  V30 1537 H 154.974 -0.388769 3.70566 0
M  V30 1538 H 155.087 1.25698 4.62317 0
M  V30 1539 H 153.451 0.574383 2.48139 0
M  V30 1540 H 154.234 2.24157 2.60016 0
M  V30 1541 N 156.679 -1.44442 0.630414 0
M  V30 1542 C 158.09 -1.85434 0.217063 0
M  V30 1543 C 158.441 -1.52748 -1.23136 0
M  V30 1544 O 157.566 -0.965205 -1.93682 0
M  V30 1545 C 158.161 -3.36581 0.387168 0
M  V30 1546 C 156.72 -3.76389 0.0283297 0
M  V30 1547 C 155.867 -2.68296 0.700889 0
M  V30 1548 H 158.818 -1.34919 0.83562 0
M  V30 1549 H 158.839 -3.78657 -0.374086 0
M  V30 1550 H 158.351 -3.60339 1.44144 0
M  V30 1551 H 156.452 -3.58246 -1.02423 0
M  V30 1552 H 156.565 -4.77095 0.437892 0
M  V30 1553 H 154.929 -2.54335 0.136267 0
M  V30 1554 H 155.712 -2.94887 1.75774 0
M  V30 1555 N 158.157 -0.370918 -1.53173 0
M  V30 1556 C 159.568 0.107139 -1.86392 0
M  V30 1557 C 159.919 1.47714 -1.29132 0
M  V30 1558 O 159.044 2.07464 -0.615439 0
M  V30 1559 C 159.639 0.201187 -3.38202 0
M  V30 1560 C 158.198 0.623507 -3.712 0
M  V30 1561 C 157.345 -0.225978 -2.76378 0
M  V30 1562 H 160.296 -0.58951 -1.47345 0
M  V30 1563 H 160.317 1.02377 -3.66468 0
M  V30 1564 H 159.829 -0.796058 -3.79848 0
M  V30 1565 H 157.93 1.62879 -3.35114 0
M  V30 1566 H 158.043 0.394414 -4.77474 0
M  V30 1567 H 156.407 0.305962 -2.52856 0
M  V30 1568 H 157.19 -1.22086 -3.20858 0
M  V30 1569 N 159.635 1.57281 -0.100228 0
M  V30 1570 C 160.875 1.96419 0.56558 0
M  V30 1571 C 161.239 0.981265 1.65031 0
M  V30 1572 O 162.44 1.26133 2.37369 0
M  V30 1573 C 160.711 3.39996 1.10171 0
M  V30 1574 S 162.27 4.01134 1.77867 0
M  V30 1575 H 159.088 0.68667 0.184406 0
M  V30 1576 H 161.69 1.94662 -0.180851 0
M  V30 1577 H 160.394 4.09296 0.300803 0
M  V30 1578 H 159.925 3.45361 1.88385 0
M  V30 1579 H 161.94 3.90358 3.06326 0
M  V30 1580 N 161.113 -0.173488 1.56642 0
M  V30 1581 C 162.353 -0.896984 1.83667 0
M  V30 1582 C 162.717 -1.79523 0.680842 0
M  V30 1583 O 163.918 -2.55616 0.831488 0
M  V30 1584 C 162.189 -1.67351 3.15798 0
M  V30 1585 S 163.748 -2.44607 3.64298 0
M  V30 1586 H 160.566 -0.300464 0.644393 0
M  V30 1587 H 163.168 -0.158775 1.94854 0
M  V30 1588 H 161.872 -1.00462 3.97914 0
M  V30 1589 H 161.403 -2.45313 3.07546 0
M  V30 1590 H 163.418 -3.69261 3.31452 0
M  V30 1591 N 162.591 -1.51276 -0.441967 0
M  V30 1592 C 163.541 -1.6864 -1.53442 0
M  V30 1593 C 164.525 -0.540444 -1.51552 0
M  V30 1594 O 165.717 -0.796157 -1.58083 0
M  V30 1595 C 162.846 -1.8106 -2.91672 0
M  V30 1596 C 161.932 -3.01424 -2.98336 0
M  V30 1597 N 162.323 -4.2467 -2.74752 0
M  V30 1598 C 160.621 -3.00584 -3.29493 0
M  V30 1599 C 161.322 -5.05891 -2.87139 0
M  V30 1600 N 160.298 -4.40442 -3.18609 0
M  V30 1601 H 164.1 -2.61598 -1.33954 0
M  V30 1602 H 161.614 -1.4886 -0.6492 0
M  V30 1603 H 163.611 -1.91609 -3.70259 0
M  V30 1604 H 162.271 -0.892795 -3.12185 0
M  V30 1605 H 163.282 -4.53691 -2.49769 0
M  V30 1606 H 159.959 -2.18417 -3.55809 0
M  V30 1607 H 161.349 -6.13983 -2.72899 0
M  V30 1608 N 164.069 0.697108 -1.41344 0
M  V30 1609 C 165.48 1.27697 -1.36199 0
M  V30 1610 C 165.831 1.9615 -0.0443463 0
M  V30 1611 O 164.956 1.98689 0.857419 0
M  V30 1612 C 165.551 2.32223 -2.46694 0
M  V30 1613 C 164.11 2.8579 -2.44952 0
M  V30 1614 C 163.257 1.59807 -2.26621 0
M  V30 1615 H 166.208 0.491968 -1.50882 0
M  V30 1616 H 166.229 3.1348 -2.15664 0
M  V30 1617 H 165.741 1.82373 -3.42581 0
M  V30 1618 H 163.842 3.3982 -1.52817 0
M  V30 1619 H 163.955 3.36325 -3.41207 0
M  V30 1620 H 162.319 1.8556 -1.7447 0
M  V30 1621 H 163.102 1.11956 -3.24532 0
M  V30 1622 N 165.547 1.27147 0.931209 0
M  V30 1623 C 166.963 1.04475 1.20653 0
M  V30 1624 C 167.163 -0.223885 2.00252 0
M  V30 1625 O 166.219 -0.930332 2.34736 0
M  V30 1626 C 167.532 2.28209 1.95809 0
M  V30 1627 C 169.08 2.33211 2.08762 0
M  V30 1628 C 169.555 3.56665 2.87323 0
M  V30 1629 N 171.046 3.57201 2.94892 0
M  V30 1630 C 171.781 4.49395 3.56134 0
M  V30 1631 N 171.277 5.51889 4.18796 0
M  V30 1632 N 173.07 4.37026 3.53504 0
M  V30 1633 H 165.221 2.08612 0.399333 0
M  V30 1634 H 167.484 0.917312 0.239253 0
M  V30 1635 H 167.19 3.20538 1.44736 0
M  V30 1636 H 167.064 2.33247 2.96438 0
M  V30 1637 H 169.451 1.41391 2.59023 0
M  V30 1638 H 169.532 2.32178 1.07364 0
M  V30 1639 H 169.176 4.4882 2.37746 0
M  V30 1640 H 169.106 3.54948 3.88998 0
M  V30 1641 H 171.597 2.83074 2.50354 0
M  V30 1642 H 171.91 6.18409 4.63454 0
M  V30 1643 H 170.255 5.55735 4.17353 0
M  V30 1644 H 173.446 3.56166 3.03749 0
M  V30 1645 H 173.619 5.09067 4.00942 0
M  V30 1646 N 167.025 -1.13721 1.09112 0
M  V30 1647 C 167.955 -2.21148 0.749385 0
M  V30 1648 C 168.936 -1.6792 -0.271475 0
M  V30 1649 O 170.121 -1.93693 -0.140251 0
M  V30 1650 C 167.251 -3.46905 0.165659 0
M  V30 1651 C 166.205 -4.13203 1.11567 0
M  V30 1652 C 165.531 -5.33248 0.393809 0
M  V30 1653 C 166.831 -4.60912 2.45678 0
M  V30 1654 H 168.525 -2.4999 1.64758 0
M  V30 1655 H 166.071 -1.20156 0.793626 0
M  V30 1656 H 168.024 -4.21313 -0.085466 0
M  V30 1657 H 166.748 -3.17449 -0.767714 0
M  V30 1658 H 165.407 -3.40758 1.35202 0
M  V30 1659 H 165.055 -5.00054 -0.543599 0
M  V30 1660 H 164.755 -5.78552 1.02721 0
M  V30 1661 H 166.279 -6.10413 0.150908 0
M  V30 1662 H 167.693 -5.26759 2.26269 0
M  V30 1663 H 166.09 -5.16944 3.04776 0
M  V30 1664 H 167.16 -3.75603 3.06677 0
M  V30 1665 N 168.503 -0.877838 -1.30888 0
M  V30 1666 C 169.728 -0.506629 -2.01117 0
M  V30 1667 C 170.153 0.895564 -1.65412 0
M  V30 1668 O 169.511 1.5923 -0.866922 0
M  V30 1669 C 169.559 -0.680223 -3.54126 0
M  V30 1670 O 168.663 0.277033 -4.11468 0
M  V30 1671 H 168.004 -0.200518 -0.633 0
M  V30 1672 H 170.534 -1.18342 -1.66902 0
M  V30 1673 H 170.544 -0.5765 -4.03907 0
M  V30 1674 H 169.219 -1.70261 -3.79452 0
M  V30 1675 H 167.796 0.127606 -3.72682 0
M  V30 1676 N 169.982 1.44106 -0.638065 0
M  V30 1677 C 170.912 2.33448 0.0494287 0
M  V30 1678 C 171.893 1.48606 0.827672 0
M  V30 1679 O 173.078 1.77308 0.792173 0
M  V30 1680 C 170.208 3.31771 1.02691 0
M  V30 1681 C 169.162 4.26485 0.359823 0
M  V30 1682 C 168.488 5.14729 1.44769 0
M  V30 1683 C 169.788 5.17056 -0.738296 0
M  V30 1684 H 171.482 2.91183 -0.696636 0
M  V30 1685 H 169.028 1.40014 -0.336456 0
M  V30 1686 H 170.981 3.93161 1.51666 0
M  V30 1687 H 169.705 2.7226 1.80395 0
M  V30 1688 H 168.364 3.66437 -0.10934 0
M  V30 1689 H 168.012 4.51566 2.21578 0
M  V30 1690 H 167.712 5.78913 1.00668 0
M  V30 1691 H 169.236 5.78991 1.93911 0
M  V30 1692 H 170.65 5.72342 -0.331354 0
M  V30 1693 H 169.047 5.89879 -1.10286 0
M  V30 1694 H 170.117 4.57652 -1.60258 0
M  V30 1695 N 171.46 0.379036 1.52974 0
M  V30 1696 C 172.41 -0.477772 2.22938 0
M  V30 1697 C 173.394 -1.03792 1.22948 0
M  V30 1698 O 174.586 -0.965725 1.48333 0
M  V30 1699 C 171.715 -1.60994 3.03209 0
M  V30 1700 C 170.801 -1.06203 4.10587 0
M  V30 1701 N 171.192 -0.238214 5.05239 0
M  V30 1702 C 169.49 -1.33554 4.25534 0
M  V30 1703 C 170.191 0.0633235 5.81666 0
M  V30 1704 N 169.167 -0.537901 5.40932 0
M  V30 1705 H 172.969 0.158295 2.93473 0
M  V30 1706 H 170.483 0.187778 1.61311 0
M  V30 1707 H 172.48 -2.23607 3.5186 0
M  V30 1708 H 171.14 -2.24893 2.34207 0
M  V30 1709 H 172.151 0.123695 5.17752 0
M  V30 1710 H 168.828 -1.97632 3.6776 0
M  V30 1711 H 170.218 0.730161 6.67921 0
M  V30 1712 N 172.938 -1.57226 0.108567 0
M  V30 1713 C 174.354 -1.5766 -0.248058 0
M  V30 1714 C 174.554 -1.12063 -1.67464 0
M  V30 1715 O 173.61 -0.803236 -2.39383 0
M  V30 1716 C 174.923 -3.0069 -0.0242287 0
M  V30 1717 C 176.471 -3.12868 -0.0909372 0
M  V30 1718 C 176.946 -4.57879 0.105067 0
M  V30 1719 N 178.437 -4.63172 0.0506846 0
M  V30 1720 C 179.172 -5.73126 0.177396 0
M  V30 1721 N 178.668 -6.91866 0.359696 0
M  V30 1722 N 180.461 -5.61977 0.117709 0
M  V30 1723 H 172.612 -1.85169 1.04049 0
M  V30 1724 H 174.875 -0.85529 0.40888 0
M  V30 1725 H 174.581 -3.38299 0.961604 0
M  V30 1726 H 174.455 -3.6945 -0.76068 0
M  V30 1727 H 176.842 -2.75124 -1.06729 0
M  V30 1728 H 176.923 -2.46672 0.677225 0
M  V30 1729 H 176.567 -4.96321 1.07834 0
M  V30 1730 H 176.497 -5.22153 -0.682954 0
M  V30 1731 H 178.988 -3.778 -0.0871266 0
M  V30 1732 H 179.301 -7.71503 0.447529 0
M  V30 1733 H 177.646 -6.93874 0.395536 0
M  V30 1734 H 180.837 -4.68094 -0.0236741 0
M  V30 1735 H 181.01 -6.47627 0.219905 0
M  V30 1736 N 174.416 0.165178 -1.56732 0
M  V30 1737 C 175.827 0.727046 -1.71962 0
M  V30 1738 C 176.178 1.82508 -0.720078 0
M  V30 1739 O 175.303 2.16082 0.117242 0
M  V30 1740 C 175.898 1.32559 -3.11791 0
M  V30 1741 C 174.457 1.83422 -3.28684 0
M  V30 1742 C 173.604 0.715567 -2.67908 0
M  V30 1743 H 176.555 -0.0602896 -1.58585 0
M  V30 1744 H 176.576 2.19533 -3.10782 0
M  V30 1745 H 176.088 0.526195 -3.84516 0
M  V30 1746 H 174.189 2.65986 -2.60926 0
M  V30 1747 H 174.302 1.97543 -4.36478 0
M  V30 1748 H 172.666 1.13758 -2.27884 0
M  V30 1749 H 173.449 -0.0720836 -3.43224 0
M  V30 1750 N 175.894 1.51508 0.433938 0
M  V30 1751 C 176.857 1.72473 1.50949 0
M  V30 1752 C 177.857 0.594725 1.49398 0
M  V30 1753 O 179.047 0.862315 1.5136 0
M  V30 1754 C 176.179 1.78431 2.90474 0
M  V30 1755 H 177.372 2.68467 1.33662 0
M  V30 1756 H 174.925 1.41549 0.662836 0
M  V30 1757 H 175.66 0.842645 3.13161 0
M  V30 1758 H 175.445 2.60558 2.93005 0
M  V30 1759 H 176.935 1.96479 3.68491 0
M  V30 1760 N 177.372 -0.689602 1.41712 0
M  V30 1761 C 178.302 -1.81577 1.46806 0
M  V30 1762 C 179.283 -1.66945 0.326105 0
M  V30 1763 O 180.468 -1.86588 0.538377 0
M  V30 1764 C 177.598 -3.19762 1.35535 0
M  V30 1765 C 176.552 -3.49107 2.47605 0
M  V30 1766 C 175.878 -4.86711 2.21397 0
M  V30 1767 C 177.178 -3.47483 3.89939 0
M  V30 1768 H 178.872 -1.7757 2.41058 0
M  V30 1769 H 176.418 -0.852887 1.16025 0
M  V30 1770 H 178.371 -3.98263 1.3771 0
M  V30 1771 H 177.095 -3.24409 0.377708 0
M  V30 1772 H 175.754 -2.72959 2.44722 0
M  V30 1773 H 175.402 -4.8799 1.21961 0
M  V30 1774 H 175.102 -5.0731 2.96497 0
M  V30 1775 H 176.626 -5.67515 2.25297 0
M  V30 1776 H 178.04 -4.1598 3.94505 0
M  V30 1777 H 176.437 -3.79615 4.64771 0
M  V30 1778 H 177.507 -2.46341 4.17665 0
M  V30 1779 N 178.85 -1.27639 -0.924453 0
M  V30 1780 C 179.76 -1.12466 -2.05885 0
M  V30 1781 C 180.776 -0.053869 -1.73917 0
M  V30 1782 O 181.952 -0.261012 -1.99702 0
M  V30 1783 C 179.017 -0.776768 -3.37886 0
M  V30 1784 C 178.078 -1.92878 -3.83532 0
M  V30 1785 C 177.311 -1.59739 -5.09234 0
M  V30 1786 O 177.534 -0.506782 -5.68144 0
M  V30 1787 O 176.468 -2.43761 -5.50331 0
M  V30 1788 H 180.294 -2.07671 -2.21599 0
M  V30 1789 H 177.879 -1.06857 -1.04413 0
M  V30 1790 H 179.761 -0.596229 -4.17161 0
M  V30 1791 H 178.436 0.145732 -3.23372 0
M  V30 1792 H 177.343 -2.1644 -3.0513 0
M  V30 1793 H 178.676 -2.8316 -4.02593 0
M  V30 1794 N 180.328 1.1314 -1.09713 0
M  V30 1795 C 181.605 1.80762 -0.747302 0
M  V30 1796 C 181.985 1.96663 0.767265 0
M  V30 1797 O 181.333 1.53706 1.69076 0
M  V30 1798 C 181.543 3.15606 -1.48975 0
M  V30 1799 C 182.891 3.90914 -1.65746 0
M  V30 1800 O 183.915 3.25239 -1.45251 0
M  V30 1801 O 182.774 5.08718 -1.9967 0
M  V30 1802 H 179.868 0.782103 -0.268782 0
M  V30 1803 H 182.414 1.20041 -1.19951 0
M  V30 1804 H 181.186 2.99278 -2.52088 0
M  V30 1805 H 180.809 3.84029 -1.02991 0
M  V30 1806 N 181.806 0.884767 1.30421 0
M  V30 1807 C 182.736 0.367574 2.30589 0
M  V30 1808 C 183.717 -0.549464 1.60981 0
M  V30 1809 O 184.902 -0.46336 1.88591 0
M  V30 1810 C 182.032 -0.418944 3.44764 0
M  V30 1811 C 180.986 0.406316 4.26067 0
M  V30 1812 C 180.312 -0.506793 5.32293 0
M  V30 1813 C 181.612 1.64832 4.95608 0
M  V30 1814 H 183.306 1.20462 2.74097 0
M  V30 1815 H 180.852 0.580695 1.31772 0
M  V30 1816 H 182.805 -0.791395 4.13902 0
M  V30 1817 H 181.529 -1.28964 3.0006 0
M  V30 1818 H 180.188 0.760903 3.58617 0
M  V30 1819 H 179.836 -1.37519 4.83836 0
M  V30 1820 H 179.536 0.0415828 5.87585 0
M  V30 1821 H 181.06 -0.875764 6.04287 0
M  V30 1822 H 182.474 1.34646 5.57264 0
M  V30 1823 H 180.871 2.13688 5.60765 0
M  V30 1824 H 181.941 2.39284 4.21748 0
M  V30 1825 N 183.284 -1.43765 0.645699 0
M  V30 1826 C 184.214 -2.33471 -0.0370477 0
M  V30 1827 C 185.195 -1.49042 -0.819779 0
M  V30 1828 O 186.38 -1.77726 -0.782758 0
M  V30 1829 C 183.51 -3.32311 -1.0093 0
M  V30 1830 C 182.464 -4.2667 -0.337201 0
M  V30 1831 C 181.79 -5.1549 -1.42037 0
M  V30 1832 C 183.09 -5.16657 0.765706 0
M  V30 1833 H 184.784 -2.90809 0.712069 0
M  V30 1834 H 182.33 -1.39834 0.343876 0
M  V30 1835 H 184.283 -3.9396 -1.49578 0
M  V30 1836 H 183.007 -2.73213 -1.78948 0
M  V30 1837 H 181.666 -3.66374 0.128771 0
M  V30 1838 H 181.314 -4.52735 -2.1918 0
M  V30 1839 H 181.014 -5.79438 -0.975966 0
M  V30 1840 H 182.538 -5.80012 -1.90838 0
M  V30 1841 H 183.952 -5.72158 0.361702 0
M  V30 1842 H 182.349 -5.89286 1.13413 0
M  V30 1843 H 183.419 -4.56796 1.62683 0
M  V30 1844 N 184.763 -0.387143 -1.52771 0
M  V30 1845 C 185.693 0.440551 -2.29306 0
M  V30 1846 C 186.674 1.06535 -1.32606 0
M  V30 1847 O 187.859 1.07853 -1.61497 0
M  V30 1848 C 184.989 1.56919 -3.09829 0
M  V30 1849 C 183.943 1.07054 -4.14395 0
M  V30 1850 C 183.269 2.29109 -4.83129 0
M  V30 1851 C 184.569 0.140015 -5.22112 0
M  V30 1852 H 186.263 -0.198026 -2.98744 0
M  V30 1853 H 183.809 -0.09668 -1.43675 0
M  V30 1854 H 185.762 2.15503 -3.62128 0
M  V30 1855 H 184.486 2.23532 -2.3812 0
M  V30 1856 H 183.145 0.507247 -3.63074 0
M  V30 1857 H 182.793 2.94227 -4.0797 0
M  V30 1858 H 182.493 1.96406 -5.53804 0
M  V30 1859 H 184.017 2.88339 -5.38231 0
M  V30 1860 H 185.431 0.633978 -5.69784 0
M  V30 1861 H 183.828 -0.0971485 -6.00021 0
M  V30 1862 H 184.898 -0.811711 -4.78058 0
M  V30 1863 N 186.241 1.57166 -0.116904 0
M  V30 1864 C 187.489 1.94737 0.540533 0
M  V30 1865 C 187.81 1.00096 1.67349 0
M  V30 1866 O 187.08 0.0568854 1.95817 0
M  V30 1867 H 185.66 0.718981 0.202669 0
M  V30 1868 H 188.322 1.94017 -0.185353 0
M  V30 1869 H 187.418 2.97719 0.936483 0
M  V30 1870 N 187.719 -0.156864 1.56817 0
M  V30 1871 C 188.944 -0.890331 1.87318 0
M  V30 1872 C 189.369 -1.74394 0.704855 0
M  V30 1873 O 188.727 -1.77972 -0.345786 0
M  V30 1874 C 188.775 -1.73102 3.16336 0
M  V30 1875 O 187.879 -2.83422 2.99576 0
M  V30 1876 H 187.22 -0.24857 0.615718 0
M  V30 1877 H 189.75 -0.150649 2.04045 0
M  V30 1878 H 189.76 -2.12803 3.48107 0
M  V30 1879 H 188.435 -1.10412 4.00976 0
M  V30 1880 H 187.012 -2.47199 2.7919 0
M  V30 1881 N 189.197 -1.51736 -0.425897 0
M  V30 1882 C 190.107 -1.76738 -1.54275 0
M  V30 1883 C 191.123 -0.65211 -1.61318 0
M  V30 1884 O 192.299 -0.935654 -1.78346 0
M  V30 1885 C 189.364 -1.89755 -2.90162 0
M  V30 1886 C 188.425 -3.13633 -2.93143 0
M  V30 1887 C 187.658 -3.2602 -4.22548 0
M  V30 1888 O 187.881 -2.44067 -5.15546 0
M  V30 1889 O 186.815 -4.19071 -4.32046 0
M  V30 1890 H 190.641 -2.71502 -1.36089 0
M  V30 1891 H 188.226 -1.36376 -0.610069 0
M  V30 1892 H 190.108 -2.00236 -3.70788 0
M  V30 1893 H 188.783 -0.981785 -3.08452 0
M  V30 1894 H 187.69 -3.08622 -2.11431 0
M  V30 1895 H 189.023 -4.04936 -2.798 0
M  V30 1896 N 190.675 0.682077 -1.42076 0
M  V30 1897 C 191.638 1.77756 -1.44691 0
M  V30 1898 C 192.638 1.5726 -0.335535 0
M  V30 1899 O 193.828 1.63686 -0.596037 0
M  V30 1900 C 190.96 3.16301 -1.27146 0
M  V30 1901 H 192.153 1.76826 -2.42224 0
M  V30 1902 H 189.706 0.891012 -1.28416 0
M  V30 1903 H 190.441 3.22862 -0.305075 0
M  V30 1904 H 190.226 3.32581 -2.07683 0
M  V30 1905 H 191.716 3.96241 -1.31843 0
M  V30 1906 N 192.153 1.28127 0.917671 0
M  V30 1907 C 193.101 1.11569 2.04096 0
M  V30 1908 C 194.095 0.0360242 1.69362 0
M  V30 1909 O 195.301 0.194501 1.78946 0
M  V30 1910 H 191.676 0.344097 0.668656 0
M  V30 1911 H 193.647 2.06711 2.15205 0
M  V30 1912 C 192.396 0.790197 3.38602 0
M  V30 1913 H 191.719 1.61293 3.6582 0
M  V30 1914 H 193.159 0.714271 4.1794 0
M  V30 1915 C 191.618 -0.505897 3.3308 0
M  V30 1916 O 192.148 -1.53736 3.71117 0
M  V30 1917 N 190.354 -0.505193 2.86175 0
M  V30 1918 H 189.901 0.334621 2.55417 0
M  V30 1919 H 189.859 -1.37243 2.82863 0
M  V30 1920 N 193.631 -1.12557 1.10312 0
M  V30 1921 C 194.561 -2.20341 0.772798 0
M  V30 1922 C 195.542 -1.68198 -0.25365 0
M  V30 1923 O 196.727 -1.93831 -0.119699 0
M  V30 1924 C 193.857 -3.46709 0.202443 0
M  V30 1925 C 192.811 -4.11996 1.15943 0
M  V30 1926 C 192.137 -5.328 0.450345 0
M  V30 1927 C 193.437 -4.5828 2.50552 0
M  V30 1928 H 195.131 -2.48229 1.674 0
M  V30 1929 H 192.677 -1.19308 0.806326 0
M  V30 1930 H 194.63 -4.2138 -0.0407752 0
M  V30 1931 H 193.354 -3.18245 -0.734001 0
M  V30 1932 H 192.013 -3.39305 1.38808 0
M  V30 1933 H 191.661 -5.00602 -0.490531 0
M  V30 1934 H 191.361 -5.7743 1.08851 0
M  V30 1935 H 192.885 -6.10219 0.215642 0
M  V30 1936 H 194.299 -5.2433 2.31843 0
M  V30 1937 H 192.696 -5.13683 3.10242 0
M  V30 1938 H 193.766 -3.72329 3.10643 0
M  V30 1939 N 195.109 -0.891671 -1.2995 0
M  V30 1940 C 196.337 -0.52866 -2.00032 0
M  V30 1941 C 196.752 0.884574 -1.66795 0
M  V30 1942 O 196.109 1.5827 -0.908669 0
M  V30 1943 C 196.16 -0.701814 -3.54622 0
M  V30 1944 O 195.881 -2.05942 -3.86678 0
M  V30 1945 C 197.382 -0.342683 -4.41973 0
M  V30 1946 H 194.602 -0.203659 -0.639347 0
M  V30 1947 H 197.146 -1.19881 -1.65677 0
M  V30 1948 H 195.301 -0.0789468 -3.8732 0
M  V30 1949 H 195.715 -2.08291 -4.81368 0
M  V30 1950 H 197.189 -0.514709 -5.49595 0
M  V30 1951 H 197.666 0.71975 -4.33262 0
M  V30 1952 H 198.272 -0.942154 -4.14733 0
M  V30 1953 N 196.587 1.43421 -0.653314 0
M  V30 1954 C 197.827 2.03689 -0.170346 0
M  V30 1955 C 198.191 1.50427 1.19314 0
M  V30 1956 O 199.392 2.0234 1.76952 0
M  V30 1957 C 197.663 3.56946 -0.180183 0
M  V30 1958 S 199.222 4.38171 0.234925 0
M  V30 1959 H 196.04 0.707345 -0.0719976 0
M  V30 1960 H 198.642 1.75486 -0.86167 0
M  V30 1961 H 197.346 3.93212 -1.17526 0
M  V30 1962 H 196.877 3.89791 0.531675 0
M  V30 1963 H 198.892 4.73808 1.47378 0
M  V30 1964 N 198.065 0.39524 1.52563 0
M  V30 1965 C 199.293 -0.184943 2.06072 0
M  V30 1966 C 199.708 -1.40021 1.26647 0
M  V30 1967 O 199.065 -1.79767 0.314672 0
M  V30 1968 C 199.116 -0.549179 3.57304 0
M  V30 1969 O 198.837 0.617813 4.33722 0
M  V30 1970 C 200.338 -1.18459 4.2718 0
M  V30 1971 H 197.558 -0.0265025 0.670476 0
M  V30 1972 H 200.102 0.562184 1.96621 0
M  V30 1973 H 198.257 -1.2462 3.66809 0
M  V30 1974 H 198.671 0.317091 5.23541 0
M  V30 1975 H 200.145 -1.38976 5.34219 0
M  V30 1976 H 200.622 -2.15368 3.82771 0
M  V30 1977 H 201.228 -0.528163 4.22008 0
M  V30 1978 N 199.544 -1.57102 0.125237 0
M  V30 1979 C 200.474 -2.18659 -0.819174 0
M  V30 1980 C 201.455 -1.12843 -1.27281 0
M  V30 1981 O 202.64 -1.41104 -1.33429 0
M  V30 1982 C 199.77 -2.79096 -2.06695 0
M  V30 1983 C 198.724 -3.90548 -1.75088 0
M  V30 1984 C 198.05 -4.37821 -3.06948 0
M  V30 1985 C 199.35 -5.12356 -1.01435 0
M  V30 1986 H 201.044 -2.9783 -0.306202 0
M  V30 1987 H 198.59 -1.4326 -0.145839 0
M  V30 1988 H 200.543 -3.2082 -2.73226 0
M  V30 1989 H 199.267 -1.97223 -2.60328 0
M  V30 1990 H 197.926 -3.49409 -1.10944 0
M  V30 1991 H 197.574 -3.52799 -3.58527 0
M  V30 1992 H 197.274 -5.12982 -2.86571 0
M  V30 1993 H 198.798 -4.822 -3.74587 0
M  V30 1994 H 200.212 -5.5106 -1.58132 0
M  V30 1995 H 198.609 -5.9314 -0.911319 0
M  V30 1996 H 199.679 -4.849 -0.00218681 0
M  V30 1997 N 201.022 0.148545 -1.56898 0
M  V30 1998 C 202.25 0.876389 -1.87422 0
M  V30 1999 C 202.665 1.74809 -0.713256 0
M  V30 2000 O 202.022 1.79725 0.317025 0
M  V30 2001 C 202.073 1.73438 -3.17178 0
M  V30 2002 O 201.794 0.897809 -4.28802 0
M  V30 2003 C 203.295 2.56993 -3.61205 0
M  V30 2004 H 200.515 0.253489 -0.621277 0
M  V30 2005 H 203.059 0.141798 -2.04008 0
M  V30 2006 H 201.214 2.42205 -3.0235 0
M  V30 2007 H 201.628 1.48672 -5.02988 0
M  V30 2008 H 203.102 3.12773 -4.54838 0
M  V30 2009 H 203.579 3.32958 -2.86419 0
M  V30 2010 H 204.185 1.9352 -3.78722 0
M  V30 2011 N 202.5 1.5196 0.417844 0
M  V30 2012 C 203.748 1.65263 1.16329 0
M  V30 2013 C 204.069 0.380634 1.91249 0
M  V30 2014 O 203.339 -0.604214 1.86349 0
M  V30 2015 H 201.919 0.60912 0.432414 0
M  V30 2016 H 204.581 1.88969 0.477162 0
M  V30 2017 H 203.677 2.4896 1.88217 0
M  V30 2018 N 203.978 -0.674533 1.42435 0
M  V30 2019 C 204.908 -1.80009 1.48724 0
M  V30 2020 C 205.889 -1.6659 0.343793 0
M  V30 2021 O 207.074 -1.86007 0.558137 0
M  V30 2022 C 204.204 -3.18306 1.38919 0
M  V30 2023 C 203.158 -3.46461 2.51294 0
M  V30 2024 C 202.484 -4.84335 2.26547 0
M  V30 2025 C 203.784 -3.43328 3.93603 0
M  V30 2026 H 205.478 -1.75004 2.42928 0
M  V30 2027 H 203.024 -0.840533 1.16923 0
M  V30 2028 H 204.977 -3.9678 1.41927 0
M  V30 2029 H 203.701 -3.2399 0.412094 0
M  V30 2030 H 202.36 -2.70348 2.47604 0
M  V30 2031 H 202.008 -4.86669 1.2713 0
M  V30 2032 H 201.708 -5.04136 3.01861 0
M  V30 2033 H 203.232 -5.65094 2.31304 0
M  V30 2034 H 204.646 -4.11772 3.98894 0
M  V30 2035 H 203.043 -3.74664 4.68771 0
M  V30 2036 H 204.113 -2.41897 4.20255 0
M  V30 2037 N 205.456 -1.28612 -0.910864 0
M  V30 2038 C 206.872 -1.06381 -1.18976 0
M  V30 2039 C 207.072 0.191998 -2.00583 0
M  V30 2040 O 206.128 0.892869 -2.36187 0
M  V30 2041 C 207.441 -2.31295 -1.92154 0
M  V30 2042 C 208.989 -2.36503 -2.05025 0
M  V30 2043 C 209.464 -3.61191 -2.81612 0
M  V30 2044 N 210.955 -3.61847 -2.89172 0
M  V30 2045 C 211.69 -4.55004 -3.4894 0
M  V30 2046 N 211.186 -5.58482 -4.09963 0
M  V30 2047 N 212.979 -4.42594 -3.46506 0
M  V30 2048 H 205.13 -2.09221 -0.366094 0
M  V30 2049 H 207.393 -0.921003 -0.224629 0
M  V30 2050 H 207.099 -3.228 -1.39618 0
M  V30 2051 H 206.973 -2.37934 -2.9269 0
M  V30 2052 H 209.36 -1.45494 -2.5674 0
M  V30 2053 H 209.441 -2.33857 -1.03657 0
M  V30 2054 H 209.085 -4.52545 -2.30576 0
M  V30 2055 H 209.015 -3.61092 -3.83302 0
M  V30 2056 H 211.506 -2.87022 -2.45819 0
M  V30 2057 H 211.819 -6.25704 -4.53557 0
M  V30 2058 H 210.164 -5.62305 -4.08459 0
M  V30 2059 H 213.355 -3.60953 -2.98045 0
M  V30 2060 H 213.528 -5.15381 -3.92793 0
M  V30 2061 N 206.934 1.1197 -1.10907 0
M  V30 2062 C 208.211 1.79959 -0.766432 0
M  V30 2063 C 208.591 1.97466 0.746363 0
M  V30 2064 O 207.939 1.55491 1.67436 0
M  V30 2065 C 208.149 3.14009 -1.52314 0
M  V30 2066 C 209.497 3.89134 -1.69883 0
M  V30 2067 O 210.521 3.2368 -1.48692 0
M  V30 2068 O 209.38 5.06572 -2.05054 0
M  V30 2069 H 206.474 0.779208 -0.277062 0
M  V30 2070 H 209.02 1.18762 -1.21217 0
M  V30 2071 H 207.792 2.96587 -2.55249 0
M  V30 2072 H 207.415 3.82915 -1.07059 0
M  V30 2073 N 208.412 0.89855 1.29475 0
M  V30 2074 C 209.375 0.380272 2.26023 0
M  V30 2075 C 210.375 -0.484891 1.53315 0
M  V30 2076 O 211.565 -0.290108 1.71767 0
M  V30 2077 C 208.697 -0.45651 3.3783 0
M  V30 2078 H 209.89 1.23295 2.73383 0
M  V30 2079 H 207.443 0.676589 1.40897 0
M  V30 2080 H 208.178 -1.32922 2.95808 0
M  V30 2081 H 207.963 0.163393 3.91759 0
M  V30 2082 H 209.453 -0.810466 4.0966 0
M  V30 2083 N 209.89 -1.43072 0.660911 0
M  V30 2084 C 211.115 -2.06584 0.183805 0
M  V30 2085 C 211.54 -1.49257 -1.14472 0
M  V30 2086 O 210.898 -0.605528 -1.70889 0
M  V30 2087 C 210.946 -3.60418 0.114434 0
M  V30 2088 O 210.05 -4.01981 -0.921137 0
M  V30 2089 H 209.391 -0.656669 0.0983994 0
M  V30 2090 H 211.921 -1.83447 0.906006 0
M  V30 2091 H 211.931 -4.07946 -0.0663394 0
M  V30 2092 H 210.606 -4.01519 1.08422 0
M  V30 2093 H 209.183 -3.66029 -0.71253 0
M  V30 2094 N 211.368 -0.403325 -1.52352 0
M  V30 2095 C 212.616 0.174003 -2.0135 0
M  V30 2096 C 212.937 1.46139 -1.29106 0
M  V30 2097 O 212.207 1.91448 -0.415253 0
M  V30 2098 H 210.787 0.0672911 -0.743963 0
M  V30 2099 H 213.449 -0.538235 -1.87321 0
M  V30 2100 H 212.545 0.374254 -3.09848 0
M  V30 2101 N 212.846 1.57033 -0.133567 0
M  V30 2102 C 213.809 2.14897 0.796995 0
M  V30 2103 C 214.809 1.0874 1.18458 0
M  V30 2104 O 215.999 1.34446 1.1077 0
M  V30 2105 C 213.131 2.70112 2.07973 0
M  V30 2106 H 214.324 2.98457 0.293873 0
M  V30 2107 H 211.877 1.55871 0.115787 0
M  V30 2108 H 212.612 1.9018 2.62682 0
M  V30 2109 H 212.397 3.47764 1.81115 0
M  V30 2110 H 213.887 3.14738 2.74462 0
M  V30 2111 N 214.325 -0.140222 1.56975 0
M  V30 2112 C 215.553 -0.866437 1.87884 0
M  V30 2113 C 215.968 -1.74428 0.722517 0
M  V30 2114 O 215.325 -1.79891 -0.30749 0
M  V30 2115 C 215.376 -1.71753 3.18093 0
M  V30 2116 O 215.097 -0.875056 4.29272 0
M  V30 2117 C 216.598 -2.55074 3.62563 0
M  V30 2118 H 213.818 -0.25019 0.622612 0
M  V30 2119 H 216.362 -0.130977 2.0408 0
M  V30 2120 H 214.517 -2.40598 3.03631 0
M  V30 2121 H 214.931 -1.46002 5.03769 0
M  V30 2122 H 216.405 -3.10356 4.5649 0
M  V30 2123 H 216.882 -3.31434 2.88181 0
M  V30 2124 H 217.488 -1.91509 3.79743 0
M  V30 2125 N 215.803 -1.52179 -0.40978 0
M  V30 2126 C 217.05 -1.66206 -1.15679 0
M  V30 2127 C 217.378 -0.391674 -1.90516 0
M  V30 2128 O 216.633 0.62533 -1.8544 0
M  V30 2129 C 216.932 -2.83428 -2.17723 0
M  V30 2130 C 216.598 -4.21672 -1.59699 0
M  V30 2131 C 215.26 -4.59274 -1.43599 0
M  V30 2132 C 217.612 -5.07825 -1.17317 0
M  V30 2133 C 214.94 -5.80709 -0.836328 0
M  V30 2134 C 217.292 -6.29864 -0.587691 0
M  V30 2135 C 215.956 -6.66216 -0.413818 0
M  V30 2136 H 215.226 -0.608192 -0.423301 0
M  V30 2137 H 217.873 -1.86279 -0.444097 0
M  V30 2138 H 216.178 -2.57687 -2.95135 0
M  V30 2139 H 217.875 -2.91477 -2.75394 0
M  V30 2140 H 214.465 -3.9204 -1.73213 0
M  V30 2141 H 218.649 -4.79359 -1.28565 0
M  V30 2142 H 213.905 -6.07498 -0.689626 0
M  V30 2143 H 218.079 -6.95948 -0.250894 0
M  V30 2144 H 215.706 -7.60182 0.0529471 0
M  V30 2145 N 217.281 0.66697 -1.42791 0
M  V30 2146 C 218.509 1.45505 -1.47091 0
M  V30 2147 C 218.924 1.8861 -0.0845873 0
M  V30 2148 O 218.281 1.58632 0.90234 0
M  V30 2149 C 218.332 2.69906 -2.40485 0
M  V30 2150 O 218.053 2.28608 -3.73725 0
M  V30 2151 C 219.554 3.63396 -2.53886 0
M  V30 2152 H 216.774 0.447459 -0.500022 0
M  V30 2153 H 219.318 0.818866 -1.8739 0
M  V30 2154 H 217.473 3.29696 -2.03419 0
M  V30 2155 H 217.887 3.08997 -4.23817 0
M  V30 2156 H 219.361 4.47387 -3.2334 0
M  V30 2157 H 219.838 4.09824 -1.57927 0
M  V30 2158 H 220.444 3.09495 -2.91706 0
M  V30 2159 N 218.759 1.29093 0.90403 0
M  V30 2160 C 220.005 1.17996 1.65676 0
M  V30 2161 C 220.36 -0.266816 1.90541 0
M  V30 2162 O 219.653 -1.19 1.50165 0
M  V30 2163 C 219.847 1.92224 3.01305 0
M  V30 2164 C 219.676 3.43972 2.89678 0
M  V30 2165 C 218.446 4.1332 2.90679 0
M  V30 2166 C 220.644 4.39546 2.67028 0
M  V30 2167 N 218.626 5.51463 2.69743 0
M  V30 2168 C 219.997 5.65119 2.5503 0
M  V30 2169 C 222.052 4.29359 2.52101 0
M  V30 2170 C 220.755 6.81663 2.29626 0
M  V30 2171 C 222.781 5.4565 2.28079 0
M  V30 2172 C 222.143 6.70193 2.16843 0
M  V30 2173 H 218.242 0.486759 0.612037 0
M  V30 2174 H 220.826 1.62868 1.06688 0
M  V30 2175 H 218.997 1.49773 3.58361 0
M  V30 2176 H 220.729 1.73429 3.65656 0
M  V30 2177 H 217.484 3.64984 3.01801 0
M  V30 2178 H 217.908 6.24105 2.6234 0
M  V30 2179 H 222.55 3.33769 2.59534 0
M  V30 2180 H 220.268 7.77313 2.20932 0
M  V30 2181 H 223.854 5.39664 2.1738 0
M  V30 2182 H 222.734 7.58659 1.98511 0
M  V30 2183 N 220.237 -1.11381 1.11499 0
M  V30 2184 C 221.465 -1.86934 0.88675 0
M  V30 2185 C 221.88 -1.80195 -0.563476 0
M  V30 2186 O 221.237 -1.18367 -1.38908 0
M  V30 2187 C 221.288 -3.35722 1.34064 0
M  V30 2188 O 221.009 -3.4232 2.73401 0
M  V30 2189 C 222.51 -4.2818 1.14791 0
M  V30 2190 H 219.73 -0.591117 0.317523 0
M  V30 2191 H 222.274 -1.40865 1.48248 0
M  V30 2192 H 220.429 -3.79294 0.788355 0
M  V30 2193 H 220.843 -4.34971 2.93087 0
M  V30 2194 H 222.317 -5.30817 1.5145 0
M  V30 2195 H 222.794 -4.39113 0.0875279 0
M  V30 2196 H 223.4 -3.90402 1.68721 0
M  V30 2197 N 221.715 -0.905404 -1.28997 0
M  V30 2198 C 223.126 -0.581953 -1.77398 0
M  V30 2199 C 223.477 0.902552 -1.74208 0
M  V30 2200 O 222.602 1.70584 -1.33154 0
M  V30 2201 C 223.197 -1.04961 -3.22131 0
M  V30 2202 C 221.756 -0.777229 -3.68288 0
M  V30 2203 C 220.903 -1.22109 -2.48967 0
M  V30 2204 H 223.854 -1.08754 -1.15578 0
M  V30 2205 H 223.875 -0.387387 -3.78523 0
M  V30 2206 H 223.387 -2.13008 -3.24421 0
M  V30 2207 H 221.488 0.290383 -3.71467 0
M  V30 2208 H 221.601 -1.37911 -4.58822 0
M  V30 2209 H 219.965 -0.639971 -2.46529 0
M  V30 2210 H 220.748 -2.30972 -2.53982 0
M  V30 2211 N 223.193 1.4272 -0.668489 0
M  V30 2212 C 224.418 2.06484 -0.194758 0
M  V30 2213 C 224.843 1.49862 1.13679 0
M  V30 2214 O 224.201 0.614582 1.70565 0
M  V30 2215 C 224.249 3.60353 -0.133546 0
M  V30 2216 O 223.353 4.02464 0.899806 0
M  V30 2217 H 222.694 0.656137 -0.10188 0
M  V30 2218 H 225.224 1.82964 -0.915722 0
M  V30 2219 H 225.234 4.07976 0.0447041 0
M  V30 2220 H 223.909 4.00938 -1.1055 0
M  V30 2221 H 222.486 3.66402 0.693109 0
M  V30 2222 N 224.671 0.411399 1.52136 0
M  V30 2223 C 225.896 -0.165538 2.06738 0
M  V30 2224 C 226.321 -1.379 1.27926 0
M  V30 2225 O 225.679 -1.78628 0.310114 0
M  V30 2226 C 225.727 -0.492124 3.57226 0
M  V30 2227 O 224.831 -1.58276 3.80818 0
M  V30 2228 H 224.172 -0.0132132 0.663869 0
M  V30 2229 H 226.702 0.585253 1.96051 0
M  V30 2230 H 226.712 -0.750104 4.01045 0
M  V30 2231 H 225.387 0.394922 4.14021 0
M  V30 2232 H 223.964 -1.31677 3.48877 0
M  V30 2233 N 226.149 -1.5696 0.141893 0
M  V30 2234 C 227.397 -1.95573 -0.509484 0
M  V30 2235 C 227.718 -1.02746 -1.65736 0
M  V30 2236 O 226.988 -0.0880311 -1.95702 0
M  V30 2237 H 225.568 -0.722115 -0.191205 0
M  V30 2238 H 228.23 -1.93697 0.216196 0
M  V30 2239 H 227.326 -2.99171 -0.889 0
M  V30 2240 N 227.627 0.131896 -1.57047 0
M  V30 2241 C 228.574 1.16236 -1.99393 0
M  V30 2242 C 229.544 1.41863 -0.863943 0
M  V30 2243 O 230.729 1.53946 -1.12718 0
M  V30 2244 C 227.869 2.48708 -2.39245 0
M  V30 2245 C 226.982 2.30127 -3.65603 0
M  V30 2246 C 226.117 3.55738 -3.94492 0
M  V30 2247 C 225.156 3.32259 -5.14073 0
M  V30 2248 N 224.293 4.50039 -5.38896 0
M  V30 2249 H 229.133 0.794251 -2.87221 0
M  V30 2250 H 226.67 0.380707 -1.42088 0
M  V30 2251 H 228.628 3.25969 -2.60384 0
M  V30 2252 H 227.258 2.83437 -1.54478 0
M  V30 2253 H 226.31 1.43845 -3.52154 0
M  V30 2254 H 227.622 2.08746 -4.5302 0
M  V30 2255 H 226.776 4.41423 -4.1621 0
M  V30 2256 H 225.515 3.80138 -3.05526 0
M  V30 2257 H 224.52 2.44963 -4.92212 0
M  V30 2258 H 225.745 3.09242 -6.04604 0
M  V30 2259 H 223.691 4.74584 -4.52886 0
M  V30 2260 H 223.608 4.31716 -6.2061 0
M  V30 2261 H 224.876 5.36895 -5.65123 0
M  V30 2262 N 229.106 1.52395 0.401703 0
M  V30 2263 C 230.331 1.70972 1.17403 0
M  V30 2264 C 230.756 0.421615 1.83314 0
M  V30 2265 O 230.114 -0.621564 1.70312 0
M  V30 2266 C 230.162 2.85151 2.20728 0
M  V30 2267 O 229.266 2.51238 3.27037 0
M  V30 2268 H 228.607 0.568927 0.342372 0
M  V30 2269 H 231.137 1.99131 0.469891 0
M  V30 2270 H 231.147 3.10279 2.64936 0
M  V30 2271 H 229.822 3.78603 1.7214 0
M  V30 2272 H 228.399 2.36808 2.88057 0
M  V30 2273 N 230.584 -0.659388 1.43143 0
M  V30 2274 C 231.547 -1.75432 1.47501 0
M  V30 2275 C 232.547 -1.56707 0.360512 0
M  V30 2276 O 233.737 -1.62717 0.622002 0
M  V30 2277 C 230.869 -3.14239 1.32162 0
M  V30 2278 H 232.062 -1.7295 2.45006 0
M  V30 2279 H 229.615 -0.870469 1.29817 0
M  V30 2280 H 230.35 -3.22336 0.356401 0
M  V30 2281 H 230.135 -3.29235 2.12948 0
M  V30 2282 H 231.625 -3.94094 1.3813 0
M  V30 2283 N 232.062 -1.29571 -0.897171 0
M  V30 2284 C 233.308 -1.17863 -1.65034 0
M  V30 2285 C 233.641 0.268729 -1.92332 0
M  V30 2286 O 232.916 1.19378 -1.53555 0
M  V30 2287 C 233.199 -1.995 -2.99786 0
M  V30 2288 C 233.052 -3.5239 -2.79538 0
M  V30 2289 C 234.371 -1.82335 -4.00552 0
M  V30 2290 H 231.49 -0.429528 -0.598895 0
M  V30 2291 H 234.132 -1.59072 -1.03905 0
M  V30 2292 H 232.282 -1.64485 -3.51962 0
M  V30 2293 H 233.954 -3.97401 -2.34244 0
M  V30 2294 H 232.197 -3.77187 -2.14273 0
M  V30 2295 H 232.868 -4.04787 -3.75302 0
M  V30 2296 H 235.344 -2.12924 -3.57495 0
M  V30 2297 H 234.22 -2.41801 -4.92771 0
M  V30 2298 H 234.481 -0.779209 -4.35179 0
M  V30 2299 N 233.54 1.10788 -1.12088 0
M  V30 2300 C 234.472 2.16816 -0.743213 0
M  V30 2301 C 235.485 1.6119 0.228412 0
M  V30 2302 O 236.674 1.78497 0.0102931 0
M  V30 2303 C 233.774 3.38809 -0.0787313 0
M  V30 2304 C 232.947 4.23885 -1.0789 0
M  V30 2305 C 232.006 5.24334 -0.442713 0
M  V30 2306 O 231.032 5.58497 -1.09864 0
M  V30 2307 N 232.234 5.75079 0.791457 0
M  V30 2308 H 234.999 2.49825 -1.65552 0
M  V30 2309 H 232.56 1.26373 -1.012 0
M  V30 2310 H 234.552 4.03107 0.358766 0
M  V30 2311 H 233.122 3.03805 0.736275 0
M  V30 2312 H 232.342 3.55939 -1.69414 0
M  V30 2313 H 233.63 4.77562 -1.75533 0
M  V30 2314 H 233.028 5.49517 1.3434 0
M  V30 2315 H 231.585 6.4118 1.17183 0
M  V30 2316 N 235.018 0.912232 1.28515 0
M  V30 2317 C 236.266 0.543523 1.94654 0
M  V30 2318 C 236.587 -0.9155 1.72173 0
M  V30 2319 O 235.857 -1.64708 1.06058 0
M  V30 2320 H 234.437 0.198017 0.720277 0
M  V30 2321 H 237.099 1.16126 1.56527 0
M  V30 2322 H 236.195 0.736684 3.03281 0
M  V30 2323 N 236.496 -1.42363 0.676048 0
M  V30 2324 C 237.907 -1.84649 0.275948 0
M  V30 2325 C 238.258 -1.56588 -1.18214 0
M  V30 2326 O 237.383 -1.02634 -1.90513 0
M  V30 2327 C 237.978 -3.35178 0.494053 0
M  V30 2328 C 236.537 -3.76109 0.148061 0
M  V30 2329 C 235.684 -2.65931 0.785891 0
M  V30 2330 H 238.635 -1.32192 0.878121 0
M  V30 2331 H 238.656 -3.79655 -0.25343 0
M  V30 2332 H 238.168 -3.55571 1.55535 0
M  V30 2333 H 236.269 -3.61323 -0.909742 0
M  V30 2334 H 236.382 -4.7546 0.589454 0
M  V30 2335 H 234.746 -2.53773 0.217113 0
M  V30 2336 H 235.529 -2.89146 1.85067 0
M  V30 2337 N 237.974 -0.419461 -1.51915 0
M  V30 2338 C 239.385 0.0477853 -1.86639 0
M  V30 2339 C 239.736 1.43531 -1.33766 0
M  V30 2340 O 238.861 2.05401 -0.68113 0
M  V30 2341 C 239.456 0.0934885 -3.38671 0
M  V30 2342 C 238.015 0.505097 -3.72996 0
M  V30 2343 C 237.162 -0.313792 -2.75519 0
M  V30 2344 H 240.113 -0.636088 -1.45395 0
M  V30 2345 H 240.134 0.906667 -3.6954 0
M  V30 2346 H 239.646 -0.916501 -3.77123 0
M  V30 2347 H 237.747 1.52135 -3.40126 0
M  V30 2348 H 237.86 0.242309 -4.78487 0
M  V30 2349 H 236.224 0.225363 -2.53701 0
M  V30 2350 H 237.007 -1.32232 -3.16812 0
M  V30 2351 N 239.452 1.56882 -0.150215 0
M  V30 2352 C 240.362 2.20494 0.801222 0
M  V30 2353 C 241.378 1.19019 1.26927 0
M  V30 2354 O 242.554 1.51607 1.32579 0
M  V30 2355 C 239.619 2.81659 2.02161 0
M  V30 2356 C 238.68 3.9827 1.60249 0
M  V30 2357 C 237.913 4.56508 2.7647 0
M  V30 2358 O 238.136 4.13627 3.92771 0
M  V30 2359 O 237.07 5.46719 2.51757 0
M  V30 2360 H 240.896 3.02315 0.289717 0
M  V30 2361 H 238.481 1.49202 0.0769684 0
M  V30 2362 H 240.363 3.20522 2.73576 0
M  V30 2363 H 239.038 2.02849 2.52258 0
M  V30 2364 H 237.945 3.64117 0.858477 0
M  V30 2365 H 239.278 4.78609 1.14864 0
M  V30 2366 N 240.93 -0.123565 1.57115 0
M  V30 2367 C 242.346 -0.476961 1.52306 0
M  V30 2368 C 242.546 -1.82109 0.86248 0
M  V30 2369 O 241.602 -2.48586 0.442884 0
M  V30 2370 C 242.915 -0.465661 2.97073 0
M  V30 2371 C 244.463 -0.549534 3.08138 0
M  V30 2372 C 244.938 -0.568669 4.54456 0
M  V30 2373 N 246.429 -0.630237 4.58892 0
M  V30 2374 C 247.164 -0.666415 5.69514 0
M  V30 2375 N 246.66 -0.660514 6.89644 0
M  V30 2376 N 248.453 -0.709077 5.5761 0
M  V30 2377 H 240.604 0.757198 1.98445 0
M  V30 2378 H 242.867 0.278808 0.906074 0
M  V30 2379 H 242.573 0.454232 3.48754 0
M  V30 2380 H 242.447 -1.29513 3.54269 0
M  V30 2381 H 244.834 -1.45985 2.56461 0
M  V30 2382 H 244.915 0.307532 2.53945 0
M  V30 2383 H 244.559 0.337581 5.06777 0
M  V30 2384 H 244.489 -1.44256 5.06456 0
M  V30 2385 H 246.98 -0.641146 3.72421 0
M  V30 2386 H 247.293 -0.690616 7.69708 0
M  V30 2387 H 245.638 -0.628012 6.92157 0
M  V30 2388 H 248.829 -0.711019 4.62668 0
M  V30 2389 H 249.002 -0.733804 6.43832 0
M  V30 2390 N 242.408 -1.52605 -0.393616 0
M  V30 2391 C 243.685 -1.58001 -1.15304 0
M  V30 2392 C 244.065 -0.370385 -2.07825 0
M  V30 2393 O 243.413 0.641638 -2.19306 0
M  V30 2394 C 243.623 -2.91652 -1.91677 0
M  V30 2395 C 244.971 -3.4522 -2.47201 0
M  V30 2396 O 245.995 -2.93495 -2.01839 0
M  V30 2397 O 244.854 -4.35579 -3.3005 0
M  V30 2398 H 241.948 -0.637068 -0.527327 0
M  V30 2399 H 244.494 -1.64939 -0.399141 0
M  V30 2400 H 243.266 -3.71136 -1.23992 0
M  V30 2401 H 242.889 -2.88077 -2.74039 0
M  V30 2402 N 243.887 0.651787 -1.4349 0
M  V30 2403 C 244.817 1.77621 -1.51569 0
M  V30 2404 C 245.798 1.66022 -0.370253 0
M  V30 2405 O 246.983 1.85095 -0.587658 0
M  V30 2406 C 244.113 3.16056 -1.43966 0
M  V30 2407 C 243.067 3.4242 -2.56774 0
M  V30 2408 C 242.393 4.8067 -2.34223 0
M  V30 2409 C 243.693 3.37023 -3.99015 0
M  V30 2410 H 245.387 1.71117 -2.45681 0
M  V30 2411 H 242.933 0.821825 -1.18246 0
M  V30 2412 H 244.886 3.94472 -1.48221 0
M  V30 2413 H 243.61 3.23293 -0.463586 0
M  V30 2414 H 242.269 2.66375 -2.51873 0
M  V30 2415 H 241.917 4.84585 -1.34856 0
M  V30 2416 H 241.617 4.9927 -3.09844 0
M  V30 2417 H 243.141 5.61342 -2.40265 0
M  V30 2418 H 244.555 4.05374 -4.05395 0
M  V30 2419 H 242.952 3.67159 -4.74673 0
M  V30 2420 H 244.022 2.3518 -4.2405 0
M  V30 2421 N 245.365 1.30045 0.890287 0
M  V30 2422 C 246.605 1.19839 1.65584 0
M  V30 2423 C 246.969 -0.244175 1.90441 0
M  V30 2424 O 248.17 -0.469378 2.6467 0
M  V30 2425 C 246.441 1.99876 2.96284 0
M  V30 2426 S 248 2.06309 3.87275 0
M  V30 2427 H 244.818 0.427157 0.568382 0
M  V30 2428 H 247.42 1.64453 1.05715 0
M  V30 2429 H 246.124 3.03809 2.75913 0
M  V30 2430 H 245.655 1.55903 3.61189 0
M  V30 2431 H 247.67 1.18661 4.81803 0
M  V30 2432 N 246.843 -1.10192 1.12674 0
M  V30 2433 C 248.091 -1.81845 0.881861 0
M  V30 2434 C 248.412 -1.85737 -0.593867 0
M  V30 2435 O 247.682 -1.33724 -1.4316 0
M  V30 2436 H 246.262 -0.673432 0.323261 0
M  V30 2437 H 248.924 -1.33316 1.42172 0
M  V30 2438 H 248.02 -2.85288 1.2656 0
M  V30 2439 N 248.321 -0.919034 -1.28029 0
M  V30 2440 C 249.561 -0.562107 -1.96519 0
M  V30 2441 C 249.925 0.878784 -1.70708 0
M  V30 2442 O 251.126 1.34355 -2.32813 0
M  V30 2443 C 249.397 -0.868953 -3.46676 0
M  V30 2444 S 250.956 -0.619237 -4.34409 0
M  V30 2445 H 247.774 -0.2078 -0.679956 0
M  V30 2446 H 250.376 -1.18562 -1.55446 0
M  V30 2447 H 249.08 -1.91547 -3.62957 0
M  V30 2448 H 248.611 -0.234301 -3.92702 0
M  V30 2449 H 250.626 0.526995 -4.93394 0
M  V30 2450 N 249.799 1.42003 -0.683588 0
M  V30 2451 C 251.029 2.05448 -0.217866 0
M  V30 2452 C 251.437 1.51491 1.13346 0
M  V30 2453 O 250.78 0.653048 1.717 0
M  V30 2454 C 250.842 3.59399 -0.0850118 0
M  V30 2455 C 250.506 4.36093 -1.36645 0
M  V30 2456 C 251.503 4.66169 -2.30179 0
M  V30 2457 C 249.188 4.75578 -1.61649 0
M  V30 2458 C 251.182 5.34676 -3.46988 0
M  V30 2459 C 248.869 5.43824 -2.78745 0
M  V30 2460 C 249.867 5.73299 -3.71238 0
M  V30 2461 O 249.555 6.40142 -4.86285 0
M  V30 2462 H 249.287 0.668344 -0.101454 0
M  V30 2463 H 251.841 1.82974 -0.933248 0
M  V30 2464 H 250.071 3.80566 0.686031 0
M  V30 2465 H 251.76 4.04457 0.341973 0
M  V30 2466 H 252.526 4.36156 -2.12115 0
M  V30 2467 H 248.405 4.52025 -0.905243 0
M  V30 2468 H 251.949 5.57599 -4.19201 0
M  V30 2469 H 247.846 5.73254 -2.96732 0
M  V30 2470 H 248.614 6.58636 -4.85944 0
M  V30 2471 N 251.277 0.427512 1.51691 0
M  V30 2472 C 252.502 -0.143601 2.06902 0
M  V30 2473 C 252.927 -1.36536 1.29382 0
M  V30 2474 O 252.285 -1.78289 0.329043 0
M  V30 2475 C 252.333 -0.454207 3.57728 0
M  V30 2476 O 251.437 -1.54228 3.82475 0
M  V30 2477 H 250.778 -0.00617128 0.663971 0
M  V30 2478 H 253.308 0.606014 1.95419 0
M  V30 2479 H 253.318 -0.707525 4.01818 0
M  V30 2480 H 251.993 0.438812 4.13579 0
M  V30 2481 H 250.57 -1.2797 3.50254 0
M  V30 2482 N 252.755 -1.56801 0.158532 0
M  V30 2483 C 254.001 -1.96781 -0.490405 0
M  V30 2484 C 254.334 -1.04397 -1.63753 0
M  V30 2485 O 253.609 -0.0885805 -1.94298 0
M  V30 2486 C 253.892 -3.4635 -0.985594 0
M  V30 2487 C 253.745 -4.49512 0.160824 0
M  V30 2488 C 255.064 -3.98697 -1.86355 0
M  V30 2489 H 252.183 -0.715482 -0.176788 0
M  V30 2490 H 254.825 -1.88451 0.242088 0
M  V30 2491 H 252.975 -3.53579 -1.60978 0
M  V30 2492 H 254.647 -4.54353 0.797537 0
M  V30 2493 H 252.89 -4.26013 0.818256 0
M  V30 2494 H 253.561 -5.51531 -0.227569 0
M  V30 2495 H 256.037 -3.94019 -1.33746 0
M  V30 2496 H 254.913 -5.03792 -2.17909 0
M  V30 2497 H 255.174 -3.41744 -2.8047 0
M  V30 2498 N 254.233 0.115231 -1.57178 0
M  V30 2499 C 255.458 0.840354 -1.89612 0
M  V30 2500 C 255.883 1.72464 -0.750845 0
M  V30 2501 O 255.241 1.78826 0.298478 0
M  V30 2502 C 255.289 1.64654 -3.20814 0
M  V30 2503 O 254.393 2.7538 -3.06985 0
M  V30 2504 H 253.734 0.232158 -0.622092 0
M  V30 2505 H 256.264 0.0964977 -2.04372 0
M  V30 2506 H 256.274 2.03499 -3.53627 0
M  V30 2507 H 254.949 0.997416 -4.03763 0
M  V30 2508 H 253.526 2.3971 -2.85646 0
M  V30 2509 N 255.711 1.52812 0.385517 0
M  V30 2510 C 256.936 1.72207 1.15583 0
M  V30 2511 C 257.361 0.441034 1.82857 0
M  V30 2512 O 256.719 -0.603465 1.70962 0
M  V30 2513 C 256.767 2.87476 2.17692 0
M  V30 2514 O 255.871 2.54693 3.24354 0
M  V30 2515 H 255.212 0.572526 0.336319 0
M  V30 2516 H 257.742 1.99618 0.448744 0
M  V30 2517 H 257.752 3.13072 2.6163 0
M  V30 2518 H 256.427 3.80408 1.68115 0
M  V30 2519 H 255.004 2.3985 2.85529 0
M  V30 2520 N 257.189 -0.644168 1.43834 0
M  V30 2521 C 258.435 -1.40603 1.46146 0
M  V30 2522 C 258.768 -1.93997 0.0887717 0
M  V30 2523 O 258.043 -1.72854 -0.891724 0
M  V30 2524 C 258.326 -2.58086 2.51124 0
M  V30 2525 C 258.179 -2.10126 3.97702 0
M  V30 2526 C 259.498 -3.60291 2.52742 0
M  V30 2527 H 256.617 -0.509905 0.532134 0
M  V30 2528 H 259.259 -0.729502 1.75437 0
M  V30 2529 H 257.409 -3.15801 2.26278 0
M  V30 2530 H 259.081 -1.57342 4.33637 0
M  V30 2531 H 257.324 -1.41419 4.10101 0
M  V30 2532 H 257.995 -2.94649 4.66783 0
M  V30 2533 H 260.471 -3.12352 2.7491 0
M  V30 2534 H 259.347 -4.40032 3.28121 0
M  V30 2535 H 259.608 -4.1349 1.56455 0
M  V30 2536 N 258.668 -1.30515 -0.883378 0
M  V30 2537 C 259.598 -1.19607 -2.00541 0
M  V30 2538 C 260.579 -0.086346 -1.69881 0
M  V30 2539 O 261.764 -0.268654 -1.92333 0
M  V30 2540 C 258.894 -0.888758 -3.35736 0
M  V30 2541 C 257.848 -1.95659 -3.8066 0
M  V30 2542 C 257.174 -1.50224 -5.13164 0
M  V30 2543 C 258.474 -3.36788 -3.99213 0
M  V30 2544 H 260.168 -2.13476 -2.09925 0
M  V30 2545 H 257.714 -1.02775 -1.00863 0
M  V30 2546 H 259.667 -0.799094 -4.13754 0
M  V30 2547 H 258.391 0.0856125 -3.26488 0
M  V30 2548 H 257.05 -2.03591 -3.04871 0
M  V30 2549 H 256.698 -0.516092 -5.00345 0
M  V30 2550 H 256.398 -2.2165 -5.44192 0
M  V30 2551 H 257.922 -1.42639 -5.93706 0
M  V30 2552 H 259.336 -3.31605 -4.67665 0
M  V30 2553 H 257.733 -4.06314 -4.41621 0
M  V30 2554 H 258.803 -3.78561 -3.03017 0
M  V30 2555 N 260.146 1.09593 -1.13257 0
M  V30 2556 C 261.557 1.63229 -0.906274 0
M  V30 2557 C 261.908 1.8811 0.557578 0
M  V30 2558 O 261.033 1.62953 1.42391 0
M  V30 2559 C 261.628 2.96535 -1.63867 0
M  V30 2560 C 260.187 3.47003 -1.45828 0
M  V30 2561 C 259.334 2.2145 -1.66898 0
M  V30 2562 H 262.285 0.92978 -1.28611 0
M  V30 2563 H 262.306 3.64411 -1.09476 0
M  V30 2564 H 261.818 2.78394 -2.70404 0
M  V30 2565 H 259.919 3.70272 -0.415848 0
M  V30 2566 H 260.032 4.24551 -2.2202 0
M  V30 2567 H 258.396 2.30022 -1.09371 0
M  V30 2568 H 259.179 2.0583 -2.74752 0
M  V30 2569 N 261.624 0.925811 1.2754 0
M  V30 2570 C 262.872 0.564138 1.94067 0
M  V30 2571 C 263.193 -0.897188 1.73134 0
M  V30 2572 O 262.463 -1.63573 1.07799 0
M  V30 2573 H 261.043 0.205645 0.718136 0
M  V30 2574 H 263.705 1.1778 1.55287 0
M  V30 2575 H 262.801 0.76881 3.02483 0
M  V30 2576 N 263.102 -1.41638 0.69111 0
M  V30 2577 C 264.342 -2.03166 0.224291 0
M  V30 2578 C 264.706 -1.53537 -1.15284 0
M  V30 2579 O 265.907 -2.0696 -1.71525 0
M  V30 2580 C 264.178 -3.56342 0.274758 0
M  V30 2581 S 265.737 -4.3864 -0.118669 0
M  V30 2582 H 262.555 -0.705188 0.0907263 0
M  V30 2583 H 265.157 -1.7314 0.907895 0
M  V30 2584 H 263.861 -3.89958 1.2791 0
M  V30 2585 H 263.392 -3.91063 -0.428142 0
M  V30 2586 H 265.407 -4.77549 -1.34764 0
M  V30 2587 N 264.58 -0.43555 -1.51462 0
M  V30 2588 C 265.543 0.365137 -2.26273 0
M  V30 2589 C 266.543 0.951227 -1.29647 0
M  V30 2590 O 267.733 0.825958 -1.53374 0
M  V30 2591 C 264.865 1.51645 -3.05314 0
M  V30 2592 H 266.058 -0.290474 -2.9849 0
M  V30 2593 H 263.611 -0.188676 -1.55157 0
M  V30 2594 H 264.346 2.20816 -2.3751 0
M  V30 2595 H 264.131 1.10238 -3.76284 0
M  V30 2596 H 265.621 2.08218 -3.61987 0
M  V30 2597 N 266.058 1.56714 -0.166846 0
M  V30 2598 C 266.99 2.14914 0.796537 0
M  V30 2599 C 268.003 1.10357 1.19688 0
M  V30 2600 O 269.192 1.37561 1.13751 0
M  V30 2601 C 266.292 2.67326 2.08303 0
M  V30 2602 C 265.465 3.96493 1.84696 0
M  V30 2603 C 264.524 4.34014 2.97521 0
M  V30 2604 O 263.55 5.01973 2.6835 0
M  V30 2605 N 264.752 3.95208 4.25196 0
M  V30 2606 H 267.517 2.98205 0.299006 0
M  V30 2607 H 265.078 1.61892 0.0160839 0
M  V30 2608 H 267.07 2.89428 2.82867 0
M  V30 2609 H 265.64 1.88649 2.4926 0
M  V30 2610 H 264.86 3.82814 0.940602 0
M  V30 2611 H 266.148 4.8086 1.66285 0
M  V30 2612 H 265.546 3.40487 4.51758 0
M  V30 2613 H 264.103 4.2232 4.96477 0
M  V30 2614 N 267.536 -0.106894 1.57237 0
M  V30 2615 C 268.947 -0.662723 1.74542 0
M  V30 2616 C 269.298 -1.7971 0.787319 0
M  V30 2617 O 268.423 -2.16368 -0.0369636 0
M  V30 2618 C 269.018 -1.20896 3.16496 0
M  V30 2619 C 267.577 -1.71096 3.35266 0
M  V30 2620 C 266.724 -0.615642 2.7038 0
M  V30 2621 H 269.675 0.119106 1.58252 0
M  V30 2622 H 269.696 -2.07847 3.18716 0
M  V30 2623 H 269.208 -0.383122 3.86204 0
M  V30 2624 H 267.309 -2.56119 2.70618 0
M  V30 2625 H 267.422 -1.81208 4.43509 0
M  V30 2626 H 265.786 -1.05222 2.31949 0
M  V30 2627 H 266.569 0.199419 3.4272 0
M  V30 2628 N 269.014 -1.53014 -0.377408 0
M  V30 2629 C 270.26 -1.69821 -1.11948 0
M  V30 2630 C 270.615 -0.438581 -1.87335 0
M  V30 2631 O 269.908 0.568094 -1.82984 0
M  V30 2632 C 270.102 -2.87982 -2.11663 0
M  V30 2633 C 269.931 -4.25315 -1.46072 0
M  V30 2634 C 268.701 -4.90354 -1.21986 0
M  V30 2635 C 270.899 -5.06281 -0.904664 0
M  V30 2636 N 268.881 -6.11641 -0.526215 0
M  V30 2637 C 270.252 -6.19069 -0.339726 0
M  V30 2638 C 272.307 -4.91395 -0.8022 0
M  V30 2639 C 271.01 -7.18598 0.317669 0
M  V30 2640 C 273.036 -5.91187 -0.158606 0
M  V30 2641 C 272.398 -7.03289 0.39551 0
M  V30 2642 H 268.497 -0.674785 -0.395207 0
M  V30 2643 H 271.081 -1.90389 -0.407437 0
M  V30 2644 H 269.252 -2.68974 -2.80192 0
M  V30 2645 H 270.984 -2.93669 -2.78461 0
M  V30 2646 H 267.739 -4.49286 -1.49798 0
M  V30 2647 H 268.163 -6.76719 -0.195098 0
M  V30 2648 H 272.805 -4.04925 -1.21639 0
M  V30 2649 H 270.523 -8.04669 0.743836 0
M  V30 2650 H 274.109 -5.81744 -0.0804138 0
M  V30 2651 H 272.989 -7.79183 0.885648 0
M  V30 2652 N 270.492 0.636531 -1.44174 0
M  V30 2653 C 271.44 1.76995 -1.50915 0
M  V30 2654 C 272.434 1.65053 -0.381295 0
M  V30 2655 O 273.64 1.71197 -0.55601 0
M  V30 2656 H 270.015 0.584247 -0.473455 0
M  V30 2657 H 271.986 1.68432 -2.4632 0
M  V30 2658 C 270.735 3.15314 -1.46534 0
M  V30 2659 H 270.058 3.25149 -2.32633 0
M  V30 2660 H 271.498 3.9453 -1.55312 0
M  V30 2661 C 269.957 3.3639 -0.185305 0
M  V30 2662 O 270.487 3.94699 0.746688 0
M  V30 2663 N 268.693 2.9046 -0.0901606 0
M  V30 2664 H 268.24 2.43193 -0.849416 0
M  V30 2665 H 268.198 3.04937 0.765553 0
M  V30 2666 N 271.97 1.30982 0.876444 0
M  V30 2667 C 272.92 1.14688 1.97055 0
M  V30 2668 C 273.904 0.0596593 1.60789 0
M  V30 2669 O 275.096 0.283892 1.74708 0
M  V30 2670 C 272.225 0.849627 3.3262 0
M  V30 2671 C 271.311 1.97752 3.75173 0
M  V30 2672 N 271.702 3.22384 3.89746 0
M  V30 2673 C 270 1.8758 4.04635 0
M  V30 2674 C 270.701 3.96121 4.25985 0
M  V30 2675 N 269.677 3.24237 4.36315 0
M  V30 2676 H 273.479 2.09204 2.06424 0
M  V30 2677 H 270.993 1.22445 1.06682 0
M  V30 2678 H 272.99 0.713895 4.10742 0
M  V30 2679 H 271.65 -0.087376 3.24582 0
M  V30 2680 H 272.661 3.57575 3.74647 0
M  V30 2681 H 269.338 1.01303 4.05024 0
M  V30 2682 H 270.728 5.03491 4.44911 0
M  V30 2683 N 273.449 -1.08991 1.13837 0
M  V30 2684 C 274.697 -1.80899 0.901098 0
M  V30 2685 C 275.018 -1.86356 -0.574134 0
M  V30 2686 O 274.288 -1.35235 -1.41733 0
M  V30 2687 H 272.868 -0.669966 0.330386 0
M  V30 2688 H 275.53 -1.318 1.43578 0
M  V30 2689 H 274.626 -2.83929 1.29578 0
M  V30 2690 N 274.927 -0.932562 -1.27047 0
M  V30 2691 C 275.837 -0.441219 -2.30414 0
M  V30 2692 C 276.853 0.480525 -1.67233 0
M  V30 2693 O 278.029 0.362151 -1.98117 0
M  V30 2694 C 275.094 0.293651 -3.45454 0
M  V30 2695 C 274.155 -0.663601 -4.2414 0
M  V30 2696 C 273.388 0.0362932 -5.33688 0
M  V30 2697 O 273.611 1.2548 -5.56427 0
M  V30 2698 O 272.545 -0.638015 -5.98509 0
M  V30 2699 H 276.371 -1.29962 -2.74488 0
M  V30 2700 H 273.956 -0.6981 -1.32087 0
M  V30 2701 H 275.838 0.707951 -4.15411 0
M  V30 2702 H 274.513 1.12758 -3.03426 0
M  V30 2703 H 273.42 -1.12768 -3.56699 0
M  V30 2704 H 274.753 -1.46489 -4.69896 0
M  V30 2705 N 276.405 1.4127 -0.698611 0
M  V30 2706 C 277.633 2.05503 -0.239992 0
M  V30 2707 C 278.048 1.52584 1.11191 0
M  V30 2708 O 277.405 0.675323 1.69545 0
M  V30 2709 C 277.456 3.60987 -0.192429 0
M  V30 2710 O 277.177 4.1195 -1.49094 0
M  V30 2711 C 278.678 4.42371 0.28681 0
M  V30 2712 H 275.898 0.661748 -0.111045 0
M  V30 2713 H 278.442 1.80987 -0.95205 0
M  V30 2714 H 276.597 3.84533 0.470472 0
M  V30 2715 H 277.011 5.06018 -1.38007 0
M  V30 2716 H 278.485 5.51344 0.26896 0
M  V30 2717 H 278.962 4.18699 1.32619 0
M  V30 2718 H 279.568 4.23897 -0.345201 0
M  V30 2719 N 277.883 0.443576 1.51229 0
M  V30 2720 C 279.13 -0.120796 2.02139 0
M  V30 2721 C 279.458 -1.42166 1.32736 0
M  V30 2722 O 278.713 -1.90849 0.43301 0
M  V30 2723 C 279.012 -0.380579 3.55368 0
M  V30 2724 C 278.678 0.83523 4.43097 0
M  V30 2725 C 277.34 1.16864 4.66794 0
M  V30 2726 C 279.692 1.64601 4.94526 0
M  V30 2727 C 277.02 2.31339 5.39165 0
M  V30 2728 C 279.372 2.78181 5.68153 0
M  V30 2729 C 278.036 3.11969 5.90112 0
M  V30 2730 H 277.306 -0.0442023 0.73968 0
M  V30 2731 H 279.953 0.592046 1.82118 0
M  V30 2732 H 278.258 -1.17538 3.73754 0
M  V30 2733 H 279.955 -0.830777 3.923 0
M  V30 2734 H 276.545 0.565437 4.24854 0
M  V30 2735 H 280.729 1.40163 4.76097 0
M  V30 2736 H 275.985 2.57823 5.5438 0
M  V30 2737 H 280.159 3.41371 6.06992 0
M  V30 2738 H 277.786 4.00784 6.45969 0
M  V30 2739 N 279.361 -1.56624 0.175154 0
M  V30 2740 C 280.589 -2.01374 -0.474971 0
M  V30 2741 C 281.004 -1.05537 -1.56548 0
M  V30 2742 O 280.361 -0.0568668 -1.82411 0
M  V30 2743 C 280.412 -3.45923 -1.04975 0
M  V30 2744 O 280.133 -4.381 -0.00276605 0
M  V30 2745 C 281.634 -4.06093 -1.77773 0
M  V30 2746 H 278.854 -0.659962 -0.121206 0
M  V30 2747 H 281.398 -2.02601 0.27801 0
M  V30 2748 H 279.553 -3.45458 -1.75321 0
M  V30 2749 H 279.967 -5.22753 -0.427681 0
M  V30 2750 H 281.441 -5.09147 -2.13245 0
M  V30 2751 H 281.918 -3.48405 -2.67414 0
M  V30 2752 H 282.524 -4.10272 -1.12059 0
M  V30 2753 N 280.839 0.0985539 -1.57292 0
M  V30 2754 C 282.079 0.808332 -1.87737 0
M  V30 2755 C 282.443 1.7607 -0.76572 0
M  V30 2756 O 283.644 2.51358 -0.952499 0
M  V30 2757 C 281.915 1.52093 -3.23423 0
M  V30 2758 S 283.474 2.26947 -3.75554 0
M  V30 2759 H 280.292 0.269377 -0.657995 0
M  V30 2760 H 282.894 0.0656269 -1.9539 0
M  V30 2761 H 281.598 0.81363 -4.02254 0
M  V30 2762 H 281.129 2.30361 -3.189 0
M  V30 2763 H 283.144 3.53027 -3.48692 0
M  V30 2764 N 282.317 1.53212 0.369288 0
M  V30 2765 C 283.545 1.73119 1.13303 0
M  V30 2766 C 283.96 0.458455 1.83149 0
M  V30 2767 O 283.317 -0.568403 1.73423 0
M  V30 2768 C 283.368 2.89413 2.16616 0
M  V30 2769 O 283.089 4.11761 1.49614 0
M  V30 2770 C 284.59 3.21161 3.05566 0
M  V30 2771 H 281.81 0.579107 0.338934 0
M  V30 2772 H 284.354 1.99942 0.429338 0
M  V30 2773 H 282.509 2.64994 2.82589 0
M  V30 2774 H 282.923 4.76858 2.18419 0
M  V30 2775 H 284.397 4.05949 3.74045 0
M  V30 2776 H 284.874 2.36369 3.70171 0
M  V30 2777 H 285.48 3.47492 2.45213 0
M  V30 2778 N 283.795 -0.628877 1.44509 0
M  V30 2779 C 284.758 -1.72263 1.51188 0
M  V30 2780 C 285.758 -1.55907 0.39367 0
M  V30 2781 O 286.948 -1.61361 0.656377 0
M  V30 2782 C 284.08 -3.11365 1.38798 0
M  V30 2783 H 285.273 -1.67714 2.4862 0
M  V30 2784 H 282.826 -0.842737 1.31634 0
M  V30 2785 H 283.561 -3.21507 0.424693 0
M  V30 2786 H 283.346 -3.24644 2.19884 0
M  V30 2787 H 284.836 -3.91075 1.46458 0
M  V30 2788 N 285.273 -1.31445 -0.869486 0
M  V30 2789 C 286.236 -1.19094 -1.9583 0
M  V30 2790 C 287.236 -0.117906 -1.60367 0
M  V30 2791 O 288.426 -0.367208 -1.70286 0
M  V30 2792 C 285.558 -0.828165 -3.30688 0
M  V30 2793 H 286.751 -2.15842 -2.08212 0
M  V30 2794 H 284.304 -1.15063 -1.05784 0
M  V30 2795 H 285.039 0.138142 -3.24006 0
M  V30 2796 H 284.824 -1.6038 -3.578 0
M  V30 2797 H 286.314 -0.765658 -4.10521 0
M  V30 2798 N 286.751 1.08385 -1.14413 0
M  V30 2799 C 287.701 2.13509 -0.79987 0
M  V30 2800 C 288.685 1.5951 0.211059 0
M  V30 2801 O 289.877 1.76995 0.0133694 0
M  V30 2802 C 287.006 3.42162 -0.279297 0
M  V30 2803 C 286.092 4.03042 -1.31976 0
M  V30 2804 N 286.483 4.38327 -2.52395 0
M  V30 2805 C 284.781 4.30379 -1.17004 0
M  V30 2806 C 285.482 4.86428 -3.19003 0
M  V30 2807 N 284.458 4.84547 -2.46405 0
M  V30 2808 H 288.26 2.38609 -1.7159 0
M  V30 2809 H 285.774 1.2572 -1.02802 0
M  V30 2810 H 287.771 4.16898 -0.0143688 0
M  V30 2811 H 286.431 3.18511 0.630923 0
M  V30 2812 H 287.442 4.29349 -2.89621 0
M  V30 2813 H 284.119 4.16281 -0.318854 0
M  V30 2814 H 285.509 5.23107 -4.21674 0
M  V30 2815 N 288.23 0.939286 1.26551 0
M  V30 2816 C 289.641 0.628782 1.75793 0
M  V30 2817 C 289.992 -0.856046 1.7654 0
M  V30 2818 O 289.117 -1.66994 1.3763 0
M  V30 2819 C 289.712 1.13465 3.19235 0
M  V30 2820 C 288.271 0.874601 3.66098 0
M  V30 2821 C 287.418 1.28667 2.45642 0
M  V30 2822 H 290.369 1.1178 1.12654 0
M  V30 2823 H 290.39 0.487609 3.77363 0
M  V30 2824 H 289.902 2.21535 3.1866 0
M  V30 2825 H 288.003 -0.191793 3.72106 0
M  V30 2826 H 288.116 1.50028 4.55004 0
M  V30 2827 H 286.48 0.705109 2.44745 0
M  V30 2828 H 287.263 2.37625 2.47769 0
M  V30 2829 N 289.708 -1.40897 0.706093 0
M  V30 2830 C 290.618 -2.3455 0.0482286 0
M  V30 2831 C 291.634 -1.56796 -0.754396 0
M  V30 2832 O 292.81 -1.89228 -0.689538 0
M  V30 2833 C 289.875 -3.35625 -0.869303 0
M  V30 2834 C 288.936 -4.29261 -0.0576994 0
M  V30 2835 C 288.169 -5.25508 -0.931531 0
M  V30 2836 O 288.392 -5.27472 -2.17092 0
M  V30 2837 O 287.326 -6.00727 -0.375587 0
M  V30 2838 H 291.152 -2.92407 0.820476 0
M  V30 2839 H 288.737 -1.4193 0.4665 0
M  V30 2840 H 290.619 -3.97635 -1.39514 0
M  V30 2841 H 289.294 -2.80196 -1.62086 0
M  V30 2842 H 288.201 -3.70566 0.512988 0
M  V30 2843 H 289.534 -4.87817 0.655426 0
M  V30 2844 N 291.186 -0.45159 -1.50991 0
M  V30 2845 C 292.116 0.342898 -2.30969 0
M  V30 2846 C 293.097 1.00815 -1.37005 0
M  V30 2847 O 294.282 1.00907 -1.65926 0
M  V30 2848 C 291.412 1.43637 -3.16205 0
M  V30 2849 C 290.366 0.893818 -4.18563 0
M  V30 2850 C 289.692 2.08411 -4.92411 0
M  V30 2851 C 290.992 -0.0815568 -5.22236 0
M  V30 2852 H 292.686 -0.324556 -2.97636 0
M  V30 2853 H 290.232 -0.157531 -1.43136 0
M  V30 2854 H 292.185 1.9995 -3.70942 0
M  V30 2855 H 290.909 2.13232 -2.47386 0
M  V30 2856 H 289.568 0.352798 -3.64898 0
M  V30 2857 H 289.216 2.76658 -4.20082 0
M  V30 2858 H 288.916 1.72741 -5.61636 0
M  V30 2859 H 290.44 2.65251 -5.49976 0
M  V30 2860 H 291.854 0.391742 -5.7196 0
M  V30 2861 H 290.251 -0.351551 -5.99069 0
M  V30 2862 H 291.321 -1.01374 -4.74185 0
M  V30 2863 N 292.664 1.56529 -0.183458 0
M  V30 2864 C 293.611 2.18546 0.742055 0
M  V30 2865 C 294.581 1.12912 1.2182 0
M  V30 2866 O 295.766 1.41115 1.28418 0
M  V30 2867 C 292.906 2.83977 1.96089 0
M  V30 2868 C 292.019 4.04105 1.52719 0
M  V30 2869 C 291.154 4.57427 2.70063 0
M  V30 2870 C 290.193 5.69938 2.23243 0
M  V30 2871 N 289.33 6.17717 3.33722 0
M  V30 2872 H 294.17 2.97284 0.206432 0
M  V30 2873 H 291.707 1.46823 0.0901571 0
M  V30 2874 H 293.665 3.20077 2.67594 0
M  V30 2875 H 292.295 2.07822 2.47002 0
M  V30 2876 H 291.347 3.73745 0.708436 0
M  V30 2877 H 292.659 4.85513 1.1436 0
M  V30 2878 H 291.813 4.95772 3.49708 0
M  V30 2879 H 290.552 3.75101 3.11689 0
M  V30 2880 H 289.557 5.31133 1.42048 0
M  V30 2881 H 290.782 6.54073 1.82661 0
M  V30 2882 H 288.728 5.38317 3.74902 0
M  V30 2883 H 288.645 6.94146 2.99495 0
M  V30 2884 H 289.913 6.60713 4.13616 0
M  V30 2885 N 294.142 -0.090211 1.57342 0
M  V30 2886 C 295.37 -0.806224 1.90546 0
M  V30 2887 C 295.785 -1.72041 0.777644 0
M  V30 2888 O 295.142 -1.80778 -0.250103 0
M  V30 2889 C 295.193 -1.61546 3.23396 0
M  V30 2890 O 294.914 -0.738043 4.31839 0
M  V30 2891 C 296.415 -2.4341 3.70495 0
M  V30 2892 H 293.635 -0.230256 0.630257 0
M  V30 2893 H 296.179 -0.0659843 2.04394 0
M  V30 2894 H 294.334 -2.30816 3.11131 0
M  V30 2895 H 294.748 -1.29901 5.08159 0
M  V30 2896 H 296.222 -2.95676 4.66133 0
M  V30 2897 H 296.699 -3.22098 2.98579 0
M  V30 2898 H 297.305 -1.79331 3.85643 0
M  V30 2899 N 295.62 -1.53406 -0.361157 0
M  V30 2900 C 297.031 -1.61442 -0.937728 0
M  V30 2901 C 297.382 -0.48461 -1.90121 0
M  V30 2902 O 296.507 0.388312 -2.12888 0
M  V30 2903 C 297.102 -2.92624 -1.70753 0
M  V30 2904 C 295.661 -3.02981 -2.23337 0
M  V30 2905 C 294.808 -2.5677 -1.04712 0
M  V30 2906 H 297.759 -1.58083 -0.139816 0
M  V30 2907 H 297.78 -2.80675 -2.56908 0
M  V30 2908 H 297.292 -3.74834 -1.00604 0
M  V30 2909 H 295.393 -2.25368 -2.96715 0
M  V30 2910 H 295.506 -4.0814 -2.50916 0
M  V30 2911 H 293.87 -2.11752 -1.41539 0
M  V30 2912 H 294.653 -3.41402 -0.360539 0
M  V30 2913 N 297.098 0.621204 -1.44841 0
M  V30 2914 C 298.028 1.74366 -1.55303 0
M  V30 2915 C 299.009 1.65199 -0.405385 0
M  V30 2916 O 300.194 1.83807 -0.626787 0
M  V30 2917 C 297.324 3.12931 -1.50637 0
M  V30 2918 C 296.278 3.36896 -2.63979 0
M  V30 2919 C 295.604 4.75594 -2.44366 0
M  V30 2920 C 296.904 3.28483 -4.06074 0
M  V30 2921 H 298.598 1.65867 -2.49256 0
M  V30 2922 H 296.144 0.796558 -1.19962 0
M  V30 2923 H 298.097 3.9124 -1.56555 0
M  V30 2924 H 296.821 3.22237 -0.532057 0
M  V30 2925 H 295.48 2.60972 -2.57467 0
M  V30 2926 H 295.128 4.81616 -1.45105 0
M  V30 2927 H 294.828 4.92586 -3.20364 0
M  V30 2928 H 296.352 5.5612 -2.52117 0
M  V30 2929 H 297.766 3.96684 -4.13902 0
M  V30 2930 H 296.163 3.57008 -4.82354 0
M  V30 2931 H 297.233 2.26133 -4.28943 0
M  V30 2932 N 298.576 1.31904 0.862503 0
M  V30 2933 C 299.804 1.24998 1.64873 0
M  V30 2934 C 300.219 -0.183425 1.87907 0
M  V30 2935 O 299.576 -1.11794 1.44251 0
M  V30 2936 C 299.627 1.99829 3.01248 0
M  V30 2937 O 299.348 3.37575 2.79239 0
M  V30 2938 C 300.849 1.99852 3.95694 0
M  V30 2939 H 298.069 0.431599 0.513773 0
M  V30 2940 H 300.613 1.73901 1.07604 0
M  V30 2941 H 298.768 1.54668 3.55185 0
M  V30 2942 H 299.182 3.75776 3.65914 0
M  V30 2943 H 300.656 2.56709 4.88676 0
M  V30 2944 H 301.133 0.982852 4.28062 0
M  V30 2945 H 301.739 2.44926 3.47694 0
M  V30 2946 N 300.054 -1.07777 1.14986 0
M  V30 2947 C 301.017 -2.13041 0.845358 0
M  V30 2948 C 302.017 -1.60071 -0.152931 0
M  V30 2949 O 303.207 -1.74033 0.0761879 0
M  V30 2950 C 300.339 -3.39896 0.261383 0
M  V30 2951 H 301.532 -2.41485 1.77834 0
M  V30 2952 H 299.085 -1.23595 0.956757 0
M  V30 2953 H 299.82 -3.17091 -0.68 0
M  V30 2954 H 299.605 -3.79642 0.980514 0
M  V30 2955 H 301.095 -4.17548 0.0657687 0
M  V30 2956 N 301.532 -0.945985 -1.26051 0
M  V30 2957 C 302.48 -0.450259 -2.282 0
M  V30 2958 C 303.474 0.47497 -1.62605 0
M  V30 2959 O 304.68 0.352653 -1.76512 0
M  V30 2960 H 301.055 -0.127081 -0.741184 0
M  V30 2961 H 303.026 -1.32422 -2.67408 0
M  V30 2962 C 301.775 0.26467 -3.46691 0
M  V30 2963 H 301.098 -0.438123 -3.97392 0
M  V30 2964 H 302.538 0.575678 -4.20074 0
M  V30 2965 C 300.997 1.48416 -3.02447 0
M  V30 2966 O 301.527 2.58227 -3.07704 0
M  V30 2967 N 299.733 1.34243 -2.57735 0
M  V30 2968 H 299.28 0.448994 -2.53657 0
M  V30 2969 H 299.238 2.15957 -2.28495 0
M  V30 2970 N 303.011 1.40521 -0.713556 0
M  V30 2971 C 304.26 2.00155 -0.249192 0
M  V30 2972 C 304.573 1.57224 1.16362 0
M  V30 2973 O 305.779 2.09542 1.72639 0
M  V30 2974 C 304.235 3.5773 -0.3946 0
M  V30 2975 C 303.843 4.09635 -1.81392 0
M  V30 2976 C 305.587 4.24499 0.00907364 0
M  V30 2977 C 303.494 5.59707 -1.91003 0
M  V30 2978 H 302.424 0.74868 -0.0894114 0
M  V30 2979 H 305.075 1.60784 -0.884352 0
M  V30 2980 H 303.457 3.94792 0.30911 0
M  V30 2981 H 304.631 3.83955 -2.54785 0
M  V30 2982 H 302.946 3.55456 -2.16888 0
M  V30 2983 H 305.543 5.34683 -0.0420404 0
M  V30 2984 H 305.886 4.02824 1.05065 0
M  V30 2985 H 306.419 3.92536 -0.645007 0
M  V30 2986 H 303.158 5.86234 -2.93275 0
M  V30 2987 H 302.678 5.87258 -1.22019 0
M  V30 2988 H 304.357 6.24776 -1.6812 0
M  V30 2989 N 304.489 0.459591 1.5075 0
M  V30 2990 C 305.717 -0.0973749 2.06671 0
M  V30 2991 C 306.132 -1.34524 1.32472 0
M  V30 2992 O 305.489 -1.7827 0.390634 0
M  V30 2993 C 305.54 -0.39714 3.59312 0
M  V30 2994 O 305.261 0.801214 4.30711 0
M  V30 2995 C 306.762 -1.00234 4.31819 0
M  V30 2996 H 303.982 0.00195854 0.670997 0
M  V30 2997 H 306.526 0.645072 1.94059 0
M  V30 2998 H 304.681 -1.08951 3.71764 0
M  V30 2999 H 305.095 0.538857 5.21725 0
M  V30 3000 H 306.569 -1.16193 5.39632 0
M  V30 3001 H 307.046 -1.98939 3.91561 0
M  V30 3002 H 307.652 -0.348699 4.23868 0
M  V30 3003 N 305.967 -1.56429 0.191757 0
M  V30 3004 C 306.914 -2.18936 -0.730454 0
M  V30 3005 C 307.884 -1.13557 -1.21219 0
M  V30 3006 O 309.069 -1.41794 -1.27668 0
M  V30 3007 C 306.209 -2.85013 -1.9458 0
M  V30 3008 C 305.322 -4.04909 -1.50574 0
M  V30 3009 C 304.457 -4.58853 -2.67634 0
M  V30 3010 C 303.496 -5.71114 -2.20217 0
M  V30 3011 N 302.633 -6.19478 -3.30442 0
M  V30 3012 H 307.473 -2.97389 -0.190664 0
M  V30 3013 H 305.01 -1.46869 -0.0823694 0
M  V30 3014 H 306.968 -3.21492 -2.65893 0
M  V30 3015 H 305.598 -2.09129 -2.45896 0
M  V30 3016 H 304.65 -3.74115 -0.688605 0
M  V30 3017 H 305.962 -4.86113 -1.11784 0
M  V30 3018 H 305.116 -4.97619 -3.47074 0
M  V30 3019 H 303.855 -3.76749 -3.09696 0
M  V30 3020 H 302.86 -5.31879 -1.3923 0
M  V30 3021 H 304.085 -6.55033 -1.79189 0
M  V30 3022 H 302.031 -5.40297 -3.72041 0
M  V30 3023 H 301.948 -6.95725 -2.9581 0
M  V30 3024 H 303.216 -6.62898 -4.10106 0
M  V30 3025 N 307.445 0.0818655 -1.57387 0
M  V30 3026 C 308.67 0.799946 -1.91352 0
M  V30 3027 C 309.095 1.70833 -0.787258 0
M  V30 3028 O 308.453 1.79419 0.26048 0
M  V30 3029 C 308.501 1.57812 -3.24234 0
M  V30 3030 O 307.605 2.68806 -3.12757 0
M  V30 3031 H 306.946 0.21891 -0.626877 0
M  V30 3032 H 309.476 0.0531256 -2.04531 0
M  V30 3033 H 309.486 1.95952 -3.57864 0
M  V30 3034 H 308.161 0.911548 -4.05788 0
M  V30 3035 H 306.738 2.33597 -2.90666 0
M  V30 3036 N 308.923 1.53595 0.353017 0
M  V30 3037 C 310.171 1.70049 1.09215 0
M  V30 3038 C 310.492 0.461406 1.89463 0
M  V30 3039 O 309.762 -0.524633 1.88744 0
M  V30 3040 H 308.342 0.626912 0.40619 0
M  V30 3041 H 311.004 1.90822 0.396585 0
M  V30 3042 H 310.1 2.56718 1.77488 0
M  V30 3043 N 310.401 -0.613514 1.45168 0
M  V30 3044 C 311.349 -1.74572 1.53712 0
M  V30 3045 C 312.343 -1.64426 0.407505 0
M  V30 3046 O 313.549 -1.70291 0.583176 0
M  V30 3047 H 309.924 -0.576641 0.48269 0
M  V30 3048 H 311.895 -1.64492 2.48968 0
M  V30 3049 C 310.644 -3.12943 1.51532 0
M  V30 3050 H 309.967 -3.21407 2.37776 0
M  V30 3051 H 311.407 -3.9201 1.61569 0
M  V30 3052 C 309.866 -3.36053 0.238798 0
M  V30 3053 O 310.396 -3.95837 -0.6838 0
M  V30 3054 N 308.602 -2.9028 0.136359 0
M  V30 3055 H 308.149 -2.41811 0.887999 0
M  V30 3056 H 308.107 -3.06116 -0.716944 0
M  V30 3057 N 311.879 -1.3236 -0.855495 0
M  V30 3058 C 313.107 -1.2587 -1.64208 0
M  V30 3059 C 313.522 0.173457 -1.88002 0
M  V30 3060 O 312.879 1.11027 -1.44842 0
M  V30 3061 C 312.93 -2.01424 -3.00184 0
M  V30 3062 O 312.651 -3.39051 -2.77445 0
M  V30 3063 C 314.152 -2.01948 -3.94629 0
M  V30 3064 H 311.372 -0.434318 -0.511477 0
M  V30 3065 H 313.916 -1.74469 -1.0668 0
M  V30 3066 H 312.071 -1.56549 -3.5436 0
M  V30 3067 H 312.485 -3.77711 -3.63916 0
M  V30 3068 H 313.959 -2.59297 -4.87308 0
M  V30 3069 H 314.436 -1.00554 -4.27534 0
M  V30 3070 H 315.042 -2.46767 -3.4639 0
M  V30 3071 N 313.357 1.07166 -1.15556 0
M  V30 3072 C 314.604 1.79798 -0.931604 0
M  V30 3073 C 314.932 1.8682 0.54115 0
M  V30 3074 O 314.187 1.34942 1.41736 0
M  V30 3075 C 314.486 3.24707 -1.49332 0
M  V30 3076 C 314.152 3.37781 -2.98688 0
M  V30 3077 C 312.814 3.41057 -3.39461 0
M  V30 3078 C 315.166 3.40424 -3.94665 0
M  V30 3079 C 312.494 3.4458 -4.74849 0
M  V30 3080 C 314.846 3.45485 -5.29927 0
M  V30 3081 C 313.51 3.47039 -5.70193 0
M  V30 3082 H 312.78 0.657928 -0.340898 0
M  V30 3083 H 315.427 1.26091 -1.44129 0
M  V30 3084 H 313.732 3.81208 -0.904859 0
M  V30 3085 H 315.429 3.79486 -1.29582 0
M  V30 3086 H 312.019 3.35932 -2.66172 0
M  V30 3087 H 316.203 3.37113 -3.64237 0
M  V30 3088 H 311.459 3.44083 -5.05388 0
M  V30 3089 H 315.633 3.46476 -6.04092 0
M  V30 3090 H 313.26 3.49522 -6.75084 0
M  V30 3091 N 314.835 0.952656 1.25548 0
M  V30 3092 C 316.251 0.656769 1.4546 0
M  V30 3093 C 316.451 -0.78633 1.85524 0
M  V30 3094 O 315.507 -1.56183 1.98402 0
M  V30 3095 C 316.82 1.62801 2.52817 0
M  V30 3096 C 318.368 1.63897 2.66659 0
M  V30 3097 C 318.843 2.5978 3.77198 0
M  V30 3098 N 320.334 2.58133 3.84606 0
M  V30 3099 C 321.069 3.29003 4.69621 0
M  V30 3100 N 320.565 4.09339 5.58939 0
M  V30 3101 N 322.358 3.179 4.63569 0
M  V30 3102 H 314.509 1.88526 0.978344 0
M  V30 3103 H 316.772 0.810815 0.491206 0
M  V30 3104 H 316.478 2.65869 2.30232 0
M  V30 3105 H 316.352 1.38898 3.50695 0
M  V30 3106 H 318.739 0.615481 2.8861 0
M  V30 3107 H 318.82 1.91858 1.69187 0
M  V30 3108 H 318.464 3.62254 3.55997 0
M  V30 3109 H 318.394 2.29105 4.7415 0
M  V30 3110 H 320.885 1.99809 3.20757 0
M  V30 3111 H 321.198 4.6034 6.20731 0
M  V30 3112 H 319.543 4.13438 5.58654 0
M  V30 3113 H 322.734 2.54612 3.92798 0
M  V30 3114 H 322.907 3.73398 5.29602 0
M  V30 3115 N 316.313 -1.40141 0.720998 0
M  V30 3116 C 317.724 -1.83678 0.334553 0
M  V30 3117 C 318.075 -1.6027 -1.13173 0
M  V30 3118 O 317.2 -1.08643 -1.87152 0
M  V30 3119 C 317.795 -3.33437 0.600437 0
M  V30 3120 C 316.354 -3.75447 0.267642 0
M  V30 3121 C 315.501 -2.63296 0.870097 0
M  V30 3122 H 318.452 -1.29331 0.919732 0
M  V30 3123 H 318.473 -3.80269 -0.132517 0
M  V30 3124 H 317.985 -3.50442 1.66768 0
M  V30 3125 H 316.086 -3.64035 -0.794329 0
M  V30 3126 H 316.199 -4.73344 0.74042 0
M  V30 3127 H 314.563 -2.52954 0.297739 0
M  V30 3128 H 315.346 -2.83112 1.94172 0
M  V30 3129 N 317.792 -0.46758 -1.50504 0
M  V30 3130 C 318.702 0.33382 -2.32213 0
M  V30 3131 C 319.718 0.999323 -1.42441 0
M  V30 3132 O 320.894 0.988068 -1.75497 0
M  V30 3133 C 317.959 1.4035 -3.17022 0
M  V30 3134 C 317.02 0.754961 -4.2261 0
M  V30 3135 C 316.253 1.77367 -5.03365 0
M  V30 3136 O 316.476 2.99976 -4.8515 0
M  V30 3137 O 315.41 1.34744 -5.86624 0
M  V30 3138 H 319.236 -0.334067 -3.01857 0
M  V30 3139 H 316.821 -0.229496 -1.47627 0
M  V30 3140 H 318.703 2.02318 -3.69656 0
M  V30 3141 H 317.378 2.05492 -2.5011 0
M  V30 3142 H 316.285 0.0964244 -3.73976 0
M  V30 3143 H 317.618 0.146545 -4.91982 0
M  V30 3144 N 319.27 1.56325 -0.20005 0
M  V30 3145 C 320.516 1.98012 0.438059 0
M  V30 3146 C 320.849 1.08702 1.60927 0
M  V30 3147 O 320.124 0.140064 1.93995 0
M  V30 3148 C 320.407 3.48841 0.893419 0
M  V30 3149 C 320.26 4.48928 -0.279947 0
M  V30 3150 C 321.579 4.03498 1.75719 0
M  V30 3151 H 318.698 0.719918 0.157757 0
M  V30 3152 H 321.34 1.87743 -0.291968 0
M  V30 3153 H 319.49 3.57723 1.51547 0
M  V30 3154 H 321.162 4.52079 -0.91772 0
M  V30 3155 H 319.405 4.23694 -0.930919 0
M  V30 3156 H 320.076 5.5194 0.0812601 0
M  V30 3157 H 322.552 3.97427 1.23253 0
M  V30 3158 H 321.428 5.09393 2.04476 0
M  V30 3159 H 321.689 3.4906 2.71311 0
M  V30 3160 N 320.748 -0.0735177 1.57428 0
M  V30 3161 C 321.698 -1.09442 2.00016 0
M  V30 3162 C 322.682 -1.34575 0.881947 0
M  V30 3163 O 323.874 -1.34905 1.14585 0
M  V30 3164 C 321.003 -2.40865 2.4462 0
M  V30 3165 C 320.089 -2.19014 3.63172 0
M  V30 3166 N 320.48 -1.67087 4.77405 0
M  V30 3167 C 318.778 -2.49494 3.69688 0
M  V30 3168 C 319.479 -1.6001 5.5926 0
M  V30 3169 N 318.455 -2.05999 5.03056 0
M  V30 3170 H 322.257 -0.686227 2.85776 0
M  V30 3171 H 319.771 -0.280617 1.59957 0
M  V30 3172 H 321.768 -3.14763 2.73368 0
M  V30 3173 H 320.428 -2.82403 1.60246 0
M  V30 3174 H 321.439 -1.35975 4.99731 0
M  V30 3175 H 318.116 -2.94409 2.96023 0
M  V30 3176 H 319.506 -1.2073 6.60964 0
M  V30 3177 N 322.226 -1.5378 -0.344866 0
M  V30 3178 C 323.156 -1.84662 -1.42906 0
M  V30 3179 C 324.137 -0.701648 -1.54955 0
M  V30 3180 O 325.322 -0.953438 -1.69184 0
M  V30 3181 C 322.452 -2.05503 -2.79974 0
M  V30 3182 C 321.406 -3.21318 -2.82734 0
M  V30 3183 C 320.732 -3.2749 -4.22675 0
M  V30 3184 C 322.032 -4.59456 -2.48389 0
M  V30 3185 H 323.726 -2.75461 -1.17311 0
M  V30 3186 H 321.272 -1.32542 -0.562896 0
M  V30 3187 H 323.225 -2.25691 -3.55867 0
M  V30 3188 H 321.949 -1.11434 -3.07002 0
M  V30 3189 H 320.608 -3.00984 -2.09294 0
M  V30 3190 H 320.256 -2.31019 -4.4681 0
M  V30 3191 H 319.956 -4.05316 -4.25433 0
M  V30 3192 H 321.48 -3.49887 -5.00412 0
M  V30 3193 H 322.894 -4.79667 -3.13995 0
M  V30 3194 H 321.291 -5.39675 -2.62432 0
M  V30 3195 H 322.361 -4.63155 -1.4358 0
M  V30 3196 N 323.704 0.605807 -1.45491 0
M  V30 3197 C 324.634 1.72709 -1.57143 0
M  V30 3198 C 325.615 1.6476 -0.422884 0
M  V30 3199 O 326.8 1.83132 -0.646247 0
M  V30 3200 C 323.93 3.11316 -1.53948 0
M  V30 3201 C 322.884 3.34077 -2.67537 0
M  V30 3202 C 322.21 4.72975 -2.49397 0
M  V30 3203 C 323.51 3.24158 -4.09535 0
M  V30 3204 H 325.204 1.63214 -2.51001 0
M  V30 3205 H 322.75 0.78379 -1.208 0
M  V30 3206 H 324.703 3.89557 -1.60696 0
M  V30 3207 H 323.427 3.21655 -0.566205 0
M  V30 3208 H 322.086 2.58227 -2.6022 0
M  V30 3209 H 321.734 4.8005 -1.50205 0
M  V30 3210 H 321.434 4.8916 -3.25571 0
M  V30 3211 H 322.958 5.53414 -2.58002 0
M  V30 3212 H 324.372 3.92271 -4.18086 0
M  V30 3213 H 322.769 3.51872 -4.86113 0
M  V30 3214 H 323.839 2.2157 -4.31317 0
M  V30 3215 N 325.182 1.32811 0.848464 0
M  V30 3216 C 326.593 1.21315 1.41914 0
M  V30 3217 C 326.944 -0.171847 1.95446 0
M  V30 3218 O 326.069 -1.07093 1.88043 0
M  V30 3219 C 326.664 2.19631 2.57968 0
M  V30 3220 C 325.223 2.12003 3.11017 0
M  V30 3221 C 324.37 2.07651 1.83783 0
M  V30 3222 H 327.321 1.44549 0.655071 0
M  V30 3223 H 327.342 1.79845 3.35315 0
M  V30 3224 H 326.854 3.20423 2.18976 0
M  V30 3225 H 324.955 1.14481 3.54577 0
M  V30 3226 H 325.068 3.02111 3.71841 0
M  V30 3227 H 323.432 1.52983 2.03638 0
M  V30 3228 H 324.215 3.10235 1.47 0
M  V30 3229 N 326.66 -1.06551 1.16123 0
M  V30 3230 C 328.071 -1.60768 0.949232 0
M  V30 3231 C 328.422 -1.89523 -0.507508 0
M  V30 3232 O 327.547 -1.66671 -1.38021 0
M  V30 3233 C 328.142 -2.92086 1.71671 0
M  V30 3234 C 326.701 -3.43015 1.54977 0
M  V30 3235 C 325.848 -2.16947 1.72711 0
M  V30 3236 H 328.799 -0.895354 1.31031 0
M  V30 3237 H 328.82 -3.6138 1.19099 0
M  V30 3238 H 328.332 -2.71127 2.7769 0
M  V30 3239 H 326.433 -3.69039 0.513873 0
M  V30 3240 H 326.546 -4.18516 2.33198 0
M  V30 3241 H 324.91 -2.27041 1.15431 0
M  V30 3242 H 325.693 -1.98473 2.80113 0
M  V30 3243 N 328.138 -0.959301 -1.25041 0
M  V30 3244 C 329.549 -0.65667 -1.74771 0
M  V30 3245 C 329.9 0.827852 -1.77879 0
M  V30 3246 O 329.025 1.64783 -1.40269 0
M  V30 3247 C 329.62 -1.1853 -3.1739 0
M  V30 3248 C 328.179 -0.932734 -3.6466 0
M  V30 3249 C 327.326 -1.32558 -2.43564 0
M  V30 3250 H 330.277 -1.13558 -1.10862 0
M  V30 3251 H 330.298 -0.547582 -3.76539 0
M  V30 3252 H 329.81 -2.26576 -3.15095 0
M  V30 3253 H 327.911 0.13257 -3.72364 0
M  V30 3254 H 328.024 -1.57248 -4.52559 0
M  V30 3255 H 326.388 -0.743956 -2.43593 0
M  V30 3256 H 327.171 -2.41537 -2.43957 0
M  V30 3257 N 329.616 1.39756 -0.72842 0
M  V30 3258 C 330.841 2.05472 -0.282159 0
M  V30 3259 C 331.266 1.54549 1.07221 0
M  V30 3260 O 330.624 0.686372 1.67805 0
M  V30 3261 C 330.672 3.59462 -0.286264 0
M  V30 3262 O 329.776 4.05918 0.728298 0
M  V30 3263 H 329.117 0.651226 -0.129618 0
M  V30 3264 H 331.647 1.78915 -0.992499 0
M  V30 3265 H 331.657 4.07798 -0.128373 0
M  V30 3266 H 330.332 3.95889 -1.27456 0
M  V30 3267 H 328.909 3.69012 0.537081 0
M  V30 3268 N 331.094 0.475555 1.50254 0
M  V30 3269 C 332.004 -0.321501 2.32387 0
M  V30 3270 C 333.02 -0.991755 1.42969 0
M  V30 3271 O 334.196 -0.978747 1.76018 0
M  V30 3272 C 331.261 -1.38667 3.17762 0
M  V30 3273 C 330.322 -0.732538 4.23004 0
M  V30 3274 C 329.555 -1.74695 5.04299 0
M  V30 3275 O 329.778 -2.97399 4.86734 0
M  V30 3276 O 328.712 -1.31631 5.8733 0
M  V30 3277 H 332.538 0.350071 3.01676 0
M  V30 3278 H 330.123 0.237321 1.47503 0
M  V30 3279 H 332.005 -2.00354 3.70724 0
M  V30 3280 H 330.68 -2.04163 2.51196 0
M  V30 3281 H 329.587 -0.0765902 3.74022 0
M  V30 3282 H 330.92 -0.120452 4.92053 0
M  V30 3283 N 332.573 -1.56217 0.208337 0
M  V30 3284 C 333.483 -2.23316 -0.718836 0
M  V30 3285 C 334.499 -1.23648 -1.22422 0
M  V30 3286 O 335.675 -1.56423 -1.26861 0
M  V30 3287 C 332.74 -2.88968 -1.91568 0
M  V30 3288 C 331.801 -4.03943 -1.45357 0
M  V30 3289 C 331.034 -4.66455 -2.59337 0
M  V30 3290 O 331.257 -4.27919 -3.77149 0
M  V30 3291 O 330.191 -5.55686 -2.31293 0
M  V30 3292 H 334.017 -3.03182 -0.177315 0
M  V30 3293 H 331.602 -1.49384 -0.0215402 0
M  V30 3294 H 333.484 -3.30455 -2.61491 0
M  V30 3295 H 332.159 -2.12071 -2.44556 0
M  V30 3296 H 331.066 -3.67052 -0.722746 0
M  V30 3297 H 332.399 -4.82543 -0.970219 0
M  V30 3298 N 334.051 0.0651679 -1.57465 0
M  V30 3299 C 334.981 1.07693 -2.07182 0
M  V30 3300 C 335.962 1.39962 -0.966673 0
M  V30 3301 O 337.147 1.49475 -1.2398 0
M  V30 3302 C 334.277 2.3885 -2.52127 0
M  V30 3303 C 333.231 2.20917 -3.66579 0
M  V30 3304 C 332.557 3.57515 -3.97601 0
M  V30 3305 C 333.857 1.62493 -4.9638 0
M  V30 3306 H 335.551 0.663199 -2.91962 0
M  V30 3307 H 333.097 0.317569 -1.40455 0
M  V30 3308 H 335.05 3.09928 -2.85522 0
M  V30 3309 H 333.774 2.82215 -1.64384 0
M  V30 3310 H 332.433 1.52279 -3.33477 0
M  V30 3311 H 332.081 3.98463 -3.06979 0
M  V30 3312 H 331.781 3.46353 -4.74672 0
M  V30 3313 H 333.305 4.30013 -4.33499 0
M  V30 3314 H 334.719 2.23445 -5.27963 0
M  V30 3315 H 333.116 1.62009 -5.77818 0
M  V30 3316 H 334.186 0.587041 -4.81333 0
M  V30 3317 N 335.529 1.53961 0.336706 0
M  V30 3318 C 336.492 1.81724 1.39675 0
M  V30 3319 C 337.492 0.688532 1.45313 0
M  V30 3320 O 338.682 0.956829 1.45569 0
M  V30 3321 C 335.814 1.96543 2.78538 0
M  V30 3322 H 337.007 2.76424 1.16318 0
M  V30 3323 H 334.56 1.45478 0.571474 0
M  V30 3324 H 335.295 1.0401 3.07168 0
M  V30 3325 H 335.08 2.78665 2.75841 0
M  V30 3326 H 336.57 2.19516 3.5525 0
M  V30 3327 N 337.007 -0.598083 1.45811 0
M  V30 3328 C 337.937 -1.71873 1.58057 0
M  V30 3329 C 338.918 -1.64533 0.431615 0
M  V30 3330 O 340.103 -1.82787 0.65595 0
M  V30 3331 C 337.233 -3.10495 1.55597 0
M  V30 3332 C 336.187 -3.32654 2.69305 0
M  V30 3333 C 335.513 -4.71646 2.51902 0
M  V30 3334 C 336.813 -3.21981 4.11248 0
M  V30 3335 H 338.507 -1.61881 2.51863 0
M  V30 3336 H 336.053 -0.777372 1.21214 0
M  V30 3337 H 338.006 -3.88699 1.6276 0
M  V30 3338 H 336.73 -3.2135 0.583255 0
M  V30 3339 H 335.389 -2.56843 2.61586 0
M  V30 3340 H 335.037 -4.79246 1.52748 0
M  V30 3341 H 334.737 -4.87426 3.2816 0
M  V30 3342 H 336.261 -5.52038 2.60933 0
M  V30 3343 H 337.675 -3.90049 4.20161 0
M  V30 3344 H 336.072 -3.49289 4.87972 0
M  V30 3345 H 337.142 -2.1928 4.32486 0
M  V30 3346 N 338.485 -1.33259 -0.841409 0
M  V30 3347 C 339.433 -1.23279 -1.97244 0
M  V30 3348 C 340.427 -0.134706 -1.68864 0
M  V30 3349 O 341.633 -0.298501 -1.77508 0
M  V30 3350 H 338.008 -0.382497 -0.647457 0
M  V30 3351 H 339.979 -2.18906 -2.02787 0
M  V30 3352 C 338.728 -0.986268 -3.33419 0
M  V30 3353 H 338.051 -1.82347 -3.55794 0
M  V30 3354 H 339.491 -0.956728 -4.13065 0
M  V30 3355 C 337.95 0.310842 -3.35463 0
M  V30 3356 O 338.48 1.31838 -3.79449 0
M  V30 3357 N 336.686 0.337485 -2.88634 0
M  V30 3358 H 336.233 -0.482967 -2.53032 0
M  V30 3359 H 336.191 1.20518 -2.90384 0
M  V30 3360 N 339.963 1.05934 -1.16686 0
M  V30 3361 C 340.873 2.17014 -0.891183 0
M  V30 3362 C 341.889 1.73453 0.137907 0
M  V30 3363 O 343.065 2.01361 -0.039592 0
M  V30 3364 C 340.13 3.44384 -0.400099 0
M  V30 3365 C 339.191 4.02433 -1.49486 0
M  V30 3366 C 338.424 5.23723 -1.02711 0
M  V30 3367 O 338.647 5.7027 0.121716 0
M  V30 3368 O 337.581 5.7382 -1.81699 0
M  V30 3369 H 341.407 2.43113 -1.82015 0
M  V30 3370 H 338.992 1.15541 -0.947132 0
M  V30 3371 H 340.874 4.21189 -0.133392 0
M  V30 3372 H 339.549 3.19802 0.500817 0
M  V30 3373 H 338.456 3.27102 -1.81535 0
M  V30 3374 H 339.789 4.31317 -2.37121 0
M  V30 3375 N 341.441 0.965919 1.2453 0
M  V30 3376 C 342.371 0.513476 2.27784 0
M  V30 3377 C 343.352 -0.445974 1.6415 0
M  V30 3378 O 344.537 -0.342485 1.91156 0
M  V30 3379 C 341.667 -0.198839 3.4673 0
M  V30 3380 C 340.621 0.676456 4.2262 0
M  V30 3381 C 339.947 -0.167248 5.34438 0
M  V30 3382 C 341.247 1.96017 4.84123 0
M  V30 3383 H 342.941 1.3765 2.65881 0
M  V30 3384 H 340.487 0.663321 1.27813 0
M  V30 3385 H 342.44 -0.526567 4.18097 0
M  V30 3386 H 341.164 -1.0962 3.07654 0
M  V30 3387 H 339.823 0.98743 3.53052 0
M  V30 3388 H 339.471 -1.0647 4.91603 0
M  V30 3389 H 339.171 0.415181 5.86131 0
M  V30 3390 H 340.695 -0.489688 6.08633 0
M  V30 3391 H 342.109 1.69814 5.47573 0
M  V30 3392 H 340.506 2.48918 5.4604 0
M  V30 3393 H 341.576 2.65622 4.05676 0
M  V30 3394 N 342.919 -1.39368 0.735821 0
M  V30 3395 C 344.165 -2.00794 0.284544 0
M  V30 3396 C 344.498 -1.58255 -1.12557 0
M  V30 3397 O 343.773 -0.811819 -1.76748 0
M  V30 3398 C 344.056 -3.58011 0.387337 0
M  V30 3399 C 343.909 -4.10566 1.83728 0
M  V30 3400 C 345.228 -4.395 -0.22975 0
M  V30 3401 H 342.347 -0.729501 0.104866 0
M  V30 3402 H 344.989 -1.65564 0.93213 0
M  V30 3403 H 343.139 -3.88154 -0.164006 0
M  V30 3404 H 344.811 -3.91139 2.44556 0
M  V30 3405 H 343.054 -3.64095 2.35833 0
M  V30 3406 H 343.725 -5.19702 1.86047 0
M  V30 3407 H 346.201 -4.15406 0.240257 0
M  V30 3408 H 345.077 -5.48752 -0.127485 0
M  V30 3409 H 345.338 -4.22062 -1.3159 0
M  V30 3410 N 344.397 -0.483516 -1.5 0
M  V30 3411 C 345.625 0.0644831 -2.06799 0
M  V30 3412 C 346.04 1.32399 -1.34596 0
M  V30 3413 O 345.397 1.77626 -0.418946 0
M  V30 3414 C 345.448 0.339927 -3.59898 0
M  V30 3415 O 345.169 -0.869635 -4.29382 0
M  V30 3416 C 346.67 0.933515 -4.33359 0
M  V30 3417 H 343.89 -0.0126333 -0.670881 0
M  V30 3418 H 346.434 -0.675864 -1.93009 0
M  V30 3419 H 344.589 1.03022 -3.7345 0
M  V30 3420 H 345.003 -0.62179 -5.20801 0
M  V30 3421 H 346.477 1.07593 -5.41413 0
M  V30 3422 H 346.954 1.92685 -3.94676 0
M  V30 3423 H 347.56 0.281221 -4.24369 0
M  V30 3424 N 345.875 1.56104 -0.216619 0
M  V30 3425 C 346.805 2.23063 0.690296 0
M  V30 3426 C 347.786 1.20072 1.20485 0
M  V30 3427 O 348.971 1.48643 1.24976 0
M  V30 3428 C 346.101 2.90672 1.90072 0
M  V30 3429 C 345.055 4.00092 1.5202 0
M  V30 3430 C 344.381 4.54972 2.80899 0
M  V30 3431 C 345.681 5.17398 0.71391 0
M  V30 3432 H 347.375 2.99109 0.132038 0
M  V30 3433 H 344.921 1.43866 0.0620664 0
M  V30 3434 H 346.874 3.36204 2.54057 0
M  V30 3435 H 345.598 2.12066 2.48386 0
M  V30 3436 H 344.257 3.55283 0.903839 0
M  V30 3437 H 343.905 3.73102 3.37348 0
M  V30 3438 H 343.605 5.28817 2.56176 0
M  V30 3439 H 345.129 5.0322 3.45836 0
M  V30 3440 H 346.543 5.59342 1.25735 0
M  V30 3441 H 344.94 5.97444 0.563951 0
M  V30 3442 H 346.01 4.84088 -0.280527 0
M  V30 3443 N 347.353 -0.0568162 1.57498 0
M  V30 3444 C 348.581 -0.765626 1.92213 0
M  V30 3445 C 348.996 -1.70353 0.813961 0
M  V30 3446 O 348.353 -1.81268 -0.211701 0
M  V30 3447 C 348.404 -1.5465 3.2675 0
M  V30 3448 O 348.125 -0.646278 4.33307 0
M  V30 3449 C 349.626 -2.35497 3.75574 0
M  V30 3450 H 346.846 -0.216835 0.634999 0
M  V30 3451 H 349.39 -0.0226146 2.04487 0
M  V30 3452 H 347.545 -2.24165 3.15957 0
M  V30 3453 H 347.959 -1.19093 5.108 0
M  V30 3454 H 349.433 -2.85722 4.72299 0
M  V30 3455 H 349.91 -3.15692 3.05344 0
M  V30 3456 H 350.516 -1.7111 3.8936 0
M  V30 3457 N 348.832 -1.54138 -0.328536 0
M  V30 3458 C 350.072 -1.73827 -1.07534 0
M  V30 3459 C 350.436 -0.498777 -1.85408 0
M  V30 3460 O 351.637 -0.572937 -2.62623 0
M  V30 3461 C 349.908 -2.97573 -1.97952 0
M  V30 3462 S 351.467 -3.38143 -2.79652 0
M  V30 3463 H 348.285 -0.611287 -0.36311 0
M  V30 3464 H 350.887 -1.92306 -0.351931 0
M  V30 3465 H 349.591 -3.85939 -1.39569 0
M  V30 3466 H 349.122 -2.81603 -2.74706 0
M  V30 3467 H 351.137 -2.93052 -4.00418 0
M  V30 3468 N 350.31 0.590341 -1.46126 0
M  V30 3469 C 351.24 1.71032 -1.58966 0
M  V30 3470 C 352.221 1.64302 -0.440335 0
M  V30 3471 O 353.406 1.82436 -0.665634 0
M  V30 3472 C 350.536 3.09665 -1.57241 0
M  V30 3473 C 349.49 3.31221 -2.71066 0
M  V30 3474 C 348.816 4.70303 -2.54399 0
M  V30 3475 C 350.116 3.19796 -4.1295 0
M  V30 3476 H 351.81 1.60543 -2.52718 0
M  V30 3477 H 349.356 0.770933 -1.21625 0
M  V30 3478 H 351.309 3.87831 -1.64819 0
M  V30 3479 H 350.033 3.21036 -0.600289 0
M  V30 3480 H 348.692 2.55452 -2.62944 0
M  V30 3481 H 348.34 4.78429 -1.55288 0
M  V30 3482 H 348.04 4.85679 -3.30741 0
M  V30 3483 H 349.564 5.50647 -2.63857 0
M  V30 3484 H 350.978 3.87815 -4.22223 0
M  V30 3485 H 349.375 3.46696 -4.89818 0
M  V30 3486 H 350.445 2.16983 -4.33643 0
M  V30 3487 N 351.788 1.33704 0.83433 0
M  V30 3488 C 352.751 1.24244 1.92603 0
M  V30 3489 C 353.751 0.160383 1.59998 0
M  V30 3490 O 354.941 0.412228 1.69252 0
M  V30 3491 C 352.073 0.91555 3.28376 0
M  V30 3492 H 353.266 2.21287 2.02416 0
M  V30 3493 H 350.819 1.17827 1.02696 0
M  V30 3494 H 351.554 -0.0521886 3.24258 0
M  V30 3495 H 351.339 1.69811 3.53422 0
M  V30 3496 H 352.829 0.874231 4.08347 0
M  V30 3497 N 353.266 -1.05314 1.17247 0
M  V30 3498 C 354.682 -1.30452 0.919473 0
M  V30 3499 C 354.882 -1.9703 -0.42209 0
M  V30 3500 O 353.938 -2.24311 -1.15935 0
M  V30 3501 C 355.251 -2.17551 2.07586 0
M  V30 3502 C 356.799 -2.30937 2.11275 0
M  V30 3503 C 357.274 -3.21396 3.26296 0
M  V30 3504 N 358.765 -3.28981 3.26076 0
M  V30 3505 C 359.5 -3.99095 4.11716 0
M  V30 3506 N 358.996 -4.71648 5.07465 0
M  V30 3507 N 360.789 -3.95247 3.9967 0
M  V30 3508 H 352.94 -0.604988 2.03602 0
M  V30 3509 H 355.203 -0.329368 0.888944 0
M  V30 3510 H 354.909 -1.75921 3.0454 0
M  V30 3511 H 354.783 -3.18182 2.02584 0
M  V30 3512 H 357.17 -2.71809 1.14907 0
M  V30 3513 H 357.251 -1.2994 2.20339 0
M  V30 3514 H 356.895 -2.81238 4.22927 0
M  V30 3515 H 356.825 -4.22395 3.14467 0
M  V30 3516 H 359.316 -2.77286 2.5675 0
M  V30 3517 H 359.629 -5.22705 5.6921 0
M  V30 3518 H 357.974 -4.70594 5.11435 0
M  V30 3519 H 361.165 -3.37691 3.24164 0
M  V30 3520 H 361.338 -4.4962 4.66632 0
M  V30 3521 N 354.744 -0.972509 -1.24016 0
M  V30 3522 C 355.992 -0.635776 -1.91839 0
M  V30 3523 C 356.313 0.832312 -1.76345 0
M  V30 3524 O 355.583 1.5946 -1.13795 0
M  V30 3525 H 354.163 -0.232157 -0.710009 0
M  V30 3526 H 356.825 -1.23462 -1.50809 0
M  V30 3527 H 355.921 -0.880545 -2.99421 0
M  V30 3528 N 356.222 1.38976 -0.743202 0
M  V30 3529 C 357.469 2.00343 -0.294752 0
M  V30 3530 C 357.797 1.58983 1.12047 0
M  V30 3531 O 357.052 0.813809 1.77977 0
M  V30 3532 C 357.351 3.55647 -0.353517 0
M  V30 3533 C 357.017 4.16685 -1.72292 0
M  V30 3534 C 355.679 4.3307 -2.09771 0
M  V30 3535 C 358.031 4.50464 -2.62168 0
M  V30 3536 C 355.359 4.80526 -3.36618 0
M  V30 3537 C 357.711 4.99332 -3.88395 0
M  V30 3538 C 356.375 5.13924 -4.25956 0
M  V30 3539 H 355.645 0.733108 -0.107857 0
M  V30 3540 H 358.292 1.6618 -0.951651 0
M  V30 3541 H 356.597 3.89884 0.386954 0
M  V30 3542 H 358.294 4.00998 0.0117269 0
M  V30 3543 H 354.884 4.04339 -1.42155 0
M  V30 3544 H 359.068 4.37416 -2.3448 0
M  V30 3545 H 354.324 4.90008 -3.65653 0
M  V30 3546 H 358.498 5.2444 -4.58187 0
M  V30 3547 H 356.125 5.50457 -5.2431 0
M  V30 3548 N 357.7 0.491464 1.49741 0
M  V30 3549 C 358.925 -0.0557177 2.07325 0
M  V30 3550 C 359.35 -1.30925 1.35056 0
M  V30 3551 O 358.708 -1.76733 0.404365 0
M  V30 3552 C 358.756 -0.302074 3.59333 0
M  V30 3553 O 357.86 -1.37868 3.88672 0
M  V30 3554 H 357.201 0.0219956 0.663636 0
M  V30 3555 H 359.731 0.688352 1.92673 0
M  V30 3556 H 359.741 -0.536464 4.04458 0
M  V30 3557 H 358.416 0.61383 4.11345 0
M  V30 3558 H 356.993 -1.12999 3.55367 0
M  V30 3559 N 359.178 -1.55987 0.224894 0
M  V30 3560 C 360.589 -1.84553 -0.282345 0
M  V30 3561 C 360.94 -1.14634 -1.59227 0
M  V30 3562 O 360.065 -0.417155 -2.12341 0
M  V30 3563 C 360.66 -3.348 -0.519062 0
M  V30 3564 C 359.219 -3.63671 -0.970604 0
M  V30 3565 C 358.366 -2.77277 -0.0355261 0
M  V30 3566 H 361.317 -1.52245 0.448006 0
M  V30 3567 H 361.338 -3.55187 -1.36463 0
M  V30 3568 H 360.85 -3.8566 0.43449 0
M  V30 3569 H 358.951 -3.1827 -1.9374 0
M  V30 3570 H 359.064 -4.71631 -0.842698 0
M  V30 3571 H 357.428 -2.48846 -0.542927 0
M  V30 3572 H 358.211 -3.30937 0.913003 0
M  V30 3573 N 360.656 0.0484629 -1.57525 0
M  V30 3574 C 361.603 1.05504 -2.05275 0
M  V30 3575 C 362.573 1.37084 -0.937927 0
M  V30 3576 O 363.758 1.47754 -1.2072 0
M  V30 3577 C 360.898 2.35676 -2.52093 0
M  V30 3578 C 360.011 2.10423 -3.77288 0
M  V30 3579 C 359.146 3.34327 -4.12794 0
M  V30 3580 C 358.185 3.04542 -5.30962 0
M  V30 3581 N 357.322 4.20841 -5.61994 0
M  V30 3582 H 362.162 0.640885 -2.91027 0
M  V30 3583 H 359.699 0.304854 -1.43906 0
M  V30 3584 H 361.657 3.11709 -2.77297 0
M  V30 3585 H 360.287 2.7485 -1.69285 0
M  V30 3586 H 359.339 1.24976 -3.59284 0
M  V30 3587 H 360.651 1.84438 -4.63448 0
M  V30 3588 H 359.805 4.1874 -4.39024 0
M  V30 3589 H 358.544 3.63408 -3.25247 0
M  V30 3590 H 357.549 2.18528 -5.04505 0
M  V30 3591 H 358.774 2.76758 -6.20146 0
M  V30 3592 H 356.72 4.4991 -4.77406 0
M  V30 3593 H 356.637 3.98212 -6.42622 0
M  V30 3594 H 357.905 5.06184 -5.92789 0
M  V30 3595 N 362.134 1.5431 0.320358 0
M  V30 3596 C 363.411 1.63322 1.07635 0
M  V30 3597 C 363.791 0.46912 2.05821 0
M  V30 3598 O 363.139 -0.536274 2.22118 0
M  V30 3599 C 363.349 3.00465 1.77544 0
M  V30 3600 C 364.697 3.56621 2.30449 0
M  V30 3601 O 365.721 3.02791 1.87606 0
M  V30 3602 O 364.58 4.5083 3.08892 0
M  V30 3603 H 361.674 0.661502 0.496331 0
M  V30 3604 H 364.22 1.66656 0.319992 0
M  V30 3605 H 362.992 3.76629 1.06143 0
M  V30 3606 H 362.615 3.00824 2.59982 0
M  V30 3607 N 363.613 -0.582584 1.46437 0
M  V30 3608 C 364.859 -1.34278 1.51978 0
M  V30 3609 C 365.192 -1.93446 0.170973 0
M  V30 3610 O 364.467 -1.76481 -0.817608 0
M  V30 3611 C 364.75 -2.47203 2.61845 0
M  V30 3612 C 364.603 -1.93069 4.06257 0
M  V30 3613 C 365.922 -3.49247 2.67795 0
M  V30 3614 H 363.041 -0.486876 0.553282 0
M  V30 3615 H 365.683 -0.654437 1.78374 0
M  V30 3616 H 363.833 -3.0592 2.39469 0
M  V30 3617 H 365.505 -1.38808 4.3992 0
M  V30 3618 H 363.748 -1.23898 4.1573 0
M  V30 3619 H 364.419 -2.74586 4.7886 0
M  V30 3620 H 366.895 -3.00411 2.8791 0
M  V30 3621 H 365.771 -4.25719 3.46489 0
M  V30 3622 H 366.032 -4.06482 1.73852 0
M  V30 3623 N 365.091 -1.34144 -0.827227 0
M  V30 3624 C 366.021 -1.28005 -1.95287 0
M  V30 3625 C 367.002 -0.158321 -1.69362 0
M  V30 3626 O 368.187 -0.349987 -1.9102 0
M  V30 3627 C 365.317 -1.03036 -3.31664 0
M  V30 3628 C 364.271 -2.11628 -3.72019 0
M  V30 3629 C 363.597 -1.71854 -5.0633 0
M  V30 3630 C 364.897 -3.53417 -3.8457 0
M  V30 3631 H 366.591 -2.22187 -2.00682 0
M  V30 3632 H 364.137 -1.0696 -0.964135 0
M  V30 3633 H 366.09 -0.973863 -4.09993 0
M  V30 3634 H 364.814 -0.0529391 -3.26557 0
M  V30 3635 H 363.473 -2.16339 -2.95961 0
M  V30 3636 H 363.121 -0.727841 -4.97706 0
M  V30 3637 H 362.821 -2.44531 -5.34302 0
M  V30 3638 H 364.345 -1.67692 -5.87122 0
M  V30 3639 H 365.759 -3.51142 -4.5318 0
M  V30 3640 H 364.156 -4.24679 -4.2399 0
M  V30 3641 H 365.226 -3.91072 -2.86689 0
M  V30 3642 N 366.569 1.04691 -1.17803 0
M  V30 3643 C 367.815 1.78045 -0.970969 0
M  V30 3644 C 368.148 1.87686 0.498751 0
M  V30 3645 O 367.423 1.38035 1.37027 0
M  V30 3646 C 367.706 3.2166 -1.61884 0
M  V30 3647 C 367.559 3.20001 -3.161 0
M  V30 3648 C 368.878 4.1962 -1.3269 0
M  V30 3649 H 365.997 0.64633 -0.354155 0
M  V30 3650 H 368.639 1.22333 -1.45378 0
M  V30 3651 H 366.789 3.69232 -1.20831 0
M  V30 3652 H 368.461 2.80467 -3.66246 0
M  V30 3653 H 366.704 2.58203 -3.48588 0
M  V30 3654 H 367.375 4.21386 -3.56564 0
M  V30 3655 H 369.851 3.80567 -1.68249 0
M  V30 3656 H 368.727 5.18339 -1.80599 0
M  V30 3657 H 368.988 4.414 -0.248622 0
M  V30 3658 N 368.047 0.979072 1.23499 0
M  V30 3659 C 369.463 0.687475 1.44034 0
M  V30 3660 C 369.663 -0.746801 1.8715 0
M  V30 3661 O 368.719 -1.51939 2.0167 0
M  V30 3662 C 370.032 1.68127 2.49307 0
M  V30 3663 C 371.58 1.69516 2.63122 0
M  V30 3664 C 372.055 2.67723 3.71603 0
M  V30 3665 N 373.546 2.66233 3.79044 0
M  V30 3666 C 374.281 3.38891 4.62537 0
M  V30 3667 N 373.777 4.21103 5.50131 0
M  V30 3668 N 375.57 3.27661 4.56721 0
M  V30 3669 H 367.721 1.90559 0.938135 0
M  V30 3670 H 369.984 0.821051 0.473897 0
M  V30 3671 H 369.69 2.70693 2.2454 0
M  V30 3672 H 369.564 1.46306 3.4767 0
M  V30 3673 H 371.951 0.676561 2.8724 0
M  V30 3674 H 372.032 1.95404 1.65079 0
M  V30 3675 H 371.676 3.69724 3.48233 0
M  V30 3676 H 371.606 2.39111 4.69184 0
M  V30 3677 H 374.097 2.06568 3.16446 0
M  V30 3678 H 374.41 4.73403 6.10827 0
M  V30 3679 H 372.755 4.25195 5.49759 0
M  V30 3680 H 375.946 2.62887 3.87309 0
M  V30 3681 H 376.119 3.84547 5.21562 0
M  V30 3682 N 369.525 -1.3858 0.750561 0
M  V30 3683 C 370.771 -2.0095 0.31477 0
M  V30 3684 C 371.126 -1.58509 -1.09053 0
M  V30 3685 O 370.419 -0.8112 -1.7358 0
M  V30 3686 C 370.613 -3.55455 0.372373 0
M  V30 3687 C 370.442 -4.12898 1.78173 0
M  V30 3688 C 369.212 -4.44797 2.39757 0
M  V30 3689 C 371.41 -4.35366 2.7379 0
M  V30 3690 N 369.392 -4.87831 3.72685 0
M  V30 3691 C 370.763 -4.80775 3.91478 0
M  V30 3692 C 372.818 -4.1746 2.71351 0
M  V30 3693 C 371.521 -5.10155 5.07084 0
M  V30 3694 C 373.547 -4.47963 3.86113 0
M  V30 3695 C 372.909 -4.93593 5.02539 0
M  V30 3696 H 369.008 -0.765083 0.161776 0
M  V30 3697 H 371.592 -1.68246 0.979867 0
M  V30 3698 H 369.763 -3.87512 -0.26244 0
M  V30 3699 H 371.495 -4.04614 -0.0834479 0
M  V30 3700 H 368.25 -4.33135 1.91548 0
M  V30 3701 H 368.674 -5.13685 4.40972 0
M  V30 3702 H 373.316 -3.81372 1.82524 0
M  V30 3703 H 371.034 -5.45141 5.96529 0
M  V30 3704 H 374.62 -4.35717 3.85542 0
M  V30 3705 H 373.5 -5.16746 5.89867 0
M  V30 3706 N 371.003 -0.499398 -1.49478 0
M  V30 3707 C 371.933 0.269244 -2.31943 0
M  V30 3708 C 372.914 0.964054 -1.40143 0
M  V30 3709 O 374.099 0.955767 -1.69052 0
M  V30 3710 C 371.229 1.33504 -3.20615 0
M  V30 3711 C 370.183 0.760202 -4.21195 0
M  V30 3712 C 369.509 1.9264 -4.98792 0
M  V30 3713 C 370.809 -0.247661 -5.21712 0
M  V30 3714 H 372.503 -0.419082 -2.96452 0
M  V30 3715 H 370.049 -0.202988 -1.42562 0
M  V30 3716 H 372.002 1.88048 -3.77115 0
M  V30 3717 H 370.726 2.05253 -2.54045 0
M  V30 3718 H 369.385 0.23653 -3.65836 0
M  V30 3719 H 369.033 2.63154 -4.28671 0
M  V30 3720 H 368.733 1.54785 -5.66847 0
M  V30 3721 H 370.257 2.4762 -5.58137 0
M  V30 3722 H 371.671 0.209579 -5.72917 0
M  V30 3723 H 370.068 -0.541962 -5.97648 0
M  V30 3724 H 371.138 -1.16409 -4.7072 0
M  V30 3725 N 372.481 1.55866 -0.233164 0
M  V30 3726 C 373.413 2.18099 0.704668 0
M  V30 3727 C 374.426 1.15334 1.14899 0
M  V30 3728 O 375.615 1.42262 1.07814 0
M  V30 3729 C 372.715 2.7592 1.96777 0
M  V30 3730 C 371.888 4.03969 1.67713 0
M  V30 3731 C 370.947 4.46242 2.78845 0
M  V30 3732 O 369.973 5.12903 2.46818 0
M  V30 3733 N 371.175 4.12886 4.08051 0
M  V30 3734 H 373.94 2.99205 0.172258 0
M  V30 3735 H 371.501 1.61815 -0.0525945 0
M  V30 3736 H 373.493 3.01165 2.70337 0
M  V30 3737 H 372.063 1.99051 2.41034 0
M  V30 3738 H 371.283 3.86459 0.777391 0
M  V30 3739 H 372.571 4.8748 1.4574 0
M  V30 3740 H 371.969 3.59342 4.3691 0
M  V30 3741 H 370.526 4.42997 4.78118 0
M  V30 3742 N 373.959 -0.0401083 1.57549 0
M  V30 3743 C 375.207 -0.731677 1.8839 0
M  V30 3744 C 375.528 -1.76481 0.829425 0
M  V30 3745 O 374.798 -1.95411 -0.1383 0
M  V30 3746 H 373.378 -0.273225 0.695239 0
M  V30 3747 H 376.04 -0.00867725 1.94898 0
M  V30 3748 H 375.136 -1.22816 2.86919 0
M  V30 3749 N 375.437 -1.54477 -0.31217 0
M  V30 3750 C 376.662 -1.77526 -1.07235 0
M  V30 3751 C 377.087 -0.527775 -1.80544 0
M  V30 3752 O 376.445 0.52121 -1.73646 0
M  V30 3753 C 376.493 -2.97535 -2.03728 0
M  V30 3754 O 375.597 -2.69878 -3.11833 0
M  V30 3755 H 374.938 -0.58792 -0.30862 0
M  V30 3756 H 377.468 -2.01532 -0.352993 0
M  V30 3757 H 377.478 -3.25198 -2.46395 0
M  V30 3758 H 376.153 -3.87996 -1.49774 0
M  V30 3759 H 374.73 -2.53199 -2.7376 0
M  V30 3760 N 376.915 0.57481 -1.46744 0
M  V30 3761 C 377.847 1.69804 -1.53946 0
M  V30 3762 C 378.86 1.57098 -0.427106 0
M  V30 3763 O 380.049 1.64378 -0.695863 0
M  V30 3764 C 377.149 3.08125 -1.4111 0
M  V30 3765 C 376.322 3.46757 -2.66605 0
M  V30 3766 C 375.381 4.6417 -2.47855 0
M  V30 3767 O 374.407 4.69634 -3.21609 0
M  V30 3768 N 375.609 5.59553 -1.54534 0
M  V30 3769 H 378.374 1.64077 -2.50796 0
M  V30 3770 H 375.935 0.761 -1.429 0
M  V30 3771 H 377.927 3.84478 -1.26328 0
M  V30 3772 H 376.497 3.08175 -0.524109 0
M  V30 3773 H 375.717 2.6003 -2.96274 0
M  V30 3774 H 377.005 3.69337 -3.49954 0
M  V30 3775 H 376.403 5.57881 -0.937304 0
M  V30 3776 H 374.96 6.35304 -1.45711 0
M  V30 3777 N 378.394 1.34581 0.820102 0
M  V30 3778 C 379.304 1.28471 1.96297 0
M  V30 3779 C 380.32 0.191902 1.72939 0
M  V30 3780 O 381.496 0.418879 1.96996 0
M  V30 3781 C 378.561 1.04281 3.30645 0
M  V30 3782 C 377.622 2.22745 3.66992 0
M  V30 3783 C 376.855 1.997 4.9493 0
M  V30 3784 O 377.078 0.956656 5.6232 0
M  V30 3785 O 376.012 2.86723 5.2922 0
M  V30 3786 H 379.838 2.24624 2.04396 0
M  V30 3787 H 377.423 1.14816 0.955913 0
M  V30 3788 H 379.305 0.925841 4.11104 0
M  V30 3789 H 377.98 0.111697 3.23507 0
M  V30 3790 H 376.887 2.40003 2.86966 0
M  V30 3791 H 378.22 3.14257 3.78819 0
M  V30 3792 N 379.872 -1.04064 1.18357 0
M  V30 3793 C 380.802 -2.14001 0.934113 0
M  V30 3794 C 381.783 -1.69616 -0.128186 0
M  V30 3795 O 382.968 -1.94185 0.0244093 0
M  V30 3796 C 380.098 -3.44253 0.459066 0
M  V30 3797 C 379.052 -4.02261 1.46185 0
M  V30 3798 C 378.378 -5.27992 0.844322 0
M  V30 3799 C 379.678 -4.38432 2.83856 0
M  V30 3800 H 381.372 -2.35127 1.85352 0
M  V30 3801 H 378.918 -1.12998 0.892604 0
M  V30 3802 H 380.871 -4.20522 0.271907 0
M  V30 3803 H 379.595 -3.22813 -0.495912 0
M  V30 3804 H 378.254 -3.28074 1.63595 0
M  V30 3805 H 377.902 -5.02862 -0.117845 0
M  V30 3806 H 377.602 -5.67765 1.51384 0
M  V30 3807 H 379.126 -6.06938 0.667693 0
M  V30 3808 H 380.54 -5.05688 2.70098 0
M  V30 3809 H 378.937 -4.89254 3.47491 0
M  V30 3810 H 380.007 -3.4826 3.37406 0
M  V30 3811 N 381.35 -0.985608 -1.22978 0
M  V30 3812 C 382.761 -0.693593 -1.73338 0
M  V30 3813 C 383.112 0.789935 -1.79595 0
M  V30 3814 O 382.237 1.61771 -1.43733 0
M  V30 3815 C 382.832 -1.25235 -3.14804 0
M  V30 3816 C 381.391 -1.00987 -3.626 0
M  V30 3817 C 380.538 -1.37695 -2.40698 0
M  V30 3818 H 383.489 -1.15884 -1.08428 0
M  V30 3819 H 383.51 -0.627329 -3.75293 0
M  V30 3820 H 383.022 -2.33209 -3.10218 0
M  V30 3821 H 381.123 0.0535565 -3.72562 0
M  V30 3822 H 381.236 -1.66812 -4.49122 0
M  V30 3823 H 379.6 -0.795459 -2.4196 0
M  V30 3824 H 380.383 -2.46657 -2.38779 0
M  V30 3825 N 382.828 1.3818 -0.7579 0
M  V30 3826 C 384.244 1.5353 -0.435972 0
M  V30 3827 C 384.444 1.71961 1.05032 0
M  V30 3828 O 383.5 1.73307 1.83633 0
M  V30 3829 C 384.813 2.73989 -1.23898 0
M  V30 3830 C 386.361 2.87841 -1.22949 0
M  V30 3831 C 386.836 4.11266 -2.01554 0
M  V30 3832 N 388.327 4.18352 -1.98837 0
M  V30 3833 C 389.062 5.12856 -2.5645 0
M  V30 3834 N 388.558 6.13005 -3.22794 0
M  V30 3835 N 390.351 5.05238 -2.46356 0
M  V30 3836 H 382.502 1.24467 -1.7211 0
M  V30 3837 H 384.765 0.604982 -0.729864 0
M  V30 3838 H 384.471 2.66789 -2.29165 0
M  V30 3839 H 384.345 3.67294 -0.858764 0
M  V30 3840 H 386.732 2.9452 -0.184854 0
M  V30 3841 H 386.813 1.95534 -1.64924 0
M  V30 3842 H 386.457 4.05349 -3.06031 0
M  V30 3843 H 386.387 5.02661 -1.5697 0
M  V30 3844 H 388.878 3.46628 -1.50524 0
M  V30 3845 H 389.191 6.81619 -3.64165 0
M  V30 3846 H 387.536 6.13325 -3.2689 0
M  V30 3847 H 390.727 4.25938 -1.9415 0
M  V30 3848 H 390.9 5.78707 -2.91552 0
M  V30 3849 N 384.306 0.507319 1.49211 0
M  V30 3850 C 385.216 -0.272136 2.33016 0
M  V30 3851 C 386.232 -0.961206 1.45041 0
M  V30 3852 O 387.408 -0.941191 1.78055 0
M  V30 3853 C 384.473 -1.31895 3.20631 0
M  V30 3854 C 383.534 -0.642648 4.24463 0
M  V30 3855 C 382.767 -1.63959 5.07891 0
M  V30 3856 O 382.99 -2.87007 4.92933 0
M  V30 3857 O 381.924 -1.19143 5.8999 0
M  V30 3858 H 385.75 0.413982 3.00865 0
M  V30 3859 H 383.335 0.268556 1.46966 0
M  V30 3860 H 385.217 -1.92446 3.7489 0
M  V30 3861 H 383.892 -1.98788 2.5547 0
M  V30 3862 H 382.799 0.00276252 3.741 0
M  V30 3863 H 384.132 -0.0160534 4.92197 0
M  V30 3864 N 385.784 -1.5574 0.241426 0
M  V30 3865 C 386.731 -2.21149 -0.660432 0
M  V30 3866 C 387.701 -1.17356 -1.17545 0
M  V30 3867 O 388.886 -1.45784 -1.23093 0
M  V30 3868 C 386.026 -2.91059 -1.85414 0
M  V30 3869 C 385.139 -4.09495 -1.37616 0
M  V30 3870 C 384.274 -4.67135 -2.529 0
M  V30 3871 C 383.313 -5.77831 -2.01936 0
M  V30 3872 N 382.45 -6.29677 -3.10566 0
M  V30 3873 H 387.29 -2.97845 -0.095955 0
M  V30 3874 H 384.827 -1.47057 -0.0356024 0
M  V30 3875 H 386.785 -3.29788 -2.5553 0
M  V30 3876 H 385.415 -2.16846 -2.39118 0
M  V30 3877 H 384.467 -3.76117 -0.569235 0
M  V30 3878 H 385.779 -4.89423 -0.962618 0
M  V30 3879 H 384.933 -5.08409 -3.31067 0
M  V30 3880 H 383.672 -3.86411 -2.97553 0
M  V30 3881 H 382.677 -5.36039 -1.22238 0
M  V30 3882 H 383.902 -6.60402 -1.58259 0
M  V30 3883 H 381.848 -5.5186 -3.54664 0
M  V30 3884 H 381.765 -7.04783 -2.73526 0
M  V30 3885 H 383.033 -6.75609 -3.88809 0
M  V30 3886 N 387.262 0.0317525 -1.57568 0
M  V30 3887 C 388.492 0.733884 -1.93126 0
M  V30 3888 C 388.9 1.69563 -0.839352 0
M  V30 3889 O 388.243 1.82681 0.193175 0
M  V30 3890 C 388.305 1.54798 -3.24465 0
M  V30 3891 C 387.969 0.751304 -4.50782 0
M  V30 3892 C 388.966 0.0527632 -5.19873 0
M  V30 3893 C 386.651 0.706639 -4.97305 0
M  V30 3894 C 388.645 -0.679774 -6.33765 0
M  V30 3895 C 386.332 -0.0296449 -6.11093 0
M  V30 3896 C 387.33 -0.721614 -6.79177 0
M  V30 3897 O 387.018 -1.44595 -7.90789 0
M  V30 3898 H 386.75 0.211459 -0.642076 0
M  V30 3899 H 389.304 -0.00585615 -2.05399 0
M  V30 3900 H 387.534 2.33147 -3.08512 0
M  V30 3901 H 389.223 2.13247 -3.4537 0
M  V30 3902 H 389.989 0.0783188 -4.84937 0
M  V30 3903 H 385.868 1.23474 -4.44157 0
M  V30 3904 H 389.412 -1.22042 -6.86842 0
M  V30 3905 H 385.309 -0.0571331 -6.45475 0
M  V30 3906 H 386.077 -1.35935 -8.07133 0
M  V30 3907 N 388.74 1.54641 0.303973 0
M  V30 3908 C 389.67 1.88386 1.3796 0
M  V30 3909 C 390.651 0.742485 1.5304 0
M  V30 3910 O 391.836 0.997959 1.66597 0
M  V30 3911 C 388.966 2.12854 2.74427 0
M  V30 3912 C 387.92 3.28702 2.74115 0
M  V30 3913 C 387.246 3.38582 4.13844 0
M  V30 3914 C 388.546 4.65881 2.3612 0
M  V30 3915 H 390.24 2.78474 1.09966 0
M  V30 3916 H 387.786 1.33988 0.527556 0
M  V30 3917 H 389.739 2.35047 3.49758 0
M  V30 3918 H 388.463 1.19535 3.03939 0
M  V30 3919 H 387.122 3.06428 2.0124 0
M  V30 3920 H 386.77 2.42784 4.40528 0
M  V30 3921 H 386.47 4.16453 4.14537 0
M  V30 3922 H 387.994 3.63031 4.90959 0
M  V30 3923 H 389.408 4.87823 3.01167 0
M  V30 3924 H 387.805 5.46444 2.48031 0
M  V30 3925 H 388.875 4.66799 1.3125 0
M  V30 3926 N 390.218 -0.567019 1.47046 0
M  V30 3927 C 391.446 -1.35027 1.56765 0
M  V30 3928 C 391.861 -1.8758 0.214316 0
M  V30 3929 O 391.218 -1.64471 -0.790919 0
M  V30 3930 C 391.269 -2.52698 2.58507 0
M  V30 3931 O 390.99 -2.0232 3.88585 0
M  V30 3932 C 392.491 -3.45043 2.78316 0
M  V30 3933 H 389.711 -0.41195 0.529658 0
M  V30 3934 H 392.255 -0.687832 1.92585 0
M  V30 3935 H 390.41 -3.149 2.25648 0
M  V30 3936 H 390.824 -2.79068 4.44096 0
M  V30 3937 H 392.298 -4.2405 3.53391 0
M  V30 3938 H 392.775 -3.97971 1.85784 0
M  V30 3939 H 393.381 -2.88665 3.12334 0
M  V30 3940 N 391.696 -1.35014 -0.812953 0
M  V30 3941 C 392.942 -1.29129 -1.57154 0
M  V30 3942 C 393.297 0.134922 -1.91926 0
M  V30 3943 O 392.59 1.08373 -1.58006 0
M  V30 3944 C 392.784 -2.12524 -2.87347 0
M  V30 3945 C 392.613 -3.6311 -2.65294 0
M  V30 3946 C 391.383 -4.32363 -2.61516 0
M  V30 3947 C 393.581 -4.56897 -2.36114 0
M  V30 3948 N 391.563 -5.68735 -2.31113 0
M  V30 3949 C 392.934 -5.81345 -2.15494 0
M  V30 3950 C 394.989 -4.45706 -2.21925 0
M  V30 3951 C 393.692 -6.95862 -1.82122 0
M  V30 3952 C 395.718 -5.60066 -1.89948 0
M  V30 3953 C 395.08 -6.83539 -1.7016 0
M  V30 3954 H 391.179 -0.527764 -0.577052 0
M  V30 3955 H 393.763 -1.6983 -0.952146 0
M  V30 3956 H 391.934 -1.74104 -3.47192 0
M  V30 3957 H 393.666 -1.98207 -3.5284 0
M  V30 3958 H 390.421 -3.84907 -2.75941 0
M  V30 3959 H 390.845 -6.40694 -2.18724 0
M  V30 3960 H 395.487 -3.50855 -2.35925 0
M  V30 3961 H 393.205 -7.90685 -1.6686 0
M  V30 3962 H 396.791 -5.53357 -1.79687 0
M  V30 3963 H 395.671 -7.70531 -1.45777 0
M  V30 3964 N 393.175 1.03435 -1.18907 0
M  V30 3965 C 394.138 2.09756 -0.923844 0
M  V30 3966 C 395.138 1.60528 0.093416 0
M  V30 3967 O 396.328 1.73631 -0.140727 0
M  V30 3968 C 393.46 3.38692 -0.387354 0
M  V30 3969 H 394.653 2.34719 -1.86674 0
M  V30 3970 H 392.206 1.19959 -1.00197 0
M  V30 3971 H 392.941 3.19396 0.561845 0
M  V30 3972 H 392.726 3.75742 -1.12074 0
M  V30 3973 H 394.216 4.17016 -0.220694 0
M  V30 3974 N 394.653 0.992116 1.22453 0
M  V30 3975 C 395.878 0.685644 1.95739 0
M  V30 3976 C 396.303 -0.743 1.72804 0
M  V30 3977 O 395.661 -1.50778 1.00676 0
M  V30 3978 C 395.709 0.996293 3.46564 0
M  V30 3979 O 394.813 0.0945512 4.12292 0
M  V30 3980 H 394.154 0.256694 0.612376 0
M  V30 3981 H 396.684 1.32888 1.5557 0
M  V30 3982 H 396.694 0.93781 3.97076 0
M  V30 3983 H 395.369 2.03733 3.62582 0
M  V30 3984 H 393.946 0.208451 3.72317 0
M  V30 3985 N 396.131 -1.37776 0.765217 0
M  V30 3986 C 397.547 -1.53297 0.444108 0
M  V30 3987 C 397.747 -1.72515 -1.04119 0
M  V30 3988 O 396.803 -1.74278 -1.82711 0
M  V30 3989 C 398.116 -2.73328 1.25349 0
M  V30 3990 C 399.664 -2.87185 1.24473 0
M  V30 3991 C 400.139 -4.10191 2.03733 0
M  V30 3992 N 401.63 -4.17291 2.01053 0
M  V30 3993 C 402.365 -5.11488 2.59166 0
M  V30 3994 N 401.861 -6.11285 3.26041 0
M  V30 3995 N 403.654 -5.03924 2.49032 0
M  V30 3996 H 395.805 -1.23552 1.72768 0
M  V30 3997 H 398.068 -0.601103 0.733062 0
M  V30 3998 H 397.774 -2.6557 2.30577 0
M  V30 3999 H 397.648 -3.66834 0.87823 0
M  V30 4000 H 400.035 -2.94418 0.20047 0
M  V30 4001 H 400.116 -1.94657 1.65959 0
M  V30 4002 H 399.76 -4.0372 3.08176 0
M  V30 4003 H 399.69 -5.01821 1.59633 0
M  V30 4004 H 402.181 -3.45825 1.5236 0
M  V30 4005 H 402.494 -6.79678 3.67774 0
M  V30 4006 H 400.839 -6.11583 3.30138 0
M  V30 4007 H 404.03 -4.24902 1.96407 0
M  V30 4008 H 404.203 -5.77152 2.94617 0
M  V30 4009 N 397.609 -0.515225 -1.4894 0
M  V30 4010 C 398.541 0.292481 -2.27326 0
M  V30 4011 C 399.554 0.917838 -1.3446 0
M  V30 4012 O 400.743 0.798772 -1.5963 0
M  V30 4013 C 397.843 1.42803 -3.07344 0
M  V30 4014 C 397.016 0.907347 -4.27885 0
M  V30 4015 C 396.075 1.92222 -4.89834 0
M  V30 4016 O 395.101 1.48506 -5.49486 0
M  V30 4017 N 396.303 3.25355 -4.80754 0
M  V30 4018 H 399.068 -0.379721 -2.97285 0
M  V30 4019 H 396.629 -0.348638 -1.58102 0
M  V30 4020 H 398.621 2.10481 -3.45658 0
M  V30 4021 H 397.191 2.00414 -2.39902 0
M  V30 4022 H 396.411 0.0550218 -3.94162 0
M  V30 4023 H 397.699 0.538108 -5.05946 0
M  V30 4024 H 397.097 3.6355 -4.33414 0
M  V30 4025 H 395.654 3.88707 -5.23211 0
M  V30 4026 N 399.087 1.5561 -0.249682 0
M  V30 4027 C 399.997 2.25143 0.659375 0
M  V30 4028 C 401.013 1.2685 1.19101 0
M  V30 4029 O 402.189 1.59732 1.22669 0
M  V30 4030 C 399.254 2.93945 1.8384 0
M  V30 4031 C 398.315 4.07655 1.34596 0
M  V30 4032 C 397.548 4.73167 2.46878 0
M  V30 4033 O 397.771 4.37768 3.65671 0
M  V30 4034 O 396.705 5.61623 2.16478 0
M  V30 4035 H 400.531 3.03545 0.0968698 0
M  V30 4036 H 398.116 1.49389 -0.018074 0
M  V30 4037 H 399.998 3.37271 2.52638 0
M  V30 4038 H 398.673 2.18481 2.38847 0
M  V30 4039 H 397.58 3.68839 0.625174 0
M  V30 4040 H 398.913 4.84946 0.841941 0
M  V30 4041 N 400.565 -0.0233959 1.57583 0
M  V30 4042 C 401.976 -0.56927 1.77809 0
M  V30 4043 C 402.327 -1.75284 0.881472 0
M  V30 4044 O 401.452 -2.1626 0.0777805 0
M  V30 4045 C 402.047 -1.03949 3.22459 0
M  V30 4046 C 400.606 -1.53084 3.43864 0
M  V30 4047 C 399.753 -0.471454 2.73263 0
M  V30 4048 H 402.704 0.202825 1.57399 0
M  V30 4049 H 402.725 -1.90661 3.29285 0
M  V30 4050 H 402.237 -0.177865 3.87692 0
M  V30 4051 H 400.338 -2.41414 2.83814 0
M  V30 4052 H 400.451 -1.57443 4.52491 0
M  V30 4053 H 398.815 -0.927788 2.37201 0
M  V30 4054 H 399.598 0.380808 3.41181 0
M  V30 4055 N 402.043 -1.548 -0.295768 0
M  V30 4056 C 403.268 -1.78653 -1.05346 0
M  V30 4057 C 403.693 -0.546894 -1.79974 0
M  V30 4058 O 403.051 0.502763 -1.7419 0
M  V30 4059 C 403.099 -2.99679 -2.00561 0
M  V30 4060 O 402.203 -2.7317 -3.08953 0
M  V30 4061 H 401.544 -0.59116 -0.302367 0
M  V30 4062 H 404.074 -2.01895 -0.331598 0
M  V30 4063 H 404.084 -3.27793 -2.42932 0
M  V30 4064 H 402.759 -3.89562 -1.4565 0
M  V30 4065 H 401.336 -2.56089 -2.71059 0
M  V30 4066 N 403.521 0.559213 -1.47345 0
M  V30 4067 C 404.453 1.68161 -1.55738 0
M  V30 4068 C 405.466 1.56636 -0.443744 0
M  V30 4069 O 406.655 1.6363 -0.713258 0
M  V30 4070 C 403.755 3.06611 -1.4437 0
M  V30 4071 C 402.928 3.4391 -2.70268 0
M  V30 4072 C 401.987 4.61515 -2.52765 0
M  V30 4073 O 401.013 4.66197 -3.26572 0
M  V30 4074 N 402.215 5.57883 -1.6046 0
M  V30 4075 H 404.98 1.61408 -2.52522 0
M  V30 4076 H 402.541 0.7458 -1.43699 0
M  V30 4077 H 404.533 3.83117 -1.30398 0
M  V30 4078 H 403.103 3.07602 -0.556766 0
M  V30 4079 H 402.323 2.56873 -2.99015 0
M  V30 4080 H 403.611 3.65605 -3.53851 0
M  V30 4081 H 403.009 5.56855 -0.996422 0
M  V30 4082 H 401.566 6.33723 -1.52441 0
M  V30 4083 N 404.999 1.35443 0.805782 0
M  V30 4084 C 406.247 1.28507 1.55982 0
M  V30 4085 C 406.568 -0.140046 1.94496 0
M  V30 4086 O 405.838 -1.07666 1.63661 0
M  V30 4087 H 404.418 0.472676 0.578434 0
M  V30 4088 H 407.08 1.69555 0.961098 0
M  V30 4089 H 406.176 1.90148 2.47488 0
M  V30 4090 N 406.477 -1.02803 1.19454 0
M  V30 4091 C 407.705 -1.79841 1.02297 0
M  V30 4092 C 408.12 -1.83879 -0.428259 0
M  V30 4093 O 407.477 -1.28345 -1.29745 0
M  V30 4094 C 407.528 -3.24852 1.58598 0
M  V30 4095 O 407.249 -3.21097 2.98041 0
M  V30 4096 C 408.75 -4.18485 1.46236 0
M  V30 4097 H 405.97 -0.565936 0.360496 0
M  V30 4098 H 408.514 -1.2948 1.58288 0
M  V30 4099 H 406.669 -3.72401 1.06753 0
M  V30 4100 H 407.083 -4.12033 3.24545 0
M  V30 4101 H 408.557 -5.18121 1.90407 0
M  V30 4102 H 409.034 -4.37254 0.41301 0
M  V30 4103 H 409.64 -3.76811 1.97215 0
M  V30 4104 N 407.956 -0.998596 -1.21925 0
M  V30 4105 C 409.184 -0.696286 -1.94832 0
M  V30 4106 C 409.599 0.740032 -1.73692 0
M  V30 4107 O 408.956 1.5 -1.03953 0
M  V30 4108 C 409.007 -0.999833 -3.47398 0
M  V30 4109 O 408.728 -2.37972 -3.67833 0
M  V30 4110 C 410.229 -0.716025 -4.37479 0
M  V30 4111 H 407.449 -0.257111 -0.619786 0
M  V30 4112 H 409.993 -1.33491 -1.54921 0
M  V30 4113 H 408.148 -0.406918 -3.85257 0
M  V30 4114 H 408.562 -2.48338 -4.61983 0
M  V30 4115 H 410.036 -0.978642 -5.43256 0
M  V30 4116 H 410.513 0.349968 -4.37803 0
M  V30 4117 H 411.119 -1.29025 -4.05256 0
M  V30 4118 N 409.434 1.37368 -0.772513 0
M  V30 4119 C 410.662 2.03942 -0.348588 0
M  V30 4120 C 411.077 1.58264 1.02947 0
M  V30 4121 O 410.434 0.764246 1.65727 0
M  V30 4122 C 410.485 3.5946 -0.38351 0
M  V30 4123 O 410.206 4.03468 -1.70721 0
M  V30 4124 C 411.707 4.4327 0.0519152 0
M  V30 4125 H 408.927 0.654931 -0.145966 0
M  V30 4126 H 411.471 1.75686 -1.04665 0
M  V30 4127 H 409.626 3.86486 0.265978 0
M  V30 4128 H 410.04 4.97991 -1.64636 0
M  V30 4129 H 411.514 5.51995 -0.0236733 0
M  V30 4130 H 411.991 4.2514 1.10238 0
M  V30 4131 H 412.597 4.21471 -0.569415 0
M  V30 4132 N 410.912 0.523116 1.48665 0
M  V30 4133 C 412.159 -0.0134763 2.02496 0
M  V30 4134 C 412.487 -1.3493 1.40086 0
M  V30 4135 O 411.742 -1.88286 0.533567 0
M  V30 4136 C 412.041 -0.191671 3.56886 0
M  V30 4137 C 411.707 1.06893 4.38046 0
M  V30 4138 C 410.369 1.41443 4.59943 0
M  V30 4139 C 412.721 1.90584 4.85106 0
M  V30 4140 C 410.049 2.59594 5.26144 0
M  V30 4141 C 412.401 3.07907 5.52609 0
M  V30 4142 C 411.065 3.42811 5.72745 0
M  V30 4143 H 410.335 -0.00493133 0.740984 0
M  V30 4144 H 412.982 0.687751 1.78724 0
M  V30 4145 H 411.287 -0.97561 3.79459 0
M  V30 4146 H 412.984 -0.621659 3.96152 0
M  V30 4147 H 409.574 0.789848 4.21259 0
M  V30 4148 H 413.758 1.65203 4.67997 0
M  V30 4149 H 409.014 2.86847 5.39934 0
M  V30 4150 H 413.188 3.73066 5.88043 0
M  V30 4151 H 410.815 4.34462 6.23816 0
M  V30 4152 N 412.39 -1.55475 0.257931 0
M  V30 4153 C 413.353 -2.20551 -0.623706 0
M  V30 4154 C 414.353 -1.17809 -1.09443 0
M  V30 4155 O 415.543 -1.42823 -0.997362 0
M  V30 4156 C 412.675 -2.85784 -1.8585 0
M  V30 4157 H 413.868 -2.99848 -0.0557743 0
M  V30 4158 H 411.421 -1.56298 0.0084422 0
M  V30 4159 H 412.156 -2.10453 -2.46739 0
M  V30 4160 H 411.941 -3.61057 -1.52907 0
M  V30 4161 H 413.431 -3.35553 -2.48584 0
M  V30 4162 N 413.868 0.0150385 -1.57593 0
M  V30 4163 C 415.114 0.704043 -1.90187 0
M  V30 4164 C 415.447 1.74249 -0.857366 0
M  V30 4165 O 414.722 1.94092 0.125843 0
M  V30 4166 C 415.005 1.36087 -3.33395 0
M  V30 4167 C 414.858 0.334981 -4.48551 0
M  V30 4168 C 416.177 2.29112 -3.7576 0
M  V30 4169 H 413.296 0.254475 -0.691673 0
M  V30 4170 H 415.938 -0.0331678 -1.89971 0
M  V30 4171 H 414.088 1.98922 -3.3371 0
M  V30 4172 H 415.76 -0.292534 -4.60372 0
M  V30 4173 H 414.003 -0.344325 -4.32431 0
M  V30 4174 H 414.674 0.833316 -5.45674 0
M  V30 4175 H 417.15 1.76308 -3.76902 0
M  V30 4176 H 416.026 2.72043 -4.76743 0
M  V30 4177 H 416.287 3.16385 -3.08793 0
M  V30 4178 N 415.346 1.54954 0.287554 0
M  V30 4179 C 416.574 1.78881 1.03967 0
M  V30 4180 C 416.989 0.554894 1.80462 0
M  V30 4181 O 416.346 -0.475676 1.76192 0
M  V30 4182 C 416.397 3.00488 2.0097 0
M  V30 4183 O 416.118 4.19113 1.27577 0
M  V30 4184 C 417.619 3.36907 2.88112 0
M  V30 4185 H 414.839 0.596259 0.307761 0
M  V30 4186 H 417.383 2.01937 0.322749 0
M  V30 4187 H 415.538 2.79601 2.68145 0
M  V30 4188 H 415.952 4.87765 1.92835 0
M  V30 4189 H 417.426 4.25205 3.52001 0
M  V30 4190 H 417.903 2.55659 3.57121 0
M  V30 4191 H 418.509 3.60001 2.26449 0
M  V30 4192 N 416.824 -0.551391 1.4764 0
M  V30 4193 C 418.049 -1.33837 1.58437 0
M  V30 4194 C 418.474 -1.866 0.237063 0
M  V30 4195 O 417.832 -1.6328 -0.787994 0
M  V30 4196 C 417.88 -2.48014 2.61766 0
M  V30 4197 O 416.984 -3.50419 2.1744 0
M  V30 4198 H 416.325 -0.397299 0.532024 0
M  V30 4199 H 418.855 -0.665759 1.93465 0
M  V30 4200 H 418.865 -2.94503 2.82369 0
M  V30 4201 H 417.54 -2.08969 3.5959 0
M  V30 4202 H 416.117 -3.10196 2.06961 0
M  V30 4203 N 418.302 -1.35869 -0.798587 0
M  V30 4204 C 419.551 -1.28921 -1.5512 0
M  V30 4205 C 419.864 0.13208 -1.95154 0
M  V30 4206 O 421.07 0.323879 -2.69561 0
M  V30 4207 C 419.526 -2.26141 -2.79979 0
M  V30 4208 C 419.134 -3.73658 -2.47151 0
M  V30 4209 C 420.878 -2.28152 -3.57976 0
M  V30 4210 C 418.785 -4.62679 -3.6835 0
M  V30 4211 H 417.715 -0.479031 -0.582276 0
M  V30 4212 H 420.366 -1.61179 -0.877125 0
M  V30 4213 H 418.748 -1.86865 -3.49138 0
M  V30 4214 H 419.922 -4.21616 -1.85947 0
M  V30 4215 H 418.237 -3.74333 -1.82383 0
M  V30 4216 H 420.834 -2.91875 -4.4801 0
M  V30 4217 H 421.177 -1.28748 -3.95891 0
M  V30 4218 H 421.71 -2.65998 -2.95787 0
M  V30 4219 H 418.449 -5.63111 -3.35538 0
M  V30 4220 H 417.969 -4.19442 -4.28752 0
M  V30 4221 H 419.648 -4.78498 -4.35487 0
M  V30 4222 N 419.78 1.02168 -1.19998 0
M  V30 4223 C 420.71 2.12488 -0.96804 0
M  V30 4224 C 421.691 1.69799 0.101185 0
M  V30 4225 O 422.876 1.94121 -0.0552993 0
M  V30 4226 C 420.006 3.43479 -0.513776 0
M  V30 4227 C 418.96 3.99884 -1.52566 0
M  V30 4228 C 418.286 5.26582 -0.928214 0
M  V30 4229 C 419.586 4.33861 -2.90795 0
M  V30 4230 H 421.28 2.32149 -1.89069 0
M  V30 4231 H 418.826 1.11564 -0.910468 0
M  V30 4232 H 420.779 4.20036 -0.338774 0
M  V30 4233 H 419.503 3.23561 0.444493 0
M  V30 4234 H 418.162 3.25429 -1.68794 0
M  V30 4235 H 417.81 5.02986 0.0378289 0
M  V30 4236 H 417.51 5.65284 -1.60397 0
M  V30 4237 H 419.034 6.05799 -0.764167 0
M  V30 4238 H 420.448 5.01327 -2.78109 0
M  V30 4239 H 418.845 4.83664 -3.55231 0
M  V30 4240 H 419.915 3.42848 -3.42904 0
M  V30 4241 N 421.258 1.00505 1.21394 0
M  V30 4242 C 422.674 0.717873 1.42544 0
M  V30 4243 C 422.874 -0.706936 1.88692 0
M  V30 4244 O 421.93 -1.47627 2.04847 0
M  V30 4245 C 423.243 1.73377 2.45684 0
M  V30 4246 C 424.791 1.75059 2.59467 0
M  V30 4247 C 425.266 2.75545 3.6584 0
M  V30 4248 N 426.757 2.74213 3.73311 0
M  V30 4249 C 427.492 3.48626 4.55245 0
M  V30 4250 N 426.988 4.32678 5.41075 0
M  V30 4251 N 428.781 3.37276 4.49668 0
M  V30 4252 H 420.932 1.92506 0.897503 0
M  V30 4253 H 423.195 0.830919 0.456375 0
M  V30 4254 H 422.901 2.75395 2.18748 0
M  V30 4255 H 422.775 1.53647 3.44489 0
M  V30 4256 H 425.162 0.737337 2.8574 0
M  V30 4257 H 425.243 1.98861 1.60897 0
M  V30 4258 H 424.887 3.77028 3.40313 0
M  V30 4259 H 424.817 2.49009 4.64007 0
M  V30 4260 H 427.308 2.13234 3.11993 0
M  V30 4261 H 427.621 4.86253 6.00648 0
M  V30 4262 H 425.966 4.3676 5.40616 0
M  V30 4263 H 429.157 2.71043 3.81646 0
M  V30 4264 H 429.33 3.95524 5.13288 0
M  V30 4265 N 422.737 -1.36956 0.779787 0
M  V30 4266 C 423.983 -1.99787 0.348281 0
M  V30 4267 C 424.316 -1.61756 -1.07465 0
M  V30 4268 O 423.591 -0.867639 -1.74075 0
M  V30 4269 C 423.874 -3.56597 0.50104 0
M  V30 4270 C 423.727 -4.04513 1.96697 0
M  V30 4271 C 425.046 -4.40008 -0.0898097 0
M  V30 4272 H 422.165 -0.725796 0.128022 0
M  V30 4273 H 424.807 -1.62514 0.984331 0
M  V30 4274 H 422.957 -3.88479 -0.0404347 0
M  V30 4275 H 424.629 -3.83161 2.56876 0
M  V30 4276 H 422.872 -3.56408 2.47297 0
M  V30 4277 H 423.543 -5.1352 2.02486 0
M  V30 4278 H 426.019 -4.14431 0.372293 0
M  V30 4279 H 424.895 -5.4888 0.0471605 0
M  V30 4280 H 425.156 -4.26035 -1.18096 0
M  V30 4281 N 424.215 -0.530993 -1.48385 0
M  V30 4282 C 425.178 0.220497 -2.28137 0
M  V30 4283 C 426.178 0.866851 -1.35434 0
M  V30 4284 O 427.368 0.726746 -1.58316 0
M  V30 4285 C 424.5 1.31921 -3.1434 0
M  V30 4286 H 425.693 -0.479714 -2.96038 0
M  V30 4287 H 423.246 -0.286968 -1.53643 0
M  V30 4288 H 423.981 2.05264 -2.51072 0
M  V30 4289 H 423.766 0.86085 -3.82533 0
M  V30 4290 H 425.256 1.84776 -3.74497 0
M  V30 4291 N 425.693 1.55336 -0.266172 0
M  V30 4292 C 426.656 2.20878 0.612001 0
M  V30 4293 C 427.656 1.18388 1.08816 0
M  V30 4294 O 428.846 1.4335 0.989774 0
M  V30 4295 C 425.978 2.86765 1.84332 0
M  V30 4296 H 427.171 2.99873 0.0398718 0
M  V30 4297 H 424.724 1.56291 -0.0167309 0
M  V30 4298 H 425.459 2.11759 2.45619 0
M  V30 4299 H 425.244 3.61862 1.5099 0
M  V30 4300 H 426.734 3.36867 2.46801 0
M  V30 4301 N 427.171 -0.0066808 1.57599 0
M  V30 4302 C 428.081 -1.01671 2.11424 0
M  V30 4303 C 429.097 -1.38143 1.05795 0
M  V30 4304 O 430.273 -1.47011 1.37658 0
M  V30 4305 C 427.338 -2.29192 2.60139 0
M  V30 4306 C 426.399 -1.99094 3.80342 0
M  V30 4307 C 425.632 -3.20535 4.26724 0
M  V30 4308 O 425.855 -4.3199 3.72479 0
M  V30 4309 O 424.789 -3.04924 5.18946 0
M  V30 4310 H 428.615 -0.589181 2.9793 0
M  V30 4311 H 426.2 -0.225091 1.47695 0
M  V30 4312 H 428.082 -3.0412 2.917 0
M  V30 4313 H 426.757 -2.71195 1.76733 0
M  V30 4314 H 425.664 -1.21663 3.53764 0
M  V30 4315 H 426.997 -1.61931 4.648 0
M  V30 4316 N 428.649 -1.55105 -0.279332 0
M  V30 4317 C 429.926 -1.66119 -1.03267 0
M  V30 4318 C 430.306 -0.523525 -2.04505 0
M  V30 4319 O 429.654 0.477194 -2.23462 0
M  V30 4320 C 429.864 -3.05067 -1.69515 0
M  V30 4321 C 431.212 -3.62606 -2.20912 0
M  V30 4322 O 432.236 -3.07659 -1.79512 0
M  V30 4323 O 431.095 -4.58861 -2.96831 0
M  V30 4324 H 428.189 -0.674429 -0.478618 0
M  V30 4325 H 430.735 -1.67446 -0.275694 0
M  V30 4326 H 429.507 -3.79311 -0.9612 0
M  V30 4327 H 429.13 -3.07611 -2.51915 0
M  V30 4328 N 430.127 0.543554 -1.4793 0
M  V30 4329 C 431.373 1.29961 -1.56466 0
M  V30 4330 C 431.728 1.91024 -0.229696 0
M  V30 4331 O 431.021 1.75619 0.766072 0
M  V30 4332 C 431.215 2.42078 -2.62932 0
M  V30 4333 C 431.044 1.92003 -4.06651 0
M  V30 4334 C 429.814 1.75223 -4.73946 0
M  V30 4335 C 432.012 1.45648 -4.93245 0
M  V30 4336 N 429.994 1.19632 -6.02131 0
M  V30 4337 C 431.365 1.01914 -6.11566 0
M  V30 4338 C 433.42 1.33826 -4.79578 0
M  V30 4339 C 432.123 0.475301 -7.17728 0
M  V30 4340 C 434.149 0.808427 -5.85848 0
M  V30 4341 C 433.511 0.381081 -7.03368 0
M  V30 4342 H 429.61 0.467086 -0.62718 0
M  V30 4343 H 432.194 0.614543 -1.84747 0
M  V30 4344 H 430.365 3.08098 -2.36496 0
M  V30 4345 H 432.097 3.09096 -2.61231 0
M  V30 4346 H 428.852 1.98345 -4.30065 0
M  V30 4347 H 429.276 0.93885 -6.70458 0
M  V30 4348 H 433.918 1.65474 -3.89074 0
M  V30 4349 H 431.636 0.146472 -8.07967 0
M  V30 4350 H 435.222 0.720315 -5.77324 0
M  V30 4351 H 434.102 -0.0225344 -7.84197 0
M  V30 4352 N 431.605 1.3629 0.791371 0
M  V30 4353 C 432.552 1.30458 1.90393 0
M  V30 4354 C 433.522 0.173632 1.6519 0
M  V30 4355 O 434.707 0.35983 1.87376 0
M  V30 4356 C 431.847 1.09777 3.27174 0
M  V30 4357 C 430.96 2.31929 3.64462 0
M  V30 4358 C 430.095 2.04276 4.90352 0
M  V30 4359 C 429.134 3.224 5.20312 0
M  V30 4360 N 428.271 2.94424 6.37385 0
M  V30 4361 H 433.111 2.25589 1.94714 0
M  V30 4362 H 430.648 1.12122 0.952216 0
M  V30 4363 H 432.606 0.958133 4.06049 0
M  V30 4364 H 431.236 0.183014 3.22281 0
M  V30 4365 H 430.288 2.56703 2.80727 0
M  V30 4366 H 431.6 3.20085 3.82553 0
M  V30 4367 H 430.754 1.87231 5.77087 0
M  V30 4368 H 429.493 1.13428 4.74326 0
M  V30 4369 H 428.498 3.40005 4.32061 0
M  V30 4370 H 429.723 4.14071 5.38258 0
M  V30 4371 H 427.669 2.06185 6.22755 0
M  V30 4372 H 427.586 3.76118 6.55798 0
M  V30 4373 H 428.854 2.80953 7.27108 0
M  V30 4374 N 433.083 -1.0153 1.20538 0
M  V30 4375 C 434.03 -2.10098 0.955383 0
M  V30 4376 C 435 -1.65702 -0.114878 0
M  V30 4377 O 436.185 -1.90776 0.0301118 0
M  V30 4378 C 433.325 -3.41236 0.514969 0
M  V30 4379 C 432.438 -3.99102 1.65353 0
M  V30 4380 C 431.573 -5.18306 1.16329 0
M  V30 4381 C 430.612 -5.68258 2.27485 0
M  V30 4382 N 429.749 -6.78722 1.7967 0
M  V30 4383 H 434.589 -2.30818 1.88486 0
M  V30 4384 H 432.126 -1.13189 0.939499 0
M  V30 4385 H 434.084 -4.16504 0.240935 0
M  V30 4386 H 432.714 -3.20585 -0.377512 0
M  V30 4387 H 431.766 -3.20918 2.04245 0
M  V30 4388 H 433.078 -4.32177 2.49047 0
M  V30 4389 H 432.232 -6.00782 0.845302 0
M  V30 4390 H 430.971 -4.86799 0.296254 0
M  V30 4391 H 429.976 -4.84385 2.60099 0
M  V30 4392 H 431.201 -6.01798 3.14667 0
M  V30 4393 H 429.147 -6.49042 0.95295 0
M  V30 4394 H 429.064 -7.10996 2.56944 0
M  V30 4395 H 430.332 -7.64759 1.50875 0
M  V30 4396 N 434.561 -1.01147 -1.20859 0
M  V30 4397 C 435.809 -0.696486 -1.89719 0
M  V30 4398 C 436.13 0.775788 -1.78904 0
M  V30 4399 O 435.4 1.55759 -1.18811 0
M  V30 4400 H 433.98 -0.254628 -0.702263 0
M  V30 4401 H 436.642 -1.28197 -1.46804 0
M  V30 4402 H 435.738 -0.975357 -2.96468 0
M  V30 4403 N 436.039 1.36541 -0.78704 0
M  V30 4404 C 437.316 1.9355 -0.282424 0
M  V30 4405 C 437.696 1.71919 1.22503 0
M  V30 4406 O 437.044 1.07677 2.01539 0
M  V30 4407 C 437.254 3.4246 -0.672462 0
M  V30 4408 C 438.602 4.19582 -0.650863 0
M  V30 4409 O 439.626 3.50889 -0.612789 0
M  V30 4410 O 438.485 5.42106 -0.691623 0
M  V30 4411 H 435.579 0.824091 -0.0693 0
M  V30 4412 H 438.125 1.45736 -0.869423 0
M  V30 4413 H 436.897 3.51851 -1.71221 0
M  V30 4414 H 436.52 3.97556 -0.0592211 0
M  V30 4415 N 437.518 0.538854 1.48102 0
M  V30 4416 C 438.746 0.0123136 2.06896 0
M  V30 4417 C 439.161 -1.27312 1.39417 0
M  V30 4418 O 438.518 -1.75949 0.484582 0
M  V30 4419 C 438.569 -0.206118 3.60912 0
M  V30 4420 O 438.29 1.0284 4.25859 0
M  V30 4421 C 439.791 -0.772033 4.36526 0
M  V30 4422 H 437.011 0.0375239 0.66995 0
M  V30 4423 H 439.555 0.747032 1.90367 0
M  V30 4424 H 437.71 -0.89091 3.77017 0
M  V30 4425 H 438.124 0.814654 5.18135 0
M  V30 4426 H 439.598 -0.874251 5.45033 0
M  V30 4427 H 440.075 -1.77904 4.01555 0
M  V30 4428 H 440.681 -0.123526 4.25121 0
M  V30 4429 N 438.996 -1.55193 0.274407 0
M  V30 4430 C 440.243 -1.99581 -0.342579 0
M  V30 4431 C 440.571 -1.1628 -1.55914 0
M  V30 4432 O 439.826 -0.22029 -1.94456 0
M  V30 4433 C 440.125 -3.49019 -0.769458 0
M  V30 4434 C 439.791 -4.49598 0.342389 0
M  V30 4435 C 438.453 -4.76821 0.647686 0
M  V30 4436 C 440.805 -5.0964 1.09163 0
M  V30 4437 C 438.133 -5.61354 1.70581 0
M  V30 4438 C 440.485 -5.95323 2.13948 0
M  V30 4439 C 439.149 -6.20867 2.45113 0
M  V30 4440 H 438.419 -0.730319 -0.125358 0
M  V30 4441 H 441.066 -1.87529 0.387971 0
M  V30 4442 H 439.371 -3.58544 -1.57967 0
M  V30 4443 H 441.068 -3.8077 -1.25757 0
M  V30 4444 H 437.658 -4.28496 0.094318 0
M  V30 4445 H 441.842 -4.88632 0.869024 0
M  V30 4446 H 437.098 -5.79392 1.9523 0
M  V30 4447 H 441.272 -6.40881 2.72478 0
M  V30 4448 H 438.899 -6.86162 3.27239 0
M  V30 4449 N 440.474 -0.00167713 -1.576 0
M  V30 4450 C 441.699 0.69739 -1.95323 0
M  V30 4451 C 442.124 1.6642 -0.876706 0
M  V30 4452 O 441.482 1.80548 0.165007 0
M  V30 4453 C 441.53 1.40403 -3.32144 0
M  V30 4454 O 440.634 2.5185 -3.26566 0
M  V30 4455 H 439.975 0.185373 -0.637599 0
M  V30 4456 H 442.505 -0.0553665 -2.04525 0
M  V30 4457 H 442.515 1.76707 -3.67748 0
M  V30 4458 H 441.19 0.695167 -4.10049 0
M  V30 4459 H 439.767 2.17861 -3.0264 0
M  V30 4460 N 441.952 1.55251 0.271103 0
M  V30 4461 C 443.192 1.77698 1.01008 0
M  V30 4462 C 443.556 0.567246 1.83429 0
M  V30 4463 O 444.757 0.670013 2.60316 0
M  V30 4464 C 443.028 3.04715 1.86772 0
M  V30 4465 S 444.587 3.48289 2.66909 0
M  V30 4466 H 441.405 0.624343 0.340172 0
M  V30 4467 H 444.007 1.9348 0.280315 0
M  V30 4468 H 442.711 3.90853 1.25149 0
M  V30 4469 H 442.242 2.91604 2.64066 0
M  V30 4470 H 444.257 3.07712 3.89266 0
M  V30 4471 N 443.43 -0.535701 1.48216 0
M  V30 4472 C 444.363 -1.65726 1.56876 0
M  V30 4473 C 445.341 -1.57094 0.419542 0
M  V30 4474 O 446.525 -1.77648 0.630352 0
M  V30 4475 C 443.652 -3.04096 1.49142 0
M  V30 4476 C 442.698 -3.31105 2.68834 0
M  V30 4477 S 443.531 -3.18001 4.30854 0
M  V30 4478 C 444.687 -4.58828 4.25709 0
M  V30 4479 H 444.92 -1.58129 2.51759 0
M  V30 4480 H 442.453 -0.718218 1.36678 0
M  V30 4481 H 444.411 -3.839 1.45366 0
M  V30 4482 H 443.072 -3.09139 0.556067 0
M  V30 4483 H 442.265 -4.32033 2.59545 0
M  V30 4484 H 441.867 -2.58961 2.69843 0
M  V30 4485 H 444.159 -5.5023 3.95289 0
M  V30 4486 H 445.102 -4.73172 5.26796 0
M  V30 4487 H 445.51 -4.37883 3.56257 0
M  V30 4488 N 444.908 -1.36708 -0.784132 0
M  V30 4489 C 446.154 -1.31426 -1.54451 0
M  V30 4490 C 446.487 0.10476 -1.93917 0
M  V30 4491 O 445.762 1.05934 -1.6312 0
M  V30 4492 C 446.045 -2.24189 -2.818 0
M  V30 4493 C 445.898 -3.74813 -2.48667 0
M  V30 4494 C 447.217 -2.15626 -3.83658 0
M  V30 4495 H 444.336 -0.478739 -0.560337 0
M  V30 4496 H 446.978 -1.67305 -0.900498 0
M  V30 4497 H 445.128 -1.93722 -3.36755 0
M  V30 4498 H 446.8 -4.15823 -1.99722 0
M  V30 4499 H 445.043 -3.93989 -1.81535 0
M  V30 4500 H 445.714 -4.35138 -3.39646 0
M  V30 4501 H 448.19 -2.42456 -3.38163 0
M  V30 4502 H 447.066 -2.82694 -4.70506 0
M  V30 4503 H 447.327 -1.14522 -4.27009 0
M  V30 4504 N 446.386 1.0089 -1.21074 0
M  V30 4505 C 447.634 1.74262 -1.02358 0
M  V30 4506 C 447.955 1.89869 0.444393 0
M  V30 4507 O 447.225 1.44677 1.32081 0
M  V30 4508 H 445.805 0.645615 -0.375754 0
M  V30 4509 H 448.467 1.21596 -1.52317 0
M  V30 4510 H 447.563 2.74328 -1.4883 0
M  V30 4511 N 447.864 1.01787 1.20321 0
M  V30 4512 C 448.814 0.559976 2.21016 0
M  V30 4513 C 449.798 -0.385366 1.56217 0
M  V30 4514 O 450.99 -0.208126 1.75772 0
M  V30 4515 C 448.119 -0.0990553 3.43157 0
M  V30 4516 C 447.205 0.86807 4.15121 0
M  V30 4517 N 447.596 2.0261 4.63447 0
M  V30 4518 C 445.894 0.689162 4.40643 0
M  V30 4519 C 446.595 2.63518 5.18588 0
M  V30 4520 N 445.571 1.91569 5.08726 0
M  V30 4521 H 449.373 1.44281 2.56048 0
M  V30 4522 H 446.887 0.883381 1.36272 0
M  V30 4523 H 448.884 -0.444643 4.14522 0
M  V30 4524 H 447.544 -0.977709 3.0963 0
M  V30 4525 H 448.555 2.40598 4.58621 0
M  V30 4526 H 445.232 -0.14133 4.17261 0
M  V30 4527 H 446.622 3.61527 5.66346 0
M  V30 4528 N 449.342 -1.36122 0.79427 0
M  V30 4529 C 450.252 -2.33769 0.197296 0
M  V30 4530 C 451.268 -1.61276 -0.653153 0
M  V30 4531 O 452.444 -1.9323 -0.5678 0
M  V30 4532 C 449.509 -3.40474 -0.654098 0
M  V30 4533 C 448.57 -4.28759 0.215411 0
M  V30 4534 C 447.803 -5.30368 -0.595443 0
M  V30 4535 O 448.026 -5.40211 -1.83107 0
M  V30 4536 O 446.96 -6.019 0.00721351 0
M  V30 4537 H 450.786 -2.86597 1.00478 0
M  V30 4538 H 448.371 -1.38676 0.555818 0
M  V30 4539 H 450.253 -4.05703 -1.13944 0
M  V30 4540 H 448.928 -2.89937 -1.43938 0
M  V30 4541 H 447.835 -3.66554 0.747615 0
M  V30 4542 H 449.168 -4.82661 0.964332 0
M  V30 4543 N 450.82 -0.546701 -1.47814 0
M  V30 4544 C 451.783 0.196287 -2.28358 0
M  V30 4545 C 452.783 0.852437 -1.36346 0
M  V30 4546 O 453.973 0.709913 -1.59078 0
M  V30 4547 C 451.105 1.28579 -3.15722 0
M  V30 4548 H 452.298 -0.511086 -2.95513 0
M  V30 4549 H 449.851 -0.303248 -1.5333 0
M  V30 4550 H 450.586 2.0259 -2.53235 0
M  V30 4551 H 450.371 0.820229 -3.83425 0
M  V30 4552 H 451.861 1.80793 -3.76435 0
M  V30 4553 N 452.299 1.55045 -0.282633 0
M  V30 4554 C 453.229 2.2579 0.595066 0
M  V30 4555 C 454.21 1.25074 1.15284 0
M  V30 4556 O 455.395 1.5381 1.18559 0
M  V30 4557 C 452.525 2.98472 1.77572 0
M  V30 4558 C 451.479 4.0618 1.34914 0
M  V30 4559 C 450.805 4.66477 2.6135 0
M  V30 4560 C 452.105 5.1996 0.493821 0
M  V30 4561 H 453.799 2.994 0.00505653 0
M  V30 4562 H 451.345 1.44 0.000992001 0
M  V30 4563 H 453.298 3.46677 2.39568 0
M  V30 4564 H 452.022 2.2241 2.39168 0
M  V30 4565 H 450.681 3.58797 0.752338 0
M  V30 4566 H 450.329 3.87074 3.2122 0
M  V30 4567 H 450.029 5.39207 2.33516 0
M  V30 4568 H 451.553 5.17435 3.24181 0
M  V30 4569 H 452.967 5.64172 1.01898 0
M  V30 4570 H 451.364 5.99299 0.310047 0
M  V30 4571 H 452.434 4.82462 -0.485593 0
M  V30 4572 N 453.777 0.010035 1.57597 0
M  V30 4573 C 455.188 -0.531426 1.78977 0
M  V30 4574 C 455.539 -1.73375 0.918454 0
M  V30 4575 O 454.664 -2.16047 0.123635 0
M  V30 4576 C 455.259 -0.97086 3.24592 0
M  V30 4577 C 453.818 -1.45756 3.47033 0
M  V30 4578 C 452.965 -0.413384 2.74201 0
M  V30 4579 H 455.916 0.236166 1.56933 0
M  V30 4580 H 455.937 -1.83633 3.33255 0
M  V30 4581 H 455.449 -0.0955893 3.87982 0
M  V30 4582 H 453.55 -2.35339 2.88871 0
M  V30 4583 H 453.663 -1.4781 4.55729 0
M  V30 4584 H 452.027 -0.877266 2.39115 0
M  V30 4585 H 452.81 0.453092 3.40297 0
M  V30 4586 N 455.255 -1.55392 -0.262866 0
M  V30 4587 C 456.185 -1.91978 -1.32917 0
M  V30 4588 C 457.166 -0.7828 -1.51017 0
M  V30 4589 O 458.351 -1.04178 -1.63892 0
M  V30 4590 C 455.481 -2.20055 -2.68687 0
M  V30 4591 C 454.435 -3.35854 -2.65304 0
M  V30 4592 C 453.761 -3.49435 -4.04721 0
M  V30 4593 C 455.061 -4.71977 -2.23685 0
M  V30 4594 H 456.755 -2.81292 -1.02544 0
M  V30 4595 H 454.301 -1.3534 -0.491846 0
M  V30 4596 H 456.254 -2.44237 -3.43404 0
M  V30 4597 H 454.978 -1.27551 -3.00663 0
M  V30 4598 H 453.637 -3.11655 -1.93045 0
M  V30 4599 H 453.285 -2.54379 -4.33936 0
M  V30 4600 H 452.985 -4.27297 -4.0335 0
M  V30 4601 H 454.509 -3.7592 -4.81161 0
M  V30 4602 H 455.923 -4.95637 -2.88127 0
M  V30 4603 H 454.32 -5.52828 -2.33456 0
M  V30 4604 H 455.39 -4.70115 -1.18827 0
M  V30 4605 N 456.733 0.527833 -1.48498 0
M  V30 4606 C 457.696 1.61439 -1.62696 0
M  V30 4607 C 458.696 1.52824 -0.500136 0
M  V30 4608 O 459.886 1.56456 -0.765976 0
M  V30 4609 C 457.018 3.01063 -1.59918 0
M  V30 4610 H 458.211 1.50189 -2.59583 0
M  V30 4611 H 455.764 0.750055 -1.37127 0
M  V30 4612 H 456.499 3.17818 -0.645163 0
M  V30 4613 H 456.284 3.08725 -2.41726 0
M  V30 4614 H 457.774 3.80057 -1.73051 0
M  V30 4615 N 458.211 1.37122 0.776871 0
M  V30 4616 C 459.458 1.32047 1.53524 0
M  V30 4617 C 459.786 -0.0965631 1.9426 0
M  V30 4618 O 459.041 -1.06866 1.63945 0
M  V30 4619 C 459.34 2.20068 2.81611 0
M  V30 4620 C 459.006 3.68423 2.59953 0
M  V30 4621 C 457.668 4.08854 2.53755 0
M  V30 4622 C 460.02 4.62431 2.40431 0
M  V30 4623 C 457.348 5.41417 2.26018 0
M  V30 4624 C 459.7 5.95225 2.14219 0
M  V30 4625 C 458.364 6.34767 2.06462 0
M  V30 4626 H 457.634 0.483196 0.561785 0
M  V30 4627 H 460.281 1.69284 0.895268 0
M  V30 4628 H 458.586 1.75809 3.50141 0
M  V30 4629 H 460.283 2.13458 3.39465 0
M  V30 4630 H 456.873 3.36354 2.65638 0
M  V30 4631 H 461.057 4.32057 2.44213 0
M  V30 4632 H 456.313 5.71022 2.18504 0
M  V30 4633 H 460.487 6.67626 1.98112 0
M  V30 4634 H 458.114 7.37413 1.84733 0
M  V30 4635 N 459.689 -1.00246 1.21608 0
M  V30 4636 C 460.917 -1.77631 1.06089 0
M  V30 4637 C 461.332 -1.84746 -0.38916 0
M  V30 4638 O 460.689 -1.31068 -1.26994 0
M  V30 4639 C 460.74 -3.21415 1.65453 0
M  V30 4640 O 460.461 -3.14703 3.04785 0
M  V30 4641 C 461.962 -4.15289 1.55079 0
M  V30 4642 H 459.182 -0.558162 0.37242 0
M  V30 4643 H 461.726 -1.26093 1.60999 0
M  V30 4644 H 459.881 -3.70053 1.14629 0
M  V30 4645 H 460.295 -4.05056 3.33212 0
M  V30 4646 H 461.769 -5.13965 2.01355 0
M  V30 4647 H 462.246 -4.36279 0.505665 0
M  V30 4648 H 462.852 -3.72543 2.05163 0
M  V30 4649 N 461.167 -1.02423 -1.1978 0
M  V30 4650 C 462.099 -0.559152 -2.22275 0
M  V30 4651 C 463.112 0.36251 -1.58713 0
M  V30 4652 O 464.301 0.159641 -1.77785 0
M  V30 4653 C 461.401 0.205094 -3.38279 0
M  V30 4654 C 460.574 -0.720361 -4.31427 0
M  V30 4655 C 459.633 -0.00234368 -5.262 0
M  V30 4656 O 458.659 -0.627378 -5.65732 0
M  V30 4657 N 459.861 1.26996 -5.66438 0
M  V30 4658 H 462.626 -1.44064 -2.62804 0
M  V30 4659 H 460.187 -0.902692 -1.34399 0
M  V30 4660 H 462.179 0.694868 -3.9869 0
M  V30 4661 H 460.749 0.987947 -2.96578 0
M  V30 4662 H 459.969 -1.39031 -3.68869 0
M  V30 4663 H 461.257 -1.3495 -4.90577 0
M  V30 4664 H 460.655 1.79858 -5.36347 0
M  V30 4665 H 459.212 1.70432 -6.29123 0
M  V30 4666 N 462.645 1.35699 -0.801477 0
M  V30 4667 C 463.592 2.29876 -0.206294 0
M  V30 4668 C 464.562 1.52565 0.656752 0
M  V30 4669 O 465.747 1.81024 0.602906 0
M  V30 4670 C 462.887 3.39052 0.643272 0
M  V30 4671 C 462 4.31335 -0.239644 0
M  V30 4672 C 461.135 5.27599 0.61744 0
M  V30 4673 C 460.174 6.11521 -0.26619 0
M  V30 4674 N 459.311 6.99938 0.550571 0
M  V30 4675 H 464.151 2.80187 -1.01484 0
M  V30 4676 H 461.688 1.37902 -0.511997 0
M  V30 4677 H 463.646 4.0101 1.15094 0
M  V30 4678 H 462.276 2.9003 1.41713 0
M  V30 4679 H 461.328 3.70426 -0.865381 0
M  V30 4680 H 462.64 4.90243 -0.919985 0
M  V30 4681 H 461.794 5.94906 1.19045 0
M  V30 4682 H 460.533 4.69176 1.33137 0
M  V30 4683 H 459.538 5.43166 -0.851507 0
M  V30 4684 H 460.763 6.72022 -0.9779 0
M  V30 4685 H 458.709 6.44008 1.24856 0
M  V30 4686 H 458.626 7.55966 -0.071832 0
M  V30 4687 H 459.894 7.71599 1.10702 0
M  V30 4688 N 464.123 0.554532 1.47522 0
M  V30 4689 C 465.351 0.034257 2.06872 0
M  V30 4690 C 465.766 -1.25826 1.40759 0
M  V30 4691 O 465.123 -1.75425 0.503217 0
M  V30 4692 C 465.174 -0.167827 3.6111 0
M  V30 4693 O 464.895 1.07351 4.24744 0
M  V30 4694 C 466.396 -0.72569 4.3732 0
M  V30 4695 H 463.616 0.0446275 0.669514 0
M  V30 4696 H 466.16 0.767181 1.89564 0
M  V30 4697 H 464.315 -0.850872 3.7794 0
M  V30 4698 H 464.729 0.869563 5.17242 0
M  V30 4699 H 466.203 -0.816394 5.45929 0
M  V30 4700 H 466.68 -1.73635 4.0342 0
M  V30 4701 H 467.286 -0.0784292 4.25228 0
M  V30 4702 N 465.601 -1.54893 0.290851 0
M  V30 4703 C 466.85 -1.99111 -0.322113 0
M  V30 4704 C 467.163 -1.18283 -1.55784 0
M  V30 4705 O 468.369 -1.5272 -2.24475 0
M  V30 4706 C 466.825 -3.54442 -0.624438 0
M  V30 4707 C 466.433 -4.44066 0.592373 0
M  V30 4708 C 468.177 -4.07211 -1.19916 0
M  V30 4709 C 466.084 -5.90812 0.263762 0
M  V30 4710 H 465.014 -0.743712 -0.124133 0
M  V30 4711 H 467.665 -1.79132 0.39797 0
M  V30 4712 H 466.047 -3.70281 -1.40384 0
M  V30 4713 H 467.221 -4.39999 1.36886 0
M  V30 4714 H 465.536 -4.02015 1.08502 0
M  V30 4715 H 468.133 -5.14407 -1.45909 0
M  V30 4716 H 468.476 -3.57196 -2.13815 0
M  V30 4717 H 469.009 -3.94873 -0.481687 0
M  V30 4718 H 465.748 -6.44955 1.17105 0
M  V30 4719 H 465.268 -5.97911 -0.475655 0
M  V30 4720 H 466.947 -6.46852 -0.138354 0
M  V30 4721 N 467.08 -0.0183926 -1.57589 0
M  V30 4722 C 468.357 0.700621 -1.82622 0
M  V30 4723 C 468.737 1.90951 -0.90005 0
M  V30 4724 O 468.085 2.28452 0.0469145 0
M  V30 4725 C 468.295 1.08899 -3.31575 0
M  V30 4726 C 469.643 1.48514 -3.9778 0
M  V30 4727 O 470.667 1.18227 -3.36007 0
M  V30 4728 O 469.526 2.04903 -5.06633 0
M  V30 4729 H 466.62 0.342743 -0.752633 0
M  V30 4730 H 469.166 -0.0452548 -1.6964 0
M  V30 4731 H 467.938 0.228113 -3.90635 0
M  V30 4732 H 467.561 1.89338 -3.49624 0
M  V30 4733 N 468.558 1.5553 0.254621 0
M  V30 4734 C 469.974 1.4778 0.602753 0
M  V30 4735 C 470.174 0.707047 1.88688 0
M  V30 4736 O 469.23 0.233288 2.5142 0
M  V30 4737 C 470.543 2.92133 0.712648 0
M  V30 4738 C 472.091 3.02458 0.805488 0
M  V30 4739 C 472.566 4.48102 0.947009 0
M  V30 4740 N 474.057 4.52008 1.01207 0
M  V30 4741 C 474.792 5.61939 1.1407 0
M  V30 4742 N 474.288 6.81697 1.23536 0
M  V30 4743 N 476.081 5.49719 1.17325 0
M  V30 4744 H 468.232 2.04085 -0.588463 0
M  V30 4745 H 470.495 0.926229 -0.202001 0
M  V30 4746 H 470.201 3.51332 -0.160766 0
M  V30 4747 H 470.075 3.42187 1.58707 0
M  V30 4748 H 472.462 2.43344 1.66936 0
M  V30 4749 H 472.543 2.55627 -0.0939266 0
M  V30 4750 H 472.187 5.07824 0.087725 0
M  V30 4751 H 472.117 4.92607 1.86135 0
M  V30 4752 H 474.608 3.65749 0.950577 0
M  V30 4753 H 474.921 7.61228 1.33236 0
M  V30 4754 H 473.266 6.84473 1.20508 0
M  V30 4755 H 476.457 4.55095 1.09573 0
M  V30 4756 H 476.63 6.35432 1.27005 0
M  V30 4757 N 470.036 -0.519951 1.48776 0
M  V30 4758 C 470.969 -1.64053 1.58625 0
M  V30 4759 C 471.947 -1.5664 0.43618 0
M  V30 4760 O 473.131 -1.76969 0.649159 0
M  V30 4761 C 470.258 -3.02497 1.52359 0
M  V30 4762 C 469.304 -3.28235 2.72331 0
M  V30 4763 S 470.137 -3.13414 4.34203 0
M  V30 4764 C 471.293 -4.54287 4.30551 0
M  V30 4765 H 471.526 -1.5545 2.53422 0
M  V30 4766 H 469.059 -0.703681 1.37433 0
M  V30 4767 H 471.017 -3.82336 1.4943 0
M  V30 4768 H 469.678 -3.08531 0.588824 0
M  V30 4769 H 468.871 -4.29256 2.64113 0
M  V30 4770 H 468.473 -2.56085 2.72574 0
M  V30 4771 H 470.765 -5.46006 4.01103 0
M  V30 4772 H 471.708 -4.67558 5.31785 0
M  V30 4773 H 472.116 -4.34079 3.60881 0
M  V30 4774 N 471.514 -1.37532 -0.769588 0
M  V30 4775 C 472.477 -1.33292 -1.86456 0
M  V30 4776 C 473.477 -0.236537 -1.59051 0
M  V30 4777 O 474.667 -0.492511 -1.67093 0
M  V30 4778 C 471.799 -1.07118 -3.23633 0
M  V30 4779 H 472.992 -2.30692 -1.91628 0
M  V30 4780 H 470.545 -1.22593 -0.969572 0
M  V30 4781 H 471.28 -0.102578 -3.24138 0
M  V30 4782 H 471.065 -1.86479 -3.44917 0
M  V30 4783 H 472.555 -1.06806 -4.03711 0
M  V30 4784 N 472.992 0.995999 -1.22138 0
M  V30 4785 C 474.24 1.73167 -1.042 0
M  V30 4786 C 474.561 1.90329 0.42423 0
M  V30 4787 O 473.831 1.4607 1.30539 0
M  V30 4788 H 472.411 0.641593 -0.38258 0
M  V30 4789 H 475.073 1.19974 -1.53598 0
M  V30 4790 H 474.169 2.72734 -1.51731 0
M  V30 4791 N 474.47 1.03057 1.19235 0
M  V30 4792 C 475.417 0.612832 2.22515 0
M  V30 4793 C 476.387 -0.374224 1.61829 0
M  V30 4794 O 477.572 -0.270501 1.88873 0
M  V30 4795 C 474.712 -0.028475 3.45088 0
M  V30 4796 C 473.825 1.00483 4.20151 0
M  V30 4797 C 472.96 0.333102 5.30155 0
M  V30 4798 C 471.999 1.3522 5.96977 0
M  V30 4799 N 471.136 0.70616 6.9854 0
M  V30 4800 H 475.976 1.49812 2.57605 0
M  V30 4801 H 473.513 0.749658 1.26564 0
M  V30 4802 H 475.471 -0.417548 4.15105 0
M  V30 4803 H 474.101 -0.877334 3.10649 0
M  V30 4804 H 473.153 1.51194 3.49062 0
M  V30 4805 H 474.465 1.77929 4.65986 0
M  V30 4806 H 473.619 -0.110725 6.06599 0
M  V30 4807 H 472.358 -0.473547 4.85396 0
M  V30 4808 H 471.363 1.80627 5.19282 0
M  V30 4809 H 472.588 2.16037 6.4382 0
M  V30 4810 H 470.534 -0.0803667 6.55951 0
M  V30 4811 H 470.451 1.41848 7.42573 0
M  V30 4812 H 471.719 0.286391 7.78974 0
M  V30 4813 N 475.948 -1.35272 0.808662 0
M  V30 4814 C 477.359 -1.81179 0.450688 0
M  V30 4815 C 477.71 -1.67143 -1.02751 0
M  V30 4816 O 476.835 -1.20325 -1.79864 0
M  V30 4817 C 477.43 -3.28943 0.811275 0
M  V30 4818 C 475.989 -3.72985 0.505871 0
M  V30 4819 C 475.136 -2.57229 1.03578 0
M  V30 4820 H 478.087 -1.2322 1.00012 0
M  V30 4821 H 478.108 -3.80342 0.109588 0
M  V30 4822 H 477.62 -3.39127 1.88718 0
M  V30 4823 H 475.721 -3.68349 -0.561209 0
M  V30 4824 H 475.834 -4.67677 1.03995 0
M  V30 4825 H 474.198 -2.50548 0.458005 0
M  V30 4826 H 474.981 -2.7019 2.11784 0
M  V30 4827 N 477.426 -0.562348 -1.47226 0
M  V30 4828 C 478.654 -0.0452275 -2.06851 0
M  V30 4829 C 479.069 1.25078 -1.41424 0
M  V30 4830 O 478.426 1.75156 -0.512513 0
M  V30 4831 C 478.477 0.148674 -3.61194 0
M  V30 4832 O 478.198 -1.09602 -4.24169 0
M  V30 4833 C 479.699 0.702488 -4.37699 0
M  V30 4834 H 476.919 -0.0481775 -0.669268 0
M  V30 4835 H 479.463 -0.777223 -1.89155 0
M  V30 4836 H 477.618 0.830817 -3.78386 0
M  V30 4837 H 478.032 -0.896982 -5.16773 0
M  V30 4838 H 479.506 0.78743 -5.46355 0
M  V30 4839 H 479.983 1.71493 -4.04335 0
M  V30 4840 H 480.589 0.0558772 -4.25263 0
M  V30 4841 N 478.904 1.54736 -0.299062 0
M  V30 4842 C 479.854 2.20155 0.592932 0
M  V30 4843 C 480.838 1.1739 1.10038 0
M  V30 4844 O 482.03 1.43116 1.04147 0
M  V30 4845 C 479.159 2.94437 1.76527 0
M  V30 4846 C 478.245 4.04516 1.27388 0
M  V30 4847 N 478.636 5.03319 0.500339 0
M  V30 4848 C 476.934 4.18022 1.55478 0
M  V30 4849 C 477.635 5.81209 0.238909 0
M  V30 4850 N 476.611 5.37408 0.818163 0
M  V30 4851 H 480.413 2.93899 -0.00563596 0
M  V30 4852 H 477.927 1.62068 -0.103732 0
M  V30 4853 H 479.924 3.3977 2.41582 0
M  V30 4854 H 478.584 2.22209 2.36756 0
M  V30 4855 H 479.595 5.17696 0.145419 0
M  V30 4856 H 476.272 3.56998 2.16469 0
M  V30 4857 H 477.662 6.70812 -0.382223 0
M  V30 4858 N 480.382 0.0267497 1.57577 0
M  V30 4859 C 481.628 -0.653371 1.91987 0
M  V30 4860 C 481.961 -1.71915 0.903263 0
M  V30 4861 O 481.236 -1.94358 -0.0743387 0
M  V30 4862 C 481.519 -1.272 3.36886 0
M  V30 4863 C 481.372 -0.215938 4.49281 0
M  V30 4864 C 482.691 -2.19069 3.81703 0
M  V30 4865 H 479.81 -0.236047 0.698177 0
M  V30 4866 H 482.452 0.0835236 1.89816 0
M  V30 4867 H 480.602 -1.90005 3.38866 0
M  V30 4868 H 482.274 0.41449 4.59434 0
M  V30 4869 H 480.517 0.458855 4.31366 0
M  V30 4870 H 481.188 -0.688347 5.47691 0
M  V30 4871 H 483.664 -1.66253 3.81444 0
M  V30 4872 H 482.54 -2.59307 4.83788 0
M  V30 4873 H 482.801 -3.08087 3.17072 0
M  V30 4874 N 481.861 -1.55662 -0.24637 0
M  V30 4875 C 482.809 -1.91186 -1.3248 0
M  V30 4876 C 483.803 -0.790996 -1.49799 0
M  V30 4877 O 485.009 -0.975617 -1.51267 0
M  V30 4878 H 481.384 -0.607207 -0.443626 0
M  V30 4879 H 483.355 -2.81221 -0.997853 0
M  V30 4880 C 482.104 -2.22349 -2.67313 0
M  V30 4881 H 481.427 -3.08097 -2.54786 0
M  V30 4882 H 482.867 -2.51107 -3.41645 0
M  V30 4883 C 481.326 -1.04001 -3.20446 0
M  V30 4884 O 481.856 -0.28828 -4.00664 0
M  V30 4885 N 480.062 -0.830494 -2.7848 0
M  V30 4886 H 479.609 -1.4435 -2.13356 0
M  V30 4887 H 479.567 -0.0403258 -3.14374 0
M  V30 4888 N 483.339 0.512053 -1.4905 0
M  V30 4889 C 484.585 1.26874 -1.58212 0
M  V30 4890 C 484.918 1.9241 -0.263073 0
M  V30 4891 O 484.193 1.80181 0.732476 0
M  V30 4892 C 484.476 2.34428 -2.73341 0
M  V30 4893 C 484.329 1.73466 -4.15006 0
M  V30 4894 C 485.648 3.36073 -2.84154 0
M  V30 4895 H 482.767 0.459924 -0.575881 0
M  V30 4896 H 485.409 0.568587 -1.81293 0
M  V30 4897 H 483.559 2.94146 -2.53792 0
M  V30 4898 H 485.231 1.17661 -4.46042 0
M  V30 4899 H 483.474 1.03921 -4.21168 0
M  V30 4900 H 484.145 2.51426 -4.91415 0
M  V30 4901 H 486.621 2.86332 -3.01916 0
M  V30 4902 H 485.497 4.08703 -3.66406 0
M  V30 4903 H 485.758 3.97725 -1.93048 0
M  V30 4904 N 484.817 1.37938 0.762283 0
M  V30 4905 C 486.042 1.37059 1.55659 0
M  V30 4906 C 486.467 -0.0396123 1.88058 0
M  V30 4907 O 485.825 -1.01929 1.49934 0
M  V30 4908 C 485.873 2.22494 2.83776 0
M  V30 4909 O 484.977 1.63607 3.78559 0
M  V30 4910 H 484.318 0.467892 0.47114 0
M  V30 4911 H 486.848 1.81587 0.942725 0
M  V30 4912 H 486.858 2.36045 3.32786 0
M  V30 4913 H 485.533 3.24993 2.59524 0
M  V30 4914 H 484.11 1.5915 3.37233 0
M  V30 4915 N 486.295 -0.989507 1.22664 0
M  V30 4916 C 487.541 -1.7321 1.05481 0
M  V30 4917 C 487.874 -1.89852 -0.408635 0
M  V30 4918 O 487.149 -1.44416 -1.30285 0
M  V30 4919 C 487.432 -3.1357 1.77047 0
M  V30 4920 C 487.285 -3.04555 3.31008 0
M  V30 4921 C 488.604 -4.12812 1.5256 0
M  V30 4922 H 485.723 -0.628697 0.384589 0
M  V30 4923 H 488.365 -1.15258 1.51049 0
M  V30 4924 H 486.515 -3.63046 1.3831 0
M  V30 4925 H 488.187 -2.62674 3.7921 0
M  V30 4926 H 486.43 -2.41278 3.6051 0
M  V30 4927 H 487.101 -4.03894 3.76263 0
M  V30 4928 H 489.577 -3.72106 1.86215 0
M  V30 4929 H 488.453 -5.09132 2.05124 0
M  V30 4930 H 488.714 -4.39711 0.458936 0
M  V30 4931 N 487.773 -1.03688 -1.18687 0
M  V30 4932 C 489.019 -0.739123 -1.88851 0
M  V30 4933 C 489.352 0.731042 -1.79915 0
M  V30 4934 O 488.627 1.53313 -1.19688 0
M  V30 4935 C 488.91 -1.20106 -3.3948 0
M  V30 4936 C 488.763 -2.73304 -3.57246 0
M  V30 4937 C 490.082 -0.788134 -4.32986 0
M  V30 4938 H 487.201 -0.269978 -0.68577 0
M  V30 4939 H 489.843 -1.28822 -1.3966 0
M  V30 4940 H 487.993 -0.733915 -3.81505 0
M  V30 4941 H 489.665 -3.28027 -3.24339 0
M  V30 4942 H 487.908 -3.13313 -3.00029 0
M  V30 4943 H 488.579 -3.00684 -4.62918 0
M  V30 4944 H 491.055 -1.19005 -3.98719 0
M  V30 4945 H 489.931 -1.13915 -5.36949 0
M  V30 4946 H 490.192 0.308988 -4.41019 0
M  V30 4947 N 489.251 1.34841 -0.815825 0
M  V30 4948 C 490.184 2.27504 -0.178062 0
M  V30 4949 C 491.162 1.48542 0.661373 0
M  V30 4950 O 492.346 1.77779 0.626653 0
M  V30 4951 C 489.473 3.30246 0.752002 0
M  V30 4952 C 488.519 4.26499 -0.00899172 0
M  V30 4953 S 489.352 5.18169 -1.35134 0
M  V30 4954 C 490.508 6.24449 -0.42596 0
M  V30 4955 H 490.741 2.81248 -0.963684 0
M  V30 4956 H 488.274 1.41781 -0.611355 0
M  V30 4957 H 490.232 3.89933 1.28308 0
M  V30 4958 H 488.893 2.75363 1.51109 0
M  V30 4959 H 488.086 4.99146 0.697766 0
M  V30 4960 H 487.688 3.7103 -0.470396 0
M  V30 4961 H 489.98 6.76404 0.385234 0
M  V30 4962 H 490.923 6.99156 -1.1219 0
M  V30 4963 H 491.331 5.64497 -0.0175461 0
M  V30 4964 N 490.729 0.570148 1.46925 0
M  V30 4965 C 491.692 -0.159933 2.28641 0
M  V30 4966 C 492.692 -0.830638 1.37685 0
M  V30 4967 O 493.882 -0.684516 1.60187 0
M  V30 4968 C 491.014 -1.2354 3.17727 0
M  V30 4969 H 492.207 0.558035 2.94662 0
M  V30 4970 H 489.76 0.327603 1.52828 0
M  V30 4971 H 490.495 -1.98535 2.56426 0
M  V30 4972 H 490.28 -0.759125 3.84681 0
M  V30 4973 H 491.77 -1.74782 3.79264 0
M  V30 4974 N 492.207 -1.54576 0.307264 0
M  V30 4975 C 493.117 -2.27435 -0.57536 0
M  V30 4976 C 494.133 -1.31183 -1.14311 0
M  V30 4977 O 495.309 -1.64175 -1.16656 0
M  V30 4978 C 492.374 -3.00566 -1.72803 0
M  V30 4979 C 491.435 -4.12369 -1.19373 0
M  V30 4980 C 490.668 -4.82003 -2.29147 0
M  V30 4981 O 490.891 -4.51038 -3.49171 0
M  V30 4982 O 489.825 -5.69271 -1.95485 0
M  V30 4983 H 493.651 -3.03696 0.0158558 0
M  V30 4984 H 491.236 -1.49219 0.0735064 0
M  V30 4985 H 493.118 -3.46416 -2.39946 0
M  V30 4986 H 491.793 -2.27195 -2.30574 0
M  V30 4987 H 490.7 -3.70905 -0.487851 0
M  V30 4988 H 492.033 -4.87736 -0.661376 0
M  V30 4989 N 493.685 -0.035106 -1.57561 0
M  V30 4990 C 494.931 0.64318 -1.92331 0
M  V30 4991 C 495.264 1.71434 -0.912368 0
M  V30 4992 O 494.539 1.94395 0.0640303 0
M  V30 4993 C 494.822 1.25411 -3.37556 0
M  V30 4994 C 494.675 0.192109 -4.4939 0
M  V30 4995 C 495.994 2.17041 -3.82859 0
M  V30 4996 H 493.113 0.232341 -0.699419 0
M  V30 4997 H 495.755 -0.0935889 -1.89769 0
M  V30 4998 H 493.905 1.88205 -3.39869 0
M  V30 4999 H 495.577 -0.438849 -4.59208 0
M  V30 5000 H 493.82 -0.481725 -4.31117 0
M  V30 5001 H 494.491 0.659292 -5.48049 0
M  V30 5002 H 496.967 1.64228 -3.8232 0
M  V30 5003 H 495.843 2.56738 -4.85157 0
M  V30 5004 H 496.104 3.06401 -3.18702 0
M  V30 5005 N 495.163 1.55791 0.238111 0
M  V30 5006 C 496.44 1.68798 0.98826 0
M  V30 5007 C 496.82 0.577562 2.03045 0
M  V30 5008 O 496.168 -0.41778 2.24648 0
M  V30 5009 C 496.378 3.09454 1.61367 0
M  V30 5010 C 497.726 3.68335 2.11221 0
M  V30 5011 O 498.75 3.1231 1.71292 0
M  V30 5012 O 497.609 4.6657 2.84561 0
M  V30 5013 H 494.703 0.686881 0.460568 0
M  V30 5014 H 497.249 1.68118 0.231202 0
M  V30 5015 H 496.021 3.81726 0.860295 0
M  V30 5016 H 495.644 3.14182 2.4367 0
M  V30 5017 N 496.642 -0.504142 1.49319 0
M  V30 5018 C 497.89 -1.25598 1.58334 0
M  V30 5019 C 498.211 -1.93114 0.270538 0
M  V30 5020 O 497.481 -1.82585 -0.709891 0
M  V30 5021 H 496.061 -0.466571 0.58337 0
M  V30 5022 H 498.723 -0.584547 1.85928 0
M  V30 5023 H 497.819 -2.02159 2.37778 0
M  V30 5024 N 498.12 -1.38341 -0.754957 0
M  V30 5025 C 499.348 -1.37704 -1.54419 0
M  V30 5026 C 499.763 0.0335243 -1.8877 0
M  V30 5027 O 499.12 0.999773 -1.52679 0
M  V30 5028 C 499.171 -2.23136 -2.84416 0
M  V30 5029 O 498.892 -3.58697 -2.51531 0
M  V30 5030 C 500.393 -2.30664 -3.78562 0
M  V30 5031 H 497.613 -0.471061 -0.477852 0
M  V30 5032 H 500.157 -1.81902 -0.934446 0
M  V30 5033 H 498.312 -1.82403 -3.41772 0
M  V30 5034 H 498.726 -4.03665 -3.34896 0
M  V30 5035 H 500.2 -2.9473 -4.66732 0
M  V30 5036 H 500.677 -1.3199 -4.18898 0
M  V30 5037 H 501.283 -2.71781 -3.27131 0
M  V30 5038 N 499.598 0.982988 -1.23187 0
M  V30 5039 C 500.838 1.73903 -1.07412 0
M  V30 5040 C 501.202 1.88146 0.382764 0
M  V30 5041 O 502.403 2.6053 0.661638 0
M  V30 5042 C 500.674 3.10105 -1.77678 0
M  V30 5043 S 502.233 4.01323 -1.77441 0
M  V30 5044 H 499.051 0.598093 -0.384456 0
M  V30 5045 H 501.653 1.17456 -1.56283 0
M  V30 5046 H 500.357 2.97388 -2.82822 0
M  V30 5047 H 499.888 3.71622 -1.29077 0
M  V30 5048 H 501.903 4.89189 -0.831162 0
M  V30 5049 N 501.076 1.04316 1.18135 0
M  V30 5050 C 502.306 0.767003 1.91835 0
M  V30 5051 C 502.714 -0.68002 1.76557 0
M  V30 5052 O 502.057 -1.47548 1.09432 0
M  V30 5053 C 502.119 1.05674 3.43618 0
M  V30 5054 C 501.783 2.49818 3.82675 0
M  V30 5055 C 502.78 3.48003 3.86251 0
M  V30 5056 C 500.465 2.84596 4.13897 0
M  V30 5057 C 502.459 4.79016 4.20503 0
M  V30 5058 C 500.146 4.15813 4.4782 0
M  V30 5059 C 501.144 5.12834 4.51099 0
M  V30 5060 O 500.832 6.41699 4.84229 0
M  V30 5061 H 500.564 0.278948 0.615763 0
M  V30 5062 H 503.118 1.3946 1.50798 0
M  V30 5063 H 501.348 0.372029 3.84906 0
M  V30 5064 H 503.037 0.767994 3.98568 0
M  V30 5065 H 503.803 3.22475 3.62264 0
M  V30 5066 H 499.682 2.09748 4.1052 0
M  V30 5067 H 503.226 5.54739 4.22978 0
M  V30 5068 H 499.123 4.41109 4.71268 0
M  V30 5069 H 499.891 6.46387 5.02121 0
M  V30 5070 O 502.593 -1.30005 0.958179 0
M  V30 5071 H 503.284 -1.84399 0.593022 0
M  V30 END ATOM
M  V30 BEGIN BOND
M  V30 END BOND
M  V30 END CTAB
M  END
$$$$
