drugbank_target|P01861 Ig gamma-4 chain C region (DB09130)
 OpenBabel12092121013D

  0  0  0     0  0            999 V3000
M  V30 BEGIN CTAB
M  V30 COUNTS 5013 5082 0 0 0
M  V30 BEGIN ATOM
M  V30 1 H -0.908 1.98254 -0.117106 0
M  V30 2 N 0 1.576 0 0
M  V30 3 C 0.963 2.07369 0.976253 0
M  V30 4 C 1.963 0.98309 1.27248 0
M  V30 5 O 3.153 1.24574 1.21766 0
M  V30 6 C 0.285 2.51514 2.30116 0
M  V30 7 H 1.478 2.94892 0.545759 0
M  V30 8 H -0.969 1.54328 0.247471 0
M  V30 9 H -0.234 1.67234 2.77855 0
M  V30 10 H -0.449 3.31163 2.09937 0
M  V30 11 H 1.041 2.90345 3.00149 0
M  V30 12 N 1.4781 -0.272755 1.55222 0
M  V30 13 C 2.7031 -1.02683 1.80197 0
M  V30 14 C 3.1281 -1.79142 0.573551 0
M  V30 15 O 2.4861 -1.74917 -0.476849 0
M  V30 16 C 2.5341 -1.9609 3.02624 0
M  V30 17 O 1.6381 -3.04863 2.77727 0
M  V30 18 H 0.9791 -0.293557 0.595584 0
M  V30 19 H 3.5091 -0.30159 2.02365 0
M  V30 20 H 3.5191 -2.38039 3.31363 0
M  V30 21 H 2.1941 -1.39851 3.91682 0
M  V30 22 H 0.7711 -2.67228 2.60084 0
M  V30 23 N 2.9562 -1.48159 -0.537278 0
M  V30 24 C 4.1842 -1.59454 -1.31841 0
M  V30 25 C 4.5992 -0.252065 -1.8711 0
M  V30 26 O 3.9562 0.757621 -1.66031 0
M  V30 27 C 4.0072 -2.63546 -2.47439 0
M  V30 28 O 3.7282 -3.92583 -1.94449 0
M  V30 29 C 5.2292 -2.85212 -3.39366 0
M  V30 30 H 2.4492 -0.53785 -0.401196 0
M  V30 31 H 4.9932 -1.93932 -0.648891 0
M  V30 32 H 3.1482 -2.31946 -3.1029 0
M  V30 33 H 3.5622 -4.49629 -2.70063 0
M  V30 34 H 5.0362 -3.61863 -4.16844 0
M  V30 35 H 5.5132 -1.93765 -3.94147 0
M  V30 36 H 6.1192 -3.18086 -2.82314 0
M  V30 37 N 4.4343 0.785586 -1.36625 0
M  V30 38 C 5.3813 1.89838 -1.31264 0
M  V30 39 C 6.3513 1.65115 -0.180633 0
M  V30 40 O 7.5363 1.87222 -0.36777 0
M  V30 41 C 4.6763 3.26706 -1.11163 0
M  V30 42 C 3.7893 3.63476 -2.33472 0
M  V30 43 C 2.9243 4.89481 -2.06353 0
M  V30 44 C 1.9633 5.18941 -3.24602 0
M  V30 45 N 1.1003 6.36131 -2.97123 0
M  V30 46 H 5.9403 1.93756 -2.26413 0
M  V30 47 H 3.4773 0.947454 -1.12524 0
M  V30 48 H 5.4353 4.05639 -0.975337 0
M  V30 49 H 4.0653 3.222 -0.196674 0
M  V30 50 H 3.1173 2.79636 -2.57891 0
M  V30 51 H 4.4293 3.81193 -3.21704 0
M  V30 52 H 3.5833 5.76288 -1.89675 0
M  V30 53 H 2.3223 4.73841 -1.15437 0
M  V30 54 H 1.3273 4.30615 -3.41834 0
M  V30 55 H 2.5523 5.36498 -4.16349 0
M  V30 56 H 0.4983 6.21875 -2.08823 0
M  V30 57 H 0.4153 6.54198 -3.78894 0
M  V30 58 H 1.6833 7.2591 -2.84033 0
M  V30 59 N 5.9124 1.20967 1.01018 0
M  V30 60 C 7.1604 1.02172 1.74371 0
M  V30 61 C 7.4814 -0.446414 1.89821 0
M  V30 62 O 6.7514 -1.32234 1.44537 0
M  V30 63 H 5.3314 0.375066 0.646014 0
M  V30 64 H 7.9934 1.52187 1.21758 0
M  V30 65 H 7.0894 1.48538 2.74487 0
M  V30 66 N 7.3905 -1.2043 1.01659 0
M  V30 67 C 8.8015 -1.71517 0.737482 0
M  V30 68 C 9.1525 -1.81547 -0.743973 0
M  V30 69 O 8.2775 -1.47803 -1.58061 0
M  V30 70 C 8.8725 -3.11515 1.33206 0
M  V30 71 C 7.4315 -3.59912 1.10183 0
M  V30 72 C 6.5785 -2.37116 1.43776 0
M  V30 73 H 9.5295 -1.05444 1.18606 0
M  V30 74 H 9.5505 -3.73575 0.722636 0
M  V30 75 H 9.0625 -3.04182 2.41028 0
M  V30 76 H 7.1635 -3.72577 0.0412756 0
M  V30 77 H 7.2765 -4.44731 1.78188 0
M  V30 78 H 5.6405 -2.39857 0.856778 0
M  V30 79 H 6.4235 -2.32424 2.52654 0
M  V30 80 N 8.8686 -0.792821 -1.36206 0
M  V30 81 C 10.0936 -0.377701 -2.03932 0
M  V30 82 C 10.5186 0.998947 -1.59382 0
M  V30 83 O 9.8766 1.64421 -0.763903 0
M  V30 84 C 9.9246 -0.453635 -3.57735 0
M  V30 85 O 9.0286 0.538151 -4.08874 0
M  V30 86 H 8.3696 -0.159855 -0.644471 0
M  V30 87 H 10.8996 -1.07488 -1.7409 0
M  V30 88 H 10.9096 -0.318464 -4.06755 0
M  V30 89 H 9.5846 -1.45784 -3.89512 0
M  V30 90 H 8.1616 0.364359 -3.71116 0
M  V30 91 N 10.3467 1.47872 -0.545128 0
M  V30 92 C 11.5927 2.02793 -0.0166104 0
M  V30 93 C 11.9257 1.41987 1.32489 0
M  V30 94 O 11.2007 0.571045 1.85928 0
M  V30 95 C 11.4837 3.59989 0.0893294 0
M  V30 96 C 11.3367 4.3125 -1.27841 0
M  V30 97 C 12.6557 4.32606 0.808724 0
M  V30 98 H 9.7747 0.736962 -0.00751035 0
M  V30 99 H 12.4167 1.76433 -0.705085 0
M  V30 100 H 10.5667 3.82579 0.675681 0
M  V30 101 H 12.2387 4.20035 -1.90704 0
M  V30 102 H 10.4817 3.92076 -1.85632 0
M  V30 103 H 11.1527 5.39736 -1.15713 0
M  V30 104 H 13.6287 4.14936 0.310992 0
M  V30 105 H 12.5047 5.42251 0.851782 0
M  V30 106 H 12.7657 4.00963 1.86229 0
M  V30 107 N 11.8248 0.280983 1.55075 0
M  V30 108 C 13.0718 -0.334115 1.99725 0
M  V30 109 C 13.3998 -1.5542 1.1694 0
M  V30 110 O 12.6548 -1.94361 0.228531 0
M  V30 111 C 12.9538 -0.754656 3.49342 0
M  V30 112 C 12.6198 0.361445 4.49449 0
M  V30 113 C 11.2818 0.667893 4.76542 0
M  V30 114 C 13.6338 1.11322 5.09173 0
M  V30 115 C 10.9618 1.7296 5.60626 0
M  V30 116 C 13.3138 2.1647 5.9441 0
M  V30 117 C 11.9778 2.47742 6.19822 0
M  V30 118 H 11.2478 -0.122261 0.730844 0
M  V30 119 H 13.8948 0.395917 1.87363 0
M  V30 120 H 12.1998 -1.56446 3.5921 0
M  V30 121 H 13.8968 -1.24142 3.813 0
M  V30 122 H 10.4868 0.112481 4.28452 0
M  V30 123 H 14.6708 0.88973 4.8826 0
M  V30 124 H 9.9268 1.97684 5.78559 0
M  V30 125 H 14.1008 2.75193 6.3972 0
M  V30 126 H 11.7278 3.30145 6.84769 0
M  V30 127 N 13.3029 -1.57598 0.00835791 0
M  V30 128 C 14.7139 -1.7892 -0.53333 0
M  V30 129 C 15.0649 -0.916609 -1.73473 0
M  V30 130 O 14.1899 -0.121336 -2.1606 0
M  V30 131 C 14.7849 -3.24488 -0.974313 0
M  V30 132 C 13.3439 -3.46878 -1.46125 0
M  V30 133 C 12.4909 -2.74157 -0.416302 0
M  V30 134 H 15.4419 -1.56958 0.234495 0
M  V30 135 H 15.4629 -3.3306 -1.83988 0
M  V30 136 H 14.9749 -3.87972 -0.099718 0
M  V30 137 H 13.0759 -2.8862 -2.35646 0
M  V30 138 H 13.1889 -4.55572 -1.48295 0
M  V30 139 H 11.5529 -2.39022 -0.87981 0
M  V30 140 H 12.3359 -3.40345 0.44947 0
M  V30 141 N 14.781 0.264519 -1.55364 0
M  V30 142 C 15.711 1.33121 -1.91836 0
M  V30 143 C 16.692 1.51101 -0.781192 0
M  V30 144 O 17.877 1.64003 -1.04003 0
M  V30 145 C 15.007 2.68921 -2.19769 0
M  V30 146 C 13.961 2.65661 -3.35571 0
M  V30 147 C 13.287 4.05093 -3.49004 0
M  V30 148 C 14.587 2.24187 -4.71739 0
M  V30 149 H 16.281 1.02844 -2.81182 0
M  V30 150 H 13.827 0.493286 -1.35287 0
M  V30 151 H 15.78 3.43663 -2.43872 0
M  V30 152 H 14.504 3.00799 -1.27231 0
M  V30 153 H 13.163 1.93377 -3.1145 0
M  V30 154 H 12.811 4.34206 -2.53917 0
M  V30 155 H 12.511 4.03804 -4.26868 0
M  V30 156 H 14.035 4.81561 -3.75408 0
M  V30 157 H 15.449 2.88654 -4.9533 0
M  V30 158 H 13.846 2.34044 -5.52579 0
M  V30 159 H 14.916 1.19327 -4.69988 0
M  V30 160 N 16.2591 1.48442 0.529413 0
M  V30 161 C 17.2221 1.62524 1.61612 0
M  V30 162 C 18.2221 0.498509 1.52877 0
M  V30 163 O 19.4121 0.76431 1.56537 0
M  V30 164 C 16.5441 1.59597 3.01233 0
M  V30 165 H 17.7371 2.59423 1.50465 0
M  V30 166 H 15.2901 1.37047 0.751514 0
M  V30 167 H 16.0251 0.641781 3.17886 0
M  V30 168 H 15.8101 2.41397 3.08982 0
M  V30 169 H 17.3001 1.72646 3.80241 0
M  V30 170 N 17.7372 -0.778329 1.37039 0
M  V30 171 C 19.1482 -1.35421 1.28523 0
M  V30 172 C 19.4992 -1.96075 -0.0700901 0
M  V30 173 O 18.6242 -1.93352 -0.971801 0
M  V30 174 C 19.2192 -2.46211 2.32735 0
M  V30 175 C 17.7782 -2.99585 2.27873 0
M  V30 176 C 16.9252 -1.72748 2.16918 0
M  V30 177 H 19.8762 -0.5791 1.47757 0
M  V30 178 H 19.8972 -3.2552 1.9702 0
M  V30 179 H 19.4092 -2.02036 3.31365 0
M  V30 180 H 17.5102 -3.48152 1.32745 0
M  V30 181 H 17.6232 -3.55646 3.21018 0
M  V30 182 H 15.9872 -1.95416 1.63354 0
M  V30 183 H 16.7702 -1.30686 3.17452 0
M  V30 184 N 19.2153 -1.21501 -1.00376 0
M  V30 185 C 20.4553 -1.04444 -1.75701 0
M  V30 186 C 20.8193 0.414644 -1.87469 0
M  V30 187 O 22.0203 0.705763 -2.59369 0
M  V30 188 C 20.2913 -1.72389 -3.13077 0
M  V30 189 S 21.8503 -1.70604 -4.04277 0
M  V30 190 H 18.6683 -0.374249 -0.604532 0
M  V30 191 H 21.2703 -1.54267 -1.20091 0
M  V30 192 H 19.9743 -2.77734 -3.02146 0
M  V30 193 H 19.5053 -1.22751 -3.73759 0
M  V30 194 H 21.5203 -0.748012 -4.9053 0
M  V30 195 N 20.6934 1.19889 -1.02296 0
M  V30 196 C 21.9184 1.9393 -0.735237 0
M  V30 197 C 22.3434 1.74639 0.698782 0
M  V30 198 O 21.7014 1.04481 1.48167 0
M  V30 199 C 21.7494 3.43916 -1.08417 0
M  V30 200 O 20.8534 4.11917 -0.199446 0
M  V30 201 H 20.1944 0.605645 -0.272196 0
M  V30 202 H 22.7244 1.52137 -1.36804 0
M  V30 203 H 22.7344 3.9456 -1.03856 0
M  V30 204 H 21.4094 3.5728 -2.12894 0
M  V30 205 H 19.9864 3.71666 -0.303136 0
M  V30 206 N 22.1715 0.800033 1.35784 0
M  V30 207 C 23.5875 0.482977 1.52117 0
M  V30 208 C 23.7875 -0.996948 1.75109 0
M  V30 209 O 22.8435 -1.78216 1.78872 0
M  V30 210 C 24.1565 1.32264 2.70049 0
M  V30 211 C 25.7045 1.31742 2.83924 0
M  V30 212 C 26.1795 2.14106 4.04874 0
M  V30 213 N 27.6705 2.11607 4.12039 0
M  V30 214 C 28.4055 2.72099 5.04727 0
M  V30 215 N 27.9015 3.41492 6.02789 0
M  V30 216 N 29.6945 2.61776 4.97423 0
M  V30 217 H 21.8455 1.75856 1.19115 0
M  V30 218 H 24.1085 0.748122 0.582252 0
M  V30 219 H 23.8145 2.37261 2.59616 0
M  V30 220 H 23.6885 0.971303 3.6448 0
M  V30 221 H 26.0755 0.275333 2.93813 0
M  V30 222 H 26.1565 1.70859 1.9037 0
M  V30 223 H 25.8005 3.18351 3.95746 0
M  V30 224 H 25.7305 1.72353 4.97596 0
M  V30 225 H 28.2215 1.61112 3.41835 0
M  V30 226 H 28.5345 3.84953 6.70098 0
M  V30 227 H 26.8795 3.45596 6.02983 0
M  V30 228 H 30.0705 2.07157 4.19766 0
M  V30 229 H 30.2435 3.0921 5.69468 0
M  V30 230 N 23.6496 -1.47581 0.552962 0
M  V30 231 C 24.8746 -2.07378 0.0300593 0
M  V30 232 C 25.2996 -1.40355 -1.25229 0
M  V30 233 O 24.6576 -0.477099 -1.7491 0
M  V30 234 C 24.7056 -3.60274 -0.153231 0
M  V30 235 O 23.8096 -3.94041 -1.21678 0
M  V30 236 H 23.1506 -0.662158 0.0494182 0
M  V30 237 H 25.6806 -1.89662 0.767434 0
M  V30 238 H 25.6906 -4.0633 -0.368761 0
M  V30 239 H 24.3656 -4.08455 0.783397 0
M  V30 240 H 22.9426 -3.59735 -0.982079 0
M  V30 241 N 25.1277 -0.289203 -1.54924 0
M  V30 242 C 26.3557 0.326463 -2.04308 0
M  V30 243 C 26.7707 1.48413 -1.16701 0
M  V30 244 O 26.1277 1.81507 -0.190087 0
M  V30 245 C 26.1787 0.794014 -3.52672 0
M  V30 246 O 25.8997 -0.317564 -4.36948 0
M  V30 247 C 27.4007 1.47605 -4.18004 0
M  V30 248 H 24.6207 0.0726272 -0.667058 0
M  V30 249 H 27.1647 -0.425401 -2.00026 0
M  V30 250 H 25.3197 1.49593 -3.57352 0
M  V30 251 H 25.7337 0.0443186 -5.24481 0
M  V30 252 H 27.2077 1.75447 -5.23376 0
M  V30 253 H 27.6847 2.41224 -3.67025 0
M  V30 254 H 28.2907 0.81762 -4.17367 0
M  V30 255 N 26.6058 1.57591 -0.0167156 0
M  V30 256 C 27.8308 1.9598 0.67872 0
M  V30 257 C 28.2558 0.892546 1.65575 0
M  V30 258 O 27.6138 -0.147772 1.80697 0
M  V30 259 C 27.6618 3.33468 1.37227 0
M  V30 260 O 26.7658 3.28954 2.48722 0
M  V30 261 H 26.1068 0.639339 0.17928 0
M  V30 262 H 28.6368 2.04463 -0.0748802 0
M  V30 263 H 28.6468 3.69417 1.7319 0
M  V30 264 H 27.3218 4.10694 0.656007 0
M  V30 265 H 25.8988 3.04705 2.14963 0
M  V30 266 N 28.0839 -0.256276 1.55502 0
M  V30 267 C 28.9939 -1.33882 1.92647 0
M  V30 268 C 30.0099 -1.53159 0.825727 0
M  V30 269 O 31.1859 -1.66963 1.12629 0
M  V30 270 C 28.2509 -2.6751 2.20543 0
M  V30 271 C 27.3119 -2.56836 3.43997 0
M  V30 272 C 26.5449 -3.84092 3.70553 0
M  V30 273 O 26.7679 -4.85545 2.99336 0
M  V30 274 O 25.7019 -3.83288 4.64084 0
M  V30 275 H 29.5279 -1.05374 2.84833 0
M  V30 276 H 27.1129 -0.456237 1.42263 0
M  V30 277 H 28.9949 -3.46492 2.39835 0
M  V30 278 H 27.6699 -2.9577 1.31536 0
M  V30 279 H 26.5769 -1.76172 3.30021 0
M  V30 280 H 27.9099 -2.33523 4.33275 0
M  V30 281 N 29.562 -1.4872 -0.521534 0
M  V30 282 C 30.787 -1.61101 -1.30618 0
M  V30 283 C 31.212 -0.274611 -1.86085 0
M  V30 284 O 30.57 0.754937 -1.64834 0
M  V30 285 C 30.618 -2.66709 -2.4269 0
M  V30 286 O 29.722 -2.24456 -3.45967 0
M  V30 287 H 29.063 -0.539921 -0.386499 0
M  V30 288 H 31.593 -1.94767 -0.626645 0
M  V30 289 H 31.603 -2.88245 -2.88754 0
M  V30 290 H 30.278 -3.63727 -2.01682 0
M  V30 291 H 28.855 -2.13168 -3.05964 0
M  V30 292 N 31.0401 0.771051 -1.3745 0
M  V30 293 C 32.2681 1.56015 -1.35893 0
M  V30 294 C 32.6831 1.88718 0.0555523 0
M  V30 295 O 32.0401 1.51502 1.01752 0
M  V30 296 C 32.0911 2.87001 -2.19801 0
M  V30 297 O 31.8121 2.557 -3.55738 0
M  V30 298 C 33.3131 3.81228 -2.26231 0
M  V30 299 H 30.5331 0.483317 -0.465453 0
M  V30 300 H 33.0771 0.955611 -1.80799 0
M  V30 301 H 31.2321 3.43877 -1.78402 0
M  V30 302 H 31.6461 3.39584 -3.99729 0
M  V30 303 H 33.1201 4.70139 -2.89263 0
M  V30 304 H 33.5971 4.20409 -1.27093 0
M  V30 305 H 34.2031 3.30281 -2.67945 0
M  V30 306 N 32.5182 1.22032 0.997298 0
M  V30 307 C 33.4812 0.987909 2.06816 0
M  V30 308 C 34.4812 -0.0440084 1.6074 0
M  V30 309 O 35.6712 0.194053 1.73116 0
M  V30 310 C 32.8032 0.49132 3.37341 0
M  V30 311 H 33.9962 1.93803 2.28868 0
M  V30 312 H 31.5492 1.03838 1.16822 0
M  V30 313 H 32.2842 -0.463364 3.20973 0
M  V30 314 H 32.0692 1.23575 3.72118 0
M  V30 315 H 33.5592 0.348824 4.16141 0
M  V30 316 N 33.9963 -1.19345 1.0293 0
M  V30 317 C 34.9593 -2.20793 0.615069 0
M  V30 318 C 35.9593 -1.57553 -0.321533 0
M  V30 319 O 37.1493 -1.73862 -0.108483 0
M  V30 320 C 34.2813 -3.40754 -0.0999222 0
M  V30 321 H 35.4743 -2.58955 1.51269 0
M  V30 322 H 33.0273 -1.3303 0.820534 0
M  V30 323 H 33.7623 -3.0811 -1.01187 0
M  V30 324 H 33.5473 -3.87889 0.57309 0
M  V30 325 H 35.0373 -4.15898 -0.376645 0
M  V30 326 N 35.4744 -0.807222 -1.35358 0
M  V30 327 C 36.4044 -0.232509 -2.3234 0
M  V30 328 C 37.3854 0.642386 -1.57504 0
M  V30 329 O 38.5704 0.572526 -1.85569 0
M  V30 330 C 35.7004 0.619238 -3.41735 0
M  V30 331 C 34.6544 -0.157215 -4.27711 0
M  V30 332 C 33.9804 0.816273 -5.28433 0
M  V30 333 C 35.2804 -1.35656 -5.04376 0
M  V30 334 H 36.9744 -1.04276 -2.80654 0
M  V30 335 H 34.5204 -0.50288 -1.34934 0
M  V30 336 H 36.4734 1.03137 -4.08584 0
M  V30 337 H 35.1974 1.46239 -2.92031 0
M  V30 338 H 33.8564 -0.550525 -3.62443 0
M  V30 339 H 33.5044 1.65494 -4.74996 0
M  V30 340 H 33.2044 0.301067 -5.86828 0
M  V30 341 H 34.7284 1.22659 -5.98153 0
M  V30 342 H 36.1424 -1.01927 -5.64166 0
M  V30 343 H 34.5394 -1.8063 -5.7227 0
M  V30 344 H 35.6094 -2.14288 -4.34981 0
M  V30 345 N 36.9525 1.47285 -0.560781 0
M  V30 346 C 38.2005 2.02064 -0.0379868 0
M  V30 347 C 38.5215 1.43711 1.31803 0
M  V30 348 O 37.7915 0.61362 1.86042 0
M  V30 349 H 36.3715 0.746918 -0.0110531 0
M  V30 350 H 39.0335 1.80648 -0.731598 0
M  V30 351 H 38.1295 3.12064 0.0474463 0
M  V30 352 N 38.4306 0.297415 1.54768 0
M  V30 353 C 39.6706 -0.313829 2.01976 0
M  V30 354 C 40.0346 -1.51366 1.1812 0
M  V30 355 O 41.2356 -2.19603 1.5501 0
M  V30 356 C 39.5066 -0.664964 3.51159 0
M  V30 357 S 41.0656 -1.25958 4.20333 0
M  V30 358 H 37.8836 -0.0965014 0.704421 0
M  V30 359 H 40.4856 0.424451 1.90837 0
M  V30 360 H 39.1896 0.21681 4.09827 0
M  V30 361 H 38.7206 -1.43413 3.66328 0
M  V30 362 H 40.7356 -2.54751 4.25813 0
M  V30 363 N 39.9087 -1.5758 0.0250728 0
M  V30 364 C 40.8387 -2.13007 -0.956575 0
M  V30 365 C 41.8197 -1.0452 -1.342 0
M  V30 366 O 43.0047 -1.32332 -1.42133 0
M  V30 367 C 40.1347 -2.65386 -2.24026 0
M  V30 368 C 39.0887 -3.78623 -1.99571 0
M  V30 369 C 38.4147 -4.17414 -3.3417 0
M  V30 370 C 39.7147 -5.04867 -1.33814 0
M  V30 371 H 41.4087 -2.9528 -0.494991 0
M  V30 372 H 38.9547 -1.42042 -0.236651 0
M  V30 373 H 40.9077 -3.02794 -2.93076 0
M  V30 374 H 39.6317 -1.80268 -2.72343 0
M  V30 375 H 38.2907 -3.41646 -1.32941 0
M  V30 376 H 37.9387 -3.29284 -3.80238 0
M  V30 377 H 37.6387 -4.93719 -3.18615 0
M  V30 378 H 39.1627 -4.57402 -4.04495 0
M  V30 379 H 40.5767 -5.39888 -1.92857 0
M  V30 380 H 38.9737 -5.86144 -1.28669 0
M  V30 381 H 40.0437 -4.83904 -0.310561 0
M  V30 382 N 41.3868 0.248026 -1.55636 0
M  V30 383 C 42.6328 0.97767 -1.77678 0
M  V30 384 C 42.9658 1.85016 -0.590135 0
M  V30 385 O 42.2408 1.90095 0.411611 0
M  V30 386 C 42.5238 1.83914 -3.09593 0
M  V30 387 C 42.3768 0.99491 -4.38659 0
M  V30 388 C 43.6958 2.82183 -3.37729 0
M  V30 389 H 40.8148 0.354005 -0.646413 0
M  V30 390 H 43.4568 0.248253 -1.88371 0
M  V30 391 H 41.6068 2.46104 -3.00608 0
M  V30 392 H 43.2788 0.391789 -4.59633 0
M  V30 393 H 41.5218 0.299231 -4.32767 0
M  V30 394 H 42.1928 1.63145 -5.2734 0
M  V30 395 H 44.6688 2.30129 -3.4667 0
M  V30 396 H 43.5448 3.39582 -4.31249 0
M  V30 397 H 43.8058 3.58588 -2.58586 0
M  V30 398 N 42.8649 1.48995 0.513639 0
M  V30 399 C 43.8119 1.6473 1.61656 0
M  V30 400 C 44.7819 0.488984 1.58739 0
M  V30 401 O 45.9669 0.714478 1.76918 0
M  V30 402 C 43.1069 1.7082 2.99858 0
M  V30 403 C 42.2199 2.9787 3.12885 0
M  V30 404 C 41.3549 2.95017 4.41744 0
M  V30 405 C 40.3939 4.16702 4.48359 0
M  V30 406 N 39.5309 4.11832 5.68629 0
M  V30 407 H 44.3709 2.58909 1.47547 0
M  V30 408 H 41.9079 1.28382 0.71808 0
M  V30 409 H 43.8659 1.72331 3.79944 0
M  V30 410 H 42.4959 0.801181 3.12699 0
M  V30 411 H 41.5479 3.06029 2.25944 0
M  V30 412 H 42.8599 3.8786 3.13633 0
M  V30 413 H 42.0139 2.95021 5.30139 0
M  V30 414 H 40.7529 2.02784 4.43542 0
M  V30 415 H 39.7579 4.16955 3.58369 0
M  V30 416 H 40.9829 5.10113 4.48287 0
M  V30 417 H 38.9289 3.22428 5.71293 0
M  V30 418 H 38.8459 4.95543 5.7094 0
M  V30 419 H 40.1139 4.1592 6.59266 0
M  V30 420 N 44.343 -0.763751 1.37857 0
M  V30 421 C 45.62 -1.51244 1.24035 0
M  V30 422 C 46 -2.10472 -0.162649 0
M  V30 423 O 45.348 -1.96206 -1.17112 0
M  V30 424 C 45.558 -2.58694 2.34261 0
M  V30 425 C 46.906 -3.25878 2.72193 0
M  V30 426 O 47.93 -2.68993 2.33497 0
M  V30 427 O 46.789 -4.2874 3.38887 0
M  V30 428 H 43.883 -0.670243 0.484462 0
M  V30 429 H 46.429 -0.800031 1.49658 0
M  V30 430 H 45.201 -2.13105 3.2818 0
M  V30 431 H 44.824 -3.37527 2.10146 0
M  V30 432 N 45.8211 -1.22559 -0.990812 0
M  V30 433 C 47.0511 -1.07623 -1.76355 0
M  V30 434 C 47.4591 0.37601 -1.85426 0
M  V30 435 O 46.8021 1.27228 -1.32509 0
M  V30 436 C 46.8641 -1.61507 -3.21179 0
M  V30 437 C 46.5281 -3.10146 -3.35646 0
M  V30 438 C 47.5251 -4.07553 -3.22796 0
M  V30 439 C 45.2101 -3.49644 -3.60631 0
M  V30 440 C 47.2041 -5.42442 -3.34716 0
M  V30 441 C 44.8911 -4.84682 -3.72192 0
M  V30 442 C 45.8891 -5.8089 -3.59243 0
M  V30 443 O 45.5771 -7.13476 -3.70415 0
M  V30 444 H 45.3091 -0.377745 -0.560611 0
M  V30 445 H 47.8631 -1.62658 -1.25425 0
M  V30 446 H 46.0931 -1.00881 -3.73309 0
M  V30 447 H 47.7821 -1.42202 -3.80175 0
M  V30 448 H 48.5481 -3.78381 -3.03403 0
M  V30 449 H 44.4271 -2.75282 -3.69785 0
M  V30 450 H 47.9711 -6.17518 -3.24526 0
M  V30 451 H 43.8681 -5.13534 -3.91092 0
M  V30 452 H 44.6361 -7.21083 -3.87275 0
M  V30 453 N 47.2992 1.18797 -1.03562 0
M  V30 454 C 48.5462 1.8865 -0.736023 0
M  V30 455 C 48.8742 1.80041 0.735889 0
M  V30 456 O 48.1292 1.19179 1.55225 0
M  V30 457 C 48.4282 3.38692 -1.14117 0
M  V30 458 C 48.0942 3.67504 -2.6125 0
M  V30 459 C 46.7562 3.75078 -3.01447 0
M  V30 460 C 49.1082 3.80293 -3.56408 0
M  V30 461 C 46.4362 3.92915 -4.35701 0
M  V30 462 C 48.7882 3.99645 -4.90374 0
M  V30 463 C 47.4522 4.05453 -5.30249 0
M  V30 464 H 46.7222 0.690321 -0.26933 0
M  V30 465 H 49.3692 1.40641 -1.29971 0
M  V30 466 H 47.6742 3.88645 -0.496202 0
M  V30 467 H 49.3712 3.91072 -0.886789 0
M  V30 468 H 45.9612 3.62223 -2.29113 0
M  V30 469 H 50.1452 3.73779 -3.26501 0
M  V30 470 H 45.4012 3.95653 -4.66121 0
M  V30 471 H 49.5752 4.08482 -5.64017 0
M  V30 472 H 47.2022 4.19027 -6.34288 0
M  V30 473 N 48.7773 0.814389 1.34928 0
M  V30 474 C 50.1883 0.458364 1.80986 0
M  V30 475 C 50.5393 -1.02042 1.67577 0
M  V30 476 O 49.6643 -1.79352 1.21086 0
M  V30 477 C 50.2593 0.825212 3.28597 0
M  V30 478 C 48.8183 0.521677 3.72767 0
M  V30 479 C 47.9653 1.04668 2.56788 0
M  V30 480 H 50.9163 1.00533 1.22795 0
M  V30 481 H 50.9373 0.12571 3.80292 0
M  V30 482 H 50.4493 1.90154 3.38324 0
M  V30 483 H 48.5503 -0.545589 3.68584 0
M  V30 484 H 48.6633 1.05977 4.67232 0
M  V30 485 H 47.0273 0.468622 2.50352 0
M  V30 486 H 47.8103 2.12927 2.6929 0
M  V30 487 N 50.2554 -1.46986 0.568584 0
M  V30 488 C 51.1654 -2.33942 -0.17555 0
M  V30 489 C 52.1814 -1.48891 -0.90041 0
M  V30 490 O 53.3574 -1.81794 -0.86676 0
M  V30 491 C 50.4224 -3.25811 -1.18524 0
M  V30 492 C 49.4834 -4.26757 -0.466582 0
M  V30 493 C 48.7164 -5.14236 -1.42817 0
M  V30 494 O 48.9394 -5.04379 -2.66379 0
M  V30 495 O 47.8734 -5.94412 -0.946453 0
M  V30 496 H 51.6994 -2.98896 0.538036 0
M  V30 497 H 49.2844 -1.4573 0.329097 0
M  V30 498 H 51.1664 -3.82527 -1.76779 0
M  V30 499 H 49.8414 -2.63471 -1.88055 0
M  V30 500 H 48.7484 -3.73769 0.157451 0
M  V30 501 H 50.0814 -4.91843 0.187485 0
M  V30 502 N 51.7335 -0.305618 -1.54608 0
M  V30 503 C 53.1445 0.186098 -1.8577 0
M  V30 504 C 53.4955 1.53058 -1.22751 0
M  V30 505 O 52.6205 2.09888 -0.526893 0
M  V30 506 C 53.2155 0.344449 -3.37044 0
M  V30 507 C 51.7745 0.780384 -3.68221 0
M  V30 508 C 50.9215 -0.108554 -2.77087 0
M  V30 509 H 53.8725 -0.526485 -1.49712 0
M  V30 510 H 53.8935 1.17828 -3.61796 0
M  V30 511 H 53.4055 -0.634235 -3.82883 0
M  V30 512 H 51.5065 1.76945 -3.27904 0
M  V30 513 H 51.6195 0.596572 -4.75371 0
M  V30 514 H 49.9835 0.412931 -2.5133 0
M  V30 515 H 50.7665 -1.08368 -3.25747 0
M  V30 516 N 53.2116 1.57565 -0.0334293 0
M  V30 517 C 54.4576 1.92262 0.645226 0
M  V30 518 C 54.7906 0.910543 1.71531 0
M  V30 519 O 54.0656 -0.066099 1.94388 0
M  V30 520 C 54.3486 3.37422 1.2577 0
M  V30 521 C 54.2016 4.49369 0.196891 0
M  V30 522 C 55.5206 3.82628 2.17449 0
M  V30 523 H 52.6396 0.699171 0.233085 0
M  V30 524 H 55.2816 1.89779 -0.0915694 0
M  V30 525 H 53.4316 3.39669 1.88566 0
M  V30 526 H 55.1036 4.59254 -0.433962 0
M  V30 527 H 53.3466 4.31168 -0.477137 0
M  V30 528 H 54.0176 5.47978 0.665124 0
M  V30 529 H 56.4936 3.82145 1.64634 0
M  V30 530 H 55.3696 4.84883 2.57254 0
M  V30 531 H 55.6306 3.18376 3.0674 0
M  V30 532 N 54.6897 -0.239769 1.55765 0
M  V30 533 C 55.9177 -0.98417 1.81994 0
M  V30 534 C 56.3327 -1.7867 0.610124 0
M  V30 535 O 55.6897 -1.77571 -0.421271 0
M  V30 536 C 55.7407 -1.91635 3.06526 0
M  V30 537 O 55.4617 -1.14629 4.22838 0
M  V30 538 C 56.9627 -2.77616 3.45607 0
M  V30 539 H 54.1827 -0.28928 0.605441 0
M  V30 540 H 56.7267 -0.260499 2.02834 0
M  V30 541 H 54.8817 -2.5942 2.87715 0
M  V30 542 H 55.2957 -1.77745 4.93464 0
M  V30 543 H 56.7697 -3.38759 4.35828 0
M  V30 544 H 57.2467 -3.4909 2.6652 0
M  V30 545 H 57.8527 -2.15271 3.66795 0
M  V30 546 N 56.1678 -1.49265 -0.50573 0
M  V30 547 C 57.4138 -1.58748 -1.26202 0
M  V30 548 C 57.7468 -0.271227 -1.92297 0
M  V30 549 O 57.0218 0.724831 -1.80489 0
M  V30 550 C 57.3048 -2.74332 -2.33268 0
M  V30 551 C 57.1578 -4.15737 -1.71705 0
M  V30 552 C 58.4768 -2.85576 -3.34865 0
M  V30 553 H 55.5958 -0.577826 -0.457478 0
M  V30 554 H 58.2378 -1.81532 -0.560897 0
M  V30 555 H 56.3878 -2.55036 -2.93068 0
M  V30 556 H 58.0598 -4.46537 -1.15769 0
M  V30 557 H 56.3028 -4.21605 -1.02135 0
M  V30 558 H 56.9738 -4.92477 -2.49341 0
M  V30 559 H 59.4498 -3.03127 -2.8505 0
M  V30 560 H 58.3258 -3.68135 -4.07146 0
M  V30 561 H 58.5868 -1.94732 -3.96903 0
M  V30 562 N 57.6459 0.756429 -1.3826 0
M  V30 563 C 58.8709 1.55077 -1.37717 0
M  V30 564 C 59.2959 1.88073 0.03164 0
M  V30 565 O 58.6539 1.50364 1.01293 0
M  V30 566 C 58.7019 2.8283 -2.23695 0
M  V30 567 O 57.8059 3.77862 -1.6521 0
M  V30 568 H 57.1469 0.469152 -0.469885 0
M  V30 569 H 59.6769 0.935019 -1.81985 0
M  V30 570 H 59.6869 3.31783 -2.37453 0
M  V30 571 H 58.3619 2.58144 -3.2609 0
M  V30 572 H 56.9389 3.36555 -1.60578 0
M  V30 573 N 59.124 1.23083 0.984299 0
M  V30 574 C 60.37 1.07221 1.72845 0
M  V30 575 C 60.725 -0.387453 1.88458 0
M  V30 576 O 60.018 -1.28309 1.42293 0
M  V30 577 C 60.212 1.72673 3.1292 0
M  V30 578 C 60.041 3.24853 3.10967 0
M  V30 579 C 58.811 3.93998 3.16376 0
M  V30 580 C 61.009 4.21674 2.94441 0
M  V30 581 N 58.991 5.33192 3.04268 0
M  V30 582 C 60.362 5.47756 2.90453 0
M  V30 583 C 62.417 4.12457 2.78897 0
M  V30 584 C 61.12 6.6568 2.72512 0
M  V30 585 C 63.146 5.3004 2.62319 0
M  V30 586 C 62.508 6.55046 2.59026 0
M  V30 587 H 58.607 0.44685 0.641755 0
M  V30 588 H 61.191 1.55753 1.16829 0
M  V30 589 H 59.362 1.26679 3.67161 0
M  V30 590 H 61.094 1.49824 3.75945 0
M  V30 591 H 57.849 3.45052 3.24401 0
M  V30 592 H 58.273 6.06157 3.015 0
M  V30 593 H 62.915 3.16588 2.80235 0
M  V30 594 H 60.633 7.61689 2.69919 0
M  V30 595 H 64.219 5.24747 2.5126 0
M  V30 596 H 63.099 7.44498 2.46357 0
M  V30 597 N 60.6021 -1.18246 1.0419 0
M  V30 598 C 61.5501 -2.23968 0.627792 0
M  V30 599 C 62.5441 -1.65828 -0.346019 0
M  V30 600 O 63.7501 -1.78733 -0.213175 0
M  V30 601 H 60.1251 -0.728939 0.184802 0
M  V30 602 H 62.0961 -2.56202 1.52981 0
M  V30 603 C 60.8451 -3.47699 0.00796591 0
M  V30 604 H 60.1681 -3.92734 0.748347 0
M  V30 605 H 61.6081 -4.23294 -0.24455 0
M  V30 606 C 60.0671 -3.13153 -1.24246 0
M  V30 607 O 60.5971 -3.27003 -2.33307 0
M  V30 608 N 58.8031 -2.67467 -1.13622 0
M  V30 609 H 58.3501 -2.56396 -0.248734 0
M  V30 610 H 58.3081 -2.44724 -1.97377 0
M  V30 611 N 62.0802 -0.821533 -1.34494 0
M  V30 612 C 63.3052 -0.420873 -2.03085 0
M  V30 613 C 63.7302 0.964915 -1.61465 0
M  V30 614 O 63.0882 1.62763 -0.798607 0
M  V30 615 C 63.1362 -0.529414 -3.56693 0
M  V30 616 O 62.2402 0.451302 -4.09923 0
M  V30 617 H 61.5812 -0.173489 -0.640935 0
M  V30 618 H 64.1112 -1.11157 -1.71771 0
M  V30 619 H 64.1212 -0.404671 -4.05988 0
M  V30 620 H 62.7962 -1.54014 -3.86332 0
M  V30 621 H 61.3732 0.285558 -3.71805 0
M  V30 622 N 63.5583 1.46682 -0.576371 0
M  V30 623 C 64.8063 2.02013 -0.0594163 0
M  V30 624 C 65.1273 1.45101 1.30271 0
M  V30 625 O 64.3973 0.633317 1.8538 0
M  V30 626 H 62.9773 0.746759 -0.0189745 0
M  V30 627 H 65.6393 1.79862 -0.750717 0
M  V30 628 H 64.7353 3.12097 0.014345 0
M  V30 629 N 65.0364 0.313813 1.54444 0
M  V30 630 C 65.9994 -0.54379 2.22656 0
M  V30 631 C 66.9994 -1.05124 1.21678 0
M  V30 632 O 68.1894 -0.945225 1.46325 0
M  V30 633 C 65.3214 -1.75427 2.92298 0
M  V30 634 H 66.5144 0.0523599 2.99854 0
M  V30 635 H 64.0674 0.0647834 1.56166 0
M  V30 636 H 64.8024 -2.38991 2.19211 0
M  V30 637 H 64.5874 -1.39791 3.66334 0
M  V30 638 H 66.0774 -2.36325 3.44297 0
M  V30 639 N 66.5145 -1.57545 0.0417849 0
M  V30 640 C 67.4445 -2.14009 -0.933929 0
M  V30 641 C 68.4255 -1.05938 -1.33083 0
M  V30 642 O 69.6105 -1.33833 -1.40721 0
M  V30 643 C 66.7405 -2.67747 -2.21199 0
M  V30 644 C 65.6945 -3.80718 -1.95544 0
M  V30 645 C 65.0205 -4.20935 -3.29724 0
M  V30 646 C 66.3205 -5.06258 -1.28452 0
M  V30 647 H 68.0145 -2.95788 -0.463645 0
M  V30 648 H 65.5605 -1.42285 -0.221573 0
M  V30 649 H 67.5135 -3.05886 -2.89848 0
M  V30 650 H 66.2375 -1.83147 -2.70416 0
M  V30 651 H 64.8965 -3.43037 -1.2931 0
M  V30 652 H 64.5445 -3.33298 -3.76724 0
M  V30 653 H 64.2445 -4.9707 -3.13361 0
M  V30 654 H 65.7685 -4.61666 -3.9962 0
M  V30 655 H 67.1825 -5.41903 -1.8712 0
M  V30 656 H 65.5795 -5.87475 -1.22445 0
M  V30 657 H 66.6495 -4.84207 -0.259219 0
M  V30 658 N 67.9926 0.231505 -1.5589 0
M  V30 659 C 69.2206 0.974505 -1.82513 0
M  V30 660 C 69.6356 1.78344 -0.619591 0
M  V30 661 O 68.9926 1.77792 0.411848 0
M  V30 662 C 69.0436 1.90007 -3.07538 0
M  V30 663 O 68.7646 1.12385 -4.2344 0
M  V30 664 C 70.2656 2.75779 -3.47075 0
M  V30 665 H 67.4856 0.286065 -0.606966 0
M  V30 666 H 70.0296 0.249739 -2.02969 0
M  V30 667 H 68.1846 2.57891 -2.89086 0
M  V30 668 H 68.5986 1.75125 -4.944 0
M  V30 669 H 70.0726 3.36443 -4.37619 0
M  V30 670 H 70.5496 3.47672 -2.68367 0
M  V30 671 H 71.1556 2.13323 -3.67931 0
M  V30 672 N 69.4707 1.49531 0.497807 0
M  V30 673 C 70.6957 1.63159 1.28039 0
M  V30 674 C 71.1207 0.30418 1.85624 0
M  V30 675 O 70.4787 -0.728618 1.66015 0
M  V30 676 C 70.5267 2.70537 2.38416 0
M  V30 677 O 69.6307 2.29931 3.42353 0
M  V30 678 H 68.9717 0.546001 0.377861 0
M  V30 679 H 71.5017 1.9574 0.59558 0
M  V30 680 H 71.5117 2.92802 2.84132 0
M  V30 681 H 70.1867 3.6689 1.95869 0
M  V30 682 H 68.7637 2.18009 3.02533 0
M  V30 683 N 70.9488 -0.749086 1.3866 0
M  V30 684 C 72.1968 -1.50535 1.34847 0
M  V30 685 C 72.5178 -1.94909 -0.0595016 0
M  V30 686 O 71.7878 -1.67973 -1.00806 0
M  V30 687 H 70.3678 -0.558395 0.49619 0
M  V30 688 H 73.0298 -0.890165 1.73384 0
M  V30 689 H 72.1258 -2.39413 2.00219 0
M  V30 690 N 72.4269 -1.23603 -0.977757 0
M  V30 691 C 73.6729 -1.07129 -1.72195 0
M  V30 692 C 74.0059 0.390501 -1.90233 0
M  V30 693 O 73.2809 1.28902 -1.45653 0
M  V30 694 C 73.5639 -1.80031 -3.11867 0
M  V30 695 C 73.4169 -3.33899 -3.01383 0
M  V30 696 C 74.7359 -1.56492 -4.11337 0
M  V30 697 H 71.8549 -0.390571 -0.624999 0
M  V30 698 H 74.4969 -1.52142 -1.13811 0
M  V30 699 H 72.6469 -1.41768 -3.6171 0
M  V30 700 H 74.3189 -3.81699 -2.59043 0
M  V30 701 H 72.5619 -3.62796 -2.37827 0
M  V30 702 H 73.2329 -3.801 -4.00285 0
M  V30 703 H 75.7089 -1.89757 -3.70313 0
M  V30 704 H 74.5849 -2.09973 -5.07151 0
M  V30 705 H 74.8459 -0.500874 -4.39254 0
M  V30 706 N 73.905 1.17692 -1.04816 0
M  V30 707 C 74.855 2.1952 -0.616042 0
M  V30 708 C 75.839 1.57147 0.345485 0
M  V30 709 O 77.031 1.76245 0.163325 0
M  V30 710 C 74.16 3.43298 0.0116917 0
M  V30 711 C 73.246 4.12777 -0.973435 0
M  V30 712 N 73.637 4.5814 -2.14339 0
M  V30 713 C 71.935 4.38747 -0.80108 0
M  V30 714 C 72.636 5.11713 -2.7663 0
M  V30 715 N 71.612 5.03686 -2.04453 0
M  V30 716 H 75.414 2.52293 -1.5075 0
M  V30 717 H 72.928 1.3398 -0.917776 0
M  V30 718 H 74.925 4.15519 0.339006 0
M  V30 719 H 73.585 3.12018 0.898593 0
M  V30 720 H 74.596 4.52349 -2.52191 0
M  V30 721 H 71.273 4.17485 0.0350934 0
M  V30 722 H 72.663 5.56962 -3.75823 0
M  V30 723 N 75.3831 0.828654 1.34056 0
M  V30 724 C 76.6111 0.43262 2.02326 0
M  V30 725 C 77.0261 -0.963147 1.62385 0
M  V30 726 O 76.3831 -1.62425 0.832121 0
M  V30 727 C 76.4341 0.53182 3.57567 0
M  V30 728 O 76.1551 1.87258 3.96063 0
M  V30 729 C 77.6561 0.131422 4.43105 0
M  V30 730 H 74.8761 0.172923 0.648335 0
M  V30 731 H 77.4201 1.1184 1.71208 0
M  V30 732 H 75.5751 -0.105938 3.87255 0
M  V30 733 H 75.9891 1.85087 4.90758 0
M  V30 734 H 77.4631 0.251904 5.51425 0
M  V30 735 H 77.9401 -0.925645 4.29335 0
M  V30 736 H 78.5461 0.743207 4.18756 0
M  V30 737 N 76.8612 -1.46375 0.584142 0
M  V30 738 C 78.1082 -2.02378 0.0702675 0
M  V30 739 C 78.4362 -1.45545 -1.29023 0
M  V30 740 O 77.6912 -0.610967 -1.85918 0
M  V30 741 C 77.9902 -3.57373 -0.0439342 0
M  V30 742 C 77.6562 -4.33252 1.24915 0
M  V30 743 C 76.3182 -4.53701 1.60341 0
M  V30 744 C 78.6702 -4.7681 2.1048 0
M  V30 745 C 75.9982 -5.1496 2.81128 0
M  V30 746 C 78.3502 -5.39404 3.30494 0
M  V30 747 C 77.0142 -5.5808 3.66201 0
M  V30 748 H 76.2842 -0.740554 0.0257127 0
M  V30 749 H 78.9312 -1.75727 0.761065 0
M  V30 750 H 77.2362 -3.83169 -0.817869 0
M  V30 751 H 78.9332 -3.98384 -0.457318 0
M  V30 752 H 75.5232 -4.17633 0.963364 0
M  V30 753 H 79.7072 -4.60766 1.84414 0
M  V30 754 H 74.9632 -5.27611 3.08928 0
M  V30 755 H 79.1372 -5.72114 3.97063 0
M  V30 756 H 76.7642 -6.05318 4.59885 0
M  V30 757 N 78.3393 -0.321999 -1.54275 0
M  V30 758 C 79.7503 0.166384 -1.85957 0
M  V30 759 C 80.1013 1.51747 -1.24367 0
M  V30 760 O 79.2263 2.09317 -0.549124 0
M  V30 761 C 79.8213 0.308681 -3.37391 0
M  V30 762 C 78.3803 0.741286 -3.69028 0
M  V30 763 C 77.5273 -0.137937 -2.76957 0
M  V30 764 H 80.4783 -0.542335 -1.49146 0
M  V30 765 H 80.4993 1.13984 -3.63026 0
M  V30 766 H 80.0113 -0.674809 -3.82188 0
M  V30 767 H 78.1123 1.73458 -3.29762 0
M  V30 768 H 78.2253 0.546118 -4.75977 0
M  V30 769 H 76.5893 0.386251 -2.51754 0
M  V30 770 H 77.3723 -1.11816 -3.2458 0
M  V30 771 N 79.8174 1.5752 -0.0501392 0
M  V30 772 C 80.7804 2.1037 0.909786 0
M  V30 773 C 81.7804 1.02308 1.24056 0
M  V30 774 O 82.9704 1.28385 1.17741 0
M  V30 775 C 80.1024 2.58708 2.21998 0
M  V30 776 H 81.2954 2.96479 0.451665 0
M  V30 777 H 78.8484 1.55038 0.198248 0
M  V30 778 H 79.5834 1.75989 2.72394 0
M  V30 779 H 79.3684 3.37675 1.99295 0
M  V30 780 H 80.8584 2.99747 2.9076 0
M  V30 781 N 81.2955 -0.223234 1.56011 0
M  V30 782 C 82.5415 -0.949279 1.79211 0
M  V30 783 C 82.8745 -1.84054 0.619494 0
M  V30 784 O 82.1495 -1.90726 -0.381317 0
M  V30 785 C 82.4325 -1.78965 3.12479 0
M  V30 786 C 82.2855 -0.924997 4.40186 0
M  V30 787 C 83.6045 -2.76774 3.42175 0
M  V30 788 H 80.7235 -0.343676 0.651963 0
M  V30 789 H 83.3655 -0.218253 1.88742 0
M  V30 790 H 81.5155 -2.41291 3.04485 0
M  V30 791 H 83.1875 -0.318615 4.60198 0
M  V30 792 H 81.4305 -0.230344 4.33188 0
M  V30 793 H 82.1015 -1.54735 5.29869 0
M  V30 794 H 84.5775 -2.24584 3.50287 0
M  V30 795 H 83.4535 -3.32678 4.36597 0
M  V30 796 H 83.7145 -3.54429 2.64258 0
M  V30 797 N 82.7736 -1.49793 -0.48987 0
M  V30 798 C 83.7036 -1.70201 -1.59856 0
M  V30 799 C 84.6846 -0.55076 -1.60937 0
M  V30 800 O 85.8696 -0.787841 -1.77501 0
M  V30 801 C 82.9996 -1.77882 -2.98287 0
M  V30 802 C 81.9536 -2.92907 -3.12073 0
M  V30 803 C 81.2796 -2.85712 -4.51965 0
M  V30 804 C 82.5796 -4.3369 -2.91051 0
M  V30 805 H 84.2736 -2.63025 -1.43032 0
M  V30 806 H 81.8196 -1.26574 -0.686664 0
M  V30 807 H 83.7726 -1.90744 -3.75759 0
M  V30 808 H 82.4966 -0.816653 -3.16225 0
M  V30 809 H 81.1556 -2.79665 -2.37029 0
M  V30 810 H 80.8036 -1.8738 -4.66795 0
M  V30 811 H 80.5036 -3.62921 -4.62128 0
M  V30 812 H 82.0276 -3.00598 -5.31482 0
M  V30 813 H 83.4416 -4.47555 -3.58284 0
M  V30 814 H 81.8386 -5.12205 -3.12675 0
M  V30 815 H 82.9086 -4.47362 -1.87071 0
M  V30 816 N 84.2517 0.741722 -1.39055 0
M  V30 817 C 85.1837 1.8657 -1.33133 0
M  V30 818 C 86.1967 1.61001 -0.241329 0
M  V30 819 O 87.3857 1.7136 -0.499784 0
M  V30 820 C 84.4857 3.22457 -1.04283 0
M  V30 821 C 83.6587 3.75435 -2.24427 0
M  V30 822 C 82.7177 4.89867 -1.92138 0
M  V30 823 O 81.7437 5.03879 -2.64754 0
M  V30 824 N 82.9457 5.73738 -0.88347 0
M  V30 825 H 85.7107 1.92156 -2.29991 0
M  V30 826 H 83.2717 0.922172 -1.3307 0
M  V30 827 H 85.2637 3.9657 -0.807128 0
M  V30 828 H 83.8337 3.12181 -0.161807 0
M  V30 829 H 83.0537 2.92751 -2.6399 0
M  V30 830 H 84.3417 4.07563 -3.04581 0
M  V30 831 H 83.7397 5.64999 -0.281517 0
M  V30 832 H 82.2967 6.47947 -0.707662 0
M  V30 833 N 85.7298 1.2412 0.971189 0
M  V30 834 C 86.9548 1.10667 1.75407 0
M  V30 835 C 87.3798 -0.337048 1.85056 0
M  V30 836 O 86.7378 -1.24396 1.31892 0
M  V30 837 C 86.7858 1.74726 3.15441 0
M  V30 838 O 85.8898 1.01566 3.99697 0
M  V30 839 H 85.2308 0.387341 0.539317 0
M  V30 840 H 87.7608 1.64358 1.2185 0
M  V30 841 H 87.7708 1.80341 3.6598 0
M  V30 842 H 86.4458 2.79773 3.07734 0
M  V30 843 H 85.0228 1.03713 3.58187 0
M  V30 844 N 87.2079 -1.17134 1.05439 0
M  V30 845 C 88.4329 -1.91913 0.786396 0
M  V30 846 C 88.8579 -1.7643 -0.652234 0
M  V30 847 O 88.2159 -1.08372 -1.45345 0
M  V30 848 C 88.2639 -3.40921 1.17497 0
M  V30 849 O 87.3679 -4.11244 0.308589 0
M  V30 850 H 86.7089 -0.598215 0.288158 0
M  V30 851 H 89.2389 -1.48457 1.4079 0
M  V30 852 H 89.2489 -3.91668 1.14281 0
M  V30 853 H 87.9239 -3.5151 2.22292 0
M  V30 854 H 86.5009 -3.70731 0.40157 0
M  V30 855 N 88.686 -0.835752 -1.33615 0
M  V30 856 C 89.934 -0.429109 -1.97492 0
M  V30 857 C 90.255 1.01433 -1.66543 0
M  V30 858 O 89.525 1.70611 -0.962744 0
M  V30 859 H 88.105 -0.155686 -0.730596 0
M  V30 860 H 90.767 -1.06802 -1.63031 0
M  V30 861 H 89.863 -0.55861 -3.0706 0
M  V30 862 N 90.1641 1.46063 -0.591896 0
M  V30 863 C 91.0941 2.33172 0.123673 0
M  V30 864 C 92.0751 1.45897 0.87453 0
M  V30 865 O 93.2601 1.74698 0.848181 0
M  V30 866 C 90.3901 3.28336 1.13194 0
M  V30 867 C 89.3441 4.25124 0.495324 0
M  V30 868 C 88.6701 5.09863 1.61071 0
M  V30 869 C 89.9701 5.19143 -0.573425 0
M  V30 870 H 91.6641 2.93252 -0.603646 0
M  V30 871 H 89.2101 1.41014 -0.291741 0
M  V30 872 H 91.1631 3.88137 1.64097 0
M  V30 873 H 89.8871 2.66383 1.88965 0
M  V30 874 H 88.5461 3.66599 0.00729452 0
M  V30 875 H 88.1941 4.44288 2.35832 0
M  V30 876 H 87.8941 5.75417 1.19035 0
M  V30 877 H 89.4181 5.72529 2.12233 0
M  V30 878 H 90.8321 5.73106 -0.1491 0
M  V30 879 H 89.2291 5.93089 -0.914636 0
M  V30 880 H 90.2991 4.62519 -1.45617 0
M  V30 881 N 91.6422 0.330177 1.54103 0
M  V30 882 C 92.8722 -0.271784 2.04805 0
M  V30 883 C 93.2802 -1.45816 1.20559 0
M  V30 884 O 92.6232 -1.82247 0.2306 0
M  V30 885 C 92.6852 -0.763238 3.51305 0
M  V30 886 C 92.3492 0.301705 4.56003 0
M  V30 887 C 93.3462 1.13999 5.07248 0
M  V30 888 C 91.0312 0.451793 5.00264 0
M  V30 889 C 93.0252 2.11402 6.01322 0
M  V30 890 C 90.7122 1.42924 5.94151 0
M  V30 891 C 91.7102 2.25882 6.44567 0
M  V30 892 O 91.3982 3.21965 7.3661 0
M  V30 893 H 91.1302 -0.058693 0.673447 0
M  V30 894 H 93.6842 0.476395 1.99799 0
M  V30 895 H 91.9142 -1.56244 3.5373 0
M  V30 896 H 93.6032 -1.28427 3.85047 0
M  V30 897 H 94.3692 1.03505 4.73827 0
M  V30 898 H 90.2482 -0.184044 4.60632 0
M  V30 899 H 93.7922 2.76192 6.40596 0
M  V30 900 H 89.6892 1.53479 6.26988 0
M  V30 901 H 90.4572 3.17281 7.54503 0
M  V30 902 N 93.1203 -1.57491 0.0584922 0
M  V30 903 C 94.3453 -1.97711 -0.62652 0
M  V30 904 C 94.7703 -0.936132 -1.63151 0
M  V30 905 O 94.1283 0.099811 -1.81025 0
M  V30 906 C 94.1763 -3.36989 -1.28338 0
M  V30 907 O 93.2803 -3.35433 -2.39913 0
M  V30 908 H 92.6213 -0.643868 -0.162266 0
M  V30 909 H 95.1513 -2.04193 0.129064 0
M  V30 910 H 95.1613 -3.73879 -1.63335 0
M  V30 911 H 93.8363 -4.12289 -0.546889 0
M  V30 912 H 92.4133 -3.10298 -2.06809 0
M  V30 913 N 94.5984 0.214957 -1.56127 0
M  V30 914 C 95.5284 1.2695 -1.95974 0
M  V30 915 C 96.5094 1.48539 -0.828868 0
M  V30 916 O 97.6944 1.60611 -1.09168 0
M  V30 917 C 94.8244 2.61794 -2.28214 0
M  V30 918 C 93.7784 2.54851 -3.43853 0
M  V30 919 C 93.1044 3.93785 -3.61715 0
M  V30 920 C 94.4044 2.09065 -4.78632 0
M  V30 921 H 96.0984 0.93846 -2.84312 0
M  V30 922 H 93.6444 0.449996 -1.36788 0
M  V30 923 H 95.5974 3.35731 -2.54682 0
M  V30 924 H 94.3214 2.96599 -1.36736 0
M  V30 925 H 92.9804 1.8337 -3.17444 0
M  V30 926 H 92.6284 4.25908 -2.67602 0
M  V30 927 H 92.3284 3.90019 -4.39498 0
M  V30 928 H 93.8524 4.69374 -3.90539 0
M  V30 929 H 95.2664 2.7275 -5.04262 0
M  V30 930 H 93.6634 2.16346 -5.59745 0
M  V30 931 H 94.7334 1.04315 -4.73547 0
M  V30 932 N 96.0765 1.50051 0.48192 0
M  V30 933 C 97.3015 1.64508 1.26301 0
M  V30 934 C 97.7265 0.323851 1.85291 0
M  V30 935 O 97.0845 -0.710969 1.66778 0
M  V30 936 C 97.1325 2.7305 2.35533 0
M  V30 937 O 96.2365 2.3355 3.39895 0
M  V30 938 H 95.5775 0.549978 0.372048 0
M  V30 939 H 98.1075 1.9636 0.574786 0
M  V30 940 H 98.1175 2.95799 2.8101 0
M  V30 941 H 96.7925 3.68946 1.91967 0
M  V30 942 H 95.3695 2.21205 3.00204 0
M  V30 943 N 97.5546 -0.734337 1.39446 0
M  V30 944 C 98.7796 -1.52866 1.40167 0
M  V30 945 C 99.2046 -1.881 -0.00171513 0
M  V30 946 O 98.5626 -1.51957 -0.988879 0
M  V30 947 C 98.6106 -2.79235 2.28167 0
M  V30 948 O 97.7146 -3.75185 1.71201 0
M  V30 949 H 97.0556 -0.461618 0.477289 0
M  V30 950 H 99.5856 -0.905949 1.8345 0
M  V30 951 H 99.5956 -3.27963 2.42702 0
M  V30 952 H 98.2706 -2.52923 3.30156 0
M  V30 953 H 96.8476 -3.33958 1.65912 0
M  V30 954 N 99.0327 -1.24633 -0.964593 0
M  V30 955 C 100.279 -1.08949 -1.71049 0
M  V30 956 C 100.612 0.370302 -1.90637 0
M  V30 957 O 99.8867 1.27349 -1.47011 0
M  V30 958 C 100.17 -1.83329 -3.0994 0
M  V30 959 C 100.023 -3.37077 -2.97824 0
M  V30 960 C 101.342 -1.60846 -4.09654 0
M  V30 961 H 98.4607 -0.397178 -0.620821 0
M  V30 962 H 101.103 -1.5334 -1.12191 0
M  V30 963 H 99.2527 -1.45597 -3.60186 0
M  V30 964 H 100.925 -3.84425 -2.5498 0
M  V30 965 H 99.1677 -3.65298 -2.33965 0
M  V30 966 H 99.8387 -3.84324 -3.96231 0
M  V30 967 H 102.315 -1.93674 -3.68279 0
M  V30 968 H 101.191 -2.1534 -5.04896 0
M  V30 969 H 101.452 -0.547434 -4.38698 0
M  V30 970 N 100.511 1.16574 -1.06058 0
M  V30 971 C 101.757 1.87324 -0.777022 0
M  V30 972 C 102.09 1.81351 0.694645 0
M  V30 973 O 101.365 1.22753 1.50871 0
M  V30 974 C 101.648 3.36991 -1.26922 0
M  V30 975 C 101.501 3.51667 -2.80447 0
M  V30 976 C 102.82 4.3131 -0.87521 0
M  V30 977 H 99.9388 0.680191 -0.28374 0
M  V30 978 H 102.581 1.37036 -1.3161 0
M  V30 979 H 100.731 3.79949 -0.81063 0
M  V30 980 H 102.403 3.17664 -3.34495 0
M  V30 981 H 100.646 2.93656 -3.19294 0
M  V30 982 H 101.317 4.56766 -3.0995 0
M  V30 983 H 103.793 3.9624 -1.27014 0
M  V30 984 H 102.669 5.34545 -1.2471 0
M  V30 985 H 102.93 4.41552 0.220071 0
M  V30 986 N 101.989 0.842826 1.3317 0
M  V30 987 C 103.217 0.454055 2.01856 0
M  V30 988 C 103.632 -0.94587 1.63397 0
M  V30 989 O 102.989 -1.61534 0.849302 0
M  V30 990 C 103.04 0.569715 3.56982 0
M  V30 991 O 102.761 1.91448 3.94055 0
M  V30 992 C 104.262 0.178412 4.42941 0
M  V30 993 H 101.482 0.17979 0.646465 0
M  V30 994 H 104.026 1.1365 1.70012 0
M  V30 995 H 102.181 -0.0648587 3.87346 0
M  V30 996 H 102.595 1.90282 4.88767 0
M  V30 997 H 104.069 0.310376 5.51127 0
M  V30 998 H 104.546 -0.880056 4.30293 0
M  V30 999 H 105.152 0.787579 4.17944 0
M  V30 1000 N 103.467 -1.45747 0.599634 0
M  V30 1001 C 104.713 -2.02592 0.0918643 0
M  V30 1002 C 105.046 -1.46806 -1.27128 0
M  V30 1003 O 104.321 -0.639658 -1.83681 0
M  V30 1004 C 104.604 -3.60073 0.0443398 0
M  V30 1005 C 104.457 -4.26208 1.43759 0
M  V30 1006 C 105.776 -4.35309 -0.647608 0
M  V30 1007 H 102.895 -0.736175 0.034857 0
M  V30 1008 H 105.537 -1.73694 0.770081 0
M  V30 1009 H 103.687 -3.84823 -0.533224 0
M  V30 1010 H 105.359 -4.12668 2.06162 0
M  V30 1011 H 103.602 -3.84916 2.00056 0
M  V30 1012 H 104.273 -5.35069 1.35665 0
M  V30 1013 H 106.749 -4.15805 -0.156776 0
M  V30 1014 H 105.625 -5.45038 -0.649942 0
M  V30 1015 H 105.886 -4.07598 -1.71219 0
M  V30 1016 N 104.945 -0.338344 -1.53925 0
M  V30 1017 C 106.356 0.146651 -1.86123 0
M  V30 1018 C 106.707 1.5042 -1.2597 0
M  V30 1019 O 105.832 2.08723 -0.571294 0
M  V30 1020 C 106.427 0.272879 -3.37699 0
M  V30 1021 C 104.986 0.702103 -3.69794 0
M  V30 1022 C 104.133 -0.167304 -2.76795 0
M  V30 1023 H 107.084 -0.558123 -1.48562 0
M  V30 1024 H 107.105 1.10128 -3.64214 0
M  V30 1025 H 106.617 -0.715307 -3.81451 0
M  V30 1026 H 104.718 1.6995 -3.31584 0
M  V30 1027 H 104.831 0.495604 -4.7653 0
M  V30 1028 H 103.195 0.359527 -2.5215 0
M  V30 1029 H 103.978 -1.15253 -3.23375 0
M  V30 1030 N 106.423 1.57458 -0.0668435 0
M  V30 1031 C 107.648 1.9804 0.616027 0
M  V30 1032 C 108.073 0.944771 1.62652 0
M  V30 1033 O 107.431 -0.0902094 1.81075 0
M  V30 1034 C 107.479 3.37665 1.26549 0
M  V30 1035 O 106.583 3.36701 2.38131 0
M  V30 1036 H 105.924 0.644719 0.158849 0
M  V30 1037 H 108.454 2.04121 -0.139891 0
M  V30 1038 H 108.464 3.7474 1.6135 0
M  V30 1039 H 107.139 4.12573 0.525016 0
M  V30 1040 H 105.716 3.1139 2.0516 0
M  V30 1041 N 107.901 -0.206675 1.56239 0
M  V30 1042 C 109.126 -0.949474 1.8439 0
M  V30 1043 C 109.551 -1.76549 0.649016 0
M  V30 1044 O 108.909 -1.76782 -0.402231 0
M  V30 1045 C 108.957 -1.83078 3.10668 0
M  V30 1046 O 108.061 -2.9281 2.90407 0
M  V30 1047 H 107.402 -0.268033 0.607499 0
M  V30 1048 H 109.932 -0.215488 2.03462 0
M  V30 1049 H 109.942 -2.2377 3.41161 0
M  V30 1050 H 108.617 -1.23112 3.97261 0
M  V30 1051 H 107.194 -2.55956 2.71184 0
M  V30 1052 N 109.379 -1.50304 -0.473955 0
M  V30 1053 C 110.604 -1.65175 -1.25427 0
M  V30 1054 C 111.029 -0.333673 -1.85117 0
M  V30 1055 O 110.387 0.702114 -1.67153 0
M  V30 1056 C 110.435 -2.74295 -2.34082 0
M  V30 1057 O 109.539 -2.35349 -3.38651 0
M  V30 1058 H 108.88 -0.551944 -0.369126 0
M  V30 1059 H 111.41 -1.96662 -0.564364 0
M  V30 1060 H 111.42 -2.97285 -2.79438 0
M  V30 1061 H 110.095 -3.69959 -1.90008 0
M  V30 1062 H 108.672 -2.22794 -2.99027 0
M  V30 1063 N 110.857 0.726932 -1.39834 0
M  V30 1064 C 111.787 1.85405 -1.41941 0
M  V30 1065 C 112.768 1.67751 -0.281728 0
M  V30 1066 O 113.953 1.8795 -0.488717 0
M  V30 1067 C 111.083 3.23243 -1.2701 0
M  V30 1068 C 110.037 3.55549 -2.38262 0
M  V30 1069 C 109.363 4.9241 -2.08415 0
M  V30 1070 C 110.663 3.577 -3.80589 0
M  V30 1071 H 112.357 1.83899 -2.36266 0
M  V30 1072 H 109.903 0.883349 -1.13723 0
M  V30 1073 H 111.856 4.01775 -1.27103 0
M  V30 1074 H 110.58 3.25296 -0.291564 0
M  V30 1075 H 109.239 2.79351 -2.37399 0
M  V30 1076 H 108.887 4.91052 -1.0898 0
M  V30 1077 H 108.587 5.14992 -2.82943 0
M  V30 1078 H 110.111 5.73289 -2.10171 0
M  V30 1079 H 111.525 4.26293 -3.83337 0
M  V30 1080 H 109.922 3.91804 -4.54543 0
M  V30 1081 H 110.992 2.57328 -4.10987 0
M  V30 1082 N 112.336 1.25143 0.95797 0
M  V30 1083 C 113.584 1.09476 1.69881 0
M  V30 1084 C 113.905 -0.365502 1.91544 0
M  V30 1085 O 113.175 -1.25985 1.50015 0
M  V30 1086 H 111.755 0.402128 0.629525 0
M  V30 1087 H 114.417 1.57214 1.15194 0
M  V30 1088 H 113.513 1.60046 2.6794 0
M  V30 1089 N 113.814 -1.1601 1.06675 0
M  V30 1090 C 115.042 -1.90527 0.806667 0
M  V30 1091 C 115.457 -1.77643 -0.639396 0
M  V30 1092 O 114.814 -1.12369 -1.43803 0
M  V30 1093 C 114.865 -3.41106 1.19705 0
M  V30 1094 O 114.586 -3.53608 2.58636 0
M  V30 1095 C 116.087 -4.32663 0.965266 0
M  V30 1096 H 113.307 -0.604053 0.292166 0
M  V30 1097 H 115.851 -1.47026 1.4214 0
M  V30 1098 H 114.006 -3.82296 0.626774 0
M  V30 1099 H 114.42 -4.47011 2.74375 0
M  V30 1100 H 115.894 -5.36763 1.288 0
M  V30 1101 H 116.371 -4.39089 -0.0987936 0
M  V30 1102 H 116.977 -3.97206 1.52011 0
M  V30 1103 N 115.292 -0.849877 -1.32721 0
M  V30 1104 C 116.239 -0.289033 -2.28983 0
M  V30 1105 C 117.209 0.601324 -1.54833 0
M  V30 1106 O 118.394 0.537253 -1.8308 0
M  V30 1107 C 115.534 0.520623 -3.4115 0
M  V30 1108 C 114.647 -0.394989 -4.3019 0
M  V30 1109 C 113.782 0.426834 -5.29482 0
M  V30 1110 C 112.821 -0.486476 -6.10164 0
M  V30 1111 N 111.958 0.297879 -7.01468 0
M  V30 1112 H 116.798 -1.11519 -2.76347 0
M  V30 1113 H 114.335 -0.56138 -1.35967 0
M  V30 1114 H 116.293 1.00563 -4.04899 0
M  V30 1115 H 114.923 1.31165 -2.9495 0
M  V30 1116 H 113.975 -0.99836 -3.67065 0
M  V30 1117 H 115.287 -1.09612 -4.86607 0
M  V30 1118 H 114.441 0.975205 -5.98811 0
M  V30 1119 H 113.18 1.16136 -4.73671 0
M  V30 1120 H 112.185 -1.04677 -5.39743 0
M  V30 1121 H 113.41 -1.21953 -6.6806 0
M  V30 1122 H 111.356 1.01558 -6.48091 0
M  V30 1123 H 111.273 -0.344318 -7.55216 0
M  V30 1124 H 112.541 0.828131 -7.75089 0
M  V30 1125 N 116.77 1.45427 -0.607355 0
M  V30 1126 C 117.998 2.06614 -0.108814 0
M  V30 1127 C 118.413 1.45204 1.2067 0
M  V30 1128 O 117.77 0.566132 1.73497 0
M  V30 1129 C 117.821 3.61481 0.0375347 0
M  V30 1130 O 117.542 4.20598 -1.22593 0
M  V30 1131 C 119.043 4.39652 0.567561 0
M  V30 1132 H 116.263 0.66747 -0.0687351 0
M  V30 1133 H 118.807 1.86675 -0.835022 0
M  V30 1134 H 116.962 3.80762 0.714068 0
M  V30 1135 H 117.376 5.1377 -1.05547 0
M  V30 1136 H 118.85 5.48518 0.61905 0
M  V30 1137 H 119.327 4.09417 1.58978 0
M  V30 1138 H 119.933 4.25234 -0.0749202 0
M  V30 1139 N 118.248 0.346503 1.53744 0
M  V30 1140 C 119.478 -0.250047 2.05081 0
M  V30 1141 C 119.886 -1.44529 1.22098 0
M  V30 1142 O 119.229 -1.81992 0.249917 0
M  V30 1143 C 119.291 -0.725934 3.52094 0
M  V30 1144 C 118.955 0.350053 4.55657 0
M  V30 1145 C 119.952 1.19372 5.0601 0
M  V30 1146 C 117.637 0.504827 4.99757 0
M  V30 1147 C 119.631 2.17768 5.99046 0
M  V30 1148 C 117.318 1.49218 5.92602 0
M  V30 1149 C 118.316 2.32706 6.42135 0
M  V30 1150 O 118.004 3.2976 7.33153 0
M  V30 1151 H 117.736 -0.0515469 0.674032 0
M  V30 1152 H 120.29 0.497559 1.99282 0
M  V30 1153 H 118.52 -1.52483 3.55367 0
M  V30 1154 H 120.209 -1.24336 3.86388 0
M  V30 1155 H 120.975 1.08525 4.72702 0
M  V30 1156 H 116.854 -0.135178 4.60802 0
M  V30 1157 H 120.398 2.82971 6.37631 0
M  V30 1158 H 116.295 1.6012 6.25325 0
M  V30 1159 H 117.063 3.25265 7.51096 0
M  V30 1160 N 119.726 -1.57421 0.075193 0
M  V30 1161 C 120.954 -1.97946 -0.602076 0
M  V30 1162 C 121.369 -0.953674 -1.62943 0
M  V30 1163 O 120.726 0.0592551 -1.82404 0
M  V30 1164 C 120.777 -3.38546 -1.26762 0
M  V30 1165 O 120.498 -4.37195 -0.281376 0
M  V30 1166 C 121.999 -3.93966 -2.03239 0
M  V30 1167 H 119.219 -0.650918 -0.162931 0
M  V30 1168 H 121.763 -2.03959 0.148601 0
M  V30 1169 H 119.918 -3.33609 -1.96936 0
M  V30 1170 H 120.332 -5.18975 -0.759267 0
M  V30 1171 H 121.806 -4.94555 -2.45193 0
M  V30 1172 H 122.283 -3.30693 -2.8903 0
M  V30 1173 H 122.889 -4.02315 -1.37924 0
M  V30 1174 N 121.204 0.198386 -1.56346 0
M  V30 1175 C 122.444 0.92609 -1.82217 0
M  V30 1176 C 122.808 1.80584 -0.652195 0
M  V30 1177 O 124.009 2.56907 -0.790716 0
M  V30 1178 C 122.28 1.72354 -3.13096 0
M  V30 1179 S 123.839 2.50371 -3.6036 0
M  V30 1180 H 120.657 0.310677 -0.639532 0
M  V30 1181 H 123.259 0.189755 -1.94577 0
M  V30 1182 H 121.963 1.0678 -3.96265 0
M  V30 1183 H 121.494 2.50175 -3.03605 0
M  V30 1184 H 123.509 3.74488 -3.25535 0
M  V30 1185 N 122.682 1.50554 0.465978 0
M  V30 1186 C 123.63 1.70324 1.58406 0
M  V30 1187 C 124.624 0.569139 1.59553 0
M  V30 1188 O 125.83 0.749776 1.63641 0
M  V30 1189 H 122.205 0.537688 0.525734 0
M  V30 1190 H 124.176 2.64104 1.38894 0
M  V30 1191 C 122.925 1.81928 2.96307 0
M  V30 1192 H 122.248 2.68586 2.96144 0
M  V30 1193 H 123.688 1.99784 3.73982 0
M  V30 1194 C 122.147 0.572095 3.32007 0
M  V30 1195 O 122.677 -0.286416 4.00678 0
M  V30 1196 N 120.883 0.424606 2.87481 0
M  V30 1197 H 120.43 1.12427 2.31771 0
M  V30 1198 H 120.388 -0.408697 3.11732 0
M  V30 1199 N 124.16 -0.719506 1.40217 0
M  V30 1200 C 125.406 -1.48152 1.38488 0
M  V30 1201 C 125.739 -1.94195 -0.0141867 0
M  V30 1202 O 125.014 -1.67884 -0.982096 0
M  V30 1203 C 125.297 -2.71035 2.37091 0
M  V30 1204 C 125.15 -2.30912 3.86005 0
M  V30 1205 C 126.469 -3.73182 2.33288 0
M  V30 1206 H 123.588 -0.537395 0.504357 0
M  V30 1207 H 126.23 -0.821472 1.71324 0
M  V30 1208 H 124.38 -3.27352 2.0922 0
M  V30 1209 H 126.052 -1.80107 4.24687 0
M  V30 1210 H 124.295 -1.62958 4.02029 0
M  V30 1211 H 124.966 -3.18978 4.50508 0
M  V30 1212 H 127.442 -3.26485 2.57966 0
M  V30 1213 H 126.318 -4.56806 3.04334 0
M  V30 1214 H 126.579 -4.21202 1.34317 0
M  V30 1215 N 125.638 -1.25649 -0.95132 0
M  V30 1216 C 126.915 -1.01361 -1.67288 0
M  V30 1217 C 127.295 0.459135 -2.06046 0
M  V30 1218 O 126.643 1.43723 -1.7764 0
M  V30 1219 C 126.853 -1.95256 -2.89268 0
M  V30 1220 C 128.201 -2.23289 -3.61147 0
M  V30 1221 O 129.225 -1.93041 -2.99355 0
M  V30 1222 O 128.084 -2.74741 -4.72419 0
M  V30 1223 H 125.178 -0.38464 -0.732107 0
M  V30 1224 H 127.724 -1.36817 -1.00395 0
M  V30 1225 H 126.496 -2.94685 -2.57442 0
M  V30 1226 H 126.119 -1.60218 -3.6389 0
M  V30 1227 N 127.117 1.15442 -1.07289 0
M  V30 1228 C 128.067 2.18164 -0.662467 0
M  V30 1229 C 129.051 1.57845 0.312074 0
M  V30 1230 O 130.243 1.76552 0.125905 0
M  V30 1231 C 127.372 3.43246 -0.0611295 0
M  V30 1232 C 126.458 4.1062 -1.06077 0
M  V30 1233 N 126.849 4.53491 -2.24008 0
M  V30 1234 C 125.147 4.36949 -0.893964 0
M  V30 1235 C 125.848 5.05731 -2.87422 0
M  V30 1236 N 124.824 4.99236 -2.15091 0
M  V30 1237 H 128.626 2.49038 -1.56068 0
M  V30 1238 H 126.14 1.32003 -0.945988 0
M  V30 1239 H 128.137 4.16145 0.250792 0
M  V30 1240 H 126.797 3.13854 0.832207 0
M  V30 1241 H 127.808 4.46898 -2.6173 0
M  V30 1242 H 124.485 4.17466 -0.0534693 0
M  V30 1243 H 125.875 5.48865 -3.87553 0
M  V30 1244 N 128.595 0.856903 1.32268 0
M  V30 1245 C 129.542 0.301172 2.28827 0
M  V30 1246 C 130.512 -0.593104 1.5515 0
M  V30 1247 O 131.697 -0.527537 1.83362 0
M  V30 1248 C 128.837 -0.502523 3.41422 0
M  V30 1249 C 127.95 0.417797 4.29975 0
M  V30 1250 C 127.085 -0.398749 5.29701 0
M  V30 1251 C 126.124 0.518827 6.09897 0
M  V30 1252 N 125.261 -0.260674 7.01616 0
M  V30 1253 H 130.101 1.12983 2.75751 0
M  V30 1254 H 127.638 0.568582 1.35667 0
M  V30 1255 H 129.596 -0.984141 4.05426 0
M  V30 1256 H 128.226 -1.29599 2.95642 0
M  V30 1257 H 127.278 1.01781 3.66531 0
M  V30 1258 H 128.59 1.12191 4.86019 0
M  V30 1259 H 127.744 -0.943435 5.9932 0
M  V30 1260 H 126.483 -1.13622 4.7428 0
M  V30 1261 H 125.488 1.07538 5.39181 0
M  V30 1262 H 126.713 1.25495 6.67404 0
M  V30 1263 H 124.659 -0.981198 6.4862 0
M  V30 1264 H 124.576 0.384364 7.55022 0
M  V30 1265 H 125.844 -0.787014 7.75517 0
M  V30 1266 N 130.073 -1.45103 0.615059 0
M  V30 1267 C 131.484 -1.85654 0.197383 0
M  V30 1268 C 131.835 -1.51433 -1.24749 0
M  V30 1269 O 130.96 -0.944608 -1.94695 0
M  V30 1270 C 131.555 -3.36972 0.351448 0
M  V30 1271 C 130.114 -3.76398 -0.011593 0
M  V30 1272 C 129.261 -2.69024 0.672394 0
M  V30 1273 H 132.212 -1.35797 0.821263 0
M  V30 1274 H 132.233 -3.78239 -0.414227 0
M  V30 1275 H 131.745 -3.61847 1.40314 0
M  V30 1276 H 129.846 -3.5714 -1.06217 0
M  V30 1277 H 129.959 -4.77532 0.387265 0
M  V30 1278 H 128.323 -2.54465 0.109284 0
M  V30 1279 H 129.106 -2.96735 1.72636 0
M  V30 1280 N 131.551 -0.354651 -1.53558 0
M  V30 1281 C 132.776 0.242153 -2.05981 0
M  V30 1282 C 133.201 1.42553 -1.2272 0
M  V30 1283 O 132.559 1.79656 -0.243604 0
M  V30 1284 C 132.607 0.624367 -3.55154 0
M  V30 1285 O 131.711 1.72301 -3.74681 0
M  V30 1286 H 131.052 0.0378432 -0.662921 0
M  V30 1287 H 133.582 -0.512087 -1.98088 0
M  V30 1288 H 133.592 0.898433 -3.97985 0
M  V30 1289 H 132.267 -0.240989 -4.15201 0
M  V30 1290 H 130.844 1.44535 -3.4375 0
M  V30 1291 N 133.029 1.57378 -0.0835403 0
M  V30 1292 C 133.977 2.14602 0.89714 0
M  V30 1293 C 134.971 1.08589 1.30018 0
M  V30 1294 O 136.177 1.26952 1.27606 0
M  V30 1295 H 132.552 0.686346 0.3073 0
M  V30 1296 H 134.523 2.95845 0.38969 0
M  V30 1297 C 133.272 2.73188 2.15089 0
M  V30 1298 H 132.595 3.54442 1.84962 0
M  V30 1299 H 134.035 3.1681 2.81793 0
M  V30 1300 C 132.494 1.68517 2.91725 0
M  V30 1301 O 133.024 1.11718 3.85852 0
M  V30 1302 N 131.23 1.39277 2.55049 0
M  V30 1303 H 130.777 1.85655 1.78577 0
M  V30 1304 H 130.735 0.694791 3.06627 0
M  V30 1305 N 134.507 -0.190092 1.56449 0
M  V30 1306 C 135.735 -0.925772 1.85033 0
M  V30 1307 C 136.15 -1.76638 0.666658 0
M  V30 1308 O 135.507 -1.78822 -0.364565 0
M  V30 1309 C 135.558 -1.81786 3.12468 0
M  V30 1310 O 135.279 -1.01118 4.26271 0
M  V30 1311 C 136.78 -2.6648 3.54265 0
M  V30 1312 H 134 -0.269872 0.614337 0
M  V30 1313 H 136.544 -0.195837 2.0356 0
M  V30 1314 H 134.699 -2.50136 2.95822 0
M  V30 1315 H 135.113 -1.61956 4.98869 0
M  V30 1316 H 136.587 -3.24722 4.46385 0
M  V30 1317 H 137.064 -3.40434 2.77491 0
M  V30 1318 H 137.67 -2.03493 3.73458 0
M  V30 1319 N 135.985 -1.50799 -0.457987 0
M  V30 1320 C 136.932 -1.70617 -1.5543 0
M  V30 1321 C 137.902 -0.547562 -1.56815 0
M  V30 1322 O 139.087 -0.779647 -1.74144 0
M  V30 1323 C 136.227 -1.81831 -2.93311 0
M  V30 1324 C 135.34 -3.09278 -3.01615 0
M  V30 1325 C 134.475 -3.11209 -4.30491 0
M  V30 1326 C 133.514 -4.33055 -4.32585 0
M  V30 1327 N 132.651 -4.32652 -5.52952 0
M  V30 1328 H 137.491 -2.64207 -1.37836 0
M  V30 1329 H 135.028 -1.30959 -0.669937 0
M  V30 1330 H 136.986 -1.86314 -3.73287 0
M  V30 1331 H 135.616 -0.916685 -3.0951 0
M  V30 1332 H 134.668 -3.14203 -2.1443 0
M  V30 1333 H 135.98 -3.99233 -2.99022 0
M  V30 1334 H 135.134 -3.14494 -5.18824 0
M  V30 1335 H 133.873 -2.19106 -4.35711 0
M  V30 1336 H 132.878 -4.29969 -3.42647 0
M  V30 1337 H 134.103 -5.264 -4.29046 0
M  V30 1338 H 132.049 -3.43409 -5.58933 0
M  V30 1339 H 131.966 -5.16392 -5.52155 0
M  V30 1340 H 133.234 -4.40101 -6.43375 0
M  V30 1341 N 137.463 0.71206 -1.40597 0
M  V30 1342 C 138.709 1.47416 -1.39271 0
M  V30 1343 C 139.042 1.942 0.00388791 0
M  V30 1344 O 138.317 1.68403 0.973179 0
M  V30 1345 C 138.6 2.69774 -2.38525 0
M  V30 1346 C 138.453 2.28861 -3.87224 0
M  V30 1347 C 139.772 3.71939 -2.35264 0
M  V30 1348 H 136.891 0.534713 -0.5072 0
M  V30 1349 H 139.533 0.812375 -1.71757 0
M  V30 1350 H 137.683 3.26238 -2.10953 0
M  V30 1351 H 139.355 1.77852 -4.25636 0
M  V30 1352 H 137.598 1.60824 -4.02887 0
M  V30 1353 H 138.269 3.16584 -4.52193 0
M  V30 1354 H 140.745 3.25113 -2.59694 0
M  V30 1355 H 139.621 4.55186 -3.06753 0
M  V30 1356 H 139.882 4.20484 -1.36549 0
M  V30 1357 N 138.941 1.26152 0.944643 0
M  V30 1358 C 140.218 1.02247 1.66748 0
M  V30 1359 C 140.598 -0.448202 2.06287 0
M  V30 1360 O 139.946 -1.42779 1.78399 0
M  V30 1361 C 140.156 1.96788 2.88228 0
M  V30 1362 C 141.504 2.25201 3.59958 0
M  V30 1363 O 142.528 1.94626 2.98327 0
M  V30 1364 O 141.387 2.77242 4.70956 0
M  V30 1365 H 138.481 0.388517 0.730057 0
M  V30 1366 H 141.027 1.37348 0.99668 0
M  V30 1367 H 139.799 2.96047 2.55875 0
M  V30 1368 H 139.422 1.62145 3.63035 0
M  V30 1369 N 140.419 -1.14872 1.07899 0
M  V30 1370 C 141.366 -2.19791 0.704319 0
M  V30 1371 C 142.336 -1.63238 -0.306987 0
M  V30 1372 O 143.521 -1.8983 -0.192171 0
M  V30 1373 C 140.661 -3.44911 0.114244 0
M  V30 1374 C 139.774 -4.15637 1.1777 0
M  V30 1375 C 138.909 -5.28324 0.552037 0
M  V30 1376 C 137.948 -5.90875 1.59789 0
M  V30 1377 N 137.085 -6.95022 0.994404 0
M  V30 1378 H 141.925 -2.5119 1.60336 0
M  V30 1379 H 139.462 -1.23356 0.801352 0
M  V30 1380 H 141.42 -4.16477 -0.245544 0
M  V30 1381 H 140.05 -3.14011 -0.74813 0
M  V30 1382 H 139.102 -3.42512 1.65499 0
M  V30 1383 H 140.414 -4.5823 1.97046 0
M  V30 1384 H 139.568 -6.06538 0.1402 0
M  V30 1385 H 138.307 -4.86939 -0.272431 0
M  V30 1386 H 137.312 -5.11369 2.01945 0
M  V30 1387 H 138.537 -6.34337 2.42474 0
M  V30 1388 H 136.483 -6.55722 0.190939 0
M  V30 1389 H 136.4 -7.36073 1.72432 0
M  V30 1390 H 137.668 -7.77123 0.608253 0
M  V30 1391 N 141.898 -0.863906 -1.31812 0
M  V30 1392 C 143.314 -0.555004 -1.49639 0
M  V30 1393 C 143.514 0.912266 -1.79666 0
M  V30 1394 O 142.57 1.69479 -1.87171 0
M  V30 1395 C 143.883 -1.44998 -2.63431 0
M  V30 1396 C 145.431 -1.45138 -2.77316 0
M  V30 1397 C 145.906 -2.33179 -3.94197 0
M  V30 1398 N 147.397 -2.31025 -4.01474 0
M  V30 1399 C 148.132 -2.95871 -4.9117 0
M  V30 1400 N 147.628 -3.69863 -5.8581 0
M  V30 1401 N 149.421 -2.85211 -4.84367 0
M  V30 1402 H 141.572 -1.81339 -1.10589 0
M  V30 1403 H 143.835 -0.77505 -0.545895 0
M  V30 1404 H 143.541 -2.49377 -2.48 0
M  V30 1405 H 143.415 -1.14409 -3.59431 0
M  V30 1406 H 145.802 -0.415201 -2.92164 0
M  V30 1407 H 145.883 -1.79747 -1.82001 0
M  V30 1408 H 145.527 -3.3687 -3.80107 0
M  V30 1409 H 145.457 -1.95897 -4.88807 0
M  V30 1410 H 147.948 -1.77238 -3.33759 0
M  V30 1411 H 148.261 -4.16486 -6.50968 0
M  V30 1412 H 146.606 -3.73971 -5.85808 0
M  V30 1413 H 149.797 -2.26948 -4.09405 0
M  V30 1414 H 149.97 -3.36027 -5.54066 0
M  V30 1415 N 143.376 1.44774 -0.622745 0
M  V30 1416 C 144.622 2.0242 -0.124083 0
M  V30 1417 C 144.955 1.4881 1.24777 0
M  V30 1418 O 144.23 0.668799 1.8264 0
M  V30 1419 C 144.513 3.59957 -0.101619 0
M  V30 1420 C 144.366 4.23867 -1.50521 0
M  V30 1421 C 145.685 4.36284 0.578272 0
M  V30 1422 H 142.804 0.735528 -0.0465645 0
M  V30 1423 H 145.446 1.72447 -0.797617 0
M  V30 1424 H 143.596 3.85623 0.471934 0
M  V30 1425 H 145.268 4.09336 -2.12701 0
M  V30 1426 H 143.511 3.81684 -2.06154 0
M  V30 1427 H 144.182 5.32843 -1.4416 0
M  V30 1428 H 146.658 4.16001 0.0906057 0
M  V30 1429 H 145.534 5.46004 0.563149 0
M  V30 1430 H 145.795 4.10271 1.64713 0
M  V30 1431 N 144.854 0.36279 1.53368 0
M  V30 1432 C 145.764 -0.492994 2.29362 0
M  V30 1433 C 146.78 -1.09507 1.35219 0
M  V30 1434 O 147.956 -1.10662 1.68273 0
M  V30 1435 C 145.021 -1.61855 3.066 0
M  V30 1436 C 144.082 -1.04429 4.16405 0
M  V30 1437 C 143.315 -2.11621 4.89951 0
M  V30 1438 O 143.538 -3.32684 4.63333 0
M  V30 1439 O 142.472 -1.74835 5.75948 0
M  V30 1440 H 146.298 0.125331 3.03441 0
M  V30 1441 H 143.883 0.127253 1.48857 0
M  V30 1442 H 145.765 -2.27302 3.54841 0
M  V30 1443 H 144.44 -2.22233 2.3536 0
M  V30 1444 H 143.347 -0.353819 3.72423 0
M  V30 1445 H 144.68 -0.485113 4.89804 0
M  V30 1446 N 146.332 -1.57332 0.0918853 0
M  V30 1447 C 147.557 -1.98995 -0.584442 0
M  V30 1448 C 147.982 -0.970528 -1.61128 0
M  V30 1449 O 147.34 0.0613904 -1.81196 0
M  V30 1450 C 147.388 -3.39636 -1.21161 0
M  V30 1451 O 146.492 -3.40447 -2.32744 0
M  V30 1452 H 145.833 -0.647165 -0.148572 0
M  V30 1453 H 148.363 -2.03873 0.172347 0
M  V30 1454 H 148.373 -3.7726 -1.55367 0
M  V30 1455 H 147.048 -4.13356 -0.459313 0
M  V30 1456 H 145.625 -3.14614 -2.0018 0
M  V30 1457 N 147.81 0.181792 -1.56548 0
M  V30 1458 C 148.757 1.22521 -1.95595 0
M  V30 1459 C 149.727 1.4454 -0.818373 0
M  V30 1460 O 150.912 1.57454 -1.07763 0
M  V30 1461 C 148.052 2.56193 -2.31212 0
M  V30 1462 C 147.165 2.41641 -3.58097 0
M  V30 1463 C 146.3 3.68108 -3.82975 0
M  V30 1464 C 145.339 3.48445 -5.03242 0
M  V30 1465 N 144.476 4.66956 -5.24306 0
M  V30 1466 H 149.316 0.885226 -2.84548 0
M  V30 1467 H 146.853 0.425718 -1.40805 0
M  V30 1468 H 148.811 3.34088 -2.49882 0
M  V30 1469 H 147.441 2.88208 -1.45382 0
M  V30 1470 H 146.493 1.54976 -3.474 0
M  V30 1471 H 147.805 2.23052 -4.46149 0
M  V30 1472 H 146.959 4.54441 -4.01956 0
M  V30 1473 H 145.698 3.89666 -2.93278 0
M  V30 1474 H 144.703 2.60499 -4.8417 0
M  V30 1475 H 145.928 3.2832 -5.9446 0
M  V30 1476 H 143.874 4.88752 -4.37559 0
M  V30 1477 H 143.791 4.51242 -6.06561 0
M  V30 1478 H 145.059 5.54602 -5.47756 0
M  V30 1479 N 149.288 1.51039 0.449983 0
M  V30 1480 C 150.518 1.66627 1.22143 0
M  V30 1481 C 150.926 0.357776 1.85786 0
M  V30 1482 O 150.269 -0.672424 1.70951 0
M  V30 1483 C 150.331 2.71562 2.35573 0
M  V30 1484 C 149.995 4.14526 1.92399 0
M  V30 1485 C 150.992 4.99717 1.43453 0
M  V30 1486 C 148.677 4.60559 2.00475 0
M  V30 1487 C 150.671 6.28998 1.03155 0
M  V30 1488 C 148.358 5.8984 1.59788 0
M  V30 1489 C 149.356 6.73886 1.11208 0
M  V30 1490 O 149.044 8.0075 0.710935 0
M  V30 1491 H 148.776 0.562635 0.374724 0
M  V30 1492 H 151.33 1.98146 0.541036 0
M  V30 1493 H 149.56 2.3533 3.06849 0
M  V30 1494 H 151.249 2.76156 2.97478 0
M  V30 1495 H 152.015 4.65361 1.36618 0
M  V30 1496 H 147.894 3.95273 2.37235 0
M  V30 1497 H 151.438 6.9455 0.651663 0
M  V30 1498 H 147.335 6.23713 1.66289 0
M  V30 1499 H 148.103 8.142 0.837913 0
M  V30 1500 N 150.766 -0.704594 1.40972 0
M  V30 1501 C 152.014 -1.46169 1.39568 0
M  V30 1502 C 152.335 -1.95 0.00253745 0
M  V30 1503 O 151.605 -1.71095 -0.954114 0
M  V30 1504 H 150.185 -0.542326 0.513704 0
M  V30 1505 H 152.847 -0.834553 1.76128 0
M  V30 1506 H 151.943 -2.32922 2.07735 0
M  V30 1507 N 152.244 -1.26651 -0.937939 0
M  V30 1508 C 153.655 -1.1125 -1.49934 0
M  V30 1509 C 154.006 0.306077 -1.93798 0
M  V30 1510 O 153.131 1.19792 -1.80219 0
M  V30 1511 C 153.726 -2.01339 -2.72485 0
M  V30 1512 C 152.285 -1.90074 -3.24883 0
M  V30 1513 C 151.432 -1.94498 -1.97651 0
M  V30 1514 H 154.383 -1.39693 -0.753091 0
M  V30 1515 H 154.404 -1.56319 -3.46907 0
M  V30 1516 H 153.916 -3.04577 -2.40529 0
M  V30 1517 H 152.017 -0.897827 -3.61621 0
M  V30 1518 H 152.13 -2.75778 -3.9177 0
M  V30 1519 H 150.494 -1.38591 -2.13693 0
M  V30 1520 H 151.277 -2.99372 -1.68022 0
M  V30 1521 N 153.722 1.14298 -1.08507 0
M  V30 1522 C 155.133 1.66926 -0.836227 0
M  V30 1523 C 155.484 1.85576 0.63686 0
M  V30 1524 O 154.609 1.56767 1.49175 0
M  V30 1525 C 155.204 3.03219 -1.51142 0
M  V30 1526 C 153.763 3.52876 -1.30979 0
M  V30 1527 C 152.91 2.2833 -1.57356 0
M  V30 1528 H 155.861 0.983491 -1.24552 0
M  V30 1529 H 155.882 3.68726 -0.939211 0
M  V30 1530 H 155.394 2.89612 -2.58353 0
M  V30 1531 H 153.495 3.71703 -0.258429 0
M  V30 1532 H 153.608 4.33586 -2.03814 0
M  V30 1533 H 151.972 2.34454 -0.995164 0
M  V30 1534 H 152.755 2.17298 -2.65775 0
M  V30 1535 N 155.201 0.870884 1.31352 0
M  V30 1536 C 156.441 0.488783 1.9847 0
M  V30 1537 C 156.805 -0.941536 1.67329 0
M  V30 1538 O 158.006 -1.42903 2.27667 0
M  V30 1539 C 156.277 0.739688 3.49662 0
M  V30 1540 S 157.836 0.457582 4.36408 0
M  V30 1541 H 154.654 0.18242 0.6872 0
M  V30 1542 H 157.256 1.12711 1.59739 0
M  V30 1543 H 155.96 1.77944 3.69816 0
M  V30 1544 H 155.491 0.0883905 3.93301 0
M  V30 1545 H 157.506 -0.709752 4.91098 0
M  V30 1546 N 156.679 -1.44442 0.630414 0
M  V30 1547 C 158.09 -1.85434 0.217063 0
M  V30 1548 C 158.441 -1.52748 -1.23136 0
M  V30 1549 O 157.566 -0.965205 -1.93682 0
M  V30 1550 C 158.161 -3.36581 0.387168 0
M  V30 1551 C 156.72 -3.76389 0.0283297 0
M  V30 1552 C 155.867 -2.68296 0.700889 0
M  V30 1553 H 158.818 -1.34919 0.83562 0
M  V30 1554 H 158.839 -3.78657 -0.374086 0
M  V30 1555 H 158.351 -3.60339 1.44144 0
M  V30 1556 H 156.452 -3.58246 -1.02423 0
M  V30 1557 H 156.565 -4.77095 0.437892 0
M  V30 1558 H 154.929 -2.54335 0.136267 0
M  V30 1559 H 155.712 -2.94887 1.75774 0
M  V30 1560 N 158.157 -0.370918 -1.53173 0
M  V30 1561 C 159.382 0.220293 -2.06227 0
M  V30 1562 C 159.807 1.41243 -1.24225 0
M  V30 1563 O 159.165 1.79387 -0.262645 0
M  V30 1564 C 159.213 0.586663 -3.55796 0
M  V30 1565 O 158.317 1.68317 -3.76488 0
M  V30 1566 H 157.658 0.0308099 -0.663285 0
M  V30 1567 H 160.188 -0.533068 -1.97534 0
M  V30 1568 H 160.198 0.85617 -3.98916 0
M  V30 1569 H 158.873 -0.285013 -4.14922 0
M  V30 1570 H 157.45 1.40881 -3.45264 0
M  V30 1571 N 159.635 1.57281 -0.100228 0
M  V30 1572 C 160.875 1.96419 0.56558 0
M  V30 1573 C 161.239 0.981265 1.65031 0
M  V30 1574 O 162.44 1.26133 2.37369 0
M  V30 1575 C 160.711 3.39996 1.10171 0
M  V30 1576 S 162.27 4.01134 1.77867 0
M  V30 1577 H 159.088 0.68667 0.184406 0
M  V30 1578 H 161.69 1.94662 -0.180851 0
M  V30 1579 H 160.394 4.09296 0.300803 0
M  V30 1580 H 159.925 3.45361 1.88385 0
M  V30 1581 H 161.94 3.90358 3.06326 0
M  V30 1582 N 161.113 -0.173488 1.56642 0
M  V30 1583 C 162.524 -0.736155 1.71574 0
M  V30 1584 C 162.875 -1.82888 0.710389 0
M  V30 1585 O 162 -2.16017 -0.1287 0
M  V30 1586 C 162.595 -1.34211 3.11083 0
M  V30 1587 C 161.154 -1.85162 3.27707 0
M  V30 1588 C 160.301 -0.729765 2.67525 0
M  V30 1589 H 163.252 0.0518786 1.58615 0
M  V30 1590 H 163.273 -2.21178 3.09613 0
M  V30 1591 H 162.785 -0.546579 3.84232 0
M  V30 1592 H 160.886 -2.67366 2.59512 0
M  V30 1593 H 160.999 -1.99855 4.35425 0
M  V30 1594 H 159.363 -1.14965 2.27278 0
M  V30 1595 H 160.146 0.0538806 3.43258 0
M  V30 1596 N 162.591 -1.51276 -0.441967 0
M  V30 1597 C 163.554 -1.7167 -1.51862 0
M  V30 1598 C 164.554 -0.586793 -1.49711 0
M  V30 1599 O 165.744 -0.854276 -1.51815 0
M  V30 1600 C 162.876 -1.76889 -2.91416 0
M  V30 1601 H 164.069 -2.67754 -1.35084 0
M  V30 1602 H 161.622 -1.41196 -0.670333 0
M  V30 1603 H 162.357 -0.826026 -3.13604 0
M  V30 1604 H 162.142 -2.59001 -2.94382 0
M  V30 1605 H 163.632 -1.94522 -3.69528 0
M  V30 1606 N 164.069 0.697108 -1.41344 0
M  V30 1607 C 165.48 1.27697 -1.36199 0
M  V30 1608 C 165.831 1.9615 -0.0443463 0
M  V30 1609 O 164.956 1.98689 0.857419 0
M  V30 1610 C 165.551 2.32223 -2.46694 0
M  V30 1611 C 164.11 2.8579 -2.44952 0
M  V30 1612 C 163.257 1.59807 -2.26621 0
M  V30 1613 H 166.208 0.491968 -1.50882 0
M  V30 1614 H 166.229 3.1348 -2.15664 0
M  V30 1615 H 165.741 1.82373 -3.42581 0
M  V30 1616 H 163.842 3.3982 -1.52817 0
M  V30 1617 H 163.955 3.36325 -3.41207 0
M  V30 1618 H 162.319 1.8556 -1.7447 0
M  V30 1619 H 163.102 1.11956 -3.24532 0
M  V30 1620 N 165.547 1.27147 0.931209 0
M  V30 1621 C 166.457 1.11372 2.06478 0
M  V30 1622 C 167.473 0.044645 1.73943 0
M  V30 1623 O 168.649 0.250417 1.99837 0
M  V30 1624 C 165.714 0.758838 3.38294 0
M  V30 1625 C 164.775 1.90841 3.84549 0
M  V30 1626 C 164.008 1.57036 5.10074 0
M  V30 1627 O 164.231 0.476645 5.68405 0
M  V30 1628 O 163.165 2.40839 5.51616 0
M  V30 1629 H 166.991 2.06493 2.22698 0
M  V30 1630 H 164.576 1.06301 1.04978 0
M  V30 1631 H 166.458 0.574098 4.17471 0
M  V30 1632 H 165.133 -0.162879 3.2329 0
M  V30 1633 H 164.04 2.14819 3.06274 0
M  V30 1634 H 165.373 2.81021 4.04089 0
M  V30 1635 N 167.025 -1.13721 1.09112 0
M  V30 1636 C 168.272 -1.84924 0.825192 0
M  V30 1637 C 168.6 -1.83347 -0.649151 0
M  V30 1638 O 167.855 -1.26449 -1.49362 0
M  V30 1639 C 168.154 -3.32861 1.30146 0
M  V30 1640 C 167.82 -3.54621 2.78486 0
M  V30 1641 C 166.482 -3.60268 3.18999 0
M  V30 1642 C 168.834 -3.62855 3.74146 0
M  V30 1643 C 166.162 -3.71679 4.53951 0
M  V30 1644 C 168.514 -3.75793 5.08883 0
M  V30 1645 C 167.178 -3.79692 5.4899 0
M  V30 1646 H 166.448 -0.676684 0.301959 0
M  V30 1647 H 169.095 -1.3428 1.36533 0
M  V30 1648 H 167.4 -3.85835 0.681064 0
M  V30 1649 H 169.097 -3.86395 1.07236 0
M  V30 1650 H 165.687 -3.50879 2.46134 0
M  V30 1651 H 169.871 -3.57775 3.43963 0
M  V30 1652 H 165.127 -3.72963 4.84467 0
M  V30 1653 H 169.301 -3.81107 5.82864 0
M  V30 1654 H 166.928 -3.88287 6.53558 0
M  V30 1655 N 168.503 -0.877838 -1.30888 0
M  V30 1656 C 169.433 -0.35534 -2.3078 0
M  V30 1657 C 170.414 0.557994 -1.60687 0
M  V30 1658 O 171.599 0.473355 -1.88343 0
M  V30 1659 C 168.729 0.437221 -3.44537 0
M  V30 1660 C 167.683 -0.383715 -4.26276 0
M  V30 1661 C 167.009 0.535014 -5.32017 0
M  V30 1662 C 168.309 -1.62201 -4.96476 0
M  V30 1663 H 170.003 -1.19007 -2.74732 0
M  V30 1664 H 167.549 -0.573698 -1.32078 0
M  V30 1665 H 169.502 0.813334 -4.13477 0
M  V30 1666 H 168.226 1.30553 -2.99372 0
M  V30 1667 H 166.885 -0.741874 -3.59015 0
M  V30 1668 H 166.533 1.40083 -4.831 0
M  V30 1669 H 166.233 -0.0104211 -5.87599 0
M  V30 1670 H 167.757 0.907799 -6.03814 0
M  V30 1671 H 169.171 -1.31689 -5.5797 0
M  V30 1672 H 167.568 -2.10711 -5.61891 0
M  V30 1673 H 168.638 -2.37044 -4.23011 0
M  V30 1674 N 169.982 1.44106 -0.638065 0
M  V30 1675 C 171.23 2.01579 -0.145043 0
M  V30 1676 C 171.551 1.50496 1.24 0
M  V30 1677 O 170.821 0.711374 1.82527 0
M  V30 1678 H 169.401 0.745282 -0.05063 0
M  V30 1679 H 172.063 1.76516 -0.826327 0
M  V30 1680 H 171.159 3.11877 -0.118039 0
M  V30 1681 N 171.46 0.379036 1.52974 0
M  V30 1682 C 172.708 -0.206014 2.01047 0
M  V30 1683 C 173.029 -1.48175 1.26765 0
M  V30 1684 O 172.299 -1.92085 0.384743 0
M  V30 1685 H 170.879 -0.0791184 0.742798 0
M  V30 1686 H 173.541 0.508366 1.88153 0
M  V30 1687 H 172.637 -0.423501 3.09213 0
M  V30 1688 N 172.938 -1.57226 0.108567 0
M  V30 1689 C 174.349 -1.8195 -0.418464 0
M  V30 1690 C 174.7 -1.02508 -1.67292 0
M  V30 1691 O 173.825 -0.258496 -2.14851 0
M  V30 1692 C 174.42 -3.30028 -0.765979 0
M  V30 1693 C 172.979 -3.55469 -1.23769 0
M  V30 1694 C 172.126 -2.7625 -0.241106 0
M  V30 1695 H 175.077 -1.55149 0.33384 0
M  V30 1696 H 175.098 -3.44086 -1.62434 0
M  V30 1697 H 174.61 -3.87821 0.147219 0
M  V30 1698 H 172.711 -3.03022 -2.16814 0
M  V30 1699 H 172.824 -4.6408 -1.19022 0
M  V30 1700 H 171.188 -2.44133 -0.72602 0
M  V30 1701 H 171.971 -3.36797 0.665007 0
M  V30 1702 N 174.416 0.165178 -1.56732 0
M  V30 1703 C 175.641 0.900253 -1.86843 0
M  V30 1704 C 176.066 1.74766 -0.695596 0
M  V30 1705 O 175.424 1.77786 0.35522 0
M  V30 1706 C 175.472 1.74777 -3.15413 0
M  V30 1707 O 174.576 2.85007 -2.98068 0
M  V30 1708 H 173.917 0.251832 -0.614391 0
M  V30 1709 H 176.447 0.161468 -2.03962 0
M  V30 1710 H 176.457 2.14646 -3.46974 0
M  V30 1711 H 175.132 1.12537 -4.00385 0
M  V30 1712 H 173.709 2.48676 -2.77875 0
M  V30 1713 N 175.894 1.51508 0.433938 0
M  V30 1714 C 177.14 1.64588 1.18484 0
M  V30 1715 C 177.473 0.362666 1.90784 0
M  V30 1716 O 176.748 -0.637892 1.83742 0
M  V30 1717 C 177.031 2.85149 2.19913 0
M  V30 1718 C 176.884 4.23456 1.51674 0
M  V30 1719 C 178.203 3.01227 3.20858 0
M  V30 1720 H 175.322 0.598994 0.429389 0
M  V30 1721 H 177.964 1.84002 0.473647 0
M  V30 1722 H 176.114 2.68729 2.80566 0
M  V30 1723 H 177.786 4.51552 0.943322 0
M  V30 1724 H 176.029 4.25998 0.819035 0
M  V30 1725 H 176.7 5.03812 2.2556 0
M  V30 1726 H 179.176 3.16382 2.70263 0
M  V30 1727 H 178.052 3.87141 3.89118 0
M  V30 1728 H 178.313 2.13447 3.8716 0
M  V30 1729 N 177.372 -0.689602 1.41712 0
M  V30 1730 C 178.619 -1.44966 1.4139 0
M  V30 1731 C 178.947 -1.94484 0.025105 0
M  V30 1732 O 178.202 -1.70307 -0.964048 0
M  V30 1733 C 178.501 -2.67298 2.37247 0
M  V30 1734 C 178.167 -2.36405 3.83958 0
M  V30 1735 C 176.829 -2.27691 4.23923 0
M  V30 1736 C 179.181 -2.11043 4.76561 0
M  V30 1737 C 176.509 -1.91719 5.54492 0
M  V30 1738 C 178.861 -1.76578 6.07456 0
M  V30 1739 C 177.525 -1.66363 6.46436 0
M  V30 1740 H 176.795 -0.53047 0.517381 0
M  V30 1741 H 179.442 -0.787655 1.74552 0
M  V30 1742 H 177.747 -3.38461 1.9736 0
M  V30 1743 H 179.444 -3.25452 2.34269 0
M  V30 1744 H 176.034 -2.44085 3.52308 0
M  V30 1745 H 180.218 -2.16717 4.46483 0
M  V30 1746 H 175.474 -1.82367 5.83568 0
M  V30 1747 H 179.648 -1.55974 6.78708 0
M  V30 1748 H 177.275 -1.38258 7.47522 0
M  V30 1749 N 178.85 -1.27639 -0.924453 0
M  V30 1750 C 179.78 -1.13166 -2.04244 0
M  V30 1751 C 180.761 -0.032256 -1.70069 0
M  V30 1752 O 181.946 -0.207328 -1.9309 0
M  V30 1753 C 179.076 -0.781496 -3.38393 0
M  V30 1754 C 178.03 -1.83449 -3.86692 0
M  V30 1755 C 177.356 -1.33822 -5.17683 0
M  V30 1756 C 178.656 -3.23917 -4.09726 0
M  V30 1757 H 180.35 -2.06689 -2.1661 0
M  V30 1758 H 177.896 -0.995136 -1.04082 0
M  V30 1759 H 179.849 -0.667057 -4.16087 0
M  V30 1760 H 178.573 0.189439 -3.2605 0
M  V30 1761 H 177.232 -1.93789 -3.11193 0
M  V30 1762 H 176.88 -0.35665 -5.01734 0
M  V30 1763 H 176.58 -2.04224 -5.50968 0
M  V30 1764 H 178.104 -1.23679 -5.97943 0
M  V30 1765 H 179.518 -3.16559 -4.77978 0
M  V30 1766 H 177.915 -3.92059 -4.54324 0
M  V30 1767 H 178.985 -3.68729 -3.14908 0
M  V30 1768 N 180.328 1.1314 -1.09713 0
M  V30 1769 C 181.575 1.84484 -0.834987 0
M  V30 1770 C 181.903 1.83689 0.639418 0
M  V30 1771 O 181.158 1.2724 1.4869 0
M  V30 1772 C 181.457 3.32167 -1.3191 0
M  V30 1773 C 181.123 3.53139 -2.80363 0
M  V30 1774 C 179.785 3.58571 -3.20905 0
M  V30 1775 C 182.137 3.60866 -3.76065 0
M  V30 1776 C 179.465 3.69267 -4.55916 0
M  V30 1777 C 181.817 3.73089 -5.10869 0
M  V30 1778 C 180.481 3.76775 -5.50996 0
M  V30 1779 H 179.751 0.675073 -0.305544 0
M  V30 1780 H 182.398 1.33554 -1.37243 0
M  V30 1781 H 180.703 3.85469 -0.701517 0
M  V30 1782 H 182.4 3.85821 -1.09284 0
M  V30 1783 H 178.99 3.49569 -2.47991 0
M  V30 1784 H 183.174 3.55946 -3.45855 0
M  V30 1785 H 178.43 3.70388 -4.86438 0
M  V30 1786 H 182.604 3.78011 -5.84877 0
M  V30 1787 H 180.231 3.84815 -6.55608 0
M  V30 1788 N 181.806 0.884767 1.30421 0
M  V30 1789 C 183.217 0.553656 1.78302 0
M  V30 1790 C 183.568 -0.930153 1.7275 0
M  V30 1791 O 182.693 -1.72681 1.30423 0
M  V30 1792 C 183.288 0.998234 3.2376 0
M  V30 1793 C 181.847 0.71854 3.69478 0
M  V30 1794 C 180.994 1.18132 2.50879 0
M  V30 1795 H 183.945 1.06901 1.17294 0
M  V30 1796 H 183.966 0.327118 3.79091 0
M  V30 1797 H 183.478 2.0782 3.27769 0
M  V30 1798 H 181.579 -0.349444 3.70958 0
M  V30 1799 H 181.692 1.30595 4.60958 0
M  V30 1800 H 180.056 0.600669 2.47516 0
M  V30 1801 H 180.839 2.26902 2.57624 0
M  V30 1802 N 183.284 -1.43765 0.645699 0
M  V30 1803 C 184.695 -1.85193 0.236719 0
M  V30 1804 C 185.046 -1.54045 -1.21509 0
M  V30 1805 O 184.171 -0.985694 -1.92647 0
M  V30 1806 C 184.766 -3.36151 0.422845 0
M  V30 1807 C 183.325 -3.76338 0.0682492 0
M  V30 1808 C 182.472 -2.67538 0.729306 0
M  V30 1809 H 185.423 -1.34025 0.849883 0
M  V30 1810 H 185.444 -3.79032 -0.333904 0
M  V30 1811 H 184.956 -3.5879 1.47958 0
M  V30 1812 H 183.057 -3.59312 -0.986179 0
M  V30 1813 H 183.17 -4.76603 0.488469 0
M  V30 1814 H 181.534 -2.54176 0.163235 0
M  V30 1815 H 182.317 -2.93006 1.78892 0
M  V30 1816 N 184.763 -0.387143 -1.52771 0
M  V30 1817 C 185.71 0.449048 -2.26389 0
M  V30 1818 C 186.68 1.05961 -1.27912 0
M  V30 1819 O 187.865 1.08804 -1.56737 0
M  V30 1820 C 185.005 1.57155 -3.0724 0
M  V30 1821 C 184.118 0.984066 -4.20643 0
M  V30 1822 C 183.253 2.07745 -4.88892 0
M  V30 1823 C 182.292 1.46574 -5.94292 0
M  V30 1824 N 181.429 2.49834 -6.56146 0
M  V30 1825 H 186.269 -0.185205 -2.97424 0
M  V30 1826 H 183.806 -0.103164 -1.46738 0
M  V30 1827 H 185.764 2.23309 -3.52405 0
M  V30 1828 H 184.394 2.17615 -2.38419 0
M  V30 1829 H 183.446 0.212193 -3.79808 0
M  V30 1830 H 184.758 0.497029 -4.96318 0
M  V30 1831 H 183.912 2.81673 -5.3735 0
M  V30 1832 H 182.651 2.59807 -4.12737 0
M  V30 1833 H 181.656 0.711696 -5.45174 0
M  V30 1834 H 182.881 0.953088 -6.72379 0
M  V30 1835 H 180.827 3.0107 -5.82832 0
M  V30 1836 H 180.744 2.05879 -7.27427 0
M  V30 1837 H 182.012 3.23399 -7.09249 0
M  V30 1838 N 186.241 1.57166 -0.116904 0
M  V30 1839 C 187.652 1.82169 0.408809 0
M  V30 1840 C 188.003 1.03393 1.66746 0
M  V30 1841 O 187.128 0.269886 2.1471 0
M  V30 1842 C 187.723 3.30429 0.748466 0
M  V30 1843 C 186.282 3.5612 1.21882 0
M  V30 1844 C 185.429 2.76374 0.226452 0
M  V30 1845 H 188.38 1.5497 -0.342063 0
M  V30 1846 H 188.401 3.44943 1.60607 0
M  V30 1847 H 187.913 3.87737 -0.167784 0
M  V30 1848 H 186.014 3.04168 2.15204 0
M  V30 1849 H 186.127 4.64705 1.16559 0
M  V30 1850 H 184.491 2.44515 0.713063 0
M  V30 1851 H 185.274 3.3644 -0.682859 0
M  V30 1852 N 187.719 -0.156864 1.56817 0
M  V30 1853 C 188.666 -1.19394 1.97519 0
M  V30 1854 C 189.636 -1.4322 0.841265 0
M  V30 1855 O 190.821 -1.55719 1.10255 0
M  V30 1856 C 187.961 -2.52483 2.35258 0
M  V30 1857 C 187.074 -2.35914 3.61896 0
M  V30 1858 C 186.209 -3.61969 3.88782 0
M  V30 1859 C 185.248 -3.40395 5.08722 0
M  V30 1860 N 184.385 -4.58556 5.31668 0
M  V30 1861 H 189.225 -0.839845 2.85921 0
M  V30 1862 H 186.762 -0.403264 1.41464 0
M  V30 1863 H 188.72 -3.30071 2.55165 0
M  V30 1864 H 187.35 -2.85859 1.49949 0
M  V30 1865 H 186.402 -1.49429 3.49821 0
M  V30 1866 H 187.714 -2.15926 4.49641 0
M  V30 1867 H 186.868 -4.47989 4.09135 0
M  V30 1868 H 185.607 -3.84951 2.9944 0
M  V30 1869 H 184.612 -2.52763 4.88253 0
M  V30 1870 H 185.837 -3.18822 5.99608 0
M  V30 1871 H 183.783 -4.81729 4.45279 0
M  V30 1872 H 183.7 -4.41535 6.13664 0
M  V30 1873 H 184.968 -5.45817 5.5651 0
M  V30 1874 N 189.197 -1.51736 -0.425897 0
M  V30 1875 C 190.474 -1.55519 -1.1863 0
M  V30 1876 C 190.854 -0.326219 -2.08564 0
M  V30 1877 O 190.202 0.688012 -2.17896 0
M  V30 1878 C 190.412 -2.87521 -1.9782 0
M  V30 1879 C 191.76 -3.39899 -2.54468 0
M  V30 1880 O 192.784 -2.89148 -2.08019 0
M  V30 1881 O 191.643 -4.2848 -3.39215 0
M  V30 1882 H 188.737 -0.625739 -0.540721 0
M  V30 1883 H 191.283 -1.64055 -0.434038 0
M  V30 1884 H 190.055 -3.68422 -1.31836 0
M  V30 1885 H 189.678 -2.822 -2.80088 0
M  V30 1886 N 190.675 0.682077 -1.42076 0
M  V30 1887 C 191.903 1.47057 -1.4554 0
M  V30 1888 C 192.318 1.8869 -0.0645779 0
M  V30 1889 O 191.675 1.57666 0.919115 0
M  V30 1890 C 191.726 2.72442 -2.37609 0
M  V30 1891 O 191.447 2.32559 -3.71279 0
M  V30 1892 C 192.948 3.66069 -2.50017 0
M  V30 1893 H 190.168 0.452737 -0.495248 0
M  V30 1894 H 192.712 0.838695 -1.8651 0
M  V30 1895 H 190.867 3.31835 -1.9991 0
M  V30 1896 H 191.281 3.13475 -4.20516 0
M  V30 1897 H 192.755 4.50792 -3.18576 0
M  V30 1898 H 193.232 4.11476 -1.53572 0
M  V30 1899 H 193.838 3.12572 -2.88407 0
M  V30 1900 N 192.153 1.28127 0.917671 0
M  V30 1901 C 193.083 1.14248 2.03641 0
M  V30 1902 C 194.064 0.0412748 1.7005 0
M  V30 1903 O 195.249 0.217566 1.92977 0
M  V30 1904 C 192.379 0.799431 3.37974 0
M  V30 1905 C 191.333 1.85497 3.85713 0
M  V30 1906 C 190.659 1.36565 5.16966 0
M  V30 1907 C 191.959 3.26085 4.08002 0
M  V30 1908 H 193.653 2.07835 2.15511 0
M  V30 1909 H 191.199 1.00064 1.03553 0
M  V30 1910 H 193.152 0.689114 4.15727 0
M  V30 1911 H 191.876 -0.172145 3.26146 0
M  V30 1912 H 190.535 1.95437 3.10161 0
M  V30 1913 H 190.183 0.383253 5.01538 0
M  V30 1914 H 189.883 2.07143 5.49878 0
M  V30 1915 H 191.407 1.26848 5.97279 0
M  V30 1916 H 192.821 3.19089 4.76293 0
M  V30 1917 H 191.218 3.94462 4.52238 0
M  V30 1918 H 192.288 3.70394 3.12948 0
M  V30 1919 N 193.631 -1.12557 1.10312 0
M  V30 1920 C 194.564 -2.1737 0.694674 0
M  V30 1921 C 195.542 -1.59745 -0.303373 0
M  V30 1922 O 196.726 -1.87408 -0.202578 0
M  V30 1923 C 193.853 -3.38691 0.0248052 0
M  V30 1924 C 192.899 -4.14943 0.986121 0
M  V30 1925 S 193.732 -4.73413 2.50281 0
M  V30 1926 C 194.888 -5.9807 1.84562 0
M  V30 1927 H 195.121 -2.5168 1.58255 0
M  V30 1928 H 192.654 -1.23998 0.919992 0
M  V30 1929 H 194.612 -4.08959 -0.355361 0
M  V30 1930 H 193.273 -3.02664 -0.839851 0
M  V30 1931 H 192.466 -5.01854 0.464651 0
M  V30 1932 H 192.068 -3.50377 1.30813 0
M  V30 1933 H 194.36 -6.67232 1.17507 0
M  V30 1934 H 195.303 -6.54841 2.69423 0
M  V30 1935 H 195.711 -5.49073 1.31069 0
M  V30 1936 N 195.109 -0.891671 -1.2995 0
M  V30 1937 C 196.358 -0.509521 -1.95158 0
M  V30 1938 C 196.671 0.947388 -1.71125 0
M  V30 1939 O 197.877 1.43669 -2.30372 0
M  V30 1940 C 196.333 -0.860315 -3.49466 0
M  V30 1941 C 195.941 -2.33545 -3.8231 0
M  V30 1942 C 197.685 -0.547687 -4.20952 0
M  V30 1943 C 195.592 -2.62752 -5.29826 0
M  V30 1944 H 194.522 -0.18682 -0.730489 0
M  V30 1945 H 197.173 -1.08756 -1.47798 0
M  V30 1946 H 195.555 -0.211285 -3.95436 0
M  V30 1947 H 196.729 -3.02936 -3.47227 0
M  V30 1948 H 195.044 -2.61629 -3.23944 0
M  V30 1949 H 197.641 -0.742854 -5.29515 0
M  V30 1950 H 197.984 0.51332 -4.13123 0
M  V30 1951 H 198.517 -1.1542 -3.80688 0
M  V30 1952 H 195.256 -3.6762 -5.42712 0
M  V30 1953 H 194.776 -1.97977 -5.66185 0
M  V30 1954 H 196.455 -2.48601 -5.97333 0
M  V30 1955 N 196.587 1.43421 -0.653314 0
M  V30 1956 C 197.812 2.06678 -0.172846 0
M  V30 1957 C 198.237 1.48648 1.15262 0
M  V30 1958 O 197.595 0.596457 1.71208 0
M  V30 1959 C 197.643 3.60474 -0.0953184 0
M  V30 1960 O 196.747 4.01487 0.942442 0
M  V30 1961 H 196.088 0.657181 -0.0949155 0
M  V30 1962 H 198.618 1.83925 -0.896265 0
M  V30 1963 H 198.628 4.07905 0.0879728 0
M  V30 1964 H 197.303 4.02088 -1.06291 0
M  V30 1965 H 195.88 3.65646 0.731932 0
M  V30 1966 N 198.065 0.39524 1.52563 0
M  V30 1967 C 199.481 0.0454682 1.59535 0
M  V30 1968 C 199.681 -1.44056 1.4089 0
M  V30 1969 O 198.737 -2.20579 1.22888 0
M  V30 1970 C 200.05 0.527963 2.96029 0
M  V30 1971 C 201.598 0.484733 3.09224 0
M  V30 1972 C 202.073 0.943512 4.48176 0
M  V30 1973 N 203.564 0.899765 4.54377 0
M  V30 1974 C 204.299 1.22609 5.60138 0
M  V30 1975 N 203.795 1.62319 6.73516 0
M  V30 1976 N 205.588 1.14696 5.50274 0
M  V30 1977 H 197.739 1.36261 1.62931 0
M  V30 1978 H 200.002 0.558887 0.765735 0
M  V30 1979 H 199.708 1.56607 3.14908 0
M  V30 1980 H 199.582 -0.0698056 3.77135 0
M  V30 1981 H 201.969 -0.544298 2.90037 0
M  V30 1982 H 202.05 1.11838 2.30056 0
M  V30 1983 H 201.694 1.9708 4.68104 0
M  V30 1984 H 201.624 0.286817 5.25818 0
M  V30 1985 H 204.115 0.607632 3.72983 0
M  V30 1986 H 204.428 1.85567 7.5019 0
M  V30 1987 H 202.773 1.66211 6.74833 0
M  V30 1988 H 205.964 0.835701 4.6058 0
M  V30 1989 H 206.137 1.40459 6.32594 0
M  V30 1990 N 199.544 -1.57102 0.125237 0
M  V30 1991 C 200.772 -1.99761 -0.538797 0
M  V30 1992 C 201.187 -1.00503 -1.59827 0
M  V30 1993 O 200.544 0.00119474 -1.825 0
M  V30 1994 C 200.595 -3.42408 -1.15927 0
M  V30 1995 O 200.316 -4.37869 -0.142143 0
M  V30 1996 C 201.817 -4.00232 -1.90602 0
M  V30 1997 H 199.037 -0.655772 -0.14214 0
M  V30 1998 H 201.581 -2.03383 0.213413 0
M  V30 1999 H 199.736 -3.39706 -1.86223 0
M  V30 2000 H 200.15 -5.21128 -0.593775 0
M  V30 2001 H 201.624 -5.02105 -2.29335 0
M  V30 2002 H 202.101 -3.39721 -2.78363 0
M  V30 2003 H 202.707 -4.06499 -1.25055 0
M  V30 2004 N 201.022 0.148545 -1.56898 0
M  V30 2005 C 202.433 0.708766 -1.72723 0
M  V30 2006 C 202.784 1.81734 -0.739395 0
M  V30 2007 O 201.909 2.16194 0.0943169 0
M  V30 2008 C 202.504 1.29245 -3.13179 0
M  V30 2009 C 201.063 1.79925 -3.30611 0
M  V30 2010 C 200.21 0.687111 -2.68652 0
M  V30 2011 H 203.161 -0.0771063 -1.58513 0
M  V30 2012 H 203.182 2.16224 -3.13093 0
M  V30 2013 H 202.694 0.485382 -3.85053 0
M  V30 2014 H 200.795 2.63203 -2.63732 0
M  V30 2015 H 200.908 1.92903 -4.38549 0
M  V30 2016 H 199.272 1.11335 -2.29078 0
M  V30 2017 H 200.055 -0.108483 -3.43129 0
M  V30 2018 N 202.5 1.5196 0.417844 0
M  V30 2019 C 203.41 1.77554 1.53336 0
M  V30 2020 C 204.426 0.660655 1.6097 0
M  V30 2021 O 205.602 0.945099 1.77848 0
M  V30 2022 C 202.667 1.91291 2.89152 0
M  V30 2023 C 201.728 3.15183 2.91475 0
M  V30 2024 C 200.961 3.28256 4.20813 0
M  V30 2025 O 201.184 2.46798 5.14244 0
M  V30 2026 O 200.118 4.21356 4.29817 0
M  V30 2027 H 203.944 2.7222 1.34647 0
M  V30 2028 H 201.529 1.36698 0.602828 0
M  V30 2029 H 203.411 2.02199 3.69721 0
M  V30 2030 H 202.086 0.998129 3.07927 0
M  V30 2031 H 200.993 3.09739 2.09791 0
M  V30 2032 H 202.326 4.06414 2.77648 0
M  V30 2033 N 203.978 -0.674533 1.42435 0
M  V30 2034 C 205.224 -1.43671 1.43131 0
M  V30 2035 C 205.557 -1.94142 0.0476021 0
M  V30 2036 O 204.832 -1.70924 -0.928188 0
M  V30 2037 C 205.115 -2.63355 2.45594 0
M  V30 2038 C 204.968 -2.18514 3.93156 0
M  V30 2039 C 206.287 -3.65571 2.45043 0
M  V30 2040 H 203.406 -0.521077 0.521198 0
M  V30 2041 H 206.048 -0.766551 1.7385 0
M  V30 2042 H 204.198 -3.2053 2.19528 0
M  V30 2043 H 205.87 -1.66504 4.30202 0
M  V30 2044 H 204.113 -1.50086 4.07009 0
M  V30 2045 H 204.784 -3.04484 4.60428 0
M  V30 2046 H 207.26 -3.18113 2.68223 0
M  V30 2047 H 206.136 -4.46893 3.18713 0
M  V30 2048 H 206.397 -4.16716 1.47649 0
M  V30 2049 N 205.456 -1.28612 -0.910864 0
M  V30 2050 C 206.684 -1.18792 -1.69399 0
M  V30 2051 C 207.099 0.253039 -1.87097 0
M  V30 2052 O 206.456 1.17071 -1.40003 0
M  V30 2053 C 206.507 -1.88511 -3.08457 0
M  V30 2054 O 206.228 -3.26979 -2.91576 0
M  V30 2055 C 207.729 -1.85029 -4.02839 0
M  V30 2056 H 204.949 -0.412233 -0.529438 0
M  V30 2057 H 207.493 -1.69788 -1.13984 0
M  V30 2058 H 205.648 -1.41379 -3.60681 0
M  V30 2059 H 206.062 -3.61936 -3.79608 0
M  V30 2060 H 207.536 -2.38395 -4.97867 0
M  V30 2061 H 208.013 -0.823303 -4.31414 0
M  V30 2062 H 208.619 -2.31853 -3.56545 0
M  V30 2063 N 206.934 1.1197 -1.10907 0
M  V30 2064 C 208.174 1.85224 -0.864378 0
M  V30 2065 C 208.538 1.82411 0.599178 0
M  V30 2066 O 209.739 2.51057 0.960416 0
M  V30 2067 C 208.01 3.2868 -1.40371 0
M  V30 2068 S 209.569 4.1925 -1.29518 0
M  V30 2069 H 206.387 0.63878 -0.312219 0
M  V30 2070 H 208.989 1.3485 -1.41548 0
M  V30 2071 H 207.693 3.28289 -2.46281 0
M  V30 2072 H 207.224 3.84121 -0.849402 0
M  V30 2073 H 209.239 4.95539 -0.256059 0
M  V30 2074 N 208.412 0.89855 1.29475 0
M  V30 2075 C 209.658 0.524658 1.95896 0
M  V30 2076 C 209.991 -0.926468 1.70676 0
M  V30 2077 O 209.266 -1.65665 1.01908 0
M  V30 2078 C 209.549 0.81633 3.50725 0
M  V30 2079 C 209.402 2.31907 3.85408 0
M  V30 2080 C 210.721 0.302038 4.39062 0
M  V30 2081 H 207.84 0.19209 0.711527 0
M  V30 2082 H 210.482 1.12502 1.53112 0
M  V30 2083 H 208.632 0.305369 3.87298 0
M  V30 2084 H 210.304 2.89949 3.58786 0
M  V30 2085 H 208.547 2.78027 3.32992 0
M  V30 2086 H 209.218 2.47373 4.93468 0
M  V30 2087 H 211.694 0.739551 4.09475 0
M  V30 2088 H 210.57 0.535331 5.46283 0
M  V30 2089 H 210.831 -0.797216 4.34853 0
M  V30 2090 N 209.89 -1.43072 0.660911 0
M  V30 2091 C 211.136 -2.0202 0.177708 0
M  V30 2092 C 211.469 -1.52066 -1.20787 0
M  V30 2093 O 210.744 -0.716987 -1.80802 0
M  V30 2094 C 211.027 -3.59561 0.197019 0
M  V30 2095 C 210.88 -4.19727 1.61706 0
M  V30 2096 C 212.199 -4.37664 -0.462396 0
M  V30 2097 H 209.318 -0.734034 0.0660494 0
M  V30 2098 H 211.96 -1.70272 0.843058 0
M  V30 2099 H 210.11 -3.86739 -0.369527 0
M  V30 2100 H 211.782 -4.03553 2.23479 0
M  V30 2101 H 210.025 -3.76084 2.16201 0
M  V30 2102 H 210.696 -5.28834 1.58237 0
M  V30 2103 H 213.172 -4.16095 0.0197215 0
M  V30 2104 H 212.048 -5.47305 -0.418188 0
M  V30 2105 H 212.309 -4.14493 -1.53778 0
M  V30 2106 N 211.368 -0.403325 -1.52352 0
M  V30 2107 C 212.614 0.174605 -2.02047 0
M  V30 2108 C 212.947 1.45282 -1.28867 0
M  V30 2109 O 212.222 1.90483 -0.393257 0
M  V30 2110 C 212.505 0.428238 -3.57545 0
M  V30 2111 C 212.358 -0.866248 -4.4138 0
M  V30 2112 C 213.677 1.21287 -4.23057 0
M  V30 2113 H 210.796 0.0619851 -0.734389 0
M  V30 2114 H 213.438 -0.53565 -1.82293 0
M  V30 2115 H 211.588 1.03327 -3.74507 0
M  V30 2116 H 213.26 -1.50265 -4.3614 0
M  V30 2117 H 211.503 -1.47851 -4.07827 0
M  V30 2118 H 212.174 -0.643249 -5.48239 0
M  V30 2119 H 214.65 0.700703 -4.10158 0
M  V30 2120 H 213.526 1.35909 -5.31808 0
M  V30 2121 H 213.787 2.23193 -3.81625 0
M  V30 2122 N 212.846 1.57033 -0.133567 0
M  V30 2123 C 214.123 1.87256 0.56522 0
M  V30 2124 C 214.503 1.03726 1.83859 0
M  V30 2125 O 213.851 0.120247 2.28183 0
M  V30 2126 C 214.061 3.3865 0.843636 0
M  V30 2127 C 215.409 4.07574 1.19032 0
M  V30 2128 O 216.433 3.43752 0.933429 0
M  V30 2129 O 215.292 5.20259 1.67312 0
M  V30 2130 H 212.386 0.775678 0.286796 0
M  V30 2131 H 214.932 1.68855 -0.169168 0
M  V30 2132 H 213.704 3.91257 -0.0581149 0
M  V30 2133 H 213.327 3.62532 1.63268 0
M  V30 2134 N 214.325 -0.140222 1.56975 0
M  V30 2135 C 215.571 -0.852949 1.83991 0
M  V30 2136 C 215.904 -1.80512 0.716187 0
M  V30 2137 O 215.179 -1.92479 -0.279681 0
M  V30 2138 C 215.462 -1.6215 3.21527 0
M  V30 2139 C 215.315 -0.690363 4.4447 0
M  V30 2140 C 216.634 -2.58247 3.56366 0
M  V30 2141 H 213.753 -0.308634 0.669264 0
M  V30 2142 H 216.395 -0.117898 1.89634 0
M  V30 2143 H 214.545 -2.24812 3.16847 0
M  V30 2144 H 216.217 -0.0742264 4.6124 0
M  V30 2145 H 214.46 -0.000396433 4.338 0
M  V30 2146 H 215.131 -1.2643 5.37326 0
M  V30 2147 H 217.607 -2.05701 3.61699 0
M  V30 2148 H 216.483 -3.09067 4.53617 0
M  V30 2149 H 216.744 -3.39923 2.82674 0
M  V30 2150 N 215.803 -1.52179 -0.40978 0
M  V30 2151 C 217.028 -1.70347 -1.18308 0
M  V30 2152 C 217.453 -0.411887 -1.83535 0
M  V30 2153 O 216.811 0.630587 -1.6998 0
M  V30 2154 C 216.859 -2.83977 -2.22238 0
M  V30 2155 O 215.963 -2.495 -3.28365 0
M  V30 2156 H 215.304 -0.567103 -0.345384 0
M  V30 2157 H 217.834 -1.98879 -0.480445 0
M  V30 2158 H 217.844 -3.0887 -2.66577 0
M  V30 2159 H 216.519 -3.77685 -1.74146 0
M  V30 2160 H 215.096 -2.35277 -2.89308 0
M  V30 2161 N 217.281 0.66697 -1.42791 0
M  V30 2162 C 218.213 1.7925 -1.42836 0
M  V30 2163 C 219.226 1.59496 -0.326333 0
M  V30 2164 O 220.415 1.6847 -0.589916 0
M  V30 2165 C 217.515 3.16476 -1.21229 0
M  V30 2166 C 216.688 3.63011 -2.44013 0
M  V30 2167 C 215.747 4.78993 -2.17834 0
M  V30 2168 O 214.773 4.89137 -2.91091 0
M  V30 2169 N 215.975 5.68248 -1.18635 0
M  V30 2170 H 218.74 1.79695 -2.39854 0
M  V30 2171 H 216.301 0.850338 -1.37771 0
M  V30 2172 H 218.293 3.91734 -1.01621 0
M  V30 2173 H 216.863 3.10884 -0.32706 0
M  V30 2174 H 216.083 2.78346 -2.79137 0
M  V30 2175 H 217.371 3.90845 -3.25757 0
M  V30 2176 H 216.769 5.62712 -0.580615 0
M  V30 2177 H 215.326 6.43285 -1.05013 0
M  V30 2178 N 218.759 1.29093 0.90403 0
M  V30 2179 C 219.669 1.15727 2.0407 0
M  V30 2180 C 220.685 0.0815308 1.73809 0
M  V30 2181 O 221.861 0.292749 1.99261 0
M  V30 2182 C 218.926 0.830424 3.36608 0
M  V30 2183 C 217.987 1.98955 3.80415 0
M  V30 2184 C 217.22 1.6782 5.06628 0
M  V30 2185 O 217.443 0.597105 5.67266 0
M  V30 2186 O 216.377 2.52486 5.46383 0
M  V30 2187 H 220.203 2.11171 2.18267 0
M  V30 2188 H 217.788 1.08504 1.027 0
M  V30 2189 H 219.67 0.662521 4.16159 0
M  V30 2190 H 218.345 -0.0942678 3.23563 0
M  V30 2191 H 217.252 2.21267 3.01648 0
M  V30 2192 H 218.585 2.89529 3.98037 0
M  V30 2193 N 220.237 -1.11381 1.11499 0
M  V30 2194 C 221.514 -1.7955 0.775965 0
M  V30 2195 C 221.894 -1.97859 -0.73588 0
M  V30 2196 O 221.242 -1.56376 -1.66609 0
M  V30 2197 C 221.452 -3.13196 1.53977 0
M  V30 2198 C 222.8 -3.88227 1.71944 0
M  V30 2199 O 223.824 -3.22887 1.50407 0
M  V30 2200 O 222.683 -5.05477 2.07738 0
M  V30 2201 H 219.777 -0.777728 0.28119 0
M  V30 2202 H 222.323 -1.18118 1.21845 0
M  V30 2203 H 221.095 -2.95229 2.56818 0
M  V30 2204 H 220.718 -3.82342 1.09088 0
M  V30 2205 N 221.715 -0.905404 -1.28997 0
M  V30 2206 C 223.126 -0.581953 -1.77398 0
M  V30 2207 C 223.477 0.902552 -1.74208 0
M  V30 2208 O 222.602 1.70584 -1.33154 0
M  V30 2209 C 223.197 -1.04961 -3.22131 0
M  V30 2210 C 221.756 -0.777229 -3.68288 0
M  V30 2211 C 220.903 -1.22109 -2.48967 0
M  V30 2212 H 223.854 -1.08754 -1.15578 0
M  V30 2213 H 223.875 -0.387387 -3.78523 0
M  V30 2214 H 223.387 -2.13008 -3.24421 0
M  V30 2215 H 221.488 0.290383 -3.71467 0
M  V30 2216 H 221.601 -1.37911 -4.58822 0
M  V30 2217 H 219.965 -0.639971 -2.46529 0
M  V30 2218 H 220.748 -2.30972 -2.53982 0
M  V30 2219 N 223.193 1.4272 -0.668489 0
M  V30 2220 C 224.103 2.34596 0.0139753 0
M  V30 2221 C 225.119 1.5474 0.795703 0
M  V30 2222 O 226.295 1.87334 0.739466 0
M  V30 2223 C 223.36 3.33202 0.957982 0
M  V30 2224 C 222.421 4.28957 0.17149 0
M  V30 2225 C 221.654 5.22853 1.07053 0
M  V30 2226 O 221.877 5.21531 2.31001 0
M  V30 2227 O 220.811 5.9952 0.534727 0
M  V30 2228 H 224.637 2.9448 -0.742661 0
M  V30 2229 H 222.222 1.43117 -0.428705 0
M  V30 2230 H 224.104 3.93796 1.50008 0
M  V30 2231 H 222.779 2.758 1.69458 0
M  V30 2232 H 221.686 3.71796 -0.414558 0
M  V30 2233 H 223.019 4.89383 -0.52586 0
M  V30 2234 N 224.671 0.411399 1.52136 0
M  V30 2235 C 225.917 -0.163888 2.02137 0
M  V30 2236 C 226.25 -1.44597 1.29636 0
M  V30 2237 O 225.525 -1.90272 0.403353 0
M  V30 2238 C 225.808 -0.40927 3.57767 0
M  V30 2239 C 225.661 0.889643 4.40914 0
M  V30 2240 C 226.98 -1.19042 4.23694 0
M  V30 2241 H 224.099 -0.0580896 0.734707 0
M  V30 2242 H 226.741 0.54531 1.82007 0
M  V30 2243 H 224.891 -1.0134 3.7505 0
M  V30 2244 H 226.563 1.52575 4.35337 0
M  V30 2245 H 224.806 1.50011 4.07037 0
M  V30 2246 H 225.477 0.672314 5.4789 0
M  V30 2247 H 227.953 -0.678942 4.10524 0
M  V30 2248 H 226.829 -1.33086 5.32522 0
M  V30 2249 H 227.09 -2.21166 3.82803 0
M  V30 2250 N 226.149 -1.5696 0.141893 0
M  V30 2251 C 227.081 -2.13619 -0.830627 0
M  V30 2252 C 228.094 -1.08439 -1.21428 0
M  V30 2253 O 229.283 -1.35734 -1.15925 0
M  V30 2254 C 226.383 -2.63978 -2.12529 0
M  V30 2255 C 225.556 -3.93504 -1.9098 0
M  V30 2256 C 224.615 -4.29225 -3.04388 0
M  V30 2257 O 223.641 -4.97641 -2.76302 0
M  V30 2258 N 224.843 -3.88393 -4.31429 0
M  V30 2259 H 227.608 -2.97691 -0.34641 0
M  V30 2260 H 225.169 -1.61846 -0.0418375 0
M  V30 2261 H 227.161 -2.84891 -2.87436 0
M  V30 2262 H 225.731 -1.84659 -2.52229 0
M  V30 2263 H 224.951 -3.81269 -1.00139 0
M  V30 2264 H 226.239 -4.78154 -1.73914 0
M  V30 2265 H 225.637 -3.33257 -4.57117 0
M  V30 2266 H 224.194 -4.14368 -5.03133 0
M  V30 2267 N 227.627 0.131896 -1.57047 0
M  V30 2268 C 228.874 0.841932 -1.84168 0
M  V30 2269 C 229.202 1.8048 -0.725066 0
M  V30 2270 O 228.457 1.93618 0.284692 0
M  V30 2271 C 228.756 1.63703 -3.17704 0
M  V30 2272 C 228.422 0.81961 -4.43388 0
M  V30 2273 C 227.084 0.594148 -4.77518 0
M  V30 2274 C 229.436 0.248977 -5.20605 0
M  V30 2275 C 226.764 -0.212409 -5.86315 0
M  V30 2276 C 229.116 -0.544701 -6.30251 0
M  V30 2277 C 227.78 -0.780599 -6.6292 0
M  V30 2278 H 227.05 0.308085 -0.673917 0
M  V30 2279 H 229.697 0.104867 -1.91213 0
M  V30 2280 H 228.002 2.44464 -3.06177 0
M  V30 2281 H 229.699 2.19015 -3.35907 0
M  V30 2282 H 226.289 1.00542 -4.16641 0
M  V30 2283 H 230.473 0.410408 -4.946 0
M  V30 2284 H 225.729 -0.404524 -6.1006 0
M  V30 2285 H 229.903 -0.993922 -6.89271 0
M  V30 2286 H 227.53 -1.40742 -7.47058 0
M  V30 2287 N 229.106 1.52395 0.401703 0
M  V30 2288 C 230.054 1.7689 1.51039 0
M  V30 2289 C 231.048 0.636298 1.56996 0
M  V30 2290 O 232.254 0.818507 1.60314 0
M  V30 2291 H 228.629 0.559502 0.502456 0
M  V30 2292 H 230.6 2.69757 1.27568 0
M  V30 2293 C 229.349 1.94331 2.88324 0
M  V30 2294 H 228.672 2.80905 2.84486 0
M  V30 2295 H 230.112 2.15466 3.65172 0
M  V30 2296 C 228.571 0.712396 3.29282 0
M  V30 2297 O 229.101 -0.116218 4.01532 0
M  V30 2298 N 227.307 0.546154 2.85422 0
M  V30 2299 H 226.854 1.22156 2.26794 0
M  V30 2300 H 226.812 -0.276113 3.13185 0
M  V30 2301 N 230.584 -0.659388 1.43143 0
M  V30 2302 C 231.83 -1.41984 1.45644 0
M  V30 2303 C 232.185 -1.92245 0.0771718 0
M  V30 2304 O 231.478 -1.68976 -0.903205 0
M  V30 2305 C 231.672 -2.62206 2.42864 0
M  V30 2306 C 231.501 -2.23711 3.90107 0
M  V30 2307 C 230.271 -2.12332 4.58523 0
M  V30 2308 C 232.469 -1.84384 4.80112 0
M  V30 2309 N 230.451 -1.67102 5.9072 0
M  V30 2310 C 231.822 -1.5019 6.01534 0
M  V30 2311 C 233.877 -1.71512 4.67427 0
M  V30 2312 C 232.58 -1.04414 7.11681 0
M  V30 2313 C 234.606 -1.27142 5.77572 0
M  V30 2314 C 233.968 -0.938808 6.98116 0
M  V30 2315 H 230.067 -0.515448 0.588079 0
M  V30 2316 H 232.651 -0.759409 1.79279 0
M  V30 2317 H 230.822 -3.25917 2.11265 0
M  V30 2318 H 232.554 -3.28877 2.35843 0
M  V30 2319 H 229.309 -2.31893 4.12944 0
M  V30 2320 H 229.733 -1.46866 6.60878 0
M  V30 2321 H 234.375 -1.95868 3.74694 0
M  V30 2322 H 232.093 -0.788061 8.04248 0
M  V30 2323 H 235.679 -1.17681 5.69774 0
M  V30 2324 H 234.559 -0.6007 7.81896 0
M  V30 2325 N 232.062 -1.29571 -0.897171 0
M  V30 2326 C 233.292 -1.20408 -1.67886 0
M  V30 2327 C 233.7 0.237429 -1.87704 0
M  V30 2328 O 233.043 1.17048 -1.41582 0
M  V30 2329 C 233.105 -1.84887 -3.08314 0
M  V30 2330 C 232.769 -3.34189 -3.11716 0
M  V30 2331 C 233.766 -4.30374 -2.91675 0
M  V30 2332 C 231.451 -3.75431 -3.33701 0
M  V30 2333 C 233.445 -5.65776 -2.93557 0
M  V30 2334 C 231.132 -5.10955 -3.35214 0
M  V30 2335 C 232.13 -6.05938 -3.15164 0
M  V30 2336 O 231.818 -7.38987 -3.1647 0
M  V30 2337 H 231.55 -0.418289 -0.531046 0
M  V30 2338 H 234.104 -1.71514 -1.13014 0
M  V30 2339 H 232.334 -1.28295 -3.64798 0
M  V30 2340 H 234.023 -1.70011 -3.6858 0
M  V30 2341 H 234.789 -3.99844 -2.74499 0
M  V30 2342 H 230.668 -3.01953 -3.48347 0
M  V30 2343 H 234.212 -6.39889 -2.77826 0
M  V30 2344 H 230.109 -5.4113 -3.51922 0
M  V30 2345 H 230.877 -7.47823 -3.3272 0
M  V30 2346 N 233.54 1.10788 -1.12088 0
M  V30 2347 C 234.786 1.82942 -0.875226 0
M  V30 2348 C 235.119 1.84779 0.597538 0
M  V30 2349 O 234.394 1.30578 1.44152 0
M  V30 2350 C 234.677 3.29789 -1.44606 0
M  V30 2351 C 234.53 3.36307 -2.98693 0
M  V30 2352 C 235.849 4.26064 -1.10261 0
M  V30 2353 H 232.968 0.664195 -0.319397 0
M  V30 2354 H 235.61 1.29867 -1.38689 0
M  V30 2355 H 233.76 3.75118 -1.01089 0
M  V30 2356 H 235.432 2.99487 -3.50864 0
M  V30 2357 H 233.675 2.76318 -3.34411 0
M  V30 2358 H 234.346 4.39694 -3.33726 0
M  V30 2359 H 236.822 3.88951 -1.4784 0
M  V30 2360 H 235.698 5.27183 -1.52869 0
M  V30 2361 H 235.959 4.42098 -0.0142953 0
M  V30 2362 N 235.018 0.912232 1.28515 0
M  V30 2363 C 236.295 0.463597 1.90027 0
M  V30 2364 C 236.675 -1.05753 1.82701 0
M  V30 2365 O 236.023 -1.90492 1.26194 0
M  V30 2366 C 236.233 0.992253 3.34597 0
M  V30 2367 C 237.581 1.04344 4.11579 0
M  V30 2368 O 238.605 0.94079 3.43551 0
M  V30 2369 O 237.464 1.1995 5.33174 0
M  V30 2370 H 234.558 0.146666 0.813891 0
M  V30 2371 H 237.104 1.00292 1.36893 0
M  V30 2372 H 235.876 2.03623 3.34146 0
M  V30 2373 H 235.499 0.433672 3.95228 0
M  V30 2374 N 236.496 -1.42363 0.676048 0
M  V30 2375 C 237.744 -2.01123 0.198437 0
M  V30 2376 C 238.065 -1.53731 -1.19966 0
M  V30 2377 O 237.335 -0.759518 -1.80577 0
M  V30 2378 H 235.915 -0.743678 0.0703721 0
M  V30 2379 H 238.577 -1.74263 0.872837 0
M  V30 2380 H 237.673 -3.11454 0.200686 0
M  V30 2381 N 237.974 -0.419461 -1.51915 0
M  V30 2382 C 239.22 0.153166 -2.02221 0
M  V30 2383 C 239.553 1.43907 -1.30401 0
M  V30 2384 O 238.828 1.90055 -0.413438 0
M  V30 2385 C 239.111 0.390291 -3.57979 0
M  V30 2386 C 238.964 -0.913014 -4.40436 0
M  V30 2387 C 240.283 1.16794 -4.2432 0
M  V30 2388 H 237.402 0.0541924 -0.735005 0
M  V30 2389 H 240.044 -0.554955 -1.81715 0
M  V30 2390 H 238.194 0.993491 -3.75582 0
M  V30 2391 H 239.866 -1.54882 -4.34522 0
M  V30 2392 H 238.109 -1.52168 -4.06236 0
M  V30 2393 H 238.78 -0.701361 -5.47526 0
M  V30 2394 H 241.256 0.657161 -4.10878 0
M  V30 2395 H 240.132 1.3026 -5.3322 0
M  V30 2396 H 240.393 2.19132 -3.83971 0
M  V30 2397 N 239.452 1.56882 -0.150215 0
M  V30 2398 C 240.362 2.20494 0.801222 0
M  V30 2399 C 241.378 1.19019 1.26927 0
M  V30 2400 O 242.554 1.51607 1.32579 0
M  V30 2401 C 239.619 2.81659 2.02161 0
M  V30 2402 C 238.68 3.9827 1.60249 0
M  V30 2403 C 237.913 4.56508 2.7647 0
M  V30 2404 O 238.136 4.13627 3.92771 0
M  V30 2405 O 237.07 5.46719 2.51757 0
M  V30 2406 H 240.896 3.02315 0.289717 0
M  V30 2407 H 238.481 1.49202 0.0769684 0
M  V30 2408 H 240.363 3.20522 2.73576 0
M  V30 2409 H 239.038 2.02849 2.52258 0
M  V30 2410 H 237.945 3.64117 0.858477 0
M  V30 2411 H 239.278 4.78609 1.14864 0
M  V30 2412 N 240.93 -0.123565 1.57115 0
M  V30 2413 C 242.176 -0.833386 1.84885 0
M  V30 2414 C 242.509 -1.79742 0.735292 0
M  V30 2415 O 241.784 -1.92764 -0.25925 0
M  V30 2416 C 242.067 -1.5873 3.23228 0
M  V30 2417 C 241.92 -0.643183 4.45178 0
M  V30 2418 C 243.239 -2.54453 3.59085 0
M  V30 2419 H 240.358 -0.301518 0.6725 0
M  V30 2420 H 243 -0.097778 1.89748 0
M  V30 2421 H 241.15 -2.21438 3.19214 0
M  V30 2422 H 242.822 -0.0253015 4.61293 0
M  V30 2423 H 241.065 0.0456139 4.33776 0
M  V30 2424 H 241.736 -1.20724 5.38637 0
M  V30 2425 H 244.212 -2.01853 3.63861 0
M  V30 2426 H 243.088 -3.04238 4.5687 0
M  V30 2427 H 243.349 -3.36906 2.86264 0
M  V30 2428 N 242.408 -1.52605 -0.393616 0
M  V30 2429 C 243.358 -1.73436 -1.48 0
M  V30 2430 C 244.342 -0.588386 -1.49756 0
M  V30 2431 O 245.534 -0.846047 -1.5547 0
M  V30 2432 C 242.663 -1.90247 -2.85764 0
M  V30 2433 C 241.749 -3.10763 -2.88595 0
M  V30 2434 N 242.14 -4.33196 -2.61103 0
M  V30 2435 C 240.438 -3.10914 -3.19763 0
M  V30 2436 C 241.139 -5.1477 -2.70899 0
M  V30 2437 N 240.115 -4.50356 -3.04435 0
M  V30 2438 H 243.917 -2.65727 -1.25563 0
M  V30 2439 H 241.431 -1.5085 -0.601513 0
M  V30 2440 H 243.428 -2.03291 -3.63976 0
M  V30 2441 H 242.088 -0.991663 -3.09186 0
M  V30 2442 H 243.099 -4.61408 -2.35209 0
M  V30 2443 H 239.776 -2.29626 -3.4868 0
M  V30 2444 H 241.166 -6.22355 -2.53227 0
M  V30 2445 N 243.887 0.651787 -1.4349 0
M  V30 2446 C 244.835 1.78586 -1.49029 0
M  V30 2447 C 245.829 1.65448 -0.363767 0
M  V30 2448 O 247.035 1.71777 -0.537821 0
M  V30 2449 H 243.41 0.589236 -0.467231 0
M  V30 2450 H 245.381 1.71035 -2.44519 0
M  V30 2451 C 244.13 3.16851 -1.43181 0
M  V30 2452 H 243.453 3.27598 -2.29171 0
M  V30 2453 H 244.893 3.96156 -1.51118 0
M  V30 2454 C 243.352 3.36568 -0.149616 0
M  V30 2455 O 243.882 3.93885 0.788509 0
M  V30 2456 N 242.088 2.90539 -0.0593484 0
M  V30 2457 H 241.635 2.4408 -0.823575 0
M  V30 2458 H 241.593 3.04108 0.797853 0
M  V30 2459 N 245.365 1.30045 0.890287 0
M  V30 2460 C 246.328 1.15963 1.977 0
M  V30 2461 C 247.328 0.0923777 1.60534 0
M  V30 2462 O 248.518 0.340071 1.70848 0
M  V30 2463 C 245.65 0.775451 3.31963 0
M  V30 2464 H 246.843 2.12502 2.11619 0
M  V30 2465 H 244.396 1.13366 1.07601 0
M  V30 2466 H 245.131 -0.189671 3.23745 0
M  V30 2467 H 244.916 1.54668 3.60306 0
M  V30 2468 H 246.406 0.700251 4.11687 0
M  V30 2469 N 246.843 -1.10192 1.12674 0
M  V30 2470 C 247.79 -2.16606 0.796906 0
M  V30 2471 C 248.76 -1.64394 -0.237476 0
M  V30 2472 O 249.945 -1.90474 -0.111484 0
M  V30 2473 C 247.085 -3.44116 0.26043 0
M  V30 2474 C 246.198 -4.10268 1.35293 0
M  V30 2475 C 245.333 -5.25507 0.775621 0
M  V30 2476 C 244.372 -5.83567 1.84706 0
M  V30 2477 N 243.509 -6.90179 1.28829 0
M  V30 2478 H 248.349 -2.44163 1.70846 0
M  V30 2479 H 245.886 -1.19846 0.85295 0
M  V30 2480 H 247.844 -4.17143 -0.0686814 0
M  V30 2481 H 246.474 -3.16901 -0.614274 0
M  V30 2482 H 245.526 -3.35184 1.79877 0
M  V30 2483 H 246.838 -4.4946 2.16303 0
M  V30 2484 H 245.992 -6.05398 0.397327 0
M  V30 2485 H 244.731 -4.87656 -0.0656581 0
M  V30 2486 H 243.736 -5.02344 2.23452 0
M  V30 2487 H 244.961 -6.23482 2.69161 0
M  V30 2488 H 242.907 -6.54322 0.468881 0
M  V30 2489 H 242.824 -7.28097 2.03497 0
M  V30 2490 H 244.092 -7.73844 0.937311 0
M  V30 2491 N 248.321 -0.919034 -1.28029 0
M  V30 2492 C 249.549 -0.570971 -1.98866 0
M  V30 2493 C 249.964 0.848996 -1.68634 0
M  V30 2494 O 249.321 1.56307 -0.942036 0
M  V30 2495 C 249.372 -0.776876 -3.53054 0
M  V30 2496 O 249.093 -2.14097 -3.82222 0
M  V30 2497 C 250.594 -0.436356 -4.41147 0
M  V30 2498 H 247.814 -0.217175 -0.634883 0
M  V30 2499 H 250.358 -1.23368 -1.63097 0
M  V30 2500 H 248.513 -0.161085 -3.87065 0
M  V30 2501 H 248.927 -2.18455 -4.76841 0
M  V30 2502 H 250.401 -0.63117 -5.4838 0
M  V30 2503 H 250.878 0.627686 -4.34692 0
M  V30 2504 H 251.484 -1.02991 -4.12641 0
M  V30 2505 N 249.799 1.42003 -0.683588 0
M  V30 2506 C 250.746 2.30798 -0.0107309 0
M  V30 2507 C 251.716 1.4645 0.783688 0
M  V30 2508 O 252.901 1.75263 0.754156 0
M  V30 2509 C 250.041 3.3238 0.928306 0
M  V30 2510 C 249.154 4.31814 0.126776 0
M  V30 2511 C 248.289 5.20468 1.06236 0
M  V30 2512 C 247.328 6.11577 0.253035 0
M  V30 2513 N 246.465 6.92754 1.14179 0
M  V30 2514 H 251.305 2.8778 -0.773727 0
M  V30 2515 H 248.842 1.41745 -0.393283 0
M  V30 2516 H 250.8 3.89813 1.48666 0
M  V30 2517 H 249.43 2.76976 1.65783 0
M  V30 2518 H 248.482 3.76427 -0.54833 0
M  V30 2519 H 249.794 4.96276 -0.501192 0
M  V30 2520 H 248.948 5.82677 1.69035 0
M  V30 2521 H 247.687 4.56204 1.7242 0
M  V30 2522 H 246.692 5.48428 -0.388108 0
M  V30 2523 H 247.917 6.77892 -0.404839 0
M  V30 2524 H 245.863 6.3111 1.78987 0
M  V30 2525 H 245.78 7.53855 0.569111 0
M  V30 2526 H 247.048 7.59441 1.75697 0
M  V30 2527 N 251.277 0.427512 1.51691 0
M  V30 2528 C 252.688 -0.0378867 1.86662 0
M  V30 2529 C 253.039 -1.42819 1.34525 0
M  V30 2530 O 252.164 -2.05037 0.692014 0
M  V30 2531 C 252.759 -0.0755266 3.38716 0
M  V30 2532 C 251.318 -0.485309 3.73258 0
M  V30 2533 C 250.465 0.328399 2.75349 0
M  V30 2534 H 253.416 0.64379 1.45055 0
M  V30 2535 H 253.437 -0.887056 3.70016 0
M  V30 2536 H 252.949 0.936487 3.76632 0
M  V30 2537 H 251.05 -1.50329 3.40928 0
M  V30 2538 H 251.163 -0.21693 4.78609 0
M  V30 2539 H 249.527 -0.211905 2.53817 0
M  V30 2540 H 250.31 1.3391 3.16106 0
M  V30 2541 N 252.755 -1.56801 0.158532 0
M  V30 2542 C 254.171 -1.5837 -0.197774 0
M  V30 2543 C 254.371 -1.17334 -1.63814 0
M  V30 2544 O 253.427 -0.878988 -2.36707 0
M  V30 2545 C 254.74 -3.00615 0.0714459 0
M  V30 2546 C 256.288 -3.12999 0.00864533 0
M  V30 2547 C 256.763 -4.57313 0.250685 0
M  V30 2548 N 258.254 -4.62777 0.198014 0
M  V30 2549 C 258.989 -5.72271 0.359642 0
M  V30 2550 N 258.485 -6.90371 0.579625 0
M  V30 2551 N 260.278 -5.61318 0.296438 0
M  V30 2552 H 252.429 -1.81765 1.09887 0
M  V30 2553 H 254.692 -0.841849 0.435884 0
M  V30 2554 H 254.398 -3.35068 1.06874 0
M  V30 2555 H 254.272 -3.71683 -0.642757 0
M  V30 2556 H 256.659 -2.7838 -0.979217 0
M  V30 2557 H 256.74 -2.44393 0.755359 0
M  V30 2558 H 256.384 -4.92639 1.2357 0
M  V30 2559 H 256.314 -5.24061 -0.516489 0
M  V30 2560 H 258.805 -3.77885 0.0331115 0
M  V30 2561 H 259.118 -7.69689 0.69275 0
M  V30 2562 H 257.463 -6.92264 0.616087 0
M  V30 2563 H 260.654 -4.67932 0.125258 0
M  V30 2564 H 260.827 -6.46599 0.425831 0
M  V30 2565 N 254.233 0.115231 -1.57178 0
M  V30 2566 C 255.143 1.15994 -2.03918 0
M  V30 2567 C 256.159 1.45103 -0.960268 0
M  V30 2568 O 257.335 1.56144 -1.27204 0
M  V30 2569 C 254.4 2.46568 -2.43732 0
M  V30 2570 C 253.461 2.24822 -3.65723 0
M  V30 2571 C 252.694 3.4917 -4.03629 0
M  V30 2572 O 252.917 4.56623 -3.41835 0
M  V30 2573 O 251.851 3.39949 -4.96708 0
M  V30 2574 H 255.677 0.793019 -2.93164 0
M  V30 2575 H 253.262 0.3263 -1.45793 0
M  V30 2576 H 255.144 3.23492 -2.70057 0
M  V30 2577 H 253.819 2.82726 -1.57631 0
M  V30 2578 H 252.726 1.45744 -3.44542 0
M  V30 2579 H 254.059 1.93566 -4.52541 0
M  V30 2580 N 255.711 1.52812 0.385517 0
M  V30 2581 C 256.621 1.80766 1.49535 0
M  V30 2582 C 257.637 0.694651 1.59532 0
M  V30 2583 O 258.813 0.982611 1.75803 0
M  V30 2584 C 255.878 1.97381 2.85029 0
M  V30 2585 C 254.939 3.21295 2.84724 0
M  V30 2586 C 254.172 3.37108 4.13756 0
M  V30 2587 O 254.395 2.5765 5.08893 0
M  V30 2588 O 253.329 4.30378 4.20783 0
M  V30 2589 H 257.155 2.75015 1.28842 0
M  V30 2590 H 254.74 1.37946 0.573697 0
M  V30 2591 H 256.622 2.09996 3.65349 0
M  V30 2592 H 255.297 1.06322 3.05741 0
M  V30 2593 H 254.204 3.1412 2.03174 0
M  V30 2594 H 255.537 4.12212 2.68965 0
M  V30 2595 N 257.189 -0.644168 1.43834 0
M  V30 2596 C 258.121 -1.76955 1.45669 0
M  V30 2597 C 259.134 -1.58956 0.351666 0
M  V30 2598 O 260.323 -1.6751 0.616644 0
M  V30 2599 C 257.423 -3.14507 1.26248 0
M  V30 2600 C 256.596 -3.59083 2.49757 0
M  V30 2601 C 255.655 -4.75467 2.25427 0
M  V30 2602 O 254.681 -4.84444 2.98836 0
M  V30 2603 N 255.883 -5.66289 1.27661 0
M  V30 2604 H 258.648 -1.75856 2.42682 0
M  V30 2605 H 256.209 -0.828312 1.39106 0
M  V30 2606 H 258.201 -3.90067 1.0784 0
M  V30 2607 H 256.771 -3.10325 0.376478 0
M  V30 2608 H 255.991 -2.7387 2.8353 0
M  V30 2609 H 257.279 -3.85613 3.31934 0
M  V30 2610 H 256.677 -5.61718 0.670064 0
M  V30 2611 H 255.234 -6.41533 1.15234 0
M  V30 2612 N 258.668 -1.30515 -0.883378 0
M  V30 2613 C 259.915 -1.1943 -1.63532 0
M  V30 2614 C 260.243 0.250627 -1.92878 0
M  V30 2615 O 259.498 1.19556 -1.54935 0
M  V30 2616 C 259.797 -1.96994 -2.98209 0
M  V30 2617 C 259.463 -3.466 -2.88408 0
M  V30 2618 C 258.125 -3.87397 -2.85442 0
M  V30 2619 C 260.477 -4.41863 -2.76418 0
M  V30 2620 C 257.805 -5.21745 -2.68327 0
M  V30 2621 C 260.157 -5.7632 -2.60841 0
M  V30 2622 C 258.821 -6.16354 -2.56251 0
M  V30 2623 H 258.091 -0.437025 -0.598406 0
M  V30 2624 H 260.738 -1.61635 -1.02696 0
M  V30 2625 H 259.043 -1.47429 -3.63004 0
M  V30 2626 H 260.74 -1.85808 -3.55354 0
M  V30 2627 H 257.33 -3.14182 -2.91527 0
M  V30 2628 H 261.514 -4.11285 -2.77775 0
M  V30 2629 H 256.77 -5.51853 -2.63189 0
M  V30 2630 H 260.944 -6.49772 -2.50538 0
M  V30 2631 H 258.571 -7.20401 -2.42748 0
M  V30 2632 N 260.146 1.09593 -1.13257 0
M  V30 2633 C 261.094 2.18271 -0.803783 0
M  V30 2634 C 262.088 1.68054 0.213148 0
M  V30 2635 O 263.294 1.79862 0.0704699 0
M  V30 2636 H 259.669 0.711949 -0.242143 0
M  V30 2637 H 261.64 2.43235 -1.72856 0
M  V30 2638 C 260.389 3.46536 -0.28424 0
M  V30 2639 H 259.712 3.85545 -1.05807 0
M  V30 2640 H 261.152 4.23899 -0.0925945 0
M  V30 2641 C 259.611 3.22036 0.989684 0
M  V30 2642 O 260.141 3.44509 2.06584 0
M  V30 2643 N 258.347 2.7565 0.920086 0
M  V30 2644 H 257.894 2.57562 0.0442019 0
M  V30 2645 H 257.852 2.59635 1.77306 0
M  V30 2646 N 261.624 0.925811 1.2754 0
M  V30 2647 C 262.849 0.580924 1.99098 0
M  V30 2648 C 263.274 -0.833555 1.68622 0
M  V30 2649 O 262.632 -1.55903 0.925422 0
M  V30 2650 C 262.68 0.811186 3.51358 0
M  V30 2651 O 261.784 -0.124129 4.12213 0
M  V30 2652 H 261.125 0.223873 0.625122 0
M  V30 2653 H 263.655 1.24455 1.62395 0
M  V30 2654 H 263.665 0.72601 4.01489 0
M  V30 2655 H 262.34 1.84227 3.72872 0
M  V30 2656 H 260.917 0.0108006 3.72898 0
M  V30 2657 N 263.102 -1.41638 0.69111 0
M  V30 2658 C 264.33 -2.05628 0.22909 0
M  V30 2659 C 264.745 -1.51992 -1.11999 0
M  V30 2660 O 264.102 -0.666322 -1.69901 0
M  V30 2661 C 264.153 -3.61084 0.173283 0
M  V30 2662 O 263.874 -4.12735 1.46907 0
M  V30 2663 C 265.375 -4.42213 -0.310266 0
M  V30 2664 H 262.595 -0.662327 0.107534 0
M  V30 2665 H 265.139 -1.81489 0.942438 0
M  V30 2666 H 263.294 -3.84278 -0.490858 0
M  V30 2667 H 263.708 -5.06743 1.35322 0
M  V30 2668 H 265.182 -5.51194 -0.298196 0
M  V30 2669 H 265.659 -4.1799 -1.34838 0
M  V30 2670 H 266.265 -4.24074 0.322716 0
M  V30 2671 N 264.58 -0.43555 -1.51462 0
M  V30 2672 C 265.81 0.130053 -2.0619 0
M  V30 2673 C 266.218 1.37164 -1.30317 0
M  V30 2674 O 265.561 1.80225 -0.355598 0
M  V30 2675 C 265.623 0.519418 -3.55728 0
M  V30 2676 C 265.287 -0.615119 -4.52841 0
M  V30 2677 C 266.284 -1.48671 -4.9819 0
M  V30 2678 C 263.969 -0.795341 -4.95963 0
M  V30 2679 C 265.963 -2.52324 -5.8533 0
M  V30 2680 C 263.65 -1.83514 -5.82894 0
M  V30 2681 C 264.648 -2.69748 -6.27475 0
M  V30 2682 O 264.336 -3.71944 -7.1268 0
M  V30 2683 H 264.068 0.0121612 -0.675891 0
M  V30 2684 H 266.622 -0.6129 -1.96043 0
M  V30 2685 H 264.852 1.31505 -3.63653 0
M  V30 2686 H 266.541 1.01597 -3.92979 0
M  V30 2687 H 267.307 -1.359 -4.65571 0
M  V30 2688 H 263.186 -0.133713 -4.60806 0
M  V30 2689 H 266.73 -3.19665 -6.20048 0
M  V30 2690 H 262.627 -1.96306 -6.14926 0
M  V30 2691 H 263.395 -3.68503 -7.30854 0
M  V30 2692 N 266.058 1.56714 -0.166846 0
M  V30 2693 C 267.474 1.58473 0.189372 0
M  V30 2694 C 267.674 1.18201 1.63189 0
M  V30 2695 O 266.73 0.891528 2.36237 0
M  V30 2696 C 268.043 3.00573 -0.0873872 0
M  V30 2697 C 269.591 3.1299 -0.0252443 0
M  V30 2698 C 270.066 4.57174 -0.274934 0
M  V30 2699 N 271.557 4.62665 -0.222553 0
M  V30 2700 C 272.292 5.72072 -0.389985 0
M  V30 2701 N 271.788 6.90054 -0.616229 0
M  V30 2702 N 273.581 5.61153 -0.326202 0
M  V30 2703 H 265.732 1.8118 -1.10849 0
M  V30 2704 H 267.995 0.839525 -0.440342 0
M  V30 2705 H 267.701 3.34497 -1.0865 0
M  V30 2706 H 267.575 3.72019 0.623037 0
M  V30 2707 H 269.962 2.78895 0.96444 0
M  V30 2708 H 270.043 2.43989 -0.768309 0
M  V30 2709 H 269.687 4.91976 -1.26181 0
M  V30 2710 H 269.617 5.24328 0.48869 0
M  V30 2711 H 272.108 3.77863 -0.0531512 0
M  V30 2712 H 272.421 7.69311 -0.733559 0
M  V30 2713 H 270.766 6.91927 -0.652791 0
M  V30 2714 H 273.957 4.67859 -0.150072 0
M  V30 2715 H 274.13 6.46364 -0.460116 0
M  V30 2716 N 267.536 -0.106894 1.57237 0
M  V30 2717 C 268.782 -0.81373 1.85759 0
M  V30 2718 C 269.115 -1.78952 0.754315 0
M  V30 2719 O 268.39 -1.93029 -0.23879 0
M  V30 2720 C 268.673 -1.55293 3.24894 0
M  V30 2721 C 268.526 -0.595929 4.45835 0
M  V30 2722 C 269.845 -2.5063 3.61763 0
M  V30 2723 H 266.964 -0.294369 0.67566 0
M  V30 2724 H 269.606 -0.0776472 1.89841 0
M  V30 2725 H 267.756 -2.1804 3.21544 0
M  V30 2726 H 269.428 0.0236262 4.61294 0
M  V30 2727 H 267.671 0.0916191 4.33703 0
M  V30 2728 H 268.342 -1.15004 5.39887 0
M  V30 2729 H 270.818 -1.97982 3.65981 0
M  V30 2730 H 269.694 -2.99376 4.60071 0
M  V30 2731 H 269.955 -3.3385 2.89821 0
M  V30 2732 N 269.014 -1.53014 -0.377408 0
M  V30 2733 C 270.26 -1.68872 -1.12294 0
M  V30 2734 C 270.593 -0.433224 -1.89306 0
M  V30 2735 O 269.868 0.569258 -1.85983 0
M  V30 2736 C 270.151 -2.93115 -2.09179 0
M  V30 2737 C 270.004 -4.28794 -1.35853 0
M  V30 2738 C 271.323 -3.12928 -3.09458 0
M  V30 2739 H 268.442 -0.614518 -0.406862 0
M  V30 2740 H 271.084 -1.85633 -0.40503 0
M  V30 2741 H 269.234 -2.78956 -2.70399 0
M  V30 2742 H 270.906 -4.54742 -0.775082 0
M  V30 2743 H 269.149 -4.28744 -0.660364 0
M  V30 2744 H 269.82 -5.11837 -2.06706 0
M  V30 2745 H 272.296 -3.26194 -2.58334 0
M  V30 2746 H 271.172 -4.01316 -3.74482 0
M  V30 2747 H 271.433 -2.27669 -3.78971 0
M  V30 2748 N 270.492 0.636531 -1.44174 0
M  V30 2749 C 271.717 1.42847 -1.50364 0
M  V30 2750 C 272.142 1.87665 -0.127867 0
M  V30 2751 O 271.5 1.58408 0.88185 0
M  V30 2752 C 271.548 2.62854 -2.4686 0
M  V30 2753 O 270.652 3.62501 -1.9664 0
M  V30 2754 H 269.993 0.427642 -0.507955 0
M  V30 2755 H 272.523 0.777422 -1.89255 0
M  V30 2756 H 272.533 3.10465 -2.64718 0
M  V30 2757 H 271.208 2.29578 -3.46795 0
M  V30 2758 H 269.785 3.21735 -1.88523 0
M  V30 2759 N 271.97 1.30982 0.876444 0
M  V30 2760 C 273.216 1.20474 1.63138 0
M  V30 2761 C 273.549 -0.238096 1.92735 0
M  V30 2762 O 272.824 -1.1692 1.55435 0
M  V30 2763 C 273.107 2.04244 2.96574 0
M  V30 2764 C 272.96 3.56793 2.73896 0
M  V30 2765 C 274.279 1.88684 3.97601 0
M  V30 2766 H 271.398 0.439001 0.591985 0
M  V30 2767 H 274.04 1.60704 1.01361 0
M  V30 2768 H 272.19 1.70063 3.493 0
M  V30 2769 H 273.862 4.01077 2.27892 0
M  V30 2770 H 272.105 3.80548 2.08245 0
M  V30 2771 H 272.776 4.10706 3.68815 0
M  V30 2772 H 275.252 2.18584 3.54062 0
M  V30 2773 H 274.128 2.4961 4.88862 0
M  V30 2774 H 274.389 0.848343 4.33884 0
M  V30 2775 N 273.449 -1.08991 1.13837 0
M  V30 2776 C 274.379 -2.17771 0.842507 0
M  V30 2777 C 275.36 -1.6892 -0.20001 0
M  V30 2778 O 276.545 -1.94113 -0.0579731 0
M  V30 2779 C 273.675 -3.4589 0.312644 0
M  V30 2780 C 272.629 -4.08099 1.28992 0
M  V30 2781 C 271.955 -5.31098 0.619623 0
M  V30 2782 C 273.255 -4.50077 2.65005 0
M  V30 2783 H 274.949 -2.42777 1.75213 0
M  V30 2784 H 272.495 -1.16682 0.843875 0
M  V30 2785 H 274.448 -4.21297 0.0933043 0
M  V30 2786 H 273.172 -3.20419 -0.632382 0
M  V30 2787 H 271.831 -3.34717 1.49533 0
M  V30 2788 H 271.479 -5.0191 -0.33102 0
M  V30 2789 H 271.179 -5.73674 1.27167 0
M  V30 2790 H 272.703 -6.09224 0.409669 0
M  V30 2791 H 274.117 -5.16688 2.48407 0
M  V30 2792 H 272.514 -5.03553 3.26427 0
M  V30 2793 H 273.584 -3.62257 3.22332 0
M  V30 2794 N 274.927 -0.932562 -1.27047 0
M  V30 2795 C 276.155 -0.592031 -1.98249 0
M  V30 2796 C 276.57 0.831062 -1.69525 0
M  V30 2797 O 275.927 1.55299 -0.958561 0
M  V30 2798 C 275.978 -0.814279 -3.5221 0
M  V30 2799 O 275.699 -2.18139 -3.7993 0
M  V30 2800 C 277.2 -0.483121 -4.4066 0
M  V30 2801 H 274.42 -0.223896 -0.632544 0
M  V30 2802 H 276.964 -1.25091 -1.61779 0
M  V30 2803 H 275.119 -0.20213 -3.86872 0
M  V30 2804 H 275.533 -2.235 -4.74498 0
M  V30 2805 H 277.007 -0.689298 -5.47679 0
M  V30 2806 H 277.484 0.581546 -4.35333 0
M  V30 2807 H 278.09 -1.07362 -4.11526 0
M  V30 2808 N 276.405 1.4127 -0.698611 0
M  V30 2809 C 277.651 2.01478 -0.231207 0
M  V30 2810 C 277.984 1.55215 1.16713 0
M  V30 2811 O 277.259 0.764672 1.78838 0
M  V30 2812 C 277.542 3.58912 -0.292281 0
M  V30 2813 C 277.395 4.15293 -1.72778 0
M  V30 2814 C 278.714 4.38736 0.346194 0
M  V30 2815 H 275.833 0.732025 -0.0854878 0
M  V30 2816 H 278.475 1.67977 -0.887906 0
M  V30 2817 H 276.625 3.87582 0.26686 0
M  V30 2818 H 278.297 3.97486 -2.341 0
M  V30 2819 H 276.54 3.7022 -2.26096 0
M  V30 2820 H 277.211 5.24452 -1.72202 0
M  V30 2821 H 279.687 4.15897 -0.130035 0
M  V30 2822 H 278.563 5.48221 0.272932 0
M  V30 2823 H 278.824 4.18425 1.42734 0
M  V30 2824 N 277.883 0.443576 1.51229 0
M  V30 2825 C 278.813 -0.355142 2.30783 0
M  V30 2826 C 279.794 -1.0154 1.36468 0
M  V30 2827 O 280.979 -1.01785 1.65389 0
M  V30 2828 C 278.109 -1.45312 3.15439 0
M  V30 2829 C 277.063 -0.916002 4.18083 0
M  V30 2830 C 276.389 -2.1102 4.91299 0
M  V30 2831 C 277.689 0.0538602 5.22272 0
M  V30 2832 H 279.383 0.308767 2.97804 0
M  V30 2833 H 276.929 0.149937 1.43217 0
M  V30 2834 H 278.882 -2.01914 3.69876 0
M  V30 2835 H 277.606 -2.14541 2.46252 0
M  V30 2836 H 276.265 -0.372145 3.64706 0
M  V30 2837 H 275.913 -2.78882 4.18609 0
M  V30 2838 H 275.613 -1.75717 5.60712 0
M  V30 2839 H 277.137 -2.68164 5.48562 0
M  V30 2840 H 278.551 -0.422069 5.71744 0
M  V30 2841 H 276.948 0.319776 5.99247 0
M  V30 2842 H 278.018 0.98858 4.74716 0
M  V30 2843 N 279.361 -1.56624 0.175154 0
M  V30 2844 C 280.311 -2.14747 -0.766004 0
M  V30 2845 C 281.295 -1.08275 -1.19018 0
M  V30 2846 O 282.487 -1.34388 -1.15191 0
M  V30 2847 C 279.616 -2.79478 -1.99366 0
M  V30 2848 C 278.702 -3.93114 -1.5913 0
M  V30 2849 N 279.093 -4.97752 -0.89872 0
M  V30 2850 C 277.391 -4.04345 -1.88204 0
M  V30 2851 C 278.092 -5.77473 -0.700012 0
M  V30 2852 N 277.068 -5.29207 -1.24263 0
M  V30 2853 H 280.87 -2.93015 -0.22793 0
M  V30 2854 H 278.384 -1.6238 -0.0253843 0
M  V30 2855 H 280.381 -3.19498 -2.67818 0
M  V30 2856 H 279.041 -2.02692 -2.53665 0
M  V30 2857 H 280.052 -5.14903 -0.556347 0
M  V30 2858 H 276.729 -3.38667 -2.44153 0
M  V30 2859 H 278.119 -6.71728 -0.152047 0
M  V30 2860 N 280.839 0.0985539 -1.57292 0
M  V30 2861 C 281.771 1.14595 -1.98496 0
M  V30 2862 C 282.784 1.36512 -0.887031 0
M  V30 2863 O 283.973 1.35225 -1.16518 0
M  V30 2864 C 281.073 2.50216 -2.28572 0
M  V30 2865 C 280.246 2.48624 -3.59868 0
M  V30 2866 C 279.305 3.66146 -3.7792 0
M  V30 2867 O 278.331 3.48795 -4.49812 0
M  V30 2868 N 279.533 4.85496 -3.18235 0
M  V30 2869 H 282.298 0.795277 -2.88956 0
M  V30 2870 H 279.859 0.287579 -1.59325 0
M  V30 2871 H 281.851 3.27432 -2.37845 0
M  V30 2872 H 280.421 2.77387 -1.44136 0
M  V30 2873 H 279.641 1.56978 -3.61596 0
M  V30 2874 H 280.929 2.44635 -4.46129 0
M  V30 2875 H 280.327 5.02497 -2.59833 0
M  V30 2876 H 278.884 5.60317 -3.32999 0
M  V30 2877 N 282.317 1.53212 0.369288 0
M  V30 2878 C 283.594 1.59815 1.12776 0
M  V30 2879 C 283.974 0.403402 2.0721 0
M  V30 2880 O 283.322 -0.606667 2.20299 0
M  V30 2881 C 283.532 2.94664 1.87013 0
M  V30 2882 C 284.88 3.49109 2.41677 0
M  V30 2883 O 285.904 2.96669 1.97144 0
M  V30 2884 O 284.763 4.40775 3.23079 0
M  V30 2885 H 281.857 0.645376 0.517125 0
M  V30 2886 H 284.403 1.65553 0.37285 0
M  V30 2887 H 283.175 3.73061 1.18071 0
M  V30 2888 H 282.798 2.92401 2.69421 0
M  V30 2889 N 283.795 -0.628877 1.44509 0
M  V30 2890 C 285.041 -1.38863 1.48623 0
M  V30 2891 C 285.396 -1.92038 0.117933 0
M  V30 2892 O 284.689 -1.70853 -0.86716 0
M  V30 2893 C 284.883 -2.56995 2.48371 0
M  V30 2894 C 284.712 -2.15385 3.94765 0
M  V30 2895 C 283.482 -2.02558 4.62924 0
M  V30 2896 C 285.68 -1.74158 4.83915 0
M  V30 2897 N 283.662 -1.54534 5.94132 0
M  V30 2898 C 285.033 -1.37396 6.04584 0
M  V30 2899 C 287.088 -1.61559 4.7096 0
M  V30 2900 C 285.791 -0.892948 7.13736 0
M  V30 2901 C 287.817 -1.14862 5.80139 0
M  V30 2902 C 287.179 -0.790516 6.9995 0
M  V30 2903 H 283.278 -0.502858 0.59888 0
M  V30 2904 H 285.862 -0.72121 1.8085 0
M  V30 2905 H 284.033 -3.21362 2.1813 0
M  V30 2906 H 285.765 -3.23801 2.42766 0
M  V30 2907 H 282.52 -2.23082 4.1777 0
M  V30 2908 H 282.944 -1.32815 6.63844 0
M  V30 2909 H 287.586 -1.87876 3.78764 0
M  V30 2910 H 285.304 -0.617291 8.05739 0
M  V30 2911 H 288.89 -1.05569 5.72142 0
M  V30 2912 H 287.77 -0.434713 7.82994 0
M  V30 2913 N 285.273 -1.31445 -0.869486 0
M  V30 2914 C 286.203 -1.21727 -1.99261 0
M  V30 2915 C 287.184 -0.104359 -1.6978 0
M  V30 2916 O 288.369 -0.289038 -1.92037 0
M  V30 2917 C 285.499 -0.924317 -3.34774 0
M  V30 2918 C 284.453 -1.99685 -3.78563 0
M  V30 2919 C 283.779 -1.55658 -5.11541 0
M  V30 2920 C 285.079 -3.41003 -3.95619 0
M  V30 2921 H 286.773 -2.1569 -2.07649 0
M  V30 2922 H 284.319 -1.03839 -0.997675 0
M  V30 2923 H 286.272 -0.842934 -4.12883 0
M  V30 2924 H 284.996 0.0509793 -3.2656 0
M  V30 2925 H 283.655 -2.06813 -3.02694 0
M  V30 2926 H 283.303 -0.569132 -4.9977 0
M  V30 2927 H 283.003 -2.27409 -5.41811 0
M  V30 2928 H 284.527 -1.48928 -5.92159 0
M  V30 2929 H 285.941 -3.36547 -4.64122 0
M  V30 2930 H 284.338 -4.10975 -4.37286 0
M  V30 2931 H 285.408 -3.81754 -2.98985 0
M  V30 2932 N 286.751 1.08385 -1.14413 0
M  V30 2933 C 287.699 2.17406 -0.826888 0
M  V30 2934 C 288.693 1.6827 0.195312 0
M  V30 2935 O 289.899 1.79927 0.0513892 0
M  V30 2936 H 286.274 0.70934 -0.249681 0
M  V30 2937 H 288.245 2.41388 -1.75426 0
M  V30 2938 C 286.994 3.46215 -0.320979 0
M  V30 2939 H 286.317 3.84401 -1.0989 0
M  V30 2940 H 287.757 4.23777 -0.137549 0
M  V30 2941 C 286.216 3.23067 0.955472 0
M  V30 2942 O 286.746 3.4668 2.02918 0
M  V30 2943 N 284.952 2.7661 0.890798 0
M  V30 2944 H 284.499 2.57594 0.0168815 0
M  V30 2945 H 284.457 2.61501 1.74542 0
M  V30 2946 N 288.23 0.939286 1.26551 0
M  V30 2947 C 289.478 0.58469 1.93457 0
M  V30 2948 C 289.799 -0.878774 1.74076 0
M  V30 2949 O 289.069 -1.62421 1.09528 0
M  V30 2950 H 287.649 0.21325 0.715914 0
M  V30 2951 H 290.311 1.1942 1.54029 0
M  V30 2952 H 289.407 0.800849 3.0165 0
M  V30 2953 N 289.708 -1.40897 0.706093 0
M  V30 2954 C 290.655 -2.30751 0.0474474 0
M  V30 2955 C 291.625 -1.47678 -0.76029 0
M  V30 2956 O 292.81 -1.76441 -0.726177 0
M  V30 2957 C 289.95 -3.33815 -0.875309 0
M  V30 2958 C 289.063 -4.31961 -0.0580623 0
M  V30 2959 C 288.198 -5.22093 -0.979425 0
M  V30 2960 C 287.237 -6.11902 -0.155706 0
M  V30 2961 N 286.374 -6.94482 -1.03144 0
M  V30 2962 H 291.214 -2.86513 0.819413 0
M  V30 2963 H 288.751 -1.41102 0.415783 0
M  V30 2964 H 290.709 -3.92129 -1.42446 0
M  V30 2965 H 289.339 -2.79579 -1.61356 0
M  V30 2966 H 288.391 -3.75507 0.608147 0
M  V30 2967 H 289.703 -4.95415 0.580082 0
M  V30 2968 H 288.857 -5.85292 -1.59744 0
M  V30 2969 H 287.596 -4.5889 -1.65141 0
M  V30 2970 H 286.601 -5.47742 0.475309 0
M  V30 2971 H 287.826 -6.77162 0.512635 0
M  V30 2972 H 285.772 -6.33877 -1.68924 0
M  V30 2973 H 285.689 -7.54665 -0.449108 0
M  V30 2974 H 286.957 -7.6214 -1.63593 0
M  V30 2975 N 291.186 -0.45159 -1.50991 0
M  V30 2976 C 292.096 0.358431 -2.31846 0
M  V30 2977 C 293.112 1.01438 -1.41373 0
M  V30 2978 O 294.288 1.00663 -1.74439 0
M  V30 2979 C 291.353 1.43704 -3.15515 0
M  V30 2980 C 290.414 0.799742 -4.21785 0
M  V30 2981 C 289.647 1.82696 -5.01456 0
M  V30 2982 O 289.87 3.05105 -4.81941 0
M  V30 2983 O 288.804 1.40958 -5.85162 0
M  V30 2984 H 292.63 -0.302032 -3.02194 0
M  V30 2985 H 290.215 -0.213825 -1.47862 0
M  V30 2986 H 292.097 2.06227 -3.67489 0
M  V30 2987 H 290.772 2.08133 -2.47916 0
M  V30 2988 H 289.679 0.136084 -3.73852 0
M  V30 2989 H 291.012 0.198718 -4.91799 0
M  V30 2990 N 292.664 1.56529 -0.183458 0
M  V30 2991 C 293.894 2.01331 0.463612 0
M  V30 2992 C 294.302 1.06278 1.5653 0
M  V30 2993 O 293.645 0.0577976 1.83609 0
M  V30 2994 C 293.707 3.42547 1.09096 0
M  V30 2995 C 293.371 4.56817 0.129442 0
M  V30 2996 C 294.368 5.15734 -0.656807 0
M  V30 2997 C 292.053 5.02295 0.02174 0
M  V30 2998 C 294.047 6.1857 -1.53784 0
M  V30 2999 C 291.734 6.04978 -0.862864 0
M  V30 3000 C 292.732 6.62988 -1.64123 0
M  V30 3001 O 292.42 7.63677 -2.51103 0
M  V30 3002 H 292.152 0.664917 0.121907 0
M  V30 3003 H 294.706 2.034 -0.285954 0
M  V30 3004 H 292.936 3.37428 1.88889 0
M  V30 3005 H 294.625 3.71228 1.64148 0
M  V30 3006 H 295.391 4.81473 -0.583839 0
M  V30 3007 H 291.27 4.56847 0.617392 0
M  V30 3008 H 294.814 6.63777 -2.14583 0
M  V30 3009 H 290.711 6.38663 -0.93699 0
M  V30 3010 H 291.479 7.81049 -2.44753 0
M  V30 3011 N 294.142 -0.090211 1.57342 0
M  V30 3012 C 295.089 -1.10909 2.02405 0
M  V30 3013 C 296.059 -1.39523 0.901252 0
M  V30 3014 O 297.244 -1.50903 1.1676 0
M  V30 3015 C 294.384 -2.42277 2.45755 0
M  V30 3016 C 293.497 -2.20352 3.71576 0
M  V30 3017 C 292.632 -3.45154 4.03785 0
M  V30 3018 C 291.671 -3.18512 5.22701 0
M  V30 3019 N 290.808 -4.35593 5.50639 0
M  V30 3020 H 295.648 -0.71782 2.89225 0
M  V30 3021 H 293.185 -0.342901 1.43048 0
M  V30 3022 H 295.143 -3.18951 2.68935 0
M  V30 3023 H 293.773 -2.79242 1.61938 0
M  V30 3024 H 292.825 -1.34458 3.55844 0
M  V30 3025 H 294.137 -1.96661 4.58395 0
M  V30 3026 H 293.291 -4.30233 4.27767 0
M  V30 3027 H 292.03 -3.71904 3.15498 0
M  V30 3028 H 291.035 -2.31827 4.98534 0
M  V30 3029 H 292.26 -2.93103 6.12591 0
M  V30 3030 H 290.206 -4.6241 4.6531 0
M  V30 3031 H 290.123 -4.1511 6.31838 0
M  V30 3032 H 291.391 -5.21723 5.7916 0
M  V30 3033 N 295.62 -1.53406 -0.361157 0
M  V30 3034 C 296.86 -1.71507 -1.11197 0
M  V30 3035 C 297.224 -0.459337 -1.86425 0
M  V30 3036 O 298.425 -0.517102 -2.63779 0
M  V30 3037 C 296.696 -2.93307 -2.0422 0
M  V30 3038 S 298.255 -3.32135 -2.86761 0
M  V30 3039 H 295.073 -0.603448 -0.375995 0
M  V30 3040 H 297.675 -1.91516 -0.392642 0
M  V30 3041 H 296.379 -3.82891 -1.47724 0
M  V30 3042 H 295.91 -2.75712 -2.80618 0
M  V30 3043 H 297.925 -2.84493 -4.06544 0
M  V30 3044 N 297.098 0.621204 -1.44841 0
M  V30 3045 C 298.045 1.73267 -1.5247 0
M  V30 3046 C 299.015 1.6189 -0.371611 0
M  V30 3047 O 300.2 1.81668 -0.58321 0
M  V30 3048 C 297.34 3.11545 -1.48438 0
M  V30 3049 C 296.453 3.33827 -2.74196 0
M  V30 3050 C 295.588 4.62133 -2.61929 0
M  V30 3051 C 294.627 4.77627 -3.82804 0
M  V30 3052 N 293.764 5.97219 -3.69153 0
M  V30 3053 H 298.604 1.66082 -2.47428 0
M  V30 3054 H 296.141 0.810026 -1.22788 0
M  V30 3055 H 298.099 3.91528 -1.4409 0
M  V30 3056 H 296.729 3.1772 -0.570402 0
M  V30 3057 H 295.781 2.47715 -2.88689 0
M  V30 3058 H 297.093 3.41153 -3.6389 0
M  V30 3059 H 296.247 5.50291 -2.5547 0
M  V30 3060 H 294.986 4.57182 -1.69811 0
M  V30 3061 H 293.991 3.87896 -3.89637 0
M  V30 3062 H 295.216 4.84385 -4.75971 0
M  V30 3063 H 293.162 5.93339 -2.79794 0
M  V30 3064 H 293.079 6.05644 -4.52472 0
M  V30 3065 H 294.347 6.87912 -3.66603 0
M  V30 3066 N 298.576 1.31904 0.862503 0
M  V30 3067 C 299.822 1.22197 1.61851 0
M  V30 3068 C 300.155 -0.217641 1.92977 0
M  V30 3069 O 299.43 -1.15264 1.56666 0
M  V30 3070 C 299.713 2.07378 2.94391 0
M  V30 3071 C 299.566 3.59678 2.70096 0
M  V30 3072 C 300.885 1.92891 3.95577 0
M  V30 3073 H 298.004 0.445255 0.587296 0
M  V30 3074 H 300.646 1.6177 0.99651 0
M  V30 3075 H 298.796 1.73758 3.47477 0
M  V30 3076 H 300.468 4.03472 2.23625 0
M  V30 3077 H 298.711 3.82735 2.04197 0
M  V30 3078 H 299.382 4.14595 3.64438 0
M  V30 3079 H 301.858 2.22327 3.51724 0
M  V30 3080 H 300.734 2.54781 4.86187 0
M  V30 3081 H 300.995 0.894315 4.3296 0
M  V30 3082 N 300.054 -1.07777 1.14986 0
M  V30 3083 C 301.279 -1.84558 0.946213 0
M  V30 3084 C 301.704 -1.81323 -0.500362 0
M  V30 3085 O 301.062 -1.20301 -1.35637 0
M  V30 3086 C 301.11 -3.29736 1.45968 0
M  V30 3087 O 300.214 -4.07149 0.65601 0
M  V30 3088 H 299.555 -0.571641 0.33782 0
M  V30 3089 H 302.085 -1.35991 1.52865 0
M  V30 3090 H 302.095 -3.80574 1.47063 0
M  V30 3091 H 300.77 -3.31406 2.51283 0
M  V30 3092 H 299.347 -3.65994 0.714322 0
M  V30 3093 N 301.532 -0.945985 -1.26051 0
M  V30 3094 C 302.48 -0.450259 -2.282 0
M  V30 3095 C 303.474 0.47497 -1.62605 0
M  V30 3096 O 304.68 0.352653 -1.76512 0
M  V30 3097 H 301.055 -0.127081 -0.741184 0
M  V30 3098 H 303.026 -1.32422 -2.67408 0
M  V30 3099 C 301.775 0.26467 -3.46691 0
M  V30 3100 H 301.098 -0.438123 -3.97392 0
M  V30 3101 H 302.538 0.575678 -4.20074 0
M  V30 3102 C 300.997 1.48416 -3.02447 0
M  V30 3103 O 301.527 2.58227 -3.07704 0
M  V30 3104 N 299.733 1.34243 -2.57735 0
M  V30 3105 H 299.28 0.448994 -2.53657 0
M  V30 3106 H 299.238 2.15957 -2.28495 0
M  V30 3107 N 303.011 1.40521 -0.713556 0
M  V30 3108 C 303.958 2.30723 -0.059684 0
M  V30 3109 C 304.928 1.48079 0.752448 0
M  V30 3110 O 306.113 1.76823 0.71681 0
M  V30 3111 C 303.253 3.34274 0.857594 0
M  V30 3112 C 302.366 4.31986 0.0351536 0
M  V30 3113 C 301.501 5.22605 0.951724 0
M  V30 3114 C 300.54 6.11976 0.123253 0
M  V30 3115 N 299.677 6.9502 0.99459 0
M  V30 3116 H 304.517 2.86074 -0.834596 0
M  V30 3117 H 302.054 1.40879 -0.42326 0
M  V30 3118 H 304.012 3.92879 1.40364 0
M  V30 3119 H 302.642 2.8043 1.59871 0
M  V30 3120 H 301.694 3.7518 -0.628052 0
M  V30 3121 H 303.006 4.95101 -0.606347 0
M  V30 3122 H 302.16 5.86131 1.56638 0
M  V30 3123 H 300.899 4.59759 1.62705 0
M  V30 3124 H 299.904 5.47482 -0.50435 0
M  V30 3125 H 301.129 6.76881 -0.548539 0
M  V30 3126 H 299.075 6.34764 1.6556 0
M  V30 3127 H 298.992 7.54892 0.40908 0
M  V30 3128 H 300.26 7.62997 1.59549 0
M  V30 3129 N 304.489 0.459591 1.5075 0
M  V30 3130 C 305.737 -0.0991532 2.01857 0
M  V30 3131 C 306.058 -1.41247 1.34441 0
M  V30 3132 O 305.328 -1.89775 0.486022 0
M  V30 3133 H 303.908 -0.039633 0.745948 0
M  V30 3134 H 306.57 0.607387 1.85194 0
M  V30 3135 H 305.666 -0.258998 3.11023 0
M  V30 3136 N 305.967 -1.56429 0.191757 0
M  V30 3137 C 306.897 -2.21937 -0.725696 0
M  V30 3138 C 307.878 -1.1814 -1.2238 0
M  V30 3139 O 309.063 -1.46636 -1.27325 0
M  V30 3140 C 306.193 -2.87611 -1.94672 0
M  V30 3141 C 305.147 -3.97623 -1.58366 0
M  V30 3142 C 304.473 -4.50446 -2.88102 0
M  V30 3143 C 305.773 -5.16197 -0.796133 0
M  V30 3144 H 307.467 -2.98861 -0.179606 0
M  V30 3145 H 305.013 -1.43749 -0.0849464 0
M  V30 3146 H 306.966 -3.3212 -2.59373 0
M  V30 3147 H 305.69 -2.08087 -2.51728 0
M  V30 3148 H 304.349 -3.53801 -0.960247 0
M  V30 3149 H 303.997 -3.67688 -3.43241 0
M  V30 3150 H 303.697 -5.24675 -2.64556 0
M  V30 3151 H 305.221 -4.97654 -3.53798 0
M  V30 3152 H 306.635 -5.57271 -1.34618 0
M  V30 3153 H 305.032 -5.96471 -0.658928 0
M  V30 3154 H 306.102 -4.84473 0.203478 0
M  V30 3155 N 307.445 0.0818655 -1.57387 0
M  V30 3156 C 308.856 0.634871 -1.75574 0
M  V30 3157 C 309.207 1.78435 -0.815809 0
M  V30 3158 O 308.332 2.164 0.0025366 0
M  V30 3159 C 308.927 1.15845 -3.18379 0
M  V30 3160 C 307.486 1.65741 -3.37945 0
M  V30 3161 C 306.633 0.572549 -2.71325 0
M  V30 3162 H 309.584 -0.144268 -1.58043 0
M  V30 3163 H 309.605 2.02751 -3.21982 0
M  V30 3164 H 309.117 0.321631 -3.86765 0
M  V30 3165 H 307.218 2.51781 -2.74658 0
M  V30 3166 H 307.331 1.74129 -4.46336 0
M  V30 3167 H 305.695 1.01518 -2.33594 0
M  V30 3168 H 306.478 -0.253918 -3.4236 0
M  V30 3169 N 308.923 1.53595 0.353017 0
M  V30 3170 C 310.148 1.7462 1.11904 0
M  V30 3171 C 310.573 0.479721 1.8188 0
M  V30 3172 O 309.931 -0.567066 1.72204 0
M  V30 3173 C 309.979 2.92029 2.11545 0
M  V30 3174 O 309.083 2.61516 3.18878 0
M  V30 3175 H 308.424 0.579531 0.324099 0
M  V30 3176 H 310.954 2.00525 0.406301 0
M  V30 3177 H 310.964 3.18551 2.5493 0
M  V30 3178 H 309.639 3.83888 1.60008 0
M  V30 3179 H 308.216 2.45852 2.80377 0
M  V30 3180 N 310.401 -0.613514 1.45168 0
M  V30 3181 C 311.626 -1.40437 1.52618 0
M  V30 3182 C 312.051 -1.87438 0.157707 0
M  V30 3183 O 311.409 -1.59791 -0.856537 0
M  V30 3184 C 311.457 -2.58894 2.51011 0
M  V30 3185 O 310.561 -3.59326 2.02382 0
M  V30 3186 H 309.902 -0.419506 0.514695 0
M  V30 3187 H 312.432 -0.747215 1.90467 0
M  V30 3188 H 312.442 -3.06214 2.69624 0
M  V30 3189 H 311.117 -2.24032 3.50403 0
M  V30 3190 H 309.694 -3.18695 1.93618 0
M  V30 3191 N 311.879 -1.3236 -0.855495 0
M  V30 3192 C 313.128 -1.22226 -1.60448 0
M  V30 3193 C 313.441 0.214733 -1.94418 0
M  V30 3194 O 314.647 0.437917 -2.67945 0
M  V30 3195 C 313.103 -2.14063 -2.89318 0
M  V30 3196 C 312.711 -3.62839 -2.62777 0
M  V30 3197 C 314.455 -2.12764 -3.67331 0
M  V30 3198 C 312.362 -4.4664 -3.87643 0
M  V30 3199 H 311.292 -0.453904 -0.602069 0
M  V30 3200 H 313.943 -1.57314 -0.944698 0
M  V30 3201 H 312.325 -1.71889 -3.5675 0
M  V30 3202 H 313.499 -4.1335 -2.03662 0
M  V30 3203 H 311.814 -3.66261 -1.98096 0
M  V30 3204 H 314.411 -2.72611 -4.59987 0
M  V30 3205 H 314.754 -1.11841 -4.00995 0
M  V30 3206 H 315.287 -2.53214 -3.06802 0
M  V30 3207 H 312.026 -5.48373 -3.5912 0
M  V30 3208 H 311.546 -4.0088 -4.46156 0
M  V30 3209 H 313.225 -4.59597 -4.55389 0
M  V30 3210 N 313.357 1.07166 -1.15556 0
M  V30 3211 C 314.267 2.17947 -0.868116 0
M  V30 3212 C 315.283 1.73297 0.156297 0
M  V30 3213 O 316.459 2.01392 -0.0182327 0
M  V30 3214 C 313.524 3.44789 -0.36355 0
M  V30 3215 C 312.585 4.03996 -1.45209 0
M  V30 3216 C 311.818 5.24783 -0.971508 0
M  V30 3217 O 312.041 5.70109 0.182194 0
M  V30 3218 O 310.975 5.75715 -1.75603 0
M  V30 3219 H 314.801 2.4503 -1.79427 0
M  V30 3220 H 312.386 1.16539 -0.934824 0
M  V30 3221 H 314.268 4.21307 -0.0887113 0
M  V30 3222 H 312.943 3.19253 0.534708 0
M  V30 3223 H 311.85 3.29009 -1.78056 0
M  V30 3224 H 313.183 4.33808 -2.32533 0
M  V30 3225 N 314.835 0.952656 1.25548 0
M  V30 3226 C 315.782 0.47008 2.25962 0
M  V30 3227 C 316.752 -0.476384 1.59122 0
M  V30 3228 O 317.937 -0.39007 1.8677 0
M  V30 3229 C 315.077 -0.247881 3.44209 0
M  V30 3230 C 314.19 0.735591 4.25691 0
M  V30 3231 C 313.325 -0.0047306 5.312 0
M  V30 3232 C 312.364 0.969805 6.04368 0
M  V30 3233 N 311.501 0.260486 7.01617 0
M  V30 3234 H 316.341 1.33126 2.66611 0
M  V30 3235 H 313.878 0.66765 1.31076 0
M  V30 3236 H 315.836 -0.680695 4.1161 0
M  V30 3237 H 314.466 -1.07312 3.0444 0
M  V30 3238 H 313.518 1.28689 3.57971 0
M  V30 3239 H 314.83 1.47934 4.76358 0
M  V30 3240 H 313.984 -0.496275 6.04667 0
M  V30 3241 H 312.723 -0.781282 4.81401 0
M  V30 3242 H 311.728 1.47237 5.29718 0
M  V30 3243 H 312.953 1.74655 6.56256 0
M  V30 3244 H 310.899 -0.497364 6.54112 0
M  V30 3245 H 310.816 0.943362 7.50091 0
M  V30 3246 H 312.084 -0.209587 7.79218 0
M  V30 3247 N 316.313 -1.40141 0.720998 0
M  V30 3248 C 317.541 -2.05096 0.272656 0
M  V30 3249 C 317.956 -1.54334 -1.0875 0
M  V30 3250 O 317.313 -0.702211 -1.6845 0
M  V30 3251 C 317.364 -3.60636 0.249835 0
M  V30 3252 O 317.085 -4.09526 1.55629 0
M  V30 3253 C 318.586 -4.42772 -0.216396 0
M  V30 3254 H 315.806 -0.659897 0.121558 0
M  V30 3255 H 318.35 -1.79449 0.980723 0
M  V30 3256 H 316.505 -3.85232 -0.409237 0
M  V30 3257 H 316.919 -5.03758 1.4604 0
M  V30 3258 H 318.393 -5.51702 -0.181212 0
M  V30 3259 H 318.87 -4.20756 -1.25941 0
M  V30 3260 H 319.476 -4.23294 0.412596 0
M  V30 3261 N 317.792 -0.46758 -1.50504 0
M  V30 3262 C 319.041 0.0902868 -2.01498 0
M  V30 3263 C 319.354 1.411 -1.35463 0
M  V30 3264 O 320.56 2.0536 -1.77594 0
M  V30 3265 C 319.016 0.21142 -3.59278 0
M  V30 3266 C 318.624 -1.10065 -4.34269 0
M  V30 3267 C 320.368 0.721433 -4.18325 0
M  V30 3268 C 318.275 -0.943505 -5.83825 0
M  V30 3269 H 317.205 0.037517 -0.753066 0
M  V30 3270 H 319.856 -0.601943 -1.73346 0
M  V30 3271 H 318.238 0.967352 -3.84003 0
M  V30 3272 H 319.412 -1.86726 -4.21272 0
M  V30 3273 H 317.727 -1.5415 -3.86816 0
M  V30 3274 H 320.324 0.85598 -5.27804 0
M  V30 3275 H 320.667 1.71186 -3.79475 0
M  V30 3276 H 321.2 0.0229843 -3.97793 0
M  V30 3277 H 317.939 -1.90719 -6.27141 0
M  V30 3278 H 317.459 -0.217213 -5.99407 0
M  V30 3279 H 319.138 -0.608715 -6.4413 0
M  V30 3280 N 319.27 1.56325 -0.20005 0
M  V30 3281 C 320.495 2.02548 0.44597 0
M  V30 3282 C 320.92 1.07922 1.5406 0
M  V30 3283 O 320.278 0.0635775 1.81188 0
M  V30 3284 C 320.326 3.47175 0.974761 0
M  V30 3285 O 319.43 3.55671 2.08739 0
M  V30 3286 H 318.771 0.655862 0.103638 0
M  V30 3287 H 321.301 2.02201 -0.312381 0
M  V30 3288 H 321.311 3.87067 1.2901 0
M  V30 3289 H 319.986 4.15538 0.17347 0
M  V30 3290 H 318.563 3.27657 1.78032 0
M  V30 3291 N 320.748 -0.0735177 1.57428 0
M  V30 3292 C 321.695 -1.08756 2.0357 0
M  V30 3293 C 322.665 -1.38559 0.916 0
M  V30 3294 O 323.85 -1.49656 1.18354 0
M  V30 3295 C 320.99 -2.39657 2.48311 0
M  V30 3296 C 320.103 -2.16399 3.73892 0
M  V30 3297 C 319.238 -3.40852 4.07423 0
M  V30 3298 C 318.277 -3.1295 5.2605 0
M  V30 3299 N 317.414 -4.29729 5.55228 0
M  V30 3300 H 322.254 -0.687104 2.8997 0
M  V30 3301 H 319.791 -0.327709 1.43403 0
M  V30 3302 H 321.749 -3.16081 2.72303 0
M  V30 3303 H 320.379 -2.77508 1.64891 0
M  V30 3304 H 319.431 -1.30676 3.57251 0
M  V30 3305 H 320.743 -1.91788 4.60455 0
M  V30 3306 H 319.897 -4.25671 4.32306 0
M  V30 3307 H 318.636 -3.68537 3.19425 0
M  V30 3308 H 317.641 -2.26526 5.00965 0
M  V30 3309 H 318.866 -2.86589 6.15665 0
M  V30 3310 H 316.812 -4.57448 4.70188 0
M  V30 3311 H 316.729 -4.08385 6.36206 0
M  V30 3312 H 317.997 -5.1555 5.84661 0
M  V30 3313 N 322.226 -1.5378 -0.344866 0
M  V30 3314 C 323.189 -1.80981 -1.40637 0
M  V30 3315 C 324.189 -0.680816 -1.45676 0
M  V30 3316 O 325.379 -0.949095 -1.46075 0
M  V30 3317 C 322.511 -1.95063 -2.79577 0
M  V30 3318 H 323.704 -2.75803 -1.17783 0
M  V30 3319 H 321.257 -1.45173 -0.579181 0
M  V30 3320 H 321.992 -1.02379 -3.07716 0
M  V30 3321 H 321.777 -2.77198 -2.77315 0
M  V30 3322 H 323.267 -2.17629 -3.56409 0
M  V30 3323 N 323.704 0.605807 -1.45491 0
M  V30 3324 C 324.651 1.7164 -1.54299 0
M  V30 3325 C 325.621 1.61486 -0.388761 0
M  V30 3326 O 326.806 1.81039 -0.602445 0
M  V30 3327 C 323.946 3.09953 -1.51734 0
M  V30 3328 C 323.059 3.309 -2.77721 0
M  V30 3329 C 322.194 4.59329 -2.66816 0
M  V30 3330 C 321.233 4.7354 -3.87848 0
M  V30 3331 N 320.37 5.9327 -3.75467 0
M  V30 3332 H 325.21 1.63449 -2.49176 0
M  V30 3333 H 322.747 0.796957 -1.23641 0
M  V30 3334 H 324.705 3.89977 -1.48235 0
M  V30 3335 H 323.335 3.17098 -0.604068 0
M  V30 3336 H 322.387 2.44639 -2.913 0
M  V30 3337 H 323.699 3.37274 -3.67488 0
M  V30 3338 H 322.853 5.4755 -2.61292 0
M  V30 3339 H 321.592 4.55355 -1.74651 0
M  V30 3340 H 320.597 3.83741 -3.93729 0
M  V30 3341 H 321.822 4.79309 -4.81082 0
M  V30 3342 H 319.768 5.90338 -2.86072 0
M  V30 3343 H 319.685 6.00811 -4.5887 0
M  V30 3344 H 320.953 6.83984 -3.73879 0
M  V30 3345 N 325.182 1.32811 0.848464 0
M  V30 3346 C 326.43 1.23479 1.59991 0
M  V30 3347 C 326.751 -0.201853 1.93952 0
M  V30 3348 O 326.021 -1.12818 1.60153 0
M  V30 3349 H 324.601 0.454034 0.593179 0
M  V30 3350 H 327.263 1.66412 1.01455 0
M  V30 3351 H 326.359 1.82178 2.53412 0
M  V30 3352 N 326.66 -1.06551 1.16123 0
M  V30 3353 C 327.592 -2.13908 0.823171 0
M  V30 3354 C 328.605 -1.61926 -0.16843 0
M  V30 3355 O 329.794 -1.78412 0.055962 0
M  V30 3356 C 326.894 -3.38283 0.204424 0
M  V30 3357 C 326.067 -4.19589 1.23548 0
M  V30 3358 C 325.126 -5.2233 0.637011 0
M  V30 3359 O 324.152 -5.54034 1.30516 0
M  V30 3360 N 325.354 -5.77621 -0.577474 0
M  V30 3361 H 328.119 -2.43508 1.74711 0
M  V30 3362 H 325.68 -1.2253 1.05821 0
M  V30 3363 H 327.672 -4.0416 -0.208909 0
M  V30 3364 H 326.242 -3.06329 -0.623012 0
M  V30 3365 H 325.462 -3.49406 1.82507 0
M  V30 3366 H 326.75 -4.70718 1.93137 0
M  V30 3367 H 326.148 -5.54125 -1.13853 0
M  V30 3368 H 324.705 -6.45087 -0.933053 0
M  V30 3369 N 328.138 -0.959301 -1.25041 0
M  V30 3370 C 329.549 -0.65667 -1.74771 0
M  V30 3371 C 329.9 0.827852 -1.77879 0
M  V30 3372 O 329.025 1.64783 -1.40269 0
M  V30 3373 C 329.62 -1.1853 -3.1739 0
M  V30 3374 C 328.179 -0.932734 -3.6466 0
M  V30 3375 C 327.326 -1.32558 -2.43564 0
M  V30 3376 H 330.277 -1.13558 -1.10862 0
M  V30 3377 H 330.298 -0.547582 -3.76539 0
M  V30 3378 H 329.81 -2.26576 -3.15095 0
M  V30 3379 H 327.911 0.13257 -3.72364 0
M  V30 3380 H 328.024 -1.57248 -4.52559 0
M  V30 3381 H 326.388 -0.743956 -2.43593 0
M  V30 3382 H 327.171 -2.41537 -2.43957 0
M  V30 3383 N 329.616 1.39756 -0.72842 0
M  V30 3384 C 331.032 1.5442 -0.403308 0
M  V30 3385 C 331.232 1.69694 1.08656 0
M  V30 3386 O 330.288 1.69373 1.87267 0
M  V30 3387 C 331.601 2.76555 -1.18058 0
M  V30 3388 C 333.149 2.90384 -1.16815 0
M  V30 3389 C 333.624 4.15449 -1.92785 0
M  V30 3390 N 335.115 4.22475 -1.89918 0
M  V30 3391 C 335.85 5.1818 -2.45514 0
M  V30 3392 N 335.346 6.19714 -3.09719 0
M  V30 3393 N 337.139 5.1035 -2.35584 0
M  V30 3394 H 329.29 1.28089 -1.69431 0
M  V30 3395 H 331.553 0.620327 -0.716867 0
M  V30 3396 H 331.259 2.7159 -2.23455 0
M  V30 3397 H 331.133 3.69033 -0.780662 0
M  V30 3398 H 333.52 2.94846 -0.12234 0
M  V30 3399 H 333.601 1.98988 -1.6074 0
M  V30 3400 H 333.245 4.11749 -2.97364 0
M  V30 3401 H 333.175 5.05877 -1.46272 0
M  V30 3402 H 335.666 3.49743 -1.43138 0
M  V30 3403 H 335.979 6.8919 -3.49625 0
M  V30 3404 H 334.324 6.20121 -3.13807 0
M  V30 3405 H 337.515 4.2996 -1.85072 0
M  V30 3406 H 337.688 5.84761 -2.79211 0
M  V30 3407 N 331.094 0.475555 1.50254 0
M  V30 3408 C 332.004 -0.321501 2.32387 0
M  V30 3409 C 333.02 -0.991755 1.42969 0
M  V30 3410 O 334.196 -0.978747 1.76018 0
M  V30 3411 C 331.261 -1.38667 3.17762 0
M  V30 3412 C 330.322 -0.732538 4.23004 0
M  V30 3413 C 329.555 -1.74695 5.04299 0
M  V30 3414 O 329.778 -2.97399 4.86734 0
M  V30 3415 O 328.712 -1.31631 5.8733 0
M  V30 3416 H 332.538 0.350071 3.01676 0
M  V30 3417 H 330.123 0.237321 1.47503 0
M  V30 3418 H 332.005 -2.00354 3.70724 0
M  V30 3419 H 330.68 -2.04163 2.51196 0
M  V30 3420 H 329.587 -0.0765902 3.74022 0
M  V30 3421 H 330.92 -0.120452 4.92053 0
M  V30 3422 N 332.573 -1.56217 0.208337 0
M  V30 3423 C 333.984 -1.84243 -0.301904 0
M  V30 3424 C 334.335 -1.12939 -1.60434 0
M  V30 3425 O 333.46 -0.39461 -2.12772 0
M  V30 3426 C 334.055 -3.34231 -0.554543 0
M  V30 3427 C 332.614 -3.62621 -1.00912 0
M  V30 3428 C 331.761 -2.77224 -0.064933 0
M  V30 3429 H 334.712 -1.52712 0.431833 0
M  V30 3430 H 334.733 -3.5372 -1.40223 0
M  V30 3431 H 334.245 -3.86099 0.393561 0
M  V30 3432 H 332.346 -3.16197 -1.97104 0
M  V30 3433 H 332.459 -4.7071 -0.892674 0
M  V30 3434 H 330.823 -2.48256 -0.56929 0
M  V30 3435 H 331.606 -3.31887 0.877851 0
M  V30 3436 N 334.051 0.0651679 -1.57465 0
M  V30 3437 C 334.983 1.10359 -2.00882 0
M  V30 3438 C 335.996 1.346 -0.915788 0
M  V30 3439 O 337.185 1.32723 -1.1936 0
M  V30 3440 C 334.285 2.45312 -2.33828 0
M  V30 3441 C 333.458 2.40934 -3.65061 0
M  V30 3442 C 332.517 3.58047 -3.85602 0
M  V30 3443 O 331.543 3.39175 -4.57109 0
M  V30 3444 N 332.745 4.78637 -3.28462 0
M  V30 3445 H 335.51 0.733807 -2.90578 0
M  V30 3446 H 333.071 0.253719 -1.599 0
M  V30 3447 H 335.063 3.22314 -2.44737 0
M  V30 3448 H 333.633 2.74267 -1.49988 0
M  V30 3449 H 332.853 1.49273 -3.64844 0
M  V30 3450 H 334.141 2.35117 -4.51218 0
M  V30 3451 H 333.539 4.96872 -2.70433 0
M  V30 3452 H 332.096 5.53127 -3.44809 0
M  V30 3453 N 335.529 1.53961 0.336706 0
M  V30 3454 C 336.775 1.7179 1.07777 0
M  V30 3455 C 337.108 0.483263 1.88091 0
M  V30 3456 O 336.383 -0.519747 1.87427 0
M  V30 3457 C 336.666 2.98558 2.01334 0
M  V30 3458 C 336.519 4.32245 1.24437 0
M  V30 3459 C 337.838 3.21023 3.01052 0
M  V30 3460 H 334.957 0.625089 0.390426 0
M  V30 3461 H 337.599 1.86641 0.35567 0
M  V30 3462 H 335.749 2.86028 2.62908 0
M  V30 3463 H 337.421 4.56637 0.654243 0
M  V30 3464 H 335.664 4.30344 0.546458 0
M  V30 3465 H 336.335 5.17137 1.93063 0
M  V30 3466 H 338.811 3.32929 2.49595 0
M  V30 3467 H 337.687 4.11104 3.6371 0
M  V30 3468 H 337.948 2.37637 3.72802 0
M  V30 3469 N 337.007 -0.598083 1.45811 0
M  V30 3470 C 338.237 -1.38121 1.53643 0
M  V30 3471 C 338.645 -1.88425 0.171081 0
M  V30 3472 O 337.988 -1.63409 -0.839237 0
M  V30 3473 C 338.05 -2.61432 2.46766 0
M  V30 3474 C 337.714 -2.32702 3.93318 0
M  V30 3475 C 338.711 -1.92479 4.82957 0
M  V30 3476 C 336.396 -2.45321 4.38318 0
M  V30 3477 C 338.39 -1.65248 6.15607 0
M  V30 3478 C 336.077 -2.17703 5.71007 0
M  V30 3479 C 337.075 -1.7773 6.5947 0
M  V30 3480 O 336.763 -1.50441 7.89698 0
M  V30 3481 H 336.495 -0.428863 0.522544 0
M  V30 3482 H 339.049 -0.73557 1.91777 0
M  V30 3483 H 337.279 -3.28749 2.0362 0
M  V30 3484 H 338.968 -3.23487 2.45175 0
M  V30 3485 H 339.734 -1.82258 4.49452 0
M  V30 3486 H 335.613 -2.75399 3.69697 0
M  V30 3487 H 339.157 -1.33973 6.84614 0
M  V30 3488 H 335.054 -2.27544 6.04065 0
M  V30 3489 H 335.822 -1.64415 8.01817 0
M  V30 3490 N 338.485 -1.33259 -0.841409 0
M  V30 3491 C 339.713 -1.27605 -1.62864 0
M  V30 3492 C 340.128 0.153507 -1.88175 0
M  V30 3493 O 339.485 1.09485 -1.46011 0
M  V30 3494 C 339.536 -2.04596 -2.98031 0
M  V30 3495 O 339.257 -3.41975 -2.73834 0
M  V30 3496 C 340.758 -2.06122 -3.92465 0
M  V30 3497 H 337.978 -0.439718 -0.506842 0
M  V30 3498 H 340.522 -1.75591 -1.04824 0
M  V30 3499 H 338.677 -1.60299 -3.5268 0
M  V30 3500 H 339.091 -3.81549 -3.59889 0
M  V30 3501 H 340.565 -2.64451 -4.84531 0
M  V30 3502 H 341.042 -1.05083 -4.26444 0
M  V30 3503 H 341.648 -2.50427 -3.43753 0
M  V30 3504 N 339.963 1.05934 -1.16686 0
M  V30 3505 C 340.893 2.1546 -0.899949 0
M  V30 3506 C 341.874 1.69391 0.155154 0
M  V30 3507 O 343.059 1.94199 0.00648693 0
M  V30 3508 C 340.189 3.44939 -0.404241 0
M  V30 3509 C 339.143 4.04536 -1.39767 0
M  V30 3510 C 338.469 5.29268 -0.760216 0
M  V30 3511 C 339.769 4.42893 -2.76845 0
M  V30 3512 H 341.463 2.38046 -1.81588 0
M  V30 3513 H 339.009 1.14404 -0.874514 0
M  V30 3514 H 340.962 4.20901 -0.204971 0
M  V30 3515 H 339.686 3.21983 0.547206 0
M  V30 3516 H 338.345 3.30635 -1.58355 0
M  V30 3517 H 337.993 5.02611 0.197831 0
M  V30 3518 H 337.693 5.70101 -1.42332 0
M  V30 3519 H 339.217 6.07924 -0.57105 0
M  V30 3520 H 340.631 5.09921 -2.62019 0
M  V30 3521 H 339.028 4.94721 -3.39663 0
M  V30 3522 H 340.098 3.53584 -3.31823 0
M  V30 3523 N 341.441 0.965919 1.2453 0
M  V30 3524 C 342.852 0.665929 1.7442 0
M  V30 3525 C 343.203 -0.818407 1.78316 0
M  V30 3526 O 342.328 -1.64037 1.41141 0
M  V30 3527 C 342.923 1.20211 3.16757 0
M  V30 3528 C 341.482 0.952059 3.6416 0
M  V30 3529 C 340.629 1.33848 2.42858 0
M  V30 3530 H 343.58 1.14144 1.10258 0
M  V30 3531 H 343.601 0.567544 3.76244 0
M  V30 3532 H 343.113 2.28244 3.13889 0
M  V30 3533 H 341.214 -0.112821 3.72429 0
M  V30 3534 H 341.327 1.59645 4.51719 0
M  V30 3535 H 339.691 0.756864 2.43195 0
M  V30 3536 H 340.474 2.42827 2.42673 0
M  V30 3537 N 342.919 -1.39368 0.735821 0
M  V30 3538 C 344.33 -1.83313 0.354015 0
M  V30 3539 C 344.681 -1.61461 -1.11466 0
M  V30 3540 O 343.806 -1.10621 -1.85989 0
M  V30 3541 C 344.401 -3.32781 0.635769 0
M  V30 3542 C 342.96 -3.75142 0.307448 0
M  V30 3543 C 342.107 -2.62358 0.897974 0
M  V30 3544 H 345.058 -1.28349 0.933398 0
M  V30 3545 H 345.079 -3.80388 -0.0921773 0
M  V30 3546 H 344.591 -3.48654 1.70476 0
M  V30 3547 H 342.692 -3.64857 -0.755674 0
M  V30 3548 H 342.805 -4.72532 0.790583 0
M  V30 3549 H 341.169 -2.52624 0.324551 0
M  V30 3550 H 341.952 -2.81036 1.97164 0
M  V30 3551 N 344.397 -0.483516 -1.5 0
M  V30 3552 C 345.622 0.0667119 -2.07293 0
M  V30 3553 C 346.047 1.3164 -1.3436 0
M  V30 3554 O 345.405 1.76945 -0.394987 0
M  V30 3555 C 345.453 0.321126 -3.59167 0
M  V30 3556 O 344.557 1.39927 -3.87936 0
M  V30 3557 H 343.898 -0.0184758 -0.663743 0
M  V30 3558 H 346.428 -0.678125 -1.93035 0
M  V30 3559 H 346.438 0.557906 -4.04168 0
M  V30 3560 H 345.113 -0.592007 -4.11665 0
M  V30 3561 H 343.69 1.14882 -3.54763 0
M  V30 3562 N 345.875 1.56104 -0.216619 0
M  V30 3563 C 346.807 2.17339 0.72776 0
M  V30 3564 C 347.82 1.14109 1.16116 0
M  V30 3565 O 349.009 1.4111 1.09317 0
M  V30 3566 C 346.109 2.73818 1.99693 0
M  V30 3567 C 345.282 4.02168 1.71988 0
M  V30 3568 C 344.341 4.43259 2.83562 0
M  V30 3569 O 343.367 5.10257 2.52244 0
M  V30 3570 N 344.569 4.08535 4.12407 0
M  V30 3571 H 347.334 2.99005 0.203983 0
M  V30 3572 H 344.895 1.61861 -0.0354289 0
M  V30 3573 H 346.887 2.9828 2.73516 0
M  V30 3574 H 345.457 1.96483 2.43132 0
M  V30 3575 H 344.677 3.85612 0.818337 0
M  V30 3576 H 345.965 4.85907 1.50903 0
M  V30 3577 H 345.363 3.54687 4.40696 0
M  V30 3578 H 343.92 4.37901 4.8279 0
M  V30 3579 N 347.353 -0.0568162 1.57498 0
M  V30 3580 C 348.263 -1.08346 2.08083 0
M  V30 3581 C 349.279 -1.41439 1.01346 0
M  V30 3582 O 350.455 -1.51316 1.32912 0
M  V30 3583 C 347.52 -2.37352 2.52715 0
M  V30 3584 C 346.581 -2.11093 3.73816 0
M  V30 3585 C 345.814 -3.33949 4.1631 0
M  V30 3586 O 346.037 -4.43622 3.58547 0
M  V30 3587 O 344.971 -3.21279 5.08983 0
M  V30 3588 H 348.797 -0.683667 2.95905 0
M  V30 3589 H 346.382 -0.271965 1.46904 0
M  V30 3590 H 348.264 -3.13246 2.81877 0
M  V30 3591 H 346.939 -2.76681 1.68016 0
M  V30 3592 H 345.846 -1.32856 3.49714 0
M  V30 3593 H 347.179 -1.76637 4.59413 0
M  V30 3594 N 348.832 -1.54138 -0.328536 0
M  V30 3595 C 349.742 -1.86192 -1.42723 0
M  V30 3596 C 350.758 -0.753382 -1.56844 0
M  V30 3597 O 351.934 -1.04718 -1.72035 0
M  V30 3598 C 348.999 -2.07824 -2.77507 0
M  V30 3599 C 348.06 -3.31641 -2.72603 0
M  V30 3600 C 347.293 -3.52232 -4.00959 0
M  V30 3601 O 347.516 -2.7636 -4.9898 0
M  V30 3602 O 346.45 -4.45699 -4.0452 0
M  V30 3603 H 350.276 -2.79608 -1.18547 0
M  V30 3604 H 347.861 -1.3998 -0.522104 0
M  V30 3605 H 349.743 -2.23411 -3.57303 0
M  V30 3606 H 348.418 -1.17596 -3.01584 0
M  V30 3607 H 347.325 -3.21444 -1.91376 0
M  V30 3608 H 348.658 -4.2191 -2.53481 0
M  V30 3609 N 350.31 0.590341 -1.46126 0
M  V30 3610 C 351.243 1.71434 -1.50617 0
M  V30 3611 C 352.221 1.58543 -0.360948 0
M  V30 3612 O 353.405 1.79865 -0.563985 0
M  V30 3613 C 350.532 3.09422 -1.37753 0
M  V30 3614 C 349.578 3.40854 -2.5636 0
M  V30 3615 S 350.411 3.33773 -4.18755 0
M  V30 3616 C 351.567 4.74312 -4.08386 0
M  V30 3617 H 351.8 1.67364 -2.45717 0
M  V30 3618 H 349.333 0.76845 -1.33919 0
M  V30 3619 H 351.291 3.8903 -1.31018 0
M  V30 3620 H 349.952 3.10989 -0.440949 0
M  V30 3621 H 349.145 4.41368 -2.43332 0
M  V30 3622 H 348.747 2.68798 -2.60046 0
M  V30 3623 H 351.039 5.64522 -3.74595 0
M  V30 3624 H 351.982 4.92397 -5.08872 0
M  V30 3625 H 352.39 4.50803 -3.3976 0
M  V30 3626 N 351.788 1.33704 0.83433 0
M  V30 3627 C 353.016 1.28467 1.62185 0
M  V30 3628 C 353.431 -0.143526 1.88254 0
M  V30 3629 O 352.788 -1.08709 1.4659 0
M  V30 3630 C 352.839 2.06174 2.96942 0
M  V30 3631 O 352.56 3.43422 2.72016 0
M  V30 3632 C 354.061 2.08201 3.91366 0
M  V30 3633 H 351.281 0.4424 0.504503 0
M  V30 3634 H 353.825 1.76145 1.03891 0
M  V30 3635 H 351.98 1.62167 3.51825 0
M  V30 3636 H 352.394 3.83453 3.57861 0
M  V30 3637 H 353.868 2.67017 4.83121 0
M  V30 3638 H 354.345 1.07343 4.2588 0
M  V30 3639 H 354.951 2.52246 3.42421 0
M  V30 3640 N 353.266 -1.05314 1.17247 0
M  V30 3641 C 354.213 -2.13031 0.888058 0
M  V30 3642 C 355.183 -1.65253 -0.167537 0
M  V30 3643 O 356.368 -1.90775 -0.0305974 0
M  V30 3644 C 353.508 -3.42702 0.406147 0
M  V30 3645 C 352.621 -4.04161 1.52572 0
M  V30 3646 C 351.756 -5.21744 0.997808 0
M  V30 3647 C 350.795 -5.75207 2.09291 0
M  V30 3648 N 349.932 -6.84094 1.57986 0
M  V30 3649 H 354.772 -2.36698 1.81048 0
M  V30 3650 H 352.309 -1.16121 0.903013 0
M  V30 3651 H 354.267 -4.17059 0.108305 0
M  V30 3652 H 352.897 -3.19222 -0.479313 0
M  V30 3653 H 351.949 -3.27253 1.93931 0
M  V30 3654 H 353.261 -4.39881 2.35172 0
M  V30 3655 H 352.415 -6.03168 0.653739 0
M  V30 3656 H 351.154 -4.87495 0.141232 0
M  V30 3657 H 350.159 -4.92414 2.44557 0
M  V30 3658 H 351.384 -6.11505 2.95362 0
M  V30 3659 H 349.33 -6.51745 0.74598 0
M  V30 3660 H 349.247 -7.18811 2.34195 0
M  V30 3661 H 350.515 -7.69172 1.26468 0
M  V30 3662 N 354.744 -0.972509 -1.24016 0
M  V30 3663 C 355.692 -0.498562 -2.27194 0
M  V30 3664 C 356.686 0.440372 -1.63576 0
M  V30 3665 O 357.892 0.315133 -1.7722 0
M  V30 3666 H 354.267 -0.142775 -0.738322 0
M  V30 3667 H 356.238 -1.38065 -2.64539 0
M  V30 3668 C 354.987 0.191072 -3.47175 0
M  V30 3669 H 354.31 -0.522318 -3.96373 0
M  V30 3670 H 355.75 0.486445 -4.212 0
M  V30 3671 C 354.209 1.41967 -3.05527 0
M  V30 3672 O 354.739 2.51642 -3.13112 0
M  V30 3673 N 352.945 1.28746 -2.60524 0
M  V30 3674 H 352.492 0.395089 -2.54552 0
M  V30 3675 H 352.45 2.11061 -2.33025 0
M  V30 3676 N 356.222 1.38976 -0.743202 0
M  V30 3677 C 357.154 2.29096 -0.0689228 0
M  V30 3678 C 358.167 1.47229 0.694791 0
M  V30 3679 O 359.356 1.70212 0.537597 0
M  V30 3680 C 356.456 3.25988 0.926548 0
M  V30 3681 C 355.629 4.36833 0.222647 0
M  V30 3682 C 354.688 5.13981 1.12739 0
M  V30 3683 O 353.714 5.6601 0.601795 0
M  V30 3684 N 354.916 5.25966 2.45641 0
M  V30 3685 H 357.681 2.87604 -0.842846 0
M  V30 3686 H 355.242 1.50645 -0.593109 0
M  V30 3687 H 357.234 3.74476 1.5346 0
M  V30 3688 H 355.804 2.68453 1.60162 0
M  V30 3689 H 355.024 3.90116 -0.565983 0
M  V30 3690 H 356.312 5.0811 -0.264841 0
M  V30 3691 H 355.71 4.85228 2.9081 0
M  V30 3692 H 354.267 5.77865 3.01522 0
M  V30 3693 N 357.7 0.491464 1.49741 0
M  V30 3694 C 358.946 -0.0565092 2.02721 0
M  V30 3695 C 359.279 -1.37522 1.37118 0
M  V30 3696 O 358.554 -1.87866 0.503645 0
M  V30 3697 C 358.837 -0.219051 3.59433 0
M  V30 3698 C 358.69 1.12211 4.35579 0
M  V30 3699 C 360.009 -0.964157 4.29409 0
M  V30 3700 H 357.128 -0.0190627 0.736753 0
M  V30 3701 H 359.77 0.641021 1.7886 0
M  V30 3702 H 357.92 -0.813165 3.79895 0
M  V30 3703 H 359.592 1.75437 4.26637 0
M  V30 3704 H 357.835 1.71377 3.98513 0
M  V30 3705 H 358.506 0.961794 5.43556 0
M  V30 3706 H 360.982 -0.460378 4.13545 0
M  V30 3707 H 359.858 -1.04671 5.38828 0
M  V30 3708 H 360.119 -2.00563 3.93988 0
M  V30 3709 N 359.178 -1.55987 0.224894 0
M  V30 3710 C 360.403 -2.03232 -0.41369 0
M  V30 3711 C 360.828 -1.10359 -1.52323 0
M  V30 3712 O 360.186 -0.092395 -1.81064 0
M  V30 3713 C 360.234 -3.48682 -0.919405 0
M  V30 3714 O 359.338 -3.58947 -2.03054 0
M  V30 3715 H 358.679 -0.657428 -0.0931903 0
M  V30 3716 H 361.209 -2.01679 0.34451 0
M  V30 3717 H 361.219 -3.8907 -1.22835 0
M  V30 3718 H 359.894 -4.15761 -0.107339 0
M  V30 3719 H 358.471 -3.30448 -1.72796 0
M  V30 3720 N 360.656 0.0484629 -1.57525 0
M  V30 3721 C 361.586 1.0549 -2.08313 0
M  V30 3722 C 362.567 1.38929 -0.981463 0
M  V30 3723 O 363.752 1.48151 -1.25558 0
M  V30 3724 C 360.882 2.36162 -2.54646 0
M  V30 3725 C 359.836 2.17016 -3.68901 0
M  V30 3726 C 359.162 3.53278 -4.01371 0
M  V30 3727 C 360.462 1.57219 -4.98076 0
M  V30 3728 H 362.156 0.632195 -2.92649 0
M  V30 3729 H 359.702 0.302654 -1.40784 0
M  V30 3730 H 361.655 3.06882 -2.88793 0
M  V30 3731 H 360.379 2.80456 -1.67368 0
M  V30 3732 H 359.038 1.48733 -3.35073 0
M  V30 3733 H 358.686 3.95185 -3.11188 0
M  V30 3734 H 358.386 3.41299 -4.78318 0
M  V30 3735 H 359.91 4.25391 -4.38035 0
M  V30 3736 H 361.324 2.17832 -5.30304 0
M  V30 3737 H 359.721 1.55871 -5.79503 0
M  V30 3738 H 360.791 0.535956 -4.81929 0
M  V30 3739 N 362.134 1.5431 0.320358 0
M  V30 3740 C 363.362 1.76636 1.07738 0
M  V30 3741 C 363.777 0.51649 1.81598 0
M  V30 3742 O 363.134 -0.512942 1.75143 0
M  V30 3743 C 363.185 2.96158 2.07299 0
M  V30 3744 O 362.906 4.16313 1.36438 0
M  V30 3745 C 364.407 3.3072 2.95193 0
M  V30 3746 H 361.627 0.589597 0.320339 0
M  V30 3747 H 364.171 2.01207 0.36551 0
M  V30 3748 H 362.326 2.73851 2.74016 0
M  V30 3749 H 362.74 4.83565 2.03138 0
M  V30 3750 H 364.214 4.17643 3.60941 0
M  V30 3751 H 364.691 2.48026 3.62463 0
M  V30 3752 H 365.297 3.55117 2.34034 0
M  V30 3753 N 363.613 -0.582584 1.46437 0
M  V30 3754 C 364.853 -1.35184 1.53312 0
M  V30 3755 C 365.217 -1.9115 0.180508 0
M  V30 3756 O 366.418 -2.68514 0.124017 0
M  V30 3757 C 364.689 -2.45089 2.60127 0
M  V30 3758 S 366.248 -3.32439 2.86408 0
M  V30 3759 H 363.066 -0.460559 0.54167 0
M  V30 3760 H 365.668 -0.669709 1.83671 0
M  V30 3761 H 364.372 -2.02366 3.57038 0
M  V30 3762 H 363.903 -3.18074 2.315 0
M  V30 3763 H 365.918 -4.43924 2.21688 0
M  V30 3764 N 365.091 -1.34144 -0.827227 0
M  V30 3765 C 366.021 -1.28005 -1.95287 0
M  V30 3766 C 367.002 -0.158321 -1.69362 0
M  V30 3767 O 368.187 -0.349987 -1.9102 0
M  V30 3768 C 365.317 -1.03036 -3.31664 0
M  V30 3769 C 364.271 -2.11628 -3.72019 0
M  V30 3770 C 363.597 -1.71854 -5.0633 0
M  V30 3771 C 364.897 -3.53417 -3.8457 0
M  V30 3772 H 366.591 -2.22187 -2.00682 0
M  V30 3773 H 364.137 -1.0696 -0.964135 0
M  V30 3774 H 366.09 -0.973863 -4.09993 0
M  V30 3775 H 364.814 -0.0529391 -3.26557 0
M  V30 3776 H 363.473 -2.16339 -2.95961 0
M  V30 3777 H 363.121 -0.727841 -4.97706 0
M  V30 3778 H 362.821 -2.44531 -5.34302 0
M  V30 3779 H 364.345 -1.67692 -5.87122 0
M  V30 3780 H 365.759 -3.51142 -4.5318 0
M  V30 3781 H 364.156 -4.24679 -4.2399 0
M  V30 3782 H 365.226 -3.91072 -2.86689 0
M  V30 3783 N 366.569 1.04691 -1.17803 0
M  V30 3784 C 367.815 1.78045 -0.970969 0
M  V30 3785 C 368.148 1.87686 0.498751 0
M  V30 3786 O 367.423 1.38035 1.37027 0
M  V30 3787 C 367.706 3.2166 -1.61884 0
M  V30 3788 C 367.559 3.20001 -3.161 0
M  V30 3789 C 368.878 4.1962 -1.3269 0
M  V30 3790 H 365.997 0.64633 -0.354155 0
M  V30 3791 H 368.639 1.22333 -1.45378 0
M  V30 3792 H 366.789 3.69232 -1.20831 0
M  V30 3793 H 368.461 2.80467 -3.66246 0
M  V30 3794 H 366.704 2.58203 -3.48588 0
M  V30 3795 H 367.375 4.21386 -3.56564 0
M  V30 3796 H 369.851 3.80567 -1.68249 0
M  V30 3797 H 368.727 5.18339 -1.80599 0
M  V30 3798 H 368.988 4.414 -0.248622 0
M  V30 3799 N 368.047 0.979072 1.23499 0
M  V30 3800 C 368.994 0.517904 2.24914 0
M  V30 3801 C 369.964 -0.442525 1.60097 0
M  V30 3802 O 371.149 -0.350365 1.87556 0
M  V30 3803 C 368.289 -0.174813 3.44657 0
M  V30 3804 C 367.402 0.825721 4.24035 0
M  V30 3805 C 366.537 0.107946 5.3109 0
M  V30 3806 C 365.576 1.09778 6.02175 0
M  V30 3807 N 364.713 0.40925 7.00906 0
M  V30 3808 H 369.553 1.38751 2.63727 0
M  V30 3809 H 367.09 0.695303 1.2963 0
M  V30 3810 H 369.048 -0.593233 4.12961 0
M  V30 3811 H 367.678 -1.0083 3.06648 0
M  V30 3812 H 366.73 1.36253 3.55161 0
M  V30 3813 H 368.042 1.58005 4.73113 0
M  V30 3814 H 367.196 -0.367904 6.05583 0
M  V30 3815 H 365.935 -0.678994 4.8295 0
M  V30 3816 H 364.94 1.5844 5.26476 0
M  V30 3817 H 366.165 1.88536 6.52404 0
M  V30 3818 H 364.111 -0.358506 6.5502 0
M  V30 3819 H 364.028 1.10226 7.47921 0
M  V30 3820 H 365.296 -0.0442557 7.79487 0
M  V30 3821 N 369.525 -1.3858 0.750561 0
M  V30 3822 C 370.773 -1.99789 0.30477 0
M  V30 3823 C 371.094 -1.59874 -1.11649 0
M  V30 3824 O 370.364 -0.85417 -1.76297 0
M  V30 3825 H 368.944 -0.738902 0.109694 0
M  V30 3826 H 371.606 -1.69391 0.963983 0
M  V30 3827 H 370.702 -3.09952 0.365499 0
M  V30 3828 N 371.003 -0.499398 -1.49478 0
M  V30 3829 C 372.25 0.0456899 -2.02448 0
M  V30 3830 C 372.578 1.37142 -1.37921 0
M  V30 3831 O 371.833 1.89111 -0.503544 0
M  V30 3832 C 372.132 0.248424 -3.56536 0
M  V30 3833 C 371.798 -0.999107 -4.39692 0
M  V30 3834 C 370.46 -1.34108 -4.62135 0
M  V30 3835 C 372.812 -1.82842 -4.88076 0
M  V30 3836 C 370.14 -2.51191 -5.30208 0
M  V30 3837 C 372.492 -2.99076 -5.57437 0
M  V30 3838 C 371.156 -3.33655 -5.78127 0
M  V30 3839 H 370.426 0.0167191 -0.740811 0
M  V30 3840 H 373.073 -0.65923 -1.79795 0
M  V30 3841 H 371.378 1.03586 -3.77859 0
M  V30 3842 H 373.075 0.684605 -3.95113 0
M  V30 3843 H 369.665 -0.722729 -4.22463 0
M  V30 3844 H 373.849 -1.57737 -4.70566 0
M  V30 3845 H 369.105 -2.78221 -5.44429 0
M  V30 3846 H 373.279 -3.63664 -5.93904 0
M  V30 3847 H 370.906 -4.24483 -6.30649 0
M  V30 3848 N 372.481 1.55866 -0.233164 0
M  V30 3849 C 373.711 2.02704 0.399325 0
M  V30 3850 C 374.119 1.11204 1.53069 0
M  V30 3851 O 373.462 0.116182 1.83332 0
M  V30 3852 C 373.524 3.45844 0.981429 0
M  V30 3853 C 373.188 4.56997 -0.0159561 0
M  V30 3854 C 374.185 5.13384 -0.820552 0
M  V30 3855 C 371.87 5.0211 -0.138072 0
M  V30 3856 C 373.864 6.13365 -1.73386 0
M  V30 3857 C 371.551 6.01926 -1.0549 0
M  V30 3858 C 372.549 6.57431 -1.85132 0
M  V30 3859 O 372.237 7.55302 -2.75272 0
M  V30 3860 H 371.969 0.668459 0.100692 0
M  V30 3861 H 374.523 2.02387 -0.35052 0
M  V30 3862 H 372.753 3.43267 1.78058 0
M  V30 3863 H 374.442 3.76262 1.52255 0
M  V30 3864 H 375.208 4.79372 -0.736721 0
M  V30 3865 H 371.087 4.5858 0.471737 0
M  V30 3866 H 374.631 6.56614 -2.35592 0
M  V30 3867 H 370.528 6.35359 -1.1397 0
M  V30 3868 H 371.296 7.72867 -2.69477 0
M  V30 3869 N 373.959 -0.0401083 1.57549 0
M  V30 3870 C 375.37 -0.588097 1.77196 0
M  V30 3871 C 375.721 -1.76209 0.862832 0
M  V30 3872 O 374.846 -2.16331 0.0548389 0
M  V30 3873 C 375.441 -1.07363 3.21339 0
M  V30 3874 C 374 -1.56723 3.42221 0
M  V30 3875 C 373.147 -0.50041 2.72747 0
M  V30 3876 H 376.098 0.186119 1.57605 0
M  V30 3877 H 376.119 -1.94143 3.27244 0
M  V30 3878 H 375.631 -0.218975 3.87482 0
M  V30 3879 H 373.732 -2.4441 2.81237 0
M  V30 3880 H 373.845 -1.62234 4.50796 0
M  V30 3881 H 372.209 -0.952894 2.36203 0
M  V30 3882 H 372.992 0.344599 3.41566 0
M  V30 3883 N 375.437 -1.54477 -0.31217 0
M  V30 3884 C 376.662 -1.77526 -1.07235 0
M  V30 3885 C 377.087 -0.527775 -1.80544 0
M  V30 3886 O 376.445 0.52121 -1.73646 0
M  V30 3887 C 376.493 -2.97535 -2.03728 0
M  V30 3888 O 375.597 -2.69878 -3.11833 0
M  V30 3889 H 374.938 -0.58792 -0.30862 0
M  V30 3890 H 377.468 -2.01532 -0.352993 0
M  V30 3891 H 377.478 -3.25198 -2.46395 0
M  V30 3892 H 376.153 -3.87996 -1.49774 0
M  V30 3893 H 374.73 -2.53199 -2.7376 0
M  V30 3894 N 376.915 0.57481 -1.46744 0
M  V30 3895 C 378.192 1.3352 -1.4294 0
M  V30 3896 C 378.572 2.10775 -0.117009 0
M  V30 3897 O 377.92 2.09966 0.901474 0
M  V30 3898 C 378.13 2.25456 -2.66403 0
M  V30 3899 C 379.478 2.87035 -3.12883 0
M  V30 3900 O 380.502 2.35766 -2.67007 0
M  V30 3901 O 379.361 3.80179 -3.92589 0
M  V30 3902 H 376.455 0.600318 -0.568812 0
M  V30 3903 H 379.001 0.595171 -1.58921 0
M  V30 3904 H 377.773 1.67851 -3.53471 0
M  V30 3905 H 377.396 3.06785 -2.52921 0
M  V30 3906 N 378.394 1.34581 0.820102 0
M  V30 3907 C 379.643 1.26437 1.57151 0
M  V30 3908 C 379.956 -0.163111 1.94919 0
M  V30 3909 O 381.162 -0.366722 2.69012 0
M  V30 3910 C 379.618 2.21658 2.83541 0
M  V30 3911 C 379.226 3.69679 2.53065 0
M  V30 3912 C 380.97 2.22428 3.61561 0
M  V30 3913 C 378.877 4.56761 3.75664 0
M  V30 3914 H 377.807 0.469707 0.589823 0
M  V30 3915 H 380.458 1.59763 0.902656 0
M  V30 3916 H 378.84 1.81287 3.52067 0
M  V30 3917 H 380.014 4.18605 1.92631 0
M  V30 3918 H 378.329 3.71384 1.88316 0
M  V30 3919 H 380.926 2.8471 4.52597 0
M  V30 3920 H 381.269 1.22434 3.97889 0
M  V30 3921 H 381.802 2.61259 2.99981 0
M  V30 3922 H 378.541 5.57702 3.44454 0
M  V30 3923 H 378.061 4.12568 4.35371 0
M  V30 3924 H 379.74 4.71509 4.43044 0
M  V30 3925 N 379.872 -1.04064 1.18357 0
M  V30 3926 C 380.835 -2.10243 0.912707 0
M  V30 3927 C 381.835 -1.60477 -0.101928 0
M  V30 3928 O 383.025 -1.73703 0.131517 0
M  V30 3929 C 380.157 -3.38893 0.369387 0
M  V30 3930 H 381.35 -2.35706 1.85426 0
M  V30 3931 H 378.903 -1.20489 0.995594 0
M  V30 3932 H 379.638 -3.19094 -0.578776 0
M  V30 3933 H 379.423 -3.76331 1.1008 0
M  V30 3934 H 380.913 -4.17128 0.198575 0
M  V30 3935 N 381.35 -0.985608 -1.22978 0
M  V30 3936 C 382.596 -0.65836 -1.91816 0
M  V30 3937 C 382.929 0.806692 -1.76653 0
M  V30 3938 O 382.204 1.58252 -1.13078 0
M  V30 3939 C 382.487 -1.056 -3.44268 0
M  V30 3940 C 382.34 -2.57906 -3.68516 0
M  V30 3941 C 383.659 -0.603781 -4.35939 0
M  V30 3942 H 380.778 -0.24065 -0.696604 0
M  V30 3943 H 383.42 -1.22783 -1.44998 0
M  V30 3944 H 381.57 -0.571445 -3.84274 0
M  V30 3945 H 383.242 -3.13976 -3.3796 0
M  V30 3946 H 381.485 -3.00305 -3.13048 0
M  V30 3947 H 382.156 -2.80779 -4.75255 0
M  V30 3948 H 384.632 -1.01987 -4.03408 0
M  V30 3949 H 383.508 -0.910383 -5.41298 0
M  V30 3950 H 383.769 0.495761 -4.39312 0
M  V30 3951 N 382.828 1.3818 -0.7579 0
M  V30 3952 C 383.738 2.3421 -0.135247 0
M  V30 3953 C 384.754 1.59487 0.695683 0
M  V30 3954 O 385.93 1.91657 0.618832 0
M  V30 3955 C 382.995 3.3862 0.744139 0
M  V30 3956 C 382.056 4.2918 -0.101658 0
M  V30 3957 C 381.289 5.28603 0.735851 0
M  V30 3958 O 381.512 5.35166 1.97366 0
M  V30 3959 O 380.446 6.01707 0.152372 0
M  V30 3960 H 384.272 2.8916 -0.928436 0
M  V30 3961 H 381.857 1.40101 -0.518855 0
M  V30 3962 H 383.739 4.02539 1.2466 0
M  V30 3963 H 382.414 2.86019 1.51575 0
M  V30 3964 H 381.321 3.68407 -0.650167 0
M  V30 3965 H 382.654 4.85048 -0.836024 0
M  V30 3966 N 384.306 0.507319 1.49211 0
M  V30 3967 C 385.552 -0.0269732 2.03382 0
M  V30 3968 C 385.907 -1.34111 1.37957 0
M  V30 3969 O 385.2 -1.84733 0.508351 0
M  V30 3970 C 385.394 -0.229513 3.56662 0
M  V30 3971 C 385.223 1.06344 4.36945 0
M  V30 3972 C 383.993 1.617 4.78729 0
M  V30 3973 C 386.191 1.96833 4.75143 0
M  V30 3974 N 384.173 2.8552 5.43463 0
M  V30 3975 C 385.544 3.0523 5.39661 0
M  V30 3976 C 387.599 1.97434 4.57082 0
M  V30 3977 C 386.302 4.14265 5.88028 0
M  V30 3978 C 388.328 3.05448 5.06414 0
M  V30 3979 C 387.69 4.12564 5.70938 0
M  V30 3980 H 383.789 0.0310673 0.781383 0
M  V30 3981 H 386.373 0.683579 1.82305 0
M  V30 3982 H 384.544 -0.909127 3.7761 0
M  V30 3983 H 386.276 -0.761377 3.97473 0
M  V30 3984 H 383.031 1.16132 4.59141 0
M  V30 3985 H 383.455 3.48499 5.80412 0
M  V30 3986 H 388.097 1.15924 4.06597 0
M  V30 3987 H 385.815 4.96569 6.3753 0
M  V30 3988 H 389.401 3.06941 4.94246 0
M  V30 3989 H 388.281 4.94767 6.0842 0
M  V30 3990 N 385.784 -1.5574 0.241426 0
M  V30 3991 C 386.694 -2.2479 -0.671305 0
M  V30 3992 C 387.71 -1.26217 -1.19772 0
M  V30 3993 O 388.886 -1.59079 -1.23514 0
M  V30 3994 C 385.951 -2.92966 -1.85396 0
M  V30 3995 C 385.012 -4.06935 -1.36756 0
M  V30 3996 C 384.245 -4.71851 -2.49384 0
M  V30 3997 O 384.468 -4.35823 -3.67987 0
M  V30 3998 O 383.402 -5.60467 -2.19454 0
M  V30 3999 H 387.228 -3.0349 -0.112966 0
M  V30 4000 H 384.813 -1.49397 0.0101513 0
M  V30 4001 H 386.695 -3.35927 -2.54423 0
M  V30 4002 H 385.37 -2.17211 -2.40002 0
M  V30 4003 H 384.277 -3.68503 -0.644726 0
M  V30 4004 H 385.61 -4.84492 -0.867647 0
M  V30 4005 N 387.262 0.0317525 -1.57568 0
M  V30 4006 C 388.487 0.738664 -1.938 0
M  V30 4007 C 388.912 1.68242 -0.841208 0
M  V30 4008 O 388.27 1.80157 0.203267 0
M  V30 4009 C 388.318 1.47417 -3.29091 0
M  V30 4010 O 387.422 2.5872 -3.2115 0
M  V30 4011 H 386.763 0.198856 -0.633524 0
M  V30 4012 H 389.293 -0.0119713 -2.04596 0
M  V30 4013 H 389.303 1.84468 -3.63917 0
M  V30 4014 H 387.978 0.781988 -4.08482 0
M  V30 4015 H 386.555 2.24231 -2.97951 0
M  V30 4016 N 388.74 1.54641 0.303973 0
M  V30 4017 C 389.688 1.86137 1.39484 0
M  V30 4018 C 390.682 0.734854 1.52631 0
M  V30 4019 O 391.888 0.918803 1.54784 0
M  V30 4020 H 388.263 0.590324 0.465856 0
M  V30 4021 H 390.234 2.77324 1.10154 0
M  V30 4022 C 388.983 2.12274 2.75382 0
M  V30 4023 H 388.306 2.98429 2.66046 0
M  V30 4024 H 389.746 2.38254 3.5073 0
M  V30 4025 C 388.205 0.920365 3.24085 0
M  V30 4026 O 388.735 0.139377 4.01458 0
M  V30 4027 N 386.941 0.726566 2.81371 0
M  V30 4028 H 386.488 1.36332 2.18567 0
M  V30 4029 H 386.446 -0.0763799 3.14307 0
M  V30 4030 N 390.218 -0.567019 1.47046 0
M  V30 4031 C 391.466 -1.322 1.52864 0
M  V30 4032 C 391.787 -1.94088 0.188388 0
M  V30 4033 O 391.057 -1.7941 -0.786693 0
M  V30 4034 H 389.637 -0.490894 0.563056 0
M  V30 4035 H 392.299 -0.662879 1.83281 0
M  V30 4036 H 391.395 -2.12062 2.2899 0
M  V30 4037 N 391.696 -1.35014 -0.812953 0
M  V30 4038 C 392.628 -1.23262 -1.93233 0
M  V30 4039 C 393.641 -0.157371 -1.62038 0
M  V30 4040 O 394.83 -0.410096 -1.73725 0
M  V30 4041 C 391.93 -0.87392 -3.27438 0
M  V30 4042 C 391.103 -2.04622 -3.86586 0
M  V30 4043 C 390.162 -1.66432 -4.99186 0
M  V30 4044 O 389.188 -2.38222 -5.16951 0
M  V30 4045 N 390.39 -0.584248 -5.77552 0
M  V30 4046 H 393.155 -2.19699 -2.03844 0
M  V30 4047 H 390.716 -1.281 -0.99005 0
M  V30 4048 H 392.708 -0.600039 -4.00227 0
M  V30 4049 H 391.278 0.00057392 -3.126 0
M  V30 4050 H 390.498 -2.48427 -3.06068 0
M  V30 4051 H 391.786 -2.82999 -4.22835 0
M  V30 4052 H 391.184 0.0123526 -5.65699 0
M  V30 4053 H 389.741 -0.37013 -6.50748 0
M  V30 4054 N 393.175 1.03435 -1.18907 0
M  V30 4055 C 394.586 1.58195 -0.991523 0
M  V30 4056 C 394.937 1.90801 0.457081 0
M  V30 4057 O 394.062 1.70272 1.33553 0
M  V30 4058 C 394.657 2.87432 -1.79355 0
M  V30 4059 C 393.216 3.38785 -1.64017 0
M  V30 4060 C 392.363 2.12292 -1.78402 0
M  V30 4061 H 395.314 0.860299 -1.33359 0
M  V30 4062 H 395.335 3.58096 -1.28638 0
M  V30 4063 H 394.847 2.63669 -2.84781 0
M  V30 4064 H 392.948 3.67547 -0.611536 0
M  V30 4065 H 393.061 4.12186 -2.44212 0
M  V30 4066 H 391.425 2.23901 -1.2141 0
M  V30 4067 H 392.208 1.90977 -2.85277 0
M  V30 4068 N 394.653 0.992116 1.22453 0
M  V30 4069 C 395.563 0.55065 2.28046 0
M  V30 4070 C 396.579 -0.400189 1.69335 0
M  V30 4071 O 397.755 -0.267215 1.99619 0
M  V30 4072 C 394.82 -0.128496 3.46462 0
M  V30 4073 C 393.881 0.865208 4.20491 0
M  V30 4074 C 393.114 0.218377 5.33253 0
M  V30 4075 O 393.337 -0.987894 5.6178 0
M  V30 4076 O 392.271 0.922845 5.94783 0
M  V30 4077 H 396.097 1.4291 2.67975 0
M  V30 4078 H 393.682 0.760326 1.28606 0
M  V30 4079 H 395.564 -0.508947 4.18315 0
M  V30 4080 H 394.239 -0.981526 3.0846 0
M  V30 4081 H 393.146 1.29658 3.50913 0
M  V30 4082 H 394.479 1.68741 4.62371 0
M  V30 4083 N 396.131 -1.37776 0.765217 0
M  V30 4084 C 397.079 -2.32209 0.134798 0
M  V30 4085 C 398.073 -1.54607 -0.692315 0
M  V30 4086 O 399.279 -1.70052 -0.590109 0
M  V30 4087 H 395.654 -0.751591 0.0248005 0
M  V30 4088 H 397.625 -2.8297 0.947119 0
M  V30 4089 C 396.374 -3.39841 -0.735063 0
M  V30 4090 H 395.697 -3.99654 -0.107991 0
M  V30 4091 H 397.137 -4.08296 -1.14326 0
M  V30 4092 C 395.596 -2.79378 -1.88281 0
M  V30 4093 O 396.126 -2.69608 -2.97783 0
M  V30 4094 N 394.332 -2.37016 -1.68142 0
M  V30 4095 H 393.879 -2.45162 -0.790772 0
M  V30 4096 H 393.837 -1.96905 -2.45104 0
M  V30 4097 N 397.609 -0.515225 -1.4894 0
M  V30 4098 C 398.557 0.269115 -2.31038 0
M  V30 4099 C 399.551 0.949443 -1.40292 0
M  V30 4100 O 400.757 0.87551 -1.57273 0
M  V30 4101 H 397.132 0.10565 -0.744542 0
M  V30 4102 H 399.103 -0.443096 -2.95092 0
M  V30 4103 C 397.852 1.31213 -3.21991 0
M  V30 4104 H 397.175 0.798034 -3.91754 0
M  V30 4105 H 398.615 1.83263 -3.82349 0
M  V30 4106 C 397.074 2.33791 -2.42576 0
M  V30 4107 O 397.604 3.3995 -2.14003 0
M  V30 4108 N 395.81 2.06625 -2.0434 0
M  V30 4109 H 395.357 1.20314 -2.27777 0
M  V30 4110 H 395.315 2.75483 -1.51514 0
M  V30 4111 N 399.087 1.5561 -0.249682 0
M  V30 4112 C 400.317 2.03116 0.377803 0
M  V30 4113 C 400.725 1.12822 1.51881 0
M  V30 4114 O 400.068 0.13562 1.83199 0
M  V30 4115 C 400.13 3.46866 0.944693 0
M  V30 4116 C 399.794 4.56955 -0.0644259 0
M  V30 4117 C 400.791 5.12485 -0.874957 0
M  V30 4118 C 398.476 5.01936 -0.19132 0
M  V30 4119 C 400.47 6.11491 -1.79881 0
M  V30 4120 C 398.157 6.00773 -1.11868 0
M  V30 4121 C 399.155 6.5543 -1.92095 0
M  V30 4122 O 398.843 7.5234 -2.83267 0
M  V30 4123 H 398.575 0.669489 0.0935961 0
M  V30 4124 H 401.129 2.02004 -0.371966 0
M  V30 4125 H 399.359 3.45136 1.74407 0
M  V30 4126 H 401.048 3.77856 1.48255 0
M  V30 4127 H 401.814 4.78564 -0.787523 0
M  V30 4128 H 397.693 4.59055 0.423072 0
M  V30 4129 H 401.237 6.54078 -2.42543 0
M  V30 4130 H 397.134 6.34114 -1.20703 0
M  V30 4131 H 397.902 7.69966 -2.7766 0
M  V30 4132 N 400.565 -0.0233959 1.57583 0
M  V30 4133 C 401.512 -1.02224 2.06927 0
M  V30 4134 C 402.482 -1.35575 0.959617 0
M  V30 4135 O 403.667 -1.45815 1.23055 0
M  V30 4136 C 400.807 -2.31636 2.5581 0
M  V30 4137 C 399.92 -2.04394 3.80588 0
M  V30 4138 C 399.055 -3.27717 4.18061 0
M  V30 4139 C 398.094 -2.96056 5.3574 0
M  V30 4140 N 397.231 -4.11847 5.68618 0
M  V30 4141 H 402.071 -0.594504 2.9201 0
M  V30 4142 H 399.608 -0.281921 1.44373 0
M  V30 4143 H 401.566 -3.07258 2.82221 0
M  V30 4144 H 400.196 -2.72122 1.73636 0
M  V30 4145 H 399.248 -1.19244 3.61227 0
M  V30 4146 H 400.56 -1.77042 4.66323 0
M  V30 4147 H 399.714 -4.11702 4.4563 0
M  V30 4148 H 398.453 -3.58188 3.30988 0
M  V30 4149 H 397.458 -2.10474 5.07918 0
M  V30 4150 H 398.683 -2.66857 6.24471 0
M  V30 4151 H 396.629 -4.42258 4.84504 0
M  V30 4152 H 396.546 -3.87938 6.48876 0
M  V30 4153 H 397.814 -4.96689 6.00766 0
M  V30 4154 N 402.043 -1.548 -0.295768 0
M  V30 4155 C 403.271 -1.78327 -1.04914 0
M  V30 4156 C 403.686 -0.545316 -1.80753 0
M  V30 4157 O 403.043 0.485013 -1.75937 0
M  V30 4158 C 403.094 -2.99418 -2.02561 0
M  V30 4159 O 402.815 -4.18431 -1.29798 0
M  V30 4160 C 404.316 -3.35375 -2.89895 0
M  V30 4161 H 401.536 -0.594618 -0.310918 0
M  V30 4162 H 404.08 -2.01763 -0.333454 0
M  V30 4163 H 402.235 -2.78175 -2.69624 0
M  V30 4164 H 402.649 -4.86736 -1.95419 0
M  V30 4165 H 404.123 -4.23332 -3.54251 0
M  V30 4166 H 404.6 -2.53761 -3.58472 0
M  V30 4167 H 405.206 -3.58796 -2.28355 0
M  V30 4168 N 403.521 0.559213 -1.47345 0
M  V30 4169 C 404.749 1.34194 -1.57479 0
M  V30 4170 C 405.164 1.87463 -0.224261 0
M  V30 4171 O 404.521 1.64888 0.782185 0
M  V30 4172 C 404.572 2.51324 -2.59843 0
M  V30 4173 O 404.293 2.00256 -3.89653 0
M  V30 4174 C 405.794 3.43563 -2.80142 0
M  V30 4175 H 403.014 0.409136 -0.531835 0
M  V30 4176 H 405.558 0.677609 -1.92947 0
M  V30 4177 H 403.713 3.13699 -2.27314 0
M  V30 4178 H 404.127 2.76708 -4.4557 0
M  V30 4179 H 405.601 4.2217 -3.55635 0
M  V30 4180 H 406.078 3.9698 -1.87892 0
M  V30 4181 H 406.684 2.87005 -3.1386 0
M  V30 4182 N 404.999 1.35443 0.805782 0
M  V30 4183 C 406.41 1.25768 1.37983 0
M  V30 4184 C 406.761 -0.10958 1.95894 0
M  V30 4185 O 405.886 -1.01056 1.91355 0
M  V30 4186 C 406.481 2.27727 2.5085 0
M  V30 4187 C 405.04 2.2179 3.04115 0
M  V30 4188 C 404.187 2.13393 1.77084 0
M  V30 4189 H 407.138 1.4656 0.608752 0
M  V30 4190 H 407.159 1.90422 3.29424 0
M  V30 4191 H 406.671 3.27227 2.08671 0
M  V30 4192 H 404.772 1.25703 3.50756 0
M  V30 4193 H 404.885 3.13788 3.62042 0
M  V30 4194 H 403.249 1.59384 1.98668 0
M  V30 4195 H 404.032 3.14755 1.37056 0
M  V30 4196 N 406.477 -1.02803 1.19454 0
M  V30 4197 C 407.888 -1.57667 0.999899 0
M  V30 4198 C 408.239 -1.91041 -0.446956 0
M  V30 4199 O 407.364 -1.70978 -1.32648 0
M  V30 4200 C 407.959 -2.86477 1.80877 0
M  V30 4201 C 406.518 -3.37911 1.65811 0
M  V30 4202 C 405.665 -2.11343 1.79526 0
M  V30 4203 H 408.616 -0.853214 1.33813 0
M  V30 4204 H 408.637 -3.57408 1.30536 0
M  V30 4205 H 408.149 -2.62155 2.86175 0
M  V30 4206 H 406.25 -3.67218 0.63102 0
M  V30 4207 H 406.363 -4.10885 2.46395 0
M  V30 4208 H 404.727 -2.23254 1.22596 0
M  V30 4209 H 405.51 -1.89461 2.86285 0
M  V30 4210 N 407.956 -0.998596 -1.21925 0
M  V30 4211 C 409.202 -0.678667 -1.91107 0
M  V30 4212 C 409.535 0.78791 -1.77498 0
M  V30 4213 O 408.81 1.57043 -1.1475 0
M  V30 4214 C 409.093 -1.09245 -3.43129 0
M  V30 4215 C 408.946 -2.61801 -3.6576 0
M  V30 4216 C 410.265 -0.649984 -4.35274 0
M  V30 4217 H 407.384 -0.248025 -0.694012 0
M  V30 4218 H 410.026 -1.24314 -1.43688 0
M  V30 4219 H 408.176 -0.612171 -3.83647 0
M  V30 4220 H 409.848 -3.17543 -3.34611 0
M  V30 4221 H 408.091 -3.03609 -3.09845 0
M  V30 4222 H 408.762 -2.85804 -4.7225 0
M  V30 4223 H 411.238 -1.0626 -4.02303 0
M  V30 4224 H 410.114 -0.967743 -5.40302 0
M  V30 4225 H 410.375 0.449139 -4.39813 0
M  V30 4226 N 409.434 1.37368 -0.772513 0
M  V30 4227 C 410.364 2.32856 -0.173304 0
M  V30 4228 C 411.345 1.55818 0.682262 0
M  V30 4229 O 412.53 1.84052 0.619566 0
M  V30 4230 C 409.66 3.40048 0.706007 0
M  V30 4231 C 408.614 4.27973 -0.0483144 0
M  V30 4232 C 407.94 5.26184 0.950491 0
M  V30 4233 C 409.24 5.07665 -1.22776 0
M  V30 4234 H 410.934 2.83217 -0.971002 0
M  V30 4235 H 408.48 1.3617 -0.468377 0
M  V30 4236 H 410.433 4.05827 1.13501 0
M  V30 4237 H 409.157 2.88214 1.53623 0
M  V30 4238 H 407.816 3.63726 -0.458107 0
M  V30 4239 H 407.464 4.7063 1.77529 0
M  V30 4240 H 407.164 5.85872 0.450314 0
M  V30 4241 H 408.688 5.94838 1.37842 0
M  V30 4242 H 410.102 5.66578 -0.875366 0
M  V30 4243 H 408.499 5.76681 -1.66007 0
M  V30 4244 H 409.569 4.40294 -2.03149 0
M  V30 4245 N 410.912 0.523116 1.48665 0
M  V30 4246 C 412.189 -0.0775449 1.95446 0
M  V30 4247 C 412.569 -1.5197 1.4652 0
M  V30 4248 O 411.917 -2.17876 0.688657 0
M  V30 4249 C 412.127 0.0326135 3.48985 0
M  V30 4250 C 413.475 -0.130141 4.24401 0
M  V30 4251 O 414.499 -0.0415142 3.56176 0
M  V30 4252 O 413.358 -0.31491 5.45592 0
M  V30 4253 H 410.452 -0.0831012 0.822814 0
M  V30 4254 H 412.998 0.587227 1.59216 0
M  V30 4255 H 411.77 1.03748 3.77296 0
M  V30 4256 H 411.393 -0.671317 3.91892 0
M  V30 4257 N 412.39 -1.55475 0.257931 0
M  V30 4258 C 413.615 -2.04064 -0.370488 0
M  V30 4259 C 414.04 -1.13565 -1.49948 0
M  V30 4260 O 413.398 -0.130781 -1.80828 0
M  V30 4261 C 413.446 -3.50554 -0.845237 0
M  V30 4262 O 412.55 -3.63173 -1.95394 0
M  V30 4263 H 411.891 -0.659257 -0.0792243 0
M  V30 4264 H 414.421 -2.00903 0.387212 0
M  V30 4265 H 414.431 -3.91588 -1.14555 0
M  V30 4266 H 413.106 -4.15896 -0.0191259 0
M  V30 4267 H 411.683 -3.34039 -1.65748 0
M  V30 4268 N 413.868 0.0150385 -1.57593 0
M  V30 4269 C 415.145 0.7392 -1.81094 0
M  V30 4270 C 415.525 1.92817 -0.859344 0
M  V30 4271 O 414.873 2.28301 0.095362 0
M  V30 4272 C 415.083 1.15907 -3.29191 0
M  V30 4273 C 416.431 1.56918 -3.9454 0
M  V30 4274 O 417.455 1.25328 -3.33424 0
M  V30 4275 O 416.314 2.15604 -5.02173 0
M  V30 4276 H 413.408 0.358631 -0.745193 0
M  V30 4277 H 415.954 -0.00926156 -1.69697 0
M  V30 4278 H 414.726 0.310921 -3.90063 0
M  V30 4279 H 414.349 1.96711 -3.45529 0
M  V30 4280 N 415.346 1.54954 0.287554 0
M  V30 4281 C 416.594 1.74528 1.01904 0
M  V30 4282 C 416.915 0.541349 1.87335 0
M  V30 4283 O 416.185 -0.444108 1.908 0
M  V30 4284 H 414.765 0.643576 0.379235 0
M  V30 4285 H 417.427 1.92333 0.315294 0
M  V30 4286 H 416.523 2.64015 1.6644 0
M  V30 4287 N 416.824 -0.551391 1.4764 0
M  V30 4288 C 418.049 -1.33837 1.58437 0
M  V30 4289 C 418.474 -1.866 0.237063 0
M  V30 4290 O 417.832 -1.6328 -0.787994 0
M  V30 4291 C 417.88 -2.48014 2.61766 0
M  V30 4292 O 416.984 -3.50419 2.1744 0
M  V30 4293 H 416.325 -0.397299 0.532024 0
M  V30 4294 H 418.855 -0.665759 1.93465 0
M  V30 4295 H 418.865 -2.94503 2.82369 0
M  V30 4296 H 417.54 -2.08969 3.5959 0
M  V30 4297 H 416.117 -3.10196 2.06961 0
M  V30 4298 N 418.302 -1.35869 -0.798587 0
M  V30 4299 C 419.549 -1.29588 -1.55606 0
M  V30 4300 C 419.877 0.127456 -1.94082 0
M  V30 4301 O 419.132 1.09461 -1.62225 0
M  V30 4302 C 419.431 -2.1556 -2.85077 0
M  V30 4303 C 419.097 -3.6424 -2.65781 0
M  V30 4304 C 417.759 -4.04766 -2.60227 0
M  V30 4305 C 420.111 -4.58547 -2.47758 0
M  V30 4306 C 417.439 -5.37753 -2.34603 0
M  V30 4307 C 419.791 -5.91742 -2.23662 0
M  V30 4308 C 418.455 -6.31402 -2.16534 0
M  V30 4309 H 417.725 -0.474197 -0.569402 0
M  V30 4310 H 420.372 -1.67839 -0.922086 0
M  V30 4311 H 418.677 -1.70216 -3.52893 0
M  V30 4312 H 420.374 -2.08031 -3.42818 0
M  V30 4313 H 416.964 -3.32086 -2.70956 0
M  V30 4314 H 421.148 -4.28117 -2.51056 0
M  V30 4315 H 416.404 -5.67474 -2.2756 0
M  V30 4316 H 420.578 -6.6439 -2.08708 0
M  V30 4317 H 418.205 -7.34381 -1.96441 0
M  V30 4318 N 419.78 1.02168 -1.19998 0
M  V30 4319 C 421.027 1.75685 -1.00702 0
M  V30 4320 C 421.355 1.88947 0.461426 0
M  V30 4321 O 420.61 1.40832 1.35885 0
M  V30 4322 C 420.909 3.18081 -1.62969 0
M  V30 4323 C 420.575 3.24809 -3.12746 0
M  V30 4324 C 419.237 3.26352 -3.53621 0
M  V30 4325 C 421.589 3.23379 -4.08749 0
M  V30 4326 C 418.917 3.2413 -4.89036 0
M  V30 4327 C 421.269 3.22698 -5.44104 0
M  V30 4328 C 419.933 3.22542 -5.84399 0
M  V30 4329 H 419.203 0.642877 -0.368496 0
M  V30 4330 H 421.85 1.19865 -1.49348 0
M  V30 4331 H 420.155 3.77027 -1.06573 0
M  V30 4332 H 421.852 3.73648 -1.45561 0
M  V30 4333 H 418.442 3.2434 -2.80181 0
M  V30 4334 H 422.626 3.21361 -3.78207 0
M  V30 4335 H 417.882 3.22338 -5.19527 0
M  V30 4336 H 422.056 3.20543 -6.18244 0
M  V30 4337 H 419.683 3.20575 -6.89301 0
M  V30 4338 N 421.258 1.00505 1.21394 0
M  V30 4339 C 422.188 0.585684 2.26035 0
M  V30 4340 C 423.169 -0.393525 1.65485 0
M  V30 4341 O 424.354 -0.281497 1.92149 0
M  V30 4342 C 421.484 -0.0884283 3.47187 0
M  V30 4343 C 420.438 0.810567 4.20254 0
M  V30 4344 C 419.764 0.00286382 5.347 0
M  V30 4345 C 421.064 2.1132 4.77641 0
M  V30 4346 H 422.758 1.46039 2.61368 0
M  V30 4347 H 420.304 0.703648 1.25638 0
M  V30 4348 H 422.257 -0.393286 4.19561 0
M  V30 4349 H 420.981 -0.997766 3.10986 0
M  V30 4350 H 419.64 1.09925 3.49731 0
M  V30 4351 H 419.288 -0.907765 4.94741 0
M  V30 4352 H 418.988 0.601444 5.84514 0
M  V30 4353 H 420.512 -0.295808 6.09883 0
M  V30 4354 H 421.926 1.87148 5.41893 0
M  V30 4355 H 420.323 2.66164 5.37845 0
M  V30 4356 H 421.393 2.78393 3.9702 0
M  V30 4357 N 422.737 -1.36956 0.779787 0
M  V30 4358 C 423.967 -2.03459 0.358877 0
M  V30 4359 C 424.375 -1.58939 -1.02641 0
M  V30 4360 O 423.718 -0.769777 -1.66794 0
M  V30 4361 C 423.78 -3.5796 0.332393 0
M  V30 4362 C 423.444 -4.25644 1.66362 0
M  V30 4363 C 424.441 -4.49205 2.61746 0
M  V30 4364 C 422.126 -4.63313 1.94027 0
M  V30 4365 C 424.12 -5.09503 3.82996 0
M  V30 4366 C 421.807 -5.2333 3.15546 0
M  V30 4367 C 422.805 -5.46363 4.0985 0
M  V30 4368 O 422.493 -6.05122 5.29228 0
M  V30 4369 H 422.225 -0.659767 0.147254 0
M  V30 4370 H 424.779 -1.76111 1.05708 0
M  V30 4371 H 423.009 -3.84388 -0.422237 0
M  V30 4372 H 424.698 -4.05852 -0.0625389 0
M  V30 4373 H 425.464 -4.20508 2.41657 0
M  V30 4374 H 421.343 -4.44715 1.21448 0
M  V30 4375 H 424.887 -5.27397 4.56617 0
M  V30 4376 H 420.784 -5.51451 3.35517 0
M  V30 4377 H 421.552 -6.23595 5.30161 0
M  V30 4378 N 424.215 -0.530993 -1.48385 0
M  V30 4379 C 425.44 0.000729535 -2.074 0
M  V30 4380 C 425.865 1.27298 -1.3848 0
M  V30 4381 O 425.223 1.75599 -0.451081 0
M  V30 4382 C 425.271 0.206697 -3.60007 0
M  V30 4383 O 424.375 1.27514 -3.92191 0
M  V30 4384 H 423.716 -0.039583 -0.662819 0
M  V30 4385 H 426.246 -0.739194 -1.9078 0
M  V30 4386 H 426.256 0.42904 -4.05738 0
M  V30 4387 H 424.931 -0.722675 -4.09573 0
M  V30 4388 H 423.508 1.03537 -3.58238 0
M  V30 4389 N 425.693 1.55336 -0.266172 0
M  V30 4390 C 427.109 1.59356 0.0882065 0
M  V30 4391 C 427.309 1.2834 1.55342 0
M  V30 4392 O 426.365 1.03996 2.30089 0
M  V30 4393 C 427.678 2.99409 -0.278364 0
M  V30 4394 C 429.226 3.12196 -0.224243 0
M  V30 4395 C 429.701 4.545 -0.565123 0
M  V30 4396 N 431.192 4.60313 -0.51634 0
M  V30 4397 C 431.927 5.68434 -0.753013 0
M  V30 4398 N 431.423 6.84738 -1.05383 0
M  V30 4399 N 433.216 5.57942 -0.682414 0
M  V30 4400 H 425.367 1.73764 -1.22147 0
M  V30 4401 H 427.63 0.809822 -0.492841 0
M  V30 4402 H 427.336 3.2691 -1.29703 0
M  V30 4403 H 427.21 3.75228 0.385186 0
M  V30 4404 H 429.597 2.84464 0.78512 0
M  V30 4405 H 429.678 2.38609 -0.921922 0
M  V30 4406 H 429.322 4.82956 -1.57213 0
M  V30 4407 H 429.252 5.26374 0.154248 0
M  V30 4408 H 431.743 3.7676 -0.29335 0
M  V30 4409 H 432.056 7.63088 -1.22133 0
M  V30 4410 H 430.401 6.86375 -1.09151 0
M  V30 4411 H 433.592 4.65958 -0.44731 0
M  V30 4412 H 433.765 6.4213 -0.870248 0
M  V30 4413 N 427.171 -0.0066808 1.57599 0
M  V30 4414 C 428.101 -0.999296 2.11036 0
M  V30 4415 C 429.082 -1.36278 1.01795 0
M  V30 4416 O 430.267 -1.4477 1.29442 0
M  V30 4417 C 427.397 -2.29328 2.60818 0
M  V30 4418 C 426.351 -2.07159 3.74525 0
M  V30 4419 C 425.677 -3.42512 4.10596 0
M  V30 4420 C 426.977 -1.43959 5.02069 0
M  V30 4421 H 428.671 -0.554382 2.94223 0
M  V30 4422 H 426.217 -0.265221 1.41536 0
M  V30 4423 H 428.17 -2.99117 2.96828 0
M  V30 4424 H 426.894 -2.7592 1.74745 0
M  V30 4425 H 425.553 -1.39797 3.38899 0
M  V30 4426 H 425.201 -3.86795 3.21556 0
M  V30 4427 H 424.901 -3.28498 4.87199 0
M  V30 4428 H 426.425 -4.13628 4.4916 0
M  V30 4429 H 427.839 -2.03696 5.35893 0
M  V30 4430 H 426.236 -1.40452 5.83432 0
M  V30 4431 H 427.306 -0.407992 4.83181 0
M  V30 4432 N 428.649 -1.55105 -0.279332 0
M  V30 4433 C 429.877 -1.7943 -1.03017 0
M  V30 4434 C 430.292 -0.564456 -1.80165 0
M  V30 4435 O 429.649 0.466326 -1.76442 0
M  V30 4436 C 429.7 -3.0155 -1.99374 0
M  V30 4437 O 429.421 -4.19784 -1.25352 0
M  V30 4438 C 430.922 -3.3843 -2.86321 0
M  V30 4439 H 428.142 -0.597882 -0.304594 0
M  V30 4440 H 430.686 -2.02105 -0.312035 0
M  V30 4441 H 428.841 -2.81019 -2.66659 0
M  V30 4442 H 429.255 -4.88781 -1.90246 0
M  V30 4443 H 430.729 -4.27066 -3.49741 0
M  V30 4444 H 431.206 -2.57549 -3.5576 0
M  V30 4445 H 431.812 -3.61197 -2.24536 0
M  V30 4446 N 430.127 0.543554 -1.4793 0
M  V30 4447 C 431.373 1.30201 -1.55485 0
M  V30 4448 C 431.706 1.92925 -0.222201 0
M  V30 4449 O 430.981 1.78586 0.77053 0
M  V30 4450 C 431.264 2.40174 -2.68307 0
M  V30 4451 C 431.117 1.8223 -4.11233 0
M  V30 4452 C 432.436 3.42024 -2.76961 0
M  V30 4453 H 429.555 0.472036 -0.565996 0
M  V30 4454 H 432.197 0.606914 -1.80046 0
M  V30 4455 H 430.347 2.99463 -2.47495 0
M  V30 4456 H 432.019 1.27096 -4.43446 0
M  V30 4457 H 430.262 1.12832 -4.18869 0
M  V30 4458 H 430.933 2.61793 -4.85972 0
M  V30 4459 H 433.409 2.92672 -2.95774 0
M  V30 4460 H 432.285 4.16383 -3.57654 0
M  V30 4461 H 432.546 4.0173 -1.84568 0
M  V30 4462 N 431.605 1.3629 0.791371 0
M  V30 4463 C 432.882 1.20962 1.53712 0
M  V30 4464 C 433.262 -0.205021 2.10102 0
M  V30 4465 O 432.61 -1.21042 1.93807 0
M  V30 4466 C 432.82 2.29002 2.63361 0
M  V30 4467 C 434.168 2.65572 3.31295 0
M  V30 4468 O 435.192 2.2803 2.73643 0
M  V30 4469 O 434.051 3.3018 4.35481 0
M  V30 4470 H 431.145 0.47086 0.679867 0
M  V30 4471 H 433.691 1.48016 0.830021 0
M  V30 4472 H 432.463 3.2382 2.19674 0
M  V30 4473 H 432.086 2.03303 3.41692 0
M  V30 4474 N 433.083 -1.0153 1.20538 0
M  V30 4475 C 434.03 -2.10098 0.955383 0
M  V30 4476 C 435 -1.65702 -0.114878 0
M  V30 4477 O 436.185 -1.90776 0.0301118 0
M  V30 4478 C 433.325 -3.41236 0.514969 0
M  V30 4479 C 432.438 -3.99102 1.65353 0
M  V30 4480 C 431.573 -5.18306 1.16329 0
M  V30 4481 C 430.612 -5.68258 2.27485 0
M  V30 4482 N 429.749 -6.78722 1.7967 0
M  V30 4483 H 434.589 -2.30818 1.88486 0
M  V30 4484 H 432.126 -1.13189 0.939499 0
M  V30 4485 H 434.084 -4.16504 0.240935 0
M  V30 4486 H 432.714 -3.20585 -0.377512 0
M  V30 4487 H 431.766 -3.20918 2.04245 0
M  V30 4488 H 433.078 -4.32177 2.49047 0
M  V30 4489 H 432.232 -6.00782 0.845302 0
M  V30 4490 H 430.971 -4.86799 0.296254 0
M  V30 4491 H 429.976 -4.84385 2.60099 0
M  V30 4492 H 431.201 -6.01798 3.14667 0
M  V30 4493 H 429.147 -6.49042 0.95295 0
M  V30 4494 H 429.064 -7.10996 2.56944 0
M  V30 4495 H 430.332 -7.64759 1.50875 0
M  V30 4496 N 434.561 -1.01147 -1.20859 0
M  V30 4497 C 435.786 -0.716698 -1.94623 0
M  V30 4498 C 436.211 0.715415 -1.73964 0
M  V30 4499 O 435.569 1.49157 -1.03062 0
M  V30 4500 C 435.617 -1.0513 -3.44935 0
M  V30 4501 O 434.721 -0.160131 -4.12089 0
M  V30 4502 H 434.062 -0.266404 -0.608214 0
M  V30 4503 H 436.592 -1.35346 -1.53436 0
M  V30 4504 H 436.602 -1.00086 -3.95533 0
M  V30 4505 H 435.277 -2.09475 -3.59295 0
M  V30 4506 H 433.854 -0.267657 -3.71938 0
M  V30 4507 N 436.039 1.36541 -0.78704 0
M  V30 4508 C 437.455 1.52571 -0.46844 0
M  V30 4509 C 437.655 1.7415 1.01361 0
M  V30 4510 O 436.711 1.77163 1.79915 0
M  V30 4511 C 438.024 2.71299 -1.29682 0
M  V30 4512 C 439.572 2.85169 -1.29027 0
M  V30 4513 C 440.047 4.06898 -2.10233 0
M  V30 4514 N 441.538 4.1404 -2.07666 0
M  V30 4515 C 442.273 5.07301 -2.67271 0
M  V30 4516 N 441.769 6.06021 -3.35724 0
M  V30 4517 N 443.562 4.99898 -2.57018 0
M  V30 4518 H 435.713 1.20788 -1.74711 0
M  V30 4519 H 437.976 0.589364 -0.742532 0
M  V30 4520 H 437.682 2.61868 -2.34773 0
M  V30 4521 H 437.556 3.6539 -0.936479 0
M  V30 4522 H 439.943 2.94062 -0.247284 0
M  V30 4523 H 440.024 1.91992 -1.69035 0
M  V30 4524 H 439.668 3.98766 -3.1456 0
M  V30 4525 H 439.598 4.99218 -1.67597 0
M  V30 4526 H 442.089 3.43357 -1.57843 0
M  V30 4527 H 442.402 6.73741 -3.78541 0
M  V30 4528 H 440.747 6.06253 -3.39826 0
M  V30 4529 H 443.938 4.21724 -2.03142 0
M  V30 4530 H 444.111 5.72392 -3.03761 0
M  V30 4531 N 437.518 0.538854 1.48102 0
M  V30 4532 C 438.764 0.0161732 2.03394 0
M  V30 4533 C 439.119 -1.31154 1.40771 0
M  V30 4534 O 438.412 -1.83613 0.547421 0
M  V30 4535 C 438.606 -0.153808 3.57069 0
M  V30 4536 C 438.435 1.15588 4.34591 0
M  V30 4537 C 437.205 1.71818 4.75191 0
M  V30 4538 C 439.403 2.06867 4.70861 0
M  V30 4539 N 437.385 2.96983 5.37284 0
M  V30 4540 C 438.756 3.16609 5.33066 0
M  V30 4541 C 440.811 2.07085 4.52791 0
M  V30 4542 C 439.514 4.26645 5.79109 0
M  V30 4543 C 441.54 3.16121 4.99821 0
M  V30 4544 C 440.902 4.24582 5.62058 0
M  V30 4545 H 437.001 0.0476346 0.780548 0
M  V30 4546 H 439.585 0.722094 1.80815 0
M  V30 4547 H 437.756 -0.828825 3.79454 0
M  V30 4548 H 439.488 -0.676896 3.98999 0
M  V30 4549 H 436.243 1.25845 4.56574 0
M  V30 4550 H 436.667 3.60732 5.72889 0
M  V30 4551 H 441.309 1.24522 4.04047 0
M  V30 4552 H 439.027 5.0998 6.26854 0
M  V30 4553 H 442.613 3.17355 4.87624 0
M  V30 4554 H 441.493 5.07562 5.97788 0
M  V30 4555 N 438.996 -1.55193 0.274407 0
M  V30 4556 C 439.928 -2.1989 -0.646595 0
M  V30 4557 C 440.941 -1.1834 -1.11801 0
M  V30 4558 O 442.13 -1.4507 -1.04004 0
M  V30 4559 C 439.23 -2.8104 -1.89393 0
M  V30 4560 C 438.403 -4.08274 -1.56943 0
M  V30 4561 C 437.462 -4.53478 -2.66916 0
M  V30 4562 O 436.488 -5.19267 -2.33132 0
M  V30 4563 N 437.69 -4.2356 -3.9696 0
M  V30 4564 H 440.455 -2.99556 -0.0928686 0
M  V30 4565 H 438.016 -1.61618 0.0954783 0
M  V30 4566 H 440.008 -3.08226 -2.62257 0
M  V30 4567 H 438.578 -2.05372 -2.35672 0
M  V30 4568 H 437.798 -3.88384 -0.674655 0
M  V30 4569 H 439.086 -4.91173 -1.32764 0
M  V30 4570 H 438.484 -3.70799 -4.27229 0
M  V30 4571 H 437.041 -4.55518 -4.66205 0
M  V30 4572 N 440.474 -0.00167713 -1.576 0
M  V30 4573 C 441.384 1.00548 -2.1196 0
M  V30 4574 C 442.4 1.3758 -1.06526 0
M  V30 4575 O 443.576 1.46278 -1.38436 0
M  V30 4576 C 440.641 2.27809 -2.6135 0
M  V30 4577 C 439.702 1.97074 -3.81393 0
M  V30 4578 C 438.935 3.18267 -4.28417 0
M  V30 4579 O 439.158 4.30009 -3.74765 0
M  V30 4580 O 438.092 3.02167 -5.20556 0
M  V30 4581 H 441.918 0.573373 -2.98238 0
M  V30 4582 H 439.503 0.217255 -1.47812 0
M  V30 4583 H 441.385 3.02568 -2.93309 0
M  V30 4584 H 440.06 2.70254 -1.78169 0
M  V30 4585 H 438.967 1.19785 -3.54404 0
M  V30 4586 H 440.3 1.59464 -4.65652 0
M  V30 4587 N 441.952 1.55251 0.271103 0
M  V30 4588 C 443.2 1.75599 1.00047 0
M  V30 4589 C 443.521 0.561188 1.8675 0
M  V30 4590 O 442.791 -0.423846 1.9126 0
M  V30 4591 H 441.371 0.647562 0.372387 0
M  V30 4592 H 444.033 1.92656 0.294876 0
M  V30 4593 H 443.129 2.65766 1.6363 0
M  V30 4594 N 443.43 -0.535701 1.48216 0
M  V30 4595 C 444.378 -1.66179 1.62749 0
M  V30 4596 C 445.372 -1.62034 0.49409 0
M  V30 4597 O 446.578 -1.6696 0.672624 0
M  V30 4598 H 442.953 -0.550244 0.512578 0
M  V30 4599 H 444.924 -1.51063 2.57337 0
M  V30 4600 C 443.673 -3.04471 1.67907 0
M  V30 4601 H 442.996 -3.08351 2.54479 0
M  V30 4602 H 444.436 -3.82894 1.82121 0
M  V30 4603 C 442.895 -3.34314 0.416596 0
M  V30 4604 O 443.425 -3.98905 -0.473014 0
M  V30 4605 N 441.631 -2.89149 0.290038 0
M  V30 4606 H 441.178 -2.36764 1.01493 0
M  V30 4607 H 441.136 -3.09486 -0.55367 0
M  V30 4608 N 444.908 -1.36708 -0.784132 0
M  V30 4609 C 446.154 -1.31426 -1.54451 0
M  V30 4610 C 446.487 0.10476 -1.93917 0
M  V30 4611 O 445.762 1.05934 -1.6312 0
M  V30 4612 C 446.045 -2.24189 -2.818 0
M  V30 4613 C 445.898 -3.74813 -2.48667 0
M  V30 4614 C 447.217 -2.15626 -3.83658 0
M  V30 4615 H 444.336 -0.478739 -0.560337 0
M  V30 4616 H 446.978 -1.67305 -0.900498 0
M  V30 4617 H 445.128 -1.93722 -3.36755 0
M  V30 4618 H 446.8 -4.15823 -1.99722 0
M  V30 4619 H 445.043 -3.93989 -1.81535 0
M  V30 4620 H 445.714 -4.35138 -3.39646 0
M  V30 4621 H 448.19 -2.42456 -3.38163 0
M  V30 4622 H 447.066 -2.82694 -4.70506 0
M  V30 4623 H 447.327 -1.14522 -4.27009 0
M  V30 4624 N 446.386 1.0089 -1.21074 0
M  V30 4625 C 447.633 1.74607 -1.0256 0
M  V30 4626 C 447.961 1.89426 0.44136 0
M  V30 4627 O 447.216 1.42266 1.34384 0
M  V30 4628 C 447.515 3.16335 -1.66334 0
M  V30 4629 C 447.181 3.21474 -3.16173 0
M  V30 4630 C 445.843 3.22583 -3.57062 0
M  V30 4631 C 448.195 3.19025 -4.12156 0
M  V30 4632 C 445.523 3.18925 -4.92446 0
M  V30 4633 C 447.875 3.16909 -5.47496 0
M  V30 4634 C 446.539 3.16326 -5.87787 0
M  V30 4635 H 445.809 0.638933 -0.375294 0
M  V30 4636 H 448.456 1.18274 -1.50611 0
M  V30 4637 H 446.761 3.75876 -1.10566 0
M  V30 4638 H 448.458 3.72083 -1.49516 0
M  V30 4639 H 445.048 3.2135 -2.83605 0
M  V30 4640 H 449.232 3.17332 -3.81595 0
M  V30 4641 H 444.488 3.16809 -5.22917 0
M  V30 4642 H 448.662 3.13968 -6.21609 0
M  V30 4643 H 446.289 3.13246 -6.92662 0
M  V30 4644 N 447.864 1.01787 1.20321 0
M  V30 4645 C 449.089 0.727009 1.9424 0
M  V30 4646 C 449.514 -0.706179 1.74341 0
M  V30 4647 O 448.872 -1.48609 1.03852 0
M  V30 4648 C 448.92 1.06958 3.44372 0
M  V30 4649 O 448.024 0.181983 4.11998 0
M  V30 4650 H 447.365 0.269626 0.606793 0
M  V30 4651 H 449.895 1.36158 1.52716 0
M  V30 4652 H 449.905 1.02182 3.94997 0
M  V30 4653 H 448.58 2.11378 3.58179 0
M  V30 4654 H 447.157 0.287378 3.71791 0
M  V30 4655 N 449.342 -1.36122 0.79427 0
M  V30 4656 C 450.582 -2.00942 0.374376 0
M  V30 4657 C 450.946 -1.61666 -1.03577 0
M  V30 4658 O 452.147 -2.19113 -1.55701 0
M  V30 4659 C 450.418 -3.53323 0.538327 0
M  V30 4660 S 451.977 -4.38311 0.20703 0
M  V30 4661 H 448.795 -0.696515 0.142785 0
M  V30 4662 H 451.397 -1.65929 1.03382 0
M  V30 4663 H 450.101 -3.79395 1.56484 0
M  V30 4664 H 449.632 -3.93162 -0.136882 0
M  V30 4665 H 451.647 -4.8623 -0.989695 0
M  V30 4666 N 450.82 -0.546701 -1.47814 0
M  V30 4667 C 452.045 -0.021268 -2.07389 0
M  V30 4668 C 452.47 1.25822 -1.39822 0
M  V30 4669 O 451.828 1.75111 -0.46968 0
M  V30 4670 C 451.876 0.168502 -3.60206 0
M  V30 4671 O 450.98 1.23347 -3.93522 0
M  V30 4672 H 450.321 -0.0466108 -0.662362 0
M  V30 4673 H 452.851 -0.759387 -1.89985 0
M  V30 4674 H 452.861 0.385982 -4.0617 0
M  V30 4675 H 451.536 -0.766075 -4.08784 0
M  V30 4676 H 450.113 0.997319 -3.59316 0
M  V30 4677 N 452.299 1.55045 -0.282633 0
M  V30 4678 C 453.545 2.00056 0.332481 0
M  V30 4679 C 453.878 1.1708 1.54939 0
M  V30 4680 O 453.153 0.2427 1.9298 0
M  V30 4681 C 453.436 3.53086 0.70725 0
M  V30 4682 C 453.289 4.46813 -0.517521 0
M  V30 4683 C 454.608 4.12245 1.54084 0
M  V30 4684 H 451.727 0.727268 0.119373 0
M  V30 4685 H 454.369 1.85932 -0.391076 0
M  V30 4686 H 452.519 3.65253 1.32372 0
M  V30 4687 H 454.191 4.46579 -1.15607 0
M  V30 4688 H 452.434 4.18163 -1.1542 0
M  V30 4689 H 453.105 5.51595 -0.211426 0
M  V30 4690 H 455.581 4.03401 1.02013 0
M  V30 4691 H 454.457 5.19515 1.77186 0
M  V30 4692 H 454.718 3.62951 2.52427 0
M  V30 4693 N 453.777 0.010035 1.57597 0
M  V30 4694 C 454.71 -1.01234 2.04516 0
M  V30 4695 C 455.688 -1.32886 0.937024 0
M  V30 4696 O 456.872 -1.44879 1.20592 0
M  V30 4697 C 453.999 -2.33738 2.45121 0
M  V30 4698 C 453.045 -2.17679 3.66767 0
M  V30 4699 S 453.878 -1.49343 5.14254 0
M  V30 4700 C 455.034 -2.83256 5.58137 0
M  V30 4701 H 455.267 -0.612866 2.90914 0
M  V30 4702 H 452.8 -0.201124 1.53084 0
M  V30 4703 H 454.758 -3.09922 2.69182 0
M  V30 4704 H 453.419 -2.70823 1.59103 0
M  V30 4705 H 452.612 -3.1559 3.92962 0
M  V30 4706 H 452.214 -1.4964 3.42759 0
M  V30 4707 H 454.506 -3.79538 5.6121 0
M  V30 4708 H 455.449 -2.61749 6.57946 0
M  V30 4709 H 455.857 -2.87627 4.85727 0
M  V30 4710 N 455.255 -1.55392 -0.262866 0
M  V30 4711 C 456.205 -1.85355 -1.32768 0
M  V30 4712 C 457.189 -0.713188 -1.44231 0
M  V30 4713 O 458.381 -0.974765 -1.47741 0
M  V30 4714 C 455.51 -2.13781 -2.68612 0
M  V30 4715 C 454.596 -3.34104 -2.61219 0
M  V30 4716 N 454.987 -4.53766 -2.2345 0
M  V30 4717 C 453.285 -3.36895 -2.92263 0
M  V30 4718 C 453.986 -5.35877 -2.26298 0
M  V30 4719 N 452.962 -4.74536 -2.65172 0
M  V30 4720 H 456.764 -2.75413 -1.02591 0
M  V30 4721 H 454.278 -1.55405 -0.471503 0
M  V30 4722 H 456.275 -2.33407 -3.45437 0
M  V30 4723 H 454.935 -1.25013 -2.99669 0
M  V30 4724 H 455.946 -4.79682 -1.95258 0
M  V30 4725 H 452.623 -2.58351 -3.27965 0
M  V30 4726 H 454.013 -6.41577 -1.99572 0
M  V30 4727 N 456.733 0.527833 -1.48498 0
M  V30 4728 C 457.643 1.65907 -1.65867 0
M  V30 4729 C 458.659 1.6537 -0.541192 0
M  V30 4730 O 459.835 1.84282 -0.812534 0
M  V30 4731 C 456.9 3.02364 -1.69637 0
M  V30 4732 C 455.961 3.1374 -2.93028 0
M  V30 4733 C 455.194 4.43688 -2.96609 0
M  V30 4734 O 455.417 5.30913 -2.08538 0
M  V30 4735 O 454.351 4.59475 -3.88802 0
M  V30 4736 H 458.177 1.5419 -2.61647 0
M  V30 4737 H 455.762 0.701163 -1.31924 0
M  V30 4738 H 457.644 3.83515 -1.74625 0
M  V30 4739 H 456.319 3.14401 -0.770312 0
M  V30 4740 H 455.226 2.31877 -2.93571 0
M  V30 4741 H 456.559 3.06621 -3.85026 0
M  V30 4742 N 458.211 1.37122 0.776871 0
M  V30 4743 C 459.174 1.32301 1.8716 0
M  V30 4744 C 460.174 0.228099 1.59174 0
M  V30 4745 O 461.364 0.483642 1.67352 0
M  V30 4746 C 458.496 1.054 3.24197 0
M  V30 4747 H 459.689 2.29673 1.92848 0
M  V30 4748 H 457.242 1.22077 0.97606 0
M  V30 4749 H 457.977 0.0853872 3.24188 0
M  V30 4750 H 457.762 1.84648 3.45901 0
M  V30 4751 H 459.252 1.04664 4.04271 0
M  V30 4752 N 459.689 -1.00246 1.21608 0
M  V30 4753 C 460.619 -2.10921 1.00172 0
M  V30 4754 C 461.6 -1.69938 -0.0741587 0
M  V30 4755 O 462.785 -1.94009 0.0861753 0
M  V30 4756 C 459.915 -3.42618 0.568355 0
M  V30 4757 C 458.869 -3.97407 1.58909 0
M  V30 4758 C 458.195 -5.25038 1.01187 0
M  V30 4759 C 459.495 -4.2918 2.97661 0
M  V30 4760 H 461.189 -2.29112 1.92739 0
M  V30 4761 H 458.735 -1.10101 0.928102 0
M  V30 4762 H 460.688 -4.19444 0.405555 0
M  V30 4763 H 459.412 -3.24227 -0.392961 0
M  V30 4764 H 458.071 -3.22703 1.73949 0
M  V30 4765 H 457.719 -5.02982 0.0421965 0
M  V30 4766 H 457.419 -5.62661 1.6937 0
M  V30 4767 H 458.943 -6.04507 0.860448 0
M  V30 4768 H 460.357 -4.96839 2.86049 0
M  V30 4769 H 458.754 -4.77952 3.6288 0
M  V30 4770 H 459.824 -3.3735 3.48315 0
M  V30 4771 N 461.167 -1.02423 -1.1978 0
M  V30 4772 C 462.117 -0.571689 -2.20716 0
M  V30 4773 C 463.101 0.377077 -1.56419 0
M  V30 4774 O 464.293 0.198801 -1.7588 0
M  V30 4775 C 461.422 0.0808555 -3.43205 0
M  V30 4776 C 460.508 -0.890073 -4.14655 0
M  V30 4777 N 460.899 -2.05065 -4.62366 0
M  V30 4778 C 459.197 -0.71252 -4.40272 0
M  V30 4779 C 459.898 -2.66264 -5.17183 0
M  V30 4780 N 458.874 -1.94264 -5.07703 0
M  V30 4781 H 462.676 -1.45636 -2.55279 0
M  V30 4782 H 460.19 -0.890596 -1.35802 0
M  V30 4783 H 462.187 0.422654 -4.14752 0
M  V30 4784 H 460.847 0.961274 -3.10144 0
M  V30 4785 H 461.858 -2.43026 -4.57339 0
M  V30 4786 H 458.535 0.119199 -4.1733 0
M  V30 4787 H 459.925 -3.64526 -5.64421 0
M  V30 4788 N 462.645 1.35699 -0.801477 0
M  V30 4789 C 463.593 2.3177 -0.196317 0
M  V30 4790 C 464.587 1.56388 0.651081 0
M  V30 4791 O 465.793 1.71557 0.544815 0
M  V30 4792 H 462.168 0.750669 -0.0447189 0
M  V30 4793 H 464.139 2.8036 -1.02181 0
M  V30 4794 C 462.888 3.41671 0.644702 0
M  V30 4795 H 462.211 3.998 0.0019921 0
M  V30 4796 H 463.651 4.11184 1.0346 0
M  V30 4797 C 462.11 2.84271 1.80808 0
M  V30 4798 O 462.64 2.77408 2.9053 0
M  V30 4799 N 460.846 2.41391 1.61799 0
M  V30 4800 H 460.393 2.47173 0.725493 0
M  V30 4801 H 460.351 2.03334 2.39797 0
M  V30 4802 N 464.123 0.554532 1.47522 0
M  V30 4803 C 465.073 -0.215008 2.26984 0
M  V30 4804 C 466.057 -0.88774 1.34194 0
M  V30 4805 O 467.249 -0.786489 1.58567 0
M  V30 4806 C 464.378 -1.24604 3.19889 0
M  V30 4807 C 463.464 -0.576857 4.20159 0
M  V30 4808 N 463.855 0.351541 5.04577 0
M  V30 4809 C 462.153 -0.831104 4.38188 0
M  V30 4810 C 462.854 0.739995 5.76974 0
M  V30 4811 N 461.83 0.0954407 5.43516 0
M  V30 4812 H 465.632 0.498843 2.89636 0
M  V30 4813 H 463.146 0.374279 1.58028 0
M  V30 4814 H 465.143 -1.81128 3.75498 0
M  V30 4815 H 463.803 -1.96101 2.58794 0
M  V30 4816 H 464.814 0.725556 5.12792 0
M  V30 4817 H 461.491 -1.53479 3.88266 0
M  V30 4818 H 462.881 1.50271 6.5488 0
M  V30 4819 N 465.601 -1.54893 0.290851 0
M  V30 4820 C 466.831 -2.04047 -0.323818 0
M  V30 4821 C 467.239 -1.16809 -1.48837 0
M  V30 4822 O 466.582 -0.184145 -1.82775 0
M  V30 4823 C 466.644 -3.49248 -0.852395 0
M  V30 4824 C 466.308 -4.56623 0.185557 0
M  V30 4825 C 467.305 -5.09985 1.01053 0
M  V30 4826 C 464.99 -5.01252 0.324332 0
M  V30 4827 C 466.984 -6.06507 1.96031 0
M  V30 4828 C 464.671 -5.97596 1.27757 0
M  V30 4829 C 465.669 -6.50107 2.09405 0
M  V30 4830 O 465.357 -7.44565 3.03114 0
M  V30 4831 H 465.089 -0.671735 -0.0758129 0
M  V30 4832 H 467.643 -2.00947 0.425393 0
M  V30 4833 H 465.873 -3.49639 -1.65195 0
M  V30 4834 H 467.562 -3.81654 -1.38185 0
M  V30 4835 H 468.328 -4.76307 0.914129 0
M  V30 4836 H 464.207 -4.60015 -0.301213 0
M  V30 4837 H 467.751 -6.47418 2.598 0
M  V30 4838 H 463.648 -6.30691 1.37473 0
M  V30 4839 H 464.416 -7.62334 2.97976 0
M  V30 4840 N 467.08 -0.0183926 -1.57589 0
M  V30 4841 C 468.308 0.673046 -1.95647 0
M  V30 4842 C 468.723 1.66275 -0.894312 0
M  V30 4843 O 468.08 1.82072 0.124975 0
M  V30 4844 C 468.131 1.38884 -3.33756 0
M  V30 4845 O 467.852 0.438806 -4.35897 0
M  V30 4846 C 469.353 2.1731 -3.86383 0
M  V30 4847 H 466.573 0.186292 -0.644621 0
M  V30 4848 H 469.117 -0.0749748 -2.04363 0
M  V30 4849 H 467.272 2.08835 -3.26293 0
M  V30 4850 H 467.686 0.945869 -5.15901 0
M  V30 4851 H 469.16 2.62863 -4.85394 0
M  V30 4852 H 469.637 3.00764 -3.20059 0
M  V30 4853 H 470.243 1.52339 -3.97081 0
M  V30 4854 N 468.558 1.5553 0.254621 0
M  V30 4855 C 469.49 1.86104 1.33783 0
M  V30 4856 C 470.503 0.746752 1.44663 0
M  V30 4857 O 471.692 1.0248 1.46151 0
M  V30 4858 C 468.792 2.02532 2.71724 0
M  V30 4859 C 467.965 3.33335 2.83208 0
M  V30 4860 C 467.024 3.396 4.01943 0
M  V30 4861 O 466.05 4.12862 3.91834 0
M  V30 4862 N 467.252 2.68332 5.1476 0
M  V30 4863 H 470.017 2.79605 1.07893 0
M  V30 4864 H 467.578 1.55672 0.444732 0
M  V30 4865 H 469.57 2.04074 3.4948 0
M  V30 4866 H 468.14 1.15811 2.90356 0
M  V30 4867 H 467.36 3.44176 1.92189 0
M  V30 4868 H 468.648 4.19565 2.87824 0
M  V30 4869 H 468.046 2.08528 5.25864 0
M  V30 4870 H 466.603 2.75575 5.90679 0
M  V30 4871 N 470.036 -0.519951 1.48776 0
M  V30 4872 C 470.983 -1.62352 1.64044 0
M  V30 4873 C 471.953 -1.58945 0.482251 0
M  V30 4874 O 473.138 -1.77219 0.706971 0
M  V30 4875 C 470.278 -3.00579 1.69547 0
M  V30 4876 C 469.391 -3.14145 2.96541 0
M  V30 4877 C 468.526 -4.42991 2.93142 0
M  V30 4878 C 467.565 -4.50122 4.14797 0
M  V30 4879 N 466.702 -5.7037 4.09418 0
M  V30 4880 H 471.542 -1.48643 2.58281 0
M  V30 4881 H 469.079 -0.723516 1.28077 0
M  V30 4882 H 471.037 -3.80671 1.70719 0
M  V30 4883 H 469.667 -3.13036 0.787918 0
M  V30 4884 H 468.719 -2.27239 3.05068 0
M  V30 4885 H 470.031 -3.15275 3.86527 0
M  V30 4886 H 469.185 -5.31385 2.92772 0
M  V30 4887 H 467.924 -4.44398 2.00902 0
M  V30 4888 H 466.929 -3.60133 4.15433 0
M  V30 4889 H 468.154 -4.50445 5.08208 0
M  V30 4890 H 466.1 -5.72655 3.20004 0
M  V30 4891 H 466.017 -5.73036 4.93119 0
M  V30 4892 H 467.285 -6.61023 4.13121 0
M  V30 4893 N 471.514 -1.37532 -0.769588 0
M  V30 4894 C 472.739 -1.36231 -1.56384 0
M  V30 4895 C 473.164 0.0495849 -1.88035 0
M  V30 4896 O 472.522 1.02723 -1.49391 0
M  V30 4897 C 472.57 -2.20986 -2.84952 0
M  V30 4898 O 471.674 -1.61597 -3.79421 0
M  V30 4899 H 471.015 -0.465387 -0.473615 0
M  V30 4900 H 473.545 -1.81085 -0.952342 0
M  V30 4901 H 473.555 -2.34277 -3.34034 0
M  V30 4902 H 472.23 -3.23612 -2.61243 0
M  V30 4903 H 470.807 -1.57359 -3.38072 0
M  V30 4904 N 472.992 0.995999 -1.22138 0
M  V30 4905 C 473.922 2.10387 -1.01289 0
M  V30 4906 C 474.903 1.69975 0.0651454 0
M  V30 4907 O 476.088 1.9396 -0.0964628 0
M  V30 4908 C 473.218 3.42312 -0.586517 0
M  V30 4909 C 472.172 3.96558 -1.61014 0
M  V30 4910 C 471.498 5.24494 -1.0397 0
M  V30 4911 C 472.798 4.27595 -2.99933 0
M  V30 4912 H 474.492 2.28086 -1.93951 0
M  V30 4913 H 472.038 1.09607 -0.933928 0
M  V30 4914 H 473.991 4.19223 -0.427793 0
M  V30 4915 H 472.715 3.24431 0.375761 0
M  V30 4916 H 471.374 3.21776 -1.75658 0
M  V30 4917 H 471.022 5.02953 -0.0688703 0
M  V30 4918 H 470.722 5.61755 -1.72352 0
M  V30 4919 H 472.246 6.04042 -0.892494 0
M  V30 4920 H 473.66 4.95315 -2.8868 0
M  V30 4921 H 472.057 4.76021 -3.6541 0
M  V30 4922 H 473.127 3.35498 -3.50099 0
M  V30 4923 N 474.47 1.03057 1.19235 0
M  V30 4924 C 475.695 0.74757 1.93458 0
M  V30 4925 C 476.12 -0.687648 1.7508 0
M  V30 4926 O 475.478 -1.47499 1.05422 0
M  V30 4927 C 475.526 1.10604 3.43219 0
M  V30 4928 O 474.63 0.225671 4.11782 0
M  V30 4929 H 473.971 0.276047 0.603899 0
M  V30 4930 H 476.501 1.3777 1.51263 0
M  V30 4931 H 476.511 1.06366 3.93891 0
M  V30 4932 H 475.186 2.15165 3.55917 0
M  V30 4933 H 473.763 0.326795 3.71465 0
M  V30 4934 N 475.948 -1.35272 0.808662 0
M  V30 4935 C 476.878 -2.32315 0.234981 0
M  V30 4936 C 477.859 -1.57572 -0.64071 0
M  V30 4937 O 479.044 -1.8563 -0.570551 0
M  V30 4938 C 476.174 -3.41801 -0.615601 0
M  V30 4939 C 475.128 -4.27694 0.161767 0
M  V30 4940 C 474.454 -5.28519 -0.810649 0
M  V30 4941 C 475.754 -5.04231 1.36193 0
M  V30 4942 H 477.448 -2.80543 1.04575 0
M  V30 4943 H 474.994 -1.3488 0.504315 0
M  V30 4944 H 476.947 -4.08693 -1.02702 0
M  V30 4945 H 475.671 -2.92186 -1.45928 0
M  V30 4946 H 474.33 -3.62384 0.554382 0
M  V30 4947 H 473.978 -4.75171 -1.64988 0
M  V30 4948 H 473.678 -5.8686 -0.294822 0
M  V30 4949 H 475.202 -5.98283 -1.22023 0
M  V30 4950 H 476.616 -5.64058 1.02528 0
M  V30 4951 H 475.013 -5.72077 1.81239 0
M  V30 4952 H 476.083 -4.34753 2.14751 0
M  V30 4953 N 477.426 -0.562348 -1.47226 0
M  V30 4954 C 478.651 -0.0432632 -2.07355 0
M  V30 4955 C 479.076 1.24332 -1.41149 0
M  V30 4956 O 478.434 1.74603 -0.488226 0
M  V30 4957 C 478.482 0.130288 -3.60365 0
M  V30 4958 O 477.586 1.19166 -3.94808 0
M  V30 4959 H 476.927 -0.0536334 -0.66183 0
M  V30 4960 H 479.457 -0.779495 -1.89169 0
M  V30 4961 H 479.467 0.342881 -4.06557 0
M  V30 4962 H 478.142 -0.809389 -4.07948 0
M  V30 4963 H 476.719 0.959153 -3.60354 0
M  V30 4964 N 478.904 1.54736 -0.299062 0
M  V30 4965 C 479.834 2.26409 0.571085 0
M  V30 4966 C 480.815 1.2629 1.13951 0
M  V30 4967 O 482 1.55059 1.16921 0
M  V30 4968 C 479.13 3.00338 1.74396 0
M  V30 4969 C 478.084 4.07588 1.30599 0
M  V30 4970 C 477.41 4.69222 2.56387 0
M  V30 4971 C 478.71 5.20455 0.438645 0
M  V30 4972 H 480.404 2.99388 -0.0266991 0
M  V30 4973 H 477.95 1.43993 -0.0142812 0
M  V30 4974 H 479.903 3.49198 2.35878 0
M  V30 4975 H 478.627 2.24934 2.36796 0
M  V30 4976 H 477.286 3.59575 0.71424 0
M  V30 4977 H 476.934 3.9046 3.17097 0
M  V30 4978 H 476.634 5.41653 2.27784 0
M  V30 4979 H 478.158 5.20844 3.18675 0
M  V30 4980 H 479.572 5.65221 0.959085 0
M  V30 4981 H 477.969 5.99594 0.246466 0
M  V30 4982 H 479.039 4.8192 -0.536738 0
M  V30 4983 N 480.382 0.0267497 1.57577 0
M  V30 4984 C 481.63 -0.651116 1.91324 0
M  V30 4985 C 481.951 -1.72804 0.90353 0
M  V30 4986 O 481.221 -1.95822 -0.0552946 0
M  V30 4987 H 479.801 -0.243491 0.706202 0
M  V30 4988 H 482.463 0.0739935 1.94759 0
M  V30 4989 H 481.559 -1.10536 2.9187 0
M  V30 4990 N 481.861 -1.55662 -0.24637 0
M  V30 4991 C 482.808 -1.90361 -1.30504 0
M  V30 4992 C 483.778 -0.757905 -1.47801 0
M  V30 4993 O 484.963 -1.01161 -1.61775 0
M  V30 4994 C 482.103 -2.2042 -2.65535 0
M  V30 4995 C 481.216 -3.47799 -2.56242 0
M  V30 4996 C 480.351 -3.67426 -3.8363 0
M  V30 4997 C 479.39 -4.88403 -3.68956 0
M  V30 4998 N 478.527 -5.04548 -4.88237 0
M  V30 4999 H 483.367 -2.80645 -1.00213 0
M  V30 5000 H 480.904 -1.38924 -0.483577 0
M  V30 5001 H 482.862 -2.35853 -3.44135 0
M  V30 5002 H 481.492 -1.3334 -2.93973 0
M  V30 5003 H 480.544 -3.40694 -1.69208 0
M  V30 5004 H 481.856 -4.36544 -2.4131 0
M  V30 5005 H 481.01 -3.82821 -4.70673 0
M  V30 5006 H 479.749 -2.76914 -4.01459 0
M  V30 5007 H 478.754 -4.72984 -2.80296 0
M  V30 5008 H 479.979 -5.80375 -3.52621 0
M  V30 5009 H 477.925 -4.16974 -5.06427 0
M  V30 5010 H 477.842 -5.87384 -4.75937 0
M  V30 5011 H 479.11 -5.24355 -5.76777 0
M  V30 5012 O 483.378 0.392 -1.5667 0
M  V30 5013 H 484.069 1.04392 -1.63163 0
M  V30 END ATOM
M  V30 BEGIN BOND
M  V30 END BOND
M  V30 END CTAB
M  END
$$$$
