drugbank_target|P01850 T-cell receptor beta-1 chain C region (DB02740)
 OpenBabel12092120393D

  0  0  0     0  0            999 V3000
M  V30 BEGIN CTAB
M  V30 COUNTS 2776 2812 0 0 0
M  V30 BEGIN ATOM
M  V30 1 H -0.908 1.98254 -0.117106 0
M  V30 2 N 0 1.576 0 0
M  V30 3 C 0.91 2.11853 1.00774 0
M  V30 4 C 1.926 1.06379 1.37693 0
M  V30 5 O 3.102 1.3828 1.46426 0
M  V30 6 C 0.167 2.61108 2.28087 0
M  V30 7 C -0.772 3.81183 1.9748 0
M  V30 8 C -1.539 4.28079 3.18723 0
M  V30 9 O -1.316 3.74307 4.30407 0
M  V30 10 O -2.382 5.20234 3.02721 0
M  V30 11 H 1.444 2.98177 0.576547 0
M  V30 12 H -0.971 1.47789 0.218828 0
M  V30 13 H 0.911 2.92987 3.0288 0
M  V30 14 H -0.414 1.77881 2.70444 0
M  V30 15 H -1.507 3.54277 1.20162 0
M  V30 16 H -0.174 4.65482 1.5996 0
M  V30 17 N 1.4781 -0.272755 1.55222 0
M  V30 18 C 2.7551 -1.02562 1.66555 0
M  V30 19 C 3.1351 -2.04282 0.532189 0
M  V30 20 O 2.4831 -2.23662 -0.467717 0
M  V30 21 C 2.6931 -1.6822 3.05782 0
M  V30 22 C 4.0411 -2.19373 3.63539 0
M  V30 23 O 5.0651 -1.78206 3.08417 0
M  V30 24 O 3.9241 -2.94883 4.60115 0
M  V30 25 H 1.0181 -0.475755 0.676451 0
M  V30 26 H 3.5641 -0.268593 1.67561 0
M  V30 27 H 2.3361 -0.945112 3.79715 0
M  V30 28 H 1.9591 -2.50609 3.08676 0
M  V30 29 N 2.9562 -1.48159 -0.537278 0
M  V30 30 C 3.8862 -1.65029 -1.6519 0
M  V30 31 C 4.8672 -0.499281 -1.62607 0
M  V30 32 O 6.0522 -0.730972 -1.79918 0
M  V30 33 C 3.1822 -1.68303 -3.03795 0
M  V30 34 C 2.1362 -2.8283 -3.21234 0
M  V30 35 C 1.4622 -2.71189 -4.60826 0
M  V30 36 C 2.7622 -4.24211 -3.04701 0
M  V30 37 H 4.4562 -2.58341 -1.51328 0
M  V30 38 H 2.0022 -1.24325 -0.726585 0
M  V30 39 H 3.9552 -1.78693 -3.81637 0
M  V30 40 H 2.6792 -0.715635 -3.18663 0
M  V30 41 H 1.3382 -2.71983 -2.45807 0
M  V30 42 H 0.9862 -1.72435 -4.7252 0
M  V30 43 H 0.6862 -3.48035 -4.7344 0
M  V30 44 H 2.2102 -2.83537 -5.40777 0
M  V30 45 H 3.6242 -4.3593 -3.72341 0
M  V30 46 H 2.0212 -5.01998 -3.28813 0
M  V30 47 H 3.0912 -4.41184 -2.01209 0
M  V30 48 N 4.4343 0.785586 -1.36625 0
M  V30 49 C 5.3823 1.91978 -1.31329 0
M  V30 50 C 6.3763 1.68162 -0.204416 0
M  V30 51 O 7.5823 1.76122 -0.371645 0
M  V30 52 H 3.9573 0.631087 -0.408942 0
M  V30 53 H 5.9283 1.93562 -2.27104 0
M  V30 54 C 4.6773 3.29055 -1.12329 0
M  V30 55 H 4.0003 3.4795 -1.96903 0
M  V30 56 H 5.4403 4.08756 -1.12671 0
M  V30 57 C 3.8993 3.36461 0.171861 0
M  V30 58 O 4.4293 3.84576 1.16035 0
M  V30 59 N 2.6353 2.89782 0.217846 0
M  V30 60 H 2.1823 2.50819 -0.587183 0
M  V30 61 H 2.1403 2.95119 1.08408 0
M  V30 62 N 5.9124 1.20967 1.01018 0
M  V30 63 C 6.8594 0.964281 2.09691 0
M  V30 64 C 7.8294 -0.107853 1.65749 0
M  V30 65 O 9.0144 0.0381987 1.90762 0
M  V30 66 C 6.1544 0.52943 3.41015 0
M  V30 67 C 5.2674 1.67043 3.98398 0
M  V30 68 C 4.4024 1.18525 5.17808 0
M  V30 69 C 3.4414 2.29892 5.67288 0
M  V30 70 N 2.5784 1.82546 6.77954 0
M  V30 71 H 7.4184 1.89463 2.30017 0
M  V30 72 H 4.9554 0.944289 1.1279 0
M  V30 73 H 6.9134 0.258588 4.16398 0
M  V30 74 H 5.5434 -0.363919 3.20742 0
M  V30 75 H 4.5954 2.05603 3.20049 0
M  V30 76 H 5.9074 2.50877 4.31117 0
M  V30 77 H 5.0614 0.870762 6.00419 0
M  V30 78 H 3.8004 0.316887 4.86669 0
M  V30 79 H 2.8054 2.6215 4.83278 0
M  V30 80 H 4.0304 3.17216 6.00459 0
M  V30 81 H 1.9764 0.980454 6.48632 0
M  V30 82 H 1.8934 2.59956 7.09901 0
M  V30 83 H 3.1614 1.54115 7.64113 0
M  V30 84 N 7.3905 -1.2043 1.01659 0
M  V30 85 C 8.6365 -1.90079 0.706963 0
M  V30 86 C 8.9695 -1.78648 -0.761474 0
M  V30 87 O 8.2445 -1.17069 -1.55323 0
M  V30 88 C 8.5275 -3.41469 1.14327 0
M  V30 89 C 8.3805 -3.61833 2.67201 0
M  V30 90 C 9.6995 -4.34261 0.714529 0
M  V30 91 H 6.8185 -0.690254 0.2583 0
M  V30 92 H 9.4605 -1.41826 1.26433 0
M  V30 93 H 7.6105 -3.82696 0.669056 0
M  V30 94 H 9.2825 -3.2986 3.22475 0
M  V30 95 H 7.5255 -3.05304 3.08175 0
M  V30 96 H 8.1965 -4.67955 2.92783 0
M  V30 97 H 10.6725 -4.00682 1.12221 0
M  V30 98 H 9.5485 -5.38806 1.04784 0
M  V30 99 H 9.8095 -4.40431 -0.383799 0
M  V30 100 N 8.8686 -0.792821 -1.36206 0
M  V30 101 C 10.1156 -0.366786 -1.99151 0
M  V30 102 C 10.4436 1.06243 -1.62919 0
M  V30 103 O 9.6986 1.74927 -0.877442 0
M  V30 104 C 9.9976 -0.481501 -3.54142 0
M  V30 105 C 9.6636 -1.87202 -4.10203 0
M  V30 106 C 8.3256 -2.25248 -4.25226 0
M  V30 107 C 10.6776 -2.78237 -4.40719 0
M  V30 108 C 8.0056 -3.53723 -4.68078 0
M  V30 109 C 10.3576 -4.06144 -4.85005 0
M  V30 110 C 9.0216 -4.44207 -4.98234 0
M  V30 111 H 8.2916 -0.134217 -0.728743 0
M  V30 112 H 10.9386 -1.01094 -1.62641 0
M  V30 113 H 9.2436 0.246146 -3.91026 0
M  V30 114 H 10.9406 -0.132844 -4.0078 0
M  V30 115 H 7.5306 -1.56639 -3.98951 0
M  V30 116 H 11.7146 -2.50097 -4.28679 0
M  V30 117 H 6.9706 -3.8308 -4.76508 0
M  V30 118 H 11.1446 -4.76796 -5.07581 0
M  V30 119 H 8.7716 -5.43814 -5.31197 0
M  V30 120 N 10.3467 1.47872 -0.545128 0
M  V30 121 C 11.7577 1.86384 -0.108581 0
M  V30 122 C 12.1087 1.45309 1.31832 0
M  V30 123 O 11.2337 0.850641 1.9898 0
M  V30 124 C 11.8287 3.38265 -0.190274 0
M  V30 125 C 10.3877 3.75914 0.191164 0
M  V30 126 C 9.5347 2.71926 -0.543273 0
M  V30 127 H 12.4857 1.39561 -0.755537 0
M  V30 128 H 12.5067 3.75831 0.594217 0
M  V30 129 H 12.0187 3.6813 -1.2289 0
M  V30 130 H 10.1197 3.51665 1.23136 0
M  V30 131 H 10.2327 4.78836 -0.158987 0
M  V30 132 H 8.5967 2.54697 0.0122495 0
M  V30 133 H 9.3797 3.04634 -1.58282 0
M  V30 134 N 11.8248 0.280983 1.55075 0
M  V30 135 C 13.2358 -0.215629 1.85451 0
M  V30 136 C 13.5868 -1.54991 1.203 0
M  V30 137 O 12.7118 -2.10699 0.493435 0
M  V30 138 C 13.3068 -0.398026 3.36454 0
M  V30 139 C 11.8658 -0.838866 3.66933 0
M  V30 140 C 11.0128 0.064458 2.77225 0
M  V30 141 H 13.9638 0.502601 1.50531 0
M  V30 142 H 13.9848 -1.23569 3.59876 0
M  V30 143 H 13.4968 0.573241 3.83843 0
M  V30 144 H 11.5978 -1.8214 3.25048 0
M  V30 145 H 11.7108 -0.672123 4.74362 0
M  V30 146 H 10.0748 -0.452863 2.50642 0
M  V30 147 H 10.8578 1.03172 3.2743 0
M  V30 148 N 13.3029 -1.57598 0.00835791 0
M  V30 149 C 14.2129 -2.12385 -0.996487 0
M  V30 150 C 15.2289 -1.07108 -1.37127 0
M  V30 151 O 16.4049 -1.39055 -1.4569 0
M  V30 152 C 13.4699 -2.62314 -2.26699 0
M  V30 153 C 12.5309 -3.82225 -1.95456 0
M  V30 154 C 11.7639 -4.29763 -3.16449 0
M  V30 155 O 11.9869 -3.76584 -4.28416 0
M  V30 156 O 10.9209 -5.21832 -2.99958 0
M  V30 157 H 14.7469 -2.98479 -0.560725 0
M  V30 158 H 12.3319 -1.47903 -0.210987 0
M  V30 159 H 14.2139 -2.94589 -3.01322 0
M  V30 160 H 12.8889 -1.79313 -2.69497 0
M  V30 161 H 11.7959 -3.54909 -1.18282 0
M  V30 162 H 13.1289 -4.66324 -1.57489 0
M  V30 163 N 14.781 0.264519 -1.55364 0
M  V30 164 C 16.027 0.99646 -1.76631 0
M  V30 165 C 16.36 1.85632 -0.570478 0
M  V30 166 O 15.635 1.89647 0.43175 0
M  V30 167 C 15.918 1.87187 -3.07625 0
M  V30 168 C 15.771 1.04138 -4.37579 0
M  V30 169 C 17.09 2.85749 -3.34717 0
M  V30 170 H 14.209 0.360841 -0.642622 0
M  V30 171 H 16.851 0.268218 -1.88097 0
M  V30 172 H 15.001 2.49279 -2.9798 0
M  V30 173 H 16.673 0.440517 -4.59192 0
M  V30 174 H 14.916 0.345115 -4.32425 0
M  V30 175 H 15.587 1.68729 -5.2558 0
M  V30 176 H 18.063 2.33793 -3.4421 0
M  V30 177 H 16.939 3.44136 -4.27623 0
M  V30 178 H 17.2 3.61311 -2.54768 0
M  V30 179 N 16.2591 1.48442 0.529413 0
M  V30 180 C 17.2221 1.62524 1.61612 0
M  V30 181 C 18.2221 0.498509 1.52877 0
M  V30 182 O 19.4121 0.76431 1.56537 0
M  V30 183 C 16.5441 1.59597 3.01233 0
M  V30 184 H 17.7371 2.59423 1.50465 0
M  V30 185 H 15.2901 1.37047 0.751514 0
M  V30 186 H 16.0251 0.641781 3.17886 0
M  V30 187 H 15.8101 2.41397 3.08982 0
M  V30 188 H 17.3001 1.72646 3.80241 0
M  V30 189 N 17.7372 -0.778329 1.37039 0
M  V30 190 C 18.9832 -1.53892 1.32079 0
M  V30 191 C 19.3162 -1.9396 -0.0965386 0
M  V30 192 O 18.5912 -1.63568 -1.05242 0
M  V30 193 C 18.8742 -2.80847 2.25382 0
M  V30 194 C 18.7272 -2.47076 3.75864 0
M  V30 195 C 20.0462 -3.82741 2.1725 0
M  V30 196 H 17.1652 -0.558303 0.48111 0
M  V30 197 H 19.8072 -0.893397 1.67685 0
M  V30 198 H 17.9572 -3.35931 1.95148 0
M  V30 199 H 19.6292 -1.97957 4.16666 0
M  V30 200 H 17.8722 -1.79863 3.94755 0
M  V30 201 H 18.5432 -3.37798 4.36574 0
M  V30 202 H 21.0192 -3.37133 2.43887 0
M  V30 203 H 19.8952 -4.69303 2.84686 0
M  V30 204 H 20.1562 -4.2652 1.16331 0
M  V30 205 N 19.2153 -1.21501 -1.00376 0
M  V30 206 C 20.4623 -1.03299 -1.74171 0
M  V30 207 C 20.7903 0.433326 -1.89612 0
M  V30 208 O 20.0453 1.33779 -1.42834 0
M  V30 209 C 20.3443 -1.67673 -3.15627 0
M  V30 210 C 20.0103 -3.17533 -3.2013 0
M  V30 211 C 18.6723 -3.58427 -3.21067 0
M  V30 212 C 21.0243 -4.13504 -3.17275 0
M  V30 213 C 18.3523 -4.93794 -3.16835 0
M  V30 214 C 20.7043 -5.48834 -3.14585 0
M  V30 215 C 19.3683 -5.89123 -3.13831 0
M  V30 216 H 18.6383 -0.377999 -0.637336 0
M  V30 217 H 21.2853 -1.51111 -1.17634 0
M  V30 218 H 19.5903 -1.12158 -3.75404 0
M  V30 219 H 21.2873 -1.51091 -3.71446 0
M  V30 220 H 17.8773 -2.84965 -3.20145 0
M  V30 221 H 22.0613 -3.82936 -3.15711 0
M  V30 222 H 17.3173 -5.24255 -3.1459 0
M  V30 223 H 21.4913 -6.22934 -3.1133 0
M  V30 224 H 19.1183 -6.93984 -3.10307 0
M  V30 225 N 20.6934 1.19889 -1.02296 0
M  V30 226 C 21.6034 2.26571 -0.608508 0
M  V30 227 C 22.6194 1.70299 0.356964 0
M  V30 228 O 23.7954 2.00235 0.216326 0
M  V30 229 C 20.8604 3.46677 0.0402814 0
M  V30 230 C 19.9214 4.18153 -0.97194 0
M  V30 231 C 19.1544 5.32525 -0.354016 0
M  V30 232 O 19.3774 5.64112 0.844604 0
M  V30 233 O 18.3114 5.92242 -1.07391 0
M  V30 234 H 22.1374 2.64251 -1.49684 0
M  V30 235 H 19.7224 1.26629 -0.792809 0
M  V30 236 H 21.6044 4.19475 0.402324 0
M  V30 237 H 20.2794 3.10858 0.902707 0
M  V30 238 H 19.1864 3.47499 -1.38546 0
M  V30 239 H 20.5194 4.57927 -1.80454 0
M  V30 240 N 22.1715 0.800033 1.35784 0
M  V30 241 C 23.5825 0.439142 1.81462 0
M  V30 242 C 23.9335 -1.03813 1.66485 0
M  V30 243 O 23.0585 -1.80626 1.19177 0
M  V30 244 C 23.6535 0.790314 3.29453 0
M  V30 245 C 22.2125 0.482111 3.733 0
M  V30 246 C 21.3595 1.01938 2.57883 0
M  V30 247 H 24.3105 0.992254 1.23855 0
M  V30 248 H 24.3315 0.0853677 3.80404 0
M  V30 249 H 23.8435 1.86554 3.40322 0
M  V30 250 H 21.9445 -0.584652 3.67984 0
M  V30 251 H 22.0575 1.01015 4.6833 0
M  V30 252 H 20.4215 0.442043 2.50835 0
M  V30 253 H 21.2045 2.10059 2.71533 0
M  V30 254 N 23.6496 -1.47581 0.552962 0
M  V30 255 C 24.8746 -2.07378 0.0300593 0
M  V30 256 C 25.2996 -1.40355 -1.25229 0
M  V30 257 O 24.6576 -0.477099 -1.7491 0
M  V30 258 C 24.7056 -3.60274 -0.153231 0
M  V30 259 O 23.8096 -3.94041 -1.21678 0
M  V30 260 H 23.1506 -0.662158 0.0494182 0
M  V30 261 H 25.6806 -1.89662 0.767434 0
M  V30 262 H 25.6906 -4.0633 -0.368761 0
M  V30 263 H 24.3656 -4.08455 0.783397 0
M  V30 264 H 22.9426 -3.59735 -0.982079 0
M  V30 265 N 25.1277 -0.289203 -1.54924 0
M  V30 266 C 26.0377 0.601863 -2.26748 0
M  V30 267 C 27.0537 1.15834 -1.2984 0
M  V30 268 O 28.2297 1.18564 -1.62802 0
M  V30 269 C 25.2947 1.76299 -2.98529 0
M  V30 270 C 24.3557 1.24178 -4.10948 0
M  V30 271 C 23.5887 2.34757 -4.79296 0
M  V30 272 O 23.8117 3.54411 -4.46933 0
M  V30 273 O 22.7457 2.02115 -5.66951 0
M  V30 274 H 26.5717 0.0195879 -3.03694 0
M  V30 275 H 24.1567 -0.0560868 -1.49295 0
M  V30 276 H 26.0387 2.43973 -3.43592 0
M  V30 277 H 24.7137 2.33209 -2.24488 0
M  V30 278 H 23.6207 0.531104 -3.70311 0
M  V30 279 H 24.9537 0.718252 -4.86931 0
M  V30 280 N 26.6058 1.57591 -0.0167156 0
M  V30 281 C 27.5688 2.08393 0.954204 0
M  V30 282 C 28.5688 0.996531 1.26198 0
M  V30 283 O 29.7588 1.25858 1.20438 0
M  V30 284 C 26.8908 2.5394 2.27436 0
M  V30 285 H 28.0838 2.95455 0.514451 0
M  V30 286 H 25.6368 1.54582 0.231089 0
M  V30 287 H 26.3718 1.70171 2.76066 0
M  V30 288 H 26.1568 3.33371 2.06412 0
M  V30 289 H 27.6468 2.93512 2.97053 0
M  V30 290 N 28.0839 -0.256276 1.55502 0
M  V30 291 C 28.9939 -1.33882 1.92647 0
M  V30 292 C 30.0099 -1.53159 0.825727 0
M  V30 293 O 31.1859 -1.66963 1.12629 0
M  V30 294 C 28.2509 -2.6751 2.20543 0
M  V30 295 C 27.3119 -2.56836 3.43997 0
M  V30 296 C 26.5449 -3.84092 3.70553 0
M  V30 297 O 26.7679 -4.85545 2.99336 0
M  V30 298 O 25.7019 -3.83288 4.64084 0
M  V30 299 H 29.5279 -1.05374 2.84833 0
M  V30 300 H 27.1129 -0.456237 1.42263 0
M  V30 301 H 28.9949 -3.46492 2.39835 0
M  V30 302 H 27.6699 -2.9577 1.31536 0
M  V30 303 H 26.5769 -1.76172 3.30021 0
M  V30 304 H 27.9099 -2.33523 4.33275 0
M  V30 305 N 29.562 -1.4872 -0.521534 0
M  V30 306 C 30.811 -1.56419 -1.27341 0
M  V30 307 C 31.124 -0.246805 -1.94037 0
M  V30 308 O 32.33 -0.202122 -2.70747 0
M  V30 309 C 30.786 -2.75896 -2.31105 0
M  V30 310 C 30.394 -4.14311 -1.70441 0
M  V30 311 C 32.138 -2.92913 -3.07249 0
M  V30 312 C 30.045 -5.25038 -2.72194 0
M  V30 313 H 28.975 -0.582344 -0.478949 0
M  V30 314 H 31.626 -1.75071 -0.549779 0
M  V30 315 H 30.008 -2.50697 -3.06541 0
M  V30 316 H 31.182 -4.49564 -1.01136 0
M  V30 317 H 29.497 -4.02482 -1.06759 0
M  V30 318 H 32.094 -3.72805 -3.83302 0
M  V30 319 H 32.437 -2.02689 -3.63625 0
M  V30 320 H 32.97 -3.18054 -2.38928 0
M  V30 321 H 29.709 -6.17255 -2.20627 0
M  V30 322 H 29.229 -4.94263 -3.39801 0
M  V30 323 H 30.908 -5.53508 -3.35019 0
M  V30 324 N 31.0401 0.771051 -1.3745 0
M  V30 325 C 32.2651 1.56529 -1.36065 0
M  V30 326 C 32.6901 1.88029 0.0515859 0
M  V30 327 O 32.0481 1.49282 1.02882 0
M  V30 328 C 32.0961 2.85187 -2.20683 0
M  V30 329 O 31.2001 3.79593 -1.61193 0
M  V30 330 H 30.5411 0.47411 -0.464883 0
M  V30 331 H 33.0711 0.954269 -1.80983 0
M  V30 332 H 33.0811 3.34283 -2.33921 0
M  V30 333 H 31.7561 2.61588 -3.23334 0
M  V30 334 H 30.3331 3.38239 -1.56999 0
M  V30 335 N 32.5182 1.22032 0.997298 0
M  V30 336 C 33.4682 0.953838 2.07089 0
M  V30 337 C 34.4522 -0.0938669 1.60626 0
M  V30 338 O 35.6442 0.116078 1.76619 0
M  V30 339 C 32.7732 0.528726 3.39204 0
M  V30 340 C 31.8592 1.61092 3.92314 0
M  V30 341 N 32.2502 2.83768 4.18699 0
M  V30 342 C 30.5482 1.48158 4.20672 0
M  V30 343 C 31.2492 3.53715 4.61802 0
M  V30 344 N 30.2252 2.81174 4.65233 0
M  V30 345 H 34.0272 1.88577 2.25424 0
M  V30 346 H 31.5412 1.11719 1.17867 0
M  V30 347 H 33.5382 0.31915 4.15677 0
M  V30 348 H 32.1982 -0.39635 3.22272 0
M  V30 349 H 33.2092 3.20238 4.07023 0
M  V30 350 H 29.8862 0.622369 4.12835 0
M  V30 351 H 31.2762 4.58793 4.90875 0
M  V30 352 N 33.9963 -1.19345 1.0293 0
M  V30 353 C 35.2243 -1.92997 0.745644 0
M  V30 354 C 35.6393 -1.75519 -0.695589 0
M  V30 355 O 34.9963 -1.07737 -1.47306 0
M  V30 356 C 35.0473 -3.44741 1.08792 0
M  V30 357 O 34.7683 -3.61658 2.47256 0
M  V30 358 C 36.2693 -4.35515 0.827129 0
M  V30 359 H 33.4893 -0.613042 0.272801 0
M  V30 360 H 36.0333 -1.51473 1.3739 0
M  V30 361 H 34.1883 -3.84097 0.504832 0
M  V30 362 H 34.6023 -4.55514 2.60015 0
M  V30 363 H 36.0763 -5.40589 1.11658 0
M  V30 364 H 36.5533 -4.38552 -0.238436 0
M  V30 365 H 37.1593 -4.01841 1.39297 0
M  V30 366 N 35.4744 -0.807222 -1.35358 0
M  V30 367 C 36.4064 -0.175717 -2.28525 0
M  V30 368 C 37.4194 0.625354 -1.5031 0
M  V30 369 O 38.6084 0.457611 -1.72535 0
M  V30 370 C 35.7084 0.773471 -3.29956 0
M  V30 371 C 34.8814 0.0186296 -4.37396 0
M  V30 372 C 33.9404 0.886395 -5.18681 0
M  V30 373 O 32.9664 0.337106 -5.68201 0
M  V30 374 N 34.1684 2.20839 -5.36852 0
M  V30 375 H 36.9334 -0.976091 -2.83359 0
M  V30 376 H 34.4944 -0.662737 -1.47714 0
M  V30 377 H 36.4864 1.35824 -3.81227 0
M  V30 378 H 35.0564 1.47465 -2.75632 0
M  V30 379 H 34.2764 -0.747349 -3.87051 0
M  V30 380 H 35.5644 -0.501577 -5.06322 0
M  V30 381 H 34.9624 2.67858 -4.98265 0
M  V30 382 H 33.5194 2.74237 -5.91301 0
M  V30 383 N 36.9525 1.47285 -0.560781 0
M  V30 384 C 37.8995 2.30058 0.18491 0
M  V30 385 C 38.8695 1.39281 0.904986 0
M  V30 386 O 40.0545 1.68241 0.899979 0
M  V30 387 C 37.1945 3.23317 1.20666 0
M  V30 388 C 36.3075 4.29186 0.492285 0
M  V30 389 C 35.4425 5.09592 1.49964 0
M  V30 390 C 34.4815 6.07232 0.770439 0
M  V30 391 N 33.6185 6.80584 1.72479 0
M  V30 392 H 38.4585 2.93302 -0.527048 0
M  V30 393 H 35.9955 1.44568 -0.271738 0
M  V30 394 H 37.9535 3.75811 1.81168 0
M  V30 395 H 36.5835 2.61929 1.88661 0
M  V30 396 H 35.6355 3.7972 -0.227333 0
M  V30 397 H 36.9475 4.98738 -0.0787929 0
M  V30 398 H 36.1015 5.66254 2.17809 0
M  V30 399 H 34.8405 4.3995 2.10464 0
M  V30 400 H 33.8455 5.49745 0.0780846 0
M  V30 401 H 35.0705 6.78884 0.171134 0
M  V30 402 H 33.0165 6.1367 2.3183 0
M  V30 403 H 32.9335 7.46319 1.20596 0
M  V30 404 H 34.2015 7.41818 2.39428 0
M  V30 405 N 38.4306 0.297415 1.54768 0
M  V30 406 C 39.3936 -0.567375 2.22066 0
M  V30 407 C 40.3936 -1.06409 1.20556 0
M  V30 408 O 41.5836 -0.960691 1.45315 0
M  V30 409 C 38.7156 -1.78517 2.90421 0
M  V30 410 H 39.9086 0.0205534 2.99893 0
M  V30 411 H 37.4616 0.0482163 1.56226 0
M  V30 412 H 38.1966 -2.41303 2.16664 0
M  V30 413 H 37.9816 -1.43669 3.64831 0
M  V30 414 H 39.4716 -2.39964 3.41771 0
M  V30 415 N 39.9087 -1.5758 0.0250728 0
M  V30 416 C 41.1367 -1.9593 -0.664747 0
M  V30 417 C 41.5517 -0.901352 -1.65895 0
M  V30 418 O 40.9087 0.117255 -1.82123 0
M  V30 419 C 40.9597 -3.34342 -1.37468 0
M  V30 420 O 40.6807 -4.36079 -0.420324 0
M  V30 421 C 42.1817 -3.873 -2.1567 0
M  V30 422 H 39.4017 -0.645405 -0.183557 0
M  V30 423 H 41.9457 -2.04329 0.0836372 0
M  V30 424 H 40.1007 -3.27175 -2.0745 0
M  V30 425 H 40.5147 -5.16297 -0.923991 0
M  V30 426 H 41.9887 -4.86504 -2.60803 0
M  V30 427 H 42.4657 -3.21331 -2.99405 0
M  V30 428 H 43.0717 -3.97723 -1.50654 0
M  V30 429 N 41.3868 0.248026 -1.55636 0
M  V30 430 C 42.3168 1.31079 -1.93237 0
M  V30 431 C 43.2978 1.50264 -0.797174 0
M  V30 432 O 44.4828 1.62891 -1.05737 0
M  V30 433 C 41.6128 2.66575 -2.22609 0
M  V30 434 C 40.5668 2.62087 -3.3837 0
M  V30 435 C 39.8928 4.01369 -3.53281 0
M  V30 436 C 41.1928 2.19171 -4.7409 0
M  V30 437 H 42.8868 0.998556 -2.82257 0
M  V30 438 H 40.4328 0.47891 -1.35803 0
M  V30 439 H 42.3858 3.41057 -2.47503 0
M  V30 440 H 41.1098 2.99432 -1.30414 0
M  V30 441 H 39.7688 1.90063 -3.13483 0
M  V30 442 H 39.4168 4.31489 -2.58508 0
M  V30 443 H 39.1168 3.99254 -4.31127 0
M  V30 444 H 40.6408 4.77552 -3.80495 0
M  V30 445 H 42.0548 2.83384 -4.98363 0
M  V30 446 H 40.4518 2.2817 -5.5503 0
M  V30 447 H 41.5218 1.14336 -4.71227 0
M  V30 448 N 42.8649 1.48995 0.513639 0
M  V30 449 C 44.1109 1.58076 1.27042 0
M  V30 450 C 44.4439 0.261026 1.92438 0
M  V30 451 O 43.7189 -0.734393 1.80103 0
M  V30 452 C 44.0019 2.73091 2.34719 0
M  V30 453 C 43.8549 4.14821 1.73907 0
M  V30 454 C 45.1739 2.83796 3.36375 0
M  V30 455 H 42.2929 0.575391 0.460536 0
M  V30 456 H 44.9349 1.81232 0.570516 0
M  V30 457 H 43.0849 2.53479 2.94416 0
M  V30 458 H 44.7569 4.45917 1.18135 0
M  V30 459 H 42.9999 4.21058 1.0437 0
M  V30 460 H 43.6709 4.91147 2.51949 0
M  V30 461 H 46.1469 3.01611 2.86653 0
M  V30 462 H 45.0229 3.65971 4.09093 0
M  V30 463 H 45.2839 1.92624 3.9793 0
M  V30 464 N 44.343 -0.763751 1.37857 0
M  V30 465 C 45.583 -1.53551 1.34913 0
M  V30 466 C 45.947 -1.91895 -0.0635882 0
M  V30 467 O 47.148 -2.67916 -0.217825 0
M  V30 468 C 45.419 -2.76126 2.26912 0
M  V30 469 S 46.978 -3.66105 2.41893 0
M  V30 470 H 43.796 -0.52559 0.478828 0
M  V30 471 H 46.398 -0.897435 1.73685 0
M  V30 472 H 45.102 -2.4605 3.28463 0
M  V30 473 H 44.633 -3.44887 1.89253 0
M  V30 474 H 46.648 -4.68473 1.63545 0
M  V30 475 N 45.8211 -1.22559 -0.990812 0
M  V30 476 C 46.7511 -1.0218 -2.09956 0
M  V30 477 C 47.7321 0.0579394 -1.70001 0
M  V30 478 O 48.9171 -0.104684 -1.93918 0
M  V30 479 C 46.0471 -0.601023 -3.4206 0
M  V30 480 C 45.0011 -1.62694 -3.95872 0
M  V30 481 C 44.3271 -1.06193 -5.24049 0
M  V30 482 C 45.6271 -3.01743 -4.2632 0
M  V30 483 H 47.3211 -1.94916 -2.27262 0
M  V30 484 H 44.8671 -0.938566 -1.09211 0
M  V30 485 H 46.8201 -0.445561 -4.19038 0
M  V30 486 H 45.5441 0.362005 -3.24588 0
M  V30 487 H 44.2031 -1.77021 -3.21028 0
M  V30 488 H 43.8511 -0.0901903 -5.02919 0
M  V30 489 H 43.5511 -1.74732 -5.61019 0
M  V30 490 H 45.0751 -0.918092 -6.03658 0
M  V30 491 H 46.4891 -2.90777 -4.94087 0
M  V30 492 H 44.8861 -3.67425 -4.74467 0
M  V30 493 H 45.9561 -3.51518 -3.34011 0
M  V30 494 N 47.2992 1.18797 -1.03562 0
M  V30 495 C 48.2622 2.20464 -0.626769 0
M  V30 496 C 49.2622 1.57721 0.313173 0
M  V30 497 O 50.4522 1.73917 0.0992615 0
M  V30 498 C 47.5842 3.40802 0.0818498 0
M  V30 499 H 48.7772 2.58149 -1.5264 0
M  V30 500 H 46.3302 1.32593 -0.827578 0
M  V30 501 H 47.0652 3.08642 0.995518 0
M  V30 502 H 46.8502 3.8758 -0.593652 0
M  V30 503 H 48.3402 4.16092 0.354584 0
M  V30 504 N 48.7773 0.814389 1.34928 0
M  V30 505 C 50.0053 0.411136 2.02774 0
M  V30 506 C 50.4203 -0.980316 1.61354 0
M  V30 507 O 49.7773 -1.63299 0.814847 0
M  V30 508 C 49.8283 0.493865 3.58111 0
M  V30 509 O 49.5493 1.83047 3.98027 0
M  V30 510 C 51.0503 0.0844174 4.4322 0
M  V30 511 H 48.2703 0.166037 0.650133 0
M  V30 512 H 50.8143 1.10018 1.72384 0
M  V30 513 H 48.9693 -0.147006 3.87121 0
M  V30 514 H 49.3833 1.79872 4.92693 0
M  V30 515 H 50.8573 0.193404 5.51661 0
M  V30 516 H 51.3343 -0.97113 4.28329 0
M  V30 517 H 51.9403 0.69875 4.19521 0
M  V30 518 N 50.2554 -1.46986 0.568584 0
M  V30 519 C 51.5034 -2.02041 0.0487022 0
M  V30 520 C 51.8244 -1.44408 -1.31039 0
M  V30 521 O 51.0944 -0.623477 -1.85714 0
M  V30 522 H 49.6744 -0.746849 0.015014 0
M  V30 523 H 52.3364 -1.80257 0.741168 0
M  V30 524 H 51.4324 -3.12085 -0.0308961 0
M  V30 525 N 51.7335 -0.305618 -1.54608 0
M  V30 526 C 52.9805 0.302298 -2.00231 0
M  V30 527 C 53.3085 1.5354 -1.19398 0
M  V30 528 O 52.5635 1.93973 -0.259423 0
M  V30 529 C 52.8625 0.698983 -3.50498 0
M  V30 530 C 52.5285 -0.432903 -4.48817 0
M  V30 531 C 51.1905 -0.743622 -4.75419 0
M  V30 532 C 53.5425 -1.19409 -5.07337 0
M  V30 533 C 50.8705 -1.81857 -5.57804 0
M  V30 534 C 53.2225 -2.25899 -5.90891 0
M  V30 535 C 51.8865 -2.57572 -6.15803 0
M  V30 536 H 51.1565 0.110619 -0.732697 0
M  V30 537 H 53.8035 -0.425674 -1.86709 0
M  V30 538 H 52.1085 1.50711 -3.61654 0
M  V30 539 H 53.8055 1.1806 -3.83227 0
M  V30 540 H 50.3955 -0.18063 -4.28219 0
M  V30 541 H 54.5795 -0.967295 -4.86782 0
M  V30 542 H 49.8355 -2.06864 -5.75341 0
M  V30 543 H 54.0095 -2.85335 -6.35261 0
M  V30 544 H 51.6365 -3.40998 -6.7943 0
M  V30 545 N 53.2116 1.57565 -0.0334293 0
M  V30 546 C 54.4586 1.91978 0.644272 0
M  V30 547 C 54.7866 0.910231 1.71887 0
M  V30 548 O 54.0416 -0.0801961 1.95536 0
M  V30 549 C 54.3406 3.33112 1.29504 0
M  V30 550 C 54.0066 4.49537 0.350388 0
M  V30 551 C 52.6686 4.81115 0.0903974 0
M  V30 552 C 55.0206 5.20347 -0.298032 0
M  V30 553 C 52.3486 5.8086 -0.825746 0
M  V30 554 C 54.7006 6.2107 -1.20226 0
M  V30 555 C 53.3646 6.51088 -1.4711 0
M  V30 556 H 52.6346 0.702496 0.235756 0
M  V30 557 H 55.2816 1.91259 -0.0961176 0
M  V30 558 H 53.5866 3.30113 2.11028 0
M  V30 559 H 55.2836 3.57011 1.82603 0
M  V30 560 H 51.8736 4.24883 0.563205 0
M  V30 561 H 56.0576 4.96178 -0.110234 0
M  V30 562 H 51.3136 6.02461 -1.04169 0
M  V30 563 H 55.4876 6.75057 -1.71086 0
M  V30 564 H 53.1146 7.28193 -2.18264 0
M  V30 565 N 54.6897 -0.239769 1.55765 0
M  V30 566 C 56.1007 -0.808263 1.68297 0
M  V30 567 C 56.4517 -1.85736 0.632181 0
M  V30 568 O 55.5767 -2.15277 -0.220204 0
M  V30 569 C 56.1717 -1.47284 3.05111 0
M  V30 570 C 54.7307 -1.98895 3.19559 0
M  V30 571 C 53.8777 -0.842575 2.64189 0
M  V30 572 H 56.8287 -0.0154422 1.58692 0
M  V30 573 H 56.8497 -2.34111 2.99954 0
M  V30 574 H 56.3617 -0.709053 3.81568 0
M  V30 575 H 54.4627 -2.78132 2.47938 0
M  V30 576 H 54.5757 -2.18143 4.26556 0
M  V30 577 H 52.9397 -1.24501 2.22197 0
M  V30 578 H 53.7227 -0.0917552 3.43177 0
M  V30 579 N 56.1678 -1.49265 -0.50573 0
M  V30 580 C 57.4448 -1.49012 -1.26707 0
M  V30 581 C 57.8248 -0.215205 -2.1 0
M  V30 582 O 57.1728 0.802547 -2.13943 0
M  V30 583 C 57.3828 -2.7663 -2.12783 0
M  V30 584 C 58.7308 -3.25932 -2.72127 0
M  V30 585 O 59.7548 -2.77715 -2.23054 0
M  V30 586 O 58.6138 -4.09897 -3.61451 0
M  V30 587 H 55.7078 -0.596197 -0.57313 0
M  V30 588 H 58.2538 -1.61524 -0.52039 0
M  V30 589 H 57.0258 -3.60916 -1.5118 0
M  V30 590 H 56.6488 -2.66956 -2.94653 0
M  V30 591 N 57.6459 0.756429 -1.3826 0
M  V30 592 C 58.5959 1.86069 -1.31766 0
M  V30 593 C 59.5799 1.59621 -0.202483 0
M  V30 594 O 60.7719 1.7149 -0.438211 0
M  V30 595 C 57.9009 3.23742 -1.1422 0
M  V30 596 C 56.9869 3.56091 -2.30348 0
M  V30 597 N 57.3779 3.59517 -3.55783 0
M  V30 598 C 55.6759 3.86341 -2.22838 0
M  V30 599 C 56.3769 3.89052 -4.32451 0
M  V30 600 N 55.3529 4.05736 -3.61772 0
M  V30 601 H 59.1549 1.86992 -2.26741 0
M  V30 602 H 56.6689 0.953643 -1.31451 0
M  V30 603 H 58.6659 4.02761 -1.07652 0
M  V30 604 H 57.3259 3.24073 -0.201763 0
M  V30 605 H 58.3369 3.41347 -3.89491 0
M  V30 606 H 55.0139 3.94404 -1.36937 0
M  V30 607 H 56.4039 3.98349 -5.4108 0
M  V30 608 N 59.124 1.23083 0.984299 0
M  V30 609 C 60.37 1.06214 1.72761 0
M  V30 610 C 60.703 -0.400584 1.90024 0
M  V30 611 O 59.978 -1.29672 1.44967 0
M  V30 612 C 60.261 1.78375 3.12817 0
M  V30 613 C 60.114 3.32296 3.03149 0
M  V30 614 C 61.433 1.54309 4.12161 0
M  V30 615 H 58.552 0.387251 0.627061 0
M  V30 616 H 61.194 1.51536 1.14616 0
M  V30 617 H 59.344 1.39848 3.62457 0
M  V30 618 H 61.016 3.8032 2.61064 0
M  V30 619 H 59.259 3.6153 2.39747 0
M  V30 620 H 59.93 3.77972 4.02295 0
M  V30 621 H 62.406 1.87791 3.71314 0
M  V30 622 H 61.282 2.07281 5.08258 0
M  V30 623 H 61.543 0.477572 4.39513 0
M  V30 624 N 60.6021 -1.18246 1.0419 0
M  V30 625 C 61.5121 -2.25574 0.644476 0
M  V30 626 C 62.5281 -1.70845 -0.329826 0
M  V30 627 O 63.7041 -2.00554 -0.184443 0
M  V30 628 C 60.7691 -3.46697 0.014877 0
M  V30 629 C 59.8301 -4.16554 1.03834 0
M  V30 630 C 59.0631 -5.31894 0.438692 0
M  V30 631 O 59.2861 -5.65385 -0.754752 0
M  V30 632 O 58.2201 -5.90459 1.168 0
M  V30 633 H 62.0461 -2.61836 1.53869 0
M  V30 634 H 59.6311 -1.25352 0.812854 0
M  V30 635 H 61.5131 -4.20062 -0.335538 0
M  V30 636 H 60.1881 -3.12255 -0.853138 0
M  V30 637 H 59.0951 -3.45251 1.44057 0
M  V30 638 H 60.4281 -4.54998 1.87716 0
M  V30 639 N 62.0802 -0.821533 -1.34494 0
M  V30 640 C 63.0102 -0.257138 -2.3208 0
M  V30 641 C 63.9912 0.625645 -1.58176 0
M  V30 642 O 65.1762 0.552811 -1.86166 0
M  V30 643 C 62.3062 0.582958 -3.42372 0
M  V30 644 C 61.2602 -0.202571 -4.2752 0
M  V30 645 C 60.5862 0.760179 -5.29269 0
M  V30 646 C 61.8862 -1.40998 -5.02908 0
M  V30 647 H 63.5802 -1.07247 -2.79532 0
M  V30 648 H 61.1262 -0.517163 -1.34393 0
M  V30 649 H 63.0792 0.987972 -4.09655 0
M  V30 650 H 61.8032 1.43133 -2.93565 0
M  V30 651 H 60.4622 -0.588936 -3.61838 0
M  V30 652 H 60.1102 1.60447 -4.76724 0
M  V30 653 H 59.8102 0.238809 -5.87115 0
M  V30 654 H 61.3342 1.16308 -5.9942 0
M  V30 655 H 62.7482 -1.07905 -5.63054 0
M  V30 656 H 61.1452 -1.86689 -5.70322 0
M  V30 657 H 62.2152 -2.1889 -4.32684 0
M  V30 658 N 63.5583 1.46682 -0.576371 0
M  V30 659 C 64.7833 2.07304 -0.0630475 0
M  V30 660 C 65.2083 1.42329 1.2298 0
M  V30 661 O 64.5663 0.504865 1.74129 0
M  V30 662 C 64.6143 3.60472 0.095895 0
M  V30 663 O 63.7183 3.95927 1.15394 0
M  V30 664 H 63.0593 0.661288 -0.0599463 0
M  V30 665 H 65.5893 1.88417 -0.797511 0
M  V30 666 H 65.5993 4.06865 0.304071 0
M  V30 667 H 64.2743 4.07157 -0.84828 0
M  V30 668 H 62.8513 3.61252 0.924724 0
M  V30 669 N 65.0364 0.313813 1.54444 0
M  V30 670 C 66.2824 -0.284918 2.01395 0
M  V30 671 C 66.6374 -1.50537 1.19818 0
M  V30 672 O 65.9304 -1.89692 0.269748 0
M  V30 673 C 66.1244 -0.680386 3.50864 0
M  V30 674 C 65.9534 0.500198 4.4691 0
M  V30 675 C 64.7234 0.996248 4.95382 0
M  V30 676 C 66.9214 1.34928 4.96285 0
M  V30 677 N 64.9034 2.14226 5.75309 0
M  V30 678 C 66.2744 2.3426 5.7404 0
M  V30 679 C 68.3294 1.37818 4.78446 0
M  V30 680 C 67.0324 3.36272 6.35856 0
M  V30 681 C 69.0584 2.38695 5.4109 0
M  V30 682 C 68.4204 3.36755 6.18688 0
M  V30 683 H 64.5194 -0.0683689 0.779006 0
M  V30 684 H 67.1034 0.44664 1.89508 0
M  V30 685 H 65.2744 -1.38109 3.63016 0
M  V30 686 H 67.0064 -1.25975 3.84594 0
M  V30 687 H 63.7614 0.56912 4.70168 0
M  V30 688 H 64.1854 2.72005 6.19953 0
M  V30 689 H 68.8274 0.633747 4.18023 0
M  V30 690 H 66.5454 4.11627 6.95405 0
M  V30 691 H 70.1314 2.41721 5.29209 0
M  V30 692 H 69.0114 4.13535 6.66302 0
M  V30 693 N 66.5145 -1.57545 0.0417849 0
M  V30 694 C 67.7605 -1.93424 -0.629168 0
M  V30 695 C 68.1155 -0.919564 -1.69002 0
M  V30 696 O 67.4085 0.0626178 -1.91498 0
M  V30 697 C 67.6025 -3.33794 -1.27735 0
M  V30 698 C 67.4315 -4.48822 -0.280806 0
M  V30 699 C 66.2015 -5.05148 0.123869 0
M  V30 700 C 68.3995 -5.12148 0.470012 0
M  V30 701 N 66.3815 -6.03703 1.11426 0
M  V30 702 C 67.7525 -6.05921 1.31377 0
M  V30 703 C 69.8075 -4.95078 0.529343 0
M  V30 704 C 68.5105 -6.84459 2.21152 0
M  V30 705 C 70.5365 -5.74235 1.41448 0
M  V30 706 C 69.8985 -6.67634 2.24598 0
M  V30 707 H 65.9975 -0.755418 -0.202158 0
M  V30 708 H 68.5815 -1.94378 0.111923 0
M  V30 709 H 66.7525 -3.33635 -1.98852 0
M  V30 710 H 68.4845 -3.56988 -1.90635 0
M  V30 711 H 65.2395 -4.72923 -0.253178 0
M  V30 712 H 65.6635 -6.57674 1.60607 0
M  V30 713 H 70.3055 -4.22683 -0.0992798 0
M  V30 714 H 68.0235 -7.56151 2.85063 0
M  V30 715 H 71.6095 -5.63057 1.46484 0
M  V30 716 H 70.4895 -7.27817 2.9198 0
M  V30 717 N 67.9926 0.231505 -1.5589 0
M  V30 718 C 69.2386 0.95877 -1.78705 0
M  V30 719 C 69.5716 1.8438 -0.609725 0
M  V30 720 O 68.8466 1.90521 0.391426 0
M  V30 721 C 69.1296 1.8062 -3.11526 0
M  V30 722 C 68.9826 0.948328 -4.39689 0
M  V30 723 C 70.3016 2.78585 -3.40703 0
M  V30 724 H 67.4206 0.347129 -0.650131 0
M  V30 725 H 70.0626 0.228259 -1.88624 0
M  V30 726 H 68.2126 2.42902 -3.03201 0
M  V30 727 H 69.8846 0.343016 -4.60023 0
M  V30 728 H 68.1276 0.253314 -4.3306 0
M  V30 729 H 68.7986 1.57543 -5.29041 0
M  V30 730 H 71.2746 2.26439 -3.49091 0
M  V30 731 H 70.1506 3.34988 -4.34826 0
M  V30 732 H 70.4116 3.55825 -2.62375 0
M  V30 733 N 69.4707 1.49531 0.497807 0
M  V30 734 C 70.4187 1.66926 1.61983 0
M  V30 735 C 71.4127 0.535167 1.60724 0
M  V30 736 O 72.6187 0.714896 1.65195 0
M  V30 737 H 68.9937 0.526415 0.537021 0
M  V30 738 H 70.9647 2.61098 1.44465 0
M  V30 739 C 69.7137 1.75602 3.00099 0
M  V30 740 H 69.0367 2.62244 3.01775 0
M  V30 741 H 70.4767 1.91807 3.78135 0
M  V30 742 C 68.9357 0.501543 3.33146 0
M  V30 743 O 69.4657 -0.371342 3.9998 0
M  V30 744 N 67.6717 0.363531 2.88317 0
M  V30 745 H 67.2187 1.07485 2.34104 0
M  V30 746 H 67.1767 -0.474728 3.10795 0
M  V30 747 N 70.9488 -0.749086 1.3866 0
M  V30 748 C 72.1968 -1.50535 1.34847 0
M  V30 749 C 72.5178 -1.94909 -0.0595016 0
M  V30 750 O 71.7878 -1.67973 -1.00806 0
M  V30 751 H 70.3678 -0.558395 0.49619 0
M  V30 752 H 73.0298 -0.890165 1.73384 0
M  V30 753 H 72.1258 -2.39413 2.00219 0
M  V30 754 N 72.4269 -1.23603 -0.977757 0
M  V30 755 C 73.3739 -1.01954 -2.07061 0
M  V30 756 C 74.3439 0.0638697 -1.65977 0
M  V30 757 O 75.5289 -0.0887624 -1.90593 0
M  V30 758 C 72.6689 -0.619658 -3.39491 0
M  V30 759 C 71.7819 -1.77547 -3.93829 0
M  V30 760 C 70.9169 -1.32212 -5.14484 0
M  V30 761 C 69.9559 -2.44852 -5.60994 0
M  V30 762 N 69.0929 -2.00456 -6.72876 0
M  V30 763 H 73.9329 -1.95495 -2.24913 0
M  V30 764 H 71.4699 -0.973861 -1.10247 0
M  V30 765 H 73.4279 -0.368898 -4.15566 0
M  V30 766 H 72.0579 0.278752 -3.21594 0
M  V30 767 H 71.1099 -2.14016 -3.14486 0
M  V30 768 H 72.4219 -2.62219 -4.24314 0
M  V30 769 H 71.5759 -1.02965 -5.97899 0
M  V30 770 H 70.3149 -0.445808 -4.85658 0
M  V30 771 H 69.3199 -2.74871 -4.76157 0
M  V30 772 H 70.5449 -3.33024 -5.91837 0
M  V30 773 H 68.4909 -1.15208 -6.45804 0
M  V30 774 H 68.4079 -2.78687 -7.02759 0
M  V30 775 H 69.6759 -1.7432 -7.59758 0
M  V30 776 N 73.905 1.17692 -1.04816 0
M  V30 777 C 74.815 2.25229 -0.65643 0
M  V30 778 C 75.831 1.71018 0.320761 0
M  V30 779 O 77.007 2.00649 0.173805 0
M  V30 780 C 74.072 3.46684 -0.0332629 0
M  V30 781 C 73.133 4.15997 -1.06042 0
M  V30 782 C 72.366 5.31654 -0.466893 0
M  V30 783 O 72.589 5.65777 0.724758 0
M  V30 784 O 71.523 5.89831 -1.1993 0
M  V30 785 H 75.349 2.61016 -1.55255 0
M  V30 786 H 72.934 1.24919 -0.81949 0
M  V30 787 H 74.816 4.20234 0.313256 0
M  V30 788 H 73.491 3.12703 0.836566 0
M  V30 789 H 72.398 3.44482 -1.45886 0
M  V30 790 H 73.731 4.53996 -1.90127 0
M  V30 791 N 75.3831 0.828654 1.34056 0
M  V30 792 C 76.6291 0.42008 1.98402 0
M  V30 793 C 76.9621 -1.01564 1.65525 0
M  V30 794 O 76.2371 -1.70834 0.929831 0
M  V30 795 C 76.5201 0.62927 3.54559 0
M  V30 796 C 76.3731 2.11152 3.97159 0
M  V30 797 C 77.6921 0.0688756 4.40046 0
M  V30 798 H 74.8111 0.154104 0.720709 0
M  V30 799 H 77.4531 1.04228 1.5886 0
M  V30 800 H 75.6031 0.0996418 3.88372 0
M  V30 801 H 77.2751 2.70522 3.73651 0
M  V30 802 H 75.5181 2.59985 3.47261 0
M  V30 803 H 76.1891 2.20868 5.05887 0
M  V30 804 H 78.6651 0.521458 4.1282 0
M  V30 805 H 77.5411 0.245006 5.48353 0
M  V30 806 H 77.8021 -1.0266 4.30015 0
M  V30 807 N 76.8612 -1.46375 0.584142 0
M  V30 808 C 77.8112 -2.27371 -0.169232 0
M  V30 809 C 78.7952 -1.35955 -0.860523 0
M  V30 810 O 79.9872 -1.60119 -0.754382 0
M  V30 811 C 77.1162 -3.22334 -1.18134 0
M  V30 812 C 76.2022 -4.21235 -0.492088 0
M  V30 813 N 76.5932 -5.03766 0.453129 0
M  V30 814 C 74.8912 -4.39773 -0.742652 0
M  V30 815 C 75.5922 -5.75366 0.85609 0
M  V30 816 N 74.5682 -5.43214 0.204926 0
M  V30 817 H 78.3702 -2.88572 0.557097 0
M  V30 818 H 75.8842 -1.57242 0.406042 0
M  V30 819 H 77.8812 -3.79071 -1.73525 0
M  V30 820 H 76.5412 -2.62693 -1.90847 0
M  V30 821 H 77.5522 -5.11227 0.828723 0
M  V30 822 H 74.2292 -3.91279 -1.45625 0
M  V30 823 H 75.6192 -6.5172 1.63434 0
M  V30 824 N 78.3393 -0.321999 -1.54275 0
M  V30 825 C 79.5643 0.285791 -2.05422 0
M  V30 826 C 79.9893 1.45124 -1.19669 0
M  V30 827 O 79.3473 1.80132 -0.205441 0
M  V30 828 C 79.3953 0.69956 -3.53749 0
M  V30 829 O 78.4993 1.8021 -3.70942 0
M  V30 830 H 77.8403 0.0518962 -0.661969 0
M  V30 831 H 80.3703 -0.469954 -1.9913 0
M  V30 832 H 80.3803 0.982649 -3.9599 0
M  V30 833 H 79.0553 -0.152864 -4.15619 0
M  V30 834 H 77.6323 1.51794 -3.40607 0
M  V30 835 N 79.8174 1.5752 -0.0501392 0
M  V30 836 C 81.0654 1.9227 0.622642 0
M  V30 837 C 81.3864 0.929083 1.71444 0
M  V30 838 O 80.6564 -0.0262186 1.95882 0
M  V30 839 H 79.2364 0.709739 0.232981 0
M  V30 840 H 81.8984 1.94628 -0.102898 0
M  V30 841 H 80.9944 2.93479 1.06191 0
M  V30 842 N 81.2955 -0.223234 1.56011 0
M  V30 843 C 82.5415 -0.949279 1.79211 0
M  V30 844 C 82.8745 -1.84054 0.619494 0
M  V30 845 O 82.1495 -1.90726 -0.381317 0
M  V30 846 C 82.4325 -1.78965 3.12479 0
M  V30 847 C 82.2855 -0.924997 4.40186 0
M  V30 848 C 83.6045 -2.76774 3.42175 0
M  V30 849 H 80.7235 -0.343676 0.651963 0
M  V30 850 H 83.3655 -0.218253 1.88742 0
M  V30 851 H 81.5155 -2.41291 3.04485 0
M  V30 852 H 83.1875 -0.318615 4.60198 0
M  V30 853 H 81.4305 -0.230344 4.33188 0
M  V30 854 H 82.1015 -1.54735 5.29869 0
M  V30 855 H 84.5775 -2.24584 3.50287 0
M  V30 856 H 83.4535 -3.32678 4.36597 0
M  V30 857 H 83.7145 -3.54429 2.64258 0
M  V30 858 N 82.7736 -1.49793 -0.48987 0
M  V30 859 C 83.9986 -1.63836 -1.27172 0
M  V30 860 C 84.4236 -0.31402 -1.8546 0
M  V30 861 O 83.7816 0.719803 -1.66399 0
M  V30 862 C 83.8296 -2.71797 -2.36978 0
M  V30 863 O 82.9336 -2.31744 -3.41128 0
M  V30 864 H 82.2746 -0.547997 -0.37496 0
M  V30 865 H 84.8046 -1.96053 -0.585191 0
M  V30 866 H 84.8146 -2.94305 -2.82575 0
M  V30 867 H 83.4896 -3.67923 -1.93921 0
M  V30 868 H 82.0666 -2.1961 -3.01373 0
M  V30 869 N 84.2517 0.741722 -1.39055 0
M  V30 870 C 85.4797 1.53098 -1.39171 0
M  V30 871 C 85.8947 1.88794 0.0155099 0
M  V30 872 O 85.2517 1.53626 0.985159 0
M  V30 873 C 85.3027 2.82274 -2.2584 0
M  V30 874 O 85.0237 2.48097 -3.61081 0
M  V30 875 C 86.5247 3.76343 -2.34266 0
M  V30 876 H 83.7447 0.473335 -0.4756 0
M  V30 877 H 86.2887 0.917045 -1.82785 0
M  V30 878 H 84.4437 3.40015 -1.85656 0
M  V30 879 H 84.8577 3.31029 -4.06842 0
M  V30 880 H 86.3317 4.63898 -2.9917 0
M  V30 881 H 86.8087 4.17619 -1.35982 0
M  V30 882 H 87.4147 3.24523 -2.74891 0
M  V30 883 N 85.7298 1.2412 0.971189 0
M  V30 884 C 87.0068 0.986867 1.6888 0
M  V30 885 C 87.3868 -0.491857 2.0529 0
M  V30 886 O 86.7348 -1.46531 1.75331 0
M  V30 887 C 86.9448 1.9063 2.92338 0
M  V30 888 C 88.2928 2.17515 3.64654 0
M  V30 889 O 89.3168 1.88254 3.02388 0
M  V30 890 O 88.1758 2.6719 4.7673 0
M  V30 891 H 85.2698 0.372944 0.738134 0
M  V30 892 H 87.8158 1.35203 1.02559 0
M  V30 893 H 86.5878 2.90552 2.62097 0
M  V30 894 H 86.2108 1.54408 3.66393 0
M  V30 895 N 87.2079 -1.17134 1.05439 0
M  V30 896 C 88.6189 -1.69084 0.791676 0
M  V30 897 C 88.9699 -1.83822 -0.685839 0
M  V30 898 O 88.0949 -1.52757 -1.53278 0
M  V30 899 C 88.6899 -3.07119 1.4305 0
M  V30 900 C 87.2489 -3.56225 1.21577 0
M  V30 901 C 86.3959 -2.32421 1.51247 0
M  V30 902 H 89.3469 -1.01617 1.219 0
M  V30 903 H 89.3679 -3.71087 0.84112 0
M  V30 904 H 88.8799 -2.9636 2.50584 0
M  V30 905 H 86.9809 -3.72257 0.159787 0
M  V30 906 H 87.0939 -4.38837 1.92246 0
M  V30 907 H 85.4579 -2.3701 0.932653 0
M  V30 908 H 86.2409 -2.24268 2.5992 0
M  V30 909 N 88.686 -0.835752 -1.33615 0
M  V30 910 C 89.618 -0.224151 -2.28101 0
M  V30 911 C 90.631 0.593331 -1.51603 0
M  V30 912 O 91.82 0.420911 -1.73466 0
M  V30 913 C 88.92 0.703309 -3.31522 0
M  V30 914 C 88.093 -0.0741528 -4.37337 0
M  V30 915 C 87.152 0.776176 -5.20444 0
M  V30 916 O 86.178 0.216506 -5.68788 0
M  V30 917 N 87.38 2.09401 -5.41416 0
M  V30 918 H 90.145 -1.03598 -2.81225 0
M  V30 919 H 87.706 -0.69392 -1.46275 0
M  V30 920 H 89.698 1.27707 -3.84022 0
M  V30 921 H 88.268 1.41585 -2.78698 0
M  V30 922 H 87.488 -0.82928 -3.85378 0
M  V30 923 H 88.776 -0.608863 -5.05144 0
M  V30 924 H 88.174 2.57229 -5.03835 0
M  V30 925 H 86.731 2.61633 -5.96985 0
M  V30 926 N 90.1641 1.46063 -0.591896 0
M  V30 927 C 91.5751 1.85944 -0.167822 0
M  V30 928 C 91.9261 1.49429 1.27143 0
M  V30 929 O 91.0511 0.913515 1.96173 0
M  V30 930 C 91.6461 3.37489 -0.297794 0
M  V30 931 C 90.2051 3.76332 0.0714732 0
M  V30 932 C 89.3521 2.7006 -0.629509 0
M  V30 933 H 92.3031 1.37087 -0.799555 0
M  V30 934 H 92.3241 3.77532 0.474349 0
M  V30 935 H 91.8361 3.64034 -1.3454 0
M  V30 936 H 89.9371 3.55405 1.11886 0
M  V30 937 H 90.0501 4.78088 -0.311245 0
M  V30 938 H 88.4141 2.54607 -0.0687867 0
M  V30 939 H 89.1971 2.99444 -1.67894 0
M  V30 940 N 91.6422 0.330177 1.54103 0
M  V30 941 C 92.5722 -0.525353 2.27513 0
M  V30 942 C 93.5532 -1.11383 1.2856 0
M  V30 943 O 94.7382 -1.13773 1.57383 0
M  V30 944 C 91.8682 -1.6831 3.03791 0
M  V30 945 C 90.8222 -1.2236 4.10137 0
M  V30 946 C 90.1482 -2.46882 4.74293 0
M  V30 947 C 91.4482 -0.333697 5.21233 0
M  V30 948 H 93.1422 0.087013 2.99274 0
M  V30 949 H 90.6882 0.0432893 1.43935 0
M  V30 950 H 92.6412 -2.28795 3.5388 0
M  V30 951 H 91.3652 -2.32216 2.29659 0
M  V30 952 H 90.0242 -0.64165 3.60941 0
M  V30 953 H 89.6722 -3.09165 3.96769 0
M  V30 954 H 89.3722 -2.16825 5.46133 0
M  V30 955 H 90.8962 -3.08117 5.27159 0
M  V30 956 H 92.3102 -0.845013 5.67038 0
M  V30 957 H 90.7072 -0.125612 5.99969 0
M  V30 958 H 91.7772 0.633724 4.80741 0
M  V30 959 N 93.1203 -1.57491 0.0584922 0
M  V30 960 C 94.0673 -2.11958 -0.913376 0
M  V30 961 C 95.0373 -1.02875 -1.30407 0
M  V30 962 O 96.2223 -1.30464 -1.39226 0
M  V30 963 C 93.3623 -2.67497 -2.18035 0
M  V30 964 C 92.4753 -3.90691 -1.84349 0
M  V30 965 C 91.6103 -4.3452 -3.05559 0
M  V30 966 C 90.6493 -5.50395 -2.67827 0
M  V30 967 N 89.7863 -5.89244 -3.81754 0
M  V30 968 H 94.6263 -2.94704 -0.442017 0
M  V30 969 H 92.1633 -1.45643 -0.206545 0
M  V30 970 H 94.1213 -2.978 -2.92183 0
M  V30 971 H 92.7513 -1.87537 -2.62735 0
M  V30 972 H 91.8033 -3.66934 -1.00319 0
M  V30 973 H 93.1153 -4.7489 -1.5258 0
M  V30 974 H 92.2693 -4.66414 -3.87998 0
M  V30 975 H 91.0083 -3.49147 -3.40511 0
M  V30 976 H 90.0133 -5.18165 -1.83806 0
M  V30 977 H 91.2383 -6.3749 -2.34059 0
M  V30 978 H 89.1843 -5.06823 -4.16493 0
M  V30 979 H 89.1013 -6.68151 -3.53708 0
M  V30 980 H 90.3693 -6.25756 -4.64811 0
M  V30 981 N 94.5984 0.214957 -1.56127 0
M  V30 982 C 95.5084 1.28727 -1.96129 0
M  V30 983 C 96.5244 1.50916 -0.866044 0
M  V30 984 O 97.7004 1.63918 -1.17016 0
M  V30 985 C 94.7654 2.61569 -2.27558 0
M  V30 986 C 93.8264 2.47625 -3.50685 0
M  V30 987 C 93.0594 3.74132 -3.80606 0
M  V30 988 O 93.2824 4.77438 -3.12104 0
M  V30 989 O 92.2164 3.70849 -4.74083 0
M  V30 990 H 96.0424 0.977855 -2.87527 0
M  V30 991 H 93.6274 0.418358 -1.43423 0
M  V30 992 H 95.5094 3.40012 -2.48938 0
M  V30 993 H 94.1844 2.92178 -1.39332 0
M  V30 994 H 93.0914 1.67361 -3.34576 0
M  V30 995 H 94.4244 2.21954 -4.39315 0
M  V30 996 N 96.0765 1.50051 0.48192 0
M  V30 997 C 97.0085 1.64263 1.59844 0
M  V30 998 C 98.0215 0.52451 1.54119 0
M  V30 999 O 99.2105 0.797293 1.59704 0
M  V30 1000 C 96.3105 1.60102 2.98698 0
M  V30 1001 C 95.4835 2.87767 3.29407 0
M  V30 1002 C 94.5425 2.76397 4.47762 0
M  V30 1003 O 93.5685 3.50348 4.48603 0
M  V30 1004 N 94.7705 1.89222 5.48794 0
M  V30 1005 H 97.5355 2.60566 1.48073 0
M  V30 1006 H 95.0965 1.47379 0.670149 0
M  V30 1007 H 97.0885 1.50123 3.75826 0
M  V30 1008 H 95.6585 0.715798 3.04294 0
M  V30 1009 H 94.8785 3.11954 2.40994 0
M  V30 1010 H 96.1665 3.72365 3.4673 0
M  V30 1011 H 95.5645 1.28434 5.50928 0
M  V30 1012 H 94.1215 1.85154 6.24949 0
M  V30 1013 N 97.5546 -0.734337 1.39446 0
M  V30 1014 C 98.9656 -1.31264 1.32766 0
M  V30 1015 C 99.3166 -1.96198 -0.00767497 0
M  V30 1016 O 98.4416 -1.96346 -0.909796 0
M  V30 1017 C 99.0366 -2.38682 2.4045 0
M  V30 1018 C 97.5956 -2.92184 2.37288 0
M  V30 1019 C 96.7426 -1.6576 2.22304 0
M  V30 1020 H 99.6936 -0.531799 1.49525 0
M  V30 1021 H 99.7146 -3.19087 2.07276 0
M  V30 1022 H 99.2266 -1.91392 3.37625 0
M  V30 1023 H 97.3276 -3.43752 1.43754 0
M  V30 1024 H 97.4406 -3.45253 3.3217 0
M  V30 1025 H 95.8046 -1.9012 1.69489 0
M  V30 1026 H 96.5876 -1.20521 3.21449 0
M  V30 1027 N 99.0327 -1.24633 -0.964593 0
M  V30 1028 C 99.9957 -1.0424 -2.04124 0
M  V30 1029 C 100.996 0.00137563 -1.608 0
M  V30 1030 O 102.186 -0.239883 -1.7254 0
M  V30 1031 C 99.3177 -0.580588 -3.3592 0
M  V30 1032 H 100.511 -1.99803 -2.23649 0
M  V30 1033 H 98.0637 -1.06899 -1.14027 0
M  V30 1034 H 98.7987 0.3781 -3.22088 0
M  V30 1035 H 98.5837 -1.33398 -3.6871 0
M  V30 1036 H 100.074 -0.459034 -4.15069 0
M  V30 1037 N 100.511 1.16574 -1.06058 0
M  V30 1038 C 101.441 2.23057 -0.690488 0
M  V30 1039 C 102.422 1.67141 0.315901 0
M  V30 1040 O 103.607 1.93253 0.191556 0
M  V30 1041 C 100.737 3.47222 -0.073625 0
M  V30 1042 C 99.6908 4.16016 -1.00573 0
M  V30 1043 C 99.0168 5.34104 -0.252289 0
M  V30 1044 C 100.317 4.67264 -2.33371 0
M  V30 1045 H 102.011 2.54271 -1.58072 0
M  V30 1046 H 99.5568 1.22218 -0.76149 0
M  V30 1047 H 101.51 4.20939 0.19714 0
M  V30 1048 H 100.234 3.15302 0.85161 0
M  V30 1049 H 98.8928 3.44223 -1.2612 0
M  V30 1050 H 98.5408 4.98437 0.675988 0
M  V30 1051 H 98.2408 5.81072 -0.873455 0
M  V30 1052 H 99.7648 6.10599 0.0109857 0
M  V30 1053 H 101.179 5.32573 -2.12223 0
M  V30 1054 H 99.5758 5.24843 -2.90963 0
M  V30 1055 H 100.646 3.83602 -2.96611 0
M  V30 1056 N 101.989 0.842826 1.3317 0
M  V30 1057 C 102.937 0.267495 2.31057 0
M  V30 1058 C 103.931 -0.602682 1.58316 0
M  V30 1059 O 105.137 -0.491803 1.73151 0
M  V30 1060 H 101.512 0.0677813 0.748939 0
M  V30 1061 H 103.483 1.10754 2.77085 0
M  V30 1062 C 102.232 -0.539331 3.43492 0
M  V30 1063 H 101.555 0.12095 3.99617 0
M  V30 1064 H 102.995 -0.90767 4.14171 0
M  V30 1065 C 101.454 -1.71981 2.89697 0
M  V30 1066 O 101.984 -2.81862 2.86211 0
M  V30 1067 N 100.19 -1.54299 2.46252 0
M  V30 1068 H 99.7369 -0.649143 2.49287 0
M  V30 1069 H 99.6949 -2.33431 2.10612 0
M  V30 1070 N 103.467 -1.45747 0.599634 0
M  V30 1071 C 104.744 -1.95585 0.0240846 0
M  V30 1072 C 105.124 -1.54217 -1.44154 0
M  V30 1073 O 104.472 -0.800903 -2.14004 0
M  V30 1074 C 104.682 -3.48344 0.21385 0
M  V30 1075 C 106.03 -4.24504 0.0904902 0
M  V30 1076 O 107.054 -3.55911 0.143558 0
M  V30 1077 O 105.913 -5.46491 -0.0310766 0
M  V30 1078 H 103.007 -0.82602 -0.0402478 0
M  V30 1079 H 105.553 -1.55951 0.669139 0
M  V30 1080 H 104.325 -3.71397 1.23206 0
M  V30 1081 H 103.948 -3.9485 -0.466842 0
M  V30 1082 N 104.945 -0.338344 -1.53925 0
M  V30 1083 C 106.17 0.263987 -2.05713 0
M  V30 1084 C 106.595 1.43847 -1.21201 0
M  V30 1085 O 105.953 1.79904 -0.224535 0
M  V30 1086 C 106.001 0.662 -3.54471 0
M  V30 1087 O 105.105 1.76265 -3.72833 0
M  V30 1088 H 104.446 0.0448722 -0.662482 0
M  V30 1089 H 106.976 -0.491048 -1.9862 0
M  V30 1090 H 106.986 0.940594 -3.9701 0
M  V30 1091 H 105.661 -0.196937 -4.15433 0
M  V30 1092 H 104.238 1.48173 -3.42198 0
M  V30 1093 N 106.423 1.57458 -0.0668435 0
M  V30 1094 C 107.839 1.56947 0.289772 0
M  V30 1095 C 108.039 1.07584 1.70376 0
M  V30 1096 O 107.095 0.739486 2.41429 0
M  V30 1097 C 108.408 3.0052 0.103943 0
M  V30 1098 C 109.956 3.12517 0.173857 0
M  V30 1099 C 110.431 4.57997 0.0163682 0
M  V30 1100 N 111.922 4.63144 0.0721352 0
M  V30 1101 C 112.657 5.73394 -0.0253794 0
M  V30 1102 N 112.153 6.92576 -0.176133 0
M  V30 1103 N 113.946 5.62091 0.0313305 0
M  V30 1104 H 106.097 1.87863 -0.991027 0
M  V30 1105 H 108.36 0.86583 -0.38606 0
M  V30 1106 H 108.066 3.40729 -0.871572 0
M  V30 1107 H 107.94 3.67304 0.858366 0
M  V30 1108 H 110.327 2.72197 1.13985 0
M  V30 1109 H 110.408 2.48381 -0.611586 0
M  V30 1110 H 110.052 4.99005 -0.946374 0
M  V30 1111 H 109.982 5.20158 0.821153 0
M  V30 1112 H 112.473 3.77436 0.187263 0
M  V30 1113 H 112.786 7.72418 -0.242821 0
M  V30 1114 H 111.131 6.94678 -0.211429 0
M  V30 1115 H 114.322 4.67867 0.147773 0
M  V30 1116 H 114.495 6.47982 -0.048121 0
M  V30 1117 N 107.901 -0.206675 1.56239 0
M  V30 1118 C 109.131 -0.943975 1.83773 0
M  V30 1119 C 109.539 -1.77841 0.645703 0
M  V30 1120 O 108.882 -1.79403 -0.395008 0
M  V30 1121 C 108.944 -1.899 3.05251 0
M  V30 1122 C 108.608 -1.24764 4.39639 0
M  V30 1123 C 109.605 -0.630216 5.16066 0
M  V30 1124 C 107.29 -1.25496 4.8637 0
M  V30 1125 C 109.284 -0.0287946 6.37393 0
M  V30 1126 C 106.971 -0.649698 6.07637 0
M  V30 1127 C 107.969 -0.0376845 6.8299 0
M  V30 1128 O 107.657 0.55812 8.0196 0
M  V30 1129 H 107.389 -0.281508 0.614597 0
M  V30 1130 H 109.943 -0.222458 2.04192 0
M  V30 1131 H 108.173 -2.6599 2.80689 0
M  V30 1132 H 109.862 -2.5031 3.1953 0
M  V30 1133 H 110.628 -0.616785 4.81062 0
M  V30 1134 H 106.507 -1.72072 4.27683 0
M  V30 1135 H 110.051 0.449518 6.9615 0
M  V30 1136 H 105.948 -0.660592 6.42111 0
M  V30 1137 H 106.716 0.453891 8.17241 0
M  V30 1138 N 109.379 -1.50304 -0.473955 0
M  V30 1139 C 110.619 -1.62786 -1.23612 0
M  V30 1140 C 110.983 -0.319786 -1.89318 0
M  V30 1141 O 112.184 -0.320012 -2.66888 0
M  V30 1142 C 110.455 -2.77351 -2.25414 0
M  V30 1143 S 112.014 -3.09948 -3.10608 0
M  V30 1144 H 108.832 -0.573895 -0.419721 0
M  V30 1145 H 111.434 -1.88076 -0.533623 0
M  V30 1146 H 110.138 -3.70879 -1.75719 0
M  V30 1147 H 109.669 -2.54137 -3.00296 0
M  V30 1148 H 111.684 -2.53553 -4.26527 0
M  V30 1149 N 110.857 0.726932 -1.39834 0
M  V30 1150 C 111.787 1.85405 -1.41941 0
M  V30 1151 C 112.768 1.67751 -0.281728 0
M  V30 1152 O 113.953 1.8795 -0.488717 0
M  V30 1153 C 111.083 3.23243 -1.2701 0
M  V30 1154 C 110.037 3.55549 -2.38262 0
M  V30 1155 C 109.363 4.9241 -2.08415 0
M  V30 1156 C 110.663 3.577 -3.80589 0
M  V30 1157 H 112.357 1.83899 -2.36266 0
M  V30 1158 H 109.903 0.883349 -1.13723 0
M  V30 1159 H 111.856 4.01775 -1.27103 0
M  V30 1160 H 110.58 3.25296 -0.291564 0
M  V30 1161 H 109.239 2.79351 -2.37399 0
M  V30 1162 H 108.887 4.91052 -1.0898 0
M  V30 1163 H 108.587 5.14992 -2.82943 0
M  V30 1164 H 110.111 5.73289 -2.10171 0
M  V30 1165 H 111.525 4.26293 -3.83337 0
M  V30 1166 H 109.922 3.91804 -4.54543 0
M  V30 1167 H 110.992 2.57328 -4.10987 0
M  V30 1168 N 112.336 1.25143 0.95797 0
M  V30 1169 C 113.561 1.12521 1.74223 0
M  V30 1170 C 113.986 -0.317402 1.85403 0
M  V30 1171 O 113.344 -1.2299 1.33204 0
M  V30 1172 C 113.392 1.78062 3.1357 0
M  V30 1173 O 112.496 1.058 3.98598 0
M  V30 1174 H 111.837 0.39304 0.535178 0
M  V30 1175 H 114.367 1.65641 1.201 0
M  V30 1176 H 114.377 1.84213 3.64046 0
M  V30 1177 H 113.052 2.83021 3.04749 0
M  V30 1178 H 111.629 1.07506 3.57067 0
M  V30 1179 N 113.814 -1.1601 1.06675 0
M  V30 1180 C 115.039 -1.91068 0.806706 0
M  V30 1181 C 115.464 -1.77112 -0.633485 0
M  V30 1182 O 114.822 -1.09908 -1.44187 0
M  V30 1183 C 114.87 -3.39655 1.21106 0
M  V30 1184 O 113.974 -4.10893 0.352189 0
M  V30 1185 H 113.315 -0.595125 0.294486 0
M  V30 1186 H 115.845 -1.46955 1.42356 0
M  V30 1187 H 115.855 -3.90434 1.18428 0
M  V30 1188 H 114.53 -3.49132 2.26008 0
M  V30 1189 H 113.107 -3.70285 0.440868 0
M  V30 1190 N 115.292 -0.849877 -1.32721 0
M  V30 1191 C 116.708 -0.539102 -1.50219 0
M  V30 1192 C 116.908 0.931271 -1.78689 0
M  V30 1193 O 115.964 1.71455 -1.85363 0
M  V30 1194 C 117.277 -1.42196 -2.64954 0
M  V30 1195 C 118.825 -1.42189 -2.78839 0
M  V30 1196 C 119.3 -2.28985 -3.96648 0
M  V30 1197 N 120.791 -2.26754 -4.03902 0
M  V30 1198 C 121.526 -2.90644 -4.94281 0
M  V30 1199 N 121.022 -3.63629 -5.897 0
M  V30 1200 N 122.815 -2.80057 -4.87365 0
M  V30 1201 H 114.966 -1.80156 -1.12506 0
M  V30 1202 H 117.229 -0.769217 -0.554085 0
M  V30 1203 H 116.935 -2.46733 -2.50631 0
M  V30 1204 H 116.809 -1.10591 -3.60624 0
M  V30 1205 H 119.196 -0.38419 -2.92588 0
M  V30 1206 H 119.277 -1.77807 -1.83898 0
M  V30 1207 H 118.921 -3.32819 -3.83658 0
M  V30 1208 H 118.851 -1.90702 -4.90857 0
M  V30 1209 H 121.342 -1.73688 -3.3562 0
M  V30 1210 H 121.655 -4.09558 -6.55349 0
M  V30 1211 H 120 -3.67737 -5.89741 0
M  V30 1212 H 123.191 -2.22593 -4.11789 0
M  V30 1213 H 123.364 -3.30132 -5.57599 0
M  V30 1214 N 116.77 1.45427 -0.607355 0
M  V30 1215 C 117.7 2.3329 0.0989352 0
M  V30 1216 C 118.681 1.46816 0.859007 0
M  V30 1217 O 119.866 1.75588 0.829604 0
M  V30 1218 C 116.996 3.29518 1.09705 0
M  V30 1219 C 115.95 4.25626 0.450206 0
M  V30 1220 C 115.276 5.11542 1.55655 0
M  V30 1221 C 116.576 5.18505 -0.628455 0
M  V30 1222 H 118.27 2.92595 -0.634716 0
M  V30 1223 H 115.816 1.40696 -0.306681 0
M  V30 1224 H 117.769 3.89855 1.59971 0
M  V30 1225 H 116.493 2.68372 1.86129 0
M  V30 1226 H 115.152 3.66586 -0.0315886 0
M  V30 1227 H 114.8 4.46765 2.31107 0
M  V30 1228 H 114.5 5.76647 1.12925 0
M  V30 1229 H 116.024 5.74748 2.06148 0
M  V30 1230 H 117.438 5.72916 -0.209877 0
M  V30 1231 H 115.835 5.92085 -0.977489 0
M  V30 1232 H 116.905 4.60948 -1.50514 0
M  V30 1233 N 118.248 0.346503 1.53744 0
M  V30 1234 C 119.664 -0.00530975 1.59599 0
M  V30 1235 C 119.864 -1.48465 1.36236 0
M  V30 1236 O 118.92 -2.24376 1.15808 0
M  V30 1237 C 120.233 0.433516 2.97559 0
M  V30 1238 C 121.781 0.386111 3.10609 0
M  V30 1239 C 122.256 0.800451 4.50951 0
M  V30 1240 N 123.747 0.754753 4.5701 0
M  V30 1241 C 124.482 1.04727 5.63755 0
M  V30 1242 N 123.978 1.4081 6.7834 0
M  V30 1243 N 125.771 0.971316 5.53644 0
M  V30 1244 H 117.922 1.31009 1.67184 0
M  V30 1245 H 120.185 0.534242 0.783128 0
M  V30 1246 H 119.891 1.46509 3.19731 0
M  V30 1247 H 119.765 -0.189753 3.76722 0
M  V30 1248 H 122.152 -0.636295 2.88158 0
M  V30 1249 H 122.233 1.04462 2.33498 0
M  V30 1250 H 121.877 1.82088 4.74137 0
M  V30 1251 H 121.807 0.119386 5.26465 0
M  V30 1252 H 124.298 0.488662 3.74727 0
M  V30 1253 H 124.611 1.61607 7.55714 0
M  V30 1254 H 122.956 1.44657 6.79779 0
M  V30 1255 H 126.147 0.688748 4.63005 0
M  V30 1256 H 126.32 1.20263 6.36742 0
M  V30 1257 N 119.726 -1.57421 0.075193 0
M  V30 1258 C 120.972 -1.93905 -0.594025 0
M  V30 1259 C 121.305 -0.955701 -1.69056 0
M  V30 1260 O 120.58 0.0145373 -1.94495 0
M  V30 1261 C 120.863 -3.40638 -1.1678 0
M  V30 1262 C 120.716 -4.49733 -0.0776792 0
M  V30 1263 C 122.035 -3.88259 -2.07228 0
M  V30 1264 H 119.154 -0.705105 -0.214466 0
M  V30 1265 H 121.796 -1.8947 0.141854 0
M  V30 1266 H 119.946 -3.44549 -1.79494 0
M  V30 1267 H 121.618 -4.57942 0.555573 0
M  V30 1268 H 119.861 -4.29751 0.591286 0
M  V30 1269 H 120.532 -5.49549 -0.519603 0
M  V30 1270 H 123.008 -3.86376 -1.54445 0
M  V30 1271 H 121.884 -4.91533 -2.44308 0
M  V30 1272 H 122.145 -3.26396 -2.98191 0
M  V30 1273 N 121.204 0.198386 -1.56346 0
M  V30 1274 C 122.429 0.939682 -1.84891 0
M  V30 1275 C 122.854 1.76202 -0.658369 0
M  V30 1276 O 122.212 1.76993 0.392851 0
M  V30 1277 C 122.26 1.81428 -3.11635 0
M  V30 1278 O 121.364 2.91265 -2.91956 0
M  V30 1279 H 120.705 0.264807 -0.608912 0
M  V30 1280 H 123.235 0.204695 -2.03573 0
M  V30 1281 H 123.245 2.21958 -3.42343 0
M  V30 1282 H 121.92 1.21004 -3.97908 0
M  V30 1283 H 120.497 2.54514 -2.72538 0
M  V30 1284 N 122.682 1.50554 0.465978 0
M  V30 1285 C 123.645 1.69233 1.54574 0
M  V30 1286 C 124.645 0.562901 1.50626 0
M  V30 1287 O 125.835 0.830016 1.53155 0
M  V30 1288 C 122.967 1.7223 2.94193 0
M  V30 1289 H 124.16 2.65571 1.39327 0
M  V30 1290 H 121.713 1.40111 0.692711 0
M  V30 1291 H 122.448 0.77603 3.14878 0
M  V30 1292 H 122.233 2.54285 2.98466 0
M  V30 1293 H 123.723 1.88618 3.72576 0
M  V30 1294 N 124.16 -0.719506 1.40217 0
M  V30 1295 C 125.388 -1.50864 1.41589 0
M  V30 1296 C 125.803 -1.88794 0.0145275 0
M  V30 1297 O 125.16 -1.55174 -0.960594 0
M  V30 1298 C 125.211 -2.78646 2.30302 0
M  V30 1299 O 124.932 -2.42321 3.64983 0
M  V30 1300 C 126.433 -3.72569 2.40224 0
M  V30 1301 H 123.653 -0.465709 0.48307 0
M  V30 1302 H 126.197 -0.88785 1.84221 0
M  V30 1303 H 124.352 -3.37019 1.91042 0
M  V30 1304 H 124.766 -3.24514 4.12057 0
M  V30 1305 H 126.24 -4.5908 3.06512 0
M  V30 1306 H 126.717 -4.15403 1.42608 0
M  V30 1307 H 127.323 -3.20109 2.80019 0
M  V30 1308 N 125.638 -1.25649 -0.95132 0
M  V30 1309 C 126.885 -1.10594 -1.69633 0
M  V30 1310 C 127.213 0.352515 -1.91279 0
M  V30 1311 O 126.468 1.27601 -1.4838 0
M  V30 1312 C 126.767 -1.80909 -3.08231 0
M  V30 1313 C 126.433 -3.30825 -3.06375 0
M  V30 1314 C 125.095 -3.71722 -3.05576 0
M  V30 1315 C 127.447 -4.26589 -2.99452 0
M  V30 1316 C 124.775 -5.06788 -2.95606 0
M  V30 1317 C 127.127 -5.61683 -2.91024 0
M  V30 1318 C 125.791 -6.01904 -2.88562 0
M  V30 1319 H 125.061 -0.404691 -0.620731 0
M  V30 1320 H 127.708 -1.55964 -1.11119 0
M  V30 1321 H 126.013 -1.27979 -3.70309 0
M  V30 1322 H 127.71 -1.6671 -3.64704 0
M  V30 1323 H 124.3 -2.98287 -3.07771 0
M  V30 1324 H 128.484 -3.95982 -2.99185 0
M  V30 1325 H 123.74 -5.37126 -2.92071 0
M  V30 1326 H 127.914 -6.35578 -2.84629 0
M  V30 1327 H 125.541 -7.06521 -2.80593 0
M  V30 1328 N 127.117 1.15442 -1.07289 0
M  V30 1329 C 128.363 1.8672 -0.806679 0
M  V30 1330 C 128.718 1.80723 0.660084 0
M  V30 1331 O 128.011 1.21902 1.47819 0
M  V30 1332 C 128.205 3.3489 -1.24834 0
M  V30 1333 C 128.034 3.55313 -2.7565 0
M  V30 1334 C 126.804 3.7082 -3.4325 0
M  V30 1335 C 129.002 3.53188 -3.73848 0
M  V30 1336 N 126.984 3.7929 -4.82713 0
M  V30 1337 C 128.355 3.67765 -4.99149 0
M  V30 1338 C 130.41 3.36459 -3.67015 0
M  V30 1339 C 129.113 3.6734 -6.18428 0
M  V30 1340 C 131.139 3.37333 -4.85758 0
M  V30 1341 C 130.501 3.52438 -6.09891 0
M  V30 1342 H 126.6 0.700433 -0.347733 0
M  V30 1343 H 129.184 1.38441 -1.36902 0
M  V30 1344 H 127.355 3.81786 -0.713713 0
M  V30 1345 H 129.087 3.93875 -0.929745 0
M  V30 1346 H 125.842 3.71568 -2.93656 0
M  V30 1347 H 126.266 3.8727 -5.55294 0
M  V30 1348 H 130.908 3.237 -2.71989 0
M  V30 1349 H 128.626 3.78878 -7.13777 0
M  V30 1350 H 132.212 3.25617 -4.82146 0
M  V30 1351 H 131.092 3.53047 -7.00234 0
M  V30 1352 N 128.595 0.856903 1.32268 0
M  V30 1353 C 129.527 0.260412 2.27716 0
M  V30 1354 C 130.54 -0.569137 1.52528 0
M  V30 1355 O 131.729 -0.39326 1.74114 0
M  V30 1356 C 128.829 -0.650477 3.32599 0
M  V30 1357 C 128.002 0.14372 4.37164 0
M  V30 1358 C 127.061 -0.69328 5.21613 0
M  V30 1359 O 126.087 -0.12599 5.69061 0
M  V30 1360 N 127.289 -2.00761 5.44679 0
M  V30 1361 H 130.054 1.08059 2.79541 0
M  V30 1362 H 127.615 0.717103 1.45152 0
M  V30 1363 H 129.607 -1.21581 3.86005 0
M  V30 1364 H 128.177 -1.37133 2.80915 0
M  V30 1365 H 127.397 0.890486 3.8401 0
M  V30 1366 H 128.685 0.68915 5.04111 0
M  V30 1367 H 128.083 -2.49181 5.07863 0
M  V30 1368 H 126.64 -2.52103 6.01072 0
M  V30 1369 N 130.073 -1.45103 0.615059 0
M  V30 1370 C 131.021 -2.32331 -0.111791 0
M  V30 1371 C 132.015 -1.46409 -0.852102 0
M  V30 1372 O 133.221 -1.62849 -0.766821 0
M  V30 1373 H 129.596 -0.749993 -0.0549072 0
M  V30 1374 H 131.567 -2.91407 0.642225 0
M  V30 1375 C 130.316 -3.3015 -1.09071 0
M  V30 1376 H 129.639 -3.96265 -0.530485 0
M  V30 1377 H 131.079 -3.93898 -1.56908 0
M  V30 1378 C 129.538 -2.57875 -2.168 0
M  V30 1379 O 130.068 -2.36567 -3.24652 0
M  V30 1380 N 128.274 -2.17884 -1.92289 0
M  V30 1381 H 127.821 -2.35413 -1.04587 0
M  V30 1382 H 127.779 -1.6985 -2.64572 0
M  V30 1383 N 131.551 -0.354651 -1.53558 0
M  V30 1384 C 132.962 0.126902 -1.86268 0
M  V30 1385 C 133.313 1.49075 -1.27558 0
M  V30 1386 O 132.438 2.08105 -0.5934 0
M  V30 1387 C 133.033 0.237046 -3.3797 0
M  V30 1388 C 131.592 0.662842 -3.70518 0
M  V30 1389 C 130.739 -0.196652 -2.76602 0
M  V30 1390 H 133.69 -0.573849 -1.47962 0
M  V30 1391 H 133.711 1.06259 -3.65362 0
M  V30 1392 H 133.223 -0.755725 -3.80671 0
M  V30 1393 H 131.324 1.66424 -3.33367 0
M  V30 1394 H 131.437 0.445034 -4.77029 0
M  V30 1395 H 129.801 0.332763 -2.52517 0
M  V30 1396 H 130.584 -1.18676 -3.22135 0
M  V30 1397 N 133.029 1.57378 -0.0835403 0
M  V30 1398 C 134.445 1.57246 0.273109 0
M  V30 1399 C 134.645 1.09385 1.69225 0
M  V30 1400 O 133.701 0.765051 2.40631 0
M  V30 1401 C 135.014 3.00614 0.0720628 0
M  V30 1402 C 136.562 3.12684 0.1407 0
M  V30 1403 C 137.037 4.57989 -0.0322094 0
M  V30 1404 N 138.528 4.63194 0.0230085 0
M  V30 1405 C 139.263 5.73335 -0.0861941 0
M  V30 1406 N 138.759 6.9235 -0.24958 0
M  V30 1407 N 140.552 5.62093 -0.0282886 0
M  V30 1408 H 132.703 1.86801 -1.0109 0
M  V30 1409 H 134.966 0.861687 -0.395222 0
M  V30 1410 H 134.672 3.39786 -0.907662 0
M  V30 1411 H 134.546 3.68193 0.81936 0
M  V30 1412 H 136.933 2.73391 1.11092 0
M  V30 1413 H 137.014 2.47719 -0.637896 0
M  V30 1414 H 136.658 4.97973 -0.999247 0
M  V30 1415 H 136.588 5.21 0.765937 0
M  V30 1416 H 139.079 3.77613 0.14722 0
M  V30 1417 H 139.392 7.72117 -0.324733 0
M  V30 1418 H 137.737 6.94415 -0.285097 0
M  V30 1419 H 140.928 4.67997 0.0981408 0
M  V30 1420 H 141.101 6.47895 -0.116845 0
M  V30 1421 N 134.507 -0.190092 1.56449 0
M  V30 1422 C 135.455 -1.25501 1.95837 0
M  V30 1423 C 136.449 -1.4685 0.844485 0
M  V30 1424 O 137.655 -1.47651 1.02952 0
M  V30 1425 H 134.03 -0.421447 0.622805 0
M  V30 1426 H 136.001 -0.895821 2.84636 0
M  V30 1427 C 134.75 -2.59124 2.31841 0
M  V30 1428 H 134.073 -2.43514 3.17082 0
M  V30 1429 H 135.513 -3.32371 2.6326 0
M  V30 1430 C 133.972 -3.16488 1.15486 0
M  V30 1431 O 134.502 -3.99365 0.432535 0
M  V30 1432 N 132.708 -2.75305 0.930349 0
M  V30 1433 H 132.255 -2.08013 1.51948 0
M  V30 1434 H 132.213 -3.14024 0.153634 0
M  V30 1435 N 135.985 -1.50799 -0.457987 0
M  V30 1436 C 136.935 -1.67003 -1.55222 0
M  V30 1437 C 137.919 -0.52434 -1.52117 0
M  V30 1438 O 139.111 -0.779345 -1.58919 0
M  V30 1439 C 136.24 -1.77956 -2.93576 0
M  V30 1440 C 135.326 -2.98243 -3.01516 0
M  V30 1441 N 135.717 -4.21732 -2.79241 0
M  V30 1442 C 134.015 -2.97072 -3.32662 0
M  V30 1443 C 134.716 -5.02817 -2.92489 0
M  V30 1444 N 133.692 -4.37038 -3.23262 0
M  V30 1445 H 137.494 -2.60163 -1.36721 0
M  V30 1446 H 135.008 -1.48163 -0.664952 0
M  V30 1447 H 137.005 -1.87671 -3.72271 0
M  V30 1448 H 135.665 -0.859634 -3.13114 0
M  V30 1449 H 136.676 -4.51016 -2.54567 0
M  V30 1450 H 133.353 -2.14631 -3.58106 0
M  V30 1451 H 134.743 -6.11054 -2.79396 0
M  V30 1452 N 137.463 0.71206 -1.40597 0
M  V30 1453 C 138.71 1.47197 -1.39065 0
M  V30 1454 C 139.038 1.94499 0.00583891 0
M  V30 1455 O 138.293 1.68752 0.99102 0
M  V30 1456 C 138.592 2.71039 -2.32965 0
M  V30 1457 C 138.258 2.42484 -3.80148 0
M  V30 1458 C 136.92 2.34406 -4.20247 0
M  V30 1459 C 139.272 2.18598 -4.73143 0
M  V30 1460 C 136.6 2.00516 -5.51371 0
M  V30 1461 C 138.952 1.8622 -6.0457 0
M  V30 1462 C 137.616 1.76626 -6.43708 0
M  V30 1463 H 136.886 0.538634 -0.508876 0
M  V30 1464 H 139.533 0.815325 -1.73276 0
M  V30 1465 H 137.838 3.41558 -1.91951 0
M  V30 1466 H 139.535 3.29138 -2.29061 0
M  V30 1467 H 136.125 2.49659 -3.4838 0
M  V30 1468 H 140.309 2.23793 -4.42979 0
M  V30 1469 H 135.565 1.91628 -5.80593 0
M  V30 1470 H 139.739 1.66752 -6.76141 0
M  V30 1471 H 137.366 1.50133 -7.45228 0
M  V30 1472 N 138.941 1.26152 0.944643 0
M  V30 1473 C 140.357 1.03189 1.21754 0
M  V30 1474 C 140.557 -0.245112 2.00004 0
M  V30 1475 O 139.613 -0.955176 2.33736 0
M  V30 1476 C 140.926 2.26119 1.98219 0
M  V30 1477 C 142.474 2.30984 2.11224 0
M  V30 1478 C 142.949 3.53597 2.91089 0
M  V30 1479 N 144.44 3.54053 2.98664 0
M  V30 1480 C 145.175 4.45593 3.60881 0
M  V30 1481 N 144.671 5.47416 4.24626 0
M  V30 1482 N 146.464 4.33252 3.58119 0
M  V30 1483 H 138.615 2.08177 0.421437 0
M  V30 1484 H 140.878 0.914723 0.248969 0
M  V30 1485 H 140.584 3.18984 1.48128 0
M  V30 1486 H 140.458 2.3009 2.98895 0
M  V30 1487 H 142.845 1.38635 2.60508 0
M  V30 1488 H 142.926 2.31026 1.09821 0
M  V30 1489 H 142.57 4.46273 2.42493 0
M  V30 1490 H 142.5 3.50802 3.92741 0
M  V30 1491 H 144.991 2.80403 2.53343 0
M  V30 1492 H 145.304 6.13459 4.69987 0
M  V30 1493 H 143.649 5.51278 4.23223 0
M  V30 1494 H 146.84 3.52924 3.0751 0
M  V30 1495 H 147.013 5.04786 4.06319 0
M  V30 1496 N 140.419 -1.14872 1.07899 0
M  V30 1497 C 141.659 -1.8745 0.814965 0
M  V30 1498 C 142.023 -1.80758 -0.64733 0
M  V30 1499 O 143.224 -2.48422 -1.02664 0
M  V30 1500 C 141.495 -3.32286 1.31607 0
M  V30 1501 S 143.054 -4.22537 1.18357 0
M  V30 1502 H 139.872 -0.646833 0.295174 0
M  V30 1503 H 142.474 -1.38555 1.37923 0
M  V30 1504 H 141.178 -3.34703 2.37491 0
M  V30 1505 H 140.709 -3.86238 0.747261 0
M  V30 1506 H 142.724 -4.96044 0.124586 0
M  V30 1507 N 141.898 -0.863906 -1.31812 0
M  V30 1508 C 142.83 -0.272485 -2.27575 0
M  V30 1509 C 143.843 0.56104 -1.52827 0
M  V30 1510 O 145.032 0.384021 -1.7432 0
M  V30 1511 C 142.132 0.63283 -3.32939 0
M  V30 1512 C 141.305 -0.166902 -4.37081 0
M  V30 1513 C 140.364 0.665608 -5.21973 0
M  V30 1514 O 139.39 0.0958091 -5.69119 0
M  V30 1515 N 140.592 1.9787 -5.45736 0
M  V30 1516 H 143.357 -1.0954 -2.78964 0
M  V30 1517 H 140.918 -0.724791 -1.4477 0
M  V30 1518 H 142.91 1.19532 -3.86645 0
M  V30 1519 H 141.48 1.35642 -2.81638 0
M  V30 1520 H 140.7 -0.910838 -3.83533 0
M  V30 1521 H 141.988 -0.715874 -5.03739 0
M  V30 1522 H 141.386 2.46484 -5.09178 0
M  V30 1523 H 139.943 2.48911 -6.024 0
M  V30 1524 N 143.376 1.44774 -0.622745 0
M  V30 1525 C 144.622 2.0242 -0.124083 0
M  V30 1526 C 144.955 1.4881 1.24777 0
M  V30 1527 O 144.23 0.668799 1.8264 0
M  V30 1528 C 144.513 3.59957 -0.101619 0
M  V30 1529 C 144.366 4.23867 -1.50521 0
M  V30 1530 C 145.685 4.36284 0.578272 0
M  V30 1531 H 142.804 0.735528 -0.0465645 0
M  V30 1532 H 145.446 1.72447 -0.797617 0
M  V30 1533 H 143.596 3.85623 0.471934 0
M  V30 1534 H 145.268 4.09336 -2.12701 0
M  V30 1535 H 143.511 3.81684 -2.06154 0
M  V30 1536 H 144.182 5.32843 -1.4416 0
M  V30 1537 H 146.658 4.16001 0.0906057 0
M  V30 1538 H 145.534 5.46004 0.563149 0
M  V30 1539 H 145.795 4.10271 1.64713 0
M  V30 1540 N 144.854 0.36279 1.53368 0
M  V30 1541 C 145.786 -0.519668 2.23231 0
M  V30 1542 C 146.799 -1.04844 1.24546 0
M  V30 1543 O 147.988 -0.955296 1.50786 0
M  V30 1544 C 145.088 -1.72995 2.9142 0
M  V30 1545 C 144.261 -1.33316 4.16588 0
M  V30 1546 C 143.32 -2.40521 4.68013 0
M  V30 1547 O 142.346 -2.03027 5.3176 0
M  V30 1548 N 143.548 -3.72065 4.45587 0
M  V30 1549 H 146.313 0.078751 2.99597 0
M  V30 1550 H 143.874 0.187833 1.60807 0
M  V30 1551 H 145.866 -2.44184 3.22733 0
M  V30 1552 H 144.436 -2.2353 2.18525 0
M  V30 1553 H 143.656 -0.451236 3.91609 0
M  V30 1554 H 144.944 -1.04432 4.97967 0
M  V30 1555 H 144.342 -4.05304 3.94646 0
M  V30 1556 H 142.899 -4.39366 4.81457 0
M  V30 1557 N 146.332 -1.57332 0.0918853 0
M  V30 1558 C 147.579 -1.94236 -0.572577 0
M  V30 1559 C 147.907 -0.973398 -1.6839 0
M  V30 1560 O 147.162 0.00756912 -1.95699 0
M  V30 1561 C 147.461 -3.37689 -1.17051 0
M  V30 1562 C 147.127 -4.50527 -0.183304 0
M  V30 1563 C 145.789 -4.81119 0.0882276 0
M  V30 1564 C 148.141 -5.18883 0.49095 0
M  V30 1565 C 145.469 -5.77395 1.04076 0
M  V30 1566 C 147.821 -6.1618 1.43193 0
M  V30 1567 C 146.485 -6.45179 1.71173 0
M  V30 1568 H 145.755 -0.710762 -0.209521 0
M  V30 1569 H 148.402 -1.9077 0.167036 0
M  V30 1570 H 146.707 -3.37718 -1.9863 0
M  V30 1571 H 148.404 -3.63543 -1.69227 0
M  V30 1572 H 144.994 -4.26681 -0.405124 0
M  V30 1573 H 149.178 -4.95427 0.294312 0
M  V30 1574 H 144.434 -5.98179 1.26457 0
M  V30 1575 H 148.608 -6.68243 1.96023 0
M  V30 1576 H 146.235 -7.1959 2.4514 0
M  V30 1577 N 147.81 0.181792 -1.56548 0
M  V30 1578 C 149.04 0.914618 -1.85252 0
M  V30 1579 C 149.448 1.76791 -0.673914 0
M  V30 1580 O 148.791 1.80009 0.366416 0
M  V30 1581 C 148.853 1.85019 -3.08234 0
M  V30 1582 C 148.517 1.17754 -4.41569 0
M  V30 1583 C 149.514 0.548035 -5.17003 0
M  V30 1584 C 147.199 1.17742 -4.88305 0
M  V30 1585 C 149.193 -0.0726128 -6.37359 0
M  V30 1586 C 146.88 0.552946 -6.08593 0
M  V30 1587 C 147.878 -0.070978 -6.82963 0
M  V30 1588 O 147.566 -0.685635 -8.00971 0
M  V30 1589 H 147.298 0.271695 -0.618998 0
M  V30 1590 H 149.852 0.189944 -2.0452 0
M  V30 1591 H 148.082 2.61491 -2.84885 0
M  V30 1592 H 149.771 2.45195 -3.23472 0
M  V30 1593 H 150.537 0.540174 -4.81982 0
M  V30 1594 H 146.416 1.65246 -4.30366 0
M  V30 1595 H 149.96 -0.560213 -6.95347 0
M  V30 1596 H 145.857 0.558354 -6.43081 0
M  V30 1597 H 146.625 -0.58385 -8.16415 0
M  V30 1598 N 149.288 1.51039 0.449983 0
M  V30 1599 C 150.536 1.62759 1.19808 0
M  V30 1600 C 150.857 0.339981 1.92013 0
M  V30 1601 O 150.127 -0.643606 1.85026 0
M  V30 1602 H 148.707 0.599811 0.445237 0
M  V30 1603 H 151.369 1.87914 0.517138 0
M  V30 1604 H 150.465 2.44911 1.93455 0
M  V30 1605 N 150.766 -0.704594 1.40972 0
M  V30 1606 C 151.696 -1.83124 1.44872 0
M  V30 1607 C 152.677 -1.67281 0.30838 0
M  V30 1608 O 153.862 -1.87149 0.518556 0
M  V30 1609 C 150.992 -3.21181 1.32136 0
M  V30 1610 C 149.946 -3.51714 2.43888 0
M  V30 1611 C 149.272 -4.89032 2.16222 0
M  V30 1612 C 150.572 -3.516 3.86232 0
M  V30 1613 H 152.266 -1.80117 2.39161 0
M  V30 1614 H 149.812 -0.865145 1.15114 0
M  V30 1615 H 151.765 -3.99702 1.33479 0
M  V30 1616 H 150.489 -3.24791 0.343279 0
M  V30 1617 H 149.148 -2.75539 2.41813 0
M  V30 1618 H 148.796 -4.89256 1.16778 0
M  V30 1619 H 148.496 -5.10426 2.911 0
M  V30 1620 H 150.02 -5.69873 2.19265 0
M  V30 1621 H 151.434 -4.2014 3.9007 0
M  V30 1622 H 149.831 -3.84523 4.60719 0
M  V30 1623 H 150.901 -2.50757 4.15029 0
M  V30 1624 N 152.244 -1.26651 -0.937939 0
M  V30 1625 C 153.469 -1.15279 -1.72411 0
M  V30 1626 C 153.894 0.287866 -1.85884 0
M  V30 1627 O 153.252 1.20855 -1.35143 0
M  V30 1628 C 153.3 -1.83028 -3.10698 0
M  V30 1629 O 152.404 -1.12128 -3.96864 0
M  V30 1630 H 151.745 -0.401504 -0.528858 0
M  V30 1631 H 154.275 -1.67531 -1.1745 0
M  V30 1632 H 154.285 -1.89981 -3.6107 0
M  V30 1633 H 152.96 -2.87833 -3.00208 0
M  V30 1634 H 151.537 -1.13173 -3.55312 0
M  V30 1635 N 153.722 1.14298 -1.08507 0
M  V30 1636 C 154.632 2.23027 -0.727753 0
M  V30 1637 C 155.648 1.71952 0.26619 0
M  V30 1638 O 156.824 2.011 0.109882 0
M  V30 1639 C 153.889 3.46403 -0.143541 0
M  V30 1640 C 152.95 4.12413 -1.19223 0
M  V30 1641 C 152.183 5.29899 -0.635798 0
M  V30 1642 O 152.406 5.67796 0.544393 0
M  V30 1643 O 151.34 5.85717 -1.38634 0
M  V30 1644 H 155.166 2.55945 -1.63481 0
M  V30 1645 H 152.751 1.22248 -0.858817 0
M  V30 1646 H 154.633 4.21018 0.179404 0
M  V30 1647 H 153.308 3.15206 0.736659 0
M  V30 1648 H 152.215 3.39667 -1.56772 0
M  V30 1649 H 153.548 4.47718 -2.04474 0
M  V30 1650 N 155.201 0.870884 1.31352 0
M  V30 1651 C 156.149 0.316445 2.30437 0
M  V30 1652 C 157.143 -0.568965 1.59559 0
M  V30 1653 O 158.349 -0.454964 1.74155 0
M  V30 1654 H 154.724 0.0836521 0.747333 0
M  V30 1655 H 156.695 1.16606 2.74673 0
M  V30 1656 C 155.444 -0.46635 3.44558 0
M  V30 1657 H 154.767 0.205687 3.99271 0
M  V30 1658 H 156.207 -0.819614 4.16003 0
M  V30 1659 C 154.666 -1.65797 2.9328 0
M  V30 1660 O 155.196 -2.75728 2.92125 0
M  V30 1661 N 153.402 -1.49041 2.4947 0
M  V30 1662 H 152.949 -0.59612 2.50608 0
M  V30 1663 H 152.907 -2.28911 2.15516 0
M  V30 1664 N 156.679 -1.44442 0.630414 0
M  V30 1665 C 157.956 -1.9549 0.0655657 0
M  V30 1666 C 158.336 -1.5724 -1.40851 0
M  V30 1667 O 157.684 -0.846116 -2.12257 0
M  V30 1668 C 157.894 -3.47812 0.287691 0
M  V30 1669 C 159.242 -4.24216 0.180513 0
M  V30 1670 O 160.266 -3.55526 0.219019 0
M  V30 1671 O 159.125 -5.46434 0.0848493 0
M  V30 1672 H 156.219 -0.826688 -0.0227177 0
M  V30 1673 H 158.765 -1.54496 0.702068 0
M  V30 1674 H 157.537 -3.687 1.31056 0
M  V30 1675 H 157.16 -3.95751 -0.382984 0
M  V30 1676 N 158.157 -0.370918 -1.53173 0
M  V30 1677 C 159.067 0.480823 -2.2962 0
M  V30 1678 C 160.083 1.08789 -1.35798 0
M  V30 1679 O 161.259 1.09768 -1.68858 0
M  V30 1680 C 158.324 1.60227 -3.07454 0
M  V30 1681 C 157.385 1.0222 -4.16953 0
M  V30 1682 C 156.618 2.0902 -4.91066 0
M  V30 1683 O 156.841 3.30222 -4.65091 0
M  V30 1684 O 155.775 1.71778 -5.76867 0
M  V30 1685 H 159.601 -0.141421 -3.03371 0
M  V30 1686 H 157.186 -0.135146 -1.48787 0
M  V30 1687 H 159.068 2.25417 -3.56041 0
M  V30 1688 H 157.743 2.20982 -2.36535 0
M  V30 1689 H 156.65 0.334064 -3.72605 0
M  V30 1690 H 157.983 0.459131 -4.90054 0
M  V30 1691 N 159.635 1.57281 -0.100228 0
M  V30 1692 C 160.881 1.95626 0.556946 0
M  V30 1693 C 161.236 0.981655 1.65473 0
M  V30 1694 O 160.529 0.00849847 1.91598 0
M  V30 1695 C 160.723 3.38305 1.15259 0
M  V30 1696 C 160.552 4.49555 0.114035 0
M  V30 1697 C 159.322 5.0434 -0.311266 0
M  V30 1698 C 161.52 5.10051 -0.659768 0
M  V30 1699 N 159.502 5.99152 -1.33755 0
M  V30 1700 C 160.873 6.00628 -1.53774 0
M  V30 1701 C 162.928 4.92772 -0.712723 0
M  V30 1702 C 161.631 6.7578 -2.46403 0
M  V30 1703 C 163.657 5.6859 -1.62663 0
M  V30 1704 C 163.019 6.58838 -2.49222 0
M  V30 1705 H 159.118 0.7624 0.173982 0
M  V30 1706 H 161.702 1.93829 -0.183988 0
M  V30 1707 H 159.873 3.40786 1.86332 0
M  V30 1708 H 161.605 3.63817 1.77254 0
M  V30 1709 H 158.36 4.73537 0.0774812 0
M  V30 1710 H 158.784 6.5126 -1.84905 0
M  V30 1711 H 163.426 4.22761 -0.0576648 0
M  V30 1712 H 161.144 7.4505 -3.12931 0
M  V30 1713 H 164.73 5.57233 -1.67281 0
M  V30 1714 H 163.61 7.16479 -3.18791 0
M  V30 1715 N 161.113 -0.173488 1.56642 0
M  V30 1716 C 162.341 -0.906095 1.86004 0
M  V30 1717 C 162.756 -1.75921 0.685355 0
M  V30 1718 O 162.113 -1.79198 -0.345578 0
M  V30 1719 C 162.164 -1.78462 3.14378 0
M  V30 1720 O 161.885 -0.965914 4.27319 0
M  V30 1721 C 163.386 -2.62707 3.57071 0
M  V30 1722 H 160.606 -0.263341 0.617165 0
M  V30 1723 H 163.15 -0.174236 2.03756 0
M  V30 1724 H 161.305 -2.46984 2.98459 0
M  V30 1725 H 161.719 -1.56655 5.00559 0
M  V30 1726 H 163.193 -3.19969 4.49804 0
M  V30 1727 H 163.67 -3.37472 2.81086 0
M  V30 1728 H 164.276 -1.99521 3.75595 0
M  V30 1729 N 162.591 -1.51276 -0.441967 0
M  V30 1730 C 163.523 -1.68444 -1.55433 0
M  V30 1731 C 164.536 -0.565187 -1.52674 0
M  V30 1732 O 165.725 -0.839356 -1.57534 0
M  V30 1733 C 162.825 -1.67966 -2.94348 0
M  V30 1734 C 161.998 -2.964 -3.21661 0
M  V30 1735 C 161.057 -2.88171 -4.40277 0
M  V30 1736 O 160.083 -3.62119 -4.39157 0
M  V30 1737 N 161.285 -2.03706 -5.43584 0
M  V30 1738 H 164.05 -2.644 -1.41112 0
M  V30 1739 H 161.611 -1.49104 -0.630838 0
M  V30 1740 H 163.603 -1.60035 -3.71713 0
M  V30 1741 H 162.173 -0.796225 -3.0229 0
M  V30 1742 H 161.393 -3.18234 -2.32638 0
M  V30 1743 H 162.681 -3.81427 -3.36736 0
M  V30 1744 H 162.079 -1.42995 -5.47329 0
M  V30 1745 H 160.636 -2.01658 -6.1982 0
M  V30 1746 N 164.069 0.697108 -1.41344 0
M  V30 1747 C 165.346 1.45154 -1.31109 0
M  V30 1748 C 165.726 2.11009 0.0620449 0
M  V30 1749 O 165.074 2.01571 1.07618 0
M  V30 1750 C 165.284 2.47223 -2.46337 0
M  V30 1751 C 166.632 3.1252 -2.87431 0
M  V30 1752 O 167.656 2.57547 -2.46065 0
M  V30 1753 O 166.515 4.12083 -3.58957 0
M  V30 1754 H 163.609 0.646365 -0.515889 0
M  V30 1755 H 166.155 0.727716 -1.53305 0
M  V30 1756 H 164.927 1.97204 -3.37974 0
M  V30 1757 H 164.55 3.27116 -2.2601 0
M  V30 1758 N 165.547 1.27147 0.931209 0
M  V30 1759 C 166.963 1.04475 1.20653 0
M  V30 1760 C 167.163 -0.223885 2.00252 0
M  V30 1761 O 166.219 -0.930332 2.34736 0
M  V30 1762 C 167.532 2.28209 1.95809 0
M  V30 1763 C 169.08 2.33211 2.08762 0
M  V30 1764 C 169.555 3.56665 2.87323 0
M  V30 1765 N 171.046 3.57201 2.94892 0
M  V30 1766 C 171.781 4.49395 3.56134 0
M  V30 1767 N 171.277 5.51889 4.18796 0
M  V30 1768 N 173.07 4.37026 3.53504 0
M  V30 1769 H 165.221 2.08612 0.399333 0
M  V30 1770 H 167.484 0.917312 0.239253 0
M  V30 1771 H 167.19 3.20538 1.44736 0
M  V30 1772 H 167.064 2.33247 2.96438 0
M  V30 1773 H 169.451 1.41391 2.59023 0
M  V30 1774 H 169.532 2.32178 1.07364 0
M  V30 1775 H 169.176 4.4882 2.37746 0
M  V30 1776 H 169.106 3.54948 3.88998 0
M  V30 1777 H 171.597 2.83074 2.50354 0
M  V30 1778 H 171.91 6.18409 4.63454 0
M  V30 1779 H 170.255 5.55735 4.17353 0
M  V30 1780 H 173.446 3.56166 3.03749 0
M  V30 1781 H 173.619 5.09067 4.00942 0
M  V30 1782 N 167.025 -1.13721 1.09112 0
M  V30 1783 C 167.988 -2.17222 0.731241 0
M  V30 1784 C 168.988 -1.59035 -0.237566 0
M  V30 1785 O 170.178 -1.74192 -0.0161704 0
M  V30 1786 C 167.31 -3.40804 0.0808443 0
M  V30 1787 H 168.503 -2.50573 1.64783 0
M  V30 1788 H 166.056 -1.28493 0.889897 0
M  V30 1789 H 166.791 -3.1304 -0.847127 0
M  V30 1790 H 166.576 -3.84306 0.777896 0
M  V30 1791 H 168.066 -4.1731 -0.155657 0
M  V30 1792 N 168.503 -0.877838 -1.30888 0
M  V30 1793 C 169.45 -0.337538 -2.28318 0
M  V30 1794 C 170.42 0.568346 -1.56074 0
M  V30 1795 O 171.605 0.498298 -1.84178 0
M  V30 1796 C 168.745 0.448142 -3.42178 0
M  V30 1797 C 167.858 -0.48615 -4.29256 0
M  V30 1798 C 166.993 0.314427 -5.30269 0
M  V30 1799 C 166.032 -0.615791 -6.08995 0
M  V30 1800 N 165.169 0.14902 -7.01942 0
M  V30 1801 H 170.009 -1.17356 -2.73919 0
M  V30 1802 H 167.546 -0.590094 -1.34745 0
M  V30 1803 H 169.504 0.919517 -4.06941 0
M  V30 1804 H 168.134 1.24879 -2.97666 0
M  V30 1805 H 167.186 -1.076 -3.64865 0
M  V30 1806 H 168.498 -1.19909 -4.84173 0
M  V30 1807 H 167.652 0.847969 -6.00745 0
M  V30 1808 H 166.391 1.06062 -4.76027 0
M  V30 1809 H 165.396 -1.16102 -5.37401 0
M  V30 1810 H 166.621 -1.36097 -6.65323 0
M  V30 1811 H 164.567 0.877884 -6.50099 0
M  V30 1812 H 164.484 -0.504433 -7.54315 0
M  V30 1813 H 165.752 0.663537 -7.76671 0
M  V30 1814 N 169.982 1.44106 -0.638065 0
M  V30 1815 C 171.393 1.85316 -0.226894 0
M  V30 1816 C 171.744 1.53399 1.22324 0
M  V30 1817 O 170.869 0.975463 1.93167 0
M  V30 1818 C 171.464 3.3637 -0.405013 0
M  V30 1819 C 170.023 3.76369 -0.0482902 0
M  V30 1820 C 169.17 2.67921 -0.715108 0
M  V30 1821 H 172.121 1.34474 -0.842764 0
M  V30 1822 H 172.142 3.7885 0.354 0
M  V30 1823 H 171.654 3.59569 -1.46053 0
M  V30 1824 H 169.755 3.58784 1.00522 0
M  V30 1825 H 169.868 4.76856 -0.463187 0
M  V30 1826 H 168.232 2.54259 -0.149753 0
M  V30 1827 H 169.015 2.93951 -1.77335 0
M  V30 1828 N 171.46 0.379036 1.52974 0
M  V30 1829 C 172.706 -0.206727 2.01744 0
M  V30 1830 C 173.039 -1.47314 1.26539 0
M  V30 1831 O 172.314 -1.91084 0.362903 0
M  V30 1832 C 172.597 -0.485066 3.56818 0
M  V30 1833 C 172.45 0.795919 4.42702 0
M  V30 1834 C 173.769 -1.28003 4.21074 0
M  V30 1835 H 170.888 -0.0736607 0.73331 0
M  V30 1836 H 173.53 0.506581 1.83122 0
M  V30 1837 H 171.68 -1.09272 3.72816 0
M  V30 1838 H 173.352 1.43307 4.38476 0
M  V30 1839 H 171.595 1.41344 4.10127 0
M  V30 1840 H 172.266 0.555947 5.49193 0
M  V30 1841 H 174.742 -0.765867 4.08991 0
M  V30 1842 H 173.618 -1.44352 5.29579 0
M  V30 1843 H 173.879 -2.29236 3.78026 0
M  V30 1844 N 172.938 -1.57226 0.108567 0
M  V30 1845 C 174.166 -1.99179 -0.559954 0
M  V30 1846 C 174.581 -0.988022 -1.60884 0
M  V30 1847 O 173.938 0.0205512 -1.82488 0
M  V30 1848 C 173.989 -3.41159 -1.19552 0
M  V30 1849 O 173.71 -4.37694 -0.188577 0
M  V30 1850 C 175.211 -3.98188 -1.94837 0
M  V30 1851 H 172.431 -0.654228 -0.149088 0
M  V30 1852 H 174.975 -2.03598 0.19183 0
M  V30 1853 H 173.13 -3.37711 -1.89815 0
M  V30 1854 H 173.544 -5.20469 -0.649014 0
M  V30 1855 H 175.018 -4.99644 -2.34648 0
M  V30 1856 H 175.495 -3.3675 -2.81951 0
M  V30 1857 H 176.101 -4.0515 -1.2936 0
M  V30 1858 N 174.416 0.165178 -1.56732 0
M  V30 1859 C 175.348 1.22911 -1.93457 0
M  V30 1860 C 176.361 1.40152 -0.828333 0
M  V30 1861 O 177.55 1.40046 -1.10677 0
M  V30 1862 C 174.65 2.59686 -2.17753 0
M  V30 1863 C 173.823 2.63663 -3.48999 0
M  V30 1864 C 172.882 3.81845 -3.62051 0
M  V30 1865 O 171.908 3.67559 -4.34613 0
M  V30 1866 N 173.11 4.98557 -2.97357 0
M  V30 1867 H 175.875 0.917118 -2.85323 0
M  V30 1868 H 173.436 0.354895 -1.57962 0
M  V30 1869 H 175.428 3.37225 -2.23743 0
M  V30 1870 H 173.998 2.83251 -1.32242 0
M  V30 1871 H 173.218 1.72173 -3.54612 0
M  V30 1872 H 174.506 2.63336 -4.35352 0
M  V30 1873 H 173.904 5.13065 -2.38287 0
M  V30 1874 H 172.461 5.73936 -3.08934 0
M  V30 1875 N 175.894 1.51508 0.433938 0
M  V30 1876 C 177.143 1.63578 1.18005 0
M  V30 1877 C 177.456 0.359514 1.92268 0
M  V30 1878 O 178.662 0.359632 2.69108 0
M  V30 1879 C 177.118 2.88901 2.14626 0
M  V30 1880 C 176.726 4.23544 1.45995 0
M  V30 1881 C 178.47 3.10328 2.89649 0
M  V30 1882 C 176.377 5.40014 2.4112 0
M  V30 1883 H 175.307 0.609277 0.444182 0
M  V30 1884 H 177.958 1.77978 0.446773 0
M  V30 1885 H 176.34 2.68142 2.91403 0
M  V30 1886 H 177.514 4.54696 0.747532 0
M  V30 1887 H 175.829 4.08021 0.831115 0
M  V30 1888 H 178.426 3.94518 3.60915 0
M  V30 1889 H 178.769 2.23544 3.51189 0
M  V30 1890 H 179.302 3.31443 2.19978 0
M  V30 1891 H 176.041 6.29068 1.84264 0
M  V30 1892 H 175.561 5.13233 3.10406 0
M  V30 1893 H 177.24 5.72099 3.02177 0
M  V30 1894 N 177.372 -0.689602 1.41712 0
M  V30 1895 C 178.618 -1.45181 1.41599 0
M  V30 1896 C 178.951 -1.94181 0.0270081 0
M  V30 1897 O 178.226 -1.6993 -0.946265 0
M  V30 1898 C 178.509 -2.65945 2.42787 0
M  V30 1899 C 178.362 -2.22672 3.90816 0
M  V30 1900 C 179.681 -3.68149 2.41151 0
M  V30 1901 H 176.8 -0.526576 0.515642 0
M  V30 1902 H 179.442 -0.784947 1.73028 0
M  V30 1903 H 177.592 -3.2284 2.16116 0
M  V30 1904 H 179.264 -1.71058 4.28412 0
M  V30 1905 H 177.507 -1.54394 4.05395 0
M  V30 1906 H 178.178 -3.0935 4.57172 0
M  V30 1907 H 180.654 -3.2094 2.64834 0
M  V30 1908 H 179.53 -4.50248 3.13955 0
M  V30 1909 H 179.791 -4.18259 1.43221 0
M  V30 1910 N 178.85 -1.27639 -0.924453 0
M  V30 1911 C 180.075 -1.17101 -1.71179 0
M  V30 1912 C 180.5 0.268134 -1.86179 0
M  V30 1913 O 179.858 1.19415 -1.36418 0
M  V30 1914 C 179.906 -1.86313 -3.08739 0
M  V30 1915 O 179.01 -1.16331 -3.95652 0
M  V30 1916 H 178.351 -0.407091 -0.524569 0
M  V30 1917 H 180.881 -1.68767 -1.15666 0
M  V30 1918 H 180.891 -1.938 -3.59034 0
M  V30 1919 H 179.566 -2.91001 -2.97138 0
M  V30 1920 H 178.143 -1.16935 -3.54091 0
M  V30 1921 N 180.328 1.1314 -1.09713 0
M  V30 1922 C 181.291 2.16831 -0.742751 0
M  V30 1923 C 182.291 1.59159 0.229129 0
M  V30 1924 O 183.481 1.74199 0.00693237 0
M  V30 1925 C 180.613 3.40756 -0.0989168 0
M  V30 1926 H 181.806 2.49695 -1.66109 0
M  V30 1927 H 179.359 1.2802 -0.896699 0
M  V30 1928 H 180.094 3.13485 0.830514 0
M  V30 1929 H 179.879 3.83888 -0.798265 0
M  V30 1930 H 181.369 4.17386 0.133524 0
M  V30 1931 N 181.806 0.884767 1.30421 0
M  V30 1932 C 182.716 0.355398 2.31892 0
M  V30 1933 C 183.732 -0.542261 1.65335 0
M  V30 1934 O 184.908 -0.435432 1.96637 0
M  V30 1935 C 181.973 -0.421661 3.44126 0
M  V30 1936 C 181.034 0.505727 4.26311 0
M  V30 1937 C 180.267 -0.234343 5.33185 0
M  V30 1938 O 180.49 -1.46045 5.51386 0
M  V30 1939 O 179.424 0.415443 6.00465 0
M  V30 1940 H 183.25 1.19685 2.79122 0
M  V30 1941 H 180.835 0.648596 1.34587 0
M  V30 1942 H 182.717 -0.861641 4.12497 0
M  V30 1943 H 181.392 -1.23942 2.99032 0
M  V30 1944 H 180.299 0.994513 3.60639 0
M  V30 1945 H 181.632 1.28948 4.75009 0
M  V30 1946 N 183.284 -1.43765 0.645699 0
M  V30 1947 C 184.247 -2.29163 -0.0409488 0
M  V30 1948 C 185.247 -1.41813 -0.757996 0
M  V30 1949 O 186.437 -1.63527 -0.600382 0
M  V30 1950 C 183.569 -3.23716 -1.06869 0
M  V30 1951 H 184.762 -2.91366 0.710345 0
M  V30 1952 H 182.315 -1.5092 0.406547 0
M  V30 1953 H 183.05 -2.66393 -1.84947 0
M  V30 1954 H 182.835 -3.88105 -0.558277 0
M  V30 1955 H 184.325 -3.87831 -1.54845 0
M  V30 1956 N 184.763 -0.387143 -1.52771 0
M  V30 1957 C 186.009 0.188506 -2.02525 0
M  V30 1958 C 186.364 1.44649 -1.26864 0
M  V30 1959 O 185.657 1.88189 -0.359945 0
M  V30 1960 C 185.851 0.512209 -3.53711 0
M  V30 1961 C 185.68 -0.712855 -4.44014 0
M  V30 1962 C 184.45 -1.23147 -4.90064 0
M  V30 1963 C 186.648 -1.58453 -4.89282 0
M  V30 1964 N 184.63 -2.41431 -5.64433 0
M  V30 1965 C 186.001 -2.61381 -5.6221 0
M  V30 1966 C 188.056 -1.60488 -4.71326 0
M  V30 1967 C 186.759 -3.66227 -6.19088 0
M  V30 1968 C 188.785 -2.6424 -5.29085 0
M  V30 1969 C 188.147 -3.6589 -6.01917 0
M  V30 1970 H 184.246 0.0311236 -0.78138 0
M  V30 1971 H 186.83 -0.536548 -1.87161 0
M  V30 1972 H 185.001 1.20632 -3.69192 0
M  V30 1973 H 186.733 1.07482 -3.90166 0
M  V30 1974 H 183.488 -0.792795 -4.66917 0
M  V30 1975 H 183.912 -3.01274 -6.0627 0
M  V30 1976 H 188.554 -0.83247 -4.14524 0
M  V30 1977 H 186.272 -4.44337 -6.74974 0
M  V30 1978 H 189.858 -2.66695 -5.17074 0
M  V30 1979 H 188.738 -4.44855 -6.45813 0
M  V30 1980 N 186.241 1.57166 -0.116904 0
M  V30 1981 C 187.489 1.94737 0.540533 0
M  V30 1982 C 187.81 1.00096 1.67349 0
M  V30 1983 O 187.08 0.0568854 1.95817 0
M  V30 1984 H 185.66 0.718981 0.202669 0
M  V30 1985 H 188.322 1.94017 -0.185353 0
M  V30 1986 H 187.418 2.97719 0.936483 0
M  V30 1987 N 187.719 -0.156864 1.56817 0
M  V30 1988 C 189.135 -0.50916 1.5126 0
M  V30 1989 C 189.335 -1.83897 0.823658 0
M  V30 1990 O 188.391 -2.49469 0.390055 0
M  V30 1991 C 189.704 -0.52857 2.96018 0
M  V30 1992 C 191.252 -0.614771 3.06903 0
M  V30 1993 C 191.727 -0.664938 4.53147 0
M  V30 1994 N 193.218 -0.727433 4.57452 0
M  V30 1995 C 193.953 -0.787067 5.67973 0
M  V30 1996 N 193.449 -0.806649 6.88088 0
M  V30 1997 N 195.242 -0.827195 5.5598 0
M  V30 1998 H 187.393 0.714935 2.00006 0
M  V30 1999 H 189.656 0.259526 0.911784 0
M  V30 2000 H 189.362 0.380154 3.49639 0
M  V30 2001 H 189.236 -1.36998 3.51442 0
M  V30 2002 H 191.623 -1.51392 2.53307 0
M  V30 2003 H 191.704 0.253597 2.5454 0
M  V30 2004 H 191.348 0.230011 5.07379 0
M  V30 2005 H 191.278 -1.54966 5.03282 0
M  V30 2006 H 193.769 -0.719998 3.70978 0
M  V30 2007 H 194.082 -0.853727 7.6807 0
M  V30 2008 H 192.427 -0.774687 6.90669 0
M  V30 2009 H 195.618 -0.808998 4.61056 0
M  V30 2010 H 195.791 -0.870206 6.4213 0
M  V30 2011 N 189.197 -1.51736 -0.425897 0
M  V30 2012 C 190.16 -1.73271 -1.50032 0
M  V30 2013 C 191.16 -0.602639 -1.4908 0
M  V30 2014 O 192.35 -0.87033 -1.509 0
M  V30 2015 C 189.482 -1.79969 -2.89523 0
M  V30 2016 H 190.675 -2.69172 -1.32237 0
M  V30 2017 H 188.228 -1.41899 -0.65532 0
M  V30 2018 H 188.963 -0.859241 -3.1271 0
M  V30 2019 H 188.748 -2.62109 -2.91619 0
M  V30 2020 H 190.238 -1.9843 -3.67444 0
M  V30 2021 N 190.675 0.682077 -1.42076 0
M  V30 2022 C 191.952 1.43755 -1.32642 0
M  V30 2023 C 192.332 2.11063 0.0396611 0
M  V30 2024 O 191.68 2.02701 1.05474 0
M  V30 2025 C 191.89 2.44596 -2.48946 0
M  V30 2026 C 193.238 3.09454 -2.9073 0
M  V30 2027 O 194.262 2.54922 -2.48783 0
M  V30 2028 O 193.121 4.08253 -3.63307 0
M  V30 2029 H 190.215 0.640857 -0.522715 0
M  V30 2030 H 192.761 0.711415 -1.54068 0
M  V30 2031 H 191.533 1.93609 -3.40046 0
M  V30 2032 H 191.156 3.24701 -2.29467 0
M  V30 2033 N 192.153 1.28127 0.917671 0
M  V30 2034 C 193.393 1.163 1.68088 0
M  V30 2035 C 193.757 -0.284515 1.8988 0
M  V30 2036 O 194.958 -0.525413 2.63615 0
M  V30 2037 C 193.229 1.93546 3.00457 0
M  V30 2038 S 194.788 1.98048 3.91564 0
M  V30 2039 H 191.606 0.415005 0.577315 0
M  V30 2040 H 194.208 1.62173 1.09179 0
M  V30 2041 H 192.912 2.97888 2.82295 0
M  V30 2042 H 192.443 1.48207 3.64415 0
M  V30 2043 H 194.458 1.08415 4.84211 0
M  V30 2044 N 193.631 -1.12557 1.10312 0
M  V30 2045 C 194.879 -1.83675 0.843091 0
M  V30 2046 C 195.2 -1.84435 -0.633131 0
M  V30 2047 O 194.47 -1.30657 -1.45964 0
M  V30 2048 H 193.05 -0.680138 0.308904 0
M  V30 2049 H 195.712 -1.36301 1.39313 0
M  V30 2050 H 194.808 -2.87908 1.2048 0
M  V30 2051 N 195.109 -0.891671 -1.2995 0
M  V30 2052 C 196.356 -0.513501 -1.95881 0
M  V30 2053 C 196.684 0.938655 -1.70351 0
M  V30 2054 O 195.939 1.67936 -1.00478 0
M  V30 2055 C 196.238 -0.742868 -3.49594 0
M  V30 2056 C 195.904 -2.17114 -3.95186 0
M  V30 2057 C 194.566 -2.56169 -4.07346 0
M  V30 2058 C 196.918 -3.10162 -4.18866 0
M  V30 2059 C 194.246 -3.87469 -4.4055 0
M  V30 2060 C 196.598 -4.41001 -4.53542 0
M  V30 2061 C 195.262 -4.79941 -4.63911 0
M  V30 2062 H 194.532 -0.187903 -0.71678 0
M  V30 2063 H 197.179 -1.1288 -1.54694 0
M  V30 2064 H 195.484 -0.044586 -3.91775 0
M  V30 2065 H 197.181 -0.429767 -3.9869 0
M  V30 2066 H 193.771 -1.85801 -3.86233 0
M  V30 2067 H 197.955 -2.81206 -4.08946 0
M  V30 2068 H 193.211 -4.17371 -4.46779 0
M  V30 2069 H 197.385 -5.13133 -4.70815 0
M  V30 2070 H 195.012 -5.81719 -4.89395 0
M  V30 2071 N 196.587 1.43421 -0.653314 0
M  V30 2072 C 197.815 2.06163 -0.174491 0
M  V30 2073 C 198.23 1.48969 1.1599 0
M  V30 2074 O 197.587 0.621042 1.71608 0
M  V30 2075 C 197.638 3.61417 -0.0774865 0
M  V30 2076 O 197.359 4.16485 -1.35912 0
M  V30 2077 C 198.86 4.41235 0.427402 0
M  V30 2078 H 196.08 0.664946 -0.0899353 0
M  V30 2079 H 198.624 1.83924 -0.893988 0
M  V30 2080 H 196.779 3.82841 0.59257 0
M  V30 2081 H 197.193 5.10153 -1.21839 0
M  V30 2082 H 198.667 5.5021 0.44423 0
M  V30 2083 H 199.144 4.14268 1.45873 0
M  V30 2084 H 199.75 4.2478 -0.210167 0
M  V30 2085 N 198.065 0.39524 1.52563 0
M  V30 2086 C 199.29 -0.187456 2.06551 0
M  V30 2087 C 199.715 -1.39249 1.26457 0
M  V30 2088 O 199.073 -1.78947 0.291151 0
M  V30 2089 C 199.121 -0.529985 3.56684 0
M  V30 2090 O 198.225 -1.62307 3.79118 0
M  V30 2091 H 197.566 -0.0202537 0.663691 0
M  V30 2092 H 200.096 0.564426 1.96661 0
M  V30 2093 H 200.106 -0.792598 4.00227 0
M  V30 2094 H 198.781 0.350987 4.14416 0
M  V30 2095 H 197.358 -1.3537 3.47461 0
M  V30 2096 N 199.544 -1.57102 0.125237 0
M  V30 2097 C 200.79 -1.95697 -0.532035 0
M  V30 2098 C 201.123 -1.009 -1.6593 0
M  V30 2099 O 200.398 -0.047347 -1.94442 0
M  V30 2100 C 200.681 -3.44181 -1.05884 0
M  V30 2101 C 200.534 -4.49752 0.0654392 0
M  V30 2102 C 201.853 -3.94655 -1.9477 0
M  V30 2103 H 198.972 -0.711571 -0.191925 0
M  V30 2104 H 201.614 -1.88923 0.20206 0
M  V30 2105 H 199.764 -3.50085 -1.68442 0
M  V30 2106 H 201.436 -4.55943 0.700982 0
M  V30 2107 H 199.679 -4.27653 0.727709 0
M  V30 2108 H 200.35 -5.50924 -0.344505 0
M  V30 2109 H 202.826 -3.91094 -1.42074 0
M  V30 2110 H 201.702 -4.99057 -2.28546 0
M  V30 2111 H 201.963 -3.35718 -2.87656 0
M  V30 2112 N 201.022 0.148545 -1.56898 0
M  V30 2113 C 202.247 0.880385 -1.87787 0
M  V30 2114 C 202.672 1.74018 -0.714093 0
M  V30 2115 O 202.03 1.78153 0.336343 0
M  V30 2116 C 202.078 1.71422 -3.17249 0
M  V30 2117 O 201.182 2.8183 -3.01074 0
M  V30 2118 H 200.523 0.245301 -0.617028 0
M  V30 2119 H 203.053 0.139826 -2.04122 0
M  V30 2120 H 203.063 2.10954 -3.49231 0
M  V30 2121 H 201.738 1.08284 -4.01556 0
M  V30 2122 H 200.315 2.45715 -2.80497 0
M  V30 2123 N 202.5 1.5196 0.417844 0
M  V30 2124 C 203.73 1.69181 1.18581 0
M  V30 2125 C 204.138 0.397104 1.84986 0
M  V30 2126 O 203.481 -0.636011 1.72339 0
M  V30 2127 C 203.543 2.76497 2.29759 0
M  V30 2128 C 203.207 4.18514 1.83563 0
M  V30 2129 C 204.204 5.02648 1.32821 0
M  V30 2130 C 201.889 4.64708 1.90661 0
M  V30 2131 C 203.883 6.31044 0.897894 0
M  V30 2132 C 201.57 5.93096 1.47241 0
M  V30 2133 C 202.568 6.76093 0.968891 0
M  V30 2134 O 202.256 8.02078 0.540924 0
M  V30 2135 H 201.988 0.570457 0.362705 0
M  V30 2136 H 204.542 1.99249 0.498885 0
M  V30 2137 H 202.772 2.41786 3.01789 0
M  V30 2138 H 204.461 2.82403 2.91553 0
M  V30 2139 H 205.227 4.68154 1.26716 0
M  V30 2140 H 201.106 4.00216 2.28797 0
M  V30 2141 H 204.65 6.95776 0.504192 0
M  V30 2142 H 200.547 6.271 1.53022 0
M  V30 2143 H 201.315 8.15794 0.66502 0
M  V30 2144 N 203.978 -0.674533 1.42435 0
M  V30 2145 C 204.91 -1.80005 1.41883 0
M  V30 2146 C 205.923 -1.59667 0.31787 0
M  V30 2147 O 207.112 -1.68781 0.580973 0
M  V30 2148 C 204.212 -3.17114 1.19549 0
M  V30 2149 C 203.385 -3.64299 2.42084 0
M  V30 2150 C 202.444 -4.80142 2.15291 0
M  V30 2151 O 201.47 -4.90673 2.88493 0
M  V30 2152 N 202.672 -5.68869 1.1562 0
M  V30 2153 H 205.437 -1.80964 2.38898 0
M  V30 2154 H 202.998 -0.857633 1.37318 0
M  V30 2155 H 204.99 -3.92267 0.995417 0
M  V30 2156 H 203.56 -3.11053 0.310569 0
M  V30 2157 H 202.78 -2.79822 2.77657 0
M  V30 2158 H 204.068 -3.92567 3.23679 0
M  V30 2159 H 203.466 -5.63012 0.550765 0
M  V30 2160 H 202.023 -6.43833 1.016 0
M  V30 2161 N 205.456 -1.28612 -0.910864 0
M  V30 2162 C 206.388 -1.08589 -2.01844 0
M  V30 2163 C 207.401 -0.0367419 -1.62759 0
M  V30 2164 O 208.59 -0.280101 -1.76289 0
M  V30 2165 C 205.69 -0.628626 -3.33019 0
M  V30 2166 C 204.863 -1.75382 -4.00699 0
M  V30 2167 C 203.922 -1.28945 -5.10156 0
M  V30 2168 O 202.948 -1.9922 -5.33198 0
M  V30 2169 N 204.15 -0.154224 -5.80295 0
M  V30 2170 H 206.915 -2.03973 -2.19579 0
M  V30 2171 H 204.476 -1.20403 -1.08234 0
M  V30 2172 H 206.468 -0.301508 -4.03575 0
M  V30 2173 H 205.038 0.232451 -3.11735 0
M  V30 2174 H 204.258 -2.25039 -3.23653 0
M  V30 2175 H 205.546 -2.50854 -4.42662 0
M  V30 2176 H 204.944 0.43194 -5.64049 0
M  V30 2177 H 203.501 0.113599 -6.51701 0
M  V30 2178 N 206.934 1.1197 -1.10907 0
M  V30 2179 C 208.182 1.83225 -0.852819 0
M  V30 2180 C 208.503 1.84769 0.623341 0
M  V30 2181 O 207.773 1.3143 1.45269 0
M  V30 2182 H 206.353 0.67849 -0.312507 0
M  V30 2183 H 209.015 1.3556 -1.40033 0
M  V30 2184 H 208.111 2.87265 -1.22005 0
M  V30 2185 N 208.412 0.89855 1.29475 0
M  V30 2186 C 209.658 0.524658 1.95896 0
M  V30 2187 C 209.991 -0.926468 1.70676 0
M  V30 2188 O 209.266 -1.65665 1.01908 0
M  V30 2189 C 209.549 0.81633 3.50725 0
M  V30 2190 C 209.402 2.31907 3.85408 0
M  V30 2191 C 210.721 0.302038 4.39062 0
M  V30 2192 H 207.84 0.19209 0.711527 0
M  V30 2193 H 210.482 1.12502 1.53112 0
M  V30 2194 H 208.632 0.305369 3.87298 0
M  V30 2195 H 210.304 2.89949 3.58786 0
M  V30 2196 H 208.547 2.78027 3.32992 0
M  V30 2197 H 209.218 2.47373 4.93468 0
M  V30 2198 H 211.694 0.739551 4.09475 0
M  V30 2199 H 210.57 0.535331 5.46283 0
M  V30 2200 H 210.831 -0.797216 4.34853 0
M  V30 2201 N 209.89 -1.43072 0.660911 0
M  V30 2202 C 210.82 -2.33497 -0.0122829 0
M  V30 2203 C 211.801 -1.49903 -0.803925 0
M  V30 2204 O 212.986 -1.78546 -0.763864 0
M  V30 2205 C 210.116 -3.33363 -0.973994 0
M  V30 2206 C 209.07 -4.27003 -0.291928 0
M  V30 2207 C 208.396 -5.16967 -1.36562 0
M  V30 2208 C 209.696 -5.15816 0.820462 0
M  V30 2209 H 211.39 -2.90038 0.742873 0
M  V30 2210 H 208.936 -1.39461 0.358688 0
M  V30 2211 H 210.889 -3.95524 -1.45392 0
M  V30 2212 H 209.613 -2.75095 -1.7604 0
M  V30 2213 H 208.272 -3.66217 0.167623 0
M  V30 2214 H 207.92 -4.55034 -2.14366 0
M  V30 2215 H 207.62 -5.80441 -0.914454 0
M  V30 2216 H 209.144 -5.82003 -1.84675 0
M  V30 2217 H 210.558 -5.71742 0.422366 0
M  V30 2218 H 208.955 -5.8805 1.19656 0
M  V30 2219 H 210.025 -4.55045 1.67518 0
M  V30 2220 N 211.368 -0.403325 -1.52352 0
M  V30 2221 C 212.593 0.176499 -2.06648 0
M  V30 2222 C 213.018 1.38577 -1.27193 0
M  V30 2223 O 212.376 1.7879 -0.300637 0
M  V30 2224 C 212.424 0.511061 -3.5696 0
M  V30 2225 O 211.528 1.60294 -3.79973 0
M  V30 2226 H 210.869 0.0167337 -0.663789 0
M  V30 2227 H 213.399 -0.574848 -1.96359 0
M  V30 2228 H 213.409 0.771362 -4.00642 0
M  V30 2229 H 212.084 -0.37296 -4.14224 0
M  V30 2230 H 210.661 1.33526 -3.48174 0
M  V30 2231 N 212.846 1.57033 -0.133567 0
M  V30 2232 C 213.809 2.14897 0.796995 0
M  V30 2233 C 214.809 1.0874 1.18458 0
M  V30 2234 O 215.999 1.34446 1.1077 0
M  V30 2235 C 213.131 2.70112 2.07973 0
M  V30 2236 H 214.324 2.98457 0.293873 0
M  V30 2237 H 211.877 1.55871 0.115787 0
M  V30 2238 H 212.612 1.9018 2.62682 0
M  V30 2239 H 212.397 3.47764 1.81115 0
M  V30 2240 H 213.887 3.14738 2.74462 0
M  V30 2241 N 214.325 -0.140222 1.56975 0
M  V30 2242 C 215.553 -0.866437 1.87884 0
M  V30 2243 C 215.968 -1.74428 0.722517 0
M  V30 2244 O 215.325 -1.79891 -0.30749 0
M  V30 2245 C 215.376 -1.71753 3.18093 0
M  V30 2246 O 215.097 -0.875056 4.29272 0
M  V30 2247 C 216.598 -2.55074 3.62563 0
M  V30 2248 H 213.818 -0.25019 0.622612 0
M  V30 2249 H 216.362 -0.130977 2.0408 0
M  V30 2250 H 214.517 -2.40598 3.03631 0
M  V30 2251 H 214.931 -1.46002 5.03769 0
M  V30 2252 H 216.405 -3.10356 4.5649 0
M  V30 2253 H 216.882 -3.31434 2.88181 0
M  V30 2254 H 217.488 -1.91509 3.79743 0
M  V30 2255 N 215.803 -1.52179 -0.40978 0
M  V30 2256 C 217.052 -1.65434 -1.15388 0
M  V30 2257 C 217.365 -0.390056 -1.91671 0
M  V30 2258 O 218.571 -0.402399 -2.68501 0
M  V30 2259 C 217.027 -2.92279 -2.10003 0
M  V30 2260 C 216.635 -4.25813 -1.39239 0
M  V30 2261 C 218.379 -3.14897 -2.84675 0
M  V30 2262 C 216.286 -5.43782 -2.32498 0
M  V30 2263 H 215.216 -0.616267 -0.434432 0
M  V30 2264 H 217.867 -1.78666 -0.418401 0
M  V30 2265 H 216.249 -2.72744 -2.871 0
M  V30 2266 H 217.423 -4.55828 -0.675099 0
M  V30 2267 H 215.738 -4.09292 -0.766097 0
M  V30 2268 H 218.335 -4.0021 -3.54593 0
M  V30 2269 H 218.678 -2.29103 -3.47588 0
M  V30 2270 H 219.211 -3.34901 -2.14677 0
M  V30 2271 H 215.95 -6.3192 -1.74233 0
M  V30 2272 H 215.47 -5.18106 -3.02201 0
M  V30 2273 H 217.149 -5.76834 -2.93038 0
M  V30 2274 N 217.281 0.66697 -1.42791 0
M  V30 2275 C 218.211 1.79218 -1.49677 0
M  V30 2276 C 219.192 1.66405 -0.352623 0
M  V30 2277 O 220.377 1.85708 -0.567993 0
M  V30 2278 C 217.507 3.17565 -1.40605 0
M  V30 2279 C 216.461 3.45124 -2.53127 0
M  V30 2280 C 215.787 4.83127 -2.29112 0
M  V30 2281 C 217.087 3.41236 -3.95418 0
M  V30 2282 H 218.781 1.73713 -2.43853 0
M  V30 2283 H 216.327 0.83432 -1.17367 0
M  V30 2284 H 218.28 3.96022 -1.44029 0
M  V30 2285 H 217.004 3.23767 -0.429271 0
M  V30 2286 H 215.663 2.69031 -2.49034 0
M  V30 2287 H 215.311 4.85988 -1.29709 0
M  V30 2288 H 215.011 5.02528 -3.04531 0
M  V30 2289 H 216.535 5.63859 -2.34297 0
M  V30 2290 H 217.949 4.09651 -4.01073 0
M  V30 2291 H 216.346 3.72173 -4.70752 0
M  V30 2292 H 217.416 2.39665 -4.21532 0
M  V30 2293 N 218.759 1.29093 0.90403 0
M  V30 2294 C 219.989 1.19516 1.68522 0
M  V30 2295 C 220.397 -0.24738 1.87576 0
M  V30 2296 O 219.74 -1.17798 1.40959 0
M  V30 2297 C 219.802 1.83249 3.0929 0
M  V30 2298 C 219.466 3.32531 3.13484 0
M  V30 2299 C 220.463 4.28821 2.93953 0
M  V30 2300 C 218.148 3.73656 3.35688 0
M  V30 2301 C 220.142 5.64212 2.96553 0
M  V30 2302 C 217.829 5.0917 3.37919 0
M  V30 2303 C 218.827 6.04258 3.18373 0
M  V30 2304 O 218.515 7.37298 3.20385 0
M  V30 2305 H 218.247 0.415467 0.533257 0
M  V30 2306 H 220.801 1.70912 1.13922 0
M  V30 2307 H 219.031 1.26358 3.65473 0
M  V30 2308 H 220.72 1.68054 3.69476 0
M  V30 2309 H 221.486 3.98382 2.76616 0
M  V30 2310 H 217.365 3.00101 3.49943 0
M  V30 2311 H 220.909 6.38407 2.81216 0
M  V30 2312 H 216.806 5.39256 3.54787 0
M  V30 2313 H 217.574 7.46048 3.36681 0
M  V30 2314 N 220.237 -1.11381 1.11499 0
M  V30 2315 C 221.147 -2.21019 0.786628 0
M  V30 2316 C 222.163 -1.72597 -0.220507 0
M  V30 2317 O 223.339 -2.01321 -0.0565251 0
M  V30 2318 C 220.404 -3.459 0.235333 0
M  V30 2319 C 219.465 -4.09107 1.30115 0
M  V30 2320 C 218.698 -5.28027 0.776068 0
M  V30 2321 O 218.921 -5.6904 -0.393661 0
M  V30 2322 O 217.855 -5.81835 1.54114 0
M  V30 2323 H 221.681 -2.51521 1.70209 0
M  V30 2324 H 219.266 -1.19928 0.890928 0
M  V30 2325 H 221.148 -4.21346 -0.067715 0
M  V30 2326 H 219.823 -3.17049 -0.652828 0
M  V30 2327 H 218.73 -3.35391 1.65722 0
M  V30 2328 H 220.063 -4.42139 2.16273 0
M  V30 2329 N 221.715 -0.905404 -1.28997 0
M  V30 2330 C 222.964 -0.530191 -1.94607 0
M  V30 2331 C 223.277 0.929185 -1.72121 0
M  V30 2332 O 224.483 1.41218 -2.31883 0
M  V30 2333 C 222.939 -0.897333 -3.48534 0
M  V30 2334 C 222.547 -2.37587 -3.79811 0
M  V30 2335 C 224.291 -0.592304 -4.20347 0
M  V30 2336 C 222.198 -2.68357 -5.27009 0
M  V30 2337 H 221.128 -0.194558 -0.728466 0
M  V30 2338 H 223.779 -1.10318 -1.46636 0
M  V30 2339 H 222.161 -0.253214 -3.9519 0
M  V30 2340 H 223.335 -3.06602 -3.43994 0
M  V30 2341 H 221.65 -2.6505 -3.2115 0
M  V30 2342 H 224.247 -0.798975 -5.28697 0
M  V30 2343 H 224.59 0.469474 -4.13644 0
M  V30 2344 H 225.123 -1.19452 -3.79442 0
M  V30 2345 H 221.862 -3.73355 -5.38782 0
M  V30 2346 H 221.382 -2.03971 -5.64053 0
M  V30 2347 H 223.061 -2.54922 -5.94663 0
M  V30 2348 N 223.193 1.4272 -0.668489 0
M  V30 2349 C 224.123 2.335 -0.000100175 0
M  V30 2350 C 225.104 1.50328 0.795964 0
M  V30 2351 O 226.289 1.78949 0.754385 0
M  V30 2352 C 223.419 3.33874 0.956302 0
M  V30 2353 C 222.373 4.27152 0.269278 0
M  V30 2354 C 221.699 5.17684 1.33818 0
M  V30 2355 C 222.999 5.15373 -0.847805 0
M  V30 2356 H 224.693 2.89639 -0.758244 0
M  V30 2357 H 222.239 1.39269 -0.366079 0
M  V30 2358 H 224.192 3.9629 1.43292 0
M  V30 2359 H 222.916 2.76025 1.74579 0
M  V30 2360 H 221.575 3.66123 -0.187042 0
M  V30 2361 H 221.223 4.56165 2.1195 0
M  V30 2362 H 220.923 5.80918 0.883659 0
M  V30 2363 H 222.447 5.82974 1.81586 0
M  V30 2364 H 223.861 5.7151 -0.452681 0
M  V30 2365 H 222.258 5.87407 -1.22773 0
M  V30 2366 H 223.328 4.5415 -1.69929 0
M  V30 2367 N 224.671 0.411399 1.52136 0
M  V30 2368 C 225.601 -0.404015 2.29978 0
M  V30 2369 C 226.582 -1.04412 1.34284 0
M  V30 2370 O 227.767 -1.0527 1.63192 0
M  V30 2371 C 224.897 -1.5197 3.12286 0
M  V30 2372 C 223.851 -1.00448 4.16046 0
M  V30 2373 C 223.177 -2.21393 4.86712 0
M  V30 2374 C 224.477 -0.0569336 5.22269 0
M  V30 2375 H 226.171 0.245529 2.98392 0
M  V30 2376 H 223.717 0.119525 1.43503 0
M  V30 2377 H 225.67 -2.09715 3.6551 0
M  V30 2378 H 224.394 -2.19716 2.41646 0
M  V30 2379 H 223.053 -0.449421 3.63835 0
M  V30 2380 H 222.701 -2.87699 4.12599 0
M  V30 2381 H 222.401 -1.87571 5.56858 0
M  V30 2382 H 223.925 -2.7974 5.4275 0
M  V30 2383 H 225.339 -0.54325 5.7072 0
M  V30 2384 H 223.736 0.192594 5.99791 0
M  V30 2385 H 224.806 0.887663 4.76706 0
M  V30 2386 N 226.149 -1.5696 0.141893 0
M  V30 2387 C 227.397 -1.95573 -0.509484 0
M  V30 2388 C 227.718 -1.02746 -1.65736 0
M  V30 2389 O 226.988 -0.0880311 -1.95702 0
M  V30 2390 H 225.568 -0.722115 -0.191205 0
M  V30 2391 H 228.23 -1.93697 0.216196 0
M  V30 2392 H 227.326 -2.99171 -0.889 0
M  V30 2393 N 227.627 0.131896 -1.57047 0
M  V30 2394 C 228.574 1.16236 -1.99393 0
M  V30 2395 C 229.544 1.41863 -0.863943 0
M  V30 2396 O 230.729 1.53946 -1.12718 0
M  V30 2397 C 227.869 2.48708 -2.39245 0
M  V30 2398 C 226.982 2.30127 -3.65603 0
M  V30 2399 C 226.117 3.55738 -3.94492 0
M  V30 2400 C 225.156 3.32259 -5.14073 0
M  V30 2401 N 224.293 4.50039 -5.38896 0
M  V30 2402 H 229.133 0.794251 -2.87221 0
M  V30 2403 H 226.67 0.380707 -1.42088 0
M  V30 2404 H 228.628 3.25969 -2.60384 0
M  V30 2405 H 227.258 2.83437 -1.54478 0
M  V30 2406 H 226.31 1.43845 -3.52154 0
M  V30 2407 H 227.622 2.08746 -4.5302 0
M  V30 2408 H 226.776 4.41423 -4.1621 0
M  V30 2409 H 225.515 3.80138 -3.05526 0
M  V30 2410 H 224.52 2.44963 -4.92212 0
M  V30 2411 H 225.745 3.09242 -6.04604 0
M  V30 2412 H 223.691 4.74584 -4.52886 0
M  V30 2413 H 223.608 4.31716 -6.2061 0
M  V30 2414 H 224.876 5.36895 -5.65123 0
M  V30 2415 N 229.106 1.52395 0.401703 0
M  V30 2416 C 230.069 1.75636 1.47257 0
M  V30 2417 C 231.069 0.62628 1.48103 0
M  V30 2418 O 232.259 0.894227 1.49497 0
M  V30 2419 C 229.391 1.84553 2.86624 0
M  V30 2420 H 230.584 2.71241 1.27938 0
M  V30 2421 H 228.137 1.42923 0.632662 0
M  V30 2422 H 228.872 0.908882 3.11303 0
M  V30 2423 H 228.657 2.66715 2.87412 0
M  V30 2424 H 230.147 2.04251 3.64241 0
M  V30 2425 N 230.584 -0.659388 1.43143 0
M  V30 2426 C 231.812 -1.44723 1.47861 0
M  V30 2427 C 232.227 -1.88563 0.0945886 0
M  V30 2428 O 231.584 -1.59108 -0.893915 0
M  V30 2429 C 231.635 -2.68627 2.41913 0
M  V30 2430 O 231.356 -2.26623 3.74932 0
M  V30 2431 C 232.857 -3.62045 2.55809 0
M  V30 2432 H 230.077 -0.444801 0.502387 0
M  V30 2433 H 232.621 -0.808916 1.87821 0
M  V30 2434 H 230.776 -3.28613 2.05164 0
M  V30 2435 H 231.19 -3.06745 4.2545 0
M  V30 2436 H 232.664 -4.45666 3.25708 0
M  V30 2437 H 233.141 -4.08981 1.60099 0
M  V30 2438 H 233.747 -3.07944 2.93344 0
M  V30 2439 N 232.062 -1.29571 -0.897171 0
M  V30 2440 C 232.992 -1.17473 -2.01798 0
M  V30 2441 C 233.973 -0.068323 -1.69963 0
M  V30 2442 O 235.158 -0.248239 -1.92607 0
M  V30 2443 C 232.288 -0.853099 -3.36659 0
M  V30 2444 C 231.242 -1.9161 -3.82713 0
M  V30 2445 C 230.568 -1.44773 -5.14728 0
M  V30 2446 C 231.868 -3.32535 -4.02763 0
M  V30 2447 H 233.562 -2.11237 -2.12177 0
M  V30 2448 H 231.108 -1.01699 -1.01948 0
M  V30 2449 H 233.061 -0.755165 -4.14578 0
M  V30 2450 H 231.785 0.120236 -3.26379 0
M  V30 2451 H 230.444 -2.00346 -3.07013 0
M  V30 2452 H 230.092 -0.462995 -5.00865 0
M  V30 2453 H 229.792 -2.15865 -5.46513 0
M  V30 2454 H 231.316 -1.36334 -5.95185 0
M  V30 2455 H 232.73 -3.26626 -4.71156 0
M  V30 2456 H 231.127 -4.01607 -4.45905 0
M  V30 2457 H 232.197 -3.75326 -3.07016 0
M  V30 2458 N 233.54 1.10788 -1.12088 0
M  V30 2459 C 234.77 1.86191 -0.895351 0
M  V30 2460 C 235.178 1.80763 0.558702 0
M  V30 2461 O 234.521 1.19188 1.39785 0
M  V30 2462 C 234.583 3.35659 -1.28737 0
M  V30 2463 C 234.247 3.64849 -2.75198 0
M  V30 2464 C 235.244 3.61757 -3.734 0
M  V30 2465 C 232.929 3.93641 -3.12013 0
M  V30 2466 C 234.923 3.87045 -5.06434 0
M  V30 2467 C 232.61 4.18585 -4.4523 0
M  V30 2468 C 233.608 4.15277 -5.42249 0
M  V30 2469 O 233.296 4.3959 -6.73065 0
M  V30 2470 H 233.028 0.595425 -0.32007 0
M  V30 2471 H 235.582 1.40992 -1.49367 0
M  V30 2472 H 233.812 3.81497 -0.63224 0
M  V30 2473 H 235.501 3.92441 -1.03656 0
M  V30 2474 H 236.267 3.39557 -3.46303 0
M  V30 2475 H 232.146 3.95348 -2.37109 0
M  V30 2476 H 235.69 3.84378 -5.82151 0
M  V30 2477 H 231.587 4.40264 -4.72057 0
M  V30 2478 H 232.355 4.57123 -6.78956 0
M  V30 2479 N 235.018 0.912232 1.28515 0
M  V30 2480 C 235.981 0.404223 2.25607 0
M  V30 2481 C 236.981 -0.468602 1.53821 0
M  V30 2482 O 238.171 -0.271873 1.72065 0
M  V30 2483 C 235.303 -0.420653 3.38295 0
M  V30 2484 H 236.496 1.26188 2.7206 0
M  V30 2485 H 234.049 0.691495 1.40171 0
M  V30 2486 H 234.784 -1.29777 2.97201 0
M  V30 2487 H 234.569 0.204935 3.91564 0
M  V30 2488 H 236.059 -0.766971 4.10496 0
M  V30 2489 N 236.496 -1.42363 0.676048 0
M  V30 2490 C 237.742 -2.0182 0.199125 0
M  V30 2491 C 238.075 -1.53339 -1.19168 0
M  V30 2492 O 237.35 -0.736124 -1.80032 0
M  V30 2493 C 237.633 -3.59331 0.235144 0
M  V30 2494 C 237.486 -4.17989 1.66149 0
M  V30 2495 C 238.805 -4.3813 -0.41595 0
M  V30 2496 H 235.924 -0.733293 0.0738311 0
M  V30 2497 H 238.566 -1.69368 0.86107 0
M  V30 2498 H 236.716 -3.87109 -0.328487 0
M  V30 2499 H 238.388 -4.0116 2.27747 0
M  V30 2500 H 236.631 -3.7377 2.20178 0
M  V30 2501 H 237.302 -5.27126 1.63837 0
M  V30 2502 H 239.778 -4.16051 0.0638529 0
M  V30 2503 H 238.654 -5.47717 -0.360115 0
M  V30 2504 H 238.915 -4.16101 -1.49373 0
M  V30 2505 N 237.974 -0.419461 -1.51915 0
M  V30 2506 C 238.904 0.391813 -2.30189 0
M  V30 2507 C 239.885 1.03699 -1.34836 0
M  V30 2508 O 241.07 1.04403 -1.63748 0
M  V30 2509 C 238.2 1.50312 -3.13087 0
M  V30 2510 C 237.154 0.9824 -4.16573 0
M  V30 2511 C 236.48 2.18809 -4.8788 0
M  V30 2512 C 237.78 0.0292356 -5.22292 0
M  V30 2513 H 239.474 -0.26135 -2.98257 0
M  V30 2514 H 237.02 -0.127134 -1.43438 0
M  V30 2515 H 238.973 2.07773 -3.66617 0
M  V30 2516 H 237.697 2.18431 -2.42807 0
M  V30 2517 H 236.356 0.430119 -3.64068 0
M  V30 2518 H 236.004 2.85507 -4.14119 0
M  V30 2519 H 235.704 1.84615 -5.57845 0
M  V30 2520 H 237.228 2.76858 -5.44226 0
M  V30 2521 H 238.642 0.512976 -5.71 0
M  V30 2522 H 237.039 -0.2244 -5.9968 0
M  V30 2523 H 238.109 -0.912931 -4.76228 0
M  V30 2524 N 239.452 1.56882 -0.150215 0
M  V30 2525 C 240.698 1.96518 0.500834 0
M  V30 2526 C 241.031 1.03527 1.64304 0
M  V30 2527 O 240.306 0.0782751 1.94342 0
M  V30 2528 C 240.589 3.45822 1.00395 0
M  V30 2529 C 240.442 4.49591 -0.136983 0
M  V30 2530 C 241.761 3.97704 1.88467 0
M  V30 2531 H 238.88 0.714535 0.18058 0
M  V30 2532 H 241.522 1.88577 -0.232091 0
M  V30 2533 H 239.672 3.5272 1.62851 0
M  V30 2534 H 241.344 4.5477 -0.77343 0
M  V30 2535 H 239.587 4.26441 -0.795652 0
M  V30 2536 H 240.258 5.51402 0.256815 0
M  V30 2537 H 242.734 3.93304 1.35834 0
M  V30 2538 H 241.61 5.0263 2.20578 0
M  V30 2539 H 241.871 3.40252 2.82279 0
M  V30 2540 N 240.93 -0.123565 1.57115 0
M  V30 2541 C 242.155 -0.850398 1.89164 0
M  V30 2542 C 242.58 -1.7286 0.741688 0
M  V30 2543 O 241.938 -1.78665 -0.307958 0
M  V30 2544 C 241.986 -1.66353 3.19936 0
M  V30 2545 O 241.09 -2.77004 3.0552 0
M  V30 2546 H 240.431 -0.235454 0.620852 0
M  V30 2547 H 242.961 -0.107335 2.04318 0
M  V30 2548 H 242.971 -2.05372 3.52543 0
M  V30 2549 H 241.646 -1.01881 4.03228 0
M  V30 2550 H 240.223 -2.41221 2.84371 0
M  V30 2551 N 242.408 -1.52605 -0.393616 0
M  V30 2552 C 243.371 -1.76415 -1.46323 0
M  V30 2553 C 244.371 -0.634126 -1.47768 0
M  V30 2554 O 245.561 -0.902142 -1.4902 0
M  V30 2555 C 242.693 -1.8607 -2.85641 0
M  V30 2556 H 243.886 -2.71916 -1.26498 0
M  V30 2557 H 241.439 -1.43257 -0.625073 0
M  V30 2558 H 242.174 -0.925378 -3.10817 0
M  V30 2559 H 241.959 -2.68235 -2.85993 0
M  V30 2560 H 243.449 -2.06179 -3.63153 0
M  V30 2561 N 243.887 0.651787 -1.4349 0
M  V30 2562 C 244.817 1.77621 -1.51569 0
M  V30 2563 C 245.798 1.66022 -0.370253 0
M  V30 2564 O 246.983 1.85095 -0.587658 0
M  V30 2565 C 244.113 3.16056 -1.43966 0
M  V30 2566 C 243.067 3.4242 -2.56774 0
M  V30 2567 C 242.393 4.8067 -2.34223 0
M  V30 2568 C 243.693 3.37023 -3.99015 0
M  V30 2569 H 245.387 1.71117 -2.45681 0
M  V30 2570 H 242.933 0.821825 -1.18246 0
M  V30 2571 H 244.886 3.94472 -1.48221 0
M  V30 2572 H 243.61 3.23293 -0.463586 0
M  V30 2573 H 242.269 2.66375 -2.51873 0
M  V30 2574 H 241.917 4.84585 -1.34856 0
M  V30 2575 H 241.617 4.9927 -3.09844 0
M  V30 2576 H 243.141 5.61342 -2.40265 0
M  V30 2577 H 244.555 4.05374 -4.05395 0
M  V30 2578 H 242.952 3.67159 -4.74673 0
M  V30 2579 H 244.022 2.3518 -4.2405 0
M  V30 2580 N 245.365 1.30045 0.890287 0
M  V30 2581 C 246.611 1.18737 1.64406 0
M  V30 2582 C 246.944 -0.258525 1.92472 0
M  V30 2583 O 246.219 -1.18562 1.54186 0
M  V30 2584 C 246.502 2.01087 2.98724 0
M  V30 2585 C 246.355 3.53867 2.77665 0
M  V30 2586 C 247.674 1.84457 3.9958 0
M  V30 2587 H 244.793 0.432698 0.596608 0
M  V30 2588 H 247.435 1.5962 1.0306 0
M  V30 2589 H 245.585 1.66349 3.51084 0
M  V30 2590 H 247.257 3.98637 2.32133 0
M  V30 2591 H 245.5 3.78318 2.12269 0
M  V30 2592 H 246.171 4.06772 3.7315 0
M  V30 2593 H 248.647 2.14817 3.56361 0
M  V30 2594 H 247.523 2.44411 4.91482 0
M  V30 2595 H 247.784 0.802276 4.3476 0
M  V30 2596 N 246.843 -1.10192 1.12674 0
M  V30 2597 C 247.773 -2.18652 0.819362 0
M  V30 2598 C 248.754 -1.68698 -0.217915 0
M  V30 2599 O 249.939 -1.94041 -0.0785581 0
M  V30 2600 C 247.069 -3.46202 0.27594 0
M  V30 2601 C 246.023 -4.09444 1.24656 0
M  V30 2602 C 245.349 -5.31725 0.563258 0
M  V30 2603 C 246.649 -4.52863 2.60217 0
M  V30 2604 H 248.343 -2.44622 1.72628 0
M  V30 2605 H 245.889 -1.17571 0.831451 0
M  V30 2606 H 247.842 -4.21372 0.0486149 0
M  V30 2607 H 246.566 -3.1973 -0.666331 0
M  V30 2608 H 245.225 -3.36284 1.45974 0
M  V30 2609 H 244.873 -5.0153 -0.384235 0
M  V30 2610 H 244.573 -5.74991 1.21075 0
M  V30 2611 H 246.097 -6.09624 0.34503 0
M  V30 2612 H 247.511 -5.19294 2.42913 0
M  V30 2613 H 245.908 -5.06986 3.21068 0
M  V30 2614 H 246.978 -3.65656 3.18471 0
M  V30 2615 N 248.321 -0.919034 -1.28029 0
M  V30 2616 C 249.254 -0.355887 -2.25408 0
M  V30 2617 C 250.232 0.542874 -1.5327 0
M  V30 2618 O 251.416 0.485338 -1.82145 0
M  V30 2619 C 248.543 0.490759 -3.35126 0
M  V30 2620 C 247.589 -0.343358 -4.25116 0
M  V30 2621 S 248.422 -1.75344 -5.05979 0
M  V30 2622 C 249.578 -0.914244 -6.19187 0
M  V30 2623 H 249.811 -1.18123 -2.72826 0
M  V30 2624 H 247.344 -0.720636 -1.36551 0
M  V30 2625 H 249.302 0.973404 -3.98792 0
M  V30 2626 H 247.963 1.29054 -2.86363 0
M  V30 2627 H 247.156 0.304266 -5.03081 0
M  V30 2628 H 246.758 -0.759851 -3.662 0
M  V30 2629 H 249.05 -0.146282 -6.77342 0
M  V30 2630 H 249.993 -1.66661 -6.88208 0
M  V30 2631 H 250.401 -0.460082 -5.62622 0
M  V30 2632 N 249.799 1.42003 -0.683588 0
M  V30 2633 C 250.762 2.29191 -0.0198243 0
M  V30 2634 C 251.762 1.43773 0.72013 0
M  V30 2635 O 252.952 1.65061 0.556815 0
M  V30 2636 C 250.084 3.26435 0.982487 0
M  V30 2637 H 251.277 2.8938 -0.787345 0
M  V30 2638 H 248.83 1.49789 -0.446418 0
M  V30 2639 H 249.565 2.71203 1.77819 0
M  V30 2640 H 249.35 3.89449 0.455182 0
M  V30 2641 H 250.84 3.918 1.44508 0
M  V30 2642 N 251.277 0.427512 1.51691 0
M  V30 2643 C 252.21 -0.433876 2.24037 0
M  V30 2644 C 253.188 -1.03287 1.25581 0
M  V30 2645 O 254.372 -1.07722 1.54688 0
M  V30 2646 C 251.499 -1.60385 2.98319 0
M  V30 2647 C 250.545 -1.12648 4.11355 0
M  V30 2648 S 251.378 -0.076543 5.35445 0
M  V30 2649 C 252.534 -1.25141 6.13262 0
M  V30 2650 H 252.767 0.180367 2.96752 0
M  V30 2651 H 250.3 0.211946 1.52938 0
M  V30 2652 H 252.258 -2.27462 3.41718 0
M  V30 2653 H 250.919 -2.18948 2.25213 0
M  V30 2654 H 250.112 -2.0011 4.62571 0
M  V30 2655 H 249.714 -0.534088 3.70167 0
M  V30 2656 H 252.006 -2.17162 6.41753 0
M  V30 2657 H 252.949 -0.779411 7.03797 0
M  V30 2658 H 253.357 -1.48553 5.44603 0
M  V30 2659 N 252.755 -1.56801 0.158532 0
M  V30 2660 C 254.001 -1.96781 -0.490405 0
M  V30 2661 C 254.334 -1.04397 -1.63753 0
M  V30 2662 O 253.609 -0.0885805 -1.94298 0
M  V30 2663 C 253.892 -3.4635 -0.985594 0
M  V30 2664 C 253.745 -4.49512 0.160824 0
M  V30 2665 C 255.064 -3.98697 -1.86355 0
M  V30 2666 H 252.183 -0.715482 -0.176788 0
M  V30 2667 H 254.825 -1.88451 0.242088 0
M  V30 2668 H 252.975 -3.53579 -1.60978 0
M  V30 2669 H 254.647 -4.54353 0.797537 0
M  V30 2670 H 252.89 -4.26013 0.818256 0
M  V30 2671 H 253.561 -5.51531 -0.227569 0
M  V30 2672 H 256.037 -3.94019 -1.33746 0
M  V30 2673 H 254.913 -5.03792 -2.17909 0
M  V30 2674 H 255.174 -3.41744 -2.8047 0
M  V30 2675 N 254.233 0.115231 -1.57178 0
M  V30 2676 C 255.18 1.14115 -2.00615 0
M  V30 2677 C 256.15 1.40939 -0.878941 0
M  V30 2678 O 257.335 1.52741 -1.14345 0
M  V30 2679 C 254.475 2.46156 -2.4187 0
M  V30 2680 C 253.588 2.26236 -3.68024 0
M  V30 2681 C 252.723 3.51534 -3.98243 0
M  V30 2682 C 251.762 3.26787 -5.17568 0
M  V30 2683 N 250.899 4.44298 -5.43639 0
M  V30 2684 H 255.739 0.763743 -2.88047 0
M  V30 2685 H 253.276 0.365615 -1.42484 0
M  V30 2686 H 255.234 3.23189 -2.63827 0
M  V30 2687 H 253.864 2.81783 -1.57475 0
M  V30 2688 H 252.916 1.40102 -3.5366 0
M  V30 2689 H 254.228 2.03929 -4.55208 0
M  V30 2690 H 253.382 4.36984 -4.20868 0
M  V30 2691 H 252.121 3.76876 -3.09541 0
M  V30 2692 H 251.126 2.39729 -4.94783 0
M  V30 2693 H 252.351 3.02812 -6.0785 0
M  V30 2694 H 250.297 4.69754 -4.57895 0
M  V30 2695 H 250.214 4.25109 -6.25154 0
M  V30 2696 H 251.482 5.3087 -5.70786 0
M  V30 2697 N 255.711 1.52812 0.385517 0
M  V30 2698 C 257.127 1.4214 0.725829 0
M  V30 2699 C 257.327 0.544589 1.94001 0
M  V30 2700 O 256.383 0.0193693 2.52493 0
M  V30 2701 C 257.696 2.85042 0.957668 0
M  V30 2702 C 259.244 2.94543 1.05892 0
M  V30 2703 C 259.719 4.38464 1.32337 0
M  V30 2704 N 261.21 4.41804 1.39151 0
M  V30 2705 C 261.945 5.5025 1.61285 0
M  V30 2706 N 261.441 6.68775 1.80866 0
M  V30 2707 N 263.234 5.37798 1.63492 0
M  V30 2708 H 255.385 2.08338 -0.413383 0
M  V30 2709 H 257.648 0.940016 -0.122775 0
M  V30 2710 H 257.354 3.51431 0.137568 0
M  V30 2711 H 257.228 3.27505 1.87137 0
M  V30 2712 H 259.615 2.28321 1.86959 0
M  V30 2713 H 259.696 2.55504 0.123057 0
M  V30 2714 H 259.34 5.05254 0.517793 0
M  V30 2715 H 259.27 4.75059 2.27214 0
M  V30 2716 H 261.761 3.56377 1.25713 0
M  V30 2717 H 262.074 7.47197 1.97271 0
M  V30 2718 H 260.419 6.71797 1.78083 0
M  V30 2719 H 263.61 4.44171 1.47749 0
M  V30 2720 H 263.783 6.22382 1.80402 0
M  V30 2721 N 257.189 -0.644168 1.43834 0
M  V30 2722 C 258.136 -1.75671 1.49694 0
M  V30 2723 C 259.106 -1.6246 0.345809 0
M  V30 2724 O 260.291 -1.82573 0.554234 0
M  V30 2725 C 257.431 -3.13867 1.43463 0
M  V30 2726 C 256.544 -3.38147 2.6885 0
M  V30 2727 C 255.679 -4.66241 2.54544 0
M  V30 2728 C 254.718 -4.83657 3.75157 0
M  V30 2729 N 253.855 -6.03016 3.59605 0
M  V30 2730 H 258.695 -1.69998 2.44754 0
M  V30 2731 H 256.232 -0.829458 1.21484 0
M  V30 2732 H 258.19 -3.9377 1.37843 0
M  V30 2733 H 256.82 -3.18588 0.519783 0
M  V30 2734 H 255.872 -2.52276 2.84712 0
M  V30 2735 H 257.184 -3.46899 3.58417 0
M  V30 2736 H 256.338 -5.54285 2.46683 0
M  V30 2737 H 255.077 -4.59826 1.62516 0
M  V30 2738 H 254.082 -3.94046 3.83416 0
M  V30 2739 H 255.307 -4.91896 4.68204 0
M  V30 2740 H 253.253 -5.97715 2.7032 0
M  V30 2741 H 253.17 -6.12766 4.42779 0
M  V30 2742 H 254.438 -6.93657 3.55613 0
M  V30 2743 N 258.668 -1.30515 -0.883378 0
M  V30 2744 C 259.945 -1.10086 -1.6168 0
M  V30 2745 C 260.325 0.349269 -2.08191 0
M  V30 2746 O 259.673 1.34105 -1.85008 0
M  V30 2747 C 259.883 -2.10315 -2.78511 0
M  V30 2748 C 261.231 -2.42119 -3.48803 0
M  V30 2749 O 262.255 -2.08638 -2.88702 0
M  V30 2750 O 261.114 -2.99396 -4.57192 0
M  V30 2751 H 258.208 -0.422907 -0.710689 0
M  V30 2752 H 260.754 -1.41947 -0.930015 0
M  V30 2753 H 259.526 -3.07917 -2.41459 0
M  V30 2754 H 259.149 -1.79282 -3.54886 0
M  V30 2755 N 260.146 1.09593 -1.13257 0
M  V30 2756 C 261.393 1.81734 -0.893257 0
M  V30 2757 C 261.721 1.8563 0.580656 0
M  V30 2758 O 260.976 1.31906 1.44566 0
M  V30 2759 C 261.275 3.27802 -1.42411 0
M  V30 2760 C 260.941 3.44041 -2.91456 0
M  V30 2761 C 259.603 3.48181 -3.3215 0
M  V30 2762 C 261.955 3.48719 -3.87356 0
M  V30 2763 C 259.283 3.54575 -4.67433 0
M  V30 2764 C 261.635 3.56648 -5.2248 0
M  V30 2765 C 260.299 3.59055 -5.62704 0
M  V30 2766 H 259.569 0.665011 -0.326866 0
M  V30 2767 H 262.216 1.2912 -1.41422 0
M  V30 2768 H 260.521 3.83042 -0.823795 0
M  V30 2769 H 262.218 3.82149 -1.21503 0
M  V30 2770 H 258.808 3.41502 -2.58987 0
M  V30 2771 H 262.992 3.44763 -3.57004 0
M  V30 2772 H 258.248 3.54725 -4.97976 0
M  V30 2773 H 262.422 3.59212 -5.96607 0
M  V30 2774 H 260.049 3.63763 -6.67518 0
M  V30 2775 O 261.663 1.05716 1.22092 0
M  V30 2776 H 262.354 0.735773 1.79182 0
M  V30 END ATOM
M  V30 BEGIN BOND
M  V30 END BOND
M  V30 END CTAB
M  END
$$$$
