drugbank_target|P01903 HLA class II histocompatibility antigen, DR alpha chain (DB05121; DB11294)
 OpenBabel12092120593D

  0  0  0     0  0            999 V3000
M  V30 BEGIN CTAB
M  V30 COUNTS 4026 4081 0 0 0
M  V30 BEGIN ATOM
M  V30 1 H -0.908 1.98254 -0.117106 0
M  V30 2 N 0 1.576 0 0
M  V30 3 C 0.933 2.03868 1.02534 0
M  V30 4 C 1.911 0.928543 1.3348 0
M  V30 5 O 3.095 1.19667 1.45644 0
M  V30 6 C 0.222 2.43627 2.35294 0
M  V30 7 C -0.732 3.65373 2.2001 0
M  V30 8 S 0.101 5.13292 1.52614 0
M  V30 9 C 1.257 5.56322 2.86805 0
M  V30 10 H 1.49 2.90518 0.631377 0
M  V30 11 H -0.977 1.52953 0.210867 0
M  V30 12 H 0.981 2.67203 3.11629 0
M  V30 13 H -0.358 1.57376 2.7183 0
M  V30 14 H -1.165 3.90944 3.18086 0
M  V30 15 H -1.563 3.418 1.51819 0
M  V30 16 H 0.729 5.58782 3.83104 0
M  V30 17 H 1.672 6.56266 2.65933 0
M  V30 18 H 2.08 4.83886 2.90714 0
M  V30 19 N 1.4781 -0.272755 1.55222 0
M  V30 20 C 2.4411 -1.32041 1.87344 0
M  V30 21 C 3.4411 -1.42342 0.74803 0
M  V30 22 O 4.6311 -1.41488 1.0162 0
M  V30 23 C 1.7631 -2.70173 2.07893 0
M  V30 24 H 2.9561 -1.04789 2.80997 0
M  V30 25 H 0.5091 -0.51083 1.47717 0
M  V30 26 H 1.2441 -3.02605 1.16622 0
M  V30 27 H 1.0291 -2.64082 2.89833 0
M  V30 28 H 2.5191 -3.45869 2.34017 0
M  V30 29 N 2.9562 -1.48159 -0.537278 0
M  V30 30 C 4.2052 -1.5506 -1.28993 0
M  V30 31 C 4.5182 -0.226211 -1.94288 0
M  V30 32 O 5.7242 -0.173395 -2.70946 0
M  V30 33 C 4.1802 -2.73429 -2.34018 0
M  V30 34 C 3.7882 -4.1248 -1.74825 0
M  V30 35 C 5.5322 -2.89638 -3.10339 0
M  V30 36 C 3.4392 -5.22121 -2.77747 0
M  V30 37 H 2.3692 -0.577231 -0.485098 0
M  V30 38 H 5.0202 -1.74478 -0.568317 0
M  V30 39 H 3.4022 -2.47431 -3.09182 0
M  V30 40 H 4.5762 -4.48466 -1.05899 0
M  V30 41 H 2.8912 -4.01327 -1.11022 0
M  V30 42 H 5.4882 -3.68718 -3.87235 0
M  V30 43 H 5.8312 -1.9882 -3.65754 0
M  V30 44 H 6.3642 -3.15502 -2.42288 0
M  V30 45 H 3.1032 -6.1488 -2.27161 0
M  V30 46 H 2.6232 -4.90631 -3.45024 0
M  V30 47 H 4.3022 -5.49924 -3.4087 0
M  V30 48 N 4.4343 0.785586 -1.36625 0
M  V30 49 C 5.6593 1.57963 -1.34397 0
M  V30 50 C 6.0843 1.87964 0.071526 0
M  V30 51 O 5.4423 1.48182 1.0446 0
M  V30 52 C 5.4903 2.87511 -2.17646 0
M  V30 53 O 4.5943 3.81281 -1.57158 0
M  V30 54 H 3.9353 0.479014 -0.459828 0
M  V30 55 H 6.4653 0.973411 -1.79961 0
M  V30 56 H 6.4753 3.36745 -2.30362 0
M  V30 57 H 5.1503 2.65002 -3.20541 0
M  V30 58 H 3.7273 3.39885 -1.53403 0
M  V30 59 N 5.9124 1.20967 1.01018 0
M  V30 60 C 7.1604 1.02172 1.74371 0
M  V30 61 C 7.4814 -0.446414 1.89821 0
M  V30 62 O 6.7514 -1.32234 1.44537 0
M  V30 63 H 5.3314 0.375066 0.646014 0
M  V30 64 H 7.9934 1.52187 1.21758 0
M  V30 65 H 7.0894 1.48538 2.74487 0
M  V30 66 N 7.3905 -1.2043 1.01659 0
M  V30 67 C 8.6365 -1.90079 0.706963 0
M  V30 68 C 8.9695 -1.78648 -0.761474 0
M  V30 69 O 8.2445 -1.17069 -1.55323 0
M  V30 70 C 8.5275 -3.41469 1.14327 0
M  V30 71 C 8.3805 -3.61833 2.67201 0
M  V30 72 C 9.6995 -4.34261 0.714529 0
M  V30 73 H 6.8185 -0.690254 0.2583 0
M  V30 74 H 9.4605 -1.41826 1.26433 0
M  V30 75 H 7.6105 -3.82696 0.669056 0
M  V30 76 H 9.2825 -3.2986 3.22475 0
M  V30 77 H 7.5255 -3.05304 3.08175 0
M  V30 78 H 8.1965 -4.67955 2.92783 0
M  V30 79 H 10.6725 -4.00682 1.12221 0
M  V30 80 H 9.5485 -5.38806 1.04784 0
M  V30 81 H 9.8095 -4.40431 -0.383799 0
M  V30 82 N 8.8686 -0.792821 -1.36206 0
M  V30 83 C 10.2796 -0.429513 -1.81692 0
M  V30 84 C 10.6306 1.04695 -1.65932 0
M  V30 85 O 9.7556 1.81256 -1.18218 0
M  V30 86 C 10.3506 -0.772831 -3.29868 0
M  V30 87 C 8.9096 -0.462307 -3.7355 0
M  V30 88 C 8.0566 -1.00569 -2.5842 0
M  V30 89 H 11.0076 -0.985672 -1.24379 0
M  V30 90 H 11.0286 -0.0651928 -3.80444 0
M  V30 91 H 10.5406 -1.84747 -3.41307 0
M  V30 92 H 8.6416 0.604158 -3.67669 0
M  V30 93 H 8.7546 -0.985299 -4.68859 0
M  V30 94 H 7.1186 -0.428734 -2.51066 0
M  V30 95 H 7.9016 -2.08616 -2.72643 0
M  V30 96 N 10.3467 1.47872 -0.545128 0
M  V30 97 C 11.5927 2.02793 -0.0166104 0
M  V30 98 C 11.9257 1.41987 1.32489 0
M  V30 99 O 11.2007 0.571045 1.85928 0
M  V30 100 C 11.4837 3.59989 0.0893294 0
M  V30 101 C 11.3367 4.3125 -1.27841 0
M  V30 102 C 12.6557 4.32606 0.808724 0
M  V30 103 H 9.7747 0.736962 -0.00751035 0
M  V30 104 H 12.4167 1.76433 -0.705085 0
M  V30 105 H 10.5667 3.82579 0.675681 0
M  V30 106 H 12.2387 4.20035 -1.90704 0
M  V30 107 H 10.4817 3.92076 -1.85632 0
M  V30 108 H 11.1527 5.39736 -1.15713 0
M  V30 109 H 13.6287 4.14936 0.310992 0
M  V30 110 H 12.5047 5.42251 0.851782 0
M  V30 111 H 12.7657 4.00963 1.86229 0
M  V30 112 N 11.8248 0.280983 1.55075 0
M  V30 113 C 12.7548 -0.597469 2.25727 0
M  V30 114 C 13.7358 -1.15417 1.24952 0
M  V30 115 O 14.9208 -1.18722 1.53684 0
M  V30 116 C 12.0508 -1.7789 2.98283 0
M  V30 117 C 11.0048 -1.35347 4.06036 0
M  V30 118 C 10.3308 -2.61846 4.66198 0
M  V30 119 C 11.6308 -0.499354 5.19907 0
M  V30 120 H 13.3248 -0.00824265 2.99399 0
M  V30 121 H 10.8708 -0.0025244 1.44 0
M  V30 122 H 12.8238 -2.39937 3.46422 0
M  V30 123 H 11.5478 -2.39405 2.22155 0
M  V30 124 H 10.2068 -0.756156 3.58717 0
M  V30 125 H 9.8548 -3.21632 3.86732 0
M  V30 126 H 9.5548 -2.3409 5.38958 0
M  V30 127 H 11.0788 -3.24732 5.1709 0
M  V30 128 H 12.4928 -1.02498 5.64063 0
M  V30 129 H 10.8898 -0.316424 5.99265 0
M  V30 130 H 11.9598 0.480459 4.82514 0
M  V30 131 N 13.3029 -1.57598 0.00835791 0
M  V30 132 C 14.5509 -1.90551 -0.6734 0
M  V30 133 C 14.8719 -0.883301 -1.73847 0
M  V30 134 O 14.1419 0.0781442 -1.95744 0
M  V30 135 H 12.7219 -0.703312 -0.251717 0
M  V30 136 H 15.3839 -1.94833 0.0512592 0
M  V30 137 H 14.4799 -2.9056 -1.13935 0
M  V30 138 N 14.781 0.264519 -1.55364 0
M  V30 139 C 16.028 0.994986 -1.7637 0
M  V30 140 C 16.356 1.85976 -0.5695 0
M  V30 141 O 15.611 1.90509 0.44776 0
M  V30 142 C 15.91 1.9004 -3.02687 0
M  V30 143 C 15.576 1.19243 -4.34847 0
M  V30 144 C 14.238 0.996709 -4.70764 0
M  V30 145 C 16.59 0.689296 -5.16622 0
M  V30 146 C 13.918 0.285261 -5.86006 0
M  V30 147 C 16.27 -0.00860079 -6.32599 0
M  V30 148 C 14.934 -0.215963 -6.67151 0
M  V30 149 H 14.204 0.364091 -0.645383 0
M  V30 150 H 16.851 0.266543 -1.89636 0
M  V30 151 H 15.156 2.69533 -2.84357 0
M  V30 152 H 16.853 2.46695 -3.16137 0
M  V30 153 H 13.443 1.3549 -4.06621 0
M  V30 154 H 17.627 0.828108 -4.89342 0
M  V30 155 H 12.883 0.113961 -6.11294 0
M  V30 156 H 17.057 -0.406186 -6.95214 0
M  V30 157 H 14.684 -0.769217 -7.56298 0
M  V30 158 N 16.2591 1.48442 0.529413 0
M  V30 159 C 17.5061 1.56488 1.28521 0
M  V30 160 C 17.8341 0.239042 1.93025 0
M  V30 161 O 17.0891 -0.770713 1.79885 0
M  V30 162 C 17.3881 2.6523 2.39558 0
M  V30 163 C 17.0541 4.07648 1.92702 0
M  V30 164 C 15.7161 4.46411 1.79641 0
M  V30 165 C 18.0681 4.96896 1.573 0
M  V30 166 C 15.3961 5.72226 1.29514 0
M  V30 167 C 17.7481 6.23202 1.08636 0
M  V30 168 C 16.4121 6.60821 0.941919 0
M  V30 169 H 15.6821 0.572631 0.470292 0
M  V30 170 H 18.3291 1.82161 0.59072 0
M  V30 171 H 16.6341 2.33419 3.14679 0
M  V30 172 H 18.3311 2.68671 2.97686 0
M  V30 173 H 14.9211 3.77036 2.03819 0
M  V30 174 H 19.1051 4.67626 1.66251 0
M  V30 175 H 14.3611 6.00097 1.17019 0
M  V30 176 H 18.5351 6.91753 0.803136 0
M  V30 177 H 16.1621 7.58198 0.5513 0
M  V30 178 N 17.7372 -0.778329 1.37039 0
M  V30 179 C 18.9862 -1.53189 1.3121 0
M  V30 180 C 19.2992 -1.95328 -0.103095 0
M  V30 181 O 20.5052 -2.70012 -0.283826 0
M  V30 182 C 18.9612 -2.76591 2.30272 0
M  V30 183 C 18.5692 -2.41577 3.77286 0
M  V30 184 C 20.3132 -3.5455 2.33441 0
M  V30 185 C 18.2202 -3.61441 4.68096 0
M  V30 186 H 17.1502 -0.5751 0.487622 0
M  V30 187 H 19.8012 -0.853101 1.62464 0
M  V30 188 H 18.1832 -3.46326 1.92027 0
M  V30 189 H 19.3572 -1.79668 4.2433 0
M  V30 190 H 17.6722 -1.76806 3.76999 0
M  V30 191 H 20.2692 -4.43628 2.98493 0
M  V30 192 H 20.6122 -3.93936 1.34611 0
M  V30 193 H 21.1452 -2.91805 2.7036 0
M  V30 194 H 17.8842 -3.27142 5.6803 0
M  V30 195 H 17.4042 -4.22478 4.25761 0
M  V30 196 H 19.0832 -4.28335 4.8491 0
M  V30 197 N 19.2153 -1.21501 -1.00376 0
M  V30 198 C 20.4643 -1.02718 -1.73586 0
M  V30 199 C 20.7773 0.439589 -1.90596 0
M  V30 200 O 21.9833 0.746848 -2.61026 0
M  V30 201 C 20.4393 -1.78929 -3.1227 0
M  V30 202 C 20.0473 -3.29783 -3.03228 0
M  V30 203 C 21.7913 -1.68557 -3.89601 0
M  V30 204 C 19.6983 -3.98479 -4.36999 0
M  V30 205 H 18.6283 -0.380733 -0.650814 0
M  V30 206 H 21.2793 -1.45248 -1.1214 0
M  V30 207 H 19.6613 -1.29192 -3.74333 0
M  V30 208 H 20.8353 -3.86832 -2.50395 0
M  V30 209 H 19.1503 -3.40711 -2.39385 0
M  V30 210 H 21.7473 -2.17211 -4.88593 0
M  V30 211 H 22.0903 -0.644021 -4.11288 0
M  V30 212 H 22.6233 -2.15778 -3.34193 0
M  V30 213 H 19.3623 -5.02841 -4.20513 0
M  V30 214 H 18.8823 -3.46219 -4.89788 0
M  V30 215 H 20.5613 -4.03462 -5.05794 0
M  V30 216 N 20.6934 1.19889 -1.02296 0
M  V30 217 C 21.6564 2.21116 -0.603351 0
M  V30 218 C 22.6564 1.5738 0.329884 0
M  V30 219 O 23.8464 1.73802 0.117702 0
M  V30 220 C 20.9784 3.40696 0.117992 0
M  V30 221 H 22.1714 2.59754 -1.49893 0
M  V30 222 H 19.7244 1.33463 -0.813468 0
M  V30 223 H 20.4594 3.07569 1.0282 0
M  V30 224 H 20.2444 3.88188 -0.552511 0
M  V30 225 H 21.7344 4.15692 0.398696 0
M  V30 226 N 22.1715 0.800033 1.35784 0
M  V30 227 C 23.4175 0.377901 1.99248 0
M  V30 228 C 23.7505 -1.05052 1.63333 0
M  V30 229 O 23.0255 -1.72768 0.893385 0
M  V30 230 C 23.3085 0.553922 3.55814 0
M  V30 231 C 23.1615 2.0268 4.01548 0
M  V30 232 C 24.4805 -0.0244802 4.40093 0
M  V30 233 H 21.5995 0.138782 0.723815 0
M  V30 234 H 24.2415 1.00835 1.61035 0
M  V30 235 H 22.3915 0.0172398 3.88496 0
M  V30 236 H 24.0635 2.62536 3.79305 0
M  V30 237 H 22.3065 2.5256 3.52698 0
M  V30 238 H 22.9775 2.10087 5.10458 0
M  V30 239 H 25.4535 0.433775 4.13833 0
M  V30 240 H 24.3295 0.128637 5.48749 0
M  V30 241 H 24.5905 -1.11758 4.27741 0
M  V30 242 N 23.6496 -1.47581 0.552962 0
M  V30 243 C 24.5796 -2.32762 -0.185451 0
M  V30 244 C 25.5606 -1.43527 -0.912905 0
M  V30 245 O 26.7456 -1.72388 -0.894201 0
M  V30 246 C 23.8756 -3.25219 -1.21859 0
M  V30 247 C 22.8296 -4.23661 -0.607864 0
M  V30 248 C 22.1556 -5.05413 -1.74533 0
M  V30 249 C 23.4556 -5.20481 0.435582 0
M  V30 250 H 25.1496 -2.94749 0.525684 0
M  V30 251 H 22.6956 -1.41738 0.254251 0
M  V30 252 H 24.6486 -3.8365 -1.7433 0
M  V30 253 H 23.3726 -2.61279 -1.95961 0
M  V30 254 H 22.0316 -3.66451 -0.104489 0
M  V30 255 H 21.6796 -4.3788 -2.47529 0
M  V30 256 H 21.3796 -5.72059 -1.34249 0
M  V30 257 H 22.9036 -5.66701 -2.27338 0
M  V30 258 H 24.3176 -5.733 -0.00290157 0
M  V30 259 H 22.7146 -5.95305 0.757067 0
M  V30 260 H 23.7846 -4.66217 1.33303 0
M  V30 261 N 25.1277 -0.289203 -1.54924 0
M  V30 262 C 26.0607 0.633823 -2.19221 0
M  V30 263 C 27.0387 1.14174 -1.15772 0
M  V30 264 O 28.2227 1.21211 -1.44361 0
M  V30 265 C 25.3497 1.86592 -2.82668 0
M  V30 266 C 24.3957 1.49227 -3.99542 0
M  V30 267 S 25.2287 0.558312 -5.32582 0
M  V30 268 C 26.3847 1.79847 -5.99505 0
M  V30 269 H 26.6177 0.0875416 -2.97171 0
M  V30 270 H 24.1507 -0.0733899 -1.54225 0
M  V30 271 H 26.1087 2.57305 -3.19851 0
M  V30 272 H 24.7697 2.38335 -2.04585 0
M  V30 273 H 23.9627 2.40945 -4.42676 0
M  V30 274 H 23.5647 0.865193 -3.63855 0
M  V30 275 H 25.8567 2.7406 -6.19595 0
M  V30 276 H 26.7997 1.4099 -6.93922 0
M  V30 277 H 27.2077 1.96982 -5.29016 0
M  V30 278 N 26.6058 1.57591 -0.0167156 0
M  V30 279 C 27.8308 1.9598 0.67872 0
M  V30 280 C 28.2558 0.892546 1.65575 0
M  V30 281 O 27.6138 -0.147772 1.80697 0
M  V30 282 C 27.6618 3.33468 1.37227 0
M  V30 283 O 26.7658 3.28954 2.48722 0
M  V30 284 H 26.1068 0.639339 0.17928 0
M  V30 285 H 28.6368 2.04463 -0.0748802 0
M  V30 286 H 28.6468 3.69417 1.7319 0
M  V30 287 H 27.3218 4.10694 0.656007 0
M  V30 288 H 25.8988 3.04705 2.14963 0
M  V30 289 N 28.0839 -0.256276 1.55502 0
M  V30 290 C 29.0469 -1.30047 1.88734 0
M  V30 291 C 30.0469 -1.4154 0.763086 0
M  V30 292 O 31.2369 -1.40403 1.03115 0
M  V30 293 C 28.3689 -2.67953 2.10747 0
M  V30 294 H 29.5619 -1.01802 2.82093 0
M  V30 295 H 27.1149 -0.495134 1.4825 0
M  V30 296 H 27.8499 -3.01351 1.19825 0
M  V30 297 H 27.6349 -2.60993 2.92617 0
M  V30 298 H 29.1249 -3.43368 2.37673 0
M  V30 299 N 29.562 -1.4872 -0.521534 0
M  V30 300 C 30.494 -1.59968 -1.64143 0
M  V30 301 C 31.507 -0.483463 -1.55456 0
M  V30 302 O 32.696 -0.75467 -1.61762 0
M  V30 303 C 29.796 -1.52127 -3.02838 0
M  V30 304 C 28.969 -2.78932 -3.36921 0
M  V30 305 C 28.028 -2.64428 -4.54933 0
M  V30 306 O 27.054 -3.38331 -4.57735 0
M  V30 307 N 28.256 -1.74606 -5.53618 0
M  V30 308 H 31.021 -2.56548 -1.54929 0
M  V30 309 H 28.582 -1.45551 -0.708988 0
M  V30 310 H 30.574 -1.40106 -3.79674 0
M  V30 311 H 29.144 -0.634868 -3.06085 0
M  V30 312 H 28.364 -3.05455 -2.4918 0
M  V30 313 H 29.652 -3.63041 -3.56481 0
M  V30 314 H 29.05 -1.13782 -5.54139 0
M  V30 315 H 27.607 -1.6852 -6.29638 0
M  V30 316 N 31.0401 0.771051 -1.3745 0
M  V30 317 C 31.9501 1.91538 -1.35464 0
M  V30 318 C 32.9661 1.72134 -0.254123 0
M  V30 319 O 34.1421 1.95358 -0.489626 0
M  V30 320 C 31.2071 3.26671 -1.16134 0
M  V30 321 C 30.2681 3.58723 -2.35831 0
M  V30 322 C 29.5011 4.87409 -2.17413 0
M  V30 323 O 29.7241 5.58506 -1.15876 0
M  V30 324 O 28.6581 5.18539 -3.05615 0
M  V30 325 H 32.4841 1.96165 -2.31847 0
M  V30 326 H 30.0691 0.9139 -1.18187 0
M  V30 327 H 31.9511 4.07499 -1.07345 0
M  V30 328 H 30.6261 3.22894 -0.228251 0
M  V30 329 H 29.5331 2.78127 -2.50192 0
M  V30 330 H 30.8661 3.67243 -3.27709 0
M  V30 331 N 32.5182 1.22032 0.997298 0
M  V30 332 C 33.7432 1.06921 1.77715 0
M  V30 333 C 34.1682 -0.376226 1.84299 0
M  V30 334 O 33.5262 -1.27165 1.29223 0
M  V30 335 C 33.5742 1.67996 3.19076 0
M  V30 336 O 32.6782 0.930653 4.01762 0
M  V30 337 H 32.0192 0.375814 0.547412 0
M  V30 338 H 34.5492 1.61737 1.25309 0
M  V30 339 H 34.5592 1.72538 3.69723 0
M  V30 340 H 33.2342 2.73182 3.13599 0
M  V30 341 H 31.8112 0.960917 3.60307 0
M  V30 342 N 33.9963 -1.19345 1.0293 0
M  V30 343 C 35.2423 -1.89585 0.736824 0
M  V30 344 C 35.5973 -1.78148 -0.726703 0
M  V30 345 O 34.8903 -1.16332 -1.52242 0
M  V30 346 C 35.0843 -3.39292 1.12319 0
M  V30 347 C 34.9133 -3.65298 2.62273 0
M  V30 348 C 33.6833 -3.83304 3.29251 0
M  V30 349 C 35.8813 -3.6682 3.60482 0
M  V30 350 N 33.8633 -3.96944 4.68304 0
M  V30 351 C 35.2343 -3.86037 4.85155 0
M  V30 352 C 37.2893 -3.49848 3.54275 0
M  V30 353 C 35.9923 -3.9004 6.04369 0
M  V30 354 C 38.0183 -3.55129 4.72903 0
M  V30 355 C 37.3803 -3.74831 5.9639 0
M  V30 356 H 33.4793 -0.712856 0.321497 0
M  V30 357 H 36.0633 -1.43427 1.31669 0
M  V30 358 H 34.2343 -3.84172 0.571524 0
M  V30 359 H 35.9663 -3.97055 0.78292 0
M  V30 360 H 32.7213 -3.82211 2.79663 0
M  V30 361 H 33.1453 -4.07613 5.40538 0
M  V30 362 H 37.7873 -3.33572 2.59788 0
M  V30 363 H 35.5053 -4.05108 6.99223 0
M  V30 364 H 39.0913 -3.43287 4.69729 0
M  V30 365 H 37.9713 -3.78792 6.86649 0
M  V30 366 N 35.4744 -0.807222 -1.35358 0
M  V30 367 C 36.4374 -0.223665 -2.28106 0
M  V30 368 C 37.4374 0.589354 -1.4961 0
M  V30 369 O 38.6274 0.407745 -1.69361 0
M  V30 370 C 35.7594 0.688149 -3.33882 0
M  V30 371 H 36.9524 -1.04169 -2.81227 0
M  V30 372 H 34.5054 -0.577921 -1.45223 0
M  V30 373 H 35.2404 1.52984 -2.85948 0
M  V30 374 H 35.0254 0.10687 -3.91954 0
M  V30 375 H 36.5154 1.09075 -4.03104 0
M  V30 376 N 36.9525 1.47285 -0.560781 0
M  V30 377 C 38.2015 2.01668 -0.035895 0
M  V30 378 C 38.5145 1.44021 1.32353 0
M  V30 379 O 39.7205 1.90088 1.93853 0
M  V30 380 C 38.1765 3.59897 -0.0136659 0
M  V30 381 C 37.7845 4.26536 -1.37006 0
M  V30 382 C 39.5285 4.22017 0.458425 0
M  V30 383 C 37.4355 5.76782 -1.30675 0
M  V30 384 H 36.3655 0.753938 -0.00964879 0
M  V30 385 H 39.0165 1.69243 -0.709166 0
M  V30 386 H 37.3985 3.89301 0.725325 0
M  V30 387 H 38.5725 4.0877 -2.12705 0
M  V30 388 H 36.8875 3.76419 -1.78038 0
M  V30 389 H 39.4845 5.32124 0.524247 0
M  V30 390 H 39.8275 3.89437 1.4712 0
M  V30 391 H 40.3605 3.97159 -0.225818 0
M  V30 392 H 37.0995 6.13988 -2.29564 0
M  V30 393 H 36.6195 5.96875 -0.591622 0
M  V30 394 H 38.2985 6.39063 -1.01033 0
M  V30 395 N 38.4306 0.297415 1.54768 0
M  V30 396 C 39.3776 -0.580276 2.23386 0
M  V30 397 C 40.3476 -1.13238 1.21517 0
M  V30 398 O 41.5326 -1.17757 1.50126 0
M  V30 399 C 38.6726 -1.74801 2.97555 0
M  V30 400 C 37.7856 -1.22764 4.1419 0
M  V30 401 C 36.9206 -2.35895 4.75949 0
M  V30 402 C 35.9596 -1.80974 5.84735 0
M  V30 403 N 35.0966 -2.87664 6.40464 0
M  V30 404 H 39.9366 0.0114833 2.97998 0
M  V30 405 H 37.4736 0.0174361 1.4709 0
M  V30 406 H 39.4316 -2.43475 3.38786 0
M  V30 407 H 38.0616 -2.31145 2.25326 0
M  V30 408 H 37.1136 -0.433271 3.77924 0
M  V30 409 H 38.4256 -0.785551 4.92575 0
M  V30 410 H 37.5796 -3.12523 5.20014 0
M  V30 411 H 36.3186 -2.83429 3.96887 0
M  V30 412 H 35.3236 -1.02834 5.40097 0
M  V30 413 H 36.5486 -1.34348 6.65678 0
M  V30 414 H 34.4946 -3.34538 5.64287 0
M  V30 415 H 34.4116 -2.4794 7.14186 0
M  V30 416 H 35.6796 -3.642 6.89187 0
M  V30 417 N 39.9087 -1.5758 0.0250728 0
M  V30 418 C 40.8187 -2.1343 -0.973905 0
M  V30 419 C 41.8347 -1.08556 -1.35984 0
M  V30 420 O 43.0107 -1.40592 -1.44207 0
M  V30 421 C 40.0757 -2.64703 -2.23904 0
M  V30 422 C 39.1367 -3.84276 -1.91391 0
M  V30 423 C 38.3697 -4.33095 -3.11873 0
M  V30 424 O 38.5927 -3.81107 -4.24398 0
M  V30 425 O 37.5267 -5.24984 -2.94406 0
M  V30 426 H 41.3527 -2.99057 -0.529036 0
M  V30 427 H 38.9377 -1.48118 -0.195288 0
M  V30 428 H 40.8197 -2.97769 -2.98181 0
M  V30 429 H 39.4947 -1.82161 -2.6758 0
M  V30 430 H 38.4017 -3.56143 -1.14511 0
M  V30 431 H 39.7347 -4.67968 -1.52534 0
M  V30 432 N 41.3868 0.248026 -1.55636 0
M  V30 433 C 42.2968 1.32859 -1.93354 0
M  V30 434 C 43.3128 1.52719 -0.833838 0
M  V30 435 O 44.4888 1.66363 -1.13513 0
M  V30 436 C 41.5538 2.66337 -2.21958 0
M  V30 437 C 40.6148 2.55008 -3.45354 0
M  V30 438 C 39.8478 3.82121 -3.72584 0
M  V30 439 O 40.0708 4.83951 -3.01907 0
M  V30 440 O 39.0048 3.80822 -4.6611 0
M  V30 441 H 42.8308 1.03862 -2.85388 0
M  V30 442 H 40.4158 0.448686 -1.42503 0
M  V30 443 H 42.2978 3.45216 -2.4167 0
M  V30 444 H 40.9728 2.95068 -1.33103 0
M  V30 445 H 39.8798 1.7442 -3.30951 0
M  V30 446 H 41.2128 2.31222 -4.34508 0
M  V30 447 N 42.8649 1.48995 0.513639 0
M  V30 448 C 43.8149 1.61127 1.61314 0
M  V30 449 C 44.7989 0.467521 1.53958 0
M  V30 450 O 45.9909 0.719826 1.61702 0
M  V30 451 C 43.1199 1.66937 2.99978 0
M  V30 452 C 42.2059 2.86847 3.12377 0
M  V30 453 N 42.5969 4.11078 2.94701 0
M  V30 454 C 40.8949 2.84521 3.43459 0
M  V30 455 C 41.5959 4.91615 3.10949 0
M  V30 456 N 40.5719 4.24739 3.3926 0
M  V30 457 H 44.3739 2.54909 1.46282 0
M  V30 458 H 41.8879 1.45593 0.719483 0
M  V30 459 H 43.8849 1.73725 3.78979 0
M  V30 460 H 42.5449 0.742831 3.16089 0
M  V30 461 H 43.5559 4.41258 2.71131 0
M  V30 462 H 40.2329 2.01192 3.65825 0
M  V30 463 H 41.6229 6.00264 3.01882 0
M  V30 464 N 44.343 -0.763751 1.37857 0
M  V30 465 C 45.589 -1.52483 1.33704 0
M  V30 466 C 45.922 -1.94051 -0.0759612 0
M  V30 467 O 45.197 -1.64675 -1.03501 0
M  V30 468 C 45.48 -2.78441 2.28348 0
M  V30 469 C 45.333 -2.43075 3.78463 0
M  V30 470 C 46.652 -3.80415 2.21298 0
M  V30 471 H 43.771 -0.553169 0.487005 0
M  V30 472 H 46.413 -0.875562 1.68624 0
M  V30 473 H 44.563 -3.33842 1.987 0
M  V30 474 H 46.235 -1.93527 4.18742 0
M  V30 475 H 44.478 -1.75666 3.96641 0
M  V30 476 H 45.149 -3.33149 4.40132 0
M  V30 477 H 47.625 -3.34527 2.47449 0
M  V30 478 H 46.501 -4.66257 2.89647 0
M  V30 479 H 46.762 -4.25262 1.20849 0
M  V30 480 N 45.8211 -1.22559 -0.990812 0
M  V30 481 C 47.0701 -1.04553 -1.72486 0
M  V30 482 C 47.3831 0.419349 -1.91052 0
M  V30 483 O 48.5891 0.719121 -2.61803 0
M  V30 484 C 47.0451 -1.82231 -3.10355 0
M  V30 485 C 46.6531 -3.32981 -2.99713 0
M  V30 486 C 48.3971 -1.7268 -3.87791 0
M  V30 487 C 46.3041 -4.03091 -4.32748 0
M  V30 488 H 45.2341 -0.387614 -0.646739 0
M  V30 489 H 47.8851 -1.46429 -1.10593 0
M  V30 490 H 46.2671 -1.33155 -3.72942 0
M  V30 491 H 47.4411 -3.89466 -2.46278 0
M  V30 492 H 45.7561 -3.43231 -2.35758 0
M  V30 493 H 48.3531 -2.22381 -4.86262 0
M  V30 494 H 48.6961 -0.687607 -4.10582 0
M  V30 495 H 49.2291 -2.1931 -3.31885 0
M  V30 496 H 45.9681 -5.07273 -4.15156 0
M  V30 497 H 45.4881 -3.51394 -4.86089 0
M  V30 498 H 47.1671 -4.08804 -5.01486 0
M  V30 499 N 47.2992 1.18797 -1.03562 0
M  V30 500 C 48.5482 1.87978 -0.731235 0
M  V30 501 C 48.8612 1.80911 0.743671 0
M  V30 502 O 50.0672 2.45407 1.16137 0
M  V30 503 C 48.5232 3.3721 -1.25768 0
M  V30 504 C 48.1312 3.52818 -2.76085 0
M  V30 505 C 49.8752 4.11825 -1.0296 0
M  V30 506 C 47.7822 4.9598 -3.22114 0
M  V30 507 H 46.7122 0.704063 -0.269835 0
M  V30 508 H 49.3632 1.34266 -1.25079 0
M  V30 509 H 47.7452 3.90359 -0.666011 0
M  V30 510 H 48.9192 3.09965 -3.40966 0
M  V30 511 H 47.2342 2.91602 -2.97249 0
M  V30 512 H 49.8312 5.17411 -1.34869 0
M  V30 513 H 50.1742 4.16287 0.0333546 0
M  V30 514 H 50.7072 3.64833 -1.58562 0
M  V30 515 H 47.4462 4.96684 -4.27768 0
M  V30 516 H 46.9662 5.39569 -2.61965 0
M  V30 517 H 48.6452 5.6467 -3.15844 0
M  V30 518 N 48.7773 0.814389 1.34928 0
M  V30 519 C 49.7093 0.187834 2.28429 0
M  V30 520 C 50.7223 -0.617374 1.5064 0
M  V30 521 O 51.9113 -0.448454 1.72775 0
M  V30 522 C 49.0113 -0.755962 3.30361 0
M  V30 523 C 48.1843 0.00456686 4.374 0
M  V30 524 C 47.2433 -0.858876 5.19143 0
M  V30 525 O 46.2693 -0.306968 5.68372 0
M  V30 526 N 47.4713 -2.17988 5.38016 0
M  V30 527 H 50.2363 0.991105 2.82838 0
M  V30 528 H 47.7973 0.670561 1.4736 0
M  V30 529 H 49.7893 -1.338 3.81942 0
M  V30 530 H 48.3593 -1.46001 2.7641 0
M  V30 531 H 47.5793 0.767865 3.86649 0
M  V30 532 H 48.8673 0.528422 5.06049 0
M  V30 533 H 48.2653 -2.65212 4.99679 0
M  V30 534 H 46.8223 -2.71098 5.92747 0
M  V30 535 N 50.2554 -1.46986 0.568584 0
M  V30 536 C 51.2184 -2.28624 -0.162366 0
M  V30 537 C 52.2184 -1.37596 -0.832103 0
M  V30 538 O 53.4084 -1.60115 -0.68622 0
M  V30 539 C 50.5404 -3.17596 -1.23878 0
M  V30 540 H 51.7334 -2.94722 0.554899 0
M  V30 541 H 49.2864 -1.52863 0.325976 0
M  V30 542 H 50.0214 -2.56214 -1.98808 0
M  V30 543 H 49.8064 -3.846 -0.763219 0
M  V30 544 H 51.2964 -3.79078 -1.75185 0
M  V30 545 N 51.7335 -0.305618 -1.54608 0
M  V30 546 C 52.6435 0.57778 -2.27374 0
M  V30 547 C 53.6595 1.14451 -1.31061 0
M  V30 548 O 54.8355 1.16831 -1.6405 0
M  V30 549 C 51.9005 1.73123 -3.00382 0
M  V30 550 C 50.9615 1.19812 -4.12242 0
M  V30 551 C 50.1945 2.2966 -4.81759 0
M  V30 552 O 50.4175 3.49651 -4.50666 0
M  V30 553 O 49.3515 1.96091 -5.69062 0
M  V30 554 H 53.1775 -0.012624 -3.03697 0
M  V30 555 H 50.7625 -0.0719184 -1.49227 0
M  V30 556 H 52.6445 2.40315 -3.4616 0
M  V30 557 H 51.3195 2.30815 -2.26949 0
M  V30 558 H 50.2265 0.491798 -3.70853 0
M  V30 559 H 51.5595 0.666566 -4.87666 0
M  V30 560 N 53.2116 1.57565 -0.0334293 0
M  V30 561 C 54.4586 1.91978 0.644272 0
M  V30 562 C 54.7866 0.910231 1.71887 0
M  V30 563 O 54.0416 -0.0801961 1.95536 0
M  V30 564 C 54.3406 3.33112 1.29504 0
M  V30 565 C 54.0066 4.49537 0.350388 0
M  V30 566 C 52.6686 4.81115 0.0903974 0
M  V30 567 C 55.0206 5.20347 -0.298032 0
M  V30 568 C 52.3486 5.8086 -0.825746 0
M  V30 569 C 54.7006 6.2107 -1.20226 0
M  V30 570 C 53.3646 6.51088 -1.4711 0
M  V30 571 H 52.6346 0.702496 0.235756 0
M  V30 572 H 55.2816 1.91259 -0.0961176 0
M  V30 573 H 53.5866 3.30113 2.11028 0
M  V30 574 H 55.2836 3.57011 1.82603 0
M  V30 575 H 51.8736 4.24883 0.563205 0
M  V30 576 H 56.0576 4.96178 -0.110234 0
M  V30 577 H 51.3136 6.02461 -1.04169 0
M  V30 578 H 55.4876 6.75057 -1.71086 0
M  V30 579 H 53.1146 7.28193 -2.18264 0
M  V30 580 N 54.6897 -0.239769 1.55765 0
M  V30 581 C 55.9197 -0.982743 1.8173 0
M  V30 582 C 56.3277 -1.7917 0.607835 0
M  V30 583 O 55.6707 -1.78525 -0.432973 0
M  V30 584 C 55.7327 -1.96332 3.01155 0
M  V30 585 C 55.3967 -1.34062 4.36894 0
M  V30 586 C 56.3937 -0.739539 5.14613 0
M  V30 587 C 54.0787 -1.35784 4.83599 0
M  V30 588 C 56.0727 -0.163989 6.37189 0
M  V30 589 C 53.7597 -0.778441 6.06122 0
M  V30 590 C 54.7577 -0.182548 6.82756 0
M  V30 591 O 54.4457 0.387887 8.02964 0
M  V30 592 H 54.1777 -0.294481 0.608487 0
M  V30 593 H 56.7317 -0.26572 2.03674 0
M  V30 594 H 54.9617 -2.71884 2.74984 0
M  V30 595 H 56.6507 -2.57032 3.14149 0
M  V30 596 H 57.4167 -0.718687 4.79646 0
M  V30 597 H 53.2957 -1.81105 4.23936 0
M  V30 598 H 56.8397 0.301753 6.96947 0
M  V30 599 H 52.7367 -0.796645 6.40565 0
M  V30 600 H 53.5047 0.28044 8.18019 0
M  V30 601 N 56.1678 -1.49265 -0.50573 0
M  V30 602 C 57.0978 -1.68495 -1.61653 0
M  V30 603 C 58.0788 -0.53366 -1.61512 0
M  V30 604 O 59.2638 -0.76897 -1.78327 0
M  V30 605 C 56.3938 -1.74709 -3.00157 0
M  V30 606 C 55.3478 -2.89581 -3.15162 0
M  V30 607 C 54.6738 -2.80903 -4.5497 0
M  V30 608 C 55.9738 -4.30578 -2.95634 0
M  V30 609 H 57.6678 -2.61493 -1.45814 0
M  V30 610 H 55.2138 -1.25838 -0.70005 0
M  V30 611 H 57.1668 -1.86748 -3.77761 0
M  V30 612 H 55.8908 -0.783067 -3.17074 0
M  V30 613 H 54.5498 -2.77136 -2.39982 0
M  V30 614 H 54.1978 -1.82419 -4.68756 0
M  V30 615 H 53.8978 -3.57999 -4.65951 0
M  V30 616 H 55.4218 -2.94944 -5.34641 0
M  V30 617 H 56.8358 -4.4373 -3.63011 0
M  V30 618 H 55.2328 -5.0886 -3.18091 0
M  V30 619 H 56.3028 -4.45352 -1.91806 0
M  V30 620 N 57.6459 0.756429 -1.3826 0
M  V30 621 C 58.5939 1.89149 -1.35372 0
M  V30 622 C 59.5879 1.67691 -0.24004 0
M  V30 623 O 60.7939 1.75294 -0.408919 0
M  V30 624 H 57.1689 0.622271 -0.422236 0
M  V30 625 H 59.1399 1.88701 -2.31159 0
M  V30 626 C 57.8889 3.26599 -1.19284 0
M  V30 627 H 57.2119 3.43695 -2.0424 0
M  V30 628 H 58.6519 4.06274 -1.21316 0
M  V30 629 C 57.1109 3.3675 0.100454 0
M  V30 630 O 57.6409 3.86951 1.07851 0
M  V30 631 N 55.8469 2.90179 0.15633 0
M  V30 632 H 55.3939 2.49517 -0.640253 0
M  V30 633 H 55.3519 2.97352 1.02123 0
M  V30 634 N 59.124 1.23083 0.984299 0
M  V30 635 C 60.535 1.05609 1.5396 0
M  V30 636 C 60.886 -0.377793 1.92528 0
M  V30 637 O 60.011 -1.26398 1.75649 0
M  V30 638 C 60.606 1.91087 2.7977 0
M  V30 639 C 59.165 1.77885 3.31713 0
M  V30 640 C 58.312 1.87028 2.04733 0
M  V30 641 H 61.263 1.36802 0.804419 0
M  V30 642 H 61.284 1.43336 3.5247 0
M  V30 643 H 60.796 2.9544 2.51668 0
M  V30 644 H 58.897 0.762995 3.64704 0
M  V30 645 H 59.01 2.61047 4.01735 0
M  V30 646 H 57.374 1.30565 2.18689 0
M  V30 647 H 58.157 2.92929 1.79017 0
M  V30 648 N 60.6021 -1.18246 1.0419 0
M  V30 649 C 61.8791 -1.84121 0.660208 0
M  V30 650 C 62.2591 -1.92778 -0.860221 0
M  V30 651 O 61.6071 -1.45464 -1.76217 0
M  V30 652 C 61.8171 -3.22355 1.33747 0
M  V30 653 C 63.1651 -3.98376 1.46906 0
M  V30 654 O 64.1891 -3.31799 1.29568 0
M  V30 655 O 63.0481 -5.17665 1.75171 0
M  V30 656 H 60.1421 -0.794036 0.231161 0
M  V30 657 H 62.6881 -1.25628 1.14087 0
M  V30 658 H 61.4601 -3.10964 2.37522 0
M  V30 659 H 61.0831 -3.88506 0.845515 0
M  V30 660 N 62.0802 -0.821533 -1.34494 0
M  V30 661 C 63.0122 -0.199946 -2.28326 0
M  V30 662 C 64.0252 0.609377 -1.50965 0
M  V30 663 O 65.2142 0.439285 -1.7301 0
M  V30 664 C 62.3142 0.738431 -3.30757 0
M  V30 665 C 61.4872 -0.0277632 -4.37391 0
M  V30 666 C 60.5462 0.831332 -5.19591 0
M  V30 667 O 59.5722 0.276822 -5.68526 0
M  V30 668 N 60.7742 2.15132 -5.39165 0
M  V30 669 H 63.5392 -1.00609 -2.82308 0
M  V30 670 H 61.1002 -0.678366 -1.47003 0
M  V30 671 H 63.0922 1.31773 -3.82646 0
M  V30 672 H 61.6622 1.44533 -2.7718 0
M  V30 673 H 60.8822 -0.788359 -3.86236 0
M  V30 674 H 62.1702 -0.555251 -5.05761 0
M  V30 675 H 61.5682 2.62559 -5.01078 0
M  V30 676 H 60.1252 2.6795 -5.94177 0
M  V30 677 N 63.5583 1.46682 -0.576371 0
M  V30 678 C 64.7833 2.07304 -0.0630475 0
M  V30 679 C 65.2083 1.42329 1.2298 0
M  V30 680 O 64.5663 0.504865 1.74129 0
M  V30 681 C 64.6143 3.60472 0.095895 0
M  V30 682 O 63.7183 3.95927 1.15394 0
M  V30 683 H 63.0593 0.661288 -0.0599463 0
M  V30 684 H 65.5893 1.88417 -0.797511 0
M  V30 685 H 65.5993 4.06865 0.304071 0
M  V30 686 H 64.2743 4.07157 -0.84828 0
M  V30 687 H 62.8513 3.61252 0.924724 0
M  V30 688 N 65.0364 0.313813 1.54444 0
M  V30 689 C 66.2844 -0.291099 1.99993 0
M  V30 690 C 66.6054 -1.53418 1.20366 0
M  V30 691 O 65.8754 -1.93544 0.302927 0
M  V30 692 H 64.4554 -0.110552 0.738774 0
M  V30 693 H 67.1174 0.428106 1.9014 0
M  V30 694 H 66.2134 -0.554268 3.07139 0
M  V30 695 N 66.5145 -1.57545 0.0417849 0
M  V30 696 C 67.4245 -2.14451 -0.951213 0
M  V30 697 C 68.4405 -1.09992 -1.34825 0
M  V30 698 O 69.6165 -1.42114 -1.42708 0
M  V30 699 C 66.6815 -2.67063 -2.21084 0
M  V30 700 C 65.7425 -3.86284 -1.87304 0
M  V30 701 C 64.9755 -4.36378 -3.07261 0
M  V30 702 O 65.1985 -3.85587 -4.20332 0
M  V30 703 O 64.1325 -5.28077 -2.88822 0
M  V30 704 H 67.9585 -2.99601 -0.497287 0
M  V30 705 H 65.5435 -1.48317 -0.179567 0
M  V30 706 H 67.4255 -3.00914 -2.95006 0
M  V30 707 H 66.1005 -1.84989 -2.65633 0
M  V30 708 H 65.0075 -3.57338 -1.10727 0
M  V30 709 H 66.3405 -4.6956 -1.47562 0
M  V30 710 N 67.9926 0.231505 -1.5589 0
M  V30 711 C 69.2396 0.957352 -1.78441 0
M  V30 712 C 69.5676 1.84726 -0.60882 0
M  V30 713 O 68.8226 1.91416 0.40725 0
M  V30 714 C 69.1216 1.83577 -3.0665 0
M  V30 715 C 68.7876 1.09993 -4.37278 0
M  V30 716 C 67.4496 0.896629 -4.72773 0
M  V30 717 C 69.8016 0.579558 -5.17968 0
M  V30 718 C 67.1296 0.160896 -5.86479 0
M  V30 719 C 69.4816 -0.142783 -6.32439 0
M  V30 720 C 68.1456 -0.357427 -6.66542 0
M  V30 721 H 67.4156 0.35032 -0.65296 0
M  V30 722 H 70.0626 0.226259 -1.90159 0
M  V30 723 H 68.3676 2.63441 -2.90011 0
M  V30 724 H 70.0646 2.39934 -3.21298 0
M  V30 725 H 66.6546 1.26835 -4.09403 0
M  V30 726 H 70.8386 0.724125 -4.90989 0
M  V30 727 H 66.0946 -0.0157293 -6.11398 0
M  V30 728 H 70.2686 -0.553559 -6.94196 0
M  V30 729 H 67.8956 -0.929466 -7.54497 0
M  V30 730 N 69.4707 1.49531 0.497807 0
M  V30 731 C 70.4037 1.61043 1.6168 0
M  V30 732 C 71.3817 0.459386 1.55976 0
M  V30 733 O 72.5657 0.675358 1.75986 0
M  V30 734 C 69.6927 1.56833 3.00202 0
M  V30 735 C 68.7387 2.77173 3.24156 0
M  V30 736 S 69.5717 4.38808 3.06933 0
M  V30 737 C 70.7277 4.37248 4.47845 0
M  V30 738 H 70.9607 2.55702 1.51671 0
M  V30 739 H 68.4937 1.38462 0.683201 0
M  V30 740 H 70.4517 1.55089 3.80076 0
M  V30 741 H 69.1127 0.634561 3.07623 0
M  V30 742 H 68.3057 2.70456 4.25288 0
M  V30 743 H 67.9077 2.76346 2.5201 0
M  V30 744 H 70.1997 4.09164 5.39992 0
M  V30 745 H 71.1427 5.38668 4.59612 0
M  V30 746 H 71.5507 3.67286 4.28674 0
M  V30 747 N 70.9488 -0.749086 1.3866 0
M  V30 748 C 72.1958 -1.50833 1.35114 0
M  V30 749 C 72.5238 -1.94415 -0.0574049 0
M  V30 750 O 71.7788 -1.66065 -1.03541 0
M  V30 751 C 72.0778 -2.7712 2.25697 0
M  V30 752 C 71.7438 -2.52477 3.73585 0
M  V30 753 C 70.4058 -2.45466 4.13884 0
M  V30 754 C 72.7578 -2.31066 4.67181 0
M  V30 755 C 70.0858 -2.15064 5.45861 0
M  V30 756 C 72.4378 -2.02183 5.9942 0
M  V30 757 C 71.1018 -1.93631 6.38798 0
M  V30 758 H 70.3718 -0.551936 0.494416 0
M  V30 759 H 73.0188 -0.860979 1.71054 0
M  V30 760 H 71.3238 -3.46528 1.82827 0
M  V30 761 H 73.0208 -3.35096 2.20254 0
M  V30 762 H 69.6108 -2.58807 3.41638 0
M  V30 763 H 73.7948 -2.35459 4.3689 0
M  V30 764 H 69.0508 -2.06954 5.75308 0
M  V30 765 H 73.2248 -1.8462 6.71482 0
M  V30 766 H 70.8518 -1.69839 7.40985 0
M  V30 767 N 72.4269 -1.23603 -0.977757 0
M  V30 768 C 73.7039 -0.977897 -1.69401 0
M  V30 769 C 74.0839 0.502738 -2.05026 0
M  V30 770 O 73.4319 1.47459 -1.74551 0
M  V30 771 C 73.6419 -1.89077 -2.93345 0
M  V30 772 C 74.9899 -2.15579 -3.65802 0
M  V30 773 O 76.0139 -1.86648 -3.03383 0
M  V30 774 O 74.8729 -2.64658 -4.78141 0
M  V30 775 H 71.9669 -0.369025 -0.740101 0
M  V30 776 H 74.5129 -1.34657 -1.03274 0
M  V30 777 H 73.2849 -2.89158 -2.63634 0
M  V30 778 H 72.9079 -1.52463 -3.67207 0
M  V30 779 N 73.905 1.17692 -1.04816 0
M  V30 780 C 75.152 1.87859 -0.75599 0
M  V30 781 C 75.48 1.80812 0.716752 0
M  V30 782 O 74.735 1.20819 1.53952 0
M  V30 783 C 75.034 3.37462 -1.17703 0
M  V30 784 C 74.7 3.64713 -2.65133 0
M  V30 785 C 73.362 3.71859 -3.05408 0
M  V30 786 C 75.714 3.76492 -3.60421 0
M  V30 787 C 73.042 3.88271 -4.39843 0
M  V30 788 C 75.394 3.94421 -4.94585 0
M  V30 789 C 74.058 3.99806 -5.3452 0
M  V30 790 H 73.328 0.687425 -0.276636 0
M  V30 791 H 75.975 1.39255 -1.31455 0
M  V30 792 H 74.28 3.88097 -0.537395 0
M  V30 793 H 75.977 3.90109 -0.928218 0
M  V30 794 H 72.567 3.59772 -2.32942 0
M  V30 795 H 76.751 3.70295 -3.30447 0
M  V30 796 H 72.007 3.90687 -4.70291 0
M  V30 797 H 76.181 4.02477 -5.68318 0
M  V30 798 H 73.808 4.12276 -6.38696 0
M  V30 799 N 75.3831 0.828654 1.34056 0
M  V30 800 C 76.6601 0.341809 1.9259 0
M  V30 801 C 77.0401 -1.17158 1.75605 0
M  V30 802 O 76.3881 -1.98132 1.13824 0
M  V30 803 C 76.5981 0.777453 3.4023 0
M  V30 804 C 77.9461 0.779579 4.17382 0
M  V30 805 O 78.9701 0.7204 3.48839 0
M  V30 806 O 77.8291 0.857996 5.39723 0
M  V30 807 H 74.9231 0.0946085 0.821571 0
M  V30 808 H 77.4691 0.913827 1.42994 0
M  V30 809 H 76.2411 1.8196 3.46419 0
M  V30 810 H 75.8641 0.181444 3.97186 0
M  V30 811 N 76.8612 -1.46375 0.584142 0
M  V30 812 C 78.1092 -2.01978 0.0701287 0
M  V30 813 C 78.4302 -1.4579 -1.295 0
M  V30 814 O 77.7002 -0.64314 -1.85042 0
M  V30 815 H 76.2802 -0.746648 0.0229345 0
M  V30 816 H 78.9422 -1.79461 0.760245 0
M  V30 817 H 78.0382 -3.121 0.0022064 0
M  V30 818 N 78.3393 -0.321999 -1.54275 0
M  V30 819 C 79.6163 0.335232 -1.92706 0
M  V30 820 C 79.9963 1.70006 -1.25145 0
M  V30 821 O 79.3443 2.25067 -0.394596 0
M  V30 822 C 79.5543 0.429008 -3.46353 0
M  V30 823 C 80.9023 0.690029 -4.18956 0
M  V30 824 O 81.9263 0.511992 -3.52501 0
M  V30 825 O 80.7853 1.03338 -5.36641 0
M  V30 826 H 77.8793 0.191143 -0.804608 0
M  V30 827 H 80.4253 -0.3716 -1.65581 0
M  V30 828 H 79.1973 -0.529611 -3.87699 0
M  V30 829 H 78.8203 1.18348 -3.79578 0
M  V30 830 N 79.8174 1.5752 -0.0501392 0
M  V30 831 C 80.7274 2.14952 0.939827 0
M  V30 832 C 81.7434 1.10706 1.34239 0
M  V30 833 O 82.9194 1.42869 1.41952 0
M  V30 834 C 79.9844 2.68232 2.19665 0
M  V30 835 C 79.0454 3.87272 1.85253 0
M  V30 836 C 78.2784 4.38002 3.04943 0
M  V30 837 O 78.5014 3.87811 4.18281 0
M  V30 838 O 77.4354 5.29602 2.86017 0
M  V30 839 H 81.2614 2.9986 0.481392 0
M  V30 840 H 78.8464 1.4841 0.171699 0
M  V30 841 H 80.7284 3.02475 2.93406 0
M  V30 842 H 79.4034 1.86395 2.64648 0
M  V30 843 H 78.3104 3.5792 1.0883 0
M  V30 844 H 79.6434 4.70336 1.4507 0
M  V30 845 N 81.2955 -0.223234 1.56011 0
M  V30 846 C 82.5445 -0.945912 1.78144 0
M  V30 847 C 82.8575 -1.85567 0.618396 0
M  V30 848 O 84.0635 -2.61688 0.723318 0
M  V30 849 C 82.5195 -1.73216 3.15475 0
M  V30 850 C 82.1275 -0.868619 4.39499 0
M  V30 851 C 83.8715 -2.44615 3.46935 0
M  V30 852 C 81.7785 -1.65212 5.67855 0
M  V30 853 H 80.7085 -0.356929 0.664167 0
M  V30 854 H 83.3595 -0.199845 1.82409 0
M  V30 855 H 81.7415 -2.52107 3.05382 0
M  V30 856 H 82.9155 -0.120366 4.60643 0
M  V30 857 H 81.2305 -0.26683 4.15544 0
M  V30 858 H 83.8275 -3.03732 4.40058 0
M  V30 859 H 84.1705 -3.17417 2.69355 0
M  V30 860 H 84.7035 -1.72715 3.58349 0
M  V30 861 H 81.4425 -0.967407 6.48322 0
M  V30 862 H 80.9625 -2.37503 5.50774 0
M  V30 863 H 82.6415 -2.21322 6.07968 0
M  V30 864 N 82.7736 -1.49793 -0.48987 0
M  V30 865 C 84.0206 -1.59841 -1.24327 0
M  V30 866 C 84.3486 -0.290135 -1.92324 0
M  V30 867 O 83.6036 0.722749 -1.81865 0
M  V30 868 C 83.9026 -2.71488 -2.32441 0
M  V30 869 C 83.5686 -4.12614 -1.81826 0
M  V30 870 C 82.2306 -4.51017 -1.67742 0
M  V30 871 C 84.5826 -5.00892 -1.4407 0
M  V30 872 C 81.9106 -5.75459 -1.14297 0
M  V30 873 C 84.2626 -6.25863 -0.920742 0
M  V30 874 C 82.9266 -6.63086 -0.766383 0
M  V30 875 H 82.1966 -0.584899 -0.454944 0
M  V30 876 H 84.8436 -1.83663 -0.542215 0
M  V30 877 H 83.1486 -2.4168 -3.0838 0
M  V30 878 H 84.8456 -2.76469 -2.90458 0
M  V30 879 H 81.4356 -3.82307 -1.93751 0
M  V30 880 H 85.6196 -4.7187 -1.53794 0
M  V30 881 H 80.8756 -6.02989 -1.01068 0
M  V30 882 H 85.0496 -6.9364 -0.619448 0
M  V30 883 H 82.6766 -7.59393 -0.350083 0
M  V30 884 N 84.2517 0.741722 -1.39055 0
M  V30 885 C 85.2017 1.84661 -1.33732 0
M  V30 886 C 86.1857 1.59397 -0.219401 0
M  V30 887 O 87.3777 1.71015 -0.456375 0
M  V30 888 C 84.5067 3.22512 -1.17647 0
M  V30 889 C 83.5927 3.53628 -2.34112 0
M  V30 890 N 83.9837 3.55723 -3.59576 0
M  V30 891 C 82.2817 3.83956 -2.26923 0
M  V30 892 C 82.9827 3.84443 -4.36553 0
M  V30 893 N 81.9587 4.01877 -3.66055 0
M  V30 894 H 85.7607 1.84576 -2.28711 0
M  V30 895 H 83.2747 0.939647 -1.32455 0
M  V30 896 H 85.2717 4.01597 -1.11917 0
M  V30 897 H 83.9317 3.2384 -0.236124 0
M  V30 898 H 84.9427 3.37196 -3.93089 0
M  V30 899 H 81.6197 3.92929 -1.41113 0
M  V30 900 H 83.0097 3.92588 -5.45274 0
M  V30 901 N 85.7298 1.2412 0.971189 0
M  V30 902 C 86.9758 1.08041 1.71625 0
M  V30 903 C 87.3088 -0.380407 1.90438 0
M  V30 904 O 86.5838 -1.28127 1.46334 0
M  V30 905 C 86.8668 1.81682 3.10908 0
M  V30 906 C 86.7198 3.35493 2.99608 0
M  V30 907 C 88.0388 1.58671 4.10501 0
M  V30 908 H 85.1578 0.39388 0.622919 0
M  V30 909 H 87.7998 1.52743 1.13003 0
M  V30 910 H 85.9498 1.43684 3.60953 0
M  V30 911 H 87.6218 3.83068 2.57015 0
M  V30 912 H 85.8648 3.64052 2.35899 0
M  V30 913 H 86.5358 3.82217 3.98264 0
M  V30 914 H 89.0118 1.91719 3.69301 0
M  V30 915 H 87.8878 2.1266 5.06031 0
M  V30 916 H 88.1488 0.524161 4.38982 0
M  V30 917 N 87.2079 -1.17134 1.05439 0
M  V30 918 C 88.4849 -1.83411 0.679699 0
M  V30 919 C 88.8649 -1.9368 -0.839726 0
M  V30 920 O 88.2129 -1.47325 -1.74664 0
M  V30 921 C 88.4229 -3.20918 1.37159 0
M  V30 922 C 89.7709 -3.96796 1.51123 0
M  V30 923 O 90.7949 -3.30406 1.3308 0
M  V30 924 O 89.6539 -5.15778 1.80651 0
M  V30 925 H 86.7479 -0.79154 0.239569 0
M  V30 926 H 89.2939 -1.24411 1.15413 0
M  V30 927 H 88.0659 -3.08428 2.40807 0
M  V30 928 H 87.6889 -3.87587 0.886674 0
M  V30 929 N 88.686 -0.835752 -1.33615 0
M  V30 930 C 89.619 -0.211815 -2.27215 0
M  V30 931 C 90.597 0.639249 -1.49507 0
M  V30 932 O 91.781 0.600193 -1.78689 0
M  V30 933 C 88.908 0.702893 -3.31326 0
M  V30 934 C 87.954 -0.0723049 -4.26439 0
M  V30 935 S 88.787 -1.42811 -5.16106 0
M  V30 936 C 89.943 -0.518613 -6.23748 0
M  V30 937 H 90.176 -1.00533 -2.79786 0
M  V30 938 H 87.709 -0.632336 -1.40858 0
M  V30 939 H 89.667 1.22505 -3.91794 0
M  V30 940 H 88.328 1.47004 -2.77576 0
M  V30 941 H 87.521 0.62359 -5.00127 0
M  V30 942 H 87.123 -0.525424 -3.70291 0
M  V30 943 H 89.415 0.284778 -6.76901 0
M  V30 944 H 90.358 -1.22556 -6.97413 0
M  V30 945 H 90.766 -0.101344 -5.64409 0
M  V30 946 N 90.1641 1.46063 -0.591896 0
M  V30 947 C 91.1271 2.28854 0.125973 0
M  V30 948 C 92.1271 1.38903 0.810107 0
M  V30 949 O 93.3171 1.61186 0.66066 0
M  V30 950 C 90.4491 3.19526 1.1881 0
M  V30 951 H 91.6421 2.93802 -0.601717 0
M  V30 952 H 89.1951 1.52325 -0.350254 0
M  V30 953 H 89.9301 2.59345 1.94707 0
M  V30 954 H 89.7151 3.85766 0.701936 0
M  V30 955 H 91.2051 3.81817 1.69132 0
M  V30 956 N 91.6422 0.330177 1.54103 0
M  V30 957 C 92.5892 -0.532762 2.24567 0
M  V30 958 C 93.5592 -1.10635 1.23892 0
M  V30 959 O 94.7442 -1.14546 1.5259 0
M  V30 960 C 91.8842 -1.6845 3.01195 0
M  V30 961 C 90.9972 -1.13951 4.167 0
M  V30 962 C 90.1322 -2.25746 4.80845 0
M  V30 963 C 89.1712 -1.6853 5.88442 0
M  V30 964 N 88.3082 -2.74014 6.46421 0
M  V30 965 H 93.1482 0.0746905 2.97906 0
M  V30 966 H 90.6852 0.048632 1.4702 0
M  V30 967 H 92.6432 -2.36234 3.43874 0
M  V30 968 H 91.2732 -2.26314 2.30178 0
M  V30 969 H 90.3252 -0.35301 3.78758 0
M  V30 970 H 91.6372 -0.680892 4.94131 0
M  V30 971 H 90.7912 -3.01422 5.26526 0
M  V30 972 H 89.5302 -2.74947 4.0281 0
M  V30 973 H 88.5352 -0.913543 5.42157 0
M  V30 974 H 89.7602 -1.20198 6.68378 0
M  V30 975 H 87.7062 -3.22494 5.71256 0
M  V30 976 H 87.6232 -2.32735 7.19285 0
M  V30 977 H 88.8912 -3.49499 6.96757 0
M  V30 978 N 93.1203 -1.57491 0.0584922 0
M  V30 979 C 94.0673 -2.11958 -0.913376 0
M  V30 980 C 95.0373 -1.02875 -1.30407 0
M  V30 981 O 96.2223 -1.30464 -1.39226 0
M  V30 982 C 93.3623 -2.67497 -2.18035 0
M  V30 983 C 92.4753 -3.90691 -1.84349 0
M  V30 984 C 91.6103 -4.3452 -3.05559 0
M  V30 985 C 90.6493 -5.50395 -2.67827 0
M  V30 986 N 89.7863 -5.89244 -3.81754 0
M  V30 987 H 94.6263 -2.94704 -0.442017 0
M  V30 988 H 92.1633 -1.45643 -0.206545 0
M  V30 989 H 94.1213 -2.978 -2.92183 0
M  V30 990 H 92.7513 -1.87537 -2.62735 0
M  V30 991 H 91.8033 -3.66934 -1.00319 0
M  V30 992 H 93.1153 -4.7489 -1.5258 0
M  V30 993 H 92.2693 -4.66414 -3.87998 0
M  V30 994 H 91.0083 -3.49147 -3.40511 0
M  V30 995 H 90.0133 -5.18165 -1.83806 0
M  V30 996 H 91.2383 -6.3749 -2.34059 0
M  V30 997 H 89.1843 -5.06823 -4.16493 0
M  V30 998 H 89.1013 -6.68151 -3.53708 0
M  V30 999 H 90.3693 -6.25756 -4.64811 0
M  V30 1000 N 94.5984 0.214957 -1.56127 0
M  V30 1001 C 95.5084 1.28727 -1.96129 0
M  V30 1002 C 96.5244 1.50916 -0.866044 0
M  V30 1003 O 97.7004 1.63918 -1.17016 0
M  V30 1004 C 94.7654 2.61569 -2.27558 0
M  V30 1005 C 93.8264 2.47625 -3.50685 0
M  V30 1006 C 93.0594 3.74132 -3.80606 0
M  V30 1007 O 93.2824 4.77438 -3.12104 0
M  V30 1008 O 92.2164 3.70849 -4.74083 0
M  V30 1009 H 96.0424 0.977855 -2.87527 0
M  V30 1010 H 93.6274 0.418358 -1.43423 0
M  V30 1011 H 95.5094 3.40012 -2.48938 0
M  V30 1012 H 94.1844 2.92178 -1.39332 0
M  V30 1013 H 93.0914 1.67361 -3.34576 0
M  V30 1014 H 94.4244 2.21954 -4.39315 0
M  V30 1015 N 96.0765 1.50051 0.48192 0
M  V30 1016 C 97.3045 1.64237 1.25832 0
M  V30 1017 C 97.7195 0.321336 1.86045 0
M  V30 1018 O 97.0765 -0.695478 1.68729 0
M  V30 1019 C 97.1275 2.72548 2.37487 0
M  V30 1020 O 96.8485 3.99529 1.79745 0
M  V30 1021 C 98.3495 2.9761 3.28547 0
M  V30 1022 H 95.5695 0.55237 0.380957 0
M  V30 1023 H 98.1135 1.96207 0.576467 0
M  V30 1024 H 96.2685 2.43303 3.01467 0
M  V30 1025 H 96.6825 4.59342 2.5319 0
M  V30 1026 H 98.1565 3.77084 4.03127 0
M  V30 1027 H 98.6335 2.0826 3.86684 0
M  V30 1028 H 99.2395 3.28345 2.70314 0
M  V30 1029 N 97.5546 -0.734337 1.39446 0
M  V30 1030 C 98.8006 -1.49613 1.36908 0
M  V30 1031 C 99.1336 -1.94169 -0.0347829 0
M  V30 1032 O 98.4086 -1.66833 -0.999847 0
M  V30 1033 C 98.6916 -2.73534 2.34203 0
M  V30 1034 C 98.5446 -2.34993 3.83534 0
M  V30 1035 C 99.8636 -3.75635 2.29317 0
M  V30 1036 H 96.9826 -0.542714 0.498629 0
M  V30 1037 H 99.6246 -0.839597 1.70443 0
M  V30 1038 H 97.7746 -3.29553 2.05736 0
M  V30 1039 H 99.4466 -1.84601 4.22753 0
M  V30 1040 H 97.6896 -1.67213 4.00278 0
M  V30 1041 H 98.3606 -3.23738 4.47099 0
M  V30 1042 H 100.837 -3.29203 2.54489 0
M  V30 1043 H 99.7126 -4.60008 2.99472 0
M  V30 1044 H 99.9736 -4.22603 1.29842 0
M  V30 1045 N 99.0327 -1.24633 -0.964593 0
M  V30 1046 C 100.279 -1.09957 -1.71117 0
M  V30 1047 C 100.634 0.357422 -1.89051 0
M  V30 1048 O 99.9267 1.26029 -1.44317 0
M  V30 1049 C 100.121 -1.7763 -3.10133 0
M  V30 1050 C 99.9497 -3.29759 -3.05759 0
M  V30 1051 C 98.7197 -3.98981 -3.10068 0
M  V30 1052 C 100.918 -4.26305 -2.87695 0
M  V30 1053 N 98.8997 -5.37966 -2.95747 0
M  V30 1054 C 100.271 -5.52308 -2.81702 0
M  V30 1055 C 102.326 -4.16842 -2.72299 0
M  V30 1056 C 101.029 -6.69931 -2.61887 0
M  V30 1057 C 103.055 -5.34147 -2.53853 0
M  V30 1058 C 102.417 -6.59084 -2.48572 0
M  V30 1059 H 98.5157 -0.457003 -0.634564 0
M  V30 1060 H 101.1 -1.57592 -1.14337 0
M  V30 1061 H 99.2707 -1.32504 -3.65099 0
M  V30 1062 H 101.003 -1.55786 -3.73514 0
M  V30 1063 H 97.7577 -3.50169 -3.18871 0
M  V30 1064 H 98.1817 -6.10877 -2.91818 0
M  V30 1065 H 102.824 -3.21007 -2.75163 0
M  V30 1066 H 100.542 -7.65886 -2.57767 0
M  V30 1067 H 104.128 -5.28678 -2.4288 0
M  V30 1068 H 103.008 -7.48324 -2.34481 0
M  V30 1069 N 100.511 1.16574 -1.06058 0
M  V30 1070 C 101.927 1.3904 -0.783585 0
M  V30 1071 C 102.127 1.91784 0.618145 0
M  V30 1072 O 101.183 2.11511 1.37911 0
M  V30 1073 C 102.496 2.37329 -1.84649 0
M  V30 1074 C 104.044 2.51018 -1.86973 0
M  V30 1075 C 104.519 3.52588 -2.92311 0
M  V30 1076 N 106.01 3.60113 -2.91329 0
M  V30 1077 C 106.745 4.38486 -3.69482 0
M  V30 1078 N 106.241 5.20302 -4.57447 0
M  V30 1079 N 108.034 4.33446 -3.57885 0
M  V30 1080 H 100.185 0.806725 -1.96483 0
M  V30 1081 H 102.448 0.417117 -0.851303 0
M  V30 1082 H 102.154 2.05663 -2.85299 0
M  V30 1083 H 102.028 3.36946 -1.6955 0
M  V30 1084 H 104.415 2.81989 -0.869827 0
M  V30 1085 H 104.496 1.51445 -2.0615 0
M  V30 1086 H 104.14 3.22354 -3.92492 0
M  V30 1087 H 104.07 4.51886 -2.70383 0
M  V30 1088 H 106.561 3.01707 -2.27555 0
M  V30 1089 H 106.874 5.77311 -5.13743 0
M  V30 1090 H 105.219 5.19653 -4.61503 0
M  V30 1091 H 108.41 3.68586 -2.88551 0
M  V30 1092 H 108.583 4.94279 -4.19037 0
M  V30 1093 N 101.989 0.842826 1.3317 0
M  V30 1094 C 102.919 0.294028 2.31641 0
M  V30 1095 C 103.9 -0.600401 1.59151 0
M  V30 1096 O 105.085 -0.523124 1.87022 0
M  V30 1097 C 102.215 -0.528416 3.43257 0
M  V30 1098 C 101.169 0.27056 4.27144 0
M  V30 1099 C 100.495 -0.675881 5.30411 0
M  V30 1100 C 101.795 1.48981 5.00602 0
M  V30 1101 H 103.489 1.11681 2.77791 0
M  V30 1102 H 101.035 0.538478 1.33553 0
M  V30 1103 H 102.988 -0.922674 4.11175 0
M  V30 1104 H 101.712 -1.38445 2.95805 0
M  V30 1105 H 100.371 0.646427 3.60856 0
M  V30 1106 H 100.019 -1.52842 4.79216 0
M  V30 1107 H 99.7189 -0.145374 5.8742 0
M  V30 1108 H 101.243 -1.06757 6.01195 0
M  V30 1109 H 102.657 1.16849 5.61266 0
M  V30 1110 H 101.054 1.95739 5.6728 0
M  V30 1111 H 102.124 2.25746 4.29147 0
M  V30 1112 N 103.467 -1.45747 0.599634 0
M  V30 1113 C 104.377 -2.34262 -0.125888 0
M  V30 1114 C 105.393 -1.50768 -0.868625 0
M  V30 1115 O 106.569 -1.83592 -0.828003 0
M  V30 1116 C 103.634 -3.28252 -1.11587 0
M  V30 1117 C 102.695 -4.27651 -0.375956 0
M  V30 1118 C 101.928 -5.1715 -1.31877 0
M  V30 1119 O 102.151 -5.09916 -2.55621 0
M  V30 1120 O 101.085 -5.96286 -0.820157 0
M  V30 1121 H 104.911 -2.97688 0.601315 0
M  V30 1122 H 102.496 -1.44999 0.359934 0
M  V30 1123 H 104.378 -3.86191 -1.68626 0
M  V30 1124 H 103.053 -2.67401 -1.82424 0
M  V30 1125 H 101.96 -3.7335 0.236698 0
M  V30 1126 H 103.293 -4.91334 0.29177 0
M  V30 1127 N 104.945 -0.338344 -1.53925 0
M  V30 1128 C 105.855 0.529421 -2.28548 0
M  V30 1129 C 106.871 1.11645 -1.3346 0
M  V30 1130 O 108.047 1.13325 -1.66492 0
M  V30 1131 C 105.112 1.66713 -3.03987 0
M  V30 1132 C 104.173 1.11041 -4.14691 0
M  V30 1133 C 103.406 2.19389 -4.86522 0
M  V30 1134 O 103.629 3.40013 -4.57982 0
M  V30 1135 O 102.563 1.83976 -5.73094 0
M  V30 1136 H 106.389 -0.0770399 -3.03602 0
M  V30 1137 H 103.974 -0.103555 -1.49041 0
M  V30 1138 H 105.856 2.32918 -3.5118 0
M  V30 1139 H 104.531 2.25949 -2.31794 0
M  V30 1140 H 103.438 0.413024 -3.71813 0
M  V30 1141 H 104.771 0.562975 -4.8897 0
M  V30 1142 N 106.423 1.57458 -0.0668435 0
M  V30 1143 C 107.67 1.93301 0.603406 0
M  V30 1144 C 107.998 0.946486 1.69917 0
M  V30 1145 O 107.253 -0.0387021 1.95662 0
M  V30 1146 C 107.552 3.35784 1.22409 0
M  V30 1147 C 107.218 4.50179 0.254955 0
M  V30 1148 C 105.88 4.81199 -0.0116746 0
M  V30 1149 C 108.232 5.19598 -0.408338 0
M  V30 1150 C 105.56 5.78978 -0.94877 0
M  V30 1151 C 107.912 6.18381 -1.33372 0
M  V30 1152 C 106.576 6.47821 -1.60887 0
M  V30 1153 H 105.846 0.707338 0.220802 0
M  V30 1154 H 108.493 1.91012 -0.136665 0
M  V30 1155 H 106.798 3.34515 2.03978 0
M  V30 1156 H 108.495 3.60804 1.74989 0
M  V30 1157 H 105.085 4.25983 0.472954 0
M  V30 1158 H 109.269 4.95832 -0.215456 0
M  V30 1159 H 104.525 6.00115 -1.16925 0
M  V30 1160 H 108.699 6.71277 -1.85367 0
M  V30 1161 H 106.326 7.23399 -2.33661 0
M  V30 1162 N 107.901 -0.206675 1.56239 0
M  V30 1163 C 109.149 -0.927007 1.79586 0
M  V30 1164 C 109.47 -1.8427 0.637929 0
M  V30 1165 O 108.74 -1.92849 -0.344398 0
M  V30 1166 H 107.32 -0.345292 0.662407 0
M  V30 1167 H 109.982 -0.21496 1.93711 0
M  V30 1168 H 109.078 -1.52501 2.72305 0
M  V30 1169 N 109.379 -1.50304 -0.473955 0
M  V30 1170 C 110.795 -1.37667 -0.807466 0
M  V30 1171 C 110.995 -0.430555 -1.96846 0
M  V30 1172 O 110.051 0.127874 -2.52176 0
M  V30 1173 C 111.364 -2.78974 -1.12223 0
M  V30 1174 C 112.912 -2.87868 -1.22885 0
M  V30 1175 C 113.387 -4.30003 -1.57676 0
M  V30 1176 N 114.878 -4.3294 -1.64673 0
M  V30 1177 C 115.613 -5.3991 -1.93091 0
M  V30 1178 N 115.109 -6.57092 -2.1955 0
M  V30 1179 N 116.902 -5.27351 -1.94569 0
M  V30 1180 H 109.053 -2.10394 0.291212 0
M  V30 1181 H 111.316 -0.945575 0.0677609 0
M  V30 1182 H 111.022 -3.50031 -0.342229 0
M  V30 1183 H 110.896 -3.16038 -2.05913 0
M  V30 1184 H 113.283 -2.17032 -1.99953 0
M  V30 1185 H 113.364 -2.54352 -0.271814 0
M  V30 1186 H 113.008 -5.01375 -0.81149 0
M  V30 1187 H 112.938 -4.61004 -2.54525 0
M  V30 1188 H 115.429 -3.48441 -1.46277 0
M  V30 1189 H 115.742 -7.34425 -2.405 0
M  V30 1190 H 114.087 -6.60272 -2.16948 0
M  V30 1191 H 117.278 -4.34801 -1.73394 0
M  V30 1192 H 117.451 -6.10805 -2.16381 0
M  V30 1193 N 110.857 0.726932 -1.39834 0
M  V30 1194 C 112.104 1.48664 -1.37496 0
M  V30 1195 C 112.432 1.94482 0.0264678 0
M  V30 1196 O 111.687 1.67692 1.00886 0
M  V30 1197 C 111.986 2.73495 -2.30077 0
M  V30 1198 C 111.652 2.46502 -3.77555 0
M  V30 1199 C 110.314 2.3885 -4.17737 0
M  V30 1200 C 112.666 2.23604 -4.70798 0
M  V30 1201 C 109.994 2.06352 -5.49214 0
M  V30 1202 C 112.346 1.92622 -6.02561 0
M  V30 1203 C 111.01 1.83444 -6.41798 0
M  V30 1204 H 110.28 0.544001 -0.503135 0
M  V30 1205 H 112.927 0.833657 -1.72402 0
M  V30 1206 H 111.232 3.43575 -1.88317 0
M  V30 1207 H 112.929 3.31549 -2.25558 0
M  V30 1208 H 109.519 2.5334 -3.45712 0
M  V30 1209 H 113.703 2.28479 -4.40581 0
M  V30 1210 H 108.959 1.97776 -5.78528 0
M  V30 1211 H 113.133 1.73914 -6.74334 0
M  V30 1212 H 110.76 1.58029 -7.43593 0
M  V30 1213 N 112.336 1.25143 0.95797 0
M  V30 1214 C 113.299 1.05321 2.03569 0
M  V30 1215 C 114.299 0.007152 1.60798 0
M  V30 1216 O 115.489 0.24903 1.72411 0
M  V30 1217 C 112.621 0.598394 3.35607 0
M  V30 1218 H 113.814 2.00986 2.22586 0
M  V30 1219 H 111.367 1.07502 1.13459 0
M  V30 1220 H 112.102 -0.361014 3.22284 0
M  V30 1221 H 111.887 1.35351 3.67998 0
M  V30 1222 H 113.377 0.48104 4.1482 0
M  V30 1223 N 113.814 -1.1601 1.06675 0
M  V30 1224 C 115.039 -1.91068 0.806706 0
M  V30 1225 C 115.464 -1.77112 -0.633485 0
M  V30 1226 O 114.822 -1.09908 -1.44187 0
M  V30 1227 C 114.87 -3.39655 1.21106 0
M  V30 1228 O 113.974 -4.10893 0.352189 0
M  V30 1229 H 113.315 -0.595125 0.294486 0
M  V30 1230 H 115.845 -1.46955 1.42356 0
M  V30 1231 H 115.855 -3.90434 1.18428 0
M  V30 1232 H 114.53 -3.49132 2.26008 0
M  V30 1233 H 113.107 -3.70285 0.440868 0
M  V30 1234 N 115.292 -0.849877 -1.32721 0
M  V30 1235 C 116.539 -0.450923 -1.97416 0
M  V30 1236 C 116.867 0.992376 -1.67279 0
M  V30 1237 O 116.122 1.71048 -0.950845 0
M  V30 1238 C 116.421 -0.631272 -3.51781 0
M  V30 1239 C 116.087 -2.04432 -4.01894 0
M  V30 1240 C 114.749 -2.4308 -4.1529 0
M  V30 1241 C 117.101 -2.96679 -4.28522 0
M  V30 1242 C 114.429 -3.73257 -4.52654 0
M  V30 1243 C 116.781 -4.26349 -4.67343 0
M  V30 1244 C 115.445 -4.64939 -4.78945 0
M  V30 1245 H 114.715 -0.165004 -0.722395 0
M  V30 1246 H 117.362 -1.07901 -1.58207 0
M  V30 1247 H 115.667 0.0800767 -3.91718 0
M  V30 1248 H 117.364 -0.302709 -3.99856 0
M  V30 1249 H 113.954 -1.73419 -3.91949 0
M  V30 1250 H 118.138 -2.68054 -4.17685 0
M  V30 1251 H 113.394 -4.02946 -4.59831 0
M  V30 1252 H 117.568 -4.97895 -4.86902 0
M  V30 1253 H 115.195 -5.65855 -5.07654 0
M  V30 1254 N 116.77 1.45427 -0.607355 0
M  V30 1255 C 117.68 2.34325 0.113463 0
M  V30 1256 C 118.696 1.51226 0.860617 0
M  V30 1257 O 119.872 1.84029 0.818255 0
M  V30 1258 C 116.937 3.28839 1.09844 0
M  V30 1259 C 115.998 4.27844 0.353271 0
M  V30 1260 C 115.231 5.17842 1.29133 0
M  V30 1261 O 115.454 5.11264 2.52913 0
M  V30 1262 O 114.388 5.96713 0.788523 0
M  V30 1263 H 118.214 2.97364 -0.617094 0
M  V30 1264 H 115.799 1.44807 -0.367619 0
M  V30 1265 H 117.681 3.8708 1.66575 0
M  V30 1266 H 116.356 2.68365 1.81003 0
M  V30 1267 H 115.263 3.7322 -0.256494 0
M  V30 1268 H 116.596 4.91173 -0.317822 0
M  V30 1269 N 118.248 0.346503 1.53744 0
M  V30 1270 C 119.211 -0.496439 2.23759 0
M  V30 1271 C 120.211 -1.0252 1.2388 0
M  V30 1272 O 121.401 -0.913974 1.48297 0
M  V30 1273 C 118.533 -1.69187 2.95954 0
M  V30 1274 H 119.726 0.115952 2.99676 0
M  V30 1275 H 117.279 0.0978939 1.55993 0
M  V30 1276 H 118.014 -2.34288 2.24231 0
M  V30 1277 H 117.799 -1.31989 3.69217 0
M  V30 1278 H 119.289 -2.28969 3.49232 0
M  V30 1279 N 119.726 -1.57421 0.075193 0
M  V30 1280 C 120.658 -2.09904 -0.920483 0
M  V30 1281 C 121.671 -1.03191 -1.25918 0
M  V30 1282 O 122.86 -1.30695 -1.21577 0
M  V30 1283 C 119.96 -2.54726 -2.23534 0
M  V30 1284 C 119.133 -3.8505 -2.07498 0
M  V30 1285 C 118.192 -4.15929 -3.22319 0
M  V30 1286 O 117.218 -4.85474 -2.9716 0
M  V30 1287 N 118.42 -3.69745 -4.47514 0
M  V30 1288 H 121.185 -2.95954 -0.472359 0
M  V30 1289 H 118.746 -1.61523 -0.110444 0
M  V30 1290 H 120.738 -2.72443 -2.9926 0
M  V30 1291 H 119.308 -1.73795 -2.59835 0
M  V30 1292 H 118.528 -3.76679 -1.16219 0
M  V30 1293 H 119.816 -4.70348 -1.94038 0
M  V30 1294 H 119.214 -3.13569 -4.7084 0
M  V30 1295 H 117.771 -3.92655 -5.20255 0
M  V30 1296 N 121.204 0.198386 -1.56346 0
M  V30 1297 C 122.452 0.91747 -1.80075 0
M  V30 1298 C 122.773 1.83929 -0.647692 0
M  V30 1299 O 122.043 1.93029 0.334166 0
M  V30 1300 H 120.623 0.341774 -0.664228 0
M  V30 1301 H 123.285 0.204684 -1.93822 0
M  V30 1302 H 122.381 1.51055 -2.7311 0
M  V30 1303 N 122.682 1.50554 0.465978 0
M  V30 1304 C 123.645 1.69233 1.54574 0
M  V30 1305 C 124.645 0.562901 1.50626 0
M  V30 1306 O 125.835 0.830016 1.53155 0
M  V30 1307 C 122.967 1.7223 2.94193 0
M  V30 1308 H 124.16 2.65571 1.39327 0
M  V30 1309 H 121.713 1.40111 0.692711 0
M  V30 1310 H 122.448 0.77603 3.14878 0
M  V30 1311 H 122.233 2.54285 2.98466 0
M  V30 1312 H 123.723 1.88618 3.72576 0
M  V30 1313 N 124.16 -0.719506 1.40217 0
M  V30 1314 C 125.09 -1.8465 1.42922 0
M  V30 1315 C 126.071 -1.67599 0.29062 0
M  V30 1316 O 127.256 -1.87688 0.498677 0
M  V30 1317 C 124.386 -3.22565 1.28722 0
M  V30 1318 C 123.34 -3.54281 2.40144 0
M  V30 1319 C 122.666 -4.91298 2.11023 0
M  V30 1320 C 123.966 -3.55676 3.82481 0
M  V30 1321 H 125.66 -1.82644 2.37237 0
M  V30 1322 H 123.206 -0.877305 1.1419 0
M  V30 1323 H 125.159 -4.01095 1.29232 0
M  V30 1324 H 123.883 -3.25137 0.308811 0
M  V30 1325 H 122.542 -2.78088 2.38877 0
M  V30 1326 H 122.19 -4.90468 1.11582 0
M  V30 1327 H 121.89 -5.13485 2.8567 0
M  V30 1328 H 123.414 -5.72166 2.13209 0
M  V30 1329 H 124.828 -4.24254 3.85592 0
M  V30 1330 H 123.225 -3.89388 4.56614 0
M  V30 1331 H 124.295 -2.55144 4.12346 0
M  V30 1332 N 125.638 -1.25649 -0.95132 0
M  V30 1333 C 126.601 -1.06399 -2.03007 0
M  V30 1334 C 127.601 -0.0156794 -1.60792 0
M  V30 1335 O 128.791 -0.25817 -1.72276 0
M  V30 1336 C 125.923 -0.616184 -3.35285 0
M  V30 1337 H 127.116 -2.02164 -2.21517 0
M  V30 1338 H 124.669 -1.08103 -1.12887 0
M  V30 1339 H 125.404 0.343917 -3.22471 0
M  V30 1340 H 125.189 -1.37301 -3.67275 0
M  V30 1341 H 126.679 -0.503032 -4.14559 0
M  V30 1342 N 127.117 1.15442 -1.07289 0
M  V30 1343 C 128.065 2.22225 -0.686952 0
M  V30 1344 C 129.059 1.66688 0.30193 0
M  V30 1345 O 130.265 1.79236 0.165712 0
M  V30 1346 H 126.64 0.723783 -0.204064 0
M  V30 1347 H 128.611 2.52056 -1.5972 0
M  V30 1348 C 127.36 3.47556 -0.100149 0
M  V30 1349 H 126.683 3.90612 -0.852211 0
M  V30 1350 H 128.123 4.23794 0.132235 0
M  V30 1351 C 126.582 3.16337 1.159 0
M  V30 1352 O 127.112 3.33074 2.24555 0
M  V30 1353 N 125.318 2.70385 1.06491 0
M  V30 1354 H 124.865 2.56966 0.180668 0
M  V30 1355 H 124.823 2.49871 1.90819 0
M  V30 1356 N 128.595 0.856903 1.32268 0
M  V30 1357 C 129.844 0.457599 1.96441 0
M  V30 1358 C 130.157 -0.992426 1.68553 0
M  V30 1359 O 131.363 -1.49727 2.26482 0
M  V30 1360 C 129.819 0.767358 3.51624 0
M  V30 1361 C 129.427 2.23326 3.88367 0
M  V30 1362 C 131.171 0.435887 4.22256 0
M  V30 1363 C 129.078 2.48613 5.36606 0
M  V30 1364 H 128.008 0.167387 0.735185 0
M  V30 1365 H 130.659 1.048 1.5063 0
M  V30 1366 H 129.041 0.106367 3.95857 0
M  V30 1367 H 130.215 2.93623 3.55137 0
M  V30 1368 H 128.53 2.52948 3.30766 0
M  V30 1369 H 131.127 0.602202 5.31298 0
M  V30 1370 H 131.47 -0.622672 4.11617 0
M  V30 1371 H 132.003 1.05286 3.83614 0
M  V30 1372 H 128.742 3.53101 5.52268 0
M  V30 1373 H 128.262 1.82896 5.71235 0
M  V30 1374 H 129.941 2.32676 6.03714 0
M  V30 1375 N 130.073 -1.45103 0.615059 0
M  V30 1376 C 131.036 -2.29025 -0.0895485 0
M  V30 1377 C 132.036 -1.40174 -0.787906 0
M  V30 1378 O 133.226 -1.62217 -0.634933 0
M  V30 1379 C 130.358 -3.21376 -1.13711 0
M  V30 1380 H 131.551 -2.92807 0.648382 0
M  V30 1381 H 129.104 -1.51749 0.374444 0
M  V30 1382 H 129.839 -2.6241 -1.90556 0
M  V30 1383 H 129.624 -3.86834 -0.640475 0
M  V30 1384 H 131.114 -3.84459 -1.63036 0
M  V30 1385 N 131.551 -0.354651 -1.53558 0
M  V30 1386 C 132.797 0.238797 -2.01389 0
M  V30 1387 C 133.13 1.49309 -1.2418 0
M  V30 1388 O 132.405 1.91638 -0.332457 0
M  V30 1389 C 132.688 0.541771 -3.56001 0
M  V30 1390 C 132.541 -0.725388 -4.43912 0
M  V30 1391 C 133.86 1.34685 -4.18984 0
M  V30 1392 H 130.979 0.0853177 -0.732045 0
M  V30 1393 H 133.621 -0.477384 -1.83905 0
M  V30 1394 H 131.771 1.15189 -3.71031 0
M  V30 1395 H 133.443 -1.36313 -4.407 0
M  V30 1396 H 131.686 -1.34801 -4.12324 0
M  V30 1397 H 132.357 -0.468505 -5.50008 0
M  V30 1398 H 134.833 0.830837 -4.07721 0
M  V30 1399 H 133.709 1.52759 -5.27215 0
M  V30 1400 H 133.97 2.35221 -3.74331 0
M  V30 1401 N 133.029 1.57378 -0.0835403 0
M  V30 1402 C 134.306 1.85363 0.624507 0
M  V30 1403 C 134.686 0.978239 1.87066 0
M  V30 1404 O 134.034 0.0475908 2.2845 0
M  V30 1405 C 134.244 3.35795 0.950947 0
M  V30 1406 C 135.592 4.03581 1.31939 0
M  V30 1407 O 136.616 3.40609 1.04232 0
M  V30 1408 O 135.475 5.14672 1.83779 0
M  V30 1409 H 132.569 0.766162 0.311329 0
M  V30 1410 H 135.115 1.69307 -0.115362 0
M  V30 1411 H 133.887 3.91244 0.0663899 0
M  V30 1412 H 133.51 3.57154 1.74719 0
M  V30 1413 N 134.507 -0.190092 1.56449 0
M  V30 1414 C 135.454 -1.23557 1.94942 0
M  V30 1415 C 136.424 -1.44972 0.810696 0
M  V30 1416 O 137.609 -1.58023 1.06927 0
M  V30 1417 C 134.749 -2.57416 2.2985 0
M  V30 1418 C 133.862 -2.43537 3.5681 0
M  V30 1419 C 132.997 -3.70134 3.81017 0
M  V30 1420 C 132.036 -3.51109 5.01387 0
M  V30 1421 N 131.173 -4.6973 5.21822 0
M  V30 1422 H 136.013 -0.900304 2.84075 0
M  V30 1423 H 133.55 -0.43318 1.40577 0
M  V30 1424 H 135.508 -3.35409 2.48106 0
M  V30 1425 H 134.138 -2.88975 1.43852 0
M  V30 1426 H 133.19 -1.56816 3.46573 0
M  V30 1427 H 134.502 -2.25415 4.4496 0
M  V30 1428 H 133.656 -4.56566 3.9954 0
M  V30 1429 H 132.395 -3.91215 2.91207 0
M  V30 1430 H 131.4 -2.63063 4.82782 0
M  V30 1431 H 132.625 -3.31468 5.9271 0
M  V30 1432 H 130.571 -4.91065 4.34961 0
M  V30 1433 H 130.488 -4.54452 6.0416 0
M  V30 1434 H 131.756 -5.57499 5.44808 0
M  V30 1435 N 135.985 -1.50799 -0.457987 0
M  V30 1436 C 136.948 -1.7005 -1.53674 0
M  V30 1437 C 137.948 -0.570881 -1.50325 0
M  V30 1438 O 139.138 -0.838126 -1.52712 0
M  V30 1439 C 136.27 -1.73788 -2.93276 0
M  V30 1440 H 137.463 -2.66306 -1.37917 0
M  V30 1441 H 135.016 -1.40477 -0.685271 0
M  V30 1442 H 135.751 -0.792717 -3.14462 0
M  V30 1443 H 135.536 -2.55864 -2.97113 0
M  V30 1444 H 137.026 -1.90591 -3.71571 0
M  V30 1445 N 137.463 0.71206 -1.40597 0
M  V30 1446 C 138.411 1.84746 -1.41321 0
M  V30 1447 C 139.405 1.66842 -0.293268 0
M  V30 1448 O 140.611 1.73904 -0.464481 0
M  V30 1449 H 136.986 0.608522 -0.441819 0
M  V30 1450 H 138.957 1.81252 -2.37045 0
M  V30 1451 C 137.706 3.22638 -1.29614 0
M  V30 1452 H 137.029 3.37023 -2.15071 0
M  V30 1453 H 138.469 4.02209 -1.3418 0
M  V30 1454 C 136.928 3.36899 -0.00673121 0
M  V30 1455 O 137.458 3.90186 0.954859 0
M  V30 1456 N 135.664 2.9053 0.0639327 0
M  V30 1457 H 135.211 2.47353 -0.719311 0
M  V30 1458 H 135.169 3.0045 0.926118 0
M  V30 1459 N 138.941 1.26152 0.944643 0
M  V30 1460 C 139.871 1.09902 2.06019 0
M  V30 1461 C 140.852 0.00519538 1.70099 0
M  V30 1462 O 142.037 0.176583 1.93396 0
M  V30 1463 C 139.167 0.727562 3.39594 0
M  V30 1464 C 138.121 1.77274 3.89561 0
M  V30 1465 C 137.447 1.25569 5.19747 0
M  V30 1466 C 138.747 3.17357 4.14827 0
M  V30 1467 H 140.441 2.03217 2.19871 0
M  V30 1468 H 137.987 0.978452 1.05652 0
M  V30 1469 H 139.94 0.600777 4.17095 0
M  V30 1470 H 138.664 -0.241287 3.25707 0
M  V30 1471 H 137.323 1.88814 3.14237 0
M  V30 1472 H 136.971 0.276783 5.02238 0
M  V30 1473 H 136.671 1.95433 5.54148 0
M  V30 1474 H 138.195 1.1415 5.99835 0
M  V30 1475 H 139.609 3.08914 4.82954 0
M  V30 1476 H 138.006 3.84781 4.60504 0
M  V30 1477 H 139.076 3.63673 3.20734 0
M  V30 1478 N 140.419 -1.14872 1.07899 0
M  V30 1479 C 141.329 -2.2341 0.715915 0
M  V30 1480 C 142.345 -1.71808 -0.275306 0
M  V30 1481 O 143.521 -2.01039 -0.120545 0
M  V30 1482 C 140.586 -3.46474 0.125168 0
M  V30 1483 C 139.647 -4.13039 1.17034 0
M  V30 1484 C 138.88 -5.30229 0.607688 0
M  V30 1485 O 139.103 -5.675 -0.574497 0
M  V30 1486 O 138.037 -5.86444 1.35526 0
M  V30 1487 H 141.863 -2.56808 1.62121 0
M  V30 1488 H 139.448 -1.22702 0.852322 0
M  V30 1489 H 141.33 -4.20917 -0.201729 0
M  V30 1490 H 140.005 -3.14811 -0.753364 0
M  V30 1491 H 138.912 -3.40493 1.54968 0
M  V30 1492 H 140.245 -4.48796 2.02097 0
M  V30 1493 N 141.898 -0.863906 -1.31812 0
M  V30 1494 C 143.147 -0.46801 -1.96195 0
M  V30 1495 C 143.46 0.983474 -1.69077 0
M  V30 1496 O 144.666 1.48523 -2.27273 0
M  V30 1497 C 143.122 -0.785995 -3.51212 0
M  V30 1498 C 142.73 -2.25383 -3.87178 0
M  V30 1499 C 144.474 -0.458274 -4.22019 0
M  V30 1500 C 142.381 -2.51455 -5.3528 0
M  V30 1501 H 141.311 -0.171283 -0.734287 0
M  V30 1502 H 143.962 -1.05597 -1.50072 0
M  V30 1503 H 142.344 -0.127359 -3.95795 0
M  V30 1504 H 143.518 -2.95502 -3.53575 0
M  V30 1505 H 141.833 -2.54698 -3.2942 0
M  V30 1506 H 144.43 -0.630369 -5.30971 0
M  V30 1507 H 144.773 0.600834 -4.11941 0
M  V30 1508 H 145.306 -1.07319 -3.8305 0
M  V30 1509 H 142.045 -3.56025 -5.50387 0
M  V30 1510 H 141.565 -1.85923 -5.70257 0
M  V30 1511 H 143.244 -2.35874 -6.02472 0
M  V30 1512 N 143.376 1.44774 -0.622745 0
M  V30 1513 C 144.309 2.27792 0.136329 0
M  V30 1514 C 145.287 1.38041 0.859264 0
M  V30 1515 O 146.471 1.67478 0.86506 0
M  V30 1516 C 143.598 3.16776 1.19878 0
M  V30 1517 C 142.644 4.22575 0.57731 0
M  V30 1518 S 143.477 5.31825 -0.626294 0
M  V30 1519 C 144.633 6.24377 0.436378 0
M  V30 1520 H 144.866 2.91824 -0.567967 0
M  V30 1521 H 142.399 1.48838 -0.410677 0
M  V30 1522 H 144.357 3.68596 1.80686 0
M  V30 1523 H 143.018 2.5198 1.87523 0
M  V30 1524 H 142.211 4.84818 1.37721 0
M  V30 1525 H 141.813 3.73974 0.0440439 0
M  V30 1526 H 144.105 6.64689 1.31128 0
M  V30 1527 H 145.048 7.07941 -0.150271 0
M  V30 1528 H 145.456 5.59381 0.758513 0
M  V30 1529 N 144.854 0.36279 1.53368 0
M  V30 1530 C 146.082 -0.228613 2.05633 0
M  V30 1531 C 146.497 -1.42676 1.23649 0
M  V30 1532 O 145.854 -1.80394 0.27647 0
M  V30 1533 C 145.905 -0.624845 3.56059 0
M  V30 1534 O 145.626 0.525675 4.34935 0
M  V30 1535 C 147.127 -1.27493 4.24571 0
M  V30 1536 H 144.347 -0.0407183 0.669763 0
M  V30 1537 H 146.891 0.520352 1.97769 0
M  V30 1538 H 145.046 -1.32373 3.64083 0
M  V30 1539 H 145.46 0.205969 5.24095 0
M  V30 1540 H 146.934 -1.50277 5.31151 0
M  V30 1541 H 147.411 -2.23439 3.78116 0
M  V30 1542 H 148.017 -0.617558 4.20792 0
M  V30 1543 N 146.332 -1.57332 0.0918853 0
M  V30 1544 C 147.279 -2.13847 -0.868211 0
M  V30 1545 C 148.249 -1.05618 -1.28196 0
M  V30 1546 O 149.434 -1.33387 -1.36427 0
M  V30 1547 C 146.574 -2.72062 -2.12312 0
M  V30 1548 C 145.687 -3.94514 -1.7602 0
M  V30 1549 C 144.822 -4.40903 -2.96273 0
M  V30 1550 C 143.861 -5.55953 -2.56092 0
M  V30 1551 N 142.998 -5.97209 -3.69169 0
M  V30 1552 H 147.838 -2.95575 -0.379406 0
M  V30 1553 H 145.375 -1.46048 -0.175606 0
M  V30 1554 H 147.333 -3.03931 -2.858 0
M  V30 1555 H 145.963 -1.93068 -2.58698 0
M  V30 1556 H 145.015 -3.68979 -0.925135 0
M  V30 1557 H 146.327 -4.7802 -1.42472 0
M  V30 1558 H 145.481 -4.74539 -3.78018 0
M  V30 1559 H 144.22 -3.56291 -3.33029 0
M  V30 1560 H 143.225 -5.21948 -1.72773 0
M  V30 1561 H 144.45 -6.42311 -2.20484 0
M  V30 1562 H 142.396 -5.15543 -4.05649 0
M  V30 1563 H 142.313 -6.75504 -3.39456 0
M  V30 1564 H 143.581 -6.35475 -4.51434 0
M  V30 1565 N 147.81 0.181792 -1.56548 0
M  V30 1566 C 149.226 0.53316 -1.50431 0
M  V30 1567 C 149.426 1.85184 -0.794297 0
M  V30 1568 O 148.482 2.50058 -0.350318 0
M  V30 1569 C 149.795 0.575597 -2.9514 0
M  V30 1570 C 151.343 0.663519 -3.05886 0
M  V30 1571 C 151.818 0.736946 -4.52032 0
M  V30 1572 N 153.309 0.800118 -4.56237 0
M  V30 1573 C 154.044 0.877327 -5.66649 0
M  V30 1574 N 153.54 0.916016 -6.86718 0
M  V30 1575 N 155.333 0.915542 -5.54594 0
M  V30 1576 H 147.484 -0.683025 -2.01118 0
M  V30 1577 H 149.747 -0.244988 -0.915797 0
M  V30 1578 H 149.453 -0.324482 -3.502 0
M  V30 1579 H 149.327 1.42572 -3.49218 0
M  V30 1580 H 151.714 1.55403 -2.50867 0
M  V30 1581 H 151.795 -0.21307 -2.54911 0
M  V30 1582 H 151.439 -0.149262 -5.07681 0
M  V30 1583 H 151.369 1.62953 -5.00753 0
M  V30 1584 H 153.86 0.778926 -3.69785 0
M  V30 1585 H 154.173 0.975813 -7.66614 0
M  V30 1586 H 152.518 0.884469 -6.89349 0
M  V30 1587 H 155.709 0.882245 -4.59711 0
M  V30 1588 H 155.882 0.972253 -6.40665 0
M  V30 1589 N 149.288 1.51039 0.449983 0
M  V30 1590 C 150.513 1.6715 1.22783 0
M  V30 1591 C 150.938 0.363081 1.84563 0
M  V30 1592 O 150.296 -0.675433 1.68249 0
M  V30 1593 C 150.344 2.77985 2.29689 0
M  V30 1594 O 149.448 2.40707 3.34864 0
M  V30 1595 H 148.789 0.557746 0.360299 0
M  V30 1596 H 151.319 1.97535 0.533005 0
M  V30 1597 H 151.329 3.01693 2.74673 0
M  V30 1598 H 150.004 3.72935 1.84098 0
M  V30 1599 H 148.581 2.27523 2.95445 0
M  V30 1600 N 150.766 -0.704594 1.40972 0
M  V30 1601 C 151.714 -1.83994 1.42299 0
M  V30 1602 C 152.708 -1.66684 0.302111 0
M  V30 1603 O 153.914 -1.73655 0.473697 0
M  V30 1604 H 150.289 -0.606171 0.44504 0
M  V30 1605 H 152.26 -1.79992 2.38003 0
M  V30 1606 C 151.009 -3.21946 1.31323 0
M  V30 1607 H 150.332 -3.35878 2.16855 0
M  V30 1608 H 151.772 -4.01491 1.36311 0
M  V30 1609 C 150.231 -3.36891 0.0245977 0
M  V30 1610 O 150.761 -3.90687 -0.934153 0
M  V30 1611 N 148.967 -2.90559 -0.0485243 0
M  V30 1612 H 148.514 -2.46968 0.732419 0
M  V30 1613 H 148.472 -3.00937 -0.910171 0
M  V30 1614 N 152.244 -1.26651 -0.937939 0
M  V30 1615 C 153.474 -1.15006 -1.71631 0
M  V30 1616 C 153.882 0.297026 -1.86854 0
M  V30 1617 O 153.225 1.21493 -1.37786 0
M  V30 1618 C 153.287 -1.74984 -3.14039 0
M  V30 1619 C 152.951 -3.24103 -3.2219 0
M  V30 1620 C 153.948 -4.20877 -3.05219 0
M  V30 1621 C 151.633 -3.64625 -3.45476 0
M  V30 1622 C 153.627 -5.56151 -3.11408 0
M  V30 1623 C 151.314 -5.00032 -3.513 0
M  V30 1624 C 152.312 -5.95604 -3.34282 0
M  V30 1625 O 152 -7.28545 -3.3982 0
M  V30 1626 H 151.732 -0.401183 -0.544085 0
M  V30 1627 H 154.286 -1.67832 -1.18413 0
M  V30 1628 H 152.516 -1.16624 -3.68695 0
M  V30 1629 H 154.205 -1.58199 -3.73802 0
M  V30 1630 H 154.971 -3.90908 -2.87081 0
M  V30 1631 H 150.85 -2.90718 -3.57777 0
M  V30 1632 H 154.394 -6.30727 -2.98043 0
M  V30 1633 H 150.291 -5.29659 -3.68959 0
M  V30 1634 H 151.059 -7.3686 -3.56343 0
M  V30 1635 N 153.722 1.14298 -1.08507 0
M  V30 1636 C 154.95 1.89219 -0.836876 0
M  V30 1637 C 155.365 1.78638 0.611054 0
M  V30 1638 O 154.722 1.14643 1.41998 0
M  V30 1639 C 154.773 3.39158 -1.25116 0
M  V30 1640 O 154.494 3.49449 -2.64229 0
M  V30 1641 C 155.995 4.31073 -1.03398 0
M  V30 1642 H 153.215 0.599328 -0.301739 0
M  V30 1643 H 155.759 1.44746 -1.44461 0
M  V30 1644 H 153.914 3.81251 -0.687514 0
M  V30 1645 H 154.328 4.42589 -2.81452 0
M  V30 1646 H 155.802 5.34646 -1.37323 0
M  V30 1647 H 156.279 4.3919 0.0289259 0
M  V30 1648 H 156.885 3.94738 -1.58311 0
M  V30 1649 N 155.201 0.870884 1.31352 0
M  V30 1650 C 156.612 0.534714 1.78879 0
M  V30 1651 C 156.963 -0.948423 1.71754 0
M  V30 1652 O 156.088 -1.74055 1.28584 0
M  V30 1653 C 156.683 0.963839 3.24801 0
M  V30 1654 C 155.242 0.679311 3.70219 0
M  V30 1655 C 154.389 1.15465 2.52117 0
M  V30 1656 H 157.34 1.05651 1.18421 0
M  V30 1657 H 157.361 0.286892 3.79417 0
M  V30 1658 H 156.873 2.04332 3.29955 0
M  V30 1659 H 154.974 -0.388769 3.70566 0
M  V30 1660 H 155.087 1.25698 4.62317 0
M  V30 1661 H 153.451 0.574383 2.48139 0
M  V30 1662 H 154.234 2.24157 2.60016 0
M  V30 1663 N 156.679 -1.44442 0.630414 0
M  V30 1664 C 157.928 -2.01267 0.132073 0
M  V30 1665 C 158.241 -1.50172 -1.25331 0
M  V30 1666 O 159.447 -1.9912 -1.84562 0
M  V30 1667 C 157.903 -3.59422 0.185362 0
M  V30 1668 C 157.511 -4.19514 1.57201 0
M  V30 1669 C 159.255 -4.23724 -0.256553 0
M  V30 1670 C 157.162 -5.69891 1.58045 0
M  V30 1671 H 156.092 -0.752619 0.0456092 0
M  V30 1672 H 158.743 -1.65666 0.789106 0
M  V30 1673 H 157.125 -3.92318 -0.538759 0
M  V30 1674 H 158.299 -3.98156 2.31966 0
M  V30 1675 H 156.614 -3.67496 1.95795 0
M  V30 1676 H 159.211 -5.34019 -0.269767 0
M  V30 1677 H 159.554 -3.96013 -1.28372 0
M  V30 1678 H 160.087 -3.95629 0.41505 0
M  V30 1679 H 156.826 -6.02336 2.58597 0
M  V30 1680 H 156.346 -5.93373 0.875725 0
M  V30 1681 H 158.025 -6.33515 1.31408 0
M  V30 1682 N 158.157 -0.370918 -1.53173 0
M  V30 1683 C 159.385 0.217704 -2.05751 0
M  V30 1684 C 159.8 1.42018 -1.24404 0
M  V30 1685 O 159.157 1.80245 -0.286033 0
M  V30 1686 C 159.208 0.605954 -3.56385 0
M  V30 1687 O 158.929 -0.548734 -4.3465 0
M  V30 1688 C 160.43 1.2524 -4.25241 0
M  V30 1689 H 157.65 0.0371659 -0.66997 0
M  V30 1690 H 160.194 -0.530832 -1.9749 0
M  V30 1691 H 158.349 1.3044 -3.6478 0
M  V30 1692 H 158.763 -0.23376 -5.23979 0
M  V30 1693 H 160.237 1.47458 -5.3194 0
M  V30 1694 H 160.714 2.2143 -3.79296 0
M  V30 1695 H 161.32 0.595233 -4.21114 0
M  V30 1696 N 159.635 1.57281 -0.100228 0
M  V30 1697 C 160.583 2.15542 0.874328 0
M  V30 1698 C 161.577 1.09962 1.28859 0
M  V30 1699 O 162.783 1.28298 1.26252 0
M  V30 1700 H 159.158 0.689567 0.300003 0
M  V30 1701 H 161.129 2.96241 0.35829 0
M  V30 1702 C 159.878 2.75454 2.1218 0
M  V30 1703 H 159.201 3.56384 1.81193 0
M  V30 1704 H 160.641 3.19781 2.78417 0
M  V30 1705 C 159.1 1.71602 2.89921 0
M  V30 1706 O 159.63 1.15804 3.84646 0
M  V30 1707 N 157.836 1.41975 2.53558 0
M  V30 1708 H 157.383 1.87539 1.76598 0
M  V30 1709 H 157.341 0.727274 3.05873 0
M  V30 1710 N 161.113 -0.173488 1.56642 0
M  V30 1711 C 162.359 -0.891784 1.8214 0
M  V30 1712 C 162.692 -1.8199 0.677736 0
M  V30 1713 O 161.967 -1.91842 -0.320446 0
M  V30 1714 C 162.25 -1.68933 3.18015 0
M  V30 1715 C 162.103 -0.784487 4.42906 0
M  V30 1716 C 163.422 -2.65748 3.50808 0
M  V30 1717 H 160.541 -0.322761 0.662567 0
M  V30 1718 H 163.183 -0.158095 1.89341 0
M  V30 1719 H 161.333 -2.31482 3.12007 0
M  V30 1720 H 163.005 -0.172046 4.60979 0
M  V30 1721 H 161.248 -0.0924117 4.33702 0
M  V30 1722 H 161.919 -1.37799 5.34524 0
M  V30 1723 H 164.395 -2.13327 3.57255 0
M  V30 1724 H 163.271 -3.18619 4.4696 0
M  V30 1725 H 163.532 -3.45842 2.75401 0
M  V30 1726 N 162.591 -1.51276 -0.441967 0
M  V30 1727 C 164.002 -1.56244 -1.02199 0
M  V30 1728 C 164.353 -0.383149 -1.92422 0
M  V30 1729 O 163.478 0.500613 -2.1053 0
M  V30 1730 C 164.073 -2.83162 -1.86024 0
M  V30 1731 C 162.632 -2.90716 -2.39084 0
M  V30 1732 C 161.779 -2.50858 -1.18175 0
M  V30 1733 H 164.73 -1.5712 -0.223416 0
M  V30 1734 H 164.751 -2.66663 -2.71425 0
M  V30 1735 H 164.263 -3.68974 -1.20331 0
M  V30 1736 H 162.364 -2.09323 -3.08244 0
M  V30 1737 H 162.477 -3.94266 -2.72198 0
M  V30 1738 H 160.841 -2.03951 -1.52565 0
M  V30 1739 H 161.624 -3.3901 -0.541001 0
M  V30 1740 N 164.069 0.697108 -1.41344 0
M  V30 1741 C 165.48 1.27697 -1.36199 0
M  V30 1742 C 165.831 1.9615 -0.0443463 0
M  V30 1743 O 164.956 1.98689 0.857419 0
M  V30 1744 C 165.551 2.32223 -2.46694 0
M  V30 1745 C 164.11 2.8579 -2.44952 0
M  V30 1746 C 163.257 1.59807 -2.26621 0
M  V30 1747 H 166.208 0.491968 -1.50882 0
M  V30 1748 H 166.229 3.1348 -2.15664 0
M  V30 1749 H 165.741 1.82373 -3.42581 0
M  V30 1750 H 163.842 3.3982 -1.52817 0
M  V30 1751 H 163.955 3.36325 -3.41207 0
M  V30 1752 H 162.319 1.8556 -1.7447 0
M  V30 1753 H 163.102 1.11956 -3.24532 0
M  V30 1754 N 165.547 1.27147 0.931209 0
M  V30 1755 C 166.457 1.11372 2.06478 0
M  V30 1756 C 167.473 0.044645 1.73943 0
M  V30 1757 O 168.649 0.250417 1.99837 0
M  V30 1758 C 165.714 0.758838 3.38294 0
M  V30 1759 C 164.775 1.90841 3.84549 0
M  V30 1760 C 164.008 1.57036 5.10074 0
M  V30 1761 O 164.231 0.476645 5.68405 0
M  V30 1762 O 163.165 2.40839 5.51616 0
M  V30 1763 H 166.991 2.06493 2.22698 0
M  V30 1764 H 164.576 1.06301 1.04978 0
M  V30 1765 H 166.458 0.574098 4.17471 0
M  V30 1766 H 165.133 -0.162879 3.2329 0
M  V30 1767 H 164.04 2.14819 3.06274 0
M  V30 1768 H 165.373 2.81021 4.04089 0
M  V30 1769 N 167.025 -1.13721 1.09112 0
M  V30 1770 C 168.271 -1.85198 0.826414 0
M  V30 1771 C 168.604 -1.83129 -0.646319 0
M  V30 1772 O 167.879 -1.2671 -1.47563 0
M  V30 1773 C 168.162 -3.33507 1.35812 0
M  V30 1774 C 168.015 -3.44108 2.89672 0
M  V30 1775 C 169.334 -4.28838 0.989256 0
M  V30 1776 H 166.453 -0.67243 0.301675 0
M  V30 1777 H 169.095 -1.33499 1.35197 0
M  V30 1778 H 167.245 -3.77666 0.911082 0
M  V30 1779 H 168.917 -3.08684 3.428 0
M  V30 1780 H 167.16 -2.85087 3.26967 0
M  V30 1781 H 167.831 -4.48388 3.21951 0
M  V30 1782 H 170.307 -3.92734 1.37475 0
M  V30 1783 H 169.183 -5.31051 1.38838 0
M  V30 1784 H 169.444 -4.4198 -0.102924 0
M  V30 1785 N 168.503 -0.877838 -1.30888 0
M  V30 1786 C 169.731 -0.507414 -2.00581 0
M  V30 1787 C 170.146 0.902216 -1.65848 0
M  V30 1788 O 169.503 1.59225 -0.891831 0
M  V30 1789 C 169.554 -0.664162 -3.55347 0
M  V30 1790 O 169.275 -2.01829 -3.8884 0
M  V30 1791 C 170.776 -0.295787 -4.42312 0
M  V30 1792 H 167.996 -0.196866 -0.641471 0
M  V30 1793 H 170.54 -1.18117 -1.66939 0
M  V30 1794 H 168.695 -0.0378619 -3.87381 0
M  V30 1795 H 169.109 -2.03174 -4.8355 0
M  V30 1796 H 170.583 -0.456388 -5.5011 0
M  V30 1797 H 171.06 0.765663 -4.32475 0
M  V30 1798 H 171.666 -0.898113 -4.15709 0
M  V30 1799 N 169.982 1.44106 -0.638065 0
M  V30 1800 C 171.228 2.02277 -0.145546 0
M  V30 1801 C 171.561 1.50125 1.23191 0
M  V30 1802 O 170.836 0.688133 1.8192 0
M  V30 1803 C 171.119 3.59829 -0.139791 0
M  V30 1804 C 170.972 4.22247 -1.55008 0
M  V30 1805 C 172.291 4.36873 0.531966 0
M  V30 1806 H 169.41 0.734992 -0.0543632 0
M  V30 1807 H 172.052 1.71592 -0.815863 0
M  V30 1808 H 170.202 3.86102 0.431007 0
M  V30 1809 H 171.874 4.07057 -2.1703 0
M  V30 1810 H 170.117 3.79476 -2.10191 0
M  V30 1811 H 170.788 5.31284 -1.49804 0
M  V30 1812 H 173.264 4.16074 0.0464781 0
M  V30 1813 H 172.14 5.4657 0.505206 0
M  V30 1814 H 172.401 4.11995 1.60352 0
M  V30 1815 N 171.46 0.379036 1.52974 0
M  V30 1816 C 172.39 -0.452706 2.29069 0
M  V30 1817 C 173.371 -1.07237 1.32039 0
M  V30 1818 O 174.556 -1.08708 1.60923 0
M  V30 1819 C 171.686 -1.5856 3.08992 0
M  V30 1820 C 170.64 -1.0925 4.13822 0
M  V30 1821 C 169.966 -2.31668 4.81907 0
M  V30 1822 C 171.266 -0.167702 5.22031 0
M  V30 1823 H 172.96 0.182181 2.98845 0
M  V30 1824 H 170.506 0.0890592 1.43724 0
M  V30 1825 H 172.459 -2.1742 3.6098 0
M  V30 1826 H 171.183 -2.24792 2.36931 0
M  V30 1827 H 169.842 -0.526494 3.628 0
M  V30 1828 H 169.49 -2.96386 4.06404 0
M  V30 1829 H 169.19 -1.9934 5.52754 0
M  V30 1830 H 170.714 -2.91189 5.36695 0
M  V30 1831 H 172.128 -0.664186 5.6944 0
M  V30 1832 H 170.525 0.0653265 6.00064 0
M  V30 1833 H 171.595 0.786347 4.78482 0
M  V30 1834 N 172.938 -1.57226 0.108567 0
M  V30 1835 C 174.166 -1.99179 -0.559954 0
M  V30 1836 C 174.581 -0.988022 -1.60884 0
M  V30 1837 O 173.938 0.0205512 -1.82488 0
M  V30 1838 C 173.989 -3.41159 -1.19552 0
M  V30 1839 O 173.71 -4.37694 -0.188577 0
M  V30 1840 C 175.211 -3.98188 -1.94837 0
M  V30 1841 H 172.431 -0.654228 -0.149088 0
M  V30 1842 H 174.975 -2.03598 0.19183 0
M  V30 1843 H 173.13 -3.37711 -1.89815 0
M  V30 1844 H 173.544 -5.20469 -0.649014 0
M  V30 1845 H 175.018 -4.99644 -2.34648 0
M  V30 1846 H 175.495 -3.3675 -2.81951 0
M  V30 1847 H 176.101 -4.0515 -1.2936 0
M  V30 1848 N 174.416 0.165178 -1.56732 0
M  V30 1849 C 175.364 1.22369 -1.97809 0
M  V30 1850 C 176.358 1.45488 -0.867741 0
M  V30 1851 O 177.564 1.45995 -1.05288 0
M  V30 1852 H 173.939 0.411486 -0.629431 0
M  V30 1853 H 175.91 0.850425 -2.86025 0
M  V30 1854 C 174.659 2.55403 -2.35934 0
M  V30 1855 H 173.982 2.38438 -3.20916 0
M  V30 1856 H 175.422 3.2814 -2.68514 0
M  V30 1857 C 173.881 3.14611 -1.20506 0
M  V30 1858 O 174.411 3.98626 -0.496016 0
M  V30 1859 N 172.617 2.7379 -0.97403 0
M  V30 1860 H 172.164 2.0557 -1.55238 0
M  V30 1861 H 172.122 3.1374 -0.203573 0
M  V30 1862 N 175.894 1.51508 0.433938 0
M  V30 1863 C 177.119 1.68443 1.21003 0
M  V30 1864 C 177.544 0.382636 1.84167 0
M  V30 1865 O 176.902 -0.65755 1.68956 0
M  V30 1866 C 176.95 2.80405 2.26727 0
M  V30 1867 O 176.054 2.44245 3.32292 0
M  V30 1868 H 175.395 0.561536 0.354363 0
M  V30 1869 H 177.925 1.9809 0.512024 0
M  V30 1870 H 177.935 3.0459 2.71457 0
M  V30 1871 H 176.61 3.74867 1.80132 0
M  V30 1872 H 175.187 2.30644 2.93015 0
M  V30 1873 N 177.372 -0.689602 1.41712 0
M  V30 1874 C 178.783 -1.26973 1.36875 0
M  V30 1875 C 179.134 -1.96124 0.054748 0
M  V30 1876 O 178.259 -1.99141 -0.84687 0
M  V30 1877 C 178.854 -2.30912 2.47922 0
M  V30 1878 C 177.413 -2.84486 2.46464 0
M  V30 1879 C 176.56 -1.58603 2.27465 0
M  V30 1880 H 179.511 -0.48396 1.51141 0
M  V30 1881 H 179.532 -3.12331 2.17323 0
M  V30 1882 H 179.044 -1.80554 3.43543 0
M  V30 1883 H 177.145 -3.39005 1.54617 0
M  V30 1884 H 177.258 -3.34511 3.42986 0
M  V30 1885 H 175.622 -1.84632 1.75451 0
M  V30 1886 H 176.405 -1.10233 3.25121 0
M  V30 1887 N 178.85 -1.27639 -0.924453 0
M  V30 1888 C 180.096 -1.14336 -1.67497 0
M  V30 1889 C 180.429 0.309465 -1.91718 0
M  V30 1890 O 179.704 1.22608 -1.50989 0
M  V30 1891 C 179.987 -1.93096 -3.0395 0
M  V30 1892 C 179.84 -3.46381 -2.8695 0
M  V30 1893 C 181.159 -1.73798 -4.0433 0
M  V30 1894 H 178.278 -0.416728 -0.607871 0
M  V30 1895 H 180.92 -1.56832 -1.07256 0
M  V30 1896 H 179.07 -1.56982 -3.55372 0
M  V30 1897 H 180.742 -3.92343 -2.42621 0
M  V30 1898 H 178.985 -3.72557 -2.22225 0
M  V30 1899 H 179.656 -3.96735 -3.83804 0
M  V30 1900 H 182.132 -2.05293 -3.61931 0
M  V30 1901 H 181.008 -2.31294 -4.97789 0
M  V30 1902 H 181.269 -0.686725 -4.36734 0
M  V30 1903 N 180.328 1.1314 -1.09713 0
M  V30 1904 C 181.238 2.22242 -0.751367 0
M  V30 1905 C 182.254 1.72224 0.247938 0
M  V30 1906 O 183.43 2.01205 0.0885463 0
M  V30 1907 C 180.495 3.46231 -0.180274 0
M  V30 1908 C 179.556 4.11125 -1.2359 0
M  V30 1909 C 178.789 5.29195 -0.691966 0
M  V30 1910 O 179.012 5.68342 0.48414 0
M  V30 1911 O 177.946 5.84214 -1.44838 0
M  V30 1912 H 181.772 2.54197 -1.66186 0
M  V30 1913 H 179.357 1.21331 -0.871735 0
M  V30 1914 H 181.239 4.21185 0.134739 0
M  V30 1915 H 179.914 3.1597 0.703185 0
M  V30 1916 H 178.821 3.37985 -1.60366 0
M  V30 1917 H 180.154 4.45524 -2.09211 0
M  V30 1918 N 181.806 0.884767 1.30421 0
M  V30 1919 C 182.736 0.367574 2.30589 0
M  V30 1920 C 183.717 -0.549464 1.60981 0
M  V30 1921 O 184.902 -0.46336 1.88591 0
M  V30 1922 C 182.032 -0.418944 3.44764 0
M  V30 1923 C 180.986 0.406316 4.26067 0
M  V30 1924 C 180.312 -0.506793 5.32293 0
M  V30 1925 C 181.612 1.64832 4.95608 0
M  V30 1926 H 183.306 1.20462 2.74097 0
M  V30 1927 H 180.852 0.580695 1.31772 0
M  V30 1928 H 182.805 -0.791395 4.13902 0
M  V30 1929 H 181.529 -1.28964 3.0006 0
M  V30 1930 H 180.188 0.760903 3.58617 0
M  V30 1931 H 179.836 -1.37519 4.83836 0
M  V30 1932 H 179.536 0.0415828 5.87585 0
M  V30 1933 H 181.06 -0.875764 6.04287 0
M  V30 1934 H 182.474 1.34646 5.57264 0
M  V30 1935 H 180.871 2.13688 5.60765 0
M  V30 1936 H 181.941 2.39284 4.21748 0
M  V30 1937 N 183.284 -1.43765 0.645699 0
M  V30 1938 C 184.7 -1.56509 0.312591 0
M  V30 1939 C 184.9 -1.6307 -1.18365 0
M  V30 1940 O 183.956 -1.58167 -1.96824 0
M  V30 1941 C 185.269 -2.82968 1.01733 0
M  V30 1942 C 186.817 -2.96701 0.996865 0
M  V30 1943 C 187.292 -4.25982 1.68236 0
M  V30 1944 N 188.783 -4.32829 1.64964 0
M  V30 1945 C 189.518 -5.31613 2.14885 0
M  V30 1946 N 189.014 -6.36718 2.73061 0
M  V30 1947 N 190.807 -5.23217 2.05428 0
M  V30 1948 H 182.958 -1.3775 1.61675 0
M  V30 1949 H 185.221 -0.661067 0.679481 0
M  V30 1950 H 184.927 -2.84156 2.0724 0
M  V30 1951 H 184.801 -3.72957 0.564177 0
M  V30 1952 H 187.188 -2.95058 -0.0497719 0
M  V30 1953 H 187.269 -2.08022 1.48865 0
M  V30 1954 H 186.913 -4.28386 2.72852 0
M  V30 1955 H 186.843 -5.13545 1.16529 0
M  V30 1956 H 189.334 -3.57493 1.22503 0
M  V30 1957 H 189.647 -7.08401 3.08848 0
M  V30 1958 H 187.992 -6.37362 2.77118 0
M  V30 1959 H 191.183 -4.40019 1.59689 0
M  V30 1960 H 191.356 -6.00045 2.44643 0
M  V30 1961 N 184.763 -0.387143 -1.52771 0
M  V30 1962 C 185.673 0.456442 -2.30117 0
M  V30 1963 C 186.689 1.07342 -1.36944 0
M  V30 1964 O 187.865 1.07971 -1.70013 0
M  V30 1965 C 184.93 1.56957 -3.09136 0
M  V30 1966 C 183.991 0.977916 -4.18014 0
M  V30 1967 C 183.224 2.038 -4.93256 0
M  V30 1968 O 183.447 3.25271 -4.68567 0
M  V30 1969 O 182.381 1.6565 -5.78657 0
M  V30 1970 H 186.207 -0.17359 -3.03203 0
M  V30 1971 H 183.792 -0.150919 -1.48636 0
M  V30 1972 H 185.674 2.21628 -3.58412 0
M  V30 1973 H 184.349 2.18461 -2.38865 0
M  V30 1974 H 183.256 0.294525 -3.72939 0
M  V30 1975 H 184.589 0.407128 -4.90513 0
M  V30 1976 N 186.241 1.57166 -0.116904 0
M  V30 1977 C 187.652 1.82169 0.408809 0
M  V30 1978 C 188.003 1.03393 1.66746 0
M  V30 1979 O 187.128 0.269886 2.1471 0
M  V30 1980 C 187.723 3.30429 0.748466 0
M  V30 1981 C 186.282 3.5612 1.21882 0
M  V30 1982 C 185.429 2.76374 0.226452 0
M  V30 1983 H 188.38 1.5497 -0.342063 0
M  V30 1984 H 188.401 3.44943 1.60607 0
M  V30 1985 H 187.913 3.87737 -0.167784 0
M  V30 1986 H 186.014 3.04168 2.15204 0
M  V30 1987 H 186.127 4.64705 1.16559 0
M  V30 1988 H 184.491 2.44515 0.713063 0
M  V30 1989 H 185.274 3.3644 -0.682859 0
M  V30 1990 N 187.719 -0.156864 1.56817 0
M  V30 1991 C 188.667 -1.21319 1.98455 0
M  V30 1992 C 189.661 -1.45025 0.875444 0
M  V30 1993 O 190.867 -1.45435 1.0606 0
M  V30 1994 H 187.242 -0.408142 0.631605 0
M  V30 1995 H 189.213 -0.835244 2.86472 0
M  V30 1996 C 187.962 -2.54148 2.37285 0
M  V30 1997 H 187.285 -2.36733 3.22176 0
M  V30 1998 H 188.725 -3.26712 2.70251 0
M  V30 1999 C 187.184 -3.13967 1.22173 0
M  V30 2000 O 187.714 -3.98357 0.517149 0
M  V30 2001 N 185.92 -2.7327 0.988536 0
M  V30 2002 H 185.467 -2.04744 1.56326 0
M  V30 2003 H 185.425 -3.13628 0.220209 0
M  V30 2004 N 189.197 -1.51736 -0.425897 0
M  V30 2005 C 190.443 -1.65214 -1.1761 0
M  V30 2006 C 190.776 -0.372778 -1.90589 0
M  V30 2007 O 190.051 0.628139 -1.84078 0
M  V30 2008 C 190.334 -2.86312 -2.18398 0
M  V30 2009 C 190.187 -4.24254 -1.49426 0
M  V30 2010 C 191.506 -3.02925 -3.19256 0
M  V30 2011 H 188.625 -0.601263 -0.426206 0
M  V30 2012 H 191.267 -1.8425 -0.463882 0
M  V30 2013 H 189.417 -2.70213 -2.79137 0
M  V30 2014 H 191.089 -4.52046 -0.919362 0
M  V30 2015 H 189.332 -4.26426 -0.796432 0
M  V30 2016 H 190.003 -5.05001 -2.22885 0
M  V30 2017 H 192.479 -3.1781 -2.68581 0
M  V30 2018 H 191.355 -3.89199 -3.8706 0
M  V30 2019 H 191.616 -2.15497 -3.86023 0
M  V30 2020 N 190.675 0.682077 -1.42076 0
M  V30 2021 C 191.605 1.80796 -1.47767 0
M  V30 2022 C 192.586 1.6677 -0.334954 0
M  V30 2023 O 193.771 1.863 -0.548264 0
M  V30 2024 C 190.901 3.19038 -1.37229 0
M  V30 2025 C 189.855 3.47789 -2.49453 0
M  V30 2026 C 189.181 4.8553 -2.23975 0
M  V30 2027 C 190.481 3.45411 -3.91776 0
M  V30 2028 H 192.175 1.7629 -2.41997 0
M  V30 2029 H 189.721 0.846721 -1.16476 0
M  V30 2030 H 191.674 3.97528 -1.39821 0
M  V30 2031 H 190.398 3.24204 -0.394907 0
M  V30 2032 H 189.057 2.71657 -2.46166 0
M  V30 2033 H 188.705 4.87337 -1.24547 0
M  V30 2034 H 188.405 5.0573 -2.99184 0
M  V30 2035 H 189.929 5.66312 -2.28304 0
M  V30 2036 H 191.343 4.13882 -3.96705 0
M  V30 2037 H 189.74 3.77145 -4.66778 0
M  V30 2038 H 190.81 2.44122 -4.18966 0
M  V30 2039 N 192.153 1.28127 0.917671 0
M  V30 2040 C 193.402 1.14432 1.66097 0
M  V30 2041 C 193.715 -0.307247 1.93172 0
M  V30 2042 O 194.921 -0.565259 2.65551 0
M  V30 2043 C 193.377 2.00015 2.99202 0
M  V30 2044 C 192.985 3.49889 2.79789 0
M  V30 2045 C 194.729 1.94996 3.77064 0
M  V30 2046 C 192.636 4.27636 4.08511 0
M  V30 2047 H 191.566 0.424662 0.62304 0
M  V30 2048 H 194.217 1.52628 1.01868 0
M  V30 2049 H 192.599 1.54672 3.64544 0
M  V30 2050 H 193.773 4.03162 2.23152 0
M  V30 2051 H 192.088 3.56392 2.15345 0
M  V30 2052 H 194.685 2.50354 4.72469 0
M  V30 2053 H 195.028 0.925819 4.05875 0
M  V30 2054 H 195.561 2.38287 3.18534 0
M  V30 2055 H 192.3 5.30615 3.84874 0
M  V30 2056 H 191.82 3.79137 4.64774 0
M  V30 2057 H 193.499 4.37346 4.76799 0
M  V30 2058 N 193.631 -1.12557 1.10312 0
M  V30 2059 C 194.871 -1.8568 0.854543 0
M  V30 2060 C 195.235 -1.82091 -0.608843 0
M  V30 2061 O 196.436 -2.50544 -0.973717 0
M  V30 2062 C 194.707 -3.2942 1.38626 0
M  V30 2063 S 196.266 -4.19931 1.27293 0
M  V30 2064 H 193.084 -0.640427 0.308827 0
M  V30 2065 H 195.686 -1.35599 1.40831 0
M  V30 2066 H 194.39 -3.2959 2.44537 0
M  V30 2067 H 193.921 -3.84566 0.82902 0
M  V30 2068 H 195.936 -4.95668 0.229776 0
M  V30 2069 N 195.109 -0.891671 -1.2995 0
M  V30 2070 C 196.356 -0.513501 -1.95881 0
M  V30 2071 C 196.684 0.938655 -1.70351 0
M  V30 2072 O 195.939 1.67936 -1.00478 0
M  V30 2073 C 196.238 -0.742868 -3.49594 0
M  V30 2074 C 195.904 -2.17114 -3.95186 0
M  V30 2075 C 194.566 -2.56169 -4.07346 0
M  V30 2076 C 196.918 -3.10162 -4.18866 0
M  V30 2077 C 194.246 -3.87469 -4.4055 0
M  V30 2078 C 196.598 -4.41001 -4.53542 0
M  V30 2079 C 195.262 -4.79941 -4.63911 0
M  V30 2080 H 194.532 -0.187903 -0.71678 0
M  V30 2081 H 197.179 -1.1288 -1.54694 0
M  V30 2082 H 195.484 -0.044586 -3.91775 0
M  V30 2083 H 197.181 -0.429767 -3.9869 0
M  V30 2084 H 193.771 -1.85801 -3.86233 0
M  V30 2085 H 197.955 -2.81206 -4.08946 0
M  V30 2086 H 193.211 -4.17371 -4.46779 0
M  V30 2087 H 197.385 -5.13133 -4.70815 0
M  V30 2088 H 195.012 -5.81719 -4.89395 0
M  V30 2089 N 196.587 1.43421 -0.653314 0
M  V30 2090 C 197.836 2.01032 -0.164076 0
M  V30 2091 C 198.149 1.52147 1.22926 0
M  V30 2092 O 199.355 2.02031 1.81371 0
M  V30 2093 C 197.811 3.59082 -0.24252 0
M  V30 2094 C 197.419 4.1696 -1.63855 0
M  V30 2095 C 199.163 4.24079 0.18911 0
M  V30 2096 C 197.07 5.67304 -1.67092 0
M  V30 2097 H 196 0.751798 -0.0575769 0
M  V30 2098 H 198.651 1.6439 -0.815362 0
M  V30 2099 H 197.033 3.93125 0.476276 0
M  V30 2100 H 198.207 3.94416 -2.38271 0
M  V30 2101 H 196.522 3.64335 -2.01616 0
M  V30 2102 H 199.119 5.34381 0.184775 0
M  V30 2103 H 199.462 3.98005 1.22056 0
M  V30 2104 H 199.995 3.94918 -0.477938 0
M  V30 2105 H 196.734 5.98145 -2.68146 0
M  V30 2106 H 196.254 5.91904 -0.970014 0
M  V30 2107 H 197.933 6.31344 -1.4147 0
M  V30 2108 N 198.065 0.39524 1.52563 0
M  V30 2109 C 199.342 -0.242908 1.94086 0
M  V30 2110 C 199.722 -1.63841 1.33114 0
M  V30 2111 O 199.07 -2.22928 0.501529 0
M  V30 2112 C 199.28 -0.26327 3.48006 0
M  V30 2113 C 200.628 -0.489354 4.21771 0
M  V30 2114 O 201.652 -0.343226 3.54543 0
M  V30 2115 O 200.511 -0.776169 5.4096 0
M  V30 2116 H 197.605 -0.152536 0.812811 0
M  V30 2117 H 200.151 0.450178 1.6362 0
M  V30 2118 H 198.923 0.713985 3.84731 0
M  V30 2119 H 198.546 -1.00103 3.84792 0
M  V30 2120 N 199.544 -1.57102 0.125237 0
M  V30 2121 C 200.491 -2.15641 -0.822655 0
M  V30 2122 C 201.461 -1.08313 -1.25927 0
M  V30 2123 O 202.646 -1.36251 -1.33567 0
M  V30 2124 C 199.786 -2.76504 -2.06494 0
M  V30 2125 C 198.899 -3.98158 -1.67612 0
M  V30 2126 C 198.034 -4.47088 -2.86854 0
M  V30 2127 C 197.073 -5.6126 -2.44242 0
M  V30 2128 N 196.21 -6.04905 -3.56419 0
M  V30 2129 H 201.05 -2.96313 -0.316625 0
M  V30 2130 H 198.587 -1.46388 -0.144588 0
M  V30 2131 H 200.545 -3.09925 -2.79289 0
M  V30 2132 H 199.175 -1.98512 -2.54545 0
M  V30 2133 H 198.227 -3.70858 -0.846661 0
M  V30 2134 H 199.539 -4.80934 -1.32301 0
M  V30 2135 H 198.693 -4.82451 -3.67867 0
M  V30 2136 H 197.432 -3.63275 -3.25396 0
M  V30 2137 H 196.437 -5.25495 -1.61663 0
M  V30 2138 H 197.662 -6.46843 -2.0681 0
M  V30 2139 H 195.608 -5.24032 -3.94623 0
M  V30 2140 H 195.525 -6.82552 -3.25051 0
M  V30 2141 H 196.793 -6.44907 -4.37853 0
M  V30 2142 N 201.022 0.148545 -1.56898 0
M  V30 2143 C 202.269 0.861418 -1.83264 0
M  V30 2144 C 202.597 1.81239 -0.705883 0
M  V30 2145 O 201.852 1.93305 0.305212 0
M  V30 2146 C 202.151 1.67064 -3.1595 0
M  V30 2147 C 201.817 0.866591 -4.42494 0
M  V30 2148 C 200.479 0.644762 -4.76861 0
M  V30 2149 C 202.831 0.30418 -5.20312 0
M  V30 2150 C 200.159 -0.15021 -5.86508 0
M  V30 2151 C 202.511 -0.477824 -6.30793 0
M  V30 2152 C 201.175 -0.710244 -6.63711 0
M  V30 2153 H 200.445 0.315215 -0.670612 0
M  V30 2154 H 203.092 0.125142 -1.91091 0
M  V30 2155 H 201.397 2.47698 -3.03567 0
M  V30 2156 H 203.094 2.22566 -3.33565 0
M  V30 2157 H 199.684 1.04955 -4.15551 0
M  V30 2158 H 203.868 0.462844 -4.94137 0
M  V30 2159 H 199.124 -0.339796 -6.10455 0
M  V30 2160 H 203.298 -0.92076 -6.90286 0
M  V30 2161 H 200.925 -1.3281 -7.48509 0
M  V30 2162 N 202.5 1.5196 0.417844 0
M  V30 2163 C 203.728 1.69426 1.18753 0
M  V30 2164 C 204.143 0.399955 1.84515 0
M  V30 2165 O 203.5 -0.623288 1.71527 0
M  V30 2166 C 203.551 2.82375 2.25714 0
M  V30 2167 O 203.272 4.06793 1.62638 0
M  V30 2168 C 204.773 3.11277 3.15628 0
M  V30 2169 H 201.993 0.568031 0.357186 0
M  V30 2170 H 204.537 1.98475 0.49273 0
M  V30 2171 H 202.692 2.5587 2.90877 0
M  V30 2172 H 203.106 4.69667 2.3348 0
M  V30 2173 H 204.58 3.93843 3.86771 0
M  V30 2174 H 205.057 2.24473 3.77503 0
M  V30 2175 H 205.663 3.39515 2.56144 0
M  V30 2176 N 203.978 -0.674533 1.42435 0
M  V30 2177 C 205.389 -1.25514 1.38214 0
M  V30 2178 C 205.74 -1.96055 0.0755464 0
M  V30 2179 O 204.865 -2.00028 -0.8257 0
M  V30 2180 C 205.46 -2.28269 2.50357 0
M  V30 2181 C 204.019 -2.81856 2.49467 0
M  V30 2182 C 203.166 -1.56182 2.29134 0
M  V30 2183 H 206.117 -0.467902 1.51646 0
M  V30 2184 H 206.138 -3.10009 2.20624 0
M  V30 2185 H 205.65 -1.769 3.45439 0
M  V30 2186 H 203.751 -3.37346 1.58204 0
M  V30 2187 H 203.864 -3.30854 3.46515 0
M  V30 2188 H 202.228 -1.82761 1.774 0
M  V30 2189 H 203.011 -1.06778 3.26272 0
M  V30 2190 N 205.456 -1.28612 -0.910864 0
M  V30 2191 C 206.867 -1.14406 -1.47541 0
M  V30 2192 C 207.218 0.264901 -1.94403 0
M  V30 2193 O 206.343 1.15942 -1.82719 0
M  V30 2194 C 206.938 -2.07073 -2.68153 0
M  V30 2195 C 205.497 -1.96923 -3.20778 0
M  V30 2196 C 204.644 -1.98646 -1.93481 0
M  V30 2197 H 207.595 -1.41259 -0.723291 0
M  V30 2198 H 207.616 -1.63642 -3.43514 0
M  V30 2199 H 207.128 -3.09611 -2.34015 0
M  V30 2200 H 205.229 -0.97433 -3.59635 0
M  V30 2201 H 205.342 -2.84026 -3.85832 0
M  V30 2202 H 203.706 -1.43093 -2.10705 0
M  V30 2203 H 204.489 -3.02868 -1.61634 0
M  V30 2204 N 206.934 1.1197 -1.10907 0
M  V30 2205 C 208.18 1.8386 -0.855773 0
M  V30 2206 C 208.513 1.84134 0.617103 0
M  V30 2207 O 207.788 1.29041 1.45529 0
M  V30 2208 C 208.071 3.31305 -1.411 0
M  V30 2209 C 207.924 3.39456 -2.9511 0
M  V30 2210 C 209.243 4.2721 -1.05736 0
M  V30 2211 H 206.362 0.667545 -0.312334 0
M  V30 2212 H 209.004 1.31331 -1.37303 0
M  V30 2213 H 207.154 3.76169 -0.97105 0
M  V30 2214 H 208.826 3.03191 -3.47668 0
M  V30 2215 H 207.069 2.79849 -3.31462 0
M  V30 2216 H 207.74 4.43209 -3.29044 0
M  V30 2217 H 210.216 3.90497 -1.43706 0
M  V30 2218 H 209.092 5.28775 -1.47269 0
M  V30 2219 H 209.353 4.42088 0.0325958 0
M  V30 2220 N 208.412 0.89855 1.29475 0
M  V30 2221 C 209.658 0.524658 1.95896 0
M  V30 2222 C 209.991 -0.926468 1.70676 0
M  V30 2223 O 209.266 -1.65665 1.01908 0
M  V30 2224 C 209.549 0.81633 3.50725 0
M  V30 2225 C 209.402 2.31907 3.85408 0
M  V30 2226 C 210.721 0.302038 4.39062 0
M  V30 2227 H 207.84 0.19209 0.711527 0
M  V30 2228 H 210.482 1.12502 1.53112 0
M  V30 2229 H 208.632 0.305369 3.87298 0
M  V30 2230 H 210.304 2.89949 3.58786 0
M  V30 2231 H 208.547 2.78027 3.32992 0
M  V30 2232 H 209.218 2.47373 4.93468 0
M  V30 2233 H 211.694 0.739551 4.09475 0
M  V30 2234 H 210.57 0.535331 5.46283 0
M  V30 2235 H 210.831 -0.797216 4.34853 0
M  V30 2236 N 209.89 -1.43072 0.660911 0
M  V30 2237 C 210.838 -2.32569 -0.0378199 0
M  V30 2238 C 211.832 -1.49046 -0.805092 0
M  V30 2239 O 213.038 -1.65206 -0.714624 0
M  V30 2240 H 209.413 -0.75136 -0.031019 0
M  V30 2241 H 211.384 -2.89216 0.734609 0
M  V30 2242 C 210.133 -3.33453 -0.985124 0
M  V30 2243 H 209.456 -3.97752 -0.404147 0
M  V30 2244 H 210.896 -3.98691 -1.44297 0
M  V30 2245 C 209.355 -2.64642 -2.08486 0
M  V30 2246 O 209.885 -2.46776 -3.16961 0
M  V30 2247 N 208.091 -2.23891 -1.8526 0
M  V30 2248 H 207.638 -2.38621 -0.970449 0
M  V30 2249 H 207.596 -1.78181 -2.59034 0
M  V30 2250 N 211.368 -0.403325 -1.52352 0
M  V30 2251 C 212.614 0.174605 -2.02047 0
M  V30 2252 C 212.947 1.45282 -1.28867 0
M  V30 2253 O 212.222 1.90483 -0.393257 0
M  V30 2254 C 212.505 0.428238 -3.57545 0
M  V30 2255 C 212.358 -0.866248 -4.4138 0
M  V30 2256 C 213.677 1.21287 -4.23057 0
M  V30 2257 H 210.796 0.0619851 -0.734389 0
M  V30 2258 H 213.438 -0.53565 -1.82293 0
M  V30 2259 H 211.588 1.03327 -3.74507 0
M  V30 2260 H 213.26 -1.50265 -4.3614 0
M  V30 2261 H 211.503 -1.47851 -4.07827 0
M  V30 2262 H 212.174 -0.643249 -5.48239 0
M  V30 2263 H 214.65 0.700703 -4.10158 0
M  V30 2264 H 213.526 1.35909 -5.31808 0
M  V30 2265 H 213.787 2.23193 -3.81625 0
M  V30 2266 N 212.846 1.57033 -0.133567 0
M  V30 2267 C 214.074 2.00044 0.528195 0
M  V30 2268 C 214.489 1.01349 1.59291 0
M  V30 2269 O 213.846 0.00848369 1.82498 0
M  V30 2270 C 213.897 3.43018 1.1411 0
M  V30 2271 O 213.618 4.37939 0.11892 0
M  V30 2272 C 215.119 4.01237 1.88477 0
M  V30 2273 H 212.339 0.656517 0.138661 0
M  V30 2274 H 214.883 2.03267 -0.224196 0
M  V30 2275 H 213.038 3.40688 1.84418 0
M  V30 2276 H 213.452 5.21436 0.56613 0
M  V30 2277 H 214.926 5.03314 2.26669 0
M  V30 2278 H 215.403 3.41193 2.76558 0
M  V30 2279 H 216.009 4.07156 1.22898 0
M  V30 2280 N 214.325 -0.140222 1.56975 0
M  V30 2281 C 215.571 -0.848084 1.84876 0
M  V30 2282 C 215.926 -1.78481 0.718481 0
M  V30 2283 O 215.219 -1.89497 -0.283093 0
M  V30 2284 C 215.413 -1.65386 3.16832 0
M  V30 2285 C 215.242 -0.79665 4.42587 0
M  V30 2286 C 214.012 -0.459648 5.03205 0
M  V30 2287 C 216.21 -0.12389 5.14151 0
M  V30 2288 N 214.192 0.410446 6.12526 0
M  V30 2289 C 215.563 0.606064 6.17031 0
M  V30 2290 C 217.618 -0.0452654 4.97879 0
M  V30 2291 C 216.321 1.40723 7.054 0
M  V30 2292 C 218.347 0.742658 5.86718 0
M  V30 2293 C 217.709 1.46087 6.89085 0
M  V30 2294 H 213.808 -0.287946 0.727056 0
M  V30 2295 H 216.392 -0.11304 1.94372 0
M  V30 2296 H 214.563 -2.36009 3.08471 0
M  V30 2297 H 216.295 -2.30541 3.32615 0
M  V30 2298 H 213.05 -0.797006 4.66846 0
M  V30 2299 H 213.474 0.836716 6.7181 0
M  V30 2300 H 218.116 -0.586184 4.18717 0
M  V30 2301 H 215.834 1.95938 7.83986 0
M  V30 2302 H 219.42 0.805574 5.76196 0
M  V30 2303 H 218.3 2.06077 7.56639 0
M  V30 2304 N 215.803 -1.52179 -0.40978 0
M  V30 2305 C 216.733 -1.78435 -1.5061 0
M  V30 2306 C 217.714 -0.635295 -1.57791 0
M  V30 2307 O 218.899 -0.880823 -1.73076 0
M  V30 2308 C 216.029 -1.93444 -2.88439 0
M  V30 2309 C 214.983 -3.09038 -2.96108 0
M  V30 2310 C 214.309 -3.09268 -4.36185 0
M  V30 2311 C 215.609 -4.48508 -2.67652 0
M  V30 2312 H 217.303 -2.70237 -1.28889 0
M  V30 2313 H 214.849 -1.30036 -0.618605 0
M  V30 2314 H 216.802 -2.10394 -3.65119 0
M  V30 2315 H 215.526 -0.983129 -3.11452 0
M  V30 2316 H 214.185 -2.91837 -2.21872 0
M  V30 2317 H 213.833 -2.11861 -4.56206 0
M  V30 2318 H 213.533 -3.86907 -4.42241 0
M  V30 2319 H 215.057 -3.28348 -5.14801 0
M  V30 2320 H 216.471 -4.65918 -3.34056 0
M  V30 2321 H 214.868 -5.28059 -2.85085 0
M  V30 2322 H 215.938 -4.56649 -1.63095 0
M  V30 2323 N 217.281 0.66697 -1.42791 0
M  V30 2324 C 218.697 0.981027 -1.25889 0
M  V30 2325 C 218.897 2.00793 -0.168695 0
M  V30 2326 O 217.953 2.48321 0.45747 0
M  V30 2327 C 219.266 1.47838 -2.61848 0
M  V30 2328 C 220.814 1.59575 -2.69267 0
M  V30 2329 C 221.289 2.12704 -4.05612 0
M  V30 2330 N 222.78 2.20026 -4.07606 0
M  V30 2331 C 223.515 2.62227 -5.09926 0
M  V30 2332 N 223.011 3.03824 -6.22626 0
M  V30 2333 N 224.804 2.62045 -4.97281 0
M  V30 2334 H 216.955 -0.0127891 -2.12396 0
M  V30 2335 H 219.218 0.0568258 -0.946295 0
M  V30 2336 H 218.924 0.798299 -3.4252 0
M  V30 2337 H 218.798 2.45579 -2.86305 0
M  V30 2338 H 221.185 2.26687 -1.88936 0
M  V30 2339 H 221.266 0.60302 -2.48591 0
M  V30 2340 H 220.91 1.46198 -4.86404 0
M  V30 2341 H 220.84 3.12782 -4.23645 0
M  V30 2342 H 223.331 1.90708 -3.2625 0
M  V30 2343 H 223.644 3.34734 -6.96544 0
M  V30 2344 H 221.989 3.01662 -6.26119 0
M  V30 2345 H 225.18 2.28916 -4.08308 0
M  V30 2346 H 225.353 2.94613 -5.77154 0
M  V30 2347 N 218.759 1.29093 0.90403 0
M  V30 2348 C 219.707 1.13727 2.02901 0
M  V30 2349 C 220.701 0.0539853 1.69314 0
M  V30 2350 O 221.907 0.213469 1.7873 0
M  V30 2351 H 218.282 0.35117 0.664969 0
M  V30 2352 H 220.253 2.08982 2.13001 0
M  V30 2353 C 219.002 0.826066 3.37745 0
M  V30 2354 H 218.325 1.65164 3.64089 0
M  V30 2355 H 219.765 0.758559 4.17159 0
M  V30 2356 C 218.224 -0.470541 3.33598 0
M  V30 2357 O 218.754 -1.49792 3.72727 0
M  V30 2358 N 216.96 -0.474812 2.86695 0
M  V30 2359 H 216.507 0.361692 2.55048 0
M  V30 2360 H 216.465 -1.34236 2.84303 0
M  V30 2361 N 220.237 -1.11381 1.11499 0
M  V30 2362 C 221.485 -1.8277 0.862524 0
M  V30 2363 C 221.806 -1.85097 -0.613534 0
M  V30 2364 O 221.076 -1.32198 -1.4457 0
M  V30 2365 H 219.656 -0.676823 0.316101 0
M  V30 2366 H 222.318 -1.34816 1.4075 0
M  V30 2367 H 221.414 -2.86614 1.23527 0
M  V30 2368 N 221.715 -0.905404 -1.28997 0
M  V30 2369 C 222.662 -0.385892 -2.27551 0
M  V30 2370 C 223.632 0.535113 -1.57244 0
M  V30 2371 O 224.817 0.459119 -1.85194 0
M  V30 2372 C 221.957 0.375461 -3.43051 0
M  V30 2373 C 221.07 -0.577092 -4.28128 0
M  V30 2374 C 220.205 0.201879 -5.30816 0
M  V30 2375 C 219.244 -0.744829 -6.07551 0
M  V30 2376 N 218.381 9.42587e-05 -7.021 0
M  V30 2377 H 223.221 -1.23139 -2.71368 0
M  V30 2378 H 220.758 -0.618542 -1.33463 0
M  V30 2379 H 222.716 0.832992 -4.088 0
M  V30 2380 H 221.346 1.18537 -3.00248 0
M  V30 2381 H 220.398 -1.15315 -3.62501 0
M  V30 2382 H 221.71 -1.30152 -4.8152 0
M  V30 2383 H 220.864 0.720351 -6.02408 0
M  V30 2384 H 219.603 0.959413 -4.7817 0
M  V30 2385 H 218.608 -1.27475 -5.34818 0
M  V30 2386 H 219.833 -1.50178 -6.62286 0
M  V30 2387 H 217.779 0.739791 -6.51815 0
M  V30 2388 H 217.696 -0.664321 -7.53076 0
M  V30 2389 H 218.964 0.498644 -7.77903 0
M  V30 2390 N 223.193 1.4272 -0.668489 0
M  V30 2391 C 224.604 1.84793 -0.266151 0
M  V30 2392 C 224.955 1.55959 1.19043 0
M  V30 2393 O 224.08 1.01622 1.91055 0
M  V30 2394 C 224.675 3.35436 -0.476271 0
M  V30 2395 C 223.234 3.76182 -0.128113 0
M  V30 2396 C 222.381 2.66344 -0.771777 0
M  V30 2397 H 225.332 1.32656 -0.871098 0
M  V30 2398 H 225.353 3.79515 0.273561 0
M  V30 2399 H 224.865 3.5639 -1.53647 0
M  V30 2400 H 222.966 3.60836 0.928891 0
M  V30 2401 H 223.079 4.75766 -0.564231 0
M  V30 2402 H 221.443 2.53885 -0.203652 0
M  V30 2403 H 222.226 2.90123 -1.83531 0
M  V30 2404 N 224.671 0.411399 1.52136 0
M  V30 2405 C 225.917 -0.163888 2.02137 0
M  V30 2406 C 226.25 -1.44597 1.29636 0
M  V30 2407 O 225.525 -1.90272 0.403353 0
M  V30 2408 C 225.808 -0.40927 3.57767 0
M  V30 2409 C 225.661 0.889643 4.40914 0
M  V30 2410 C 226.98 -1.19042 4.23694 0
M  V30 2411 H 224.099 -0.0580896 0.734707 0
M  V30 2412 H 226.741 0.54531 1.82007 0
M  V30 2413 H 224.891 -1.0134 3.7505 0
M  V30 2414 H 226.563 1.52575 4.35337 0
M  V30 2415 H 224.806 1.50011 4.07037 0
M  V30 2416 H 225.477 0.672314 5.4789 0
M  V30 2417 H 227.953 -0.678942 4.10524 0
M  V30 2418 H 226.829 -1.33086 5.32522 0
M  V30 2419 H 227.09 -2.21166 3.82803 0
M  V30 2420 N 226.149 -1.5696 0.141893 0
M  V30 2421 C 227.377 -2.00322 -0.517579 0
M  V30 2422 C 227.792 -1.02193 -1.58752 0
M  V30 2423 O 227.149 -0.0181619 -1.82491 0
M  V30 2424 C 227.2 -3.43618 -1.12289 0
M  V30 2425 O 226.921 -4.37995 -0.0956929 0
M  V30 2426 C 228.422 -4.02231 -1.86347 0
M  V30 2427 H 225.642 -0.657243 -0.135177 0
M  V30 2428 H 228.186 -2.03146 0.234973 0
M  V30 2429 H 226.341 -3.41662 -1.82609 0
M  V30 2430 H 226.755 -5.21729 -0.538469 0
M  V30 2431 H 228.229 -5.04509 -2.23997 0
M  V30 2432 H 228.706 -3.42655 -2.74744 0
M  V30 2433 H 229.312 -4.07802 -1.20737 0
M  V30 2434 N 227.627 0.131896 -1.57047 0
M  V30 2435 C 228.855 0.856461 -1.88341 0
M  V30 2436 C 229.27 1.74042 -0.731757 0
M  V30 2437 O 228.627 1.80051 0.297945 0
M  V30 2438 C 228.678 1.70064 -3.18999 0
M  V30 2439 O 228.399 0.852278 -4.2973 0
M  V30 2440 C 229.9 2.53148 -3.63911 0
M  V30 2441 H 227.12 0.246885 -0.62393 0
M  V30 2442 H 229.664 0.120152 -2.04147 0
M  V30 2443 H 227.819 2.38984 -3.04902 0
M  V30 2444 H 228.233 1.43329 -5.04537 0
M  V30 2445 H 229.707 3.07931 -4.58129 0
M  V30 2446 H 230.184 3.29901 -2.89935 0
M  V30 2447 H 230.79 1.89492 -3.80753 0
M  V30 2448 N 229.106 1.52395 0.401703 0
M  V30 2449 C 230.354 1.66488 1.14569 0
M  V30 2450 C 230.675 0.400897 1.90835 0
M  V30 2451 O 229.945 -0.584415 1.8698 0
M  V30 2452 H 228.525 0.613672 0.425929 0
M  V30 2453 H 231.187 1.89464 0.457093 0
M  V30 2454 H 230.283 2.50942 1.85566 0
M  V30 2455 N 230.584 -0.659388 1.43143 0
M  V30 2456 C 231.83 -1.42145 1.44647 0
M  V30 2457 C 232.163 -1.9408 0.0681907 0
M  V30 2458 O 231.438 -1.71899 -0.910007 0
M  V30 2459 C 231.721 -2.60735 2.48373 0
M  V30 2460 C 231.574 -2.14332 3.95451 0
M  V30 2461 C 232.893 -3.62951 2.48906 0
M  V30 2462 H 230.012 -0.51552 0.526696 0
M  V30 2463 H 232.654 -0.748069 1.74654 0
M  V30 2464 H 230.804 -3.18184 2.22916 0
M  V30 2465 H 232.476 -1.61932 4.31944 0
M  V30 2466 H 230.719 -1.4576 4.08578 0
M  V30 2467 H 231.39 -2.99583 4.63631 0
M  V30 2468 H 233.866 -3.1525 2.71582 0
M  V30 2469 H 232.742 -4.43487 3.23435 0
M  V30 2470 H 233.003 -4.15126 1.52061 0
M  V30 2471 N 232.062 -1.29571 -0.897171 0
M  V30 2472 C 233.287 -1.20705 -1.68656 0
M  V30 2473 C 233.712 0.228582 -1.86706 0
M  V30 2474 O 233.07 1.16494 -1.3892 0
M  V30 2475 C 233.118 -1.9282 -3.04717 0
M  V30 2476 O 232.222 -1.24697 -3.93096 0
M  V30 2477 H 231.563 -0.418126 -0.515816 0
M  V30 2478 H 234.093 -1.71183 -1.12061 0
M  V30 2479 H 234.103 -2.01372 -3.54843 0
M  V30 2480 H 232.778 -2.97239 -2.90899 0
M  V30 2481 H 231.355 -1.2442 -3.51531 0
M  V30 2482 N 233.54 1.10788 -1.12088 0
M  V30 2483 C 234.45 2.20599 -0.798338 0
M  V30 2484 C 235.466 1.72712 0.21135 0
M  V30 2485 O 236.642 2.01348 0.0458477 0
M  V30 2486 C 233.707 3.45771 -0.253674 0
M  V30 2487 C 232.768 4.08411 -1.32283 0
M  V30 2488 C 232.001 5.27608 -0.80406 0
M  V30 2489 O 232.224 5.69241 0.363478 0
M  V30 2490 O 231.158 5.8101 -1.57198 0
M  V30 2491 H 234.984 2.50614 -1.7154 0
M  V30 2492 H 232.569 1.19454 -0.897275 0
M  V30 2493 H 234.451 4.21376 0.0453691 0
M  V30 2494 H 233.126 3.1739 0.636005 0
M  V30 2495 H 232.033 3.34507 -1.67499 0
M  V30 2496 H 233.366 4.40986 -2.18614 0
M  V30 2497 N 235.018 0.912232 1.28515 0
M  V30 2498 C 236.246 0.560416 1.99166 0
M  V30 2499 C 236.661 -0.857927 1.68182 0
M  V30 2500 O 236.018 -1.56805 0.933733 0
M  V30 2501 C 236.069 0.758142 3.53461 0
M  V30 2502 O 235.79 2.12067 3.83352 0
M  V30 2503 C 237.291 0.412954 4.41372 0
M  V30 2504 H 234.511 0.213805 0.636026 0
M  V30 2505 H 237.055 1.22502 1.63749 0
M  V30 2506 H 235.21 0.140556 3.87145 0
M  V30 2507 H 235.624 2.15923 4.77993 0
M  V30 2508 H 237.098 0.60208 5.48707 0
M  V30 2509 H 237.575 -0.65073 4.34353 0
M  V30 2510 H 238.181 1.00802 4.13182 0
M  V30 2511 N 236.496 -1.42363 0.676048 0
M  V30 2512 C 237.742 -2.0182 0.199125 0
M  V30 2513 C 238.075 -1.53339 -1.19168 0
M  V30 2514 O 237.35 -0.736124 -1.80032 0
M  V30 2515 C 237.633 -3.59331 0.235144 0
M  V30 2516 C 237.486 -4.17989 1.66149 0
M  V30 2517 C 238.805 -4.3813 -0.41595 0
M  V30 2518 H 235.924 -0.733293 0.0738311 0
M  V30 2519 H 238.566 -1.69368 0.86107 0
M  V30 2520 H 236.716 -3.87109 -0.328487 0
M  V30 2521 H 238.388 -4.0116 2.27747 0
M  V30 2522 H 236.631 -3.7377 2.20178 0
M  V30 2523 H 237.302 -5.27126 1.63837 0
M  V30 2524 H 239.778 -4.16051 0.0638529 0
M  V30 2525 H 238.654 -5.47717 -0.360115 0
M  V30 2526 H 238.915 -4.16101 -1.49373 0
M  V30 2527 N 237.974 -0.419461 -1.51915 0
M  V30 2528 C 239.221 0.152939 -2.01922 0
M  V30 2529 C 239.549 1.4426 -1.30458 0
M  V30 2530 O 238.804 1.91514 -0.402593 0
M  V30 2531 C 239.103 0.437067 -3.54717 0
M  V30 2532 C 238.769 -0.764632 -4.44369 0
M  V30 2533 C 237.431 -1.09423 -4.68594 0
M  V30 2534 C 239.783 -1.56713 -4.97082 0
M  V30 2535 C 237.111 -2.22732 -5.42777 0
M  V30 2536 C 239.463 -2.69107 -5.72507 0
M  V30 2537 C 238.127 -3.02541 -5.95 0
M  V30 2538 H 237.397 0.0559644 -0.738884 0
M  V30 2539 H 240.044 -0.562998 -1.83037 0
M  V30 2540 H 238.349 1.23469 -3.71837 0
M  V30 2541 H 240.046 0.893083 -3.90928 0
M  V30 2542 H 236.636 -0.497775 -4.257 0
M  V30 2543 H 240.82 -1.32571 -4.78266 0
M  V30 2544 H 236.076 -2.48971 -5.58411 0
M  V30 2545 H 240.25 -3.31671 -6.12346 0
M  V30 2546 H 237.877 -3.90457 -6.52264 0
M  V30 2547 N 239.452 1.56882 -0.150215 0
M  V30 2548 C 240.382 2.19935 0.784284 0
M  V30 2549 C 241.363 1.14854 1.25469 0
M  V30 2550 O 242.548 1.43209 1.31168 0
M  V30 2551 C 239.678 2.82349 2.02229 0
M  V30 2552 C 238.632 3.93285 1.68853 0
M  V30 2553 C 237.958 4.42649 2.99944 0
M  V30 2554 C 239.258 5.13904 0.932714 0
M  V30 2555 H 240.952 2.9828 0.258781 0
M  V30 2556 H 238.498 1.43473 0.123029 0
M  V30 2557 H 240.451 3.25126 2.68088 0
M  V30 2558 H 239.175 2.0134 2.57157 0
M  V30 2559 H 237.834 3.5113 1.05371 0
M  V30 2560 H 237.482 3.58458 3.52869 0
M  V30 2561 H 237.182 5.17476 2.78374 0
M  V30 2562 H 238.706 4.88099 3.66868 0
M  V30 2563 H 240.12 5.53506 1.49345 0
M  V30 2564 H 238.517 5.94515 0.81684 0
M  V30 2565 H 239.587 4.84842 -0.0749568 0
M  V30 2566 N 240.93 -0.123565 1.57115 0
M  V30 2567 C 242.341 -0.681198 1.73829 0
M  V30 2568 C 242.692 -1.80535 0.768214 0
M  V30 2569 O 241.817 -2.16317 -0.0599103 0
M  V30 2570 C 242.412 -1.24246 3.15196 0
M  V30 2571 C 240.971 -1.74643 3.33432 0
M  V30 2572 C 240.118 -0.644284 2.69711 0
M  V30 2573 H 243.069 0.102315 1.5837 0
M  V30 2574 H 243.09 -2.11216 3.16493 0
M  V30 2575 H 242.602 -0.424062 3.85776 0
M  V30 2576 H 240.703 -2.58974 2.67886 0
M  V30 2577 H 240.816 -1.85902 4.41562 0
M  V30 2578 H 239.18 -1.07676 2.3082 0
M  V30 2579 H 239.963 0.163058 3.42913 0
M  V30 2580 N 242.408 -1.52605 -0.393616 0
M  V30 2581 C 243.824 -1.41753 -0.733357 0
M  V30 2582 C 244.024 -0.534293 -1.94287 0
M  V30 2583 O 243.08 -0.0059787 -2.52499 0
M  V30 2584 C 244.393 -2.84531 -0.972772 0
M  V30 2585 C 245.941 -2.93978 -1.07453 0
M  V30 2586 C 246.416 -4.37756 -1.3466 0
M  V30 2587 N 247.907 -4.4106 -1.41492 0
M  V30 2588 C 248.642 -5.49387 -1.642 0
M  V30 2589 N 248.138 -6.67806 -1.8441 0
M  V30 2590 N 249.931 -5.36923 -1.66342 0
M  V30 2591 H 242.082 -2.08555 0.402328 0
M  V30 2592 H 244.345 -0.940654 0.117789 0
M  V30 2593 H 244.051 -3.51353 -0.156204 0
M  V30 2594 H 243.925 -3.26508 -1.88871 0
M  V30 2595 H 246.312 -2.27326 -1.88167 0
M  V30 2596 H 246.393 -2.55435 -0.136605 0
M  V30 2597 H 246.037 -5.04972 -0.544581 0
M  V30 2598 H 245.967 -4.73848 -2.2973 0
M  V30 2599 H 248.458 -3.55705 -1.27601 0
M  V30 2600 H 248.771 -7.46141 -2.01231 0
M  V30 2601 H 247.116 -6.70843 -1.81644 0
M  V30 2602 H 250.307 -4.43381 -1.50102 0
M  V30 2603 H 250.48 -6.21416 -1.837 0
M  V30 2604 N 243.887 0.651787 -1.4349 0
M  V30 2605 C 244.797 1.79368 -1.5121 0
M  V30 2606 C 245.813 1.69361 -0.399093 0
M  V30 2607 O 246.989 1.90505 -0.653431 0
M  V30 2608 C 244.054 3.15653 -1.43401 0
M  V30 2609 C 243.115 3.37446 -2.65384 0
M  V30 2610 C 242.348 4.67229 -2.57939 0
M  V30 2611 O 242.571 5.46676 -1.62792 0
M  V30 2612 O 241.505 4.90773 -3.48462 0
M  V30 2613 H 245.331 1.7581 -2.47638 0
M  V30 2614 H 242.916 0.810447 -1.25507 0
M  V30 2615 H 244.798 3.96935 -1.41494 0
M  V30 2616 H 243.473 3.19798 -0.501085 0
M  V30 2617 H 242.38 2.55923 -2.72863 0
M  V30 2618 H 243.713 3.38148 -3.57654 0
M  V30 2619 N 245.365 1.30045 0.890287 0
M  V30 2620 C 246.642 1.09227 1.62262 0
M  V30 2621 C 247.022 -0.360305 2.08002 0
M  V30 2622 O 246.37 -1.35084 1.84295 0
M  V30 2623 C 246.58 2.08835 2.79623 0
M  V30 2624 C 247.928 2.40266 3.50082 0
M  V30 2625 O 248.952 2.07104 2.89804 0
M  V30 2626 O 247.811 2.96967 4.58773 0
M  V30 2627 H 244.905 0.419132 0.712922 0
M  V30 2628 H 247.451 1.41451 0.937529 0
M  V30 2629 H 246.223 3.06633 2.43089 0
M  V30 2630 H 245.846 1.77397 3.55832 0
M  V30 2631 N 246.843 -1.10192 1.12674 0
M  V30 2632 C 247.793 -2.14754 0.765801 0
M  V30 2633 C 248.777 -1.59154 -0.236409 0
M  V30 2634 O 249.969 -1.76951 -0.0415261 0
M  V30 2635 C 247.098 -3.42563 0.224827 0
M  V30 2636 C 246.184 -4.05091 1.25548 0
M  V30 2637 N 246.575 -4.42287 2.4539 0
M  V30 2638 C 244.873 -4.32186 1.10142 0
M  V30 2639 C 245.574 -4.91441 3.11224 0
M  V30 2640 N 244.55 -4.88405 2.38666 0
M  V30 2641 H 248.352 -2.41309 1.67772 0
M  V30 2642 H 245.866 -1.27339 1.00789 0
M  V30 2643 H 247.863 -4.16868 -0.0519578 0
M  V30 2644 H 246.523 -3.17467 -0.681515 0
M  V30 2645 H 247.534 -4.33902 2.82754 0
M  V30 2646 H 244.211 -4.16735 0.252587 0
M  V30 2647 H 245.601 -5.29749 4.13298 0
M  V30 2648 N 248.321 -0.919034 -1.28029 0
M  V30 2649 C 249.251 -0.428581 -2.29533 0
M  V30 2650 C 250.232 0.50659 -1.62381 0
M  V30 2651 O 251.417 0.413195 -1.89753 0
M  V30 2652 C 248.547 0.327388 -3.45753 0
M  V30 2653 C 247.501 -0.519137 -4.2484 0
M  V30 2654 C 246.827 0.365486 -5.33449 0
M  V30 2655 C 248.127 -1.77914 -4.91064 0
M  V30 2656 H 249.821 -1.27687 -2.70807 0
M  V30 2657 H 247.367 -0.615428 -1.30186 0
M  V30 2658 H 249.32 0.681378 -4.15855 0
M  V30 2659 H 248.044 1.20963 -3.03374 0
M  V30 2660 H 246.703 -0.855717 -3.56473 0
M  V30 2661 H 246.351 1.24642 -4.87312 0
M  V30 2662 H 246.051 -0.197356 -5.87268 0
M  V30 2663 H 247.575 0.715241 -6.06396 0
M  V30 2664 H 248.989 -1.49374 -5.53498 0
M  V30 2665 H 247.386 -2.2848 -5.54903 0
M  V30 2666 H 248.456 -2.50382 -4.15255 0
M  V30 2667 N 249.799 1.42003 -0.683588 0
M  V30 2668 C 251.046 2.01413 -0.209514 0
M  V30 2669 C 251.374 1.54088 1.1869 0
M  V30 2670 O 250.629 0.737591 1.81268 0
M  V30 2671 C 250.928 3.56827 -0.202357 0
M  V30 2672 C 250.594 4.23617 -1.54464 0
M  V30 2673 C 249.256 4.41577 -1.91215 0
M  V30 2674 C 251.608 4.61178 -2.42826 0
M  V30 2675 C 248.936 4.9437 -3.15935 0
M  V30 2676 C 251.288 5.15355 -3.66867 0
M  V30 2677 C 249.952 5.31528 -4.03776 0
M  V30 2678 H 249.222 0.737023 -0.0766668 0
M  V30 2679 H 251.869 1.70067 -0.880312 0
M  V30 2680 H 250.174 3.87892 0.551969 0
M  V30 2681 H 251.871 4.00588 0.181793 0
M  V30 2682 H 248.461 4.10004 -1.24877 0
M  V30 2683 H 252.645 4.46968 -2.15717 0
M  V30 2684 H 247.901 5.05076 -3.44541 0
M  V30 2685 H 252.075 5.43402 -4.35531 0
M  V30 2686 H 249.702 5.72199 -5.00492 0
M  V30 2687 N 251.277 0.427512 1.51691 0
M  V30 2688 C 252.693 0.0792977 1.59403 0
M  V30 2689 C 252.893 -1.41035 1.43914 0
M  V30 2690 O 251.949 -2.17922 1.27539 0
M  V30 2691 C 253.262 0.590636 2.94842 0
M  V30 2692 C 254.81 0.550215 3.08126 0
M  V30 2693 C 255.285 1.03836 4.46074 0
M  V30 2694 N 256.776 0.995943 4.52366 0
M  V30 2695 C 257.511 1.34463 5.57411 0
M  V30 2696 N 257.007 1.76569 6.69922 0
M  V30 2697 N 258.8 1.26343 5.47717 0
M  V30 2698 H 250.951 1.39687 1.60004 0
M  V30 2699 H 253.214 0.575003 0.753708 0
M  V30 2700 H 252.92 1.63251 3.11516 0
M  V30 2701 H 252.794 0.0102061 3.77199 0
M  V30 2702 H 255.181 -0.482654 2.91126 0
M  V30 2703 H 255.262 1.16693 2.27632 0
M  V30 2704 H 254.906 2.06965 4.63819 0
M  V30 2705 H 254.836 0.398286 5.25092 0
M  V30 2706 H 257.327 0.68661 3.7161 0
M  V30 2707 H 257.64 2.01438 7.46085 0
M  V30 2708 H 255.985 1.80488 6.71155 0
M  V30 2709 H 259.176 0.933209 4.58703 0
M  V30 2710 H 259.349 1.53846 6.29472 0
M  V30 2711 N 252.755 -1.56801 0.158532 0
M  V30 2712 C 253.702 -2.17337 -0.776729 0
M  V30 2713 C 254.672 -1.1096 -1.23601 0
M  V30 2714 O 255.857 -1.39054 -1.30647 0
M  V30 2715 C 252.997 -2.80822 -2.00582 0
M  V30 2716 C 252.11 -4.01624 -1.59129 0
M  V30 2717 C 251.245 -4.53072 -2.77306 0
M  V30 2718 C 250.284 -5.66314 -2.32282 0
M  V30 2719 N 249.421 -6.12329 -3.43508 0
M  V30 2720 H 254.261 -2.96918 -0.253701 0
M  V30 2721 H 251.798 -1.46661 -0.113504 0
M  V30 2722 H 253.756 -3.15779 -2.72652 0
M  V30 2723 H 252.386 -2.03866 -2.50277 0
M  V30 2724 H 251.438 -3.72571 -0.767806 0
M  V30 2725 H 252.75 -4.83633 -1.2207 0
M  V30 2726 H 251.904 -4.90145 -3.57551 0
M  V30 2727 H 250.643 -3.70095 -3.17617 0
M  V30 2728 H 249.648 -5.28806 -1.5048 0
M  V30 2729 H 250.873 -6.51085 -1.93043 0
M  V30 2730 H 248.819 -5.32284 -3.83418 0
M  V30 2731 H 248.736 -6.89293 -3.105 0
M  V30 2732 H 250.004 -6.5405 -4.24075 0
M  V30 2733 N 254.233 0.115231 -1.57178 0
M  V30 2734 C 255.48 0.822351 -1.8505 0
M  V30 2735 C 255.808 1.79701 -0.744168 0
M  V30 2736 O 255.063 1.93909 0.26414 0
M  V30 2737 C 255.362 1.60324 -3.19423 0
M  V30 2738 C 255.028 0.772536 -4.44233 0
M  V30 2739 C 253.69 0.543468 -4.78121 0
M  V30 2740 C 256.042 0.193746 -5.2084 0
M  V30 2741 C 253.37 -0.274583 -5.86057 0
M  V30 2742 C 255.722 -0.611517 -6.29637 0
M  V30 2743 C 254.386 -0.850867 -6.62055 0
M  V30 2744 H 253.656 0.30092 -0.677147 0
M  V30 2745 H 256.303 0.0845802 -1.91313 0
M  V30 2746 H 254.608 2.41203 -3.08753 0
M  V30 2747 H 256.305 2.1544 -3.38211 0
M  V30 2748 H 252.895 0.96117 -4.17683 0
M  V30 2749 H 257.079 0.357926 -4.95008 0
M  V30 2750 H 252.335 -0.469206 -6.09597 0
M  V30 2751 H 256.509 -1.06697 -6.88178 0
M  V30 2752 H 254.136 -1.48657 -7.45523 0
M  V30 2753 N 255.711 1.52812 0.385517 0
M  V30 2754 C 256.661 1.74219 1.47078 0
M  V30 2755 C 257.645 0.59632 1.49442 0
M  V30 2756 O 258.837 0.85428 1.5502 0
M  V30 2757 C 255.966 1.9176 2.84751 0
M  V30 2758 C 255.052 3.12289 2.86943 0
M  V30 2759 N 255.443 4.34575 2.58802 0
M  V30 2760 C 253.741 3.12605 3.1811 0
M  V30 2761 C 254.442 5.162 2.68166 0
M  V30 2762 N 253.418 4.51964 3.02043 0
M  V30 2763 H 257.22 2.6639 1.24152 0
M  V30 2764 H 254.734 1.51166 0.593504 0
M  V30 2765 H 256.731 2.05218 3.62893 0
M  V30 2766 H 255.391 1.00805 3.08656 0
M  V30 2767 H 256.402 4.62649 2.32759 0
M  V30 2768 H 253.079 2.31472 3.47458 0
M  V30 2769 H 254.469 6.23689 2.49923 0
M  V30 2770 N 257.189 -0.644168 1.43834 0
M  V30 2771 C 258.419 -1.42939 1.49171 0
M  V30 2772 C 258.827 -1.88874 0.111048 0
M  V30 2773 O 258.17 -1.60656 -0.8908 0
M  V30 2774 C 258.232 -2.69151 2.38324 0
M  V30 2775 C 257.896 -2.45097 3.85715 0
M  V30 2776 C 258.893 -2.07747 4.76589 0
M  V30 2777 C 256.578 -2.59141 4.30292 0
M  V30 2778 C 258.572 -1.8475 6.10038 0
M  V30 2779 C 256.259 -2.35759 5.63792 0
M  V30 2780 C 257.257 -1.9862 6.53482 0
M  V30 2781 O 256.945 -1.75489 7.84512 0
M  V30 2782 H 256.677 -0.445271 0.508635 0
M  V30 2783 H 259.231 -0.79621 1.8934 0
M  V30 2784 H 257.461 -3.3506 1.93058 0
M  V30 2785 H 259.15 -3.31123 2.3476 0
M  V30 2786 H 259.916 -1.96465 4.43426 0
M  V30 2787 H 255.795 -2.87022 3.60749 0
M  V30 2788 H 259.339 -1.55686 6.80006 0
M  V30 2789 H 255.236 -2.46646 5.9652 0
M  V30 2790 H 256.004 -1.89841 7.9618 0
M  V30 2791 N 258.668 -1.30515 -0.883378 0
M  V30 2792 C 259.598 -1.19607 -2.00541 0
M  V30 2793 C 260.579 -0.086346 -1.69881 0
M  V30 2794 O 261.764 -0.268654 -1.92333 0
M  V30 2795 C 258.894 -0.888758 -3.35736 0
M  V30 2796 C 257.848 -1.95659 -3.8066 0
M  V30 2797 C 257.174 -1.50224 -5.13164 0
M  V30 2798 C 258.474 -3.36788 -3.99213 0
M  V30 2799 H 260.168 -2.13476 -2.09925 0
M  V30 2800 H 257.714 -1.02775 -1.00863 0
M  V30 2801 H 259.667 -0.799094 -4.13754 0
M  V30 2802 H 258.391 0.0856125 -3.26488 0
M  V30 2803 H 257.05 -2.03591 -3.04871 0
M  V30 2804 H 256.698 -0.516092 -5.00345 0
M  V30 2805 H 256.398 -2.2165 -5.44192 0
M  V30 2806 H 257.922 -1.42639 -5.93706 0
M  V30 2807 H 259.336 -3.31605 -4.67665 0
M  V30 2808 H 257.733 -4.06314 -4.41621 0
M  V30 2809 H 258.803 -3.78561 -3.03017 0
M  V30 2810 N 260.146 1.09593 -1.13257 0
M  V30 2811 C 261.557 1.63229 -0.906274 0
M  V30 2812 C 261.908 1.8811 0.557578 0
M  V30 2813 O 261.033 1.62953 1.42391 0
M  V30 2814 C 261.628 2.96535 -1.63867 0
M  V30 2815 C 260.187 3.47003 -1.45828 0
M  V30 2816 C 259.334 2.2145 -1.66898 0
M  V30 2817 H 262.285 0.92978 -1.28611 0
M  V30 2818 H 262.306 3.64411 -1.09476 0
M  V30 2819 H 261.818 2.78394 -2.70404 0
M  V30 2820 H 259.919 3.70272 -0.415848 0
M  V30 2821 H 260.032 4.24551 -2.2202 0
M  V30 2822 H 258.396 2.30022 -1.09371 0
M  V30 2823 H 259.179 2.0583 -2.74752 0
M  V30 2824 N 261.624 0.925811 1.2754 0
M  V30 2825 C 262.871 0.565255 1.94451 0
M  V30 2826 C 263.199 -0.89316 1.7278 0
M  V30 2827 O 262.454 -1.65213 1.04895 0
M  V30 2828 C 262.753 0.835296 3.47502 0
M  V30 2829 C 262.419 2.27515 3.89291 0
M  V30 2830 C 261.081 2.66879 4.00411 0
M  V30 2831 C 263.433 3.21158 4.10496 0
M  V30 2832 C 260.761 3.99014 4.30122 0
M  V30 2833 C 263.113 4.52871 4.4169 0
M  V30 2834 C 261.777 4.92072 4.51023 0
M  V30 2835 H 261.047 0.206841 0.711546 0
M  V30 2836 H 263.694 1.16942 1.51647 0
M  V30 2837 H 261.999 0.148442 3.91519 0
M  V30 2838 H 263.696 0.535322 3.97411 0
M  V30 2839 H 260.286 1.95976 3.81171 0
M  V30 2840 H 264.47 2.9195 4.01346 0
M  V30 2841 H 259.726 4.2907 4.35556 0
M  V30 2842 H 263.9 5.25436 4.57045 0
M  V30 2843 H 261.527 5.9449 4.738 0
M  V30 2844 N 263.102 -1.41638 0.69111 0
M  V30 2845 C 264.032 -2.3347 0.037248 0
M  V30 2846 C 265.013 -1.51575 -0.771947 0
M  V30 2847 O 266.198 -1.80126 -0.72582 0
M  V30 2848 C 263.328 -3.35354 -0.903064 0
M  V30 2849 C 262.282 -4.27526 -0.201288 0
M  V30 2850 C 261.608 -5.19747 -1.25565 0
M  V30 2851 C 262.908 -5.13959 0.929689 0
M  V30 2852 H 264.602 -2.88397 0.804227 0
M  V30 2853 H 262.148 -1.38669 0.388189 0
M  V30 2854 H 264.101 -3.98519 -1.36969 0
M  V30 2855 H 262.825 -2.78767 -1.70166 0
M  V30 2856 H 261.484 -3.65779 0.245265 0
M  V30 2857 H 261.132 -4.59479 -2.04666 0
M  V30 2858 H 260.832 -5.8225 -0.791128 0
M  V30 2859 H 262.356 -5.85789 -1.72288 0
M  V30 2860 H 263.77 -5.70718 0.543546 0
M  V30 2861 H 262.167 -5.85379 1.32103 0
M  V30 2862 H 263.237 -4.51389 1.77133 0
M  V30 2863 N 264.58 -0.43555 -1.51462 0
M  V30 2864 C 265.991 0.0279871 -1.86679 0
M  V30 2865 C 266.342 1.42104 -1.35281 0
M  V30 2866 O 265.467 2.04667 -0.702878 0
M  V30 2867 C 266.062 0.0575626 -3.38751 0
M  V30 2868 C 264.621 0.465507 -3.7351 0
M  V30 2869 C 263.768 -0.342996 -2.75171 0
M  V30 2870 H 266.719 -0.651473 -1.44712 0
M  V30 2871 H 266.74 0.867421 -3.70481 0
M  V30 2872 H 266.252 -0.956448 -3.7613 0
M  V30 2873 H 264.353 1.48519 -3.41721 0
M  V30 2874 H 264.466 0.191546 -4.78717 0
M  V30 2875 H 262.83 0.198442 -2.53926 0
M  V30 2876 H 263.613 -1.35585 -3.15391 0
M  V30 2877 N 266.058 1.56714 -0.166846 0
M  V30 2878 C 267.283 2.01557 0.488833 0
M  V30 2879 C 267.708 1.0463 1.56314 0
M  V30 2880 O 267.066 0.0251304 1.81283 0
M  V30 2881 C 267.114 3.4503 1.04818 0
M  V30 2882 O 266.218 3.51163 2.16236 0
M  V30 2883 H 265.559 0.653516 0.117526 0
M  V30 2884 H 268.089 2.02818 -0.269421 0
M  V30 2885 H 268.099 3.84243 1.37191 0
M  V30 2886 H 266.774 4.15077 0.261572 0
M  V30 2887 H 265.351 3.23807 1.84942 0
M  V30 2888 N 267.536 -0.106894 1.57237 0
M  V30 2889 C 268.764 -0.826389 1.8968 0
M  V30 2890 C 269.179 -1.72856 0.759353 0
M  V30 2891 O 268.536 -1.80503 -0.269263 0
M  V30 2892 C 268.587 -1.64967 3.21665 0
M  V30 2893 O 268.308 -0.783804 4.31031 0
M  V30 2894 C 269.809 -2.47326 3.67892 0
M  V30 2895 H 267.029 -0.236927 0.627779 0
M  V30 2896 H 269.573 -0.0876593 2.04312 0
M  V30 2897 H 267.728 -2.34103 3.08666 0
M  V30 2898 H 268.142 -1.35284 5.06753 0
M  V30 2899 H 269.616 -3.00604 4.6297 0
M  V30 2900 H 270.093 -3.25247 2.95146 0
M  V30 2901 H 270.699 -1.83411 3.83719 0
M  V30 2902 N 269.014 -1.53014 -0.377408 0
M  V30 2903 C 269.924 -1.81557 -1.48574 0
M  V30 2904 C 270.94 -0.703102 -1.59162 0
M  V30 2905 O 272.116 -0.99192 -1.75279 0
M  V30 2906 C 269.181 -1.9889 -2.83978 0
M  V30 2907 C 268.242 -3.22801 -2.83016 0
M  V30 2908 C 267.475 -3.39298 -4.11962 0
M  V30 2909 O 267.698 -2.60345 -5.0752 0
M  V30 2910 O 266.632 -4.32604 -4.18494 0
M  V30 2911 H 270.458 -2.75695 -1.27382 0
M  V30 2912 H 268.043 -1.38248 -0.566373 0
M  V30 2913 H 269.925 -2.11931 -3.6423 0
M  V30 2914 H 268.6 -1.07942 -3.05172 0
M  V30 2915 H 267.507 -3.15193 -2.01505 0
M  V30 2916 H 268.84 -4.13632 -2.66775 0
M  V30 2917 N 270.492 0.636531 -1.44174 0
M  V30 2918 C 271.769 1.39463 -1.37148 0
M  V30 2919 C 272.149 2.11082 -0.027507 0
M  V30 2920 O 271.497 2.05954 0.989716 0
M  V30 2921 C 271.707 2.36552 -2.56601 0
M  V30 2922 C 273.055 3.00048 -3.00427 0
M  V30 2923 O 274.079 2.46878 -2.56767 0
M  V30 2924 O 272.938 3.96488 -3.76111 0
M  V30 2925 H 270.032 0.623903 -0.542839 0
M  V30 2926 H 272.578 0.662039 -1.56253 0
M  V30 2927 H 271.35 1.82692 -3.46034 0
M  V30 2928 H 270.973 3.17236 -2.39681 0
M  V30 2929 N 271.97 1.30982 0.876444 0
M  V30 2930 C 273.216 1.20474 1.63138 0
M  V30 2931 C 273.549 -0.238096 1.92735 0
M  V30 2932 O 272.824 -1.1692 1.55435 0
M  V30 2933 C 273.107 2.04244 2.96574 0
M  V30 2934 C 272.96 3.56793 2.73896 0
M  V30 2935 C 274.279 1.88684 3.97601 0
M  V30 2936 H 271.398 0.439001 0.591985 0
M  V30 2937 H 274.04 1.60704 1.01361 0
M  V30 2938 H 272.19 1.70063 3.493 0
M  V30 2939 H 273.862 4.01077 2.27892 0
M  V30 2940 H 272.105 3.80548 2.08245 0
M  V30 2941 H 272.776 4.10706 3.68815 0
M  V30 2942 H 275.252 2.18584 3.54062 0
M  V30 2943 H 274.128 2.4961 4.88862 0
M  V30 2944 H 274.389 0.848343 4.33884 0
M  V30 2945 N 273.449 -1.08991 1.13837 0
M  V30 2946 C 274.679 -1.84743 0.924859 0
M  V30 2947 C 275.087 -1.81629 -0.529874 0
M  V30 2948 O 274.43 -1.21397 -1.37872 0
M  V30 2949 C 274.492 -3.33568 1.34061 0
M  V30 2950 C 274.156 -3.60425 2.80968 0
M  V30 2951 C 275.153 -3.55771 3.79108 0
M  V30 2952 C 272.838 -3.88627 3.18236 0
M  V30 2953 C 274.832 -3.78939 5.12527 0
M  V30 2954 C 272.519 -4.11449 4.51833 0
M  V30 2955 C 273.517 -4.06598 5.48787 0
M  V30 2956 O 273.205 -4.28826 6.79973 0
M  V30 2957 H 272.937 -0.590258 0.329502 0
M  V30 2958 H 275.491 -1.38598 1.51591 0
M  V30 2959 H 273.721 -3.80442 0.692853 0
M  V30 2960 H 275.41 -3.90743 1.09886 0
M  V30 2961 H 276.176 -3.34005 3.51661 0
M  V30 2962 H 272.055 -3.91526 2.43369 0
M  V30 2963 H 275.599 -3.75068 5.88192 0
M  V30 2964 H 271.496 -4.32698 4.79002 0
M  V30 2965 H 272.264 -4.46264 6.86142 0
M  V30 2966 N 274.927 -0.932562 -1.27047 0
M  V30 2967 C 276.204 -0.49377 -1.89265 0
M  V30 2968 C 276.584 1.02833 -1.8436 0
M  V30 2969 O 275.932 1.88461 -1.29209 0
M  V30 2970 C 276.142 -1.04536 -3.32976 0
M  V30 2971 C 277.49 -1.10879 -4.09867 0
M  V30 2972 O 278.514 -0.995327 -3.42011 0
M  V30 2973 O 277.373 -1.28417 -5.31198 0
M  V30 2974 H 274.467 -0.159596 -0.811454 0
M  V30 2975 H 277.013 -1.02457 -1.3528 0
M  V30 2976 H 275.785 -2.08913 -3.30864 0
M  V30 2977 H 275.408 -0.496494 -3.94488 0
M  V30 2978 N 276.405 1.4127 -0.698611 0
M  V30 2979 C 277.645 2.03044 -0.235062 0
M  V30 2980 C 278.009 1.54146 1.14468 0
M  V30 2981 O 279.21 2.07867 1.70425 0
M  V30 2982 C 277.481 3.56192 -0.293651 0
M  V30 2983 S 279.04 4.38696 0.0954053 0
M  V30 2984 H 275.858 0.704697 -0.0944648 0
M  V30 2985 H 278.46 1.72656 -0.917064 0
M  V30 2986 H 277.164 3.89274 -1.29977 0
M  V30 2987 H 276.695 3.91285 0.407397 0
M  V30 2988 H 278.71 4.78257 1.3223 0
M  V30 2989 N 277.883 0.443576 1.51229 0
M  V30 2990 C 279.299 0.0962001 1.5931 0
M  V30 2991 C 279.499 -1.39501 1.45402 0
M  V30 2992 O 278.555 -2.16557 1.29843 0
M  V30 2993 C 279.868 0.621875 2.94199 0
M  V30 2994 C 281.416 0.582865 3.07525 0
M  V30 2995 C 281.891 1.08562 4.44948 0
M  V30 2996 N 283.382 1.04387 4.51284 0
M  V30 2997 C 284.117 1.40368 5.55954 0
M  V30 2998 N 283.613 1.83664 6.68011 0
M  V30 2999 N 285.406 1.32145 5.46346 0
M  V30 3000 H 277.557 1.41376 1.58514 0
M  V30 3001 H 279.82 0.582965 0.747567 0
M  V30 3002 H 279.526 1.66546 3.09767 0
M  V30 3003 H 279.4 0.0502125 3.77167 0
M  V30 3004 H 281.787 -0.451749 2.91622 0
M  V30 3005 H 281.868 1.191 2.26382 0
M  V30 3006 H 281.512 2.11873 4.61598 0
M  V30 3007 H 281.442 0.453956 5.2464 0
M  V30 3008 H 283.933 0.725986 3.70861 0
M  V30 3009 H 284.246 2.0934 7.43906 0
M  V30 3010 H 282.591 1.87596 6.69203 0
M  V30 3011 H 285.782 0.981808 4.57688 0
M  V30 3012 H 285.955 1.60514 6.27805 0
M  V30 3013 N 279.361 -1.56624 0.175154 0
M  V30 3014 C 280.607 -1.9729 -0.469506 0
M  V30 3015 C 280.94 -1.06128 -1.62636 0
M  V30 3016 O 280.215 -0.109183 -1.94193 0
M  V30 3017 C 280.498 -3.47375 -0.948804 0
M  V30 3018 C 280.351 -4.49317 0.208491 0
M  V30 3019 C 281.67 -4.00652 -1.82116 0
M  V30 3020 H 278.789 -0.717317 -0.16919 0
M  V30 3021 H 281.431 -1.88184 0.262062 0
M  V30 3022 H 279.581 -3.55267 -1.57219 0
M  V30 3023 H 281.253 -4.53482 0.845682 0
M  V30 3024 H 279.496 -4.25121 0.863395 0
M  V30 3025 H 280.167 -5.51741 -0.169059 0
M  V30 3026 H 282.643 -3.95416 -1.2956 0
M  V30 3027 H 281.519 -5.06075 -2.12554 0
M  V30 3028 H 281.78 -3.44699 -2.7683 0
M  V30 3029 N 280.839 0.0985539 -1.57292 0
M  V30 3030 C 281.749 1.13824 -2.05137 0
M  V30 3031 C 282.765 1.44076 -0.975604 0
M  V30 3032 O 283.941 1.54786 -1.28853 0
M  V30 3033 C 281.006 2.43969 -2.46333 0
M  V30 3034 C 280.067 2.2093 -3.68087 0
M  V30 3035 C 279.3 3.44869 -4.0731 0
M  V30 3036 O 279.523 4.52972 -3.46659 0
M  V30 3037 O 278.457 3.34661 -5.00285 0
M  V30 3038 H 282.283 0.761881 -2.93988 0
M  V30 3039 H 279.868 0.310818 -1.46131 0
M  V30 3040 H 281.75 3.20609 -2.73473 0
M  V30 3041 H 280.425 2.81038 -1.60621 0
M  V30 3042 H 279.332 1.42081 -3.46069 0
M  V30 3043 H 280.665 1.88755 -4.54568 0
M  V30 3044 N 282.317 1.53212 0.369288 0
M  V30 3045 C 283.267 1.75769 1.45222 0
M  V30 3046 C 284.251 0.612136 1.48801 0
M  V30 3047 O 285.443 0.870674 1.54105 0
M  V30 3048 C 282.572 1.94769 2.82701 0
M  V30 3049 C 281.658 3.15315 2.83615 0
M  V30 3050 N 282.049 4.37295 2.54178 0
M  V30 3051 C 280.347 3.15962 3.14776 0
M  V30 3052 C 281.048 5.19015 2.62675 0
M  V30 3053 N 280.024 4.55142 2.97232 0
M  V30 3054 H 283.826 2.67691 1.2132 0
M  V30 3055 H 281.34 1.51787 0.577438 0
M  V30 3056 H 283.337 2.09056 3.60696 0
M  V30 3057 H 281.997 1.04073 3.07569 0
M  V30 3058 H 283.008 4.65091 2.27839 0
M  V30 3059 H 279.685 2.35144 3.44983 0
M  V30 3060 H 281.075 6.26305 2.43294 0
M  V30 3061 N 283.795 -0.628877 1.44509 0
M  V30 3062 C 285.041 -1.38863 1.48623 0
M  V30 3063 C 285.396 -1.92038 0.117933 0
M  V30 3064 O 284.689 -1.70853 -0.86716 0
M  V30 3065 C 284.883 -2.56995 2.48371 0
M  V30 3066 C 284.712 -2.15385 3.94765 0
M  V30 3067 C 283.482 -2.02558 4.62924 0
M  V30 3068 C 285.68 -1.74158 4.83915 0
M  V30 3069 N 283.662 -1.54534 5.94132 0
M  V30 3070 C 285.033 -1.37396 6.04584 0
M  V30 3071 C 287.088 -1.61559 4.7096 0
M  V30 3072 C 285.791 -0.892948 7.13736 0
M  V30 3073 C 287.817 -1.14862 5.80139 0
M  V30 3074 C 287.179 -0.790516 6.9995 0
M  V30 3075 H 283.278 -0.502858 0.59888 0
M  V30 3076 H 285.862 -0.72121 1.8085 0
M  V30 3077 H 284.033 -3.21362 2.1813 0
M  V30 3078 H 285.765 -3.23801 2.42766 0
M  V30 3079 H 282.52 -2.23082 4.1777 0
M  V30 3080 H 282.944 -1.32815 6.63844 0
M  V30 3081 H 287.586 -1.87876 3.78764 0
M  V30 3082 H 285.304 -0.617291 8.05739 0
M  V30 3083 H 288.89 -1.05569 5.72142 0
M  V30 3084 H 287.77 -0.434713 7.82994 0
M  V30 3085 N 285.273 -1.31445 -0.869486 0
M  V30 3086 C 286.521 -1.20918 -1.61936 0
M  V30 3087 C 286.842 0.232683 -1.93607 0
M  V30 3088 O 286.112 1.15352 -1.58338 0
M  V30 3089 H 284.692 -0.44454 -0.600328 0
M  V30 3090 H 287.354 -1.64776 -1.0409 0
M  V30 3091 H 286.45 -1.78124 -2.56278 0
M  V30 3092 N 286.751 1.08385 -1.14413 0
M  V30 3093 C 287.681 2.17321 -0.854044 0
M  V30 3094 C 288.662 1.69024 0.191049 0
M  V30 3095 O 289.847 1.94141 0.0476779 0
M  V30 3096 C 286.977 3.45719 -0.330983 0
M  V30 3097 C 285.931 4.07409 -1.31155 0
M  V30 3098 C 285.257 5.30762 -0.64778 0
M  V30 3099 C 286.557 4.48665 -2.67388 0
M  V30 3100 H 288.251 2.41845 -1.76498 0
M  V30 3101 H 285.797 1.16233 -0.850051 0
M  V30 3102 H 287.75 4.21241 -0.115645 0
M  V30 3103 H 286.474 3.2075 0.615381 0
M  V30 3104 H 285.133 3.33919 -1.51306 0
M  V30 3105 H 284.781 5.02078 0.304398 0
M  V30 3106 H 284.481 5.72992 -1.30207 0
M  V30 3107 H 286.005 6.08998 -0.441972 0
M  V30 3108 H 287.419 5.15364 -2.51143 0
M  V30 3109 H 285.816 5.01814 -3.29093 0
M  V30 3110 H 286.886 3.60543 -3.24248 0
M  V30 3111 N 288.23 0.939286 1.26551 0
M  V30 3112 C 289.507 0.5038 1.89001 0
M  V30 3113 C 289.887 -1.01854 1.84903 0
M  V30 3114 O 289.235 -1.87773 1.30206 0
M  V30 3115 C 289.445 1.063 3.32417 0
M  V30 3116 C 290.793 1.13051 4.09273 0
M  V30 3117 O 291.817 1.01345 3.41479 0
M  V30 3118 O 290.676 1.31233 5.30509 0
M  V30 3119 H 287.77 0.163897 0.810597 0
M  V30 3120 H 290.316 1.03173 1.34735 0
M  V30 3121 H 289.088 2.10665 3.29752 0
M  V30 3122 H 288.711 0.517408 3.94219 0
M  V30 3123 N 289.708 -1.40897 0.706093 0
M  V30 3124 C 290.618 -2.3455 0.0482286 0
M  V30 3125 C 291.634 -1.56796 -0.754396 0
M  V30 3126 O 292.81 -1.89228 -0.689538 0
M  V30 3127 C 289.875 -3.35625 -0.869303 0
M  V30 3128 C 288.936 -4.29261 -0.0576994 0
M  V30 3129 C 288.169 -5.25508 -0.931531 0
M  V30 3130 O 288.392 -5.27472 -2.17092 0
M  V30 3131 O 287.326 -6.00727 -0.375587 0
M  V30 3132 H 291.152 -2.92407 0.820476 0
M  V30 3133 H 288.737 -1.4193 0.4665 0
M  V30 3134 H 290.619 -3.97635 -1.39514 0
M  V30 3135 H 289.294 -2.80196 -1.62086 0
M  V30 3136 H 288.201 -3.70566 0.512988 0
M  V30 3137 H 289.534 -4.87817 0.655426 0
M  V30 3138 N 291.186 -0.45159 -1.50991 0
M  V30 3139 C 292.597 0.00818571 -1.86698 0
M  V30 3140 C 292.948 1.40661 -1.3678 0
M  V30 3141 O 292.073 2.0391 -0.724546 0
M  V30 3142 C 292.668 0.0216303 -3.38793 0
M  V30 3143 C 291.227 0.425865 -3.73983 0
M  V30 3144 C 290.374 -0.372163 -2.74791 0
M  V30 3145 H 293.325 -0.666785 -1.44013 0
M  V30 3146 H 293.346 0.828078 -3.7138 0
M  V30 3147 H 292.858 -0.996288 -3.75094 0
M  V30 3148 H 290.959 1.44886 -3.43277 0
M  V30 3149 H 291.072 0.140761 -4.78893 0
M  V30 3150 H 289.436 0.171498 -2.54122 0
M  V30 3151 H 290.219 -1.38922 -3.13935 0
M  V30 3152 N 292.664 1.56529 -0.183458 0
M  V30 3153 C 293.594 2.21549 0.737456 0
M  V30 3154 C 294.575 1.17489 1.23005 0
M  V30 3155 O 295.76 1.45959 1.281 0
M  V30 3156 C 292.89 2.86575 1.96194 0
M  V30 3157 C 291.844 3.96778 1.60473 0
M  V30 3158 C 291.17 4.48911 2.90487 0
M  V30 3159 C 292.47 5.15767 0.823497 0
M  V30 3160 H 294.164 2.98761 0.195453 0
M  V30 3161 H 291.71 1.43702 0.0925686 0
M  V30 3162 H 293.663 3.30739 2.61131 0
M  V30 3163 H 292.387 2.06749 2.52828 0
M  V30 3164 H 291.046 3.53286 0.978997 0
M  V30 3165 H 290.694 3.65862 3.45186 0
M  V30 3166 H 290.394 5.23265 2.67335 0
M  V30 3167 H 291.918 4.95771 3.56432 0
M  V30 3168 H 293.332 5.56549 1.37571 0
M  V30 3169 H 291.729 5.96114 0.690551 0
M  V30 3170 H 292.799 4.84574 -0.177782 0
M  V30 3171 N 294.142 -0.090211 1.57342 0
M  V30 3172 C 295.072 -1.10976 2.05443 0
M  V30 3173 C 296.053 -1.41482 0.944284 0
M  V30 3174 O 297.238 -1.51428 1.21586 0
M  V30 3175 C 294.368 -2.42831 2.48295 0
M  V30 3176 C 293.322 -2.26721 3.63018 0
M  V30 3177 C 292.648 -3.63796 3.91863 0
M  V30 3178 C 293.948 -1.7037 4.93732 0
M  V30 3179 H 295.642 -0.709564 2.9087 0
M  V30 3180 H 293.188 -0.339874 1.39932 0
M  V30 3181 H 295.141 -3.14431 2.80555 0
M  V30 3182 H 293.865 -2.84795 1.59873 0
M  V30 3183 H 292.524 -1.57565 3.31012 0
M  V30 3184 H 292.172 -4.03297 3.00601 0
M  V30 3185 H 291.872 -3.53861 4.69101 0
M  V30 3186 H 293.396 -4.36855 4.26603 0
M  V30 3187 H 294.81 -2.31816 5.24342 0
M  V30 3188 H 293.207 -1.71181 5.75167 0
M  V30 3189 H 294.277 -0.663542 4.80339 0
M  V30 3190 N 295.62 -1.53406 -0.361157 0
M  V30 3191 C 296.567 -1.80156 -1.44265 0
M  V30 3192 C 297.537 -0.646183 -1.53015 0
M  V30 3193 O 298.722 -0.888818 -1.68833 0
M  V30 3194 C 295.862 -2.00116 -2.81154 0
M  V30 3195 C 294.975 -3.27833 -2.81335 0
M  V30 3196 C 294.11 -3.37957 -4.09828 0
M  V30 3197 C 293.149 -4.59689 -4.04168 0
M  V30 3198 N 292.286 -4.66942 -5.24318 0
M  V30 3199 H 297.126 -2.72438 -1.20754 0
M  V30 3200 H 294.663 -1.34954 -0.585296 0
M  V30 3201 H 296.621 -2.09677 -3.60682 0
M  V30 3202 H 295.251 -1.11167 -3.03054 0
M  V30 3203 H 294.303 -3.27204 -1.94014 0
M  V30 3204 H 295.615 -4.17442 -2.73027 0
M  V30 3205 H 294.769 -3.46853 -4.97773 0
M  V30 3206 H 293.508 -2.46372 -4.20894 0
M  V30 3207 H 292.513 -4.50889 -3.14609 0
M  V30 3208 H 293.738 -5.5262 -3.947 0
M  V30 3209 H 291.684 -3.7826 -5.35962 0
M  V30 3210 H 291.601 -5.50462 -5.18197 0
M  V30 3211 H 292.869 -4.80127 -6.14084 0
M  V30 3212 N 297.098 0.621204 -1.44841 0
M  V30 3213 C 298.048 1.72663 -1.48901 0
M  V30 3214 C 299.032 1.56964 -0.353702 0
M  V30 3215 O 300.224 1.66532 -0.599669 0
M  V30 3216 C 297.353 3.11381 -1.44557 0
M  V30 3217 C 296.439 3.32514 -2.6324 0
M  V30 3218 N 296.83 3.23969 -3.8843 0
M  V30 3219 C 295.128 3.63343 -2.58647 0
M  V30 3220 C 295.829 3.46062 -4.67564 0
M  V30 3221 N 294.805 3.69407 -3.98797 0
M  V30 3222 H 298.607 1.64529 -2.43531 0
M  V30 3223 H 296.121 0.82401 -1.39942 0
M  V30 3224 H 298.118 3.90667 -1.4555 0
M  V30 3225 H 296.778 3.20674 -0.509731 0
M  V30 3226 H 297.789 3.02669 -4.20252 0
M  V30 3227 H 294.466 3.79556 -1.73906 0
M  V30 3228 H 295.856 3.44963 -5.76585 0
M  V30 3229 N 298.576 1.31904 0.862503 0
M  V30 3230 C 299.822 1.23207 1.61838 0
M  V30 3231 C 300.177 -0.206062 1.91293 0
M  V30 3232 O 299.47 -1.14162 1.53875 0
M  V30 3233 C 299.664 2.01713 2.95037 0
M  V30 3234 C 299.493 3.53014 2.78588 0
M  V30 3235 C 298.263 4.22359 2.77382 0
M  V30 3236 C 300.461 4.47819 2.52909 0
M  V30 3237 N 298.443 5.59766 2.52062 0
M  V30 3238 C 299.814 5.72947 2.36922 0
M  V30 3239 C 301.869 4.37162 2.38314 0
M  V30 3240 C 300.572 6.88623 2.07823 0
M  V30 3241 C 302.598 5.5263 2.10604 0
M  V30 3242 C 301.96 6.76752 1.95411 0
M  V30 3243 H 298.059 0.505984 0.596242 0
M  V30 3244 H 300.643 1.66179 1.01452 0
M  V30 3245 H 298.814 1.61098 3.53415 0
M  V30 3246 H 300.546 1.84975 3.59953 0
M  V30 3247 H 297.301 3.74401 2.90036 0
M  V30 3248 H 297.725 6.32135 2.42352 0
M  V30 3249 H 302.367 3.41857 2.48784 0
M  V30 3250 H 300.085 7.83948 1.9609 0
M  V30 3251 H 303.671 5.46307 2.00101 0
M  V30 3252 H 302.551 7.6459 1.74274 0
M  V30 3253 N 300.054 -1.07777 1.14986 0
M  V30 3254 C 300.964 -2.18404 0.856546 0
M  V30 3255 C 301.98 -1.73211 -0.165485 0
M  V30 3256 O 303.156 -2.01399 0.00755219 0
M  V30 3257 C 300.221 -3.44977 0.34526 0
M  V30 3258 C 299.282 -4.0476 1.43065 0
M  V30 3259 C 298.515 -5.25291 0.943663 0
M  V30 3260 O 298.738 -5.70004 -0.212426 0
M  V30 3261 O 297.672 -5.76638 1.72547 0
M  V30 3262 H 301.498 -2.45978 1.78125 0
M  V30 3263 H 299.083 -1.17033 0.928631 0
M  V30 3264 H 300.965 -4.21348 0.0663671 0
M  V30 3265 H 299.64 -3.18965 -0.551631 0
M  V30 3266 H 298.547 -3.29949 1.76309 0
M  V30 3267 H 299.88 -4.35035 2.30229 0
M  V30 3268 N 301.532 -0.945985 -1.26051 0
M  V30 3269 C 302.779 -0.596118 -1.93527 0
M  V30 3270 C 303.107 0.865559 -1.74179 0
M  V30 3271 O 302.362 1.63524 -1.0751 0
M  V30 3272 C 302.661 -0.890475 -3.46129 0
M  V30 3273 C 302.327 -2.3368 -3.85622 0
M  V30 3274 C 300.989 -2.73216 -3.96114 0
M  V30 3275 C 303.341 -3.27648 -4.05334 0
M  V30 3276 C 300.669 -4.05806 -4.2372 0
M  V30 3277 C 303.021 -4.59841 -4.3443 0
M  V30 3278 C 301.685 -4.99185 -4.43137 0
M  V30 3279 H 300.955 -0.218135 -0.708165 0
M  V30 3280 H 303.602 -1.1934 -1.49768 0
M  V30 3281 H 301.907 -0.210711 -3.91233 0
M  V30 3282 H 303.604 -0.598478 -3.96509 0
M  V30 3283 H 300.194 -2.02015 -3.78005 0
M  V30 3284 H 304.378 -2.98298 -3.96651 0
M  V30 3285 H 299.634 -4.35945 -4.28675 0
M  V30 3286 H 303.808 -5.32641 -4.48628 0
M  V30 3287 H 301.435 -6.01952 -4.64282 0
M  V30 3288 N 303.011 1.40521 -0.713556 0
M  V30 3289 C 304.288 1.94775 -0.17943 0
M  V30 3290 C 304.668 1.65184 1.31444 0
M  V30 3291 O 304.016 0.968429 2.06963 0
M  V30 3292 C 304.226 3.45543 -0.489986 0
M  V30 3293 C 305.574 4.22442 -0.427536 0
M  V30 3294 O 306.598 3.53644 -0.425929 0
M  V30 3295 O 305.457 5.4501 -0.403292 0
M  V30 3296 H 302.551 0.826606 -0.0255192 0
M  V30 3297 H 305.097 1.5014 -0.790949 0
M  V30 3298 H 303.869 3.60432 -1.5233 0
M  V30 3299 H 303.492 3.97311 0.151598 0
M  V30 3300 N 304.489 0.459591 1.5075 0
M  V30 3301 C 305.452 -0.329093 2.26825 0
M  V30 3302 C 306.452 -0.930481 1.31144 0
M  V30 3303 O 307.642 -0.801453 1.54669 0
M  V30 3304 C 304.774 -1.46768 3.07688 0
M  V30 3305 H 305.967 0.337924 2.9799 0
M  V30 3306 H 303.52 0.213336 1.54837 0
M  V30 3307 H 304.255 -2.17009 2.40993 0
M  V30 3308 H 304.04 -1.04238 3.77991 0
M  V30 3309 H 305.53 -2.02433 3.65254 0
M  V30 3310 N 305.967 -1.56429 0.191757 0
M  V30 3311 C 307.378 -1.83912 -0.321428 0
M  V30 3312 C 307.729 -1.11231 -1.61623 0
M  V30 3313 O 306.854 -0.37202 -2.13178 0
M  V30 3314 C 307.449 -3.33624 -0.589961 0
M  V30 3315 C 306.008 -3.6153 -1.04753 0
M  V30 3316 C 305.155 -2.7714 -0.0943327 0
M  V30 3317 H 308.106 -1.53161 0.415612 0
M  V30 3318 H 308.127 -3.52213 -1.43966 0
M  V30 3319 H 307.639 -3.86495 0.352588 0
M  V30 3320 H 305.74 -3.14089 -2.00447 0
M  V30 3321 H 305.853 -4.69737 -0.942549 0
M  V30 3322 H 304.217 -2.47638 -0.595589 0
M  V30 3323 H 305 -3.32799 0.842601 0
M  V30 3324 N 307.445 0.0818655 -1.57387 0
M  V30 3325 C 308.67 0.799946 -1.91352 0
M  V30 3326 C 309.095 1.70833 -0.787258 0
M  V30 3327 O 308.453 1.79419 0.26048 0
M  V30 3328 C 308.501 1.57812 -3.24234 0
M  V30 3329 O 307.605 2.68806 -3.12757 0
M  V30 3330 H 306.946 0.21891 -0.626877 0
M  V30 3331 H 309.476 0.0531256 -2.04531 0
M  V30 3332 H 309.486 1.95952 -3.57864 0
M  V30 3333 H 308.161 0.911548 -4.05788 0
M  V30 3334 H 306.738 2.33597 -2.90666 0
M  V30 3335 N 308.923 1.53595 0.353017 0
M  V30 3336 C 310.334 1.61937 0.929153 0
M  V30 3337 C 310.685 0.494686 1.89861 0
M  V30 3338 O 309.81 -0.377017 2.1309 0
M  V30 3339 C 310.405 2.93526 1.69199 0
M  V30 3340 C 308.964 3.04161 2.21727 0
M  V30 3341 C 308.111 2.57322 1.03348 0
M  V30 3342 H 311.062 1.58155 0.131431 0
M  V30 3343 H 311.083 2.82034 2.55416 0
M  V30 3344 H 310.595 3.75362 0.986144 0
M  V30 3345 H 308.696 2.26938 2.95516 0
M  V30 3346 H 308.809 4.09465 2.48748 0
M  V30 3347 H 307.173 2.12499 1.40414 0
M  V30 3348 H 307.956 3.41588 0.342428 0
M  V30 3349 N 310.401 -0.613514 1.45168 0
M  V30 3350 C 311.331 -1.7354 1.56225 0
M  V30 3351 C 312.312 -1.64981 0.41414 0
M  V30 3352 O 313.497 -1.83472 0.636526 0
M  V30 3353 C 310.627 -3.12128 1.52295 0
M  V30 3354 C 309.581 -3.35491 2.65762 0
M  V30 3355 C 308.907 -4.74291 2.46885 0
M  V30 3356 C 310.207 -3.26325 4.0781 0
M  V30 3357 H 311.901 -1.64543 2.50132 0
M  V30 3358 H 309.447 -0.790185 1.20383 0
M  V30 3359 H 311.4 -3.90404 1.58628 0
M  V30 3360 H 310.124 -3.2195 0.549139 0
M  V30 3361 H 308.783 -2.59603 2.58847 0
M  V30 3362 H 308.431 -4.80839 1.47657 0
M  V30 3363 H 308.131 -4.9088 3.22972 0
M  V30 3364 H 309.655 -5.54775 2.55063 0
M  V30 3365 H 311.069 -3.94483 4.16 0
M  V30 3366 H 309.466 -3.54445 4.8424 0
M  V30 3367 H 310.536 -2.23855 4.30136 0
M  V30 3368 N 311.879 -1.3236 -0.855495 0
M  V30 3369 C 313.29 -1.2056 -1.42556 0
M  V30 3370 C 313.641 0.182209 -1.95352 0
M  V30 3371 O 312.766 1.08088 -1.87472 0
M  V30 3372 C 313.361 -2.1826 -2.59129 0
M  V30 3373 C 311.92 -2.10351 -3.12137 0
M  V30 3374 C 311.067 -2.06674 -1.84882 0
M  V30 3375 H 314.018 -1.442 -0.662727 0
M  V30 3376 H 314.039 -1.78064 -3.36264 0
M  V30 3377 H 313.551 -3.19257 -2.20673 0
M  V30 3378 H 311.652 -1.12599 -3.55179 0
M  V30 3379 H 311.765 -3.00135 -3.73438 0
M  V30 3380 H 310.129 -1.51901 -2.04446 0
M  V30 3381 H 310.912 -3.09451 -1.48643 0
M  V30 3382 N 313.357 1.07166 -1.15556 0
M  V30 3383 C 314.267 2.17947 -0.868116 0
M  V30 3384 C 315.283 1.73297 0.156297 0
M  V30 3385 O 316.459 2.01392 -0.0182327 0
M  V30 3386 C 313.524 3.44789 -0.36355 0
M  V30 3387 C 312.585 4.03996 -1.45209 0
M  V30 3388 C 311.818 5.24783 -0.971508 0
M  V30 3389 O 312.041 5.70109 0.182194 0
M  V30 3390 O 310.975 5.75715 -1.75603 0
M  V30 3391 H 314.801 2.4503 -1.79427 0
M  V30 3392 H 312.386 1.16539 -0.934824 0
M  V30 3393 H 314.268 4.21307 -0.0887113 0
M  V30 3394 H 312.943 3.19253 0.534708 0
M  V30 3395 H 311.85 3.29009 -1.78056 0
M  V30 3396 H 313.183 4.33808 -2.32533 0
M  V30 3397 N 314.835 0.952656 1.25548 0
M  V30 3398 C 316.063 0.623496 1.97282 0
M  V30 3399 C 316.478 -0.803987 1.70826 0
M  V30 3400 O 315.835 -1.53755 0.983147 0
M  V30 3401 C 315.886 0.870209 3.5087 0
M  V30 3402 O 315.607 2.24156 3.76412 0
M  V30 3403 C 317.108 0.553164 4.39835 0
M  V30 3404 H 314.328 0.233931 0.628902 0
M  V30 3405 H 316.872 1.27649 1.59768 0
M  V30 3406 H 315.027 0.263652 3.86502 0
M  V30 3407 H 315.441 2.31021 4.70882 0
M  V30 3408 H 316.915 0.776342 5.46513 0
M  V30 3409 H 317.392 -0.512215 4.36203 0
M  V30 3410 H 317.998 1.13896 4.09766 0
M  V30 3411 N 316.313 -1.40141 0.720998 0
M  V30 3412 C 317.541 -2.05096 0.272656 0
M  V30 3413 C 317.956 -1.54334 -1.0875 0
M  V30 3414 O 317.313 -0.702211 -1.6845 0
M  V30 3415 C 317.364 -3.60636 0.249835 0
M  V30 3416 O 317.085 -4.09526 1.55629 0
M  V30 3417 C 318.586 -4.42772 -0.216396 0
M  V30 3418 H 315.806 -0.659897 0.121558 0
M  V30 3419 H 318.35 -1.79449 0.980723 0
M  V30 3420 H 316.505 -3.85232 -0.409237 0
M  V30 3421 H 316.919 -5.03758 1.4604 0
M  V30 3422 H 318.393 -5.51702 -0.181212 0
M  V30 3423 H 318.87 -4.20756 -1.25941 0
M  V30 3424 H 319.476 -4.23294 0.412596 0
M  V30 3425 N 317.792 -0.46758 -1.50504 0
M  V30 3426 C 318.702 0.33382 -2.32213 0
M  V30 3427 C 319.718 0.999323 -1.42441 0
M  V30 3428 O 320.894 0.988068 -1.75497 0
M  V30 3429 C 317.959 1.4035 -3.17022 0
M  V30 3430 C 317.02 0.754961 -4.2261 0
M  V30 3431 C 316.253 1.77367 -5.03365 0
M  V30 3432 O 316.476 2.99976 -4.8515 0
M  V30 3433 O 315.41 1.34744 -5.86624 0
M  V30 3434 H 319.236 -0.334067 -3.01857 0
M  V30 3435 H 316.821 -0.229496 -1.47627 0
M  V30 3436 H 318.703 2.02318 -3.69656 0
M  V30 3437 H 317.378 2.05492 -2.5011 0
M  V30 3438 H 316.285 0.0964244 -3.73976 0
M  V30 3439 H 317.618 0.146545 -4.91982 0
M  V30 3440 N 319.27 1.56325 -0.20005 0
M  V30 3441 C 320.218 2.20666 0.735482 0
M  V30 3442 C 321.212 1.17934 1.21605 0
M  V30 3443 O 322.418 1.36068 1.17837 0
M  V30 3444 H 318.793 0.70725 0.255542 0
M  V30 3445 H 320.764 2.9792 0.169166 0
M  V30 3446 C 319.513 2.88391 1.94232 0
M  V30 3447 H 318.836 3.67185 1.58161 0
M  V30 3448 H 320.276 3.3684 2.57517 0
M  V30 3449 C 318.735 1.89692 2.78421 0
M  V30 3450 O 319.265 1.40032 3.76502 0
M  V30 3451 N 317.471 1.57813 2.44015 0
M  V30 3452 H 317.018 1.9839 1.64314 0
M  V30 3453 H 316.976 0.920325 3.00628 0
M  V30 3454 N 320.748 -0.0735177 1.57428 0
M  V30 3455 C 321.994 -0.774145 1.87443 0
M  V30 3456 C 322.327 -1.77311 0.792103 0
M  V30 3457 O 321.602 -1.93492 -0.197793 0
M  V30 3458 C 321.885 -1.48367 3.28115 0
M  V30 3459 C 321.738 -0.501227 4.46999 0
M  V30 3460 C 323.057 -2.429 3.66998 0
M  V30 3461 H 320.176 -0.279971 0.681752 0
M  V30 3462 H 322.818 -0.0373616 1.89963 0
M  V30 3463 H 320.968 -2.11171 3.26097 0
M  V30 3464 H 322.64 0.121468 4.6114 0
M  V30 3465 H 320.883 0.183593 4.33411 0
M  V30 3466 H 321.554 -1.03526 5.42205 0
M  V30 3467 H 324.03 -1.90175 3.70098 0
M  V30 3468 H 322.906 -2.89549 4.66318 0
M  V30 3469 H 323.167 -3.27628 2.96837 0
M  V30 3470 N 322.226 -1.5378 -0.344866 0
M  V30 3471 C 323.472 -1.71216 -1.08687 0
M  V30 3472 C 323.805 -0.473281 -1.88345 0
M  V30 3473 O 323.08 0.52968 -1.87149 0
M  V30 3474 C 323.363 -2.97486 -2.02914 0
M  V30 3475 C 323.216 -4.31579 -1.26727 0
M  V30 3476 C 324.535 -3.19422 -3.0275 0
M  V30 3477 H 321.654 -0.62301 -0.393735 0
M  V30 3478 H 324.296 -1.8645 -0.365563 0
M  V30 3479 H 322.446 -2.84629 -2.64421 0
M  V30 3480 H 324.118 -4.56284 -0.67845 0
M  V30 3481 H 322.361 -4.30049 -0.569273 0
M  V30 3482 H 323.032 -5.16106 -1.95803 0
M  V30 3483 H 325.508 -3.316 -2.51357 0
M  V30 3484 H 324.384 -4.09169 -3.65885 0
M  V30 3485 H 324.645 -2.35656 -3.74057 0
M  V30 3486 N 323.704 0.605807 -1.45491 0
M  V30 3487 C 324.944 1.37606 -1.51142 0
M  V30 3488 C 325.308 1.91413 -0.150075 0
M  V30 3489 O 326.509 2.68677 -0.0812828 0
M  V30 3490 C 324.78 2.49197 -2.56195 0
M  V30 3491 S 326.339 3.36953 -2.81083 0
M  V30 3492 H 323.157 0.469118 -0.534275 0
M  V30 3493 H 325.759 0.698845 -1.82583 0
M  V30 3494 H 324.463 2.0802 -3.53773 0
M  V30 3495 H 323.994 3.21717 -2.26411 0
M  V30 3496 H 326.009 4.47395 -2.14598 0
M  V30 3497 N 325.182 1.32811 0.848464 0
M  V30 3498 C 326.145 1.22194 1.9391 0
M  V30 3499 C 327.145 0.143404 1.60159 0
M  V30 3500 O 328.335 0.394253 1.6968 0
M  V30 3501 C 325.467 0.88067 3.29328 0
M  V30 3502 H 326.66 2.19127 2.04752 0
M  V30 3503 H 324.213 1.16731 1.0394 0
M  V30 3504 H 324.948 -0.0865776 3.24184 0
M  V30 3505 H 324.733 1.66052 3.55203 0
M  V30 3506 H 326.223 0.830871 4.09251 0
M  V30 3507 N 326.66 -1.06551 1.16123 0
M  V30 3508 C 327.59 -2.15935 0.88851 0
M  V30 3509 C 328.571 -1.69306 -0.164135 0
M  V30 3510 O 329.756 -1.94193 -0.0167857 0
M  V30 3511 C 326.886 -3.45149 0.385942 0
M  V30 3512 C 325.84 -4.05271 1.3762 0
M  V30 3513 C 325.166 -5.29664 0.732137 0
M  V30 3514 C 326.466 -4.44355 2.74493 0
M  V30 3515 H 328.16 -2.39006 1.80323 0
M  V30 3516 H 325.706 -1.14866 0.868435 0
M  V30 3517 H 327.659 -4.21004 0.182647 0
M  V30 3518 H 326.383 -3.21689 -0.564274 0
M  V30 3519 H 325.042 -3.3147 1.56599 0
M  V30 3520 H 324.69 -5.02499 -0.224483 0
M  V30 3521 H 324.39 -5.70848 1.39307 0
M  V30 3522 H 325.914 -6.08218 0.538802 0
M  V30 3523 H 327.328 -5.11303 2.59311 0
M  V30 3524 H 325.725 -4.96515 3.37035 0
M  V30 3525 H 326.795 -3.55339 3.29943 0
M  V30 3526 N 328.138 -0.959301 -1.25041 0
M  V30 3527 C 329.386 -0.615393 -1.92503 0
M  V30 3528 C 329.707 0.850969 -1.75452 0
M  V30 3529 O 328.977 1.60658 -1.12098 0
M  V30 3530 H 327.557 -0.224613 -0.712431 0
M  V30 3531 H 330.219 -1.21855 -1.5211 0
M  V30 3532 H 329.315 -0.848738 -3.00338 0
M  V30 3533 N 329.616 1.39756 -0.72842 0
M  V30 3534 C 330.546 2.33289 -0.0991354 0
M  V30 3535 C 331.527 1.53568 0.731489 0
M  V30 3536 O 332.712 1.81987 0.677807 0
M  V30 3537 C 329.842 3.3763 0.813834 0
M  V30 3538 C 328.796 4.2791 0.0878663 0
M  V30 3539 C 328.122 5.22894 1.11741 0
M  V30 3540 C 329.422 5.11314 -1.06563 0
M  V30 3541 H 331.116 2.86163 -0.880408 0
M  V30 3542 H 328.662 1.37591 -0.424819 0
M  V30 3543 H 330.615 4.0201 1.26355 0
M  V30 3544 H 329.339 2.83181 1.62715 0
M  V30 3545 H 327.998 3.65 -0.342159 0
M  V30 3546 H 327.646 4.64744 1.92412 0
M  V30 3547 H 327.346 5.84143 0.636477 0
M  V30 3548 H 328.87 5.90151 1.56697 0
M  V30 3549 H 330.284 5.69076 -0.694671 0
M  V30 3550 H 328.681 5.81671 -1.47577 0
M  V30 3551 H 329.751 4.46534 -1.89038 0
M  V30 3552 N 331.094 0.475555 1.50254 0
M  V30 3553 C 332.322 -0.0754493 2.06762 0
M  V30 3554 C 332.737 -1.33111 1.33891 0
M  V30 3555 O 332.094 -1.77846 0.40952 0
M  V30 3556 C 332.145 -0.359008 3.59713 0
M  V30 3557 O 331.866 0.846851 4.29837 0
M  V30 3558 C 333.367 -0.956484 4.32858 0
M  V30 3559 H 330.587 0.00907525 0.670939 0
M  V30 3560 H 333.131 0.665618 1.93364 0
M  V30 3561 H 331.286 -1.05001 3.72899 0
M  V30 3562 H 331.7 0.594162 5.21124 0
M  V30 3563 H 333.174 -1.10463 5.40834 0
M  V30 3564 H 333.651 -1.94775 3.93649 0
M  V30 3565 H 334.257 -0.303723 4.24214 0
M  V30 3566 N 332.573 -1.56217 0.208337 0
M  V30 3567 C 333.819 -1.98242 -0.427552 0
M  V30 3568 C 334.152 -1.09554 -1.60348 0
M  V30 3569 O 333.427 -0.15035 -1.93918 0
M  V30 3570 C 333.71 -3.4931 -0.874907 0
M  V30 3571 C 333.563 -4.48773 0.303751 0
M  V30 3572 C 334.882 -4.04424 -1.73577 0
M  V30 3573 H 332.001 -0.720744 -0.153936 0
M  V30 3574 H 334.643 -1.87586 0.30192 0
M  V30 3575 H 332.793 -3.58522 -1.49648 0
M  V30 3576 H 334.465 -4.51586 0.941682 0
M  V30 3577 H 332.708 -4.23194 0.953375 0
M  V30 3578 H 333.379 -5.51976 -0.0519883 0
M  V30 3579 H 335.855 -3.98075 -1.21143 0
M  V30 3580 H 334.731 -5.1047 -2.01771 0
M  V30 3581 H 334.992 -3.50494 -2.69456 0
M  V30 3582 N 334.051 0.0651679 -1.57465 0
M  V30 3583 C 335.299 0.761555 -1.87202 0
M  V30 3584 C 335.62 1.77778 -0.801243 0
M  V30 3585 O 334.89 1.95166 0.16937 0
M  V30 3586 H 333.47 0.284251 -0.690804 0
M  V30 3587 H 336.132 0.0396827 -1.9486 0
M  V30 3588 H 335.228 1.27365 -2.84929 0
M  V30 3589 N 335.529 1.53961 0.336706 0
M  V30 3590 C 336.459 1.85417 1.41925 0
M  V30 3591 C 337.44 0.709856 1.5458 0
M  V30 3592 O 338.625 0.962396 1.68676 0
M  V30 3593 C 335.755 2.06985 2.78881 0
M  V30 3594 C 334.709 3.22813 2.81026 0
M  V30 3595 C 334.035 3.29727 4.20932 0
M  V30 3596 C 335.335 4.60767 2.45949 0
M  V30 3597 H 337.029 2.76079 1.15848 0
M  V30 3598 H 334.575 1.32839 0.555859 0
M  V30 3599 H 336.528 2.27575 3.54665 0
M  V30 3600 H 335.252 1.13061 3.06406 0
M  V30 3601 H 333.911 3.0209 2.07695 0
M  V30 3602 H 333.559 2.33385 4.45579 0
M  V30 3603 H 333.259 4.07566 4.23277 0
M  V30 3604 H 334.783 3.52536 4.98549 0
M  V30 3605 H 336.197 4.81325 3.11446 0
M  V30 3606 H 334.594 5.4106 2.59566 0
M  V30 3607 H 335.664 4.6391 1.41122 0
M  V30 3608 N 337.007 -0.598083 1.45811 0
M  V30 3609 C 338.253 -1.35882 1.50545 0
M  V30 3610 C 338.586 -1.93616 0.150445 0
M  V30 3611 O 337.861 -1.75604 -0.83628 0
M  V30 3612 C 338.144 -2.49966 2.59208 0
M  V30 3613 C 337.997 -1.97367 4.04186 0
M  V30 3614 C 339.316 -3.52068 2.64076 0
M  V30 3615 H 336.435 -0.492717 0.548087 0
M  V30 3616 H 339.077 -0.673319 1.77669 0
M  V30 3617 H 337.227 -3.08443 2.3621 0
M  V30 3618 H 338.899 -1.43466 4.38423 0
M  V30 3619 H 337.142 -1.283 4.14393 0
M  V30 3620 H 337.813 -2.79649 4.75921 0
M  V30 3621 H 340.289 -3.03448 2.84708 0
M  V30 3622 H 339.165 -4.2937 3.41954 0
M  V30 3623 H 339.426 -4.08304 1.69531 0
M  V30 3624 N 338.485 -1.33259 -0.841409 0
M  V30 3625 C 339.733 -1.24326 -1.59334 0
M  V30 3626 C 340.054 0.191564 -1.94057 0
M  V30 3627 O 339.324 1.11967 -1.60749 0
M  V30 3628 H 337.904 -0.457174 -0.590763 0
M  V30 3629 H 340.566 -1.66947 -1.00571 0
M  V30 3630 H 339.662 -1.8352 -2.52442 0
M  V30 3631 N 339.963 1.05934 -1.16686 0
M  V30 3632 C 341.212 1.78188 -0.945085 0
M  V30 3633 C 341.525 1.88338 0.528021 0
M  V30 3634 O 342.731 2.57258 0.867799 0
M  V30 3635 C 341.187 3.20277 -1.64167 0
M  V30 3636 C 340.795 3.18281 -3.15279 0
M  V30 3637 C 342.539 3.97039 -1.502 0
M  V30 3638 C 340.446 4.55112 -3.7766 0
M  V30 3639 H 339.376 0.667866 -0.349959 0
M  V30 3640 H 342.027 1.18794 -1.39858 0
M  V30 3641 H 340.409 3.79952 -1.11589 0
M  V30 3642 H 341.583 2.68167 -3.74731 0
M  V30 3643 H 339.898 2.55018 -3.29173 0
M  V30 3644 H 342.495 4.98194 -1.94183 0
M  V30 3645 H 342.838 4.13845 -0.451461 0
M  V30 3646 H 343.371 3.43894 -1.99954 0
M  V30 3647 H 340.11 4.43512 -4.82677 0
M  V30 3648 H 339.63 5.05406 -3.22994 0
M  V30 3649 H 341.309 5.24064 -3.79428 0
M  V30 3650 N 341.441 0.965919 1.2453 0
M  V30 3651 C 342.69 0.622437 1.91856 0
M  V30 3652 C 343.003 -0.846006 1.76358 0
M  V30 3653 O 344.209 -1.29993 2.38357 0
M  V30 3654 C 342.665 1.0626 3.43856 0
M  V30 3655 C 342.273 2.55437 3.68043 0
M  V30 3656 C 344.017 0.792183 4.17043 0
M  V30 3657 C 341.924 2.93196 5.13605 0
M  V30 3658 H 340.854 0.229092 0.718354 0
M  V30 3659 H 343.505 1.17189 1.41206 0
M  V30 3660 H 341.887 0.441476 3.93531 0
M  V30 3661 H 343.061 3.22665 3.28974 0
M  V30 3662 H 341.376 2.8007 3.08139 0
M  V30 3663 H 343.973 1.05031 5.24283 0
M  V30 3664 H 344.316 -0.271584 4.15413 0
M  V30 3665 H 344.849 1.37419 3.73311 0
M  V30 3666 H 341.588 3.98636 5.20355 0
M  V30 3667 H 341.108 2.30651 5.53679 0
M  V30 3668 H 342.787 2.83004 5.81823 0
M  V30 3669 N 342.919 -1.39368 0.735821 0
M  V30 3670 C 344.168 -1.99733 0.281004 0
M  V30 3671 C 344.481 -1.59055 -1.13846 0
M  V30 3672 O 345.687 -2.12262 -1.69284 0
M  V30 3673 C 344.143 -3.57057 0.451462 0
M  V30 3674 C 343.751 -4.06697 1.87886 0
M  V30 3675 C 345.495 -4.2446 0.0584616 0
M  V30 3676 C 343.402 -5.56598 1.99883 0
M  V30 3677 H 342.332 -0.747163 0.101311 0
M  V30 3678 H 344.983 -1.59357 0.909819 0
M  V30 3679 H 343.365 -3.95234 -0.246263 0
M  V30 3680 H 344.539 -3.79853 2.60861 0
M  V30 3681 H 342.854 -3.5196 2.22515 0
M  V30 3682 H 345.451 -5.34549 0.127099 0
M  V30 3683 H 345.794 -4.04444 -0.986433 0
M  V30 3684 H 346.327 -3.9146 0.707374 0
M  V30 3685 H 343.066 -5.81494 3.02564 0
M  V30 3686 H 342.586 -5.85242 1.31346 0
M  V30 3687 H 344.265 -6.22022 1.78039 0
M  V30 3688 N 344.397 -0.483516 -1.5 0
M  V30 3689 C 345.645 0.067027 -2.01989 0
M  V30 3690 C 345.966 1.3909 -1.36671 0
M  V30 3691 O 345.236 1.88978 -0.516152 0
M  V30 3692 H 343.816 0.0277606 -0.746484 0
M  V30 3693 H 346.478 -0.636773 -1.84204 0
M  V30 3694 H 345.574 0.209484 -3.11396 0
M  V30 3695 N 345.875 1.56104 -0.216619 0
M  V30 3696 C 347.103 2.02563 0.421413 0
M  V30 3697 C 347.518 1.0965 1.53695 0
M  V30 3698 O 346.875 0.10521 1.82196 0
M  V30 3699 C 346.926 3.48584 0.957665 0
M  V30 3700 O 346.647 4.37953 -0.113389 0
M  V30 3701 C 348.148 4.10664 1.66943 0
M  V30 3702 H 345.368 0.662944 0.103665 0
M  V30 3703 H 347.912 2.01793 -0.331629 0
M  V30 3704 H 346.067 3.49985 1.661 0
M  V30 3705 H 346.481 5.23704 0.288932 0
M  V30 3706 H 347.955 5.14622 1.99671 0
M  V30 3707 H 348.432 3.55373 2.58083 0
M  V30 3708 H 349.038 4.13098 1.01142 0
M  V30 3709 N 347.353 -0.0568162 1.57498 0
M  V30 3710 C 348.602 -0.752001 1.87157 0
M  V30 3711 C 348.915 -1.77978 0.811375 0
M  V30 3712 O 350.121 -2.52559 0.996293 0
M  V30 3713 C 348.577 -1.38844 3.3204 0
M  V30 3714 C 348.185 -0.398456 4.46225 0
M  V30 3715 C 349.929 -2.06512 3.70882 0
M  V30 3716 C 347.836 -1.04166 5.82154 0
M  V30 3717 H 346.766 -0.28461 0.698222 0
M  V30 3718 H 349.417 -0.00561272 1.83499 0
M  V30 3719 H 347.799 -2.1836 3.30356 0
M  V30 3720 H 348.973 0.367977 4.59328 0
M  V30 3721 H 347.288 0.174592 4.16034 0
M  V30 3722 H 349.885 -2.55437 4.6974 0
M  V30 3723 H 350.228 -2.87117 3.01445 0
M  V30 3724 H 350.761 -1.33808 3.7462 0
M  V30 3725 H 347.5 -0.275614 6.5492 0
M  V30 3726 H 347.02 -1.7786 5.72823 0
M  V30 3727 H 348.699 -1.55715 6.27982 0
M  V30 3728 N 348.832 -1.54138 -0.328536 0
M  V30 3729 C 350.079 -1.72105 -1.06706 0
M  V30 3730 C 350.407 -0.492111 -1.88171 0
M  V30 3731 O 349.662 0.526153 -1.88494 0
M  V30 3732 C 349.961 -2.9457 -2.02393 0
M  V30 3733 C 349.627 -4.29544 -1.37122 0
M  V30 3734 C 348.289 -4.6624 -1.19052 0
M  V30 3735 C 350.641 -5.1333 -0.902331 0
M  V30 3736 C 347.969 -5.84325 -0.527331 0
M  V30 3737 C 350.321 -6.32094 -0.252988 0
M  V30 3738 C 348.985 -6.67473 -0.0600901 0
M  V30 3739 H 348.255 -0.629775 -0.390466 0
M  V30 3740 H 350.902 -1.88372 -0.34473 0
M  V30 3741 H 349.207 -2.72969 -2.81061 0
M  V30 3742 H 350.904 -3.05665 -2.59557 0
M  V30 3743 H 347.494 -4.0067 -1.52188 0
M  V30 3744 H 351.678 -4.855 -1.02974 0
M  V30 3745 H 346.934 -6.103 -0.366634 0
M  V30 3746 H 351.108 -6.96299 0.118366 0
M  V30 3747 H 348.735 -7.58832 0.455828 0
M  V30 3748 N 350.31 0.590341 -1.46126 0
M  V30 3749 C 351.559 1.34499 -1.50309 0
M  V30 3750 C 351.872 1.94977 -0.156021 0
M  V30 3751 O 353.078 2.71395 -0.0756037 0
M  V30 3752 C 351.534 2.43723 -2.64815 0
M  V30 3753 C 351.142 1.89582 -4.0591 0
M  V30 3754 C 352.886 3.20579 -2.78262 0
M  V30 3755 C 350.793 2.9639 -5.11769 0
M  V30 3756 H 349.723 0.505593 -0.559368 0
M  V30 3757 H 352.374 0.630848 -1.72315 0
M  V30 3758 H 350.756 3.17902 -2.36124 0
M  V30 3759 H 351.93 1.21997 -4.44357 0
M  V30 3760 H 350.245 1.25418 -3.97063 0
M  V30 3761 H 352.842 4.00276 -3.54519 0
M  V30 3762 H 353.185 3.72684 -1.85505 0
M  V30 3763 H 353.718 2.53505 -3.06562 0
M  V30 3764 H 350.457 2.49181 -6.06291 0
M  V30 3765 H 349.977 3.62487 -4.77873 0
M  V30 3766 H 351.656 3.60474 -5.37278 0
M  V30 3767 N 351.788 1.33704 0.83433 0
M  V30 3768 C 353.037 1.24763 1.58484 0
M  V30 3769 C 353.35 -0.183775 1.94735 0
M  V30 3770 O 354.556 -0.395234 2.68608 0
M  V30 3771 C 353.012 2.18638 2.85876 0
M  V30 3772 C 352.62 3.66974 2.56971 0
M  V30 3773 C 354.364 2.18581 3.63899 0
M  V30 3774 C 352.271 4.5275 3.80488 0
M  V30 3775 H 351.201 0.463425 0.594772 0
M  V30 3776 H 353.852 1.58797 0.919551 0
M  V30 3777 H 352.234 1.77542 3.5397 0
M  V30 3778 H 353.408 4.16538 1.9706 0
M  V30 3779 H 351.723 3.69366 1.92244 0
M  V30 3780 H 354.32 2.79894 4.55591 0
M  V30 3781 H 354.663 1.18207 3.99165 0
M  V30 3782 H 355.196 2.58062 3.02735 0
M  V30 3783 H 351.935 5.54017 3.5035 0
M  V30 3784 H 351.455 4.07927 4.39722 0
M  V30 3785 H 353.134 4.66784 4.4802 0
M  V30 3786 N 353.266 -1.05314 1.17247 0
M  V30 3787 C 354.213 -2.13031 0.888058 0
M  V30 3788 C 355.183 -1.65253 -0.167537 0
M  V30 3789 O 356.368 -1.90775 -0.0305974 0
M  V30 3790 C 353.508 -3.42702 0.406147 0
M  V30 3791 C 352.621 -4.04161 1.52572 0
M  V30 3792 C 351.756 -5.21744 0.997808 0
M  V30 3793 C 350.795 -5.75207 2.09291 0
M  V30 3794 N 349.932 -6.84094 1.57986 0
M  V30 3795 H 354.772 -2.36698 1.81048 0
M  V30 3796 H 352.309 -1.16121 0.903013 0
M  V30 3797 H 354.267 -4.17059 0.108305 0
M  V30 3798 H 352.897 -3.19222 -0.479313 0
M  V30 3799 H 351.949 -3.27253 1.93931 0
M  V30 3800 H 353.261 -4.39881 2.35172 0
M  V30 3801 H 352.415 -6.03168 0.653739 0
M  V30 3802 H 351.154 -4.87495 0.141232 0
M  V30 3803 H 350.159 -4.92414 2.44557 0
M  V30 3804 H 351.384 -6.11505 2.95362 0
M  V30 3805 H 349.33 -6.51745 0.74598 0
M  V30 3806 H 349.247 -7.18811 2.34195 0
M  V30 3807 H 350.515 -7.69172 1.26468 0
M  V30 3808 N 354.744 -0.972509 -1.24016 0
M  V30 3809 C 355.992 -0.635776 -1.91839 0
M  V30 3810 C 356.313 0.832312 -1.76345 0
M  V30 3811 O 355.583 1.5946 -1.13795 0
M  V30 3812 H 354.163 -0.232157 -0.710009 0
M  V30 3813 H 356.825 -1.23462 -1.50809 0
M  V30 3814 H 355.921 -0.880545 -2.99421 0
M  V30 3815 N 356.222 1.38976 -0.743202 0
M  V30 3816 C 357.468 2.0064 -0.295189 0
M  V30 3817 C 357.801 1.5885 1.11716 0
M  V30 3818 O 357.076 0.821181 1.76315 0
M  V30 3819 C 357.359 3.578 -0.406318 0
M  V30 3820 C 357.212 4.09586 -1.85903 0
M  V30 3821 C 358.531 4.39616 0.206439 0
M  V30 3822 H 355.65 0.728935 -0.108733 0
M  V30 3823 H 358.292 1.65067 -0.940897 0
M  V30 3824 H 356.442 3.88235 0.143419 0
M  V30 3825 H 358.114 3.89837 -2.46627 0
M  V30 3826 H 356.357 3.6284 -2.3776 0
M  V30 3827 H 357.028 5.18708 -1.888 0
M  V30 3828 H 359.504 4.15273 -0.262283 0
M  V30 3829 H 358.38 5.48812 0.0983819 0
M  V30 3830 H 358.641 4.22754 1.2935 0
M  V30 3831 N 357.7 0.491464 1.49741 0
M  V30 3832 C 359.116 0.146835 1.58923 0
M  V30 3833 C 359.316 -1.34804 1.49767 0
M  V30 3834 O 358.372 -2.12317 1.36667 0
M  V30 3835 C 359.685 0.715157 2.92072 0
M  V30 3836 C 361.233 0.680407 3.05515 0
M  V30 3837 C 361.708 1.22663 4.41269 0
M  V30 3838 N 363.199 1.18691 4.47735 0
M  V30 3839 C 363.934 1.57984 5.51207 0
M  V30 3840 N 363.43 2.04824 6.6183 0
M  V30 3841 N 365.223 1.49459 5.41866 0
M  V30 3842 H 357.374 1.46347 1.53936 0
M  V30 3843 H 359.637 0.606453 0.728642 0
M  V30 3844 H 359.343 1.76317 3.04311 0
M  V30 3845 H 359.217 0.17018 3.76816 0
M  V30 3846 H 361.604 -0.358743 2.92911 0
M  V30 3847 H 361.685 1.26242 2.22478 0
M  V30 3848 H 361.329 2.26451 4.54623 0
M  V30 3849 H 361.259 0.620637 5.2293 0
M  V30 3850 H 363.75 0.843605 3.68364 0
M  V30 3851 H 364.063 2.32901 7.3687 0
M  V30 3852 H 362.408 2.08791 6.62896 0
M  V30 3853 H 365.599 1.12692 4.54333 0
M  V30 3854 H 365.772 1.80406 6.22381 0
M  V30 3855 N 359.178 -1.55987 0.224894 0
M  V30 3856 C 360.125 -2.20436 -0.68385 0
M  V30 3857 C 361.095 -1.16102 -1.18783 0
M  V30 3858 O 362.28 -1.4447 -1.24632 0
M  V30 3859 C 359.42 -2.89076 -1.88491 0
M  V30 3860 C 358.533 -4.08012 -1.41951 0
M  V30 3861 C 357.668 -4.64426 -2.5784 0
M  V30 3862 C 356.707 -5.75656 -2.08053 0
M  V30 3863 N 355.844 -6.26347 -3.17227 0
M  V30 3864 H 360.684 -2.97727 -0.12754 0
M  V30 3865 H 358.221 -1.47011 -0.0511978 0
M  V30 3866 H 360.179 -3.27059 -2.59014 0
M  V30 3867 H 358.809 -2.14298 -2.41405 0
M  V30 3868 H 357.861 -3.75492 -0.609095 0
M  V30 3869 H 359.173 -4.88375 -1.01447 0
M  V30 3870 H 358.327 -5.04869 -3.3644 0
M  V30 3871 H 357.066 -3.83233 -3.01635 0
M  V30 3872 H 356.071 -5.34712 -1.27916 0
M  V30 3873 H 357.296 -6.58686 -1.65255 0
M  V30 3874 H 355.242 -5.48067 -3.60497 0
M  V30 3875 H 355.159 -7.01843 -2.80986 0
M  V30 3876 H 356.427 -6.71447 -3.95953 0
M  V30 3877 N 360.656 0.0484629 -1.57525 0
M  V30 3878 C 361.881 0.759177 -1.93006 0
M  V30 3879 C 362.306 1.69125 -0.823317 0
M  V30 3880 O 361.664 1.79931 0.222364 0
M  V30 3881 C 361.712 1.50899 -3.27509 0
M  V30 3882 O 360.816 2.62112 -3.18388 0
M  V30 3883 H 360.157 0.205564 -0.631379 0
M  V30 3884 H 362.687 0.00972959 -2.04598 0
M  V30 3885 H 362.697 1.88317 -3.6194 0
M  V30 3886 H 361.372 0.825269 -4.0763 0
M  V30 3887 H 359.949 2.27379 -2.95556 0
M  V30 3888 N 362.134 1.5431 0.320358 0
M  V30 3889 C 363.082 1.84647 1.4145 0
M  V30 3890 C 364.076 0.718624 1.53402 0
M  V30 3891 O 365.282 0.902335 1.5575 0
M  V30 3892 H 361.657 0.585349 0.472091 0
M  V30 3893 H 363.628 2.7614 1.13089 0
M  V30 3894 C 362.377 2.09341 2.77617 0
M  V30 3895 H 361.7 2.9559 2.69196 0
M  V30 3896 H 363.14 2.3452 3.53237 0
M  V30 3897 C 361.599 0.885939 3.25043 0
M  V30 3898 O 362.129 0.0967891 4.01583 0
M  V30 3899 N 360.335 0.696682 2.82125 0
M  V30 3900 H 359.882 1.34006 2.2 0
M  V30 3901 H 359.84 -0.109712 3.14209 0
M  V30 3902 N 363.613 -0.582584 1.46437 0
M  V30 3903 C 364.576 -1.67366 1.56592 0
M  V30 3904 C 365.576 -1.54575 0.443072 0
M  V30 3905 O 366.766 -1.59191 0.707381 0
M  V30 3906 C 363.898 -3.06791 1.48634 0
M  V30 3907 H 365.091 -1.5972 2.5383 0
M  V30 3908 H 362.644 -0.800432 1.34249 0
M  V30 3909 H 363.379 -3.19993 0.526763 0
M  V30 3910 H 363.164 -3.17484 2.30101 0
M  V30 3911 H 364.654 -3.86218 1.58826 0
M  V30 3912 N 365.091 -1.34144 -0.827227 0
M  V30 3913 C 366.054 -1.25264 -1.91942 0
M  V30 3914 C 367.054 -0.168866 -1.59911 0
M  V30 3915 O 368.244 -0.421198 -1.69031 0
M  V30 3916 C 365.376 -0.932952 -3.27885 0
M  V30 3917 H 366.569 -2.22357 -2.0124 0
M  V30 3918 H 364.122 -1.1837 -1.0207 0
M  V30 3919 H 364.857 0.0349917 -3.24281 0
M  V30 3920 H 364.642 -1.71682 -3.52516 0
M  V30 3921 H 366.132 -0.895874 -4.07877 0
M  V30 3922 N 366.569 1.04691 -1.17803 0
M  V30 3923 C 367.479 2.16057 -0.914151 0
M  V30 3924 C 368.495 1.73589 0.119503 0
M  V30 3925 O 369.671 2.01308 -0.0609468 0
M  V30 3926 C 366.736 3.4394 -0.436603 0
M  V30 3927 C 365.797 4.00825 -1.53746 0
M  V30 3928 C 365.03 5.22604 -1.0826 0
M  V30 3929 O 365.253 5.70367 0.0612244 0
M  V30 3930 O 364.187 5.7186 -1.87775 0
M  V30 3931 H 368.013 2.41169 -1.84584 0
M  V30 3932 H 365.598 1.1453 -0.959334 0
M  V30 3933 H 367.48 4.21024 -0.178057 0
M  V30 3934 H 366.155 3.20316 0.466869 0
M  V30 3935 H 365.062 3.25158 -1.84995 0
M  V30 3936 H 366.395 4.28778 -2.41683 0
M  V30 3937 N 368.047 0.979072 1.23499 0
M  V30 3938 C 369.463 0.687475 1.44034 0
M  V30 3939 C 369.663 -0.746801 1.8715 0
M  V30 3940 O 368.719 -1.51939 2.0167 0
M  V30 3941 C 370.032 1.68127 2.49307 0
M  V30 3942 C 371.58 1.69516 2.63122 0
M  V30 3943 C 372.055 2.67723 3.71603 0
M  V30 3944 N 373.546 2.66233 3.79044 0
M  V30 3945 C 374.281 3.38891 4.62537 0
M  V30 3946 N 373.777 4.21103 5.50131 0
M  V30 3947 N 375.57 3.27661 4.56721 0
M  V30 3948 H 367.721 1.90559 0.938135 0
M  V30 3949 H 369.984 0.821051 0.473897 0
M  V30 3950 H 369.69 2.70693 2.2454 0
M  V30 3951 H 369.564 1.46306 3.4767 0
M  V30 3952 H 371.951 0.676561 2.8724 0
M  V30 3953 H 372.032 1.95404 1.65079 0
M  V30 3954 H 371.676 3.69724 3.48233 0
M  V30 3955 H 371.606 2.39111 4.69184 0
M  V30 3956 H 374.097 2.06568 3.16446 0
M  V30 3957 H 374.41 4.73403 6.10827 0
M  V30 3958 H 372.755 4.25195 5.49759 0
M  V30 3959 H 375.946 2.62887 3.87309 0
M  V30 3960 H 376.119 3.84547 5.21562 0
M  V30 3961 N 369.525 -1.3858 0.750561 0
M  V30 3962 C 370.941 -1.53759 0.427824 0
M  V30 3963 C 371.141 -1.71401 -1.05943 0
M  V30 3964 O 370.197 -1.72331 -1.84549 0
M  V30 3965 C 371.51 -2.74642 1.22443 0
M  V30 3966 C 373.058 -2.88489 1.2142 0
M  V30 3967 C 373.533 -4.12329 1.9937 0
M  V30 3968 N 375.024 -4.194 1.96616 0
M  V30 3969 C 375.759 -5.14209 2.53727 0
M  V30 3970 N 375.255 -6.14709 3.19539 0
M  V30 3971 N 377.048 -5.06537 2.43673 0
M  V30 3972 H 369.199 -1.25377 1.71447 0
M  V30 3973 H 371.462 -0.608844 0.726645 0
M  V30 3974 H 371.168 -2.68 2.27747 0
M  V30 3975 H 371.042 -3.67745 0.839273 0
M  V30 3976 H 373.429 -2.94614 0.169232 0
M  V30 3977 H 373.51 -1.96406 1.63885 0
M  V30 3978 H 373.154 -4.06966 3.03877 0
M  V30 3979 H 373.084 -5.03486 1.54302 0
M  V30 3980 H 375.575 -3.47421 1.48684 0
M  V30 3981 H 375.888 -6.8354 3.60545 0
M  V30 3982 H 374.233 -6.1505 3.23633 0
M  V30 3983 H 377.424 -4.26962 1.91889 0
M  V30 3984 H 377.597 -5.80245 2.88479 0
M  V30 3985 N 371.003 -0.499398 -1.49478 0
M  V30 3986 C 372.251 0.0455996 -2.02049 0
M  V30 3987 C 372.572 1.37633 -1.38138 0
M  V30 3988 O 371.842 1.8842 -0.536166 0
M  V30 3989 H 370.422 0.0198416 -0.746736 0
M  V30 3990 H 373.084 -0.656274 -1.83519 0
M  V30 3991 H 372.18 0.176445 -3.11601 0
M  V30 3992 N 372.481 1.55866 -0.233164 0
M  V30 3993 C 373.892 1.847 0.272554 0
M  V30 3994 C 374.243 1.15477 1.58617 0
M  V30 3995 O 373.368 0.42841 2.12117 0
M  V30 3996 C 373.963 3.35071 0.501299 0
M  V30 3997 C 372.522 3.6418 0.951304 0
M  V30 3998 C 371.669 2.77292 0.0208209 0
M  V30 3999 H 374.62 1.52005 -0.456074 0
M  V30 4000 H 374.641 3.55906 1.34577 0
M  V30 4001 H 374.153 3.85424 -0.454936 0
M  V30 4002 H 372.254 3.19293 1.92049 0
M  V30 4003 H 372.367 4.72071 0.817675 0
M  V30 4004 H 370.731 2.49131 0.529723 0
M  V30 4005 H 371.514 3.30448 -0.93054 0
M  V30 4006 N 373.959 -0.0401083 1.57549 0
M  V30 4007 C 374.889 -1.04384 2.08869 0
M  V30 4008 C 375.87 -1.38407 0.988817 0
M  V30 4009 O 377.055 -1.47483 1.26342 0
M  V30 4010 C 374.185 -2.34808 2.55895 0
M  V30 4011 C 373.139 -2.15057 3.70047 0
M  V30 4012 C 372.465 -3.51145 4.03239 0
M  V30 4013 C 373.765 -1.54576 4.98902 0
M  V30 4014 H 375.459 -0.616666 2.92981 0
M  V30 4015 H 373.005 -0.295184 1.40942 0
M  V30 4016 H 374.958 -3.05346 2.90417 0
M  V30 4017 H 373.682 -2.79565 1.68853 0
M  V30 4018 H 372.341 -1.46954 3.35857 0
M  V30 4019 H 371.989 -3.93529 3.13279 0
M  V30 4020 H 371.689 -3.38758 4.80122 0
M  V30 4021 H 373.213 -4.23062 4.40285 0
M  V30 4022 H 374.627 -2.15017 5.31451 0
M  V30 4023 H 373.024 -1.52796 5.80322 0
M  V30 4024 H 374.094 -0.51039 4.82206 0
M  V30 4025 O 375.476 -1.60458 -0.183159 0
M  V30 4026 H 376.167 -1.75443 -0.820934 0
M  V30 END ATOM
M  V30 BEGIN BOND
M  V30 END BOND
M  V30 END CTAB
M  END
$$$$
