drugbank_target|P01920 HLA class II histocompatibility antigen, DQ beta 1 chain (DB00071)
 OpenBabel12092120533D

  0  0  0     0  0            999 V3000
M  V30 BEGIN CTAB
M  V30 COUNTS 4198 4249 0 0 0
M  V30 BEGIN ATOM
M  V30 1 H -0.908 1.98254 -0.117106 0
M  V30 2 N 0 1.576 0 0
M  V30 3 C 0.933 2.03868 1.02534 0
M  V30 4 C 1.911 0.928543 1.3348 0
M  V30 5 O 3.095 1.19667 1.45644 0
M  V30 6 C 0.222 2.43627 2.35294 0
M  V30 7 C -0.732 3.65373 2.2001 0
M  V30 8 S 0.101 5.13292 1.52614 0
M  V30 9 C 1.257 5.56322 2.86805 0
M  V30 10 H 1.49 2.90518 0.631377 0
M  V30 11 H -0.977 1.52953 0.210867 0
M  V30 12 H 0.981 2.67203 3.11629 0
M  V30 13 H -0.358 1.57376 2.7183 0
M  V30 14 H -1.165 3.90944 3.18086 0
M  V30 15 H -1.563 3.418 1.51819 0
M  V30 16 H 0.729 5.58782 3.83104 0
M  V30 17 H 1.672 6.56266 2.65933 0
M  V30 18 H 2.08 4.83886 2.90714 0
M  V30 19 N 1.4781 -0.272755 1.55222 0
M  V30 20 C 2.7031 -1.02683 1.80197 0
M  V30 21 C 3.1281 -1.79142 0.573551 0
M  V30 22 O 2.4861 -1.74917 -0.476849 0
M  V30 23 C 2.5341 -1.9609 3.02624 0
M  V30 24 O 1.6381 -3.04863 2.77727 0
M  V30 25 H 0.9791 -0.293557 0.595584 0
M  V30 26 H 3.5091 -0.30159 2.02365 0
M  V30 27 H 3.5191 -2.38039 3.31363 0
M  V30 28 H 2.1941 -1.39851 3.91682 0
M  V30 29 H 0.7711 -2.67228 2.60084 0
M  V30 30 N 2.9562 -1.48159 -0.537278 0
M  V30 31 C 4.2022 -1.57015 -1.29297 0
M  V30 32 C 4.5572 -0.237791 -1.90925 0
M  V30 33 O 3.8502 0.758621 -1.75942 0
M  V30 34 C 4.0442 -2.63956 -2.40961 0
M  V30 35 C 3.8732 -4.07461 -1.90278 0
M  V30 36 C 2.6432 -4.74685 -1.73213 0
M  V30 37 C 4.8412 -4.93858 -1.43556 0
M  V30 38 N 2.8232 -6.02633 -1.17078 0
M  V30 39 C 4.1942 -6.11993 -0.993204 0
M  V30 40 C 6.2492 -4.80141 -1.31792 0
M  V30 41 C 4.9522 -7.17923 -0.444872 0
M  V30 42 C 6.9782 -5.86186 -0.783585 0
M  V30 43 C 6.3402 -7.03524 -0.351261 0
M  V30 44 H 2.4392 -0.629154 -0.464423 0
M  V30 45 H 5.0232 -1.85006 -0.606705 0
M  V30 46 H 3.1942 -2.378 -3.07093 0
M  V30 47 H 4.9262 -2.62539 -3.07986 0
M  V30 48 H 1.6812 -4.30902 -1.9652 0
M  V30 49 H 2.1052 -6.7085 -0.910421 0
M  V30 50 H 6.7472 -3.89772 -1.63823 0
M  V30 51 H 4.4652 -8.08022 -0.11222 0
M  V30 52 H 8.0512 -5.77624 -0.695835 0
M  V30 53 H 6.9312 -7.8418 0.055777 0
M  V30 54 N 4.4343 0.785586 -1.36625 0
M  V30 55 C 5.3813 1.89838 -1.31264 0
M  V30 56 C 6.3513 1.65115 -0.180633 0
M  V30 57 O 7.5363 1.87222 -0.36777 0
M  V30 58 C 4.6763 3.26706 -1.11163 0
M  V30 59 C 3.7893 3.63476 -2.33472 0
M  V30 60 C 2.9243 4.89481 -2.06353 0
M  V30 61 C 1.9633 5.18941 -3.24602 0
M  V30 62 N 1.1003 6.36131 -2.97123 0
M  V30 63 H 5.9403 1.93756 -2.26413 0
M  V30 64 H 3.4773 0.947454 -1.12524 0
M  V30 65 H 5.4353 4.05639 -0.975337 0
M  V30 66 H 4.0653 3.222 -0.196674 0
M  V30 67 H 3.1173 2.79636 -2.57891 0
M  V30 68 H 4.4293 3.81193 -3.21704 0
M  V30 69 H 3.5833 5.76288 -1.89675 0
M  V30 70 H 2.3223 4.73841 -1.15437 0
M  V30 71 H 1.3273 4.30615 -3.41834 0
M  V30 72 H 2.5523 5.36498 -4.16349 0
M  V30 73 H 0.4983 6.21875 -2.08823 0
M  V30 74 H 0.4153 6.54198 -3.78894 0
M  V30 75 H 1.6833 7.2591 -2.84033 0
M  V30 76 N 5.9124 1.20967 1.01018 0
M  V30 77 C 6.8594 0.964281 2.09691 0
M  V30 78 C 7.8294 -0.107853 1.65749 0
M  V30 79 O 9.0144 0.0381987 1.90762 0
M  V30 80 C 6.1544 0.52943 3.41015 0
M  V30 81 C 5.2674 1.67043 3.98398 0
M  V30 82 C 4.4024 1.18525 5.17808 0
M  V30 83 C 3.4414 2.29892 5.67288 0
M  V30 84 N 2.5784 1.82546 6.77954 0
M  V30 85 H 7.4184 1.89463 2.30017 0
M  V30 86 H 4.9554 0.944289 1.1279 0
M  V30 87 H 6.9134 0.258588 4.16398 0
M  V30 88 H 5.5434 -0.363919 3.20742 0
M  V30 89 H 4.5954 2.05603 3.20049 0
M  V30 90 H 5.9074 2.50877 4.31117 0
M  V30 91 H 5.0614 0.870762 6.00419 0
M  V30 92 H 3.8004 0.316887 4.86669 0
M  V30 93 H 2.8054 2.6215 4.83278 0
M  V30 94 H 4.0304 3.17216 6.00459 0
M  V30 95 H 1.9764 0.980454 6.48632 0
M  V30 96 H 1.8934 2.59956 7.09901 0
M  V30 97 H 3.1614 1.54115 7.64113 0
M  V30 98 N 7.3905 -1.2043 1.01659 0
M  V30 99 C 8.3535 -2.21433 0.591616 0
M  V30 100 C 9.3535 -1.57203 -0.338226 0
M  V30 101 O 10.5435 -1.73737 -0.126918 0
M  V30 102 C 7.6755 -3.40628 -0.136058 0
M  V30 103 H 8.8685 -2.60545 1.48514 0
M  V30 104 H 6.4215 -1.33893 0.806379 0
M  V30 105 H 7.1565 -3.07019 -1.04449 0
M  V30 106 H 6.9415 -3.88475 0.531917 0
M  V30 107 H 8.4315 -4.15475 -0.420735 0
M  V30 108 N 8.8686 -0.792821 -1.36206 0
M  V30 109 C 9.7986 -0.207853 -2.32573 0
M  V30 110 C 10.7796 0.659055 -1.56813 0
M  V30 111 O 11.9646 0.592176 -1.84951 0
M  V30 112 C 9.0946 0.655449 -3.41059 0
M  V30 113 C 8.0486 -0.111842 -4.27854 0
M  V30 114 C 7.3746 0.872274 -5.27537 0
M  V30 115 C 8.6746 -1.30299 -5.05786 0
M  V30 116 H 10.3686 -1.01294 -2.81744 0
M  V30 117 H 7.9146 -0.48854 -1.3546 0
M  V30 118 H 9.8676 1.07464 -4.07467 0
M  V30 119 H 8.5916 1.49328 -2.90463 0
M  V30 120 H 7.2506 -0.512053 -3.63006 0
M  V30 121 H 6.8986 1.70523 -4.73214 0
M  V30 122 H 6.5986 0.363291 -5.86476 0
M  V30 123 H 8.1226 1.28996 -5.96818 0
M  V30 124 H 9.5366 -0.959379 -5.65216 0
M  V30 125 H 7.9336 -1.7455 -5.74154 0
M  V30 126 H 9.0036 -2.09663 -4.37229 0
M  V30 127 N 10.3467 1.47872 -0.545128 0
M  V30 128 C 11.7627 1.5829 -0.204032 0
M  V30 129 C 11.9627 1.54529 1.29317 0
M  V30 130 O 11.0187 1.44232 2.07252 0
M  V30 131 C 12.3317 2.89304 -0.819987 0
M  V30 132 C 13.8797 3.02864 -0.790105 0
M  V30 133 C 14.3547 4.3656 -1.38491 0
M  V30 134 N 15.8457 4.43165 -1.34755 0
M  V30 135 C 16.5807 5.45153 -1.77753 0
M  V30 136 N 16.0767 6.54016 -2.2855 0
M  V30 137 N 17.8697 5.36125 -1.68897 0
M  V30 138 H 10.0207 1.4856 -1.51802 0
M  V30 139 H 12.2837 0.706305 -0.632327 0
M  V30 140 H 11.9897 2.97757 -1.87173 0
M  V30 141 H 11.8637 3.75957 -0.305915 0
M  V30 142 H 14.2507 2.94014 0.252913 0
M  V30 143 H 14.3317 2.17782 -1.34181 0
M  V30 144 H 13.9757 4.46164 -2.42693 0
M  V30 145 H 13.9057 5.20353 -0.808754 0
M  V30 146 H 16.3967 3.65083 -0.975855 0
M  V30 147 H 16.7097 7.27994 -2.59314 0
M  V30 148 H 15.0547 6.54938 -2.32553 0
M  V30 149 H 18.2457 4.49975 -1.28998 0
M  V30 150 H 18.4187 6.15472 -2.02726 0
M  V30 151 N 11.8248 0.280983 1.55075 0
M  V30 152 C 13.0738 -0.334784 1.98902 0
M  V30 153 C 13.3868 -1.56534 1.17288 0
M  V30 154 O 14.5928 -2.25443 1.51287 0
M  V30 155 C 13.0488 -0.646994 3.54037 0
M  V30 156 C 12.6568 0.564085 4.44435 0
M  V30 157 C 14.4008 -1.22506 4.06439 0
M  V30 158 C 12.3078 0.226137 5.90967 0
M  V30 159 H 11.2378 -0.128866 0.742906 0
M  V30 160 H 13.8888 0.386556 1.79382 0
M  V30 161 H 12.2708 -1.42739 3.6938 0
M  V30 162 H 13.4448 1.34082 4.40861 0
M  V30 163 H 11.7598 1.0594 4.02698 0
M  V30 164 H 14.3568 -1.49182 5.13468 0
M  V30 165 H 14.6998 -2.16085 3.55827 0
M  V30 166 H 15.2328 -0.50682 3.94558 0
M  V30 167 H 11.9718 1.12996 6.45687 0
M  V30 168 H 11.4918 -0.513717 5.97596 0
M  V30 169 H 13.1708 -0.179539 6.46751 0
M  V30 170 N 13.3029 -1.57598 0.00835791 0
M  V30 171 C 14.7139 -1.7892 -0.53333 0
M  V30 172 C 15.0649 -0.916609 -1.73473 0
M  V30 173 O 14.1899 -0.121336 -2.1606 0
M  V30 174 C 14.7849 -3.24488 -0.974313 0
M  V30 175 C 13.3439 -3.46878 -1.46125 0
M  V30 176 C 12.4909 -2.74157 -0.416302 0
M  V30 177 H 15.4419 -1.56958 0.234495 0
M  V30 178 H 15.4629 -3.3306 -1.83988 0
M  V30 179 H 14.9749 -3.87972 -0.099718 0
M  V30 180 H 13.0759 -2.8862 -2.35646 0
M  V30 181 H 13.1889 -4.55572 -1.48295 0
M  V30 182 H 11.5529 -2.39022 -0.87981 0
M  V30 183 H 12.3359 -3.40345 0.44947 0
M  V30 184 N 14.781 0.264519 -1.55364 0
M  V30 185 C 16.029 0.993021 -1.76021 0
M  V30 186 C 16.35 1.86511 -0.569099 0
M  V30 187 O 15.62 1.91438 0.415735 0
M  V30 188 H 14.2 0.369639 -0.649135 0
M  V30 189 H 16.862 0.286707 -1.9278 0
M  V30 190 H 15.958 1.62502 -2.66457 0
M  V30 191 N 16.2591 1.48442 0.529413 0
M  V30 192 C 17.5071 1.56179 1.28267 0
M  V30 193 C 17.8281 0.237721 1.93546 0
M  V30 194 O 17.0981 -0.740779 1.81354 0
M  V30 195 H 15.6781 0.575367 0.476405 0
M  V30 196 H 18.3401 1.84909 0.61602 0
M  V30 197 H 17.4361 2.34312 2.06165 0
M  V30 198 N 17.7372 -0.778329 1.37039 0
M  V30 199 C 18.6672 -1.90546 1.34962 0
M  V30 200 C 19.6482 -1.68681 0.219274 0
M  V30 201 O 20.8332 -1.89634 0.418624 0
M  V30 202 C 17.9632 -3.27734 1.14925 0
M  V30 203 C 16.9172 -3.64147 2.24902 0
M  V30 204 C 16.2432 -4.99806 1.89996 0
M  V30 205 C 17.5432 -3.71579 3.67051 0
M  V30 206 H 19.2372 -1.92541 2.29277 0
M  V30 207 H 16.7832 -0.924948 1.10366 0
M  V30 208 H 18.7362 -4.06215 1.12104 0
M  V30 209 H 17.4602 -3.26154 0.170631 0
M  V30 210 H 16.1192 -2.8797 2.26868 0
M  V30 211 H 15.7672 -4.94759 0.906796 0
M  V30 212 H 15.4672 -5.25139 2.63634 0
M  V30 213 H 16.9912 -5.80694 1.88749 0
M  V30 214 H 18.4052 -4.40227 3.67251 0
M  V30 215 H 16.8022 -4.08405 4.39688 0
M  V30 216 H 17.8722 -2.72404 4.01154 0
M  V30 217 N 19.2153 -1.21501 -1.00376 0
M  V30 218 C 20.6313 -0.972629 -1.26539 0
M  V30 219 C 20.8313 0.340257 -1.98606 0
M  V30 220 O 19.8873 1.06561 -2.28913 0
M  V30 221 C 21.2003 -2.16404 -2.08781 0
M  V30 222 C 22.7483 -2.20643 -2.22004 0
M  V30 223 C 23.2233 -3.39306 -3.07629 0
M  V30 224 N 24.7143 -3.39401 -3.15217 0
M  V30 225 C 25.4493 -4.27867 -3.81729 0
M  V30 226 N 24.9453 -5.26533 -4.5026 0
M  V30 227 N 26.7383 -4.15672 -3.78382 0
M  V30 228 H 18.8893 -2.05929 -0.520281 0
M  V30 229 H 21.1523 -0.901803 -0.292328 0
M  V30 230 H 20.8583 -3.11554 -1.63178 0
M  V30 231 H 20.7323 -2.15567 -3.09533 0
M  V30 232 H 23.1193 -1.26048 -2.66825 0
M  V30 233 H 23.2003 -2.25523 -1.20718 0
M  V30 234 H 22.8443 -4.34195 -2.63509 0
M  V30 235 H 22.7743 -3.31665 -4.09031 0
M  V30 236 H 25.2653 -2.67997 -2.66432 0
M  V30 237 H 25.5783 -5.90337 -4.98721 0
M  V30 238 H 23.9233 -5.30457 -4.49044 0
M  V30 239 H 27.1143 -3.3785 -3.23998 0
M  V30 240 H 27.2873 -4.84825 -4.2994 0
M  V30 241 N 20.6934 1.19889 -1.02296 0
M  V30 242 C 21.6564 2.21116 -0.603351 0
M  V30 243 C 22.6564 1.5738 0.329884 0
M  V30 244 O 23.8464 1.73802 0.117702 0
M  V30 245 C 20.9784 3.40696 0.117992 0
M  V30 246 H 22.1714 2.59754 -1.49893 0
M  V30 247 H 19.7244 1.33463 -0.813468 0
M  V30 248 H 20.4594 3.07569 1.0282 0
M  V30 249 H 20.2444 3.88188 -0.552511 0
M  V30 250 H 21.7344 4.15692 0.398696 0
M  V30 251 N 22.1715 0.800033 1.35784 0
M  V30 252 C 23.1345 0.211565 2.28221 0
M  V30 253 C 24.1345 -0.59728 1.49296 0
M  V30 254 O 25.3245 -0.416721 1.69142 0
M  V30 255 C 22.4565 -0.705846 3.33513 0
M  V30 256 H 23.6495 1.02677 2.81776 0
M  V30 257 H 21.2025 0.570211 1.45528 0
M  V30 258 H 21.9375 -1.54498 2.85133 0
M  V30 259 H 21.7225 -0.127655 3.91892 0
M  V30 260 H 23.2125 -1.11211 4.02519 0
M  V30 261 N 23.6496 -1.47581 0.552962 0
M  V30 262 C 24.8776 -2.06875 0.0320556 0
M  V30 263 C 25.2926 -1.40625 -1.25976 0
M  V30 264 O 24.6496 -0.501349 -1.75479 0
M  V30 265 C 24.7006 -3.61092 -0.17167 0
M  V30 266 O 24.4216 -4.24858 1.06899 0
M  V30 267 C 25.9226 -4.37242 -0.730344 0
M  V30 268 H 23.1426 -0.669561 0.043915 0
M  V30 269 H 25.6866 -1.89646 0.765163 0
M  V30 270 H 23.8416 -3.7785 -0.854894 0
M  V30 271 H 24.2556 -5.17334 0.864059 0
M  V30 272 H 25.7296 -5.45842 -0.822203 0
M  V30 273 H 26.2066 -4.03235 -1.74064 0
M  V30 274 H 26.8126 -4.25219 -0.0829543 0
M  V30 275 N 25.1277 -0.289203 -1.54924 0
M  V30 276 C 26.3737 0.323998 -2.00195 0
M  V30 277 C 26.7067 1.54441 -1.17735 0
M  V30 278 O 25.9817 1.92875 -0.250878 0
M  V30 279 C 26.2647 0.692276 -3.53383 0
M  V30 280 C 26.1177 -0.536457 -4.46589 0
M  V30 281 C 27.4367 1.52335 -4.12895 0
M  V30 282 H 24.5557 0.116289 -0.727768 0
M  V30 283 H 27.1977 -0.398954 -1.85764 0
M  V30 284 H 25.3477 1.30822 -3.65811 0
M  V30 285 H 27.0197 -1.17499 -4.46085 0
M  V30 286 H 25.2627 -1.17192 -4.1767 0
M  V30 287 H 25.9337 -0.234806 -5.515 0
M  V30 288 H 28.4097 1.00302 -4.0383 0
M  V30 289 H 27.2857 1.74982 -5.20262 0
M  V30 290 H 27.5467 2.50886 -3.64018 0
M  V30 291 N 26.6058 1.57591 -0.0167156 0
M  V30 292 C 27.8338 1.95575 0.675128 0
M  V30 293 C 28.2488 0.892542 1.6637 0
M  V30 294 O 27.6058 -0.126912 1.82058 0
M  V30 295 C 27.6568 3.33608 1.39239 0
M  V30 296 O 27.3778 4.3585 0.443444 0
M  V30 297 C 28.8788 3.86151 2.17721 0
M  V30 298 H 26.0988 0.644423 0.186978 0
M  V30 299 H 28.6428 2.0437 -0.0728 0
M  V30 300 H 26.7978 3.2607 2.09182 0
M  V30 301 H 27.2118 5.158 0.951358 0
M  V30 302 H 28.6858 4.85114 2.63379 0
M  V30 303 H 29.1628 3.19738 3.01105 0
M  V30 304 H 29.7688 3.96918 1.52761 0
M  V30 305 N 28.0839 -0.256276 1.55502 0
M  V30 306 C 29.0139 -1.32102 1.92539 0
M  V30 307 C 29.9949 -1.50684 0.789194 0
M  V30 308 O 31.1799 -1.63449 1.04872 0
M  V30 309 C 28.3099 -2.67752 2.21192 0
M  V30 310 C 27.2639 -2.63878 3.36975 0
M  V30 311 C 26.5899 -4.03236 3.51147 0
M  V30 312 C 27.8899 -2.21682 4.72921 0
M  V30 313 H 29.5839 -1.01351 2.81724 0
M  V30 314 H 27.1299 -0.486105 1.35547 0
M  V30 315 H 29.0829 -3.42365 2.45691 0
M  V30 316 H 27.8069 -3.0012 1.28824 0
M  V30 317 H 26.4659 -1.91722 3.12471 0
M  V30 318 H 26.1139 -4.32854 2.56216 0
M  V30 319 H 25.8139 -4.01535 4.29003 0
M  V30 320 H 27.3379 -4.79563 3.77957 0
M  V30 321 H 28.7519 -2.86023 4.96854 0
M  V30 322 H 27.1489 -2.3111 5.53812 0
M  V30 323 H 28.2189 -1.16833 4.70615 0
M  V30 324 N 29.562 -1.4872 -0.521534 0
M  V30 325 C 30.495 -1.58451 -1.64221 0
M  V30 326 C 31.473 -0.434513 -1.56687 0
M  V30 327 O 32.657 -0.647275 -1.77038 0
M  V30 328 C 29.784 -1.52037 -3.02659 0
M  V30 329 C 28.83 -2.71981 -3.28525 0
M  V30 330 S 29.663 -4.33869 -3.13876 0
M  V30 331 C 30.819 -4.30067 -4.54745 0
M  V30 332 H 31.052 -2.53256 -1.55719 0
M  V30 333 H 28.585 -1.37358 -0.705143 0
M  V30 334 H 30.543 -1.49023 -3.82495 0
M  V30 335 H 29.204 -0.585541 -3.08594 0
M  V30 336 H 28.397 -2.63656 -4.29536 0
M  V30 337 H 27.999 -2.72302 -2.56374 0
M  V30 338 H 30.291 -4.00521 -5.46433 0
M  V30 339 H 31.234 -5.31287 -4.68123 0
M  V30 340 H 31.642 -3.60419 -4.34463 0
M  V30 341 N 31.0401 0.771051 -1.3745 0
M  V30 342 C 31.9701 1.89827 -1.3597 0
M  V30 343 C 32.9511 1.68562 -0.228216 0
M  V30 344 O 34.1361 1.8941 -0.428675 0
M  V30 345 C 31.2661 3.2712 -1.16662 0
M  V30 346 C 30.2201 3.6295 -2.2683 0
M  V30 347 C 29.5461 4.98791 -1.92644 0
M  V30 348 C 30.8461 3.69627 -3.69017 0
M  V30 349 H 32.5401 1.91323 -2.30295 0
M  V30 350 H 30.0861 0.919082 -1.10855 0
M  V30 351 H 32.0391 4.05615 -1.14256 0
M  V30 352 H 30.7631 3.26059 -0.187926 0
M  V30 353 H 29.4221 2.86763 -2.28392 0
M  V30 354 H 29.0701 4.94271 -0.933021 0
M  V30 355 H 28.7701 5.23733 -2.66416 0
M  V30 356 H 30.2941 5.79685 -1.91826 0
M  V30 357 H 31.7081 4.38273 -3.69581 0
M  V30 358 H 30.1051 4.06067 -4.41848 0
M  V30 359 H 31.1751 2.70273 -4.02592 0
M  V30 360 N 32.5182 1.22032 0.997298 0
M  V30 361 C 33.4812 0.987909 2.06816 0
M  V30 362 C 34.4812 -0.0440084 1.6074 0
M  V30 363 O 35.6712 0.194053 1.73116 0
M  V30 364 C 32.8032 0.49132 3.37341 0
M  V30 365 H 33.9962 1.93803 2.28868 0
M  V30 366 H 31.5492 1.03838 1.16822 0
M  V30 367 H 32.2842 -0.463364 3.20973 0
M  V30 368 H 32.0692 1.23575 3.72118 0
M  V30 369 H 33.5592 0.348824 4.16141 0
M  V30 370 N 33.9963 -1.19345 1.0293 0
M  V30 371 C 34.9293 -2.21347 0.555029 0
M  V30 372 C 35.9073 -1.57492 -0.404351 0
M  V30 373 O 37.0913 -1.85741 -0.321352 0
M  V30 374 C 34.2183 -3.38163 -0.19064 0
M  V30 375 C 33.2643 -4.20375 0.720236 0
M  V30 376 S 34.0973 -4.88371 2.19668 0
M  V30 377 C 35.2533 -6.08597 1.46153 0
M  V30 378 H 35.4863 -2.61235 1.41929 0
M  V30 379 H 33.0193 -1.29598 0.839272 0
M  V30 380 H 34.9773 -4.05871 -0.614724 0
M  V30 381 H 33.6383 -2.9671 -1.03063 0
M  V30 382 H 32.8313 -5.03793 0.14455 0
M  V30 383 H 32.4333 -3.57987 1.08266 0
M  V30 384 H 34.7253 -6.73354 0.748357 0
M  V30 385 H 35.6683 -6.7065 2.27233 0
M  V30 386 H 36.0763 -5.56297 0.958842 0
M  V30 387 N 35.4744 -0.807222 -1.35358 0
M  V30 388 C 36.4044 -0.232509 -2.3234 0
M  V30 389 C 37.3854 0.642386 -1.57504 0
M  V30 390 O 38.5704 0.572526 -1.85569 0
M  V30 391 C 35.7004 0.619238 -3.41735 0
M  V30 392 C 34.6544 -0.157215 -4.27711 0
M  V30 393 C 33.9804 0.816273 -5.28433 0
M  V30 394 C 35.2804 -1.35656 -5.04376 0
M  V30 395 H 36.9744 -1.04276 -2.80654 0
M  V30 396 H 34.5204 -0.50288 -1.34934 0
M  V30 397 H 36.4734 1.03137 -4.08584 0
M  V30 398 H 35.1974 1.46239 -2.92031 0
M  V30 399 H 33.8564 -0.550525 -3.62443 0
M  V30 400 H 33.5044 1.65494 -4.74996 0
M  V30 401 H 33.2044 0.301067 -5.86828 0
M  V30 402 H 34.7284 1.22659 -5.98153 0
M  V30 403 H 36.1424 -1.01927 -5.64166 0
M  V30 404 H 34.5394 -1.8063 -5.7227 0
M  V30 405 H 35.6094 -2.14288 -4.34981 0
M  V30 406 N 36.9525 1.47285 -0.560781 0
M  V30 407 C 38.1775 2.07359 -0.0410566 0
M  V30 408 C 38.6025 1.41017 1.24483 0
M  V30 409 O 37.9605 0.486368 1.74654 0
M  V30 410 C 38.0085 3.6035 0.134123 0
M  V30 411 O 37.1125 3.94681 1.19587 0
M  V30 412 H 36.4535 0.661887 -0.0529291 0
M  V30 413 H 38.9835 1.89252 -0.777482 0
M  V30 414 H 38.9935 4.0652 0.347207 0
M  V30 415 H 37.6685 4.08034 -0.805047 0
M  V30 416 H 36.2455 3.60251 0.962987 0
M  V30 417 N 38.4306 0.297415 1.54768 0
M  V30 418 C 39.6586 -0.315623 2.04478 0
M  V30 419 C 40.0736 -1.47792 1.17486 0
M  V30 420 O 39.4306 -1.81404 0.19971 0
M  V30 421 C 39.4816 -0.7753 3.53088 0
M  V30 422 O 39.2026 0.340732 4.36773 0
M  V30 423 C 40.7036 -1.45386 4.18781 0
M  V30 424 H 37.9236 -0.0690887 0.667434 0
M  V30 425 H 40.4676 0.436003 1.99798 0
M  V30 426 H 38.6226 -1.47696 3.58141 0
M  V30 427 H 39.0366 -0.0165035 5.24497 0
M  V30 428 H 40.5106 -1.72669 5.24299 0
M  V30 429 H 40.9876 -2.39275 3.68299 0
M  V30 430 H 41.5936 -0.795475 4.17795 0
M  V30 431 N 39.9087 -1.5758 0.0250728 0
M  V30 432 C 41.3197 -1.79476 -0.514323 0
M  V30 433 C 41.6707 -0.934956 -1.72491 0
M  V30 434 O 40.7957 -0.144245 -2.15919 0
M  V30 435 C 41.3907 -3.25503 -0.939842 0
M  V30 436 C 39.9497 -3.48408 -1.42438 0
M  V30 437 C 39.0967 -2.74583 -0.387201 0
M  V30 438 H 42.0477 -1.567 0.25113 0
M  V30 439 H 42.0687 -3.34992 -1.80445 0
M  V30 440 H 41.5807 -3.88056 -0.0585628 0
M  V30 441 H 39.6817 -2.91103 -2.32572 0
M  V30 442 H 39.7947 -4.57119 -1.43455 0
M  V30 443 H 38.1587 -2.39942 -0.854409 0
M  V30 444 H 38.9417 -3.39849 0.485543 0
M  V30 445 N 41.3868 0.248026 -1.55636 0
M  V30 446 C 42.6328 0.97767 -1.77678 0
M  V30 447 C 42.9658 1.85016 -0.590135 0
M  V30 448 O 42.2408 1.90095 0.411611 0
M  V30 449 C 42.5238 1.83914 -3.09593 0
M  V30 450 C 42.3768 0.99491 -4.38659 0
M  V30 451 C 43.6958 2.82183 -3.37729 0
M  V30 452 H 40.8148 0.354005 -0.646413 0
M  V30 453 H 43.4568 0.248253 -1.88371 0
M  V30 454 H 41.6068 2.46104 -3.00608 0
M  V30 455 H 43.2788 0.391789 -4.59633 0
M  V30 456 H 41.5218 0.299231 -4.32767 0
M  V30 457 H 42.1928 1.63145 -5.2734 0
M  V30 458 H 44.6688 2.30129 -3.4667 0
M  V30 459 H 43.5448 3.39582 -4.31249 0
M  V30 460 H 43.8058 3.58588 -2.58586 0
M  V30 461 N 42.8649 1.48995 0.513639 0
M  V30 462 C 43.8279 1.64229 1.59879 0
M  V30 463 C 44.8279 0.514696 1.5234 0
M  V30 464 O 46.0179 0.78087 1.55718 0
M  V30 465 C 43.1499 1.62783 2.99524 0
M  V30 466 H 44.3429 2.61004 1.47705 0
M  V30 467 H 41.8959 1.37837 0.736936 0
M  V30 468 H 42.6309 0.675461 3.17188 0
M  V30 469 H 42.4159 2.4466 3.06404 0
M  V30 470 H 43.9059 1.76669 3.78388 0
M  V30 471 N 44.343 -0.763751 1.37857 0
M  V30 472 C 45.253 -1.90817 1.36478 0
M  V30 473 C 46.269 -1.71997 0.263248 0
M  V30 474 O 47.445 -1.95095 0.499979 0
M  V30 475 C 44.51 -3.2605 1.17864 0
M  V30 476 C 43.571 -3.57467 2.3773 0
M  V30 477 C 42.804 -4.86249 2.19995 0
M  V30 478 O 43.027 -5.57884 1.18836 0
M  V30 479 O 41.961 -5.16911 3.08361 0
M  V30 480 H 45.787 -1.94933 2.32884 0
M  V30 481 H 43.372 -0.907619 1.1867 0
M  V30 482 H 45.254 -4.06924 1.09504 0
M  V30 483 H 43.929 -3.22769 0.245372 0
M  V30 484 H 42.836 -2.76796 2.51664 0
M  V30 485 H 44.169 -3.655 3.29652 0
M  V30 486 N 45.8211 -1.22559 -0.990812 0
M  V30 487 C 47.0691 -1.04933 -1.72724 0
M  V30 488 C 47.3901 0.416158 -1.90508 0
M  V30 489 O 46.6601 1.29918 -1.46622 0
M  V30 490 H 45.2401 -0.385296 -0.639965 0
M  V30 491 H 47.9021 -1.54105 -1.19322 0
M  V30 492 H 46.9981 -1.52886 -2.72089 0
M  V30 493 N 47.2992 1.18797 -1.03562 0
M  V30 494 C 48.7152 1.40671 -0.753917 0
M  V30 495 C 48.9152 1.9043 0.658686 0
M  V30 496 O 47.9712 2.08538 1.42366 0
M  V30 497 C 49.2842 2.41192 -1.79574 0
M  V30 498 C 50.8322 2.54928 -1.81606 0
M  V30 499 C 51.3072 3.58709 -2.84766 0
M  V30 500 N 52.7982 3.66212 -2.83625 0
M  V30 501 C 53.5332 4.46225 -3.60098 0
M  V30 502 N 53.0292 5.29888 -4.46308 0
M  V30 503 N 54.8222 4.40939 -3.4861 0
M  V30 504 H 46.9732 0.848221 -1.94728 0
M  V30 505 H 49.2362 0.435081 -0.842264 0
M  V30 506 H 48.9422 2.11669 -2.80872 0
M  V30 507 H 48.8162 3.40467 -1.62365 0
M  V30 508 H 51.2032 2.83771 -0.809817 0
M  V30 509 H 51.2842 1.55784 -2.02891 0
M  V30 510 H 50.9282 3.30607 -3.85566 0
M  V30 511 H 50.8582 4.57519 -2.60737 0
M  V30 512 H 53.3492 3.06466 -2.21105 0
M  V30 513 H 53.6622 5.88078 -5.01382 0
M  V30 514 H 52.0072 5.29326 -4.50377 0
M  V30 515 H 55.1982 3.74624 -2.80668 0
M  V30 516 H 55.3712 5.03056 -4.08459 0
M  V30 517 N 48.7773 0.814389 1.34928 0
M  V30 518 C 50.0543 0.321363 1.92942 0
M  V30 519 C 50.4343 -1.19014 1.74353 0
M  V30 520 O 49.7823 -1.99328 1.11716 0
M  V30 521 C 49.9923 0.741323 3.41036 0
M  V30 522 C 51.3403 0.735266 4.18185 0
M  V30 523 O 52.3643 0.68336 3.49584 0
M  V30 524 O 51.2233 0.800703 5.40602 0
M  V30 525 H 48.3173 0.0858893 0.822528 0
M  V30 526 H 50.8633 0.898609 1.43955 0
M  V30 527 H 49.6353 1.78276 3.4833 0
M  V30 528 H 49.2583 0.139307 3.97356 0
M  V30 529 N 50.2554 -1.46986 0.568584 0
M  V30 530 C 51.4804 -2.07335 0.0520528 0
M  V30 531 C 51.9054 -1.41675 -1.23733 0
M  V30 532 O 51.2634 -0.495623 -1.74394 0
M  V30 533 C 51.3114 -3.60417 -0.11501 0
M  V30 534 O 50.4154 -3.95309 -1.17492 0
M  V30 535 H 49.7564 -0.661597 0.0564385 0
M  V30 536 H 52.2864 -1.88837 0.787507 0
M  V30 537 H 52.2964 -4.06698 -0.325644 0
M  V30 538 H 50.9714 -4.07601 0.826675 0
M  V30 539 H 49.5484 -3.60757 -0.943869 0
M  V30 540 N 51.7335 -0.305618 -1.54608 0
M  V30 541 C 53.1445 0.186098 -1.8577 0
M  V30 542 C 53.4955 1.53058 -1.22751 0
M  V30 543 O 52.6205 2.09888 -0.526893 0
M  V30 544 C 53.2155 0.344449 -3.37044 0
M  V30 545 C 51.7745 0.780384 -3.68221 0
M  V30 546 C 50.9215 -0.108554 -2.77087 0
M  V30 547 H 53.8725 -0.526485 -1.49712 0
M  V30 548 H 53.8935 1.17828 -3.61796 0
M  V30 549 H 53.4055 -0.634235 -3.82883 0
M  V30 550 H 51.5065 1.76945 -3.27904 0
M  V30 551 H 51.6195 0.596572 -4.75371 0
M  V30 552 H 49.9835 0.412931 -2.5133 0
M  V30 553 H 50.7665 -1.08368 -3.25747 0
M  V30 554 N 53.2116 1.57565 -0.0334293 0
M  V30 555 C 54.1216 2.13943 0.962572 0
M  V30 556 C 55.1376 1.09276 1.35406 0
M  V30 557 O 56.3136 1.41355 1.4346 0
M  V30 558 C 53.3786 2.65887 2.22497 0
M  V30 559 C 52.4396 3.85286 1.8935 0
M  V30 560 C 51.6726 4.34743 3.09571 0
M  V30 561 O 51.8956 3.83352 4.22371 0
M  V30 562 O 50.8296 5.26538 2.91618 0
M  V30 563 H 54.6556 2.99333 0.513169 0
M  V30 564 H 52.2406 1.4822 0.18743 0
M  V30 565 H 54.1226 2.99346 2.96598 0
M  V30 566 H 52.7976 1.83578 2.6661 0
M  V30 567 H 51.7046 3.56746 1.1262 0
M  V30 568 H 53.0376 4.68771 1.5005 0
M  V30 569 N 54.6897 -0.239769 1.55765 0
M  V30 570 C 55.9667 -0.990056 1.68693 0
M  V30 571 C 56.3467 -2.03107 0.5754 0
M  V30 572 O 55.6947 -2.24604 -0.42017 0
M  V30 573 C 55.9047 -1.61696 3.09282 0
M  V30 574 C 57.2527 -2.11613 3.6811 0
M  V30 575 O 58.2767 -1.71624 3.12127 0
M  V30 576 O 57.1357 -2.85057 4.66267 0
M  V30 577 H 54.2297 -0.461299 0.686391 0
M  V30 578 H 56.7757 -0.232991 1.68093 0
M  V30 579 H 55.5477 -0.864357 3.81634 0
M  V30 580 H 55.1707 -2.44005 3.13923 0
M  V30 581 N 56.1678 -1.49265 -0.50573 0
M  V30 582 C 57.4148 -1.58513 -1.26015 0
M  V30 583 C 57.7428 -0.26972 -1.92621 0
M  V30 584 O 56.9978 0.741997 -1.81088 0
M  V30 585 C 57.2968 -2.69008 -2.35308 0
M  V30 586 C 56.9628 -4.10662 -1.86192 0
M  V30 587 C 55.6248 -4.49212 -1.72516 0
M  V30 588 C 57.9768 -4.99336 -1.49375 0
M  V30 589 C 55.3048 -5.74214 -1.20394 0
M  V30 590 C 57.6568 -6.24852 -0.987072 0
M  V30 591 C 56.3208 -6.62236 -0.836669 0
M  V30 592 H 55.5908 -0.580041 -0.461122 0
M  V30 593 H 58.2378 -1.83078 -0.561665 0
M  V30 594 H 56.5428 -2.38396 -3.10926 0
M  V30 595 H 58.2398 -2.73373 -2.93374 0
M  V30 596 H 54.8298 -3.8023 -1.97795 0
M  V30 597 H 59.0138 -4.70212 -1.5879 0
M  V30 598 H 54.2698 -6.01883 -1.07458 0
M  V30 599 H 58.4438 -6.92944 -0.692983 0
M  V30 600 H 56.0708 -7.58979 -0.430607 0
M  V30 601 N 57.6459 0.756429 -1.3826 0
M  V30 602 C 58.8919 1.51772 -1.34511 0
M  V30 603 C 59.2249 1.94089 0.0656691 0
M  V30 604 O 58.4999 1.65221 1.02626 0
M  V30 605 C 58.7829 2.77226 -2.29821 0
M  V30 606 C 58.6359 2.41065 -3.79747 0
M  V30 607 C 59.9549 3.79236 -2.23312 0
M  V30 608 H 57.0739 0.550578 -0.489931 0
M  V30 609 H 59.7159 0.866607 -1.69086 0
M  V30 610 H 57.8659 3.32784 -2.00467 0
M  V30 611 H 59.5379 1.91303 -4.19763 0
M  V30 612 H 57.7809 1.7356 -3.97567 0
M  V30 613 H 58.4519 3.3081 -4.41892 0
M  V30 614 H 60.9279 3.3321 -2.49219 0
M  V30 615 H 59.8039 4.64714 -2.92116 0
M  V30 616 H 60.0649 4.24615 -1.23102 0
M  V30 617 N 59.124 1.23083 0.984299 0
M  V30 618 C 60.354 1.08556 1.75781 0
M  V30 619 C 60.762 -0.366171 1.85623 0
M  V30 620 O 60.105 -1.26524 1.33182 0
M  V30 621 C 60.167 1.63208 3.20318 0
M  V30 622 C 59.831 3.11922 3.33997 0
M  V30 623 C 60.828 4.09259 3.2063 0
M  V30 624 C 58.513 3.51552 3.58771 0
M  V30 625 C 60.507 5.4421 3.31835 0
M  V30 626 C 58.194 4.86649 3.69616 0
M  V30 627 C 59.192 5.82787 3.56157 0
M  V30 628 O 58.88 7.15431 3.66626 0
M  V30 629 H 58.612 0.380713 0.5586 0
M  V30 630 H 61.166 1.63321 1.2456 0
M  V30 631 H 59.396 1.0286 3.72769 0
M  V30 632 H 61.085 1.44216 3.79416 0
M  V30 633 H 61.851 3.79984 3.01392 0
M  V30 634 H 57.73 2.77239 3.6832 0
M  V30 635 H 61.274 6.1923 3.21247 0
M  V30 636 H 57.171 5.15601 3.88363 0
M  V30 637 H 57.939 7.23127 3.83445 0
M  V30 638 N 60.6021 -1.18246 1.0419 0
M  V30 639 C 61.5341 -2.2142 0.592088 0
M  V30 640 C 62.5471 -1.59233 -0.338909 0
M  V30 641 O 63.7361 -1.78002 -0.133231 0
M  V30 642 C 60.8361 -3.38546 -0.154854 0
M  V30 643 C 60.0091 -4.3031 0.784328 0
M  V30 644 C 59.0681 -5.26138 0.0804583 0
M  V30 645 O 58.0941 -5.64738 0.711292 0
M  V30 646 N 59.2961 -5.68261 -1.18574 0
M  V30 647 H 62.0611 -2.60636 1.47949 0
M  V30 648 H 59.6221 -1.33044 0.922544 0
M  V30 649 H 61.6141 -3.99678 -0.635606 0
M  V30 650 H 60.1841 -2.98012 -0.943811 0
M  V30 651 H 59.4041 -3.66764 1.44491 0
M  V30 652 H 60.6921 -4.8852 1.42218 0
M  V30 653 H 60.0901 -5.38957 -1.71876 0
M  V30 654 H 58.6471 -6.31584 -1.61074 0
M  V30 655 N 62.0802 -0.821533 -1.34494 0
M  V30 656 C 63.3272 -0.408946 -1.98328 0
M  V30 657 C 63.6552 1.02764 -1.65136 0
M  V30 658 O 62.9102 1.73026 -0.914349 0
M  V30 659 C 63.2092 -0.556512 -3.53041 0
M  V30 660 C 62.8752 -1.95861 -4.0614 0
M  V30 661 C 61.5372 -2.34217 -4.20352 0
M  V30 662 C 63.8892 -2.87523 -4.34718 0
M  V30 663 C 61.2172 -3.63572 -4.6047 0
M  V30 664 C 63.5692 -4.1634 -4.76281 0
M  V30 665 C 62.2332 -4.54675 -4.88699 0
M  V30 666 H 61.5032 -0.149644 -0.725732 0
M  V30 667 H 64.1502 -1.04521 -1.6046 0
M  V30 668 H 62.4552 0.163148 -3.9146 0
M  V30 669 H 64.1522 -0.217826 -4.00408 0
M  V30 670 H 60.7422 -1.65066 -3.95539 0
M  V30 671 H 64.9262 -2.59133 -4.23277 0
M  V30 672 H 60.1822 -3.93101 -4.68275 0
M  V30 673 H 64.3562 -4.87455 -4.97354 0
M  V30 674 H 61.9832 -5.54959 -5.19542 0
M  V30 675 N 63.5583 1.46682 -0.576371 0
M  V30 676 C 64.5053 2.30241 0.160499 0
M  V30 677 C 65.4753 1.40233 0.890162 0
M  V30 678 O 66.6603 1.69186 0.882084 0
M  V30 679 C 63.8003 3.24578 1.1723 0
M  V30 680 C 62.9133 4.29684 0.446736 0
M  V30 681 C 62.0483 5.11154 1.44551 0
M  V30 682 C 61.0873 6.08015 0.70599 0
M  V30 683 N 60.2243 6.82376 1.65251 0
M  V30 684 H 65.0643 2.92727 -0.558127 0
M  V30 685 H 62.6013 1.44272 -0.287056 0
M  V30 686 H 64.5593 3.77711 1.77172 0
M  V30 687 H 63.1893 2.63916 1.85872 0
M  V30 688 H 62.2413 3.79458 -0.267594 0
M  V30 689 H 63.5533 4.98626 -0.131686 0
M  V30 690 H 62.7073 5.68533 2.11791 0
M  V30 691 H 61.4463 4.42158 2.05786 0
M  V30 692 H 60.4513 5.49796 0.0197725 0
M  V30 693 H 61.6763 6.79028 0.09912 0
M  V30 694 H 59.6223 6.16094 2.25308 0
M  V30 695 H 59.5393 7.47556 1.12673 0
M  V30 696 H 60.8073 7.44316 2.31546 0
M  V30 697 N 65.0364 0.313813 1.54444 0
M  V30 698 C 65.9994 -0.54379 2.22656 0
M  V30 699 C 66.9994 -1.05124 1.21678 0
M  V30 700 O 68.1894 -0.945225 1.46325 0
M  V30 701 C 65.3214 -1.75427 2.92298 0
M  V30 702 H 66.5144 0.0523599 2.99854 0
M  V30 703 H 64.0674 0.0647834 1.56166 0
M  V30 704 H 64.8024 -2.38991 2.19211 0
M  V30 705 H 64.5874 -1.39791 3.66334 0
M  V30 706 H 66.0774 -2.36325 3.44297 0
M  V30 707 N 66.5145 -1.57545 0.0417849 0
M  V30 708 C 67.4475 -2.06514 -0.970928 0
M  V30 709 C 68.4255 -0.963607 -1.30971 0
M  V30 710 O 69.6095 -1.23486 -1.4242 0
M  V30 711 C 66.7365 -2.4978 -2.28752 0
M  V30 712 C 65.7825 -3.71078 -2.10246 0
M  V30 713 S 66.6155 -5.17158 -1.38952 0
M  V30 714 C 67.7715 -5.6373 -2.71954 0
M  V30 715 H 68.0045 -2.9209 -0.554129 0
M  V30 716 H 65.5375 -1.53459 -0.17024 0
M  V30 717 H 67.4955 -2.75371 -3.04435 0
M  V30 718 H 66.1565 -1.64527 -2.67562 0
M  V30 719 H 65.3495 -3.9924 -3.07609 0
M  V30 720 H 64.9515 -3.45705 -1.42704 0
M  V30 721 H 67.2435 -5.68743 -3.68154 0
M  V30 722 H 68.1865 -6.63086 -2.4844 0
M  V30 723 H 68.5945 -4.91424 -2.77782 0
M  V30 724 N 67.9926 0.231505 -1.5589 0
M  V30 725 C 69.2326 0.964533 -1.80211 0
M  V30 726 C 69.5966 1.81926 -0.613744 0
M  V30 727 O 70.7976 2.58526 -0.736045 0
M  V30 728 C 69.0686 1.78956 -3.09369 0
M  V30 729 S 70.6276 2.57959 -3.54969 0
M  V30 730 H 67.4456 0.324173 -0.632798 0
M  V30 731 H 70.0476 0.230985 -1.94131 0
M  V30 732 H 68.7516 1.15161 -3.93911 0
M  V30 733 H 68.2826 2.56559 -2.9823 0
M  V30 734 H 70.2976 3.81309 -3.17519 0
M  V30 735 N 69.4707 1.49531 0.497807 0
M  V30 736 C 70.7007 1.62657 1.27382 0
M  V30 737 C 71.1087 0.298488 1.86831 0
M  V30 738 O 70.4517 -0.72647 1.68725 0
M  V30 739 C 70.5137 2.6393 2.44093 0
M  V30 740 C 70.1777 4.08195 2.05489 0
M  V30 741 C 71.1747 4.949 1.59279 0
M  V30 742 C 68.8597 4.53948 2.15026 0
M  V30 743 C 70.8537 6.25397 1.23113 0
M  V30 744 C 68.5407 5.84458 1.78473 0
M  V30 745 C 69.5387 6.70006 1.32591 0
M  V30 746 O 69.2267 7.98083 0.965327 0
M  V30 747 H 68.9587 0.550429 0.392434 0
M  V30 748 H 71.5127 1.96325 0.603801 0
M  V30 749 H 69.7427 2.25449 3.14181 0
M  V30 750 H 71.4317 2.66552 3.06113 0
M  V30 751 H 72.1977 4.60779 1.51354 0
M  V30 752 H 68.0767 3.87525 2.4969 0
M  V30 753 H 71.6207 6.92125 0.872299 0
M  V30 754 H 67.5177 6.18107 1.86048 0
M  V30 755 H 68.2857 8.11122 1.09652 0
M  V30 756 N 70.9488 -0.749086 1.3866 0
M  V30 757 C 72.1958 -1.50833 1.35114 0
M  V30 758 C 72.5238 -1.94415 -0.0574049 0
M  V30 759 O 71.7788 -1.66065 -1.03541 0
M  V30 760 C 72.0778 -2.7712 2.25697 0
M  V30 761 C 71.7438 -2.52477 3.73585 0
M  V30 762 C 70.4058 -2.45466 4.13884 0
M  V30 763 C 72.7578 -2.31066 4.67181 0
M  V30 764 C 70.0858 -2.15064 5.45861 0
M  V30 765 C 72.4378 -2.02183 5.9942 0
M  V30 766 C 71.1018 -1.93631 6.38798 0
M  V30 767 H 70.3718 -0.551936 0.494416 0
M  V30 768 H 73.0188 -0.860979 1.71054 0
M  V30 769 H 71.3238 -3.46528 1.82827 0
M  V30 770 H 73.0208 -3.35096 2.20254 0
M  V30 771 H 69.6108 -2.58807 3.41638 0
M  V30 772 H 73.7948 -2.35459 4.3689 0
M  V30 773 H 69.0508 -2.06954 5.75308 0
M  V30 774 H 73.2248 -1.8462 6.71482 0
M  V30 775 H 70.8518 -1.69839 7.40985 0
M  V30 776 N 72.4269 -1.23603 -0.977757 0
M  V30 777 C 73.6549 -1.09646 -1.75458 0
M  V30 778 C 74.0699 0.351859 -1.85492 0
M  V30 779 O 73.4269 1.24327 -1.336 0
M  V30 780 C 73.4779 -1.71895 -3.18016 0
M  V30 781 O 73.1989 -3.11063 -3.08498 0
M  V30 782 C 74.6999 -1.63415 -4.12081 0
M  V30 783 H 71.9199 -0.38359 -0.550545 0
M  V30 784 H 74.4639 -1.63507 -1.22824 0
M  V30 785 H 72.6189 -1.22061 -3.67668 0
M  V30 786 H 73.0329 -3.41305 -3.9826 0
M  V30 787 H 74.5069 -2.11669 -5.09804 0
M  V30 788 H 74.9839 -0.593462 -4.35172 0
M  V30 789 H 75.5899 -2.12628 -3.68334 0
M  V30 790 N 73.905 1.17692 -1.04816 0
M  V30 791 C 74.853 2.23632 -0.63966 0
M  V30 792 C 75.847 1.6601 0.337219 0
M  V30 793 O 77.053 1.78844 0.203693 0
M  V30 794 H 73.428 0.727949 -0.188665 0
M  V30 795 H 75.399 2.55387 -1.54337 0
M  V30 796 C 74.148 3.4769 -0.0264051 0
M  V30 797 H 73.471 3.92331 -0.769164 0
M  V30 798 H 74.911 4.23418 0.222098 0
M  V30 799 C 73.37 3.13807 1.22584 0
M  V30 800 O 73.9 3.28236 2.31569 0
M  V30 801 N 72.106 2.68065 1.12202 0
M  V30 802 H 71.653 2.56525 0.235133 0
M  V30 803 H 71.611 2.45767 1.96076 0
M  V30 804 N 75.3831 0.828654 1.34056 0
M  V30 805 C 76.6311 0.41863 1.97717 0
M  V30 806 C 76.9521 -1.02314 1.66002 0
M  V30 807 O 76.2221 -1.71119 0.953683 0
M  V30 808 H 74.8021 0.151809 0.731412 0
M  V30 809 H 77.4641 1.05936 1.63596 0
M  V30 810 H 76.5601 0.542318 3.07352 0
M  V30 811 N 76.8612 -1.46375 0.584142 0
M  V30 812 C 78.0892 -2.06761 0.0759296 0
M  V30 813 C 78.5042 -1.43266 -1.22965 0
M  V30 814 O 77.8612 -0.538458 -1.74376 0
M  V30 815 C 77.9122 -3.61375 -0.0950384 0
M  V30 816 O 77.6332 -4.22495 1.15887 0
M  V30 817 C 79.1342 -4.38693 -0.637434 0
M  V30 818 H 76.3542 -0.668479 0.0581075 0
M  V30 819 H 78.8982 -1.8798 0.805218 0
M  V30 820 H 77.0532 -3.79578 -0.774554 0
M  V30 821 H 77.4672 -5.15385 0.973598 0
M  V30 822 H 78.9412 -5.47464 -0.706237 0
M  V30 823 H 79.4182 -4.06836 -1.65472 0
M  V30 824 H 80.0242 -4.25299 0.00725967 0
M  V30 825 N 78.3393 -0.321999 -1.54275 0
M  V30 826 C 79.2493 0.553631 -2.27974 0
M  V30 827 C 80.2653 1.13054 -1.32268 0
M  V30 828 O 81.4413 1.15084 -1.6528 0
M  V30 829 C 78.5063 1.69927 -3.02201 0
M  V30 830 C 77.5673 1.15433 -4.1349 0
M  V30 831 C 76.8003 2.24537 -4.84168 0
M  V30 832 O 77.0233 3.44852 -4.5435 0
M  V30 833 O 75.9573 1.90044 -5.7111 0
M  V30 834 H 79.7833 -0.0448345 -3.03667 0
M  V30 835 H 77.3683 -0.0877418 -1.49142 0
M  V30 836 H 79.2503 2.3663 -3.48689 0
M  V30 837 H 77.9253 2.28395 -2.29385 0
M  V30 838 H 76.8323 0.452436 -3.71354 0
M  V30 839 H 78.1653 0.614805 -4.88345 0
M  V30 840 N 79.8174 1.5752 -0.0501392 0
M  V30 841 C 81.2334 1.56631 0.306402 0
M  V30 842 C 81.4334 1.0577 1.71508 0
M  V30 843 O 80.4894 0.713837 2.422 0
M  V30 844 C 81.8024 3.00393 0.135811 0
M  V30 845 C 83.3504 3.12315 0.206993 0
M  V30 846 C 83.8254 4.57954 0.064944 0
M  V30 847 N 85.3164 4.63041 0.121254 0
M  V30 848 C 86.0514 5.73389 0.0354381 0
M  V30 849 N 85.5474 6.92724 -0.102666 0
M  V30 850 N 87.3404 5.62026 0.090946 0
M  V30 851 H 79.4914 1.88903 -0.971046 0
M  V30 852 H 81.7544 0.869876 -0.376855 0
M  V30 853 H 81.4604 3.41635 -0.835384 0
M  V30 854 H 81.3344 3.66373 0.897275 0
M  V30 855 H 83.7214 2.70973 1.16866 0
M  V30 856 H 83.8024 2.49016 -0.585208 0
M  V30 857 H 83.4464 4.99981 -0.893394 0
M  V30 858 H 83.3764 5.19258 0.876277 0
M  V30 859 H 85.8674 3.77216 0.227284 0
M  V30 860 H 86.1804 7.72633 -0.160882 0
M  V30 861 H 84.5254 6.94864 -0.137737 0
M  V30 862 H 87.7164 4.67684 0.197388 0
M  V30 863 H 87.8894 6.47997 0.0206089 0
M  V30 864 N 81.2955 -0.223234 1.56011 0
M  V30 865 C 82.5415 -0.949279 1.79211 0
M  V30 866 C 82.8745 -1.84054 0.619494 0
M  V30 867 O 82.1495 -1.90726 -0.381317 0
M  V30 868 C 82.4325 -1.78965 3.12479 0
M  V30 869 C 82.2855 -0.924997 4.40186 0
M  V30 870 C 83.6045 -2.76774 3.42175 0
M  V30 871 H 80.7235 -0.343676 0.651963 0
M  V30 872 H 83.3655 -0.218253 1.88742 0
M  V30 873 H 81.5155 -2.41291 3.04485 0
M  V30 874 H 83.1875 -0.318615 4.60198 0
M  V30 875 H 81.4305 -0.230344 4.33188 0
M  V30 876 H 82.1015 -1.54735 5.29869 0
M  V30 877 H 84.5775 -2.24584 3.50287 0
M  V30 878 H 83.4535 -3.32678 4.36597 0
M  V30 879 H 83.7145 -3.54429 2.64258 0
M  V30 880 N 82.7736 -1.49793 -0.48987 0
M  V30 881 C 84.1896 -1.36803 -0.822022 0
M  V30 882 C 84.3896 -0.409652 -1.97292 0
M  V30 883 O 83.4456 0.154614 -2.52026 0
M  V30 884 C 84.7586 -2.77768 -1.15175 0
M  V30 885 C 86.3066 -2.86549 -1.25931 0
M  V30 886 C 86.7816 -4.28306 -1.62228 0
M  V30 887 N 88.2726 -4.31169 -1.69256 0
M  V30 888 C 89.0076 -5.37832 -1.98807 0
M  V30 889 N 88.5036 -6.54726 -2.26507 0
M  V30 890 N 90.2966 -5.25258 -2.00152 0
M  V30 891 H 82.4476 -2.10691 0.268881 0
M  V30 892 H 84.7106 -0.946241 0.057728 0
M  V30 893 H 84.4166 -3.49648 -0.379335 0
M  V30 894 H 84.2906 -3.13836 -2.09253 0
M  V30 895 H 86.6776 -2.14899 -2.02243 0
M  V30 896 H 86.7586 -2.54049 -0.298776 0
M  V30 897 H 86.4026 -5.00486 -0.864622 0
M  V30 898 H 86.3326 -4.58279 -2.594 0
M  V30 899 H 88.8236 -3.4687 -1.49965 0
M  V30 900 H 89.1366 -7.31833 -2.48276 0
M  V30 901 H 87.4816 -6.57933 -2.23939 0
M  V30 902 H 90.6726 -4.32938 -1.77996 0
M  V30 903 H 90.8456 -6.08476 -2.22848 0
M  V30 904 N 84.2517 0.741722 -1.39055 0
M  V30 905 C 85.4817 1.52876 -1.3897 0
M  V30 906 C 85.8897 1.8919 0.0193266 0
M  V30 907 O 85.2327 1.54138 0.999356 0
M  V30 908 C 85.2947 2.84929 -2.19216 0
M  V30 909 C 84.9587 2.71086 -3.67915 0
M  V30 910 C 85.9557 2.40084 -4.61146 0
M  V30 911 C 83.6407 2.88168 -4.11418 0
M  V30 912 C 85.6347 2.26335 -5.95862 0
M  V30 913 C 83.3217 2.74037 -5.46211 0
M  V30 914 C 84.3197 2.43166 -6.38247 0
M  V30 915 O 84.0077 2.29115 -7.70559 0
M  V30 916 H 83.7397 0.479252 -0.476753 0
M  V30 917 H 86.2937 0.924751 -1.83405 0
M  V30 918 H 84.5237 3.47564 -1.69518 0
M  V30 919 H 86.2127 3.46509 -2.11392 0
M  V30 920 H 86.9787 2.26545 -4.28838 0
M  V30 921 H 82.8577 3.11191 -3.40119 0
M  V30 922 H 86.4017 2.0216 -6.67665 0
M  V30 923 H 82.2987 2.87153 -5.78112 0
M  V30 924 H 83.0667 2.44237 -7.81211 0
M  V30 925 N 85.7298 1.2412 0.971189 0
M  V30 926 C 86.9758 1.08041 1.71625 0
M  V30 927 C 87.3088 -0.380407 1.90438 0
M  V30 928 O 86.5838 -1.28127 1.46334 0
M  V30 929 C 86.8668 1.81682 3.10908 0
M  V30 930 C 86.7198 3.35493 2.99608 0
M  V30 931 C 88.0388 1.58671 4.10501 0
M  V30 932 H 85.1578 0.39388 0.622919 0
M  V30 933 H 87.7998 1.52743 1.13003 0
M  V30 934 H 85.9498 1.43684 3.60953 0
M  V30 935 H 87.6218 3.83068 2.57015 0
M  V30 936 H 85.8648 3.64052 2.35899 0
M  V30 937 H 86.5358 3.82217 3.98264 0
M  V30 938 H 89.0118 1.91719 3.69301 0
M  V30 939 H 87.8878 2.1266 5.06031 0
M  V30 940 H 88.1488 0.524161 4.38982 0
M  V30 941 N 87.2079 -1.17134 1.05439 0
M  V30 942 C 88.4359 -1.91372 0.786414 0
M  V30 943 C 88.8509 -1.76955 -0.658202 0
M  V30 944 O 88.2079 -1.10838 -1.44987 0
M  V30 945 C 88.2589 -3.42356 1.1608 0
M  V30 946 O 87.9799 -3.56332 2.54871 0
M  V30 947 C 89.4809 -4.33663 0.919322 0
M  V30 948 H 86.7009 -0.607118 0.285743 0
M  V30 949 H 89.2449 -1.48525 1.40572 0
M  V30 950 H 87.3999 -3.82939 0.586191 0
M  V30 951 H 87.8139 -4.49896 2.69618 0
M  V30 952 H 89.2879 -5.38099 1.231 0
M  V30 953 H 89.7649 -4.38959 -0.145359 0
M  V30 954 H 90.3709 -3.98796 1.47789 0
M  V30 955 N 88.686 -0.835752 -1.33615 0
M  V30 956 C 90.102 -0.523139 -1.50783 0
M  V30 957 C 90.302 0.950171 -1.77691 0
M  V30 958 O 89.358 1.73411 -1.83534 0
M  V30 959 C 90.671 -1.39378 -2.66448 0
M  V30 960 C 92.219 -1.39223 -2.80332 0
M  V30 961 C 92.694 -2.24765 -3.99055 0
M  V30 962 N 94.185 -2.22458 -4.06284 0
M  V30 963 C 94.92 -2.85386 -4.97336 0
M  V30 964 N 94.416 -3.57354 -5.93523 0
M  V30 965 N 96.209 -2.74872 -4.90308 0
M  V30 966 H 88.36 -1.78952 -1.14411 0
M  V30 967 H 90.623 -0.763297 -0.562212 0
M  V30 968 H 90.329 -2.44061 -2.53234 0
M  V30 969 H 90.203 -1.0676 -3.61776 0
M  V30 970 H 92.59 -0.353136 -2.92979 0
M  V30 971 H 92.671 -1.75846 -1.85773 0
M  V30 972 H 92.315 -3.28732 -3.87167 0
M  V30 973 H 92.245 -1.85485 -4.92852 0
M  V30 974 H 94.736 -1.70119 -3.37443 0
M  V30 975 H 95.049 -4.02584 -6.59656 0
M  V30 976 H 93.394 -3.61461 -5.93608 0
M  V30 977 H 96.585 -2.18213 -4.14126 0
M  V30 978 H 96.758 -3.24199 -5.61069 0
M  V30 979 N 90.1641 1.46063 -0.591896 0
M  V30 980 C 91.3941 2.06418 -0.0867676 0
M  V30 981 C 91.8021 1.43975 1.22751 0
M  V30 982 O 91.1451 0.542531 1.75506 0
M  V30 983 C 91.2071 3.59213 0.143725 0
M  V30 984 C 90.8711 4.439 -1.08635 0
M  V30 985 C 91.8681 4.79864 -2.00067 0
M  V30 986 C 89.5531 4.84896 -1.31077 0
M  V30 987 C 91.5471 5.55661 -3.12282 0
M  V30 988 C 89.2341 5.6045 -2.43596 0
M  V30 989 C 90.2321 5.95747 -3.34027 0
M  V30 990 O 89.9201 6.69772 -4.4459 0
M  V30 991 H 89.6521 0.673443 -0.0587447 0
M  V30 992 H 92.2061 1.88539 -0.814994 0
M  V30 993 H 90.4361 3.75433 0.926668 0
M  V30 994 H 92.1251 4.01463 0.5985 0
M  V30 995 H 92.8911 4.48763 -1.83947 0
M  V30 996 H 88.7701 4.56867 -0.61594 0
M  V30 997 H 92.3141 5.8313 -3.82891 0
M  V30 998 H 88.2111 5.90965 -2.59674 0
M  V30 999 H 88.9791 6.88207 -4.43073 0
M  V30 1000 N 91.6422 0.330177 1.54103 0
M  V30 1001 C 92.8912 -0.271336 1.99867 0
M  V30 1002 C 93.2042 -1.52723 1.22209 0
M  V30 1003 O 94.4102 -2.20515 1.58383 0
M  V30 1004 C 92.8662 -0.534032 3.55916 0
M  V30 1005 C 92.4742 0.705193 4.42415 0
M  V30 1006 C 94.2182 -1.09514 4.1013 0
M  V30 1007 C 92.1252 0.414035 5.89949 0
M  V30 1008 H 91.0552 -0.105166 0.74663 0
M  V30 1009 H 93.7062 0.443429 1.78062 0
M  V30 1010 H 92.0882 -1.30915 3.73734 0
M  V30 1011 H 93.2622 1.4804 4.36372 0
M  V30 1012 H 91.5772 1.18698 3.99124 0
M  V30 1013 H 94.1742 -1.3277 5.17954 0
M  V30 1014 H 94.5172 -2.04656 3.62521 0
M  V30 1015 H 95.0502 -0.381038 3.95971 0
M  V30 1016 H 91.7892 1.33481 6.41766 0
M  V30 1017 H 91.3092 -0.323336 5.98928 0
M  V30 1018 H 92.9882 0.0263105 6.46995 0
M  V30 1019 N 93.1203 -1.57491 0.0584922 0
M  V30 1020 C 94.3503 -1.9701 -0.622134 0
M  V30 1021 C 94.7583 -0.935034 -1.6448 0
M  V30 1022 O 94.1013 0.0882904 -1.83488 0
M  V30 1023 C 94.1633 -3.32794 -1.35972 0
M  V30 1024 C 93.8273 -4.54343 -0.492043 0
M  V30 1025 C 94.8243 -5.19323 0.244901 0
M  V30 1026 C 92.5093 -5.00534 -0.420821 0
M  V30 1027 C 94.5033 -6.28835 1.04143 0
M  V30 1028 C 92.1903 -6.09921 0.379389 0
M  V30 1029 C 93.1883 -6.73933 1.10919 0
M  V30 1030 O 92.8763 -7.81216 1.89623 0
M  V30 1031 H 92.6083 -0.653127 -0.174359 0
M  V30 1032 H 95.1623 -2.05029 0.123418 0
M  V30 1033 H 93.3923 -3.21351 -2.15105 0
M  V30 1034 H 95.0813 -3.5701 -1.93129 0
M  V30 1035 H 95.8473 -4.8459 0.19939 0
M  V30 1036 H 91.7263 -4.50496 -0.978474 0
M  V30 1037 H 95.2703 -6.7873 1.61157 0
M  V30 1038 H 91.1673 -6.44089 0.426512 0
M  V30 1039 H 91.9353 -7.98029 1.81913 0
M  V30 1040 N 94.5984 0.214957 -1.56127 0
M  V30 1041 C 95.5464 1.28601 -1.93816 0
M  V30 1042 C 96.5404 1.48175 -0.821016 0
M  V30 1043 O 97.7464 1.49271 -1.0059 0
M  V30 1044 H 94.1214 0.431302 -0.616022 0
M  V30 1045 H 96.0924 0.940991 -2.83175 0
M  V30 1046 C 94.8414 2.62779 -2.27689 0
M  V30 1047 H 94.1644 2.48527 -3.13168 0
M  V30 1048 H 95.6044 3.36517 -2.57939 0
M  V30 1049 C 94.0634 3.18285 -1.10436 0
M  V30 1050 O 94.5934 4.00002 -0.368945 0
M  V30 1051 N 92.7994 2.7675 -0.886433 0
M  V30 1052 H 92.3464 2.10404 -1.48619 0
M  V30 1053 H 92.3044 3.14229 -0.103656 0
M  V30 1054 N 96.0765 1.50051 0.48192 0
M  V30 1055 C 97.4925 1.37237 0.814756 0
M  V30 1056 C 97.6925 0.420109 1.97072 0
M  V30 1057 O 96.7485 -0.141246 2.52105 0
M  V30 1058 C 98.0615 2.78375 1.13701 0
M  V30 1059 C 99.6095 2.87213 1.2441 0
M  V30 1060 C 100.084 4.29161 1.59954 0
M  V30 1061 N 101.575 4.32061 1.66967 0
M  V30 1062 C 102.31 5.38879 1.95952 0
M  V30 1063 N 101.806 6.55918 2.23031 0
M  V30 1064 N 103.599 5.26312 1.97363 0
M  V30 1065 H 95.7505 2.10546 -0.28005 0
M  V30 1066 H 98.0135 0.945921 -0.0627454 0
M  V30 1067 H 97.7195 3.49845 0.360787 0
M  V30 1068 H 97.5935 3.14941 2.07586 0
M  V30 1069 H 99.9805 2.15969 2.01101 0
M  V30 1070 H 100.061 2.54204 0.285299 0
M  V30 1071 H 99.7055 5.00938 0.838067 0
M  V30 1072 H 99.6355 4.59648 2.56966 0
M  V30 1073 H 102.126 3.47661 1.48123 0
M  V30 1074 H 102.439 7.33139 2.44391 0
M  V30 1075 H 100.784 6.59112 2.20447 0
M  V30 1076 H 103.975 4.33876 1.75697 0
M  V30 1077 H 104.148 6.09649 2.19618 0
M  V30 1078 N 97.5546 -0.734337 1.39446 0
M  V30 1079 C 98.4646 -1.87879 1.40495 0
M  V30 1080 C 99.4806 -1.714 0.299672 0
M  V30 1081 O 100.657 -1.93991 0.541249 0
M  V30 1082 C 97.7216 -3.23477 1.24754 0
M  V30 1083 C 96.7826 -3.52344 2.45259 0
M  V30 1084 C 96.0156 -4.81473 2.30259 0
M  V30 1085 O 96.2386 -5.55237 1.30643 0
M  V30 1086 O 95.1726 -5.10254 3.19256 0
M  V30 1087 H 98.9986 -1.89949 2.36966 0
M  V30 1088 H 96.5836 -0.882243 1.20569 0
M  V30 1089 H 98.4656 -4.04509 1.18111 0
M  V30 1090 H 97.1406 -3.22176 0.313781 0
M  V30 1091 H 96.0476 -2.71396 2.57478 0
M  V30 1092 H 97.3806 -3.58426 3.37331 0
M  V30 1093 N 99.0327 -1.24633 -0.964593 0
M  V30 1094 C 99.9427 -1.05859 -2.09359 0
M  V30 1095 C 100.959 0.00148855 -1.74 0
M  V30 1096 O 102.135 -0.197346 -2.00431 0
M  V30 1097 C 99.1997 -0.668879 -3.40187 0
M  V30 1098 C 98.2607 -1.80578 -3.89474 0
M  V30 1099 C 97.4937 -1.43457 -5.14058 0
M  V30 1100 O 97.7167 -0.325775 -5.69469 0
M  V30 1101 O 96.6507 -2.2613 -5.57807 0
M  V30 1102 H 100.477 -2.00516 -2.28094 0
M  V30 1103 H 98.0617 -1.03481 -1.0776 0
M  V30 1104 H 99.9437 -0.463211 -4.18846 0
M  V30 1105 H 98.6187 0.248536 -3.22744 0
M  V30 1106 H 97.5257 -2.06623 -3.11862 0
M  V30 1107 H 98.8587 -2.70208 -4.11398 0
M  V30 1108 N 100.511 1.16574 -1.06058 0
M  V30 1109 C 101.741 1.90675 -0.795397 0
M  V30 1110 C 102.149 1.77547 0.653735 0
M  V30 1111 O 101.492 1.11611 1.45907 0
M  V30 1112 C 101.554 3.42011 -1.10764 0
M  V30 1113 C 101.218 3.78924 -2.55471 0
M  V30 1114 C 102.215 3.81042 -3.53699 0
M  V30 1115 C 99.8998 4.09626 -2.90708 0
M  V30 1116 C 101.894 4.13346 -4.85205 0
M  V30 1117 C 99.5808 4.41597 -4.22416 0
M  V30 1118 C 100.579 4.43436 -5.19474 0
M  V30 1119 O 100.267 4.74649 -6.48817 0
M  V30 1120 H 99.9988 0.611554 -0.288058 0
M  V30 1121 H 102.553 1.48711 -1.41683 0
M  V30 1122 H 100.783 3.84312 -0.429128 0
M  V30 1123 H 102.472 3.97384 -0.827077 0
M  V30 1124 H 103.238 3.57437 -3.27817 0
M  V30 1125 H 99.1168 4.07361 -2.15819 0
M  V30 1126 H 102.661 4.14696 -5.60957 0
M  V30 1127 H 98.5578 4.64667 -4.48056 0
M  V30 1128 H 99.3258 4.9247 -6.5377 0
M  V30 1129 N 101.989 0.842826 1.3317 0
M  V30 1130 C 102.952 0.284065 2.27433 0
M  V30 1131 C 103.952 -0.54948 1.5112 0
M  V30 1132 O 105.142 -0.362699 1.70382 0
M  V30 1133 C 102.274 -0.599384 3.35589 0
M  V30 1134 H 103.467 1.11589 2.78366 0
M  V30 1135 H 101.02 0.616221 1.4364 0
M  V30 1136 H 101.755 -1.45349 2.89904 0
M  V30 1137 H 101.54 -0.00291266 3.921 0
M  V30 1138 H 103.03 -0.983488 4.05854 0
M  V30 1139 N 103.467 -1.45747 0.599634 0
M  V30 1140 C 104.883 -1.57424 0.26264 0
M  V30 1141 C 105.083 -1.59222 -1.23493 0
M  V30 1142 O 104.139 -1.51825 -2.01756 0
M  V30 1143 C 105.452 -2.86061 0.926795 0
M  V30 1144 C 107 -2.99722 0.901967 0
M  V30 1145 C 107.475 -4.31119 1.54598 0
M  V30 1146 N 108.966 -4.37858 1.5111 0
M  V30 1147 C 109.701 -5.3818 1.97863 0
M  V30 1148 N 109.197 -6.45083 2.52666 0
M  V30 1149 N 110.99 -5.29487 1.88679 0
M  V30 1150 H 103.141 -1.42823 1.57211 0
M  V30 1151 H 105.404 -0.68235 0.658105 0
M  V30 1152 H 105.11 -2.90605 1.98095 0
M  V30 1153 H 104.984 -3.74563 0.445238 0
M  V30 1154 H 107.371 -2.9475 -0.143617 0
M  V30 1155 H 107.452 -2.12652 1.42171 0
M  V30 1156 H 107.096 -4.36849 2.59085 0
M  V30 1157 H 107.026 -5.16992 1.00132 0
M  V30 1158 H 109.517 -3.61209 1.11068 0
M  V30 1159 H 109.83 -7.17869 2.86155 0
M  V30 1160 H 108.175 -6.45856 2.56701 0
M  V30 1161 H 111.366 -4.44877 1.4561 0
M  V30 1162 H 111.539 -6.07524 2.25429 0
M  V30 1163 N 104.945 -0.338344 -1.53925 0
M  V30 1164 C 106.192 0.259758 -2.00827 0
M  V30 1165 C 106.52 1.50973 -1.22628 0
M  V30 1166 O 105.775 1.93379 -0.300509 0
M  V30 1167 C 106.074 0.62448 -3.51902 0
M  V30 1168 C 105.74 -0.528006 -4.47798 0
M  V30 1169 C 104.402 -0.844298 -4.73735 0
M  V30 1170 C 106.754 -1.30143 -5.0469 0
M  V30 1171 C 104.082 -1.93648 -5.53821 0
M  V30 1172 C 106.434 -2.38382 -5.85967 0
M  V30 1173 C 105.098 -2.70576 -6.10201 0
M  V30 1174 H 104.368 0.0950523 -0.734878 0
M  V30 1175 H 107.015 -0.465182 -1.85764 0
M  V30 1176 H 105.32 1.43006 -3.64769 0
M  V30 1177 H 107.017 1.09905 -3.85645 0
M  V30 1178 H 103.607 -0.271421 -4.2774 0
M  V30 1179 H 107.791 -1.07033 -4.84621 0
M  V30 1180 H 103.047 -2.19021 -5.70824 0
M  V30 1181 H 107.221 -2.98746 -6.29066 0
M  V30 1182 H 104.848 -3.55333 -6.72044 0
M  V30 1183 N 106.423 1.57458 -0.0668435 0
M  V30 1184 C 107.7 1.8469 0.644132 0
M  V30 1185 C 108.08 0.958343 1.88093 0
M  V30 1186 O 107.428 0.0233579 2.28488 0
M  V30 1187 C 107.638 3.34767 0.986509 0
M  V30 1188 C 108.986 4.02159 1.36212 0
M  V30 1189 O 110.01 3.39484 1.07839 0
M  V30 1190 O 108.869 5.12694 1.89227 0
M  V30 1191 H 105.963 0.762816 0.319437 0
M  V30 1192 H 108.509 1.6942 -0.0973986 0
M  V30 1193 H 107.281 3.91151 0.107883 0
M  V30 1194 H 106.904 3.55281 1.78497 0
M  V30 1195 N 107.901 -0.206675 1.56239 0
M  V30 1196 C 109.126 -0.949474 1.8439 0
M  V30 1197 C 109.551 -1.76549 0.649016 0
M  V30 1198 O 108.909 -1.76782 -0.402231 0
M  V30 1199 C 108.957 -1.83078 3.10668 0
M  V30 1200 O 108.061 -2.9281 2.90407 0
M  V30 1201 H 107.402 -0.268033 0.607499 0
M  V30 1202 H 109.932 -0.215488 2.03462 0
M  V30 1203 H 109.942 -2.2377 3.41161 0
M  V30 1204 H 108.617 -1.23112 3.97261 0
M  V30 1205 H 107.194 -2.55956 2.71184 0
M  V30 1206 N 109.379 -1.50304 -0.473955 0
M  V30 1207 C 110.656 -1.51667 -1.23518 0
M  V30 1208 C 111.036 -0.259701 -2.09496 0
M  V30 1209 O 110.384 0.756986 -2.15597 0
M  V30 1210 C 110.594 -2.81082 -2.06868 0
M  V30 1211 C 111.942 -3.31631 -2.65153 0
M  V30 1212 O 112.966 -2.82384 -2.17113 0
M  V30 1213 O 111.825 -4.17471 -3.52675 0
M  V30 1214 H 108.919 -0.60822 -0.560355 0
M  V30 1215 H 111.465 -1.62592 -0.486011 0
M  V30 1216 H 110.237 -3.64041 -1.4349 0
M  V30 1217 H 109.86 -2.73146 -2.88924 0
M  V30 1218 N 110.857 0.726932 -1.39834 0
M  V30 1219 C 112.103 1.48884 -1.377 0
M  V30 1220 C 112.436 1.94185 0.0244852 0
M  V30 1221 O 111.711 1.67361 0.990986 0
M  V30 1222 C 111.994 2.72288 -2.3565 0
M  V30 1223 C 111.847 2.32956 -3.84775 0
M  V30 1224 C 113.166 3.74414 -2.31306 0
M  V30 1225 H 110.285 0.540062 -0.5015 0
M  V30 1226 H 112.927 0.830547 -1.70886 0
M  V30 1227 H 111.077 3.28457 -2.07481 0
M  V30 1228 H 112.749 1.82356 -4.23726 0
M  V30 1229 H 110.992 1.65088 -4.01159 0
M  V30 1230 H 111.663 3.21362 -4.4881 0
M  V30 1231 H 114.139 3.27849 -2.56231 0
M  V30 1232 H 113.015 4.58414 -3.01907 0
M  V30 1233 H 113.276 4.21909 -1.32081 0
M  V30 1234 N 112.336 1.25143 0.95797 0
M  V30 1235 C 113.246 1.06968 2.08794 0
M  V30 1236 C 114.262 0.00773911 1.73998 0
M  V30 1237 O 115.438 0.207972 2.00323 0
M  V30 1238 C 112.503 0.68691 3.39827 0
M  V30 1239 C 111.564 1.82641 3.88511 0
M  V30 1240 C 110.797 1.46181 5.1329 0
M  V30 1241 O 111.02 0.355971 5.69288 0
M  V30 1242 O 109.954 2.29085 5.566 0
M  V30 1243 H 113.78 2.01723 2.27027 0
M  V30 1244 H 111.365 1.04051 1.07209 0
M  V30 1245 H 113.247 0.485417 4.18595 0
M  V30 1246 H 111.922 -0.231417 3.22872 0
M  V30 1247 H 110.829 2.08274 3.10762 0
M  V30 1248 H 112.162 2.72386 4.09959 0
M  V30 1249 N 113.814 -1.1601 1.06675 0
M  V30 1250 C 115.06 -1.86909 0.786945 0
M  V30 1251 C 115.393 -1.81717 -0.685018 0
M  V30 1252 O 114.668 -1.23551 -1.50218 0
M  V30 1253 C 114.951 -3.36313 1.28707 0
M  V30 1254 C 114.804 -3.50175 2.82308 0
M  V30 1255 C 116.123 -4.3084 0.898071 0
M  V30 1256 H 113.242 -0.678677 0.287343 0
M  V30 1257 H 115.884 -1.36336 1.32334 0
M  V30 1258 H 114.034 -3.79513 0.830768 0
M  V30 1259 H 115.706 -3.15886 3.36175 0
M  V30 1260 H 113.949 -2.91959 3.20847 0
M  V30 1261 H 114.62 -4.55116 3.12368 0
M  V30 1262 H 117.096 -3.95561 1.29114 0
M  V30 1263 H 115.972 -5.33876 1.27543 0
M  V30 1264 H 116.233 -4.41662 -0.196651 0
M  V30 1265 N 115.292 -0.849877 -1.32721 0
M  V30 1266 C 116.522 -0.46408 -2.0132 0
M  V30 1267 C 116.93 0.94246 -1.64056 0
M  V30 1268 O 116.273 1.6257 -0.855379 0
M  V30 1269 C 116.335 -0.517887 -3.5575 0
M  V30 1270 C 115.999 -1.88248 -4.16427 0
M  V30 1271 C 116.996 -2.84726 -4.35002 0
M  V30 1272 C 114.681 -2.17832 -4.52609 0
M  V30 1273 C 116.675 -4.08945 -4.8892 0
M  V30 1274 C 114.362 -3.42304 -5.06232 0
M  V30 1275 C 115.36 -4.37677 -5.24335 0
M  V30 1276 O 115.048 -5.59946 -5.76815 0
M  V30 1277 H 114.78 -0.181327 -0.651227 0
M  V30 1278 H 117.334 -1.14713 -1.70382 0
M  V30 1279 H 115.564 0.221997 -3.86062 0
M  V30 1280 H 117.253 -0.148366 -4.05629 0
M  V30 1281 H 118.019 -2.63174 -4.07388 0
M  V30 1282 H 113.898 -1.44385 -4.37806 0
M  V30 1283 H 117.442 -4.83396 -5.02966 0
M  V30 1284 H 113.339 -3.63709 -5.33278 0
M  V30 1285 H 114.107 -5.61838 -5.95214 0
M  V30 1286 N 116.77 1.45427 -0.607355 0
M  V30 1287 C 118.186 1.57283 -0.270985 0
M  V30 1288 C 118.386 1.59875 1.22647 0
M  V30 1289 O 117.442 1.52893 2.00948 0
M  V30 1290 C 118.755 2.85566 -0.941952 0
M  V30 1291 C 120.303 2.9924 -0.917849 0
M  V30 1292 C 120.778 4.30293 -1.56882 0
M  V30 1293 N 122.269 4.37051 -1.5343 0
M  V30 1294 C 123.004 5.37123 -2.00715 0
M  V30 1295 N 122.5 6.43734 -2.56084 0
M  V30 1296 N 124.293 5.28479 -1.91484 0
M  V30 1297 H 116.444 1.41988 -1.57966 0
M  V30 1298 H 118.707 0.67885 -0.661715 0
M  V30 1299 H 118.413 2.8955 -1.99633 0
M  V30 1300 H 118.287 3.74322 -0.465096 0
M  V30 1301 H 120.674 2.94822 0.127984 0
M  V30 1302 H 120.755 2.11895 -1.43297 0
M  V30 1303 H 120.399 4.35469 -2.61398 0
M  V30 1304 H 120.329 5.16454 -1.02873 0
M  V30 1305 H 122.82 3.60615 -1.12982 0
M  V30 1306 H 123.133 7.16341 -2.89958 0
M  V30 1307 H 121.478 6.44485 -2.60122 0
M  V30 1308 H 124.669 4.44098 -1.47967 0
M  V30 1309 H 124.842 6.0632 -2.28648 0
M  V30 1310 N 118.248 0.346503 1.53744 0
M  V30 1311 C 119.211 -0.496439 2.23759 0
M  V30 1312 C 120.211 -1.0252 1.2388 0
M  V30 1313 O 121.401 -0.913974 1.48297 0
M  V30 1314 C 118.533 -1.69187 2.95954 0
M  V30 1315 H 119.726 0.115952 2.99676 0
M  V30 1316 H 117.279 0.0978939 1.55993 0
M  V30 1317 H 118.014 -2.34288 2.24231 0
M  V30 1318 H 117.799 -1.31989 3.69217 0
M  V30 1319 H 119.289 -2.28969 3.49232 0
M  V30 1320 N 119.726 -1.57421 0.075193 0
M  V30 1321 C 120.972 -1.93905 -0.594025 0
M  V30 1322 C 121.305 -0.955701 -1.69056 0
M  V30 1323 O 120.58 0.0145373 -1.94495 0
M  V30 1324 C 120.863 -3.40638 -1.1678 0
M  V30 1325 C 120.716 -4.49733 -0.0776792 0
M  V30 1326 C 122.035 -3.88259 -2.07228 0
M  V30 1327 H 119.154 -0.705105 -0.214466 0
M  V30 1328 H 121.796 -1.8947 0.141854 0
M  V30 1329 H 119.946 -3.44549 -1.79494 0
M  V30 1330 H 121.618 -4.57942 0.555573 0
M  V30 1331 H 119.861 -4.29751 0.591286 0
M  V30 1332 H 120.532 -5.49549 -0.519603 0
M  V30 1333 H 123.008 -3.86376 -1.54445 0
M  V30 1334 H 121.884 -4.91533 -2.44308 0
M  V30 1335 H 122.145 -3.26396 -2.98191 0
M  V30 1336 N 121.204 0.198386 -1.56346 0
M  V30 1337 C 122.432 0.935572 -1.84539 0
M  V30 1338 C 122.847 1.76989 -0.657281 0
M  V30 1339 O 122.204 1.78626 0.374043 0
M  V30 1340 C 122.255 1.8344 -3.11499 0
M  V30 1341 O 121.976 1.03377 -4.25728 0
M  V30 1342 C 123.477 2.68355 -3.52846 0
M  V30 1343 H 120.697 0.273126 -0.612897 0
M  V30 1344 H 123.241 0.20663 -2.03453 0
M  V30 1345 H 121.396 2.51701 -2.94492 0
M  V30 1346 H 121.81 1.64599 -4.98003 0
M  V30 1347 H 123.284 3.27085 -4.44657 0
M  V30 1348 H 123.761 3.41901 -2.75681 0
M  V30 1349 H 124.367 2.05471 -3.72373 0
M  V30 1350 N 122.682 1.50554 0.465978 0
M  V30 1351 C 124.093 1.54599 1.04671 0
M  V30 1352 C 124.444 0.352488 1.93008 0
M  V30 1353 O 123.569 -0.534044 2.09707 0
M  V30 1354 C 124.164 2.80166 1.90505 0
M  V30 1355 C 122.723 2.86876 2.43678 0
M  V30 1356 C 121.87 2.48947 1.22151 0
M  V30 1357 H 124.821 1.56744 0.248384 0
M  V30 1358 H 124.842 2.62311 2.75633 0
M  V30 1359 H 124.354 3.67013 1.26186 0
M  V30 1360 H 122.455 2.04393 3.11536 0
M  V30 1361 H 122.568 3.89885 2.78436 0
M  V30 1362 H 120.932 2.01498 1.5579 0
M  V30 1363 H 121.715 3.38107 0.594866 0
M  V30 1364 N 124.16 -0.719506 1.40217 0
M  V30 1365 C 125.09 -1.8465 1.42922 0
M  V30 1366 C 126.071 -1.67599 0.29062 0
M  V30 1367 O 127.256 -1.87688 0.498677 0
M  V30 1368 C 124.386 -3.22565 1.28722 0
M  V30 1369 C 123.34 -3.54281 2.40144 0
M  V30 1370 C 122.666 -4.91298 2.11023 0
M  V30 1371 C 123.966 -3.55676 3.82481 0
M  V30 1372 H 125.66 -1.82644 2.37237 0
M  V30 1373 H 123.206 -0.877305 1.1419 0
M  V30 1374 H 125.159 -4.01095 1.29232 0
M  V30 1375 H 123.883 -3.25137 0.308811 0
M  V30 1376 H 122.542 -2.78088 2.38877 0
M  V30 1377 H 122.19 -4.90468 1.11582 0
M  V30 1378 H 121.89 -5.13485 2.8567 0
M  V30 1379 H 123.414 -5.72166 2.13209 0
M  V30 1380 H 124.828 -4.24254 3.85592 0
M  V30 1381 H 123.225 -3.89388 4.56614 0
M  V30 1382 H 124.295 -2.55144 4.12346 0
M  V30 1383 N 125.638 -1.25649 -0.95132 0
M  V30 1384 C 126.886 -1.10375 -1.69298 0
M  V30 1385 C 127.207 0.355339 -1.91735 0
M  V30 1386 O 126.477 1.25188 -1.50681 0
M  V30 1387 H 125.057 -0.405461 -0.627384 0
M  V30 1388 H 127.719 -1.57823 -1.14358 0
M  V30 1389 H 126.815 -1.61465 -2.67087 0
M  V30 1390 N 127.117 1.15442 -1.07289 0
M  V30 1391 C 128.528 1.67803 -0.818475 0
M  V30 1392 C 128.879 1.8489 0.656507 0
M  V30 1393 O 128.004 1.55176 1.50829 0
M  V30 1394 C 128.599 3.04805 -1.47917 0
M  V30 1395 C 127.158 3.54245 -1.27229 0
M  V30 1396 C 126.305 2.29986 -1.54925 0
M  V30 1397 H 129.256 0.996646 -1.23502 0
M  V30 1398 H 129.277 3.69702 -0.90005 0
M  V30 1399 H 128.789 2.92336 -2.55267 0
M  V30 1400 H 126.89 3.71956 -0.21899 0
M  V30 1401 H 127.003 4.35723 -1.99203 0
M  V30 1402 H 125.367 2.35496 -0.970242 0
M  V30 1403 H 126.15 2.20105 -2.63455 0
M  V30 1404 N 128.595 0.856903 1.32268 0
M  V30 1405 C 130.006 0.515711 1.79436 0
M  V30 1406 C 130.357 -0.966586 1.70738 0
M  V30 1407 O 129.482 -1.75409 1.26731 0
M  V30 1408 C 130.077 0.929335 3.25805 0
M  V30 1409 C 128.636 0.640006 3.70919 0
M  V30 1410 C 127.783 1.12784 2.53328 0
M  V30 1411 H 130.734 1.04389 1.19535 0
M  V30 1412 H 130.755 0.246633 3.797 0
M  V30 1413 H 130.267 2.00821 3.32103 0
M  V30 1414 H 128.368 -0.428051 3.70133 0
M  V30 1415 H 128.481 1.20788 4.63624 0
M  V30 1416 H 126.845 0.548033 2.48734 0
M  V30 1417 H 127.628 2.21387 2.62379 0
M  V30 1418 N 130.073 -1.45103 0.615059 0
M  V30 1419 C 131.35 -1.95549 0.0448276 0
M  V30 1420 C 131.73 -1.55737 -1.4251 0
M  V30 1421 O 131.078 -0.823556 -2.13143 0
M  V30 1422 C 131.288 -3.48098 0.250785 0
M  V30 1423 C 132.636 -4.24384 0.135509 0
M  V30 1424 O 133.66 -3.55738 0.181299 0
M  V30 1425 O 132.519 -5.46493 0.0268878 0
M  V30 1426 H 129.613 -0.8264 -0.0314845 0
M  V30 1427 H 132.159 -1.55232 0.685642 0
M  V30 1428 H 130.931 -3.7007 1.27139 0
M  V30 1429 H 130.554 -3.95323 -0.424937 0
M  V30 1430 N 131.551 -0.354651 -1.53558 0
M  V30 1431 C 132.514 0.484566 -2.24019 0
M  V30 1432 C 133.514 1.01861 -1.24422 0
M  V30 1433 O 134.704 0.906097 -1.4878 0
M  V30 1434 C 131.836 1.67615 -2.96847 0
M  V30 1435 H 133.029 -0.131843 -2.9961 0
M  V30 1436 H 130.582 -0.106165 -1.55939 0
M  V30 1437 H 131.317 2.33095 -2.25471 0
M  V30 1438 H 131.102 1.30029 -3.69912 0
M  V30 1439 H 132.592 2.27114 -3.50441 0
M  V30 1440 N 133.029 1.57378 -0.0835403 0
M  V30 1441 C 133.939 2.16897 0.894021 0
M  V30 1442 C 134.955 1.13528 1.31861 0
M  V30 1443 O 136.131 1.45848 1.3889 0
M  V30 1444 C 133.196 2.72831 2.13925 0
M  V30 1445 C 132.257 3.91115 1.76997 0
M  V30 1446 C 131.49 4.44371 2.95584 0
M  V30 1447 O 131.713 3.96596 4.09961 0
M  V30 1448 O 130.647 5.35549 2.74719 0
M  V30 1449 H 134.473 3.00814 0.417679 0
M  V30 1450 H 132.058 1.48741 0.140181 0
M  V30 1451 H 133.94 3.0863 2.86924 0
M  V30 1452 H 132.615 1.91967 2.60635 0
M  V30 1453 H 131.522 3.60148 1.01214 0
M  V30 1454 H 132.855 4.73307 1.3506 0
M  V30 1455 N 134.507 -0.190092 1.56449 0
M  V30 1456 C 135.737 -0.92443 1.84764 0
M  V30 1457 C 136.145 -1.77146 0.664529 0
M  V30 1458 O 135.488 -1.79812 -0.375957 0
M  V30 1459 C 135.55 -1.86651 3.07248 0
M  V30 1460 C 135.214 -1.20094 4.40938 0
M  V30 1461 C 136.211 -0.575445 5.16706 0
M  V30 1462 C 133.896 -1.2033 4.87674 0
M  V30 1463 C 135.89 0.0388111 6.37388 0
M  V30 1464 C 133.577 -0.585214 6.08291 0
M  V30 1465 C 134.575 0.0347578 6.82991 0
M  V30 1466 O 134.263 0.643147 8.01323 0
M  V30 1467 H 133.995 -0.274974 0.617548 0
M  V30 1468 H 136.549 -0.200788 2.04416 0
M  V30 1469 H 134.779 -2.62998 2.83494 0
M  V30 1470 H 136.468 -2.46907 3.22167 0
M  V30 1471 H 137.234 -0.565728 4.81689 0
M  V30 1472 H 133.113 -1.67526 4.29484 0
M  V30 1473 H 136.657 0.523329 6.95634 0
M  V30 1474 H 132.554 -0.592451 6.42775 0
M  V30 1475 H 133.322 0.540545 8.16713 0
M  V30 1476 N 135.985 -1.50799 -0.457987 0
M  V30 1477 C 137.231 -1.63648 -1.20792 0
M  V30 1478 C 137.586 -0.338662 -1.89396 0
M  V30 1479 O 136.879 0.664291 -1.79716 0
M  V30 1480 C 137.073 -2.76358 -2.2663 0
M  V30 1481 C 136.902 -4.16974 -1.68411 0
M  V30 1482 C 135.672 -4.83199 -1.47807 0
M  V30 1483 C 137.87 -5.00774 -1.17176 0
M  V30 1484 N 135.852 -6.07991 -0.849692 0
M  V30 1485 C 137.223 -6.16397 -0.667403 0
M  V30 1486 C 139.278 -4.86452 -1.06155 0
M  V30 1487 C 137.981 -7.19272 -0.0636908 0
M  V30 1488 C 140.007 -5.89515 -0.471759 0
M  V30 1489 C 139.369 -7.04397 0.0221557 0
M  V30 1490 H 135.468 -0.652888 -0.43042 0
M  V30 1491 H 138.052 -1.87962 -0.507785 0
M  V30 1492 H 136.223 -2.53744 -2.94056 0
M  V30 1493 H 137.955 -2.78496 -2.93636 0
M  V30 1494 H 134.71 -4.40714 -1.73403 0
M  V30 1495 H 135.134 -6.74733 -0.553537 0
M  V30 1496 H 139.776 -3.97907 -1.42932 0
M  V30 1497 H 137.494 -8.07481 0.316253 0
M  V30 1498 H 141.08 -5.805 -0.388671 0
M  V30 1499 H 139.96 -7.82782 0.471375 0
M  V30 1500 N 137.463 0.71206 -1.40597 0
M  V30 1501 C 138.411 1.84746 -1.41321 0
M  V30 1502 C 139.405 1.66842 -0.293268 0
M  V30 1503 O 140.611 1.73904 -0.464481 0
M  V30 1504 H 136.986 0.608522 -0.441819 0
M  V30 1505 H 138.957 1.81252 -2.37045 0
M  V30 1506 C 137.706 3.22638 -1.29614 0
M  V30 1507 H 137.029 3.37023 -2.15071 0
M  V30 1508 H 138.469 4.02209 -1.3418 0
M  V30 1509 C 136.928 3.36899 -0.00673121 0
M  V30 1510 O 137.458 3.90186 0.954859 0
M  V30 1511 N 135.664 2.9053 0.0639327 0
M  V30 1512 H 135.211 2.47353 -0.719311 0
M  V30 1513 H 135.169 3.0045 0.926118 0
M  V30 1514 N 138.941 1.26152 0.944643 0
M  V30 1515 C 140.166 1.14363 1.7302 0
M  V30 1516 C 140.591 -0.29772 1.85729 0
M  V30 1517 O 139.949 -1.2157 1.34501 0
M  V30 1518 C 139.997 1.81378 3.11664 0
M  V30 1519 O 139.101 1.10022 3.97453 0
M  V30 1520 H 138.442 0.398694 0.53098 0
M  V30 1521 H 140.972 1.66906 1.18337 0
M  V30 1522 H 140.982 1.88064 3.62072 0
M  V30 1523 H 139.657 2.86237 3.0173 0
M  V30 1524 H 138.234 1.11287 3.55907 0
M  V30 1525 N 140.419 -1.14872 1.07899 0
M  V30 1526 C 141.351 -2.19425 0.662231 0
M  V30 1527 C 142.364 -1.60231 -0.288079 0
M  V30 1528 O 143.553 -1.78336 -0.076534 0
M  V30 1529 C 140.653 -3.38867 -0.0470695 0
M  V30 1530 C 139.826 -4.27597 0.920831 0
M  V30 1531 C 138.885 -5.25616 0.247805 0
M  V30 1532 O 137.911 -5.62189 0.890599 0
M  V30 1533 N 139.113 -5.71746 -1.00435 0
M  V30 1534 H 141.878 -2.55797 1.56166 0
M  V30 1535 H 139.439 -1.30042 0.964404 0
M  V30 1536 H 141.431 -4.01497 -0.50813 0
M  V30 1537 H 140.001 -3.00864 -0.848523 0
M  V30 1538 H 139.221 -3.61982 1.56087 0
M  V30 1539 H 140.509 -4.83748 1.57688 0
M  V30 1540 H 139.907 -5.44153 -1.54642 0
M  V30 1541 H 138.464 -6.36389 -1.40899 0
M  V30 1542 N 141.898 -0.863906 -1.31812 0
M  V30 1543 C 142.845 -0.313303 -2.28664 0
M  V30 1544 C 143.815 0.584868 -1.55462 0
M  V30 1545 O 145 0.517805 -1.83639 0
M  V30 1546 C 142.14 0.48441 -3.41683 0
M  V30 1547 C 141.253 -0.440594 -4.29747 0
M  V30 1548 C 140.388 0.370652 -5.29905 0
M  V30 1549 C 139.427 -0.551164 -6.09613 0
M  V30 1550 N 138.564 0.223462 -7.01744 0
M  V30 1551 H 143.404 -1.14444 -2.75148 0
M  V30 1552 H 140.941 -0.575769 -1.35364 0
M  V30 1553 H 142.899 0.962627 -4.05943 0
M  V30 1554 H 141.529 1.28029 -2.96325 0
M  V30 1555 H 140.581 -1.03724 -3.65986 0
M  V30 1556 H 141.893 -1.14767 -4.85417 0
M  V30 1557 H 141.047 0.911638 -5.99812 0
M  V30 1558 H 139.786 1.11105 -4.74876 0
M  V30 1559 H 138.791 -1.10396 -5.38603 0
M  V30 1560 H 140.016 -1.29032 -6.66729 0
M  V30 1561 H 137.962 0.946787 -6.49132 0
M  V30 1562 H 137.879 -0.424399 -7.54808 0
M  V30 1563 H 139.147 0.745876 -7.75923 0
M  V30 1564 N 143.376 1.44774 -0.622745 0
M  V30 1565 C 144.286 2.34433 0.0886031 0
M  V30 1566 C 145.302 1.52131 0.844529 0
M  V30 1567 O 146.478 1.84886 0.798691 0
M  V30 1568 C 143.543 3.29986 1.0635 0
M  V30 1569 C 142.604 4.28195 0.307873 0
M  V30 1570 C 141.837 5.19183 1.23633 0
M  V30 1571 O 142.06 5.13918 2.47476 0
M  V30 1572 O 140.994 5.97515 0.725189 0
M  V30 1573 H 144.82 2.96693 -0.648599 0
M  V30 1574 H 142.405 1.44408 -0.382957 0
M  V30 1575 H 144.287 3.88825 1.6246 0
M  V30 1576 H 142.962 2.70269 1.78146 0
M  V30 1577 H 141.869 3.72927 -0.296064 0
M  V30 1578 H 143.202 4.90808 -0.3699 0
M  V30 1579 N 144.854 0.36279 1.53368 0
M  V30 1580 C 146.1 -0.228113 2.01513 0
M  V30 1581 C 146.433 -1.48648 1.2497 0
M  V30 1582 O 145.708 -1.91459 0.342616 0
M  V30 1583 C 145.991 -0.522884 3.56284 0
M  V30 1584 C 145.844 0.74892 4.43521 0
M  V30 1585 C 147.163 -1.32461 4.19693 0
M  V30 1586 H 144.282 -0.0814343 0.732487 0
M  V30 1587 H 146.924 0.48713 1.83649 0
M  V30 1588 H 145.074 -1.1322 3.71636 0
M  V30 1589 H 146.746 1.38648 4.39971 0
M  V30 1590 H 144.989 1.36986 4.11603 0
M  V30 1591 H 145.66 0.497667 5.49752 0
M  V30 1592 H 148.136 -0.809203 4.08156 0
M  V30 1593 H 147.012 -1.49961 5.28018 0
M  V30 1594 H 147.273 -2.33232 3.75573 0
M  V30 1595 N 146.332 -1.57332 0.0918853 0
M  V30 1596 C 147.262 -2.16872 -0.865371 0
M  V30 1597 C 148.243 -1.10118 -1.29646 0
M  V30 1598 O 149.428 -1.38242 -1.36392 0
M  V30 1599 C 146.558 -2.74649 -2.12569 0
M  V30 1600 C 145.512 -3.86747 -1.83333 0
M  V30 1601 C 144.838 -4.31212 -3.16166 0
M  V30 1602 C 146.138 -5.10089 -1.1228 0
M  V30 1603 H 147.832 -2.97114 -0.369307 0
M  V30 1604 H 145.378 -1.42918 -0.176194 0
M  V30 1605 H 147.331 -3.14952 -2.7997 0
M  V30 1606 H 146.055 -1.91657 -2.64452 0
M  V30 1607 H 144.714 -3.46978 -1.18331 0
M  V30 1608 H 144.362 -3.45115 -3.6593 0
M  V30 1609 H 144.062 -5.06788 -2.97388 0
M  V30 1610 H 145.586 -4.74146 -3.84731 0
M  V30 1611 H 147 -5.47582 -1.69785 0
M  V30 1612 H 145.397 -5.91073 -1.03693 0
M  V30 1613 H 146.467 -4.84786 -0.105041 0
M  V30 1614 N 147.81 0.181792 -1.56548 0
M  V30 1615 C 148.72 1.24538 -1.98815 0
M  V30 1616 C 149.736 1.49045 -0.897861 0
M  V30 1617 O 150.912 1.61399 -1.20467 0
M  V30 1618 C 147.977 2.56683 -2.33055 0
M  V30 1619 C 147.038 2.40131 -3.55859 0
M  V30 1620 C 146.271 3.65975 -3.88456 0
M  V30 1621 O 146.494 4.70711 -3.22161 0
M  V30 1622 O 145.428 3.6071 -4.81842 0
M  V30 1623 H 149.254 0.916647 -2.89536 0
M  V30 1624 H 146.839 0.387842 -1.44278 0
M  V30 1625 H 148.721 3.34655 -2.56094 0
M  V30 1626 H 147.396 2.89157 -1.45498 0
M  V30 1627 H 146.303 1.60226 -3.38051 0
M  V30 1628 H 147.636 2.12585 -4.43924 0
M  V30 1629 N 149.288 1.51039 0.449983 0
M  V30 1630 C 150.704 1.38934 0.785462 0
M  V30 1631 C 150.904 0.461817 1.96136 0
M  V30 1632 O 149.96 -0.0877389 2.52348 0
M  V30 1633 C 151.273 2.80724 1.0777 0
M  V30 1634 C 152.821 2.89787 1.1829 0
M  V30 1635 C 153.296 4.32457 1.50815 0
M  V30 1636 N 154.787 4.35505 1.57764 0
M  V30 1637 C 155.522 5.42914 1.84477 0
M  V30 1638 N 155.018 6.60502 2.09068 0
M  V30 1639 N 156.811 5.3038 1.86155 0
M  V30 1640 H 148.962 2.09904 -0.324647 0
M  V30 1641 H 151.225 0.944378 -0.0827957 0
M  V30 1642 H 150.931 3.50531 0.286498 0
M  V30 1643 H 150.805 3.19273 2.00859 0
M  V30 1644 H 153.192 2.20186 1.96474 0
M  V30 1645 H 153.273 2.54752 0.231314 0
M  V30 1646 H 152.917 5.02603 0.731622 0
M  V30 1647 H 152.847 4.64995 2.47158 0
M  V30 1648 H 155.338 3.50724 1.40715 0
M  V30 1649 H 155.651 7.38158 2.28785 0
M  V30 1650 H 153.996 6.63639 2.06416 0
M  V30 1651 H 157.187 4.37505 1.66454 0
M  V30 1652 H 157.36 6.1417 2.06637 0
M  V30 1653 N 150.766 -0.704594 1.40972 0
M  V30 1654 C 151.994 -1.49354 1.43182 0
M  V30 1655 C 152.409 -1.88768 0.0345508 0
M  V30 1656 O 151.766 -1.56184 -0.944081 0
M  V30 1657 C 151.817 -2.76187 2.33244 0
M  V30 1658 O 151.538 -2.38436 3.67532 0
M  V30 1659 C 153.039 -3.7 2.44162 0
M  V30 1660 H 150.259 -0.460559 0.487982 0
M  V30 1661 H 152.803 -0.868261 1.85153 0
M  V30 1662 H 150.958 -3.34974 1.94606 0
M  V30 1663 H 151.372 -3.20126 4.15475 0
M  V30 1664 H 152.846 -4.55803 3.11364 0
M  V30 1665 H 153.323 -4.13867 1.47006 0
M  V30 1666 H 153.929 -3.17121 2.83398 0
M  V30 1667 N 152.244 -1.26651 -0.937939 0
M  V30 1668 C 153.66 -1.03834 -1.21205 0
M  V30 1669 C 153.86 0.234502 -2.00131 0
M  V30 1670 O 152.916 0.942767 -2.3424 0
M  V30 1671 C 154.229 -2.27167 -1.97017 0
M  V30 1672 C 155.777 -2.32101 -2.09996 0
M  V30 1673 C 156.252 -3.55136 -2.8921 0
M  V30 1674 N 157.743 -3.55632 -2.96783 0
M  V30 1675 C 158.478 -4.475 -3.58512 0
M  V30 1676 N 157.974 -5.4966 -4.21717 0
M  V30 1677 N 159.767 -4.35145 -3.55816 0
M  V30 1678 H 151.918 -2.08398 -0.410391 0
M  V30 1679 H 154.181 -0.916031 -0.244114 0
M  V30 1680 H 153.887 -3.19765 -1.46434 0
M  V30 1681 H 153.761 -2.31672 -2.97671 0
M  V30 1682 H 156.148 -1.40015 -2.59769 0
M  V30 1683 H 156.229 -2.31605 -1.08594 0
M  V30 1684 H 155.873 -4.47553 -2.40123 0
M  V30 1685 H 155.803 -3.5288 -3.90875 0
M  V30 1686 H 158.294 -2.81743 -2.51852 0
M  V30 1687 H 158.607 -6.15943 -4.66727 0
M  V30 1688 H 156.952 -5.53514 -4.20294 0
M  V30 1689 H 160.143 -3.5455 -3.05634 0
M  V30 1690 H 160.316 -5.06934 -4.03636 0
M  V30 1691 N 153.722 1.14298 -1.08507 0
M  V30 1692 C 154.685 2.17607 -0.719711 0
M  V30 1693 C 155.685 1.58907 0.245997 0
M  V30 1694 O 156.875 1.74181 0.0254081 0
M  V30 1695 C 154.007 3.40842 -0.0627695 0
M  V30 1696 H 155.2 2.51443 -1.63452 0
M  V30 1697 H 152.753 1.28963 -0.88307 0
M  V30 1698 H 153.488 3.12587 0.863716 0
M  V30 1699 H 153.273 3.84713 -0.757504 0
M  V30 1700 H 154.763 4.17221 0.177786 0
M  V30 1701 N 155.201 0.870884 1.31352 0
M  V30 1702 C 156.111 0.330783 2.32256 0
M  V30 1703 C 157.127 -0.559767 1.6475 0
M  V30 1704 O 158.303 -0.456263 1.96164 0
M  V30 1705 C 155.368 -0.458137 3.4366 0
M  V30 1706 C 154.429 0.460482 4.26823 0
M  V30 1707 C 153.662 -0.290881 5.32907 0
M  V30 1708 O 153.885 -1.51885 5.49806 0
M  V30 1709 O 152.819 0.351732 6.00871 0
M  V30 1710 H 156.645 1.16718 2.80376 0
M  V30 1711 H 154.23 0.634285 1.35267 0
M  V30 1712 H 156.112 -0.905343 4.1156 0
M  V30 1713 H 154.787 -1.27106 2.97701 0
M  V30 1714 H 153.694 0.956207 3.61673 0
M  V30 1715 H 155.027 1.23903 4.7635 0
M  V30 1716 N 156.679 -1.44442 0.630414 0
M  V30 1717 C 157.609 -2.33418 -0.0618083 0
M  V30 1718 C 158.59 -1.48165 -0.835541 0
M  V30 1719 O 159.775 -1.76886 -0.801564 0
M  V30 1720 C 156.905 -3.31222 -1.04449 0
M  V30 1721 C 155.859 -4.26288 -0.382436 0
M  V30 1722 C 155.185 -5.13954 -1.47497 0
M  V30 1723 C 156.485 -5.1744 0.710865 0
M  V30 1724 H 158.179 -2.91548 0.681184 0
M  V30 1725 H 155.725 -1.40191 0.329026 0
M  V30 1726 H 157.678 -3.92351 -1.53748 0
M  V30 1727 H 156.402 -2.71299 -1.81836 0
M  V30 1728 H 155.061 -3.6649 0.0899054 0
M  V30 1729 H 154.709 -4.50385 -2.2397 0
M  V30 1730 H 154.409 -5.7837 -1.03737 0
M  V30 1731 H 155.933 -5.77955 -1.96979 0
M  V30 1732 H 157.347 -5.72509 0.300996 0
M  V30 1733 H 155.744 -5.90455 1.07156 0
M  V30 1734 H 156.814 -4.58496 1.57829 0
M  V30 1735 N 158.157 -0.370918 -1.53173 0
M  V30 1736 C 159.434 0.273754 -1.93675 0
M  V30 1737 C 159.814 1.65938 -1.3049 0
M  V30 1738 O 159.162 2.23698 -0.465999 0
M  V30 1739 C 159.372 0.318602 -3.47543 0
M  V30 1740 C 160.72 0.556392 -4.20939 0
M  V30 1741 O 161.744 0.399587 -3.53952 0
M  V30 1742 O 160.603 0.862133 -5.39657 0
M  V30 1743 H 157.697 0.165448 -0.810281 0
M  V30 1744 H 160.243 -0.42409 -1.64315 0
M  V30 1745 H 159.015 -0.652687 -3.85818 0
M  V30 1746 H 158.638 1.06212 -3.83151 0
M  V30 1747 N 159.635 1.57281 -0.100228 0
M  V30 1748 C 160.863 1.98879 0.570509 0
M  V30 1749 C 161.278 0.979476 1.61405 0
M  V30 1750 O 160.635 -0.0302288 1.82475 0
M  V30 1751 C 160.686 3.4052 1.2136 0
M  V30 1752 O 160.407 4.37588 0.211786 0
M  V30 1753 C 161.908 3.97149 1.96945 0
M  V30 1754 H 159.128 0.653428 0.152555 0
M  V30 1755 H 161.672 2.03697 -0.18103 0
M  V30 1756 H 159.827 3.367 1.91603 0
M  V30 1757 H 160.241 5.20118 0.676607 0
M  V30 1758 H 161.715 4.98393 2.37294 0
M  V30 1759 H 162.192 3.3525 2.83733 0
M  V30 1760 H 162.798 4.04458 1.31506 0
M  V30 1761 N 161.113 -0.173488 1.56642 0
M  V30 1762 C 162.359 -0.891784 1.8214 0
M  V30 1763 C 162.692 -1.8199 0.677736 0
M  V30 1764 O 161.967 -1.91842 -0.320446 0
M  V30 1765 C 162.25 -1.68933 3.18015 0
M  V30 1766 C 162.103 -0.784487 4.42906 0
M  V30 1767 C 163.422 -2.65748 3.50808 0
M  V30 1768 H 160.541 -0.322761 0.662567 0
M  V30 1769 H 163.183 -0.158095 1.89341 0
M  V30 1770 H 161.333 -2.31482 3.12007 0
M  V30 1771 H 163.005 -0.172046 4.60979 0
M  V30 1772 H 161.248 -0.0924117 4.33702 0
M  V30 1773 H 161.919 -1.37799 5.34524 0
M  V30 1774 H 164.395 -2.13327 3.57255 0
M  V30 1775 H 163.271 -3.18619 4.4696 0
M  V30 1776 H 163.532 -3.45842 2.75401 0
M  V30 1777 N 162.591 -1.51276 -0.441967 0
M  V30 1778 C 163.831 -1.65372 -1.20132 0
M  V30 1779 C 164.195 -0.359871 -1.88597 0
M  V30 1780 O 165.396 -0.376551 -2.66149 0
M  V30 1781 C 163.667 -2.8207 -2.1948 0
M  V30 1782 S 165.226 -3.16467 -3.03964 0
M  V30 1783 H 162.044 -0.582669 -0.407453 0
M  V30 1784 H 164.646 -1.89166 -0.493609 0
M  V30 1785 H 163.35 -3.74523 -1.67812 0
M  V30 1786 H 162.881 -2.6045 -2.94838 0
M  V30 1787 H 164.896 -2.62543 -4.21053 0
M  V30 1788 N 164.069 0.697108 -1.41344 0
M  V30 1789 C 165.485 1.00751 -1.2378 0
M  V30 1790 C 165.685 2.01105 -0.126066 0
M  V30 1791 O 164.741 2.47295 0.51004 0
M  V30 1792 C 166.054 1.53359 -2.58653 0
M  V30 1793 C 167.602 1.6525 -2.65822 0
M  V30 1794 C 168.077 2.2126 -4.01009 0
M  V30 1795 N 169.568 2.28622 -4.02847 0
M  V30 1796 C 170.303 2.72984 -5.04249 0
M  V30 1797 N 169.799 3.16962 -6.16041 0
M  V30 1798 N 171.592 2.72534 -4.91611 0
M  V30 1799 H 163.743 0.0322662 -2.12375 0
M  V30 1800 H 166.006 0.0768853 -0.944877 0
M  V30 1801 H 165.712 0.870773 -3.4075 0
M  V30 1802 H 165.586 2.51597 -2.81032 0
M  V30 1803 H 167.973 2.30644 -1.84086 0
M  V30 1804 H 168.054 0.655614 -2.47256 0
M  V30 1805 H 167.698 1.56482 -4.83193 0
M  V30 1806 H 167.628 3.21698 -4.16915 0
M  V30 1807 H 170.119 1.97585 -3.22131 0
M  V30 1808 H 170.432 3.49434 -6.89287 0
M  V30 1809 H 168.777 3.14875 -6.1958 0
M  V30 1810 H 171.968 2.37525 -4.0336 0
M  V30 1811 H 172.141 3.06789 -5.70775 0
M  V30 1812 N 165.547 1.27147 0.931209 0
M  V30 1813 C 166.497 1.06227 2.01742 0
M  V30 1814 C 167.481 -0.00859065 1.60898 0
M  V30 1815 O 168.673 0.209537 1.75755 0
M  V30 1816 C 165.802 0.707787 3.35924 0
M  V30 1817 C 164.888 1.81661 3.83223 0
M  V30 1818 N 165.279 3.05564 4.03069 0
M  V30 1819 C 163.577 1.70249 4.12227 0
M  V30 1820 C 164.278 3.77697 4.42403 0
M  V30 1821 N 163.254 3.0544 4.49675 0
M  V30 1822 H 167.056 2.00261 2.15111 0
M  V30 1823 H 164.57 1.1781 1.11779 0
M  V30 1824 H 166.567 0.539043 4.134 0
M  V30 1825 H 165.227 -0.224964 3.2392 0
M  V30 1826 H 166.238 3.41363 3.89476 0
M  V30 1827 H 162.915 0.840329 4.08956 0
M  V30 1828 H 164.305 4.84168 4.65866 0
M  V30 1829 N 167.025 -1.13721 1.09112 0
M  V30 1830 C 167.973 -2.21103 0.722219 0
M  V30 1831 C 168.967 -1.67147 -0.275374 0
M  V30 1832 O 170.173 -1.79477 -0.137176 0
M  V30 1833 H 166.548 -0.720445 0.215553 0
M  V30 1834 H 168.519 -2.49483 1.63709 0
M  V30 1835 C 167.268 -3.47352 0.15543 0
M  V30 1836 H 166.591 -3.89206 0.914246 0
M  V30 1837 H 168.031 -4.2395 -0.0647967 0
M  V30 1838 C 166.49 -3.1814 -1.10852 0
M  V30 1839 O 167.02 -3.36604 -2.19227 0
M  V30 1840 N 165.226 -2.72045 -1.02176 0
M  V30 1841 H 164.773 -2.57221 -0.139764 0
M  V30 1842 H 164.731 -2.52875 -1.8682 0
M  V30 1843 N 168.503 -0.877838 -1.30888 0
M  V30 1844 C 169.733 -0.506678 -2.00291 0
M  V30 1845 C 170.141 0.907449 -1.66018 0
M  V30 1846 O 169.484 1.60719 -0.88967 0
M  V30 1847 C 169.546 -0.59323 -3.54572 0
M  V30 1848 C 169.21 -1.97038 -4.12341 0
M  V30 1849 C 170.207 -2.93889 -4.28865 0
M  V30 1850 C 167.892 -2.27383 -4.47886 0
M  V30 1851 C 169.886 -4.19224 -4.80136 0
M  V30 1852 C 167.573 -3.52965 -4.98857 0
M  V30 1853 C 168.571 -4.48701 -5.14934 0
M  V30 1854 O 168.259 -5.72056 -5.64808 0
M  V30 1855 H 167.991 -0.1951 -0.647234 0
M  V30 1856 H 170.545 -1.18301 -1.6791 0
M  V30 1857 H 168.775 0.140057 -3.86446 0
M  V30 1858 H 170.464 -0.234372 -4.05223 0
M  V30 1859 H 171.23 -2.71756 -4.01714 0
M  V30 1860 H 167.109 -1.53639 -4.34645 0
M  V30 1861 H 170.653 -4.93956 -4.92599 0
M  V30 1862 H 166.55 -3.74939 -5.25443 0
M  V30 1863 H 167.318 -5.74337 -5.83163 0
M  V30 1864 N 169.982 1.44106 -0.638065 0
M  V30 1865 C 170.914 2.28976 0.101205 0
M  V30 1866 C 171.927 1.4167 0.802088 0
M  V30 1867 O 173.116 1.65755 0.662375 0
M  V30 1868 C 170.216 3.18217 1.16581 0
M  V30 1869 C 169.389 4.33978 0.546066 0
M  V30 1870 C 168.448 5.04202 1.50554 0
M  V30 1871 O 167.474 5.59986 1.01999 0
M  V30 1872 N 168.676 5.06296 2.8398 0
M  V30 1873 H 171.441 2.93064 -0.627186 0
M  V30 1874 H 169.002 1.54629 -0.479731 0
M  V30 1875 H 170.994 3.62061 1.80815 0
M  V30 1876 H 169.564 2.55833 1.79634 0
M  V30 1877 H 168.784 3.93239 -0.275046 0
M  V30 1878 H 170.072 5.08675 0.112793 0
M  V30 1879 H 169.47 4.62319 3.26002 0
M  V30 1880 H 168.027 5.53907 3.43556 0
M  V30 1881 N 171.46 0.379036 1.52974 0
M  V30 1882 C 172.39 -0.452706 2.29069 0
M  V30 1883 C 173.371 -1.07237 1.32039 0
M  V30 1884 O 174.556 -1.08708 1.60923 0
M  V30 1885 C 171.686 -1.5856 3.08992 0
M  V30 1886 C 170.64 -1.0925 4.13822 0
M  V30 1887 C 169.966 -2.31668 4.81907 0
M  V30 1888 C 171.266 -0.167702 5.22031 0
M  V30 1889 H 172.96 0.182181 2.98845 0
M  V30 1890 H 170.506 0.0890592 1.43724 0
M  V30 1891 H 172.459 -2.1742 3.6098 0
M  V30 1892 H 171.183 -2.24792 2.36931 0
M  V30 1893 H 169.842 -0.526494 3.628 0
M  V30 1894 H 169.49 -2.96386 4.06404 0
M  V30 1895 H 169.19 -1.9934 5.52754 0
M  V30 1896 H 170.714 -2.91189 5.36695 0
M  V30 1897 H 172.128 -0.664186 5.6944 0
M  V30 1898 H 170.525 0.0653265 6.00064 0
M  V30 1899 H 171.595 0.786347 4.78482 0
M  V30 1900 N 172.938 -1.57226 0.108567 0
M  V30 1901 C 173.848 -2.18292 -0.859401 0
M  V30 1902 C 174.864 -1.15612 -1.30038 0
M  V30 1903 O 176.04 -1.48039 -1.36552 0
M  V30 1904 C 173.105 -2.762 -2.09558 0
M  V30 1905 C 172.166 -3.93881 -1.70752 0
M  V30 1906 C 171.399 -4.49018 -2.88477 0
M  V30 1907 O 171.622 -4.03068 -4.036 0
M  V30 1908 O 170.556 -5.39852 -2.66164 0
M  V30 1909 H 174.382 -3.01441 -0.369769 0
M  V30 1910 H 171.967 -1.48945 -0.1165 0
M  V30 1911 H 173.849 -3.13156 -2.81978 0
M  V30 1912 H 172.524 -1.96089 -2.57548 0
M  V30 1913 H 171.431 -3.61713 -0.954714 0
M  V30 1914 H 172.764 -4.75396 -1.27513 0
M  V30 1915 N 174.416 0.165178 -1.56732 0
M  V30 1916 C 175.346 1.20651 -1.99914 0
M  V30 1917 C 176.327 1.45827 -0.875705 0
M  V30 1918 O 177.512 1.57057 -1.14223 0
M  V30 1919 C 174.642 2.54401 -2.36427 0
M  V30 1920 C 173.596 2.43782 -3.51787 0
M  V30 1921 C 172.922 3.82078 -3.7406 0
M  V30 1922 C 174.222 1.93732 -4.85041 0
M  V30 1923 H 175.916 0.847534 -2.87154 0
M  V30 1924 H 173.462 0.40625 -1.38151 0
M  V30 1925 H 175.415 3.27458 -2.65234 0
M  V30 1926 H 174.139 2.92098 -1.46103 0
M  V30 1927 H 172.798 1.73178 -3.23117 0
M  V30 1928 H 172.446 4.17179 -2.81017 0
M  V30 1929 H 172.146 3.7584 -4.51684 0
M  V30 1930 H 173.67 4.56712 -4.05274 0
M  V30 1931 H 175.084 2.56569 -5.12684 0
M  V30 1932 H 173.481 1.98428 -5.66345 0
M  V30 1933 H 174.551 0.891962 -4.76626 0
M  V30 1934 N 175.894 1.51508 0.433938 0
M  V30 1935 C 177.31 1.39759 0.770682 0
M  V30 1936 C 177.51 0.482594 1.95636 0
M  V30 1937 O 176.566 -0.0609691 2.52426 0
M  V30 1938 C 177.879 2.81851 1.04787 0
M  V30 1939 C 179.427 2.91025 1.1521 0
M  V30 1940 C 179.902 4.34032 1.46219 0
M  V30 1941 N 181.393 4.37154 1.53136 0
M  V30 1942 C 182.128 5.4484 1.78709 0
M  V30 1943 N 181.624 6.62682 2.02051 0
M  V30 1944 N 183.417 5.32324 1.80519 0
M  V30 1945 H 175.568 2.09548 -0.346892 0
M  V30 1946 H 177.831 0.943446 -0.0928074 0
M  V30 1947 H 177.537 3.50815 0.249304 0
M  V30 1948 H 177.411 3.21386 1.97461 0
M  V30 1949 H 179.798 2.22257 1.94128 0
M  V30 1950 H 179.879 2.54983 0.204281 0
M  V30 1951 H 179.523 5.03351 0.678274 0
M  V30 1952 H 179.453 4.6759 2.42212 0
M  V30 1953 H 181.944 3.52197 1.36987 0
M  V30 1954 H 182.257 7.40543 2.20943 0
M  V30 1955 H 180.602 6.65791 1.99366 0
M  V30 1956 H 183.793 4.39246 1.61805 0
M  V30 1957 H 183.966 6.16328 2.00111 0
M  V30 1958 N 177.372 -0.689602 1.41712 0
M  V30 1959 C 178.6 -1.47827 1.44758 0
M  V30 1960 C 179.015 -1.88721 0.0545703 0
M  V30 1961 O 178.372 -1.57176 -0.927463 0
M  V30 1962 C 178.423 -2.73698 2.3616 0
M  V30 1963 O 178.144 -2.34524 3.7004 0
M  V30 1964 C 179.645 -3.67389 2.48072 0
M  V30 1965 H 176.865 -0.455357 0.49284 0
M  V30 1966 H 179.409 -0.848574 1.86063 0
M  V30 1967 H 177.564 -3.32891 1.98148 0
M  V30 1968 H 177.978 -3.15701 4.18847 0
M  V30 1969 H 179.452 -4.52475 3.16181 0
M  V30 1970 H 179.929 -4.12284 1.51388 0
M  V30 1971 H 180.535 -3.14097 2.86746 0
M  V30 1972 N 178.85 -1.27639 -0.924453 0
M  V30 1973 C 180.078 -1.16989 -1.70649 0
M  V30 1974 C 180.493 0.272869 -1.86818 0
M  V30 1975 O 179.85 1.18549 -1.38753 0
M  V30 1976 C 179.901 -1.85229 -3.10439 0
M  V30 1977 O 179.622 -3.23868 -2.95028 0
M  V30 1978 C 181.123 -1.80746 -4.04779 0
M  V30 1979 H 178.343 -0.406595 -0.53378 0
M  V30 1980 H 180.887 -1.68569 -1.15778 0
M  V30 1981 H 179.042 -1.37545 -3.6216 0
M  V30 1982 H 179.456 -3.57889 -3.83426 0
M  V30 1983 H 180.93 -2.33101 -5.00368 0
M  V30 1984 H 181.407 -0.777499 -4.32263 0
M  V30 1985 H 182.013 -2.28059 -3.58984 0
M  V30 1986 N 180.328 1.1314 -1.09713 0
M  V30 1987 C 181.258 2.20748 -0.761102 0
M  V30 1988 C 182.239 1.68061 0.262566 0
M  V30 1989 O 183.424 1.93765 0.129977 0
M  V30 1990 C 180.554 3.46812 -0.184054 0
M  V30 1991 C 179.508 4.12606 -1.13757 0
M  V30 1992 C 178.834 5.33031 -0.422083 0
M  V30 1993 C 180.134 4.59603 -2.48118 0
M  V30 1994 H 181.828 2.49113 -1.66082 0
M  V30 1995 H 179.374 1.19734 -0.799987 0
M  V30 1996 H 181.327 4.21353 0.0631215 0
M  V30 1997 H 180.051 3.17851 0.750868 0
M  V30 1998 H 178.71 3.40036 -1.37007 0
M  V30 1999 H 178.358 5.00335 0.517072 0
M  V30 2000 H 178.058 5.77999 -1.05788 0
M  V30 2001 H 179.582 6.10325 -0.183277 0
M  V30 2002 H 180.996 5.25552 -2.29059 0
M  V30 2003 H 179.393 5.15321 -3.07514 0
M  V30 2004 H 180.463 3.73971 -3.08665 0
M  V30 2005 N 181.806 0.884767 1.30421 0
M  V30 2006 C 182.738 0.308655 2.27112 0
M  V30 2007 C 183.751 -0.536655 1.53701 0
M  V30 2008 O 184.94 -0.35624 1.74909 0
M  V30 2009 C 182.04 -0.579782 3.33904 0
M  V30 2010 C 181.213 0.236417 4.36761 0
M  V30 2011 C 180.272 -0.582482 5.22966 0
M  V30 2012 O 179.298 -0.00525502 5.692 0
M  V30 2013 N 180.5 -1.89163 5.48815 0
M  V30 2014 H 183.265 1.13964 2.77186 0
M  V30 2015 H 180.826 0.747731 1.43599 0
M  V30 2016 H 182.818 -1.13366 3.88497 0
M  V30 2017 H 181.388 -1.31144 2.83761 0
M  V30 2018 H 180.608 0.97174 3.82035 0
M  V30 2019 H 181.896 0.795924 5.02536 0
M  V30 2020 H 181.294 -2.38352 5.13035 0
M  V30 2021 H 179.851 -2.39296 6.06284 0
M  V30 2022 N 183.284 -1.43765 0.645699 0
M  V30 2023 C 184.7 -1.56509 0.312591 0
M  V30 2024 C 184.9 -1.6307 -1.18365 0
M  V30 2025 O 183.956 -1.58167 -1.96824 0
M  V30 2026 C 185.269 -2.82968 1.01733 0
M  V30 2027 C 186.817 -2.96701 0.996865 0
M  V30 2028 C 187.292 -4.25982 1.68236 0
M  V30 2029 N 188.783 -4.32829 1.64964 0
M  V30 2030 C 189.518 -5.31613 2.14885 0
M  V30 2031 N 189.014 -6.36718 2.73061 0
M  V30 2032 N 190.807 -5.23217 2.05428 0
M  V30 2033 H 182.958 -1.3775 1.61675 0
M  V30 2034 H 185.221 -0.661067 0.679481 0
M  V30 2035 H 184.927 -2.84156 2.0724 0
M  V30 2036 H 184.801 -3.72957 0.564177 0
M  V30 2037 H 187.188 -2.95058 -0.0497719 0
M  V30 2038 H 187.269 -2.08022 1.48865 0
M  V30 2039 H 186.913 -4.28386 2.72852 0
M  V30 2040 H 186.843 -5.13545 1.16529 0
M  V30 2041 H 189.334 -3.57493 1.22503 0
M  V30 2042 H 189.647 -7.08401 3.08848 0
M  V30 2043 H 187.992 -6.37362 2.77118 0
M  V30 2044 H 191.183 -4.40019 1.59689 0
M  V30 2045 H 191.356 -6.00045 2.44643 0
M  V30 2046 N 184.763 -0.387143 -1.52771 0
M  V30 2047 C 186.179 -0.037007 -1.59557 0
M  V30 2048 C 186.379 1.44801 -1.40124 0
M  V30 2049 O 185.435 2.21227 -1.21716 0
M  V30 2050 C 186.748 -0.512256 -2.96305 0
M  V30 2051 C 188.296 -0.468328 -3.09476 0
M  V30 2052 C 188.771 -0.919731 -4.4867 0
M  V30 2053 N 190.262 -0.875656 -4.54848 0
M  V30 2054 C 190.997 -1.19637 -5.6078 0
M  V30 2055 N 190.493 -1.58745 -6.74368 0
M  V30 2056 N 192.286 -1.11776 -5.50874 0
M  V30 2057 H 184.437 -1.35395 -1.63652 0
M  V30 2058 H 186.7 -0.554818 -0.768688 0
M  V30 2059 H 186.406 -1.54935 -3.15734 0
M  V30 2060 H 186.28 0.089805 -3.77093 0
M  V30 2061 H 188.667 0.559671 -2.89744 0
M  V30 2062 H 188.748 -1.10616 -2.30646 0
M  V30 2063 H 188.392 -1.94595 -4.69143 0
M  V30 2064 H 188.322 -0.258927 -5.25963 0
M  V30 2065 H 190.813 -0.587843 -3.733 0
M  V30 2066 H 191.126 -1.81586 -7.51163 0
M  V30 2067 H 189.471 -1.6263 -6.75705 0
M  V30 2068 H 192.662 -0.811264 -4.61016 0
M  V30 2069 H 192.835 -1.37103 -6.3333 0
M  V30 2070 N 186.241 1.57166 -0.116904 0
M  V30 2071 C 187.487 1.95412 0.542405 0
M  V30 2072 C 187.82 1.00019 1.66463 0
M  V30 2073 O 187.095 0.0370346 1.94465 0
M  V30 2074 C 187.378 3.43615 1.07708 0
M  V30 2075 C 187.231 4.49781 -0.0415868 0
M  V30 2076 C 188.55 3.93616 1.96861 0
M  V30 2077 H 185.669 0.710543 0.195696 0
M  V30 2078 H 188.311 1.89027 -0.192038 0
M  V30 2079 H 186.461 3.49187 1.70296 0
M  V30 2080 H 188.133 4.56308 -0.676793 0
M  V30 2081 H 186.376 4.28033 -0.705019 0
M  V30 2082 H 187.047 5.50733 0.373717 0
M  V30 2083 H 189.523 3.90335 1.44146 0
M  V30 2084 H 188.399 4.97838 2.3119 0
M  V30 2085 H 188.66 3.34188 2.89432 0
M  V30 2086 N 187.719 -0.156864 1.56817 0
M  V30 2087 C 188.629 -1.2136 2.00771 0
M  V30 2088 C 189.645 -1.47598 0.921459 0
M  V30 2089 O 190.821 -1.59462 1.2302 0
M  V30 2090 C 187.886 -2.52943 2.37109 0
M  V30 2091 C 186.947 -2.34439 3.59634 0
M  V30 2092 C 186.18 -3.59748 3.94229 0
M  V30 2093 O 186.403 -4.65526 3.29609 0
M  V30 2094 O 185.337 -3.52998 4.8752 0
M  V30 2095 H 189.163 -0.870468 2.90958 0
M  V30 2096 H 186.748 -0.36484 1.44877 0
M  V30 2097 H 188.63 -3.30538 2.61386 0
M  V30 2098 H 187.305 -2.86806 1.5008 0
M  V30 2099 H 186.212 -1.54828 3.40557 0
M  V30 2100 H 187.545 -2.05496 4.4725 0
M  V30 2101 N 189.197 -1.51736 -0.425897 0
M  V30 2102 C 190.608 -1.5732 -1.00536 0
M  V30 2103 C 190.959 -0.403537 -1.92005 0
M  V30 2104 O 190.084 0.478256 -2.11049 0
M  V30 2105 C 190.679 -2.85119 -1.8301 0
M  V30 2106 C 189.238 -2.93236 -2.35987 0
M  V30 2107 C 188.385 -2.52098 -1.15508 0
M  V30 2108 H 191.336 -1.57348 -0.206739 0
M  V30 2109 H 191.357 -2.69526 -2.68581 0
M  V30 2110 H 190.869 -3.7023 -1.16411 0
M  V30 2111 H 188.97 -2.12581 -3.06007 0
M  V30 2112 H 189.083 -3.9713 -2.68001 0
M  V30 2113 H 187.447 -2.05558 -1.50393 0
M  V30 2114 H 188.23 -3.39565 -0.505014 0
M  V30 2115 N 190.675 0.682077 -1.42076 0
M  V30 2116 C 191.903 1.47057 -1.4554 0
M  V30 2117 C 192.318 1.8869 -0.0645779 0
M  V30 2118 O 191.675 1.57666 0.919115 0
M  V30 2119 C 191.726 2.72442 -2.37609 0
M  V30 2120 O 191.447 2.32559 -3.71279 0
M  V30 2121 C 192.948 3.66069 -2.50017 0
M  V30 2122 H 190.168 0.452737 -0.495248 0
M  V30 2123 H 192.712 0.838695 -1.8651 0
M  V30 2124 H 190.867 3.31835 -1.9991 0
M  V30 2125 H 191.281 3.13475 -4.20516 0
M  V30 2126 H 192.755 4.50792 -3.18576 0
M  V30 2127 H 193.232 4.11476 -1.53572 0
M  V30 2128 H 193.838 3.12572 -2.88407 0
M  V30 2129 N 192.153 1.28127 0.917671 0
M  V30 2130 C 193.399 1.15223 1.66888 0
M  V30 2131 C 193.732 -0.299293 1.9188 0
M  V30 2132 O 193.007 -1.21805 1.51637 0
M  V30 2133 C 193.29 1.94706 3.02922 0
M  V30 2134 C 193.143 3.47898 2.85109 0
M  V30 2135 C 194.462 1.75939 4.03402 0
M  V30 2136 H 191.581 0.419946 0.605652 0
M  V30 2137 H 194.223 1.57398 1.06423 0
M  V30 2138 H 192.373 1.58864 3.54534 0
M  V30 2139 H 194.045 3.93624 2.40537 0
M  V30 2140 H 192.288 3.7373 2.20246 0
M  V30 2141 H 192.959 3.98765 3.81694 0
M  V30 2142 H 195.435 2.07209 3.60837 0
M  V30 2143 H 194.311 2.33931 4.96556 0
M  V30 2144 H 194.572 0.709877 4.36364 0
M  V30 2145 N 193.631 -1.12557 1.10312 0
M  V30 2146 C 194.859 -1.87864 0.866873 0
M  V30 2147 C 195.274 -1.79588 -0.582557 0
M  V30 2148 O 194.631 -1.16887 -1.40156 0
M  V30 2149 C 194.682 -3.37125 1.30496 0
M  V30 2150 O 194.403 -3.45201 2.69755 0
M  V30 2151 C 195.904 -4.29373 1.10243 0
M  V30 2152 H 193.124 -0.594452 0.311236 0
M  V30 2153 H 195.668 -1.42429 1.46745 0
M  V30 2154 H 193.823 -3.80109 0.748081 0
M  V30 2155 H 194.237 -4.38056 2.88457 0
M  V30 2156 H 195.711 -5.32394 1.45811 0
M  V30 2157 H 196.188 -4.39181 0.0409492 0
M  V30 2158 H 196.794 -3.92169 1.64571 0
M  V30 2159 N 195.109 -0.891671 -1.2995 0
M  V30 2160 C 196.358 -0.509521 -1.95158 0
M  V30 2161 C 196.671 0.947388 -1.71125 0
M  V30 2162 O 197.877 1.43669 -2.30372 0
M  V30 2163 C 196.333 -0.860315 -3.49466 0
M  V30 2164 C 195.941 -2.33545 -3.8231 0
M  V30 2165 C 197.685 -0.547687 -4.20952 0
M  V30 2166 C 195.592 -2.62752 -5.29826 0
M  V30 2167 H 194.522 -0.18682 -0.730489 0
M  V30 2168 H 197.173 -1.08756 -1.47798 0
M  V30 2169 H 195.555 -0.211285 -3.95436 0
M  V30 2170 H 196.729 -3.02936 -3.47227 0
M  V30 2171 H 195.044 -2.61629 -3.23944 0
M  V30 2172 H 197.641 -0.742854 -5.29515 0
M  V30 2173 H 197.984 0.51332 -4.13123 0
M  V30 2174 H 198.517 -1.1542 -3.80688 0
M  V30 2175 H 195.256 -3.6762 -5.42712 0
M  V30 2176 H 194.776 -1.97977 -5.66185 0
M  V30 2177 H 196.455 -2.48601 -5.97333 0
M  V30 2178 N 196.587 1.43421 -0.653314 0
M  V30 2179 C 197.812 2.06678 -0.172846 0
M  V30 2180 C 198.237 1.48648 1.15262 0
M  V30 2181 O 197.595 0.596457 1.71208 0
M  V30 2182 C 197.643 3.60474 -0.0953184 0
M  V30 2183 O 196.747 4.01487 0.942442 0
M  V30 2184 H 196.088 0.657181 -0.0949155 0
M  V30 2185 H 198.618 1.83925 -0.896265 0
M  V30 2186 H 198.628 4.07905 0.0879728 0
M  V30 2187 H 197.303 4.02088 -1.06291 0
M  V30 2188 H 195.88 3.65646 0.731932 0
M  V30 2189 N 198.065 0.39524 1.52563 0
M  V30 2190 C 199.476 -0.0774719 1.86539 0
M  V30 2191 C 199.827 -1.45641 1.31466 0
M  V30 2192 O 198.952 -2.06459 0.648367 0
M  V30 2193 C 199.547 -0.147356 3.38479 0
M  V30 2194 C 198.106 -0.564373 3.72145 0
M  V30 2195 C 197.253 0.269919 2.75983 0
M  V30 2196 H 200.204 0.612876 1.46388 0
M  V30 2197 H 200.225 -0.965343 3.68051 0
M  V30 2198 H 199.737 0.856387 3.78534 0
M  V30 2199 H 197.838 -1.57527 3.37663 0
M  V30 2200 H 197.951 -0.318402 4.78041 0
M  V30 2201 H 196.315 -0.265696 2.5331 0
M  V30 2202 H 197.098 1.27175 3.18875 0
M  V30 2203 N 199.544 -1.57102 0.125237 0
M  V30 2204 C 200.769 -2.0019 -0.542101 0
M  V30 2205 C 201.194 -1.00449 -1.59034 0
M  V30 2206 O 200.552 0.0229423 -1.81285 0
M  V30 2207 C 200.6 -3.42129 -1.13929 0
M  V30 2208 O 199.704 -3.45307 -2.2547 0
M  V30 2209 H 199.045 -0.650171 -0.134812 0
M  V30 2210 H 201.575 -2.03461 0.215553 0
M  V30 2211 H 201.585 -3.80471 -1.4733 0
M  V30 2212 H 200.26 -4.14237 -0.371531 0
M  V30 2213 H 198.837 -3.1879 -1.93462 0
M  V30 2214 N 201.022 0.148545 -1.56898 0
M  V30 2215 C 202.438 0.501131 -1.51528 0
M  V30 2216 C 202.638 1.83458 -0.833399 0
M  V30 2217 O 201.694 2.49259 -0.40328 0
M  V30 2218 C 203.007 0.512864 -2.96294 0
M  V30 2219 C 204.555 0.598487 -3.07225 0
M  V30 2220 C 205.03 0.640897 -4.53494 0
M  V30 2221 N 206.521 0.703163 -4.57832 0
M  V30 2222 C 207.256 0.756935 -5.68382 0
M  V30 2223 N 206.752 0.770147 -6.88506 0
M  V30 2224 N 208.545 0.797698 -5.56411 0
M  V30 2225 H 200.696 -0.725532 -1.99624 0
M  V30 2226 H 202.959 -0.264358 -0.910395 0
M  V30 2227 H 202.665 -0.398691 -3.49433 0
M  V30 2228 H 202.539 1.35133 -3.52163 0
M  V30 2229 H 204.926 1.50046 -2.54106 0
M  V30 2230 H 205.007 -0.267093 -2.54402 0
M  V30 2231 H 204.651 -0.256915 -5.0725 0
M  V30 2232 H 204.581 1.52295 -5.04097 0
M  V30 2233 H 207.072 0.700314 -3.71354 0
M  V30 2234 H 207.385 0.812983 -7.68512 0
M  V30 2235 H 205.73 0.738049 -6.9107 0
M  V30 2236 H 208.921 0.784535 -4.61479 0
M  V30 2237 H 209.094 0.83614 -6.42583 0
M  V30 2238 N 202.5 1.5196 0.417844 0
M  V30 2239 C 203.728 1.69426 1.18753 0
M  V30 2240 C 204.143 0.399955 1.84515 0
M  V30 2241 O 203.5 -0.623288 1.71527 0
M  V30 2242 C 203.551 2.82375 2.25714 0
M  V30 2243 O 203.272 4.06793 1.62638 0
M  V30 2244 C 204.773 3.11277 3.15628 0
M  V30 2245 H 201.993 0.568031 0.357186 0
M  V30 2246 H 204.537 1.98475 0.49273 0
M  V30 2247 H 202.692 2.5587 2.90877 0
M  V30 2248 H 203.106 4.69667 2.3348 0
M  V30 2249 H 204.58 3.93843 3.86771 0
M  V30 2250 H 205.057 2.24473 3.77503 0
M  V30 2251 H 205.663 3.39515 2.56144 0
M  V30 2252 N 203.978 -0.674533 1.42435 0
M  V30 2253 C 204.888 -1.81751 1.48337 0
M  V30 2254 C 205.904 -1.69975 0.372099 0
M  V30 2255 O 207.08 -1.91521 0.62304 0
M  V30 2256 C 204.145 -3.17895 1.38361 0
M  V30 2257 C 203.206 -3.41625 2.59982 0
M  V30 2258 C 202.439 -4.71274 2.50473 0
M  V30 2259 O 202.662 -5.49197 1.54075 0
M  V30 2260 O 201.596 -4.96254 3.4061 0
M  V30 2261 H 205.422 -1.79728 2.44809 0
M  V30 2262 H 203.007 -0.830312 1.24202 0
M  V30 2263 H 204.889 -3.99136 1.35161 0
M  V30 2264 H 203.564 -3.20555 0.450144 0
M  V30 2265 H 202.471 -2.60231 2.68757 0
M  V30 2266 H 203.804 -3.43796 3.52229 0
M  V30 2267 N 205.456 -1.28612 -0.910864 0
M  V30 2268 C 206.419 -1.12803 -1.9952 0
M  V30 2269 C 207.419 -0.0668264 -1.60661 0
M  V30 2270 O 208.609 -0.312847 -1.71368 0
M  V30 2271 C 205.741 -0.72254 -3.33155 0
M  V30 2272 H 206.934 -2.09109 -2.14973 0
M  V30 2273 H 204.487 -1.11639 -1.09391 0
M  V30 2274 H 205.222 0.241152 -3.23402 0
M  V30 2275 H 205.007 -1.48916 -3.62721 0
M  V30 2276 H 206.497 -0.634666 -4.12749 0
M  V30 2277 N 206.934 1.1197 -1.10907 0
M  V30 2278 C 207.864 2.19928 -0.784473 0
M  V30 2279 C 208.845 1.6833 0.244726 0
M  V30 2280 O 210.03 1.93892 0.109418 0
M  V30 2281 C 207.16 3.46597 -0.220827 0
M  V30 2282 C 206.114 4.11376 -1.18127 0
M  V30 2283 C 205.44 5.32554 -0.478594 0
M  V30 2284 C 206.74 4.56945 -2.52979 0
M  V30 2285 H 208.434 2.47337 -1.68715 0
M  V30 2286 H 205.98 1.18879 -0.812642 0
M  V30 2287 H 207.933 4.21396 0.0184278 0
M  V30 2288 H 206.657 3.1863 0.717113 0
M  V30 2289 H 205.316 3.38564 -1.40606 0
M  V30 2290 H 204.964 5.00856 0.463976 0
M  V30 2291 H 204.664 5.76844 -1.11912 0
M  V30 2292 H 206.188 6.10096 -0.248 0
M  V30 2293 H 207.602 5.23093 -2.3462 0
M  V30 2294 H 205.999 5.1203 -3.12962 0
M  V30 2295 H 207.069 3.70676 -3.12614 0
M  V30 2296 N 208.412 0.89855 1.29475 0
M  V30 2297 C 209.36 0.365253 2.29714 0
M  V30 2298 C 210.354 -0.534993 1.6073 0
M  V30 2299 O 211.56 -0.417921 1.75081 0
M  V30 2300 H 207.935 0.0994853 0.74539 0
M  V30 2301 H 209.906 1.22406 2.72138 0
M  V30 2302 C 208.655 -0.393159 3.4547 0
M  V30 2303 H 207.978 0.290332 3.98744 0
M  V30 2304 H 209.418 -0.731189 4.17648 0
M  V30 2305 C 207.877 -1.59539 2.9673 0
M  V30 2306 O 208.407 -2.69469 2.97908 0
M  V30 2307 N 206.613 -1.43716 2.52575 0
M  V30 2308 H 206.16 -0.542828 2.51816 0
M  V30 2309 H 206.118 -2.24288 2.20323 0
M  V30 2310 N 209.89 -1.43072 0.660911 0
M  V30 2311 C 210.84 -2.27948 -0.04847 0
M  V30 2312 C 211.824 -1.40325 -0.787246 0
M  V30 2313 O 213.016 -1.63893 -0.668446 0
M  V30 2314 C 210.145 -3.28143 -1.00881 0
M  V30 2315 C 209.231 -4.23252 -0.268108 0
M  V30 2316 N 209.622 -5.00656 0.719528 0
M  V30 2317 C 207.92 -4.43092 -0.508493 0
M  V30 2318 C 208.621 -5.70019 1.15988 0
M  V30 2319 N 207.597 -5.41364 0.492584 0
M  V30 2320 H 211.399 -2.85213 0.709279 0
M  V30 2321 H 208.913 -1.54869 0.488822 0
M  V30 2322 H 210.91 -3.87736 -1.53188 0
M  V30 2323 H 209.57 -2.7244 -1.76654 0
M  V30 2324 H 210.581 -5.06115 1.09855 0
M  V30 2325 H 207.258 -3.98449 -1.24679 0
M  V30 2326 H 208.648 -6.4214 1.97751 0
M  V30 2327 N 211.368 -0.403325 -1.52352 0
M  V30 2328 C 212.318 0.442244 -2.2367 0
M  V30 2329 C 213.302 1.01823 -1.24583 0
M  V30 2330 O 214.494 0.942005 -1.49851 0
M  V30 2331 C 211.623 1.5615 -3.05732 0
M  V30 2332 C 210.709 0.996575 -4.12225 0
M  V30 2333 N 211.1 0.157804 -5.05554 0
M  V30 2334 C 209.398 1.26767 -4.27605 0
M  V30 2335 C 210.099 -0.155853 -5.81491 0
M  V30 2336 N 209.075 0.451775 -5.41719 0
M  V30 2337 H 212.877 -0.204964 -2.93184 0
M  V30 2338 H 210.391 -0.213418 -1.60992 0
M  V30 2339 H 212.388 2.17981 -3.55373 0
M  V30 2340 H 211.048 2.21139 -2.37755 0
M  V30 2341 H 212.059 -0.206049 -5.1749 0
M  V30 2342 H 208.736 1.91757 -3.70858 0
M  V30 2343 H 210.126 -0.836329 -6.66675 0
M  V30 2344 N 212.846 1.57033 -0.133567 0
M  V30 2345 C 213.794 2.17348 0.828412 0
M  V30 2346 C 214.788 1.12671 1.26498 0
M  V30 2347 O 215.994 1.30947 1.23502 0
M  V30 2348 H 212.369 0.695775 0.285309 0
M  V30 2349 H 214.34 2.96935 0.295372 0
M  V30 2350 C 213.089 2.79893 2.06289 0
M  V30 2351 H 212.412 3.60147 1.73592 0
M  V30 2352 H 213.852 3.25615 2.71572 0
M  V30 2353 C 212.311 1.77713 2.86216 0
M  V30 2354 O 212.841 1.23937 3.82103 0
M  V30 2355 N 211.047 1.47321 2.50489 0
M  V30 2356 H 210.594 1.91243 1.7258 0
M  V30 2357 H 210.552 0.79199 3.04261 0
M  V30 2358 N 214.325 -0.140222 1.56975 0
M  V30 2359 C 215.255 -1.17456 2.01808 0
M  V30 2360 C 216.236 -1.44415 0.898794 0
M  V30 2361 O 217.421 -1.5522 1.16707 0
M  V30 2362 C 214.551 -2.50607 2.40444 0
M  V30 2363 C 213.505 -2.38155 3.55621 0
M  V30 2364 C 212.831 -3.76078 3.80091 0
M  V30 2365 C 214.131 -1.85991 4.88062 0
M  V30 2366 H 215.825 -0.801743 2.88466 0
M  V30 2367 H 213.371 -0.38422 1.38779 0
M  V30 2368 H 215.324 -3.23197 2.7041 0
M  V30 2369 H 214.048 -2.89737 1.50732 0
M  V30 2370 H 212.707 -1.68016 3.25832 0
M  V30 2371 H 212.355 -4.12656 2.87618 0
M  V30 2372 H 212.055 -3.68606 4.57606 0
M  V30 2373 H 213.579 -4.50206 4.12488 0
M  V30 2374 H 214.993 -2.4838 5.16701 0
M  V30 2375 H 213.39 -1.89393 5.6943 0
M  V30 2376 H 214.46 -0.816023 4.77984 0
M  V30 2377 N 215.803 -1.52179 -0.40978 0
M  V30 2378 C 216.733 -1.78435 -1.5061 0
M  V30 2379 C 217.714 -0.635295 -1.57791 0
M  V30 2380 O 218.899 -0.880823 -1.73076 0
M  V30 2381 C 216.029 -1.93444 -2.88439 0
M  V30 2382 C 214.983 -3.09038 -2.96108 0
M  V30 2383 C 214.309 -3.09268 -4.36185 0
M  V30 2384 C 215.609 -4.48508 -2.67652 0
M  V30 2385 H 217.303 -2.70237 -1.28889 0
M  V30 2386 H 214.849 -1.30036 -0.618605 0
M  V30 2387 H 216.802 -2.10394 -3.65119 0
M  V30 2388 H 215.526 -0.983129 -3.11452 0
M  V30 2389 H 214.185 -2.91837 -2.21872 0
M  V30 2390 H 213.833 -2.11861 -4.56206 0
M  V30 2391 H 213.533 -3.86907 -4.42241 0
M  V30 2392 H 215.057 -3.28348 -5.14801 0
M  V30 2393 H 216.471 -4.65918 -3.34056 0
M  V30 2394 H 214.868 -5.28059 -2.85085 0
M  V30 2395 H 215.938 -4.56649 -1.63095 0
M  V30 2396 N 217.281 0.66697 -1.42791 0
M  V30 2397 C 218.527 1.4291 -1.43891 0
M  V30 2398 C 218.86 1.94114 -0.0578972 0
M  V30 2399 O 218.135 1.71414 0.91911 0
M  V30 2400 C 218.418 2.62049 -2.46987 0
M  V30 2401 C 218.271 2.16426 -3.94309 0
M  V30 2402 C 219.59 3.64266 -2.46978 0
M  V30 2403 H 216.709 0.518306 -0.523954 0
M  V30 2404 H 219.351 0.757321 -1.74255 0
M  V30 2405 H 217.501 3.19361 -2.21225 0
M  V30 2406 H 219.173 1.64221 -4.31079 0
M  V30 2407 H 217.416 1.47925 -4.078 0
M  V30 2408 H 218.087 3.02038 -4.62036 0
M  V30 2409 H 220.563 3.16686 -2.69906 0
M  V30 2410 H 219.439 4.45196 -3.21079 0
M  V30 2411 H 219.7 4.15927 -1.49857 0
M  V30 2412 N 218.759 1.29093 0.90403 0
M  V30 2413 C 219.999 1.18076 1.66845 0
M  V30 2414 C 220.363 -0.26436 1.90171 0
M  V30 2415 O 221.564 -0.497423 2.64157 0
M  V30 2416 C 219.835 1.96722 2.98388 0
M  V30 2417 S 221.394 2.0219 3.89441 0
M  V30 2418 H 218.212 0.421104 0.572881 0
M  V30 2419 H 220.814 1.63322 1.07453 0
M  V30 2420 H 219.518 3.00866 2.7912 0
M  V30 2421 H 219.049 1.52064 3.62823 0
M  V30 2422 H 221.064 1.13545 4.83034 0
M  V30 2423 N 220.237 -1.11381 1.11499 0
M  V30 2424 C 221.462 -1.87475 0.887019 0
M  V30 2425 C 221.887 -1.79639 -0.557796 0
M  V30 2426 O 221.245 -1.15924 -1.39396 0
M  V30 2427 C 221.293 -3.34213 1.35403 0
M  V30 2428 O 220.397 -4.0903 0.526146 0
M  V30 2429 H 219.738 -0.582099 0.319463 0
M  V30 2430 H 222.268 -1.40785 1.48461 0
M  V30 2431 H 222.278 -3.8506 1.34881 0
M  V30 2432 H 220.953 -3.39232 2.40612 0
M  V30 2433 H 219.53 -3.68082 0.597522 0
M  V30 2434 N 221.715 -0.905404 -1.28997 0
M  V30 2435 C 222.961 -0.535039 -1.95615 0
M  V30 2436 C 223.294 0.917404 -1.71165 0
M  V30 2437 O 222.569 1.65123 -1.02785 0
M  V30 2438 C 222.852 -0.834918 -3.50287 0
M  V30 2439 C 222.705 -2.33948 -3.84172 0
M  V30 2440 C 224.024 -0.325318 -4.38896 0
M  V30 2441 H 221.143 -0.195861 -0.710498 0
M  V30 2442 H 223.785 -1.13313 -1.52513 0
M  V30 2443 H 221.935 -0.325904 -3.87131 0
M  V30 2444 H 223.607 -2.91847 -3.57243 0
M  V30 2445 H 221.85 -2.79789 -3.31513 0
M  V30 2446 H 222.521 -2.49987 -4.92149 0
M  V30 2447 H 224.997 -0.761256 -4.09077 0
M  V30 2448 H 223.873 -0.564295 -5.45992 0
M  V30 2449 H 224.134 0.774144 -4.35269 0
M  V30 2450 N 223.193 1.4272 -0.668489 0
M  V30 2451 C 224.421 2.05966 -0.196348 0
M  V30 2452 C 224.836 1.50191 1.14403 0
M  V30 2453 O 224.193 0.639208 1.7094 0
M  V30 2454 C 224.244 3.61314 -0.115815 0
M  V30 2455 O 223.965 4.1502 -1.40322 0
M  V30 2456 C 225.466 4.41663 0.380579 0
M  V30 2457 H 222.686 0.663954 -0.0969829 0
M  V30 2458 H 225.23 1.82966 -0.913446 0
M  V30 2459 H 223.385 3.83448 0.551931 0
M  V30 2460 H 223.799 5.08832 -1.27243 0
M  V30 2461 H 225.273 5.5065 0.385848 0
M  V30 2462 H 225.75 4.15792 1.41471 0
M  V30 2463 H 226.356 4.24534 -0.255209 0
M  V30 2464 N 224.671 0.411399 1.52136 0
M  V30 2465 C 225.948 -0.222308 1.94333 0
M  V30 2466 C 226.328 -1.6242 1.34844 0
M  V30 2467 O 225.676 -2.22384 0.525145 0
M  V30 2468 C 225.886 -0.226345 3.48265 0
M  V30 2469 C 227.234 -0.444592 4.22266 0
M  V30 2470 O 228.258 -0.305602 3.54887 0
M  V30 2471 O 227.117 -0.718749 5.41753 0
M  V30 2472 H 224.211 -0.143907 0.814383 0
M  V30 2473 H 226.757 0.467506 1.63133 0
M  V30 2474 H 225.529 0.75475 3.83952 0
M  V30 2475 H 225.152 -0.960163 3.85832 0
M  V30 2476 N 226.149 -1.5696 0.141893 0
M  V30 2477 C 227.396 -1.9596 -0.510492 0
M  V30 2478 C 227.724 -1.02648 -1.65208 0
M  V30 2479 O 226.979 -0.0546947 -1.95624 0
M  V30 2480 C 227.278 -3.41242 -1.06249 0
M  V30 2481 C 226.944 -4.50882 -0.0398791 0
M  V30 2482 C 225.606 -4.80595 0.241247 0
M  V30 2483 C 227.958 -5.17058 0.65578 0
M  V30 2484 C 225.286 -5.73792 1.22393 0
M  V30 2485 C 227.638 -6.11313 1.62724 0
M  V30 2486 C 226.302 -6.39407 1.91612 0
M  V30 2487 H 225.572 -0.717068 -0.186802 0
M  V30 2488 H 228.219 -1.90142 0.227643 0
M  V30 2489 H 226.524 -3.43866 -1.87785 0
M  V30 2490 H 228.221 -3.68742 -1.57576 0
M  V30 2491 H 224.811 -4.27754 -0.269174 0
M  V30 2492 H 228.995 -4.94239 0.451779 0
M  V30 2493 H 224.251 -5.93853 1.45424 0
M  V30 2494 H 228.425 -6.61668 2.17183 0
M  V30 2495 H 226.052 -7.11427 2.6791 0
M  V30 2496 N 227.627 0.131896 -1.57047 0
M  V30 2497 C 228.857 0.855219 -1.88068 0
M  V30 2498 C 229.265 1.74557 -0.729817 0
M  V30 2499 O 228.608 1.81083 0.308962 0
M  V30 2500 C 228.67 1.75119 -3.13964 0
M  V30 2501 C 228.334 1.03646 -4.45091 0
M  V30 2502 C 229.331 0.383276 -5.18485 0
M  V30 2503 C 227.016 1.02148 -4.91804 0
M  V30 2504 C 229.01 -0.275347 -6.36805 0
M  V30 2505 C 226.697 0.359047 -6.10044 0
M  V30 2506 C 227.695 -0.288222 -6.82392 0
M  V30 2507 O 227.383 -0.94011 -7.98384 0
M  V30 2508 H 227.115 0.251864 -0.627328 0
M  V30 2509 H 229.669 0.124782 -2.05021 0
M  V30 2510 H 227.899 2.52295 -2.9306 0
M  V30 2511 H 229.588 2.3478 -3.31109 0
M  V30 2512 H 230.354 0.386562 -4.83457 0
M  V30 2513 H 226.233 1.5147 -4.35405 0
M  V30 2514 H 229.777 -0.781148 -6.93213 0
M  V30 2515 H 225.674 0.35348 -6.44531 0
M  V30 2516 H 226.442 -0.84329 -8.14144 0
M  V30 2517 N 229.106 1.52395 0.401703 0
M  V30 2518 C 230.517 1.58899 0.980202 0
M  V30 2519 C 230.868 0.434032 1.91339 0
M  V30 2520 O 229.993 -0.444619 2.11783 0
M  V30 2521 C 230.588 2.87994 1.78451 0
M  V30 2522 C 229.147 2.96953 2.31292 0
M  V30 2523 C 228.294 2.53903 1.11483 0
M  V30 2524 H 231.245 1.57657 0.18168 0
M  V30 2525 H 231.266 2.73765 2.64259 0
M  V30 2526 H 230.778 3.72035 1.10506 0
M  V30 2527 H 228.879 2.17422 3.02586 0
M  V30 2528 H 228.992 4.01344 2.61649 0
M  V30 2529 H 227.356 2.07925 1.47104 0
M  V30 2530 H 228.139 3.40326 0.450928 0
M  V30 2531 N 230.584 -0.659388 1.43143 0
M  V30 2532 C 231.547 -1.75432 1.47501 0
M  V30 2533 C 232.547 -1.56707 0.360512 0
M  V30 2534 O 233.737 -1.62717 0.622002 0
M  V30 2535 C 230.869 -3.14239 1.32162 0
M  V30 2536 H 232.062 -1.7295 2.45006 0
M  V30 2537 H 229.615 -0.870469 1.29817 0
M  V30 2538 H 230.35 -3.22336 0.356401 0
M  V30 2539 H 230.135 -3.29235 2.12948 0
M  V30 2540 H 231.625 -3.94094 1.3813 0
M  V30 2541 N 232.062 -1.29571 -0.897171 0
M  V30 2542 C 232.994 -1.10724 -2.00681 0
M  V30 2543 C 234.007 -0.0540026 -1.6271 0
M  V30 2544 O 235.196 -0.298783 -1.75982 0
M  V30 2545 C 232.296 -0.663912 -3.32333 0
M  V30 2546 C 231.469 -1.79622 -3.98816 0
M  V30 2547 C 230.528 -1.34349 -5.0876 0
M  V30 2548 O 229.554 -2.04864 -5.31055 0
M  V30 2549 N 230.756 -0.215764 -5.80099 0
M  V30 2550 H 233.521 -2.06291 -2.17403 0
M  V30 2551 H 231.082 -1.21544 -1.06951 0
M  V30 2552 H 233.074 -0.344295 -4.03233 0
M  V30 2553 H 231.644 0.199375 -3.11964 0
M  V30 2554 H 230.864 -2.28459 -3.21248 0
M  V30 2555 H 232.152 -2.55535 -4.39976 0
M  V30 2556 H 231.55 0.372091 -5.64475 0
M  V30 2557 H 230.107 0.0444707 -6.51785 0
M  V30 2558 N 233.54 1.10788 -1.12088 0
M  V30 2559 C 234.789 1.82036 -0.868659 0
M  V30 2560 C 235.102 1.85929 0.607426 0
M  V30 2561 O 236.308 2.53346 0.97613 0
M  V30 2562 C 234.764 3.26951 -1.50435 0
M  V30 2563 C 234.372 3.31367 -3.01496 0
M  V30 2564 C 236.116 4.03053 -1.33225 0
M  V30 2565 C 234.023 4.7072 -3.58017 0
M  V30 2566 H 232.953 0.682108 -0.321318 0
M  V30 2567 H 235.604 1.24618 -1.34694 0
M  V30 2568 H 233.986 3.84343 -0.953735 0
M  V30 2569 H 235.16 2.83819 -3.6302 0
M  V30 2570 H 233.475 2.6875 -3.18061 0
M  V30 2571 H 236.072 5.05981 -1.72878 0
M  V30 2572 H 236.415 4.15387 -0.275529 0
M  V30 2573 H 236.948 3.52066 -1.85188 0
M  V30 2574 H 233.687 4.63585 -4.63432 0
M  V30 2575 H 233.207 5.1865 -3.01268 0
M  V30 2576 H 234.886 5.39685 -3.56859 0
M  V30 2577 N 235.018 0.912232 1.28515 0
M  V30 2578 C 235.965 0.397954 2.27343 0
M  V30 2579 C 236.935 -0.526766 1.57526 0
M  V30 2580 O 238.12 -0.449292 1.85435 0
M  V30 2581 C 235.26 -0.357263 3.43246 0
M  V30 2582 C 234.373 0.599788 4.27816 0
M  V30 2583 C 233.508 -0.173725 5.30916 0
M  V30 2584 C 232.547 0.777039 6.07148 0
M  V30 2585 N 231.684 0.0371398 7.0209 0
M  V30 2586 H 236.524 1.24577 2.70711 0
M  V30 2587 H 234.061 0.625612 1.33133 0
M  V30 2588 H 236.019 -0.8113 4.09236 0
M  V30 2589 H 234.649 -1.16943 3.00872 0
M  V30 2590 H 233.701 1.17235 3.61884 0
M  V30 2591 H 235.013 1.32704 4.80823 0
M  V30 2592 H 234.167 -0.688394 6.02782 0
M  V30 2593 H 232.906 -0.934041 4.78672 0
M  V30 2594 H 231.911 1.3031 5.34134 0
M  V30 2595 H 233.136 1.53689 6.61481 0
M  V30 2596 H 231.082 -0.705213 6.52198 0
M  V30 2597 H 230.999 0.704249 7.52713 0
M  V30 2598 H 232.267 -0.457383 7.78157 0
M  V30 2599 N 236.496 -1.42363 0.676048 0
M  V30 2600 C 237.742 -2.0182 0.199125 0
M  V30 2601 C 238.075 -1.53339 -1.19168 0
M  V30 2602 O 237.35 -0.736124 -1.80032 0
M  V30 2603 C 237.633 -3.59331 0.235144 0
M  V30 2604 C 237.486 -4.17989 1.66149 0
M  V30 2605 C 238.805 -4.3813 -0.41595 0
M  V30 2606 H 235.924 -0.733293 0.0738311 0
M  V30 2607 H 238.566 -1.69368 0.86107 0
M  V30 2608 H 236.716 -3.87109 -0.328487 0
M  V30 2609 H 238.388 -4.0116 2.27747 0
M  V30 2610 H 236.631 -3.7377 2.20178 0
M  V30 2611 H 237.302 -5.27126 1.63837 0
M  V30 2612 H 239.778 -4.16051 0.0638529 0
M  V30 2613 H 238.654 -5.47717 -0.360115 0
M  V30 2614 H 238.915 -4.16101 -1.49373 0
M  V30 2615 N 237.974 -0.419461 -1.51915 0
M  V30 2616 C 239.39 -0.0708431 -1.59443 0
M  V30 2617 C 239.59 1.41796 -1.43164 0
M  V30 2618 O 238.646 2.18596 -1.26381 0
M  V30 2619 C 239.959 -0.574991 -2.95151 0
M  V30 2620 C 241.507 -0.533867 -3.08413 0
M  V30 2621 C 241.982 -1.01469 -4.46618 0
M  V30 2622 N 243.473 -0.971939 -4.52888 0
M  V30 2623 C 244.208 -1.31505 -5.58116 0
M  V30 2624 N 243.704 -1.73014 -6.70849 0
M  V30 2625 N 245.497 -1.23436 -5.48379 0
M  V30 2626 H 237.648 -1.38836 -1.60743 0
M  V30 2627 H 239.911 -0.570998 -0.756747 0
M  V30 2628 H 239.617 -1.61597 -3.12377 0
M  V30 2629 H 239.491 0.00979777 -3.77199 0
M  V30 2630 H 241.878 0.498086 -2.90866 0
M  V30 2631 H 241.959 -1.15484 -2.28248 0
M  V30 2632 H 241.603 -2.04502 -4.6491 0
M  V30 2633 H 241.533 -0.370433 -5.25295 0
M  V30 2634 H 244.024 -0.666893 -3.71969 0
M  V30 2635 H 244.337 -1.97479 -7.47143 0
M  V30 2636 H 242.682 -1.76926 -6.72103 0
M  V30 2637 H 245.873 -0.908869 -4.59192 0
M  V30 2638 H 246.046 -1.50506 -6.30279 0
M  V30 2639 N 239.452 1.56882 -0.150215 0
M  V30 2640 C 240.698 1.97299 0.494427 0
M  V30 2641 C 241.053 1.0338 1.62266 0
M  V30 2642 O 240.346 0.0694497 1.91474 0
M  V30 2643 C 240.54 3.41801 1.04437 0
M  V30 2644 C 240.369 4.49691 -0.0290451 0
M  V30 2645 C 239.139 5.03095 -0.47156 0
M  V30 2646 C 241.337 5.07693 -0.821703 0
M  V30 2647 N 239.319 5.94593 -1.52749 0
M  V30 2648 C 240.69 5.95431 -1.72805 0
M  V30 2649 C 242.745 4.90256 -0.869134 0
M  V30 2650 C 241.448 6.67599 -2.67777 0
M  V30 2651 C 243.474 5.63127 -1.8067 0
M  V30 2652 C 242.836 6.50576 -2.70057 0
M  V30 2653 H 238.935 0.76755 0.149639 0
M  V30 2654 H 241.519 1.93145 -0.24556 0
M  V30 2655 H 239.69 3.46541 1.75396 0
M  V30 2656 H 241.422 3.69272 1.6559 0
M  V30 2657 H 238.177 4.73543 -0.0732101 0
M  V30 2658 H 238.601 6.45047 -2.05531 0
M  V30 2659 H 243.243 4.22363 -0.192134 0
M  V30 2660 H 240.961 7.34717 -3.36476 0
M  V30 2661 H 244.547 5.51629 -1.84924 0
M  V30 2662 H 243.427 7.05974 -3.41424 0
M  V30 2663 N 240.93 -0.123565 1.57115 0
M  V30 2664 C 242.177 -0.832153 1.84612 0
M  V30 2665 C 242.505 -1.80093 0.734627 0
M  V30 2666 O 241.76 -1.93766 -0.27442 0
M  V30 2667 C 242.059 -1.62016 3.18568 0
M  V30 2668 C 241.725 -0.796084 4.43817 0
M  V30 2669 C 240.387 -0.568816 4.77826 0
M  V30 2670 C 242.739 -0.221364 5.2073 0
M  V30 2671 C 240.067 0.243499 5.86194 0
M  V30 2672 C 242.419 0.578117 6.29953 0
M  V30 2673 C 241.083 0.815744 6.62497 0
M  V30 2674 H 240.353 -0.304507 0.675542 0
M  V30 2675 H 243 -0.0947248 1.91266 0
M  V30 2676 H 241.305 -2.42837 3.0747 0
M  V30 2677 H 243.002 -2.17231 3.37064 0
M  V30 2678 H 239.592 -0.983307 4.17168 0
M  V30 2679 H 243.776 -0.384173 4.94811 0
M  V30 2680 H 239.032 0.436871 6.09837 0
M  V30 2681 H 243.206 1.03046 6.88734 0
M  V30 2682 H 240.833 1.44701 7.46301 0
M  V30 2683 N 242.408 -1.52605 -0.393616 0
M  V30 2684 C 243.824 -1.41753 -0.733357 0
M  V30 2685 C 244.024 -0.534293 -1.94287 0
M  V30 2686 O 243.08 -0.0059787 -2.52499 0
M  V30 2687 C 244.393 -2.84531 -0.972772 0
M  V30 2688 C 245.941 -2.93978 -1.07453 0
M  V30 2689 C 246.416 -4.37756 -1.3466 0
M  V30 2690 N 247.907 -4.4106 -1.41492 0
M  V30 2691 C 248.642 -5.49387 -1.642 0
M  V30 2692 N 248.138 -6.67806 -1.8441 0
M  V30 2693 N 249.931 -5.36923 -1.66342 0
M  V30 2694 H 242.082 -2.08555 0.402328 0
M  V30 2695 H 244.345 -0.940654 0.117789 0
M  V30 2696 H 244.051 -3.51353 -0.156204 0
M  V30 2697 H 243.925 -3.26508 -1.88871 0
M  V30 2698 H 246.312 -2.27326 -1.88167 0
M  V30 2699 H 246.393 -2.55435 -0.136605 0
M  V30 2700 H 246.037 -5.04972 -0.544581 0
M  V30 2701 H 245.967 -4.73848 -2.2973 0
M  V30 2702 H 248.458 -3.55705 -1.27601 0
M  V30 2703 H 248.771 -7.46141 -2.01231 0
M  V30 2704 H 247.116 -6.70843 -1.81644 0
M  V30 2705 H 250.307 -4.43381 -1.50102 0
M  V30 2706 H 250.48 -6.21416 -1.837 0
M  V30 2707 N 243.887 0.651787 -1.4349 0
M  V30 2708 C 244.835 1.78586 -1.49029 0
M  V30 2709 C 245.829 1.65448 -0.363767 0
M  V30 2710 O 247.035 1.71777 -0.537821 0
M  V30 2711 H 243.41 0.589236 -0.467231 0
M  V30 2712 H 245.381 1.71035 -2.44519 0
M  V30 2713 C 244.13 3.16851 -1.43181 0
M  V30 2714 H 243.453 3.27598 -2.29171 0
M  V30 2715 H 244.893 3.96156 -1.51118 0
M  V30 2716 C 243.352 3.36568 -0.149616 0
M  V30 2717 O 243.882 3.93885 0.788509 0
M  V30 2718 N 242.088 2.90539 -0.0593484 0
M  V30 2719 H 241.635 2.4408 -0.823575 0
M  V30 2720 H 241.593 3.04108 0.797853 0
M  V30 2721 N 245.365 1.30045 0.890287 0
M  V30 2722 C 246.642 1.09227 1.62262 0
M  V30 2723 C 247.022 -0.360305 2.08002 0
M  V30 2724 O 246.37 -1.35084 1.84295 0
M  V30 2725 C 246.58 2.08835 2.79623 0
M  V30 2726 C 247.928 2.40266 3.50082 0
M  V30 2727 O 248.952 2.07104 2.89804 0
M  V30 2728 O 247.811 2.96967 4.58773 0
M  V30 2729 H 244.905 0.419132 0.712922 0
M  V30 2730 H 247.451 1.41451 0.937529 0
M  V30 2731 H 246.223 3.06633 2.43089 0
M  V30 2732 H 245.846 1.77397 3.55832 0
M  V30 2733 N 246.843 -1.10192 1.12674 0
M  V30 2734 C 247.775 -2.16418 0.754701 0
M  V30 2735 C 248.788 -1.61309 -0.21986 0
M  V30 2736 O 249.977 -1.785 -0.000826841 0
M  V30 2737 C 247.077 -3.38762 0.096698 0
M  V30 2738 C 246.25 -4.23307 1.10136 0
M  V30 2739 C 245.309 -5.24092 0.470513 0
M  V30 2740 O 244.335 -5.57906 1.12824 0
M  V30 2741 N 245.537 -5.75491 -0.760948 0
M  V30 2742 H 248.302 -2.48943 1.66875 0
M  V30 2743 H 245.863 -1.25834 1.01869 0
M  V30 2744 H 247.855 -4.03291 -0.337384 0
M  V30 2745 H 246.425 -3.04192 -0.720153 0
M  V30 2746 H 245.645 -3.55036 1.71299 0
M  V30 2747 H 246.933 -4.76624 1.78064 0
M  V30 2748 H 246.331 -5.50222 -1.31424 0
M  V30 2749 H 244.888 -6.41792 -1.13781 0
M  V30 2750 N 248.321 -0.919034 -1.28029 0
M  V30 2751 C 249.231 -0.416756 -2.30869 0
M  V30 2752 C 250.247 0.498235 -1.66714 0
M  V30 2753 O 251.423 0.383144 -1.97722 0
M  V30 2754 C 248.488 0.330274 -3.45123 0
M  V30 2755 C 247.549 -0.618578 -4.2482 0
M  V30 2756 C 246.782 0.0928959 -5.33619 0
M  V30 2757 O 247.005 1.31375 -5.55065 0
M  V30 2758 O 245.939 -0.574499 -5.99152 0
M  V30 2759 H 249.765 -1.27043 -2.75851 0
M  V30 2760 H 247.35 -0.684052 -1.3282 0
M  V30 2761 H 249.232 0.751972 -4.14636 0
M  V30 2762 H 247.907 1.1597 -3.02213 0
M  V30 2763 H 246.814 -1.08978 -3.57875 0
M  V30 2764 H 248.147 -1.41497 -4.71423 0
M  V30 2765 N 249.799 1.42003 -0.683588 0
M  V30 2766 C 250.709 2.34597 -0.0109075 0
M  V30 2767 C 251.725 1.55576 0.779245 0
M  V30 2768 O 252.901 1.88107 0.719555 0
M  V30 2769 C 249.966 3.34199 0.922588 0
M  V30 2770 C 249.027 4.29115 0.125984 0
M  V30 2771 C 248.26 5.23959 1.01502 0
M  V30 2772 O 248.483 5.23952 2.25456 0
M  V30 2773 O 247.417 6.00053 0.47111 0
M  V30 2774 H 251.243 2.93675 -0.773853 0
M  V30 2775 H 248.828 1.42654 -0.443861 0
M  V30 2776 H 250.71 3.95365 1.45823 0
M  V30 2777 H 249.385 2.77582 1.66523 0
M  V30 2778 H 248.292 3.71335 -0.453969 0
M  V30 2779 H 249.625 4.88798 -0.577736 0
M  V30 2780 N 251.277 0.427512 1.51691 0
M  V30 2781 C 252.505 -0.141191 2.06418 0
M  V30 2782 C 252.92 -1.37303 1.29589 0
M  V30 2783 O 252.277 -1.79059 0.352732 0
M  V30 2784 C 252.328 -0.473266 3.58389 0
M  V30 2785 O 252.049 0.709673 4.32314 0
M  V30 2786 C 253.55 -1.09371 4.29596 0
M  V30 2787 H 250.77 -0.0122747 0.670888 0
M  V30 2788 H 253.314 0.603764 1.95384 0
M  V30 2789 H 251.469 -1.16812 3.69369 0
M  V30 2790 H 251.883 0.42807 5.2275 0
M  V30 2791 H 253.357 -1.27613 5.37046 0
M  V30 2792 H 253.834 -2.072 3.87253 0
M  V30 2793 H 254.44 -0.43853 4.23033 0
M  V30 2794 N 252.755 -1.56801 0.158532 0
M  V30 2795 C 253.983 -2.00859 -0.496303 0
M  V30 2796 C 254.398 -1.03871 -1.57659 0
M  V30 2797 O 253.755 -0.0375165 -1.82461 0
M  V30 2798 C 253.806 -3.4479 -1.08638 0
M  V30 2799 O 253.527 -4.38072 -0.0492322 0
M  V30 2800 C 255.028 -4.04185 -1.8207 0
M  V30 2801 H 252.248 -0.65864 -0.128199 0
M  V30 2802 H 254.792 -2.02885 0.256506 0
M  V30 2803 H 252.947 -3.43579 -1.78975 0
M  V30 2804 H 253.361 -5.2227 -0.483102 0
M  V30 2805 H 254.835 -5.06857 -2.18633 0
M  V30 2806 H 255.312 -3.45549 -2.71095 0
M  V30 2807 H 255.918 -4.0906 -1.16405 0
M  V30 2808 N 254.233 0.115231 -1.57178 0
M  V30 2809 C 255.481 0.820727 -1.84685 0
M  V30 2810 C 255.802 1.80237 -0.744279 0
M  V30 2811 O 255.072 1.94529 0.231375 0
M  V30 2812 H 253.652 0.306084 -0.681411 0
M  V30 2813 H 256.314 0.101656 -1.94635 0
M  V30 2814 H 255.41 1.36366 -2.80733 0
M  V30 2815 N 255.711 1.52812 0.385517 0
M  V30 2816 C 256.957 1.68275 1.13188 0
M  V30 2817 C 257.29 0.423179 1.89533 0
M  V30 2818 O 256.565 -0.579113 1.85679 0
M  V30 2819 C 256.848 2.92001 2.1073 0
M  V30 2820 C 256.701 4.28067 1.38125 0
M  V30 2821 C 258.02 3.11283 3.11113 0
M  V30 2822 H 255.139 0.612352 0.410115 0
M  V30 2823 H 257.781 1.85415 0.414869 0
M  V30 2824 H 255.931 2.77519 2.71874 0
M  V30 2825 H 257.603 4.54324 0.799187 0
M  V30 2826 H 255.846 4.28388 0.683092 0
M  V30 2827 H 256.517 5.10733 2.09417 0
M  V30 2828 H 258.993 3.2482 2.6006 0
M  V30 2829 H 257.869 3.99325 3.76605 0
M  V30 2830 H 258.13 2.25656 3.80173 0
M  V30 2831 N 257.189 -0.644168 1.43834 0
M  V30 2832 C 258.435 -1.40603 1.46146 0
M  V30 2833 C 258.768 -1.93997 0.0887717 0
M  V30 2834 O 258.043 -1.72854 -0.891724 0
M  V30 2835 C 258.326 -2.58086 2.51124 0
M  V30 2836 C 258.179 -2.10126 3.97702 0
M  V30 2837 C 259.498 -3.60291 2.52742 0
M  V30 2838 H 256.617 -0.509905 0.532134 0
M  V30 2839 H 259.259 -0.729502 1.75437 0
M  V30 2840 H 257.409 -3.15801 2.26278 0
M  V30 2841 H 259.081 -1.57342 4.33637 0
M  V30 2842 H 257.324 -1.41419 4.10101 0
M  V30 2843 H 257.995 -2.94649 4.66783 0
M  V30 2844 H 260.471 -3.12352 2.7491 0
M  V30 2845 H 259.347 -4.40032 3.28121 0
M  V30 2846 H 259.608 -4.1349 1.56455 0
M  V30 2847 N 258.668 -1.30515 -0.883378 0
M  V30 2848 C 259.893 -1.22487 -1.67367 0
M  V30 2849 C 260.318 0.208767 -1.86938 0
M  V30 2850 O 259.676 1.15015 -1.40148 0
M  V30 2851 C 259.724 -1.96041 -3.02655 0
M  V30 2852 O 258.828 -1.28859 -3.91751 0
M  V30 2853 H 258.169 -0.423573 -0.511353 0
M  V30 2854 H 260.699 -1.72362 -1.10239 0
M  V30 2855 H 260.709 -2.05124 -3.52687 0
M  V30 2856 H 259.384 -3.00307 -2.8773 0
M  V30 2857 H 257.961 -1.28141 -3.50192 0
M  V30 2858 N 260.146 1.09593 -1.13257 0
M  V30 2859 C 261.374 1.855 -0.916378 0
M  V30 2860 C 261.789 1.81069 0.534738 0
M  V30 2861 O 261.146 1.20562 1.37007 0
M  V30 2862 C 261.197 3.33546 -1.39388 0
M  V30 2863 O 260.918 3.37927 -2.78813 0
M  V30 2864 C 262.419 4.26299 -1.21588 0
M  V30 2865 H 259.639 0.585991 -0.326887 0
M  V30 2866 H 262.183 1.38488 -1.5047 0
M  V30 2867 H 260.338 3.77992 -0.848597 0
M  V30 2868 H 260.752 4.30254 -2.9997 0
M  V30 2869 H 262.226 5.28341 -1.59876 0
M  V30 2870 H 262.703 4.38918 -0.157376 0
M  V30 2871 H 263.309 3.87668 -1.7491 0
M  V30 2872 N 261.624 0.925811 1.2754 0
M  V30 2873 C 263.035 0.610102 1.7645 0
M  V30 2874 C 263.386 -0.874723 1.75622 0
M  V30 2875 O 262.511 -1.68444 1.35851 0
M  V30 2876 C 263.106 1.10073 3.20421 0
M  V30 2877 C 261.665 0.835723 3.67005 0
M  V30 2878 C 260.812 1.26054 2.46993 0
M  V30 2879 H 263.763 1.10579 1.13833 0
M  V30 2880 H 263.784 0.447557 3.77859 0
M  V30 2881 H 263.296 2.18143 3.20991 0
M  V30 2882 H 261.397 -0.231249 3.71882 0
M  V30 2883 H 261.51 1.45193 4.56569 0
M  V30 2884 H 259.874 0.679111 2.45479 0
M  V30 2885 H 260.657 2.34984 2.50275 0
M  V30 2886 N 263.102 -1.41638 0.69111 0
M  V30 2887 C 264.032 -2.3347 0.037248 0
M  V30 2888 C 265.013 -1.51575 -0.771947 0
M  V30 2889 O 266.198 -1.80126 -0.72582 0
M  V30 2890 C 263.328 -3.35354 -0.903064 0
M  V30 2891 C 262.282 -4.27526 -0.201288 0
M  V30 2892 C 261.608 -5.19747 -1.25565 0
M  V30 2893 C 262.908 -5.13959 0.929689 0
M  V30 2894 H 264.602 -2.88397 0.804227 0
M  V30 2895 H 262.148 -1.38669 0.388189 0
M  V30 2896 H 264.101 -3.98519 -1.36969 0
M  V30 2897 H 262.825 -2.78767 -1.70166 0
M  V30 2898 H 261.484 -3.65779 0.245265 0
M  V30 2899 H 261.132 -4.59479 -2.04666 0
M  V30 2900 H 260.832 -5.8225 -0.791128 0
M  V30 2901 H 262.356 -5.85789 -1.72288 0
M  V30 2902 H 263.77 -5.70718 0.543546 0
M  V30 2903 H 262.167 -5.85379 1.32103 0
M  V30 2904 H 263.237 -4.51389 1.77133 0
M  V30 2905 N 264.58 -0.43555 -1.51462 0
M  V30 2906 C 265.829 0.133007 -2.01261 0
M  V30 2907 C 266.142 1.43942 -1.32439 0
M  V30 2908 O 267.348 2.09081 -1.73198 0
M  V30 2909 C 265.804 0.287581 -3.58749 0
M  V30 2910 C 265.412 -1.00829 -4.36506 0
M  V30 2911 C 267.156 0.810004 -4.167 0
M  V30 2912 C 265.063 -0.819454 -5.85695 0
M  V30 2913 H 263.993 0.0534822 -0.752101 0
M  V30 2914 H 266.644 -0.565038 -1.74584 0
M  V30 2915 H 265.026 1.04859 -3.81865 0
M  V30 2916 H 266.2 -1.77749 -4.25138 0
M  V30 2917 H 264.515 -1.45911 -3.89999 0
M  V30 2918 H 267.112 0.967743 -5.2587 0
M  V30 2919 H 267.455 1.79196 -3.75758 0
M  V30 2920 H 267.988 0.107357 -3.97655 0
M  V30 2921 H 264.727 -1.77374 -6.31046 0
M  V30 2922 H 264.247 -0.0900208 -5.99732 0
M  V30 2923 H 265.926 -0.471949 -6.45276 0
M  V30 2924 N 266.058 1.56714 -0.166846 0
M  V30 2925 C 267.474 1.58473 0.189372 0
M  V30 2926 C 267.674 1.18201 1.63189 0
M  V30 2927 O 266.73 0.891528 2.36237 0
M  V30 2928 C 268.043 3.00573 -0.0873872 0
M  V30 2929 C 269.591 3.1299 -0.0252443 0
M  V30 2930 C 270.066 4.57174 -0.274934 0
M  V30 2931 N 271.557 4.62665 -0.222553 0
M  V30 2932 C 272.292 5.72072 -0.389985 0
M  V30 2933 N 271.788 6.90054 -0.616229 0
M  V30 2934 N 273.581 5.61153 -0.326202 0
M  V30 2935 H 265.732 1.8118 -1.10849 0
M  V30 2936 H 267.995 0.839525 -0.440342 0
M  V30 2937 H 267.701 3.34497 -1.0865 0
M  V30 2938 H 267.575 3.72019 0.623037 0
M  V30 2939 H 269.962 2.78895 0.96444 0
M  V30 2940 H 270.043 2.43989 -0.768309 0
M  V30 2941 H 269.687 4.91976 -1.26181 0
M  V30 2942 H 269.617 5.24328 0.48869 0
M  V30 2943 H 272.108 3.77863 -0.0531512 0
M  V30 2944 H 272.421 7.69311 -0.733559 0
M  V30 2945 H 270.766 6.91927 -0.652791 0
M  V30 2946 H 273.957 4.67859 -0.150072 0
M  V30 2947 H 274.13 6.46364 -0.460116 0
M  V30 2948 N 267.536 -0.106894 1.57237 0
M  V30 2949 C 268.484 -1.14944 2.02215 0
M  V30 2950 C 269.478 -1.42167 0.92114 0
M  V30 2951 O 270.684 -1.41987 1.10634 0
M  V30 2952 H 267.059 -0.387841 0.64427 0
M  V30 2953 H 269.03 -0.743683 2.88984 0
M  V30 2954 C 267.779 -2.4647 2.4525 0
M  V30 2955 H 267.102 -2.26363 3.29545 0
M  V30 2956 H 268.542 -3.17948 2.80508 0
M  V30 2957 C 267.001 -3.09921 1.321 0
M  V30 2958 O 267.531 -3.9651 0.643622 0
M  V30 2959 N 265.737 -2.69986 1.07497 0
M  V30 2960 H 265.284 -1.99667 1.62761 0
M  V30 2961 H 265.242 -3.12769 0.319876 0
M  V30 2962 N 269.014 -1.53014 -0.377408 0
M  V30 2963 C 270.262 -1.6829 -1.11906 0
M  V30 2964 C 270.583 -0.431206 -1.90173 0
M  V30 2965 O 269.853 0.554595 -1.87886 0
M  V30 2966 H 268.433 -0.620371 -0.416112 0
M  V30 2967 H 271.095 -1.90167 -0.426893 0
M  V30 2968 H 270.191 -2.53862 -1.8155 0
M  V30 2969 N 270.492 0.636531 -1.44174 0
M  V30 2970 C 271.769 1.39463 -1.37148 0
M  V30 2971 C 272.149 2.11082 -0.027507 0
M  V30 2972 O 271.497 2.05954 0.989716 0
M  V30 2973 C 271.707 2.36552 -2.56601 0
M  V30 2974 C 273.055 3.00048 -3.00427 0
M  V30 2975 O 274.079 2.46878 -2.56767 0
M  V30 2976 O 272.938 3.96488 -3.76111 0
M  V30 2977 H 270.032 0.623903 -0.542839 0
M  V30 2978 H 272.578 0.662039 -1.56253 0
M  V30 2979 H 271.35 1.82692 -3.46034 0
M  V30 2980 H 270.973 3.17236 -2.39681 0
M  V30 2981 N 271.97 1.30982 0.876444 0
M  V30 2982 C 273.216 1.21484 1.63136 0
M  V30 2983 C 273.571 -0.226339 1.91064 0
M  V30 2984 O 272.864 -1.15788 1.52656 0
M  V30 2985 C 273.058 1.98572 2.9716 0
M  V30 2986 C 272.887 3.50039 2.82317 0
M  V30 2987 C 271.657 4.19393 2.81847 0
M  V30 2988 C 273.855 4.45111 2.57644 0
M  V30 2989 N 271.837 5.57061 2.57985 0
M  V30 2990 C 273.208 5.70402 2.42986 0
M  V30 2991 C 275.263 4.3461 2.42937 0
M  V30 2992 C 273.966 6.8638 2.15115 0
M  V30 2993 C 275.992 5.50365 2.16454 0
M  V30 2994 C 275.354 6.74642 2.02578 0
M  V30 2995 H 271.453 0.499632 0.601575 0
M  V30 2996 H 274.037 1.65094 1.03209 0
M  V30 2997 H 272.208 1.5734 3.55104 0
M  V30 2998 H 273.94 1.81146 3.61895 0
M  V30 2999 H 270.695 3.71303 2.93991 0
M  V30 3000 H 271.119 6.29529 2.49043 0
M  V30 3001 H 275.761 3.39199 2.52396 0
M  V30 3002 H 273.479 7.81824 2.04394 0
M  V30 3003 H 277.065 5.44154 2.05884 0
M  V30 3004 H 275.945 7.62699 1.82374 0
M  V30 3005 N 273.449 -1.08991 1.13837 0
M  V30 3006 C 274.677 -1.85011 0.926202 0
M  V30 3007 C 275.092 -1.8135 -0.525127 0
M  V30 3008 O 274.449 -1.21287 -1.36366 0
M  V30 3009 C 274.5 -3.32802 1.41155 0
M  V30 3010 O 274.221 -3.36444 2.80601 0
M  V30 3011 C 275.722 -4.25649 1.23847 0
M  V30 3012 H 272.942 -0.584249 0.32999 0
M  V30 3013 H 275.486 -1.37688 1.51202 0
M  V30 3014 H 273.641 -3.77536 0.868631 0
M  V30 3015 H 274.055 -4.28657 3.02248 0
M  V30 3016 H 275.529 -5.27485 1.62675 0
M  V30 3017 H 276.006 -4.38828 0.18065 0
M  V30 3018 H 276.612 -3.86735 1.76964 0
M  V30 3019 N 274.927 -0.932562 -1.27047 0
M  V30 3020 C 276.174 -0.575559 -1.94148 0
M  V30 3021 C 276.502 0.883984 -1.73251 0
M  V30 3022 O 275.757 1.64655 -1.0577 0
M  V30 3023 C 276.056 -0.853713 -3.47054 0
M  V30 3024 C 275.722 -2.29577 -3.88079 0
M  V30 3025 C 274.384 -2.68999 -3.9899 0
M  V30 3026 C 276.736 -3.23331 -4.08787 0
M  V30 3027 C 274.064 -4.01289 -4.28 0
M  V30 3028 C 276.416 -4.55207 -4.39282 0
M  V30 3029 C 275.08 -4.94457 -4.48407 0
M  V30 3030 H 274.35 -0.210612 -0.710439 0
M  V30 3031 H 276.997 -1.17744 -1.51025 0
M  V30 3032 H 275.302 -0.169204 -3.91434 0
M  V30 3033 H 276.999 -0.55639 -3.97121 0
M  V30 3034 H 273.589 -1.97994 -3.80127 0
M  V30 3035 H 277.773 -2.94074 -3.99793 0
M  V30 3036 H 273.029 -4.31374 -4.33275 0
M  V30 3037 H 277.203 -5.27852 -4.54252 0
M  V30 3038 H 274.83 -5.96994 -4.7064 0
M  V30 3039 N 276.405 1.4127 -0.698611 0
M  V30 3040 C 277.337 2.292 0.00399731 0
M  V30 3041 C 278.35 1.44944 0.741279 0
M  V30 3042 O 279.539 1.68416 0.591477 0
M  V30 3043 C 276.639 3.22875 1.02979 0
M  V30 3044 C 275.812 4.35904 0.36151 0
M  V30 3045 C 274.871 5.10134 1.29033 0
M  V30 3046 O 273.897 5.63809 0.781562 0
M  V30 3047 N 275.099 5.17885 2.6225 0
M  V30 3048 H 277.864 2.9014 -0.750921 0
M  V30 3049 H 275.425 1.52455 -0.544882 0
M  V30 3050 H 277.417 3.69404 1.65296 0
M  V30 3051 H 275.987 2.63221 1.68622 0
M  V30 3052 H 275.207 3.91719 -0.441584 0
M  V30 3053 H 276.495 5.08696 -0.103055 0
M  V30 3054 H 275.893 4.7573 3.061 0
M  V30 3055 H 274.45 5.6798 3.19754 0
M  V30 3056 N 277.883 0.443576 1.51229 0
M  V30 3057 C 279.132 -0.122332 2.01329 0
M  V30 3058 C 279.445 -1.43237 1.33201 0
M  V30 3059 O 280.651 -2.0816 1.74304 0
M  V30 3060 C 279.107 -0.268551 3.58897 0
M  V30 3061 C 278.715 1.03142 4.35965 0
M  V30 3062 C 280.459 -0.787894 4.17124 0
M  V30 3063 C 278.366 0.850504 5.85252 0
M  V30 3064 H 277.296 -0.0494929 0.752374 0
M  V30 3065 H 279.947 0.574289 1.74282 0
M  V30 3066 H 278.329 -1.02832 3.82415 0
M  V30 3067 H 279.503 1.80001 4.24189 0
M  V30 3068 H 277.818 1.47977 3.89219 0
M  V30 3069 H 280.415 -0.939841 5.26375 0
M  V30 3070 H 280.758 -1.77201 3.76703 0
M  V30 3071 H 281.291 -0.0862669 3.97706 0
M  V30 3072 H 278.03 1.80718 6.30096 0
M  V30 3073 H 277.55 0.121825 5.99676 0
M  V30 3074 H 279.229 0.506163 6.45017 0
M  V30 3075 N 279.361 -1.56624 0.175154 0
M  V30 3076 C 280.291 -2.21155 -0.749195 0
M  V30 3077 C 281.272 -1.16836 -1.23626 0
M  V30 3078 O 282.457 -1.45277 -1.28873 0
M  V30 3079 C 279.587 -2.8553 -1.97711 0
M  V30 3080 C 278.541 -3.95921 -1.62575 0
M  V30 3081 C 277.867 -4.47365 -2.92864 0
M  V30 3082 C 279.167 -5.15323 -0.850838 0
M  V30 3083 H 280.861 -2.98653 -0.211295 0
M  V30 3084 H 278.407 -1.43651 -0.100188 0
M  V30 3085 H 280.36 -3.2935 -2.62881 0
M  V30 3086 H 279.084 -2.05406 -2.53921 0
M  V30 3087 H 277.743 -3.52762 -0.997719 0
M  V30 3088 H 277.391 -3.64027 -3.47122 0
M  V30 3089 H 277.091 -5.21839 -2.70106 0
M  V30 3090 H 278.615 -4.93873 -3.59056 0
M  V30 3091 H 280.029 -5.55812 -1.40521 0
M  V30 3092 H 278.426 -5.95739 -0.722154 0
M  V30 3093 H 279.496 -4.84661 0.152082 0
M  V30 3094 N 280.839 0.0985539 -1.57292 0
M  V30 3095 C 282.085 0.803867 -1.86188 0
M  V30 3096 C 282.418 1.78549 -0.763794 0
M  V30 3097 O 281.693 1.93153 0.22855 0
M  V30 3098 C 281.976 1.53568 -3.25713 0
M  V30 3099 C 281.829 0.572277 -4.46145 0
M  V30 3100 C 283.148 2.48708 -3.63087 0
M  V30 3101 H 280.267 0.290781 -0.677211 0
M  V30 3102 H 282.909 0.0675783 -1.8988 0
M  V30 3103 H 281.059 2.16332 -3.22696 0
M  V30 3104 H 282.731 -0.0480894 -4.61275 0
M  V30 3105 H 280.974 -0.114618 -4.33649 0
M  V30 3106 H 281.645 1.12139 -5.40489 0
M  V30 3107 H 284.121 1.96039 -3.67026 0
M  V30 3108 H 282.997 2.96932 -4.61652 0
M  V30 3109 H 283.258 3.32309 -2.91588 0
M  V30 3110 N 282.317 1.53212 0.369288 0
M  V30 3111 C 283.25 1.74166 1.4745 0
M  V30 3112 C 284.228 0.589923 1.51521 0
M  V30 3113 O 285.412 0.822078 1.69629 0
M  V30 3114 C 282.539 1.81711 2.8583 0
M  V30 3115 C 281.585 3.03649 2.99499 0
M  V30 3116 S 282.418 4.63242 2.6864 0
M  V30 3117 C 283.574 4.7363 4.09177 0
M  V30 3118 H 283.807 2.67636 1.29454 0
M  V30 3119 H 281.34 1.43754 0.563396 0
M  V30 3120 H 283.298 1.86743 3.65564 0
M  V30 3121 H 281.959 0.89299 3.01139 0
M  V30 3122 H 281.152 3.05526 4.00836 0
M  V30 3123 H 280.754 2.9671 2.27683 0
M  V30 3124 H 283.046 4.53456 5.03372 0
M  V30 3125 H 283.989 5.75682 4.12306 0
M  V30 3126 H 284.397 4.02295 3.96004 0
M  V30 3127 N 283.795 -0.628877 1.44509 0
M  V30 3128 C 284.725 -1.75187 1.54376 0
M  V30 3129 C 285.706 -1.65411 0.396618 0
M  V30 3130 O 286.891 -1.84137 0.617031 0
M  V30 3131 C 284.021 -3.13725 1.48976 0
M  V30 3132 C 282.975 -3.38291 2.62189 0
M  V30 3133 C 282.301 -4.76883 2.41841 0
M  V30 3134 C 283.601 -3.30632 4.04326 0
M  V30 3135 H 285.295 -1.67187 2.48373 0
M  V30 3136 H 282.841 -0.802909 1.19538 0
M  V30 3137 H 284.794 -3.92064 1.54478 0
M  V30 3138 H 283.518 -3.22515 0.514961 0
M  V30 3139 H 282.177 -2.62334 2.56079 0
M  V30 3140 H 281.825 -4.82378 1.42548 0
M  V30 3141 H 281.525 -4.94278 3.17747 0
M  V30 3142 H 283.049 -5.57449 2.49165 0
M  V30 3143 H 284.463 -3.98873 4.11793 0
M  V30 3144 H 282.86 -3.59561 4.80454 0
M  V30 3145 H 283.93 -2.28404 4.27738 0
M  V30 3146 N 285.273 -1.31445 -0.869486 0
M  V30 3147 C 286.183 -1.21097 -2.0093 0
M  V30 3148 C 287.199 -0.127584 -1.73532 0
M  V30 3149 O 288.375 -0.345477 -1.98415 0
M  V30 3150 C 285.44 -0.919378 -3.34288 0
M  V30 3151 C 284.501 -2.08971 -3.75006 0
M  V30 3152 C 283.734 -1.81194 -5.02001 0
M  V30 3153 O 283.957 -0.747296 -5.65484 0
M  V30 3154 O 282.891 -2.66883 -5.39497 0
M  V30 3155 H 286.717 -2.16883 -2.12592 0
M  V30 3156 H 284.302 -1.11189 -0.997868 0
M  V30 3157 H 286.184 -0.772625 -4.14257 0
M  V30 3158 H 284.859 0.00844772 -3.23699 0
M  V30 3159 H 283.766 -2.29187 -2.95676 0
M  V30 3160 H 285.099 -2.9998 -3.90221 0
M  V30 3161 N 286.751 1.08385 -1.14413 0
M  V30 3162 C 287.684 2.14642 -0.774871 0
M  V30 3163 C 288.662 1.60761 0.243876 0
M  V30 3164 O 289.846 1.88031 0.132883 0
M  V30 3165 C 286.973 3.38366 -0.150491 0
M  V30 3166 C 286.019 4.10997 -1.13945 0
M  V30 3167 S 286.852 4.63797 -2.67679 0
M  V30 3168 C 288.008 5.90808 -2.06631 0
M  V30 3169 H 288.241 2.45633 -1.67487 0
M  V30 3170 H 285.774 1.20498 -0.96538 0
M  V30 3171 H 287.732 4.09996 0.203334 0
M  V30 3172 H 286.393 3.05572 0.72694 0
M  V30 3173 H 285.586 4.99783 -0.65059 0
M  V30 3174 H 285.188 3.4528 -1.43727 0
M  V30 3175 H 287.48 6.62411 -1.4219 0
M  V30 3176 H 288.423 6.4439 -2.93542 0
M  V30 3177 H 288.831 5.4383 -1.51357 0
M  V30 3178 N 288.23 0.939286 1.26551 0
M  V30 3179 C 289.458 0.602536 1.97932 0
M  V30 3180 C 289.873 -0.82206 1.69964 0
M  V30 3181 O 289.23 -1.54789 0.966784 0
M  V30 3182 C 289.281 0.832946 3.51773 0
M  V30 3183 O 289.002 2.20151 3.78768 0
M  V30 3184 C 290.503 0.506483 4.40397 0
M  V30 3185 H 287.723 0.227248 0.631347 0
M  V30 3186 H 290.267 1.25948 1.61113 0
M  V30 3187 H 288.422 0.222644 3.8676 0
M  V30 3188 H 288.836 2.26013 4.73306 0
M  V30 3189 H 290.31 0.718333 5.47306 0
M  V30 3190 H 290.787 -0.558451 4.35635 0
M  V30 3191 H 291.393 1.09543 4.10951 0
M  V30 3192 N 289.708 -1.40897 0.706093 0
M  V30 3193 C 291.119 -1.84023 0.315052 0
M  V30 3194 C 291.47 -1.5906 -1.14866 0
M  V30 3195 O 290.595 -1.06651 -1.88293 0
M  V30 3196 C 291.19 -3.34055 0.565038 0
M  V30 3197 C 289.749 -3.7571 0.227806 0
M  V30 3198 C 288.896 -2.64204 0.842122 0
M  V30 3199 H 291.847 -1.303 0.905963 0
M  V30 3200 H 291.868 -3.80107 -0.172843 0
M  V30 3201 H 291.38 -3.52192 1.63042 0
M  V30 3202 H 289.481 -3.63172 -0.832895 0
M  V30 3203 H 289.594 -4.74103 0.690174 0
M  V30 3204 H 287.958 -2.53255 0.270893 0
M  V30 3205 H 288.741 -2.85155 1.91158 0
M  V30 3206 N 291.186 -0.45159 -1.50991 0
M  V30 3207 C 292.118 0.388634 -2.25881 0
M  V30 3208 C 293.131 0.974041 -1.30446 0
M  V30 3209 O 294.32 0.865758 -1.56099 0
M  V30 3210 C 291.42 1.5571 -3.01011 0
M  V30 3211 C 290.593 1.08801 -4.23652 0
M  V30 3212 C 289.652 2.12825 -4.8124 0
M  V30 3213 O 288.678 1.71678 -5.42693 0
M  V30 3214 N 289.88 3.45453 -4.66522 0
M  V30 3215 H 292.645 -0.25329 -2.98628 0
M  V30 3216 H 290.206 -0.281268 -1.59438 0
M  V30 3217 H 292.198 2.24952 -3.3642 0
M  V30 3218 H 290.768 2.10409 -2.31186 0
M  V30 3219 H 289.988 0.22215 -3.93574 0
M  V30 3220 H 291.276 0.752213 -5.03209 0
M  V30 3221 H 290.674 3.81605 -4.17605 0
M  V30 3222 H 289.231 4.10549 -5.06254 0
M  V30 3223 N 292.664 1.56529 -0.183458 0
M  V30 3224 C 293.614 2.1515 0.754605 0
M  V30 3225 C 294.598 1.08904 1.18443 0
M  V30 3226 O 295.79 1.34997 1.14476 0
M  V30 3227 C 292.919 2.80531 1.97881 0
M  V30 3228 C 292.005 3.93952 1.57043 0
M  V30 3229 N 292.396 4.98221 0.87231 0
M  V30 3230 C 290.694 4.05338 1.86057 0
M  V30 3231 C 291.395 5.77836 0.669377 0
M  V30 3232 N 290.371 5.29858 1.21454 0
M  V30 3233 H 294.173 2.93132 0.212387 0
M  V30 3234 H 291.687 1.62391 0.0167725 0
M  V30 3235 H 293.684 3.20914 2.6612 0
M  V30 3236 H 292.344 2.04035 2.52586 0
M  V30 3237 H 293.355 5.15191 0.529033 0
M  V30 3238 H 290.032 3.39957 2.42354 0
M  V30 3239 H 291.422 6.71799 0.116422 0
M  V30 3240 N 294.142 -0.090211 1.57342 0
M  V30 3241 C 295.39 -0.791241 1.85967 0
M  V30 3242 C 295.711 -1.7903 0.772859 0
M  V30 3243 O 294.981 -1.94872 -0.200398 0
M  V30 3244 H 293.561 -0.295205 0.686195 0
M  V30 3245 H 296.223 -0.0706782 1.94772 0
M  V30 3246 H 295.319 -1.31882 2.82867 0
M  V30 3247 N 295.62 -1.53406 -0.361157 0
M  V30 3248 C 296.897 -1.60411 -1.11927 0
M  V30 3249 C 297.277 -0.414385 -2.06993 0
M  V30 3250 O 296.625 0.594976 -2.20618 0
M  V30 3251 C 296.835 -2.95652 -1.85448 0
M  V30 3252 C 298.183 -3.50386 -2.39823 0
M  V30 3253 O 299.207 -2.97711 -1.95568 0
M  V30 3254 O 298.066 -4.42482 -3.20737 0
M  V30 3255 H 295.16 -0.64811 -0.513695 0
M  V30 3256 H 297.706 -1.65749 -0.364065 0
M  V30 3257 H 296.478 -3.73682 -1.16091 0
M  V30 3258 H 296.101 -2.93825 -2.67866 0
M  V30 3259 N 297.098 0.621204 -1.44841 0
M  V30 3260 C 298.344 1.3826 -1.48365 0
M  V30 3261 C 298.677 1.93831 -0.119624 0
M  V30 3262 O 297.952 1.74251 0.864111 0
M  V30 3263 C 298.235 2.54058 -2.55199 0
M  V30 3264 C 298.088 2.03772 -4.00995 0
M  V30 3265 C 299.407 3.56225 -2.58442 0
M  V30 3266 H 296.526 0.501374 -0.540179 0
M  V30 3267 H 299.168 0.7015 -1.76576 0
M  V30 3268 H 297.318 3.12162 -2.31274 0
M  V30 3269 H 298.99 1.50423 -4.36086 0
M  V30 3270 H 297.233 1.34876 -4.12299 0
M  V30 3271 H 297.904 2.87185 -4.71411 0
M  V30 3272 H 300.38 3.07939 -2.79844 0
M  V30 3273 H 299.256 4.34756 -3.3508 0
M  V30 3274 H 299.517 4.10949 -1.63013 0
M  V30 3275 N 298.576 1.31904 0.862503 0
M  V30 3276 C 299.806 1.24817 1.64634 0
M  V30 3277 C 300.214 -0.187579 1.88268 0
M  V30 3278 O 299.557 -1.13253 1.44635 0
M  V30 3279 C 299.619 1.92996 3.03303 0
M  V30 3280 C 299.283 3.42336 3.02746 0
M  V30 3281 C 300.28 4.37956 2.80162 0
M  V30 3282 C 297.965 3.84147 3.2363 0
M  V30 3283 C 299.959 5.73361 2.78453 0
M  V30 3284 C 297.646 5.19663 3.21549 0
M  V30 3285 C 298.644 6.14081 2.98988 0
M  V30 3286 O 298.332 7.47118 2.96766 0
M  V30 3287 H 298.064 0.432222 0.519769 0
M  V30 3288 H 300.618 1.7445 1.08427 0
M  V30 3289 H 298.848 1.37922 3.61268 0
M  V30 3290 H 300.537 1.79723 3.63943 0
M  V30 3291 H 301.303 4.06981 2.63802 0
M  V30 3292 H 297.182 3.11083 3.40218 0
M  V30 3293 H 300.726 6.4703 2.60763 0
M  V30 3294 H 296.623 5.5027 3.37451 0
M  V30 3295 H 297.391 7.56382 3.12775 0
M  V30 3296 N 300.054 -1.07777 1.14986 0
M  V30 3297 C 301.282 -1.84018 0.945773 0
M  V30 3298 C 301.697 -1.81897 -0.505863 0
M  V30 3299 O 301.054 -1.22726 -1.35072 0
M  V30 3300 C 301.105 -3.31287 1.44677 0
M  V30 3301 O 300.826 -3.33449 2.84154 0
M  V30 3302 C 302.327 -4.24311 1.28355 0
M  V30 3303 H 299.547 -0.580716 0.336169 0
M  V30 3304 H 302.091 -1.36077 1.52654 0
M  V30 3305 H 300.246 -3.76594 0.908625 0
M  V30 3306 H 300.66 -4.25427 3.06777 0
M  V30 3307 H 302.134 -5.2573 1.68261 0
M  V30 3308 H 302.611 -4.38612 0.227184 0
M  V30 3309 H 303.217 -3.84836 1.81056 0
M  V30 3310 N 301.532 -0.945985 -1.26051 0
M  V30 3311 C 302.772 -0.603665 -1.95282 0
M  V30 3312 C 303.136 0.842377 -1.72534 0
M  V30 3313 O 304.337 1.29387 -2.35611 0
M  V30 3314 C 302.608 -0.942292 -3.44754 0
M  V30 3315 S 304.167 -0.711242 -4.32997 0
M  V30 3316 H 300.985 -0.222176 -0.675395 0
M  V30 3317 H 303.587 -1.21832 -1.52896 0
M  V30 3318 H 302.291 -1.99203 -3.58812 0
M  V30 3319 H 301.822 -0.317546 -3.92116 0
M  V30 3320 H 303.837 0.422221 -4.944 0
M  V30 3321 N 303.011 1.40521 -0.713556 0
M  V30 3322 C 303.961 2.27971 -0.036165 0
M  V30 3323 C 304.945 1.43151 0.734623 0
M  V30 3324 O 306.137 1.66261 0.607158 0
M  V30 3325 C 303.266 3.31661 0.886331 0
M  V30 3326 C 302.352 4.23955 0.110836 0
M  V30 3327 N 302.743 4.97641 -0.904847 0
M  V30 3328 C 301.041 4.44674 0.343692 0
M  V30 3329 C 301.742 5.65322 -1.37064 0
M  V30 3330 N 300.718 5.39162 -0.693168 0
M  V30 3331 H 304.52 2.82384 -0.814645 0
M  V30 3332 H 302.034 1.52948 -0.545963 0
M  V30 3333 H 304.031 3.93154 1.38692 0
M  V30 3334 H 302.691 2.78808 1.66421 0
M  V30 3335 H 303.702 5.01689 -1.28563 0
M  V30 3336 H 300.379 4.02801 1.09805 0
M  V30 3337 H 301.769 6.34359 -2.21447 0
M  V30 3338 N 304.489 0.459591 1.5075 0
M  V30 3339 C 305.735 -0.0994966 2.02556 0
M  V30 3340 C 306.068 -1.40399 1.3417 0
M  V30 3341 O 305.343 -1.88892 0.463683 0
M  V30 3342 C 305.626 -0.295242 3.58888 0
M  V30 3343 C 305.479 1.02947 4.37861 0
M  V30 3344 C 306.798 -1.05502 4.27267 0
M  V30 3345 H 303.917 -0.034686 0.736183 0
M  V30 3346 H 306.559 0.602938 1.8018 0
M  V30 3347 H 304.709 -0.893563 3.78084 0
M  V30 3348 H 306.381 1.66348 4.30263 0
M  V30 3349 H 304.624 1.62885 4.02058 0
M  V30 3350 H 305.295 0.846281 5.45474 0
M  V30 3351 H 307.771 -0.547993 4.12476 0
M  V30 3352 H 306.647 -1.16077 5.36486 0
M  V30 3353 H 306.908 -2.08875 3.89645 0
M  V30 3354 N 305.967 -1.56429 0.191757 0
M  V30 3355 C 306.877 -2.22541 -0.742481 0
M  V30 3356 C 307.893 -1.22342 -1.23727 0
M  V30 3357 O 309.069 -1.55069 -1.28513 0
M  V30 3358 C 306.134 -2.8692 -1.94623 0
M  V30 3359 C 305.195 -4.02378 -1.49633 0
M  V30 3360 C 304.428 -4.63678 -2.6427 0
M  V30 3361 O 304.651 -4.23895 -3.81666 0
M  V30 3362 O 303.585 -5.53202 -2.37174 0
M  V30 3363 H 307.411 -3.02977 -0.209462 0
M  V30 3364 H 304.996 -1.49353 -0.0373832 0
M  V30 3365 H 306.878 -3.27663 -2.64982 0
M  V30 3366 H 305.553 -2.09466 -2.46791 0
M  V30 3367 H 304.46 -3.66265 -0.761636 0
M  V30 3368 H 305.793 -4.81487 -1.02134 0
M  V30 3369 N 307.445 0.0818655 -1.57387 0
M  V30 3370 C 308.395 1.10501 -1.99433 0
M  V30 3371 C 309.379 1.35041 -0.874798 0
M  V30 3372 O 310.571 1.35511 -1.13868 0
M  V30 3373 C 307.7 2.42159 -2.43339 0
M  V30 3374 C 306.786 2.20937 -3.62005 0
M  V30 3375 N 307.177 1.69616 -4.76512 0
M  V30 3376 C 305.475 2.51451 -3.68359 0
M  V30 3377 C 306.176 1.62973 -5.58404 0
M  V30 3378 N 305.152 2.08664 -5.01956 0
M  V30 3379 H 308.954 0.701373 -2.85408 0
M  V30 3380 H 306.468 0.289096 -1.59806 0
M  V30 3381 H 308.465 3.16208 -2.71695 0
M  V30 3382 H 307.125 2.83249 -1.58746 0
M  V30 3383 H 308.136 1.38624 -4.99003 0
M  V30 3384 H 304.813 2.95975 -2.94457 0
M  V30 3385 H 306.203 1.24233 -6.60315 0
M  V30 3386 N 308.923 1.53595 0.353017 0
M  V30 3387 C 310.334 1.61937 0.929153 0
M  V30 3388 C 310.685 0.494686 1.89861 0
M  V30 3389 O 309.81 -0.377017 2.1309 0
M  V30 3390 C 310.405 2.93526 1.69199 0
M  V30 3391 C 308.964 3.04161 2.21727 0
M  V30 3392 C 308.111 2.57322 1.03348 0
M  V30 3393 H 311.062 1.58155 0.131431 0
M  V30 3394 H 311.083 2.82034 2.55416 0
M  V30 3395 H 310.595 3.75362 0.986144 0
M  V30 3396 H 308.696 2.26938 2.95516 0
M  V30 3397 H 308.809 4.09465 2.48748 0
M  V30 3398 H 307.173 2.12499 1.40414 0
M  V30 3399 H 307.956 3.41588 0.342428 0
M  V30 3400 N 310.401 -0.613514 1.45168 0
M  V30 3401 C 311.626 -1.40437 1.52618 0
M  V30 3402 C 312.051 -1.87438 0.157707 0
M  V30 3403 O 311.409 -1.59791 -0.856537 0
M  V30 3404 C 311.457 -2.58894 2.51011 0
M  V30 3405 O 310.561 -3.59326 2.02382 0
M  V30 3406 H 309.902 -0.419506 0.514695 0
M  V30 3407 H 312.432 -0.747215 1.90467 0
M  V30 3408 H 312.442 -3.06214 2.69624 0
M  V30 3409 H 311.117 -2.24032 3.50403 0
M  V30 3410 H 309.694 -3.18695 1.93618 0
M  V30 3411 N 311.879 -1.3236 -0.855495 0
M  V30 3412 C 312.809 -1.23833 -1.97958 0
M  V30 3413 C 313.79 -0.122361 -1.69659 0
M  V30 3414 O 314.975 -0.30939 -1.9172 0
M  V30 3415 C 312.105 -0.959772 -3.33775 0
M  V30 3416 C 311.059 -2.03689 -3.76424 0
M  V30 3417 C 310.385 -1.61075 -5.09862 0
M  V30 3418 C 311.685 -3.4518 -3.9198 0
M  V30 3419 H 313.379 -2.1788 -2.0535 0
M  V30 3420 H 310.925 -1.04891 -0.986605 0
M  V30 3421 H 312.878 -0.886678 -4.11966 0
M  V30 3422 H 311.602 0.0163404 -3.26596 0
M  V30 3423 H 310.261 -2.10012 -3.00484 0
M  V30 3424 H 309.909 -0.622107 -4.99138 0
M  V30 3425 H 309.609 -2.33143 -5.39368 0
M  V30 3426 H 311.133 -1.55201 -5.90546 0
M  V30 3427 H 312.547 -3.4145 -4.60526 0
M  V30 3428 H 310.944 -4.1559 -4.32903 0
M  V30 3429 H 312.014 -3.84903 -2.94919 0
M  V30 3430 N 313.357 1.07166 -1.15556 0
M  V30 3431 C 314.289 2.14341 -0.811815 0
M  V30 3432 C 315.302 1.61835 0.177015 0
M  V30 3433 O 316.491 1.78439 -0.0464996 0
M  V30 3434 C 313.591 3.38387 -0.186481 0
M  V30 3435 C 312.764 4.20238 -1.21321 0
M  V30 3436 C 311.823 5.2266 -0.609302 0
M  V30 3437 O 310.849 5.54719 -1.27576 0
M  V30 3438 N 312.051 5.77306 0.608099 0
M  V30 3439 H 314.816 2.44431 -1.73417 0
M  V30 3440 H 312.377 1.23089 -1.0517 0
M  V30 3441 H 314.369 4.04044 0.230339 0
M  V30 3442 H 312.939 3.05994 0.639249 0
M  V30 3443 H 312.159 3.50369 -1.80652 0
M  V30 3444 H 313.447 4.71736 -1.90638 0
M  V30 3445 H 312.845 5.53513 1.1679 0
M  V30 3446 H 311.402 6.44583 0.96725 0
M  V30 3447 N 314.835 0.952656 1.25548 0
M  V30 3448 C 315.783 0.462354 2.27958 0
M  V30 3449 C 316.777 -0.46634 1.62855 0
M  V30 3450 O 317.983 -0.343287 1.76696 0
M  V30 3451 H 314.358 0.13101 0.7405 0
M  V30 3452 H 316.329 1.33839 2.66702 0
M  V30 3453 C 315.078 -0.24628 3.46827 0
M  V30 3454 H 314.401 0.459192 3.97154 0
M  V30 3455 H 315.841 -0.553393 4.20373 0
M  V30 3456 C 314.3 -1.4681 3.0323 0
M  V30 3457 O 314.83 -2.56591 3.09069 0
M  V30 3458 N 313.036 -1.32874 2.58443 0
M  V30 3459 H 312.583 -0.435536 2.53891 0
M  V30 3460 H 312.541 -2.14742 2.29637 0
M  V30 3461 N 316.313 -1.40141 0.720998 0
M  V30 3462 C 317.724 -1.83678 0.334553 0
M  V30 3463 C 318.075 -1.6027 -1.13173 0
M  V30 3464 O 317.2 -1.08643 -1.87152 0
M  V30 3465 C 317.795 -3.33437 0.600437 0
M  V30 3466 C 316.354 -3.75447 0.267642 0
M  V30 3467 C 315.501 -2.63296 0.870097 0
M  V30 3468 H 318.452 -1.29331 0.919732 0
M  V30 3469 H 318.473 -3.80269 -0.132517 0
M  V30 3470 H 317.985 -3.50442 1.66768 0
M  V30 3471 H 316.086 -3.64035 -0.794329 0
M  V30 3472 H 316.199 -4.73344 0.74042 0
M  V30 3473 H 314.563 -2.52954 0.297739 0
M  V30 3474 H 315.346 -2.83112 1.94172 0
M  V30 3475 N 317.792 -0.46758 -1.50504 0
M  V30 3476 C 319.041 0.0902868 -2.01498 0
M  V30 3477 C 319.354 1.411 -1.35463 0
M  V30 3478 O 320.56 2.0536 -1.77594 0
M  V30 3479 C 319.016 0.21142 -3.59278 0
M  V30 3480 C 318.624 -1.10065 -4.34269 0
M  V30 3481 C 320.368 0.721433 -4.18325 0
M  V30 3482 C 318.275 -0.943505 -5.83825 0
M  V30 3483 H 317.205 0.037517 -0.753066 0
M  V30 3484 H 319.856 -0.601943 -1.73346 0
M  V30 3485 H 318.238 0.967352 -3.84003 0
M  V30 3486 H 319.412 -1.86726 -4.21272 0
M  V30 3487 H 317.727 -1.5415 -3.86816 0
M  V30 3488 H 320.324 0.85598 -5.27804 0
M  V30 3489 H 320.667 1.71186 -3.79475 0
M  V30 3490 H 321.2 0.0229843 -3.97793 0
M  V30 3491 H 317.939 -1.90719 -6.27141 0
M  V30 3492 H 317.459 -0.217213 -5.99407 0
M  V30 3493 H 319.138 -0.608715 -6.4413 0
M  V30 3494 N 319.27 1.56325 -0.20005 0
M  V30 3495 C 320.498 2.02105 0.442874 0
M  V30 3496 C 320.913 1.08014 1.5485 0
M  V30 3497 O 320.27 0.0858797 1.82298 0
M  V30 3498 C 320.321 3.47549 0.994583 0
M  V30 3499 O 320.042 4.38049 -0.0669322 0
M  V30 3500 C 321.543 4.0887 1.7129 0
M  V30 3501 H 318.763 0.661807 0.110691 0
M  V30 3502 H 321.307 2.02134 -0.310207 0
M  V30 3503 H 319.462 3.48204 1.69803 0
M  V30 3504 H 319.876 5.23368 0.344462 0
M  V30 3505 H 321.35 5.12475 2.05118 0
M  V30 3506 H 321.827 3.52615 2.61838 0
M  V30 3507 H 322.433 4.12002 1.05518 0
M  V30 3508 N 320.748 -0.0735177 1.57428 0
M  V30 3509 C 321.994 -0.774145 1.87443 0
M  V30 3510 C 322.327 -1.77311 0.792103 0
M  V30 3511 O 321.602 -1.93492 -0.197793 0
M  V30 3512 C 321.885 -1.48367 3.28115 0
M  V30 3513 C 321.738 -0.501227 4.46999 0
M  V30 3514 C 323.057 -2.429 3.66998 0
M  V30 3515 H 320.176 -0.279971 0.681752 0
M  V30 3516 H 322.818 -0.0373616 1.89963 0
M  V30 3517 H 320.968 -2.11171 3.26097 0
M  V30 3518 H 322.64 0.121468 4.6114 0
M  V30 3519 H 320.883 0.183593 4.33411 0
M  V30 3520 H 321.554 -1.03526 5.42205 0
M  V30 3521 H 324.03 -1.90175 3.70098 0
M  V30 3522 H 322.906 -2.89549 4.66318 0
M  V30 3523 H 323.167 -3.27628 2.96837 0
M  V30 3524 N 322.226 -1.5378 -0.344866 0
M  V30 3525 C 323.136 -1.84667 -1.4469 0
M  V30 3526 C 324.152 -0.736704 -1.57635 0
M  V30 3527 O 325.328 -1.02888 -1.73136 0
M  V30 3528 C 322.393 -2.04869 -2.79696 0
M  V30 3529 C 321.454 -3.28731 -2.76106 0
M  V30 3530 C 320.687 -3.4796 -4.04673 0
M  V30 3531 O 320.91 -2.71052 -5.01883 0
M  V30 3532 O 319.844 -4.41383 -4.09224 0
M  V30 3533 H 323.67 -2.78334 -1.21506 0
M  V30 3534 H 321.255 -1.39418 -0.536921 0
M  V30 3535 H 323.137 -2.19609 -3.59652 0
M  V30 3536 H 321.812 -1.14391 -3.02814 0
M  V30 3537 H 320.719 -3.19396 -1.94774 0
M  V30 3538 H 322.052 -4.19198 -2.57941 0
M  V30 3539 N 323.704 0.605807 -1.45491 0
M  V30 3540 C 324.95 1.36481 -1.50813 0
M  V30 3541 C 325.305 1.91826 -0.148469 0
M  V30 3542 O 324.598 1.72211 0.839869 0
M  V30 3543 C 324.792 2.53012 -2.52428 0
M  V30 3544 C 324.621 2.09078 -3.98141 0
M  V30 3545 C 323.391 1.95167 -4.66088 0
M  V30 3546 C 325.589 1.66438 -4.86624 0
M  V30 3547 N 323.571 1.45062 -5.96515 0
M  V30 3548 C 324.942 1.27761 -6.06694 0
M  V30 3549 C 326.997 1.54046 -4.7347 0
M  V30 3550 C 325.7 0.779286 -7.15066 0
M  V30 3551 C 327.726 1.05618 -5.81892 0
M  V30 3552 C 327.088 0.67906 -7.01119 0
M  V30 3553 H 323.187 0.493267 -0.606805 0
M  V30 3554 H 325.771 0.692347 -1.81974 0
M  V30 3555 H 323.942 3.17851 -2.23215 0
M  V30 3556 H 325.674 3.19897 -2.47887 0
M  V30 3557 H 322.429 2.16407 -4.21266 0
M  V30 3558 H 322.853 1.22237 -6.65873 0
M  V30 3559 H 327.495 1.81827 -3.81705 0
M  V30 3560 H 325.213 0.489026 -8.06619 0
M  V30 3561 H 328.799 0.964529 -5.73749 0
M  V30 3562 H 327.679 0.310091 -7.83587 0
M  V30 3563 N 325.182 1.32811 0.848464 0
M  V30 3564 C 326.598 1.11937 1.13764 0
M  V30 3565 C 326.798 -0.0960789 2.01271 0
M  V30 3566 O 325.854 -0.779165 2.40178 0
M  V30 3567 C 327.167 2.402 1.809 0
M  V30 3568 C 328.715 2.46016 1.93508 0
M  V30 3569 C 329.19 3.74215 2.64059 0
M  V30 3570 N 330.681 3.75232 2.71579 0
M  V30 3571 C 331.416 4.71134 3.26833 0
M  V30 3572 N 330.912 5.77406 3.8285 0
M  V30 3573 N 332.705 4.58623 3.24995 0
M  V30 3574 H 324.856 2.1073 0.265855 0
M  V30 3575 H 327.119 0.930671 0.180431 0
M  V30 3576 H 326.825 3.29093 1.24058 0
M  V30 3577 H 326.699 2.51628 2.81004 0
M  V30 3578 H 329.086 1.57577 2.49506 0
M  V30 3579 H 329.167 2.38536 0.923811 0
M  V30 3580 H 328.811 4.63031 2.08722 0
M  V30 3581 H 328.741 3.78968 3.65637 0
M  V30 3582 H 331.232 2.98423 2.31845 0
M  V30 3583 H 331.545 6.46632 4.23187 0
M  V30 3584 H 329.89 5.81152 3.81165 0
M  V30 3585 H 333.081 3.74762 2.80484 0
M  V30 3586 H 333.254 5.33535 3.67756 0
M  V30 3587 N 326.66 -1.06551 1.16123 0
M  V30 3588 C 327.623 -2.12132 0.867906 0
M  V30 3589 C 328.623 -1.60224 -0.135944 0
M  V30 3590 O 329.813 -1.73943 0.0946422 0
M  V30 3591 C 326.945 -3.396 0.297419 0
M  V30 3592 H 328.138 -2.39586 1.80385 0
M  V30 3593 H 325.691 -1.22574 0.969812 0
M  V30 3594 H 326.426 -3.17794 -0.64633 0
M  V30 3595 H 326.211 -3.78581 1.02073 0
M  V30 3596 H 327.701 -4.17455 0.110052 0
M  V30 3597 N 328.138 -0.959301 -1.25041 0
M  V30 3598 C 329.07 -0.440543 -2.24926 0
M  V30 3599 C 330.083 0.446131 -1.56568 0
M  V30 3600 O 331.272 0.253657 -1.76689 0
M  V30 3601 C 328.372 0.38412 -3.36716 0
M  V30 3602 C 327.545 -0.490658 -4.34639 0
M  V30 3603 C 326.604 0.276587 -5.25473 0
M  V30 3604 O 325.63 -0.326614 -5.68262 0
M  V30 3605 N 326.832 1.56844 -5.5891 0
M  V30 3606 H 329.597 -1.29931 -2.70071 0
M  V30 3607 H 327.158 -0.830181 -1.38995 0
M  V30 3608 H 329.15 0.905228 -3.94446 0
M  V30 3609 H 327.72 1.14377 -2.90924 0
M  V30 3610 H 326.94 -1.19282 -3.7572 0
M  V30 3611 H 328.228 -1.08756 -4.97041 0
M  V30 3612 H 327.626 2.08036 -5.26059 0
M  V30 3613 H 326.183 2.03541 -6.19205 0
M  V30 3614 N 329.616 1.39756 -0.72842 0
M  V30 3615 C 330.841 2.05472 -0.282159 0
M  V30 3616 C 331.266 1.54549 1.07221 0
M  V30 3617 O 330.624 0.686372 1.67805 0
M  V30 3618 C 330.672 3.59462 -0.286264 0
M  V30 3619 O 329.776 4.05918 0.728298 0
M  V30 3620 H 329.117 0.651226 -0.129618 0
M  V30 3621 H 331.647 1.78915 -0.992499 0
M  V30 3622 H 331.657 4.07798 -0.128373 0
M  V30 3623 H 330.332 3.95889 -1.27456 0
M  V30 3624 H 328.909 3.69012 0.537081 0
M  V30 3625 N 331.094 0.475555 1.50254 0
M  V30 3626 C 332.004 -0.321501 2.32387 0
M  V30 3627 C 333.02 -0.991755 1.42969 0
M  V30 3628 O 334.196 -0.978747 1.76018 0
M  V30 3629 C 331.261 -1.38667 3.17762 0
M  V30 3630 C 330.322 -0.732538 4.23004 0
M  V30 3631 C 329.555 -1.74695 5.04299 0
M  V30 3632 O 329.778 -2.97399 4.86734 0
M  V30 3633 O 328.712 -1.31631 5.8733 0
M  V30 3634 H 332.538 0.350071 3.01676 0
M  V30 3635 H 330.123 0.237321 1.47503 0
M  V30 3636 H 332.005 -2.00354 3.70724 0
M  V30 3637 H 330.68 -2.04163 2.51196 0
M  V30 3638 H 329.587 -0.0765902 3.74022 0
M  V30 3639 H 330.92 -0.120452 4.92053 0
M  V30 3640 N 332.573 -1.56217 0.208337 0
M  V30 3641 C 333.798 -2.02782 -0.435222 0
M  V30 3642 C 334.223 -1.08738 -1.53485 0
M  V30 3643 O 333.581 -0.0731855 -1.81152 0
M  V30 3644 C 333.629 -3.47687 -0.956335 0
M  V30 3645 O 332.733 -3.56773 -2.06849 0
M  V30 3646 H 332.074 -0.656403 -0.100158 0
M  V30 3647 H 334.604 -2.02033 0.3231 0
M  V30 3648 H 334.614 -3.87745 -1.26955 0
M  V30 3649 H 333.289 -4.15624 -0.15143 0
M  V30 3650 H 331.866 -3.28597 -1.76292 0
M  V30 3651 N 334.051 0.0651679 -1.57465 0
M  V30 3652 C 335.014 1.06117 -2.03155 0
M  V30 3653 C 336.014 1.31204 -0.929632 0
M  V30 3654 O 337.204 1.26813 -1.19432 0
M  V30 3655 C 334.336 2.4032 -2.41783 0
M  V30 3656 H 335.529 0.667231 -2.92383 0
M  V30 3657 H 333.082 0.311075 -1.53173 0
M  V30 3658 H 333.817 2.84532 -1.55601 0
M  V30 3659 H 333.602 2.23451 -3.22199 0
M  V30 3660 H 335.092 3.11898 -2.77685 0
M  V30 3661 N 335.529 1.53961 0.336706 0
M  V30 3662 C 336.461 1.78751 1.4346 0
M  V30 3663 C 337.474 0.669019 1.48418 0
M  V30 3664 O 338.663 0.945884 1.51378 0
M  V30 3665 C 335.763 1.87844 2.82078 0
M  V30 3666 C 334.936 3.17854 3.00479 0
M  V30 3667 C 333.995 3.17816 4.19379 0
M  V30 3668 O 333.021 3.91511 4.13168 0
M  V30 3669 N 334.223 2.40669 5.2826 0
M  V30 3670 H 336.988 2.73493 1.22563 0
M  V30 3671 H 334.549 1.53096 0.526625 0
M  V30 3672 H 336.541 1.85261 3.59806 0
M  V30 3673 H 335.111 1.00257 2.96086 0
M  V30 3674 H 334.331 3.33504 2.10163 0
M  V30 3675 H 335.619 4.03718 3.0966 0
M  V30 3676 H 335.017 1.8036 5.36178 0
M  V30 3677 H 333.574 2.43877 6.04456 0
M  V30 3678 N 337.007 -0.598083 1.45811 0
M  V30 3679 C 338.232 -1.3881 1.54099 0
M  V30 3680 C 338.657 -1.8726 0.177578 0
M  V30 3681 O 338.015 -1.6069 -0.839541 0
M  V30 3682 C 338.063 -2.56217 2.53743 0
M  V30 3683 O 337.167 -3.5716 2.06182 0
M  V30 3684 H 336.508 -0.414024 0.519115 0
M  V30 3685 H 339.038 -0.726971 1.91249 0
M  V30 3686 H 339.048 -3.03337 2.72856 0
M  V30 3687 H 337.723 -2.20303 3.5276 0
M  V30 3688 H 336.3 -3.16624 1.96987 0
M  V30 3689 N 338.485 -1.33259 -0.841409 0
M  V30 3690 C 339.432 -1.23302 -1.95103 0
M  V30 3691 C 340.402 -0.112204 -1.65721 0
M  V30 3692 O 341.587 -0.290038 -1.88583 0
M  V30 3693 C 338.727 -0.975583 -3.31023 0
M  V30 3694 C 337.84 -2.18243 -3.72819 0
M  V30 3695 C 336.975 -1.85936 -4.97595 0
M  V30 3696 C 336.014 -3.02866 -5.3192 0
M  V30 3697 N 335.151 -2.70565 -6.47873 0
M  V30 3698 H 339.991 -2.18207 -2.02952 0
M  V30 3699 H 337.528 -1.0851 -0.993173 0
M  V30 3700 H 339.486 -0.80677 -4.09325 0
M  V30 3701 H 338.116 -0.0632755 -3.22738 0
M  V30 3702 H 337.168 -2.46107 -2.90061 0
M  V30 3703 H 338.48 -3.05666 -3.94169 0
M  V30 3704 H 337.634 -1.65684 -5.83638 0
M  V30 3705 H 336.373 -0.957452 -4.78209 0
M  V30 3706 H 335.378 -3.23736 -4.44382 0
M  V30 3707 H 336.603 -3.93809 -5.53255 0
M  V30 3708 H 334.549 -1.8293 -6.29978 0
M  V30 3709 H 334.466 -3.51519 -6.69306 0
M  V30 3710 H 335.734 -2.53774 -7.37034 0
M  V30 3711 N 339.963 1.05934 -1.16686 0
M  V30 3712 C 340.896 2.1295 -0.820225 0
M  V30 3713 C 341.874 1.61242 0.209722 0
M  V30 3714 O 343.058 1.88271 0.0929688 0
M  V30 3715 C 340.185 3.3797 -0.22223 0
M  V30 3716 C 339.231 4.08488 -1.22637 0
M  V30 3717 S 340.064 4.58015 -2.77457 0
M  V30 3718 C 341.22 5.86292 -2.19117 0
M  V30 3719 H 341.453 2.42025 -1.72659 0
M  V30 3720 H 338.986 1.18423 -0.990722 0
M  V30 3721 H 340.944 4.10335 0.116322 0
M  V30 3722 H 339.605 3.07045 0.66196 0
M  V30 3723 H 338.798 4.98291 -0.756455 0
M  V30 3724 H 338.4 3.42154 -1.51019 0
M  V30 3725 H 340.692 6.59246 -1.56209 0
M  V30 3726 H 341.635 6.38019 -3.07144 0
M  V30 3727 H 342.043 5.40497 -1.62858 0
M  V30 3728 N 341.441 0.965919 1.2453 0
M  V30 3729 C 342.371 0.513476 2.27784 0
M  V30 3730 C 343.352 -0.445974 1.6415 0
M  V30 3731 O 344.537 -0.342485 1.91156 0
M  V30 3732 C 341.667 -0.198839 3.4673 0
M  V30 3733 C 340.621 0.676456 4.2262 0
M  V30 3734 C 339.947 -0.167248 5.34438 0
M  V30 3735 C 341.247 1.96017 4.84123 0
M  V30 3736 H 342.941 1.3765 2.65881 0
M  V30 3737 H 340.487 0.663321 1.27813 0
M  V30 3738 H 342.44 -0.526567 4.18097 0
M  V30 3739 H 341.164 -1.0962 3.07654 0
M  V30 3740 H 339.823 0.98743 3.53052 0
M  V30 3741 H 339.471 -1.0647 4.91603 0
M  V30 3742 H 339.171 0.415181 5.86131 0
M  V30 3743 H 340.695 -0.489688 6.08633 0
M  V30 3744 H 342.109 1.69814 5.47573 0
M  V30 3745 H 340.506 2.48918 5.4604 0
M  V30 3746 H 341.576 2.65622 4.05676 0
M  V30 3747 N 342.919 -1.39368 0.735821 0
M  V30 3748 C 344.144 -2.05319 0.293052 0
M  V30 3749 C 344.569 -1.55115 -1.064 0
M  V30 3750 O 343.927 -0.695261 -1.67439 0
M  V30 3751 C 343.975 -3.59305 0.305323 0
M  V30 3752 O 343.079 -4.06299 -0.706761 0
M  V30 3753 H 342.42 -0.650529 0.13307 0
M  V30 3754 H 344.95 -1.78386 1.00197 0
M  V30 3755 H 344.96 -4.07724 0.149997 0
M  V30 3756 H 343.635 -3.95207 1.29553 0
M  V30 3757 H 342.212 -3.69292 -0.517504 0
M  V30 3758 N 344.397 -0.483516 -1.5 0
M  V30 3759 C 345.645 0.067027 -2.01989 0
M  V30 3760 C 345.966 1.3909 -1.36671 0
M  V30 3761 O 345.236 1.88978 -0.516152 0
M  V30 3762 H 343.816 0.0277606 -0.746484 0
M  V30 3763 H 346.478 -0.636773 -1.84204 0
M  V30 3764 H 345.574 0.209484 -3.11396 0
M  V30 3765 N 345.875 1.56104 -0.216619 0
M  V30 3766 C 347.124 1.97348 0.416744 0
M  V30 3767 C 347.437 1.10715 1.6125 0
M  V30 3768 O 348.643 1.41836 2.31506 0
M  V30 3769 C 347.099 3.51059 0.792835 0
M  V30 3770 C 346.707 4.46387 -0.379828 0
M  V30 3771 C 348.451 4.01026 1.39208 0
M  V30 3772 C 346.358 5.91397 0.0184223 0
M  V30 3773 H 345.288 0.736942 0.159475 0
M  V30 3774 H 347.939 1.80827 -0.31205 0
M  V30 3775 H 346.321 3.63162 1.57891 0
M  V30 3776 H 347.495 4.46029 -1.15737 0
M  V30 3777 H 345.81 4.06734 -0.891979 0
M  V30 3778 H 348.407 5.0686 1.70286 0
M  V30 3779 H 348.75 3.46587 2.30614 0
M  V30 3780 H 349.283 3.92125 0.669537 0
M  V30 3781 H 346.022 6.49807 -0.862002 0
M  V30 3782 H 345.542 5.94961 0.760384 0
M  V30 3783 H 347.221 6.45455 0.446818 0
M  V30 3784 N 347.353 -0.0568162 1.57498 0
M  V30 3785 C 348.601 -0.751617 1.87604 0
M  V30 3786 C 348.922 -1.77351 0.81066 0
M  V30 3787 O 348.192 -1.95254 -0.159018 0
M  V30 3788 H 346.772 -0.280583 0.692302 0
M  V30 3789 H 349.434 -0.0293483 1.94878 0
M  V30 3790 H 348.53 -1.25852 2.856 0
M  V30 3791 N 348.832 -1.54138 -0.328536 0
M  V30 3792 C 350.08 -1.71765 -1.06496 0
M  V30 3793 C 350.401 -0.49149 -1.88704 0
M  V30 3794 O 349.671 0.494539 -1.89555 0
M  V30 3795 H 348.251 -0.633295 -0.396164 0
M  V30 3796 H 350.913 -1.91429 -0.366176 0
M  V30 3797 H 350.009 -2.5951 -1.73381 0
M  V30 3798 N 350.31 0.590341 -1.46126 0
M  V30 3799 C 351.557 1.34882 -1.5104 0
M  V30 3800 C 351.885 1.93849 -0.159021 0
M  V30 3801 O 351.14 1.76544 0.844436 0
M  V30 3802 C 351.439 2.5032 -2.55097 0
M  V30 3803 C 351.105 2.09394 -3.99331 0
M  V30 3804 C 349.767 1.97947 -4.38601 0
M  V30 3805 C 352.119 1.77712 -4.89967 0
M  V30 3806 C 349.447 1.53065 -5.66381 0
M  V30 3807 C 351.799 1.34312 -6.18177 0
M  V30 3808 C 350.463 1.21436 -6.56361 0
M  V30 3809 H 349.733 0.493568 -0.552695 0
M  V30 3810 H 352.38 0.665539 -1.79563 0
M  V30 3811 H 350.685 3.24062 -2.20207 0
M  V30 3812 H 352.382 3.08541 -2.56132 0
M  V30 3813 H 348.972 2.19235 -3.68285 0
M  V30 3814 H 353.156 1.85445 -4.60352 0
M  V30 3815 H 348.412 1.41733 -5.94745 0
M  V30 3816 H 352.586 1.08849 -6.87841 0
M  V30 3817 H 350.213 0.864345 -7.5527 0
M  V30 3818 N 351.788 1.33704 0.83433 0
M  V30 3819 C 353.034 1.25603 1.59222 0
M  V30 3820 C 353.367 -0.176659 1.93395 0
M  V30 3821 O 352.642 -1.11915 1.59076 0
M  V30 3822 C 352.925 2.13576 2.89926 0
M  V30 3823 C 352.778 3.65326 2.62406 0
M  V30 3824 C 354.097 2.01238 3.91397 0
M  V30 3825 H 351.216 0.457613 0.577719 0
M  V30 3826 H 353.858 1.63848 0.961972 0
M  V30 3827 H 352.008 1.8109 3.43713 0
M  V30 3828 H 353.68 4.08124 2.15017 0
M  V30 3829 H 351.923 3.8698 1.96033 0
M  V30 3830 H 352.594 4.22232 3.55562 0
M  V30 3831 H 355.07 2.29738 3.46929 0
M  V30 3832 H 353.946 2.65036 4.80673 0
M  V30 3833 H 354.207 0.985951 4.30966 0
M  V30 3834 N 353.266 -1.05314 1.17247 0
M  V30 3835 C 354.196 -2.1498 0.911362 0
M  V30 3836 C 355.177 -1.69471 -0.146169 0
M  V30 3837 O 356.362 -1.942 0.003812 0
M  V30 3838 C 353.492 -3.4472 0.422528 0
M  V30 3839 C 352.446 -4.03789 1.4191 0
M  V30 3840 C 351.772 -5.28858 0.788274 0
M  V30 3841 C 353.072 -4.41418 2.7919 0
M  V30 3842 H 354.766 -2.3708 1.82848 0
M  V30 3843 H 352.312 -1.13938 0.880569 0
M  V30 3844 H 354.265 -4.20787 0.227289 0
M  V30 3845 H 352.989 -3.22269 -0.530123 0
M  V30 3846 H 351.648 -3.2979 1.60106 0
M  V30 3847 H 351.296 -5.02709 -0.171173 0
M  V30 3848 H 350.996 -5.69338 1.45353 0
M  V30 3849 H 352.52 -6.07612 0.603282 0
M  V30 3850 H 353.934 -5.08524 2.64719 0
M  V30 3851 H 352.331 -4.92913 3.42282 0
M  V30 3852 H 353.401 -3.51819 3.33693 0
M  V30 3853 N 354.744 -0.972509 -1.24016 0
M  V30 3854 C 355.992 -0.635776 -1.91839 0
M  V30 3855 C 356.313 0.832312 -1.76345 0
M  V30 3856 O 355.583 1.5946 -1.13795 0
M  V30 3857 H 354.163 -0.232157 -0.710009 0
M  V30 3858 H 356.825 -1.23462 -1.50809 0
M  V30 3859 H 355.921 -0.880545 -2.99421 0
M  V30 3860 N 356.222 1.38976 -0.743202 0
M  V30 3861 C 357.152 2.33171 -0.123873 0
M  V30 3862 C 358.133 1.54336 0.71516 0
M  V30 3863 O 359.318 1.82696 0.658467 0
M  V30 3864 C 356.448 3.38474 0.777978 0
M  V30 3865 C 355.402 4.27979 0.0424758 0
M  V30 3866 C 354.728 5.2405 1.06189 0
M  V30 3867 C 356.028 5.10155 -1.1198 0
M  V30 3868 H 357.722 2.85213 -0.910709 0
M  V30 3869 H 355.268 1.37133 -0.439388 0
M  V30 3870 H 357.221 4.03328 1.22084 0
M  V30 3871 H 355.945 2.84891 1.59702 0
M  V30 3872 H 354.604 3.64616 -0.380853 0
M  V30 3873 H 354.252 4.66758 1.87472 0
M  V30 3874 H 353.952 5.84785 0.574485 0
M  V30 3875 H 355.476 5.9178 1.50428 0
M  V30 3876 H 356.89 5.68307 -0.75499 0
M  V30 3877 H 355.287 5.80073 -1.53738 0
M  V30 3878 H 356.357 4.44504 -1.93764 0
M  V30 3879 N 357.7 0.491464 1.49741 0
M  V30 3880 C 358.949 -0.0582189 2.01616 0
M  V30 3881 C 359.262 -1.38927 1.3769 0
M  V30 3882 O 360.468 -2.02509 1.80838 0
M  V30 3883 C 358.924 -0.154235 3.59569 0
M  V30 3884 C 358.532 1.1696 4.32463 0
M  V30 3885 C 360.276 -0.65479 4.1942 0
M  V30 3886 C 358.183 1.03627 5.8225 0
M  V30 3887 H 357.113 -0.0255317 0.753568 0
M  V30 3888 H 359.764 0.629445 1.72367 0
M  V30 3889 H 358.146 -0.906138 3.85493 0
M  V30 3890 H 359.32 1.93405 4.18248 0
M  V30 3891 H 357.635 1.60285 3.84315 0
M  V30 3892 H 360.232 -0.771903 5.29099 0
M  V30 3893 H 360.575 -1.65127 3.8215 0
M  V30 3894 H 361.108 0.040304 3.9778 0
M  V30 3895 H 357.847 2.00672 6.24028 0
M  V30 3896 H 357.367 0.312546 5.98985 0
M  V30 3897 H 359.046 0.711114 6.4308 0
M  V30 3898 N 359.178 -1.55987 0.224894 0
M  V30 3899 C 360.425 -1.9839 -0.4059 0
M  V30 3900 C 360.753 -1.11261 -1.59535 0
M  V30 3901 O 360.008 -0.158314 -1.95059 0
M  V30 3902 C 360.307 -3.46394 -0.880106 0
M  V30 3903 C 359.973 -4.5046 0.19918 0
M  V30 3904 C 358.635 -4.7864 0.495661 0
M  V30 3905 C 360.987 -5.12855 0.928939 0
M  V30 3906 C 358.315 -5.66497 1.52636 0
M  V30 3907 C 360.667 -6.01828 1.949 0
M  V30 3908 C 359.331 -6.28351 2.25236 0
M  V30 3909 H 358.601 -0.725961 -0.148529 0
M  V30 3910 H 361.248 -1.88668 0.328113 0
M  V30 3911 H 359.553 -3.53337 -1.69294 0
M  V30 3912 H 361.25 -3.76577 -1.37808 0
M  V30 3913 H 357.84 -4.28579 -0.0420526 0
M  V30 3914 H 362.024 -4.9115 0.713129 0
M  V30 3915 H 357.28 -5.8531 1.76698 0
M  V30 3916 H 361.454 -6.49225 2.51951 0
M  V30 3917 H 359.081 -6.96226 3.05244 0
M  V30 3918 N 360.656 0.0484629 -1.57525 0
M  V30 3919 C 361.586 1.0549 -2.08313 0
M  V30 3920 C 362.567 1.38929 -0.981463 0
M  V30 3921 O 363.752 1.48151 -1.25558 0
M  V30 3922 C 360.882 2.36162 -2.54646 0
M  V30 3923 C 359.836 2.17016 -3.68901 0
M  V30 3924 C 359.162 3.53278 -4.01371 0
M  V30 3925 C 360.462 1.57219 -4.98076 0
M  V30 3926 H 362.156 0.632195 -2.92649 0
M  V30 3927 H 359.702 0.302654 -1.40784 0
M  V30 3928 H 361.655 3.06882 -2.88793 0
M  V30 3929 H 360.379 2.80456 -1.67368 0
M  V30 3930 H 359.038 1.48733 -3.35073 0
M  V30 3931 H 358.686 3.95185 -3.11188 0
M  V30 3932 H 358.386 3.41299 -4.78318 0
M  V30 3933 H 359.91 4.25391 -4.38035 0
M  V30 3934 H 361.324 2.17832 -5.30304 0
M  V30 3935 H 359.721 1.55871 -5.79503 0
M  V30 3936 H 360.791 0.535956 -4.81929 0
M  V30 3937 N 362.134 1.5431 0.320358 0
M  V30 3938 C 363.382 1.72327 1.05583 0
M  V30 3939 C 363.703 0.50149 1.88441 0
M  V30 3940 O 362.973 -0.48448 1.89815 0
M  V30 3941 H 361.553 0.635387 0.3928 0
M  V30 3942 H 364.215 1.91621 0.356019 0
M  V30 3943 H 363.311 2.60426 1.72003 0
M  V30 3944 N 363.613 -0.582584 1.46437 0
M  V30 3945 C 364.543 -1.70187 1.59871 0
M  V30 3946 C 365.524 -1.64066 0.449042 0
M  V30 3947 O 366.709 -1.82081 0.6753 0
M  V30 3948 C 363.839 -3.08827 1.58881 0
M  V30 3949 C 362.793 -3.29779 2.72819 0
M  V30 3950 C 362.119 -4.68947 2.5689 0
M  V30 3951 C 363.419 -3.17601 4.1464 0
M  V30 3952 H 365.113 -1.592 2.53566 0
M  V30 3953 H 362.659 -0.764472 1.22032 0
M  V30 3954 H 364.612 -3.86951 1.66873 0
M  V30 3955 H 363.336 -3.20713 0.617306 0
M  V30 3956 H 361.995 -2.54054 2.64296 0
M  V30 3957 H 361.643 -4.77599 1.57823 0
M  V30 3958 H 361.343 -4.83919 3.33312 0
M  V30 3959 H 362.867 -5.4924 2.66773 0
M  V30 3960 H 364.281 -3.8557 4.24274 0
M  V30 3961 H 362.678 -3.44094 4.9165 0
M  V30 3962 H 363.748 -2.14681 4.34788 0
M  V30 3963 N 365.091 -1.34144 -0.827227 0
M  V30 3964 C 366.339 -1.26009 -1.58007 0
M  V30 3965 C 366.66 0.170971 -1.94249 0
M  V30 3966 O 365.93 1.10256 -1.61927 0
M  V30 3967 H 364.51 -0.463414 -0.585881 0
M  V30 3968 H 367.172 -1.68005 -0.987951 0
M  V30 3969 H 366.268 -1.86187 -2.50481 0
M  V30 3970 N 366.569 1.04691 -1.17803 0
M  V30 3971 C 367.499 2.14494 -0.92275 0
M  V30 3972 C 368.48 1.69546 0.137179 0
M  V30 3973 O 369.665 1.94195 -0.0141108 0
M  V30 3974 C 366.795 3.44491 -0.440803 0
M  V30 3975 C 365.749 4.03031 -1.4405 0
M  V30 3976 C 365.075 5.28432 -0.81631 0
M  V30 3977 C 366.375 4.39932 -2.81527 0
M  V30 3978 H 368.069 2.36107 -1.84103 0
M  V30 3979 H 365.615 1.1347 -0.886599 0
M  V30 3980 H 367.568 4.2066 -0.249602 0
M  V30 3981 H 366.292 3.22546 0.513025 0
M  V30 3982 H 364.951 3.28937 -1.61853 0
M  V30 3983 H 364.599 5.02792 0.144511 0
M  V30 3984 H 364.299 5.68559 -1.48371 0
M  V30 3985 H 365.823 6.07284 -0.635496 0
M  V30 3986 H 367.237 5.07113 -2.67412 0
M  V30 3987 H 365.634 4.9109 -3.44892 0
M  V30 3988 H 366.704 3.50045 -3.35554 0
M  V30 3989 N 368.047 0.979072 1.23499 0
M  V30 3990 C 369.296 0.642751 1.91185 0
M  V30 3991 C 369.609 -0.827253 1.77245 0
M  V30 3992 O 370.815 -1.27458 2.39722 0
M  V30 3993 C 369.271 1.09901 3.42709 0
M  V30 3994 C 368.879 2.59327 3.65313 0
M  V30 3995 C 370.623 0.836371 4.16179 0
M  V30 3996 C 368.53 2.98627 5.10467 0
M  V30 3997 H 367.46 0.236698 0.715884 0
M  V30 3998 H 370.111 1.1868 1.39955 0
M  V30 3999 H 368.493 0.48319 3.93041 0
M  V30 4000 H 369.667 3.26136 3.25533 0
M  V30 4001 H 367.982 2.83323 3.05151 0
M  V30 4002 H 370.579 1.10586 5.23139 0
M  V30 4003 H 370.922 -0.227509 4.15678 0
M  V30 4004 H 371.455 1.41371 3.71832 0
M  V30 4005 H 368.194 4.04133 5.16098 0
M  V30 4006 H 367.714 2.3651 5.51201 0
M  V30 4007 H 369.393 2.89159 5.78788 0
M  V30 4008 N 369.525 -1.3858 0.750561 0
M  V30 4009 C 370.774 -1.99424 0.302172 0
M  V30 4010 C 371.087 -1.60254 -1.12152 0
M  V30 4011 O 372.293 -2.14046 -1.67023 0
M  V30 4012 C 370.749 -3.56558 0.489307 0
M  V30 4013 C 370.357 -4.04682 1.92189 0
M  V30 4014 C 372.101 -4.24374 0.103478 0
M  V30 4015 C 370.008 -5.54446 2.05775 0
M  V30 4016 H 368.938 -0.746046 0.10923 0
M  V30 4017 H 371.589 -1.58383 0.92667 0
M  V30 4018 H 369.971 -3.95472 -0.204329 0
M  V30 4019 H 371.145 -3.77065 2.64875 0
M  V30 4020 H 369.46 -3.4958 2.26236 0
M  V30 4021 H 372.057 -5.34384 0.183787 0
M  V30 4022 H 372.4 -4.05468 -0.943481 0
M  V30 4023 H 372.933 -3.90688 0.748854 0
M  V30 4024 H 369.672 -5.78252 3.08714 0
M  V30 4025 H 369.192 -5.83816 1.37546 0
M  V30 4026 H 370.871 -6.20099 1.84626 0
M  V30 4027 N 371.003 -0.499398 -1.49478 0
M  V30 4028 C 371.953 0.299103 -2.2603 0
M  V30 4029 C 372.937 0.936934 -1.30807 0
M  V30 4030 O 374.129 0.844798 -1.55538 0
M  V30 4031 C 371.258 1.36391 -3.15044 0
M  V30 4032 C 370.344 0.732398 -4.17728 0
M  V30 4033 N 370.735 -0.164028 -5.05534 0
M  V30 4034 C 369.033 0.993162 -4.34801 0
M  V30 4035 C 369.734 -0.525345 -5.79323 0
M  V30 4036 N 368.71 0.106348 -5.43496 0
M  V30 4037 H 372.512 -0.391003 -2.91287 0
M  V30 4038 H 370.026 -0.31537 -1.59308 0
M  V30 4039 H 372.023 1.94939 -3.68516 0
M  V30 4040 H 370.683 2.05571 -2.51338 0
M  V30 4041 H 371.694 -0.534736 -5.15132 0
M  V30 4042 H 368.371 1.67783 -3.82302 0
M  V30 4043 H 369.761 -1.25862 -6.60006 0
M  V30 4044 N 372.481 1.55866 -0.233164 0
M  V30 4045 C 373.431 2.17442 0.685774 0
M  V30 4046 C 374.415 1.12617 1.14918 0
M  V30 4047 O 375.607 1.3857 1.10124 0
M  V30 4048 C 372.736 2.86685 1.88856 0
M  V30 4049 C 371.822 3.98749 1.4443 0
M  V30 4050 N 372.213 5.00744 0.713364 0
M  V30 4051 C 370.511 4.11052 1.73068 0
M  V30 4052 C 371.212 5.79673 0.485205 0
M  V30 4053 N 370.188 5.33454 1.04536 0
M  V30 4054 H 373.99 2.93659 0.119022 0
M  V30 4055 H 371.504 1.62362 -0.0348995 0
M  V30 4056 H 373.501 3.29218 2.55776 0
M  V30 4057 H 372.161 2.11967 2.45967 0
M  V30 4058 H 373.172 5.16613 0.364861 0
M  V30 4059 H 369.849 3.47495 2.31416 0
M  V30 4060 H 371.239 6.71829 -0.097365 0
M  V30 4061 N 373.959 -0.0401083 1.57549 0
M  V30 4062 C 375.375 -0.395556 1.54621 0
M  V30 4063 C 375.575 -1.77281 0.957799 0
M  V30 4064 O 374.631 -2.45888 0.574031 0
M  V30 4065 C 375.944 -0.307535 2.99123 0
M  V30 4066 C 377.492 -0.385425 3.10618 0
M  V30 4067 C 377.967 -0.326973 4.56831 0
M  V30 4068 N 379.458 -0.386102 4.61588 0
M  V30 4069 C 380.193 -0.363591 5.72246 0
M  V30 4070 N 379.689 -0.29402 6.92176 0
M  V30 4071 N 381.482 -0.412503 5.60584 0
M  V30 4072 H 373.633 0.861325 1.94152 0
M  V30 4073 H 375.896 0.326445 0.890021 0
M  V30 4074 H 375.602 0.638461 3.45856 0
M  V30 4075 H 375.476 -1.10552 3.60636 0
M  V30 4076 H 377.863 -1.32185 2.63839 0
M  V30 4077 H 377.944 0.44171 2.51957 0
M  V30 4078 H 377.588 0.605738 5.04275 0
M  V30 4079 H 377.518 -1.17207 5.13391 0
M  V30 4080 H 380.009 -0.442832 3.75296 0
M  V30 4081 H 380.322 -0.28164 7.72287 0
M  V30 4082 H 378.667 -0.260232 6.94513 0
M  V30 4083 H 381.858 -0.464769 4.65787 0
M  V30 4084 H 382.031 -0.391492 6.46816 0
M  V30 4085 N 375.437 -1.54477 -0.31217 0
M  V30 4086 C 376.662 -1.77526 -1.07235 0
M  V30 4087 C 377.087 -0.527775 -1.80544 0
M  V30 4088 O 376.445 0.52121 -1.73646 0
M  V30 4089 C 376.493 -2.97535 -2.03728 0
M  V30 4090 O 375.597 -2.69878 -3.11833 0
M  V30 4091 H 374.938 -0.58792 -0.30862 0
M  V30 4092 H 377.468 -2.01532 -0.352993 0
M  V30 4093 H 377.478 -3.25198 -2.46395 0
M  V30 4094 H 376.153 -3.87996 -1.49774 0
M  V30 4095 H 374.73 -2.53199 -2.7376 0
M  V30 4096 N 376.915 0.57481 -1.46744 0
M  V30 4097 C 377.847 1.69804 -1.53946 0
M  V30 4098 C 378.86 1.57098 -0.427106 0
M  V30 4099 O 380.049 1.64378 -0.695863 0
M  V30 4100 C 377.149 3.08125 -1.4111 0
M  V30 4101 C 376.322 3.46757 -2.66605 0
M  V30 4102 C 375.381 4.6417 -2.47855 0
M  V30 4103 O 374.407 4.69634 -3.21609 0
M  V30 4104 N 375.609 5.59553 -1.54534 0
M  V30 4105 H 378.374 1.64077 -2.50796 0
M  V30 4106 H 375.935 0.761 -1.429 0
M  V30 4107 H 377.927 3.84478 -1.26328 0
M  V30 4108 H 376.497 3.08175 -0.524109 0
M  V30 4109 H 375.717 2.6003 -2.96274 0
M  V30 4110 H 377.005 3.69337 -3.49954 0
M  V30 4111 H 376.403 5.57881 -0.937304 0
M  V30 4112 H 374.96 6.35304 -1.45711 0
M  V30 4113 N 378.394 1.34581 0.820102 0
M  V30 4114 C 379.341 1.2639 1.93117 0
M  V30 4115 C 380.311 0.138554 1.65521 0
M  V30 4116 O 381.496 0.320004 1.88097 0
M  V30 4117 C 378.636 1.02812 3.29429 0
M  V30 4118 C 377.749 2.24146 3.693 0
M  V30 4119 C 376.884 1.93829 4.94574 0
M  V30 4120 C 375.923 3.1129 5.27034 0
M  V30 4121 N 375.06 2.80838 6.43486 0
M  V30 4122 H 379.9 2.21408 1.99455 0
M  V30 4123 H 377.437 1.10077 0.975784 0
M  V30 4124 H 379.395 0.871788 4.0799 0
M  V30 4125 H 378.025 0.114612 3.22596 0
M  V30 4126 H 377.077 2.50691 2.86109 0
M  V30 4127 H 378.389 3.11899 3.89257 0
M  V30 4128 H 377.543 1.74948 5.80929 0
M  V30 4129 H 376.282 1.03341 4.76626 0
M  V30 4130 H 375.287 3.30764 4.39175 0
M  V30 4131 H 376.512 4.02561 5.4692 0
M  V30 4132 H 374.458 1.92929 6.26988 0
M  V30 4133 H 374.375 3.62123 6.63629 0
M  V30 4134 H 375.643 2.65467 7.32903 0
M  V30 4135 N 379.872 -1.04064 1.18357 0
M  V30 4136 C 381.12 -1.76915 0.977013 0
M  V30 4137 C 381.441 -1.88624 -0.494577 0
M  V30 4138 O 380.711 -1.41125 -1.3587 0
M  V30 4139 H 379.291 -0.65535 0.358504 0
M  V30 4140 H 381.953 -1.25592 1.49039 0
M  V30 4141 H 381.049 -2.78178 1.41504 0
M  V30 4142 N 381.35 -0.985608 -1.22978 0
M  V30 4143 C 382.28 -0.549649 -2.26939 0
M  V30 4144 C 383.261 0.419803 -1.64838 0
M  V30 4145 O 384.446 0.31203 -1.91677 0
M  V30 4146 C 381.576 0.143652 -3.47003 0
M  V30 4147 C 380.53 -0.743606 -4.21491 0
M  V30 4148 C 379.856 0.0822027 -5.34637 0
M  V30 4149 C 381.156 -2.03694 -4.80943 0
M  V30 4150 H 382.85 -1.41862 -2.63658 0
M  V30 4151 H 380.396 -0.683571 -1.26741 0
M  V30 4152 H 382.349 0.459985 -4.18882 0
M  V30 4153 H 381.073 1.04711 -3.09359 0
M  V30 4154 H 379.732 -1.04347 -3.51436 0
M  V30 4155 H 379.38 0.986359 -4.93234 0
M  V30 4156 H 379.08 -0.508377 -5.85397 0
M  V30 4157 H 380.604 0.392797 -6.09335 0
M  V30 4158 H 382.018 -1.78504 -5.44802 0
M  V30 4159 H 380.415 -2.57573 -5.42011 0
M  V30 4160 H 381.485 -2.72042 -4.01399 0
M  V30 4161 N 382.828 1.3818 -0.7579 0
M  V30 4162 C 383.758 2.33027 -0.148597 0
M  V30 4163 C 384.739 1.55085 0.69875 0
M  V30 4164 O 385.924 1.83384 0.639053 0
M  V30 4165 C 383.054 3.3928 0.742034 0
M  V30 4166 C 382.008 4.28 -0.00291946 0
M  V30 4167 C 381.334 5.25146 1.00625 0
M  V30 4168 C 382.634 5.08938 -1.17385 0
M  V30 4169 H 384.328 2.84231 -0.940909 0
M  V30 4170 H 381.874 1.36659 -0.453908 0
M  V30 4171 H 383.827 4.046 1.17799 0
M  V30 4172 H 382.551 2.86569 1.56671 0
M  V30 4173 H 381.21 3.64192 -0.419504 0
M  V30 4174 H 380.858 4.68721 1.8251 0
M  V30 4175 H 380.558 5.85361 0.512428 0
M  V30 4176 H 382.082 5.93342 1.44143 0
M  V30 4177 H 383.496 5.67474 -0.815224 0
M  V30 4178 H 381.893 5.7841 -1.59882 0
M  V30 4179 H 382.963 4.42424 -1.98468 0
M  V30 4180 N 384.306 0.507319 1.49211 0
M  V30 4181 C 385.256 -0.287112 2.26185 0
M  V30 4182 C 386.24 -0.929983 1.31302 0
M  V30 4183 O 387.432 -0.836538 1.55984 0
M  V30 4184 C 384.561 -1.34718 3.15763 0
M  V30 4185 C 383.647 -0.710235 4.18111 0
M  V30 4186 N 384.038 0.190836 5.0544 0
M  V30 4187 C 382.336 -0.97009 4.35322 0
M  V30 4188 C 383.037 0.55606 5.79036 0
M  V30 4189 N 382.013 -0.0775232 5.43545 0
M  V30 4190 H 385.815 0.406445 2.91076 0
M  V30 4191 H 383.329 0.323814 1.59139 0
M  V30 4192 H 385.326 -1.92982 3.69545 0
M  V30 4193 H 383.986 -2.04235 2.52424 0
M  V30 4194 H 384.997 0.562047 5.14841 0
M  V30 4195 H 381.674 -1.65753 3.83187 0
M  V30 4196 H 383.064 1.2936 6.5933 0
M  V30 4197 O 385.823 -1.56889 0.38316 0
M  V30 4198 H 386.514 -1.93009 -0.163415 0
M  V30 END ATOM
M  V30 BEGIN BOND
M  V30 END BOND
M  V30 END CTAB
M  END
$$$$
