drugbank_target|P01906 HLA class II histocompatibility antigen, DQ alpha 2 chain (DB00071)
 OpenBabel12092120063D

  0  0  0     0  0            999 V3000
M  V30 BEGIN CTAB
M  V30 COUNTS 3904 3955 0 0 0
M  V30 BEGIN ATOM
M  V30 1 H -0.908 1.98254 -0.117106 0
M  V30 2 N 0 1.576 0 0
M  V30 3 C 0.933 2.03868 1.02534 0
M  V30 4 C 1.911 0.928543 1.3348 0
M  V30 5 O 3.095 1.19667 1.45644 0
M  V30 6 C 0.222 2.43627 2.35294 0
M  V30 7 C -0.732 3.65373 2.2001 0
M  V30 8 S 0.101 5.13292 1.52614 0
M  V30 9 C 1.257 5.56322 2.86805 0
M  V30 10 H 1.49 2.90518 0.631377 0
M  V30 11 H -0.977 1.52953 0.210867 0
M  V30 12 H 0.981 2.67203 3.11629 0
M  V30 13 H -0.358 1.57376 2.7183 0
M  V30 14 H -1.165 3.90944 3.18086 0
M  V30 15 H -1.563 3.418 1.51819 0
M  V30 16 H 0.729 5.58782 3.83104 0
M  V30 17 H 1.672 6.56266 2.65933 0
M  V30 18 H 2.08 4.83886 2.90714 0
M  V30 19 N 1.4781 -0.272755 1.55222 0
M  V30 20 C 2.7271 -1.00211 1.75045 0
M  V30 21 C 3.0401 -1.87441 0.559046 0
M  V30 22 O 4.2461 -2.63856 0.639698 0
M  V30 23 C 2.7021 -1.83165 3.09804 0
M  V30 24 C 2.3101 -1.008 4.36513 0
M  V30 25 C 4.0541 -2.55529 3.38977 0
M  V30 26 C 1.9611 -1.83194 5.62311 0
M  V30 27 H 0.8911 -0.377878 0.652476 0
M  V30 28 H 3.5421 -0.257776 1.8168 0
M  V30 29 H 1.9241 -2.61694 2.97207 0
M  V30 30 H 3.0981 -0.266855 4.60027 0
M  V30 31 H 1.4131 -0.398897 4.14485 0
M  V30 32 H 4.0101 -3.17578 4.30172 0
M  V30 33 H 4.3531 -3.25825 2.59121 0
M  V30 34 H 4.8861 -1.84029 3.52673 0
M  V30 35 H 1.6251 -1.17318 6.44916 0
M  V30 36 H 1.1451 -2.54905 5.4294 0
M  V30 37 H 2.8241 -2.40552 6.00619 0
M  V30 38 N 2.9562 -1.48159 -0.537278 0
M  V30 39 C 3.8862 -1.65029 -1.6519 0
M  V30 40 C 4.8672 -0.499281 -1.62607 0
M  V30 41 O 6.0522 -0.730972 -1.79918 0
M  V30 42 C 3.1822 -1.68303 -3.03795 0
M  V30 43 C 2.1362 -2.8283 -3.21234 0
M  V30 44 C 1.4622 -2.71189 -4.60826 0
M  V30 45 C 2.7622 -4.24211 -3.04701 0
M  V30 46 H 4.4562 -2.58341 -1.51328 0
M  V30 47 H 2.0022 -1.24325 -0.726585 0
M  V30 48 H 3.9552 -1.78693 -3.81637 0
M  V30 49 H 2.6792 -0.715635 -3.18663 0
M  V30 50 H 1.3382 -2.71983 -2.45807 0
M  V30 51 H 0.9862 -1.72435 -4.7252 0
M  V30 52 H 0.6862 -3.48035 -4.7344 0
M  V30 53 H 2.2102 -2.83537 -5.40777 0
M  V30 54 H 3.6242 -4.3593 -3.72341 0
M  V30 55 H 2.0212 -5.01998 -3.28813 0
M  V30 56 H 3.0912 -4.41184 -2.01209 0
M  V30 57 N 4.4343 0.785586 -1.36625 0
M  V30 58 C 5.3823 1.91978 -1.31329 0
M  V30 59 C 6.3763 1.68162 -0.204416 0
M  V30 60 O 7.5823 1.76122 -0.371645 0
M  V30 61 H 3.9573 0.631087 -0.408942 0
M  V30 62 H 5.9283 1.93562 -2.27104 0
M  V30 63 C 4.6773 3.29055 -1.12329 0
M  V30 64 H 4.0003 3.4795 -1.96903 0
M  V30 65 H 5.4403 4.08756 -1.12671 0
M  V30 66 C 3.8993 3.36461 0.171861 0
M  V30 67 O 4.4293 3.84576 1.16035 0
M  V30 68 N 2.6353 2.89782 0.217846 0
M  V30 69 H 2.1823 2.50819 -0.587183 0
M  V30 70 H 2.1403 2.95119 1.08408 0
M  V30 71 N 5.9124 1.20967 1.01018 0
M  V30 72 C 6.8594 0.964281 2.09691 0
M  V30 73 C 7.8294 -0.107853 1.65749 0
M  V30 74 O 9.0144 0.0381987 1.90762 0
M  V30 75 C 6.1544 0.52943 3.41015 0
M  V30 76 C 5.2674 1.67043 3.98398 0
M  V30 77 C 4.4024 1.18525 5.17808 0
M  V30 78 C 3.4414 2.29892 5.67288 0
M  V30 79 N 2.5784 1.82546 6.77954 0
M  V30 80 H 7.4184 1.89463 2.30017 0
M  V30 81 H 4.9554 0.944289 1.1279 0
M  V30 82 H 6.9134 0.258588 4.16398 0
M  V30 83 H 5.5434 -0.363919 3.20742 0
M  V30 84 H 4.5954 2.05603 3.20049 0
M  V30 85 H 5.9074 2.50877 4.31117 0
M  V30 86 H 5.0614 0.870762 6.00419 0
M  V30 87 H 3.8004 0.316887 4.86669 0
M  V30 88 H 2.8054 2.6215 4.83278 0
M  V30 89 H 4.0304 3.17216 6.00459 0
M  V30 90 H 1.9764 0.980454 6.48632 0
M  V30 91 H 1.8934 2.59956 7.09901 0
M  V30 92 H 3.1614 1.54115 7.64113 0
M  V30 93 N 7.3905 -1.2043 1.01659 0
M  V30 94 C 8.3535 -2.21433 0.591616 0
M  V30 95 C 9.3535 -1.57203 -0.338226 0
M  V30 96 O 10.5435 -1.73737 -0.126918 0
M  V30 97 C 7.6755 -3.40628 -0.136058 0
M  V30 98 H 8.8685 -2.60545 1.48514 0
M  V30 99 H 6.4215 -1.33893 0.806379 0
M  V30 100 H 7.1565 -3.07019 -1.04449 0
M  V30 101 H 6.9415 -3.88475 0.531917 0
M  V30 102 H 8.4315 -4.15475 -0.420735 0
M  V30 103 N 8.8686 -0.792821 -1.36206 0
M  V30 104 C 9.7986 -0.207853 -2.32573 0
M  V30 105 C 10.7796 0.659055 -1.56813 0
M  V30 106 O 11.9646 0.592176 -1.84951 0
M  V30 107 C 9.0946 0.655449 -3.41059 0
M  V30 108 C 8.0486 -0.111842 -4.27854 0
M  V30 109 C 7.3746 0.872274 -5.27537 0
M  V30 110 C 8.6746 -1.30299 -5.05786 0
M  V30 111 H 10.3686 -1.01294 -2.81744 0
M  V30 112 H 7.9146 -0.48854 -1.3546 0
M  V30 113 H 9.8676 1.07464 -4.07467 0
M  V30 114 H 8.5916 1.49328 -2.90463 0
M  V30 115 H 7.2506 -0.512053 -3.63006 0
M  V30 116 H 6.8986 1.70523 -4.73214 0
M  V30 117 H 6.5986 0.363291 -5.86476 0
M  V30 118 H 8.1226 1.28996 -5.96818 0
M  V30 119 H 9.5366 -0.959379 -5.65216 0
M  V30 120 H 7.9336 -1.7455 -5.74154 0
M  V30 121 H 9.0036 -2.09663 -4.37229 0
M  V30 122 N 10.3467 1.47872 -0.545128 0
M  V30 123 C 11.2767 2.32661 0.197793 0
M  V30 124 C 12.2577 1.43041 0.920504 0
M  V30 125 O 13.4427 1.71912 0.90333 0
M  V30 126 C 10.5727 3.24569 1.23582 0
M  V30 127 C 9.5267 4.23333 0.630323 0
M  V30 128 C 8.8527 5.0448 1.77211 0
M  V30 129 C 10.1527 5.20704 -0.407974 0
M  V30 130 H 11.8467 2.95024 -0.510045 0
M  V30 131 H 9.3927 1.4187 -0.246731 0
M  V30 132 H 11.3457 3.8272 1.76362 0
M  V30 133 H 10.0697 2.60236 1.97344 0
M  V30 134 H 8.7287 3.6639 0.123922 0
M  V30 135 H 8.3767 4.36561 2.49847 0
M  V30 136 H 8.0767 5.71339 1.37281 0
M  V30 137 H 9.6007 5.65487 2.3034 0
M  V30 138 H 11.0147 5.7329 0.033305 0
M  V30 139 H 9.4117 5.95699 -0.725486 0
M  V30 140 H 10.4817 4.66917 -1.30828 0
M  V30 141 N 11.8248 0.280983 1.55075 0
M  V30 142 C 12.7548 -0.597469 2.25727 0
M  V30 143 C 13.7358 -1.15417 1.24952 0
M  V30 144 O 14.9208 -1.18722 1.53684 0
M  V30 145 C 12.0508 -1.7789 2.98283 0
M  V30 146 C 11.0048 -1.35347 4.06036 0
M  V30 147 C 10.3308 -2.61846 4.66198 0
M  V30 148 C 11.6308 -0.499354 5.19907 0
M  V30 149 H 13.3248 -0.00824265 2.99399 0
M  V30 150 H 10.8708 -0.0025244 1.44 0
M  V30 151 H 12.8238 -2.39937 3.46422 0
M  V30 152 H 11.5478 -2.39405 2.22155 0
M  V30 153 H 10.2068 -0.756156 3.58717 0
M  V30 154 H 9.8548 -3.21632 3.86732 0
M  V30 155 H 9.5548 -2.3409 5.38958 0
M  V30 156 H 11.0788 -3.24732 5.1709 0
M  V30 157 H 12.4928 -1.02498 5.64063 0
M  V30 158 H 10.8898 -0.316424 5.99265 0
M  V30 159 H 11.9598 0.480459 4.82514 0
M  V30 160 N 13.3029 -1.57598 0.00835791 0
M  V30 161 C 14.5509 -1.90551 -0.6734 0
M  V30 162 C 14.8719 -0.883301 -1.73847 0
M  V30 163 O 14.1419 0.0781442 -1.95744 0
M  V30 164 H 12.7219 -0.703312 -0.251717 0
M  V30 165 H 15.3839 -1.94833 0.0512592 0
M  V30 166 H 14.4799 -2.9056 -1.13935 0
M  V30 167 N 14.781 0.264519 -1.55364 0
M  V30 168 C 15.744 1.31046 -1.88042 0
M  V30 169 C 16.744 1.41943 -0.755569 0
M  V30 170 O 17.934 1.40947 -1.02369 0
M  V30 171 C 15.066 2.69067 -2.09323 0
M  V30 172 H 16.259 1.03297 -2.81549 0
M  V30 173 H 13.812 0.502989 -1.47986 0
M  V30 174 H 14.547 3.01982 -1.18226 0
M  V30 175 H 14.332 2.62542 -2.91229 0
M  V30 176 H 15.822 3.44623 -2.35848 0
M  V30 177 N 16.2591 1.48442 0.529413 0
M  V30 178 C 17.1891 1.65902 1.64313 0
M  V30 179 C 18.1701 0.507897 1.6234 0
M  V30 180 O 19.3551 0.740503 1.79528 0
M  V30 181 C 16.4851 1.69911 3.02898 0
M  V30 182 C 15.4391 2.8453 3.19729 0
M  V30 183 C 14.7651 2.73629 4.59381 0
M  V30 184 C 16.0651 4.25821 3.02447 0
M  V30 185 H 17.7591 2.5914 1.49955 0
M  V30 186 H 15.3051 1.24709 0.719982 0
M  V30 187 H 17.2581 1.80715 3.80684 0
M  V30 188 H 15.9821 0.732524 3.18279 0
M  V30 189 H 14.6411 2.73283 2.44361 0
M  V30 190 H 14.2891 1.74938 4.71599 0
M  V30 191 H 13.9891 3.50541 4.71588 0
M  V30 192 H 15.5131 2.86401 5.39265 0
M  V30 193 H 16.9271 4.37898 3.70024 0
M  V30 194 H 15.3241 5.03735 3.26146 0
M  V30 195 H 16.3941 4.42244 1.98867 0
M  V30 196 N 17.7372 -0.778329 1.37039 0
M  V30 197 C 18.7002 -1.87301 1.32102 0
M  V30 198 C 19.7002 -1.59198 0.226405 0
M  V30 199 O 20.8902 -1.67403 0.481861 0
M  V30 200 C 18.0222 -3.24309 1.05055 0
M  V30 201 H 19.2152 -1.93093 2.29467 0
M  V30 202 H 16.7682 -0.977358 1.21973 0
M  V30 203 H 17.5032 -3.24196 0.0819373 0
M  V30 204 H 17.2882 -3.46098 1.84279 0
M  V30 205 H 18.7782 -4.04382 1.04234 0
M  V30 206 N 19.2153 -1.21501 -1.00376 0
M  V30 207 C 20.1453 -0.999478 -2.11028 0
M  V30 208 C 21.1263 0.0759671 -1.6993 0
M  V30 209 O 22.3113 -0.0841106 -1.94018 0
M  V30 210 C 19.4413 -0.564709 -3.42678 0
M  V30 211 C 18.3953 -1.58486 -3.97576 0
M  V30 212 C 17.7213 -1.00628 -5.25146 0
M  V30 213 C 19.0213 -2.97204 -4.29496 0
M  V30 214 H 20.7153 -1.92495 -2.29317 0
M  V30 215 H 18.2613 -0.92693 -1.102 0
M  V30 216 H 20.2143 -0.401091 -4.19487 0
M  V30 217 H 18.9383 0.396411 -3.24185 0
M  V30 218 H 17.5973 -1.73606 -3.22888 0
M  V30 219 H 17.2453 -0.0368439 -5.02987 0
M  V30 220 H 16.9453 -1.68771 -5.62841 0
M  V30 221 H 18.4693 -0.854015 -6.04598 0
M  V30 222 H 19.8833 -2.8552 -4.97143 0
M  V30 223 H 18.2803 -3.62372 -4.78338 0
M  V30 224 H 19.3503 -3.47956 -3.3772 0
M  V30 225 N 20.6934 1.19889 -1.02296 0
M  V30 226 C 21.9214 1.9339 -0.735399 0
M  V30 227 C 22.3364 1.75148 0.704887 0
M  V30 228 O 21.6934 1.06954 1.47875 0
M  V30 229 C 21.7444 3.45313 -1.06962 0
M  V30 230 O 21.4654 3.62964 -2.45334 0
M  V30 231 C 22.9664 4.35948 -0.804021 0
M  V30 232 H 20.1864 0.61448 -0.269546 0
M  V30 233 H 22.7304 1.522 -1.36585 0
M  V30 234 H 20.8854 3.84359 -0.484455 0
M  V30 235 H 21.2994 4.56886 -2.57595 0
M  V30 236 H 22.7734 5.41174 -1.0879 0
M  V30 237 H 23.2504 4.3842 0.261691 0
M  V30 238 H 23.8564 4.02574 -1.37164 0
M  V30 239 N 22.1715 0.800033 1.35784 0
M  V30 240 C 23.1345 0.211565 2.28221 0
M  V30 241 C 24.1345 -0.59728 1.49296 0
M  V30 242 O 25.3245 -0.416721 1.69142 0
M  V30 243 C 22.4565 -0.705846 3.33513 0
M  V30 244 H 23.6495 1.02677 2.81776 0
M  V30 245 H 21.2025 0.570211 1.45528 0
M  V30 246 H 21.9375 -1.54498 2.85133 0
M  V30 247 H 21.7225 -0.127655 3.91892 0
M  V30 248 H 23.2125 -1.11211 4.02519 0
M  V30 249 N 23.6496 -1.47581 0.552962 0
M  V30 250 C 24.8956 -2.02782 0.0273648 0
M  V30 251 C 25.2286 -1.42687 -1.31734 0
M  V30 252 O 24.5036 -0.580897 -1.85623 0
M  V30 253 C 24.7866 -3.60031 -0.0702371 0
M  V30 254 C 24.6396 -4.30566 1.30126 0
M  V30 255 C 25.9586 -4.33028 -0.785771 0
M  V30 256 H 23.0776 -0.736912 0.0114185 0
M  V30 257 H 25.7196 -1.76056 0.714432 0
M  V30 258 H 23.8696 -3.82932 -0.655382 0
M  V30 259 H 25.5416 -4.19018 1.92929 0
M  V30 260 H 23.7846 -3.91086 1.87709 0
M  V30 261 H 24.4556 -5.39114 1.18573 0
M  V30 262 H 26.9316 -4.15095 -0.288982 0
M  V30 263 H 25.8076 -5.42695 -0.823013 0
M  V30 264 H 26.0686 -4.01945 -1.841 0
M  V30 265 N 25.1277 -0.289203 -1.54924 0
M  V30 266 C 26.0607 0.633823 -2.19221 0
M  V30 267 C 27.0387 1.14174 -1.15772 0
M  V30 268 O 28.2227 1.21211 -1.44361 0
M  V30 269 C 25.3497 1.86592 -2.82668 0
M  V30 270 C 24.3957 1.49227 -3.99542 0
M  V30 271 S 25.2287 0.558312 -5.32582 0
M  V30 272 C 26.3847 1.79847 -5.99505 0
M  V30 273 H 26.6177 0.0875416 -2.97171 0
M  V30 274 H 24.1507 -0.0733899 -1.54225 0
M  V30 275 H 26.1087 2.57305 -3.19851 0
M  V30 276 H 24.7697 2.38335 -2.04585 0
M  V30 277 H 23.9627 2.40945 -4.42676 0
M  V30 278 H 23.5647 0.865193 -3.63855 0
M  V30 279 H 25.8567 2.7406 -6.19595 0
M  V30 280 H 26.7997 1.4099 -6.93922 0
M  V30 281 H 27.2077 1.96982 -5.29016 0
M  V30 282 N 26.6058 1.57591 -0.0167156 0
M  V30 283 C 27.8308 1.9598 0.67872 0
M  V30 284 C 28.2558 0.892546 1.65575 0
M  V30 285 O 27.6138 -0.147772 1.80697 0
M  V30 286 C 27.6618 3.33468 1.37227 0
M  V30 287 O 26.7658 3.28954 2.48722 0
M  V30 288 H 26.1068 0.639339 0.17928 0
M  V30 289 H 28.6368 2.04463 -0.0748802 0
M  V30 290 H 28.6468 3.69417 1.7319 0
M  V30 291 H 27.3218 4.10694 0.656007 0
M  V30 292 H 25.8988 3.04705 2.14963 0
M  V30 293 N 28.0839 -0.256276 1.55502 0
M  V30 294 C 29.4949 -0.826068 1.67431 0
M  V30 295 C 29.8459 -1.86396 0.612446 0
M  V30 296 O 28.9709 -2.15031 -0.243025 0
M  V30 297 C 29.5659 -1.50512 3.03532 0
M  V30 298 C 28.1249 -2.02273 3.17431 0
M  V30 299 C 27.2719 -0.870548 2.63281 0
M  V30 300 H 30.2229 -0.0322728 1.58667 0
M  V30 301 H 30.2439 -2.37279 2.97454 0
M  V30 302 H 29.7559 -0.749484 3.80794 0
M  V30 303 H 27.8569 -2.80746 2.44974 0
M  V30 304 H 27.9699 -2.22655 4.24219 0
M  V30 305 H 26.3339 -1.26851 2.20864 0
M  V30 306 H 27.1169 -0.128149 3.43061 0
M  V30 307 N 29.562 -1.4872 -0.521534 0
M  V30 308 C 30.802 -1.58771 -1.28729 0
M  V30 309 C 31.166 -0.259394 -1.9024 0
M  V30 310 O 32.367 -0.234942 -2.67771 0
M  V30 311 C 30.638 -2.70039 -2.34124 0
M  V30 312 S 32.197 -2.9991 -3.20312 0
M  V30 313 H 29.015 -0.560251 -0.437767 0
M  V30 314 H 31.617 -1.86283 -0.593188 0
M  V30 315 H 30.321 -3.65101 -1.87429 0
M  V30 316 H 29.852 -2.44455 -3.08229 0
M  V30 317 H 31.867 -2.39855 -4.34378 0
M  V30 318 N 31.0401 0.771051 -1.3745 0
M  V30 319 C 32.2881 1.52661 -1.32435 0
M  V30 320 C 32.6091 1.9479 0.0905024 0
M  V30 321 O 31.8791 1.66348 1.03466 0
M  V30 322 H 30.4591 0.566218 -0.487244 0
M  V30 323 H 33.1211 0.917636 -1.71946 0
M  V30 324 H 32.2171 2.42568 -1.96385 0
M  V30 325 N 32.5182 1.22032 0.997298 0
M  V30 326 C 33.7662 1.04016 1.73278 0
M  V30 327 C 34.0872 -0.426255 1.90284 0
M  V30 328 O 33.3572 -1.30694 1.45931 0
M  V30 329 H 31.9372 0.381897 0.642 0
M  V30 330 H 34.5992 1.5347 1.20137 0
M  V30 331 H 33.6952 1.51441 2.72896 0
M  V30 332 N 33.9963 -1.19345 1.0293 0
M  V30 333 C 34.9063 -2.26245 0.620515 0
M  V30 334 C 35.9223 -1.70486 -0.347928 0
M  V30 335 O 37.0983 -2.00347 -0.205704 0
M  V30 336 C 34.1633 -3.46693 -0.0218957 0
M  V30 337 C 33.2243 -4.17632 0.994102 0
M  V30 338 C 32.4573 -5.32329 0.382253 0
M  V30 339 O 32.6803 -5.64552 -0.814676 0
M  V30 340 O 31.6143 -5.91664 1.10531 0
M  V30 341 H 35.4403 -2.63453 1.51083 0
M  V30 342 H 33.0253 -1.26207 0.799513 0
M  V30 343 H 34.9073 -4.19683 -0.380072 0
M  V30 344 H 33.5823 -3.11333 -0.886209 0
M  V30 345 H 32.4893 -3.4676 1.40387 0
M  V30 346 H 33.8223 -4.56964 1.8288 0
M  V30 347 N 35.4744 -0.807222 -1.35358 0
M  V30 348 C 36.7514 -0.311126 -1.9311 0
M  V30 349 C 37.1314 1.19937 -1.73719 0
M  V30 350 O 36.4794 1.99918 -1.10657 0
M  V30 351 C 36.6894 -0.723226 -3.41424 0
M  V30 352 C 38.0374 -0.713078 -4.18569 0
M  V30 353 O 39.0614 -0.664811 -3.49941 0
M  V30 354 O 37.9204 -0.772022 -5.41019 0
M  V30 355 H 35.0144 -0.081526 -0.822972 0
M  V30 356 H 37.5604 -0.890962 -1.4443 0
M  V30 357 H 36.3324 -1.76426 -3.4927 0
M  V30 358 H 35.9554 -0.118232 -3.97424 0
M  V30 359 N 36.9525 1.47285 -0.560781 0
M  V30 360 C 38.2015 2.01668 -0.035895 0
M  V30 361 C 38.5145 1.44021 1.32353 0
M  V30 362 O 39.7205 1.90088 1.93853 0
M  V30 363 C 38.1765 3.59897 -0.0136659 0
M  V30 364 C 37.7845 4.26536 -1.37006 0
M  V30 365 C 39.5285 4.22017 0.458425 0
M  V30 366 C 37.4355 5.76782 -1.30675 0
M  V30 367 H 36.3655 0.753938 -0.00964879 0
M  V30 368 H 39.0165 1.69243 -0.709166 0
M  V30 369 H 37.3985 3.89301 0.725325 0
M  V30 370 H 38.5725 4.0877 -2.12705 0
M  V30 371 H 36.8875 3.76419 -1.78038 0
M  V30 372 H 39.4845 5.32124 0.524247 0
M  V30 373 H 39.8275 3.89437 1.4712 0
M  V30 374 H 40.3605 3.97159 -0.225818 0
M  V30 375 H 37.0995 6.13988 -2.29564 0
M  V30 376 H 36.6195 5.96875 -0.591622 0
M  V30 377 H 38.2985 6.39063 -1.01033 0
M  V30 378 N 38.4306 0.297415 1.54768 0
M  V30 379 C 39.6766 -0.313376 2.00364 0
M  V30 380 C 40.0096 -1.53815 1.18553 0
M  V30 381 O 39.2846 -1.92739 0.261103 0
M  V30 382 C 39.5676 -0.673525 3.53745 0
M  V30 383 C 39.4206 0.560133 4.46299 0
M  V30 384 C 40.7396 -1.50143 4.13697 0
M  V30 385 H 37.8586 -0.112428 0.728374 0
M  V30 386 H 40.5006 0.4088 1.8555 0
M  V30 387 H 38.6506 -1.28881 3.665 0
M  V30 388 H 40.3226 1.19863 4.45455 0
M  V30 389 H 38.5656 1.19405 4.17043 0
M  V30 390 H 39.2366 0.26405 5.51368 0
M  V30 391 H 41.7126 -0.981588 4.04356 0
M  V30 392 H 40.5886 -1.72221 5.21182 0
M  V30 393 H 40.8496 -2.48952 3.65343 0
M  V30 394 N 39.9087 -1.5758 0.0250728 0
M  V30 395 C 40.8717 -2.08896 -0.943139 0
M  V30 396 C 41.8717 -1.00321 -1.25668 0
M  V30 397 O 43.0617 -1.26495 -1.19769 0
M  V30 398 C 40.1937 -2.55143 -2.26086 0
M  V30 399 H 41.3867 -2.95723 -0.498775 0
M  V30 400 H 38.9397 -1.54703 -0.222888 0
M  V30 401 H 39.6747 -1.71633 -2.75159 0
M  V30 402 H 39.4597 -3.34461 -2.04641 0
M  V30 403 H 40.9497 -2.95083 -2.95492 0
M  V30 404 N 41.3868 0.248026 -1.55636 0
M  V30 405 C 42.6638 0.998988 -1.68165 0
M  V30 406 C 43.0438 2.03409 -0.564621 0
M  V30 407 O 42.3918 2.24378 0.432076 0
M  V30 408 C 42.6018 1.63334 -3.0842 0
M  V30 409 C 43.9498 2.13562 -3.66983 0
M  V30 410 O 44.9738 1.73277 -3.11213 0
M  V30 411 O 43.8328 2.87526 -4.64749 0
M  V30 412 H 40.9268 0.464933 -0.683935 0
M  V30 413 H 43.4728 0.241902 -1.67967 0
M  V30 414 H 42.2448 0.884583 -3.8117 0
M  V30 415 H 41.8678 2.45666 -3.12624 0
M  V30 416 N 42.8649 1.48995 0.513639 0
M  V30 417 C 43.8149 1.61127 1.61314 0
M  V30 418 C 44.7989 0.467521 1.53958 0
M  V30 419 O 45.9909 0.719826 1.61702 0
M  V30 420 C 43.1199 1.66937 2.99978 0
M  V30 421 C 42.2059 2.86847 3.12377 0
M  V30 422 N 42.5969 4.11078 2.94701 0
M  V30 423 C 40.8949 2.84521 3.43459 0
M  V30 424 C 41.5959 4.91615 3.10949 0
M  V30 425 N 40.5719 4.24739 3.3926 0
M  V30 426 H 44.3739 2.54909 1.46282 0
M  V30 427 H 41.8879 1.45593 0.719483 0
M  V30 428 H 43.8849 1.73725 3.78979 0
M  V30 429 H 42.5449 0.742831 3.16089 0
M  V30 430 H 43.5559 4.41258 2.71131 0
M  V30 431 H 40.2329 2.01192 3.65825 0
M  V30 432 H 41.6229 6.00264 3.01882 0
M  V30 433 N 44.343 -0.763751 1.37857 0
M  V30 434 C 45.589 -1.52483 1.33704 0
M  V30 435 C 45.922 -1.94051 -0.0759612 0
M  V30 436 O 45.197 -1.64675 -1.03501 0
M  V30 437 C 45.48 -2.78441 2.28348 0
M  V30 438 C 45.333 -2.43075 3.78463 0
M  V30 439 C 46.652 -3.80415 2.21298 0
M  V30 440 H 43.771 -0.553169 0.487005 0
M  V30 441 H 46.413 -0.875562 1.68624 0
M  V30 442 H 44.563 -3.33842 1.987 0
M  V30 443 H 46.235 -1.93527 4.18742 0
M  V30 444 H 44.478 -1.75666 3.96641 0
M  V30 445 H 45.149 -3.33149 4.40132 0
M  V30 446 H 47.625 -3.34527 2.47449 0
M  V30 447 H 46.501 -4.66257 2.89647 0
M  V30 448 H 46.762 -4.25262 1.20849 0
M  V30 449 N 45.8211 -1.22559 -0.990812 0
M  V30 450 C 46.7841 -0.998863 -2.0629 0
M  V30 451 C 47.7841 0.0354834 -1.60761 0
M  V30 452 O 48.9741 -0.203231 -1.7301 0
M  V30 453 C 46.1061 -0.509203 -3.37076 0
M  V30 454 H 47.2991 -1.95014 -2.27837 0
M  V30 455 H 44.8521 -1.04456 -1.16269 0
M  V30 456 H 45.5871 0.446335 -3.21214 0
M  V30 457 H 45.3721 -1.25547 -3.71457 0
M  V30 458 H 46.8621 -0.370888 -4.1595 0
M  V30 459 N 47.2992 1.18797 -1.03562 0
M  V30 460 C 48.5242 1.9314 -0.755764 0
M  V30 461 C 48.9492 1.7537 0.68022 0
M  V30 462 O 48.3072 1.06046 1.47051 0
M  V30 463 C 48.3552 3.42747 -1.12058 0
M  V30 464 O 47.4592 4.11683 -0.243124 0
M  V30 465 H 46.8002 0.602724 -0.278604 0
M  V30 466 H 49.3302 1.50678 -1.3841 0
M  V30 467 H 49.3402 3.93437 -1.08035 0
M  V30 468 H 48.0152 3.55002 -2.16672 0
M  V30 469 H 46.5922 3.71323 -0.342539 0
M  V30 470 N 48.7773 0.814389 1.34928 0
M  V30 471 C 50.0073 0.41054 2.0248 0
M  V30 472 C 50.4153 -0.985625 1.61499 0
M  V30 473 O 49.7583 -1.64781 0.811976 0
M  V30 474 C 49.8203 0.423384 3.56998 0
M  V30 475 C 49.4843 1.77141 4.21272 0
M  V30 476 C 50.4813 2.73093 4.42398 0
M  V30 477 C 48.1663 2.05755 4.58225 0
M  V30 478 C 50.1603 3.95838 4.9959 0
M  V30 479 C 47.8473 3.28762 5.1513 0
M  V30 480 C 48.8453 4.23621 5.35755 0
M  V30 481 O 48.5333 5.44456 5.91458 0
M  V30 482 H 48.2653 0.163997 0.655806 0
M  V30 483 H 50.8193 1.10155 1.73364 0
M  V30 484 H 49.0493 -0.324276 3.85338 0
M  V30 485 H 50.7383 0.0407683 4.0588 0
M  V30 486 H 51.5043 2.5228 4.14222 0
M  V30 487 H 47.3833 1.32727 4.4148 0
M  V30 488 H 50.9273 4.69891 5.15605 0
M  V30 489 H 46.8243 3.49443 5.42734 0
M  V30 490 H 47.5923 5.4586 6.09901 0
M  V30 491 N 50.2554 -1.46986 0.568584 0
M  V30 492 C 51.5034 -2.02041 0.0487022 0
M  V30 493 C 51.8244 -1.44408 -1.31039 0
M  V30 494 O 51.0944 -0.623477 -1.85714 0
M  V30 495 H 49.6744 -0.746849 0.015014 0
M  V30 496 H 52.3364 -1.80257 0.741168 0
M  V30 497 H 51.4324 -3.12085 -0.0308961 0
M  V30 498 N 51.7335 -0.305618 -1.54608 0
M  V30 499 C 52.9795 0.302746 -2.00528 0
M  V30 500 C 53.3125 1.53184 -1.19367 0
M  V30 501 O 52.5875 1.92598 -0.271321 0
M  V30 502 C 52.8705 0.654756 -3.54097 0
M  V30 503 C 52.7235 -0.583793 -4.45995 0
M  V30 504 C 54.0425 1.47947 -4.14487 0
M  V30 505 H 51.1615 0.108564 -0.72896 0
M  V30 506 H 53.8035 -0.418634 -1.85331 0
M  V30 507 H 51.9535 1.26935 -3.67178 0
M  V30 508 H 53.6255 -1.22224 -4.44814 0
M  V30 509 H 51.8685 -1.21615 -4.16404 0
M  V30 510 H 52.5395 -0.293287 -5.5122 0
M  V30 511 H 55.0155 0.96013 -4.04871 0
M  V30 512 H 53.8915 1.69454 -5.22088 0
M  V30 513 H 54.1525 2.47011 -3.66658 0
M  V30 514 N 53.2116 1.57565 -0.0334293 0
M  V30 515 C 54.1596 2.1164 0.96496 0
M  V30 516 C 55.1536 1.04398 1.33407 0
M  V30 517 O 56.3596 1.22828 1.3158 0
M  V30 518 H 52.7346 0.676222 0.32898 0
M  V30 519 H 54.7056 2.94455 0.483614 0
M  V30 520 C 53.4546 2.66207 2.23672 0
M  V30 521 H 52.7776 3.48378 1.96145 0
M  V30 522 H 54.2176 3.07685 2.9173 0
M  V30 523 C 52.6766 1.59151 2.96939 0
M  V30 524 O 53.2066 0.993858 3.89211 0
M  V30 525 N 51.4126 1.31093 2.59351 0
M  V30 526 H 50.9596 1.7988 1.84393 0
M  V30 527 H 50.9176 0.596889 3.08682 0
M  V30 528 N 54.6897 -0.239769 1.55765 0
M  V30 529 C 55.9367 -0.966801 1.7793 0
M  V30 530 C 56.2647 -1.85046 0.599015 0
M  V30 531 O 55.5197 -1.91197 -0.417395 0
M  V30 532 C 55.8187 -1.852 3.05672 0
M  V30 533 C 55.4847 -1.1231 4.36689 0
M  V30 534 C 54.1467 -0.921689 4.72291 0
M  V30 535 C 56.4987 -0.607019 5.17653 0
M  V30 536 C 53.8267 -0.191996 5.86386 0
M  V30 537 C 56.1787 0.109241 6.32506 0
M  V30 538 C 54.8427 0.322073 6.66723 0
M  V30 539 H 54.1127 -0.353778 0.651093 0
M  V30 540 H 56.7597 -0.23634 1.90036 0
M  V30 541 H 55.0647 -2.64975 2.8861 0
M  V30 542 H 56.7617 -2.41635 3.20021 0
M  V30 543 H 53.3517 -1.29004 4.08725 0
M  V30 544 H 57.5357 -0.750153 4.90598 0
M  V30 545 H 52.7917 -0.0166949 6.11398 0
M  V30 546 H 56.9657 0.516737 6.9448 0
M  V30 547 H 54.5927 0.88944 7.54979 0
M  V30 548 N 56.1678 -1.49265 -0.50573 0
M  V30 549 C 57.3978 -1.61979 -1.28243 0
M  V30 550 C 57.8058 -0.288576 -1.86986 0
M  V30 551 O 57.1488 0.735408 -1.68337 0
M  V30 552 C 57.2108 -2.62632 -2.45489 0
M  V30 553 C 56.8748 -4.071 -2.07651 0
M  V30 554 C 57.8718 -4.94049 -1.61901 0
M  V30 555 C 55.5568 -4.52801 -2.17431 0
M  V30 556 C 57.5508 -6.24736 -1.26428 0
M  V30 557 C 55.2378 -5.83503 -1.8157 0
M  V30 558 C 56.2358 -6.69294 -1.36142 0
M  V30 559 O 55.9238 -7.9756 -1.00764 0
M  V30 560 H 55.6558 -0.54834 -0.395347 0
M  V30 561 H 58.2098 -1.96002 -0.614204 0
M  V30 562 H 56.4398 -2.2378 -3.15372 0
M  V30 563 H 58.1288 -2.64925 -3.07522 0
M  V30 564 H 58.8948 -4.5997 -1.53795 0
M  V30 565 H 54.7738 -3.86196 -2.51742 0
M  V30 566 H 58.3178 -6.91652 -0.908992 0
M  V30 567 H 54.2148 -6.17112 -1.89324 0
M  V30 568 H 54.9828 -8.10529 -1.13952 0
M  V30 569 N 57.6459 0.756429 -1.3826 0
M  V30 570 C 58.5779 1.87971 -1.31147 0
M  V30 571 C 59.5909 1.61248 -0.224239 0
M  V30 572 O 60.7799 1.71881 -0.481581 0
M  V30 573 C 57.8799 3.23545 -1.00857 0
M  V30 574 C 57.0529 3.77794 -2.20432 0
M  V30 575 C 56.1119 4.91877 -1.86931 0
M  V30 576 O 55.1379 5.06659 -2.59395 0
M  V30 577 N 56.3399 5.74643 -0.822568 0
M  V30 578 H 59.1049 1.94585 -2.2794 0
M  V30 579 H 56.6659 0.936234 -1.32084 0
M  V30 580 H 58.6579 3.97403 -0.765021 0
M  V30 581 H 57.2279 3.12335 -0.128687 0
M  V30 582 H 56.4479 2.95534 -2.6087 0
M  V30 583 H 57.7359 4.10771 -3.00241 0
M  V30 584 H 57.1339 5.65266 -0.221575 0
M  V30 585 H 55.6909 6.48661 -0.638899 0
M  V30 586 N 59.124 1.23083 0.984299 0
M  V30 587 C 60.349 1.088 1.76571 0
M  V30 588 C 60.774 -0.356657 1.84688 0
M  V30 589 O 60.132 -1.25788 1.30565 0
M  V30 590 C 60.18 1.71371 3.17277 0
M  V30 591 O 59.284 0.973213 4.00752 0
M  V30 592 H 58.625 0.381599 0.543395 0
M  V30 593 H 61.155 1.63057 1.23587 0
M  V30 594 H 61.165 1.76449 3.67872 0
M  V30 595 H 59.84 2.76493 3.10684 0
M  V30 596 H 58.417 0.999078 3.59267 0
M  V30 597 N 60.6021 -1.18246 1.0419 0
M  V30 598 C 61.5521 -2.19843 0.604392 0
M  V30 599 C 62.5361 -1.56962 -0.353814 0
M  V30 600 O 63.7281 -1.76156 -0.17267 0
M  V30 601 C 60.8571 -3.43287 -0.0298975 0
M  V30 602 C 59.9431 -4.13288 0.951531 0
M  V30 603 N 60.3341 -4.59271 2.11906 0
M  V30 604 C 58.6321 -4.39165 0.7778 0
M  V30 605 C 59.3331 -5.13173 2.73912 0
M  V30 606 N 58.3091 -5.04763 2.01779 0
M  V30 607 H 62.1111 -2.53089 1.4941 0
M  V30 608 H 59.6251 -1.34465 0.910658 0
M  V30 609 H 61.6221 -4.15334 -0.361037 0
M  V30 610 H 60.2821 -3.11537 -0.915127 0
M  V30 611 H 61.2931 -4.5368 2.49789 0
M  V30 612 H 57.9701 -4.17461 -0.0572331 0
M  V30 613 H 59.3601 -5.58947 3.72864 0
M  V30 614 N 62.0802 -0.821533 -1.34494 0
M  V30 615 C 63.3282 -0.408139 -1.97936 0
M  V30 616 C 63.6492 1.03193 -1.65457 0
M  V30 617 O 62.9192 1.71622 -0.944595 0
M  V30 618 H 61.4992 -0.147928 -0.732206 0
M  V30 619 H 64.1612 -1.05067 -1.64155 0
M  V30 620 H 63.2572 -0.52601 -3.07635 0
M  V30 621 N 63.5583 1.46682 -0.576371 0
M  V30 622 C 64.9693 1.86112 -0.148091 0
M  V30 623 C 65.3203 1.48073 1.2872 0
M  V30 624 O 64.4453 0.892656 1.97131 0
M  V30 625 C 65.0403 3.37786 -0.261982 0
M  V30 626 C 63.5993 3.76235 0.111384 0
M  V30 627 C 62.7463 2.70713 -0.60083 0
M  V30 628 H 65.6973 1.37927 -0.78497 0
M  V30 629 H 65.7183 3.77007 0.514364 0
M  V30 630 H 65.2303 3.6544 -1.30671 0
M  V30 631 H 63.3313 3.54198 1.15649 0
M  V30 632 H 63.4443 4.78391 -0.26052 0
M  V30 633 H 61.8083 2.54666 -0.0417783 0
M  V30 634 H 62.5913 3.01208 -1.64708 0
M  V30 635 N 65.0364 0.313813 1.54444 0
M  V30 636 C 66.2614 -0.296681 2.05267 0
M  V30 637 C 66.6864 -1.45757 1.18897 0
M  V30 638 O 66.0444 -1.80239 0.195886 0
M  V30 639 C 66.0924 -0.71831 3.53373 0
M  V30 640 O 65.1964 -1.82175 3.69981 0
M  V30 641 H 64.5374 -0.0554061 0.661684 0
M  V30 642 H 67.0674 0.459387 1.99376 0
M  V30 643 H 67.0774 -1.00364 3.95463 0
M  V30 644 H 65.7524 0.130821 4.15694 0
M  V30 645 H 64.3294 -1.53598 3.39797 0
M  V30 646 N 66.5145 -1.57545 0.0417849 0
M  V30 647 C 67.7625 -1.91937 -0.632829 0
M  V30 648 C 68.0835 -0.919978 -1.71934 0
M  V30 649 O 67.3535 0.0366064 -1.95866 0
M  V30 650 H 65.9335 -0.708493 -0.236742 0
M  V30 651 H 68.5955 -1.9468 0.0925745 0
M  V30 652 H 67.6915 -2.92912 -1.07746 0
M  V30 653 N 67.9926 0.231505 -1.5589 0
M  V30 654 C 68.9246 1.31006 -1.8807 0
M  V30 655 C 69.9376 1.43539 -0.768145 0
M  V30 656 O 71.1266 1.44614 -1.04638 0
M  V30 657 C 68.2266 2.68688 -2.06543 0
M  V30 658 C 67.3996 2.78228 -3.37502 0
M  V30 659 C 66.4586 3.96857 -3.4553 0
M  V30 660 O 65.4846 3.85662 -4.18633 0
M  V30 661 N 66.6866 5.1072 -2.75944 0
M  V30 662 H 69.4516 1.03731 -2.81176 0
M  V30 663 H 67.0126 0.421573 -1.56315 0
M  V30 664 H 69.0046 3.46412 -2.09239 0
M  V30 665 H 67.5746 2.88605 -1.20109 0
M  V30 666 H 66.7946 1.87059 -3.46991 0
M  V30 667 H 68.0826 2.81564 -4.23791 0
M  V30 668 H 67.4806 5.2271 -2.16311 0
M  V30 669 H 66.0376 5.86523 -2.84314 0
M  V30 670 N 69.4707 1.49531 0.497807 0
M  V30 671 C 70.7007 1.62657 1.27382 0
M  V30 672 C 71.1087 0.298488 1.86831 0
M  V30 673 O 70.4517 -0.72647 1.68725 0
M  V30 674 C 70.5137 2.6393 2.44093 0
M  V30 675 C 70.1777 4.08195 2.05489 0
M  V30 676 C 71.1747 4.949 1.59279 0
M  V30 677 C 68.8597 4.53948 2.15026 0
M  V30 678 C 70.8537 6.25397 1.23113 0
M  V30 679 C 68.5407 5.84458 1.78473 0
M  V30 680 C 69.5387 6.70006 1.32591 0
M  V30 681 O 69.2267 7.98083 0.965327 0
M  V30 682 H 68.9587 0.550429 0.392434 0
M  V30 683 H 71.5127 1.96325 0.603801 0
M  V30 684 H 69.7427 2.25449 3.14181 0
M  V30 685 H 71.4317 2.66552 3.06113 0
M  V30 686 H 72.1977 4.60779 1.51354 0
M  V30 687 H 68.0767 3.87525 2.4969 0
M  V30 688 H 71.6207 6.92125 0.872299 0
M  V30 689 H 67.5177 6.18107 1.86048 0
M  V30 690 H 68.2857 8.11122 1.09652 0
M  V30 691 N 70.9488 -0.749086 1.3866 0
M  V30 692 C 72.1768 -1.53834 1.38358 0
M  V30 693 C 72.5918 -1.88783 -0.0255219 0
M  V30 694 O 71.9488 -1.53101 -0.993292 0
M  V30 695 C 71.9998 -2.83468 2.2434 0
M  V30 696 O 71.7208 -2.50008 3.5976 0
M  V30 697 C 73.2218 -3.7758 2.32267 0
M  V30 698 H 70.4418 -0.47585 0.473083 0
M  V30 699 H 72.9858 -0.926726 1.82297 0
M  V30 700 H 71.1408 -3.40995 1.83851 0
M  V30 701 H 71.5548 -3.33182 4.05081 0
M  V30 702 H 73.0288 -4.65478 2.96706 0
M  V30 703 H 73.5058 -4.18334 1.33765 0
M  V30 704 H 74.1118 -3.25976 2.73166 0
M  V30 705 N 72.4269 -1.23603 -0.977757 0
M  V30 706 C 73.3769 -0.986664 -2.05545 0
M  V30 707 C 74.3609 0.0683009 -1.60755 0
M  V30 708 O 75.5529 -0.144162 -1.76412 0
M  V30 709 C 72.6819 -0.582623 -3.3832 0
M  V30 710 C 71.7679 -1.67313 -3.89701 0
M  V30 711 N 72.1589 -2.90394 -4.14132 0
M  V30 712 C 70.4569 -1.54832 -4.18262 0
M  V30 713 C 71.1579 -3.61017 -4.56116 0
M  V30 714 N 70.1339 -2.8854 -4.60701 0
M  V30 715 H 73.9359 -1.92139 -2.22396 0
M  V30 716 H 71.4499 -1.1358 -1.16074 0
M  V30 717 H 73.4469 -0.38524 -4.15116 0
M  V30 718 H 72.1069 0.34503 -3.22862 0
M  V30 719 H 73.1179 -3.26673 -4.01877 0
M  V30 720 H 69.7949 -0.687969 -4.11793 0
M  V30 721 H 71.1849 -4.66544 -4.83514 0
M  V30 722 N 73.905 1.17692 -1.04816 0
M  V30 723 C 74.815 2.25229 -0.65643 0
M  V30 724 C 75.831 1.71018 0.320761 0
M  V30 725 O 77.007 2.00649 0.173805 0
M  V30 726 C 74.072 3.46684 -0.0332629 0
M  V30 727 C 73.133 4.15997 -1.06042 0
M  V30 728 C 72.366 5.31654 -0.466893 0
M  V30 729 O 72.589 5.65777 0.724758 0
M  V30 730 O 71.523 5.89831 -1.1993 0
M  V30 731 H 75.349 2.61016 -1.55255 0
M  V30 732 H 72.934 1.24919 -0.81949 0
M  V30 733 H 74.816 4.20234 0.313256 0
M  V30 734 H 73.491 3.12703 0.836566 0
M  V30 735 H 72.398 3.44482 -1.45886 0
M  V30 736 H 73.731 4.53996 -1.90127 0
M  V30 737 N 75.3831 0.828654 1.34056 0
M  V30 738 C 76.6301 0.419458 1.98108 0
M  V30 739 C 76.9581 -1.01886 1.65679 0
M  V30 740 O 76.2131 -1.72539 0.923512 0
M  V30 741 C 76.5121 0.575226 3.52741 0
M  V30 742 C 76.1781 1.98012 4.05095 0
M  V30 743 C 74.8401 2.36442 4.19104 0
M  V30 744 C 77.1921 2.89824 4.33188 0
M  V30 745 C 74.5201 3.66009 4.58535 0
M  V30 746 C 76.8721 4.1886 4.74066 0
M  V30 747 C 75.5361 4.5726 4.86281 0
M  V30 748 H 74.8061 0.153491 0.724929 0
M  V30 749 H 77.4531 1.05371 1.59904 0
M  V30 750 H 75.7581 -0.142385 3.91541 0
M  V30 751 H 77.4551 0.239057 4.00287 0
M  V30 752 H 74.0451 1.67162 3.94658 0
M  V30 753 H 78.2291 2.61375 4.21897 0
M  V30 754 H 73.4851 3.95579 4.66184 0
M  V30 755 H 77.6591 4.90086 4.94761 0
M  V30 756 H 75.2861 5.57707 5.16592 0
M  V30 757 N 76.8612 -1.46375 0.584142 0
M  V30 758 C 78.1382 -1.956 0.0033388 0
M  V30 759 C 78.5182 -1.52679 -1.45782 0
M  V30 760 O 77.8662 -0.77816 -2.14842 0
M  V30 761 C 78.0762 -3.48551 0.176891 0
M  V30 762 C 79.4242 -4.24576 0.0454609 0
M  V30 763 O 80.4482 -3.56043 0.105801 0
M  V30 764 O 79.3072 -5.46427 -0.0890376 0
M  V30 765 H 76.4012 -0.825547 -0.0490066 0
M  V30 766 H 78.9472 -1.56652 0.65256 0
M  V30 767 H 77.7192 -3.72683 1.1926 0
M  V30 768 H 77.3422 -3.94332 -0.508695 0
M  V30 769 N 78.3393 -0.321999 -1.54275 0
M  V30 770 C 79.5873 0.280489 -2.00144 0
M  V30 771 C 79.9083 1.52777 -1.21178 0
M  V30 772 O 79.1783 1.9338 -0.313187 0
M  V30 773 H 77.7583 0.106632 -0.73935 0
M  V30 774 H 80.4203 -0.438184 -1.8991 0
M  V30 775 H 79.5163 0.537972 -3.07428 0
M  V30 776 N 79.8174 1.5752 -0.0501392 0
M  V30 777 C 81.0944 1.83996 0.663685 0
M  V30 778 C 81.4744 0.938339 1.89099 0
M  V30 779 O 80.8224 -0.00087759 2.285 0
M  V30 780 C 81.0324 3.33702 1.02196 0
M  V30 781 C 82.3804 4.00691 1.40469 0
M  V30 782 O 83.4044 3.38321 1.11433 0
M  V30 783 O 82.2634 5.10658 1.94654 0
M  V30 784 H 79.3574 0.759385 0.32751 0
M  V30 785 H 81.9034 1.69514 -0.0794238 0
M  V30 786 H 80.6754 3.91015 0.149364 0
M  V30 787 H 80.2984 3.53368 1.82255 0
M  V30 788 N 81.2955 -0.223234 1.56011 0
M  V30 789 C 82.2055 -1.29766 1.95443 0
M  V30 790 C 83.2215 -1.51373 0.858028 0
M  V30 791 O 84.3975 -1.64536 1.16146 0
M  V30 792 C 81.4625 -2.62772 2.26167 0
M  V30 793 C 80.5235 -2.49482 3.49367 0
M  V30 794 C 79.7565 -3.76145 3.78616 0
M  V30 795 O 79.9795 -4.79087 3.09568 0
M  V30 796 O 78.9135 -3.73358 4.72109 0
M  V30 797 H 82.7395 -0.99309 2.87004 0
M  V30 798 H 80.3245 -0.425958 1.43199 0
M  V30 799 H 82.2065 -3.41327 2.47131 0
M  V30 800 H 80.8815 -2.92913 1.37781 0
M  V30 801 H 79.7885 -1.69133 3.33684 0
M  V30 802 H 81.1215 -2.2428 4.38131 0
M  V30 803 N 82.7736 -1.49793 -0.48987 0
M  V30 804 C 83.6836 -1.70036 -1.61632 0
M  V30 805 C 84.6996 -0.583102 -1.63939 0
M  V30 806 O 85.8756 -0.859169 -1.82154 0
M  V30 807 C 82.9406 -1.77277 -2.97949 0
M  V30 808 C 82.0016 -3.00918 -3.06181 0
M  V30 809 C 81.2346 -3.07804 -4.35996 0
M  V30 810 O 81.4576 -2.21982 -5.25433 0
M  V30 811 O 80.3916 -4.00369 -4.49431 0
M  V30 812 H 84.2176 -2.65486 -1.47482 0
M  V30 813 H 81.8026 -1.33666 -0.667362 0
M  V30 814 H 83.6846 -1.84329 -3.78947 0
M  V30 815 H 82.3596 -0.850076 -3.12339 0
M  V30 816 H 81.2666 -2.99377 -2.2433 0
M  V30 817 H 82.5996 -3.92704 -2.96723 0
M  V30 818 N 84.2517 0.741722 -1.39055 0
M  V30 819 C 85.4987 1.50114 -1.35912 0
M  V30 820 C 85.8267 1.94443 0.0470937 0
M  V30 821 O 85.0817 1.66612 1.02659 0
M  V30 822 C 85.3807 2.7592 -2.27163 0
M  V30 823 C 85.0467 2.50493 -3.74919 0
M  V30 824 C 83.7087 2.43267 -4.1518 0
M  V30 825 C 86.0607 2.28585 -4.684 0
M  V30 826 C 83.3887 2.12166 -5.46994 0
M  V30 827 C 85.7407 1.99002 -6.00484 0
M  V30 828 C 84.4047 1.90241 -6.39816 0
M  V30 829 H 83.6747 0.549306 -0.497336 0
M  V30 830 H 86.3217 0.851896 -1.71508 0
M  V30 831 H 84.6267 3.45553 -1.84663 0
M  V30 832 H 86.3237 3.33923 -2.22028 0
M  V30 833 H 82.9137 2.56992 -3.43006 0
M  V30 834 H 87.0977 2.33139 -4.38132 0
M  V30 835 H 82.3537 2.03901 -5.76398 0
M  V30 836 H 86.5277 1.81057 -6.72452 0
M  V30 837 H 84.1547 1.65907 -7.41875 0
M  V30 838 N 85.7298 1.2412 0.971189 0
M  V30 839 C 86.9598 1.10415 1.7462 0
M  V30 840 C 87.3678 -0.346462 1.86001 0
M  V30 841 O 86.7108 -1.25104 1.34517 0
M  V30 842 C 86.7728 1.66596 3.18568 0
M  V30 843 C 86.4368 3.15446 3.3067 0
M  V30 844 C 87.4338 4.12636 3.16271 0
M  V30 845 C 85.1188 3.55337 3.55022 0
M  V30 846 C 87.1128 5.47699 3.26044 0
M  V30 847 C 84.7998 4.90542 3.64434 0
M  V30 848 C 85.7978 5.86532 3.49956 0
M  V30 849 O 85.4858 7.19279 3.59017 0
M  V30 850 H 85.2178 0.386616 0.55453 0
M  V30 851 H 87.7718 1.64633 1.22821 0
M  V30 852 H 86.0018 1.06808 3.71657 0
M  V30 853 H 87.6908 1.48232 3.77865 0
M  V30 854 H 88.4568 3.8316 2.97344 0
M  V30 855 H 84.3358 2.8113 3.65359 0
M  V30 856 H 87.8798 6.22603 3.14661 0
M  V30 857 H 83.7768 5.19691 3.82873 0
M  V30 858 H 84.5448 7.27153 3.75754 0
M  V30 859 N 87.2079 -1.17134 1.05439 0
M  V30 860 C 88.4539 -1.87733 0.767077 0
M  V30 861 C 88.7869 -1.8098 -0.704253 0
M  V30 862 O 88.0619 -1.21951 -1.5152 0
M  V30 863 C 88.3449 -3.37659 1.25133 0
M  V30 864 C 88.1979 -3.53149 2.78578 0
M  V30 865 C 89.5169 -4.31768 0.852324 0
M  V30 866 H 86.6359 -0.681687 0.280129 0
M  V30 867 H 89.2779 -1.37732 1.30881 0
M  V30 868 H 87.4279 -3.80373 0.790469 0
M  V30 869 H 89.0999 -3.19434 3.32806 0
M  V30 870 H 87.3429 -2.95345 3.17732 0
M  V30 871 H 88.0139 -4.58403 3.07523 0
M  V30 872 H 90.4899 -3.96909 1.24911 0
M  V30 873 H 89.3659 -5.35199 1.21873 0
M  V30 874 H 89.6269 -4.41429 -0.243485 0
M  V30 875 N 88.686 -0.835752 -1.33615 0
M  V30 876 C 89.963 -0.352017 -1.92406 0
M  V30 877 C 90.343 1.16225 -1.76224 0
M  V30 878 O 89.691 1.97526 -1.14873 0
M  V30 879 C 89.901 -0.795485 -3.39813 0
M  V30 880 C 91.249 -0.801703 -4.16963 0
M  V30 881 O 92.273 -0.738889 -3.48452 0
M  V30 882 O 91.132 -0.886607 -5.3926 0
M  V30 883 H 88.226 -0.0989641 -0.821057 0
M  V30 884 H 90.772 -0.921397 -1.42507 0
M  V30 885 H 89.544 -1.83795 -3.45449 0
M  V30 886 H 89.167 -0.202505 -3.97084 0
M  V30 887 N 90.1641 1.46063 -0.591896 0
M  V30 888 C 91.0941 2.33172 0.123673 0
M  V30 889 C 92.0751 1.45897 0.87453 0
M  V30 890 O 93.2601 1.74698 0.848181 0
M  V30 891 C 90.3901 3.28336 1.13194 0
M  V30 892 C 89.3441 4.25124 0.495324 0
M  V30 893 C 88.6701 5.09863 1.61071 0
M  V30 894 C 89.9701 5.19143 -0.573425 0
M  V30 895 H 91.6641 2.93252 -0.603646 0
M  V30 896 H 89.2101 1.41014 -0.291741 0
M  V30 897 H 91.1631 3.88137 1.64097 0
M  V30 898 H 89.8871 2.66383 1.88965 0
M  V30 899 H 88.5461 3.66599 0.00729452 0
M  V30 900 H 88.1941 4.44288 2.35832 0
M  V30 901 H 87.8941 5.75417 1.19035 0
M  V30 902 H 89.4181 5.72529 2.12233 0
M  V30 903 H 90.8321 5.73106 -0.1491 0
M  V30 904 H 89.2291 5.93089 -0.914636 0
M  V30 905 H 90.2991 4.62519 -1.45617 0
M  V30 906 N 91.6422 0.330177 1.54103 0
M  V30 907 C 92.5522 -0.541534 2.28264 0
M  V30 908 C 93.5682 -1.12351 1.32866 0
M  V30 909 O 94.7442 -1.14206 1.65888 0
M  V30 910 C 91.8092 -1.68322 3.03098 0
M  V30 911 C 90.8702 -1.13238 4.14096 0
M  V30 912 C 90.1032 -2.21966 4.85352 0
M  V30 913 O 90.3262 -3.42437 4.56172 0
M  V30 914 O 89.2602 -1.87013 5.7211 0
M  V30 915 H 93.0862 0.060938 3.03639 0
M  V30 916 H 90.6712 0.09565 1.49093 0
M  V30 917 H 92.5532 -2.34777 3.49939 0
M  V30 918 H 91.2282 -2.27176 2.30593 0
M  V30 919 H 90.1352 -0.432736 3.71589 0
M  V30 920 H 91.4682 -0.588898 4.88664 0
M  V30 921 N 93.1203 -1.57491 0.0584922 0
M  V30 922 C 94.3483 -1.97296 -0.623037 0
M  V30 923 C 94.7633 -0.936338 -1.63946 0
M  V30 924 O 94.1203 0.0785981 -1.82331 0
M  V30 925 C 94.1713 -3.37183 -1.30345 0
M  V30 926 O 93.8923 -4.36872 -0.32773 0
M  V30 927 C 95.3933 -3.91788 -2.07406 0
M  V30 928 H 92.6133 -0.649153 -0.169826 0
M  V30 929 H 95.1573 -2.04106 0.12696 0
M  V30 930 H 93.3123 -3.31502 -2.00463 0
M  V30 931 H 93.7263 -5.18141 -0.814269 0
M  V30 932 H 95.2003 -4.91926 -2.50425 0
M  V30 933 H 95.6773 -3.27609 -2.92521 0
M  V30 934 H 96.2833 -4.00829 -1.42184 0
M  V30 935 N 94.5984 0.214957 -1.56127 0
M  V30 936 C 95.5454 1.26642 -1.92952 0
M  V30 937 C 96.5154 1.46244 -0.78753 0
M  V30 938 O 97.7004 1.59704 -1.04399 0
M  V30 939 C 94.8404 2.6104 -2.25726 0
M  V30 940 C 93.9534 2.49183 -3.52891 0
M  V30 941 C 93.0884 3.76149 -3.7508 0
M  V30 942 C 92.1274 3.59041 -4.95738 0
M  V30 943 N 91.2644 4.77972 -5.14283 0
M  V30 944 H 96.1044 0.945384 -2.82607 0
M  V30 945 H 93.6414 0.455489 -1.3987 0
M  V30 946 H 95.5994 3.39313 -2.42739 0
M  V30 947 H 94.2294 2.91227 -1.39236 0
M  V30 948 H 93.2814 1.6231 -3.44034 0
M  V30 949 H 94.5934 2.32466 -4.41318 0
M  V30 950 H 93.7474 4.62865 -3.92226 0
M  V30 951 H 92.4864 3.95799 -2.84947 0
M  V30 952 H 91.4914 2.7071 -4.78535 0
M  V30 953 H 92.7164 3.40856 -5.87362 0
M  V30 954 H 90.6624 4.97923 -4.27093 0
M  V30 955 H 90.5794 4.64006 -5.96853 0
M  V30 956 H 91.8474 5.66096 -5.35869 0
M  V30 957 N 96.0765 1.50051 0.48192 0
M  V30 958 C 96.9865 1.7089 1.60728 0
M  V30 959 C 98.0025 0.591788 1.63627 0
M  V30 960 O 99.1785 0.868817 1.81696 0
M  V30 961 C 96.2435 1.78855 2.97005 0
M  V30 962 C 95.3045 3.02537 3.04581 0
M  V30 963 C 94.5375 3.10112 4.34357 0
M  V30 964 O 94.7605 2.24765 5.24249 0
M  V30 965 O 93.6945 4.02747 4.47301 0
M  V30 966 H 97.5205 2.66264 1.46072 0
M  V30 967 H 95.1055 1.34018 0.660264 0
M  V30 968 H 96.9875 1.86336 3.77964 0
M  V30 969 H 95.6625 0.866628 3.11883 0
M  V30 970 H 94.5695 3.00563 2.22739 0
M  V30 971 H 95.9025 3.94272 2.94636 0
M  V30 972 N 97.5546 -0.734337 1.39446 0
M  V30 973 C 98.7826 -1.52358 1.39981 0
M  V30 974 C 99.1976 -1.88799 -0.0054975 0
M  V30 975 O 98.5546 -1.54146 -0.976998 0
M  V30 976 C 98.6056 -2.81072 2.27333 0
M  V30 977 O 98.3266 -2.46178 3.62392 0
M  V30 978 C 99.8276 -3.75096 2.36259 0
M  V30 979 H 97.0476 -0.470806 0.478103 0
M  V30 980 H 99.5916 -0.907339 1.83269 0
M  V30 981 H 97.7466 -3.39026 1.87457 0
M  V30 982 H 98.1606 -3.28866 4.08592 0
M  V30 983 H 99.6346 -4.62305 3.01626 0
M  V30 984 H 100.112 -4.16892 1.38194 0
M  V30 985 H 100.718 -3.23061 2.76608 0
M  V30 986 N 99.0327 -1.24633 -0.964593 0
M  V30 987 C 100.279 -1.08949 -1.71049 0
M  V30 988 C 100.612 0.370302 -1.90637 0
M  V30 989 O 99.8867 1.27349 -1.47011 0
M  V30 990 C 100.17 -1.83329 -3.0994 0
M  V30 991 C 100.023 -3.37077 -2.97824 0
M  V30 992 C 101.342 -1.60846 -4.09654 0
M  V30 993 H 98.4607 -0.397178 -0.620821 0
M  V30 994 H 101.103 -1.5334 -1.12191 0
M  V30 995 H 99.2527 -1.45597 -3.60186 0
M  V30 996 H 100.925 -3.84425 -2.5498 0
M  V30 997 H 99.1677 -3.65298 -2.33965 0
M  V30 998 H 99.8387 -3.84324 -3.96231 0
M  V30 999 H 102.315 -1.93674 -3.68279 0
M  V30 1000 H 101.191 -2.1534 -5.04896 0
M  V30 1001 H 101.452 -0.547434 -4.38698 0
M  V30 1002 N 100.511 1.16574 -1.06058 0
M  V30 1003 C 101.757 1.87565 -0.78683 0
M  V30 1004 C 102.112 1.80012 0.679214 0
M  V30 1005 O 101.405 1.20327 1.49104 0
M  V30 1006 C 101.599 3.36195 -1.21275 0
M  V30 1007 C 101.428 3.58216 -2.71866 0
M  V30 1008 C 100.198 3.7444 -3.39298 0
M  V30 1009 C 102.396 3.57134 -3.70081 0
M  V30 1010 N 100.378 3.84389 -4.78663 0
M  V30 1011 C 101.749 3.73038 -4.9522 0
M  V30 1012 C 103.804 3.40332 -3.63426 0
M  V30 1013 C 102.507 3.73879 -6.14497 0
M  V30 1014 C 104.533 3.42466 -4.82153 0
M  V30 1015 C 103.895 3.58887 -6.06118 0
M  V30 1016 H 99.9938 0.704081 -0.340284 0
M  V30 1017 H 102.578 1.39885 -1.35426 0
M  V30 1018 H 100.749 3.82522 -0.673179 0
M  V30 1019 H 102.481 3.94839 -0.887917 0
M  V30 1020 H 99.2358 3.74662 -2.89699 0
M  V30 1021 H 99.6598 3.93138 -5.51155 0
M  V30 1022 H 104.302 3.26566 -2.68541 0
M  V30 1023 H 102.02 3.86427 -7.09718 0
M  V30 1024 H 105.606 3.30712 -4.78666 0
M  V30 1025 H 104.486 3.60454 -6.9645 0
M  V30 1026 N 101.989 0.842826 1.3317 0
M  V30 1027 C 102.921 0.236245 2.27979 0
M  V30 1028 C 103.934 -0.585282 1.51915 0
M  V30 1029 O 105.123 -0.411705 1.73687 0
M  V30 1030 C 102.223 -0.685717 3.3189 0
M  V30 1031 C 101.396 0.0973448 4.37292 0
M  V30 1032 C 100.455 -0.748565 5.20848 0
M  V30 1033 O 99.4809 -0.186339 5.68895 0
M  V30 1034 N 100.683 -2.06527 5.42519 0
M  V30 1035 H 103.448 1.05088 2.80672 0
M  V30 1036 H 101.009 0.701667 1.45905 0
M  V30 1037 H 103.001 -1.25669 3.84694 0
M  V30 1038 H 101.571 -1.40105 2.79445 0
M  V30 1039 H 100.791 0.849706 3.84933 0
M  V30 1040 H 102.079 0.635643 5.04814 0
M  V30 1041 H 101.477 -2.54554 5.05192 0
M  V30 1042 H 100.034 -2.58464 5.98364 0
M  V30 1043 N 103.467 -1.45747 0.599634 0
M  V30 1044 C 104.397 -2.33235 -0.111306 0
M  V30 1045 C 105.378 -1.46359 -0.866781 0
M  V30 1046 O 106.563 -1.75146 -0.838904 0
M  V30 1047 C 103.693 -3.28932 -1.11451 0
M  V30 1048 C 102.647 -4.25381 -0.472772 0
M  V30 1049 C 101.973 -5.1071 -1.58365 0
M  V30 1050 C 103.273 -5.18831 0.600948 0
M  V30 1051 H 104.967 -2.92927 0.61919 0
M  V30 1052 H 102.513 -1.40857 0.299215 0
M  V30 1053 H 104.466 -3.89002 -1.62036 0
M  V30 1054 H 103.19 -2.67381 -1.8755 0
M  V30 1055 H 101.849 -3.66598 0.0121472 0
M  V30 1056 H 101.497 -4.45533 -2.33473 0
M  V30 1057 H 101.197 -5.7604 -1.15982 0
M  V30 1058 H 102.721 -5.73647 -2.09194 0
M  V30 1059 H 104.135 -5.73019 0.179491 0
M  V30 1060 H 102.532 -5.92595 0.946076 0
M  V30 1061 H 103.602 -4.6174 1.48068 0
M  V30 1062 N 104.945 -0.338344 -1.53925 0
M  V30 1063 C 106.356 0.146651 -1.86123 0
M  V30 1064 C 106.707 1.5042 -1.2597 0
M  V30 1065 O 105.832 2.08723 -0.571294 0
M  V30 1066 C 106.427 0.272879 -3.37699 0
M  V30 1067 C 104.986 0.702103 -3.69794 0
M  V30 1068 C 104.133 -0.167304 -2.76795 0
M  V30 1069 H 107.084 -0.558123 -1.48562 0
M  V30 1070 H 107.105 1.10128 -3.64214 0
M  V30 1071 H 106.617 -0.715307 -3.81451 0
M  V30 1072 H 104.718 1.6995 -3.31584 0
M  V30 1073 H 104.831 0.495604 -4.7653 0
M  V30 1074 H 103.195 0.359527 -2.5215 0
M  V30 1075 H 103.978 -1.15253 -3.23375 0
M  V30 1076 N 106.423 1.57458 -0.0668435 0
M  V30 1077 C 107.356 2.08033 0.93795 0
M  V30 1078 C 108.334 0.984321 1.29421 0
M  V30 1079 O 109.518 1.25736 1.40437 0
M  V30 1080 C 106.645 2.53388 2.24749 0
M  V30 1081 C 105.691 3.74376 2.04315 0
M  V30 1082 S 106.524 5.19303 1.30706 0
M  V30 1083 C 107.68 5.67986 2.62951 0
M  V30 1084 H 107.913 2.92935 0.50759 0
M  V30 1085 H 105.446 1.5371 0.145804 0
M  V30 1086 H 107.404 2.8018 3.00016 0
M  V30 1087 H 106.065 1.68763 2.64911 0
M  V30 1088 H 105.258 4.04083 3.01218 0
M  V30 1089 H 104.86 3.47931 1.37186 0
M  V30 1090 H 107.152 5.74528 3.5906 0
M  V30 1091 H 108.095 6.66955 2.3786 0
M  V30 1092 H 108.503 4.95781 2.69929 0
M  V30 1093 N 107.901 -0.206675 1.56239 0
M  V30 1094 C 109.148 -0.928842 1.79941 0
M  V30 1095 C 109.476 -1.83734 0.638131 0
M  V30 1096 O 108.731 -1.92039 -0.376746 0
M  V30 1097 C 109.03 -1.78675 3.09532 0
M  V30 1098 C 108.696 -1.03022 4.38973 0
M  V30 1099 C 107.358 -0.821302 4.74139 0
M  V30 1100 C 109.71 -0.497081 5.18824 0
M  V30 1101 C 107.038 -0.0675719 5.86661 0
M  V30 1102 C 109.39 0.24338 6.32132 0
M  V30 1103 C 108.054 0.463422 6.65889 0
M  V30 1104 H 107.324 -0.339887 0.658451 0
M  V30 1105 H 109.971 -0.195977 1.90495 0
M  V30 1106 H 108.276 -2.58794 2.94165 0
M  V30 1107 H 109.973 -2.34792 3.25075 0
M  V30 1108 H 106.563 -1.20306 4.11369 0
M  V30 1109 H 110.747 -0.645921 4.92079 0
M  V30 1110 H 106.003 0.112995 6.11296 0
M  V30 1111 H 110.177 0.66393 6.93228 0
M  V30 1112 H 107.804 1.04938 7.52922 0
M  V30 1113 N 109.379 -1.50304 -0.473955 0
M  V30 1114 C 110.604 -1.65175 -1.25427 0
M  V30 1115 C 111.029 -0.333673 -1.85117 0
M  V30 1116 O 110.387 0.702114 -1.67153 0
M  V30 1117 C 110.435 -2.74295 -2.34082 0
M  V30 1118 O 109.539 -2.35349 -3.38651 0
M  V30 1119 H 108.88 -0.551944 -0.369126 0
M  V30 1120 H 111.41 -1.96662 -0.564364 0
M  V30 1121 H 111.42 -2.97285 -2.79438 0
M  V30 1122 H 110.095 -3.69959 -1.90008 0
M  V30 1123 H 108.672 -2.22794 -2.99027 0
M  V30 1124 N 110.857 0.726932 -1.39834 0
M  V30 1125 C 111.804 1.841 -1.39197 0
M  V30 1126 C 112.774 1.642 -0.250502 0
M  V30 1127 O 113.959 1.85494 -0.446846 0
M  V30 1128 C 111.099 3.21697 -1.24919 0
M  V30 1129 C 110.212 3.53247 -2.48678 0
M  V30 1130 C 109.347 4.80289 -2.26928 0
M  V30 1131 C 108.386 5.04707 -3.4632 0
M  V30 1132 N 107.523 6.22956 -3.23836 0
M  V30 1133 H 112.363 1.83979 -2.34427 0
M  V30 1134 H 109.9 0.898876 -1.16442 0
M  V30 1135 H 111.858 4.01137 -1.1465 0
M  V30 1136 H 110.488 3.21076 -0.333153 0
M  V30 1137 H 109.54 2.68447 -2.69519 0
M  V30 1138 H 110.852 3.67205 -3.37582 0
M  V30 1139 H 110.006 5.67725 -2.13947 0
M  V30 1140 H 108.745 4.68519 -1.35431 0
M  V30 1141 H 107.75 4.1573 -3.5979 0
M  V30 1142 H 108.975 5.18357 -4.38729 0
M  V30 1143 H 106.921 6.12459 -2.35011 0
M  V30 1144 H 106.838 6.37539 -4.063 0
M  V30 1145 H 108.106 7.1321 -3.14566 0
M  V30 1146 N 112.336 1.25143 0.95797 0
M  V30 1147 C 113.583 1.09692 1.70217 0
M  V30 1148 C 113.911 -0.362654 1.91089 0
M  V30 1149 O 113.166 -1.28386 1.47701 0
M  V30 1150 C 113.465 1.79272 3.09187 0
M  V30 1151 C 113.131 3.29196 3.08125 0
M  V30 1152 C 111.793 3.70096 3.07543 0
M  V30 1153 C 114.145 4.24995 3.0171 0
M  V30 1154 C 111.473 5.05213 2.9829 0
M  V30 1155 C 113.825 5.60132 2.93999 0
M  V30 1156 C 112.489 6.00365 2.9175 0
M  V30 1157 H 111.759 0.401393 0.622868 0
M  V30 1158 H 114.406 1.55372 1.11945 0
M  V30 1159 H 112.711 1.26014 3.70982 0
M  V30 1160 H 114.408 1.64773 3.65583 0
M  V30 1161 H 110.998 2.96651 3.09348 0
M  V30 1162 H 115.182 3.9439 3.01281 0
M  V30 1163 H 110.438 5.35569 2.94916 0
M  V30 1164 H 114.612 6.3406 2.87996 0
M  V30 1165 H 112.239 7.05023 2.84336 0
M  V30 1166 N 113.814 -1.1601 1.06675 0
M  V30 1167 C 115.063 -1.85973 0.780818 0
M  V30 1168 C 115.376 -1.82819 -0.695444 0
M  V30 1169 O 116.582 -2.484 -1.09589 0
M  V30 1170 C 115.038 -3.33757 1.34665 0
M  V30 1171 C 114.646 -3.45374 2.85343 0
M  V30 1172 C 116.39 -4.0895 1.13843 0
M  V30 1173 C 114.297 -4.87266 3.35151 0
M  V30 1174 H 113.227 -0.696661 0.288407 0
M  V30 1175 H 115.878 -1.30903 1.28595 0
M  V30 1176 H 114.26 -3.88456 0.769274 0
M  V30 1177 H 115.434 -3.00816 3.49065 0
M  V30 1178 H 113.749 -2.83619 3.04876 0
M  V30 1179 H 116.346 -5.13654 1.4854 0
M  V30 1180 H 116.689 -4.16229 0.0770282 0
M  V30 1181 H 117.222 -3.605 1.68179 0
M  V30 1182 H 113.961 -4.85168 4.40786 0
M  V30 1183 H 113.481 -5.32433 2.76179 0
M  V30 1184 H 115.16 -5.56097 3.30704 0
M  V30 1185 N 115.292 -0.849877 -1.32721 0
M  V30 1186 C 116.517 -0.463856 -2.02146 0
M  V30 1187 C 116.942 0.930449 -1.63476 0
M  V30 1188 O 116.3 1.61033 -0.832952 0
M  V30 1189 C 116.348 -0.604955 -3.55489 0
M  V30 1190 O 115.452 0.36425 -4.10788 0
M  V30 1191 H 114.793 -0.187046 -0.637111 0
M  V30 1192 H 117.323 -1.14775 -1.69375 0
M  V30 1193 H 117.333 -0.490696 -4.05038 0
M  V30 1194 H 116.008 -1.62174 -3.82978 0
M  V30 1195 H 114.585 0.206628 -3.72327 0
M  V30 1196 N 116.77 1.45427 -0.607355 0
M  V30 1197 C 118.017 2.02241 -0.102455 0
M  V30 1198 C 118.345 1.4758 1.26691 0
M  V30 1199 O 117.6 0.640468 1.84923 0
M  V30 1200 C 117.899 3.57398 -0.0129263 0
M  V30 1201 C 117.565 4.3121 -1.31792 0
M  V30 1202 C 116.227 4.51092 -1.67539 0
M  V30 1203 C 118.579 4.73401 -2.18039 0
M  V30 1204 C 115.907 5.10422 -2.89285 0
M  V30 1205 C 118.259 5.34078 -3.39034 0
M  V30 1206 C 116.923 5.52184 -3.75033 0
M  V30 1207 H 116.193 0.740051 -0.037491 0
M  V30 1208 H 118.84 1.74494 -0.788926 0
M  V30 1209 H 117.145 3.84421 0.756806 0
M  V30 1210 H 118.842 3.99061 0.393881 0
M  V30 1211 H 115.432 4.16047 -1.02968 0
M  V30 1212 H 119.616 4.57774 -1.91721 0
M  V30 1213 H 114.872 5.22629 -3.17283 0
M  V30 1214 H 119.046 5.65724 -4.06115 0
M  V30 1215 H 116.673 5.97925 -4.69457 0
M  V30 1216 N 118.248 0.346503 1.53744 0
M  V30 1217 C 119.525 -0.304532 1.93215 0
M  V30 1218 C 119.905 -1.67993 1.27834 0
M  V30 1219 O 119.253 -2.24411 0.430352 0
M  V30 1220 C 119.463 -0.373852 3.46992 0
M  V30 1221 C 120.811 -0.62329 4.2 0
M  V30 1222 O 121.835 -0.455847 3.53271 0
M  V30 1223 O 120.694 -0.947879 5.38217 0
M  V30 1224 H 117.788 -0.178318 0.807547 0
M  V30 1225 H 120.334 0.397895 1.64969 0
M  V30 1226 H 119.106 0.591224 3.86808 0
M  V30 1227 H 118.729 -1.12294 3.81413 0
M  V30 1228 N 119.726 -1.57421 0.075193 0
M  V30 1229 C 121.137 -1.81021 -0.456964 0
M  V30 1230 C 121.488 -0.98936 -1.69429 0
M  V30 1231 O 120.613 -0.212865 -2.15351 0
M  V30 1232 C 121.208 -3.28329 -0.83581 0
M  V30 1233 C 119.767 -3.52764 -1.31281 0
M  V30 1234 C 118.914 -2.75676 -0.299648 0
M  V30 1235 H 121.865 -1.55822 0.300856 0
M  V30 1236 H 121.886 -3.40564 -1.69696 0
M  V30 1237 H 121.398 -3.88046 0.0649238 0
M  V30 1238 H 119.499 -2.98355 -2.23193 0
M  V30 1239 H 119.612 -4.61451 -1.28839 0
M  V30 1240 H 117.976 -2.42538 -0.777641 0
M  V30 1241 H 118.759 -3.38132 0.593417 0
M  V30 1242 N 121.204 0.198386 -1.56346 0
M  V30 1243 C 122.136 1.26987 -1.90806 0
M  V30 1244 C 123.149 1.41877 -0.798419 0
M  V30 1245 O 124.338 1.42362 -1.07682 0
M  V30 1246 C 121.438 2.64246 -2.12196 0
M  V30 1247 C 120.611 2.71007 -3.43328 0
M  V30 1248 C 119.67 3.89439 -3.5387 0
M  V30 1249 O 118.696 3.76695 -4.26719 0
M  V30 1250 N 119.898 5.04752 -2.86715 0
M  V30 1251 H 122.663 0.977433 -2.83313 0
M  V30 1252 H 120.224 0.388322 -1.57174 0
M  V30 1253 H 122.216 3.41896 -2.1654 0
M  V30 1254 H 120.786 2.85992 -1.26204 0
M  V30 1255 H 120.006 1.79657 -3.50881 0
M  V30 1256 H 121.294 2.72512 -4.29668 0
M  V30 1257 H 120.692 5.18004 -2.2735 0
M  V30 1258 H 119.249 5.8036 -2.96691 0
M  V30 1259 N 122.682 1.50554 0.465978 0
M  V30 1260 C 123.907 1.65838 1.24549 0
M  V30 1261 C 124.332 0.343486 1.84937 0
M  V30 1262 O 123.69 -0.69324 1.67523 0
M  V30 1263 C 123.738 2.75533 2.32624 0
M  V30 1264 O 122.842 2.37142 3.37398 0
M  V30 1265 H 122.183 0.553893 0.366194 0
M  V30 1266 H 124.713 1.96959 0.553927 0
M  V30 1267 H 124.723 2.98763 2.77857 0
M  V30 1268 H 123.398 3.70962 1.88043 0
M  V30 1269 H 121.975 2.24377 2.97841 0
M  V30 1270 N 124.16 -0.719506 1.40217 0
M  V30 1271 C 125.123 -1.8153 1.39927 0
M  V30 1272 C 126.123 -1.58095 0.293723 0
M  V30 1273 O 127.313 -1.65209 0.552429 0
M  V30 1274 C 124.445 -3.19561 1.18716 0
M  V30 1275 H 125.638 -1.83186 2.37451 0
M  V30 1276 H 123.191 -0.924746 1.26008 0
M  V30 1277 H 123.926 -3.23557 0.219366 0
M  V30 1278 H 123.711 -3.3797 1.98793 0
M  V30 1279 H 125.201 -3.99598 1.21291 0
M  V30 1280 N 125.638 -1.25649 -0.95132 0
M  V30 1281 C 126.568 -1.08808 -2.06599 0
M  V30 1282 C 127.549 0.00382547 -1.701 0
M  V30 1283 O 128.734 -0.166325 -1.93486 0
M  V30 1284 C 125.864 -0.709542 -3.39975 0
M  V30 1285 C 124.818 -1.75206 -3.90496 0
M  V30 1286 C 124.144 -1.22811 -5.20405 0
M  V30 1287 C 125.444 -3.15153 -4.16504 0
M  V30 1288 H 127.138 -2.02048 -2.20946 0
M  V30 1289 H 124.684 -0.972835 -1.06169 0
M  V30 1290 H 126.637 -0.578649 -4.17408 0
M  V30 1291 H 125.361 0.258556 -3.25575 0
M  V30 1292 H 124.02 -1.87145 -3.15234 0
M  V30 1293 H 123.668 -0.250145 -5.02378 0
M  V30 1294 H 123.368 -1.92492 -5.55176 0
M  V30 1295 H 124.892 -1.10968 -6.00432 0
M  V30 1296 H 126.306 -3.06349 -4.84586 0
M  V30 1297 H 124.703 -3.82333 -4.62538 0
M  V30 1298 H 125.773 -3.61966 -3.22658 0
M  V30 1299 N 127.117 1.15442 -1.07289 0
M  V30 1300 C 128.533 1.38201 -0.798288 0
M  V30 1301 C 128.733 1.92429 0.597769 0
M  V30 1302 O 127.789 2.12962 1.3566 0
M  V30 1303 C 129.102 2.35357 -1.87156 0
M  V30 1304 C 130.65 2.49021 -1.89624 0
M  V30 1305 C 131.125 3.49468 -2.96034 0
M  V30 1306 N 132.616 3.57003 -2.95132 0
M  V30 1307 C 133.351 4.34543 -3.74112 0
M  V30 1308 N 132.847 5.15421 -4.6294 0
M  V30 1309 N 134.64 4.29625 -3.62462 0
M  V30 1310 H 126.791 0.78584 -1.97328 0
M  V30 1311 H 129.054 0.408065 -0.855679 0
M  V30 1312 H 128.76 2.02626 -2.87464 0
M  V30 1313 H 128.634 3.35129 -1.73114 0
M  V30 1314 H 131.021 2.81051 -0.899687 0
M  V30 1315 H 131.102 1.4925 -2.07745 0
M  V30 1316 H 130.746 3.18173 -3.95889 0
M  V30 1317 H 130.676 4.48992 -2.75161 0
M  V30 1318 H 133.167 2.99276 -2.30743 0
M  V30 1319 H 133.48 5.7183 -5.19837 0
M  V30 1320 H 131.825 5.14729 -4.66989 0
M  V30 1321 H 135.016 3.65505 -2.92444 0
M  V30 1322 H 135.189 4.89807 -4.24256 0
M  V30 1323 N 128.595 0.856903 1.32268 0
M  V30 1324 C 129.543 0.291987 2.3076 0
M  V30 1325 C 130.537 -0.585857 1.58947 0
M  V30 1326 O 131.743 -0.47341 1.73663 0
M  V30 1327 H 128.118 0.075721 0.748178 0
M  V30 1328 H 130.089 1.13687 2.75895 0
M  V30 1329 C 128.838 -0.502869 3.44044 0
M  V30 1330 H 128.161 0.163328 3.99466 0
M  V30 1331 H 129.601 -0.863691 4.1511 0
M  V30 1332 C 128.06 -1.68898 2.91505 0
M  V30 1333 O 128.59 -2.78811 2.89184 0
M  V30 1334 N 126.796 -1.51679 2.47875 0
M  V30 1335 H 126.343 -0.622666 2.49961 0
M  V30 1336 H 126.301 -2.31184 2.13076 0
M  V30 1337 N 130.073 -1.45103 0.615059 0
M  V30 1338 C 131.006 -2.27717 -0.148408 0
M  V30 1339 C 131.984 -1.37584 -0.866572 0
M  V30 1340 O 133.168 -1.67017 -0.87393 0
M  V30 1341 C 130.295 -3.16136 -1.21557 0
M  V30 1342 C 129.341 -4.22263 -0.599712 0
M  V30 1343 S 130.174 -5.3215 0.598081 0
M  V30 1344 C 131.33 -6.24137 -0.469484 0
M  V30 1345 H 131.563 -2.92121 0.552483 0
M  V30 1346 H 129.096 -1.49054 0.402778 0
M  V30 1347 H 131.054 -3.67633 -1.82638 0
M  V30 1348 H 129.715 -2.50982 -1.88857 0
M  V30 1349 H 128.908 -4.84081 -1.4029 0
M  V30 1350 H 128.51 -3.73945 -0.063876 0
M  V30 1351 H 130.802 -6.63984 -1.34652 0
M  V30 1352 H 131.745 -7.0801 0.112725 0
M  V30 1353 H 132.153 -5.58971 -0.788168 0
M  V30 1354 N 131.551 -0.354651 -1.53558 0
M  V30 1355 C 132.514 0.484566 -2.24019 0
M  V30 1356 C 133.514 1.01861 -1.24422 0
M  V30 1357 O 134.704 0.906097 -1.4878 0
M  V30 1358 C 131.836 1.67615 -2.96847 0
M  V30 1359 H 133.029 -0.131843 -2.9961 0
M  V30 1360 H 130.582 -0.106165 -1.55939 0
M  V30 1361 H 131.317 2.33095 -2.25471 0
M  V30 1362 H 131.102 1.30029 -3.69912 0
M  V30 1363 H 132.592 2.27114 -3.50441 0
M  V30 1364 N 133.029 1.57378 -0.0835403 0
M  V30 1365 C 134.275 1.94217 0.583733 0
M  V30 1366 C 134.608 0.964653 1.68547 0
M  V30 1367 O 133.883 -0.00422258 1.945 0
M  V30 1368 C 134.166 3.41253 1.14972 0
M  V30 1369 C 134.019 4.49768 0.0538277 0
M  V30 1370 C 135.338 3.89352 2.05166 0
M  V30 1371 H 132.457 0.706233 0.210724 0
M  V30 1372 H 135.099 1.89392 -0.1519 0
M  V30 1373 H 133.249 3.45496 1.77665 0
M  V30 1374 H 134.921 4.57641 -0.579851 0
M  V30 1375 H 133.164 4.29432 -0.614068 0
M  V30 1376 H 133.835 5.49817 0.490452 0
M  V30 1377 H 136.311 3.87189 1.52393 0
M  V30 1378 H 135.187 4.92822 2.41698 0
M  V30 1379 H 135.448 3.27973 2.96456 0
M  V30 1380 N 134.507 -0.190092 1.56449 0
M  V30 1381 C 135.755 -0.907908 1.80559 0
M  V30 1382 C 136.076 -1.83583 0.657438 0
M  V30 1383 O 135.346 -1.93203 -0.323924 0
M  V30 1384 H 133.926 -0.338247 0.666032 0
M  V30 1385 H 136.588 -0.194403 1.93928 0
M  V30 1386 H 135.684 -1.49604 2.73907 0
M  V30 1387 N 135.985 -1.50799 -0.457987 0
M  V30 1388 C 136.932 -1.70617 -1.5543 0
M  V30 1389 C 137.902 -0.547562 -1.56815 0
M  V30 1390 O 139.087 -0.779647 -1.74144 0
M  V30 1391 C 136.227 -1.81831 -2.93311 0
M  V30 1392 C 135.34 -3.09278 -3.01615 0
M  V30 1393 C 134.475 -3.11209 -4.30491 0
M  V30 1394 C 133.514 -4.33055 -4.32585 0
M  V30 1395 N 132.651 -4.32652 -5.52952 0
M  V30 1396 H 137.491 -2.64207 -1.37836 0
M  V30 1397 H 135.028 -1.30959 -0.669937 0
M  V30 1398 H 136.986 -1.86314 -3.73287 0
M  V30 1399 H 135.616 -0.916685 -3.0951 0
M  V30 1400 H 134.668 -3.14203 -2.1443 0
M  V30 1401 H 135.98 -3.99233 -2.99022 0
M  V30 1402 H 135.134 -3.14494 -5.18824 0
M  V30 1403 H 133.873 -2.19106 -4.35711 0
M  V30 1404 H 132.878 -4.29969 -3.42647 0
M  V30 1405 H 134.103 -5.264 -4.29046 0
M  V30 1406 H 132.049 -3.43409 -5.58933 0
M  V30 1407 H 131.966 -5.16392 -5.52155 0
M  V30 1408 H 133.234 -4.40101 -6.43375 0
M  V30 1409 N 137.463 0.71206 -1.40597 0
M  V30 1410 C 138.413 1.81783 -1.37619 0
M  V30 1411 C 139.397 1.58896 -0.253162 0
M  V30 1412 O 140.589 1.70009 -0.492547 0
M  V30 1413 C 137.718 3.19944 -1.24462 0
M  V30 1414 C 136.804 3.48582 -2.4156 0
M  V30 1415 N 137.195 3.48016 -3.67041 0
M  V30 1416 C 135.493 3.79056 -2.35016 0
M  V30 1417 C 136.194 3.75096 -4.44609 0
M  V30 1418 N 135.17 3.94022 -3.74497 0
M  V30 1419 H 138.972 1.79683 -2.32575 0
M  V30 1420 H 136.486 0.91134 -1.34419 0
M  V30 1421 H 138.483 3.99133 -1.20411 0
M  V30 1422 H 137.143 3.23267 -0.304762 0
M  V30 1423 H 138.154 3.28782 -4.00153 0
M  V30 1424 H 134.831 3.89848 -1.49415 0
M  V30 1425 H 136.221 3.80934 -5.53479 0
M  V30 1426 N 138.941 1.26152 0.944643 0
M  V30 1427 C 140.169 1.14259 1.72489 0
M  V30 1428 C 140.584 -0.302555 1.8636 0
M  V30 1429 O 139.941 -1.20741 1.36849 0
M  V30 1430 C 139.992 1.80266 3.13347 0
M  V30 1431 O 139.713 3.19133 3.00143 0
M  V30 1432 C 141.214 1.74283 4.07603 0
M  V30 1433 H 138.434 0.398051 0.540181 0
M  V30 1434 H 140.978 1.66706 1.18446 0
M  V30 1435 H 139.133 1.31766 3.64303 0
M  V30 1436 H 139.547 3.51744 3.89071 0
M  V30 1437 H 141.021 2.25111 5.04013 0
M  V30 1438 H 141.498 0.708631 4.33446 0
M  V30 1439 H 142.104 2.22319 3.62567 0
M  V30 1440 N 140.419 -1.14872 1.07899 0
M  V30 1441 C 141.349 -2.2193 0.725887 0
M  V30 1442 C 142.33 -1.67622 -0.28927 0
M  V30 1443 O 143.515 -1.93533 -0.160787 0
M  V30 1444 C 140.645 -3.47061 0.128856 0
M  V30 1445 C 139.599 -4.14363 1.07178 0
M  V30 1446 C 138.925 -5.33636 0.337229 0
M  V30 1447 C 140.225 -4.63492 2.40775 0
M  V30 1448 H 141.919 -2.51724 1.62097 0
M  V30 1449 H 139.465 -1.20991 0.780838 0
M  V30 1450 H 141.418 -4.21199 -0.130147 0
M  V30 1451 H 140.142 -3.16617 -0.80134 0
M  V30 1452 H 138.801 -3.42173 1.3158 0
M  V30 1453 H 138.449 -4.99449 -0.596606 0
M  V30 1454 H 138.149 -5.79609 0.965788 0
M  V30 1455 H 139.673 -6.10539 0.0861567 0
M  V30 1456 H 141.087 -5.2913 2.20669 0
M  V30 1457 H 139.484 -5.20148 2.99276 0
M  V30 1458 H 140.554 -3.78834 3.02676 0
M  V30 1459 N 141.898 -0.863906 -1.31812 0
M  V30 1460 C 142.808 -0.318461 -2.32428 0
M  V30 1461 C 143.824 0.568496 -1.64451 0
M  V30 1462 O 145 0.46666 -1.95919 0
M  V30 1463 C 142.065 0.476355 -3.43412 0
M  V30 1464 C 141.126 -0.43784 -4.27061 0
M  V30 1465 C 140.359 0.319138 -5.32745 0
M  V30 1466 O 140.582 1.54799 -5.48993 0
M  V30 1467 O 139.516 -0.319861 -6.01049 0
M  V30 1468 H 143.342 -1.15229 -2.80991 0
M  V30 1469 H 140.927 -0.627103 -1.35602 0
M  V30 1470 H 142.809 0.927156 -4.11074 0
M  V30 1471 H 141.484 1.28683 -2.97022 0
M  V30 1472 H 140.391 -0.937013 -3.62175 0
M  V30 1473 H 141.724 -1.21375 -4.77 0
M  V30 1474 N 143.376 1.44774 -0.622745 0
M  V30 1475 C 144.623 2.02121 -0.1239 0
M  V30 1476 C 144.951 1.48915 1.25118 0
M  V30 1477 O 144.206 0.660045 1.84233 0
M  V30 1478 C 144.505 3.57364 -0.0508323 0
M  V30 1479 C 144.171 4.29787 -1.36358 0
M  V30 1480 C 142.833 4.4929 -1.72314 0
M  V30 1481 C 145.185 4.71062 -2.23048 0
M  V30 1482 C 142.513 5.07325 -2.94682 0
M  V30 1483 C 144.865 5.30452 -3.44679 0
M  V30 1484 C 143.529 5.48175 -3.80868 0
M  V30 1485 H 142.799 0.739612 -0.0453381 0
M  V30 1486 H 145.446 1.73648 -0.807389 0
M  V30 1487 H 143.751 3.85202 0.715991 0
M  V30 1488 H 145.448 3.99456 0.351533 0
M  V30 1489 H 142.038 4.14932 -1.07375 0
M  V30 1490 H 146.222 4.55715 -1.96565 0
M  V30 1491 H 141.478 5.19235 -3.22809 0
M  V30 1492 H 145.652 5.61385 -4.12092 0
M  V30 1493 H 143.279 5.92912 -4.75773 0
M  V30 1494 N 144.854 0.36279 1.53368 0
M  V30 1495 C 145.787 -0.528507 2.21996 0
M  V30 1496 C 146.765 -1.0852 1.21087 0
M  V30 1497 O 147.949 -1.14186 1.4998 0
M  V30 1498 C 145.076 -1.72893 2.91249 0
M  V30 1499 C 144.122 -1.29994 4.06207 0
M  V30 1500 S 144.955 -0.303575 5.34639 0
M  V30 1501 C 146.111 -1.51039 6.07403 0
M  V30 1502 H 146.344 0.0543423 2.9725 0
M  V30 1503 H 143.877 0.146889 1.537 0
M  V30 1504 H 145.835 -2.41751 3.31763 0
M  V30 1505 H 144.496 -2.28303 2.15724 0
M  V30 1506 H 143.689 -2.19549 4.53667 0
M  V30 1507 H 143.291 -0.690608 3.67569 0
M  V30 1508 H 145.583 -2.44186 6.31965 0
M  V30 1509 H 146.526 -1.07721 6.99858 0
M  V30 1510 H 146.934 -1.71518 5.37812 0
M  V30 1511 N 146.332 -1.57332 0.0918853 0
M  V30 1512 C 147.265 -2.09499 -0.904735 0
M  V30 1513 C 148.243 -1.00479 -1.27839 0
M  V30 1514 O 149.427 -1.27954 -1.38419 0
M  V30 1515 C 146.554 -2.56931 -2.2069 0
M  V30 1516 C 145.6 -3.77579 -1.98334 0
M  V30 1517 S 146.433 -5.21317 -1.22428 0
M  V30 1518 C 147.589 -5.72097 -2.53882 0
M  V30 1519 H 147.822 -2.93705 -0.460922 0
M  V30 1520 H 145.355 -1.53923 -0.121332 0
M  V30 1521 H 147.313 -2.84917 -2.95521 0
M  V30 1522 H 145.974 -1.72956 -2.62192 0
M  V30 1523 H 145.167 -4.08824 -2.94752 0
M  V30 1524 H 144.769 -3.5007 -1.31633 0
M  V30 1525 H 147.061 -5.80168 -3.49874 0
M  V30 1526 H 148.004 -6.70654 -2.27219 0
M  V30 1527 H 148.412 -5.00012 -2.62007 0
M  V30 1528 N 147.81 0.181792 -1.56548 0
M  V30 1529 C 149.226 0.53316 -1.50431 0
M  V30 1530 C 149.426 1.85184 -0.794297 0
M  V30 1531 O 148.482 2.50058 -0.350318 0
M  V30 1532 C 149.795 0.575597 -2.9514 0
M  V30 1533 C 151.343 0.663519 -3.05886 0
M  V30 1534 C 151.818 0.736946 -4.52032 0
M  V30 1535 N 153.309 0.800118 -4.56237 0
M  V30 1536 C 154.044 0.877327 -5.66649 0
M  V30 1537 N 153.54 0.916016 -6.86718 0
M  V30 1538 N 155.333 0.915542 -5.54594 0
M  V30 1539 H 147.484 -0.683025 -2.01118 0
M  V30 1540 H 149.747 -0.244988 -0.915797 0
M  V30 1541 H 149.453 -0.324482 -3.502 0
M  V30 1542 H 149.327 1.42572 -3.49218 0
M  V30 1543 H 151.714 1.55403 -2.50867 0
M  V30 1544 H 151.795 -0.21307 -2.54911 0
M  V30 1545 H 151.439 -0.149262 -5.07681 0
M  V30 1546 H 151.369 1.62953 -5.00753 0
M  V30 1547 H 153.86 0.778926 -3.69785 0
M  V30 1548 H 154.173 0.975813 -7.66614 0
M  V30 1549 H 152.518 0.884469 -6.89349 0
M  V30 1550 H 155.709 0.882245 -4.59711 0
M  V30 1551 H 155.882 0.972253 -6.40665 0
M  V30 1552 N 149.288 1.51039 0.449983 0
M  V30 1553 C 150.22 1.67617 1.56324 0
M  V30 1554 C 151.233 0.557083 1.52972 0
M  V30 1555 O 152.422 0.830989 1.57977 0
M  V30 1556 C 149.522 1.66402 2.95235 0
M  V30 1557 C 148.695 2.9469 3.23229 0
M  V30 1558 C 147.754 2.85832 4.41799 0
M  V30 1559 O 146.78 3.59785 4.41071 0
M  V30 1560 N 147.982 2.00821 5.44657 0
M  V30 1561 H 150.747 2.63648 1.42512 0
M  V30 1562 H 148.308 1.48767 0.638737 0
M  V30 1563 H 150.3 1.58062 3.72557 0
M  V30 1564 H 148.87 0.780182 3.02708 0
M  V30 1565 H 148.09 3.16996 2.34323 0
M  V30 1566 H 149.378 3.79636 3.38754 0
M  V30 1567 H 148.776 1.40091 5.48079 0
M  V30 1568 H 147.333 1.98368 6.20881 0
M  V30 1569 N 150.766 -0.704594 1.40972 0
M  V30 1570 C 151.991 -1.49858 1.43378 0
M  V30 1571 C 152.416 -1.88061 0.038184 0
M  V30 1572 O 151.774 -1.5402 -0.956425 0
M  V30 1573 C 151.822 -2.74333 2.34038 0
M  V30 1574 O 150.926 -3.7147 1.7912 0
M  V30 1575 H 150.267 -0.45139 0.486974 0
M  V30 1576 H 152.797 -0.866832 1.8533 0
M  V30 1577 H 152.807 -3.22741 2.49604 0
M  V30 1578 H 151.482 -2.45863 3.35446 0
M  V30 1579 H 150.059 -3.30363 1.72958 0
M  V30 1580 N 152.244 -1.26651 -0.937939 0
M  V30 1581 C 153.192 -1.08308 -2.05845 0
M  V30 1582 C 154.186 -0.0090757 -1.69398 0
M  V30 1583 O 155.392 -0.166007 -1.79233 0
M  V30 1584 H 151.767 -0.333416 -0.674046 0
M  V30 1585 H 153.738 -2.03261 -2.18467 0
M  V30 1586 C 152.487 -0.736229 -3.39816 0
M  V30 1587 H 151.81 -1.55453 -3.6834 0
M  V30 1588 H 153.25 -0.64769 -4.19024 0
M  V30 1589 C 151.709 0.558824 -3.32233 0
M  V30 1590 O 152.239 1.59621 -3.68624 0
M  V30 1591 N 150.445 0.550657 -2.85335 0
M  V30 1592 H 149.992 -0.293943 -2.55917 0
M  V30 1593 H 149.95 1.41726 -2.80644 0
M  V30 1594 N 153.722 1.14298 -1.08507 0
M  V30 1595 C 154.947 1.8976 -0.837001 0
M  V30 1596 C 155.372 1.78097 0.605228 0
M  V30 1597 O 154.73 1.12188 1.4242 0
M  V30 1598 C 154.778 3.37685 -1.26495 0
M  V30 1599 O 153.882 4.10281 -0.417514 0
M  V30 1600 H 153.223 0.590365 -0.303917 0
M  V30 1601 H 155.753 1.44672 -1.44676 0
M  V30 1602 H 155.763 3.88501 -1.24625 0
M  V30 1603 H 154.438 3.45492 -2.31534 0
M  V30 1604 H 153.015 3.69536 -0.499722 0
M  V30 1605 N 155.201 0.870884 1.31352 0
M  V30 1606 C 156.429 0.49677 2.00848 0
M  V30 1607 C 156.844 -0.910998 1.65367 0
M  V30 1608 O 156.201 -1.59696 0.883374 0
M  V30 1609 C 156.252 0.645308 3.55694 0
M  V30 1610 O 155.973 1.99764 3.89905 0
M  V30 1611 C 157.474 0.272326 4.42463 0
M  V30 1612 H 154.694 0.193462 0.642506 0
M  V30 1613 H 157.238 1.1723 1.67563 0
M  V30 1614 H 155.393 0.0173176 3.87396 0
M  V30 1615 H 155.807 2.00607 4.84621 0
M  V30 1616 H 157.281 0.427208 5.50344 0
M  V30 1617 H 157.758 -0.788587 4.32062 0
M  V30 1618 H 158.364 0.876054 4.1618 0
M  V30 1619 N 156.679 -1.44442 0.630414 0
M  V30 1620 C 157.642 -2.29107 -0.0652523 0
M  V30 1621 C 158.642 -1.41002 -0.772995 0
M  V30 1622 O 159.832 -1.62881 -0.617692 0
M  V30 1623 C 156.964 -3.22564 -1.10296 0
M  V30 1624 H 158.157 -2.92103 0.679401 0
M  V30 1625 H 155.71 -1.51343 0.390517 0
M  V30 1626 H 156.445 -2.64416 -1.87762 0
M  V30 1627 H 156.23 -3.87491 -0.59941 0
M  V30 1628 H 157.72 -3.86167 -1.5895 0
M  V30 1629 N 158.157 -0.370918 -1.53173 0
M  V30 1630 C 159.12 0.460778 -2.24521 0
M  V30 1631 C 160.12 1.00536 -1.25496 0
M  V30 1632 O 161.31 0.890266 -1.49733 0
M  V30 1633 C 158.442 1.64457 -2.98608 0
M  V30 1634 H 159.635 -0.163613 -2.99453 0
M  V30 1635 H 157.188 -0.122699 -1.55818 0
M  V30 1636 H 157.923 2.30691 -2.2793 0
M  V30 1637 H 157.708 1.26099 -3.7127 0
M  V30 1638 H 159.198 2.23384 -3.5283 0
M  V30 1639 N 159.635 1.57281 -0.100228 0
M  V30 1640 C 160.863 1.98879 0.570509 0
M  V30 1641 C 161.278 0.979476 1.61405 0
M  V30 1642 O 160.635 -0.0302288 1.82475 0
M  V30 1643 C 160.686 3.4052 1.2136 0
M  V30 1644 O 160.407 4.37588 0.211786 0
M  V30 1645 C 161.908 3.97149 1.96945 0
M  V30 1646 H 159.128 0.653428 0.152555 0
M  V30 1647 H 161.672 2.03697 -0.18103 0
M  V30 1648 H 159.827 3.367 1.91603 0
M  V30 1649 H 160.241 5.20118 0.676607 0
M  V30 1650 H 161.715 4.98393 2.37294 0
M  V30 1651 H 162.192 3.3525 2.83733 0
M  V30 1652 H 162.798 4.04458 1.31506 0
M  V30 1653 N 161.113 -0.173488 1.56642 0
M  V30 1654 C 162.061 -1.23417 1.97157 0
M  V30 1655 C 163.055 -1.45946 0.860013 0
M  V30 1656 O 164.261 -1.46551 1.04512 0
M  V30 1657 H 160.636 -0.414818 0.62724 0
M  V30 1658 H 162.607 -0.865582 2.8557 0
M  V30 1659 C 161.356 -2.5665 2.34576 0
M  V30 1660 H 160.679 -2.40137 3.19647 0
M  V30 1661 H 162.119 -3.2956 2.6677 0
M  V30 1662 C 160.578 -3.15245 1.18836 0
M  V30 1663 O 161.108 -3.98883 0.474869 0
M  V30 1664 N 159.314 -2.74303 0.959497 0
M  V30 1665 H 158.861 -2.0639 1.54146 0
M  V30 1666 H 158.819 -3.13844 0.186932 0
M  V30 1667 N 162.591 -1.51276 -0.441967 0
M  V30 1668 C 163.501 -1.75092 -1.56141 0
M  V30 1669 C 164.517 -0.634963 -1.62001 0
M  V30 1670 O 165.693 -0.916686 -1.79329 0
M  V30 1671 C 162.758 -1.86666 -2.92158 0
M  V30 1672 C 161.819 -3.10506 -2.96453 0
M  V30 1673 C 161.052 -3.21519 -4.25982 0
M  V30 1674 O 161.275 -2.38586 -5.18105 0
M  V30 1675 O 160.209 -4.14465 -4.36466 0
M  V30 1676 H 164.035 -2.70044 -1.38961 0
M  V30 1677 H 161.62 -1.35722 -0.624499 0
M  V30 1678 H 163.502 -1.96292 -3.72891 0
M  V30 1679 H 162.177 -0.949014 -3.09476 0
M  V30 1680 H 161.084 -3.06363 -2.14692 0
M  V30 1681 H 162.417 -4.01945 -2.84079 0
M  V30 1682 N 164.069 0.697108 -1.41344 0
M  V30 1683 C 165.315 1.4593 -1.40827 0
M  V30 1684 C 165.648 1.94193 -0.0167098 0
M  V30 1685 O 164.923 1.69425 0.955263 0
M  V30 1686 C 165.206 2.67229 -2.41373 0
M  V30 1687 C 165.059 2.24741 -3.8963 0
M  V30 1688 C 166.378 3.69423 -2.39196 0
M  V30 1689 H 163.497 0.529303 -0.512842 0
M  V30 1690 H 166.139 0.794112 -1.72609 0
M  V30 1691 H 164.289 3.23982 -2.14401 0
M  V30 1692 H 165.961 1.73327 -4.27499 0
M  V30 1693 H 164.204 1.56542 -4.0457 0
M  V30 1694 H 164.875 3.1177 -4.55525 0
M  V30 1695 H 167.351 3.2234 -2.63128 0
M  V30 1696 H 166.227 4.51907 -3.11563 0
M  V30 1697 H 166.488 4.19012 -1.41001 0
M  V30 1698 N 165.547 1.27147 0.931209 0
M  V30 1699 C 166.958 1.12044 1.49342 0
M  V30 1700 C 167.309 -0.295795 1.93957 0
M  V30 1701 O 166.434 -1.18835 1.80852 0
M  V30 1702 C 167.029 2.02781 2.71414 0
M  V30 1703 C 165.588 1.91794 3.2387 0
M  V30 1704 C 164.735 1.95543 1.96617 0
M  V30 1705 H 167.686 1.40091 0.745672 0
M  V30 1706 H 167.707 1.58156 3.46074 0
M  V30 1707 H 167.219 3.05848 2.38911 0
M  V30 1708 H 165.32 0.916992 3.6114 0
M  V30 1709 H 165.433 2.77852 3.90302 0
M  V30 1710 H 163.797 1.39722 2.12955 0
M  V30 1711 H 164.58 3.00259 1.66432 0
M  V30 1712 N 167.025 -1.13721 1.09112 0
M  V30 1713 C 167.935 -2.22638 0.73957 0
M  V30 1714 C 168.951 -1.72091 -0.257068 0
M  V30 1715 O 170.127 -2.01155 -0.0992154 0
M  V30 1716 C 167.192 -3.46322 0.16191 0
M  V30 1717 C 166.253 -4.11775 1.21408 0
M  V30 1718 C 165.486 -5.29555 0.663891 0
M  V30 1719 O 165.709 -5.68077 -0.514274 0
M  V30 1720 O 164.643 -5.84973 1.41738 0
M  V30 1721 H 168.469 -2.55074 1.64836 0
M  V30 1722 H 166.054 -1.21791 0.865289 0
M  V30 1723 H 167.936 -4.21107 -0.157073 0
M  V30 1724 H 166.611 -3.15593 -0.719932 0
M  V30 1725 H 165.518 -3.3883 1.58571 0
M  V30 1726 H 166.851 -4.46627 2.06845 0
M  V30 1727 N 168.503 -0.877838 -1.30888 0
M  V30 1728 C 169.749 -0.493426 -1.96706 0
M  V30 1729 C 170.082 0.953504 -1.6918 0
M  V30 1730 O 169.357 1.67266 -0.992594 0
M  V30 1731 C 169.64 -0.760429 -3.51979 0
M  V30 1732 C 169.493 -2.25747 -3.89048 0
M  V30 1733 C 170.812 -0.232148 -4.39487 0
M  V30 1734 H 167.931 -0.180746 -0.714493 0
M  V30 1735 H 170.573 -1.10052 -1.54882 0
M  V30 1736 H 168.723 -0.243715 -3.87735 0
M  V30 1737 H 170.395 -2.84204 -3.63354 0
M  V30 1738 H 168.638 -2.72694 -3.37373 0
M  V30 1739 H 169.309 -2.39491 -4.97341 0
M  V30 1740 H 171.785 -0.674314 -4.106 0
M  V30 1741 H 170.661 -0.448355 -5.47066 0
M  V30 1742 H 170.922 0.866297 -4.33529 0
M  V30 1743 N 169.982 1.44106 -0.638065 0
M  V30 1744 C 171.21 2.06336 -0.152615 0
M  V30 1745 C 171.625 1.47731 1.17563 0
M  V30 1746 O 170.982 0.602806 1.72257 0
M  V30 1747 C 171.033 3.61479 -0.0391491 0
M  V30 1748 O 170.754 4.17903 -1.31487 0
M  V30 1749 C 172.255 4.40757 0.474176 0
M  V30 1750 H 169.475 0.665862 -0.0828776 0
M  V30 1751 H 172.019 1.84862 -0.87443 0
M  V30 1752 H 170.174 3.82191 0.633142 0
M  V30 1753 H 170.588 5.11416 -1.16421 0
M  V30 1754 H 172.062 5.49707 0.502562 0
M  V30 1755 H 172.539 4.12697 1.50258 0
M  V30 1756 H 173.145 4.24979 -0.165102 0
M  V30 1757 N 171.46 0.379036 1.52974 0
M  V30 1758 C 172.706 -0.206727 2.01744 0
M  V30 1759 C 173.039 -1.47314 1.26539 0
M  V30 1760 O 172.314 -1.91084 0.362903 0
M  V30 1761 C 172.597 -0.485066 3.56818 0
M  V30 1762 C 172.45 0.795919 4.42702 0
M  V30 1763 C 173.769 -1.28003 4.21074 0
M  V30 1764 H 170.888 -0.0736607 0.73331 0
M  V30 1765 H 173.53 0.506581 1.83122 0
M  V30 1766 H 171.68 -1.09272 3.72816 0
M  V30 1767 H 173.352 1.43307 4.38476 0
M  V30 1768 H 171.595 1.41344 4.10127 0
M  V30 1769 H 172.266 0.555947 5.49193 0
M  V30 1770 H 174.742 -0.765867 4.08991 0
M  V30 1771 H 173.618 -1.44352 5.29579 0
M  V30 1772 H 173.879 -2.29236 3.78026 0
M  V30 1773 N 172.938 -1.57226 0.108567 0
M  V30 1774 C 174.185 -1.94833 -0.551943 0
M  V30 1775 C 174.513 -0.991204 -1.67348 0
M  V30 1776 O 173.768 -0.0131878 -1.95696 0
M  V30 1777 C 174.067 -3.38911 -1.13463 0
M  V30 1778 C 173.733 -4.50696 -0.135509 0
M  V30 1779 C 172.395 -4.80998 0.139252 0
M  V30 1780 C 174.747 -5.18333 0.545957 0
M  V30 1781 C 172.075 -5.76259 1.10194 0
M  V30 1782 C 174.427 -6.14627 1.49721 0
M  V30 1783 C 173.091 -6.43327 1.78006 0
M  V30 1784 H 172.361 -0.712944 -0.20197 0
M  V30 1785 H 175.008 -1.90582 0.18726 0
M  V30 1786 H 173.313 -3.39805 -1.95037 0
M  V30 1787 H 175.01 -3.65317 -1.65362 0
M  V30 1788 H 171.6 -4.27087 -0.359846 0
M  V30 1789 H 175.784 -4.95087 0.346842 0
M  V30 1790 H 171.04 -5.96804 1.32795 0
M  V30 1791 H 175.214 -6.66126 2.03099 0
M  V30 1792 H 172.841 -7.1695 2.52759 0
M  V30 1793 N 174.416 0.165178 -1.56732 0
M  V30 1794 C 175.641 0.900253 -1.86843 0
M  V30 1795 C 176.066 1.74766 -0.695596 0
M  V30 1796 O 175.424 1.77786 0.35522 0
M  V30 1797 C 175.472 1.74777 -3.15413 0
M  V30 1798 O 174.576 2.85007 -2.98068 0
M  V30 1799 H 173.917 0.251832 -0.614391 0
M  V30 1800 H 176.447 0.161468 -2.03962 0
M  V30 1801 H 176.457 2.14646 -3.46974 0
M  V30 1802 H 175.132 1.12537 -4.00385 0
M  V30 1803 H 173.709 2.48676 -2.77875 0
M  V30 1804 N 175.894 1.51508 0.433938 0
M  V30 1805 C 176.841 1.73068 1.52696 0
M  V30 1806 C 177.811 0.572441 1.55924 0
M  V30 1807 O 178.996 0.807253 1.72882 0
M  V30 1808 C 176.136 1.86474 2.90381 0
M  V30 1809 C 175.249 3.14037 2.96656 0
M  V30 1810 C 174.384 3.18019 4.25485 0
M  V30 1811 C 173.423 4.39882 4.2564 0
M  V30 1812 N 172.56 4.41394 5.45999 0
M  V30 1813 H 177.4 2.66366 1.33615 0
M  V30 1814 H 174.937 1.32008 0.649018 0
M  V30 1815 H 176.895 1.92229 3.70275 0
M  V30 1816 H 175.525 0.965809 3.08013 0
M  V30 1817 H 174.577 3.17575 2.09404 0
M  V30 1818 H 175.889 4.0394 2.92633 0
M  V30 1819 H 175.043 3.22708 5.13755 0
M  V30 1820 H 173.782 2.2601 4.3217 0
M  V30 1821 H 172.787 4.35366 3.35763 0
M  V30 1822 H 174.012 5.33159 4.20617 0
M  V30 1823 H 171.958 3.52258 5.53399 0
M  V30 1824 H 171.875 5.25111 5.4387 0
M  V30 1825 H 173.143 4.50281 6.36292 0
M  V30 1826 N 177.372 -0.689602 1.41712 0
M  V30 1827 C 178.619 -1.44966 1.4139 0
M  V30 1828 C 178.947 -1.94484 0.025105 0
M  V30 1829 O 178.202 -1.70307 -0.964048 0
M  V30 1830 C 178.501 -2.67298 2.37247 0
M  V30 1831 C 178.167 -2.36405 3.83958 0
M  V30 1832 C 176.829 -2.27691 4.23923 0
M  V30 1833 C 179.181 -2.11043 4.76561 0
M  V30 1834 C 176.509 -1.91719 5.54492 0
M  V30 1835 C 178.861 -1.76578 6.07456 0
M  V30 1836 C 177.525 -1.66363 6.46436 0
M  V30 1837 H 176.795 -0.53047 0.517381 0
M  V30 1838 H 179.442 -0.787655 1.74552 0
M  V30 1839 H 177.747 -3.38461 1.9736 0
M  V30 1840 H 179.444 -3.25452 2.34269 0
M  V30 1841 H 176.034 -2.44085 3.52308 0
M  V30 1842 H 180.218 -2.16717 4.46483 0
M  V30 1843 H 175.474 -1.82367 5.83568 0
M  V30 1844 H 179.648 -1.55974 6.78708 0
M  V30 1845 H 177.275 -1.38258 7.47522 0
M  V30 1846 N 178.85 -1.27639 -0.924453 0
M  V30 1847 C 180.261 -1.12834 -1.48746 0
M  V30 1848 C 180.612 0.285505 -1.94112 0
M  V30 1849 O 179.737 1.17874 -1.81479 0
M  V30 1850 C 180.332 -2.04217 -2.70334 0
M  V30 1851 C 178.891 -1.93509 -3.22848 0
M  V30 1852 C 178.038 -1.96583 -1.95577 0
M  V30 1853 H 180.989 -1.40484 -0.738233 0
M  V30 1854 H 181.01 -1.59989 -3.4523 0
M  V30 1855 H 180.522 -3.07111 -2.37285 0
M  V30 1856 H 178.623 -0.936131 -3.60649 0
M  V30 1857 H 178.736 -2.79917 -3.88823 0
M  V30 1858 H 177.1 -1.4085 -2.12211 0
M  V30 1859 H 177.883 -3.01137 -1.64837 0
M  V30 1860 N 180.328 1.1314 -1.09713 0
M  V30 1861 C 181.574 1.84757 -0.836224 0
M  V30 1862 C 181.907 1.8347 0.636598 0
M  V30 1863 O 181.182 1.27491 1.46889 0
M  V30 1864 C 181.465 3.32782 -1.37578 0
M  V30 1865 C 181.318 3.42567 -2.91493 0
M  V30 1866 C 182.637 4.28307 -1.01198 0
M  V30 1867 H 179.756 0.67082 -0.305236 0
M  V30 1868 H 182.398 1.3278 -1.35903 0
M  V30 1869 H 180.548 3.77177 -0.931097 0
M  V30 1870 H 182.22 3.06862 -3.44432 0
M  V30 1871 H 180.463 2.83349 -3.28475 0
M  V30 1872 H 181.134 4.46674 -3.24324 0
M  V30 1873 H 183.61 3.91999 -1.39556 0
M  V30 1874 H 182.486 5.30307 -1.41653 0
M  V30 1875 H 182.747 4.42029 0.0794833 0
M  V30 1876 N 181.806 0.884767 1.30421 0
M  V30 1877 C 183.034 0.518044 2.0031 0
M  V30 1878 C 183.449 -0.893408 1.66324 0
M  V30 1879 O 182.806 -1.5875 0.900262 0
M  V30 1880 C 182.857 0.682997 3.54989 0
M  V30 1881 O 182.578 2.03888 3.87764 0
M  V30 1882 C 184.079 0.31924 4.42149 0
M  V30 1883 H 181.299 0.200265 0.640418 0
M  V30 1884 H 183.843 1.19001 1.6631 0
M  V30 1885 H 181.998 0.0584052 3.87356 0
M  V30 1886 H 182.412 2.05735 4.82466 0
M  V30 1887 H 183.886 0.485555 5.4986 0
M  V30 1888 H 184.363 -0.742717 4.32875 0
M  V30 1889 H 184.969 0.920147 4.15227 0
M  V30 1890 N 183.284 -1.43765 0.645699 0
M  V30 1891 C 184.214 -2.33471 -0.0370477 0
M  V30 1892 C 185.195 -1.49042 -0.819779 0
M  V30 1893 O 186.38 -1.77726 -0.782758 0
M  V30 1894 C 183.51 -3.32311 -1.0093 0
M  V30 1895 C 182.464 -4.2667 -0.337201 0
M  V30 1896 C 181.79 -5.1549 -1.42037 0
M  V30 1897 C 183.09 -5.16657 0.765706 0
M  V30 1898 H 184.784 -2.90809 0.712069 0
M  V30 1899 H 182.33 -1.39834 0.343876 0
M  V30 1900 H 184.283 -3.9396 -1.49578 0
M  V30 1901 H 183.007 -2.73213 -1.78948 0
M  V30 1902 H 181.666 -3.66374 0.128771 0
M  V30 1903 H 181.314 -4.52735 -2.1918 0
M  V30 1904 H 181.014 -5.79438 -0.975966 0
M  V30 1905 H 182.538 -5.80012 -1.90838 0
M  V30 1906 H 183.952 -5.72158 0.361702 0
M  V30 1907 H 182.349 -5.89286 1.13413 0
M  V30 1908 H 183.419 -4.56796 1.62683 0
M  V30 1909 N 184.763 -0.387143 -1.52771 0
M  V30 1910 C 186.011 0.195349 -2.01154 0
M  V30 1911 C 186.332 1.475 -1.27549 0
M  V30 1912 O 185.602 1.91878 -0.394924 0
M  V30 1913 H 184.182 0.075178 -0.743207 0
M  V30 1914 H 186.844 -0.518337 -1.87881 0
M  V30 1915 H 185.94 0.407096 -3.09434 0
M  V30 1916 N 186.241 1.57166 -0.116904 0
M  V30 1917 C 187.173 2.12271 0.864507 0
M  V30 1918 C 188.186 1.06494 1.23138 0
M  V30 1919 O 189.375 1.33873 1.18069 0
M  V30 1920 C 186.475 2.60564 2.16702 0
M  V30 1921 C 185.648 3.90416 1.97216 0
M  V30 1922 C 184.707 4.24329 3.11178 0
M  V30 1923 O 183.733 4.93182 2.84184 0
M  V30 1924 N 184.935 3.8148 4.37554 0
M  V30 1925 H 187.7 2.97102 0.393726 0
M  V30 1926 H 185.261 1.61759 0.0675805 0
M  V30 1927 H 187.253 2.80282 2.91932 0
M  V30 1928 H 185.823 1.80623 2.55135 0
M  V30 1929 H 185.043 3.79627 1.06192 0
M  V30 1930 H 186.331 4.75327 1.81499 0
M  V30 1931 H 185.729 3.25943 4.62361 0
M  V30 1932 H 184.286 4.06311 5.09661 0
M  V30 1933 N 187.719 -0.156864 1.56817 0
M  V30 1934 C 189.13 -0.717916 1.72345 0
M  V30 1935 C 189.481 -1.82124 0.729747 0
M  V30 1936 O 188.606 -2.16141 -0.105781 0
M  V30 1937 C 189.201 -1.30904 3.12489 0
M  V30 1938 C 187.76 -1.81676 3.29653 0
M  V30 1939 C 186.907 -0.701349 2.68284 0
M  V30 1940 H 189.858 0.0686989 1.58551 0
M  V30 1941 H 189.879 -2.17882 3.11942 0
M  V30 1942 H 189.391 -0.505796 3.8479 0
M  V30 1943 H 187.492 -2.64598 2.62333 0
M  V30 1944 H 187.605 -1.95226 4.3752 0
M  V30 1945 H 185.969 -1.12548 2.28484 0
M  V30 1946 H 186.752 0.0902846 3.43181 0
M  V30 1947 N 189.197 -1.51736 -0.425897 0
M  V30 1948 C 190.145 -1.74464 -1.53834 0
M  V30 1949 C 191.139 -0.611241 -1.57988 0
M  V30 1950 O 192.345 -0.792899 -1.61596 0
M  V30 1951 H 188.72 -0.551437 -0.511293 0
M  V30 1952 H 190.691 -2.67694 -1.31843 0
M  V30 1953 C 189.44 -1.8972 -2.91379 0
M  V30 1954 H 188.763 -2.76344 -2.88919 0
M  V30 1955 H 190.203 -2.09629 -3.68553 0
M  V30 1956 C 188.662 -0.65992 -3.30374 0
M  V30 1957 O 189.192 0.180083 -4.01296 0
M  V30 1958 N 187.398 -0.500677 -2.86254 0
M  V30 1959 H 186.945 -1.18532 -2.28709 0
M  V30 1960 H 186.903 0.325903 -3.12706 0
M  V30 1961 N 190.675 0.682077 -1.42076 0
M  V30 1962 C 191.903 1.47057 -1.4554 0
M  V30 1963 C 192.318 1.8869 -0.0645779 0
M  V30 1964 O 191.675 1.57666 0.919115 0
M  V30 1965 C 191.726 2.72442 -2.37609 0
M  V30 1966 O 191.447 2.32559 -3.71279 0
M  V30 1967 C 192.948 3.66069 -2.50017 0
M  V30 1968 H 190.168 0.452737 -0.495248 0
M  V30 1969 H 192.712 0.838695 -1.8651 0
M  V30 1970 H 190.867 3.31835 -1.9991 0
M  V30 1971 H 191.281 3.13475 -4.20516 0
M  V30 1972 H 192.755 4.50792 -3.18576 0
M  V30 1973 H 193.232 4.11476 -1.53572 0
M  V30 1974 H 193.838 3.12572 -2.88407 0
M  V30 1975 N 192.153 1.28127 0.917671 0
M  V30 1976 C 193.083 1.14248 2.03641 0
M  V30 1977 C 194.064 0.0412748 1.7005 0
M  V30 1978 O 195.249 0.217566 1.92977 0
M  V30 1979 C 192.379 0.799431 3.37974 0
M  V30 1980 C 191.333 1.85497 3.85713 0
M  V30 1981 C 190.659 1.36565 5.16966 0
M  V30 1982 C 191.959 3.26085 4.08002 0
M  V30 1983 H 193.653 2.07835 2.15511 0
M  V30 1984 H 191.199 1.00064 1.03553 0
M  V30 1985 H 193.152 0.689114 4.15727 0
M  V30 1986 H 191.876 -0.172145 3.26146 0
M  V30 1987 H 190.535 1.95437 3.10161 0
M  V30 1988 H 190.183 0.383253 5.01538 0
M  V30 1989 H 189.883 2.07143 5.49878 0
M  V30 1990 H 191.407 1.26848 5.97279 0
M  V30 1991 H 192.821 3.19089 4.76293 0
M  V30 1992 H 191.218 3.94462 4.52238 0
M  V30 1993 H 192.288 3.70394 3.12948 0
M  V30 1994 N 193.631 -1.12557 1.10312 0
M  V30 1995 C 194.88 -1.83395 0.839588 0
M  V30 1996 C 195.193 -1.84939 -0.636929 0
M  V30 1997 O 196.399 -2.51761 -1.01631 0
M  V30 1998 C 194.855 -3.29303 1.45215 0
M  V30 1999 C 194.463 -3.36122 2.96186 0
M  V30 2000 C 196.207 -4.05121 1.26796 0
M  V30 2001 C 194.114 -4.76357 3.50483 0
M  V30 2002 H 193.044 -0.687133 0.310425 0
M  V30 2003 H 195.695 -1.26746 1.32694 0
M  V30 2004 H 194.077 -3.85812 0.892469 0
M  V30 2005 H 195.251 -2.89559 3.58458 0
M  V30 2006 H 193.566 -2.73776 3.13745 0
M  V30 2007 H 196.163 -5.08668 1.64806 0
M  V30 2008 H 196.506 -4.15773 0.209409 0
M  V30 2009 H 197.039 -3.54967 1.79563 0
M  V30 2010 H 193.778 -4.70899 4.55998 0
M  V30 2011 H 193.298 -5.23377 2.92978 0
M  V30 2012 H 194.977 -5.45294 3.48228 0
M  V30 2013 N 195.109 -0.891671 -1.2995 0
M  V30 2014 C 196.349 -0.520296 -1.97667 0
M  V30 2015 C 196.713 0.914797 -1.68806 0
M  V30 2016 O 197.914 1.39263 -2.29911 0
M  V30 2017 C 196.185 -0.795222 -3.48441 0
M  V30 2018 S 197.744 -0.526953 -4.35624 0
M  V30 2019 H 194.562 -0.19333 -0.684211 0
M  V30 2020 H 197.164 -1.15238 -1.57926 0
M  V30 2021 H 195.868 -1.83805 -3.66938 0
M  V30 2022 H 195.399 -0.15095 -3.9311 0
M  V30 2023 H 197.414 0.631533 -4.92165 0
M  V30 2024 N 196.587 1.43421 -0.653314 0
M  V30 2025 C 197.517 2.33487 0.0246656 0
M  V30 2026 C 198.498 1.49475 0.811863 0
M  V30 2027 O 199.683 1.78139 0.773322 0
M  V30 2028 C 196.813 3.32841 0.99166 0
M  V30 2029 C 195.767 4.26842 0.314568 0
M  V30 2030 C 195.093 5.16236 1.39302 0
M  V30 2031 C 196.393 5.16243 -0.793095 0
M  V30 2032 H 198.087 2.90427 -0.727481 0
M  V30 2033 H 195.633 1.39649 -0.351287 0
M  V30 2034 H 197.586 3.94747 1.47487 0
M  V30 2035 H 196.31 2.74158 1.77497 0
M  V30 2036 H 194.969 3.663 -0.148199 0
M  V30 2037 H 194.617 4.53891 2.16776 0
M  V30 2038 H 194.317 5.79948 0.945223 0
M  V30 2039 H 195.841 5.81015 1.87759 0
M  V30 2040 H 197.255 5.71958 -0.392039 0
M  V30 2041 H 195.652 5.88676 -1.16536 0
M  V30 2042 H 196.722 4.55927 -1.65103 0
M  V30 2043 N 198.065 0.39524 1.52563 0
M  V30 2044 C 199.311 -0.185318 2.01952 0
M  V30 2045 C 199.644 -1.45964 1.28095 0
M  V30 2046 O 198.919 -1.90689 0.38315 0
M  V30 2047 C 199.202 -0.447193 3.57312 0
M  V30 2048 C 199.055 0.842828 4.41833 0
M  V30 2049 C 200.374 -1.23529 4.22408 0
M  V30 2050 H 197.493 -0.0658788 0.73405 0
M  V30 2051 H 200.135 0.525975 1.82575 0
M  V30 2052 H 198.285 -1.05312 3.73954 0
M  V30 2053 H 199.957 1.4795 4.36931 0
M  V30 2054 H 198.2 1.45686 4.08605 0
M  V30 2055 H 198.871 0.614165 5.48573 0
M  V30 2056 H 201.347 -0.722445 4.0978 0
M  V30 2057 H 200.223 -1.38727 5.3108 0
M  V30 2058 H 200.484 -2.25213 3.80436 0
M  V30 2059 N 199.544 -1.57102 0.125237 0
M  V30 2060 C 200.821 -1.86953 -0.575142 0
M  V30 2061 C 201.201 -1.02749 -1.84407 0
M  V30 2062 O 200.549 -0.108144 -2.28244 0
M  V30 2063 C 200.759 -3.38198 -0.861583 0
M  V30 2064 C 202.107 -4.06937 -1.21192 0
M  V30 2065 O 203.131 -3.43252 -0.951645 0
M  V30 2066 O 201.99 -5.19364 -1.70068 0
M  V30 2067 H 199.084 -0.774147 -0.290906 0
M  V30 2068 H 201.63 -1.68942 0.160211 0
M  V30 2069 H 200.402 -3.91282 0.0373647 0
M  V30 2070 H 200.025 -3.61661 -1.65188 0
M  V30 2071 N 201.022 0.148545 -1.56898 0
M  V30 2072 C 201.97 1.20265 -1.99096 0
M  V30 2073 C 202.964 1.44559 -0.883123 0
M  V30 2074 O 204.17 1.4487 -1.0683 0
M  V30 2075 H 200.545 0.404786 -0.63376 0
M  V30 2076 H 202.516 0.82004 -2.86911 0
M  V30 2077 C 201.265 2.52886 -2.3863 0
M  V30 2078 H 200.588 2.35021 -3.23427 0
M  V30 2079 H 202.028 3.25274 -2.7198 0
M  V30 2080 C 200.487 3.13315 -1.23837 0
M  V30 2081 O 201.017 3.98077 -0.538268 0
M  V30 2082 N 199.223 2.72742 -1.00301 0
M  V30 2083 H 198.77 2.03912 -1.5741 0
M  V30 2084 H 198.728 3.13507 -0.236838 0
M  V30 2085 N 202.5 1.5196 0.417844 0
M  V30 2086 C 203.749 1.6482 1.16264 0
M  V30 2087 C 204.062 0.379886 1.91876 0
M  V30 2088 O 205.268 0.388154 2.68711 0
M  V30 2089 C 203.724 2.91161 2.1155 0
M  V30 2090 C 203.332 4.25068 1.41495 0
M  V30 2091 C 205.076 3.13383 2.86341 0
M  V30 2092 C 202.983 5.42541 2.35379 0
M  V30 2093 H 201.913 0.613954 0.437694 0
M  V30 2094 H 204.564 1.78442 0.427871 0
M  V30 2095 H 202.946 2.71218 2.88543 0
M  V30 2096 H 204.12 4.55463 0.699263 0
M  V30 2097 H 202.435 4.0888 0.787792 0
M  V30 2098 H 205.032 3.98324 3.5671 0
M  V30 2099 H 205.375 2.27256 3.48798 0
M  V30 2100 H 205.908 3.33757 2.1645 0
M  V30 2101 H 202.647 6.30987 1.77582 0
M  V30 2102 H 202.167 5.16497 3.04945 0
M  V30 2103 H 203.846 5.75272 2.96093 0
M  V30 2104 N 203.978 -0.674533 1.42435 0
M  V30 2105 C 205.225 -1.43459 1.42919 0
M  V30 2106 C 205.553 -1.94446 0.0457312 0
M  V30 2107 O 204.808 -1.7132 -0.94593 0
M  V30 2108 C 205.107 -2.64767 2.40069 0
M  V30 2109 C 204.773 -2.3232 3.86443 0
M  V30 2110 C 203.435 -2.23182 4.26314 0
M  V30 2111 C 205.787 -2.05977 4.78773 0
M  V30 2112 C 203.115 -1.85827 5.56494 0
M  V30 2113 C 205.467 -1.70125 6.09295 0
M  V30 2114 C 204.131 -1.59498 6.48164 0
M  V30 2115 H 203.401 -0.524952 0.522978 0
M  V30 2116 H 206.048 -0.769097 1.75377 0
M  V30 2117 H 204.353 -3.36349 2.00939 0
M  V30 2118 H 206.05 -3.22949 2.37707 0
M  V30 2119 H 202.64 -2.40334 3.54877 0
M  V30 2120 H 206.824 -2.11969 4.48757 0
M  V30 2121 H 202.08 -1.76168 5.8547 0
M  V30 2122 H 206.254 -1.48767 6.80324 0
M  V30 2123 H 203.881 -1.30322 7.48946 0
M  V30 2124 N 205.456 -1.28612 -0.910864 0
M  V30 2125 C 206.867 -1.14406 -1.47541 0
M  V30 2126 C 207.218 0.264901 -1.94403 0
M  V30 2127 O 206.343 1.15942 -1.82719 0
M  V30 2128 C 206.938 -2.07073 -2.68153 0
M  V30 2129 C 205.497 -1.96923 -3.20778 0
M  V30 2130 C 204.644 -1.98646 -1.93481 0
M  V30 2131 H 207.595 -1.41259 -0.723291 0
M  V30 2132 H 207.616 -1.63642 -3.43514 0
M  V30 2133 H 207.128 -3.09611 -2.34015 0
M  V30 2134 H 205.229 -0.97433 -3.59635 0
M  V30 2135 H 205.342 -2.84026 -3.85832 0
M  V30 2136 H 203.706 -1.43093 -2.10705 0
M  V30 2137 H 204.489 -3.02868 -1.61634 0
M  V30 2138 N 206.934 1.1197 -1.10907 0
M  V30 2139 C 208.345 1.65114 -0.871446 0
M  V30 2140 C 208.696 1.86885 0.597353 0
M  V30 2141 O 207.821 1.59896 1.45816 0
M  V30 2142 C 208.416 2.99944 -1.5754 0
M  V30 2143 C 206.975 3.50018 -1.38435 0
M  V30 2144 C 206.122 2.24941 -1.62164 0
M  V30 2145 H 209.073 0.956851 -1.2661 0
M  V30 2146 H 209.094 3.66651 -1.01721 0
M  V30 2147 H 208.606 2.84067 -2.64438 0
M  V30 2148 H 206.707 3.71071 -0.337214 0
M  V30 2149 H 206.82 4.29165 -2.12965 0
M  V30 2150 H 205.184 2.3229 -1.04467 0
M  V30 2151 H 205.967 2.11612 -2.70324 0
M  V30 2152 N 208.412 0.89855 1.29475 0
M  V30 2153 C 209.658 0.524658 1.95896 0
M  V30 2154 C 209.991 -0.926468 1.70676 0
M  V30 2155 O 209.266 -1.65665 1.01908 0
M  V30 2156 C 209.549 0.81633 3.50725 0
M  V30 2157 C 209.402 2.31907 3.85408 0
M  V30 2158 C 210.721 0.302038 4.39062 0
M  V30 2159 H 207.84 0.19209 0.711527 0
M  V30 2160 H 210.482 1.12502 1.53112 0
M  V30 2161 H 208.632 0.305369 3.87298 0
M  V30 2162 H 210.304 2.89949 3.58786 0
M  V30 2163 H 208.547 2.78027 3.32992 0
M  V30 2164 H 209.218 2.47373 4.93468 0
M  V30 2165 H 211.694 0.739551 4.09475 0
M  V30 2166 H 210.57 0.535331 5.46283 0
M  V30 2167 H 210.831 -0.797216 4.34853 0
M  V30 2168 N 209.89 -1.43072 0.660911 0
M  V30 2169 C 211.136 -2.0202 0.177708 0
M  V30 2170 C 211.469 -1.52066 -1.20787 0
M  V30 2171 O 210.744 -0.716987 -1.80802 0
M  V30 2172 C 211.027 -3.59561 0.197019 0
M  V30 2173 C 210.88 -4.19727 1.61706 0
M  V30 2174 C 212.199 -4.37664 -0.462396 0
M  V30 2175 H 209.318 -0.734034 0.0660494 0
M  V30 2176 H 211.96 -1.70272 0.843058 0
M  V30 2177 H 210.11 -3.86739 -0.369527 0
M  V30 2178 H 211.782 -4.03553 2.23479 0
M  V30 2179 H 210.025 -3.76084 2.16201 0
M  V30 2180 H 210.696 -5.28834 1.58237 0
M  V30 2181 H 213.172 -4.16095 0.0197215 0
M  V30 2182 H 212.048 -5.47305 -0.418188 0
M  V30 2183 H 212.309 -4.14493 -1.53778 0
M  V30 2184 N 211.368 -0.403325 -1.52352 0
M  V30 2185 C 212.316 0.439752 -2.28405 0
M  V30 2186 C 213.31 1.05089 -1.32863 0
M  V30 2187 O 214.516 0.989759 -1.50345 0
M  V30 2188 H 210.891 0.160587 -0.734653 0
M  V30 2189 H 212.862 -0.222983 -2.97566 0
M  V30 2190 C 211.611 1.54736 -3.11371 0
M  V30 2191 H 210.934 1.08643 -3.84755 0
M  V30 2192 H 212.374 2.1112 -3.67701 0
M  V30 2193 C 210.833 2.51141 -2.24566 0
M  V30 2194 O 211.363 3.54887 -1.88196 0
M  V30 2195 N 209.569 2.21213 -1.8845 0
M  V30 2196 H 209.116 1.36878 -2.18225 0
M  V30 2197 H 209.074 2.85963 -1.30662 0
M  V30 2198 N 212.846 1.57033 -0.133567 0
M  V30 2199 C 214.095 1.94861 0.520768 0
M  V30 2200 C 214.408 1.02012 1.66892 0
M  V30 2201 O 215.614 1.29365 2.38699 0
M  V30 2202 C 214.07 3.46362 0.977809 0
M  V30 2203 C 213.678 4.47773 -0.142674 0
M  V30 2204 C 215.422 3.93083 1.60269 0
M  V30 2205 C 213.329 5.90468 0.331883 0
M  V30 2206 H 212.259 0.727453 0.198315 0
M  V30 2207 H 214.91 1.82227 -0.215759 0
M  V30 2208 H 213.292 3.54282 1.7692 0
M  V30 2209 H 214.466 4.51536 -0.919317 0
M  V30 2210 H 212.781 4.10891 -0.675124 0
M  V30 2211 H 215.378 4.97121 1.96914 0
M  V30 2212 H 215.721 3.33876 2.48662 0
M  V30 2213 H 216.254 3.88025 0.876453 0
M  V30 2214 H 212.993 6.53463 -0.516341 0
M  V30 2215 H 212.513 5.90094 1.07469 0
M  V30 2216 H 214.192 6.42179 0.788332 0
M  V30 2217 N 214.325 -0.140222 1.56975 0
M  V30 2218 C 215.553 -0.866437 1.87884 0
M  V30 2219 C 215.968 -1.74428 0.722517 0
M  V30 2220 O 215.325 -1.79891 -0.30749 0
M  V30 2221 C 215.376 -1.71753 3.18093 0
M  V30 2222 O 215.097 -0.875056 4.29272 0
M  V30 2223 C 216.598 -2.55074 3.62563 0
M  V30 2224 H 213.818 -0.25019 0.622612 0
M  V30 2225 H 216.362 -0.130977 2.0408 0
M  V30 2226 H 214.517 -2.40598 3.03631 0
M  V30 2227 H 214.931 -1.46002 5.03769 0
M  V30 2228 H 216.405 -3.10356 4.5649 0
M  V30 2229 H 216.882 -3.31434 2.88181 0
M  V30 2230 H 217.488 -1.91509 3.79743 0
M  V30 2231 N 215.803 -1.52179 -0.40978 0
M  V30 2232 C 217.049 -1.67408 -1.15525 0
M  V30 2233 C 217.404 -0.398746 -1.88223 0
M  V30 2234 O 216.697 0.60678 -1.81738 0
M  V30 2235 C 216.891 -2.83428 -2.17723 0
M  V30 2236 C 216.72 -4.22121 -1.55061 0
M  V30 2237 C 215.49 -4.87657 -1.3236 0
M  V30 2238 C 217.688 -5.04248 -1.01185 0
M  V30 2239 N 215.67 -6.10387 -0.655834 0
M  V30 2240 C 217.041 -6.18209 -0.470963 0
M  V30 2241 C 219.096 -4.89583 -0.906252 0
M  V30 2242 C 217.799 -7.1911 0.165172 0
M  V30 2243 C 219.825 -5.90718 -0.28397 0
M  V30 2244 C 219.187 -7.03969 0.246243 0
M  V30 2245 H 215.286 -0.666251 -0.409431 0
M  V30 2246 H 217.87 -1.89482 -0.447729 0
M  V30 2247 H 216.041 -2.6297 -2.85834 0
M  V30 2248 H 217.773 -2.87697 -2.84627 0
M  V30 2249 H 214.528 -4.46007 -1.59294 0
M  V30 2250 H 214.952 -6.76153 -0.338596 0
M  V30 2251 H 219.594 -4.02253 -1.302 0
M  V30 2252 H 217.312 -8.06066 0.572986 0
M  V30 2253 H 220.898 -5.81443 -0.203792 0
M  V30 2254 H 219.778 -7.80886 0.720173 0
M  V30 2255 N 217.281 0.66697 -1.42791 0
M  V30 2256 C 218.211 1.79218 -1.49677 0
M  V30 2257 C 219.192 1.66405 -0.352623 0
M  V30 2258 O 220.377 1.85708 -0.567993 0
M  V30 2259 C 217.507 3.17565 -1.40605 0
M  V30 2260 C 216.461 3.45124 -2.53127 0
M  V30 2261 C 215.787 4.83127 -2.29112 0
M  V30 2262 C 217.087 3.41236 -3.95418 0
M  V30 2263 H 218.781 1.73713 -2.43853 0
M  V30 2264 H 216.327 0.83432 -1.17367 0
M  V30 2265 H 218.28 3.96022 -1.44029 0
M  V30 2266 H 217.004 3.23767 -0.429271 0
M  V30 2267 H 215.663 2.69031 -2.49034 0
M  V30 2268 H 215.311 4.85988 -1.29709 0
M  V30 2269 H 215.011 5.02528 -3.04531 0
M  V30 2270 H 216.535 5.63859 -2.34297 0
M  V30 2271 H 217.949 4.09651 -4.01073 0
M  V30 2272 H 216.346 3.72173 -4.70752 0
M  V30 2273 H 217.416 2.39665 -4.21532 0
M  V30 2274 N 218.759 1.29093 0.90403 0
M  V30 2275 C 219.984 1.19809 1.69294 0
M  V30 2276 C 220.409 -0.238481 1.86582 0
M  V30 2277 O 219.767 -1.1723 1.383 0
M  V30 2278 C 219.815 1.91202 3.05736 0
M  V30 2279 O 218.919 1.22611 3.93752 0
M  V30 2280 H 218.26 0.415385 0.518027 0
M  V30 2281 H 220.79 1.70586 1.12967 0
M  V30 2282 H 220.8 1.99487 3.55906 0
M  V30 2283 H 219.475 2.95692 2.92471 0
M  V30 2284 H 218.052 1.22554 3.52186 0
M  V30 2285 N 220.237 -1.11381 1.11499 0
M  V30 2286 C 221.185 -2.19522 0.768956 0
M  V30 2287 C 222.179 -1.67693 -0.239857 0
M  V30 2288 O 223.385 -1.79727 -0.0990755 0
M  V30 2289 H 219.76 -0.715711 0.230786 0
M  V30 2290 H 221.731 -2.45954 1.68964 0
M  V30 2291 C 220.48 -3.46945 0.229073 0
M  V30 2292 H 219.803 -3.8718 0.996596 0
M  V30 2293 H 221.243 -4.23993 0.0251441 0
M  V30 2294 C 219.702 -3.2042 -1.04079 0
M  V30 2295 O 220.232 -3.41178 -2.12038 0
M  V30 2296 N 218.438 -2.74151 -0.963823 0
M  V30 2297 H 217.985 -2.57459 -0.0851722 0
M  V30 2298 H 217.943 -2.56781 -1.81414 0
M  V30 2299 N 221.715 -0.905404 -1.28997 0
M  V30 2300 C 222.963 -0.533192 -1.9494 0
M  V30 2301 C 223.284 0.924618 -1.71685 0
M  V30 2302 O 222.554 1.65268 -1.05183 0
M  V30 2303 H 221.134 -0.194194 -0.721317 0
M  V30 2304 H 223.796 -1.15294 -1.57141 0
M  V30 2305 H 222.892 -0.72059 -3.03667 0
M  V30 2306 N 223.193 1.4272 -0.668489 0
M  V30 2307 C 224.143 2.27971 0.0363806 0
M  V30 2308 C 225.127 1.40741 0.779794 0
M  V30 2309 O 226.319 1.64245 0.659745 0
M  V30 2310 C 223.448 3.28673 0.991398 0
M  V30 2311 C 222.534 4.23388 0.245658 0
M  V30 2312 N 222.925 5.00267 -0.746069 0
M  V30 2313 C 221.223 4.43355 0.484988 0
M  V30 2314 C 221.924 5.69396 -1.19009 0
M  V30 2315 N 220.9 5.41095 -0.521287 0
M  V30 2316 H 224.702 2.84833 -0.724394 0
M  V30 2317 H 222.216 1.54607 -0.497028 0
M  V30 2318 H 224.213 3.88543 1.51129 0
M  V30 2319 H 222.873 2.73373 1.75207 0
M  V30 2320 H 223.884 5.05525 -1.12537 0
M  V30 2321 H 220.561 3.99104 1.22565 0
M  V30 2322 H 221.951 6.41083 -2.01153 0
M  V30 2323 N 224.671 0.411399 1.52136 0
M  V30 2324 C 225.896 -0.165538 2.06738 0
M  V30 2325 C 226.321 -1.379 1.27926 0
M  V30 2326 O 225.679 -1.78628 0.310114 0
M  V30 2327 C 225.727 -0.492124 3.57226 0
M  V30 2328 O 224.831 -1.58276 3.80818 0
M  V30 2329 H 224.172 -0.0132132 0.663869 0
M  V30 2330 H 226.702 0.585253 1.96051 0
M  V30 2331 H 226.712 -0.750104 4.01045 0
M  V30 2332 H 225.387 0.394922 4.14021 0
M  V30 2333 H 223.964 -1.31677 3.48877 0
M  V30 2334 N 226.149 -1.5696 0.141893 0
M  V30 2335 C 227.395 -1.9625 -0.511248 0
M  V30 2336 C 227.728 -1.02654 -1.64851 0
M  V30 2337 O 227.003 -0.0679676 -1.94381 0
M  V30 2338 C 227.286 -3.45285 -1.02227 0
M  V30 2339 C 227.139 -4.49658 0.113138 0
M  V30 2340 C 228.458 -3.96698 -1.90574 0
M  V30 2341 H 225.577 -0.713567 -0.184367 0
M  V30 2342 H 228.219 -1.88698 0.222087 0
M  V30 2343 H 226.369 -3.51852 -1.64719 0
M  V30 2344 H 228.041 -4.55174 0.749302 0
M  V30 2345 H 226.284 -4.26857 0.773026 0
M  V30 2346 H 226.955 -5.51258 -0.286053 0
M  V30 2347 H 229.431 -3.92578 -1.37918 0
M  V30 2348 H 228.307 -5.01453 -2.2324 0
M  V30 2349 H 228.568 -3.3875 -2.84079 0
M  V30 2350 N 227.627 0.131896 -1.57047 0
M  V30 2351 C 228.855 0.856461 -1.88341 0
M  V30 2352 C 229.27 1.74042 -0.731757 0
M  V30 2353 O 228.627 1.80051 0.297945 0
M  V30 2354 C 228.678 1.70064 -3.18999 0
M  V30 2355 O 228.399 0.852278 -4.2973 0
M  V30 2356 C 229.9 2.53148 -3.63911 0
M  V30 2357 H 227.12 0.246885 -0.62393 0
M  V30 2358 H 229.664 0.120152 -2.04147 0
M  V30 2359 H 227.819 2.38984 -3.04902 0
M  V30 2360 H 228.233 1.43329 -5.04537 0
M  V30 2361 H 229.707 3.07931 -4.58129 0
M  V30 2362 H 230.184 3.29901 -2.89935 0
M  V30 2363 H 230.79 1.89492 -3.80753 0
M  V30 2364 N 229.106 1.52395 0.401703 0
M  V30 2365 C 230.016 1.7917 1.51444 0
M  V30 2366 C 231.032 0.677691 1.6026 0
M  V30 2367 O 232.208 0.963909 1.76835 0
M  V30 2368 C 229.273 1.94347 2.87107 0
M  V30 2369 C 228.334 3.18257 2.88116 0
M  V30 2370 C 227.567 3.32701 4.17308 0
M  V30 2371 O 227.79 2.52238 5.11598 0
M  V30 2372 O 226.724 4.25891 4.25324 0
M  V30 2373 H 230.55 2.73633 1.31752 0
M  V30 2374 H 228.135 1.3733 0.588296 0
M  V30 2375 H 230.017 2.06109 3.67555 0
M  V30 2376 H 228.692 1.03073 3.06851 0
M  V30 2377 H 227.599 3.11947 2.06494 0
M  V30 2378 H 228.932 4.09336 2.73322 0
M  V30 2379 N 230.584 -0.659388 1.43143 0
M  V30 2380 C 231.832 -1.41654 1.44147 0
M  V30 2381 C 232.153 -1.94893 0.0645739 0
M  V30 2382 O 231.423 -1.74044 -0.899198 0
M  V30 2383 H 230.003 -0.525708 0.530697 0
M  V30 2384 H 232.665 -0.778097 1.78694 0
M  V30 2385 H 231.761 -2.26195 2.1504 0
M  V30 2386 N 232.062 -1.29571 -0.897171 0
M  V30 2387 C 233.308 -1.17863 -1.65034 0
M  V30 2388 C 233.641 0.268729 -1.92332 0
M  V30 2389 O 232.916 1.19378 -1.53555 0
M  V30 2390 C 233.199 -1.995 -2.99786 0
M  V30 2391 C 233.052 -3.5239 -2.79538 0
M  V30 2392 C 234.371 -1.82335 -4.00552 0
M  V30 2393 H 231.49 -0.429528 -0.598895 0
M  V30 2394 H 234.132 -1.59072 -1.03905 0
M  V30 2395 H 232.282 -1.64485 -3.51962 0
M  V30 2396 H 233.954 -3.97401 -2.34244 0
M  V30 2397 H 232.197 -3.77187 -2.14273 0
M  V30 2398 H 232.868 -4.04787 -3.75302 0
M  V30 2399 H 235.344 -2.12924 -3.57495 0
M  V30 2400 H 234.22 -2.41801 -4.92771 0
M  V30 2401 H 234.481 -0.779209 -4.35179 0
M  V30 2402 N 233.54 1.10788 -1.12088 0
M  V30 2403 C 234.765 1.87002 -0.896949 0
M  V30 2404 C 235.19 1.79933 0.548261 0
M  V30 2405 O 234.548 1.16662 1.38779 0
M  V30 2406 C 234.596 3.3349 -1.37174 0
M  V30 2407 O 233.7 4.08745 -0.547831 0
M  V30 2408 H 233.041 0.580397 -0.322545 0
M  V30 2409 H 235.571 1.39996 -1.49206 0
M  V30 2410 H 235.581 3.84339 -1.36922 0
M  V30 2411 H 234.256 3.37951 -2.42408 0
M  V30 2412 H 232.833 3.6776 -0.617034 0
M  V30 2413 N 235.018 0.912232 1.28515 0
M  V30 2414 C 235.928 0.404506 2.31086 0
M  V30 2415 C 236.944 -0.50707 1.66448 0
M  V30 2416 O 238.12 -0.393624 1.97516 0
M  V30 2417 C 235.185 -0.348572 3.44943 0
M  V30 2418 C 234.246 0.59604 4.25142 0
M  V30 2419 C 233.479 -0.121194 5.33562 0
M  V30 2420 O 233.702 -1.34317 5.5436 0
M  V30 2421 O 232.636 0.542716 5.99448 0
M  V30 2422 H 236.462 1.25579 2.76521 0
M  V30 2423 H 234.047 0.676998 1.33181 0
M  V30 2424 H 235.929 -0.77395 4.14232 0
M  V30 2425 H 234.604 -1.17571 3.01594 0
M  V30 2426 H 233.511 1.07079 3.58448 0
M  V30 2427 H 234.844 1.38995 4.72167 0
M  V30 2428 N 236.496 -1.42363 0.676048 0
M  V30 2429 C 237.724 -2.05859 0.207268 0
M  V30 2430 C 238.139 -1.50796 -1.13605 0
M  V30 2431 O 237.496 -0.648265 -1.70598 0
M  V30 2432 C 237.547 -3.61248 0.134975 0
M  V30 2433 O 237.268 -4.1427 1.42521 0
M  V30 2434 C 238.769 -4.41859 -0.357151 0
M  V30 2435 H 235.989 -0.663431 0.100503 0
M  V30 2436 H 238.533 -1.82479 0.923136 0
M  V30 2437 H 236.688 -3.83735 -0.531588 0
M  V30 2438 H 237.102 -5.0815 1.29939 0
M  V30 2439 H 238.576 -5.50847 -0.356641 0
M  V30 2440 H 239.053 -4.16536 -1.39264 0
M  V30 2441 H 239.659 -4.24392 0.27772 0
M  V30 2442 N 237.974 -0.419461 -1.51915 0
M  V30 2443 C 239.199 0.154572 -2.06823 0
M  V30 2444 C 239.624 1.3722 -1.28656 0
M  V30 2445 O 238.982 1.78461 -0.319583 0
M  V30 2446 C 239.03 0.473172 -3.57482 0
M  V30 2447 O 238.134 1.56255 -3.81652 0
M  V30 2448 H 237.475 0.0096924 -0.663929 0
M  V30 2449 H 240.005 -0.595642 -1.95738 0
M  V30 2450 H 240.015 0.728825 -4.01438 0
M  V30 2451 H 238.69 -0.416873 -4.13805 0
M  V30 2452 H 237.267 1.29825 -3.49571 0
M  V30 2453 N 239.452 1.56882 -0.150215 0
M  V30 2454 C 240.699 1.96228 0.500093 0
M  V30 2455 C 241.027 1.03522 1.64661 0
M  V30 2456 O 240.282 0.0650683 1.95592 0
M  V30 2457 C 240.581 3.41801 1.04437 0
M  V30 2458 C 240.247 4.50897 0.0159671 0
M  V30 2459 C 238.909 4.8046 -0.266731 0
M  V30 2460 C 241.261 5.16703 -0.683192 0
M  V30 2461 C 238.589 5.73135 -1.25434 0
M  V30 2462 C 240.941 6.10441 -1.65964 0
M  V30 2463 C 239.605 6.38382 -1.95 0
M  V30 2464 H 238.875 0.718048 0.182997 0
M  V30 2465 H 241.522 1.90019 -0.237724 0
M  V30 2466 H 239.827 3.44857 1.85959 0
M  V30 2467 H 241.524 3.69573 1.55618 0
M  V30 2468 H 238.114 4.27891 0.246485 0
M  V30 2469 H 242.298 4.93993 -0.477983 0
M  V30 2470 H 237.554 5.93074 -1.48571 0
M  V30 2471 H 241.728 6.60507 -2.20689 0
M  V30 2472 H 239.355 7.09996 -2.71679 0
M  V30 2473 N 240.93 -0.123565 1.57115 0
M  V30 2474 C 241.86 -1.15309 2.03042 0
M  V30 2475 C 242.841 -1.43454 0.914061 0
M  V30 2476 O 244.026 -1.53973 1.18347 0
M  V30 2477 C 241.156 -2.48043 2.43089 0
M  V30 2478 C 240.11 -2.3437 3.58127 0
M  V30 2479 C 239.436 -3.72026 3.84059 0
M  V30 2480 C 240.736 -1.80804 4.90007 0
M  V30 2481 H 242.43 -0.771102 2.893 0
M  V30 2482 H 239.976 -0.369479 1.39179 0
M  V30 2483 H 241.929 -3.20311 2.73823 0
M  V30 2484 H 240.653 -2.88122 1.53796 0
M  V30 2485 H 239.312 -1.64551 3.27595 0
M  V30 2486 H 238.96 -4.09582 2.91979 0
M  V30 2487 H 238.66 -3.63732 4.6149 0
M  V30 2488 H 240.184 -4.45806 4.1724 0
M  V30 2489 H 241.598 -2.42886 5.19307 0
M  V30 2490 H 239.995 -1.83343 5.71407 0
M  V30 2491 H 241.065 -0.76528 4.78823 0
M  V30 2492 N 242.408 -1.52605 -0.393616 0
M  V30 2493 C 243.633 -1.71592 -1.16495 0
M  V30 2494 C 244.058 -0.43133 -1.83088 0
M  V30 2495 O 243.416 0.612523 -1.7064 0
M  V30 2496 C 243.464 -2.86318 -2.19213 0
M  V30 2497 O 242.568 -2.52969 -3.257 0
M  V30 2498 H 241.909 -0.570734 -0.33935 0
M  V30 2499 H 244.439 -1.99377 -0.459324 0
M  V30 2500 H 244.449 -3.1168 -2.63286 0
M  V30 2501 H 243.124 -3.79511 -1.7013 0
M  V30 2502 H 241.701 -2.38332 -2.86797 0
M  V30 2503 N 243.887 0.651787 -1.4349 0
M  V30 2504 C 244.834 1.76462 -1.4876 0
M  V30 2505 C 245.804 1.62641 -0.337189 0
M  V30 2506 O 246.989 1.82864 -0.544544 0
M  V30 2507 C 244.129 3.14623 -1.41796 0
M  V30 2508 C 243.242 3.39568 -2.67053 0
M  V30 2509 C 242.377 4.67585 -2.52068 0
M  V30 2510 C 241.416 4.85639 -3.72587 0
M  V30 2511 N 240.553 6.04915 -3.56402 0
M  V30 2512 H 245.393 1.71293 -2.43849 0
M  V30 2513 H 242.93 0.835889 -1.21043 0
M  V30 2514 H 244.888 3.94496 -1.35753 0
M  V30 2515 H 243.518 3.18859 -0.50288 0
M  V30 2516 H 242.57 2.53783 -2.8337 0
M  V30 2517 H 243.882 3.48795 -3.56572 0
M  V30 2518 H 243.036 5.55586 -2.4374 0
M  V30 2519 H 241.775 4.60681 -1.60075 0
M  V30 2520 H 240.78 3.96073 -3.81321 0
M  V30 2521 H 242.005 4.94372 -4.65589 0
M  V30 2522 H 239.951 5.9914 -2.67146 0
M  V30 2523 H 239.868 6.15106 -4.39524 0
M  V30 2524 H 241.136 6.95533 -3.51929 0
M  V30 2525 N 245.365 1.30045 0.890287 0
M  V30 2526 C 246.59 1.21598 1.68014 0
M  V30 2527 C 247.015 -0.218678 1.86825 0
M  V30 2528 O 246.373 -1.15756 1.39536 0
M  V30 2529 C 246.421 1.94434 3.03691 0
M  V30 2530 O 245.525 1.2678 3.92429 0
M  V30 2531 H 244.866 0.420856 0.513592 0
M  V30 2532 H 247.396 1.71775 1.11151 0
M  V30 2533 H 247.406 2.03251 3.5377 0
M  V30 2534 H 246.081 2.98777 2.89318 0
M  V30 2535 H 244.658 1.26282 3.50866 0
M  V30 2536 N 246.843 -1.10192 1.12674 0
M  V30 2537 C 248.12 -1.78717 0.794965 0
M  V30 2538 C 248.5 -1.98628 -0.714853 0
M  V30 2539 O 247.848 -1.58135 -1.64941 0
M  V30 2540 C 248.058 -3.11546 1.5729 0
M  V30 2541 C 249.406 -3.86382 1.76052 0
M  V30 2542 O 250.43 -3.21274 1.53823 0
M  V30 2543 O 249.289 -5.03246 2.13087 0
M  V30 2544 H 246.383 -0.774702 0.289423 0
M  V30 2545 H 248.929 -1.16819 1.23091 0
M  V30 2546 H 247.701 -2.92489 2.59935 0
M  V30 2547 H 247.324 -3.81164 1.13137 0
M  V30 2548 N 248.321 -0.919034 -1.28029 0
M  V30 2549 C 249.271 -0.382574 -2.24767 0
M  V30 2550 C 250.255 0.508286 -1.52661 0
M  V30 2551 O 251.447 0.347145 -1.73562 0
M  V30 2552 C 248.576 0.371432 -3.41285 0
M  V30 2553 C 247.662 -0.535449 -4.20706 0
M  V30 2554 N 248.053 -1.65141 -4.78082 0
M  V30 2555 C 246.351 -0.336824 -4.44726 0
M  V30 2556 C 247.052 -2.21475 -5.37888 0
M  V30 2557 N 246.028 -1.50537 -5.22341 0
M  V30 2558 H 249.83 -1.23477 -2.66703 0
M  V30 2559 H 247.344 -0.772299 -1.42861 0
M  V30 2560 H 249.341 0.772638 -4.09678 0
M  V30 2561 H 248.001 1.22066 -3.00882 0
M  V30 2562 H 249.012 -2.03392 -4.7629 0
M  V30 2563 H 245.689 0.47246 -4.14818 0
M  V30 2564 H 247.079 -3.15379 -5.93284 0
M  V30 2565 N 249.799 1.42003 -0.683588 0
M  V30 2566 C 251.024 2.06265 -0.216647 0
M  V30 2567 C 251.449 1.51059 1.12083 0
M  V30 2568 O 250.807 0.632638 1.69904 0
M  V30 2569 C 250.855 3.60191 -0.171759 0
M  V30 2570 O 249.959 4.03396 0.857069 0
M  V30 2571 H 249.3 0.65502 -0.108834 0
M  V30 2572 H 251.83 1.81982 -0.935077 0
M  V30 2573 H 251.84 4.08 0.0014303 0
M  V30 2574 H 250.515 3.99743 -1.14796 0
M  V30 2575 H 249.092 3.67117 0.654208 0
M  V30 2576 N 251.277 0.427512 1.51691 0
M  V30 2577 C 252.524 -0.142229 2.02 0
M  V30 2578 C 252.852 -1.43566 1.31221 0
M  V30 2579 O 252.107 -1.91298 0.412744 0
M  V30 2580 C 252.406 -0.418249 3.54944 0
M  V30 2581 C 252.072 0.788187 4.43958 0
M  V30 2582 C 250.734 1.11906 4.68007 0
M  V30 2583 C 253.086 1.59347 4.96244 0
M  V30 2584 C 250.414 2.25608 5.41588 0
M  V30 2585 C 252.766 2.7214 5.71072 0
M  V30 2586 C 251.43 3.05692 5.93387 0
M  V30 2587 H 250.7 -0.0520451 0.73917 0
M  V30 2588 H 253.347 0.572697 1.82736 0
M  V30 2589 H 251.652 -1.21496 3.72486 0
M  V30 2590 H 253.349 -0.872339 3.91397 0
M  V30 2591 H 249.939 0.520344 4.2543 0
M  V30 2592 H 254.123 1.35106 4.77556 0
M  V30 2593 H 249.379 2.51929 5.57083 0
M  V30 2594 H 253.553 3.34914 6.10578 0
M  V30 2595 H 251.18 3.9391 6.50184 0
M  V30 2596 N 252.755 -1.56801 0.158532 0
M  V30 2597 C 254.002 -1.9649 -0.489679 0
M  V30 2598 C 254.33 -1.04394 -1.6411 0
M  V30 2599 O 253.585 -0.0754401 -1.95555 0
M  V30 2600 C 253.884 -3.4235 -1.02623 0
M  V30 2601 C 253.55 -4.50899 0.00794526 0
M  V30 2602 C 252.212 -4.80312 0.292207 0
M  V30 2603 C 254.564 -5.16333 0.710584 0
M  V30 2604 C 251.892 -5.72461 1.28472 0
M  V30 2605 C 254.244 -6.09553 1.69199 0
M  V30 2606 C 252.908 -6.37339 1.98383 0
M  V30 2607 H 252.178 -0.719009 -0.179186 0
M  V30 2608 H 254.825 -1.8989 0.247798 0
M  V30 2609 H 253.13 -3.45838 -1.84128 0
M  V30 2610 H 254.827 -3.70393 -1.53656 0
M  V30 2611 H 251.417 -4.28015 -0.22379 0
M  V30 2612 H 255.601 -4.93732 0.504174 0
M  V30 2613 H 250.857 -5.92278 1.51714 0
M  V30 2614 H 255.031 -6.59327 2.24189 0
M  V30 2615 H 252.658 -7.08546 2.7544 0
M  V30 2616 N 254.233 0.115231 -1.57178 0
M  V30 2617 C 255.18 1.14115 -2.00615 0
M  V30 2618 C 256.15 1.40939 -0.878941 0
M  V30 2619 O 257.335 1.52741 -1.14345 0
M  V30 2620 C 254.475 2.46156 -2.4187 0
M  V30 2621 C 253.588 2.26236 -3.68024 0
M  V30 2622 C 252.723 3.51534 -3.98243 0
M  V30 2623 C 251.762 3.26787 -5.17568 0
M  V30 2624 N 250.899 4.44298 -5.43639 0
M  V30 2625 H 255.739 0.763743 -2.88047 0
M  V30 2626 H 253.276 0.365615 -1.42484 0
M  V30 2627 H 255.234 3.23189 -2.63827 0
M  V30 2628 H 253.864 2.81783 -1.57475 0
M  V30 2629 H 252.916 1.40102 -3.5366 0
M  V30 2630 H 254.228 2.03929 -4.55208 0
M  V30 2631 H 253.382 4.36984 -4.20868 0
M  V30 2632 H 252.121 3.76876 -3.09541 0
M  V30 2633 H 251.126 2.39729 -4.94783 0
M  V30 2634 H 252.351 3.02812 -6.0785 0
M  V30 2635 H 250.297 4.69754 -4.57895 0
M  V30 2636 H 250.214 4.25109 -6.25154 0
M  V30 2637 H 251.482 5.3087 -5.70786 0
M  V30 2638 N 255.711 1.52812 0.385517 0
M  V30 2639 C 256.96 1.67249 1.12741 0
M  V30 2640 C 257.273 0.4205 1.91027 0
M  V30 2641 O 258.479 0.445064 2.67827 0
M  V30 2642 C 256.935 2.95583 2.05326 0
M  V30 2643 C 256.543 4.27974 1.32447 0
M  V30 2644 C 258.287 3.19386 2.7963 0
M  V30 2645 C 256.194 5.47412 2.23818 0
M  V30 2646 H 255.124 0.6231 0.424573 0
M  V30 2647 H 257.775 1.79309 0.389924 0
M  V30 2648 H 256.157 2.77277 2.82725 0
M  V30 2649 H 257.331 4.56844 0.602495 0
M  V30 2650 H 255.646 4.10459 0.700885 0
M  V30 2651 H 258.243 4.05801 3.48181 0
M  V30 2652 H 258.586 2.34604 3.43899 0
M  V30 2653 H 259.119 3.38274 2.09322 0
M  V30 2654 H 255.858 6.34612 1.64157 0
M  V30 2655 H 255.378 5.22849 2.93921 0
M  V30 2656 H 257.057 5.81423 2.83824 0
M  V30 2657 N 257.189 -0.644168 1.43834 0
M  V30 2658 C 258.414 -1.43642 1.49605 0
M  V30 2659 C 258.839 -1.8773 0.117913 0
M  V30 2660 O 258.197 -1.57938 -0.890239 0
M  V30 2661 C 258.245 -2.6416 2.45463 0
M  V30 2662 O 257.349 -3.63538 1.94714 0
M  V30 2663 H 256.69 -0.430329 0.50568 0
M  V30 2664 H 259.22 -0.787448 1.8884 0
M  V30 2665 H 259.23 -3.11864 2.63068 0
M  V30 2666 H 257.905 -2.31414 3.45572 0
M  V30 2667 H 256.482 -3.2273 1.86814 0
M  V30 2668 N 258.668 -1.30515 -0.883378 0
M  V30 2669 C 259.898 -1.22182 -1.66599 0
M  V30 2670 C 260.306 0.217507 -1.87946 0
M  V30 2671 O 259.649 1.1554 -1.42815 0
M  V30 2672 C 259.711 -1.88146 -3.06335 0
M  V30 2673 C 259.375 -3.37476 -3.08154 0
M  V30 2674 C 260.372 -4.33443 -2.87094 0
M  V30 2675 C 258.057 -3.7895 -3.29701 0
M  V30 2676 C 260.051 -5.68858 -2.8754 0
M  V30 2677 C 257.738 -5.14482 -3.29776 0
M  V30 2678 C 258.736 -6.09246 -3.0872 0
M  V30 2679 O 258.424 -7.42302 -3.08615 0
M  V30 2680 H 258.156 -0.423898 -0.52658 0
M  V30 2681 H 260.71 -1.72703 -1.11188 0
M  V30 2682 H 258.94 -1.32157 -3.63416 0
M  V30 2683 H 260.629 -1.7391 -3.66756 0
M  V30 2684 H 261.395 -4.02733 -2.70243 0
M  V30 2685 H 257.274 -3.05631 -3.45124 0
M  V30 2686 H 260.818 -6.428 -2.71024 0
M  V30 2687 H 256.715 -5.44832 -3.46163 0
M  V30 2688 H 257.483 -7.5131 -3.24769 0
M  V30 2689 N 260.146 1.09593 -1.13257 0
M  V30 2690 C 261.076 2.18214 -0.830946 0
M  V30 2691 C 262.057 1.68812 0.208966 0
M  V30 2692 O 263.242 1.9408 0.0682666 0
M  V30 2693 C 260.372 3.46051 -0.294296 0
M  V30 2694 C 259.326 4.08778 -1.26826 0
M  V30 2695 C 258.652 5.31419 -0.591449 0
M  V30 2696 C 259.952 4.51476 -2.62615 0
M  V30 2697 H 261.646 2.43703 -1.73923 0
M  V30 2698 H 259.192 1.17128 -0.837675 0
M  V30 2699 H 261.145 4.2134 -0.0709606 0
M  V30 2700 H 259.869 3.20079 0.649366 0
M  V30 2701 H 258.528 3.35505 -1.47756 0
M  V30 2702 H 258.176 5.01727 0.357633 0
M  V30 2703 H 257.876 5.74341 -1.24123 0
M  V30 2704 H 259.4 6.09433 -0.377355 0
M  V30 2705 H 260.814 5.17999 -2.45663 0
M  V30 2706 H 259.211 5.05277 -3.23752 0
M  V30 2707 H 260.281 3.63962 -3.20406 0
M  V30 2708 N 261.624 0.925811 1.2754 0
M  V30 2709 C 262.852 0.581509 1.9856 0
M  V30 2710 C 263.267 -0.840041 1.69082 0
M  V30 2711 O 262.624 -1.55805 0.950312 0
M  V30 2712 C 262.675 0.795589 3.52637 0
M  V30 2713 O 262.396 2.16121 3.81082 0
M  V30 2714 C 263.897 0.459744 4.4091 0
M  V30 2715 H 261.117 0.220538 0.633722 0
M  V30 2716 H 263.661 1.24232 1.6244 0
M  V30 2717 H 261.816 0.18161 3.86974 0
M  V30 2718 H 262.23 2.2098 4.75676 0
M  V30 2719 H 263.704 0.660244 5.48037 0
M  V30 2720 H 264.181 -0.604625 4.35018 0
M  V30 2721 H 264.787 1.05178 4.12089 0
M  V30 2722 N 263.102 -1.41638 0.69111 0
M  V30 2723 C 264.349 -2.01299 0.220193 0
M  V30 2724 C 264.677 -1.54715 -1.17871 0
M  V30 2725 O 263.932 -0.747193 -1.80874 0
M  V30 2726 C 264.231 -3.56714 0.221277 0
M  V30 2727 C 263.897 -4.22792 1.56709 0
M  V30 2728 C 262.559 -4.40557 1.93554 0
M  V30 2729 C 264.911 -4.59883 2.45268 0
M  V30 2730 C 262.239 -4.92688 3.18552 0
M  V30 2731 C 264.591 -5.13403 3.69595 0
M  V30 2732 C 263.255 -5.29379 4.06589 0
M  V30 2733 H 262.525 -0.736606 0.0805743 0
M  V30 2734 H 265.172 -1.69598 0.889319 0
M  V30 2735 H 263.477 -3.8818 -0.531391 0
M  V30 2736 H 265.174 -4.00678 -0.160547 0
M  V30 2737 H 261.764 -4.09336 1.2705 0
M  V30 2738 H 265.948 -4.45817 2.18084 0
M  V30 2739 H 261.204 -5.03242 3.47214 0
M  V30 2740 H 265.378 -5.41084 4.38407 0
M  V30 2741 H 263.005 -5.69537 5.03519 0
M  V30 2742 N 264.58 -0.43555 -1.51462 0
M  V30 2743 C 265.51 0.367376 -2.30592 0
M  V30 2744 C 266.491 1.02263 -1.35928 0
M  V30 2745 O 267.676 1.02661 -1.64847 0
M  V30 2746 C 264.806 1.46983 -3.14664 0
M  V30 2747 C 263.76 0.938161 -4.17591 0
M  V30 2748 C 263.086 2.13622 -4.90173 0
M  V30 2749 C 264.386 -0.0261621 -5.22293 0
M  V30 2750 H 266.08 -0.292969 -2.97963 0
M  V30 2751 H 263.626 -0.14234 -1.43295 0
M  V30 2752 H 265.579 2.03873 -3.688 0
M  V30 2753 H 264.303 2.15843 -2.4511 0
M  V30 2754 H 262.962 0.391481 -3.64504 0
M  V30 2755 H 262.61 2.81098 -4.17124 0
M  V30 2756 H 262.31 1.78688 -5.59772 0
M  V30 2757 H 263.834 2.7107 -5.47132 0
M  V30 2758 H 265.248 0.452384 -5.71512 0
M  V30 2759 H 263.645 -0.287992 -5.99409 0
M  V30 2760 H 264.715 -0.963391 -4.75233 0
M  V30 2761 N 266.058 1.56714 -0.166846 0
M  V30 2762 C 267.469 1.83378 0.350646 0
M  V30 2763 C 267.82 1.08646 1.63372 0
M  V30 2764 O 266.945 0.338058 2.13743 0
M  V30 2765 C 267.54 3.32643 0.642963 0
M  V30 2766 C 266.099 3.59818 1.10491 0
M  V30 2767 C 265.246 2.76954 0.138411 0
M  V30 2768 H 268.197 1.53803 -0.391193 0
M  V30 2769 H 268.218 3.49878 1.49551 0
M  V30 2770 H 267.73 3.87007 -0.291055 0
M  V30 2771 H 265.831 3.1086 2.05418 0
M  V30 2772 H 265.944 4.68178 1.01716 0
M  V30 2773 H 264.308 2.4666 0.634911 0
M  V30 2774 H 265.091 3.34097 -0.789549 0
M  V30 2775 N 267.536 -0.106894 1.57237 0
M  V30 2776 C 268.761 -0.830287 1.90055 0
M  V30 2777 C 269.186 -1.72064 0.75998 0
M  V30 2778 O 268.544 -1.78982 -0.288991 0
M  V30 2779 C 268.592 -1.6295 3.21683 0
M  V30 2780 O 267.696 -2.73748 3.08441 0
M  V30 2781 H 267.037 -0.228855 0.623315 0
M  V30 2782 H 269.567 -0.085658 2.04421 0
M  V30 2783 H 269.577 -2.01621 3.54701 0
M  V30 2784 H 268.252 -0.975989 4.04286 0
M  V30 2785 H 266.829 -2.38192 2.86913 0
M  V30 2786 N 269.014 -1.53014 -0.377408 0
M  V30 2787 C 269.977 -1.77957 -1.44444 0
M  V30 2788 C 270.977 -0.649763 -1.47087 0
M  V30 2789 O 272.167 -0.917897 -1.48055 0
M  V30 2790 C 269.299 -1.89089 -2.83651 0
M  V30 2791 H 270.492 -2.73243 -1.23606 0
M  V30 2792 H 268.045 -1.43912 -0.609844 0
M  V30 2793 H 268.78 -0.958293 -3.09818 0
M  V30 2794 H 268.565 -2.71254 -2.83132 0
M  V30 2795 H 270.055 -2.1002 -3.60945 0
M  V30 2796 N 270.492 0.636531 -1.44174 0
M  V30 2797 C 271.769 1.39463 -1.37148 0
M  V30 2798 C 272.149 2.11082 -0.027507 0
M  V30 2799 O 271.497 2.05954 0.989716 0
M  V30 2800 C 271.707 2.36552 -2.56601 0
M  V30 2801 C 273.055 3.00048 -3.00427 0
M  V30 2802 O 274.079 2.46878 -2.56767 0
M  V30 2803 O 272.938 3.96488 -3.76111 0
M  V30 2804 H 270.032 0.623903 -0.542839 0
M  V30 2805 H 272.578 0.662039 -1.56253 0
M  V30 2806 H 271.35 1.82692 -3.46034 0
M  V30 2807 H 270.973 3.17236 -2.39681 0
M  V30 2808 N 271.97 1.30982 0.876444 0
M  V30 2809 C 272.88 1.2003 2.01569 0
M  V30 2810 C 273.896 0.11838 1.73597 0
M  V30 2811 O 275.072 0.33495 1.98595 0
M  V30 2812 C 272.137 0.901637 3.34771 0
M  V30 2813 C 271.198 2.06979 3.76109 0
M  V30 2814 C 270.431 1.78529 5.02954 0
M  V30 2815 O 270.654 0.717296 5.65872 0
M  V30 2816 O 269.588 2.64019 5.40905 0
M  V30 2817 H 273.414 2.15753 2.13739 0
M  V30 2818 H 270.999 1.10658 1.00375 0
M  V30 2819 H 272.881 0.750645 4.1466 0
M  V30 2820 H 271.556 -0.0256141 3.2369 0
M  V30 2821 H 270.463 2.27616 2.96887 0
M  V30 2822 H 271.796 2.97907 3.91807 0
M  V30 2823 N 273.449 -1.08991 1.13837 0
M  V30 2824 C 274.698 -1.80631 0.897509 0
M  V30 2825 C 275.011 -1.86872 -0.57777 0
M  V30 2826 O 276.217 -2.54866 -0.935701 0
M  V30 2827 C 274.673 -3.24517 1.55618 0
M  V30 2828 C 274.281 -3.26529 3.0673 0
M  V30 2829 C 276.025 -4.00882 1.3962 0
M  V30 2830 C 273.932 -4.64965 3.65461 0
M  V30 2831 H 272.862 -0.67691 0.332129 0
M  V30 2832 H 275.513 -1.2246 1.3666 0
M  V30 2833 H 273.895 -3.82778 1.01476 0
M  V30 2834 H 275.069 -2.78008 3.67489 0
M  V30 2835 H 273.384 -2.63656 3.22296 0
M  V30 2836 H 275.981 -5.03167 1.80906 0
M  V30 2837 H 276.324 -4.14896 0.341578 0
M  V30 2838 H 276.857 -3.49075 1.90766 0
M  V30 2839 H 273.596 -4.56153 4.70749 0
M  V30 2840 H 273.116 -5.13792 3.09481 0
M  V30 2841 H 274.795 -5.3394 3.654 0
M  V30 2842 N 274.927 -0.932562 -1.27047 0
M  V30 2843 C 276.157 -0.591173 -1.97961 0
M  V30 2844 C 276.565 0.836219 -1.69717 0
M  V30 2845 O 275.908 1.56801 -0.957036 0
M  V30 2846 C 275.97 -0.743082 -3.51736 0
M  V30 2847 C 275.634 -2.1435 -4.03613 0
M  V30 2848 C 276.631 -3.11815 -4.16014 0
M  V30 2849 C 274.316 -2.46175 -4.37839 0
M  V30 2850 C 276.31 -4.39211 -4.61923 0
M  V30 2851 C 273.997 -3.73806 -4.83438 0
M  V30 2852 C 274.995 -4.70137 -4.95439 0
M  V30 2853 O 274.683 -5.95496 -5.40037 0
M  V30 2854 H 274.415 -0.222375 -0.638377 0
M  V30 2855 H 276.969 -1.25317 -1.62742 0
M  V30 2856 H 275.199 -0.0239739 -3.86693 0
M  V30 2857 H 276.888 -0.40603 -4.03864 0
M  V30 2858 H 277.654 -2.88549 -3.89826 0
M  V30 2859 H 273.533 -1.71936 -4.27737 0
M  V30 2860 H 277.077 -5.14404 -4.71205 0
M  V30 2861 H 272.974 -3.96888 -5.09068 0
M  V30 2862 H 273.742 -5.98554 -5.58279 0
M  V30 2863 N 276.405 1.4127 -0.698611 0
M  V30 2864 C 277.682 1.94955 -0.158762 0
M  V30 2865 C 278.062 1.63781 1.33188 0
M  V30 2866 O 277.41 0.946423 2.07979 0
M  V30 2867 C 277.62 3.46044 -0.453309 0
M  V30 2868 C 278.968 4.22872 -0.382707 0
M  V30 2869 O 279.992 3.54076 -0.388396 0
M  V30 2870 O 278.851 5.45407 -0.345463 0
M  V30 2871 H 275.945 0.82683 -0.0167505 0
M  V30 2872 H 278.491 1.50971 -0.77498 0
M  V30 2873 H 277.263 3.62028 -1.48498 0
M  V30 2874 H 276.886 3.97128 0.19373 0
M  V30 2875 N 277.883 0.443576 1.51229 0
M  V30 2876 C 279.123 -0.119889 2.04048 0
M  V30 2877 C 279.487 -1.39418 1.32009 0
M  V30 2878 O 280.688 -2.03829 1.75235 0
M  V30 2879 C 278.959 -0.327233 3.55899 0
M  V30 2880 S 280.518 -0.853208 4.30425 0
M  V30 2881 H 277.336 -0.028921 0.710412 0
M  V30 2882 H 279.938 0.604413 1.85922 0
M  V30 2883 H 278.642 0.606445 4.05895 0
M  V30 2884 H 278.173 -1.07844 3.7833 0
M  V30 2885 H 280.188 -2.13005 4.48155 0
M  V30 2886 N 279.361 -1.56624 0.175154 0
M  V30 2887 C 280.308 -2.18149 -0.753634 0
M  V30 2888 C 281.278 -1.12265 -1.22417 0
M  V30 2889 O 282.463 -1.40432 -1.29165 0
M  V30 2890 C 279.603 -2.82933 -1.97592 0
M  V30 2891 C 278.716 -4.03289 -1.5486 0
M  V30 2892 C 277.851 -4.55988 -2.72485 0
M  V30 2893 C 276.89 -5.68746 -2.26262 0
M  V30 2894 N 276.027 -6.15938 -3.36994 0
M  V30 2895 H 280.867 -2.9717 -0.222195 0
M  V30 2896 H 278.404 -1.46774 -0.0979422 0
M  V30 2897 H 280.362 -3.18653 -2.69288 0
M  V30 2898 H 278.992 -2.06509 -2.481 0
M  V30 2899 H 278.044 -3.73364 -0.728246 0
M  V30 2900 H 279.356 -4.849 -1.16933 0
M  V30 2901 H 278.51 -4.9391 -3.52332 0
M  V30 2902 H 277.249 -3.73443 -3.13674 0
M  V30 2903 H 276.254 -5.30372 -1.44863 0
M  V30 2904 H 277.479 -6.53095 -1.86127 0
M  V30 2905 H 275.425 -5.36321 -3.77751 0
M  V30 2906 H 275.342 -6.92548 -3.03172 0
M  V30 2907 H 276.61 -6.58511 -4.17114 0
M  V30 2908 N 280.839 0.0985539 -1.57292 0
M  V30 2909 C 282.085 0.803867 -1.86188 0
M  V30 2910 C 282.418 1.78549 -0.763794 0
M  V30 2911 O 281.693 1.93153 0.22855 0
M  V30 2912 C 281.976 1.53568 -3.25713 0
M  V30 2913 C 281.829 0.572277 -4.46145 0
M  V30 2914 C 283.148 2.48708 -3.63087 0
M  V30 2915 H 280.267 0.290781 -0.677211 0
M  V30 2916 H 282.909 0.0675783 -1.8988 0
M  V30 2917 H 281.059 2.16332 -3.22696 0
M  V30 2918 H 282.731 -0.0480894 -4.61275 0
M  V30 2919 H 280.974 -0.114618 -4.33649 0
M  V30 2920 H 281.645 1.12139 -5.40489 0
M  V30 2921 H 284.121 1.96039 -3.67026 0
M  V30 2922 H 282.997 2.96932 -4.61652 0
M  V30 2923 H 283.258 3.32309 -2.91588 0
M  V30 2924 N 282.317 1.53212 0.369288 0
M  V30 2925 C 283.227 1.82342 1.47609 0
M  V30 2926 C 284.243 0.711532 1.58787 0
M  V30 2927 O 285.419 1.0012 1.74751 0
M  V30 2928 C 282.484 2.00393 2.8292 0
M  V30 2929 C 281.545 3.24297 2.81301 0
M  V30 2930 C 280.778 3.41478 4.10157 0
M  V30 2931 O 281.001 2.63033 5.06132 0
M  V30 2932 O 279.935 4.34817 4.16194 0
M  V30 2933 H 283.761 2.76366 1.25918 0
M  V30 2934 H 281.346 1.38547 0.559034 0
M  V30 2935 H 283.228 2.13859 3.63101 0
M  V30 2936 H 281.903 1.09559 3.04596 0
M  V30 2937 H 280.81 3.16257 1.99831 0
M  V30 2938 H 282.143 4.15041 2.64578 0
M  V30 2939 N 283.795 -0.628877 1.44509 0
M  V30 2940 C 284.745 -1.7345 1.47983 0
M  V30 2941 C 285.729 -1.5715 0.345373 0
M  V30 2942 O 286.921 -1.66848 0.590829 0
M  V30 2943 C 284.05 -3.12143 1.42904 0
M  V30 2944 C 283.136 -3.33906 2.61472 0
M  V30 2945 N 283.527 -3.26024 3.86706 0
M  V30 2946 C 281.825 -3.64709 2.56716 0
M  V30 2947 C 282.526 -3.48536 4.65722 0
M  V30 2948 N 281.502 -3.71517 3.96832 0
M  V30 2949 H 285.304 -1.65818 2.42655 0
M  V30 2950 H 282.818 -0.831419 1.39503 0
M  V30 2951 H 284.815 -3.91433 1.43476 0
M  V30 2952 H 283.475 -3.2094 0.492717 0
M  V30 2953 H 284.486 -3.04893 4.18641 0
M  V30 2954 H 281.163 -3.80473 1.71891 0
M  V30 2955 H 282.553 -3.48016 5.74747 0
M  V30 2956 N 285.273 -1.31445 -0.869486 0
M  V30 2957 C 286.519 -1.22347 -1.62489 0
M  V30 2958 C 286.874 0.216204 -1.91181 0
M  V30 2959 O 286.167 1.14977 -1.53268 0
M  V30 2960 C 286.361 -2.00145 -2.96102 0
M  V30 2961 C 286.19 -3.51531 -2.80456 0
M  V30 2962 C 284.96 -4.20882 -2.79618 0
M  V30 2963 C 287.158 -4.46471 -2.5528 0
M  V30 2964 N 285.14 -5.58421 -2.55027 0
M  V30 2965 C 286.511 -5.71682 -2.39957 0
M  V30 2966 C 288.566 -4.35892 -2.40629 0
M  V30 2967 C 287.269 -6.87511 -2.11472 0
M  V30 2968 C 289.295 -5.51505 -2.13532 0
M  V30 2969 C 288.657 -6.75707 -1.98998 0
M  V30 2970 H 284.756 -0.502815 -0.598917 0
M  V30 2971 H 287.34 -1.65639 -1.02332 0
M  V30 2972 H 285.511 -1.59221 -3.54264 0
M  V30 2973 H 287.243 -1.83063 -3.60929 0
M  V30 2974 H 283.998 -3.72857 -2.92018 0
M  V30 2975 H 284.422 -6.30841 -2.45701 0
M  V30 2976 H 289.064 -3.40533 -2.50593 0
M  V30 2977 H 286.782 -7.82897 -2.00245 0
M  V30 2978 H 290.368 -5.45238 -2.02995 0
M  V30 2979 H 289.248 -7.63655 -1.78326 0
M  V30 2980 N 286.751 1.08385 -1.14413 0
M  V30 2981 C 287.999 1.80419 -0.910679 0
M  V30 2982 C 288.32 1.86658 0.564243 0
M  V30 2983 O 287.59 1.35985 1.41014 0
M  V30 2984 H 286.17 0.668204 -0.333934 0
M  V30 2985 H 288.832 1.31037 -1.44275 0
M  V30 2986 H 287.928 2.83238 -1.31082 0
M  V30 2987 N 288.23 0.939286 1.26551 0
M  V30 2988 C 289.16 0.465044 2.28822 0
M  V30 2989 C 290.141 -0.480692 1.63167 0
M  V30 2990 O 291.326 -0.382955 1.90387 0
M  V30 2991 C 288.456 -0.27234 3.46231 0
M  V30 2992 C 287.41 0.58666 4.2396 0
M  V30 2993 C 286.736 -0.280573 5.33963 0
M  V30 2994 C 288.036 1.85704 4.88171 0
M  V30 2995 H 289.73 1.31979 2.68741 0
M  V30 2996 H 287.276 0.636061 1.29191 0
M  V30 2997 H 289.229 -0.615133 4.16886 0
M  V30 2998 H 287.953 -1.16121 3.0526 0
M  V30 2999 H 286.612 0.91232 3.55067 0
M  V30 3000 H 286.26 -1.16874 4.89234 0
M  V30 3001 H 285.96 0.29076 5.8688 0
M  V30 3002 H 287.484 -0.618678 6.07458 0
M  V30 3003 H 288.898 1.58161 5.51052 0
M  V30 3004 H 287.295 2.37279 5.51197 0
M  V30 3005 H 288.365 2.56957 4.11219 0
M  V30 3006 N 289.708 -1.40897 0.706093 0
M  V30 3007 C 290.985 -1.94868 0.169099 0
M  V30 3008 C 291.365 -1.64485 -1.32318 0
M  V30 3009 O 290.713 -0.95744 -2.07474 0
M  V30 3010 C 290.923 -3.45798 0.471654 0
M  V30 3011 C 292.271 -4.22663 0.405127 0
M  V30 3012 O 293.295 -3.53865 0.407168 0
M  V30 3013 O 292.154 -5.45216 0.374383 0
M  V30 3014 H 289.248 -0.82673 0.0211352 0
M  V30 3015 H 291.794 -1.50558 0.782976 0
M  V30 3016 H 290.566 -3.61235 1.50416 0
M  V30 3017 H 290.189 -3.97225 -0.172666 0
M  V30 3018 N 291.186 -0.45159 -1.50991 0
M  V30 3019 C 292.096 0.358431 -2.31846 0
M  V30 3020 C 293.112 1.01438 -1.41373 0
M  V30 3021 O 294.288 1.00663 -1.74439 0
M  V30 3022 C 291.353 1.43704 -3.15515 0
M  V30 3023 C 290.414 0.799742 -4.21785 0
M  V30 3024 C 289.647 1.82696 -5.01456 0
M  V30 3025 O 289.87 3.05105 -4.81941 0
M  V30 3026 O 288.804 1.40958 -5.85162 0
M  V30 3027 H 292.63 -0.302032 -3.02194 0
M  V30 3028 H 290.215 -0.213825 -1.47862 0
M  V30 3029 H 292.097 2.06227 -3.67489 0
M  V30 3030 H 290.772 2.08133 -2.47916 0
M  V30 3031 H 289.679 0.136084 -3.73852 0
M  V30 3032 H 291.012 0.198718 -4.91799 0
M  V30 3033 N 292.664 1.56529 -0.183458 0
M  V30 3034 C 294.075 1.83739 0.331177 0
M  V30 3035 C 294.426 1.10373 1.62211 0
M  V30 3036 O 293.551 0.36071 2.13373 0
M  V30 3037 C 294.146 3.33306 0.607646 0
M  V30 3038 C 292.705 3.60969 1.06668 0
M  V30 3039 C 291.852 2.77086 0.109029 0
M  V30 3040 H 294.803 1.53379 -0.407484 0
M  V30 3041 H 294.824 3.51444 1.45832 0
M  V30 3042 H 294.336 3.86677 -0.332086 0
M  V30 3043 H 292.437 3.13021 2.0211 0
M  V30 3044 H 292.55 4.69231 0.967447 0
M  V30 3045 H 290.914 2.47319 0.608714 0
M  V30 3046 H 291.697 3.33241 -0.82494 0
M  V30 3047 N 294.142 -0.090211 1.57342 0
M  V30 3048 C 295.072 -1.10976 2.05443 0
M  V30 3049 C 296.053 -1.41482 0.944284 0
M  V30 3050 O 297.238 -1.51428 1.21586 0
M  V30 3051 C 294.368 -2.42831 2.48295 0
M  V30 3052 C 293.322 -2.26721 3.63018 0
M  V30 3053 C 292.648 -3.63796 3.91863 0
M  V30 3054 C 293.948 -1.7037 4.93732 0
M  V30 3055 H 295.642 -0.709564 2.9087 0
M  V30 3056 H 293.188 -0.339874 1.39932 0
M  V30 3057 H 295.141 -3.14431 2.80555 0
M  V30 3058 H 293.865 -2.84795 1.59873 0
M  V30 3059 H 292.524 -1.57565 3.31012 0
M  V30 3060 H 292.172 -4.03297 3.00601 0
M  V30 3061 H 291.872 -3.53861 4.69101 0
M  V30 3062 H 293.396 -4.36855 4.26603 0
M  V30 3063 H 294.81 -2.31816 5.24342 0
M  V30 3064 H 293.207 -1.71181 5.75167 0
M  V30 3065 H 294.277 -0.663542 4.80339 0
M  V30 3066 N 295.62 -1.53406 -0.361157 0
M  V30 3067 C 296.55 -1.83136 -1.44857 0
M  V30 3068 C 297.531 -0.685174 -1.5569 0
M  V30 3069 O 298.716 -0.93544 -1.70186 0
M  V30 3070 C 295.846 -2.02522 -2.82138 0
M  V30 3071 C 294.8 -3.18302 -2.86126 0
M  V30 3072 C 294.126 -3.22989 -4.26125 0
M  V30 3073 C 295.426 -4.56796 -2.53248 0
M  V30 3074 H 297.12 -2.74201 -1.20226 0
M  V30 3075 H 294.666 -1.31938 -0.576922 0
M  V30 3076 H 296.619 -2.21904 -3.58241 0
M  V30 3077 H 295.343 -1.08172 -3.08166 0
M  V30 3078 H 294.002 -2.98747 -2.12475 0
M  V30 3079 H 293.65 -2.26267 -4.49235 0
M  V30 3080 H 293.35 -4.00781 -4.29708 0
M  V30 3081 H 294.874 -3.44559 -5.04094 0
M  V30 3082 H 296.288 -4.7631 -3.19064 0
M  V30 3083 H 294.685 -5.36862 -2.68141 0
M  V30 3084 H 295.755 -4.61606 -1.48484 0
M  V30 3085 N 297.098 0.621204 -1.44841 0
M  V30 3086 C 298.045 1.73267 -1.5247 0
M  V30 3087 C 299.015 1.6189 -0.371611 0
M  V30 3088 O 300.2 1.81668 -0.58321 0
M  V30 3089 C 297.34 3.11545 -1.48438 0
M  V30 3090 C 296.453 3.33827 -2.74196 0
M  V30 3091 C 295.588 4.62133 -2.61929 0
M  V30 3092 C 294.627 4.77627 -3.82804 0
M  V30 3093 N 293.764 5.97219 -3.69153 0
M  V30 3094 H 298.604 1.66082 -2.47428 0
M  V30 3095 H 296.141 0.810026 -1.22788 0
M  V30 3096 H 298.099 3.91528 -1.4409 0
M  V30 3097 H 296.729 3.1772 -0.570402 0
M  V30 3098 H 295.781 2.47715 -2.88689 0
M  V30 3099 H 297.093 3.41153 -3.6389 0
M  V30 3100 H 296.247 5.50291 -2.5547 0
M  V30 3101 H 294.986 4.57182 -1.69811 0
M  V30 3102 H 293.991 3.87896 -3.89637 0
M  V30 3103 H 295.216 4.84385 -4.75971 0
M  V30 3104 H 293.162 5.93339 -2.79794 0
M  V30 3105 H 293.079 6.05644 -4.52472 0
M  V30 3106 H 294.347 6.87912 -3.66603 0
M  V30 3107 N 298.576 1.31904 0.862503 0
M  V30 3108 C 299.526 1.16772 1.95827 0
M  V30 3109 C 300.51 0.0767098 1.60717 0
M  V30 3110 O 301.702 0.302407 1.74398 0
M  V30 3111 C 298.831 0.884858 3.317 0
M  V30 3112 C 297.917 2.0172 3.73055 0
M  V30 3113 N 298.308 3.265 3.86305 0
M  V30 3114 C 296.606 1.91861 4.02623 0
M  V30 3115 C 297.307 4.00616 4.2176 0
M  V30 3116 N 296.283 3.28847 4.32852 0
M  V30 3117 H 300.085 2.11382 2.04193 0
M  V30 3118 H 297.599 1.2357 1.05377 0
M  V30 3119 H 299.596 0.757419 4.09962 0
M  V30 3120 H 298.256 -0.0529448 3.24657 0
M  V30 3121 H 299.267 3.61529 3.70833 0
M  V30 3122 H 295.944 1.05593 4.03926 0
M  V30 3123 H 297.334 5.08182 4.39546 0
M  V30 3124 N 300.054 -1.07777 1.14986 0
M  V30 3125 C 301.3 -1.80719 0.93339 0
M  V30 3126 C 301.655 -1.8484 -0.534019 0
M  V30 3127 O 300.948 -1.31795 -1.3907 0
M  V30 3128 C 301.142 -3.25495 1.47608 0
M  V30 3129 C 300.971 -3.3548 2.99472 0
M  V30 3130 C 299.741 -3.46293 3.6798 0
M  V30 3131 C 301.939 -3.26596 3.97291 0
M  V30 3132 N 299.921 -3.45136 5.07695 0
M  V30 3133 C 301.292 -3.32506 5.23297 0
M  V30 3134 C 303.347 -3.10376 3.89321 0
M  V30 3135 C 302.05 -3.23866 6.42264 0
M  V30 3136 C 304.076 -3.03069 5.07842 0
M  V30 3137 C 303.438 -3.09587 6.32721 0
M  V30 3138 H 299.537 -0.674814 0.395158 0
M  V30 3139 H 302.121 -1.28681 1.46114 0
M  V30 3140 H 300.292 -3.75963 0.975022 0
M  V30 3141 H 302.024 -3.86535 1.19887 0
M  V30 3142 H 298.779 -3.50456 3.18555 0
M  V30 3143 H 299.203 -3.48097 5.80653 0
M  V30 3144 H 303.845 -3.04194 2.93642 0
M  V30 3145 H 301.563 -3.28807 7.38181 0
M  V30 3146 H 305.149 -2.91629 5.03432 0
M  V30 3147 H 304.029 -3.0397 7.22891 0
M  V30 3148 N 301.532 -0.945985 -1.26051 0
M  V30 3149 C 302.442 -0.465633 -2.29933 0
M  V30 3150 C 303.458 0.462761 -1.67733 0
M  V30 3151 O 304.634 0.341118 -1.9849 0
M  V30 3152 C 301.699 0.256994 -3.45746 0
M  V30 3153 C 300.76 -0.708549 -4.23412 0
M  V30 3154 C 299.993 -0.0203135 -5.33696 0
M  V30 3155 O 300.216 1.19571 -5.57726 0
M  V30 3156 O 299.15 -0.701459 -5.97799 0
M  V30 3157 H 302.976 -1.32866 -2.73094 0
M  V30 3158 H 300.561 -0.712071 -1.31339 0
M  V30 3159 H 302.443 0.663852 -4.16138 0
M  V30 3160 H 301.118 1.09533 -3.04605 0
M  V30 3161 H 300.025 -1.16545 -3.55483 0
M  V30 3162 H 301.358 -1.51465 -4.68315 0
M  V30 3163 N 303.011 1.40521 -0.713556 0
M  V30 3164 C 304.422 1.83853 -0.324807 0
M  V30 3165 C 304.773 1.59667 1.14021 0
M  V30 3166 O 303.898 1.07649 1.87725 0
M  V30 3167 C 304.493 3.33751 -0.582746 0
M  V30 3168 C 303.052 3.75584 -0.247727 0
M  V30 3169 C 302.199 2.63753 -0.856121 0
M  V30 3170 H 305.15 1.29817 -0.91286 0
M  V30 3171 H 305.171 3.80194 0.152682 0
M  V30 3172 H 304.683 3.51322 -1.64908 0
M  V30 3173 H 302.784 3.63608 0.813624 0
M  V30 3174 H 302.897 4.7373 -0.715307 0
M  V30 3175 H 301.261 2.53108 -0.28432 0
M  V30 3176 H 302.044 2.84137 -1.92668 0
M  V30 3177 N 304.489 0.459591 1.5075 0
M  V30 3178 C 305.399 -0.34613 2.32033 0
M  V30 3179 C 306.415 -1.00686 1.41909 0
M  V30 3180 O 307.591 -0.997361 1.7497 0
M  V30 3181 C 304.656 -1.42029 3.16273 0
M  V30 3182 C 303.717 -0.777362 4.22203 0
M  V30 3183 C 302.95 -1.80034 5.02418 0
M  V30 3184 O 303.173 -3.02544 4.83553 0
M  V30 3185 O 302.107 -1.37853 5.85901 0
M  V30 3186 H 305.933 0.318054 3.0203 0
M  V30 3187 H 303.518 0.221663 1.47746 0
M  V30 3188 H 305.4 -2.04275 3.68578 0
M  V30 3189 H 304.075 -2.06815 2.49016 0
M  V30 3190 H 302.982 -0.116256 3.73919 0
M  V30 3191 H 304.315 -0.172634 4.91897 0
M  V30 3192 N 305.967 -1.56429 0.191757 0
M  V30 3193 C 307.216 -1.9666 -0.448088 0
M  V30 3194 C 307.529 -1.08136 -1.62991 0
M  V30 3195 O 308.735 -1.38135 -2.33733 0
M  V30 3196 C 307.191 -3.49753 -0.848585 0
M  V30 3197 C 306.799 -4.46935 0.308764 0
M  V30 3198 C 308.543 -3.9876 -1.4557 0
M  V30 3199 C 306.45 -5.91293 -0.112506 0
M  V30 3200 H 305.38 -0.734312 -0.171179 0
M  V30 3201 H 308.031 -1.81301 0.283242 0
M  V30 3202 H 306.413 -3.60604 -1.63649 0
M  V30 3203 H 307.587 -4.47813 1.08627 0
M  V30 3204 H 305.902 -4.08102 0.827158 0
M  V30 3205 H 308.499 -5.04086 -1.78328 0
M  V30 3206 H 308.842 -3.42875 -2.36099 0
M  V30 3207 H 309.375 -3.9101 -0.731836 0
M  V30 3208 H 306.114 -6.51097 0.758514 0
M  V30 3209 H 305.634 -5.93676 -0.854941 0
M  V30 3210 H 307.313 -6.44663 -0.549448 0
M  V30 3211 N 307.445 0.0818655 -1.57387 0
M  V30 3212 C 308.856 0.634871 -1.75574 0
M  V30 3213 C 309.207 1.78435 -0.815809 0
M  V30 3214 O 308.332 2.164 0.0025366 0
M  V30 3215 C 308.927 1.15845 -3.18379 0
M  V30 3216 C 307.486 1.65741 -3.37945 0
M  V30 3217 C 306.633 0.572549 -2.71325 0
M  V30 3218 H 309.584 -0.144268 -1.58043 0
M  V30 3219 H 309.605 2.02751 -3.21982 0
M  V30 3220 H 309.117 0.321631 -3.86765 0
M  V30 3221 H 307.218 2.51781 -2.74658 0
M  V30 3222 H 307.331 1.74129 -4.46336 0
M  V30 3223 H 305.695 1.01518 -2.33594 0
M  V30 3224 H 306.478 -0.253918 -3.4236 0
M  V30 3225 N 308.923 1.53595 0.353017 0
M  V30 3226 C 309.886 1.80232 1.41594 0
M  V30 3227 C 310.886 0.673081 1.46035 0
M  V30 3228 O 312.076 0.941335 1.46576 0
M  V30 3229 C 309.208 1.93578 2.80607 0
M  V30 3230 H 310.401 2.75174 1.19244 0
M  V30 3231 H 307.954 1.44864 0.586872 0
M  V30 3232 H 308.689 1.00746 3.08254 0
M  V30 3233 H 308.474 2.75724 2.78781 0
M  V30 3234 H 309.964 2.15735 3.57558 0
M  V30 3235 N 310.401 -0.613514 1.45168 0
M  V30 3236 C 311.812 -1.19539 1.43413 0
M  V30 3237 C 312.163 -1.95558 0.158632 0
M  V30 3238 O 311.288 -2.0335 -0.740119 0
M  V30 3239 C 311.883 -2.17445 2.59813 0
M  V30 3240 C 310.442 -2.71022 2.61197 0
M  V30 3241 C 309.589 -1.46323 2.35552 0
M  V30 3242 H 312.54 -0.403163 1.53494 0
M  V30 3243 H 312.561 -3.00373 2.33574 0
M  V30 3244 H 312.073 -1.62089 3.52631 0
M  V30 3245 H 310.174 -3.30332 1.7237 0
M  V30 3246 H 310.287 -3.15859 3.60236 0
M  V30 3247 H 308.651 -1.75072 1.84992 0
M  V30 3248 H 309.434 -0.92844 3.30507 0
M  V30 3249 N 311.879 -1.3236 -0.855495 0
M  V30 3250 C 312.812 -1.15559 -1.96777 0
M  V30 3251 C 313.79 -0.0552681 -1.62506 0
M  V30 3252 O 314.974 -0.214419 -1.87277 0
M  V30 3253 C 312.101 -0.768851 -3.29858 0
M  V30 3254 C 311.147 -1.87429 -3.83109 0
M  V30 3255 S 311.98 -3.48243 -4.06801 0
M  V30 3256 C 313.136 -3.11539 -5.42858 0
M  V30 3257 H 313.369 -2.09717 -2.10727 0
M  V30 3258 H 310.902 -1.17011 -1.00737 0
M  V30 3259 H 312.86 -0.55248 -4.06765 0
M  V30 3260 H 311.521 0.153857 -3.13723 0
M  V30 3261 H 310.714 -1.55667 -4.79358 0
M  V30 3262 H 310.316 -2.04647 -3.13042 0
M  V30 3263 H 312.608 -2.61331 -6.2507 0
M  V30 3264 H 313.551 -4.06806 -5.79582 0
M  V30 3265 H 313.959 -2.48582 -5.06821 0
M  V30 3266 N 313.357 1.07166 -1.15556 0
M  V30 3267 C 314.582 1.84053 -0.955988 0
M  V30 3268 C 315.007 1.81586 0.490739 0
M  V30 3269 O 314.365 1.21018 1.34997 0
M  V30 3270 C 314.413 3.28957 -1.47714 0
M  V30 3271 O 313.517 4.06795 -0.677593 0
M  V30 3272 H 312.858 0.569842 -0.340847 0
M  V30 3273 H 315.388 1.35178 -1.53584 0
M  V30 3274 H 315.398 3.79788 -1.4908 0
M  V30 3275 H 314.073 3.30068 -2.53037 0
M  V30 3276 H 312.65 3.6561 -0.733721 0
M  V30 3277 N 314.835 0.952656 1.25548 0
M  V30 3278 C 315.745 0.47782 2.29682 0
M  V30 3279 C 316.761 -0.453859 1.67977 0
M  V30 3280 O 317.937 -0.330587 1.98668 0
M  V30 3281 C 315.002 -0.238655 3.45878 0
M  V30 3282 C 314.063 0.730994 4.23031 0
M  V30 3283 C 313.296 0.0486165 5.33678 0
M  V30 3284 O 313.519 -1.16612 5.58353 0
M  V30 3285 O 312.453 0.733152 5.97418 0
M  V30 3286 H 316.279 1.34312 2.72386 0
M  V30 3287 H 313.864 0.719026 1.30959 0
M  V30 3288 H 315.746 -0.641774 4.16484 0
M  V30 3289 H 314.421 -1.07916 3.05181 0
M  V30 3290 H 313.328 1.18428 3.5486 0
M  V30 3291 H 314.661 1.53946 4.67506 0
M  V30 3292 N 316.313 -1.40141 0.720998 0
M  V30 3293 C 317.243 -2.33339 0.0867621 0
M  V30 3294 C 318.224 -1.53178 -0.739622 0
M  V30 3295 O 319.409 -1.81625 -0.687449 0
M  V30 3296 C 316.539 -3.37194 -0.831728 0
M  V30 3297 C 315.493 -4.27857 -0.110558 0
M  V30 3298 C 314.819 -5.22294 -1.14513 0
M  V30 3299 C 316.119 -5.11872 1.0385 0
M  V30 3300 H 317.813 -2.86626 0.865219 0
M  V30 3301 H 315.359 -1.37814 0.417516 0
M  V30 3302 H 317.312 -4.01335 -1.28485 0
M  V30 3303 H 316.036 -2.82314 -1.64214 0
M  V30 3304 H 314.695 -3.65176 0.322797 0
M  V30 3305 H 314.343 -4.63717 -1.94874 0
M  V30 3306 H 314.043 -5.83797 -0.667446 0
M  V30 3307 H 315.567 -5.89312 -1.59824 0
M  V30 3308 H 316.981 -5.69436 0.664482 0
M  V30 3309 H 315.378 -5.82445 1.4449 0
M  V30 3310 H 316.448 -4.4753 1.86668 0
M  V30 3311 N 317.792 -0.46758 -1.50504 0
M  V30 3312 C 319.02 0.0864133 -2.06719 0
M  V30 3313 C 319.435 1.33819 -1.33184 0
M  V30 3314 O 318.792 1.78061 -0.400083 0
M  V30 3315 C 318.843 0.378079 -3.59517 0
M  V30 3316 O 318.564 -0.824044 -4.3028 0
M  V30 3317 C 320.065 0.979426 -4.32345 0
M  V30 3318 H 317.285 -0.00551697 -0.670977 0
M  V30 3319 H 319.829 -0.655354 -1.93715 0
M  V30 3320 H 317.984 1.06977 -3.72337 0
M  V30 3321 H 318.398 -0.566518 -5.21432 0
M  V30 3322 H 319.872 1.1333 -5.40241 0
M  V30 3323 H 320.349 1.9686 -3.9261 0
M  V30 3324 H 320.955 0.326216 -4.24047 0
M  V30 3325 N 319.27 1.56325 -0.20005 0
M  V30 3326 C 320.18 2.22931 0.730668 0
M  V30 3327 C 321.196 1.22997 1.23076 0
M  V30 3328 O 322.372 1.55748 1.27689 0
M  V30 3329 C 319.437 2.87948 1.93098 0
M  V30 3330 C 318.498 4.03166 1.47497 0
M  V30 3331 C 317.731 4.65073 2.61807 0
M  V30 3332 O 317.954 4.25913 3.79413 0
M  V30 3333 O 316.888 5.54452 2.34237 0
M  V30 3334 H 320.714 3.03084 0.193391 0
M  V30 3335 H 318.299 1.49371 0.0294621 0
M  V30 3336 H 320.181 3.29063 2.6324 0
M  V30 3337 H 318.856 2.10771 2.45677 0
M  V30 3338 H 317.763 3.66664 0.742201 0
M  V30 3339 H 319.096 4.82022 0.995796 0
M  V30 3340 N 320.748 -0.0735177 1.57428 0
M  V30 3341 C 321.976 -0.785969 1.9139 0
M  V30 3342 C 322.391 -1.71207 0.795847 0
M  V30 3343 O 321.748 -1.81033 -0.230915 0
M  V30 3344 C 321.799 -1.58107 3.25091 0
M  V30 3345 O 321.52 -0.6922 4.32597 0
M  V30 3346 C 323.021 -2.39467 3.73055 0
M  V30 3347 H 320.241 -0.223558 0.632663 0
M  V30 3348 H 322.785 -0.044302 2.04452 0
M  V30 3349 H 320.94 -2.27503 3.13562 0
M  V30 3350 H 321.354 -1.24504 5.09508 0
M  V30 3351 H 322.828 -2.90716 4.69242 0
M  V30 3352 H 323.305 -3.18913 3.01979 0
M  V30 3353 H 323.911 -1.7523 3.87523 0
M  V30 3354 N 322.226 -1.5378 -0.344866 0
M  V30 3355 C 323.156 -1.84662 -1.42906 0
M  V30 3356 C 324.137 -0.701648 -1.54955 0
M  V30 3357 O 325.322 -0.953438 -1.69184 0
M  V30 3358 C 322.452 -2.05503 -2.79974 0
M  V30 3359 C 321.406 -3.21318 -2.82734 0
M  V30 3360 C 320.732 -3.2749 -4.22675 0
M  V30 3361 C 322.032 -4.59456 -2.48389 0
M  V30 3362 H 323.726 -2.75461 -1.17311 0
M  V30 3363 H 321.272 -1.32542 -0.562896 0
M  V30 3364 H 323.225 -2.25691 -3.55867 0
M  V30 3365 H 321.949 -1.11434 -3.07002 0
M  V30 3366 H 320.608 -3.00984 -2.09294 0
M  V30 3367 H 320.256 -2.31019 -4.4681 0
M  V30 3368 H 319.956 -4.05316 -4.25433 0
M  V30 3369 H 321.48 -3.49887 -5.00412 0
M  V30 3370 H 322.894 -4.79667 -3.13995 0
M  V30 3371 H 321.291 -5.39675 -2.62432 0
M  V30 3372 H 322.361 -4.63155 -1.4358 0
M  V30 3373 N 323.704 0.605807 -1.45491 0
M  V30 3374 C 324.95 1.36679 -1.49823 0
M  V30 3375 C 325.283 1.93693 -0.140175 0
M  V30 3376 O 324.558 1.75158 0.845581 0
M  V30 3377 C 324.841 2.51337 -2.57879 0
M  V30 3378 C 324.694 1.99508 -4.03134 0
M  V30 3379 C 326.013 3.53463 -2.62205 0
M  V30 3380 H 323.132 0.495617 -0.545466 0
M  V30 3381 H 325.774 0.682732 -1.7731 0
M  V30 3382 H 323.924 3.09691 -2.34571 0
M  V30 3383 H 325.596 1.45789 -4.37656 0
M  V30 3384 H 323.839 1.30496 -4.13707 0
M  V30 3385 H 324.51 2.82169 -4.74431 0
M  V30 3386 H 326.986 3.04953 -2.83095 0
M  V30 3387 H 325.862 4.31178 -3.39672 0
M  V30 3388 H 326.123 4.09197 -1.67363 0
M  V30 3389 N 325.182 1.32811 0.848464 0
M  V30 3390 C 326.422 1.25046 1.61687 0
M  V30 3391 C 326.786 -0.183464 1.91121 0
M  V30 3392 O 327.987 -0.384937 2.66029 0
M  V30 3393 C 326.258 2.09201 2.89775 0
M  V30 3394 S 327.817 2.18526 3.80515 0
M  V30 3395 H 324.635 0.445023 0.554505 0
M  V30 3396 H 327.237 1.67733 1.00429 0
M  V30 3397 H 325.941 3.12433 2.66108 0
M  V30 3398 H 325.472 1.67315 3.56047 0
M  V30 3399 H 327.487 1.3393 4.77784 0
M  V30 3400 N 326.66 -1.06551 1.16123 0
M  V30 3401 C 327.623 -2.12132 0.867906 0
M  V30 3402 C 328.623 -1.60224 -0.135944 0
M  V30 3403 O 329.813 -1.73943 0.0946422 0
M  V30 3404 C 326.945 -3.396 0.297419 0
M  V30 3405 H 328.138 -2.39586 1.80385 0
M  V30 3406 H 325.691 -1.22574 0.969812 0
M  V30 3407 H 326.426 -3.17794 -0.64633 0
M  V30 3408 H 326.211 -3.78581 1.02073 0
M  V30 3409 H 327.701 -4.17455 0.110052 0
M  V30 3410 N 328.138 -0.959301 -1.25041 0
M  V30 3411 C 329.068 -0.501388 -2.28053 0
M  V30 3412 C 330.049 0.454673 -1.63911 0
M  V30 3413 O 331.234 0.352618 -1.90972 0
M  V30 3414 C 328.364 0.217224 -3.4662 0
M  V30 3415 C 327.318 -0.654034 -4.22973 0
M  V30 3416 C 326.644 0.195589 -5.34342 0
M  V30 3417 C 327.944 -1.93447 -4.85155 0
M  V30 3418 H 329.638 -1.36238 -2.66608 0
M  V30 3419 H 327.184 -0.656534 -1.28163 0
M  V30 3420 H 329.137 0.548732 -4.17812 0
M  V30 3421 H 327.861 1.1125 -3.07068 0
M  V30 3422 H 326.52 -0.968693 -3.5357 0
M  V30 3423 H 326.168 1.09076 -4.91031 0
M  V30 3424 H 325.868 -0.384091 -5.86343 0
M  V30 3425 H 327.392 0.521958 -6.08365 0
M  V30 3426 H 328.806 -1.66908 -5.48466 0
M  V30 3427 H 327.203 -2.46018 -5.47353 0
M  V30 3428 H 328.273 -2.63466 -4.07079 0
M  V30 3429 N 329.616 1.39756 -0.72842 0
M  V30 3430 C 330.864 2.00248 -0.272946 0
M  V30 3431 C 331.185 1.58077 1.14178 0
M  V30 3432 O 330.455 0.826014 1.77634 0
M  V30 3433 H 329.035 0.740554 -0.0979247 0
M  V30 3434 H 331.697 1.70903 -0.936912 0
M  V30 3435 H 330.793 3.10495 -0.316142 0
M  V30 3436 N 331.094 0.475555 1.50254 0
M  V30 3437 C 332.024 -0.30611 2.31485 0
M  V30 3438 C 333.005 -0.986228 1.38591 0
M  V30 3439 O 334.19 -0.982541 1.67511 0
M  V30 3440 C 331.32 -1.38588 3.1845 0
M  V30 3441 C 330.274 -0.827115 4.19932 0
M  V30 3442 C 329.6 -2.00551 4.95665 0
M  V30 3443 C 330.9 0.16463 5.2204 0
M  V30 3444 H 332.594 0.371866 2.97082 0
M  V30 3445 H 330.14 0.180282 1.42867 0
M  V30 3446 H 332.093 -1.94023 3.74076 0
M  V30 3447 H 330.817 -2.09269 2.50747 0
M  V30 3448 H 329.476 -0.294702 3.65414 0
M  V30 3449 H 329.124 -2.6994 4.2443 0
M  V30 3450 H 328.824 -1.63784 5.64313 0
M  V30 3451 H 330.348 -2.56468 5.54127 0
M  V30 3452 H 331.762 -0.300699 5.72511 0
M  V30 3453 H 330.159 0.446813 5.98434 0
M  V30 3454 H 331.229 1.08905 4.72512 0
M  V30 3455 N 332.573 -1.56217 0.208337 0
M  V30 3456 C 333.798 -2.02782 -0.435222 0
M  V30 3457 C 334.223 -1.08738 -1.53485 0
M  V30 3458 O 333.581 -0.0731855 -1.81152 0
M  V30 3459 C 333.629 -3.47687 -0.956335 0
M  V30 3460 O 332.733 -3.56773 -2.06849 0
M  V30 3461 H 332.074 -0.656403 -0.100158 0
M  V30 3462 H 334.604 -2.02033 0.3231 0
M  V30 3463 H 334.614 -3.87745 -1.26955 0
M  V30 3464 H 333.289 -4.15624 -0.15143 0
M  V30 3465 H 331.866 -3.28597 -1.76292 0
M  V30 3466 N 334.051 0.0651679 -1.57465 0
M  V30 3467 C 335.297 0.764193 -1.87851 0
M  V30 3468 C 335.63 1.76889 -0.801495 0
M  V30 3469 O 334.905 1.93594 0.187528 0
M  V30 3470 C 335.188 1.46625 -3.28897 0
M  V30 3471 C 335.041 0.477515 -4.47258 0
M  V30 3472 C 336.36 2.4095 -3.68281 0
M  V30 3473 H 333.479 0.276351 -0.683227 0
M  V30 3474 H 336.121 0.0272868 -1.8998 0
M  V30 3475 H 334.271 2.09438 -3.27212 0
M  V30 3476 H 335.943 -0.145922 -4.61069 0
M  V30 3477 H 334.186 -0.206576 -4.33308 0
M  V30 3478 H 334.857 1.0065 -5.42746 0
M  V30 3479 H 337.333 1.88209 -3.71102 0
M  V30 3480 H 336.209 2.87072 -4.67847 0
M  V30 3481 H 336.47 3.26049 -2.98571 0
M  V30 3482 N 335.529 1.53961 0.336706 0
M  V30 3483 C 336.777 1.71197 1.07405 0
M  V30 3484 C 337.098 0.481475 1.88962 0
M  V30 3485 O 336.368 -0.504585 1.8929 0
M  V30 3486 H 334.948 0.631185 0.399517 0
M  V30 3487 H 337.61 1.91232 0.376323 0
M  V30 3488 H 336.706 2.58587 1.74755 0
M  V30 3489 N 337.007 -0.598083 1.45811 0
M  V30 3490 C 337.937 -1.71873 1.58057 0
M  V30 3491 C 338.918 -1.64533 0.431615 0
M  V30 3492 O 340.103 -1.82787 0.65595 0
M  V30 3493 C 337.233 -3.10495 1.55597 0
M  V30 3494 C 336.187 -3.32654 2.69305 0
M  V30 3495 C 335.513 -4.71646 2.51902 0
M  V30 3496 C 336.813 -3.21981 4.11248 0
M  V30 3497 H 338.507 -1.61881 2.51863 0
M  V30 3498 H 336.053 -0.777372 1.21214 0
M  V30 3499 H 338.006 -3.88699 1.6276 0
M  V30 3500 H 336.73 -3.2135 0.583255 0
M  V30 3501 H 335.389 -2.56843 2.61586 0
M  V30 3502 H 335.037 -4.79246 1.52748 0
M  V30 3503 H 334.737 -4.87426 3.2816 0
M  V30 3504 H 336.261 -5.52038 2.60933 0
M  V30 3505 H 337.675 -3.90049 4.20161 0
M  V30 3506 H 336.072 -3.49289 4.87972 0
M  V30 3507 H 337.142 -2.1928 4.32486 0
M  V30 3508 N 338.485 -1.33259 -0.841409 0
M  V30 3509 C 339.418 -1.1764 -1.95541 0
M  V30 3510 C 340.396 -0.072501 -1.62438 0
M  V30 3511 O 341.58 -0.23427 -1.87039 0
M  V30 3512 C 338.707 -0.803794 -3.29024 0
M  V30 3513 C 337.753 -1.91482 -3.81099 0
M  V30 3514 S 338.586 -3.52538 -4.03085 0
M  V30 3515 C 339.742 -3.17279 -5.39523 0
M  V30 3516 H 339.975 -2.11941 -2.08491 0
M  V30 3517 H 337.508 -1.18072 -0.9949 0
M  V30 3518 H 339.466 -0.595592 -4.06156 0
M  V30 3519 H 338.127 0.120574 -3.13868 0
M  V30 3520 H 337.32 -1.60742 -4.7768 0
M  V30 3521 H 336.922 -2.07956 -3.10854 0
M  V30 3522 H 339.214 -2.67946 -6.22263 0
M  V30 3523 H 340.157 -4.1293 -5.75234 0
M  V30 3524 H 340.565 -2.53943 -5.04156 0
M  V30 3525 N 339.963 1.05934 -1.16686 0
M  V30 3526 C 341.211 1.78447 -0.948744 0
M  V30 3527 C 341.532 1.87813 0.524523 0
M  V30 3528 O 340.802 1.38945 1.38098 0
M  V30 3529 H 339.382 0.660971 -0.348033 0
M  V30 3530 H 342.044 1.27947 -1.47022 0
M  V30 3531 H 341.14 2.80394 -1.37061 0
M  V30 3532 N 341.441 0.965919 1.2453 0
M  V30 3533 C 342.69 0.622437 1.91856 0
M  V30 3534 C 343.003 -0.846006 1.76358 0
M  V30 3535 O 344.209 -1.29993 2.38357 0
M  V30 3536 C 342.665 1.0626 3.43856 0
M  V30 3537 C 342.273 2.55437 3.68043 0
M  V30 3538 C 344.017 0.792183 4.17043 0
M  V30 3539 C 341.924 2.93196 5.13605 0
M  V30 3540 H 340.854 0.229092 0.718354 0
M  V30 3541 H 343.505 1.17189 1.41206 0
M  V30 3542 H 341.887 0.441476 3.93531 0
M  V30 3543 H 343.061 3.22665 3.28974 0
M  V30 3544 H 341.376 2.8007 3.08139 0
M  V30 3545 H 343.973 1.05031 5.24283 0
M  V30 3546 H 344.316 -0.271584 4.15413 0
M  V30 3547 H 344.849 1.37419 3.73311 0
M  V30 3548 H 341.588 3.98636 5.20355 0
M  V30 3549 H 341.108 2.30651 5.53679 0
M  V30 3550 H 342.787 2.83004 5.81823 0
M  V30 3551 N 342.919 -1.39368 0.735821 0
M  V30 3552 C 344.165 -2.00794 0.284544 0
M  V30 3553 C 344.498 -1.58255 -1.12557 0
M  V30 3554 O 343.773 -0.811819 -1.76748 0
M  V30 3555 C 344.056 -3.58011 0.387337 0
M  V30 3556 C 343.909 -4.10566 1.83728 0
M  V30 3557 C 345.228 -4.395 -0.22975 0
M  V30 3558 H 342.347 -0.729501 0.104866 0
M  V30 3559 H 344.989 -1.65564 0.93213 0
M  V30 3560 H 343.139 -3.88154 -0.164006 0
M  V30 3561 H 344.811 -3.91139 2.44556 0
M  V30 3562 H 343.054 -3.64095 2.35833 0
M  V30 3563 H 343.725 -5.19702 1.86047 0
M  V30 3564 H 346.201 -4.15406 0.240257 0
M  V30 3565 H 345.077 -5.48752 -0.127485 0
M  V30 3566 H 345.338 -4.22062 -1.3159 0
M  V30 3567 N 344.397 -0.483516 -1.5 0
M  V30 3568 C 345.643 0.0672592 -2.02688 0
M  V30 3569 C 345.976 1.38247 -1.36387 0
M  V30 3570 O 345.251 1.88131 -0.493675 0
M  V30 3571 C 345.534 0.238109 -3.59312 0
M  V30 3572 C 345.387 -1.099 -4.36168 0
M  V30 3573 C 346.706 0.986916 -4.28892 0
M  V30 3574 H 343.825 0.0229696 -0.736642 0
M  V30 3575 H 346.467 -0.631527 -1.79197 0
M  V30 3576 H 344.617 0.8333 -3.79458 0
M  V30 3577 H 346.289 -1.73172 -4.27562 0
M  V30 3578 H 344.532 -1.69261 -3.99416 0
M  V30 3579 H 345.203 -0.932954 -5.44059 0
M  V30 3580 H 347.679 0.482302 -4.13295 0
M  V30 3581 H 346.555 1.07527 -5.38265 0
M  V30 3582 H 346.816 2.0265 -3.92919 0
M  V30 3583 N 345.875 1.56104 -0.216619 0
M  V30 3584 C 347.123 1.97781 0.415593 0
M  V30 3585 C 347.444 1.10536 1.60645 0
M  V30 3586 O 346.714 0.181303 1.95059 0
M  V30 3587 H 345.294 0.730415 0.156534 0
M  V30 3588 H 347.956 1.92445 -0.308366 0
M  V30 3589 H 347.052 3.03072 0.74525 0
M  V30 3590 N 347.353 -0.0568162 1.57498 0
M  V30 3591 C 348.581 -0.765626 1.92213 0
M  V30 3592 C 348.996 -1.70353 0.813961 0
M  V30 3593 O 348.353 -1.81268 -0.211701 0
M  V30 3594 C 348.404 -1.5465 3.2675 0
M  V30 3595 O 348.125 -0.646278 4.33307 0
M  V30 3596 C 349.626 -2.35497 3.75574 0
M  V30 3597 H 346.846 -0.216835 0.634999 0
M  V30 3598 H 349.39 -0.0226146 2.04487 0
M  V30 3599 H 347.545 -2.24165 3.15957 0
M  V30 3600 H 347.959 -1.19093 5.108 0
M  V30 3601 H 349.433 -2.85722 4.72299 0
M  V30 3602 H 349.91 -3.15692 3.05344 0
M  V30 3603 H 350.516 -1.7111 3.8936 0
M  V30 3604 N 348.832 -1.54138 -0.328536 0
M  V30 3605 C 350.078 -1.7236 -1.06865 0
M  V30 3606 C 350.411 -0.493231 -1.87832 0
M  V30 3607 O 349.686 0.5098 -1.877 0
M  V30 3608 C 349.969 -2.99621 -1.99747 0
M  V30 3609 C 349.822 -4.32899 -1.22143 0
M  V30 3610 C 351.141 -3.22615 -2.99345 0
M  V30 3611 H 348.26 -0.627151 -0.387105 0
M  V30 3612 H 350.902 -1.86827 -0.345767 0
M  V30 3613 H 349.052 -2.87418 -2.61387 0
M  V30 3614 H 350.724 -4.56978 -0.630017 0
M  V30 3615 H 348.967 -4.30628 -0.523628 0
M  V30 3616 H 349.638 -5.18154 -1.90318 0
M  V30 3617 H 352.114 -3.34248 -2.47826 0
M  V30 3618 H 350.99 -4.13027 -3.61524 0
M  V30 3619 H 351.251 -2.3961 -3.71536 0
M  V30 3620 N 350.31 0.590341 -1.46126 0
M  V30 3621 C 351.557 1.34882 -1.5104 0
M  V30 3622 C 351.885 1.93849 -0.159021 0
M  V30 3623 O 351.14 1.76544 0.844436 0
M  V30 3624 C 351.439 2.5032 -2.55097 0
M  V30 3625 C 351.105 2.09394 -3.99331 0
M  V30 3626 C 349.767 1.97947 -4.38601 0
M  V30 3627 C 352.119 1.77712 -4.89967 0
M  V30 3628 C 349.447 1.53065 -5.66381 0
M  V30 3629 C 351.799 1.34312 -6.18177 0
M  V30 3630 C 350.463 1.21436 -6.56361 0
M  V30 3631 H 349.733 0.493568 -0.552695 0
M  V30 3632 H 352.38 0.665539 -1.79563 0
M  V30 3633 H 350.685 3.24062 -2.20207 0
M  V30 3634 H 352.382 3.08541 -2.56132 0
M  V30 3635 H 348.972 2.19235 -3.68285 0
M  V30 3636 H 353.156 1.85445 -4.60352 0
M  V30 3637 H 348.412 1.41733 -5.94745 0
M  V30 3638 H 352.586 1.08849 -6.87841 0
M  V30 3639 H 350.213 0.864345 -7.5527 0
M  V30 3640 N 351.788 1.33704 0.83433 0
M  V30 3641 C 353.037 1.24763 1.58484 0
M  V30 3642 C 353.35 -0.183775 1.94735 0
M  V30 3643 O 354.556 -0.395234 2.68608 0
M  V30 3644 C 353.012 2.18638 2.85876 0
M  V30 3645 C 352.62 3.66974 2.56971 0
M  V30 3646 C 354.364 2.18581 3.63899 0
M  V30 3647 C 352.271 4.5275 3.80488 0
M  V30 3648 H 351.201 0.463425 0.594772 0
M  V30 3649 H 353.852 1.58797 0.919551 0
M  V30 3650 H 352.234 1.77542 3.5397 0
M  V30 3651 H 353.408 4.16538 1.9706 0
M  V30 3652 H 351.723 3.69366 1.92244 0
M  V30 3653 H 354.32 2.79894 4.55591 0
M  V30 3654 H 354.663 1.18207 3.99165 0
M  V30 3655 H 355.196 2.58062 3.02735 0
M  V30 3656 H 351.935 5.54017 3.5035 0
M  V30 3657 H 351.455 4.07927 4.39722 0
M  V30 3658 H 353.134 4.66784 4.4802 0
M  V30 3659 N 353.266 -1.05314 1.17247 0
M  V30 3660 C 354.515 -1.77685 0.954521 0
M  V30 3661 C 354.828 -1.88616 -0.518025 0
M  V30 3662 O 356.034 -2.57714 -0.854144 0
M  V30 3663 C 354.49 -3.19402 1.65863 0
M  V30 3664 C 354.098 -3.16605 3.16963 0
M  V30 3665 C 355.842 -3.96237 1.52303 0
M  V30 3666 C 353.749 -4.53103 3.80068 0
M  V30 3667 H 352.679 -0.666 0.353496 0
M  V30 3668 H 355.33 -1.1805 1.40486 0
M  V30 3669 H 353.712 -3.79355 1.13602 0
M  V30 3670 H 354.886 -2.66176 3.76148 0
M  V30 3671 H 353.201 -2.53268 3.30521 0
M  V30 3672 H 355.798 -4.97157 1.96822 0
M  V30 3673 H 356.141 -4.136 0.473401 0
M  V30 3674 H 356.674 -3.42829 2.01775 0
M  V30 3675 H 353.413 -4.40946 4.85023 0
M  V30 3676 H 352.933 -5.03686 3.2567 0
M  V30 3677 H 354.612 -5.22045 3.82202 0
M  V30 3678 N 354.744 -0.972509 -1.24016 0
M  V30 3679 C 355.676 -0.464375 -2.24446 0
M  V30 3680 C 356.689 0.4295 -1.57032 0
M  V30 3681 O 357.878 0.234902 -1.76948 0
M  V30 3682 C 354.978 0.348385 -3.37105 0
M  V30 3683 C 354.151 -0.53673 -4.34094 0
M  V30 3684 C 353.21 0.220838 -5.25736 0
M  V30 3685 O 352.236 -0.386867 -5.67884 0
M  V30 3686 N 353.438 1.50907 -5.60542 0
M  V30 3687 H 356.203 -1.32788 -2.68677 0
M  V30 3688 H 353.764 -0.844877 -1.38107 0
M  V30 3689 H 355.756 0.863341 -3.95384 0
M  V30 3690 H 354.326 1.11285 -2.92121 0
M  V30 3691 H 353.546 -1.23261 -3.74433 0
M  V30 3692 H 354.834 -1.14022 -4.95859 0
M  V30 3693 H 354.232 2.02444 -5.28236 0
M  V30 3694 H 352.789 1.96962 -6.21329 0
M  V30 3695 N 356.222 1.38976 -0.743202 0
M  V30 3696 C 357.47 1.99948 -0.29417 0
M  V30 3697 C 357.791 1.59279 1.12495 0
M  V30 3698 O 357.061 0.844808 1.76748 0
M  V30 3699 H 355.641 0.739473 -0.105774 0
M  V30 3700 H 358.303 1.699 -0.954986 0
M  V30 3701 H 357.399 3.10142 -0.349056 0
M  V30 3702 N 357.7 0.491464 1.49741 0
M  V30 3703 C 358.63 -0.28154 2.31796 0
M  V30 3704 C 359.611 -0.971473 1.3963 0
M  V30 3705 O 360.796 -0.964719 1.68543 0
M  V30 3706 C 357.926 -1.35203 3.19902 0
M  V30 3707 C 356.88 -0.782529 4.20786 0
M  V30 3708 C 356.206 -1.95283 4.97764 0
M  V30 3709 C 357.506 0.21999 5.21837 0
M  V30 3710 H 359.2 0.403355 2.96671 0
M  V30 3711 H 356.746 0.195425 1.42668 0
M  V30 3712 H 358.699 -1.90045 3.76113 0
M  V30 3713 H 357.423 -2.06598 2.52953 0
M  V30 3714 H 356.082 -0.255928 3.65706 0
M  V30 3715 H 355.73 -2.65423 4.2727 0
M  V30 3716 H 355.43 -1.57789 5.66018 0
M  V30 3717 H 356.954 -2.50577 5.56816 0
M  V30 3718 H 358.368 -0.23996 5.72798 0
M  V30 3719 H 356.765 0.51026 5.97927 0
M  V30 3720 H 357.835 1.13911 4.7133 0
M  V30 3721 N 359.178 -1.55987 0.224894 0
M  V30 3722 C 360.594 -1.59066 -0.130426 0
M  V30 3723 C 360.794 -1.24176 -1.5869 0
M  V30 3724 O 359.85 -0.978592 -2.32766 0
M  V30 3725 C 361.163 -3.00042 0.198883 0
M  V30 3726 C 362.711 -3.1268 0.141391 0
M  V30 3727 C 363.186 -4.55839 0.444422 0
M  V30 3728 N 364.677 -4.6152 0.394115 0
M  V30 3729 C 365.412 -5.70231 0.602038 0
M  V30 3730 N 364.908 -6.87291 0.871914 0
M  V30 3731 N 366.701 -5.59555 0.534245 0
M  V30 3732 H 358.852 -1.76941 1.17497 0
M  V30 3733 H 361.115 -0.822604 0.471197 0
M  V30 3734 H 360.821 -3.30234 1.2099 0
M  V30 3735 H 360.695 -3.74075 -0.484535 0
M  V30 3736 H 363.082 -2.82283 -0.860265 0
M  V30 3737 H 363.163 -2.40969 0.858335 0
M  V30 3738 H 362.807 -4.86954 1.44353 0
M  V30 3739 H 362.737 -5.2578 -0.293752 0
M  V30 3740 H 365.228 -3.77405 0.193356 0
M  V30 3741 H 365.541 -7.66058 1.01858 0
M  V30 3742 H 363.886 -6.89028 0.909145 0
M  V30 3743 H 367.077 -4.6698 0.323612 0
M  V30 3744 H 367.25 -6.44211 0.699693 0
M  V30 3745 N 360.656 0.0484629 -1.57525 0
M  V30 3746 C 361.881 0.759177 -1.93006 0
M  V30 3747 C 362.306 1.69125 -0.823317 0
M  V30 3748 O 361.664 1.79931 0.222364 0
M  V30 3749 C 361.712 1.50899 -3.27509 0
M  V30 3750 O 360.816 2.62112 -3.18388 0
M  V30 3751 H 360.157 0.205564 -0.631379 0
M  V30 3752 H 362.687 0.00972959 -2.04598 0
M  V30 3753 H 362.697 1.88317 -3.6194 0
M  V30 3754 H 361.372 0.825269 -4.0763 0
M  V30 3755 H 359.949 2.27379 -2.95556 0
M  V30 3756 N 362.134 1.5431 0.320358 0
M  V30 3757 C 363.38 1.72924 1.05949 0
M  V30 3758 C 363.713 0.503185 1.87568 0
M  V30 3759 O 362.988 -0.499839 1.87968 0
M  V30 3760 C 363.271 3.00676 1.98156 0
M  V30 3761 C 363.124 4.3354 1.19845 0
M  V30 3762 C 364.443 3.24198 2.9763 0
M  V30 3763 H 361.562 0.629195 0.383774 0
M  V30 3764 H 364.204 1.87008 0.335854 0
M  V30 3765 H 362.354 2.888 2.59859 0
M  V30 3766 H 364.026 4.57305 0.605773 0
M  V30 3767 H 362.269 4.309 0.500784 0
M  V30 3768 H 362.94 5.19156 1.87567 0
M  V30 3769 H 365.416 3.35557 2.4605 0
M  V30 3770 H 364.292 4.14938 3.59329 0
M  V30 3771 H 364.553 2.41577 3.7026 0
M  V30 3772 N 363.613 -0.582584 1.46437 0
M  V30 3773 C 364.861 -1.33814 1.51453 0
M  V30 3774 C 365.182 -1.94277 0.167792 0
M  V30 3775 O 364.452 -1.78566 -0.805677 0
M  V30 3776 H 363.032 -0.496838 0.557818 0
M  V30 3777 H 365.694 -0.682281 1.82568 0
M  V30 3778 H 364.79 -2.14479 2.26728 0
M  V30 3779 N 365.091 -1.34144 -0.827227 0
M  V30 3780 C 366.054 -1.25264 -1.91942 0
M  V30 3781 C 367.054 -0.168866 -1.59911 0
M  V30 3782 O 368.244 -0.421198 -1.69031 0
M  V30 3783 C 365.376 -0.932952 -3.27885 0
M  V30 3784 H 366.569 -2.22357 -2.0124 0
M  V30 3785 H 364.122 -1.1837 -1.0207 0
M  V30 3786 H 364.857 0.0349917 -3.24281 0
M  V30 3787 H 364.642 -1.71682 -3.52516 0
M  V30 3788 H 366.132 -0.895874 -4.07877 0
M  V30 3789 N 366.569 1.04691 -1.17803 0
M  V30 3790 C 367.794 1.81984 -0.994813 0
M  V30 3791 C 368.219 1.82586 0.452112 0
M  V30 3792 O 367.577 1.23854 1.324 0
M  V30 3793 C 367.625 3.2575 -1.54659 0
M  V30 3794 O 366.729 4.05267 -0.763728 0
M  V30 3795 H 366.07 0.562483 -0.352857 0
M  V30 3796 H 368.6 1.3189 -1.56417 0
M  V30 3797 H 368.61 3.76541 -1.57102 0
M  V30 3798 H 367.285 3.24627 -2.59981 0
M  V30 3799 H 365.862 3.63972 -0.811108 0
M  V30 3800 N 368.047 0.979072 1.23499 0
M  V30 3801 C 369.463 0.687475 1.44034 0
M  V30 3802 C 369.663 -0.746801 1.8715 0
M  V30 3803 O 368.719 -1.51939 2.0167 0
M  V30 3804 C 370.032 1.68127 2.49307 0
M  V30 3805 C 371.58 1.69516 2.63122 0
M  V30 3806 C 372.055 2.67723 3.71603 0
M  V30 3807 N 373.546 2.66233 3.79044 0
M  V30 3808 C 374.281 3.38891 4.62537 0
M  V30 3809 N 373.777 4.21103 5.50131 0
M  V30 3810 N 375.57 3.27661 4.56721 0
M  V30 3811 H 367.721 1.90559 0.938135 0
M  V30 3812 H 369.984 0.821051 0.473897 0
M  V30 3813 H 369.69 2.70693 2.2454 0
M  V30 3814 H 369.564 1.46306 3.4767 0
M  V30 3815 H 371.951 0.676561 2.8724 0
M  V30 3816 H 372.032 1.95404 1.65079 0
M  V30 3817 H 371.676 3.69724 3.48233 0
M  V30 3818 H 371.606 2.39111 4.69184 0
M  V30 3819 H 374.097 2.06568 3.16446 0
M  V30 3820 H 374.41 4.73403 6.10827 0
M  V30 3821 H 372.755 4.25195 5.49759 0
M  V30 3822 H 375.946 2.62887 3.87309 0
M  V30 3823 H 376.119 3.84547 5.21562 0
M  V30 3824 N 369.525 -1.3858 0.750561 0
M  V30 3825 C 370.475 -2.27795 0.0965949 0
M  V30 3826 C 371.459 -1.45048 -0.696411 0
M  V30 3827 O 372.651 -1.67812 -0.562863 0
M  V30 3828 C 369.78 -3.33894 -0.798085 0
M  V30 3829 C 368.866 -4.241 0.0016067 0
M  V30 3830 N 369.257 -4.95067 1.03647 0
M  V30 3831 C 367.555 -4.45429 -0.225674 0
M  V30 3832 C 368.256 -5.61489 1.52004 0
M  V30 3833 N 367.232 -5.37135 0.835874 0
M  V30 3834 H 371.034 -2.80125 0.889228 0
M  V30 3835 H 368.548 -1.51446 0.586323 0
M  V30 3836 H 370.545 -3.96693 -1.28219 0
M  V30 3837 H 369.205 -2.83123 -1.5897 0
M  V30 3838 H 370.216 -4.98104 1.41819 0
M  V30 3839 H 366.893 -4.05571 -0.990872 0
M  V30 3840 H 368.283 -6.28264 2.38188 0
M  V30 3841 N 371.003 -0.499398 -1.49478 0
M  V30 3842 C 371.935 0.316575 -2.27003 0
M  V30 3843 C 372.948 0.932047 -1.33479 0
M  V30 3844 O 374.137 0.815658 -1.58774 0
M  V30 3845 C 371.237 1.46055 -3.05812 0
M  V30 3846 C 370.41 0.952679 -4.26899 0
M  V30 3847 C 369.469 1.97407 -4.87767 0
M  V30 3848 O 368.495 1.54326 -5.4788 0
M  V30 3849 N 369.697 3.30436 -4.77276 0
M  V30 3850 H 372.462 -0.348168 -2.97671 0
M  V30 3851 H 370.023 -0.33185 -1.58463 0
M  V30 3852 H 372.015 2.14135 -3.43407 0
M  V30 3853 H 370.585 2.02948 -2.37762 0
M  V30 3854 H 369.805 0.0968248 -3.94081 0
M  V30 3855 H 371.093 0.59174 -5.05347 0
M  V30 3856 H 370.491 3.68126 -4.29534 0
M  V30 3857 H 369.048 3.94235 -5.19059 0
M  V30 3858 N 372.481 1.55866 -0.233164 0
M  V30 3859 C 373.729 1.9821 0.394593 0
M  V30 3860 C 374.05 1.12234 1.59463 0
M  V30 3861 O 373.32 0.201981 1.94856 0
M  V30 3862 H 371.9 0.732034 0.148778 0
M  V30 3863 H 374.562 1.92107 -0.32876 0
M  V30 3864 H 373.658 3.03845 0.713063 0
M  V30 3865 N 373.959 -0.0401083 1.57549 0
M  V30 3866 C 374.889 -1.04384 2.08869 0
M  V30 3867 C 375.87 -1.38407 0.988817 0
M  V30 3868 O 377.055 -1.47483 1.26342 0
M  V30 3869 C 374.185 -2.34808 2.55895 0
M  V30 3870 C 373.139 -2.15057 3.70047 0
M  V30 3871 C 372.465 -3.51145 4.03239 0
M  V30 3872 C 373.765 -1.54576 4.98902 0
M  V30 3873 H 375.459 -0.616666 2.92981 0
M  V30 3874 H 373.005 -0.295184 1.40942 0
M  V30 3875 H 374.958 -3.05346 2.90417 0
M  V30 3876 H 373.682 -2.79565 1.68853 0
M  V30 3877 H 372.341 -1.46954 3.35857 0
M  V30 3878 H 371.989 -3.93529 3.13279 0
M  V30 3879 H 371.689 -3.38758 4.80122 0
M  V30 3880 H 373.213 -4.23062 4.40285 0
M  V30 3881 H 374.627 -2.15017 5.31451 0
M  V30 3882 H 373.024 -1.52796 5.80322 0
M  V30 3883 H 374.094 -0.51039 4.82206 0
M  V30 3884 N 375.437 -1.54477 -0.31217 0
M  V30 3885 C 376.367 -1.87652 -1.38957 0
M  V30 3886 C 377.348 -0.734358 -1.53431 0
M  V30 3887 O 378.533 -0.98911 -1.67123 0
M  V30 3888 C 375.663 -2.11396 -2.75552 0
M  V30 3889 C 374.617 -3.27243 -2.75855 0
M  V30 3890 C 373.943 -3.36382 -4.15633 0
M  V30 3891 C 375.243 -4.64622 -2.38587 0
M  V30 3892 H 376.937 -2.77887 -1.11442 0
M  V30 3893 H 374.483 -1.33707 -0.534655 0
M  V30 3894 H 376.436 -2.33189 -3.51 0
M  V30 3895 H 375.16 -1.17921 -3.04569 0
M  V30 3896 H 373.819 -3.05356 -2.02863 0
M  V30 3897 H 373.467 -2.40445 -4.41809 0
M  V30 3898 H 373.167 -4.14249 -4.1674 0
M  V30 3899 H 374.691 -3.60422 -4.92877 0
M  V30 3900 H 376.105 -4.86219 -3.03749 0
M  V30 3901 H 374.502 -5.45121 -2.50925 0
M  V30 3902 H 375.572 -4.66097 -1.33723 0
M  V30 3903 O 376.954 0.458097 -1.54867 0
M  V30 3904 H 377.645 1.11218 -1.58588 0
M  V30 END ATOM
M  V30 BEGIN BOND
M  V30 END BOND
M  V30 END CTAB
M  END
$$$$
