drugbank_target|P02359 30S ribosomal protein S7 (DB00759; DB09093; DB12455; DB13092)
 OpenBabel12092120573D

  0  0  0     0  0            999 V3000
M  V30 BEGIN CTAB
M  V30 COUNTS 2866 2888 0 0 0
M  V30 BEGIN ATOM
M  V30 1 H -0.908 1.98254 -0.117106 0
M  V30 2 N 0 1.576 0 0
M  V30 3 C 0.933 2.03868 1.02534 0
M  V30 4 C 1.911 0.928543 1.3348 0
M  V30 5 O 3.095 1.19667 1.45644 0
M  V30 6 C 0.222 2.43627 2.35294 0
M  V30 7 C -0.732 3.65373 2.2001 0
M  V30 8 S 0.101 5.13292 1.52614 0
M  V30 9 C 1.257 5.56322 2.86805 0
M  V30 10 H 1.49 2.90518 0.631377 0
M  V30 11 H -0.977 1.52953 0.210867 0
M  V30 12 H 0.981 2.67203 3.11629 0
M  V30 13 H -0.358 1.57376 2.7183 0
M  V30 14 H -1.165 3.90944 3.18086 0
M  V30 15 H -1.563 3.418 1.51819 0
M  V30 16 H 0.729 5.58782 3.83104 0
M  V30 17 H 1.672 6.56266 2.65933 0
M  V30 18 H 2.08 4.83886 2.90714 0
M  V30 19 N 1.4781 -0.272755 1.55222 0
M  V30 20 C 2.8891 -0.84378 1.66545 0
M  V30 21 C 3.2401 -1.87035 0.592641 0
M  V30 22 O 2.3651 -2.14761 -0.265818 0
M  V30 23 C 2.9601 -1.53723 3.01918 0
M  V30 24 C 1.5191 -2.05628 3.15268 0
M  V30 25 C 0.6661 -0.898424 2.62343 0
M  V30 26 H 3.6171 -0.0490998 1.58624 0
M  V30 27 H 3.6381 -2.40421 2.94921 0
M  V30 28 H 3.1501 -0.78983 3.79978 0
M  V30 29 H 1.2511 -2.83329 2.41983 0
M  V30 30 H 1.3641 -2.27142 4.21833 0
M  V30 31 H -0.2719 -1.29186 2.19506 0
M  V30 32 H 0.5111 -0.164528 3.42906 0
M  V30 33 N 2.9562 -1.48159 -0.537278 0
M  V30 34 C 4.3722 -1.34118 -0.865129 0
M  V30 35 C 4.5722 -0.346678 -1.98495 0
M  V30 36 O 3.6282 0.234715 -2.51407 0
M  V30 37 C 4.9412 -2.73963 -1.23954 0
M  V30 38 C 6.4892 -2.82397 -1.34984 0
M  V30 39 C 6.9642 -4.22928 -1.75772 0
M  V30 40 N 8.4552 -4.25566 -1.82887 0
M  V30 41 C 9.1902 -5.31235 -2.15817 0
M  V30 42 N 8.6862 -6.47189 -2.47222 0
M  V30 43 N 10.4792 -5.18624 -2.16761 0
M  V30 44 H 2.6302 -2.1144 0.201715 0
M  V30 45 H 4.8932 -0.947598 0.0275949 0
M  V30 46 H 4.5992 -3.48264 -0.490381 0
M  V30 47 H 4.4732 -3.0702 -2.19132 0
M  V30 48 H 6.8602 -2.08356 -2.08978 0
M  V30 49 H 6.9412 -2.5297 -0.379448 0
M  V30 50 H 6.5852 -4.97482 -1.02341 0
M  V30 51 H 6.5152 -4.49794 -2.73848 0
M  V30 52 H 9.0062 -3.41924 -1.60924 0
M  V30 53 H 9.3192 -7.23564 -2.71433 0
M  V30 54 H 7.6642 -6.50476 -2.44757 0
M  V30 55 H 10.8552 -4.27056 -1.91679 0
M  V30 56 H 11.0282 -6.01078 -2.42093 0
M  V30 57 N 4.4343 0.785586 -1.36625 0
M  V30 58 C 5.8503 1.08419 -1.17122 0
M  V30 59 C 6.0503 2.015 0.00208491 0
M  V30 60 O 5.1063 2.43551 0.666278 0
M  V30 61 C 6.4193 1.69498 -2.48377 0
M  V30 62 C 7.9673 1.81821 -2.54775 0
M  V30 63 C 8.4423 2.46315 -3.86126 0
M  V30 64 N 9.9333 2.53779 -3.87492 0
M  V30 65 C 10.6683 3.045 -4.85868 0
M  V30 66 N 10.1643 3.55499 -5.94637 0
M  V30 67 N 11.9573 3.03247 -4.73284 0
M  V30 68 H 4.1083 0.167264 -2.1174 0
M  V30 69 H 6.3713 0.13682 -0.938075 0
M  V30 70 H 6.0773 1.08571 -3.34522 0
M  V30 71 H 5.9513 2.6896 -2.64462 0
M  V30 72 H 8.3383 2.41884 -1.69045 0
M  V30 73 H 8.4193 0.811532 -2.42586 0
M  V30 74 H 8.0633 1.86895 -4.72263 0
M  V30 75 H 7.9933 3.47561 -3.95612 0
M  V30 76 H 10.4843 2.17672 -3.08913 0
M  V30 77 H 10.7973 3.92562 -6.65669 0
M  V30 78 H 9.1423 3.5364 -5.98301 0
M  V30 79 H 12.3333 2.62696 -3.87438 0
M  V30 80 H 12.5063 3.42467 -5.50109 0
M  V30 81 N 5.9124 1.20967 1.01018 0
M  V30 82 C 7.3284 0.965905 1.27053 0
M  V30 83 C 7.5284 -0.350785 1.98423 0
M  V30 84 O 6.5844 -1.07773 2.28344 0
M  V30 85 C 7.8974 2.15294 2.09926 0
M  V30 86 C 9.4454 2.19463 2.23171 0
M  V30 87 C 9.9204 3.3767 3.09424 0
M  V30 88 N 11.4114 3.37724 3.17012 0
M  V30 89 C 12.1464 4.25837 3.83993 0
M  V30 90 N 11.6424 5.24138 4.53047 0
M  V30 91 N 13.4354 4.1366 3.80581 0
M  V30 92 H 5.5864 2.0565 0.531194 0
M  V30 93 H 7.8494 0.90024 0.297106 0
M  V30 94 H 7.5554 3.10684 1.64828 0
M  V30 95 H 7.4294 2.13923 3.10672 0
M  V30 96 H 9.8164 1.24632 2.6749 0
M  V30 97 H 9.8974 2.2488 1.21912 0
M  V30 98 H 9.5414 4.32791 2.65808 0
M  V30 99 H 9.4714 3.29491 4.10784 0
M  V30 100 H 11.9624 2.6658 2.6785 0
M  V30 101 H 12.2754 5.87684 5.01844 0
M  V30 102 H 10.6204 5.28068 4.5185 0
M  V30 103 H 13.8114 3.36127 3.25785 0
M  V30 104 H 13.9844 4.82538 4.32505 0
M  V30 105 N 7.3905 -1.2043 1.01659 0
M  V30 106 C 8.6365 -1.90079 0.706963 0
M  V30 107 C 8.9695 -1.78648 -0.761474 0
M  V30 108 O 8.2445 -1.17069 -1.55323 0
M  V30 109 C 8.5275 -3.41469 1.14327 0
M  V30 110 C 8.3805 -3.61833 2.67201 0
M  V30 111 C 9.6995 -4.34261 0.714529 0
M  V30 112 H 6.8185 -0.690254 0.2583 0
M  V30 113 H 9.4605 -1.41826 1.26433 0
M  V30 114 H 7.6105 -3.82696 0.669056 0
M  V30 115 H 9.2825 -3.2986 3.22475 0
M  V30 116 H 7.5255 -3.05304 3.08175 0
M  V30 117 H 8.1965 -4.67955 2.92783 0
M  V30 118 H 10.6725 -4.00682 1.12221 0
M  V30 119 H 9.5485 -5.38806 1.04784 0
M  V30 120 H 9.8095 -4.40431 -0.383799 0
M  V30 121 N 8.8686 -0.792821 -1.36206 0
M  V30 122 C 10.1176 -0.363353 -1.984 0
M  V30 123 C 10.4306 1.07172 -1.63626 0
M  V30 124 O 11.6366 1.60362 -2.19081 0
M  V30 125 C 10.0926 -0.59872 -3.54885 0
M  V30 126 C 9.7006 -2.04543 -3.9858 0
M  V30 127 C 11.4446 -0.233926 -4.23855 0
M  V30 128 C 9.3516 -2.22727 -5.47856 0
M  V30 129 H 8.2816 -0.13212 -0.742334 0
M  V30 130 H 10.9326 -0.974935 -1.55458 0
M  V30 131 H 9.3146 0.0826222 -3.95914 0
M  V30 132 H 10.4886 -2.76345 -3.68741 0
M  V30 133 H 8.8036 -2.36879 -3.42458 0
M  V30 134 H 11.4006 -0.348027 -5.33566 0
M  V30 135 H 11.7436 0.818351 -4.08177 0
M  V30 136 H 12.2766 -0.868639 -3.882 0
M  V30 137 H 9.0156 -3.2635 -5.68486 0
M  V30 138 H 8.5356 -1.55434 -5.7931 0
M  V30 139 H 10.2146 -2.03607 -6.14128 0
M  V30 140 N 10.3467 1.47872 -0.545128 0
M  V30 141 C 11.5947 2.02093 -0.016553 0
M  V30 142 C 11.9157 1.42305 1.3332 0
M  V30 143 O 11.1857 0.593853 1.86682 0
M  V30 144 H 9.7657 0.746993 -0.00313038 0
M  V30 145 H 12.4277 1.81414 -0.712397 0
M  V30 146 H 11.5237 3.11996 0.0805422 0
M  V30 147 N 11.8248 0.280983 1.55075 0
M  V30 148 C 12.7568 -0.637268 2.20163 0
M  V30 149 C 13.7698 -1.11298 1.18813 0
M  V30 150 O 14.9588 -1.03388 1.4551 0
M  V30 151 C 12.0588 -1.88199 2.81841 0
M  V30 152 C 11.2318 -1.55211 4.08936 0
M  V30 153 C 10.2908 -2.64991 4.54606 0
M  V30 154 O 9.3168 -2.30929 5.2025 0
M  V30 155 N 10.5188 -3.95161 4.25238 0
M  V30 156 H 13.2838 -0.0801694 2.99593 0
M  V30 157 H 10.8448 0.102329 1.61576 0
M  V30 158 H 12.8368 -2.60948 3.09335 0
M  V30 159 H 11.4068 -2.34799 2.06369 0
M  V30 160 H 10.6268 -0.658185 3.88666 0
M  V30 161 H 11.9148 -1.30681 4.91732 0
M  V30 162 H 11.3128 -4.25653 3.72607 0
M  V30 163 H 9.8698 -4.6427 4.5749 0
M  V30 164 N 13.3029 -1.57598 0.00835791 0
M  V30 165 C 14.7189 -1.55764 -0.347822 0
M  V30 166 C 14.9189 -1.01186 -1.74252 0
M  V30 167 O 13.9749 -0.649371 -2.44007 0
M  V30 168 C 15.2879 -2.99927 -0.215407 0
M  V30 169 C 16.8359 -3.11656 -0.289725 0
M  V30 170 C 17.3109 -4.57621 -0.18634 0
M  V30 171 N 18.8019 -4.62557 -0.243978 0
M  V30 172 C 19.5369 -5.73094 -0.18745 0
M  V30 173 N 19.0329 -6.92753 -0.0810331 0
M  V30 174 N 20.8259 -5.61588 -0.239925 0
M  V30 175 H 12.9769 -1.91411 0.92062 0
M  V30 176 H 15.2399 -0.879562 0.353659 0
M  V30 177 H 14.9459 -3.43729 0.744512 0
M  V30 178 H 14.8199 -3.63865 -0.994097 0
M  V30 179 H 17.2069 -2.67779 -1.24009 0
M  V30 180 H 17.2879 -2.5048 0.51898 0
M  V30 181 H 16.9319 -5.02174 0.760519 0
M  V30 182 H 16.8619 -5.16752 -1.01364 0
M  V30 183 H 19.3529 -3.76481 -0.327217 0
M  V30 184 H 19.6659 -7.72787 -0.0440241 0
M  V30 185 H 18.0109 -6.94984 -0.0465419 0
M  V30 186 H 21.2019 -4.66996 -0.321317 0
M  V30 187 H 21.3749 -6.47714 -0.192407 0
M  V30 188 N 14.781 0.264519 -1.55364 0
M  V30 189 C 15.728 1.32717 -1.88825 0
M  V30 190 C 16.698 1.48675 -0.740605 0
M  V30 191 O 17.883 1.62945 -0.992657 0
M  V30 192 C 15.023 2.68089 -2.17307 0
M  V30 193 C 14.136 2.60284 -3.44785 0
M  V30 194 C 13.271 3.87892 -3.62924 0
M  V30 195 C 12.31 3.74631 -4.84064 0
M  V30 196 N 11.447 4.94092 -4.98816 0
M  V30 197 H 16.287 1.03481 -2.79456 0
M  V30 198 H 13.824 0.499757 -1.3835 0
M  V30 199 H 15.782 3.46864 -2.31821 0
M  V30 200 H 14.412 2.95509 -1.299 0
M  V30 201 H 13.464 1.73173 -3.38697 0
M  V30 202 H 14.776 2.46388 -4.33698 0
M  V30 203 H 13.93 4.75109 -3.77302 0
M  V30 204 H 12.669 4.04664 -2.7221 0
M  V30 205 H 11.674 2.85797 -4.69681 0
M  V30 206 H 12.899 3.5937 -5.76221 0
M  V30 207 H 10.845 5.11259 -4.11036 0
M  V30 208 H 10.762 4.8276 -5.81789 0
M  V30 209 H 12.03 5.82857 -5.17588 0
M  V30 210 N 16.2591 1.48442 0.529413 0
M  V30 211 C 17.5081 1.55742 1.28169 0
M  V30 212 C 17.8211 0.236511 1.94165 0
M  V30 213 O 19.0271 0.187761 2.7085 0
M  V30 214 C 17.4831 2.74667 2.32564 0
M  V30 215 C 17.0911 4.13402 1.72636 0
M  V30 216 C 18.8351 2.9128 3.08798 0
M  V30 217 C 16.7421 5.23587 2.74975 0
M  V30 218 H 15.6721 0.579796 0.48203 0
M  V30 219 H 18.3231 1.74776 0.559056 0
M  V30 220 H 16.7051 2.49067 3.07866 0
M  V30 221 H 17.8791 4.49022 1.03519 0
M  V30 222 H 16.1941 4.0191 1.08892 0
M  V30 223 H 18.7911 3.70767 3.85274 0
M  V30 224 H 19.1341 2.00757 3.64695 0
M  V30 225 H 19.6671 3.16782 2.40611 0
M  V30 226 H 16.4061 6.16076 2.23897 0
M  V30 227 H 15.9261 4.92454 3.42417 0
M  V30 228 H 17.6051 5.51724 3.37949 0
M  V30 229 N 17.7372 -0.778329 1.37039 0
M  V30 230 C 18.6672 -1.90546 1.34962 0
M  V30 231 C 19.6482 -1.68681 0.219274 0
M  V30 232 O 20.8332 -1.89634 0.418624 0
M  V30 233 C 17.9632 -3.27734 1.14925 0
M  V30 234 C 16.9172 -3.64147 2.24902 0
M  V30 235 C 16.2432 -4.99806 1.89996 0
M  V30 236 C 17.5432 -3.71579 3.67051 0
M  V30 237 H 19.2372 -1.92541 2.29277 0
M  V30 238 H 16.7832 -0.924948 1.10366 0
M  V30 239 H 18.7362 -4.06215 1.12104 0
M  V30 240 H 17.4602 -3.26154 0.170631 0
M  V30 241 H 16.1192 -2.8797 2.26868 0
M  V30 242 H 15.7672 -4.94759 0.906796 0
M  V30 243 H 15.4672 -5.25139 2.63634 0
M  V30 244 H 16.9912 -5.80694 1.88749 0
M  V30 245 H 18.4052 -4.40227 3.67251 0
M  V30 246 H 16.8022 -4.08405 4.39688 0
M  V30 247 H 17.8722 -2.72404 4.01154 0
M  V30 248 N 19.2153 -1.21501 -1.00376 0
M  V30 249 C 20.6263 -1.03146 -1.55621 0
M  V30 250 C 20.9773 0.408375 -1.91903 0
M  V30 251 O 20.1023 1.29177 -1.73616 0
M  V30 252 C 20.6973 -1.86612 -2.82775 0
M  V30 253 C 19.2563 -1.72586 -3.34501 0
M  V30 254 C 18.4033 -1.83747 -2.07683 0
M  V30 255 H 21.3543 -1.35505 -0.826081 0
M  V30 256 H 21.3753 -1.3771 -3.54706 0
M  V30 257 H 20.8873 -2.91399 -2.56336 0
M  V30 258 H 18.9883 -0.704877 -3.65872 0
M  V30 259 H 19.1013 -2.54623 -4.05837 0
M  V30 260 H 17.4653 -1.27069 -2.20739 0
M  V30 261 H 18.2483 -2.90044 -1.83655 0
M  V30 262 N 20.6934 1.19889 -1.02296 0
M  V30 263 C 21.9704 1.85148 -0.630832 0
M  V30 264 C 22.3504 1.91385 0.890782 0
M  V30 265 O 21.6984 1.42642 1.78509 0
M  V30 266 C 21.9084 3.24442 -1.28602 0
M  V30 267 C 23.2564 4.00663 -1.4055 0
M  V30 268 O 24.2804 3.33818 -1.24273 0
M  V30 269 O 23.1394 5.20387 -1.66913 0
M  V30 270 H 20.2334 0.797613 -0.218499 0
M  V30 271 H 22.7794 1.27427 -1.12074 0
M  V30 272 H 21.5514 3.14704 -2.32545 0
M  V30 273 H 21.1744 3.89802 -0.7836 0
M  V30 274 N 22.1715 0.800033 1.35784 0
M  V30 275 C 23.5825 0.439142 1.81462 0
M  V30 276 C 23.9335 -1.03813 1.66485 0
M  V30 277 O 23.0585 -1.80626 1.19177 0
M  V30 278 C 23.6535 0.790314 3.29453 0
M  V30 279 C 22.2125 0.482111 3.733 0
M  V30 280 C 21.3595 1.01938 2.57883 0
M  V30 281 H 24.3105 0.992254 1.23855 0
M  V30 282 H 24.3315 0.0853677 3.80404 0
M  V30 283 H 23.8435 1.86554 3.40322 0
M  V30 284 H 21.9445 -0.584652 3.67984 0
M  V30 285 H 22.0575 1.01015 4.6833 0
M  V30 286 H 20.4215 0.442043 2.50835 0
M  V30 287 H 21.2045 2.10059 2.71533 0
M  V30 288 N 23.6496 -1.47581 0.552962 0
M  V30 289 C 24.5966 -2.29957 -0.197108 0
M  V30 290 C 25.5666 -1.38799 -0.912359 0
M  V30 291 O 26.7516 -1.67761 -0.908888 0
M  V30 292 C 23.8916 -3.22672 -1.22379 0
M  V30 293 C 23.0046 -4.28919 -0.515038 0
M  V30 294 C 22.1396 -5.0879 -1.52664 0
M  V30 295 C 21.1786 -6.06815 -0.802631 0
M  V30 296 N 20.3156 -6.7966 -1.76086 0
M  V30 297 H 25.1556 -2.93578 0.511486 0
M  V30 298 H 22.6926 -1.4471 0.264067 0
M  V30 299 H 24.6506 -3.74845 -1.83159 0
M  V30 300 H 23.2806 -2.60925 -1.90047 0
M  V30 301 H 22.3326 -3.79835 0.207192 0
M  V30 302 H 23.6446 -4.98773 0.0523425 0
M  V30 303 H 22.7986 -5.65091 -2.20809 0
M  V30 304 H 21.5376 -4.38828 -2.12794 0
M  V30 305 H 20.5426 -5.49695 -0.107238 0
M  V30 306 H 21.7676 -6.78784 -0.207135 0
M  V30 307 H 19.7136 -6.12432 -2.35081 0
M  V30 308 H 19.6306 -7.45669 -1.24552 0
M  V30 309 H 20.8986 -7.40538 -2.43359 0
M  V30 310 N 25.1277 -0.289203 -1.54924 0
M  V30 311 C 26.3747 0.323519 -1.99899 0
M  V30 312 C 26.7027 1.54797 -1.17762 0
M  V30 313 O 25.9577 1.94237 -0.238835 0
M  V30 314 C 26.2567 0.736119 -3.49737 0
M  V30 315 C 25.9227 -0.385276 -4.49251 0
M  V30 316 C 24.5847 -0.693156 -4.76181 0
M  V30 317 C 26.9367 -1.14021 -5.08575 0
M  V30 318 C 24.2647 -1.7593 -5.59701 0
M  V30 319 C 26.6167 -2.19619 -5.93254 0
M  V30 320 C 25.2807 -2.51026 -6.185 0
M  V30 321 H 24.5507 0.118384 -0.731482 0
M  V30 322 H 27.1977 -0.405847 -1.8715 0
M  V30 323 H 25.5027 1.54539 -3.60035 0
M  V30 324 H 27.1997 1.22118 -3.81953 0
M  V30 325 H 23.7897 -0.135202 -4.28387 0
M  V30 326 H 27.9737 -0.915611 -4.87781 0
M  V30 327 H 23.2297 -2.0075 -5.77503 0
M  V30 328 H 27.4037 -2.78581 -6.38252 0
M  V30 329 H 25.0307 -3.33772 -6.83008 0
M  V30 330 N 26.6058 1.57591 -0.0167156 0
M  V30 331 C 27.8538 1.90906 0.663285 0
M  V30 332 C 28.1748 0.892509 1.73376 0
M  V30 333 O 27.4448 -0.0677623 1.95783 0
M  V30 334 H 26.0248 0.704637 0.247983 0
M  V30 335 H 28.6868 1.94803 -0.0615909 0
M  V30 336 H 27.7828 2.9116 1.12393 0
M  V30 337 N 28.0839 -0.256276 1.55502 0
M  V30 338 C 29.3089 -1.00766 1.81276 0
M  V30 339 C 29.7339 -1.78524 0.59252 0
M  V30 340 O 29.0919 -1.75413 -0.45827 0
M  V30 341 C 29.1399 -1.92869 3.04687 0
M  V30 342 O 28.2439 -3.019 2.80945 0
M  V30 343 H 27.5849 -0.287224 0.598664 0
M  V30 344 H 30.1149 -0.280109 2.02674 0
M  V30 345 H 30.1249 -2.34511 3.33869 0
M  V30 346 H 28.7999 -1.35689 3.93143 0
M  V30 347 H 27.3769 -2.64454 2.62904 0
M  V30 348 N 29.562 -1.4872 -0.521534 0
M  V30 349 C 30.472 -1.66569 -1.65203 0
M  V30 350 C 31.488 -0.548197 -1.65139 0
M  V30 351 O 32.664 -0.820339 -1.83936 0
M  V30 352 C 29.729 -1.70917 -3.01642 0
M  V30 353 C 28.79 -2.94356 -3.12495 0
M  V30 354 C 28.023 -2.98487 -4.42426 0
M  V30 355 O 28.246 -2.10786 -5.30024 0
M  V30 356 O 27.18 -3.90746 -4.57822 0
M  V30 357 H 31.006 -2.62298 -1.5308 0
M  V30 358 H 28.591 -1.3222 -0.695565 0
M  V30 359 H 30.473 -1.7625 -3.82771 0
M  V30 360 H 29.148 -0.783633 -3.14071 0
M  V30 361 H 28.055 -2.94552 -2.3063 0
M  V30 362 H 29.388 -3.86322 -3.04986 0
M  V30 363 N 31.0401 0.771051 -1.3745 0
M  V30 364 C 31.9701 1.89827 -1.3597 0
M  V30 365 C 32.9511 1.68562 -0.228216 0
M  V30 366 O 34.1361 1.8941 -0.428675 0
M  V30 367 C 31.2661 3.2712 -1.16662 0
M  V30 368 C 30.2201 3.6295 -2.2683 0
M  V30 369 C 29.5461 4.98791 -1.92644 0
M  V30 370 C 30.8461 3.69627 -3.69017 0
M  V30 371 H 32.5401 1.91323 -2.30295 0
M  V30 372 H 30.0861 0.919082 -1.10855 0
M  V30 373 H 32.0391 4.05615 -1.14256 0
M  V30 374 H 30.7631 3.26059 -0.187926 0
M  V30 375 H 29.4221 2.86763 -2.28392 0
M  V30 376 H 29.0701 4.94271 -0.933021 0
M  V30 377 H 28.7701 5.23733 -2.66416 0
M  V30 378 H 30.2941 5.79685 -1.91826 0
M  V30 379 H 31.7081 4.38273 -3.69581 0
M  V30 380 H 30.1051 4.06067 -4.41848 0
M  V30 381 H 31.1751 2.70273 -4.02592 0
M  V30 382 N 32.5182 1.22032 0.997298 0
M  V30 383 C 33.4482 1.01065 2.10495 0
M  V30 384 C 34.4292 -0.0669542 1.69968 0
M  V30 385 O 35.6142 0.0943987 1.9397 0
M  V30 386 C 32.7442 0.582874 3.42374 0
M  V30 387 C 31.6982 1.60592 3.96729 0
M  V30 388 C 31.0242 1.03412 5.24605 0
M  V30 389 C 32.3242 2.99478 4.27914 0
M  V30 390 H 34.0182 1.93708 2.28292 0
M  V30 391 H 31.5642 0.932761 1.09707 0
M  V30 392 H 33.5172 0.423332 4.19268 0
M  V30 393 H 32.2412 -0.379213 3.24391 0
M  V30 394 H 30.9002 1.75316 3.21963 0
M  V30 395 H 30.5482 0.063518 5.0296 0
M  V30 396 H 30.2482 1.71754 5.61938 0
M  V30 397 H 31.7722 0.886066 6.04137 0
M  V30 398 H 33.1862 2.88153 4.95622 0
M  V30 399 H 31.5832 3.64903 4.76409 0
M  V30 400 H 32.6532 3.49742 3.3587 0
M  V30 401 N 33.9963 -1.19345 1.0293 0
M  V30 402 C 34.9593 -2.20793 0.615069 0
M  V30 403 C 35.9593 -1.57553 -0.321533 0
M  V30 404 O 37.1493 -1.73862 -0.108483 0
M  V30 405 C 34.2813 -3.40754 -0.0999222 0
M  V30 406 H 35.4743 -2.58955 1.51269 0
M  V30 407 H 33.0273 -1.3303 0.820534 0
M  V30 408 H 33.7623 -3.0811 -1.01187 0
M  V30 409 H 33.5473 -3.87889 0.57309 0
M  V30 410 H 35.0373 -4.15898 -0.376645 0
M  V30 411 N 35.4744 -0.807222 -1.35358 0
M  V30 412 C 36.4214 -0.216037 -2.29787 0
M  V30 413 C 37.3914 0.650278 -1.52842 0
M  V30 414 O 38.5764 0.595227 -1.81278 0
M  V30 415 C 35.7164 0.628893 -3.39321 0
M  V30 416 C 34.8294 -0.257927 -4.31229 0
M  V30 417 C 33.9644 0.595069 -5.27856 0
M  V30 418 C 33.0034 -0.292111 -6.11403 0
M  V30 419 N 32.1404 0.520895 -7.00165 0
M  V30 420 H 36.9804 -1.02671 -2.79755 0
M  V30 421 H 34.5174 -0.517839 -1.37684 0
M  V30 422 H 36.4754 1.13393 -4.01494 0
M  V30 423 H 35.1054 1.40482 -2.90628 0
M  V30 424 H 34.1574 -0.881076 -3.70056 0
M  V30 425 H 35.4694 -0.940759 -4.89848 0
M  V30 426 H 34.6234 1.16522 -5.95405 0
M  V30 427 H 33.3624 1.31146 -4.69736 0
M  V30 428 H 32.3674 -0.874525 -5.428 0
M  V30 429 H 33.5924 -1.00638 -6.71602 0
M  V30 430 H 31.5384 1.22125 -6.44532 0
M  V30 431 H 31.4554 -0.103877 -7.55929 0
M  V30 432 H 32.7234 1.0743 -7.72062 0
M  V30 433 N 36.9525 1.47285 -0.560781 0
M  V30 434 C 38.1995 2.02464 -0.038062 0
M  V30 435 C 38.5275 1.43474 1.31322 0
M  V30 436 O 37.7825 0.581311 1.86867 0
M  V30 437 C 38.0815 3.57258 0.100784 0
M  V30 438 C 37.7475 4.35184 -1.18007 0
M  V30 439 C 36.4095 4.56194 -1.53103 0
M  V30 440 C 38.7615 4.80098 -2.02867 0
M  V30 441 C 36.0895 5.19367 -2.729 0
M  V30 442 C 38.4415 5.44593 -3.21871 0
M  V30 443 C 37.1055 5.63835 -3.57276 0
M  V30 444 H 36.3755 0.740869 -0.0139279 0
M  V30 445 H 39.0225 1.76916 -0.733012 0
M  V30 446 H 37.3275 3.81819 0.878724 0
M  V30 447 H 39.0245 3.97606 0.520639 0
M  V30 448 H 35.6145 4.19113 -0.8968 0
M  V30 449 H 39.7985 4.63642 -1.7706 0
M  V30 450 H 35.0545 5.32459 -3.00496 0
M  V30 451 H 39.2285 5.78358 -3.87911 0
M  V30 452 H 36.8555 6.12557 -4.50197 0
M  V30 453 N 38.4306 0.297415 1.54768 0
M  V30 454 C 39.6766 -0.313376 2.00364 0
M  V30 455 C 40.0096 -1.53815 1.18553 0
M  V30 456 O 39.2846 -1.92739 0.261103 0
M  V30 457 C 39.5676 -0.673525 3.53745 0
M  V30 458 C 39.4206 0.560133 4.46299 0
M  V30 459 C 40.7396 -1.50143 4.13697 0
M  V30 460 H 37.8586 -0.112428 0.728374 0
M  V30 461 H 40.5006 0.4088 1.8555 0
M  V30 462 H 38.6506 -1.28881 3.665 0
M  V30 463 H 40.3226 1.19863 4.45455 0
M  V30 464 H 38.5656 1.19405 4.17043 0
M  V30 465 H 39.2366 0.26405 5.51368 0
M  V30 466 H 41.7126 -0.981588 4.04356 0
M  V30 467 H 40.5886 -1.72221 5.21182 0
M  V30 468 H 40.8496 -2.48952 3.65343 0
M  V30 469 N 39.9087 -1.5758 0.0250728 0
M  V30 470 C 40.8567 -2.11125 -0.97617 0
M  V30 471 C 41.8507 -1.03689 -1.33959 0
M  V30 472 O 43.0567 -1.22128 -1.3223 0
M  V30 473 H 39.4317 -0.674468 -0.332561 0
M  V30 474 H 41.4027 -2.94194 -0.499223 0
M  V30 475 C 40.1517 -2.65017 -2.2508 0
M  V30 476 H 39.4747 -3.47333 -1.9799 0
M  V30 477 H 40.9147 -3.06133 -2.93357 0
M  V30 478 C 39.3737 -1.57574 -2.97779 0
M  V30 479 O 39.9037 -0.973203 -3.89733 0
M  V30 480 N 38.1097 -1.29716 -2.60043 0
M  V30 481 H 37.6567 -1.789 -1.85345 0
M  V30 482 H 37.6147 -0.58051 -3.08994 0
M  V30 483 N 41.3868 0.248026 -1.55636 0
M  V30 484 C 42.6358 0.974134 -1.76617 0
M  V30 485 C 42.9488 1.86528 -0.588796 0
M  V30 486 O 44.1548 2.62805 -0.681594 0
M  V30 487 C 42.6108 1.78213 -3.12679 0
M  V30 488 C 42.2188 0.93843 -4.38061 0
M  V30 489 C 43.9628 2.50104 -3.42999 0
M  V30 490 C 41.8698 1.74225 -5.65155 0
M  V30 491 H 40.7998 0.36745 -0.658405 0
M  V30 492 H 43.4508 0.22884 -1.82067 0
M  V30 493 H 41.8328 2.56933 -3.01333 0
M  V30 494 H 43.0068 0.193635 -4.60393 0
M  V30 495 H 41.3218 0.332905 -4.15067 0
M  V30 496 H 43.9188 3.10694 -4.3517 0
M  V30 497 H 44.2618 3.21662 -2.64271 0
M  V30 498 H 44.7948 1.78395 -3.55556 0
M  V30 499 H 41.5338 1.07043 -6.46701 0
M  V30 500 H 41.0538 2.46235 -5.46926 0
M  V30 501 H 42.7328 2.30967 -6.0437 0
M  V30 502 N 42.8649 1.48995 0.513639 0
M  V30 503 C 43.7949 1.67636 1.62544 0
M  V30 504 C 44.7759 0.525087 1.61793 0
M  V30 505 O 45.9609 0.759502 1.78732 0
M  V30 506 C 43.0909 1.73114 3.01079 0
M  V30 507 C 42.0449 2.87905 3.16693 0
M  V30 508 C 41.3709 2.78486 4.56453 0
M  V30 509 C 42.6709 4.29005 2.97913 0
M  V30 510 H 44.3649 2.60716 1.47198 0
M  V30 511 H 41.9109 1.25465 0.706714 0
M  V30 512 H 43.8639 1.84742 3.78746 0
M  V30 513 H 42.5879 0.766241 3.17484 0
M  V30 514 H 41.2469 2.75859 2.41448 0
M  V30 515 H 40.8949 1.7993 4.69717 0
M  V30 516 H 40.5949 3.55523 4.67843 0
M  V30 517 H 42.1189 2.92104 5.36197 0
M  V30 518 H 43.5329 4.41798 3.65359 0
M  V30 519 H 41.9299 5.07166 3.20785 0
M  V30 520 H 42.9999 4.44329 1.94165 0
M  V30 521 N 44.343 -0.763751 1.37857 0
M  V30 522 C 45.276 -1.88486 1.28639 0
M  V30 523 C 46.254 -1.61757 0.165363 0
M  V30 524 O 47.438 -1.85391 0.340948 0
M  V30 525 C 44.565 -3.23884 0.990811 0
M  V30 526 C 43.611 -3.69514 2.12983 0
M  V30 527 S 44.444 -3.82244 3.75033 0
M  V30 528 C 45.6 -5.20477 3.47641 0
M  V30 529 H 45.833 -1.96017 2.23527 0
M  V30 530 H 43.366 -0.925684 1.23574 0
M  V30 531 H 45.324 -4.02081 0.827101 0
M  V30 532 H 43.985 -3.14044 0.0592832 0
M  V30 533 H 43.178 -4.67696 1.87821 0
M  V30 534 H 42.78 -2.98441 2.25408 0
M  V30 535 H 45.072 -6.05905 3.03125 0
M  V30 536 H 46.015 -5.50655 4.4518 0
M  V30 537 H 46.423 -4.88793 2.82385 0
M  V30 538 N 45.8211 -1.22559 -0.990812 0
M  V30 539 C 47.0671 -1.05297 -1.73322 0
M  V30 540 C 47.4001 0.410655 -1.89808 0
M  V30 541 O 46.6751 1.30439 -1.44277 0
M  V30 542 C 46.9581 -1.76713 -3.13759 0
M  V30 543 C 46.8111 -3.30684 -3.04907 0
M  V30 544 C 48.1301 -1.52121 -4.12974 0
M  V30 545 H 45.2491 -0.38392 -0.629106 0
M  V30 546 H 47.8911 -1.50926 -1.15418 0
M  V30 547 H 46.0411 -1.37924 -3.63193 0
M  V30 548 H 47.7131 -3.7893 -2.63077 0
M  V30 549 H 45.9561 -3.60253 -2.41661 0
M  V30 550 H 46.6271 -3.75833 -4.04294 0
M  V30 551 H 49.1031 -1.85819 -3.72304 0
M  V30 552 H 47.9791 -2.04582 -5.0935 0
M  V30 553 H 48.2401 -0.454257 -4.3976 0
M  V30 554 N 47.2992 1.18797 -1.03562 0
M  V30 555 C 48.5762 1.84469 -0.650434 0
M  V30 556 C 48.9562 1.92319 0.870433 0
M  V30 557 O 48.3042 1.44528 1.76986 0
M  V30 558 C 48.5142 3.2306 -1.32036 0
M  V30 559 C 49.8622 3.9915 -1.44792 0
M  V30 560 O 50.8862 3.32481 -1.27806 0
M  V30 561 O 49.7452 5.18587 -1.72423 0
M  V30 562 H 46.8392 0.795251 -0.226946 0
M  V30 563 H 49.3852 1.26231 -1.13419 0
M  V30 564 H 48.1572 3.1222 -2.3587 0
M  V30 565 H 47.7802 3.88949 -0.8249 0
M  V30 566 N 48.7773 0.814389 1.34928 0
M  V30 567 C 50.0253 0.397636 1.9815 0
M  V30 568 C 50.3463 -1.04069 1.64908 0
M  V30 569 O 49.6163 -1.72121 0.93548 0
M  V30 570 H 48.1963 0.144043 0.732981 0
M  V30 571 H 50.8583 1.04195 1.6471 0
M  V30 572 H 49.9543 0.509688 3.0791 0
M  V30 573 N 50.2554 -1.46986 0.568584 0
M  V30 574 C 51.2024 -2.30153 -0.172707 0
M  V30 575 C 52.1724 -1.39759 -0.897586 0
M  V30 576 O 53.3574 -1.68716 -0.891044 0
M  V30 577 C 50.4974 -3.23952 -1.1895 0
M  V30 578 C 49.6104 -4.29441 -0.469517 0
M  V30 579 C 48.7454 -5.1038 -1.47259 0
M  V30 580 C 47.7844 -6.07632 -0.738225 0
M  V30 581 N 46.9214 -6.8149 -1.68868 0
M  V30 582 H 51.7614 -2.93019 0.542596 0
M  V30 583 H 49.2984 -1.44422 0.279401 0
M  V30 584 H 51.2564 -3.76767 -1.79173 0
M  V30 585 H 49.8864 -2.62926 -1.87269 0
M  V30 586 H 48.9384 -3.79594 0.247467 0
M  V30 587 H 50.2504 -4.98689 0.105241 0
M  V30 588 H 49.4044 -5.67402 -2.14803 0
M  V30 589 H 48.1434 -4.4106 -2.08128 0
M  V30 590 H 47.1484 -5.49778 -0.0489293 0
M  V30 591 H 48.3734 -6.78966 -0.135129 0
M  V30 592 H 46.3194 -6.14891 -2.28573 0
M  V30 593 H 46.2364 -7.46948 -1.16636 0
M  V30 594 H 47.5044 -7.43078 -2.3549 0
M  V30 595 N 51.7335 -0.305618 -1.54608 0
M  V30 596 C 52.6805 0.568421 -2.23691 0
M  V30 597 C 53.6505 1.12592 -1.22116 0
M  V30 598 O 54.8355 1.16959 -1.50749 0
M  V30 599 C 51.9755 1.7322 -2.98477 0
M  V30 600 C 51.0885 1.20566 -4.14835 0
M  V30 601 C 50.2235 2.33368 -4.77193 0
M  V30 602 C 49.2625 1.7787 -5.85686 0
M  V30 603 N 48.3995 2.84263 -6.4198 0
M  V30 604 H 53.2395 -0.0272867 -2.97988 0
M  V30 605 H 50.7765 -0.0252363 -1.47078 0
M  V30 606 H 52.7345 2.41675 -3.40072 0
M  V30 607 H 51.3645 2.29947 -2.26548 0
M  V30 608 H 50.4165 0.413223 -3.78149 0
M  V30 609 H 51.7285 0.759417 -4.92985 0
M  V30 610 H 50.8825 3.09761 -5.21664 0
M  V30 611 H 49.6215 2.8132 -3.98385 0
M  V30 612 H 48.6265 0.99968 -5.40635 0
M  V30 613 H 49.8515 1.30816 -6.66381 0
M  V30 614 H 47.7975 3.31541 -5.66053 0
M  V30 615 H 47.7145 2.44149 -7.15491 0
M  V30 616 H 48.9825 3.6054 -6.91109 0
M  V30 617 N 53.2116 1.57565 -0.0334293 0
M  V30 618 C 54.4366 1.96689 0.657895 0
M  V30 619 C 54.8616 0.910057 1.64619 0
M  V30 620 O 54.2196 -0.128598 1.80843 0
M  V30 621 C 54.2676 3.34905 1.33683 0
M  V30 622 O 53.3716 3.31574 2.45219 0
M  V30 623 H 52.7126 0.641205 0.172489 0
M  V30 624 H 55.2426 2.04372 -0.0965621 0
M  V30 625 H 55.2526 3.71234 1.69262 0
M  V30 626 H 53.9276 4.11366 0.612411 0
M  V30 627 H 52.5046 3.06968 2.11719 0
M  V30 628 N 54.6897 -0.239769 1.55765 0
M  V30 629 C 55.9177 -0.98417 1.81994 0
M  V30 630 C 56.3327 -1.7867 0.610124 0
M  V30 631 O 55.6897 -1.77571 -0.421271 0
M  V30 632 C 55.7407 -1.91635 3.06526 0
M  V30 633 O 55.4617 -1.14629 4.22838 0
M  V30 634 C 56.9627 -2.77616 3.45607 0
M  V30 635 H 54.1827 -0.28928 0.605441 0
M  V30 636 H 56.7267 -0.260499 2.02834 0
M  V30 637 H 54.8817 -2.5942 2.87715 0
M  V30 638 H 55.2957 -1.77745 4.93464 0
M  V30 639 H 56.7697 -3.38759 4.35828 0
M  V30 640 H 57.2467 -3.4909 2.6652 0
M  V30 641 H 57.8527 -2.15271 3.66795 0
M  V30 642 N 56.1678 -1.49265 -0.50573 0
M  V30 643 C 57.1308 -1.65075 -1.59006 0
M  V30 644 C 58.1308 -0.522768 -1.52065 0
M  V30 645 O 59.3208 -0.789117 -1.55302 0
M  V30 646 C 56.4528 -1.64369 -2.98656 0
M  V30 647 H 57.6458 -2.61784 -1.46319 0
M  V30 648 H 55.1988 -1.38226 -0.729616 0
M  V30 649 H 55.9338 -0.692272 -3.16825 0
M  V30 650 H 55.7188 -2.46282 -3.05103 0
M  V30 651 H 57.2088 -1.78674 -3.77446 0
M  V30 652 N 57.6459 0.756429 -1.3826 0
M  V30 653 C 58.5559 1.9009 -1.37488 0
M  V30 654 C 59.5719 1.71855 -0.272366 0
M  V30 655 O 60.7479 1.94827 -0.510318 0
M  V30 656 C 57.8129 3.25421 -1.19592 0
M  V30 657 C 56.8739 3.56202 -2.39622 0
M  V30 658 C 56.1069 4.85075 -2.2257 0
M  V30 659 O 56.3299 5.57246 -1.21793 0
M  V30 660 O 55.2639 5.15269 -3.11098 0
M  V30 661 H 59.0899 1.93695 -2.33914 0
M  V30 662 H 56.6749 0.901313 -1.1915 0
M  V30 663 H 58.5569 4.06337 -1.11661 0
M  V30 664 H 57.2319 3.22634 -0.262486 0
M  V30 665 H 56.1389 2.75458 -2.53128 0
M  V30 666 H 57.4719 3.63747 -3.31586 0
M  V30 667 N 59.124 1.23083 0.984299 0
M  V30 668 C 60.349 1.088 1.76571 0
M  V30 669 C 60.774 -0.356657 1.84688 0
M  V30 670 O 60.132 -1.25788 1.30565 0
M  V30 671 C 60.18 1.71371 3.17277 0
M  V30 672 O 59.284 0.973213 4.00752 0
M  V30 673 H 58.625 0.381599 0.543395 0
M  V30 674 H 61.155 1.63057 1.23587 0
M  V30 675 H 61.165 1.76449 3.67872 0
M  V30 676 H 59.84 2.76493 3.10684 0
M  V30 677 H 58.417 0.999078 3.59267 0
M  V30 678 N 60.6021 -1.18246 1.0419 0
M  V30 679 C 61.8511 -1.87588 0.741194 0
M  V30 680 C 62.1641 -1.81303 -0.734066 0
M  V30 681 O 63.3701 -2.46019 -1.14834 0
M  V30 682 C 61.8261 -3.36538 1.27555 0
M  V30 683 C 61.4341 -3.51349 2.77953 0
M  V30 684 C 63.1781 -4.11273 1.05143 0
M  V30 685 C 61.0851 -4.94265 3.2474 0
M  V30 686 H 60.0151 -0.702622 0.273565 0
M  V30 687 H 62.6661 -1.33601 1.25789 0
M  V30 688 H 61.0481 -3.9 0.686703 0
M  V30 689 H 62.2221 -3.08153 3.42605 0
M  V30 690 H 60.5371 -2.90022 2.98791 0
M  V30 691 H 63.1341 -5.16689 1.37611 0
M  V30 692 H 63.4771 -4.16298 -0.0112774 0
M  V30 693 H 64.0101 -3.63987 1.60495 0
M  V30 694 H 60.7491 -4.94408 4.30396 0
M  V30 695 H 60.2691 -5.38172 2.64823 0
M  V30 696 H 61.9481 -5.62987 3.18834 0
M  V30 697 N 62.0802 -0.821533 -1.34494 0
M  V30 698 C 63.3262 -0.409552 -1.98622 0
M  V30 699 C 63.6592 1.0244 -1.64984 0
M  V30 700 O 62.9342 1.71325 -0.920758 0
M  V30 701 C 63.2172 -0.610458 -3.54888 0
M  V30 702 C 63.0702 -2.09043 -3.98273 0
M  V30 703 C 64.3892 -0.0455379 -4.40076 0
M  V30 704 H 61.5082 -0.15028 -0.721516 0
M  V30 705 H 64.1502 -1.03384 -1.59411 0
M  V30 706 H 62.3002 -0.079044 -3.8842 0
M  V30 707 H 63.9722 -2.68537 -3.75081 0
M  V30 708 H 62.2152 -2.58139 -3.48635 0
M  V30 709 H 62.8862 -2.18182 -5.07051 0
M  V30 710 H 65.3622 -0.499557 -4.1309 0
M  V30 711 H 64.2382 -0.215922 -5.48475 0
M  V30 712 H 64.4992 1.04939 -4.29465 0
M  V30 713 N 63.5583 1.46682 -0.576371 0
M  V30 714 C 64.7883 2.06498 -0.0648694 0
M  V30 715 C 65.1963 1.42665 1.24271 0
M  V30 716 O 64.5393 0.523886 1.76071 0
M  V30 717 C 64.6013 3.5904 0.181816 0
M  V30 718 C 64.2653 4.45028 -1.0392 0
M  V30 719 C 65.2623 4.81959 -1.94966 0
M  V30 720 C 62.9473 4.86259 -1.25927 0
M  V30 721 C 64.9413 5.58942 -3.06371 0
M  V30 722 C 62.6283 5.63002 -2.37638 0
M  V30 723 C 63.6263 5.99257 -3.2769 0
M  V30 724 O 63.3143 6.7445 -4.37461 0
M  V30 725 H 63.0463 0.674028 -0.0515987 0
M  V30 726 H 65.6003 1.89393 -0.794951 0
M  V30 727 H 63.8303 3.74429 0.966436 0
M  V30 728 H 65.5193 4.00806 0.641047 0
M  V30 729 H 66.2853 4.50689 -1.79177 0
M  V30 730 H 62.1643 4.57494 -0.567448 0
M  V30 731 H 65.7083 5.87158 -3.76684 0
M  V30 732 H 61.6053 5.93686 -2.53392 0
M  V30 733 H 62.3733 6.92867 -4.35749 0
M  V30 734 N 65.0364 0.313813 1.54444 0
M  V30 735 C 66.2614 -0.296681 2.05267 0
M  V30 736 C 66.6864 -1.45757 1.18897 0
M  V30 737 O 66.0444 -1.80239 0.195886 0
M  V30 738 C 66.0924 -0.71831 3.53373 0
M  V30 739 O 65.1964 -1.82175 3.69981 0
M  V30 740 H 64.5374 -0.0554061 0.661684 0
M  V30 741 H 67.0674 0.459387 1.99376 0
M  V30 742 H 67.0774 -1.00364 3.95463 0
M  V30 743 H 65.7524 0.130821 4.15694 0
M  V30 744 H 64.3294 -1.53598 3.39797 0
M  V30 745 N 66.5145 -1.57545 0.0417849 0
M  V30 746 C 67.4775 -2.09885 -0.92093 0
M  V30 747 C 68.4775 -1.01648 -1.24596 0
M  V30 748 O 69.6675 -1.27759 -1.1842 0
M  V30 749 C 66.7995 -2.57527 -2.23367 0
M  V30 750 H 67.9925 -2.96236 -0.467382 0
M  V30 751 H 65.5455 -1.5493 -0.206467 0
M  V30 752 H 66.2805 -1.74542 -2.73323 0
M  V30 753 H 66.0655 -3.36613 -2.01083 0
M  V30 754 H 67.5555 -2.98201 -2.92346 0
M  V30 755 N 67.9926 0.231505 -1.5589 0
M  V30 756 C 68.9226 1.29022 -1.94617 0
M  V30 757 C 69.9036 1.4941 -0.813067 0
M  V30 758 O 71.0886 1.6176 -1.07459 0
M  V30 759 C 68.2186 2.64199 -2.25424 0
M  V30 760 C 67.1726 2.58484 -3.41131 0
M  V30 761 C 66.4986 3.97599 -3.57518 0
M  V30 762 C 67.7986 2.1413 -4.76388 0
M  V30 763 H 69.4926 0.968563 -2.83301 0
M  V30 764 H 67.0386 0.464479 -1.36303 0
M  V30 765 H 68.9916 3.38413 -2.51107 0
M  V30 766 H 67.7156 2.98032 -1.33583 0
M  V30 767 H 66.3746 1.86727 -3.15481 0
M  V30 768 H 66.0226 4.28723 -2.6307 0
M  V30 769 H 65.7226 3.94659 -4.35337 0
M  V30 770 H 67.2466 4.7349 -3.85538 0
M  V30 771 H 68.6606 2.78083 -5.01341 0
M  V30 772 H 67.0576 2.2227 -5.57419 0
M  V30 773 H 68.1276 1.09331 -4.72414 0
M  V30 774 N 69.4707 1.49531 0.497807 0
M  V30 775 C 70.3807 1.69176 1.62532 0
M  V30 776 C 71.3967 0.5744 1.64246 0
M  V30 777 O 72.5727 0.849497 1.82608 0
M  V30 778 C 69.6377 1.75695 2.98885 0
M  V30 779 C 68.6987 2.9929 3.07773 0
M  V30 780 C 67.9317 3.05488 4.37622 0
M  V30 781 O 68.1547 2.19192 5.26603 0
M  V30 782 O 67.0887 3.9798 4.51548 0
M  V30 783 H 70.9147 2.647 1.48887 0
M  V30 784 H 68.4997 1.3331 0.674441 0
M  V30 785 H 70.3817 1.82317 3.79919 0
M  V30 786 H 69.0567 0.8335 3.12785 0
M  V30 787 H 67.9637 2.98183 2.25915 0
M  V30 788 H 69.2967 3.91125 2.98801 0
M  V30 789 N 70.9488 -0.749086 1.3866 0
M  V30 790 C 72.1768 -1.53834 1.38358 0
M  V30 791 C 72.5918 -1.88783 -0.0255219 0
M  V30 792 O 71.9488 -1.53101 -0.993292 0
M  V30 793 C 71.9998 -2.83468 2.2434 0
M  V30 794 O 71.7208 -2.50008 3.5976 0
M  V30 795 C 73.2218 -3.7758 2.32267 0
M  V30 796 H 70.4418 -0.47585 0.473083 0
M  V30 797 H 72.9858 -0.926726 1.82297 0
M  V30 798 H 71.1408 -3.40995 1.83851 0
M  V30 799 H 71.5548 -3.33182 4.05081 0
M  V30 800 H 73.0288 -4.65478 2.96706 0
M  V30 801 H 73.5058 -4.18334 1.33765 0
M  V30 802 H 74.1118 -3.25976 2.73166 0
M  V30 803 N 72.4269 -1.23603 -0.977757 0
M  V30 804 C 73.3569 -1.04401 -2.0886 0
M  V30 805 C 74.3379 0.0399052 -1.70053 0
M  V30 806 O 75.5229 -0.125246 -1.93796 0
M  V30 807 C 72.6529 -0.637269 -3.41403 0
M  V30 808 C 71.6069 -1.66883 -3.94124 0
M  V30 809 C 70.9329 -1.11745 -5.22893 0
M  V30 810 C 72.2329 -3.06247 -4.23096 0
M  V30 811 H 73.9269 -1.97316 -2.25182 0
M  V30 812 H 71.4729 -0.950096 -1.08209 0
M  V30 813 H 73.4259 -0.48998 -4.18542 0
M  V30 814 H 72.1499 0.327557 -3.24953 0
M  V30 815 H 70.8089 -1.80416 -3.19133 0
M  V30 816 H 70.4569 -0.143527 -5.02795 0
M  V30 817 H 70.1569 -1.80672 -5.59134 0
M  V30 818 H 71.6809 -0.982067 -6.02651 0
M  V30 819 H 73.0949 -2.96001 -4.90975 0
M  V30 820 H 71.4919 -3.72436 -4.70544 0
M  V30 821 H 72.5619 -3.55041 -3.30263 0
M  V30 822 N 73.905 1.17692 -1.04816 0
M  V30 823 C 74.868 2.19787 -0.650117 0
M  V30 824 C 75.868 1.58044 0.296427 0
M  V30 825 O 77.058 1.74012 0.0808097 0
M  V30 826 C 74.19 3.40869 0.0456987 0
M  V30 827 H 75.383 2.56516 -1.5537 0
M  V30 828 H 72.936 1.31708 -0.841594 0
M  V30 829 H 73.671 3.09681 0.962726 0
M  V30 830 H 73.456 3.86928 -0.634727 0
M  V30 831 H 74.946 4.16445 0.310432 0
M  V30 832 N 75.3831 0.828654 1.34056 0
M  V30 833 C 76.3151 0.212052 2.28217 0
M  V30 834 C 77.3281 -0.601362 1.51286 0
M  V30 835 O 78.5171 -0.430104 1.73241 0
M  V30 836 C 75.6171 -0.72088 3.31144 0
M  V30 837 C 74.7901 0.0509587 4.3737 0
M  V30 838 C 73.8491 -0.803766 5.20025 0
M  V30 839 O 72.8751 -0.246667 5.68665 0
M  V30 840 N 74.0771 -2.1227 5.40298 0
M  V30 841 H 76.8421 1.02105 2.81771 0
M  V30 842 H 74.4031 0.686153 1.46641 0
M  V30 843 H 76.3951 -1.29742 3.8334 0
M  V30 844 H 74.9651 -1.43061 2.77943 0
M  V30 845 H 74.1851 0.808831 3.85813 0
M  V30 846 H 75.4731 0.582065 5.0546 0
M  V30 847 H 74.8711 -2.59898 5.02464 0
M  V30 848 H 73.4281 -2.64796 5.95589 0
M  V30 849 N 76.8612 -1.46375 0.584142 0
M  V30 850 C 78.2772 -1.57694 0.245929 0
M  V30 851 C 78.4772 -1.57903 -1.25175 0
M  V30 852 O 77.5332 -1.49676 -2.03355 0
M  V30 853 C 78.8462 -2.87028 0.896402 0
M  V30 854 C 80.3942 -3.00662 0.870127 0
M  V30 855 C 80.8692 -4.32734 1.50017 0
M  V30 856 N 82.3602 -4.39436 1.46458 0
M  V30 857 C 83.0952 -5.40248 1.92144 0
M  V30 858 N 82.5912 -6.47726 2.4581 0
M  V30 859 N 84.3842 -5.31459 1.83052 0
M  V30 860 H 76.5352 -1.44483 1.55687 0
M  V30 861 H 78.7982 -0.689291 0.650831 0
M  V30 862 H 78.5042 -2.9269 1.95002 0
M  V30 863 H 78.3782 -3.75014 0.405486 0
M  V30 864 H 80.7652 -2.94581 -0.174871 0
M  V30 865 H 80.8462 -2.14148 1.39908 0
M  V30 866 H 80.4902 -4.39573 2.54437 0
M  V30 867 H 80.4202 -5.18025 0.946432 0
M  V30 868 H 82.9112 -3.62367 1.07231 0
M  V30 869 H 83.2242 -7.20863 2.78525 0
M  V30 870 H 81.5692 -6.48542 2.49836 0
M  V30 871 H 84.7602 -4.46396 1.40883 0
M  V30 872 H 84.9332 -6.09881 2.18973 0
M  V30 873 N 78.3393 -0.321999 -1.54275 0
M  V30 874 C 79.5643 0.285791 -2.05422 0
M  V30 875 C 79.9893 1.45124 -1.19669 0
M  V30 876 O 79.3473 1.80132 -0.205441 0
M  V30 877 C 79.3953 0.69956 -3.53749 0
M  V30 878 O 78.4993 1.8021 -3.70942 0
M  V30 879 H 77.8403 0.0518962 -0.661969 0
M  V30 880 H 80.3703 -0.469954 -1.9913 0
M  V30 881 H 80.3803 0.982649 -3.9599 0
M  V30 882 H 79.0553 -0.152864 -4.15619 0
M  V30 883 H 77.6323 1.51794 -3.40607 0
M  V30 884 N 79.8174 1.5752 -0.0501392 0
M  V30 885 C 81.0654 1.9227 0.622642 0
M  V30 886 C 81.3864 0.929083 1.71444 0
M  V30 887 O 80.6564 -0.0262186 1.95882 0
M  V30 888 H 79.2364 0.709739 0.232981 0
M  V30 889 H 81.8984 1.94628 -0.102898 0
M  V30 890 H 80.9944 2.93479 1.06191 0
M  V30 891 N 81.2955 -0.223234 1.56011 0
M  V30 892 C 82.2425 -1.27664 1.92277 0
M  V30 893 C 83.2125 -1.46659 0.779763 0
M  V30 894 O 84.3975 -1.60256 1.03551 0
M  V30 895 C 81.5375 -2.62234 2.24338 0
M  V30 896 C 80.6505 -2.51051 3.51564 0
M  V30 897 C 79.7855 -3.78133 3.7308 0
M  V30 898 C 78.8245 -3.61665 4.93827 0
M  V30 899 N 77.9615 -4.80693 5.11741 0
M  V30 900 H 82.8015 -0.960358 2.82101 0
M  V30 901 H 80.3385 -0.462901 1.39627 0
M  V30 902 H 82.2965 -3.40596 2.40936 0
M  V30 903 H 80.9265 -2.91961 1.3769 0
M  V30 904 H 79.9785 -1.64132 3.43169 0
M  V30 905 H 81.2905 -2.34803 4.40079 0
M  V30 906 H 80.4445 -4.64938 3.89766 0
M  V30 907 H 79.1835 -3.97304 2.82844 0
M  V30 908 H 78.1885 -2.73244 4.77093 0
M  V30 909 H 79.4135 -3.43966 5.85546 0
M  V30 910 H 77.3595 -5.00181 4.24446 0
M  V30 911 H 77.2765 -4.67165 5.94384 0
M  V30 912 H 78.5445 -5.6893 5.3286 0
M  V30 913 N 82.7736 -1.49793 -0.48987 0
M  V30 914 C 83.9986 -1.63836 -1.27172 0
M  V30 915 C 84.4236 -0.31402 -1.8546 0
M  V30 916 O 83.7816 0.719803 -1.66399 0
M  V30 917 C 83.8296 -2.71797 -2.36978 0
M  V30 918 O 82.9336 -2.31744 -3.41128 0
M  V30 919 H 82.2746 -0.547997 -0.37496 0
M  V30 920 H 84.8046 -1.96053 -0.585191 0
M  V30 921 H 84.8146 -2.94305 -2.82575 0
M  V30 922 H 83.4896 -3.67923 -1.93921 0
M  V30 923 H 82.0666 -2.1961 -3.01373 0
M  V30 924 N 84.2517 0.741722 -1.39055 0
M  V30 925 C 85.1617 1.88621 -1.39496 0
M  V30 926 C 86.1777 1.71557 -0.290578 0
M  V30 927 O 87.3537 1.94275 -0.530954 0
M  V30 928 C 84.4187 3.24134 -1.23037 0
M  V30 929 C 83.4797 3.5364 -2.43387 0
M  V30 930 C 82.7127 4.82687 -2.27703 0
M  V30 931 O 82.9357 5.55922 -1.27696 0
M  V30 932 O 81.8697 5.1194 -3.16545 0
M  V30 933 H 85.6957 1.91203 -2.35956 0
M  V30 934 H 83.2807 0.888625 -1.20099 0
M  V30 935 H 85.1627 4.0513 -1.15964 0
M  V30 936 H 83.8377 3.22337 -0.296691 0
M  V30 937 H 82.7447 2.72758 -2.56035 0
M  V30 938 H 84.0777 3.60209 -3.35425 0
M  V30 939 N 85.7298 1.2412 0.971189 0
M  V30 940 C 86.6598 1.05508 2.08304 0
M  V30 941 C 87.6408 -0.0308864 1.70072 0
M  V30 942 O 88.8258 0.135521 1.93727 0
M  V30 943 C 85.9558 0.655365 3.4106 0
M  V30 944 C 84.9098 1.68971 3.93234 0
M  V30 945 C 84.2358 1.14516 5.22293 0
M  V30 946 C 85.5358 3.08487 4.21465 0
M  V30 947 H 87.2298 1.98507 2.24132 0
M  V30 948 H 84.7758 0.955821 1.07704 0
M  V30 949 H 86.7288 0.51217 4.18276 0
M  V30 950 H 85.4528 -0.31032 3.25122 0
M  V30 951 H 84.1118 1.82106 3.18171 0
M  V30 952 H 83.7598 0.170189 5.02712 0
M  V30 953 H 83.4598 1.83635 5.58168 0
M  V30 954 H 84.9838 1.01401 6.02121 0
M  V30 955 H 86.3978 2.98601 4.89398 0
M  V30 956 H 84.7948 3.74926 4.68562 0
M  V30 957 H 85.8648 3.56787 3.28376 0
M  V30 958 N 87.2079 -1.17134 1.05439 0
M  V30 959 C 88.1179 -2.24878 0.668365 0
M  V30 960 C 89.1339 -1.71186 -0.311687 0
M  V30 961 O 90.3099 -2.00738 -0.163161 0
M  V30 962 C 87.3749 -3.46662 0.051648 0
M  V30 963 C 86.4359 -4.15429 1.08246 0
M  V30 964 C 85.6689 -5.31399 0.495082 0
M  V30 965 O 85.8919 -5.66153 -0.694743 0
M  V30 966 O 84.8259 -5.89187 1.23056 0
M  V30 967 H 88.6519 -2.60189 1.56637 0
M  V30 968 H 86.2369 -1.24482 0.826104 0
M  V30 969 H 88.1189 -4.20394 -0.290966 0
M  V30 970 H 86.7939 -3.13142 -0.819971 0
M  V30 971 H 85.7009 -3.43704 1.47711 0
M  V30 972 H 87.0339 -4.52982 1.92532 0
M  V30 973 N 88.686 -0.835752 -1.33615 0
M  V30 974 C 89.649 -0.272 -2.2758 0
M  V30 975 C 90.649 0.557487 -1.50827 0
M  V30 976 O 91.839 0.37173 -1.70188 0
M  V30 977 C 88.971 0.617173 -3.35267 0
M  V30 978 H 90.164 -1.10111 -2.78954 0
M  V30 979 H 87.717 -0.608594 -1.43965 0
M  V30 980 H 88.452 1.46884 -2.89129 0
M  V30 981 H 88.237 0.0237066 -3.92093 0
M  V30 982 H 89.727 1.005 -4.05326 0
M  V30 983 N 90.1641 1.46063 -0.591896 0
M  V30 984 C 91.4111 2.02338 -0.0809991 0
M  V30 985 C 91.7391 1.46228 1.28249 0
M  V30 986 O 90.9941 0.620818 1.85592 0
M  V30 987 C 91.2931 3.57391 0.0249813 0
M  V30 988 C 90.9591 4.32583 -1.27211 0
M  V30 989 C 89.6211 4.52844 -1.62745 0
M  V30 990 C 91.9731 4.75687 -2.13005 0
M  V30 991 C 89.3011 5.13462 -2.83855 0
M  V30 992 C 91.6531 5.37644 -3.3335 0
M  V30 993 C 90.3171 5.5613 -3.69155 0
M  V30 994 H 89.5871 0.740407 -0.0296397 0
M  V30 995 H 92.2341 1.75321 -0.770374 0
M  V30 996 H 90.5391 3.83597 0.797537 0
M  V30 997 H 92.2361 3.98621 0.436184 0
M  V30 998 H 88.8261 4.17116 -0.985499 0
M  V30 999 H 93.0101 4.59782 -1.86855 0
M  V30 1000 H 88.2661 5.25965 -3.11722 0
M  V30 1001 H 92.4401 5.7 -4.00092 0
M  V30 1002 H 90.0671 6.0287 -4.63089 0
M  V30 1003 N 91.6422 0.330177 1.54103 0
M  V30 1004 C 92.5522 -0.541534 2.28264 0
M  V30 1005 C 93.5682 -1.12351 1.32866 0
M  V30 1006 O 94.7442 -1.14206 1.65888 0
M  V30 1007 C 91.8092 -1.68322 3.03098 0
M  V30 1008 C 90.8702 -1.13238 4.14096 0
M  V30 1009 C 90.1032 -2.21966 4.85352 0
M  V30 1010 O 90.3262 -3.42437 4.56172 0
M  V30 1011 O 89.2602 -1.87013 5.7211 0
M  V30 1012 H 93.0862 0.060938 3.03639 0
M  V30 1013 H 90.6712 0.09565 1.49093 0
M  V30 1014 H 92.5532 -2.34777 3.49939 0
M  V30 1015 H 91.2282 -2.27176 2.30593 0
M  V30 1016 H 90.1352 -0.432736 3.71589 0
M  V30 1017 H 91.4682 -0.588898 4.88664 0
M  V30 1018 N 93.1203 -1.57491 0.0584922 0
M  V30 1019 C 94.3663 -1.93264 -0.614558 0
M  V30 1020 C 94.6993 -0.937717 -1.7006 0
M  V30 1021 O 93.9743 0.0351652 -1.94468 0
M  V30 1022 C 94.2573 -3.3938 -1.20386 0
M  V30 1023 C 94.1103 -4.49625 -0.125375 0
M  V30 1024 C 95.4293 -3.86039 -2.11334 0
M  V30 1025 H 92.5483 -0.702791 -0.221933 0
M  V30 1026 H 95.1903 -1.8961 0.12175 0
M  V30 1027 H 93.3403 -3.42626 -1.83139 0
M  V30 1028 H 95.0123 -4.58506 0.506971 0
M  V30 1029 H 93.2553 -4.30354 0.545672 0
M  V30 1030 H 93.9263 -5.48967 -0.577861 0
M  V30 1031 H 96.4023 -3.84716 -1.58534 0
M  V30 1032 H 95.2783 -4.88914 -2.49507 0
M  V30 1033 H 95.5393 -3.23215 -3.01636 0
M  V30 1034 N 94.5984 0.214957 -1.56127 0
M  V30 1035 C 95.5614 1.24997 -1.92116 0
M  V30 1036 C 96.5614 1.39467 -0.800344 0
M  V30 1037 O 97.7514 1.37619 -1.06802 0
M  V30 1038 C 94.8834 2.62271 -2.17777 0
M  V30 1039 H 96.0764 0.942875 -2.84693 0
M  V30 1040 H 93.6294 0.455654 -1.49511 0
M  V30 1041 H 94.3644 2.98068 -1.27773 0
M  V30 1042 H 94.1494 2.53143 -2.99434 0
M  V30 1043 H 95.6394 3.36946 -2.46693 0
M  V30 1044 N 96.0765 1.50051 0.48192 0
M  V30 1045 C 97.0065 1.71046 1.58951 0
M  V30 1046 C 97.9875 0.559288 1.60642 0
M  V30 1047 O 99.1725 0.797243 1.77081 0
M  V30 1048 C 96.3025 1.79462 2.97339 0
M  V30 1049 C 95.2565 2.94558 3.10515 0
M  V30 1050 C 94.5825 2.88105 4.50444 0
M  V30 1051 C 95.8825 4.35227 2.88747 0
M  V30 1052 H 97.5765 2.6378 1.41635 0
M  V30 1053 H 95.1225 1.26936 0.679942 0
M  V30 1054 H 97.0755 1.92734 3.74742 0
M  V30 1055 H 95.7995 0.833412 3.15788 0
M  V30 1056 H 94.4585 2.80918 2.35543 0
M  V30 1057 H 94.1065 1.89853 4.65795 0
M  V30 1058 H 93.8065 3.65366 4.60197 0
M  V30 1059 H 95.3305 3.03412 5.29881 0
M  V30 1060 H 96.7445 4.49449 3.55905 0
M  V30 1061 H 95.1415 5.13856 3.09955 0
M  V30 1062 H 96.2115 4.48347 1.84696 0
M  V30 1063 N 97.5546 -0.734337 1.39446 0
M  V30 1064 C 98.4646 -1.87879 1.40495 0
M  V30 1065 C 99.4806 -1.714 0.299672 0
M  V30 1066 O 100.657 -1.93991 0.541249 0
M  V30 1067 C 97.7216 -3.23477 1.24754 0
M  V30 1068 C 96.7826 -3.52344 2.45259 0
M  V30 1069 C 96.0156 -4.81473 2.30259 0
M  V30 1070 O 96.2386 -5.55237 1.30643 0
M  V30 1071 O 95.1726 -5.10254 3.19256 0
M  V30 1072 H 98.9986 -1.89949 2.36966 0
M  V30 1073 H 96.5836 -0.882243 1.20569 0
M  V30 1074 H 98.4656 -4.04509 1.18111 0
M  V30 1075 H 97.1406 -3.22176 0.313781 0
M  V30 1076 H 96.0476 -2.71396 2.57478 0
M  V30 1077 H 97.3806 -3.58426 3.37331 0
M  V30 1078 N 99.0327 -1.24633 -0.964593 0
M  V30 1079 C 99.9807 -1.03917 -2.08096 0
M  V30 1080 C 100.975 0.0268581 -1.69379 0
M  V30 1081 O 102.181 -0.127952 -1.79545 0
M  V30 1082 H 98.5557 -0.319044 -0.680966 0
M  V30 1083 H 100.527 -1.98581 -2.22729 0
M  V30 1084 C 99.2757 -0.663983 -3.41301 0
M  V30 1085 H 98.5987 -1.47605 -3.71555 0
M  V30 1086 H 100.039 -0.558663 -4.20303 0
M  V30 1087 C 98.4977 0.629169 -3.30973 0
M  V30 1088 O 99.0277 1.67404 -3.65156 0
M  V30 1089 N 97.2337 0.611057 -2.84103 0
M  V30 1090 H 96.7807 -0.239593 -2.56483 0
M  V30 1091 H 96.7387 1.47647 -2.77575 0
M  V30 1092 N 100.511 1.16574 -1.06058 0
M  V30 1093 C 101.757 1.87324 -0.777022 0
M  V30 1094 C 102.09 1.81351 0.694645 0
M  V30 1095 O 101.365 1.22753 1.50871 0
M  V30 1096 C 101.648 3.36991 -1.26922 0
M  V30 1097 C 101.501 3.51667 -2.80447 0
M  V30 1098 C 102.82 4.3131 -0.87521 0
M  V30 1099 H 99.9388 0.680191 -0.28374 0
M  V30 1100 H 102.581 1.37036 -1.3161 0
M  V30 1101 H 100.731 3.79949 -0.81063 0
M  V30 1102 H 102.403 3.17664 -3.34495 0
M  V30 1103 H 100.646 2.93656 -3.19294 0
M  V30 1104 H 101.317 4.56766 -3.0995 0
M  V30 1105 H 103.793 3.9624 -1.27014 0
M  V30 1106 H 102.669 5.34545 -1.2471 0
M  V30 1107 H 102.93 4.41552 0.220071 0
M  V30 1108 N 101.989 0.842826 1.3317 0
M  V30 1109 C 103.405 0.531128 1.50503 0
M  V30 1110 C 103.605 -0.940734 1.78192 0
M  V30 1111 O 102.661 -1.72436 1.84451 0
M  V30 1112 C 103.974 1.40789 2.65705 0
M  V30 1113 C 105.522 1.40708 2.79589 0
M  V30 1114 C 105.997 2.26878 3.97857 0
M  V30 1115 N 107.488 2.24609 4.05099 0
M  V30 1116 C 108.223 2.88019 4.95815 0
M  V30 1117 N 107.719 3.60496 5.9162 0
M  V30 1118 N 109.512 2.77469 4.88843 0
M  V30 1119 H 101.663 1.79557 1.1346 0
M  V30 1120 H 103.926 0.766267 0.558156 0
M  V30 1121 H 103.632 2.454 2.51936 0
M  V30 1122 H 103.506 1.08677 3.61205 0
M  V30 1123 H 105.893 0.368668 2.92788 0
M  V30 1124 H 105.974 1.76829 1.84838 0
M  V30 1125 H 105.618 3.3078 3.85418 0
M  V30 1126 H 105.548 1.88096 4.91861 0
M  V30 1127 H 108.039 1.71906 3.36536 0
M  V30 1128 H 108.352 4.06076 6.57512 0
M  V30 1129 H 106.697 3.64604 5.91683 0
M  V30 1130 H 109.888 2.20406 4.12963 0
M  V30 1131 H 110.061 3.2717 5.59342 0
M  V30 1132 N 103.467 -1.45747 0.599634 0
M  V30 1133 C 104.878 -1.85853 0.177681 0
M  V30 1134 C 105.229 -1.50102 -1.26348 0
M  V30 1135 O 104.354 -0.923905 -1.95686 0
M  V30 1136 C 104.949 -3.37326 0.315688 0
M  V30 1137 C 103.508 -3.76365 -0.0515144 0
M  V30 1138 C 102.655 -2.69722 0.643822 0
M  V30 1139 H 105.606 -1.36661 0.806814 0
M  V30 1140 H 105.627 -3.77778 -0.454321 0
M  V30 1141 H 105.139 -3.63315 1.36468 0
M  V30 1142 H 103.24 -3.55993 -1.09999 0
M  V30 1143 H 103.353 -4.77916 0.336594 0
M  V30 1144 H 101.717 -2.54567 0.0822881 0
M  V30 1145 H 102.5 -2.98549 1.6948 0
M  V30 1146 N 104.945 -0.338344 -1.53925 0
M  V30 1147 C 106.173 0.261298 -2.05243 0
M  V30 1148 C 106.588 1.44625 -1.21363 0
M  V30 1149 O 105.945 1.80811 -0.247736 0
M  V30 1150 C 105.996 0.681412 -3.5502 0
M  V30 1151 O 105.717 -0.456414 -4.35716 0
M  V30 1152 C 107.218 1.34232 -4.22489 0
M  V30 1153 H 104.438 0.0513685 -0.669031 0
M  V30 1154 H 106.982 -0.488822 -1.98572 0
M  V30 1155 H 105.137 1.38148 -3.61931 0
M  V30 1156 H 105.551 -0.122564 -5.24357 0
M  V30 1157 H 107.025 1.58708 -5.28693 0
M  V30 1158 H 107.502 2.29426 -3.74514 0
M  V30 1159 H 108.108 0.684424 -4.19757 0
M  V30 1160 N 106.423 1.57458 -0.0668435 0
M  V30 1161 C 107.669 1.93587 0.6043 0
M  V30 1162 C 108.002 0.946722 1.69561 0
M  V30 1163 O 107.277 -0.0248516 1.94484 0
M  V30 1164 C 107.56 3.40014 1.18585 0
M  V30 1165 C 107.413 4.49685 0.101529 0
M  V30 1166 C 108.732 3.87154 2.09284 0
M  V30 1167 H 105.851 0.703958 0.218202 0
M  V30 1168 H 108.493 1.89542 -0.131804 0
M  V30 1169 H 106.643 3.43592 1.81319 0
M  V30 1170 H 108.315 4.5823 -0.531279 0
M  V30 1171 H 106.558 4.30059 -0.568487 0
M  V30 1172 H 107.229 5.49266 0.54874 0
M  V30 1173 H 109.705 3.85551 1.56491 0
M  V30 1174 H 108.581 4.90231 2.46911 0
M  V30 1175 H 108.842 3.2481 2.99918 0
M  V30 1176 N 107.901 -0.206675 1.56239 0
M  V30 1177 C 108.811 -1.27686 1.96808 0
M  V30 1178 C 109.827 -1.50455 0.874035 0
M  V30 1179 O 111.003 -1.63295 1.17884 0
M  V30 1180 C 108.068 -2.60358 2.28942 0
M  V30 1181 C 107.129 -2.45762 3.51994 0
M  V30 1182 C 106.362 -3.72108 3.82585 0
M  V30 1183 O 106.585 -4.75776 3.14631 0
M  V30 1184 O 105.519 -3.6833 4.76043 0
M  V30 1185 H 109.345 -0.962593 2.88041 0
M  V30 1186 H 106.93 -0.410746 1.43643 0
M  V30 1187 H 108.812 -3.38687 2.50737 0
M  V30 1188 H 107.487 -2.91435 1.4088 0
M  V30 1189 H 106.394 -1.65584 3.35459 0
M  V30 1190 H 107.727 -2.19621 4.40486 0
M  V30 1191 N 109.379 -1.50304 -0.473955 0
M  V30 1192 C 110.625 -1.61389 -1.22806 0
M  V30 1193 C 110.958 -0.311955 -1.91678 0
M  V30 1194 O 110.233 0.686384 -1.81986 0
M  V30 1195 C 110.516 -2.79219 -2.27396 0
M  V30 1196 C 110.369 -4.19286 -1.62848 0
M  V30 1197 C 111.688 -2.92614 -3.28732 0
M  V30 1198 H 108.807 -0.587399 -0.445119 0
M  V30 1199 H 111.449 -1.82681 -0.522265 0
M  V30 1200 H 109.599 -2.61195 -2.87592 0
M  V30 1201 H 111.271 -4.48892 -1.06271 0
M  V30 1202 H 109.514 -4.23677 -0.931693 0
M  V30 1203 H 110.185 -4.97655 -2.38838 0
M  V30 1204 H 112.661 -3.09105 -2.78556 0
M  V30 1205 H 111.537 -3.76688 -3.99246 0
M  V30 1206 H 111.798 -2.03107 -3.92683 0
M  V30 1207 N 110.857 0.726932 -1.39834 0
M  V30 1208 C 111.804 1.841 -1.39197 0
M  V30 1209 C 112.774 1.642 -0.250502 0
M  V30 1210 O 113.959 1.85494 -0.446846 0
M  V30 1211 C 111.099 3.21697 -1.24919 0
M  V30 1212 C 110.212 3.53247 -2.48678 0
M  V30 1213 C 109.347 4.80289 -2.26928 0
M  V30 1214 C 108.386 5.04707 -3.4632 0
M  V30 1215 N 107.523 6.22956 -3.23836 0
M  V30 1216 H 112.363 1.83979 -2.34427 0
M  V30 1217 H 109.9 0.898876 -1.16442 0
M  V30 1218 H 111.858 4.01137 -1.1465 0
M  V30 1219 H 110.488 3.21076 -0.333153 0
M  V30 1220 H 109.54 2.68447 -2.69519 0
M  V30 1221 H 110.852 3.67205 -3.37582 0
M  V30 1222 H 110.006 5.67725 -2.13947 0
M  V30 1223 H 108.745 4.68519 -1.35431 0
M  V30 1224 H 107.75 4.1573 -3.5979 0
M  V30 1225 H 108.975 5.18357 -4.38729 0
M  V30 1226 H 106.921 6.12459 -2.35011 0
M  V30 1227 H 106.838 6.37539 -4.063 0
M  V30 1228 H 108.106 7.1321 -3.14566 0
M  V30 1229 N 112.336 1.25143 0.95797 0
M  V30 1230 C 113.561 1.12521 1.74223 0
M  V30 1231 C 113.986 -0.317402 1.85403 0
M  V30 1232 O 113.344 -1.2299 1.33204 0
M  V30 1233 C 113.392 1.78062 3.1357 0
M  V30 1234 O 112.496 1.058 3.98598 0
M  V30 1235 H 111.837 0.39304 0.535178 0
M  V30 1236 H 114.367 1.65641 1.201 0
M  V30 1237 H 114.377 1.84213 3.64046 0
M  V30 1238 H 113.052 2.83021 3.04749 0
M  V30 1239 H 111.629 1.07506 3.57067 0
M  V30 1240 N 113.814 -1.1601 1.06675 0
M  V30 1241 C 115.23 -1.38622 0.790948 0
M  V30 1242 C 115.43 -1.92109 -0.607965 0
M  V30 1243 O 114.486 -2.12239 -1.36787 0
M  V30 1244 C 115.799 -2.36347 1.85905 0
M  V30 1245 C 117.347 -2.50023 1.88301 0
M  V30 1246 C 117.822 -3.51033 2.94176 0
M  V30 1247 N 119.313 -3.58563 2.93235 0
M  V30 1248 C 120.048 -4.36521 3.71803 0
M  V30 1249 N 119.544 -5.17869 4.602 0
M  V30 1250 N 121.337 -4.31541 3.60178 0
M  V30 1251 H 113.488 -0.796294 1.96908 0
M  V30 1252 H 115.751 -0.412597 0.853503 0
M  V30 1253 H 115.457 -2.04147 2.86386 0
M  V30 1254 H 115.331 -3.36042 1.71334 0
M  V30 1255 H 117.718 -2.81524 0.884769 0
M  V30 1256 H 117.799 -1.5035 2.06951 0
M  V30 1257 H 117.443 -3.20268 3.94196 0
M  V30 1258 H 117.373 -4.50445 2.72776 0
M  V30 1259 H 119.864 -3.00496 2.29152 0
M  V30 1260 H 120.177 -5.74578 5.16797 0
M  V30 1261 H 118.522 -5.17199 4.64253 0
M  V30 1262 H 121.713 -3.67051 2.90502 0
M  V30 1263 H 121.886 -4.9205 4.21653 0
M  V30 1264 N 115.292 -0.849877 -1.32721 0
M  V30 1265 C 116.708 -0.539102 -1.50219 0
M  V30 1266 C 116.908 0.931271 -1.78689 0
M  V30 1267 O 115.964 1.71455 -1.85363 0
M  V30 1268 C 117.277 -1.42196 -2.64954 0
M  V30 1269 C 118.825 -1.42189 -2.78839 0
M  V30 1270 C 119.3 -2.28985 -3.96648 0
M  V30 1271 N 120.791 -2.26754 -4.03902 0
M  V30 1272 C 121.526 -2.90644 -4.94281 0
M  V30 1273 N 121.022 -3.63629 -5.897 0
M  V30 1274 N 122.815 -2.80057 -4.87365 0
M  V30 1275 H 114.966 -1.80156 -1.12506 0
M  V30 1276 H 117.229 -0.769217 -0.554085 0
M  V30 1277 H 116.935 -2.46733 -2.50631 0
M  V30 1278 H 116.809 -1.10591 -3.60624 0
M  V30 1279 H 119.196 -0.38419 -2.92588 0
M  V30 1280 H 119.277 -1.77807 -1.83898 0
M  V30 1281 H 118.921 -3.32819 -3.83658 0
M  V30 1282 H 118.851 -1.90702 -4.90857 0
M  V30 1283 H 121.342 -1.73688 -3.3562 0
M  V30 1284 H 121.655 -4.09558 -6.55349 0
M  V30 1285 H 120 -3.67737 -5.89741 0
M  V30 1286 H 123.191 -2.22593 -4.11789 0
M  V30 1287 H 123.364 -3.30132 -5.57599 0
M  V30 1288 N 116.77 1.45427 -0.607355 0
M  V30 1289 C 118.016 2.0254 -0.102607 0
M  V30 1290 C 118.349 1.47478 1.26348 0
M  V30 1291 O 117.624 0.64939 1.83339 0
M  V30 1292 C 117.907 3.60044 -0.0634347 0
M  V30 1293 C 117.76 4.2544 -1.46017 0
M  V30 1294 C 119.079 4.35646 0.624514 0
M  V30 1295 H 116.198 0.73598 -0.0387607 0
M  V30 1296 H 118.84 1.73284 -0.779282 0
M  V30 1297 H 116.99 3.85101 0.512808 0
M  V30 1298 H 118.662 4.11569 -2.08347 0
M  V30 1299 H 116.905 3.83849 -2.02094 0
M  V30 1300 H 117.576 5.34342 -1.385 0
M  V30 1301 H 120.052 4.15882 0.134723 0
M  V30 1302 H 118.928 5.45376 0.621028 0
M  V30 1303 H 119.189 4.08501 1.69055 0
M  V30 1304 N 118.248 0.346503 1.53744 0
M  V30 1305 C 119.496 -0.248612 2.00565 0
M  V30 1306 C 119.817 -1.5083 1.23593 0
M  V30 1307 O 119.087 -1.92858 0.343912 0
M  V30 1308 H 117.667 -0.0948564 0.740953 0
M  V30 1309 H 120.329 0.468341 1.89189 0
M  V30 1310 H 119.425 -0.488994 3.08245 0
M  V30 1311 N 119.726 -1.57421 0.075193 0
M  V30 1312 C 120.974 -1.93236 -0.591974 0
M  V30 1313 C 121.295 -0.956241 -1.69944 0
M  V30 1314 O 120.565 -0.00494792 -1.95899 0
M  V30 1315 H 119.145 -0.713355 -0.22166 0
M  V30 1316 H 121.807 -1.9444 0.133848 0
M  V30 1317 H 120.903 -2.95131 -1.01509 0
M  V30 1318 N 121.204 0.198386 -1.56346 0
M  V30 1319 C 122.429 0.939682 -1.84891 0
M  V30 1320 C 122.854 1.76202 -0.658369 0
M  V30 1321 O 122.212 1.76993 0.392851 0
M  V30 1322 C 122.26 1.81428 -3.11635 0
M  V30 1323 O 121.364 2.91265 -2.91956 0
M  V30 1324 H 120.705 0.264807 -0.608912 0
M  V30 1325 H 123.235 0.204695 -2.03573 0
M  V30 1326 H 123.245 2.21958 -3.42343 0
M  V30 1327 H 121.92 1.21004 -3.97908 0
M  V30 1328 H 120.497 2.54514 -2.72538 0
M  V30 1329 N 122.682 1.50554 0.465978 0
M  V30 1330 C 123.91 1.65563 1.24083 0
M  V30 1331 C 124.325 0.341051 1.85694 0
M  V30 1332 O 123.682 -0.677543 1.69457 0
M  V30 1333 C 123.733 2.75051 2.34583 0
M  V30 1334 O 123.454 4.01413 1.75497 0
M  V30 1335 C 124.955 3.01078 3.25372 0
M  V30 1336 H 122.175 0.55638 0.375077 0
M  V30 1337 H 124.719 1.96807 0.555624 0
M  V30 1338 H 122.874 2.46486 2.9887 0
M  V30 1339 H 123.288 4.62002 2.48303 0
M  V30 1340 H 124.762 3.81339 3.99105 0
M  V30 1341 H 125.239 2.12349 3.84453 0
M  V30 1342 H 125.845 3.31194 2.66816 0
M  V30 1343 N 124.16 -0.719506 1.40217 0
M  V30 1344 C 125.39 -1.50646 1.41384 0
M  V30 1345 C 125.798 -1.89197 0.0107743 0
M  V30 1346 O 125.141 -1.55709 -0.974708 0
M  V30 1347 C 125.203 -2.81405 2.23722 0
M  V30 1348 C 124.867 -2.65199 3.72181 0
M  V30 1349 C 125.864 -2.32717 4.64907 0
M  V30 1350 C 123.549 -2.81586 4.1595 0
M  V30 1351 C 125.543 -2.16827 5.99387 0
M  V30 1352 C 123.23 -2.65313 5.50502 0
M  V30 1353 C 124.228 -2.32981 6.42035 0
M  V30 1354 O 123.916 -2.16827 7.74107 0
M  V30 1355 H 123.648 -0.471606 0.484318 0
M  V30 1356 H 126.202 -0.895456 1.84853 0
M  V30 1357 H 124.432 -3.44823 1.75026 0
M  V30 1358 H 126.121 -3.43102 2.16878 0
M  V30 1359 H 126.887 -2.19694 4.32388 0
M  V30 1360 H 122.766 -3.0574 3.45027 0
M  V30 1361 H 126.31 -1.91513 6.70797 0
M  V30 1362 H 122.207 -2.7792 5.82607 0
M  V30 1363 H 122.975 -2.31778 7.84998 0
M  V30 1364 N 125.638 -1.25649 -0.95132 0
M  V30 1365 C 126.57 -1.02112 -2.05197 0
M  V30 1366 C 127.583 0.0150571 -1.62793 0
M  V30 1367 O 128.772 -0.223874 -1.77091 0
M  V30 1368 C 125.872 -0.522361 -3.3485 0
M  V30 1369 C 125.045 -1.62546 -4.06076 0
M  V30 1370 C 124.104 -1.12649 -5.14001 0
M  V30 1371 O 123.13 -1.82156 -5.39266 0
M  V30 1372 N 124.332 0.03047 -5.80492 0
M  V30 1373 H 127.097 -1.96885 -2.25957 0
M  V30 1374 H 124.658 -1.16899 -1.1201 0
M  V30 1375 H 126.65 -0.172961 -4.0433 0
M  V30 1376 H 125.22 0.33151 -3.10837 0
M  V30 1377 H 124.44 -2.14628 -3.30649 0
M  V30 1378 H 125.728 -2.36644 -4.50419 0
M  V30 1379 H 125.126 0.611169 -5.62389 0
M  V30 1380 H 123.683 0.320875 -6.5101 0
M  V30 1381 N 127.117 1.15442 -1.07289 0
M  V30 1382 C 128.363 1.86489 -0.796846 0
M  V30 1383 C 128.696 1.82078 0.675371 0
M  V30 1384 O 127.971 1.24346 1.4956 0
M  V30 1385 C 128.254 3.35626 -1.30489 0
M  V30 1386 C 128.107 3.48673 -2.84161 0
M  V30 1387 C 129.426 4.30357 -0.920907 0
M  V30 1388 H 126.545 0.677144 -0.290939 0
M  V30 1389 H 129.187 1.35633 -1.33056 0
M  V30 1390 H 127.337 3.79068 -0.850883 0
M  V30 1391 H 129.009 3.14099 -3.37846 0
M  V30 1392 H 127.252 2.90253 -3.22391 0
M  V30 1393 H 127.923 4.53453 -3.14777 0
M  V30 1394 H 130.399 3.94871 -1.3121 0
M  V30 1395 H 129.275 5.33193 -1.30372 0
M  V30 1396 H 129.536 4.4176 0.173226 0
M  V30 1397 N 128.595 0.856903 1.32268 0
M  V30 1398 C 130.006 0.515711 1.79436 0
M  V30 1399 C 130.357 -0.966586 1.70738 0
M  V30 1400 O 129.482 -1.75409 1.26731 0
M  V30 1401 C 130.077 0.929335 3.25805 0
M  V30 1402 C 128.636 0.640006 3.70919 0
M  V30 1403 C 127.783 1.12784 2.53328 0
M  V30 1404 H 130.734 1.04389 1.19535 0
M  V30 1405 H 130.755 0.246633 3.797 0
M  V30 1406 H 130.267 2.00821 3.32103 0
M  V30 1407 H 128.368 -0.428051 3.70133 0
M  V30 1408 H 128.481 1.20788 4.63624 0
M  V30 1409 H 126.845 0.548033 2.48734 0
M  V30 1410 H 127.628 2.21387 2.62379 0
M  V30 1411 N 130.073 -1.45103 0.615059 0
M  V30 1412 C 131.319 -2.02483 0.113347 0
M  V30 1413 C 131.652 -1.48146 -1.25564 0
M  V30 1414 O 130.927 -0.659104 -1.82992 0
M  V30 1415 C 131.21 -3.60005 0.0825278 0
M  V30 1416 C 131.063 -4.2466 1.48271 0
M  V30 1417 C 132.382 -4.35972 -0.601401 0
M  V30 1418 H 129.501 -0.735764 0.0426632 0
M  V30 1419 H 132.143 -1.72868 0.788461 0
M  V30 1420 H 130.293 -3.85367 -0.492378 0
M  V30 1421 H 131.965 -4.10458 2.10527 0
M  V30 1422 H 130.208 -3.82772 2.04127 0
M  V30 1423 H 130.879 -5.336 1.41332 0
M  V30 1424 H 133.355 -4.15947 -0.112666 0
M  V30 1425 H 132.231 -5.45697 -0.592097 0
M  V30 1426 H 132.492 -4.09391 -1.66887 0
M  V30 1427 N 131.551 -0.354651 -1.53558 0
M  V30 1428 C 132.461 0.50515 -2.29097 0
M  V30 1429 C 133.477 1.10223 -1.34636 0
M  V30 1430 O 134.653 1.11553 -1.67684 0
M  V30 1431 C 131.718 1.63479 -3.05738 0
M  V30 1432 C 130.779 1.06636 -4.15845 0
M  V30 1433 C 130.012 2.14217 -4.88822 0
M  V30 1434 O 130.235 3.35137 -4.61562 0
M  V30 1435 O 129.169 1.77887 -5.75013 0
M  V30 1436 H 132.995 -0.109237 -3.03503 0
M  V30 1437 H 130.58 -0.119357 -1.48922 0
M  V30 1438 H 132.462 2.2918 -3.5363 0
M  V30 1439 H 131.137 2.23478 -2.34178 0
M  V30 1440 H 130.044 0.373565 -3.7223 0
M  V30 1441 H 131.377 0.511081 -4.89539 0
M  V30 1442 N 133.029 1.57378 -0.0835403 0
M  V30 1443 C 134.275 1.94217 0.583733 0
M  V30 1444 C 134.608 0.964653 1.68547 0
M  V30 1445 O 133.883 -0.00422258 1.945 0
M  V30 1446 C 134.166 3.41253 1.14972 0
M  V30 1447 C 134.019 4.49768 0.0538277 0
M  V30 1448 C 135.338 3.89352 2.05166 0
M  V30 1449 H 132.457 0.706233 0.210724 0
M  V30 1450 H 135.099 1.89392 -0.1519 0
M  V30 1451 H 133.249 3.45496 1.77665 0
M  V30 1452 H 134.921 4.57641 -0.579851 0
M  V30 1453 H 133.164 4.29432 -0.614068 0
M  V30 1454 H 133.835 5.49817 0.490452 0
M  V30 1455 H 136.311 3.87189 1.52393 0
M  V30 1456 H 135.187 4.92822 2.41698 0
M  V30 1457 H 135.448 3.27973 2.96456 0
M  V30 1458 N 134.507 -0.190092 1.56449 0
M  V30 1459 C 135.923 -0.54113 1.50146 0
M  V30 1460 C 136.123 -1.85603 0.784465 0
M  V30 1461 O 135.179 -2.5024 0.337051 0
M  V30 1462 C 136.492 -0.591241 2.9483 0
M  V30 1463 C 138.04 -0.679732 3.0553 0
M  V30 1464 C 138.515 -0.760908 4.51635 0
M  V30 1465 N 140.006 -0.824302 4.55806 0
M  V30 1466 C 140.741 -0.907365 5.66175 0
M  V30 1467 N 140.237 -0.952422 6.86222 0
M  V30 1468 N 142.03 -0.94494 5.541 0
M  V30 1469 H 134.181 0.67235 2.01478 0
M  V30 1470 H 136.444 0.240127 0.917084 0
M  V30 1471 H 136.15 0.305905 3.50367 0
M  V30 1472 H 136.024 -1.44422 3.48457 0
M  V30 1473 H 138.411 -1.56731 2.50039 0
M  V30 1474 H 138.492 0.199549 2.5502 0
M  V30 1475 H 138.136 0.122336 5.07753 0
M  V30 1476 H 138.066 -1.65606 4.99882 0
M  V30 1477 H 140.557 -0.798526 3.69367 0
M  V30 1478 H 140.87 -1.01645 7.66086 0
M  V30 1479 H 139.215 -0.921014 6.8887 0
M  V30 1480 H 142.406 -0.906612 4.59236 0
M  V30 1481 H 142.579 -1.00622 6.4014 0
M  V30 1482 N 135.985 -1.50799 -0.457987 0
M  V30 1483 C 137.396 -1.55152 -1.0385 0
M  V30 1484 C 137.747 -0.362719 -1.92818 0
M  V30 1485 O 136.872 0.522915 -2.09987 0
M  V30 1486 C 137.467 -2.81173 -1.89017 0
M  V30 1487 C 136.026 -2.88164 -2.42154 0
M  V30 1488 C 135.173 -2.49591 -1.20829 0
M  V30 1489 H 138.124 -1.56874 -0.240068 0
M  V30 1490 H 138.145 -2.63769 -2.74238 0
M  V30 1491 H 137.657 -3.67677 -1.24238 0
M  V30 1492 H 135.758 -2.06042 -3.10447 0
M  V30 1493 H 135.871 -3.91356 -2.76364 0
M  V30 1494 H 134.235 -2.02322 -1.54719 0
M  V30 1495 H 135.018 -3.38418 -0.576927 0
M  V30 1496 N 137.463 0.71206 -1.40597 0
M  V30 1497 C 138.709 1.47416 -1.39271 0
M  V30 1498 C 139.042 1.942 0.00388791 0
M  V30 1499 O 138.317 1.68403 0.973179 0
M  V30 1500 C 138.6 2.69774 -2.38525 0
M  V30 1501 C 138.453 2.28861 -3.87224 0
M  V30 1502 C 139.772 3.71939 -2.35264 0
M  V30 1503 H 136.891 0.534713 -0.5072 0
M  V30 1504 H 139.533 0.812375 -1.71757 0
M  V30 1505 H 137.683 3.26238 -2.10953 0
M  V30 1506 H 139.355 1.77852 -4.25636 0
M  V30 1507 H 137.598 1.60824 -4.02887 0
M  V30 1508 H 138.269 3.16584 -4.52193 0
M  V30 1509 H 140.745 3.25113 -2.59694 0
M  V30 1510 H 139.621 4.55186 -3.06753 0
M  V30 1511 H 139.882 4.20484 -1.36549 0
M  V30 1512 N 138.941 1.26152 0.944643 0
M  V30 1513 C 140.357 1.03189 1.21754 0
M  V30 1514 C 140.557 -0.245112 2.00004 0
M  V30 1515 O 139.613 -0.955176 2.33736 0
M  V30 1516 C 140.926 2.26119 1.98219 0
M  V30 1517 C 142.474 2.30984 2.11224 0
M  V30 1518 C 142.949 3.53597 2.91089 0
M  V30 1519 N 144.44 3.54053 2.98664 0
M  V30 1520 C 145.175 4.45593 3.60881 0
M  V30 1521 N 144.671 5.47416 4.24626 0
M  V30 1522 N 146.464 4.33252 3.58119 0
M  V30 1523 H 138.615 2.08177 0.421437 0
M  V30 1524 H 140.878 0.914723 0.248969 0
M  V30 1525 H 140.584 3.18984 1.48128 0
M  V30 1526 H 140.458 2.3009 2.98895 0
M  V30 1527 H 142.845 1.38635 2.60508 0
M  V30 1528 H 142.926 2.31026 1.09821 0
M  V30 1529 H 142.57 4.46273 2.42493 0
M  V30 1530 H 142.5 3.50802 3.92741 0
M  V30 1531 H 144.991 2.80403 2.53343 0
M  V30 1532 H 145.304 6.13459 4.69987 0
M  V30 1533 H 143.649 5.51278 4.23223 0
M  V30 1534 H 146.84 3.52924 3.0751 0
M  V30 1535 H 147.013 5.04786 4.06319 0
M  V30 1536 N 140.419 -1.14872 1.07899 0
M  V30 1537 C 141.835 -1.37776 0.805606 0
M  V30 1538 C 142.035 -1.92743 -0.587555 0
M  V30 1539 O 141.091 -2.13678 -1.34528 0
M  V30 1540 C 142.404 -2.34361 1.88402 0
M  V30 1541 C 143.952 -2.48012 1.90942 0
M  V30 1542 C 144.427 -3.47893 2.97883 0
M  V30 1543 N 145.918 -3.55433 2.97021 0
M  V30 1544 C 146.653 -4.32553 3.76412 0
M  V30 1545 N 146.149 -5.12959 4.65666 0
M  V30 1546 N 147.942 -4.27697 3.64735 0
M  V30 1547 H 140.093 -0.775365 1.97742 0
M  V30 1548 H 142.356 -0.403521 0.857831 0
M  V30 1549 H 142.062 -2.01098 2.88535 0
M  V30 1550 H 141.936 -3.34206 1.74889 0
M  V30 1551 H 144.323 -2.8057 0.914579 0
M  V30 1552 H 144.404 -1.48147 2.08534 0
M  V30 1553 H 144.048 -3.16069 3.97571 0
M  V30 1554 H 143.978 -4.47527 2.77538 0
M  V30 1555 H 146.469 -2.98048 2.32326 0
M  V30 1556 H 146.782 -5.69065 5.22862 0
M  V30 1557 H 145.127 -5.12245 4.69712 0
M  V30 1558 H 148.318 -3.63949 2.94378 0
M  V30 1559 H 148.491 -4.8755 4.26848 0
M  V30 1560 N 141.898 -0.863906 -1.31812 0
M  V30 1561 C 142.846 -0.30422 -2.30602 0
M  V30 1562 C 143.84 0.577419 -1.59255 0
M  V30 1563 O 145.046 0.464194 -1.73912 0
M  V30 1564 H 141.421 -0.0796877 -0.747766 0
M  V30 1565 H 143.392 -1.15148 -2.75288 0
M  V30 1566 C 142.141 0.484617 -3.44306 0
M  V30 1567 H 141.464 -0.18451 -3.99374 0
M  V30 1568 H 142.904 0.841664 -4.15562 0
M  V30 1569 C 141.363 1.6735 -2.92396 0
M  V30 1570 O 141.893 2.77273 -2.90659 0
M  V30 1571 N 140.099 1.50362 -2.48676 0
M  V30 1572 H 139.646 0.609402 -2.50288 0
M  V30 1573 H 139.604 2.30051 -2.14299 0
M  V30 1574 N 143.376 1.44774 -0.622745 0
M  V30 1575 C 144.339 2.29069 0.0774015 0
M  V30 1576 C 145.339 1.4059 0.780461 0
M  V30 1577 O 146.529 1.62551 0.626322 0
M  V30 1578 C 143.661 3.21974 1.12006 0
M  V30 1579 H 144.854 2.92459 -0.663901 0
M  V30 1580 H 142.407 1.51548 -0.382486 0
M  V30 1581 H 143.142 2.63417 1.89162 0
M  V30 1582 H 142.927 3.87168 0.619951 0
M  V30 1583 H 144.417 3.85318 1.60995 0
M  V30 1584 N 144.854 0.36279 1.53368 0
M  V30 1585 C 145.784 -0.476976 2.28576 0
M  V30 1586 C 146.765 -1.08631 1.30894 0
M  V30 1587 O 147.95 -1.10409 1.59761 0
M  V30 1588 C 145.08 -1.61828 3.07293 0
M  V30 1589 C 144.034 -1.13633 4.1264 0
M  V30 1590 C 143.36 -2.36766 4.79423 0
M  V30 1591 C 144.66 -0.223061 5.21823 0
M  V30 1592 H 146.354 0.150474 2.99022 0
M  V30 1593 H 143.9 0.0738103 1.43811 0
M  V30 1594 H 145.853 -2.21237 3.58653 0
M  V30 1595 H 144.577 -2.27292 2.34533 0
M  V30 1596 H 143.236 -0.564945 3.62221 0
M  V30 1597 H 142.884 -3.0068 4.03238 0
M  V30 1598 H 142.584 -2.05192 5.50609 0
M  V30 1599 H 144.108 -2.96865 5.33576 0
M  V30 1600 H 145.522 -0.724545 5.68703 0
M  V30 1601 H 143.919 0.001678 6.001 0
M  V30 1602 H 144.989 0.735553 4.79289 0
M  V30 1603 N 146.332 -1.57332 0.0918853 0
M  V30 1604 C 147.295 -2.12708 -0.85369 0
M  V30 1605 C 148.295 -1.05561 -1.213 0
M  V30 1606 O 149.485 -1.31461 -1.14296 0
M  V30 1607 C 146.617 -2.64503 -2.15061 0
M  V30 1608 H 147.81 -2.97573 -0.3729 0
M  V30 1609 H 145.363 -1.55509 -0.157072 0
M  V30 1610 H 146.098 -1.83149 -2.67632 0
M  V30 1611 H 145.883 -3.4284 -1.90272 0
M  V30 1612 H 147.373 -3.07351 -2.82711 0
M  V30 1613 N 147.81 0.181792 -1.56548 0
M  V30 1614 C 148.743 1.25366 -1.90679 0
M  V30 1615 C 149.721 1.43299 -0.768376 0
M  V30 1616 O 150.905 1.58475 -1.02068 0
M  V30 1617 C 148.032 2.61826 -2.1486 0
M  V30 1618 C 147.078 2.60688 -3.37556 0
M  V30 1619 S 147.911 2.10804 -4.92262 0
M  V30 1620 C 149.067 3.49062 -5.19525 0
M  V30 1621 H 149.3 0.962277 -2.81296 0
M  V30 1622 H 146.833 0.385892 -1.495 0
M  V30 1623 H 148.791 3.40371 -2.29473 0
M  V30 1624 H 147.452 2.88169 -1.24969 0
M  V30 1625 H 146.645 3.61058 -3.51643 0
M  V30 1626 H 146.247 1.90232 -3.22006 0
M  V30 1627 H 148.539 4.45003 -5.10861 0
M  V30 1628 H 149.482 3.39859 -6.2121 0
M  V30 1629 H 149.89 3.4459 -4.47122 0
M  V30 1630 N 149.288 1.51039 0.449983 0
M  V30 1631 C 150.704 1.38934 0.785462 0
M  V30 1632 C 150.904 0.461817 1.96136 0
M  V30 1633 O 149.96 -0.0877389 2.52348 0
M  V30 1634 C 151.273 2.80724 1.0777 0
M  V30 1635 C 152.821 2.89787 1.1829 0
M  V30 1636 C 153.296 4.32457 1.50815 0
M  V30 1637 N 154.787 4.35505 1.57764 0
M  V30 1638 C 155.522 5.42914 1.84477 0
M  V30 1639 N 155.018 6.60502 2.09068 0
M  V30 1640 N 156.811 5.3038 1.86155 0
M  V30 1641 H 148.962 2.09904 -0.324647 0
M  V30 1642 H 151.225 0.944378 -0.0827957 0
M  V30 1643 H 150.931 3.50531 0.286498 0
M  V30 1644 H 150.805 3.19273 2.00859 0
M  V30 1645 H 153.192 2.20186 1.96474 0
M  V30 1646 H 153.273 2.54752 0.231314 0
M  V30 1647 H 152.917 5.02603 0.731622 0
M  V30 1648 H 152.847 4.64995 2.47158 0
M  V30 1649 H 155.338 3.50724 1.40715 0
M  V30 1650 H 155.651 7.38158 2.28785 0
M  V30 1651 H 153.996 6.63639 2.06416 0
M  V30 1652 H 157.187 4.37505 1.66454 0
M  V30 1653 H 157.36 6.1417 2.06637 0
M  V30 1654 N 150.766 -0.704594 1.40972 0
M  V30 1655 C 152.012 -1.46546 1.41053 0
M  V30 1656 C 152.367 -1.92393 0.0159714 0
M  V30 1657 O 151.66 -1.66017 -0.956506 0
M  V30 1658 C 151.854 -2.698 2.34399 0
M  V30 1659 C 151.683 -2.36008 3.82793 0
M  V30 1660 C 150.453 -2.26812 4.51536 0
M  V30 1661 C 152.651 -1.99565 4.74003 0
M  V30 1662 N 150.633 -1.8581 5.85105 0
M  V30 1663 C 152.004 -1.69251 5.96451 0
M  V30 1664 C 154.059 -1.86296 4.61734 0
M  V30 1665 C 152.762 -1.27003 7.07999 0
M  V30 1666 C 154.788 -1.45452 5.73234 0
M  V30 1667 C 154.15 -1.16043 6.94776 0
M  V30 1668 H 150.249 -0.533896 0.571383 0
M  V30 1669 H 152.833 -0.816061 1.76773 0
M  V30 1670 H 151.004 -3.32473 2.00789 0
M  V30 1671 H 152.736 -3.36214 2.25261 0
M  V30 1672 H 149.491 -2.44913 4.05357 0
M  V30 1673 H 149.915 -1.67817 6.55871 0
M  V30 1674 H 154.557 -2.0769 3.68273 0
M  V30 1675 H 152.275 -1.04353 8.01334 0
M  V30 1676 H 155.861 -1.35748 5.65742 0
M  V30 1677 H 154.741 -0.84915 7.79589 0
M  V30 1678 N 152.244 -1.26651 -0.937939 0
M  V30 1679 C 153.493 -1.11775 -1.67897 0
M  V30 1680 C 153.806 0.33794 -1.92659 0
M  V30 1681 O 155.012 0.607434 -2.64618 0
M  V30 1682 C 153.468 -1.9523 -3.02346 0
M  V30 1683 C 153.076 -3.45393 -2.8532 0
M  V30 1684 C 154.82 -1.88972 -3.80118 0
M  V30 1685 C 152.727 -4.21083 -4.15263 0
M  V30 1686 H 151.657 -0.414696 -0.629717 0
M  V30 1687 H 154.308 -1.50988 -1.04283 0
M  V30 1688 H 152.69 -1.48853 -3.66959 0
M  V30 1689 H 153.864 -3.99561 -2.29537 0
M  V30 1690 H 152.179 -3.52921 -2.20988 0
M  V30 1691 H 154.776 -2.42805 -4.76392 0
M  V30 1692 H 155.119 -0.86113 -4.07296 0
M  V30 1693 H 155.652 -2.33189 -3.22285 0
M  V30 1694 H 152.391 -5.24425 -3.93267 0
M  V30 1695 H 151.911 -3.71695 -4.70747 0
M  V30 1696 H 153.59 -4.29706 -4.83696 0
M  V30 1697 N 153.722 1.14298 -1.08507 0
M  V30 1698 C 154.968 1.85633 -0.816581 0
M  V30 1699 C 155.301 1.82784 0.656021 0
M  V30 1700 O 154.576 1.25926 1.48233 0
M  V30 1701 C 154.859 3.34223 -1.34041 0
M  V30 1702 C 154.712 3.45639 -2.87843 0
M  V30 1703 C 156.031 4.29356 -0.9665 0
M  V30 1704 H 153.15 0.67402 -0.298104 0
M  V30 1705 H 155.792 1.34214 -1.34487 0
M  V30 1706 H 153.942 3.78144 -0.89104 0
M  V30 1707 H 155.614 3.10498 -3.41158 0
M  V30 1708 H 153.857 2.86817 -3.25451 0
M  V30 1709 H 154.528 4.50089 -3.19569 0
M  V30 1710 H 157.004 3.93457 -1.35391 0
M  V30 1711 H 155.88 5.3178 -1.3602 0
M  V30 1712 H 156.141 4.41919 0.126362 0
M  V30 1713 N 155.201 0.870884 1.31352 0
M  V30 1714 C 156.111 0.330783 2.32256 0
M  V30 1715 C 157.127 -0.559767 1.6475 0
M  V30 1716 O 158.303 -0.456263 1.96164 0
M  V30 1717 C 155.368 -0.458137 3.4366 0
M  V30 1718 C 154.429 0.460482 4.26823 0
M  V30 1719 C 153.662 -0.290881 5.32907 0
M  V30 1720 O 153.885 -1.51885 5.49806 0
M  V30 1721 O 152.819 0.351732 6.00871 0
M  V30 1722 H 156.645 1.16718 2.80376 0
M  V30 1723 H 154.23 0.634285 1.35267 0
M  V30 1724 H 156.112 -0.905343 4.1156 0
M  V30 1725 H 154.787 -1.27106 2.97701 0
M  V30 1726 H 153.694 0.956207 3.61673 0
M  V30 1727 H 155.027 1.23903 4.7635 0
M  V30 1728 N 156.679 -1.44442 0.630414 0
M  V30 1729 C 157.642 -2.29107 -0.0652523 0
M  V30 1730 C 158.642 -1.41002 -0.772995 0
M  V30 1731 O 159.832 -1.62881 -0.617692 0
M  V30 1732 C 156.964 -3.22564 -1.10296 0
M  V30 1733 H 158.157 -2.92103 0.679401 0
M  V30 1734 H 155.71 -1.51343 0.390517 0
M  V30 1735 H 156.445 -2.64416 -1.87762 0
M  V30 1736 H 156.23 -3.87491 -0.59941 0
M  V30 1737 H 157.72 -3.86167 -1.5895 0
M  V30 1738 N 158.157 -0.370918 -1.53173 0
M  V30 1739 C 159.12 0.460778 -2.24521 0
M  V30 1740 C 160.12 1.00536 -1.25496 0
M  V30 1741 O 161.31 0.890266 -1.49733 0
M  V30 1742 C 158.442 1.64457 -2.98608 0
M  V30 1743 H 159.635 -0.163613 -2.99453 0
M  V30 1744 H 157.188 -0.122699 -1.55818 0
M  V30 1745 H 157.923 2.30691 -2.2793 0
M  V30 1746 H 157.708 1.26099 -3.7127 0
M  V30 1747 H 159.198 2.23384 -3.5283 0
M  V30 1748 N 159.635 1.57281 -0.100228 0
M  V30 1749 C 161.051 1.57527 0.256416 0
M  V30 1750 C 161.251 1.11173 1.68056 0
M  V30 1751 O 160.307 0.79053 2.39806 0
M  V30 1752 C 161.62 3.00673 0.0401747 0
M  V30 1753 C 163.168 3.12815 0.107528 0
M  V30 1754 C 163.643 4.57929 -0.0807834 0
M  V30 1755 N 165.134 4.63193 -0.0261207 0
M  V30 1756 C 165.869 5.73212 -0.146999 0
M  V30 1757 N 165.365 6.92047 -0.322999 0
M  V30 1758 N 167.158 5.62031 -0.0879044 0
M  V30 1759 H 159.309 1.85718 -1.03065 0
M  V30 1760 H 161.572 0.857446 -0.404339 0
M  V30 1761 H 161.278 3.38804 -0.943649 0
M  V30 1762 H 161.152 3.69042 0.780262 0
M  V30 1763 H 163.539 2.74554 1.08186 0
M  V30 1764 H 163.62 2.47028 -0.664134 0
M  V30 1765 H 163.264 4.96886 -1.05201 0
M  V30 1766 H 163.194 5.21783 0.710635 0
M  V30 1767 H 165.685 3.77748 0.107161 0
M  V30 1768 H 165.998 7.7173 -0.406608 0
M  V30 1769 H 164.343 6.94074 -0.358733 0
M  V30 1770 H 167.534 4.68075 0.048498 0
M  V30 1771 H 167.707 6.47734 -0.185557 0
M  V30 1772 N 161.113 -0.173488 1.56642 0
M  V30 1773 C 162.06 -1.21482 1.96242 0
M  V30 1774 C 163.03 -1.44104 0.826027 0
M  V30 1775 O 164.215 -1.5688 1.08597 0
M  V30 1776 C 161.355 -2.54964 2.32567 0
M  V30 1777 C 160.468 -2.39739 3.59373 0
M  V30 1778 C 159.603 -3.66072 3.84921 0
M  V30 1779 C 158.642 -3.45771 5.05083 0
M  V30 1780 N 157.779 -4.64169 5.26775 0
M  V30 1781 H 162.619 -0.870123 2.85014 0
M  V30 1782 H 160.156 -0.418245 1.41029 0
M  V30 1783 H 162.114 -3.32758 2.5165 0
M  V30 1784 H 160.744 -2.87433 1.46908 0
M  V30 1785 H 159.796 -1.53131 3.48217 0
M  V30 1786 H 161.108 -2.20683 4.47326 0
M  V30 1787 H 160.262 -4.52303 4.0436 0
M  V30 1788 H 159.001 -3.88105 2.9534 0
M  V30 1789 H 158.006 -2.57927 4.85545 0
M  V30 1790 H 159.231 -3.25163 5.96193 0
M  V30 1791 H 157.177 -4.86425 4.40144 0
M  V30 1792 H 157.094 -4.48019 6.08946 0
M  V30 1793 H 158.362 -5.51689 5.5069 0
M  V30 1794 N 162.591 -1.51276 -0.441967 0
M  V30 1795 C 164.007 -1.39349 -0.778083 0
M  V30 1796 C 164.207 -0.472212 -1.95889 0
M  V30 1797 O 163.263 0.0743551 -2.5239 0
M  V30 1798 C 164.576 -2.81292 -1.0628 0
M  V30 1799 C 166.124 -2.9041 -1.16751 0
M  V30 1800 C 166.599 -4.33251 -1.48519 0
M  V30 1801 N 168.09 -4.36336 -1.55453 0
M  V30 1802 C 168.825 -5.43885 -1.81596 0
M  V30 1803 N 168.321 -6.61601 -2.05562 0
M  V30 1804 N 170.114 -5.3136 -1.8334 0
M  V30 1805 H 162.265 -2.09729 0.335774 0
M  V30 1806 H 164.528 -0.943925 0.0878028 0
M  V30 1807 H 164.234 -3.50678 -0.267905 0
M  V30 1808 H 164.108 -3.20334 -1.99163 0
M  V30 1809 H 166.495 -2.21225 -1.95304 0
M  V30 1810 H 166.576 -2.54871 -0.217801 0
M  V30 1811 H 166.22 -5.02984 -0.704958 0
M  V30 1812 H 166.15 -4.66299 -2.44689 0
M  V30 1813 H 168.641 -3.51466 -1.38853 0
M  V30 1814 H 168.954 -7.39361 -2.24867 0
M  V30 1815 H 167.299 -6.64725 -2.02894 0
M  V30 1816 H 170.49 -4.38382 -1.64132 0
M  V30 1817 H 170.663 -6.15258 -2.03377 0
M  V30 1818 N 164.069 0.697108 -1.41344 0
M  V30 1819 C 165.317 1.45426 -1.40341 0
M  V30 1820 C 165.638 1.94996 -0.0128787 0
M  V30 1821 O 164.908 1.71599 0.945027 0
M  V30 1822 H 163.488 0.539594 -0.516573 0
M  V30 1823 H 166.15 0.825201 -1.76569 0
M  V30 1824 H 165.246 2.31817 -2.08967 0
M  V30 1825 N 165.547 1.27147 0.931209 0
M  V30 1826 C 166.824 1.0401 1.65654 0
M  V30 1827 C 167.204 -0.426297 2.06751 0
M  V30 1828 O 166.552 -1.40879 1.79904 0
M  V30 1829 C 166.762 1.99834 2.86125 0
M  V30 1830 C 168.11 2.29007 3.57549 0
M  V30 1831 O 169.134 1.97779 2.96246 0
M  V30 1832 O 167.993 2.82222 4.67989 0
M  V30 1833 H 165.087 0.396239 0.725895 0
M  V30 1834 H 167.633 1.38397 0.982056 0
M  V30 1835 H 166.405 2.98744 2.52721 0
M  V30 1836 H 166.028 1.65987 3.61295 0
M  V30 1837 N 167.025 -1.13721 1.09112 0
M  V30 1838 C 167.972 -2.19031 0.727591 0
M  V30 1839 C 168.942 -1.63555 -0.289656 0
M  V30 1840 O 170.127 -1.90023 -0.172026 0
M  V30 1841 C 167.267 -3.4477 0.15082 0
M  V30 1842 C 166.38 -4.14365 1.22172 0
M  V30 1843 C 165.515 -5.27709 0.608042 0
M  V30 1844 C 164.554 -5.89147 1.66047 0
M  V30 1845 N 163.691 -6.93929 1.06806 0
M  V30 1846 H 168.531 -2.49475 1.62991 0
M  V30 1847 H 166.068 -1.22499 0.81439 0
M  V30 1848 H 168.026 -4.16714 -0.201358 0
M  V30 1849 H 166.656 -3.14787 -0.714783 0
M  V30 1850 H 165.708 -3.40737 1.69122 0
M  V30 1851 H 167.02 -4.56114 2.01895 0
M  V30 1852 H 166.174 -6.06355 0.204523 0
M  V30 1853 H 164.913 -4.872 -0.220769 0
M  V30 1854 H 163.918 -5.09198 2.07357 0
M  V30 1855 H 165.143 -6.31729 2.49189 0
M  V30 1856 H 163.089 -6.55483 0.260476 0
M  V30 1857 H 163.006 -7.34202 1.8023 0
M  V30 1858 H 164.274 -7.76434 0.690644 0
M  V30 1859 N 168.503 -0.877838 -1.30888 0
M  V30 1860 C 169.728 -0.506629 -2.01117 0
M  V30 1861 C 170.153 0.895564 -1.65412 0
M  V30 1862 O 169.511 1.5923 -0.866922 0
M  V30 1863 C 169.559 -0.680223 -3.54126 0
M  V30 1864 O 168.663 0.277033 -4.11468 0
M  V30 1865 H 168.004 -0.200518 -0.633 0
M  V30 1866 H 170.534 -1.18342 -1.66902 0
M  V30 1867 H 170.544 -0.5765 -4.03907 0
M  V30 1868 H 169.219 -1.70261 -3.79452 0
M  V30 1869 H 167.796 0.127606 -3.72682 0
M  V30 1870 N 169.982 1.44106 -0.638065 0
M  V30 1871 C 170.915 2.27924 0.112161 0
M  V30 1872 C 171.893 1.38945 0.844574 0
M  V30 1873 O 173.077 1.68386 0.847248 0
M  V30 1874 C 170.204 3.18029 1.16512 0
M  V30 1875 C 169.25 4.23163 0.532458 0
M  V30 1876 S 170.083 5.31131 -0.682666 0
M  V30 1877 C 171.239 6.24805 0.37013 0
M  V30 1878 H 171.472 2.91205 -0.598887 0
M  V30 1879 H 169.005 1.48394 -0.426441 0
M  V30 1880 H 170.963 3.70492 1.76766 0
M  V30 1881 H 169.624 2.53955 1.8484 0
M  V30 1882 H 168.817 4.86252 1.32571 0
M  V30 1883 H 168.419 3.74 0.00437644 0
M  V30 1884 H 170.711 6.66042 1.24071 0
M  V30 1885 H 171.654 7.07741 -0.225349 0
M  V30 1886 H 172.062 5.60154 0.699141 0
M  V30 1887 N 171.46 0.379036 1.52974 0
M  V30 1888 C 172.423 -0.448865 2.24762 0
M  V30 1889 C 173.423 -0.998689 1.26027 0
M  V30 1890 O 174.613 -0.882313 1.50203 0
M  V30 1891 C 171.745 -1.62872 2.99476 0
M  V30 1892 H 172.938 0.179491 2.99362 0
M  V30 1893 H 170.491 0.13096 1.5575 0
M  V30 1894 H 171.226 -2.29479 2.29151 0
M  V30 1895 H 171.011 -1.24128 3.71934 0
M  V30 1896 H 172.501 -2.2151 3.5401 0
M  V30 1897 N 172.938 -1.57226 0.108567 0
M  V30 1898 C 173.868 -2.17778 -0.84232 0
M  V30 1899 C 174.849 -1.11487 -1.2847 0
M  V30 1900 O 176.034 -1.39681 -1.34918 0
M  V30 1901 C 173.164 -2.76888 -2.09644 0
M  V30 1902 C 172.118 -3.88669 -1.79221 0
M  V30 1903 C 171.444 -4.34541 -3.11574 0
M  V30 1904 C 172.744 -5.11251 -1.06864 0
M  V30 1905 H 174.438 -2.97489 -0.337774 0
M  V30 1906 H 171.984 -1.43097 -0.161025 0
M  V30 1907 H 173.937 -3.17904 -2.76614 0
M  V30 1908 H 172.661 -1.94451 -2.62405 0
M  V30 1909 H 171.32 -3.48213 -1.14644 0
M  V30 1910 H 170.968 -3.48977 -3.62249 0
M  V30 1911 H 170.668 -5.09914 -2.91996 0
M  V30 1912 H 172.192 -4.782 -3.7968 0
M  V30 1913 H 173.606 -5.49352 -1.63968 0
M  V30 1914 H 172.003 -5.9214 -0.974178 0
M  V30 1915 H 173.073 -4.8487 -0.0536168 0
M  V30 1916 N 174.416 0.165178 -1.56732 0
M  V30 1917 C 175.832 0.517174 -1.50988 0
M  V30 1918 C 176.032 1.84331 -0.813894 0
M  V30 1919 O 175.088 2.49672 -0.37682 0
M  V30 1920 C 176.401 0.544261 -2.95733 0
M  V30 1921 C 177.949 0.631039 -3.06573 0
M  V30 1922 C 178.424 0.68896 -4.52788 0
M  V30 1923 N 179.915 0.751683 -4.5706 0
M  V30 1924 C 180.65 0.817177 -5.67547 0
M  V30 1925 N 180.146 0.843129 -6.8765 0
M  V30 1926 N 181.939 0.856668 -5.55534 0
M  V30 1927 H 174.09 -0.704318 -2.00382 0
M  V30 1928 H 176.353 -0.254687 -0.913148 0
M  V30 1929 H 176.059 -0.361607 -3.49836 0
M  V30 1930 H 175.933 1.3886 -3.5071 0
M  V30 1931 H 178.32 1.52733 -2.52501 0
M  V30 1932 H 178.401 -0.240095 -2.54671 0
M  V30 1933 H 178.045 -0.2031 -5.07494 0
M  V30 1934 H 177.975 1.57633 -5.02454 0
M  V30 1935 H 180.466 0.739661 -3.70591 0
M  V30 1936 H 180.779 0.894448 -7.67606 0
M  V30 1937 H 179.124 0.811304 -6.90248 0
M  V30 1938 H 182.315 0.833437 -4.60621 0
M  V30 1939 H 182.488 0.904247 -6.4166 0
M  V30 1940 N 175.894 1.51508 0.433938 0
M  V30 1941 C 176.824 1.76016 1.53429 0
M  V30 1942 C 177.805 0.610112 1.58782 0
M  V30 1943 O 178.99 0.853177 1.74455 0
M  V30 1944 C 176.12 1.88831 2.9148 0
M  V30 1945 C 175.074 3.04288 3.00987 0
M  V30 1946 C 174.4 3.0229 4.4105 0
M  V30 1947 C 175.7 4.44193 2.74754 0
M  V30 1948 H 177.394 2.68152 1.33171 0
M  V30 1949 H 174.94 1.29035 0.639214 0
M  V30 1950 H 176.893 2.04559 3.6842 0
M  V30 1951 H 175.617 0.933455 3.12976 0
M  V30 1952 H 174.276 2.8827 2.26486 0
M  V30 1953 H 173.924 2.04576 4.59519 0
M  V30 1954 H 173.624 3.79822 4.4834 0
M  V30 1955 H 175.148 3.20116 5.1996 0
M  V30 1956 H 176.562 4.60544 3.41426 0
M  V30 1957 H 174.959 5.23457 2.9345 0
M  V30 1958 H 176.029 4.53996 1.70339 0
M  V30 1959 N 177.372 -0.689602 1.41712 0
M  V30 1960 C 178.335 -1.78521 1.43746 0
M  V30 1961 C 179.335 -1.57436 0.327191 0
M  V30 1962 O 180.525 -1.64 0.587348 0
M  V30 1963 C 177.657 -3.16971 1.25467 0
M  V30 1964 H 178.85 -1.78108 2.41283 0
M  V30 1965 H 176.403 -0.89781 1.27942 0
M  V30 1966 H 177.138 -3.23019 0.287948 0
M  V30 1967 H 176.923 -3.33678 2.05917 0
M  V30 1968 H 178.413 -3.96935 1.2974 0
M  V30 1969 N 178.85 -1.27639 -0.924453 0
M  V30 1970 C 179.798 -1.10485 -2.04685 0
M  V30 1971 C 180.792 -0.0270421 -1.69378 0
M  V30 1972 O 181.998 -0.185008 -1.79047 0
M  V30 1973 H 178.373 -0.340546 -0.670472 0
M  V30 1974 H 180.344 -2.05566 -2.16298 0
M  V30 1975 C 179.093 -0.772229 -3.39016 0
M  V30 1976 H 178.416 -1.59351 -3.66671 0
M  V30 1977 H 179.856 -0.692097 -4.18313 0
M  V30 1978 C 178.315 0.523554 -3.32807 0
M  V30 1979 O 178.845 1.55702 -3.70297 0
M  V30 1980 N 177.051 0.520363 -2.85903 0
M  V30 1981 H 176.598 -0.32107 -2.55591 0
M  V30 1982 H 176.556 1.38742 -2.82131 0
M  V30 1983 N 180.328 1.1314 -1.09713 0
M  V30 1984 C 181.238 2.22242 -0.751367 0
M  V30 1985 C 182.254 1.72224 0.247938 0
M  V30 1986 O 183.43 2.01205 0.0885463 0
M  V30 1987 C 180.495 3.46231 -0.180274 0
M  V30 1988 C 179.556 4.11125 -1.2359 0
M  V30 1989 C 178.789 5.29195 -0.691966 0
M  V30 1990 O 179.012 5.68342 0.48414 0
M  V30 1991 O 177.946 5.84214 -1.44838 0
M  V30 1992 H 181.772 2.54197 -1.66186 0
M  V30 1993 H 179.357 1.21331 -0.871735 0
M  V30 1994 H 181.239 4.21185 0.134739 0
M  V30 1995 H 179.914 3.1597 0.703185 0
M  V30 1996 H 178.821 3.37985 -1.60366 0
M  V30 1997 H 180.154 4.45524 -2.09211 0
M  V30 1998 N 181.806 0.884767 1.30421 0
M  V30 1999 C 182.736 0.367574 2.30589 0
M  V30 2000 C 183.717 -0.549464 1.60981 0
M  V30 2001 O 184.902 -0.46336 1.88591 0
M  V30 2002 C 182.032 -0.418944 3.44764 0
M  V30 2003 C 180.986 0.406316 4.26067 0
M  V30 2004 C 180.312 -0.506793 5.32293 0
M  V30 2005 C 181.612 1.64832 4.95608 0
M  V30 2006 H 183.306 1.20462 2.74097 0
M  V30 2007 H 180.852 0.580695 1.31772 0
M  V30 2008 H 182.805 -0.791395 4.13902 0
M  V30 2009 H 181.529 -1.28964 3.0006 0
M  V30 2010 H 180.188 0.760903 3.58617 0
M  V30 2011 H 179.836 -1.37519 4.83836 0
M  V30 2012 H 179.536 0.0415828 5.87585 0
M  V30 2013 H 181.06 -0.875764 6.04287 0
M  V30 2014 H 182.474 1.34646 5.57264 0
M  V30 2015 H 180.871 2.13688 5.60765 0
M  V30 2016 H 181.941 2.39284 4.21748 0
M  V30 2017 N 183.284 -1.43765 0.645699 0
M  V30 2018 C 184.509 -2.06767 0.161883 0
M  V30 2019 C 184.934 -1.48034 -1.16049 0
M  V30 2020 O 184.292 -0.587369 -1.71522 0
M  V30 2021 C 184.34 -3.60519 0.0762003 0
M  V30 2022 O 183.444 -4.00982 -0.963721 0
M  V30 2023 H 182.785 -0.657675 0.091429 0
M  V30 2024 H 185.315 -1.84397 0.886499 0
M  V30 2025 H 185.325 -4.07853 -0.109604 0
M  V30 2026 H 184 -4.02646 1.04157 0
M  V30 2027 H 182.577 -3.65253 -0.751312 0
M  V30 2028 N 184.763 -0.387143 -1.52771 0
M  V30 2029 C 186.04 0.253197 -1.93954 0
M  V30 2030 C 186.42 1.64545 -1.32243 0
M  V30 2031 O 185.768 2.23191 -0.489699 0
M  V30 2032 C 185.978 0.281722 -3.47861 0
M  V30 2033 C 187.326 0.511715 -4.21505 0
M  V30 2034 O 188.35 0.362023 -3.54356 0
M  V30 2035 O 187.209 0.804847 -5.40541 0
M  V30 2036 H 184.303 0.156845 -0.811991 0
M  V30 2037 H 186.849 -0.441494 -1.63856 0
M  V30 2038 H 185.621 -0.693571 -3.85104 0
M  V30 2039 H 185.244 1.02142 -3.84256 0
M  V30 2040 N 186.241 1.57166 -0.116904 0
M  V30 2041 C 187.204 2.14039 0.819742 0
M  V30 2042 C 188.204 1.07477 1.19605 0
M  V30 2043 O 189.394 1.33263 1.1219 0
M  V30 2044 C 186.526 2.67891 2.10826 0
M  V30 2045 H 187.719 2.98128 0.325511 0
M  V30 2046 H 185.272 1.55739 0.132312 0
M  V30 2047 H 186.007 1.87384 2.64685 0
M  V30 2048 H 185.792 3.45823 1.84793 0
M  V30 2049 H 187.282 3.11809 2.77785 0
M  V30 2050 N 187.719 -0.156864 1.56817 0
M  V30 2051 C 188.682 -1.17781 1.96622 0
M  V30 2052 C 189.682 -1.36401 0.851555 0
M  V30 2053 O 190.872 -1.33561 1.11836 0
M  V30 2054 C 188.004 -2.54008 2.27361 0
M  V30 2055 H 189.197 -0.836564 2.87996 0
M  V30 2056 H 186.75 -0.39985 1.51099 0
M  V30 2057 H 187.485 -2.9312 1.38748 0
M  V30 2058 H 187.27 -2.41856 3.08623 0
M  V30 2059 H 188.76 -3.27558 2.59029 0
M  V30 2060 N 189.197 -1.51736 -0.425897 0
M  V30 2061 C 190.107 -1.76738 -1.54275 0
M  V30 2062 C 191.123 -0.65211 -1.61318 0
M  V30 2063 O 192.299 -0.935654 -1.78346 0
M  V30 2064 C 189.364 -1.89755 -2.90162 0
M  V30 2065 C 188.425 -3.13633 -2.93143 0
M  V30 2066 C 187.658 -3.2602 -4.22548 0
M  V30 2067 O 187.881 -2.44067 -5.15546 0
M  V30 2068 O 186.815 -4.19071 -4.32046 0
M  V30 2069 H 190.641 -2.71502 -1.36089 0
M  V30 2070 H 188.226 -1.36376 -0.610069 0
M  V30 2071 H 190.108 -2.00236 -3.70788 0
M  V30 2072 H 188.783 -0.981785 -3.08452 0
M  V30 2073 H 187.69 -3.08622 -2.11431 0
M  V30 2074 H 189.023 -4.04936 -2.798 0
M  V30 2075 N 190.675 0.682077 -1.42076 0
M  V30 2076 C 191.623 1.81707 -1.45208 0
M  V30 2077 C 192.617 1.66183 -0.328591 0
M  V30 2078 O 193.823 1.7288 -0.501264 0
M  V30 2079 H 190.198 0.599014 -0.454628 0
M  V30 2080 H 192.169 1.76183 -2.40836 0
M  V30 2081 C 190.918 3.19816 -1.36428 0
M  V30 2082 H 190.241 3.32385 -2.22171 0
M  V30 2083 H 191.681 3.99272 -1.42681 0
M  V30 2084 C 190.14 3.36809 -0.078191 0
M  V30 2085 O 190.67 3.92124 0.87188 0
M  V30 2086 N 188.876 2.906 0.00229266 0
M  V30 2087 H 188.423 2.45772 -0.771616 0
M  V30 2088 H 188.381 3.02347 0.862179 0
M  V30 2089 N 192.153 1.28127 0.917671 0
M  V30 2090 C 193.1 1.11717 2.0196 0
M  V30 2091 C 194.07 0.0153929 1.66093 0
M  V30 2092 O 195.255 0.179596 1.89953 0
M  V30 2093 C 192.395 0.780927 3.36148 0
M  V30 2094 C 191.508 1.96135 3.84909 0
M  V30 2095 C 190.643 1.56609 5.0759 0
M  V30 2096 C 189.682 2.71339 5.48673 0
M  V30 2097 N 188.819 2.32332 6.62545 0
M  V30 2098 H 193.659 2.06003 2.15329 0
M  V30 2099 H 191.196 1.02535 1.05475 0
M  V30 2100 H 193.154 0.56675 4.13333 0
M  V30 2101 H 191.784 -0.124998 3.22558 0
M  V30 2102 H 190.836 2.28777 3.03916 0
M  V30 2103 H 192.148 2.82165 4.1132 0
M  V30 2104 H 191.302 1.31374 5.92305 0
M  V30 2105 H 190.041 0.677014 4.82978 0
M  V30 2106 H 189.046 2.97276 4.62501 0
M  V30 2107 H 190.271 3.60882 5.75274 0
M  V30 2108 H 188.217 1.45889 6.39572 0
M  V30 2109 H 188.134 3.11899 6.88662 0
M  V30 2110 H 189.402 2.10371 7.50576 0
M  V30 2111 N 193.631 -1.12557 1.10312 0
M  V30 2112 C 194.879 -1.83675 0.843091 0
M  V30 2113 C 195.2 -1.84435 -0.633131 0
M  V30 2114 O 194.47 -1.30657 -1.45964 0
M  V30 2115 H 193.05 -0.680138 0.308904 0
M  V30 2116 H 195.712 -1.36301 1.39313 0
M  V30 2117 H 194.808 -2.87908 1.2048 0
M  V30 2118 N 195.109 -0.891671 -1.2995 0
M  V30 2119 C 196.337 -0.52866 -2.00032 0
M  V30 2120 C 196.752 0.884574 -1.66795 0
M  V30 2121 O 196.109 1.5827 -0.908669 0
M  V30 2122 C 196.16 -0.701814 -3.54622 0
M  V30 2123 O 195.881 -2.05942 -3.86678 0
M  V30 2124 C 197.382 -0.342683 -4.41973 0
M  V30 2125 H 194.602 -0.203659 -0.639347 0
M  V30 2126 H 197.146 -1.19881 -1.65677 0
M  V30 2127 H 195.301 -0.0789468 -3.8732 0
M  V30 2128 H 195.715 -2.08291 -4.81368 0
M  V30 2129 H 197.189 -0.514709 -5.49595 0
M  V30 2130 H 197.666 0.71975 -4.33262 0
M  V30 2131 H 198.272 -0.942154 -4.14733 0
M  V30 2132 N 196.587 1.43421 -0.653314 0
M  V30 2133 C 197.55 2.29182 0.0287951 0
M  V30 2134 C 198.55 1.42213 0.750465 0
M  V30 2135 O 199.74 1.63843 0.591701 0
M  V30 2136 C 196.872 3.24278 1.05151 0
M  V30 2137 H 198.065 2.90985 -0.725786 0
M  V30 2138 H 195.618 1.50702 -0.414545 0
M  V30 2139 H 196.353 2.6737 1.83532 0
M  V30 2140 H 196.138 3.88396 0.537687 0
M  V30 2141 H 197.628 3.88647 1.52786 0
M  V30 2142 N 198.065 0.39524 1.52563 0
M  V30 2143 C 199.311 -0.185318 2.01952 0
M  V30 2144 C 199.644 -1.45964 1.28095 0
M  V30 2145 O 198.919 -1.90689 0.38315 0
M  V30 2146 C 199.202 -0.447193 3.57312 0
M  V30 2147 C 199.055 0.842828 4.41833 0
M  V30 2148 C 200.374 -1.23529 4.22408 0
M  V30 2149 H 197.493 -0.0658788 0.73405 0
M  V30 2150 H 200.135 0.525975 1.82575 0
M  V30 2151 H 198.285 -1.05312 3.73954 0
M  V30 2152 H 199.957 1.4795 4.36931 0
M  V30 2153 H 198.2 1.45686 4.08605 0
M  V30 2154 H 198.871 0.614165 5.48573 0
M  V30 2155 H 201.347 -0.722445 4.0978 0
M  V30 2156 H 200.223 -1.38727 5.3108 0
M  V30 2157 H 200.484 -2.25213 3.80436 0
M  V30 2158 N 199.544 -1.57102 0.125237 0
M  V30 2159 C 200.491 -2.15641 -0.822655 0
M  V30 2160 C 201.461 -1.08313 -1.25927 0
M  V30 2161 O 202.646 -1.36251 -1.33567 0
M  V30 2162 C 199.786 -2.76504 -2.06494 0
M  V30 2163 C 198.899 -3.98158 -1.67612 0
M  V30 2164 C 198.034 -4.47088 -2.86854 0
M  V30 2165 C 197.073 -5.6126 -2.44242 0
M  V30 2166 N 196.21 -6.04905 -3.56419 0
M  V30 2167 H 201.05 -2.96313 -0.316625 0
M  V30 2168 H 198.587 -1.46388 -0.144588 0
M  V30 2169 H 200.545 -3.09925 -2.79289 0
M  V30 2170 H 199.175 -1.98512 -2.54545 0
M  V30 2171 H 198.227 -3.70858 -0.846661 0
M  V30 2172 H 199.539 -4.80934 -1.32301 0
M  V30 2173 H 198.693 -4.82451 -3.67867 0
M  V30 2174 H 197.432 -3.63275 -3.25396 0
M  V30 2175 H 196.437 -5.25495 -1.61663 0
M  V30 2176 H 197.662 -6.46843 -2.0681 0
M  V30 2177 H 195.608 -5.24032 -3.94623 0
M  V30 2178 H 195.525 -6.82552 -3.25051 0
M  V30 2179 H 196.793 -6.44907 -4.37853 0
M  V30 2180 N 201.022 0.148545 -1.56898 0
M  V30 2181 C 201.969 1.18345 -1.98149 0
M  V30 2182 C 202.939 1.42772 -0.848848 0
M  V30 2183 O 204.124 1.55132 -1.11079 0
M  V30 2184 C 201.264 2.51231 -2.36594 0
M  V30 2185 C 200.377 2.33991 -3.63142 0
M  V30 2186 C 199.512 3.59902 -3.90697 0
M  V30 2187 C 198.551 3.37692 -5.1052 0
M  V30 2188 N 197.688 4.5573 -5.34092 0
M  V30 2189 H 202.528 0.82467 -2.86362 0
M  V30 2190 H 200.065 0.395756 -1.41676 0
M  V30 2191 H 202.023 3.28713 -2.56912 0
M  V30 2192 H 200.653 2.85059 -1.51463 0
M  V30 2193 H 199.705 1.47572 -3.50609 0
M  V30 2194 H 201.017 2.13539 -4.5078 0
M  V30 2195 H 200.171 4.45813 -4.11505 0
M  V30 2196 H 198.91 3.83357 -3.01477 0
M  V30 2197 H 197.915 2.5017 -4.89587 0
M  V30 2198 H 199.14 3.15637 -6.0129 0
M  V30 2199 H 197.086 4.79361 -4.47827 0
M  V30 2200 H 197.003 4.38274 -6.15996 0
M  V30 2201 H 198.271 5.42858 -5.59397 0
M  V30 2202 N 202.5 1.5196 0.417844 0
M  V30 2203 C 203.916 1.40569 0.755816 0
M  V30 2204 C 204.116 0.503316 1.95113 0
M  V30 2205 O 203.172 -0.0341925 2.52477 0
M  V30 2206 C 204.485 2.82947 1.01791 0
M  V30 2207 C 206.033 2.92231 1.12116 0
M  V30 2208 C 206.508 4.35559 1.41608 0
M  V30 2209 N 207.999 4.38753 1.48491 0
M  V30 2210 C 208.734 5.46705 1.7292 0
M  V30 2211 N 208.23 6.64788 1.95011 0
M  V30 2212 N 210.023 5.34209 1.74863 0
M  V30 2213 H 202.174 2.09168 -0.369098 0
M  V30 2214 H 204.437 0.942409 -0.102809 0
M  V30 2215 H 204.143 3.5106 0.212081 0
M  V30 2216 H 204.017 3.23462 1.94042 0
M  V30 2217 H 206.404 2.24304 1.9176 0
M  V30 2218 H 206.485 2.55185 0.177225 0
M  V30 2219 H 206.129 5.04042 0.624848 0
M  V30 2220 H 206.059 4.70133 2.37239 0
M  V30 2221 H 208.55 3.5363 1.33244 0
M  V30 2222 H 208.863 7.42845 2.13076 0
M  V30 2223 H 207.208 6.67869 1.92293 0
M  V30 2224 H 210.399 4.40937 1.57137 0
M  V30 2225 H 210.572 6.18415 1.93563 0
M  V30 2226 N 203.978 -0.674533 1.42435 0
M  V30 2227 C 204.888 -1.81751 1.48337 0
M  V30 2228 C 205.904 -1.69975 0.372099 0
M  V30 2229 O 207.08 -1.91521 0.62304 0
M  V30 2230 C 204.145 -3.17895 1.38361 0
M  V30 2231 C 203.206 -3.41625 2.59982 0
M  V30 2232 C 202.439 -4.71274 2.50473 0
M  V30 2233 O 202.662 -5.49197 1.54075 0
M  V30 2234 O 201.596 -4.96254 3.4061 0
M  V30 2235 H 205.422 -1.79728 2.44809 0
M  V30 2236 H 203.007 -0.830312 1.24202 0
M  V30 2237 H 204.889 -3.99136 1.35161 0
M  V30 2238 H 203.564 -3.20555 0.450144 0
M  V30 2239 H 202.471 -2.60231 2.68757 0
M  V30 2240 H 203.804 -3.43796 3.52229 0
M  V30 2241 N 205.456 -1.28612 -0.910864 0
M  V30 2242 C 206.733 -1.06632 -1.63979 0
M  V30 2243 C 207.113 0.393351 -2.07403 0
M  V30 2244 O 206.461 1.37999 -1.82122 0
M  V30 2245 C 206.671 -2.0436 -2.8291 0
M  V30 2246 C 208.019 -2.34666 -3.5386 0
M  V30 2247 O 209.043 -2.02467 -2.93062 0
M  V30 2248 O 207.902 -2.89631 -4.63439 0
M  V30 2249 H 204.996 -0.407737 -0.7195 0
M  V30 2250 H 207.542 -1.39942 -0.959914 0
M  V30 2251 H 206.314 -3.02727 -2.47936 0
M  V30 2252 H 205.937 -1.71714 -3.58609 0
M  V30 2253 N 206.934 1.1197 -1.10907 0
M  V30 2254 C 208.18 1.8386 -0.855773 0
M  V30 2255 C 208.513 1.84134 0.617103 0
M  V30 2256 O 207.788 1.29041 1.45529 0
M  V30 2257 C 208.071 3.31305 -1.411 0
M  V30 2258 C 207.924 3.39456 -2.9511 0
M  V30 2259 C 209.243 4.2721 -1.05736 0
M  V30 2260 H 206.362 0.667545 -0.312334 0
M  V30 2261 H 209.004 1.31331 -1.37303 0
M  V30 2262 H 207.154 3.76169 -0.97105 0
M  V30 2263 H 208.826 3.03191 -3.47668 0
M  V30 2264 H 207.069 2.79849 -3.31462 0
M  V30 2265 H 207.74 4.43209 -3.29044 0
M  V30 2266 H 210.216 3.90497 -1.43706 0
M  V30 2267 H 209.092 5.28775 -1.47269 0
M  V30 2268 H 209.353 4.42088 0.0325958 0
M  V30 2269 N 208.412 0.89855 1.29475 0
M  V30 2270 C 209.362 0.346767 2.25348 0
M  V30 2271 C 210.346 -0.532509 1.51833 0
M  V30 2272 O 211.538 -0.374714 1.72988 0
M  V30 2273 C 208.667 -0.425681 3.40651 0
M  V30 2274 C 207.753 0.46845 4.21505 0
M  V30 2275 N 208.144 1.57514 4.80648 0
M  V30 2276 C 206.442 0.26603 4.45206 0
M  V30 2277 C 207.143 2.12889 5.41344 0
M  V30 2278 N 206.119 1.42208 5.24669 0
M  V30 2279 H 209.921 1.19219 2.68634 0
M  V30 2280 H 207.435 0.749473 1.44072 0
M  V30 2281 H 209.432 -0.837716 4.08397 0
M  V30 2282 H 208.092 -1.26838 2.98902 0
M  V30 2283 H 209.103 1.95789 4.79465 0
M  V30 2284 H 205.78 -0.538394 4.14014 0
M  V30 2285 H 207.17 3.05901 5.98226 0
M  V30 2286 N 209.89 -1.43072 0.660911 0
M  V30 2287 C 211.306 -1.56169 0.329173 0
M  V30 2288 C 211.506 -1.64317 -1.16629 0
M  V30 2289 O 210.562 -1.60245 -1.95135 0
M  V30 2290 C 211.875 -2.81873 1.04729 0
M  V30 2291 C 213.423 -2.95627 1.02828 0
M  V30 2292 C 213.898 -4.24174 1.72744 0
M  V30 2293 N 215.389 -4.31055 1.69545 0
M  V30 2294 C 216.124 -5.29304 2.20511 0
M  V30 2295 N 215.62 -6.33786 2.79799 0
M  V30 2296 N 217.413 -5.21008 2.10966 0
M  V30 2297 H 209.564 -1.36027 1.63127 0
M  V30 2298 H 211.827 -0.653823 0.686454 0
M  V30 2299 H 211.533 -2.81942 2.10242 0
M  V30 2300 H 211.407 -3.72338 0.603702 0
M  V30 2301 H 213.794 -2.95094 -0.0184742 0
M  V30 2302 H 213.875 -2.06431 1.51063 0
M  V30 2303 H 213.519 -4.25467 2.7738 0
M  V30 2304 H 213.449 -5.1228 1.2197 0
M  V30 2305 H 215.94 -3.56174 1.26288 0
M  V30 2306 H 216.253 -7.05086 3.16344 0
M  V30 2307 H 214.598 -6.34387 2.83863 0
M  V30 2308 H 217.789 -4.38301 1.64347 0
M  V30 2309 H 217.962 -5.97416 2.50993 0
M  V30 2310 N 211.368 -0.403325 -1.52352 0
M  V30 2311 C 212.301 0.469463 -2.23319 0
M  V30 2312 C 213.279 1.05272 -1.23922 0
M  V30 2313 O 214.463 1.10169 -1.52954 0
M  V30 2314 C 211.59 1.6511 -2.9573 0
M  V30 2315 C 210.636 1.19178 -4.0951 0
M  V30 2316 S 211.469 0.161718 -5.35256 0
M  V30 2317 C 212.625 1.34882 -6.11194 0
M  V30 2318 H 212.858 -0.133134 -2.97002 0
M  V30 2319 H 210.391 -0.187588 -1.53256 0
M  V30 2320 H 212.349 2.3287 -3.38056 0
M  V30 2321 H 211.01 2.22503 -2.21701 0
M  V30 2322 H 210.203 2.07444 -4.59329 0
M  V30 2323 H 209.805 0.592911 -3.6927 0
M  V30 2324 H 212.097 2.27345 -6.38217 0
M  V30 2325 H 213.04 0.89128 -7.02468 0
M  V30 2326 H 213.448 1.57198 -5.42171 0
M  V30 2327 N 212.846 1.57033 -0.133567 0
M  V30 2328 C 213.809 2.14897 0.796995 0
M  V30 2329 C 214.809 1.0874 1.18458 0
M  V30 2330 O 215.999 1.34446 1.1077 0
M  V30 2331 C 213.131 2.70112 2.07973 0
M  V30 2332 H 214.324 2.98457 0.293873 0
M  V30 2333 H 211.877 1.55871 0.115787 0
M  V30 2334 H 212.612 1.9018 2.62682 0
M  V30 2335 H 212.397 3.47764 1.81115 0
M  V30 2336 H 213.887 3.14738 2.74462 0
M  V30 2337 N 214.325 -0.140222 1.56975 0
M  V30 2338 C 215.235 -1.19223 2.02047 0
M  V30 2339 C 216.251 -1.46612 0.937062 0
M  V30 2340 O 217.427 -1.58148 1.24704 0
M  V30 2341 C 214.492 -2.50414 2.39778 0
M  V30 2342 C 213.553 -2.30612 3.621 0
M  V30 2343 C 212.786 -3.55547 3.98023 0
M  V30 2344 O 213.009 -4.62004 3.34528 0
M  V30 2345 O 211.943 -3.47808 4.91237 0
M  V30 2346 H 215.769 -0.839559 2.91865 0
M  V30 2347 H 213.354 -0.349453 1.45256 0
M  V30 2348 H 215.236 -3.27747 2.64877 0
M  V30 2349 H 213.911 -2.85198 1.53114 0
M  V30 2350 H 212.818 -1.51207 3.4218 0
M  V30 2351 H 214.151 -2.00741 4.49404 0
M  V30 2352 N 215.803 -1.52179 -0.40978 0
M  V30 2353 C 216.766 -1.74853 -1.48186 0
M  V30 2354 C 217.766 -0.618417 -1.48433 0
M  V30 2355 O 218.956 -0.886286 -1.49969 0
M  V30 2356 C 216.088 -1.8303 -2.87598 0
M  V30 2357 H 217.281 -2.70559 -1.29374 0
M  V30 2358 H 214.834 -1.42586 -0.640233 0
M  V30 2359 H 215.569 -0.89236 -3.11781 0
M  V30 2360 H 215.354 -2.65187 -2.88822 0
M  V30 2361 H 216.844 -2.02316 -3.65319 0
M  V30 2362 N 217.281 0.66697 -1.42791 0
M  V30 2363 C 218.229 1.80157 -1.47127 0
M  V30 2364 C 219.223 1.65825 -0.346199 0
M  V30 2365 O 220.429 1.72338 -0.519572 0
M  V30 2366 H 216.804 0.594158 -0.460956 0
M  V30 2367 H 218.775 1.73619 -2.42692 0
M  V30 2368 C 217.524 3.18351 -1.39813 0
M  V30 2369 H 216.847 3.3001 -2.25684 0
M  V30 2370 H 218.287 3.97736 -1.46908 0
M  V30 2371 C 216.746 3.36707 -0.11391 0
M  V30 2372 O 217.276 3.93027 0.830241 0
M  V30 2373 N 215.482 2.90586 -0.0285295 0
M  V30 2374 H 215.029 2.4494 -0.79764 0
M  V30 2375 H 214.987 3.03245 0.830063 0
M  V30 2376 N 218.759 1.29093 0.90403 0
M  V30 2377 C 219.706 1.13853 2.00764 0
M  V30 2378 C 220.676 0.0330084 1.66067 0
M  V30 2379 O 221.861 0.199733 1.89752 0
M  V30 2380 C 219.001 0.816537 3.35301 0
M  V30 2381 C 218.114 2.00206 3.82807 0
M  V30 2382 C 217.249 1.61983 5.059 0
M  V30 2383 C 216.288 2.77143 5.45764 0
M  V30 2384 N 215.425 2.39346 6.60044 0
M  V30 2385 H 220.265 2.08276 2.13132 0
M  V30 2386 H 217.802 1.03648 1.04381 0
M  V30 2387 H 219.76 0.610557 4.12708 0
M  V30 2388 H 218.39 -0.090779 3.22672 0
M  V30 2389 H 217.442 2.31988 3.01473 0
M  V30 2390 H 218.754 2.86512 4.08304 0
M  V30 2391 H 217.908 1.37649 5.90879 0
M  V30 2392 H 216.647 0.728202 4.82233 0
M  V30 2393 H 215.652 3.02165 4.59322 0
M  V30 2394 H 216.877 3.66964 5.71414 0
M  V30 2395 H 214.823 1.52665 6.37989 0
M  V30 2396 H 214.74 3.19185 6.85315 0
M  V30 2397 H 216.008 2.1832 7.48303 0
M  V30 2398 N 220.237 -1.11381 1.11499 0
M  V30 2399 C 221.2 -2.15622 0.777153 0
M  V30 2400 C 222.2 -1.59504 -0.203779 0
M  V30 2401 O 223.39 -1.74188 0.020782 0
M  V30 2402 C 220.522 -3.40556 0.153116 0
M  V30 2403 H 221.715 -2.47021 1.70061 0
M  V30 2404 H 219.268 -1.26577 0.916952 0
M  V30 2405 H 220.003 -3.14767 -0.780536 0
M  V30 2406 H 219.788 -3.8257 0.859238 0
M  V30 2407 H 221.278 -4.17546 -0.0671044 0
M  V30 2408 N 221.715 -0.905404 -1.28997 0
M  V30 2409 C 222.962 -0.534248 -1.95325 0
M  V30 2410 C 223.29 0.920535 -1.71337 0
M  V30 2411 O 222.545 1.66861 -1.02254 0
M  V30 2412 C 222.844 -0.779906 -3.48787 0
M  V30 2413 C 222.51 -2.21293 -3.92861 0
M  V30 2414 C 221.172 -2.60475 -4.04606 0
M  V30 2415 C 223.524 -3.14587 -4.15553 0
M  V30 2416 C 220.852 -3.9212 -4.36416 0
M  V30 2417 C 223.204 -4.45787 -4.48839 0
M  V30 2418 C 221.868 -4.84834 -4.58794 0
M  V30 2419 H 221.138 -0.195495 -0.714747 0
M  V30 2420 H 223.785 -1.14514 -1.53488 0
M  V30 2421 H 222.09 -0.0861365 -3.91705 0
M  V30 2422 H 223.787 -0.472029 -3.98212 0
M  V30 2423 H 220.377 -1.89887 -3.84241 0
M  V30 2424 H 224.561 -2.85528 -4.0594 0
M  V30 2425 H 219.817 -4.22086 -4.42327 0
M  V30 2426 H 223.991 -5.18098 -4.65346 0
M  V30 2427 H 221.618 -5.86877 -4.83197 0
M  V30 2428 N 223.193 1.4272 -0.668489 0
M  V30 2429 C 224.156 2.292 0.00448567 0
M  V30 2430 C 225.156 1.43001 0.735339 0
M  V30 2431 O 226.346 1.64461 0.57429 0
M  V30 2432 C 223.478 3.25375 1.01705 0
M  V30 2433 H 224.671 2.90199 -0.756608 0
M  V30 2434 H 222.224 1.50254 -0.430506 0
M  V30 2435 H 222.959 2.69301 1.80686 0
M  V30 2436 H 222.744 3.88944 0.496463 0
M  V30 2437 H 224.234 3.90245 1.48655 0
M  V30 2438 N 224.671 0.411399 1.52136 0
M  V30 2439 C 225.621 -0.430376 2.23901 0
M  V30 2440 C 226.605 -1.0116 1.25121 0
M  V30 2441 O 227.797 -0.934044 1.50348 0
M  V30 2442 C 224.926 -1.54527 3.06556 0
M  V30 2443 C 224.012 -0.9747 4.12747 0
M  V30 2444 N 224.403 -0.130991 5.0563 0
M  V30 2445 C 222.701 -1.24497 4.28271 0
M  V30 2446 C 223.402 0.186689 5.814 0
M  V30 2447 N 222.378 -0.42304 5.41951 0
M  V30 2448 H 226.18 0.220509 2.93072 0
M  V30 2449 H 223.694 0.221952 1.60876 0
M  V30 2450 H 225.691 -2.16093 3.56524 0
M  V30 2451 H 224.351 -2.19875 2.38925 0
M  V30 2452 H 225.362 0.23349 5.17373 0
M  V30 2453 H 222.039 -1.89787 3.7187 0
M  V30 2454 H 223.429 0.871673 6.66222 0
M  V30 2455 N 226.149 -1.5696 0.141893 0
M  V30 2456 C 227.379 -2.00031 -0.516828 0
M  V30 2457 C 227.787 -1.02091 -1.59293 0
M  V30 2458 O 227.13 -0.00909657 -1.83698 0
M  V30 2459 C 227.192 -3.39534 -1.1814 0
M  V30 2460 C 226.856 -4.56313 -0.250513 0
M  V30 2461 C 227.853 -5.17295 0.519839 0
M  V30 2462 C 225.538 -5.02061 -0.154907 0
M  V30 2463 C 227.532 -6.2243 1.3733 0
M  V30 2464 C 225.219 -6.07053 0.702161 0
M  V30 2465 C 226.217 -6.67106 1.46487 0
M  V30 2466 O 225.905 -7.70066 2.30767 0
M  V30 2467 H 225.637 -0.661451 -0.139493 0
M  V30 2468 H 228.191 -2.04086 0.231926 0
M  V30 2469 H 226.421 -3.32302 -1.97769 0
M  V30 2470 H 228.11 -3.66745 -1.73933 0
M  V30 2471 H 228.876 -4.82852 0.45598 0
M  V30 2472 H 224.755 -4.5505 -0.7383 0
M  V30 2473 H 228.299 -6.69233 1.96909 0
M  V30 2474 H 224.196 -6.40923 0.76733 0
M  V30 2475 H 224.964 -7.87264 2.23959 0
M  V30 2476 N 227.627 0.131896 -1.57047 0
M  V30 2477 C 229.043 0.485031 -1.52051 0
M  V30 2478 C 229.243 1.82563 -0.85281 0
M  V30 2479 O 228.299 2.48817 -0.429694 0
M  V30 2480 C 229.612 0.481409 -2.96821 0
M  V30 2481 C 231.16 0.565868 -3.07842 0
M  V30 2482 C 231.635 0.592762 -4.54148 0
M  V30 2483 N 233.126 0.654564 -4.58552 0
M  V30 2484 C 233.861 0.696608 -5.69153 0
M  V30 2485 N 233.357 0.697078 -6.89284 0
M  V30 2486 N 235.15 0.738639 -5.57226 0
M  V30 2487 H 227.301 -0.746664 -1.98843 0
M  V30 2488 H 229.564 -0.273999 -0.90754 0
M  V30 2489 H 229.27 -0.435731 -3.4899 0
M  V30 2490 H 229.144 1.3139 -3.53577 0
M  V30 2491 H 231.531 1.47343 -2.55684 0
M  V30 2492 H 231.612 -0.29406 -2.54104 0
M  V30 2493 H 231.256 -0.310701 -5.06949 0
M  V30 2494 H 231.186 1.46939 -5.05684 0
M  V30 2495 H 233.677 0.660887 -3.72076 0
M  V30 2496 H 233.99 0.731426 -7.69331 0
M  V30 2497 H 232.335 0.66471 -6.91814 0
M  V30 2498 H 235.526 0.735545 -4.62285 0
M  V30 2499 H 235.699 0.767938 -6.43434 0
M  V30 2500 N 229.106 1.52395 0.401703 0
M  V30 2501 C 230.352 1.68019 1.14635 0
M  V30 2502 C 230.707 0.408722 1.88009 0
M  V30 2503 O 230 -0.597133 1.82057 0
M  V30 2504 C 230.194 2.84578 2.16217 0
M  V30 2505 C 230.023 4.22938 1.5282 0
M  V30 2506 C 228.793 4.88352 1.29772 0
M  V30 2507 C 230.991 5.04778 0.985094 0
M  V30 2508 N 228.973 6.10726 0.623455 0
M  V30 2509 C 230.344 6.1845 0.438172 0
M  V30 2510 C 232.399 4.90057 0.880275 0
M  V30 2511 C 231.102 7.19013 -0.203306 0
M  V30 2512 C 233.128 5.9086 0.252639 0
M  V30 2513 C 232.49 7.03829 -0.283573 0
M  V30 2514 H 228.589 0.668413 0.405892 0
M  V30 2515 H 231.173 1.89717 0.437674 0
M  V30 2516 H 229.344 2.64483 2.84435 0
M  V30 2517 H 231.076 2.89202 2.83098 0
M  V30 2518 H 227.831 4.46846 1.56926 0
M  V30 2519 H 228.255 6.76323 0.302733 0
M  V30 2520 H 232.897 4.02938 1.28065 0
M  V30 2521 H 230.615 8.05751 -0.615726 0
M  V30 2522 H 234.201 5.81543 0.172954 0
M  V30 2523 H 233.081 7.80493 -0.761575 0
M  V30 2524 N 230.584 -0.659388 1.43143 0
M  V30 2525 C 231.514 -1.78422 1.50625 0
M  V30 2526 C 232.495 -1.66216 0.361443 0
M  V30 2527 O 233.68 -1.85404 0.577834 0
M  V30 2528 C 230.81 -3.16815 1.42287 0
M  V30 2529 C 229.764 -3.43777 2.54954 0
M  V30 2530 C 229.09 -4.81905 2.31671 0
M  V30 2531 C 230.39 -3.39134 3.97222 0
M  V30 2532 H 232.084 -1.72417 2.44771 0
M  V30 2533 H 229.63 -0.828084 1.17808 0
M  V30 2534 H 231.583 -3.95253 1.46127 0
M  V30 2535 H 230.307 -3.23534 0.446435 0
M  V30 2536 H 228.966 -2.67707 2.50457 0
M  V30 2537 H 228.614 -4.85294 1.32284 0
M  V30 2538 H 228.314 -5.00906 3.07192 0
M  V30 2539 H 229.838 -5.62609 2.37284 0
M  V30 2540 H 231.252 -4.07518 4.03239 0
M  V30 2541 H 229.649 -3.69671 4.72719 0
M  V30 2542 H 230.719 -2.37426 4.22797 0
M  V30 2543 N 232.062 -1.29571 -0.897171 0
M  V30 2544 C 233.287 -1.20705 -1.68656 0
M  V30 2545 C 233.712 0.228582 -1.86706 0
M  V30 2546 O 233.07 1.16494 -1.3892 0
M  V30 2547 C 233.118 -1.9282 -3.04717 0
M  V30 2548 O 232.222 -1.24697 -3.93096 0
M  V30 2549 H 231.563 -0.418126 -0.515816 0
M  V30 2550 H 234.093 -1.71183 -1.12061 0
M  V30 2551 H 234.103 -2.01372 -3.54843 0
M  V30 2552 H 232.778 -2.97239 -2.90899 0
M  V30 2553 H 231.355 -1.2442 -3.51531 0
M  V30 2554 N 233.54 1.10788 -1.12088 0
M  V30 2555 C 234.47 2.19083 -0.807755 0
M  V30 2556 C 235.451 1.6858 0.226859 0
M  V30 2557 O 236.636 1.93997 0.0888475 0
M  V30 2558 C 233.766 3.46344 -0.257576 0
M  V30 2559 C 232.72 4.101 -1.22483 0
M  V30 2560 C 232.046 5.32016 -0.535052 0
M  V30 2561 C 233.346 4.54236 -2.57811 0
M  V30 2562 H 235.04 2.45534 -1.71328 0
M  V30 2563 H 232.586 1.1801 -0.825205 0
M  V30 2564 H 234.539 4.21392 -0.0262679 0
M  V30 2565 H 233.263 3.19373 0.683278 0
M  V30 2566 H 231.922 3.37054 -1.44189 0
M  V30 2567 H 231.57 5.01319 0.410827 0
M  V30 2568 H 231.27 5.75625 -1.18024 0
M  V30 2569 H 232.794 6.09799 -0.312695 0
M  V30 2570 H 234.208 5.20575 -2.40155 0
M  V30 2571 H 232.605 5.08682 -3.18375 0
M  V30 2572 H 233.675 3.6734 -3.16528 0
M  V30 2573 N 235.018 0.912232 1.28515 0
M  V30 2574 C 236.434 0.610159 1.47476 0
M  V30 2575 C 236.634 -0.844955 1.82928 0
M  V30 2576 O 235.69 -1.62416 1.93332 0
M  V30 2577 C 237.003 1.54675 2.57868 0
M  V30 2578 C 238.551 1.55331 2.71738 0
M  V30 2579 C 239.026 2.47649 3.85272 0
M  V30 2580 N 240.517 2.45767 3.92623 0
M  V30 2581 C 241.252 3.13896 4.79851 0
M  V30 2582 N 240.748 3.9135 5.71679 0
M  V30 2583 N 242.541 3.02991 4.73448 0
M  V30 2584 H 234.692 1.85318 1.03783 0
M  V30 2585 H 236.955 0.794777 0.516753 0
M  V30 2586 H 236.661 2.5841 2.38574 0
M  V30 2587 H 236.535 1.27671 3.54937 0
M  V30 2588 H 238.922 0.52335 2.90422 0
M  V30 2589 H 239.003 1.86378 1.75205 0
M  V30 2590 H 238.647 3.50745 3.67342 0
M  V30 2591 H 238.577 2.13904 4.81199 0
M  V30 2592 H 241.068 1.89503 3.26951 0
M  V30 2593 H 241.381 4.40359 6.35062 0
M  V30 2594 H 239.726 3.95455 5.71524 0
M  V30 2595 H 242.917 2.41987 4.007 0
M  V30 2596 H 243.09 3.5636 5.41213 0
M  V30 2597 N 236.496 -1.42363 0.676048 0
M  V30 2598 C 237.721 -2.06377 0.205705 0
M  V30 2599 C 238.146 -1.50463 -1.12883 0
M  V30 2600 O 237.504 -0.623619 -1.70237 0
M  V30 2601 C 237.552 -3.60277 0.152655 0
M  V30 2602 O 236.656 -4.02935 -0.87845 0
M  V30 2603 H 235.997 -0.655588 0.105359 0
M  V30 2604 H 238.527 -1.82475 0.925412 0
M  V30 2605 H 238.537 -4.07993 -0.0230675 0
M  V30 2606 H 237.212 -4.00346 1.12675 0
M  V30 2607 H 235.789 -3.66764 -0.673668 0
M  V30 2608 N 237.974 -0.419461 -1.51915 0
M  V30 2609 C 239.221 0.152939 -2.01922 0
M  V30 2610 C 239.549 1.4426 -1.30458 0
M  V30 2611 O 238.804 1.91514 -0.402593 0
M  V30 2612 C 239.103 0.437067 -3.54717 0
M  V30 2613 C 238.769 -0.764632 -4.44369 0
M  V30 2614 C 237.431 -1.09423 -4.68594 0
M  V30 2615 C 239.783 -1.56713 -4.97082 0
M  V30 2616 C 237.111 -2.22732 -5.42777 0
M  V30 2617 C 239.463 -2.69107 -5.72507 0
M  V30 2618 C 238.127 -3.02541 -5.95 0
M  V30 2619 H 237.397 0.0559644 -0.738884 0
M  V30 2620 H 240.044 -0.562998 -1.83037 0
M  V30 2621 H 238.349 1.23469 -3.71837 0
M  V30 2622 H 240.046 0.893083 -3.90928 0
M  V30 2623 H 236.636 -0.497775 -4.257 0
M  V30 2624 H 240.82 -1.32571 -4.78266 0
M  V30 2625 H 236.076 -2.48971 -5.58411 0
M  V30 2626 H 240.25 -3.31671 -6.12346 0
M  V30 2627 H 237.877 -3.90457 -6.52264 0
M  V30 2628 N 239.452 1.56882 -0.150215 0
M  V30 2629 C 240.677 2.01027 0.510184 0
M  V30 2630 C 241.102 1.02966 1.57415 0
M  V30 2631 O 240.46 0.00590158 1.81299 0
M  V30 2632 C 240.508 3.43899 1.08472 0
M  V30 2633 O 239.612 3.4885 2.19948 0
M  V30 2634 H 238.953 0.652233 0.124451 0
M  V30 2635 H 241.483 2.03093 -0.247894 0
M  V30 2636 H 241.493 3.82766 1.41259 0
M  V30 2637 H 240.168 4.14776 0.305582 0
M  V30 2638 H 238.745 3.21827 1.88366 0
M  V30 2639 N 240.93 -0.123565 1.57115 0
M  V30 2640 C 241.88 -1.1575 1.96433 0
M  V30 2641 C 242.864 -1.37313 0.838686 0
M  V30 2642 O 244.056 -1.38482 1.10235 0
M  V30 2643 C 241.185 -2.48526 2.36833 0
M  V30 2644 C 240.271 -2.30457 3.5602 0
M  V30 2645 N 240.662 -1.8219 4.71848 0
M  V30 2646 C 238.96 -2.61129 3.61563 0
M  V30 2647 C 239.661 -1.77721 5.53886 0
M  V30 2648 N 238.637 -2.21899 4.96248 0
M  V30 2649 H 242.439 -0.776797 2.83449 0
M  V30 2650 H 239.953 -0.331364 1.58983 0
M  V30 2651 H 241.95 -3.233 2.63216 0
M  V30 2652 H 240.61 -2.87358 1.5118 0
M  V30 2653 H 241.621 -1.51805 4.95152 0
M  V30 2654 H 238.298 -3.03678 2.86507 0
M  V30 2655 H 239.688 -1.41697 6.56789 0
M  V30 2656 N 242.408 -1.52605 -0.393616 0
M  V30 2657 C 243.34 -1.73303 -1.49995 0
M  V30 2658 C 244.353 -0.613473 -1.50799 0
M  V30 2659 O 245.542 -0.889049 -1.54784 0
M  V30 2660 C 242.642 -1.77245 -2.88855 0
M  V30 2661 C 241.815 -3.06483 -3.12069 0
M  V30 2662 C 240.874 -3.02033 -4.30886 0
M  V30 2663 O 239.9 -3.75907 -4.27414 0
M  V30 2664 N 241.102 -2.20897 -5.36828 0
M  V30 2665 H 243.867 -2.68756 -1.32629 0
M  V30 2666 H 241.428 -1.51036 -0.583083 0
M  V30 2667 H 243.42 -1.7178 -3.66434 0
M  V30 2668 H 241.99 -0.891993 -2.99603 0
M  V30 2669 H 241.21 -3.25474 -2.22396 0
M  V30 2670 H 242.498 -3.91947 -3.2443 0
M  V30 2671 H 241.896 -1.60336 -5.42502 0
M  V30 2672 H 240.453 -2.21275 -6.13091 0
M  V30 2673 N 243.887 0.651787 -1.4349 0
M  V30 2674 C 244.85 1.74647 -1.48429 0
M  V30 2675 C 245.85 1.56513 -0.368817 0
M  V30 2676 O 247.04 1.62385 -0.630623 0
M  V30 2677 C 244.172 3.13533 -1.33827 0
M  V30 2678 H 245.365 1.71649 -2.4592 0
M  V30 2679 H 242.918 0.863573 -1.30277 0
M  V30 2680 H 243.653 3.22142 -0.37349 0
M  V30 2681 H 243.438 3.28101 -2.14691 0
M  V30 2682 H 244.928 3.93356 -1.40218 0
M  V30 2683 N 245.365 1.30045 0.890287 0
M  V30 2684 C 246.613 1.18327 1.63839 0
M  V30 2685 C 246.934 -0.263455 1.93212 0
M  V30 2686 O 246.204 -1.17856 1.56482 0
M  V30 2687 H 244.784 0.434933 0.607324 0
M  V30 2688 H 247.446 1.631 1.06698 0
M  V30 2689 H 246.542 1.74024 2.59079 0
M  V30 2690 N 246.843 -1.10192 1.12674 0
M  V30 2691 C 247.806 -2.14786 0.799979 0
M  V30 2692 C 248.806 -1.59711 -0.18685 0
M  V30 2693 O 249.996 -1.74156 0.0392558 0
M  V30 2694 C 247.128 -3.40374 0.189228 0
M  V30 2695 H 248.321 -2.45203 1.72671 0
M  V30 2696 H 245.874 -1.25597 0.930326 0
M  V30 2697 H 246.609 -3.15577 -0.747107 0
M  V30 2698 H 246.394 -3.81637 0.899766 0
M  V30 2699 H 247.884 -4.17594 -0.0228143 0
M  V30 2700 N 248.321 -0.919034 -1.28029 0
M  V30 2701 C 249.546 -0.570357 -1.99403 0
M  V30 2702 C 249.971 0.842486 -1.68178 0
M  V30 2703 O 249.329 1.56391 -0.917141 0
M  V30 2704 C 249.377 -0.792541 -3.51783 0
M  V30 2705 O 248.481 0.145988 -4.12142 0
M  V30 2706 H 247.822 -0.220555 -0.6263 0
M  V30 2707 H 250.352 -1.23592 -1.63053 0
M  V30 2708 H 250.362 -0.704708 -4.01868 0
M  V30 2709 H 249.037 -1.82247 -3.73844 0
M  V30 2710 H 247.614 0.00897528 -3.72899 0
M  V30 2711 N 249.799 1.42003 -0.683588 0
M  V30 2712 C 251.024 2.06265 -0.216647 0
M  V30 2713 C 251.449 1.51059 1.12083 0
M  V30 2714 O 250.807 0.632638 1.69904 0
M  V30 2715 C 250.855 3.60191 -0.171759 0
M  V30 2716 O 249.959 4.03396 0.857069 0
M  V30 2717 H 249.3 0.65502 -0.108834 0
M  V30 2718 H 251.83 1.81982 -0.935077 0
M  V30 2719 H 251.84 4.08 0.0014303 0
M  V30 2720 H 250.515 3.99743 -1.14796 0
M  V30 2721 H 249.092 3.67117 0.654208 0
M  V30 2722 N 251.277 0.427512 1.51691 0
M  V30 2723 C 252.224 -0.388867 2.275 0
M  V30 2724 C 253.194 -1.02532 1.30677 0
M  V30 2725 O 254.379 -1.0461 1.59566 0
M  V30 2726 C 251.519 -1.48954 3.11298 0
M  V30 2727 C 250.632 -0.872194 4.23104 0
M  V30 2728 C 249.767 -1.94709 4.94228 0
M  V30 2729 C 248.806 -1.30766 5.97969 0
M  V30 2730 N 247.943 -2.32349 6.62539 0
M  V30 2731 H 252.783 0.263997 2.96828 0
M  V30 2732 H 250.32 0.142033 1.46413 0
M  V30 2733 H 252.278 -2.13887 3.58201 0
M  V30 2734 H 250.908 -2.11217 2.44105 0
M  V30 2735 H 249.96 -0.111419 3.80237 0
M  V30 2736 H 251.272 -0.365264 4.97461 0
M  V30 2737 H 250.426 -2.67327 5.44629 0
M  V30 2738 H 249.165 -2.48773 4.1948 0
M  V30 2739 H 248.17 -0.566902 5.4687 0
M  V30 2740 H 249.395 -0.774483 6.74669 0
M  V30 2741 H 247.341 -2.85511 5.90609 0
M  V30 2742 H 247.258 -1.8652 7.3263 0
M  V30 2743 H 248.526 -3.04481 7.17574 0
M  V30 2744 N 252.755 -1.56801 0.158532 0
M  V30 2745 C 253.687 -2.14488 -0.807923 0
M  V30 2746 C 254.7 -1.09721 -1.20271 0
M  V30 2747 O 255.889 -1.36956 -1.14478 0
M  V30 2748 C 252.989 -2.66217 -2.09718 0
M  V30 2749 C 252.162 -3.95507 -1.86796 0
M  V30 2750 C 251.221 -4.3243 -2.99818 0
M  V30 2751 O 250.247 -5.00543 -2.71008 0
M  V30 2752 N 251.449 -3.92947 -4.27285 0
M  V30 2753 H 254.214 -2.98042 -0.314816 0
M  V30 2754 H 251.775 -1.61881 -0.0246692 0
M  V30 2755 H 253.767 -2.87924 -2.84398 0
M  V30 2756 H 252.337 -1.87324 -2.50257 0
M  V30 2757 H 251.557 -3.82309 -0.96089 0
M  V30 2758 H 252.845 -4.79972 -1.68833 0
M  V30 2759 H 252.243 -3.38087 -4.53557 0
M  V30 2760 H 250.8 -4.19681 -4.9871 0
M  V30 2761 N 254.233 0.115231 -1.57178 0
M  V30 2762 C 255.644 0.67197 -1.74188 0
M  V30 2763 C 255.995 1.80125 -0.777777 0
M  V30 2764 O 255.12 2.16346 0.0484376 0
M  V30 2765 C 255.715 1.22573 -3.1585 0
M  V30 2766 C 254.274 1.72872 -3.34353 0
M  V30 2767 C 253.421 0.629972 -2.70049 0
M  V30 2768 H 256.372 -0.110712 -1.58313 0
M  V30 2769 H 256.393 2.09535 -3.17609 0
M  V30 2770 H 255.905 0.403598 -3.85996 0
M  V30 2771 H 254.006 2.5755 -2.69256 0
M  V30 2772 H 254.119 1.83557 -4.42542 0
M  V30 2773 H 252.483 1.0645 -2.31388 0
M  V30 2774 H 253.266 -0.181241 -3.42821 0
M  V30 2775 N 255.711 1.52812 0.385517 0
M  V30 2776 C 256.674 1.77188 1.45386 0
M  V30 2777 C 257.674 0.641953 1.4743 0
M  V30 2778 O 258.864 0.910033 1.4854 0
M  V30 2779 C 255.996 1.87582 2.8465 0
M  V30 2780 H 257.189 2.72583 1.25054 0
M  V30 2781 H 254.742 1.43586 0.617467 0
M  V30 2782 H 255.477 0.941849 3.10322 0
M  V30 2783 H 255.262 2.69748 2.84567 0
M  V30 2784 H 256.752 2.08102 3.62054 0
M  V30 2785 N 257.189 -0.644168 1.43834 0
M  V30 2786 C 258.119 -1.76814 1.52509 0
M  V30 2787 C 259.1 -1.65823 0.379052 0
M  V30 2788 O 260.285 -1.84781 0.597466 0
M  V30 2789 C 257.415 -3.15288 1.4564 0
M  V30 2790 C 256.369 -3.41053 2.58586 0
M  V30 2791 C 255.695 -4.79421 2.36769 0
M  V30 2792 C 256.995 -3.34902 4.00797 0
M  V30 2793 H 258.689 -1.69812 2.46586 0
M  V30 2794 H 256.235 -0.815542 1.1868 0
M  V30 2795 H 258.188 -3.93681 1.50311 0
M  V30 2796 H 256.912 -3.23043 0.480725 0
M  V30 2797 H 255.571 -2.65035 2.53282 0
M  V30 2798 H 255.219 -4.83863 1.37424 0
M  V30 2799 H 254.919 -4.9762 3.12487 0
M  V30 2800 H 256.443 -5.6006 2.43238 0
M  V30 2801 H 257.857 -4.03218 4.07539 0
M  V30 2802 H 256.254 -3.64637 4.76613 0
M  V30 2803 H 257.324 -2.32928 4.25291 0
M  V30 2804 N 258.668 -1.30515 -0.883378 0
M  V30 2805 C 259.916 -1.19194 -1.63209 0
M  V30 2806 C 260.237 0.253205 -1.93349 0
M  V30 2807 O 259.507 1.17025 -1.57105 0
M  V30 2808 H 258.087 -0.438148 -0.605009 0
M  V30 2809 H 260.749 -1.63663 -1.05832 0
M  V30 2810 H 259.845 -1.75396 -2.58153 0
M  V30 2811 N 260.146 1.09593 -1.13257 0
M  V30 2812 C 261.376 1.85231 -0.915049 0
M  V30 2813 C 261.784 1.81345 0.539498 0
M  V30 2814 O 261.127 1.20664 1.38513 0
M  V30 2815 C 261.189 3.34275 -1.3229 0
M  V30 2816 C 260.853 3.6191 -2.79052 0
M  V30 2817 C 261.85 3.57777 -3.77216 0
M  V30 2818 C 259.535 3.90309 -3.16171 0
M  V30 2819 C 261.529 3.81652 -5.1051 0
M  V30 2820 C 259.216 4.13839 -4.49644 0
M  V30 2821 C 260.214 4.09502 -5.46623 0
M  V30 2822 O 259.902 4.32426 -6.77689 0
M  V30 2823 H 259.634 0.591997 -0.326367 0
M  V30 2824 H 262.188 1.394 -1.50854 0
M  V30 2825 H 260.418 3.80805 -0.672667 0
M  V30 2826 H 262.107 3.9132 -1.07812 0
M  V30 2827 H 262.873 3.35865 -3.49885 0
M  V30 2828 H 258.752 3.92811 -2.41289 0
M  V30 2829 H 262.296 3.78182 -5.86195 0
M  V30 2830 H 258.193 4.35232 -4.767 0
M  V30 2831 H 258.961 4.49896 -6.83766 0
M  V30 2832 N 261.624 0.925811 1.2754 0
M  V30 2833 C 262.554 0.440748 2.29303 0
M  V30 2834 C 263.535 -0.497971 1.62648 0
M  V30 2835 O 264.72 -0.403126 1.8997 0
M  V30 2836 C 261.85 -0.309048 3.45922 0
M  V30 2837 C 260.804 0.54166 4.24559 0
M  V30 2838 C 260.13 -0.337191 5.33636 0
M  V30 2839 C 261.43 1.80516 4.90114 0
M  V30 2840 H 263.124 1.29121 2.70126 0
M  V30 2841 H 260.67 0.622323 1.29858 0
M  V30 2842 H 262.623 -0.659315 4.1621 0
M  V30 2843 H 261.347 -1.19352 3.04011 0
M  V30 2844 H 260.006 0.874609 3.56014 0
M  V30 2845 H 259.654 -1.22056 4.87966 0
M  V30 2846 H 259.354 0.228497 5.87156 0
M  V30 2847 H 260.878 -0.683072 6.06767 0
M  V30 2848 H 262.292 1.52307 5.52698 0
M  V30 2849 H 260.689 2.3142 5.53683 0
M  V30 2850 H 261.759 2.52581 4.13921 0
M  V30 2851 N 263.102 -1.41638 0.69111 0
M  V30 2852 C 264.05 -2.32597 0.0115199 0
M  V30 2853 C 265.044 -1.5072 -0.773296 0
M  V30 2854 O 266.25 -1.66685 -0.67942 0
M  V30 2855 H 262.625 -0.751849 -0.0150746 0
M  V30 2856 H 264.596 -2.87593 0.795791 0
M  V30 2857 C 263.345 -3.35467 -0.914172 0
M  V30 2858 H 262.668 -3.9852 -0.319687 0
M  V30 2859 H 264.108 -4.01662 -1.35808 0
M  V30 2860 C 262.567 -2.69004 -2.02826 0
M  V30 2861 O 263.097 -2.53444 -3.11655 0
M  V30 2862 N 261.303 -2.2777 -1.80469 0
M  V30 2863 H 260.85 -2.40626 -0.919615 0
M  V30 2864 H 260.808 -1.83635 -2.55197 0
M  V30 2865 O 264.619 -0.577603 -1.50818 0
M  V30 2866 H 265.31 -0.0808444 -1.93531 0
M  V30 END ATOM
M  V30 BEGIN BOND
M  V30 END BOND
M  V30 END CTAB
M  END
$$$$
