drugbank_target|P02461 Collagen alpha-1(III) chain (DB00048)
 OpenBabel12092120063D

  0  0  0     0  0            999 V3000
M  V30 BEGIN CTAB
M  V30 COUNTS 18978 19325 0 0 0
M  V30 BEGIN ATOM
M  V30 1 H -0.908 1.98254 -0.117106 0
M  V30 2 N 0 1.576 0 0
M  V30 3 C 0.933 2.03868 1.02534 0
M  V30 4 C 1.911 0.928543 1.3348 0
M  V30 5 O 3.095 1.19667 1.45644 0
M  V30 6 C 0.222 2.43627 2.35294 0
M  V30 7 C -0.732 3.65373 2.2001 0
M  V30 8 S 0.101 5.13292 1.52614 0
M  V30 9 C 1.257 5.56322 2.86805 0
M  V30 10 H 1.49 2.90518 0.631377 0
M  V30 11 H -0.977 1.52953 0.210867 0
M  V30 12 H 0.981 2.67203 3.11629 0
M  V30 13 H -0.358 1.57376 2.7183 0
M  V30 14 H -1.165 3.90944 3.18086 0
M  V30 15 H -1.563 3.418 1.51819 0
M  V30 16 H 0.729 5.58782 3.83104 0
M  V30 17 H 1.672 6.56266 2.65933 0
M  V30 18 H 2.08 4.83886 2.90714 0
M  V30 19 N 1.4781 -0.272755 1.55222 0
M  V30 20 C 2.4111 -1.3627 1.83046 0
M  V30 21 C 3.3891 -1.47536 0.683521 0
M  V30 22 O 4.5731 -1.64157 0.926545 0
M  V30 23 C 1.7001 -2.73908 1.99229 0
M  V30 24 C 0.7461 -2.79925 3.21783 0
M  V30 25 S 1.5791 -2.39146 4.79134 0
M  V30 26 C 2.7351 -3.78758 4.9829 0
M  V30 27 H 2.9681 -1.12464 2.75207 0
M  V30 28 H 0.5011 -0.472398 1.46996 0
M  V30 29 H 2.4591 -3.53171 2.09238 0
M  V30 30 H 1.1201 -2.94965 1.07956 0
M  V30 31 H 0.3131 -3.80946 3.29994 0
M  V30 32 H -0.0849 -2.08683 3.10367 0
M  V30 33 H 2.2071 -4.7403 4.84047 0
M  V30 34 H 3.1501 -3.75499 6.00338 0
M  V30 35 H 3.5581 -3.70072 4.26271 0
M  V30 36 N 2.9562 -1.48159 -0.537278 0
M  V30 37 C 4.1812 -1.59707 -1.32319 0
M  V30 38 C 4.6062 -0.254859 -1.86365 0
M  V30 39 O 3.9642 0.772378 -1.64024 0
M  V30 40 C 4.0122 -2.6412 -2.45505 0
M  V30 41 O 3.1162 -2.20774 -3.48328 0
M  V30 42 H 2.4572 -0.535791 -0.392204 0
M  V30 43 H 4.9872 -1.94092 -0.647268 0
M  V30 44 H 4.9972 -2.85166 -2.91795 0
M  V30 45 H 3.6722 -3.61567 -2.05528 0
M  V30 46 H 2.2492 -2.09911 -3.08207 0
M  V30 47 N 4.4343 0.785586 -1.36625 0
M  V30 48 C 5.6813 1.54362 -1.31067 0
M  V30 49 C 6.0093 1.94195 0.10893 0
M  V30 50 O 5.2643 1.63262 1.07908 0
M  V30 51 C 5.5633 2.83007 -2.1827 0
M  V30 52 C 5.2293 2.62294 -3.6676 0
M  V30 53 C 3.8913 2.56353 -4.0723 0
M  V30 54 C 6.2433 2.43371 -4.6089 0
M  V30 55 C 3.5713 2.29461 -5.39967 0
M  V30 56 C 5.9233 2.18005 -5.93849 0
M  V30 57 C 4.5873 2.105 -6.3344 0
M  V30 58 H 3.8573 0.564851 -0.479609 0
M  V30 59 H 6.5043 0.906028 -1.68711 0
M  V30 60 H 4.8093 3.51253 -1.73576 0
M  V30 61 H 6.5063 3.40817 -2.11292 0
M  V30 62 H 3.0963 2.67774 -3.34656 0
M  V30 63 H 7.2803 2.46959 -4.30494 0
M  V30 64 H 2.5363 2.22135 -5.69619 0
M  V30 65 H 6.7103 2.02359 -6.66351 0
M  V30 66 H 4.3373 1.89425 -7.36222 0
M  V30 67 N 5.9124 1.20967 1.01018 0
M  V30 68 C 7.1584 1.02526 1.74975 0
M  V30 69 C 7.4914 -0.4408 1.89131 0
M  V30 70 O 6.7664 -1.32718 1.42184 0
M  V30 71 C 7.0494 1.71699 3.1653 0
M  V30 72 C 6.9024 3.25791 3.10129 0
M  V30 73 C 8.2214 1.45531 4.15342 0
M  V30 74 H 5.3404 0.373863 0.635134 0
M  V30 75 H 7.9824 1.49071 1.17805 0
M  V30 76 H 6.1324 1.32128 3.65341 0
M  V30 77 H 7.8044 3.74697 2.69072 0
M  V30 78 H 6.0474 3.56363 2.47362 0
M  V30 79 H 6.7184 3.69353 4.10222 0
M  V30 80 H 9.1944 1.79872 3.75213 0
M  V30 81 H 8.0704 1.96453 5.1254 0
M  V30 82 H 8.3314 0.384237 4.40427 0
M  V30 83 N 7.3905 -1.2043 1.01659 0
M  V30 84 C 8.3225 -2.22626 0.544988 0
M  V30 85 C 9.3355 -1.58479 -0.372609 0
M  V30 86 O 10.5245 -1.77679 -0.170958 0
M  V30 87 C 7.6245 -3.38141 -0.22663 0
M  V30 88 C 6.7975 -4.31877 0.692876 0
M  V30 89 C 5.8565 -5.26191 -0.0311616 0
M  V30 90 O 4.8825 -5.6612 0.591343 0
M  V30 91 N 6.0845 -5.65618 -1.30601 0
M  V30 92 H 8.8495 -2.63716 1.42388 0
M  V30 93 H 6.4105 -1.34971 0.894116 0
M  V30 94 H 8.4025 -3.98239 -0.72024 0
M  V30 95 H 6.9725 -2.95943 -1.00681 0
M  V30 96 H 6.1925 -3.69746 1.36679 0
M  V30 97 H 7.4805 -4.91426 1.31824 0
M  V30 98 H 6.8785 -5.3519 -1.83269 0
M  V30 99 H 5.4355 -6.28025 -1.74435 0
M  V30 100 N 8.8686 -0.792821 -1.36206 0
M  V30 101 C 9.8156 -0.191653 -2.30003 0
M  V30 102 C 10.7856 0.666453 -1.52143 0
M  V30 103 O 11.9706 0.61442 -1.80636 0
M  V30 104 C 9.1106 0.664848 -3.38635 0
M  V30 105 C 8.2236 -0.212175 -4.31479 0
M  V30 106 C 7.3586 0.651022 -5.27196 0
M  V30 107 C 6.3976 -0.227247 -6.11678 0
M  V30 108 N 5.5346 0.595127 -6.99573 0
M  V30 109 H 10.3746 -0.996978 -2.80828 0
M  V30 110 H 7.9116 -0.503206 -1.38225 0
M  V30 111 H 9.8696 1.17645 -4.00269 0
M  V30 112 H 8.4996 1.43557 -2.89122 0
M  V30 113 H 7.5516 -0.841777 -3.70969 0
M  V30 114 H 8.8636 -0.888751 -4.90818 0
M  V30 115 H 8.0176 1.2283 -5.94136 0
M  V30 116 H 6.7566 1.36121 -4.68319 0
M  V30 117 H 5.7616 -0.816904 -5.43697 0
M  V30 118 H 6.9866 -0.93509 -6.72631 0
M  V30 119 H 4.9326 1.28955 -6.432 0
M  V30 120 H 4.8496 -0.0236952 -7.55996 0
M  V30 121 H 6.1176 1.15613 -7.70879 0
M  V30 122 N 10.3467 1.47872 -0.545128 0
M  V30 123 C 11.5947 2.02093 -0.016553 0
M  V30 124 C 11.9157 1.42305 1.3332 0
M  V30 125 O 11.1857 0.593853 1.86682 0
M  V30 126 H 9.7657 0.746993 -0.00313038 0
M  V30 127 H 12.4277 1.81414 -0.712397 0
M  V30 128 H 11.5237 3.11996 0.0805422 0
M  V30 129 N 11.8248 0.280983 1.55075 0
M  V30 130 C 13.0498 -0.340154 2.04592 0
M  V30 131 C 13.4748 -1.48246 1.15779 0
M  V30 132 O 12.8328 -1.80614 0.15761 0
M  V30 133 C 12.8808 -0.793104 3.5177 0
M  V30 134 O 11.9848 -1.89981 3.66034 0
M  V30 135 H 11.3258 -0.0694289 0.66036 0
M  V30 136 H 13.8558 0.416993 2.00306 0
M  V30 137 H 13.8658 -1.08729 3.93245 0
M  V30 138 H 12.5408 0.0426163 4.15878 0
M  V30 139 H 11.1178 -1.60771 3.36463 0
M  V30 140 N 13.3029 -1.57598 0.00835791 0
M  V30 141 C 14.5489 -1.92046 -0.670055 0
M  V30 142 C 14.9039 -0.88351 -1.70915 0
M  V30 143 O 14.1969 0.103223 -1.91322 0
M  V30 144 C 14.3909 -3.3101 -1.34787 0
M  V30 145 C 14.2199 -4.48126 -0.375945 0
M  V30 146 C 12.9899 -5.05297 0.0166914 0
M  V30 147 C 15.1879 -5.1303 0.361272 0
M  V30 148 N 13.1699 -6.05931 0.985952 0
M  V30 149 C 14.5409 -6.08571 1.18495 0
M  V30 150 C 16.5959 -4.9609 0.42421 0
M  V30 151 C 15.2989 -6.88996 2.06584 0
M  V30 152 C 17.3249 -5.77107 1.29236 0
M  V30 153 C 16.6869 -6.72248 2.10386 0
M  V30 154 H 12.7859 -0.75096 -0.218136 0
M  V30 155 H 15.3699 -1.94572 0.0706669 0
M  V30 156 H 13.5409 -3.29342 -2.05884 0
M  V30 157 H 15.2729 -3.52864 -1.98164 0
M  V30 158 H 12.0279 -4.72279 -0.353435 0
M  V30 159 H 12.4519 -6.60932 1.4662 0
M  V30 160 H 17.0939 -4.22378 -0.188915 0
M  V30 161 H 14.8119 -7.62028 2.6896 0
M  V30 162 H 18.3979 -5.66038 1.34508 0
M  V30 163 H 17.2779 -7.33846 2.76476 0
M  V30 164 N 14.781 0.264519 -1.55364 0
M  V30 165 C 15.711 1.33121 -1.91836 0
M  V30 166 C 16.692 1.51101 -0.781192 0
M  V30 167 O 17.877 1.64003 -1.04003 0
M  V30 168 C 15.007 2.68921 -2.19769 0
M  V30 169 C 13.961 2.65661 -3.35571 0
M  V30 170 C 13.287 4.05093 -3.49004 0
M  V30 171 C 14.587 2.24187 -4.71739 0
M  V30 172 H 16.281 1.02844 -2.81182 0
M  V30 173 H 13.827 0.493286 -1.35287 0
M  V30 174 H 15.78 3.43663 -2.43872 0
M  V30 175 H 14.504 3.00799 -1.27231 0
M  V30 176 H 13.163 1.93377 -3.1145 0
M  V30 177 H 12.811 4.34206 -2.53917 0
M  V30 178 H 12.511 4.03804 -4.26868 0
M  V30 179 H 14.035 4.81561 -3.75408 0
M  V30 180 H 15.449 2.88654 -4.9533 0
M  V30 181 H 13.846 2.34044 -5.52579 0
M  V30 182 H 14.916 1.19327 -4.69988 0
M  V30 183 N 16.2591 1.48442 0.529413 0
M  V30 184 C 17.1891 1.65902 1.64313 0
M  V30 185 C 18.1701 0.507897 1.6234 0
M  V30 186 O 19.3551 0.740503 1.79528 0
M  V30 187 C 16.4851 1.69911 3.02898 0
M  V30 188 C 15.4391 2.8453 3.19729 0
M  V30 189 C 14.7651 2.73629 4.59381 0
M  V30 190 C 16.0651 4.25821 3.02447 0
M  V30 191 H 17.7591 2.5914 1.49955 0
M  V30 192 H 15.3051 1.24709 0.719982 0
M  V30 193 H 17.2581 1.80715 3.80684 0
M  V30 194 H 15.9821 0.732524 3.18279 0
M  V30 195 H 14.6411 2.73283 2.44361 0
M  V30 196 H 14.2891 1.74938 4.71599 0
M  V30 197 H 13.9891 3.50541 4.71588 0
M  V30 198 H 15.5131 2.86401 5.39265 0
M  V30 199 H 16.9271 4.37898 3.70024 0
M  V30 200 H 15.3241 5.03735 3.26146 0
M  V30 201 H 16.3941 4.42244 1.98867 0
M  V30 202 N 17.7372 -0.778329 1.37039 0
M  V30 203 C 18.6672 -1.90546 1.34962 0
M  V30 204 C 19.6482 -1.68681 0.219274 0
M  V30 205 O 20.8332 -1.89634 0.418624 0
M  V30 206 C 17.9632 -3.27734 1.14925 0
M  V30 207 C 16.9172 -3.64147 2.24902 0
M  V30 208 C 16.2432 -4.99806 1.89996 0
M  V30 209 C 17.5432 -3.71579 3.67051 0
M  V30 210 H 19.2372 -1.92541 2.29277 0
M  V30 211 H 16.7832 -0.924948 1.10366 0
M  V30 212 H 18.7362 -4.06215 1.12104 0
M  V30 213 H 17.4602 -3.26154 0.170631 0
M  V30 214 H 16.1192 -2.8797 2.26868 0
M  V30 215 H 15.7672 -4.94759 0.906796 0
M  V30 216 H 15.4672 -5.25139 2.63634 0
M  V30 217 H 16.9912 -5.80694 1.88749 0
M  V30 218 H 18.4052 -4.40227 3.67251 0
M  V30 219 H 16.8022 -4.08405 4.39688 0
M  V30 220 H 17.8722 -2.72404 4.01154 0
M  V30 221 N 19.2153 -1.21501 -1.00376 0
M  V30 222 C 20.1783 -0.976927 -2.07337 0
M  V30 223 C 21.1783 0.0525322 -1.60714 0
M  V30 224 O 22.3683 -0.184869 -1.73216 0
M  V30 225 C 19.5003 -0.473423 -3.37597 0
M  V30 226 H 20.6933 -1.92587 -2.29892 0
M  V30 227 H 18.2463 -1.03217 -1.17371 0
M  V30 228 H 18.9813 0.480379 -3.20722 0
M  V30 229 H 18.7663 -1.216 -3.72768 0
M  V30 230 H 20.2563 -0.32675 -4.1632 0
M  V30 231 N 20.6934 1.19889 -1.02296 0
M  V30 232 C 21.6234 2.25141 -0.619174 0
M  V30 233 C 22.6044 1.66051 0.368915 0
M  V30 234 O 23.7894 1.92546 0.252941 0
M  V30 235 C 20.9194 3.4728 0.0368783 0
M  V30 236 C 19.8734 4.19005 -0.872865 0
M  V30 237 C 19.1994 5.34637 -0.0822402 0
M  V30 238 C 20.4994 4.74452 -2.18387 0
M  V30 239 H 22.1934 2.59171 -1.49903 0
M  V30 240 H 19.7394 1.24579 -0.722222 0
M  V30 241 H 21.6924 4.20098 0.330958 0
M  V30 242 H 20.4164 3.12433 0.95149 0
M  V30 243 H 19.0754 3.48061 -1.15105 0
M  V30 244 H 18.7234 4.96034 0.83422 0
M  V30 245 H 18.4234 5.83557 -0.688149 0
M  V30 246 H 19.9474 6.10255 0.205238 0
M  V30 247 H 21.3614 5.39055 -1.95172 0
M  V30 248 H 19.7584 5.33834 -2.74119 0
M  V30 249 H 20.8284 3.92844 -2.84257 0
M  V30 250 N 22.1715 0.800033 1.35784 0
M  V30 251 C 23.1015 0.220184 2.3246 0
M  V30 252 C 24.0825 -0.65073 1.57161 0
M  V30 253 O 25.2675 -0.582359 1.85263 0
M  V30 254 C 22.3975 -0.637353 3.41402 0
M  V30 255 C 21.3515 0.134531 4.27789 0
M  V30 256 C 20.6775 -0.844285 5.27992 0
M  V30 257 C 21.9775 1.32979 5.05088 0
M  V30 258 H 23.6715 1.02787 2.81203 0
M  V30 259 H 21.2175 0.495717 1.35199 0
M  V30 260 H 23.1705 -1.05302 4.08031 0
M  V30 261 H 21.8945 -1.47785 2.91251 0
M  V30 262 H 20.5535 0.531296 3.6273 0
M  V30 263 H 20.2015 -1.68011 4.74111 0
M  V30 264 H 19.9015 -0.332184 5.8666 0
M  V30 265 H 21.4255 -1.2583 5.97494 0
M  V30 266 H 22.8395 0.98934 5.64699 0
M  V30 267 H 21.2365 1.77593 5.7322 0
M  V30 268 H 22.3065 2.11978 4.36111 0
M  V30 269 N 23.6496 -1.47581 0.552962 0
M  V30 270 C 24.5996 -2.26961 -0.217423 0
M  V30 271 C 25.5836 -1.34099 -0.889168 0
M  V30 272 O 26.7756 -1.58483 -0.788176 0
M  V30 273 C 23.9046 -3.19756 -1.24944 0
M  V30 274 C 22.9906 -4.20097 -0.581327 0
M  V30 275 N 23.3816 -5.04614 0.346171 0
M  V30 276 C 21.6796 -4.38099 -0.835767 0
M  V30 277 C 22.3806 -5.77052 0.733854 0
M  V30 278 N 21.3566 -5.43526 0.0896567 0
M  V30 279 H 25.1586 -2.89688 0.495761 0
M  V30 280 H 22.6726 -1.58068 0.372597 0
M  V30 281 H 24.6696 -3.75305 -1.81527 0
M  V30 282 H 23.3296 -2.58585 -1.96376 0
M  V30 283 H 24.3406 -5.12869 0.720098 0
M  V30 284 H 21.0176 -3.88102 -1.53892 0
M  V30 285 H 22.4076 -6.5504 1.49574 0
M  V30 286 N 25.1277 -0.289203 -1.54924 0
M  V30 287 C 26.5387 0.205791 -1.85562 0
M  V30 288 C 26.8897 1.54351 -1.2112 0
M  V30 289 O 26.0147 2.10435 -0.504601 0
M  V30 290 C 26.6097 0.380177 -3.3666 0
M  V30 291 C 25.1687 0.819395 -3.67373 0
M  V30 292 C 24.3157 -0.079159 -2.77187 0
M  V30 293 H 27.2667 -0.510577 -1.50262 0
M  V30 294 H 27.2877 1.21659 -3.60526 0
M  V30 295 H 26.7997 -0.593589 -3.83534 0
M  V30 296 H 24.9007 1.80413 -3.26009 0
M  V30 297 H 25.0137 0.646957 -4.74712 0
M  V30 298 H 23.3777 0.439565 -2.50878 0
M  V30 299 H 24.1607 -1.04906 -3.26878 0
M  V30 300 N 26.6058 1.57591 -0.0167156 0
M  V30 301 C 27.8338 1.95575 0.675128 0
M  V30 302 C 28.2488 0.892542 1.6637 0
M  V30 303 O 27.6058 -0.126912 1.82058 0
M  V30 304 C 27.6568 3.33608 1.39239 0
M  V30 305 O 27.3778 4.3585 0.443444 0
M  V30 306 C 28.8788 3.86151 2.17721 0
M  V30 307 H 26.0988 0.644423 0.186978 0
M  V30 308 H 28.6428 2.0437 -0.0728 0
M  V30 309 H 26.7978 3.2607 2.09182 0
M  V30 310 H 27.2118 5.158 0.951358 0
M  V30 311 H 28.6858 4.85114 2.63379 0
M  V30 312 H 29.1628 3.19738 3.01105 0
M  V30 313 H 29.7688 3.96918 1.52761 0
M  V30 314 N 28.0839 -0.256276 1.55502 0
M  V30 315 C 29.3329 -0.983486 1.76098 0
M  V30 316 C 29.6459 -1.86837 0.578896 0
M  V30 317 O 30.8519 -2.63163 0.667648 0
M  V30 318 C 29.3079 -1.79868 3.1173 0
M  V30 319 C 28.9159 -0.961648 4.37557 0
M  V30 320 C 30.6599 -2.51919 3.41668 0
M  V30 321 C 28.5669 -1.77219 5.64223 0
M  V30 322 H 27.4969 -0.370936 0.656447 0
M  V30 323 H 30.1479 -0.238492 1.81944 0
M  V30 324 H 28.5299 -2.58527 2.99966 0
M  V30 325 H 29.7039 -0.218048 4.60284 0
M  V30 326 H 28.0189 -0.354913 4.14885 0
M  V30 327 H 30.6159 -3.12998 4.33516 0
M  V30 328 H 30.9589 -3.23059 2.62562 0
M  V30 329 H 31.4919 -1.80278 3.54605 0
M  V30 330 H 28.2309 -1.10471 6.46124 0
M  V30 331 H 27.7509 -2.49132 5.45613 0
M  V30 332 H 29.4299 -2.34169 6.03137 0
M  V30 333 N 29.562 -1.4872 -0.521534 0
M  V30 334 C 30.811 -1.56419 -1.27341 0
M  V30 335 C 31.124 -0.246805 -1.94037 0
M  V30 336 O 32.33 -0.202122 -2.70747 0
M  V30 337 C 30.786 -2.75896 -2.31105 0
M  V30 338 C 30.394 -4.14311 -1.70441 0
M  V30 339 C 32.138 -2.92913 -3.07249 0
M  V30 340 C 30.045 -5.25038 -2.72194 0
M  V30 341 H 28.975 -0.582344 -0.478949 0
M  V30 342 H 31.626 -1.75071 -0.549779 0
M  V30 343 H 30.008 -2.50697 -3.06541 0
M  V30 344 H 31.182 -4.49564 -1.01136 0
M  V30 345 H 29.497 -4.02482 -1.06759 0
M  V30 346 H 32.094 -3.72805 -3.83302 0
M  V30 347 H 32.437 -2.02689 -3.63625 0
M  V30 348 H 32.97 -3.18054 -2.38928 0
M  V30 349 H 29.709 -6.17255 -2.20627 0
M  V30 350 H 29.229 -4.94263 -3.39801 0
M  V30 351 H 30.908 -5.53508 -3.35019 0
M  V30 352 N 31.0401 0.771051 -1.3745 0
M  V30 353 C 31.9701 1.89827 -1.3597 0
M  V30 354 C 32.9511 1.68562 -0.228216 0
M  V30 355 O 34.1361 1.8941 -0.428675 0
M  V30 356 C 31.2661 3.2712 -1.16662 0
M  V30 357 C 30.2201 3.6295 -2.2683 0
M  V30 358 C 29.5461 4.98791 -1.92644 0
M  V30 359 C 30.8461 3.69627 -3.69017 0
M  V30 360 H 32.5401 1.91323 -2.30295 0
M  V30 361 H 30.0861 0.919082 -1.10855 0
M  V30 362 H 32.0391 4.05615 -1.14256 0
M  V30 363 H 30.7631 3.26059 -0.187926 0
M  V30 364 H 29.4221 2.86763 -2.28392 0
M  V30 365 H 29.0701 4.94271 -0.933021 0
M  V30 366 H 28.7701 5.23733 -2.66416 0
M  V30 367 H 30.2941 5.79685 -1.91826 0
M  V30 368 H 31.7081 4.38273 -3.69581 0
M  V30 369 H 30.1051 4.06067 -4.41848 0
M  V30 370 H 31.1751 2.70273 -4.02592 0
M  V30 371 N 32.5182 1.22032 0.997298 0
M  V30 372 C 33.4812 0.987909 2.06816 0
M  V30 373 C 34.4812 -0.0440084 1.6074 0
M  V30 374 O 35.6712 0.194053 1.73116 0
M  V30 375 C 32.8032 0.49132 3.37341 0
M  V30 376 H 33.9962 1.93803 2.28868 0
M  V30 377 H 31.5492 1.03838 1.16822 0
M  V30 378 H 32.2842 -0.463364 3.20973 0
M  V30 379 H 32.0692 1.23575 3.72118 0
M  V30 380 H 33.5592 0.348824 4.16141 0
M  V30 381 N 33.9963 -1.19345 1.0293 0
M  V30 382 C 34.9283 -2.22036 0.56857 0
M  V30 383 C 35.9413 -1.58865 -0.355779 0
M  V30 384 O 37.1303 -1.77851 -0.152103 0
M  V30 385 C 34.2303 -3.38363 -0.190752 0
M  V30 386 C 33.4033 -4.31118 0.738643 0
M  V30 387 C 32.4623 -5.26194 0.0246497 0
M  V30 388 O 31.4883 -5.65461 0.651354 0
M  V30 389 N 32.6903 -5.66971 -1.24594 0
M  V30 390 H 35.4553 -2.6219 1.45177 0
M  V30 391 H 33.0163 -1.34015 0.908381 0
M  V30 392 H 35.0083 -3.98981 -0.677961 0
M  V30 393 H 33.5783 -2.96994 -0.975366 0
M  V30 394 H 32.7983 -3.68276 1.40593 0
M  V30 395 H 34.0863 -4.90001 1.37029 0
M  V30 396 H 33.4843 -5.37104 -1.77583 0
M  V30 397 H 32.0413 -6.2984 -1.67764 0
M  V30 398 N 35.4744 -0.807222 -1.35358 0
M  V30 399 C 36.4064 -0.175717 -2.28525 0
M  V30 400 C 37.4194 0.625354 -1.5031 0
M  V30 401 O 38.6084 0.457611 -1.72535 0
M  V30 402 C 35.7084 0.773471 -3.29956 0
M  V30 403 C 34.8814 0.0186296 -4.37396 0
M  V30 404 C 33.9404 0.886395 -5.18681 0
M  V30 405 O 32.9664 0.337106 -5.68201 0
M  V30 406 N 34.1684 2.20839 -5.36852 0
M  V30 407 H 36.9334 -0.976091 -2.83359 0
M  V30 408 H 34.4944 -0.662737 -1.47714 0
M  V30 409 H 36.4864 1.35824 -3.81227 0
M  V30 410 H 35.0564 1.47465 -2.75632 0
M  V30 411 H 34.2764 -0.747349 -3.87051 0
M  V30 412 H 35.5644 -0.501577 -5.06322 0
M  V30 413 H 34.9624 2.67858 -4.98265 0
M  V30 414 H 33.5194 2.74237 -5.91301 0
M  V30 415 N 36.9525 1.47285 -0.560781 0
M  V30 416 C 37.8625 2.33846 0.187954 0
M  V30 417 C 38.8785 1.48412 0.908293 0
M  V30 418 O 40.0545 1.81332 0.876388 0
M  V30 419 C 37.1195 3.25178 1.2025 0
M  V30 420 C 36.1805 4.26504 0.489208 0
M  V30 421 C 35.4135 5.13472 1.45542 0
M  V30 422 O 35.6365 5.02959 2.6905 0
M  V30 423 O 34.5705 5.93902 0.977963 0
M  V30 424 H 38.3965 2.99177 -0.522177 0
M  V30 425 H 35.9815 1.45903 -0.321364 0
M  V30 426 H 37.8635 3.81584 1.78805 0
M  V30 427 H 36.5385 2.6247 1.89449 0
M  V30 428 H 35.4455 3.73847 -0.137627 0
M  V30 429 H 36.7785 4.91935 -0.161399 0
M  V30 430 N 38.4306 0.297415 1.54768 0
M  V30 431 C 39.3936 -0.567375 2.22066 0
M  V30 432 C 40.3936 -1.06409 1.20556 0
M  V30 433 O 41.5836 -0.960691 1.45315 0
M  V30 434 C 38.7156 -1.78517 2.90421 0
M  V30 435 H 39.9086 0.0205534 2.99893 0
M  V30 436 H 37.4616 0.0482163 1.56226 0
M  V30 437 H 38.1966 -2.41303 2.16664 0
M  V30 438 H 37.9816 -1.43669 3.64831 0
M  V30 439 H 39.4716 -2.39964 3.41771 0
M  V30 440 N 39.9087 -1.5758 0.0250728 0
M  V30 441 C 41.1547 -1.91917 -0.655413 0
M  V30 442 C 41.4877 -0.901433 -1.72011 0
M  V30 443 O 40.7627 0.0764069 -1.9435 0
M  V30 444 C 41.0457 -3.36751 -1.27558 0
M  V30 445 C 40.8987 -4.49258 -0.220719 0
M  V30 446 C 42.2177 -3.81469 -2.19475 0
M  V30 447 H 39.3367 -0.697925 -0.23679 0
M  V30 448 H 41.9787 -1.89825 0.0815036 0
M  V30 449 H 40.1287 -3.38664 -1.90365 0
M  V30 450 H 41.8007 -4.59478 0.409601 0
M  V30 451 H 40.0437 -4.31415 0.454264 0
M  V30 452 H 40.7147 -5.47618 -0.694175 0
M  V30 453 H 43.1907 -3.81266 -1.66659 0
M  V30 454 H 42.0667 -4.83512 -2.59822 0
M  V30 455 H 42.3277 -3.16744 -3.08424 0
M  V30 456 N 41.3868 0.248026 -1.55636 0
M  V30 457 C 42.2968 1.32859 -1.93354 0
M  V30 458 C 43.3128 1.52719 -0.833838 0
M  V30 459 O 44.4888 1.66363 -1.13513 0
M  V30 460 C 41.5538 2.66337 -2.21958 0
M  V30 461 C 40.6148 2.55008 -3.45354 0
M  V30 462 C 39.8478 3.82121 -3.72584 0
M  V30 463 O 40.0708 4.83951 -3.01907 0
M  V30 464 O 39.0048 3.80822 -4.6611 0
M  V30 465 H 42.8308 1.03862 -2.85388 0
M  V30 466 H 40.4158 0.448686 -1.42503 0
M  V30 467 H 42.2978 3.45216 -2.4167 0
M  V30 468 H 40.9728 2.95068 -1.33103 0
M  V30 469 H 39.8798 1.7442 -3.30951 0
M  V30 470 H 41.2128 2.31222 -4.34508 0
M  V30 471 N 42.8649 1.48995 0.513639 0
M  V30 472 C 44.1129 1.57531 1.26604 0
M  V30 473 C 44.4339 0.258236 1.93283 0
M  V30 474 O 43.7039 -0.721502 1.8213 0
M  V30 475 H 42.2839 0.580387 0.470276 0
M  V30 476 H 44.9459 1.85552 0.596373 0
M  V30 477 H 44.0419 2.36486 2.03669 0
M  V30 478 N 44.343 -0.763751 1.37857 0
M  V30 479 C 45.591 -1.51957 1.33243 0
M  V30 480 C 45.912 -1.94835 -0.0801709 0
M  V30 481 O 45.182 -1.66894 -1.02582 0
M  V30 482 H 43.762 -0.563626 0.49024 0
M  V30 483 H 46.424 -0.908504 1.7243 0
M  V30 484 H 45.52 -2.41523 1.97669 0
M  V30 485 N 45.8211 -1.22559 -0.990812 0
M  V30 486 C 47.0611 -1.06302 -1.74583 0
M  V30 487 C 47.4251 0.394737 -1.87898 0
M  V30 488 O 48.6261 0.678214 -2.60103 0
M  V30 489 C 46.8971 -1.75699 -3.11231 0
M  V30 490 S 48.4561 -1.74882 -4.02445 0
M  V30 491 H 45.2741 -0.380639 -0.600529 0
M  V30 492 H 47.8761 -1.55532 -1.18449 0
M  V30 493 H 46.5801 -2.80923 -2.99183 0
M  V30 494 H 46.1111 -1.26708 -3.72436 0
M  V30 495 H 48.1261 -0.799997 -4.89709 0
M  V30 496 N 47.2992 1.18797 -1.03562 0
M  V30 497 C 48.5242 1.9314 -0.755764 0
M  V30 498 C 48.9492 1.7537 0.68022 0
M  V30 499 O 48.3072 1.06046 1.47051 0
M  V30 500 C 48.3552 3.42747 -1.12058 0
M  V30 501 O 47.4592 4.11683 -0.243124 0
M  V30 502 H 46.8002 0.602724 -0.278604 0
M  V30 503 H 49.3302 1.50678 -1.3841 0
M  V30 504 H 49.3402 3.93437 -1.08035 0
M  V30 505 H 48.0152 3.55002 -2.16672 0
M  V30 506 H 46.5922 3.71323 -0.342539 0
M  V30 507 N 48.7773 0.814389 1.34928 0
M  V30 508 C 49.7273 0.202752 2.27097 0
M  V30 509 C 50.7113 -0.62799 1.48139 0
M  V30 510 O 51.9033 -0.483969 1.70255 0
M  V30 511 C 49.0323 -0.64146 3.37254 0
M  V30 512 C 48.1183 0.19944 4.23631 0
M  V30 513 N 48.5093 1.26628 4.89693 0
M  V30 514 C 46.8073 -0.0176433 4.45997 0
M  V30 515 C 47.5083 1.78031 5.53787 0
M  V30 516 N 46.4843 1.08553 5.32651 0
M  V30 517 H 50.2863 1.01893 2.75672 0
M  V30 518 H 47.8003 0.656332 1.48546 0
M  V30 519 H 49.7973 -1.09575 4.02243 0
M  V30 520 H 48.4573 -1.4559 2.9023 0
M  V30 521 H 49.4683 1.64901 4.90946 0
M  V30 522 H 46.1453 -0.800601 4.09752 0
M  V30 523 H 47.5353 2.67236 6.16469 0
M  V30 524 N 50.2554 -1.46986 0.568584 0
M  V30 525 C 51.1854 -2.32946 -0.160753 0
M  V30 526 C 52.1664 -1.44487 -0.897631 0
M  V30 527 O 53.3514 -1.73327 -0.875867 0
M  V30 528 C 50.4814 -3.26494 -1.18403 0
M  V30 529 C 49.4354 -4.24282 -0.562895 0
M  V30 530 C 48.7614 -5.07236 -1.69163 0
M  V30 531 C 50.0614 -5.19989 0.490761 0
M  V30 532 H 51.7554 -2.94175 0.556916 0
M  V30 533 H 49.3014 -1.4146 0.26927 0
M  V30 534 H 51.2544 -3.85477 -1.70251 0
M  V30 535 H 49.9784 -2.63343 -1.93179 0
M  V30 536 H 48.6374 -3.66541 -0.0656164 0
M  V30 537 H 48.2854 -4.4048 -2.42871 0
M  V30 538 H 47.9854 -5.7345 -1.28174 0
M  V30 539 H 49.5094 -5.6908 -2.21314 0
M  V30 540 H 50.9234 -5.73271 0.0579047 0
M  V30 541 H 49.3204 -5.94469 0.820165 0
M  V30 542 H 50.3904 -4.64777 1.3824 0
M  V30 543 N 51.7335 -0.305618 -1.54608 0
M  V30 544 C 52.9815 0.301701 -1.99835 0
M  V30 545 C 53.3025 1.54054 -1.19551 0
M  V30 546 O 52.5725 1.93702 -0.292658 0
M  V30 547 H 51.1525 0.114468 -0.738178 0
M  V30 548 H 53.8145 -0.418016 -1.90364 0
M  V30 549 H 52.9105 0.570548 -3.06841 0
M  V30 550 N 53.2116 1.57565 -0.0334293 0
M  V30 551 C 54.1436 2.0739 0.975811 0
M  V30 552 C 55.1566 0.998166 1.2861 0
M  V30 553 O 56.3456 1.27426 1.25 0
M  V30 554 C 53.4456 2.4871 2.30209 0
M  V30 555 C 52.6186 3.79413 2.17634 0
M  V30 556 C 51.6776 4.07237 3.33233 0
M  V30 557 O 50.7036 4.77425 3.09927 0
M  V30 558 N 51.9056 3.5775 4.5716 0
M  V30 559 H 54.6706 2.94598 0.55066 0
M  V30 560 H 52.2316 1.61173 0.15323 0
M  V30 561 H 54.2236 2.64413 3.06378 0
M  V30 562 H 52.7936 1.66845 2.64351 0
M  V30 563 H 52.0136 3.73465 1.26165 0
M  V30 564 H 53.3016 4.65038 2.0644 0
M  V30 565 H 52.6996 3.00976 4.78989 0
M  V30 566 H 51.2566 3.78724 5.30482 0
M  V30 567 N 54.6897 -0.239769 1.55765 0
M  V30 568 C 55.9147 -0.988373 1.82335 0
M  V30 569 C 56.3397 -1.77886 0.611421 0
M  V30 570 O 55.6977 -1.75889 -0.439639 0
M  V30 571 C 55.7457 -1.89627 3.06715 0
M  V30 572 O 54.8497 -2.98904 2.84131 0
M  V30 573 H 54.1907 -0.280858 0.601677 0
M  V30 574 H 56.7207 -0.258597 2.02959 0
M  V30 575 H 56.7307 -2.30957 3.36338 0
M  V30 576 H 55.4057 -1.31511 3.9456 0
M  V30 577 H 53.9827 -2.61651 2.65694 0
M  V30 578 N 56.1678 -1.49265 -0.50573 0
M  V30 579 C 57.3978 -1.61979 -1.28243 0
M  V30 580 C 57.8058 -0.288576 -1.86986 0
M  V30 581 O 57.1488 0.735408 -1.68337 0
M  V30 582 C 57.2108 -2.62632 -2.45489 0
M  V30 583 C 56.8748 -4.071 -2.07651 0
M  V30 584 C 57.8718 -4.94049 -1.61901 0
M  V30 585 C 55.5568 -4.52801 -2.17431 0
M  V30 586 C 57.5508 -6.24736 -1.26428 0
M  V30 587 C 55.2378 -5.83503 -1.8157 0
M  V30 588 C 56.2358 -6.69294 -1.36142 0
M  V30 589 O 55.9238 -7.9756 -1.00764 0
M  V30 590 H 55.6558 -0.54834 -0.395347 0
M  V30 591 H 58.2098 -1.96002 -0.614204 0
M  V30 592 H 56.4398 -2.2378 -3.15372 0
M  V30 593 H 58.1288 -2.64925 -3.07522 0
M  V30 594 H 58.8948 -4.5997 -1.53795 0
M  V30 595 H 54.7738 -3.86196 -2.51742 0
M  V30 596 H 58.3178 -6.91652 -0.908992 0
M  V30 597 H 54.2148 -6.17112 -1.89324 0
M  V30 598 H 54.9828 -8.10529 -1.13952 0
M  V30 599 N 57.6459 0.756429 -1.3826 0
M  V30 600 C 58.6089 1.85176 -1.35065 0
M  V30 601 C 59.6089 1.58818 -0.251703 0
M  V30 602 O 60.7989 1.66615 -0.508433 0
M  V30 603 C 57.9309 3.22596 -1.10201 0
M  V30 604 H 59.1239 1.89417 -2.3251 0
M  V30 605 H 56.6769 0.95783 -1.23512 0
M  V30 606 H 57.4119 3.24025 -0.133504 0
M  V30 607 H 57.1969 3.43122 -1.89762 0
M  V30 608 H 58.6869 4.02673 -1.10654 0
M  V30 609 N 59.124 1.23083 0.984299 0
M  V30 610 C 60.401 0.9689 1.69917 0
M  V30 611 C 60.781 -0.513604 2.04757 0
M  V30 612 O 60.129 -1.48383 1.73767 0
M  V30 613 C 60.339 1.87518 2.94343 0
M  V30 614 C 61.687 2.13636 3.6694 0
M  V30 615 O 62.711 1.85036 3.04368 0
M  V30 616 O 61.57 2.62119 4.79537 0
M  V30 617 H 58.664 0.365095 0.742048 0
M  V30 618 H 61.21 1.34107 1.03987 0
M  V30 619 H 59.982 2.87756 2.65164 0
M  V30 620 H 59.605 1.50514 3.6801 0
M  V30 621 N 60.6021 -1.18246 1.0419 0
M  V30 622 C 62.0181 -1.40269 0.761366 0
M  V30 623 C 62.2181 -1.90777 -0.648578 0
M  V30 624 O 61.2741 -2.0929 -1.41258 0
M  V30 625 C 62.5871 -2.40237 1.8085 0
M  V30 626 C 64.1351 -2.53961 1.82955 0
M  V30 627 C 64.6101 -3.57194 2.86664 0
M  V30 628 N 66.1011 -3.64702 2.85563 0
M  V30 629 C 66.8361 -4.44309 3.6246 0
M  V30 630 N 66.3321 -5.27514 4.49111 0
M  V30 631 N 68.1251 -4.39084 3.50944 0
M  V30 632 H 60.2761 -0.837882 1.95175 0
M  V30 633 H 62.5391 -0.430608 0.84456 0
M  V30 634 H 62.2451 -2.10176 2.81991 0
M  V30 635 H 62.1191 -3.39601 1.64168 0
M  V30 636 H 64.5061 -2.83338 0.824855 0
M  V30 637 H 64.5871 -1.54706 2.03715 0
M  V30 638 H 64.2311 -3.28558 3.87314 0
M  V30 639 H 64.1611 -4.5613 2.6316 0
M  V30 640 H 66.6521 -3.05289 2.22727 0
M  V30 641 H 66.9651 -5.85411 5.04493 0
M  V30 642 H 65.3101 -5.2693 4.53178 0
M  V30 643 H 68.5011 -3.7313 2.82651 0
M  V30 644 H 68.6741 -5.00883 4.11121 0
M  V30 645 N 62.0802 -0.821533 -1.34494 0
M  V30 646 C 63.3572 -0.33159 -1.92769 0
M  V30 647 C 63.7372 1.18088 -1.74981 0
M  V30 648 O 63.0852 1.98733 -1.12772 0
M  V30 649 C 63.2952 -0.759398 -3.40638 0
M  V30 650 C 64.6432 -0.757433 -4.1779 0
M  V30 651 O 65.6672 -0.70189 -3.49216 0
M  V30 652 O 64.5262 -0.829361 -5.4017 0
M  V30 653 H 61.6202 -0.0902502 -0.822061 0
M  V30 654 H 64.1662 -0.906231 -1.43477 0
M  V30 655 H 62.9382 -1.8012 -3.47379 0
M  V30 656 H 62.5612 -0.160378 -3.97276 0
M  V30 657 N 63.5583 1.46682 -0.576371 0
M  V30 658 C 64.8043 2.02712 -0.0596221 0
M  V30 659 C 65.1373 1.44765 1.29448 0
M  V30 660 O 64.4123 0.610355 1.84675 0
M  V30 661 C 64.6953 3.60098 0.0129503 0
M  V30 662 C 64.5483 4.28441 -1.3696 0
M  V30 663 C 65.8673 4.34224 0.71678 0
M  V30 664 H 62.9863 0.736637 -0.0231407 0
M  V30 665 H 65.6283 1.74898 -0.742351 0
M  V30 666 H 63.7783 3.83926 0.594378 0
M  V30 667 H 65.4503 4.15896 -1.9957 0
M  V30 668 H 63.6933 3.8805 -1.93907 0
M  V30 669 H 64.3643 5.3716 -1.27135 0
M  V30 670 H 66.8403 4.15503 0.222908 0
M  V30 671 H 65.7163 5.43936 0.73657 0
M  V30 672 H 65.9773 4.04823 1.77682 0
M  V30 673 N 65.0364 0.313813 1.54444 0
M  V30 674 C 66.2824 -0.284918 2.01395 0
M  V30 675 C 66.6374 -1.50537 1.19818 0
M  V30 676 O 65.9304 -1.89692 0.269748 0
M  V30 677 C 66.1244 -0.680386 3.50864 0
M  V30 678 C 65.9534 0.500198 4.4691 0
M  V30 679 C 64.7234 0.996248 4.95382 0
M  V30 680 C 66.9214 1.34928 4.96285 0
M  V30 681 N 64.9034 2.14226 5.75309 0
M  V30 682 C 66.2744 2.3426 5.7404 0
M  V30 683 C 68.3294 1.37818 4.78446 0
M  V30 684 C 67.0324 3.36272 6.35856 0
M  V30 685 C 69.0584 2.38695 5.4109 0
M  V30 686 C 68.4204 3.36755 6.18688 0
M  V30 687 H 64.5194 -0.0683689 0.779006 0
M  V30 688 H 67.1034 0.44664 1.89508 0
M  V30 689 H 65.2744 -1.38109 3.63016 0
M  V30 690 H 67.0064 -1.25975 3.84594 0
M  V30 691 H 63.7614 0.56912 4.70168 0
M  V30 692 H 64.1854 2.72005 6.19953 0
M  V30 693 H 68.8274 0.633747 4.18023 0
M  V30 694 H 66.5454 4.11627 6.95405 0
M  V30 695 H 70.1314 2.41721 5.29209 0
M  V30 696 H 69.0114 4.13535 6.66302 0
M  V30 697 N 66.5145 -1.57545 0.0417849 0
M  V30 698 C 67.4615 -2.10977 -0.935805 0
M  V30 699 C 68.4315 -1.01486 -1.31491 0
M  V30 700 O 69.6165 -1.2898 -1.40602 0
M  V30 701 C 66.7565 -2.65169 -2.2086 0
M  V30 702 C 65.8695 -3.88714 -1.88482 0
M  V30 703 C 65.0045 -4.31254 -3.1015 0
M  V30 704 C 64.0435 -5.47524 -2.7365 0
M  V30 705 N 63.1805 -5.85162 -3.87982 0
M  V30 706 H 68.0205 -2.94218 -0.473249 0
M  V30 707 H 65.5575 -1.45415 -0.221981 0
M  V30 708 H 67.5155 -2.94685 -2.95325 0
M  V30 709 H 66.1455 -1.8474 -2.64709 0
M  V30 710 H 65.1975 -3.65849 -1.04205 0
M  V30 711 H 66.5095 -4.73245 -1.57608 0
M  V30 712 H 65.6635 -4.62273 -3.92923 0
M  V30 713 H 64.4025 -3.45516 -3.44195 0
M  V30 714 H 63.4075 -5.16187 -1.89291 0
M  V30 715 H 64.6325 -6.34971 -2.40807 0
M  V30 716 H 62.5785 -5.02377 -4.21846 0
M  V30 717 H 62.4955 -6.64362 -3.60775 0
M  V30 718 H 63.7635 -6.20791 -4.71422 0
M  V30 719 N 67.9926 0.231505 -1.5589 0
M  V30 720 C 69.4036 0.799327 -1.68724 0
M  V30 721 C 69.7546 1.85398 -0.642022 0
M  V30 722 O 68.8796 2.1539 0.208784 0
M  V30 723 C 69.4746 1.45664 -3.05888 0
M  V30 724 C 68.0336 1.97197 -3.20609 0
M  V30 725 C 67.1806 0.828552 -2.64632 0
M  V30 726 H 70.1316 0.00702616 -1.58698 0
M  V30 727 H 70.1526 2.32517 -3.01191 0
M  V30 728 H 69.6646 0.688808 -3.81939 0
M  V30 729 H 67.7656 2.76813 -2.4941 0
M  V30 730 H 67.8786 2.15878 -4.27707 0
M  V30 731 H 66.2426 1.23321 -2.22854 0
M  V30 732 H 67.0256 0.0735544 -3.43221 0
M  V30 733 N 69.4707 1.49531 0.497807 0
M  V30 734 C 70.3807 1.69176 1.62532 0
M  V30 735 C 71.3967 0.5744 1.64246 0
M  V30 736 O 72.5727 0.849497 1.82608 0
M  V30 737 C 69.6377 1.75695 2.98885 0
M  V30 738 C 68.6987 2.9929 3.07773 0
M  V30 739 C 67.9317 3.05488 4.37622 0
M  V30 740 O 68.1547 2.19192 5.26603 0
M  V30 741 O 67.0887 3.9798 4.51548 0
M  V30 742 H 70.9147 2.647 1.48887 0
M  V30 743 H 68.4997 1.3331 0.674441 0
M  V30 744 H 70.3817 1.82317 3.79919 0
M  V30 745 H 69.0567 0.8335 3.12785 0
M  V30 746 H 67.9637 2.98183 2.25915 0
M  V30 747 H 69.2967 3.91125 2.98801 0
M  V30 748 N 70.9488 -0.749086 1.3866 0
M  V30 749 C 72.3598 -1.32664 1.31366 0
M  V30 750 C 72.7108 -1.96179 -0.028484 0
M  V30 751 O 71.8358 -1.9537 -0.93057 0
M  V30 752 C 72.4308 -2.41219 2.37905 0
M  V30 753 C 70.9898 -2.94684 2.34176 0
M  V30 754 C 70.1368 -1.68108 2.20533 0
M  V30 755 H 73.0878 -0.547628 1.48952 0
M  V30 756 H 73.1088 -3.21268 2.0388 0
M  V30 757 H 72.6208 -1.94962 3.35576 0
M  V30 758 H 70.7218 -3.45258 1.401 0
M  V30 759 H 70.8348 -3.48757 3.2849 0
M  V30 760 H 69.1988 -1.91907 1.67463 0
M  V30 761 H 69.9818 -1.23923 3.20153 0
M  V30 762 N 72.4269 -1.23603 -0.977757 0
M  V30 763 C 73.6669 -1.08148 -1.73446 0
M  V30 764 C 74.0309 0.374785 -1.88307 0
M  V30 765 O 75.2319 0.650588 -2.60808 0
M  V30 766 C 73.5029 -1.78991 -3.0935 0
M  V30 767 S 75.0619 -1.79141 -4.00567 0
M  V30 768 H 71.8799 -0.386987 -0.596458 0
M  V30 769 H 74.4819 -1.5678 -1.16792 0
M  V30 770 H 73.1859 -2.8408 -2.96187 0
M  V30 771 H 72.7169 -1.30651 -3.71071 0
M  V30 772 H 74.7319 -0.851892 -4.88833 0
M  V30 773 N 73.905 1.17692 -1.04816 0
M  V30 774 C 74.837 2.21103 -0.603822 0
M  V30 775 C 75.85 1.59411 0.33046 0
M  V30 776 O 77.039 1.7807 0.12379 0
M  V30 777 C 74.139 3.38623 0.136898 0
M  V30 778 C 73.312 4.29888 -0.807137 0
M  V30 779 C 72.371 5.26088 -0.10836 0
M  V30 780 O 71.397 5.64353 -0.741232 0
M  V30 781 N 72.599 5.68882 1.15558 0
M  V30 782 H 75.364 2.59848 -1.49329 0
M  V30 783 H 72.925 1.32553 -0.929587 0
M  V30 784 H 74.917 4.00009 0.614401 0
M  V30 785 H 73.487 2.98508 0.927993 0
M  V30 786 H 72.707 3.65993 -1.46434 0
M  V30 787 H 73.995 4.87759 -1.44807 0
M  V30 788 H 73.393 5.39861 1.69015 0
M  V30 789 H 71.95 6.32429 1.57722 0
M  V30 790 N 75.3831 0.828654 1.34056 0
M  V30 791 C 76.6321 0.415828 1.97367 0
M  V30 792 C 76.9451 -1.02796 1.6641 0
M  V30 793 O 78.1511 -1.54497 2.23255 0
M  V30 794 C 76.6071 0.692601 3.53173 0
M  V30 795 C 76.2151 2.15038 3.93017 0
M  V30 796 C 77.9591 0.346222 4.23086 0
M  V30 797 C 75.8661 2.37174 5.41758 0
M  V30 798 H 74.7961 0.151755 0.738571 0
M  V30 799 H 77.4471 1.01581 1.52819 0
M  V30 800 H 75.8291 0.0223764 3.95994 0
M  V30 801 H 77.0031 2.86024 3.61285 0
M  V30 802 H 75.3181 2.45875 3.36057 0
M  V30 803 H 77.9151 0.48937 5.32456 0
M  V30 804 H 78.2581 -0.709842 4.10204 0
M  V30 805 H 78.7911 0.971258 3.85761 0
M  V30 806 H 75.5301 3.41308 5.59633 0
M  V30 807 H 75.0501 1.70738 5.74986 0
M  V30 808 H 76.7291 2.19818 6.08514 0
M  V30 809 N 76.8612 -1.46375 0.584142 0
M  V30 810 C 78.1012 -2.0427 0.0729695 0
M  V30 811 C 78.4652 -1.44563 -1.26355 0
M  V30 812 O 79.6662 -1.93667 -1.86405 0
M  V30 813 C 77.9372 -3.57399 0.00967464 0
M  V30 814 S 79.4962 -4.36551 -0.443714 0
M  V30 815 H 76.3142 -0.709975 0.0381673 0
M  V30 816 H 78.9162 -1.79398 0.776962 0
M  V30 817 H 77.6202 -3.98372 0.986319 0
M  V30 818 H 77.1512 -3.8681 -0.717044 0
M  V30 819 H 79.1662 -4.66237 -1.69816 0
M  V30 820 N 78.3393 -0.321999 -1.54275 0
M  V30 821 C 79.5853 0.281461 -2.00837 0
M  V30 822 C 79.9183 1.51909 -1.20985 0
M  V30 823 O 79.1933 1.923 -0.291733 0
M  V30 824 C 79.4763 0.617162 -3.54772 0
M  V30 825 C 79.3293 -0.631064 -4.45351 0
M  V30 826 C 80.6483 1.43542 -4.16033 0
M  V30 827 H 77.7673 0.100826 -0.730071 0
M  V30 828 H 80.4093 -0.438268 -1.84876 0
M  V30 829 H 78.5593 1.23034 -3.68504 0
M  V30 830 H 80.2313 -1.26934 -4.43492 0
M  V30 831 H 78.4743 -1.26025 -4.15091 0
M  V30 832 H 79.1453 -0.351735 -5.50878 0
M  V30 833 H 81.6213 0.917134 -4.05867 0
M  V30 834 H 80.4973 1.63907 -5.23856 0
M  V30 835 H 80.7583 2.43108 -3.69257 0
M  V30 836 N 79.8174 1.5752 -0.0501392 0
M  V30 837 C 81.0574 1.94521 0.627783 0
M  V30 838 C 81.4214 0.928265 1.68069 0
M  V30 839 O 82.6224 1.18517 2.41261 0
M  V30 840 C 80.8934 3.36319 1.20932 0
M  V30 841 S 82.4524 3.95272 1.90539 0
M  V30 842 H 79.2704 0.680456 0.206158 0
M  V30 843 H 81.8724 1.95139 -0.118829 0
M  V30 844 H 80.5764 4.08132 0.430865 0
M  V30 845 H 80.1074 3.39193 1.99277 0
M  V30 846 H 82.1224 3.80415 3.18589 0
M  V30 847 N 81.2955 -0.223234 1.56011 0
M  V30 848 C 82.5725 -0.972108 1.69733 0
M  V30 849 C 82.9525 -2.02485 0.59691 0
M  V30 850 O 82.3005 -2.25037 -0.396324 0
M  V30 851 C 82.5105 -1.58407 3.10979 0
M  V30 852 C 83.8585 -2.07696 3.70334 0
M  V30 853 O 84.8825 -1.68304 3.1393 0
M  V30 854 O 83.7415 -2.80096 4.69264 0
M  V30 855 H 80.8355 -0.453993 0.691245 0
M  V30 856 H 83.3815 -0.215149 1.68331 0
M  V30 857 H 82.1535 -0.823831 3.82529 0
M  V30 858 H 81.7765 -2.40661 3.16493 0
M  V30 859 N 82.7736 -1.49793 -0.48987 0
M  V30 860 C 83.9986 -1.63836 -1.27172 0
M  V30 861 C 84.4236 -0.31402 -1.8546 0
M  V30 862 O 83.7816 0.719803 -1.66399 0
M  V30 863 C 83.8296 -2.71797 -2.36978 0
M  V30 864 O 82.9336 -2.31744 -3.41128 0
M  V30 865 H 82.2746 -0.547997 -0.37496 0
M  V30 866 H 84.8046 -1.96053 -0.585191 0
M  V30 867 H 84.8146 -2.94305 -2.82575 0
M  V30 868 H 83.4896 -3.67923 -1.93921 0
M  V30 869 H 82.0666 -2.1961 -3.01373 0
M  V30 870 N 84.2517 0.741722 -1.39055 0
M  V30 871 C 85.4997 1.49818 -1.35643 0
M  V30 872 C 85.8207 1.94938 0.0491642 0
M  V30 873 O 85.0907 1.68505 0.999141 0
M  V30 874 H 83.6707 0.555755 -0.499144 0
M  V30 875 H 86.3327 0.880957 -1.73854 0
M  V30 876 H 85.4287 2.38348 -2.01486 0
M  V30 877 N 85.7298 1.2412 0.971189 0
M  V30 878 C 86.9548 1.10667 1.75407 0
M  V30 879 C 87.3798 -0.337048 1.85056 0
M  V30 880 O 86.7378 -1.24396 1.31892 0
M  V30 881 C 86.7858 1.74726 3.15441 0
M  V30 882 O 85.8898 1.01566 3.99697 0
M  V30 883 H 85.2308 0.387341 0.539317 0
M  V30 884 H 87.7608 1.64358 1.2185 0
M  V30 885 H 87.7708 1.80341 3.6598 0
M  V30 886 H 86.4458 2.79773 3.07734 0
M  V30 887 H 85.0228 1.03713 3.58187 0
M  V30 888 N 87.2079 -1.17134 1.05439 0
M  V30 889 C 88.4539 -1.87733 0.767077 0
M  V30 890 C 88.7869 -1.8098 -0.704253 0
M  V30 891 O 88.0619 -1.21951 -1.5152 0
M  V30 892 C 88.3449 -3.37659 1.25133 0
M  V30 893 C 88.1979 -3.53149 2.78578 0
M  V30 894 C 89.5169 -4.31768 0.852324 0
M  V30 895 H 86.6359 -0.681687 0.280129 0
M  V30 896 H 89.2779 -1.37732 1.30881 0
M  V30 897 H 87.4279 -3.80373 0.790469 0
M  V30 898 H 89.0999 -3.19434 3.32806 0
M  V30 899 H 87.3429 -2.95345 3.17732 0
M  V30 900 H 88.0139 -4.58403 3.07523 0
M  V30 901 H 90.4899 -3.96909 1.24911 0
M  V30 902 H 89.3659 -5.35199 1.21873 0
M  V30 903 H 89.6269 -4.41429 -0.243485 0
M  V30 904 N 88.686 -0.835752 -1.33615 0
M  V30 905 C 89.616 -0.281739 -2.31794 0
M  V30 906 C 90.597 0.608833 -1.58831 0
M  V30 907 O 91.782 0.533035 -1.86741 0
M  V30 908 C 88.912 0.546612 -3.42971 0
M  V30 909 C 87.866 -0.247904 -4.27281 0
M  V30 910 C 87.192 0.704001 -5.30045 0
M  V30 911 C 88.492 -1.46324 -5.01385 0
M  V30 912 H 90.186 -1.10206 -2.78379 0
M  V30 913 H 87.732 -0.531388 -1.33837 0
M  V30 914 H 89.685 0.944467 -4.1068 0
M  V30 915 H 88.409 1.40011 -2.95067 0
M  V30 916 H 87.068 -0.627281 -3.61194 0
M  V30 917 H 86.716 1.55381 -4.78399 0
M  V30 918 H 86.416 0.176524 -5.87335 0
M  V30 919 H 87.94 1.09944 -6.0062 0
M  V30 920 H 89.354 -1.13871 -5.61877 0
M  V30 921 H 87.751 -1.92728 -5.6831 0
M  V30 922 H 88.821 -2.23467 -4.30338 0
M  V30 923 N 90.1641 1.46063 -0.591896 0
M  V30 924 C 91.4041 2.04228 -0.0838014 0
M  V30 925 C 91.7681 1.45231 1.25587 0
M  V30 926 O 92.9691 1.94653 1.85375 0
M  V30 927 C 91.2401 3.57389 -0.0286282 0
M  V30 928 S 92.7991 4.3678 0.420557 0
M  V30 929 H 89.6171 0.709762 -0.0419319 0
M  V30 930 H 92.2191 1.78983 -0.786465 0
M  V30 931 H 90.9231 3.97843 -1.00743 0
M  V30 932 H 90.4541 3.87185 0.69652 0
M  V30 933 H 92.4691 4.67131 1.67341 0
M  V30 934 N 91.6422 0.330177 1.54103 0
M  V30 935 C 92.9192 -0.325007 1.92881 0
M  V30 936 C 93.2992 -1.6934 1.26045 0
M  V30 937 O 92.6472 -2.24855 0.406526 0
M  V30 938 C 92.8572 -0.410634 3.46576 0
M  V30 939 C 94.2052 -0.667801 4.19316 0
M  V30 940 O 95.2292 -0.49329 3.52768 0
M  V30 941 O 94.0882 -1.00491 5.37181 0
M  V30 942 H 91.1822 -0.186873 0.80561 0
M  V30 943 H 93.7282 0.380376 1.65382 0
M  V30 944 H 92.5002 0.550164 3.87413 0
M  V30 945 H 92.1232 -1.16333 3.802 0
M  V30 946 N 93.1203 -1.57491 0.0584922 0
M  V30 947 C 94.3973 -1.84346 -0.653918 0
M  V30 948 C 94.7773 -0.948355 -1.88599 0
M  V30 949 O 94.1253 -0.0112403 -2.28497 0
M  V30 950 C 94.3353 -3.34239 -1.00425 0
M  V30 951 C 95.6833 -4.01431 -1.38342 0
M  V30 952 O 96.7073 -3.38907 -1.09637 0
M  V30 953 O 95.5663 -5.11683 -1.91943 0
M  V30 954 H 92.6603 -0.761112 -0.323478 0
M  V30 955 H 95.2063 -1.6947 0.0884125 0
M  V30 956 H 93.9783 -3.91089 -0.128625 0
M  V30 957 H 93.6013 -3.54329 -1.80378 0
M  V30 958 N 94.5984 0.214957 -1.56127 0
M  V30 959 C 95.8474 0.936451 -1.78643 0
M  V30 960 C 96.1604 1.85237 -0.628229 0
M  V30 961 O 97.3664 2.613 -0.737186 0
M  V30 962 C 95.8224 1.7154 -3.16389 0
M  V30 963 C 95.4304 0.845299 -4.39953 0
M  V30 964 C 97.1744 2.42772 -3.48227 0
M  V30 965 C 95.0814 1.62198 -5.68723 0
M  V30 966 H 94.0114 0.353401 -0.666051 0
M  V30 967 H 96.6624 0.190169 -1.82512 0
M  V30 968 H 95.0444 2.50484 -3.06715 0
M  V30 969 H 96.2184 0.0959353 -4.607 0
M  V30 970 H 94.5334 0.244789 -4.1568 0
M  V30 971 H 97.1304 3.01394 -4.41663 0
M  V30 972 H 97.4734 3.15984 -2.71035 0
M  V30 973 H 98.0064 1.70813 -3.5926 0
M  V30 974 H 94.7454 0.933011 -6.48826 0
M  V30 975 H 94.2654 2.34579 -5.52026 0
M  V30 976 H 95.9444 2.18095 -6.09133 0
M  V30 977 N 96.0765 1.50051 0.48192 0
M  V30 978 C 97.3255 1.59741 1.23149 0
M  V30 979 C 97.6385 0.298163 1.93314 0
M  V30 980 O 98.8445 0.273835 2.70116 0
M  V30 981 C 97.3005 2.81926 2.23708 0
M  V30 982 C 96.9085 4.18685 1.59396 0
M  V30 983 C 98.6525 3.00956 2.99375 0
M  V30 984 C 96.5595 5.3207 2.58178 0
M  V30 985 H 95.4895 0.594838 0.46334 0
M  V30 986 H 98.1405 1.76467 0.503169 0
M  V30 987 H 96.5225 2.58736 2.99786 0
M  V30 988 H 97.6965 4.52088 0.891811 0
M  V30 989 H 96.0115 4.05171 0.960503 0
M  V30 990 H 98.6085 3.82836 3.73283 0
M  V30 991 H 98.9515 2.12258 3.58123 0
M  V30 992 H 99.4845 3.24277 2.30411 0
M  V30 993 H 96.2235 6.22888 2.04184 0
M  V30 994 H 95.7435 5.03098 3.26577 0
M  V30 995 H 97.4225 5.62196 3.20225 0
M  V30 996 N 97.5546 -0.734337 1.39446 0
M  V30 997 C 98.7946 -1.50655 1.38139 0
M  V30 998 C 99.1586 -1.91986 -0.0228701 0
M  V30 999 O 100.36 -2.68318 -0.160947 0
M  V30 1000 C 98.6306 -2.71251 2.32718 0
M  V30 1001 S 100.19 -3.60892 2.49605 0
M  V30 1002 H 97.0076 -0.515315 0.489869 0
M  V30 1003 H 99.6096 -0.860392 1.75549 0
M  V30 1004 H 98.3136 -2.39027 3.33608 0
M  V30 1005 H 97.8446 -3.40795 1.96526 0
M  V30 1006 H 99.8596 -4.64899 1.73446 0
M  V30 1007 N 99.0327 -1.24633 -0.964593 0
M  V30 1008 C 100.31 -0.995809 -1.68354 0
M  V30 1009 C 100.69 0.480964 -2.05548 0
M  V30 1010 O 100.038 1.45599 -1.76105 0
M  V30 1011 C 100.248 -1.92177 -2.91323 0
M  V30 1012 C 101.596 -2.19446 -3.63495 0
M  V30 1013 O 102.62 -1.89855 -3.01386 0
M  V30 1014 O 101.479 -2.69714 -4.75307 0
M  V30 1015 H 98.5727 -0.376854 -0.736146 0
M  V30 1016 H 101.119 -1.35745 -1.0184 0
M  V30 1017 H 99.8907 -2.91938 -2.60553 0
M  V30 1018 H 99.5137 -1.56349 -3.65569 0
M  V30 1019 N 100.511 1.16574 -1.06058 0
M  V30 1020 C 101.788 1.83048 -0.689416 0
M  V30 1021 C 102.168 1.94122 0.829443 0
M  V30 1022 O 101.516 1.48249 1.7388 0
M  V30 1023 C 101.726 3.20186 -1.38859 0
M  V30 1024 C 103.074 3.95989 -1.53226 0
M  V30 1025 O 104.098 3.29696 -1.3483 0
M  V30 1026 O 102.957 5.14813 -1.83384 0
M  V30 1027 H 100.051 0.790258 -0.243764 0
M  V30 1028 H 102.597 1.23797 -1.16071 0
M  V30 1029 H 101.369 3.07146 -2.4244 0
M  V30 1030 H 100.992 3.87112 -0.907216 0
M  V30 1031 N 101.989 0.842826 1.3317 0
M  V30 1032 C 102.921 0.236245 2.27979 0
M  V30 1033 C 103.934 -0.585282 1.51915 0
M  V30 1034 O 105.123 -0.411705 1.73687 0
M  V30 1035 C 102.223 -0.685717 3.3189 0
M  V30 1036 C 101.396 0.0973448 4.37292 0
M  V30 1037 C 100.455 -0.748565 5.20848 0
M  V30 1038 O 99.4809 -0.186339 5.68895 0
M  V30 1039 N 100.683 -2.06527 5.42519 0
M  V30 1040 H 103.448 1.05088 2.80672 0
M  V30 1041 H 101.009 0.701667 1.45905 0
M  V30 1042 H 103.001 -1.25669 3.84694 0
M  V30 1043 H 101.571 -1.40105 2.79445 0
M  V30 1044 H 100.791 0.849706 3.84933 0
M  V30 1045 H 102.079 0.635643 5.04814 0
M  V30 1046 H 101.477 -2.54554 5.05192 0
M  V30 1047 H 100.034 -2.58464 5.98364 0
M  V30 1048 N 103.467 -1.45747 0.599634 0
M  V30 1049 C 104.377 -2.34262 -0.125888 0
M  V30 1050 C 105.393 -1.50768 -0.868625 0
M  V30 1051 O 106.569 -1.83592 -0.828003 0
M  V30 1052 C 103.634 -3.28252 -1.11587 0
M  V30 1053 C 102.695 -4.27651 -0.375956 0
M  V30 1054 C 101.928 -5.1715 -1.31877 0
M  V30 1055 O 102.151 -5.09916 -2.55621 0
M  V30 1056 O 101.085 -5.96286 -0.820157 0
M  V30 1057 H 104.911 -2.97688 0.601315 0
M  V30 1058 H 102.496 -1.44999 0.359934 0
M  V30 1059 H 104.378 -3.86191 -1.68626 0
M  V30 1060 H 103.053 -2.67401 -1.82424 0
M  V30 1061 H 101.96 -3.7335 0.236698 0
M  V30 1062 H 103.293 -4.91334 0.29177 0
M  V30 1063 N 104.945 -0.338344 -1.53925 0
M  V30 1064 C 105.875 0.51328 -2.27789 0
M  V30 1065 C 106.856 1.107 -1.29149 0
M  V30 1066 O 108.041 1.12937 -1.57984 0
M  V30 1067 C 105.171 1.66697 -3.04679 0
M  V30 1068 C 104.125 1.20183 -4.1078 0
M  V30 1069 C 103.451 2.44363 -4.75595 0
M  V30 1070 C 104.751 0.30605 -5.21403 0
M  V30 1071 H 106.445 -0.102883 -2.99223 0
M  V30 1072 H 103.991 -0.0509219 -1.4391 0
M  V30 1073 H 105.944 2.26915 -3.55088 0
M  V30 1074 H 104.668 2.30995 -2.30887 0
M  V30 1075 H 103.327 0.622499 -3.61276 0
M  V30 1076 H 102.975 3.07057 -3.98403 0
M  V30 1077 H 102.675 2.13925 -5.47275 0
M  V30 1078 H 104.199 3.05317 -5.28786 0
M  V30 1079 H 105.613 0.814929 -5.67478 0
M  V30 1080 H 104.01 0.0937929 -6.00027 0
M  V30 1081 H 105.08 -0.65921 -4.80398 0
M  V30 1082 N 106.423 1.57458 -0.0668435 0
M  V30 1083 C 107.7 1.8469 0.644132 0
M  V30 1084 C 108.08 0.958343 1.88093 0
M  V30 1085 O 107.428 0.0233579 2.28488 0
M  V30 1086 C 107.638 3.34767 0.986509 0
M  V30 1087 C 108.986 4.02159 1.36212 0
M  V30 1088 O 110.01 3.39484 1.07839 0
M  V30 1089 O 108.869 5.12694 1.89227 0
M  V30 1090 H 105.963 0.762816 0.319437 0
M  V30 1091 H 108.509 1.6942 -0.0973986 0
M  V30 1092 H 107.281 3.91151 0.107883 0
M  V30 1093 H 106.904 3.55281 1.78497 0
M  V30 1094 N 107.901 -0.206675 1.56239 0
M  V30 1095 C 109.141 -0.93574 1.81723 0
M  V30 1096 C 109.505 -1.80927 0.642609 0
M  V30 1097 O 110.706 -2.57323 0.777081 0
M  V30 1098 C 108.977 -1.74012 3.12177 0
M  V30 1099 S 110.536 -2.52279 3.59028 0
M  V30 1100 H 107.354 -0.314065 0.637875 0
M  V30 1101 H 109.956 -0.200071 1.94474 0
M  V30 1102 H 108.66 -1.0888 3.95693 0
M  V30 1103 H 108.191 -2.51782 3.02274 0
M  V30 1104 H 110.206 -3.76209 3.23545 0
M  V30 1105 N 109.379 -1.50304 -0.473955 0
M  V30 1106 C 110.79 -1.54042 -1.0549 0
M  V30 1107 C 111.141 -0.342248 -1.93192 0
M  V30 1108 O 110.266 0.545157 -2.09421 0
M  V30 1109 C 110.861 -2.79152 -1.91989 0
M  V30 1110 C 109.42 -2.8558 -2.45196 0
M  V30 1111 C 108.567 -2.48295 -1.2347 0
M  V30 1112 H 111.518 -1.5661 -0.256693 0
M  V30 1113 H 111.539 -2.60845 -2.7702 0
M  V30 1114 H 111.051 -3.66339 -1.28131 0
M  V30 1115 H 109.152 -2.02738 -3.12615 0
M  V30 1116 H 109.265 -3.88403 -2.80499 0
M  V30 1117 H 107.629 -2.00669 -1.56856 0
M  V30 1118 H 108.412 -3.37787 -0.612789 0
M  V30 1119 N 110.857 0.726932 -1.39834 0
M  V30 1120 C 111.805 1.86235 -1.39353 0
M  V30 1121 C 112.799 1.67144 -0.275555 0
M  V30 1122 O 114.005 1.74387 -0.44601 0
M  V30 1123 H 110.38 0.613174 -0.43534 0
M  V30 1124 H 112.351 1.83756 -2.35109 0
M  V30 1125 C 111.1 3.23995 -1.26185 0
M  V30 1126 H 110.423 3.39285 -2.11484 0
M  V30 1127 H 111.863 4.03609 -1.29907 0
M  V30 1128 C 110.322 3.36888 0.0290018 0
M  V30 1129 O 110.852 3.89152 0.99619 0
M  V30 1130 N 109.058 2.90446 0.0947437 0
M  V30 1131 H 108.605 2.48102 -0.693035 0
M  V30 1132 H 108.563 2.99451 0.957932 0
M  V30 1133 N 112.336 1.25143 0.95797 0
M  V30 1134 C 113.747 1.08851 1.51685 0
M  V30 1135 C 114.098 -0.33687 1.93286 0
M  V30 1136 O 113.223 -1.22644 1.7829 0
M  V30 1137 C 113.818 1.96978 2.75654 0
M  V30 1138 C 112.377 1.84881 3.27866 0
M  V30 1139 C 111.524 1.91329 2.0072 0
M  V30 1140 H 114.475 1.38478 0.77522 0
M  V30 1141 H 114.496 1.5078 3.4935 0
M  V30 1142 H 114.008 3.00712 2.45345 0
M  V30 1143 H 112.109 0.840182 3.63004 0
M  V30 1144 H 112.222 2.6951 3.96107 0
M  V30 1145 H 110.586 1.35174 2.15871 0
M  V30 1146 H 111.369 2.96661 1.72764 0
M  V30 1147 N 113.814 -1.1601 1.06675 0
M  V30 1148 C 114.724 -2.24156 0.692179 0
M  V30 1149 C 115.74 -1.71507 -0.293513 0
M  V30 1150 O 116.916 -2.009 -0.141861 0
M  V30 1151 C 113.981 -3.46587 0.0884131 0
M  V30 1152 C 113.042 -4.14257 1.12646 0
M  V30 1153 C 112.275 -5.30844 0.551416 0
M  V30 1154 O 112.498 -5.66858 -0.634656 0
M  V30 1155 O 111.432 -5.87848 1.29298 0
M  V30 1156 H 115.258 -2.58513 1.59388 0
M  V30 1157 H 112.843 -1.23599 0.83926 0
M  V30 1158 H 114.725 -4.20679 -0.246361 0
M  V30 1159 H 113.4 -3.13994 -0.786712 0
M  V30 1160 H 112.307 -3.42118 1.51348 0
M  V30 1161 H 113.64 -4.50914 1.97325 0
M  V30 1162 N 115.292 -0.849877 -1.32721 0
M  V30 1163 C 116.541 -0.447175 -1.96681 0
M  V30 1164 C 116.854 1.00135 -1.68025 0
M  V30 1165 O 118.06 1.50926 -2.25685 0
M  V30 1166 C 116.516 -0.7487 -3.52026 0
M  V30 1167 C 116.124 -2.21264 -3.89546 0
M  V30 1168 C 117.868 -0.413487 -4.22481 0
M  V30 1169 C 115.775 -2.45763 -5.37917 0
M  V30 1170 H 114.705 -0.163486 -0.736063 0
M  V30 1171 H 117.356 -1.03999 -1.51183 0
M  V30 1172 H 115.738 -0.0853727 -3.95908 0
M  V30 1173 H 116.912 -2.91736 -3.56689 0
M  V30 1174 H 115.227 -2.5119 -3.32103 0
M  V30 1175 H 117.824 -0.574017 -5.3161 0
M  V30 1176 H 118.167 0.644492 -4.11281 0
M  V30 1177 H 118.7 -1.03251 -3.84167 0
M  V30 1178 H 115.439 -3.50168 -5.54132 0
M  V30 1179 H 114.959 -1.79864 -5.72197 0
M  V30 1180 H 116.638 -2.29471 -6.0494 0
M  V30 1181 N 116.77 1.45427 -0.607355 0
M  V30 1182 C 118.181 1.85756 -0.187535 0
M  V30 1183 C 118.532 1.5077 1.25551 0
M  V30 1184 O 117.657 0.93427 1.95193 0
M  V30 1185 C 118.252 3.37154 -0.333572 0
M  V30 1186 C 116.811 3.76387 0.0315542 0
M  V30 1187 C 115.958 2.69377 -0.658117 0
M  V30 1188 H 118.909 1.36231 -0.81405 0
M  V30 1189 H 118.93 3.78014 0.43428 0
M  V30 1190 H 118.442 3.62586 -1.38393 0
M  V30 1191 H 116.543 3.56571 1.0811 0
M  V30 1192 H 116.656 4.77731 -0.361935 0
M  V30 1193 H 115.02 2.5452 -0.0957873 0
M  V30 1194 H 115.803 2.97646 -1.7106 0
M  V30 1195 N 118.248 0.346503 1.53744 0
M  V30 1196 C 119.495 -0.249104 2.00962 0
M  V30 1197 C 119.823 -1.5032 1.23426 0
M  V30 1198 O 119.078 -1.93217 0.310761 0
M  V30 1199 C 119.377 -0.605809 3.52228 0
M  V30 1200 C 119.043 0.551747 4.47512 0
M  V30 1201 C 117.705 0.86941 4.73281 0
M  V30 1202 C 120.057 1.32818 5.03993 0
M  V30 1203 C 117.385 1.96582 5.52786 0
M  V30 1204 C 119.737 2.41486 5.84694 0
M  V30 1205 C 118.401 2.73808 6.08757 0
M  V30 1206 H 117.671 -0.0911538 0.735372 0
M  V30 1207 H 120.318 0.475027 1.85515 0
M  V30 1208 H 118.623 -1.4107 3.65522 0
M  V30 1209 H 120.32 -1.07858 3.86222 0
M  V30 1210 H 116.91 0.294102 4.2759 0
M  V30 1211 H 121.094 1.09602 4.84047 0
M  V30 1212 H 116.35 2.22045 5.69654 0
M  V30 1213 H 120.524 3.02078 6.27473 0
M  V30 1214 H 118.151 3.58892 6.7015 0
M  V30 1215 N 119.726 -1.57421 0.075193 0
M  V30 1216 C 120.974 -1.93236 -0.591974 0
M  V30 1217 C 121.295 -0.956241 -1.69944 0
M  V30 1218 O 120.565 -0.00494792 -1.95899 0
M  V30 1219 H 119.145 -0.713355 -0.22166 0
M  V30 1220 H 121.807 -1.9444 0.133848 0
M  V30 1221 H 120.903 -2.95131 -1.01509 0
M  V30 1222 N 121.204 0.198386 -1.56346 0
M  V30 1223 C 122.114 1.2664 -1.97483 0
M  V30 1224 C 123.13 1.49989 -0.882002 0
M  V30 1225 O 124.306 1.62668 -1.18748 0
M  V30 1226 C 121.371 2.59141 -2.30319 0
M  V30 1227 C 120.432 2.43892 -3.53292 0
M  V30 1228 C 119.665 3.70074 -3.84553 0
M  V30 1229 O 119.888 4.74101 -3.1715 0
M  V30 1230 O 118.822 3.658 -4.7799 0
M  V30 1231 H 122.648 0.947304 -2.88548 0
M  V30 1232 H 120.233 0.403123 -1.43859 0
M  V30 1233 H 122.115 3.37352 -2.5253 0
M  V30 1234 H 120.79 2.90684 -1.42423 0
M  V30 1235 H 119.697 1.63803 -3.36332 0
M  V30 1236 H 121.03 2.17282 -4.41644 0
M  V30 1237 N 122.682 1.50554 0.465978 0
M  V30 1238 C 123.922 1.63439 1.22747 0
M  V30 1239 C 124.286 0.329822 1.89146 0
M  V30 1240 O 125.487 0.334161 2.66715 0
M  V30 1241 C 123.758 2.78542 2.2394 0
M  V30 1242 S 125.317 3.11591 3.0896 0
M  V30 1243 H 122.135 0.576113 0.416672 0
M  V30 1244 H 124.737 1.88357 0.523641 0
M  V30 1245 H 123.441 3.71805 1.7375 0
M  V30 1246 H 122.972 2.55726 2.98944 0
M  V30 1247 H 124.987 2.55811 4.25176 0
M  V30 1248 N 124.16 -0.719506 1.40217 0
M  V30 1249 C 125.4 -1.49181 1.39729 0
M  V30 1250 C 125.764 -1.92 -0.00250614 0
M  V30 1251 O 126.965 -2.68473 -0.132479 0
M  V30 1252 C 125.236 -2.68767 2.35582 0
M  V30 1253 S 126.795 -3.58224 2.53418 0
M  V30 1254 H 123.613 -0.510091 0.495307 0
M  V30 1255 H 126.215 -0.841724 1.76452 0
M  V30 1256 H 124.919 -2.35475 3.36124 0
M  V30 1257 H 124.45 -3.38691 2.0013 0
M  V30 1258 H 126.465 -4.63033 1.78367 0
M  V30 1259 N 125.638 -1.25649 -0.95132 0
M  V30 1260 C 126.601 -1.06399 -2.03007 0
M  V30 1261 C 127.601 -0.0156794 -1.60792 0
M  V30 1262 O 128.791 -0.25817 -1.72276 0
M  V30 1263 C 125.923 -0.616184 -3.35285 0
M  V30 1264 H 127.116 -2.02164 -2.21517 0
M  V30 1265 H 124.669 -1.08103 -1.12887 0
M  V30 1266 H 125.404 0.343917 -3.22471 0
M  V30 1267 H 125.189 -1.37301 -3.67275 0
M  V30 1268 H 126.679 -0.503032 -4.14559 0
M  V30 1269 N 127.117 1.15442 -1.07289 0
M  V30 1270 C 128.363 1.86489 -0.796846 0
M  V30 1271 C 128.696 1.82078 0.675371 0
M  V30 1272 O 127.971 1.24346 1.4956 0
M  V30 1273 C 128.254 3.35626 -1.30489 0
M  V30 1274 C 128.107 3.48673 -2.84161 0
M  V30 1275 C 129.426 4.30357 -0.920907 0
M  V30 1276 H 126.545 0.677144 -0.290939 0
M  V30 1277 H 129.187 1.35633 -1.33056 0
M  V30 1278 H 127.337 3.79068 -0.850883 0
M  V30 1279 H 129.009 3.14099 -3.37846 0
M  V30 1280 H 127.252 2.90253 -3.22391 0
M  V30 1281 H 127.923 4.53453 -3.14777 0
M  V30 1282 H 130.399 3.94871 -1.3121 0
M  V30 1283 H 129.275 5.33193 -1.30372 0
M  V30 1284 H 129.536 4.4176 0.173226 0
M  V30 1285 N 128.595 0.856903 1.32268 0
M  V30 1286 C 129.835 0.467705 1.98977 0
M  V30 1287 C 130.199 -0.959231 1.66321 0
M  V30 1288 O 131.4 -1.4531 2.26138 0
M  V30 1289 C 129.671 0.70256 3.50427 0
M  V30 1290 S 131.23 0.411269 4.36868 0
M  V30 1291 H 128.048 0.175121 0.689096 0
M  V30 1292 H 130.65 1.1101 1.60925 0
M  V30 1293 H 129.354 1.74012 3.71683 0
M  V30 1294 H 128.885 0.0466707 3.93372 0
M  V30 1295 H 130.9 -0.761799 4.90317 0
M  V30 1296 N 130.073 -1.45103 0.615059 0
M  V30 1297 C 131.484 -1.85654 0.197383 0
M  V30 1298 C 131.835 -1.51433 -1.24749 0
M  V30 1299 O 130.96 -0.944608 -1.94695 0
M  V30 1300 C 131.555 -3.36972 0.351448 0
M  V30 1301 C 130.114 -3.76398 -0.011593 0
M  V30 1302 C 129.261 -2.69024 0.672394 0
M  V30 1303 H 132.212 -1.35797 0.821263 0
M  V30 1304 H 132.233 -3.78239 -0.414227 0
M  V30 1305 H 131.745 -3.61847 1.40314 0
M  V30 1306 H 129.846 -3.5714 -1.06217 0
M  V30 1307 H 129.959 -4.77532 0.387265 0
M  V30 1308 H 128.323 -2.54465 0.109284 0
M  V30 1309 H 129.106 -2.96735 1.72636 0
M  V30 1310 N 131.551 -0.354651 -1.53558 0
M  V30 1311 C 132.483 0.5315 -2.22952 0
M  V30 1312 C 133.496 1.05503 -1.23988 0
M  V30 1313 O 134.685 0.963279 -1.50277 0
M  V30 1314 C 131.785 1.74538 -2.90499 0
M  V30 1315 C 130.958 1.35524 -4.15875 0
M  V30 1316 C 130.017 2.42999 -4.66731 0
M  V30 1317 O 129.043 2.05844 -5.30676 0
M  V30 1318 N 130.245 3.74423 -4.43608 0
M  V30 1319 H 133.01 -0.0628615 -2.99634 0
M  V30 1320 H 130.571 -0.179302 -1.60904 0
M  V30 1321 H 132.563 2.45892 -3.21433 0
M  V30 1322 H 131.133 2.24686 -2.17336 0
M  V30 1323 H 130.353 0.471998 -3.91364 0
M  V30 1324 H 131.641 1.07071 -4.97406 0
M  V30 1325 H 131.039 4.07391 -3.92491 0
M  V30 1326 H 129.596 4.41913 -4.7912 0
M  V30 1327 N 133.029 1.57378 -0.0835403 0
M  V30 1328 C 134.44 1.81261 0.447358 0
M  V30 1329 C 134.791 0.998331 1.68902 0
M  V30 1330 O 133.916 0.224282 2.15235 0
M  V30 1331 C 134.511 3.28767 0.818386 0
M  V30 1332 C 133.07 3.53455 1.29409 0
M  V30 1333 C 132.217 2.75831 0.285024 0
M  V30 1334 H 135.168 1.5566 -0.309115 0
M  V30 1335 H 135.189 3.41459 1.67887 0
M  V30 1336 H 134.701 3.88006 -0.0855019 0
M  V30 1337 H 132.802 2.99534 2.21608 0
M  V30 1338 H 132.915 4.62128 1.2639 0
M  V30 1339 H 131.279 2.42947 0.764767 0
M  V30 1340 H 132.062 3.37813 -0.611341 0
M  V30 1341 N 134.507 -0.190092 1.56449 0
M  V30 1342 C 135.918 -0.754312 1.70784 0
M  V30 1343 C 136.269 -1.83631 0.690951 0
M  V30 1344 O 135.394 -2.15868 -0.151604 0
M  V30 1345 C 135.989 -1.37503 3.09642 0
M  V30 1346 C 134.548 -1.88628 3.25725 0
M  V30 1347 C 133.695 -0.758098 2.66736 0
M  V30 1348 H 136.646 0.0350524 1.58661 0
M  V30 1349 H 136.667 -2.2445 3.0725 0
M  V30 1350 H 136.179 -0.587302 3.83631 0
M  V30 1351 H 134.28 -2.70103 2.56661 0
M  V30 1352 H 134.393 -2.04462 4.3328 0
M  V30 1353 H 132.757 -1.17369 2.26046 0
M  V30 1354 H 133.54 0.0174705 3.43296 0
M  V30 1355 N 135.985 -1.50799 -0.457987 0
M  V30 1356 C 137.213 -1.66218 -1.23203 0
M  V30 1357 C 137.628 -0.350894 -1.85511 0
M  V30 1358 O 136.985 0.668546 -1.69814 0
M  V30 1359 C 137.036 -2.76291 -2.33121 0
M  V30 1360 O 136.757 -4.02338 -1.73366 0
M  V30 1361 C 138.258 -3.028 -3.2377 0
M  V30 1362 H 135.478 -0.558361 -0.372121 0
M  V30 1363 H 138.022 -1.97099 -0.545179 0
M  V30 1364 H 136.177 -2.48068 -2.97558 0
M  V30 1365 H 136.591 -4.63312 -2.4585 0
M  V30 1366 H 138.065 -3.8345 -3.97077 0
M  V30 1367 H 138.542 -2.14385 -3.83322 0
M  V30 1368 H 139.148 -3.32604 -2.65056 0
M  V30 1369 N 137.463 0.71206 -1.40597 0
M  V30 1370 C 138.426 1.80785 -1.40888 0
M  V30 1371 C 139.426 1.57937 -0.302103 0
M  V30 1372 O 140.616 1.64913 -0.561182 0
M  V30 1373 C 137.748 3.18927 -1.20409 0
M  V30 1374 H 138.941 1.81924 -2.38419 0
M  V30 1375 H 136.494 0.91805 -1.26497 0
M  V30 1376 H 137.229 3.23436 -0.236522 0
M  V30 1377 H 137.014 3.36911 -2.00582 0
M  V30 1378 H 138.504 3.98949 -1.23408 0
M  V30 1379 N 138.941 1.26152 0.944643 0
M  V30 1380 C 140.352 1.10454 1.50522 0
M  V30 1381 C 140.703 -0.31635 1.93633 0
M  V30 1382 O 139.828 -1.20746 1.79581 0
M  V30 1383 C 140.423 1.99891 2.73549 0
M  V30 1384 C 138.982 1.88348 3.25886 0
M  V30 1385 C 138.129 1.93447 1.9868 0
M  V30 1386 H 141.08 1.39292 0.760489 0
M  V30 1387 H 141.101 1.54477 3.47732 0
M  V30 1388 H 140.613 3.03297 2.42141 0
M  V30 1389 H 138.714 0.878636 3.62092 0
M  V30 1390 H 138.827 2.73696 3.93227 0
M  V30 1391 H 137.191 1.37456 2.14425 0
M  V30 1392 H 137.974 2.98476 1.69607 0
M  V30 1393 N 140.419 -1.14872 1.07899 0
M  V30 1394 C 141.647 -1.89661 0.82683 0
M  V30 1395 C 142.062 -1.78312 -0.620519 0
M  V30 1396 O 141.419 -1.13888 -1.42604 0
M  V30 1397 C 141.47 -3.39817 1.23316 0
M  V30 1398 O 141.191 -3.50845 2.62372 0
M  V30 1399 C 142.692 -4.31615 1.0111 0
M  V30 1400 H 139.912 -0.60092 0.298557 0
M  V30 1401 H 142.456 -1.4551 1.43691 0
M  V30 1402 H 140.611 -3.8161 0.667286 0
M  V30 1403 H 141.025 -4.44076 2.79101 0
M  V30 1404 H 142.499 -5.35367 1.34486 0
M  V30 1405 H 142.976 -4.39169 -0.0522168 0
M  V30 1406 H 143.582 -3.95572 1.56215 0
M  V30 1407 N 141.898 -0.863906 -1.31812 0
M  V30 1408 C 143.314 -0.555004 -1.49639 0
M  V30 1409 C 143.514 0.912266 -1.79666 0
M  V30 1410 O 142.57 1.69479 -1.87171 0
M  V30 1411 C 143.883 -1.44998 -2.63431 0
M  V30 1412 C 145.431 -1.45138 -2.77316 0
M  V30 1413 C 145.906 -2.33179 -3.94197 0
M  V30 1414 N 147.397 -2.31025 -4.01474 0
M  V30 1415 C 148.132 -2.95871 -4.9117 0
M  V30 1416 N 147.628 -3.69863 -5.8581 0
M  V30 1417 N 149.421 -2.85211 -4.84367 0
M  V30 1418 H 141.572 -1.81339 -1.10589 0
M  V30 1419 H 143.835 -0.77505 -0.545895 0
M  V30 1420 H 143.541 -2.49377 -2.48 0
M  V30 1421 H 143.415 -1.14409 -3.59431 0
M  V30 1422 H 145.802 -0.415201 -2.92164 0
M  V30 1423 H 145.883 -1.79747 -1.82001 0
M  V30 1424 H 145.527 -3.3687 -3.80107 0
M  V30 1425 H 145.457 -1.95897 -4.88807 0
M  V30 1426 H 147.948 -1.77238 -3.33759 0
M  V30 1427 H 148.261 -4.16486 -6.50968 0
M  V30 1428 H 146.606 -3.73971 -5.85808 0
M  V30 1429 H 149.797 -2.26948 -4.09405 0
M  V30 1430 H 149.97 -3.36027 -5.54066 0
M  V30 1431 N 143.376 1.44774 -0.622745 0
M  V30 1432 C 144.787 1.85546 -0.207226 0
M  V30 1433 C 145.138 1.52093 1.23944 0
M  V30 1434 O 144.263 0.95492 1.94191 0
M  V30 1435 C 144.858 3.36781 -0.369313 0
M  V30 1436 C 143.417 3.76399 -0.00836847 0
M  V30 1437 C 142.564 2.68664 -0.686651 0
M  V30 1438 H 145.515 1.3536 -0.828454 0
M  V30 1439 H 145.536 3.78453 0.394162 0
M  V30 1440 H 145.048 3.61098 -1.42231 0
M  V30 1441 H 143.149 3.57698 1.04322 0
M  V30 1442 H 143.262 4.7732 -0.412584 0
M  V30 1443 H 141.626 2.54404 -0.122777 0
M  V30 1444 H 142.409 2.95815 -1.74208 0
M  V30 1445 N 144.854 0.36279 1.53368 0
M  V30 1446 C 146.265 -0.117022 1.86333 0
M  V30 1447 C 146.616 -1.48397 1.28347 0
M  V30 1448 O 145.741 -2.07787 0.604428 0
M  V30 1449 C 146.336 -0.21912 3.38091 0
M  V30 1450 C 144.895 -0.643184 3.70864 0
M  V30 1451 C 144.042 0.211318 2.76494 0
M  V30 1452 H 146.993 0.581687 1.47655 0
M  V30 1453 H 147.014 -1.04319 3.6592 0
M  V30 1454 H 146.526 0.775902 3.80265 0
M  V30 1455 H 144.627 -1.64654 3.34245 0
M  V30 1456 H 144.74 -0.41973 4.77258 0
M  V30 1457 H 143.104 -0.319367 2.5269 0
M  V30 1458 H 143.887 1.20383 3.21501 0
M  V30 1459 N 146.332 -1.57332 0.0918853 0
M  V30 1460 C 147.28 -2.15075 -0.885747 0
M  V30 1461 C 148.274 -1.09277 -1.29441 0
M  V30 1462 O 149.48 -1.27627 -1.26931 0
M  V30 1463 H 145.855 -0.687966 -0.303656 0
M  V30 1464 H 147.826 -2.96047 -0.373995 0
M  V30 1465 C 146.575 -2.74325 -2.13638 0
M  V30 1466 H 145.898 -3.55418 -1.8308 0
M  V30 1467 H 147.338 -3.183 -2.80109 0
M  V30 1468 C 145.797 -1.70062 -2.90827 0
M  V30 1469 O 146.327 -1.13763 -3.85254 0
M  V30 1470 N 144.533 -1.40628 -2.54307 0
M  V30 1471 H 144.08 -1.866 -1.7759 0
M  V30 1472 H 144.038 -0.711043 -3.06254 0
M  V30 1473 N 147.81 0.181792 -1.56548 0
M  V30 1474 C 149.058 0.89832 -1.81038 0
M  V30 1475 C 149.379 1.83232 -0.667164 0
M  V30 1476 O 148.649 1.93372 0.313673 0
M  V30 1477 H 147.229 0.33471 -0.667816 0
M  V30 1478 H 149.891 0.184116 -1.94028 0
M  V30 1479 H 148.987 1.4815 -2.74696 0
M  V30 1480 N 149.288 1.51039 0.449983 0
M  V30 1481 C 150.22 1.67617 1.56324 0
M  V30 1482 C 151.233 0.557083 1.52972 0
M  V30 1483 O 152.422 0.830989 1.57977 0
M  V30 1484 C 149.522 1.66402 2.95235 0
M  V30 1485 C 148.695 2.9469 3.23229 0
M  V30 1486 C 147.754 2.85832 4.41799 0
M  V30 1487 O 146.78 3.59785 4.41071 0
M  V30 1488 N 147.982 2.00821 5.44657 0
M  V30 1489 H 150.747 2.63648 1.42512 0
M  V30 1490 H 148.308 1.48767 0.638737 0
M  V30 1491 H 150.3 1.58062 3.72557 0
M  V30 1492 H 148.87 0.780182 3.02708 0
M  V30 1493 H 148.09 3.16996 2.34323 0
M  V30 1494 H 149.378 3.79636 3.38754 0
M  V30 1495 H 148.776 1.40091 5.48079 0
M  V30 1496 H 147.333 1.98368 6.20881 0
M  V30 1497 N 150.766 -0.704594 1.40972 0
M  V30 1498 C 152.014 -1.46169 1.39568 0
M  V30 1499 C 152.335 -1.95 0.00253745 0
M  V30 1500 O 151.605 -1.71095 -0.954114 0
M  V30 1501 H 150.185 -0.542326 0.513704 0
M  V30 1502 H 152.847 -0.834553 1.76128 0
M  V30 1503 H 151.943 -2.32922 2.07735 0
M  V30 1504 N 152.244 -1.26651 -0.937939 0
M  V30 1505 C 153.655 -1.1125 -1.49934 0
M  V30 1506 C 154.006 0.306077 -1.93798 0
M  V30 1507 O 153.131 1.19792 -1.80219 0
M  V30 1508 C 153.726 -2.01339 -2.72485 0
M  V30 1509 C 152.285 -1.90074 -3.24883 0
M  V30 1510 C 151.432 -1.94498 -1.97651 0
M  V30 1511 H 154.383 -1.39693 -0.753091 0
M  V30 1512 H 154.404 -1.56319 -3.46907 0
M  V30 1513 H 153.916 -3.04577 -2.40529 0
M  V30 1514 H 152.017 -0.897827 -3.61621 0
M  V30 1515 H 152.13 -2.75778 -3.9177 0
M  V30 1516 H 150.494 -1.38591 -2.13693 0
M  V30 1517 H 151.277 -2.99372 -1.68022 0
M  V30 1518 N 153.722 1.14298 -1.08507 0
M  V30 1519 C 154.654 2.1907 -0.673859 0
M  V30 1520 C 155.667 1.60381 0.279577 0
M  V30 1521 O 156.856 1.78374 0.0670754 0
M  V30 1522 C 153.956 3.38888 0.0290979 0
M  V30 1523 C 153.129 4.27103 -0.943494 0
M  V30 1524 C 152.188 5.25477 -0.275676 0
M  V30 1525 O 151.214 5.61709 -0.920401 0
M  V30 1526 N 152.416 5.7227 0.974013 0
M  V30 1527 H 155.181 2.54965 -1.57521 0
M  V30 1528 H 152.742 1.29528 -0.971287 0
M  V30 1529 H 154.734 4.01761 0.48683 0
M  V30 1530 H 153.304 3.01309 0.832555 0
M  V30 1531 H 152.524 3.61149 -1.58004 0
M  V30 1532 H 153.812 4.82905 -1.60251 0
M  V30 1533 H 153.21 5.44965 1.51755 0
M  V30 1534 H 151.767 6.37127 1.37522 0
M  V30 1535 N 155.201 0.870884 1.31352 0
M  V30 1536 C 156.449 0.48132 1.96285 0
M  V30 1537 C 156.77 -0.969813 1.69173 0
M  V30 1538 O 156.04 -1.67998 1.00764 0
M  V30 1539 H 154.62 0.175002 0.726212 0
M  V30 1540 H 157.282 1.11087 1.60143 0
M  V30 1541 H 156.378 0.639825 3.05471 0
M  V30 1542 N 156.679 -1.44442 0.630414 0
M  V30 1543 C 158.09 -1.85434 0.217063 0
M  V30 1544 C 158.441 -1.52748 -1.23136 0
M  V30 1545 O 157.566 -0.965205 -1.93682 0
M  V30 1546 C 158.161 -3.36581 0.387168 0
M  V30 1547 C 156.72 -3.76389 0.0283297 0
M  V30 1548 C 155.867 -2.68296 0.700889 0
M  V30 1549 H 158.818 -1.34919 0.83562 0
M  V30 1550 H 158.839 -3.78657 -0.374086 0
M  V30 1551 H 158.351 -3.60339 1.44144 0
M  V30 1552 H 156.452 -3.58246 -1.02423 0
M  V30 1553 H 156.565 -4.77095 0.437892 0
M  V30 1554 H 154.929 -2.54335 0.136267 0
M  V30 1555 H 155.712 -2.94887 1.75774 0
M  V30 1556 N 158.157 -0.370918 -1.53173 0
M  V30 1557 C 159.104 0.473035 -2.259 0
M  V30 1558 C 160.074 1.07311 -1.26781 0
M  V30 1559 O 161.259 1.1046 -1.55574 0
M  V30 1560 C 158.399 1.60405 -3.05556 0
M  V30 1561 C 157.512 1.02863 -4.19575 0
M  V30 1562 C 156.647 2.12918 -4.86661 0
M  V30 1563 C 155.686 1.52869 -5.92704 0
M  V30 1564 N 154.823 2.56779 -6.53459 0
M  V30 1565 H 159.663 -0.153649 -2.97604 0
M  V30 1566 H 157.2 -0.0875946 -1.46839 0
M  V30 1567 H 159.158 2.27034 -3.50016 0
M  V30 1568 H 157.788 2.20131 -2.36097 0
M  V30 1569 H 156.84 0.252465 -3.79561 0
M  V30 1570 H 158.152 0.549642 -4.95762 0
M  V30 1571 H 157.306 2.87356 -5.34333 0
M  V30 1572 H 156.045 2.6417 -4.09958 0
M  V30 1573 H 155.05 0.769479 -5.44389 0
M  V30 1574 H 156.275 1.02435 -6.7133 0
M  V30 1575 H 154.221 3.07235 -5.79606 0
M  V30 1576 H 154.138 2.13583 -7.25202 0
M  V30 1577 H 155.406 3.30903 -7.05779 0
M  V30 1578 N 159.635 1.57281 -0.100228 0
M  V30 1579 C 160.883 1.94153 0.561157 0
M  V30 1580 C 161.204 0.983157 1.68401 0
M  V30 1581 O 160.474 0.0361132 1.95867 0
M  V30 1582 H 159.054 0.716791 0.210283 0
M  V30 1583 H 161.716 1.94202 -0.164765 0
M  V30 1584 H 160.812 2.96709 0.968008 0
M  V30 1585 N 161.113 -0.173488 1.56642 0
M  V30 1586 C 162.39 -0.917617 1.7274 0
M  V30 1587 C 162.77 -2.00484 0.661027 0
M  V30 1588 O 162.118 -2.26184 -0.32453 0
M  V30 1589 C 162.328 -1.48433 3.15862 0
M  V30 1590 C 163.676 -1.95809 3.76754 0
M  V30 1591 O 164.7 -1.58231 3.19126 0
M  V30 1592 O 163.559 -2.65024 4.77938 0
M  V30 1593 H 160.653 -0.431772 0.705338 0
M  V30 1594 H 163.199 -0.161487 1.6893 0
M  V30 1595 H 161.971 -0.701715 3.84957 0
M  V30 1596 H 161.594 -2.30471 3.23989 0
M  V30 1597 N 162.591 -1.51276 -0.441967 0
M  V30 1598 C 164.002 -1.56244 -1.02199 0
M  V30 1599 C 164.353 -0.383149 -1.92422 0
M  V30 1600 O 163.478 0.500613 -2.1053 0
M  V30 1601 C 164.073 -2.83162 -1.86024 0
M  V30 1602 C 162.632 -2.90716 -2.39084 0
M  V30 1603 C 161.779 -2.50858 -1.18175 0
M  V30 1604 H 164.73 -1.5712 -0.223416 0
M  V30 1605 H 164.751 -2.66663 -2.71425 0
M  V30 1606 H 164.263 -3.68974 -1.20331 0
M  V30 1607 H 162.364 -2.09323 -3.08244 0
M  V30 1608 H 162.477 -3.94266 -2.72198 0
M  V30 1609 H 160.841 -2.03951 -1.52565 0
M  V30 1610 H 161.624 -3.3901 -0.541001 0
M  V30 1611 N 164.069 0.697108 -1.41344 0
M  V30 1612 C 165.317 1.45426 -1.40341 0
M  V30 1613 C 165.638 1.94996 -0.0128787 0
M  V30 1614 O 164.908 1.71599 0.945027 0
M  V30 1615 H 163.488 0.539594 -0.516573 0
M  V30 1616 H 166.15 0.825201 -1.76569 0
M  V30 1617 H 165.246 2.31817 -2.08967 0
M  V30 1618 N 165.547 1.27147 0.931209 0
M  V30 1619 C 166.958 1.12044 1.49342 0
M  V30 1620 C 167.309 -0.295795 1.93957 0
M  V30 1621 O 166.434 -1.18835 1.80852 0
M  V30 1622 C 167.029 2.02781 2.71414 0
M  V30 1623 C 165.588 1.91794 3.2387 0
M  V30 1624 C 164.735 1.95543 1.96617 0
M  V30 1625 H 167.686 1.40091 0.745672 0
M  V30 1626 H 167.707 1.58156 3.46074 0
M  V30 1627 H 167.219 3.05848 2.38911 0
M  V30 1628 H 165.32 0.916992 3.6114 0
M  V30 1629 H 165.433 2.77852 3.90302 0
M  V30 1630 H 163.797 1.39722 2.12955 0
M  V30 1631 H 164.58 3.00259 1.66432 0
M  V30 1632 N 167.025 -1.13721 1.09112 0
M  V30 1633 C 168.436 -1.6648 0.845068 0
M  V30 1634 C 168.787 -1.85911 -0.62701 0
M  V30 1635 O 167.912 -1.57556 -1.48341 0
M  V30 1636 C 168.507 -3.02413 1.52748 0
M  V30 1637 C 167.066 -3.52176 1.32849 0
M  V30 1638 C 166.213 -2.27492 1.58564 0
M  V30 1639 H 169.164 -0.976872 1.25072 0
M  V30 1640 H 169.185 -3.68223 0.958752 0
M  V30 1641 H 168.697 -2.88238 2.59885 0
M  V30 1642 H 166.798 -3.7156 0.278137 0
M  V30 1643 H 166.911 -4.32499 2.0611 0
M  V30 1644 H 165.275 -2.33923 1.00758 0
M  V30 1645 H 166.058 -2.15886 2.66924 0
M  V30 1646 N 168.503 -0.877838 -1.30888 0
M  V30 1647 C 169.751 -0.491723 -1.96027 0
M  V30 1648 C 170.072 0.960827 -1.69685 0
M  V30 1649 O 169.342 1.67462 -1.01654 0
M  V30 1650 H 167.922 -0.17885 -0.725273 0
M  V30 1651 H 170.584 -1.11935 -1.59551 0
M  V30 1652 H 169.68 -0.656016 -3.05128 0
M  V30 1653 N 169.982 1.44106 -0.638065 0
M  V30 1654 C 171.231 2.01194 -0.142744 0
M  V30 1655 C 171.544 1.50835 1.24532 0
M  V30 1656 O 172.75 2.00096 1.83504 0
M  V30 1657 C 171.206 3.59319 -0.20442 0
M  V30 1658 C 170.814 4.18674 -1.59423 0
M  V30 1659 C 172.558 4.23854 0.234079 0
M  V30 1660 C 170.465 5.69045 -1.61065 0
M  V30 1661 H 169.395 0.752367 -0.0495998 0
M  V30 1662 H 172.046 1.65246 -0.797881 0
M  V30 1663 H 170.428 3.92598 0.517946 0
M  V30 1664 H 171.602 3.96921 -2.34074 0
M  V30 1665 H 169.917 3.66453 -1.97741 0
M  V30 1666 H 172.514 5.34155 0.241443 0
M  V30 1667 H 172.857 3.96688 1.2627 0
M  V30 1668 H 173.39 3.95403 -0.436025 0
M  V30 1669 H 170.129 6.00956 -2.61787 0
M  V30 1670 H 169.649 5.929 -0.90718 0
M  V30 1671 H 171.328 6.32809 -1.34766 0
M  V30 1672 N 171.46 0.379036 1.52974 0
M  V30 1673 C 172.871 -0.0972525 1.86447 0
M  V30 1674 C 173.222 -1.47027 1.29914 0
M  V30 1675 O 172.347 -2.07135 0.626433 0
M  V30 1676 C 172.942 -0.183248 3.38304 0
M  V30 1677 C 171.501 -0.603812 3.71525 0
M  V30 1678 C 170.648 0.240632 2.76254 0
M  V30 1679 H 173.599 0.597316 1.4703 0
M  V30 1680 H 173.62 -1.00432 3.67006 0
M  V30 1681 H 173.132 0.816191 3.79421 0
M  V30 1682 H 171.233 -1.61099 3.35973 0
M  V30 1683 H 171.346 -0.369086 4.77676 0
M  V30 1684 H 169.71 -0.292548 2.53014 0
M  V30 1685 H 170.493 1.23786 3.20206 0
M  V30 1686 N 172.938 -1.57226 0.108567 0
M  V30 1687 C 174.186 -1.94448 -0.550853 0
M  V30 1688 C 174.507 -0.992074 -1.67878 0
M  V30 1689 O 173.777 -0.0465 -1.95845 0
M  V30 1690 H 172.357 -0.717897 -0.206479 0
M  V30 1691 H 175.019 -1.94112 0.175062 0
M  V30 1692 H 174.115 -2.97218 -0.952259 0
M  V30 1693 N 174.416 0.165178 -1.56732 0
M  V30 1694 C 175.832 0.517174 -1.50988 0
M  V30 1695 C 176.032 1.84331 -0.813894 0
M  V30 1696 O 175.088 2.49672 -0.37682 0
M  V30 1697 C 176.401 0.544261 -2.95733 0
M  V30 1698 C 177.949 0.631039 -3.06573 0
M  V30 1699 C 178.424 0.68896 -4.52788 0
M  V30 1700 N 179.915 0.751683 -4.5706 0
M  V30 1701 C 180.65 0.817177 -5.67547 0
M  V30 1702 N 180.146 0.843129 -6.8765 0
M  V30 1703 N 181.939 0.856668 -5.55534 0
M  V30 1704 H 174.09 -0.704318 -2.00382 0
M  V30 1705 H 176.353 -0.254687 -0.913148 0
M  V30 1706 H 176.059 -0.361607 -3.49836 0
M  V30 1707 H 175.933 1.3886 -3.5071 0
M  V30 1708 H 178.32 1.52733 -2.52501 0
M  V30 1709 H 178.401 -0.240095 -2.54671 0
M  V30 1710 H 178.045 -0.2031 -5.07494 0
M  V30 1711 H 177.975 1.57633 -5.02454 0
M  V30 1712 H 180.466 0.739661 -3.70591 0
M  V30 1713 H 180.779 0.894448 -7.67606 0
M  V30 1714 H 179.124 0.811304 -6.90248 0
M  V30 1715 H 182.315 0.833437 -4.60621 0
M  V30 1716 H 182.488 0.904247 -6.4166 0
M  V30 1717 N 175.894 1.51508 0.433938 0
M  V30 1718 C 176.842 1.73646 1.54757 0
M  V30 1719 C 177.836 0.602854 1.5831 0
M  V30 1720 O 179.042 0.784318 1.62014 0
M  V30 1721 H 175.417 0.548718 0.51421 0
M  V30 1722 H 177.388 2.66991 1.33261 0
M  V30 1723 C 176.137 1.88172 2.92381 0
M  V30 1724 H 175.46 2.74808 2.90381 0
M  V30 1725 H 176.9 2.07672 3.6966 0
M  V30 1726 C 175.359 0.64239 3.30719 0
M  V30 1727 O 175.889 -0.201362 4.01195 0
M  V30 1728 N 174.095 0.485489 2.86516 0
M  V30 1729 H 173.642 1.17318 2.29334 0
M  V30 1730 H 173.6 -0.342482 3.12529 0
M  V30 1731 N 177.372 -0.689602 1.41712 0
M  V30 1732 C 178.62 -1.4468 1.4111 0
M  V30 1733 C 178.941 -1.94986 0.0232196 0
M  V30 1734 O 178.211 -1.72097 -0.935913 0
M  V30 1735 H 176.791 -0.536847 0.519427 0
M  V30 1736 H 179.453 -0.815825 1.77004 0
M  V30 1737 H 178.549 -2.30706 2.10193 0
M  V30 1738 N 178.85 -1.27639 -0.924453 0
M  V30 1739 C 180.127 -1.04887 -1.651 0
M  V30 1740 C 180.507 0.415327 -2.06974 0
M  V30 1741 O 179.855 1.39923 -1.80648 0
M  V30 1742 C 180.065 -2.01348 -2.85061 0
M  V30 1743 C 181.413 -2.30899 -3.56329 0
M  V30 1744 O 182.437 -1.99348 -2.95193 0
M  V30 1745 O 181.296 -2.84699 -4.66485 0
M  V30 1746 H 178.39 -0.400083 -0.723784 0
M  V30 1747 H 180.936 -1.38916 -0.974703 0
M  V30 1748 H 179.708 -3.0008 -2.51133 0
M  V30 1749 H 179.331 -1.679 -3.6041 0
M  V30 1750 N 180.328 1.1314 -1.09713 0
M  V30 1751 C 181.739 1.66029 -0.853885 0
M  V30 1752 C 182.09 1.86241 0.617142 0
M  V30 1753 O 181.215 1.5834 1.47503 0
M  V30 1754 C 181.81 3.01599 -1.5435 0
M  V30 1755 C 180.369 3.51467 -1.34714 0
M  V30 1756 C 179.516 2.26648 -1.59769 0
M  V30 1757 H 182.467 0.970226 -1.25588 0
M  V30 1758 H 182.488 3.67709 -0.978267 0
M  V30 1759 H 182 2.86856 -2.6141 0
M  V30 1760 H 180.101 3.71408 -0.297838 0
M  V30 1761 H 180.214 4.314 -2.08401 0
M  V30 1762 H 178.578 2.33385 -1.01998 0
M  V30 1763 H 179.361 2.14467 -2.68065 0
M  V30 1764 N 181.806 0.884767 1.30421 0
M  V30 1765 C 183.054 0.502112 1.95763 0
M  V30 1766 C 183.375 -0.951815 1.70192 0
M  V30 1767 O 182.645 -1.6692 1.0254 0
M  V30 1768 H 181.225 0.182694 0.724315 0
M  V30 1769 H 183.887 1.1278 1.58955 0
M  V30 1770 H 182.983 0.672188 3.04775 0
M  V30 1771 N 183.284 -1.43765 0.645699 0
M  V30 1772 C 184.533 -2.01116 0.153412 0
M  V30 1773 C 184.846 -1.51493 -1.23731 0
M  V30 1774 O 186.052 -2.01067 -1.8244 0
M  V30 1775 C 184.508 -3.59206 0.223473 0
M  V30 1776 C 184.116 -4.17823 1.61642 0
M  V30 1777 C 185.86 -4.23972 -0.211597 0
M  V30 1778 C 183.767 -5.68183 1.64081 0
M  V30 1779 H 182.697 -0.752093 0.0535891 0
M  V30 1780 H 185.348 -1.6482 0.806633 0
M  V30 1781 H 183.73 -3.92867 -0.497118 0
M  V30 1782 H 184.904 -3.95674 2.36176 0
M  V30 1783 H 183.219 -3.65399 1.99681 0
M  V30 1784 H 185.816 -5.34275 -0.213112 0
M  V30 1785 H 186.159 -3.97352 -1.24165 0
M  V30 1786 H 186.692 -3.95166 0.456988 0
M  V30 1787 H 183.431 -5.99559 2.64971 0
M  V30 1788 H 182.951 -5.9241 0.938611 0
M  V30 1789 H 184.63 -6.32085 1.3812 0
M  V30 1790 N 184.763 -0.387143 -1.52771 0
M  V30 1791 C 186.174 0.0873634 -1.86495 0
M  V30 1792 C 186.525 1.46336 -1.30691 0
M  V30 1793 O 185.65 2.068 -0.637409 0
M  V30 1794 C 186.245 0.165305 -3.38396 0
M  V30 1795 C 184.804 0.584101 -3.7184 0
M  V30 1796 C 183.951 -0.255279 -2.76122 0
M  V30 1797 H 186.902 -0.605104 -1.46711 0
M  V30 1798 H 186.923 0.984848 -3.67534 0
M  V30 1799 H 186.435 -0.836301 -3.78982 0
M  V30 1800 H 184.536 1.59315 -3.36823 0
M  V30 1801 H 184.649 0.343749 -4.77865 0
M  V30 1802 H 183.013 0.279126 -2.53166 0
M  V30 1803 H 183.796 -1.25482 -3.19545 0
M  V30 1804 N 186.241 1.57166 -0.116904 0
M  V30 1805 C 187.489 1.94737 0.540533 0
M  V30 1806 C 187.81 1.00096 1.67349 0
M  V30 1807 O 187.08 0.0568854 1.95817 0
M  V30 1808 H 185.66 0.718981 0.202669 0
M  V30 1809 H 188.322 1.94017 -0.185353 0
M  V30 1810 H 187.418 2.97719 0.936483 0
M  V30 1811 N 187.719 -0.156864 1.56817 0
M  V30 1812 C 188.651 -1.21883 1.94106 0
M  V30 1813 C 189.664 -1.3971 0.835754 0
M  V30 1814 O 190.853 -1.39457 1.11418 0
M  V30 1815 C 187.953 -2.58527 2.19127 0
M  V30 1816 C 187.126 -2.61809 3.50393 0
M  V30 1817 C 186.185 -3.7992 3.64071 0
M  V30 1818 O 185.211 -3.65249 4.36557 0
M  V30 1819 N 186.413 -4.96973 2.99997 0
M  V30 1820 H 189.178 -0.901974 2.85805 0
M  V30 1821 H 186.739 -0.346513 1.58148 0
M  V30 1822 H 188.731 -3.36034 2.25529 0
M  V30 1823 H 187.301 -2.82545 1.33742 0
M  V30 1824 H 186.521 -1.7029 3.5552 0
M  V30 1825 H 187.809 -2.61024 4.36742 0
M  V30 1826 H 187.207 -5.11794 2.41004 0
M  V30 1827 H 185.764 -5.7229 3.11974 0
M  V30 1828 N 189.197 -1.51736 -0.425897 0
M  V30 1829 C 190.608 -1.5732 -1.00536 0
M  V30 1830 C 190.959 -0.403537 -1.92005 0
M  V30 1831 O 190.084 0.478256 -2.11049 0
M  V30 1832 C 190.679 -2.85119 -1.8301 0
M  V30 1833 C 189.238 -2.93236 -2.35987 0
M  V30 1834 C 188.385 -2.52098 -1.15508 0
M  V30 1835 H 191.336 -1.57348 -0.206739 0
M  V30 1836 H 191.357 -2.69526 -2.68581 0
M  V30 1837 H 190.869 -3.7023 -1.16411 0
M  V30 1838 H 188.97 -2.12581 -3.06007 0
M  V30 1839 H 189.083 -3.9713 -2.68001 0
M  V30 1840 H 187.447 -2.05558 -1.50393 0
M  V30 1841 H 188.23 -3.39565 -0.505014 0
M  V30 1842 N 190.675 0.682077 -1.42076 0
M  V30 1843 C 191.923 1.4393 -1.41876 0
M  V30 1844 C 192.244 1.94971 -0.0335599 0
M  V30 1845 O 191.514 1.72591 0.926773 0
M  V30 1846 H 190.094 0.534085 -0.522267 0
M  V30 1847 H 192.756 0.806427 -1.77434 0
M  V30 1848 H 191.852 2.29588 -2.11414 0
M  V30 1849 N 192.153 1.28127 0.917671 0
M  V30 1850 C 193.378 1.18007 1.70555 0
M  V30 1851 C 193.803 -0.258257 1.86319 0
M  V30 1852 O 193.161 -1.1869 1.37049 0
M  V30 1853 C 193.209 1.87948 3.07746 0
M  V30 1854 O 192.313 1.18427 3.9503 0
M  V30 1855 H 191.654 0.409867 0.522403 0
M  V30 1856 H 194.184 1.69379 1.1477 0
M  V30 1857 H 194.194 1.95701 3.58001 0
M  V30 1858 H 192.869 2.92573 2.95591 0
M  V30 1859 H 191.446 1.18811 3.53466 0
M  V30 1860 N 193.631 -1.12557 1.10312 0
M  V30 1861 C 195.042 -1.65574 0.862678 0
M  V30 1862 C 195.393 -1.86566 -0.607256 0
M  V30 1863 O 194.518 -1.59121 -1.46662 0
M  V30 1864 C 195.113 -3.00776 1.55947 0
M  V30 1865 C 193.672 -3.50748 1.36576 0
M  V30 1866 C 192.819 -2.25797 1.60968 0
M  V30 1867 H 195.77 -0.963552 1.26101 0
M  V30 1868 H 195.791 -3.67185 0.997753 0
M  V30 1869 H 195.303 -2.85465 2.62928 0
M  V30 1870 H 193.404 -3.71245 0.317531 0
M  V30 1871 H 193.517 -4.30289 2.10686 0
M  V30 1872 H 191.881 -2.32841 1.03234 0
M  V30 1873 H 192.664 -2.13043 2.69198 0
M  V30 1874 N 195.109 -0.891671 -1.2995 0
M  V30 1875 C 196.357 -0.512486 -1.95494 0
M  V30 1876 C 196.678 0.942776 -1.70695 0
M  V30 1877 O 195.948 1.66374 -1.03424 0
M  V30 1878 H 194.528 -0.186533 -0.723336 0
M  V30 1879 H 197.19 -1.13621 -1.58355 0
M  V30 1880 H 196.286 -0.688342 -3.04415 0
M  V30 1881 N 196.587 1.43421 -0.653314 0
M  V30 1882 C 197.812 2.06678 -0.172846 0
M  V30 1883 C 198.237 1.48648 1.15262 0
M  V30 1884 O 197.595 0.596457 1.71208 0
M  V30 1885 C 197.643 3.60474 -0.0953184 0
M  V30 1886 O 196.747 4.01487 0.942442 0
M  V30 1887 H 196.088 0.657181 -0.0949155 0
M  V30 1888 H 198.618 1.83925 -0.896265 0
M  V30 1889 H 198.628 4.07905 0.0879728 0
M  V30 1890 H 197.303 4.02088 -1.06291 0
M  V30 1891 H 195.88 3.65646 0.731932 0
M  V30 1892 N 198.065 0.39524 1.52563 0
M  V30 1893 C 199.476 -0.0774719 1.86539 0
M  V30 1894 C 199.827 -1.45641 1.31466 0
M  V30 1895 O 198.952 -2.06459 0.648367 0
M  V30 1896 C 199.547 -0.147356 3.38479 0
M  V30 1897 C 198.106 -0.564373 3.72145 0
M  V30 1898 C 197.253 0.269919 2.75983 0
M  V30 1899 H 200.204 0.612876 1.46388 0
M  V30 1900 H 200.225 -0.965343 3.68051 0
M  V30 1901 H 199.737 0.856387 3.78534 0
M  V30 1902 H 197.838 -1.57527 3.37663 0
M  V30 1903 H 197.951 -0.318402 4.78041 0
M  V30 1904 H 196.315 -0.265696 2.5331 0
M  V30 1905 H 197.098 1.27175 3.18875 0
M  V30 1906 N 199.544 -1.57102 0.125237 0
M  V30 1907 C 200.792 -1.95021 -0.530198 0
M  V30 1908 C 201.113 -1.00982 -1.66816 0
M  V30 1909 O 200.383 -0.0672693 -1.95784 0
M  V30 1910 H 198.963 -0.720046 -0.198853 0
M  V30 1911 H 201.625 -1.93916 0.19564 0
M  V30 1912 H 200.721 -2.98211 -0.920681 0
M  V30 1913 N 201.022 0.148545 -1.56898 0
M  V30 1914 C 202.433 0.708766 -1.72723 0
M  V30 1915 C 202.784 1.81734 -0.739395 0
M  V30 1916 O 201.909 2.16194 0.0943169 0
M  V30 1917 C 202.504 1.29245 -3.13179 0
M  V30 1918 C 201.063 1.79925 -3.30611 0
M  V30 1919 C 200.21 0.687111 -2.68652 0
M  V30 1920 H 203.161 -0.0771063 -1.58513 0
M  V30 1921 H 203.182 2.16224 -3.13093 0
M  V30 1922 H 202.694 0.485382 -3.85053 0
M  V30 1923 H 200.795 2.63203 -2.63732 0
M  V30 1924 H 200.908 1.92903 -4.38549 0
M  V30 1925 H 199.272 1.11335 -2.29078 0
M  V30 1926 H 200.055 -0.108483 -3.43129 0
M  V30 1927 N 202.5 1.5196 0.417844 0
M  V30 1928 C 203.911 1.57851 0.997 0
M  V30 1929 C 204.262 0.413714 1.91789 0
M  V30 1930 O 203.387 -0.467057 2.113 0
M  V30 1931 C 203.982 2.86085 1.81496 0
M  V30 1932 C 202.541 2.94483 2.34428 0
M  V30 1933 C 201.688 2.52707 1.14169 0
M  V30 1934 H 204.639 1.57455 0.198392 0
M  V30 1935 H 204.66 2.70947 2.67148 0
M  V30 1936 H 204.172 3.70842 1.14446 0
M  V30 1937 H 202.273 2.142 3.04875 0
M  V30 1938 H 202.386 3.98546 2.65891 0
M  V30 1939 H 200.75 2.06353 1.49301 0
M  V30 1940 H 201.533 3.39828 0.486999 0
M  V30 1941 N 203.978 -0.674533 1.42435 0
M  V30 1942 C 205.226 -1.43175 1.42637 0
M  V30 1943 C 205.547 -1.94951 0.0438992 0
M  V30 1944 O 204.817 -1.7308 -0.917607 0
M  V30 1945 H 203.397 -0.531307 0.525092 0
M  V30 1946 H 206.059 -0.797006 1.77859 0
M  V30 1947 H 205.155 -2.28463 2.12629 0
M  V30 1948 N 205.456 -1.28612 -0.910864 0
M  V30 1949 C 206.705 -1.15311 -1.65488 0
M  V30 1950 C 207.018 0.296999 -1.93332 0
M  V30 1951 O 208.224 0.551168 -2.65847 0
M  V30 1952 C 206.68 -2.01599 -2.98137 0
M  V30 1953 C 206.288 -3.51367 -2.7793 0
M  V30 1954 C 208.032 -1.96993 -3.76024 0
M  V30 1955 C 205.939 -4.29797 -4.06237 0
M  V30 1956 H 204.869 -0.42796 -0.620779 0
M  V30 1957 H 207.52 -1.53166 -1.01057 0
M  V30 1958 H 205.902 -1.56603 -3.63719 0
M  V30 1959 H 207.076 -4.0434 -2.21011 0
M  V30 1960 H 205.391 -3.57529 -2.13452 0
M  V30 1961 H 207.988 -2.52856 -4.71135 0
M  V30 1962 H 208.331 -0.94733 -4.05378 0
M  V30 1963 H 208.864 -2.39973 -3.17266 0
M  V30 1964 H 205.603 -5.32648 -3.82055 0
M  V30 1965 H 205.123 -3.81596 -4.62757 0
M  V30 1966 H 206.802 -4.39869 -4.74473 0
M  V30 1967 N 206.934 1.1197 -1.10907 0
M  V30 1968 C 208.174 1.85224 -0.864378 0
M  V30 1969 C 208.538 1.82411 0.599178 0
M  V30 1970 O 209.739 2.51057 0.960416 0
M  V30 1971 C 208.01 3.2868 -1.40371 0
M  V30 1972 S 209.569 4.1925 -1.29518 0
M  V30 1973 H 206.387 0.63878 -0.312219 0
M  V30 1974 H 208.989 1.3485 -1.41548 0
M  V30 1975 H 207.693 3.28289 -2.46281 0
M  V30 1976 H 207.224 3.84121 -0.849402 0
M  V30 1977 H 209.239 4.95539 -0.256059 0
M  V30 1978 N 208.412 0.89855 1.29475 0
M  V30 1979 C 209.322 0.379974 2.31502 0
M  V30 1980 C 210.338 -0.524695 1.659 0
M  V30 1981 O 211.514 -0.414551 1.97087 0
M  V30 1982 C 208.579 -0.385138 3.44554 0
M  V30 1983 C 207.64 0.550914 4.2575 0
M  V30 1984 C 206.873 -0.177778 5.33404 0
M  V30 1985 O 207.096 -1.40189 5.52904 0
M  V30 1986 O 206.03 0.479106 5.9999 0
M  V30 1987 H 209.856 1.22639 2.77837 0
M  V30 1988 H 207.441 0.662834 1.33891 0
M  V30 1989 H 209.323 -0.817841 4.13388 0
M  V30 1990 H 207.998 -1.20763 3.0033 0
M  V30 1991 H 206.905 1.03271 3.59564 0
M  V30 1992 H 208.238 1.33979 4.73614 0
M  V30 1993 N 209.89 -1.43072 0.660911 0
M  V30 1994 C 211.115 -2.06584 0.183805 0
M  V30 1995 C 211.54 -1.49257 -1.14472 0
M  V30 1996 O 210.898 -0.605528 -1.70889 0
M  V30 1997 C 210.946 -3.60418 0.114434 0
M  V30 1998 O 210.05 -4.01981 -0.921137 0
M  V30 1999 H 209.391 -0.656669 0.0983994 0
M  V30 2000 H 211.921 -1.83447 0.906006 0
M  V30 2001 H 211.931 -4.07946 -0.0663394 0
M  V30 2002 H 210.606 -4.01519 1.08422 0
M  V30 2003 H 209.183 -3.66029 -0.71253 0
M  V30 2004 N 211.368 -0.403325 -1.52352 0
M  V30 2005 C 212.608 0.173946 -2.03659 0
M  V30 2006 C 212.972 1.42869 -1.28267 0
M  V30 2007 O 214.173 2.08403 -1.69769 0
M  V30 2008 C 212.444 0.421478 -3.54906 0
M  V30 2009 S 214.003 0.967027 -4.28012 0
M  V30 2010 H 210.821 0.0477461 -0.709395 0
M  V30 2011 H 213.423 -0.554906 -1.87459 0
M  V30 2012 H 212.127 -0.498616 -4.0736 0
M  V30 2013 H 211.658 1.17837 -3.75337 0
M  V30 2014 H 213.673 2.24812 -4.4235 0
M  V30 2015 N 212.846 1.57033 -0.133567 0
M  V30 2016 C 214.257 1.82593 0.389464 0
M  V30 2017 C 214.608 1.05156 1.6564 0
M  V30 2018 O 213.733 0.292644 2.14412 0
M  V30 2019 C 214.328 3.31204 0.713377 0
M  V30 2020 C 212.887 3.57393 1.18098 0
M  V30 2021 C 212.034 2.76598 0.197126 0
M  V30 2022 H 214.985 1.54598 -0.358481 0
M  V30 2023 H 215.006 3.46627 1.56939 0
M  V30 2024 H 214.518 3.87537 -0.2089 0
M  V30 2025 H 212.619 3.06433 2.11966 0
M  V30 2026 H 212.732 4.65915 1.11624 0
M  V30 2027 H 211.096 2.45257 0.687088 0
M  V30 2028 H 211.879 3.35697 -0.718504 0
M  V30 2029 N 214.325 -0.140222 1.56975 0
M  V30 2030 C 215.553 -0.866437 1.87884 0
M  V30 2031 C 215.968 -1.74428 0.722517 0
M  V30 2032 O 215.325 -1.79891 -0.30749 0
M  V30 2033 C 215.376 -1.71753 3.18093 0
M  V30 2034 O 215.097 -0.875056 4.29272 0
M  V30 2035 C 216.598 -2.55074 3.62563 0
M  V30 2036 H 213.818 -0.25019 0.622612 0
M  V30 2037 H 216.362 -0.130977 2.0408 0
M  V30 2038 H 214.517 -2.40598 3.03631 0
M  V30 2039 H 214.931 -1.46002 5.03769 0
M  V30 2040 H 216.405 -3.10356 4.5649 0
M  V30 2041 H 216.882 -3.31434 2.88181 0
M  V30 2042 H 217.488 -1.91509 3.79743 0
M  V30 2043 N 215.803 -1.52179 -0.40978 0
M  V30 2044 C 217.051 -1.65878 -1.15451 0
M  V30 2045 C 217.372 -0.390771 -1.91044 0
M  V30 2046 O 216.642 0.594323 -1.86667 0
M  V30 2047 H 215.222 -0.611405 -0.429177 0
M  V30 2048 H 217.884 -1.89219 -0.467134 0
M  V30 2049 H 216.98 -2.49954 -1.86894 0
M  V30 2050 N 217.281 0.66697 -1.42791 0
M  V30 2051 C 218.692 1.2478 -1.38877 0
M  V30 2052 C 219.043 1.96012 -0.0859426 0
M  V30 2053 O 218.168 2.00463 0.815081 0
M  V30 2054 C 218.763 2.26938 -2.51564 0
M  V30 2055 C 217.322 2.80529 -2.50959 0
M  V30 2056 C 216.469 1.54965 -2.29959 0
M  V30 2057 H 219.42 0.459853 -1.51892 0
M  V30 2058 H 219.441 3.08834 -2.22265 0
M  V30 2059 H 218.953 1.75065 -3.46372 0
M  V30 2060 H 217.054 3.36502 -1.59991 0
M  V30 2061 H 217.167 3.29012 -3.48265 0
M  V30 2062 H 215.531 1.81817 -1.78366 0
M  V30 2063 H 216.314 1.05047 -3.26833 0
M  V30 2064 N 218.759 1.29093 0.90403 0
M  V30 2065 C 219.691 1.09658 2.01266 0
M  V30 2066 C 220.704 0.0453729 1.62737 0
M  V30 2067 O 221.893 0.289446 1.76138 0
M  V30 2068 C 218.993 0.646278 3.32681 0
M  V30 2069 C 218.166 1.77505 3.99763 0
M  V30 2070 C 217.225 1.31649 5.09465 0
M  V30 2071 O 216.251 2.02045 5.32134 0
M  V30 2072 N 217.453 0.184997 5.80205 0
M  V30 2073 H 220.218 2.05135 2.18494 0
M  V30 2074 H 217.779 1.20975 1.07594 0
M  V30 2075 H 219.771 0.322906 4.0341 0
M  V30 2076 H 218.341 -0.215916 3.11853 0
M  V30 2077 H 217.561 2.26752 3.22455 0
M  V30 2078 H 218.849 2.53198 4.41325 0
M  V30 2079 H 218.247 -0.402021 5.6427 0
M  V30 2080 H 216.804 -0.0790358 6.51752 0
M  V30 2081 N 220.237 -1.11381 1.11499 0
M  V30 2082 C 221.185 -2.19522 0.768956 0
M  V30 2083 C 222.179 -1.67693 -0.239857 0
M  V30 2084 O 223.385 -1.79727 -0.0990755 0
M  V30 2085 H 219.76 -0.715711 0.230786 0
M  V30 2086 H 221.731 -2.45954 1.68964 0
M  V30 2087 C 220.48 -3.46945 0.229073 0
M  V30 2088 H 219.803 -3.8718 0.996596 0
M  V30 2089 H 221.243 -4.23993 0.0251441 0
M  V30 2090 C 219.702 -3.2042 -1.04079 0
M  V30 2091 O 220.232 -3.41178 -2.12038 0
M  V30 2092 N 218.438 -2.74151 -0.963823 0
M  V30 2093 H 217.985 -2.57459 -0.0851722 0
M  V30 2094 H 217.943 -2.56781 -1.81414 0
M  V30 2095 N 221.715 -0.905404 -1.28997 0
M  V30 2096 C 222.945 -0.549049 -1.99171 0
M  V30 2097 C 223.353 0.87203 -1.67906 0
M  V30 2098 O 222.696 1.58796 -0.923561 0
M  V30 2099 C 222.758 -0.668306 -3.53234 0
M  V30 2100 C 222.422 -2.0574 -4.08069 0
M  V30 2101 C 223.419 -3.0292 -4.22534 0
M  V30 2102 C 221.104 -2.36833 -4.42962 0
M  V30 2103 C 223.098 -4.29314 -4.71135 0
M  V30 2104 C 220.785 -3.63467 -4.91258 0
M  V30 2105 C 221.783 -4.59522 -5.053 0
M  V30 2106 O 221.471 -5.83907 -5.52546 0
M  V30 2107 H 221.203 -0.208784 -0.64295 0
M  V30 2108 H 223.757 -1.21836 -1.65363 0
M  V30 2109 H 221.987 0.0580547 -3.86656 0
M  V30 2110 H 223.676 -0.320273 -4.04634 0
M  V30 2111 H 224.442 -2.80216 -3.95859 0
M  V30 2112 H 220.321 -1.62824 -4.31288 0
M  V30 2113 H 223.865 -5.04293 -4.8201 0
M  V30 2114 H 219.762 -3.86 -5.17372 0
M  V30 2115 H 220.53 -5.86578 -5.70849 0
M  V30 2116 N 223.193 1.4272 -0.668489 0
M  V30 2117 C 224.418 2.06484 -0.194758 0
M  V30 2118 C 224.843 1.49862 1.13679 0
M  V30 2119 O 224.201 0.614582 1.70565 0
M  V30 2120 C 224.249 3.60353 -0.133546 0
M  V30 2121 O 223.353 4.02464 0.899806 0
M  V30 2122 H 222.694 0.656137 -0.10188 0
M  V30 2123 H 225.224 1.82964 -0.915722 0
M  V30 2124 H 225.234 4.07976 0.0447041 0
M  V30 2125 H 223.909 4.00938 -1.1055 0
M  V30 2126 H 222.486 3.66402 0.693109 0
M  V30 2127 N 224.671 0.411399 1.52136 0
M  V30 2128 C 226.082 -0.0576826 1.86611 0
M  V30 2129 C 226.433 -1.44238 1.33003 0
M  V30 2130 O 225.558 -2.05759 0.670228 0
M  V30 2131 C 226.153 -0.111448 3.38617 0
M  V30 2132 C 224.712 -0.52487 3.72723 0
M  V30 2133 C 223.859 0.299176 2.75681 0
M  V30 2134 H 226.81 0.628368 1.4573 0
M  V30 2135 H 226.831 -0.926252 3.69054 0
M  V30 2136 H 226.343 0.896488 3.77604 0
M  V30 2137 H 224.444 -1.53936 3.39315 0
M  V30 2138 H 224.557 -0.267681 4.78352 0
M  V30 2139 H 222.921 -0.238814 2.53578 0
M  V30 2140 H 223.704 1.3055 3.17508 0
M  V30 2141 N 226.149 -1.5696 0.141893 0
M  V30 2142 C 227.081 -2.13619 -0.830627 0
M  V30 2143 C 228.094 -1.08439 -1.21428 0
M  V30 2144 O 229.283 -1.35734 -1.15925 0
M  V30 2145 C 226.383 -2.63978 -2.12529 0
M  V30 2146 C 225.556 -3.93504 -1.9098 0
M  V30 2147 C 224.615 -4.29225 -3.04388 0
M  V30 2148 O 223.641 -4.97641 -2.76302 0
M  V30 2149 N 224.843 -3.88393 -4.31429 0
M  V30 2150 H 227.608 -2.97691 -0.34641 0
M  V30 2151 H 225.169 -1.61846 -0.0418375 0
M  V30 2152 H 227.161 -2.84891 -2.87436 0
M  V30 2153 H 225.731 -1.84659 -2.52229 0
M  V30 2154 H 224.951 -3.81269 -1.00139 0
M  V30 2155 H 226.239 -4.78154 -1.73914 0
M  V30 2156 H 225.637 -3.33257 -4.57117 0
M  V30 2157 H 224.194 -4.14368 -5.03133 0
M  V30 2158 N 227.627 0.131896 -1.57047 0
M  V30 2159 C 228.857 0.855219 -1.88068 0
M  V30 2160 C 229.265 1.74557 -0.729817 0
M  V30 2161 O 228.608 1.81083 0.308962 0
M  V30 2162 C 228.67 1.75119 -3.13964 0
M  V30 2163 C 228.334 1.03646 -4.45091 0
M  V30 2164 C 229.331 0.383276 -5.18485 0
M  V30 2165 C 227.016 1.02148 -4.91804 0
M  V30 2166 C 229.01 -0.275347 -6.36805 0
M  V30 2167 C 226.697 0.359047 -6.10044 0
M  V30 2168 C 227.695 -0.288222 -6.82392 0
M  V30 2169 O 227.383 -0.94011 -7.98384 0
M  V30 2170 H 227.115 0.251864 -0.627328 0
M  V30 2171 H 229.669 0.124782 -2.05021 0
M  V30 2172 H 227.899 2.52295 -2.9306 0
M  V30 2173 H 229.588 2.3478 -3.31109 0
M  V30 2174 H 230.354 0.386562 -4.83457 0
M  V30 2175 H 226.233 1.5147 -4.35405 0
M  V30 2176 H 229.777 -0.781148 -6.93213 0
M  V30 2177 H 225.674 0.35348 -6.44531 0
M  V30 2178 H 226.442 -0.84329 -8.14144 0
M  V30 2179 N 229.106 1.52395 0.401703 0
M  V30 2180 C 230.383 1.57387 1.16141 0
M  V30 2181 C 230.763 0.359359 2.08019 0
M  V30 2182 O 230.111 -0.65326 2.18963 0
M  V30 2183 C 230.321 2.90631 1.93221 0
M  V30 2184 C 231.669 3.43904 2.49028 0
M  V30 2185 O 232.693 2.92421 2.03393 0
M  V30 2186 O 231.552 4.33823 3.32356 0
M  V30 2187 H 228.646 0.634262 0.530698 0
M  V30 2188 H 231.192 1.64725 0.407883 0
M  V30 2189 H 229.964 3.70473 1.25958 0
M  V30 2190 H 229.587 2.8662 2.75563 0
M  V30 2191 N 230.584 -0.659388 1.43143 0
M  V30 2192 C 231.809 -1.45221 1.48073 0
M  V30 2193 C 232.234 -1.87845 0.097995 0
M  V30 2194 O 231.592 -1.56985 -0.90694 0
M  V30 2195 C 231.64 -2.66748 2.42647 0
M  V30 2196 O 230.744 -3.65583 1.90848 0
M  V30 2197 H 230.085 -0.435669 0.501088 0
M  V30 2198 H 232.615 -0.807432 1.87994 0
M  V30 2199 H 232.625 -3.14637 2.59745 0
M  V30 2200 H 231.3 -2.35067 3.43098 0
M  V30 2201 H 229.877 -3.24693 1.83381 0
M  V30 2202 N 232.062 -1.29571 -0.897171 0
M  V30 2203 C 233.292 -1.20408 -1.67886 0
M  V30 2204 C 233.7 0.237429 -1.87704 0
M  V30 2205 O 233.043 1.17048 -1.41582 0
M  V30 2206 C 233.105 -1.84887 -3.08314 0
M  V30 2207 C 232.769 -3.34189 -3.11716 0
M  V30 2208 C 233.766 -4.30374 -2.91675 0
M  V30 2209 C 231.451 -3.75431 -3.33701 0
M  V30 2210 C 233.445 -5.65776 -2.93557 0
M  V30 2211 C 231.132 -5.10955 -3.35214 0
M  V30 2212 C 232.13 -6.05938 -3.15164 0
M  V30 2213 O 231.818 -7.38987 -3.1647 0
M  V30 2214 H 231.55 -0.418289 -0.531046 0
M  V30 2215 H 234.104 -1.71514 -1.13014 0
M  V30 2216 H 232.334 -1.28295 -3.64798 0
M  V30 2217 H 234.023 -1.70011 -3.6858 0
M  V30 2218 H 234.789 -3.99844 -2.74499 0
M  V30 2219 H 230.668 -3.01953 -3.48347 0
M  V30 2220 H 234.212 -6.39889 -2.77826 0
M  V30 2221 H 230.109 -5.4113 -3.51922 0
M  V30 2222 H 230.877 -7.47823 -3.3272 0
M  V30 2223 N 233.54 1.10788 -1.12088 0
M  V30 2224 C 234.817 1.79136 -0.785476 0
M  V30 2225 C 235.197 1.98246 0.725377 0
M  V30 2226 O 234.545 1.57258 1.65778 0
M  V30 2227 C 234.755 3.12375 -1.55636 0
M  V30 2228 C 236.103 3.8731 -1.74001 0
M  V30 2229 O 237.127 3.22085 -1.52117 0
M  V30 2230 O 235.986 5.04369 -2.10415 0
M  V30 2231 H 233.08 0.776226 -0.285311 0
M  V30 2232 H 235.626 1.1747 -1.2247 0
M  V30 2233 H 234.398 2.93863 -2.5838 0
M  V30 2234 H 234.021 3.81758 -1.11114 0
M  V30 2235 N 235.018 0.912232 1.28515 0
M  V30 2236 C 236.264 0.545405 1.95328 0
M  V30 2237 C 236.597 -0.908313 1.71649 0
M  V30 2238 O 235.872 -1.64575 1.03659 0
M  V30 2239 C 236.155 0.853483 3.4984 0
M  V30 2240 C 236.008 2.35982 3.82926 0
M  V30 2241 C 237.327 0.348589 4.38717 0
M  V30 2242 H 234.446 0.199626 0.709449 0
M  V30 2243 H 237.088 1.1412 1.5191 0
M  V30 2244 H 235.238 0.34643 3.86952 0
M  V30 2245 H 236.91 2.93738 3.55691 0
M  V30 2246 H 235.153 2.81543 3.30024 0
M  V30 2247 H 235.824 2.52593 4.90816 0
M  V30 2248 H 238.3 0.78294 4.08668 0
M  V30 2249 H 237.176 0.593242 5.45685 0
M  V30 2250 H 237.437 -0.751049 4.35674 0
M  V30 2251 N 236.496 -1.42363 0.676048 0
M  V30 2252 C 237.443 -2.308 -0.00150904 0
M  V30 2253 C 238.413 -1.46032 -0.791444 0
M  V30 2254 O 239.598 -1.74861 -0.76344 0
M  V30 2255 C 236.738 -3.31883 -0.945919 0
M  V30 2256 C 235.851 -4.31741 -0.149675 0
M  V30 2257 C 234.986 -5.19898 -1.08995 0
M  V30 2258 C 234.025 -6.11434 -0.285465 0
M  V30 2259 N 233.162 -6.92138 -1.17851 0
M  V30 2260 H 238.002 -2.88187 0.758455 0
M  V30 2261 H 235.539 -1.41952 0.38576 0
M  V30 2262 H 237.497 -3.89019 -1.50731 0
M  V30 2263 H 236.127 -2.76093 -1.6725 0
M  V30 2264 H 235.179 -3.76713 0.528359 0
M  V30 2265 H 236.491 -4.96534 0.474866 0
M  V30 2266 H 235.645 -5.81772 -1.72123 0
M  V30 2267 H 234.384 -4.55284 -1.74837 0
M  V30 2268 H 233.389 -5.48627 0.359018 0
M  V30 2269 H 234.614 -6.78097 0.368883 0
M  V30 2270 H 232.56 -6.30152 -1.82332 0
M  V30 2271 H 232.477 -7.53542 -0.609082 0
M  V30 2272 H 233.745 -7.58499 -1.79722 0
M  V30 2273 N 237.974 -0.419461 -1.51915 0
M  V30 2274 C 239.199 0.154572 -2.06823 0
M  V30 2275 C 239.624 1.3722 -1.28656 0
M  V30 2276 O 238.982 1.78461 -0.319583 0
M  V30 2277 C 239.03 0.473172 -3.57482 0
M  V30 2278 O 238.134 1.56255 -3.81652 0
M  V30 2279 H 237.475 0.0096924 -0.663929 0
M  V30 2280 H 240.005 -0.595642 -1.95738 0
M  V30 2281 H 240.015 0.728825 -4.01438 0
M  V30 2282 H 238.69 -0.416873 -4.13805 0
M  V30 2283 H 237.267 1.29825 -3.49571 0
M  V30 2284 N 239.452 1.56882 -0.150215 0
M  V30 2285 C 240.7 1.9584 0.499105 0
M  V30 2286 C 241.021 1.03623 1.65188 0
M  V30 2287 O 240.291 0.0984084 1.95653 0
M  V30 2288 H 238.871 0.723119 0.187373 0
M  V30 2289 H 241.533 1.9358 -0.226466 0
M  V30 2290 H 240.629 2.99638 0.873122 0
M  V30 2291 N 240.93 -0.123565 1.57115 0
M  V30 2292 C 242.176 -0.833386 1.84885 0
M  V30 2293 C 242.509 -1.79742 0.735292 0
M  V30 2294 O 241.784 -1.92764 -0.25925 0
M  V30 2295 C 242.067 -1.5873 3.23228 0
M  V30 2296 C 241.92 -0.643183 4.45178 0
M  V30 2297 C 243.239 -2.54453 3.59085 0
M  V30 2298 H 240.358 -0.301518 0.6725 0
M  V30 2299 H 243 -0.097778 1.89748 0
M  V30 2300 H 241.15 -2.21438 3.19214 0
M  V30 2301 H 242.822 -0.0253015 4.61293 0
M  V30 2302 H 241.065 0.0456139 4.33776 0
M  V30 2303 H 241.736 -1.20724 5.38637 0
M  V30 2304 H 244.212 -2.01853 3.63861 0
M  V30 2305 H 243.088 -3.04238 4.5687 0
M  V30 2306 H 243.349 -3.36906 2.86264 0
M  V30 2307 N 242.408 -1.52605 -0.393616 0
M  V30 2308 C 243.371 -1.76415 -1.46323 0
M  V30 2309 C 244.371 -0.634126 -1.47768 0
M  V30 2310 O 245.561 -0.902142 -1.4902 0
M  V30 2311 C 242.693 -1.8607 -2.85641 0
M  V30 2312 H 243.886 -2.71916 -1.26498 0
M  V30 2313 H 241.439 -1.43257 -0.625073 0
M  V30 2314 H 242.174 -0.925378 -3.10817 0
M  V30 2315 H 241.959 -2.68235 -2.85993 0
M  V30 2316 H 243.449 -2.06179 -3.63153 0
M  V30 2317 N 243.887 0.651787 -1.4349 0
M  V30 2318 C 245.133 1.41376 -1.45398 0
M  V30 2319 C 245.466 1.94041 -0.0784823 0
M  V30 2320 O 244.741 1.72379 0.900878 0
M  V30 2321 C 245.024 2.59414 -2.49752 0
M  V30 2322 C 244.877 2.12232 -3.96582 0
M  V30 2323 C 246.196 3.61626 -2.50827 0
M  V30 2324 H 243.315 0.512719 -0.529422 0
M  V30 2325 H 245.957 0.738796 -1.75048 0
M  V30 2326 H 244.107 3.16997 -2.246 0
M  V30 2327 H 245.779 1.59639 -4.32797 0
M  V30 2328 H 244.022 1.43592 -4.09346 0
M  V30 2329 H 244.693 2.9712 -4.65214 0
M  V30 2330 H 247.169 3.13805 -2.7325 0
M  V30 2331 H 246.045 4.41766 -3.25783 0
M  V30 2332 H 246.306 4.14314 -1.5426 0
M  V30 2333 N 245.365 1.30045 0.890287 0
M  V30 2334 C 246.613 1.18327 1.63839 0
M  V30 2335 C 246.934 -0.263455 1.93212 0
M  V30 2336 O 246.204 -1.17856 1.56482 0
M  V30 2337 H 244.784 0.434933 0.607324 0
M  V30 2338 H 247.446 1.631 1.06698 0
M  V30 2339 H 246.542 1.74024 2.59079 0
M  V30 2340 N 246.843 -1.10192 1.12674 0
M  V30 2341 C 248.091 -1.81845 0.881861 0
M  V30 2342 C 248.412 -1.85737 -0.593867 0
M  V30 2343 O 247.682 -1.33724 -1.4316 0
M  V30 2344 H 246.262 -0.673432 0.323261 0
M  V30 2345 H 248.924 -1.33316 1.42172 0
M  V30 2346 H 248.02 -2.85288 1.2656 0
M  V30 2347 N 248.321 -0.919034 -1.28029 0
M  V30 2348 C 249.251 -0.428581 -2.29533 0
M  V30 2349 C 250.232 0.50659 -1.62381 0
M  V30 2350 O 251.417 0.413195 -1.89753 0
M  V30 2351 C 248.547 0.327388 -3.45753 0
M  V30 2352 C 247.501 -0.519137 -4.2484 0
M  V30 2353 C 246.827 0.365486 -5.33449 0
M  V30 2354 C 248.127 -1.77914 -4.91064 0
M  V30 2355 H 249.821 -1.27687 -2.70807 0
M  V30 2356 H 247.367 -0.615428 -1.30186 0
M  V30 2357 H 249.32 0.681378 -4.15855 0
M  V30 2358 H 248.044 1.20963 -3.03374 0
M  V30 2359 H 246.703 -0.855717 -3.56473 0
M  V30 2360 H 246.351 1.24642 -4.87312 0
M  V30 2361 H 246.051 -0.197356 -5.87268 0
M  V30 2362 H 247.575 0.715241 -6.06396 0
M  V30 2363 H 248.989 -1.49374 -5.53498 0
M  V30 2364 H 247.386 -2.2848 -5.54903 0
M  V30 2365 H 248.456 -2.50382 -4.15255 0
M  V30 2366 N 249.799 1.42003 -0.683588 0
M  V30 2367 C 250.762 2.29191 -0.0198243 0
M  V30 2368 C 251.762 1.43773 0.72013 0
M  V30 2369 O 252.952 1.65061 0.556815 0
M  V30 2370 C 250.084 3.26435 0.982487 0
M  V30 2371 H 251.277 2.8938 -0.787345 0
M  V30 2372 H 248.83 1.49789 -0.446418 0
M  V30 2373 H 249.565 2.71203 1.77819 0
M  V30 2374 H 249.35 3.89449 0.455182 0
M  V30 2375 H 250.84 3.918 1.44508 0
M  V30 2376 N 251.277 0.427512 1.51691 0
M  V30 2377 C 252.525 -0.141948 2.01601 0
M  V30 2378 C 252.846 -1.44067 1.31414 0
M  V30 2379 O 252.116 -1.90763 0.445658 0
M  V30 2380 H 250.696 -0.0554468 0.744939 0
M  V30 2381 H 253.358 0.567968 1.86441 0
M  V30 2382 H 252.454 -0.324913 3.10404 0
M  V30 2383 N 252.755 -1.56801 0.158532 0
M  V30 2384 C 253.985 -2.00568 -0.495583 0
M  V30 2385 C 254.393 -1.03774 -1.58201 0
M  V30 2386 O 253.736 -0.0285797 -1.83678 0
M  V30 2387 C 253.798 -3.40768 -1.14532 0
M  V30 2388 C 253.462 -4.56553 -0.202101 0
M  V30 2389 C 254.459 -5.16714 0.574675 0
M  V30 2390 C 252.144 -5.02197 -0.101648 0
M  V30 2391 C 254.138 -6.20939 1.43924 0
M  V30 2392 C 251.825 -6.06274 0.766508 0
M  V30 2393 C 252.823 -6.65515 1.53555 0
M  V30 2394 O 252.511 -7.67575 2.38922 0
M  V30 2395 H 252.243 -0.662893 -0.13247 0
M  V30 2396 H 254.797 -2.03829 0.253559 0
M  V30 2397 H 253.027 -3.34381 -1.94233 0
M  V30 2398 H 254.716 -3.6857 -1.70033 0
M  V30 2399 H 255.482 -4.82341 0.507167 0
M  V30 2400 H 251.361 -4.55807 -0.689994 0
M  V30 2401 H 254.905 -6.67107 2.03996 0
M  V30 2402 H 250.802 -6.40073 0.835266 0
M  V30 2403 H 251.57 -7.84844 2.32296 0
M  V30 2404 N 254.233 0.115231 -1.57178 0
M  V30 2405 C 255.644 0.67197 -1.74188 0
M  V30 2406 C 255.995 1.80125 -0.777777 0
M  V30 2407 O 255.12 2.16346 0.0484376 0
M  V30 2408 C 255.715 1.22573 -3.1585 0
M  V30 2409 C 254.274 1.72872 -3.34353 0
M  V30 2410 C 253.421 0.629972 -2.70049 0
M  V30 2411 H 256.372 -0.110712 -1.58313 0
M  V30 2412 H 256.393 2.09535 -3.17609 0
M  V30 2413 H 255.905 0.403598 -3.85996 0
M  V30 2414 H 254.006 2.5755 -2.69256 0
M  V30 2415 H 254.119 1.83557 -4.42542 0
M  V30 2416 H 252.483 1.0645 -2.31388 0
M  V30 2417 H 253.266 -0.181241 -3.42821 0
M  V30 2418 N 255.711 1.52812 0.385517 0
M  V30 2419 C 256.959 1.67694 1.12797 0
M  V30 2420 C 257.28 0.421115 1.90399 0
M  V30 2421 O 256.55 -0.564551 1.87589 0
M  V30 2422 H 255.13 0.618155 0.419396 0
M  V30 2423 H 257.792 1.89938 0.436972 0
M  V30 2424 H 256.888 2.52896 1.82894 0
M  V30 2425 N 257.189 -0.644168 1.43834 0
M  V30 2426 C 258.6 -1.22554 1.40845 0
M  V30 2427 C 258.951 -1.9585 0.117115 0
M  V30 2428 O 258.076 -2.01734 -0.783086 0
M  V30 2429 C 258.671 -2.22907 2.55143 0
M  V30 2430 C 257.23 -2.76501 2.5539 0
M  V30 2431 C 256.377 -1.51287 2.32396 0
M  V30 2432 H 259.328 -0.43563 1.52604 0
M  V30 2433 H 259.349 -3.05259 2.2715 0
M  V30 2434 H 258.861 -1.69533 3.49114 0
M  V30 2435 H 256.962 -3.33914 1.65324 0
M  V30 2436 H 257.075 -3.23429 3.53455 0
M  V30 2437 H 255.439 -1.78957 1.81236 0
M  V30 2438 H 256.222 -0.998336 3.28463 0
M  V30 2439 N 258.668 -1.30515 -0.883378 0
M  V30 2440 C 259.631 -1.1701 -1.97082 0
M  V30 2441 C 260.631 -0.10089 -1.60483 0
M  V30 2442 O 261.821 -0.349127 -1.70666 0
M  V30 2443 C 258.953 -0.793045 -3.31547 0
M  V30 2444 H 260.146 -2.13622 -2.10489 0
M  V30 2445 H 257.699 -1.13935 -1.06998 0
M  V30 2446 H 258.434 0.172499 -3.23841 0
M  V30 2447 H 258.219 -1.56576 -3.5948 0
M  V30 2448 H 259.709 -0.722073 -4.1131 0
M  V30 2449 N 260.146 1.09593 -1.13257 0
M  V30 2450 C 261.394 1.81375 -0.891492 0
M  V30 2451 C 261.715 1.86049 0.584009 0
M  V30 2452 O 260.985 1.34481 1.42449 0
M  V30 2453 H 259.565 0.671708 -0.326828 0
M  V30 2454 H 262.227 1.3256 -1.42877 0
M  V30 2455 H 261.323 2.84612 -1.28071 0
M  V30 2456 N 261.624 0.925811 1.2754 0
M  V30 2457 C 263.035 0.610102 1.7645 0
M  V30 2458 C 263.386 -0.874723 1.75622 0
M  V30 2459 O 262.511 -1.68444 1.35851 0
M  V30 2460 C 263.106 1.10073 3.20421 0
M  V30 2461 C 261.665 0.835723 3.67005 0
M  V30 2462 C 260.812 1.26054 2.46993 0
M  V30 2463 H 263.763 1.10579 1.13833 0
M  V30 2464 H 263.784 0.447557 3.77859 0
M  V30 2465 H 263.296 2.18143 3.20991 0
M  V30 2466 H 261.397 -0.231249 3.71882 0
M  V30 2467 H 261.51 1.45193 4.56569 0
M  V30 2468 H 259.874 0.679111 2.45479 0
M  V30 2469 H 260.657 2.34984 2.50275 0
M  V30 2470 N 263.102 -1.41638 0.69111 0
M  V30 2471 C 264.513 -1.84346 0.295517 0
M  V30 2472 C 264.864 -1.57833 -1.16547 0
M  V30 2473 O 263.989 -1.04648 -1.89414 0
M  V30 2474 C 264.584 -3.34636 0.529575 0
M  V30 2475 C 263.143 -3.7593 0.187944 0
M  V30 2476 C 262.29 -2.65082 0.814052 0
M  V30 2477 H 265.241 -1.31253 0.892092 0
M  V30 2478 H 265.262 -3.79903 -0.213148 0
M  V30 2479 H 264.774 -3.53901 1.59297 0
M  V30 2480 H 262.875 -3.62268 -0.871367 0
M  V30 2481 H 262.988 -4.74808 0.63985 0
M  V30 2482 H 261.352 -2.53528 0.244017 0
M  V30 2483 H 262.135 -2.87167 1.88123 0
M  V30 2484 N 264.58 -0.43555 -1.51462 0
M  V30 2485 C 265.828 0.131254 -2.01673 0
M  V30 2486 C 266.149 1.43368 -1.32177 0
M  V30 2487 O 265.419 1.90524 -0.455769 0
M  V30 2488 H 263.999 0.0514954 -0.745223 0
M  V30 2489 H 266.661 -0.577847 -1.86137 0
M  V30 2490 H 265.757 0.308446 -3.10572 0
M  V30 2491 N 266.058 1.56714 -0.166846 0
M  V30 2492 C 267.469 1.83378 0.350646 0
M  V30 2493 C 267.82 1.08646 1.63372 0
M  V30 2494 O 266.945 0.338058 2.13743 0
M  V30 2495 C 267.54 3.32643 0.642963 0
M  V30 2496 C 266.099 3.59818 1.10491 0
M  V30 2497 C 265.246 2.76954 0.138411 0
M  V30 2498 H 268.197 1.53803 -0.391193 0
M  V30 2499 H 268.218 3.49878 1.49551 0
M  V30 2500 H 267.73 3.87007 -0.291055 0
M  V30 2501 H 265.831 3.1086 2.05418 0
M  V30 2502 H 265.944 4.68178 1.01716 0
M  V30 2503 H 264.308 2.4666 0.634911 0
M  V30 2504 H 265.091 3.34097 -0.789549 0
M  V30 2505 N 267.536 -0.106894 1.57237 0
M  V30 2506 C 268.947 -0.662723 1.74542 0
M  V30 2507 C 269.298 -1.7971 0.787319 0
M  V30 2508 O 268.423 -2.16368 -0.0369636 0
M  V30 2509 C 269.018 -1.20896 3.16496 0
M  V30 2510 C 267.577 -1.71096 3.35266 0
M  V30 2511 C 266.724 -0.615642 2.7038 0
M  V30 2512 H 269.675 0.119106 1.58252 0
M  V30 2513 H 269.696 -2.07847 3.18716 0
M  V30 2514 H 269.208 -0.383122 3.86204 0
M  V30 2515 H 267.309 -2.56119 2.70618 0
M  V30 2516 H 267.422 -1.81208 4.43509 0
M  V30 2517 H 265.786 -1.05222 2.31949 0
M  V30 2518 H 266.569 0.199419 3.4272 0
M  V30 2519 N 269.014 -1.53014 -0.377408 0
M  V30 2520 C 270.262 -1.6829 -1.11906 0
M  V30 2521 C 270.583 -0.431206 -1.90173 0
M  V30 2522 O 269.853 0.554595 -1.87886 0
M  V30 2523 H 268.433 -0.620371 -0.416112 0
M  V30 2524 H 271.095 -1.90167 -0.426893 0
M  V30 2525 H 270.191 -2.53862 -1.8155 0
M  V30 2526 N 270.492 0.636531 -1.44174 0
M  V30 2527 C 271.903 1.21806 -1.41493 0
M  V30 2528 C 272.254 1.95785 -0.1275 0
M  V30 2529 O 271.379 2.02147 0.772376 0
M  V30 2530 C 271.974 2.21551 -2.56321 0
M  V30 2531 C 270.533 2.75143 -2.56853 0
M  V30 2532 C 269.68 1.50052 -2.33195 0
M  V30 2533 H 272.631 0.427531 -1.52833 0
M  V30 2534 H 272.652 3.0405 -2.28765 0
M  V30 2535 H 272.164 1.67679 -3.50008 0
M  V30 2536 H 270.265 3.33033 -1.67093 0
M  V30 2537 H 270.378 3.2155 -3.55165 0
M  V30 2538 H 268.742 1.77993 -1.82183 0
M  V30 2539 H 269.525 0.980903 -3.28988 0
M  V30 2540 N 271.97 1.30982 0.876444 0
M  V30 2541 C 273.381 1.18277 1.44456 0
M  V30 2542 C 273.732 -0.213265 1.95037 0
M  V30 2543 O 272.857 -1.11057 1.85729 0
M  V30 2544 C 273.452 2.1411 2.62569 0
M  V30 2545 C 272.011 2.05358 3.15444 0
M  V30 2546 C 271.158 2.03706 1.88146 0
M  V30 2547 H 274.109 1.43127 0.685584 0
M  V30 2548 H 274.13 1.72692 3.39054 0
M  V30 2549 H 273.642 3.15706 2.25724 0
M  V30 2550 H 271.743 1.06934 3.56926 0
M  V30 2551 H 271.856 2.94156 3.78166 0
M  V30 2552 H 270.22 1.48629 2.06837 0
M  V30 2553 H 271.003 3.07047 1.53547 0
M  V30 2554 N 273.449 -1.08991 1.13837 0
M  V30 2555 C 274.697 -1.80899 0.901098 0
M  V30 2556 C 275.018 -1.86356 -0.574134 0
M  V30 2557 O 274.288 -1.35235 -1.41733 0
M  V30 2558 H 272.868 -0.669966 0.330386 0
M  V30 2559 H 275.53 -1.318 1.43578 0
M  V30 2560 H 274.626 -2.83929 1.29578 0
M  V30 2561 N 274.927 -0.932562 -1.27047 0
M  V30 2562 C 276.155 -0.592031 -1.98249 0
M  V30 2563 C 276.57 0.831062 -1.69525 0
M  V30 2564 O 275.927 1.55299 -0.958561 0
M  V30 2565 C 275.978 -0.814279 -3.5221 0
M  V30 2566 O 275.699 -2.18139 -3.7993 0
M  V30 2567 C 277.2 -0.483121 -4.4066 0
M  V30 2568 H 274.42 -0.223896 -0.632544 0
M  V30 2569 H 276.964 -1.25091 -1.61779 0
M  V30 2570 H 275.119 -0.20213 -3.86872 0
M  V30 2571 H 275.533 -2.235 -4.74498 0
M  V30 2572 H 277.007 -0.689298 -5.47679 0
M  V30 2573 H 277.484 0.581546 -4.35333 0
M  V30 2574 H 278.09 -1.07362 -4.11526 0
M  V30 2575 N 276.405 1.4127 -0.698611 0
M  V30 2576 C 277.63 2.06024 -0.238512 0
M  V30 2577 C 278.055 1.5224 1.10475 0
M  V30 2578 O 277.413 0.650623 1.69223 0
M  V30 2579 C 277.461 3.59988 -0.209952 0
M  V30 2580 O 276.565 4.04282 0.814235 0
M  V30 2581 H 275.906 0.653829 -0.115775 0
M  V30 2582 H 278.436 1.8098 -0.954326 0
M  V30 2583 H 278.446 4.07979 -0.0418436 0
M  V30 2584 H 277.121 3.98503 -1.1903 0
M  V30 2585 H 275.698 3.6779 0.615234 0
M  V30 2586 N 277.883 0.443576 1.51229 0
M  V30 2587 C 279.131 -0.120557 2.0174 0
M  V30 2588 C 279.452 -1.42665 1.32935 0
M  V30 2589 O 278.722 -1.9028 0.465866 0
M  V30 2590 H 277.302 -0.0475426 0.745486 0
M  V30 2591 H 279.964 0.587711 1.85828 0
M  V30 2592 H 279.06 -0.291972 3.10731 0
M  V30 2593 N 279.361 -1.56624 0.175154 0
M  V30 2594 C 280.311 -2.14747 -0.766004 0
M  V30 2595 C 281.295 -1.08275 -1.19018 0
M  V30 2596 O 282.487 -1.34388 -1.15191 0
M  V30 2597 C 279.616 -2.79478 -1.99366 0
M  V30 2598 C 278.702 -3.93114 -1.5913 0
M  V30 2599 N 279.093 -4.97752 -0.89872 0
M  V30 2600 C 277.391 -4.04345 -1.88204 0
M  V30 2601 C 278.092 -5.77473 -0.700012 0
M  V30 2602 N 277.068 -5.29207 -1.24263 0
M  V30 2603 H 280.87 -2.93015 -0.22793 0
M  V30 2604 H 278.384 -1.6238 -0.0253843 0
M  V30 2605 H 280.381 -3.19498 -2.67818 0
M  V30 2606 H 279.041 -2.02692 -2.53665 0
M  V30 2607 H 280.052 -5.14903 -0.556347 0
M  V30 2608 H 276.729 -3.38667 -2.44153 0
M  V30 2609 H 278.119 -6.71728 -0.152047 0
M  V30 2610 N 280.839 0.0985539 -1.57292 0
M  V30 2611 C 282.25 0.653457 -1.74891 0
M  V30 2612 C 282.601 1.7929 -0.796838 0
M  V30 2613 O 281.726 2.16385 0.0254886 0
M  V30 2614 C 282.321 1.19216 -3.17133 0
M  V30 2615 C 280.88 1.69316 -3.36168 0
M  V30 2616 C 280.027 0.601294 -2.70702 0
M  V30 2617 H 282.978 -0.127497 -1.58187 0
M  V30 2618 H 282.999 2.06154 -3.19814 0
M  V30 2619 H 282.511 0.362635 -3.86402 0
M  V30 2620 H 280.612 2.5468 -2.71972 0
M  V30 2621 H 280.725 1.78853 -4.44464 0
M  V30 2622 H 279.089 1.0399 -2.32504 0
M  V30 2623 H 279.872 -0.217592 -3.4261 0
M  V30 2624 N 282.317 1.53212 0.369288 0
M  V30 2625 C 283.565 1.68881 1.11012 0
M  V30 2626 C 283.886 0.441285 1.89941 0
M  V30 2627 O 283.156 -0.544623 1.88177 0
M  V30 2628 H 281.736 0.622569 0.412816 0
M  V30 2629 H 284.398 1.90391 0.416802 0
M  V30 2630 H 283.494 2.54822 1.80201 0
M  V30 2631 N 283.795 -0.628877 1.44509 0
M  V30 2632 C 285.02 -1.42048 1.5112 0
M  V30 2633 C 285.445 -1.87594 0.137818 0
M  V30 2634 O 284.803 -1.58873 -0.873437 0
M  V30 2635 C 284.851 -2.61541 2.48251 0
M  V30 2636 O 283.955 -3.61453 1.98559 0
M  V30 2637 H 283.296 -0.424942 0.510216 0
M  V30 2638 H 285.826 -0.767374 1.89664 0
M  V30 2639 H 285.836 -3.09057 2.66361 0
M  V30 2640 H 284.511 -2.27736 3.48007 0
M  V30 2641 H 283.088 -3.20731 1.90227 0
M  V30 2642 N 285.273 -1.31445 -0.869486 0
M  V30 2643 C 286.684 -1.19042 -1.43826 0
M  V30 2644 C 287.035 0.202919 -1.95148 0
M  V30 2645 O 286.16 1.10071 -1.86315 0
M  V30 2646 C 286.755 -2.15499 -2.6143 0
M  V30 2647 C 285.314 -2.07028 -3.14351 0
M  V30 2648 C 284.461 -2.04701 -1.87063 0
M  V30 2649 H 287.412 -1.43489 -0.677984 0
M  V30 2650 H 287.433 -1.74488 -3.38134 0
M  V30 2651 H 286.945 -3.16899 -2.24046 0
M  V30 2652 H 285.046 -1.08825 -3.56354 0
M  V30 2653 H 285.159 -2.96157 -3.766 0
M  V30 2654 H 283.523 -1.49724 -2.06046 0
M  V30 2655 H 284.306 -3.07857 -1.51917 0
M  V30 2656 N 286.751 1.08385 -1.14413 0
M  V30 2657 C 287.999 1.80419 -0.910679 0
M  V30 2658 C 288.32 1.86658 0.564243 0
M  V30 2659 O 287.59 1.35985 1.41014 0
M  V30 2660 H 286.17 0.668204 -0.333934 0
M  V30 2661 H 288.832 1.31037 -1.44275 0
M  V30 2662 H 287.928 2.83238 -1.31082 0
M  V30 2663 N 288.23 0.939286 1.26551 0
M  V30 2664 C 289.455 0.602008 1.98471 0
M  V30 2665 C 289.88 -0.815624 1.69497 0
M  V30 2666 O 289.238 -1.54912 0.941905 0
M  V30 2667 C 289.286 0.848407 3.50477 0
M  V30 2668 O 288.39 -0.0804009 4.12322 0
M  V30 2669 H 287.731 0.23049 0.622712 0
M  V30 2670 H 290.261 1.2617 1.61066 0
M  V30 2671 H 290.271 0.768553 4.00696 0
M  V30 2672 H 288.946 1.88171 3.70897 0
M  V30 2673 H 287.523 0.0503508 3.72866 0
M  V30 2674 N 289.708 -1.40897 0.706093 0
M  V30 2675 C 291.119 -1.84023 0.315052 0
M  V30 2676 C 291.47 -1.5906 -1.14866 0
M  V30 2677 O 290.595 -1.06651 -1.88293 0
M  V30 2678 C 291.19 -3.34055 0.565038 0
M  V30 2679 C 289.749 -3.7571 0.227806 0
M  V30 2680 C 288.896 -2.64204 0.842122 0
M  V30 2681 H 291.847 -1.303 0.905963 0
M  V30 2682 H 291.868 -3.80107 -0.172843 0
M  V30 2683 H 291.38 -3.52192 1.63042 0
M  V30 2684 H 289.481 -3.63172 -0.832895 0
M  V30 2685 H 289.594 -4.74103 0.690174 0
M  V30 2686 H 287.958 -2.53255 0.270893 0
M  V30 2687 H 288.741 -2.85155 1.91158 0
M  V30 2688 N 291.186 -0.45159 -1.50991 0
M  V30 2689 C 292.434 0.109857 -2.01801 0
M  V30 2690 C 292.755 1.41958 -1.3369 0
M  V30 2691 O 292.025 1.9003 -0.475951 0
M  V30 2692 H 290.605 0.0435884 -0.745727 0
M  V30 2693 H 293.267 -0.597557 -1.85514 0
M  V30 2694 H 292.363 0.275489 -3.10882 0
M  V30 2695 N 292.664 1.56529 -0.183458 0
M  V30 2696 C 293.894 2.01331 0.463612 0
M  V30 2697 C 294.302 1.06278 1.5653 0
M  V30 2698 O 293.645 0.0577976 1.83609 0
M  V30 2699 C 293.707 3.42547 1.09096 0
M  V30 2700 C 293.371 4.56817 0.129442 0
M  V30 2701 C 294.368 5.15734 -0.656807 0
M  V30 2702 C 292.053 5.02295 0.02174 0
M  V30 2703 C 294.047 6.1857 -1.53784 0
M  V30 2704 C 291.734 6.04978 -0.862864 0
M  V30 2705 C 292.732 6.62988 -1.64123 0
M  V30 2706 O 292.42 7.63677 -2.51103 0
M  V30 2707 H 292.152 0.664917 0.121907 0
M  V30 2708 H 294.706 2.034 -0.285954 0
M  V30 2709 H 292.936 3.37428 1.88889 0
M  V30 2710 H 294.625 3.71228 1.64148 0
M  V30 2711 H 295.391 4.81473 -0.583839 0
M  V30 2712 H 291.27 4.56847 0.617392 0
M  V30 2713 H 294.814 6.63777 -2.14583 0
M  V30 2714 H 290.711 6.38663 -0.93699 0
M  V30 2715 H 291.479 7.81049 -2.44753 0
M  V30 2716 N 294.142 -0.090211 1.57342 0
M  V30 2717 C 295.074 -1.13541 1.99101 0
M  V30 2718 C 296.087 -1.3604 0.894258 0
M  V30 2719 O 297.276 -1.34606 1.17233 0
M  V30 2720 C 294.376 -2.49001 2.29895 0
M  V30 2721 C 293.549 -2.46712 3.61182 0
M  V30 2722 C 292.608 -3.64136 3.79857 0
M  V30 2723 O 291.634 -3.46405 4.51655 0
M  V30 2724 N 292.836 -4.83802 3.20806 0
M  V30 2725 H 295.601 -0.779942 2.89373 0
M  V30 2726 H 293.162 -0.279125 1.59476 0
M  V30 2727 H 295.154 -3.26166 2.39578 0
M  V30 2728 H 293.724 -2.76619 1.45605 0
M  V30 2729 H 292.944 -1.55058 3.62423 0
M  V30 2730 H 294.232 -2.42265 4.4742 0
M  V30 2731 H 293.63 -5.01112 2.62494 0
M  V30 2732 H 292.187 -5.58543 3.35966 0
M  V30 2733 N 295.62 -1.53406 -0.361157 0
M  V30 2734 C 296.868 -1.69467 -1.10115 0
M  V30 2735 C 297.189 -0.451352 -1.89705 0
M  V30 2736 O 296.459 0.534636 -1.88463 0
M  V30 2737 H 295.039 -0.624749 -0.409508 0
M  V30 2738 H 297.701 -1.90609 -0.406699 0
M  V30 2739 H 296.797 -2.55774 -1.78847 0
M  V30 2740 N 297.098 0.621204 -1.44841 0
M  V30 2741 C 298.509 1.20298 -1.42777 0
M  V30 2742 C 298.86 1.95639 -0.148259 0
M  V30 2743 O 297.985 2.02955 0.750892 0
M  V30 2744 C 298.58 2.1882 -2.58657 0
M  V30 2745 C 297.139 2.72403 -2.59756 0
M  V30 2746 C 296.286 1.4757 -2.34773 0
M  V30 2747 H 299.237 0.411297 -1.53278 0
M  V30 2748 H 299.258 3.01607 -2.31977 0
M  V30 2749 H 298.77 1.63957 -3.51766 0
M  V30 2750 H 296.871 3.31242 -1.70615 0
M  V30 2751 H 296.984 3.17765 -3.58556 0
M  V30 2752 H 295.348 1.76051 -1.8406 0
M  V30 2753 H 296.131 0.945954 -3.3001 0
M  V30 2754 N 298.576 1.31904 0.862503 0
M  V30 2755 C 299.987 1.19803 1.43193 0
M  V30 2756 C 300.338 -0.192567 1.95253 0
M  V30 2757 O 299.463 -1.09081 1.86896 0
M  V30 2758 C 300.058 2.16883 2.60283 0
M  V30 2759 C 298.617 2.08692 3.13248 0
M  V30 2760 C 297.764 2.05691 1.85975 0
M  V30 2761 H 300.715 1.43846 0.670365 0
M  V30 2762 H 300.736 1.76278 3.37204 0
M  V30 2763 H 300.248 3.18083 2.22363 0
M  V30 2764 H 298.349 1.10713 3.55771 0
M  V30 2765 H 298.462 2.9815 3.75025 0
M  V30 2766 H 296.826 1.50814 2.05249 0
M  V30 2767 H 297.609 3.08659 1.50282 0
M  V30 2768 N 300.054 -1.07777 1.14986 0
M  V30 2769 C 301.302 -1.79934 0.920235 0
M  V30 2770 C 301.623 -1.86955 -0.554336 0
M  V30 2771 O 300.893 -1.36731 -1.40291 0
M  V30 2772 H 299.473 -0.666424 0.337473 0
M  V30 2773 H 302.135 -1.3027 1.44968 0
M  V30 2774 H 301.231 -2.82539 1.32583 0
M  V30 2775 N 301.532 -0.945985 -1.26051 0
M  V30 2776 C 302.442 -0.465633 -2.29933 0
M  V30 2777 C 303.458 0.462761 -1.67733 0
M  V30 2778 O 304.634 0.341118 -1.9849 0
M  V30 2779 C 301.699 0.256994 -3.45746 0
M  V30 2780 C 300.76 -0.708549 -4.23412 0
M  V30 2781 C 299.993 -0.0203135 -5.33696 0
M  V30 2782 O 300.216 1.19571 -5.57726 0
M  V30 2783 O 299.15 -0.701459 -5.97799 0
M  V30 2784 H 302.976 -1.32866 -2.73094 0
M  V30 2785 H 300.561 -0.712071 -1.31339 0
M  V30 2786 H 302.443 0.663852 -4.16138 0
M  V30 2787 H 301.118 1.09533 -3.04605 0
M  V30 2788 H 300.025 -1.16545 -3.55483 0
M  V30 2789 H 301.358 -1.51465 -4.68315 0
M  V30 2790 N 303.011 1.40521 -0.713556 0
M  V30 2791 C 304.422 1.83853 -0.324807 0
M  V30 2792 C 304.773 1.59667 1.14021 0
M  V30 2793 O 303.898 1.07649 1.87725 0
M  V30 2794 C 304.493 3.33751 -0.582746 0
M  V30 2795 C 303.052 3.75584 -0.247727 0
M  V30 2796 C 302.199 2.63753 -0.856121 0
M  V30 2797 H 305.15 1.29817 -0.91286 0
M  V30 2798 H 305.171 3.80194 0.152682 0
M  V30 2799 H 304.683 3.51322 -1.64908 0
M  V30 2800 H 302.784 3.63608 0.813624 0
M  V30 2801 H 302.897 4.7373 -0.715307 0
M  V30 2802 H 301.261 2.53108 -0.28432 0
M  V30 2803 H 302.044 2.84137 -1.92668 0
M  V30 2804 N 304.489 0.459591 1.5075 0
M  V30 2805 C 305.737 -0.0991532 2.01857 0
M  V30 2806 C 306.058 -1.41247 1.34441 0
M  V30 2807 O 305.328 -1.89775 0.486022 0
M  V30 2808 H 303.908 -0.039633 0.745948 0
M  V30 2809 H 306.57 0.607387 1.85194 0
M  V30 2810 H 305.666 -0.258998 3.11023 0
M  V30 2811 N 305.967 -1.56429 0.191757 0
M  V30 2812 C 306.899 -2.16154 -0.762245 0
M  V30 2813 C 307.912 -1.12247 -1.17917 0
M  V30 2814 O 309.101 -1.39353 -1.11548 0
M  V30 2815 C 306.201 -2.70606 -2.04024 0
M  V30 2816 C 305.374 -3.99381 -1.78364 0
M  V30 2817 C 304.433 -4.38692 -2.90578 0
M  V30 2818 O 303.459 -5.06179 -2.6033 0
M  V30 2819 N 304.661 -4.01922 -4.18854 0
M  V30 2820 H 307.426 -2.98643 -0.251526 0
M  V30 2821 H 304.987 -1.61897 0.00967373 0
M  V30 2822 H 306.979 -2.93891 -2.78227 0
M  V30 2823 H 305.549 -1.9259 -2.46227 0
M  V30 2824 H 304.769 -3.84262 -0.879581 0
M  V30 2825 H 306.057 -4.83445 -1.58614 0
M  V30 2826 H 305.455 -3.47631 -4.46283 0
M  V30 2827 H 304.012 -4.30165 -4.89695 0
M  V30 2828 N 307.445 0.0818655 -1.57387 0
M  V30 2829 C 308.408 1.08265 -2.02018 0
M  V30 2830 C 309.408 1.32183 -0.915664 0
M  V30 2831 O 310.598 1.28073 -1.18081 0
M  V30 2832 C 307.73 2.42871 -2.39221 0
M  V30 2833 H 308.923 0.698204 -2.91659 0
M  V30 2834 H 306.476 0.327303 -1.52835 0
M  V30 2835 H 307.211 2.86167 -1.52575 0
M  V30 2836 H 306.996 2.26855 -3.19811 0
M  V30 2837 H 308.486 3.14826 -2.74362 0
M  V30 2838 N 308.923 1.53595 0.353017 0
M  V30 2839 C 310.171 1.70049 1.09215 0
M  V30 2840 C 310.492 0.461406 1.89463 0
M  V30 2841 O 309.762 -0.524633 1.88744 0
M  V30 2842 H 308.342 0.626912 0.40619 0
M  V30 2843 H 311.004 1.90822 0.396585 0
M  V30 2844 H 310.1 2.56718 1.77488 0
M  V30 2845 N 310.401 -0.613514 1.45168 0
M  V30 2846 C 311.812 -1.19539 1.43413 0
M  V30 2847 C 312.163 -1.95558 0.158632 0
M  V30 2848 O 311.288 -2.0335 -0.740119 0
M  V30 2849 C 311.883 -2.17445 2.59813 0
M  V30 2850 C 310.442 -2.71022 2.61197 0
M  V30 2851 C 309.589 -1.46323 2.35552 0
M  V30 2852 H 312.54 -0.403163 1.53494 0
M  V30 2853 H 312.561 -3.00373 2.33574 0
M  V30 2854 H 312.073 -1.62089 3.52631 0
M  V30 2855 H 310.174 -3.30332 1.7237 0
M  V30 2856 H 310.287 -3.15859 3.60236 0
M  V30 2857 H 308.651 -1.75072 1.84992 0
M  V30 2858 H 309.434 -0.92844 3.30507 0
M  V30 2859 N 311.879 -1.3236 -0.855495 0
M  V30 2860 C 313.104 -1.2601 -1.64731 0
M  V30 2861 C 313.529 0.169068 -1.87339 0
M  V30 2862 O 312.887 1.12016 -1.42556 0
M  V30 2863 C 312.935 -2.02417 -2.98429 0
M  V30 2864 O 312.039 -1.3714 -3.8893 0
M  V30 2865 H 311.38 -0.434325 -0.502253 0
M  V30 2866 H 313.91 -1.74661 -1.06558 0
M  V30 2867 H 313.92 -2.12559 -3.48257 0
M  V30 2868 H 312.595 -3.06343 -2.81295 0
M  V30 2869 H 311.172 -1.3554 -3.47395 0
M  V30 2870 N 313.357 1.07166 -1.15556 0
M  V30 2871 C 314.605 1.79443 -0.929764 0
M  V30 2872 C 314.926 1.87246 0.544414 0
M  V30 2873 O 314.196 1.37473 1.39564 0
M  V30 2874 H 312.776 0.664625 -0.341003 0
M  V30 2875 H 315.438 1.29499 -1.45657 0
M  V30 2876 H 314.534 2.81832 -1.34079 0
M  V30 2877 N 314.835 0.952656 1.25548 0
M  V30 2878 C 316.246 0.647392 1.75116 0
M  V30 2879 C 316.597 -0.837274 1.77438 0
M  V30 2880 O 315.722 -1.65525 1.39393 0
M  V30 2881 C 316.317 1.16845 3.18014 0
M  V30 2882 C 314.876 0.913382 3.6515 0
M  V30 2883 C 314.023 1.31265 2.44264 0
M  V30 2884 H 316.974 1.12968 1.11462 0
M  V30 2885 H 316.995 0.527606 3.76824 0
M  V30 2886 H 316.507 2.24902 3.16292 0
M  V30 2887 H 314.608 -0.152316 3.72289 0
M  V30 2888 H 314.721 1.54845 4.53387 0
M  V30 2889 H 313.085 0.731028 2.43984 0
M  V30 2890 H 313.868 2.40239 2.45234 0
M  V30 2891 N 316.313 -1.40141 0.720998 0
M  V30 2892 C 317.724 -1.83678 0.334553 0
M  V30 2893 C 318.075 -1.6027 -1.13173 0
M  V30 2894 O 317.2 -1.08643 -1.87152 0
M  V30 2895 C 317.795 -3.33437 0.600437 0
M  V30 2896 C 316.354 -3.75447 0.267642 0
M  V30 2897 C 315.501 -2.63296 0.870097 0
M  V30 2898 H 318.452 -1.29331 0.919732 0
M  V30 2899 H 318.473 -3.80269 -0.132517 0
M  V30 2900 H 317.985 -3.50442 1.66768 0
M  V30 2901 H 316.086 -3.64035 -0.794329 0
M  V30 2902 H 316.199 -4.73344 0.74042 0
M  V30 2903 H 314.563 -2.52954 0.297739 0
M  V30 2904 H 315.346 -2.83112 1.94172 0
M  V30 2905 N 317.792 -0.46758 -1.50504 0
M  V30 2906 C 319.04 0.0884469 -2.01906 0
M  V30 2907 C 319.361 1.40532 -1.35188 0
M  V30 2908 O 318.631 1.89515 -0.496079 0
M  V30 2909 H 317.211 0.0356765 -0.746148 0
M  V30 2910 H 319.873 -0.6172 -1.84869 0
M  V30 2911 H 318.969 0.2425 -3.11156 0
M  V30 2912 N 319.27 1.56325 -0.20005 0
M  V30 2913 C 320.681 1.8408 0.31167 0
M  V30 2914 C 321.032 1.12087 1.61031 0
M  V30 2915 O 320.157 0.38332 2.12978 0
M  V30 2916 C 320.752 3.33932 0.57226 0
M  V30 2917 C 319.311 3.6208 1.02834 0
M  V30 2918 C 318.458 2.77186 0.079634 0
M  V30 2919 H 321.409 1.52939 -0.423729 0
M  V30 2920 H 321.43 3.52971 1.42096 0
M  V30 2921 H 320.942 3.86303 -0.37308 0
M  V30 2922 H 319.043 3.15147 1.98778 0
M  V30 2923 H 319.156 4.7023 0.917624 0
M  V30 2924 H 317.52 2.47951 0.582448 0
M  V30 2925 H 318.303 3.32347 -0.860238 0
M  V30 2926 N 320.748 -0.0735177 1.57428 0
M  V30 2927 C 322.159 -0.625551 1.75908 0
M  V30 2928 C 322.51 -1.78 0.825261 0
M  V30 2929 O 321.635 -2.16398 0.00893964 0
M  V30 2930 C 322.23 -1.14155 3.18989 0
M  V30 2931 C 320.789 -1.63946 3.38819 0
M  V30 2932 C 319.936 -0.558151 2.71625 0
M  V30 2933 H 322.887 0.152647 1.57964 0
M  V30 2934 H 322.908 -2.0104 3.23053 0
M  V30 2935 H 322.42 -0.301116 3.8693 0
M  V30 2936 H 320.521 -2.50321 2.7599 0
M  V30 2937 H 320.634 -1.71759 4.47253 0
M  V30 2938 H 318.998 -1.00278 2.34129 0
M  V30 2939 H 319.781 0.272071 3.4222 0
M  V30 2940 N 322.226 -1.5378 -0.344866 0
M  V30 2941 C 323.474 -1.70625 -1.08311 0
M  V30 2942 C 323.795 -0.471447 -1.89215 0
M  V30 2943 O 323.065 0.514616 -1.8902 0
M  V30 2944 H 321.645 -0.629058 -0.402859 0
M  V30 2945 H 324.307 -1.9103 -0.386459 0
M  V30 2946 H 323.403 -2.57656 -1.76124 0
M  V30 2947 N 323.704 0.605807 -1.45491 0
M  V30 2948 C 324.667 1.69836 -1.5391 0
M  V30 2949 C 325.667 1.55261 -0.418424 0
M  V30 2950 O 326.857 1.60296 -0.681965 0
M  V30 2951 C 323.989 3.09117 -1.43734 0
M  V30 2952 H 325.182 1.63738 -2.51257 0
M  V30 2953 H 322.735 0.821689 -1.32959 0
M  V30 2954 H 323.47 3.20791 -0.475788 0
M  V30 2955 H 323.255 3.21104 -2.25021 0
M  V30 2956 H 324.745 3.88696 -1.52661 0
M  V30 2957 N 325.182 1.32811 0.848464 0
M  V30 2958 C 326.431 1.23075 1.59798 0
M  V30 2959 C 326.744 -0.204419 1.94529 0
M  V30 2960 O 327.95 -0.423701 2.68173 0
M  V30 2961 C 326.406 2.15594 2.88179 0
M  V30 2962 C 326.014 3.64228 2.60849 0
M  V30 2963 C 327.758 2.14709 3.66197 0
M  V30 2964 C 325.665 4.48689 3.85269 0
M  V30 2965 H 324.595 0.457091 0.599653 0
M  V30 2966 H 327.246 1.57813 0.936342 0
M  V30 2967 H 325.628 1.73778 3.55833 0
M  V30 2968 H 326.802 4.14424 2.01467 0
M  V30 2969 H 325.117 3.67306 1.96151 0
M  V30 2970 H 327.714 2.75046 4.58534 0
M  V30 2971 H 328.057 1.13966 4.00397 0
M  V30 2972 H 328.59 2.54837 3.05455 0
M  V30 2973 H 325.329 5.5027 3.56207 0
M  V30 2974 H 324.849 4.03241 4.44024 0
M  V30 2975 H 326.528 4.62006 4.52946 0
M  V30 2976 N 326.66 -1.06551 1.16123 0
M  V30 2977 C 327.908 -1.78947 0.939267 0
M  V30 2978 C 328.229 -1.87532 -0.534476 0
M  V30 2979 O 327.499 -1.38211 -1.38833 0
M  V30 2980 H 326.079 -0.662807 0.344523 0
M  V30 2981 H 328.741 -1.28725 1.46342 0
M  V30 2982 H 327.837 -2.81117 1.35572 0
M  V30 2983 N 328.138 -0.959301 -1.25041 0
M  V30 2984 C 329.549 -0.65667 -1.74771 0
M  V30 2985 C 329.9 0.827852 -1.77879 0
M  V30 2986 O 329.025 1.64783 -1.40269 0
M  V30 2987 C 329.62 -1.1853 -3.1739 0
M  V30 2988 C 328.179 -0.932734 -3.6466 0
M  V30 2989 C 327.326 -1.32558 -2.43564 0
M  V30 2990 H 330.277 -1.13558 -1.10862 0
M  V30 2991 H 330.298 -0.547582 -3.76539 0
M  V30 2992 H 329.81 -2.26576 -3.15095 0
M  V30 2993 H 327.911 0.13257 -3.72364 0
M  V30 2994 H 328.024 -1.57248 -4.52559 0
M  V30 2995 H 326.388 -0.743956 -2.43593 0
M  V30 2996 H 327.171 -2.41537 -2.43957 0
M  V30 2997 N 329.616 1.39756 -0.72842 0
M  V30 2998 C 330.841 2.05472 -0.282159 0
M  V30 2999 C 331.266 1.54549 1.07221 0
M  V30 3000 O 330.624 0.686372 1.67805 0
M  V30 3001 C 330.672 3.59462 -0.286264 0
M  V30 3002 O 329.776 4.05918 0.728298 0
M  V30 3003 H 329.117 0.651226 -0.129618 0
M  V30 3004 H 331.647 1.78915 -0.992499 0
M  V30 3005 H 331.657 4.07798 -0.128373 0
M  V30 3006 H 330.332 3.95889 -1.27456 0
M  V30 3007 H 328.909 3.69012 0.537081 0
M  V30 3008 N 331.094 0.475555 1.50254 0
M  V30 3009 C 332.342 -0.077738 2.0195 0
M  V30 3010 C 332.663 -1.39813 1.35931 0
M  V30 3011 O 331.933 -1.89249 0.506123 0
M  V30 3012 H 330.513 -0.031719 0.746326 0
M  V30 3013 H 333.175 0.626995 1.84539 0
M  V30 3014 H 332.271 -0.225995 3.11281 0
M  V30 3015 N 332.573 -1.56217 0.208337 0
M  V30 3016 C 333.984 -1.84243 -0.301904 0
M  V30 3017 C 334.335 -1.12939 -1.60434 0
M  V30 3018 O 333.46 -0.39461 -2.12772 0
M  V30 3019 C 334.055 -3.34231 -0.554543 0
M  V30 3020 C 332.614 -3.62621 -1.00912 0
M  V30 3021 C 331.761 -2.77224 -0.064933 0
M  V30 3022 H 334.712 -1.52712 0.431833 0
M  V30 3023 H 334.733 -3.5372 -1.40223 0
M  V30 3024 H 334.245 -3.86099 0.393561 0
M  V30 3025 H 332.346 -3.16197 -1.97104 0
M  V30 3026 H 332.459 -4.7071 -0.892674 0
M  V30 3027 H 330.823 -2.48256 -0.56929 0
M  V30 3028 H 331.606 -3.31887 0.877851 0
M  V30 3029 N 334.051 0.0651679 -1.57465 0
M  V30 3030 C 335.014 1.06117 -2.03155 0
M  V30 3031 C 336.014 1.31204 -0.929632 0
M  V30 3032 O 337.204 1.26813 -1.19432 0
M  V30 3033 C 334.336 2.4032 -2.41783 0
M  V30 3034 H 335.529 0.667231 -2.92383 0
M  V30 3035 H 333.082 0.311075 -1.53173 0
M  V30 3036 H 333.817 2.84532 -1.55601 0
M  V30 3037 H 333.602 2.23451 -3.22199 0
M  V30 3038 H 335.092 3.11898 -2.77685 0
M  V30 3039 N 335.529 1.53961 0.336706 0
M  V30 3040 C 336.777 1.71197 1.07405 0
M  V30 3041 C 337.098 0.481475 1.88962 0
M  V30 3042 O 336.368 -0.504585 1.8929 0
M  V30 3043 H 334.948 0.631185 0.399517 0
M  V30 3044 H 337.61 1.91232 0.376323 0
M  V30 3045 H 336.706 2.58587 1.74755 0
M  V30 3046 N 337.007 -0.598083 1.45811 0
M  V30 3047 C 337.954 -1.7082 1.55207 0
M  V30 3048 C 338.924 -1.61278 0.39732 0
M  V30 3049 O 340.109 -1.80717 0.612038 0
M  V30 3050 C 337.249 -3.09144 1.53376 0
M  V30 3051 C 336.362 -3.29423 2.79472 0
M  V30 3052 C 335.497 -4.57907 2.69248 0
M  V30 3053 C 334.536 -4.71476 3.90354 0
M  V30 3054 N 333.673 -5.9127 3.78608 0
M  V30 3055 H 338.513 -1.62125 2.50039 0
M  V30 3056 H 336.05 -0.790389 1.24062 0
M  V30 3057 H 338.008 -3.89186 1.50301 0
M  V30 3058 H 336.638 -3.16773 0.620876 0
M  V30 3059 H 335.69 -2.43091 2.92594 0
M  V30 3060 H 337.002 -3.3532 3.69272 0
M  V30 3061 H 336.156 -5.46157 2.64192 0
M  V30 3062 H 334.895 -4.54423 1.77063 0
M  V30 3063 H 333.9 -3.81648 3.95759 0
M  V30 3064 H 335.125 -4.76751 4.83617 0
M  V30 3065 H 333.071 -5.88813 2.89199 0
M  V30 3066 H 332.988 -5.98369 4.6205 0
M  V30 3067 H 334.256 -6.81992 3.77501 0
M  V30 3068 N 338.485 -1.33259 -0.841409 0
M  V30 3069 C 339.762 -1.15174 -1.58096 0
M  V30 3070 C 340.142 0.282858 -2.09196 0
M  V30 3071 O 339.49 1.28151 -1.89181 0
M  V30 3072 C 339.7 -2.1907 -2.71679 0
M  V30 3073 C 341.048 -2.53093 -3.40924 0
M  V30 3074 O 342.072 -2.17717 -2.81918 0
M  V30 3075 O 340.931 -3.1379 -4.47435 0
M  V30 3076 H 338.025 -0.445303 -0.696875 0
M  V30 3077 H 340.571 -1.44833 -0.884385 0
M  V30 3078 H 339.343 -3.15443 -2.31541 0
M  V30 3079 H 338.966 -1.90481 -3.49002 0
M  V30 3080 N 339.963 1.05934 -1.16686 0
M  V30 3081 C 341.211 1.78447 -0.948744 0
M  V30 3082 C 341.532 1.87813 0.524523 0
M  V30 3083 O 340.802 1.38945 1.38098 0
M  V30 3084 H 339.382 0.660971 -0.348033 0
M  V30 3085 H 342.044 1.27947 -1.47022 0
M  V30 3086 H 341.14 2.80394 -1.37061 0
M  V30 3087 N 341.441 0.965919 1.2453 0
M  V30 3088 C 342.351 0.502154 2.29163 0
M  V30 3089 C 343.367 -0.436017 1.68448 0
M  V30 3090 O 344.543 -0.309497 1.99008 0
M  V30 3091 C 341.608 -0.201956 3.46111 0
M  V30 3092 C 340.669 0.775821 4.22232 0
M  V30 3093 C 339.902 0.105217 5.33596 0
M  V30 3094 O 340.125 -1.10683 5.59558 0
M  V30 3095 O 339.059 0.796475 5.96607 0
M  V30 3096 H 342.885 1.37194 2.70946 0
M  V30 3097 H 340.47 0.732875 1.30189 0
M  V30 3098 H 342.352 -0.597564 4.17142 0
M  V30 3099 H 341.027 -1.04673 3.06309 0
M  V30 3100 H 339.934 1.22185 3.53584 0
M  V30 3101 H 341.267 1.58896 4.65846 0
M  V30 3102 N 342.919 -1.39368 0.735821 0
M  V30 3103 C 344.144 -2.05319 0.293052 0
M  V30 3104 C 344.569 -1.55115 -1.064 0
M  V30 3105 O 343.927 -0.695261 -1.67439 0
M  V30 3106 C 343.975 -3.59305 0.305323 0
M  V30 3107 O 343.079 -4.06299 -0.706761 0
M  V30 3108 H 342.42 -0.650529 0.13307 0
M  V30 3109 H 344.95 -1.78386 1.00197 0
M  V30 3110 H 344.96 -4.07724 0.149997 0
M  V30 3111 H 343.635 -3.95207 1.29553 0
M  V30 3112 H 342.212 -3.69292 -0.517504 0
M  V30 3113 N 344.397 -0.483516 -1.5 0
M  V30 3114 C 345.645 0.067027 -2.01989 0
M  V30 3115 C 345.966 1.3909 -1.36671 0
M  V30 3116 O 345.236 1.88978 -0.516152 0
M  V30 3117 H 343.816 0.0277606 -0.746484 0
M  V30 3118 H 346.478 -0.636773 -1.84204 0
M  V30 3119 H 345.574 0.209484 -3.11396 0
M  V30 3120 N 345.875 1.56104 -0.216619 0
M  V30 3121 C 347.291 1.58995 0.13886 0
M  V30 3122 C 347.491 1.23333 1.59346 0
M  V30 3123 O 346.547 0.966234 2.33281 0
M  V30 3124 C 347.86 3.00143 -0.182968 0
M  V30 3125 C 349.408 3.12751 -0.124807 0
M  V30 3126 C 349.883 4.56068 -0.420241 0
M  V30 3127 N 351.374 4.61723 -0.369634 0
M  V30 3128 C 352.109 5.70542 -0.571789 0
M  V30 3129 N 351.605 6.87744 -0.835453 0
M  V30 3130 N 353.398 5.59831 -0.504563 0
M  V30 3131 H 345.549 1.77562 -1.16557 0
M  V30 3132 H 347.812 0.825091 -0.466828 0
M  V30 3133 H 347.518 3.30871 -1.19237 0
M  V30 3134 H 347.392 3.73813 0.504367 0
M  V30 3135 H 349.779 2.81822 0.875223 0
M  V30 3136 H 349.86 2.41421 -0.845544 0
M  V30 3137 H 349.504 4.87713 -1.41769 0
M  V30 3138 H 349.434 5.25617 0.321631 0
M  V30 3139 H 351.925 3.77502 -0.173338 0
M  V30 3140 H 352.238 7.66587 -0.977938 0
M  V30 3141 H 350.583 6.895 -0.872592 0
M  V30 3142 H 353.774 4.67145 -0.298842 0
M  V30 3143 H 353.947 6.44573 -0.665519 0
M  V30 3144 N 347.353 -0.0568162 1.57498 0
M  V30 3145 C 348.764 -0.606858 1.76562 0
M  V30 3146 C 349.115 -1.77114 0.844094 0
M  V30 3147 O 348.24 -2.16376 0.0318911 0
M  V30 3148 C 348.835 -1.10766 3.20182 0
M  V30 3149 C 347.394 -1.60344 3.40539 0
M  V30 3150 C 346.541 -0.529311 2.72201 0
M  V30 3151 H 349.492 0.169393 1.57793 0
M  V30 3152 H 349.513 -1.97602 3.25167 0
M  V30 3153 H 349.025 -0.26006 3.87228 0
M  V30 3154 H 347.126 -2.47379 2.78629 0
M  V30 3155 H 347.239 -1.67006 4.4905 0
M  V30 3156 H 345.603 -0.977893 2.35179 0
M  V30 3157 H 346.386 0.308352 3.41912 0
M  V30 3158 N 348.832 -1.54138 -0.328536 0
M  V30 3159 C 350.08 -1.71765 -1.06496 0
M  V30 3160 C 350.401 -0.49149 -1.88704 0
M  V30 3161 O 349.671 0.494539 -1.89555 0
M  V30 3162 H 348.251 -0.633295 -0.396164 0
M  V30 3163 H 350.913 -1.91429 -0.366176 0
M  V30 3164 H 350.009 -2.5951 -1.73381 0
M  V30 3165 N 350.31 0.590341 -1.46126 0
M  V30 3166 C 351.726 0.912917 -1.30912 0
M  V30 3167 C 351.926 1.99616 -0.274893 0
M  V30 3168 O 350.982 2.50397 0.325197 0
M  V30 3169 C 352.295 1.3375 -2.69317 0
M  V30 3170 C 353.843 1.45077 -2.77348 0
M  V30 3171 C 354.318 1.90904 -4.16317 0
M  V30 3172 N 355.809 1.9811 -4.18696 0
M  V30 3173 C 356.544 2.34828 -5.23109 0
M  V30 3174 N 356.04 2.70393 -6.37856 0
M  V30 3175 N 357.833 2.35317 -5.10473 0
M  V30 3176 H 349.984 -0.125358 -2.1203 0
M  V30 3177 H 352.247 0.00658481 -0.947977 0
M  V30 3178 H 351.953 0.615614 -3.4627 0
M  V30 3179 H 351.827 2.30058 -2.9892 0
M  V30 3180 H 354.214 2.16353 -2.00687 0
M  V30 3181 H 354.295 0.4704 -2.51438 0
M  V30 3182 H 353.939 1.20209 -4.9347 0
M  V30 3183 H 353.869 2.89886 -4.39629 0
M  V30 3184 H 356.36 1.73146 -3.359 0
M  V30 3185 H 356.673 2.97341 -7.13308 0
M  V30 3186 H 355.018 2.68048 -6.41229 0
M  V30 3187 H 358.209 2.0695 -4.19868 0
M  V30 3188 H 358.382 2.63605 -5.9196 0
M  V30 3189 N 351.788 1.33704 0.83433 0
M  V30 3190 C 353.199 1.22813 1.4062 0
M  V30 3191 C 353.55 -0.151107 1.95617 0
M  V30 3192 O 352.675 -1.05092 1.89168 0
M  V30 3193 C 353.27 2.22355 2.55624 0
M  V30 3194 C 351.829 2.1529 3.08751 0
M  V30 3195 C 350.976 2.09589 1.8157 0
M  V30 3196 H 353.927 1.45236 0.639702 0
M  V30 3197 H 353.948 1.83391 3.33389 0
M  V30 3198 H 353.46 3.22728 2.15566 0
M  V30 3199 H 351.561 1.18235 3.53343 0
M  V30 3200 H 351.674 3.06038 3.68616 0
M  V30 3201 H 350.038 1.55134 2.02004 0
M  V30 3202 H 350.821 3.11777 1.43701 0
M  V30 3203 N 353.266 -1.05314 1.17247 0
M  V30 3204 C 354.514 -1.77941 0.958194 0
M  V30 3205 C 354.835 -1.88089 -0.514556 0
M  V30 3206 O 354.105 -1.39676 -1.37359 0
M  V30 3207 H 352.685 -0.659116 0.351533 0
M  V30 3208 H 355.347 -1.27166 1.47699 0
M  V30 3209 H 354.443 -2.79663 1.38546 0
M  V30 3210 N 354.744 -0.972509 -1.24016 0
M  V30 3211 C 355.654 -0.5143 -2.28893 0
M  V30 3212 C 356.67 0.427078 -1.68677 0
M  V30 3213 O 357.846 0.298939 -1.99169 0
M  V30 3214 C 354.911 0.183598 -3.46214 0
M  V30 3215 C 353.972 -0.798202 -4.21814 0
M  V30 3216 C 353.205 -0.133514 -5.33533 0
M  V30 3217 O 353.428 1.07714 -5.60137 0
M  V30 3218 O 352.362 -0.828103 -5.96176 0
M  V30 3219 H 356.188 -1.38629 -2.70214 0
M  V30 3220 H 353.773 -0.739769 -1.29799 0
M  V30 3221 H 355.655 0.575433 -4.17453 0
M  V30 3222 H 354.33 1.03048 -3.0686 0
M  V30 3223 H 353.237 -1.24059 -3.52931 0
M  V30 3224 H 354.57 -1.61364 -4.64997 0
M  V30 3225 N 356.222 1.38976 -0.743202 0
M  V30 3226 C 357.638 1.53984 -0.419664 0
M  V30 3227 C 357.838 1.70837 1.0685 0
M  V30 3228 O 356.894 1.7135 1.8546 0
M  V30 3229 C 358.207 2.75287 -1.20985 0
M  V30 3230 C 359.755 2.89129 -1.19889 0
M  V30 3231 C 360.23 4.13381 -1.97181 0
M  V30 3232 N 361.721 4.20437 -1.94389 0
M  V30 3233 C 362.456 5.15547 -2.50996 0
M  V30 3234 N 361.952 6.16395 -3.16274 0
M  V30 3235 N 363.745 5.07822 -2.40984 0
M  V30 3236 H 355.896 1.26285 -1.7078 0
M  V30 3237 H 358.159 0.612689 -0.723406 0
M  V30 3238 H 357.865 2.69204 -2.26323 0
M  V30 3239 H 357.739 3.68184 -0.819759 0
M  V30 3240 H 360.126 2.947 -0.153606 0
M  V30 3241 H 360.207 1.97272 -1.62841 0
M  V30 3242 H 359.851 4.08572 -3.01714 0
M  V30 3243 H 359.781 5.04298 -1.51629 0
M  V30 3244 H 362.272 3.48205 -1.46839 0
M  V30 3245 H 362.585 6.85443 -3.56915 0
M  V30 3246 H 360.93 6.16758 -3.20367 0
M  V30 3247 H 364.121 4.27973 -1.89622 0
M  V30 3248 H 364.294 5.81767 -2.85397 0
M  V30 3249 N 357.7 0.491464 1.49741 0
M  V30 3250 C 358.948 -0.0563141 2.02022 0
M  V30 3251 C 359.269 -1.38363 1.37407 0
M  V30 3252 O 358.539 -1.88702 0.526166 0
M  V30 3253 H 357.119 -0.0238014 0.746621 0
M  V30 3254 H 359.781 0.646533 1.83864 0
M  V30 3255 H 358.877 -0.192967 3.11503 0
M  V30 3256 N 359.178 -1.55987 0.224894 0
M  V30 3257 C 360.108 -2.23426 -0.678457 0
M  V30 3258 C 361.089 -1.20709 -1.19847 0
M  V30 3259 O 362.274 -1.49304 -1.24186 0
M  V30 3260 C 359.404 -2.91676 -1.88527 0
M  V30 3261 C 358.358 -4.00893 -1.49896 0
M  V30 3262 C 357.684 -4.56455 -2.78483 0
M  V30 3263 C 358.984 -5.17769 -0.686461 0
M  V30 3264 H 360.678 -2.99175 -0.116173 0
M  V30 3265 H 358.224 -1.43897 -0.054436 0
M  V30 3266 H 360.177 -3.37547 -2.5227 0
M  V30 3267 H 358.901 -2.1338 -2.47258 0
M  V30 3268 H 357.56 -3.55758 -0.884985 0
M  V30 3269 H 357.208 -3.74886 -3.35365 0
M  V30 3270 H 356.908 -5.30169 -2.53368 0
M  V30 3271 H 358.432 -5.05047 -3.43162 0
M  V30 3272 H 359.846 -5.60001 -1.22767 0
M  V30 3273 H 358.243 -5.97735 -0.532259 0
M  V30 3274 H 359.313 -4.83932 0.306196 0
M  V30 3275 N 360.656 0.0484629 -1.57525 0
M  V30 3276 C 362.067 0.597486 -1.76881 0
M  V30 3277 C 362.418 1.76664 -0.853475 0
M  V30 3278 O 361.543 2.16357 -0.0433656 0
M  V30 3279 C 362.138 1.09066 -3.20765 0
M  V30 3280 C 360.697 1.58535 -3.41385 0
M  V30 3281 C 359.844 0.514868 -2.72478 0
M  V30 3282 H 362.795 -0.177758 -1.57701 0
M  V30 3283 H 362.816 1.95875 -3.2621 0
M  V30 3284 H 362.328 0.239521 -3.8736 0
M  V30 3285 H 360.429 2.45898 -2.79937 0
M  V30 3286 H 360.542 1.64622 -4.49929 0
M  V30 3287 H 358.906 0.965407 -2.35695 0
M  V30 3288 H 359.689 -0.32648 -3.41744 0
M  V30 3289 N 362.134 1.5431 0.320358 0
M  V30 3290 C 363.382 1.72327 1.05583 0
M  V30 3291 C 363.703 0.50149 1.88441 0
M  V30 3292 O 362.973 -0.48448 1.89815 0
M  V30 3293 H 361.553 0.635387 0.3928 0
M  V30 3294 H 364.215 1.91621 0.356019 0
M  V30 3295 H 363.311 2.60426 1.72003 0
M  V30 3296 N 363.613 -0.582584 1.46437 0
M  V30 3297 C 365.024 -1.1647 1.45916 0
M  V30 3298 C 365.375 -1.95177 0.200077 0
M  V30 3299 O 364.5 -2.04874 -0.696819 0
M  V30 3300 C 365.095 -2.11885 2.64367 0
M  V30 3301 C 363.654 -2.65421 2.66887 0
M  V30 3302 C 362.801 -1.41294 2.38603 0
M  V30 3303 H 365.752 -0.370514 1.54314 0
M  V30 3304 H 365.773 -2.9535 2.39892 0
M  V30 3305 H 365.285 -1.54573 3.5599 0
M  V30 3306 H 363.386 -3.26602 1.79338 0
M  V30 3307 H 363.499 -3.08147 3.66854 0
M  V30 3308 H 361.863 -1.71109 1.88663 0
M  V30 3309 H 362.646 -0.858125 3.32402 0
M  V30 3310 N 365.091 -1.34144 -0.827227 0
M  V30 3311 C 366.502 -1.23557 -1.39966 0
M  V30 3312 C 366.853 0.140731 -1.95695 0
M  V30 3313 O 365.978 1.04087 -1.89723 0
M  V30 3314 C 366.573 -2.23708 -2.54441 0
M  V30 3315 C 365.132 -2.16924 -3.07605 0
M  V30 3316 C 364.279 -2.10549 -1.80456 0
M  V30 3317 H 367.23 -1.45573 -0.631991 0
M  V30 3318 H 367.251 -1.85157 -3.32411 0
M  V30 3319 H 366.763 -3.23866 -2.13851 0
M  V30 3320 H 364.864 -1.20107 -3.52711 0
M  V30 3321 H 364.977 -3.07988 -3.66988 0
M  V30 3322 H 363.341 -1.56203 -2.01178 0
M  V30 3323 H 364.124 -3.12535 -1.42046 0
M  V30 3324 N 366.569 1.04691 -1.17803 0
M  V30 3325 C 367.817 1.7743 -0.967617 0
M  V30 3326 C 368.138 1.88359 0.504574 0
M  V30 3327 O 367.408 1.40402 1.36617 0
M  V30 3328 H 365.988 0.657242 -0.355024 0
M  V30 3329 H 368.65 1.2638 -1.48371 0
M  V30 3330 H 367.746 2.78924 -1.40027 0
M  V30 3331 N 368.047 0.979072 1.23499 0
M  V30 3332 C 369.296 0.642751 1.91185 0
M  V30 3333 C 369.609 -0.827253 1.77245 0
M  V30 3334 O 370.815 -1.27458 2.39722 0
M  V30 3335 C 369.271 1.09901 3.42709 0
M  V30 3336 C 368.879 2.59327 3.65313 0
M  V30 3337 C 370.623 0.836371 4.16179 0
M  V30 3338 C 368.53 2.98627 5.10467 0
M  V30 3339 H 367.46 0.236698 0.715884 0
M  V30 3340 H 370.111 1.1868 1.39955 0
M  V30 3341 H 368.493 0.48319 3.93041 0
M  V30 3342 H 369.667 3.26136 3.25533 0
M  V30 3343 H 367.982 2.83323 3.05151 0
M  V30 3344 H 370.579 1.10586 5.23139 0
M  V30 3345 H 370.922 -0.227509 4.15678 0
M  V30 3346 H 371.455 1.41371 3.71832 0
M  V30 3347 H 368.194 4.04133 5.16098 0
M  V30 3348 H 367.714 2.3651 5.51201 0
M  V30 3349 H 369.393 2.89159 5.78788 0
M  V30 3350 N 369.525 -1.3858 0.750561 0
M  V30 3351 C 370.472 -2.30483 0.120835 0
M  V30 3352 C 371.442 -1.50022 -0.712923 0
M  V30 3353 O 372.627 -1.78662 -0.669676 0
M  V30 3354 C 369.767 -3.36431 -0.768666 0
M  V30 3355 C 368.88 -4.31927 0.0793922 0
M  V30 3356 C 368.015 -5.24944 -0.81283 0
M  V30 3357 C 367.054 -6.12088 0.0390447 0
M  V30 3358 N 366.191 -6.97412 -0.809969 0
M  V30 3359 H 371.031 -2.83761 0.91015 0
M  V30 3360 H 368.568 -1.39707 0.460463 0
M  V30 3361 H 370.526 -3.96462 -1.29898 0
M  V30 3362 H 369.156 -2.8457 -1.5238 0
M  V30 3363 H 368.208 -3.73382 0.727303 0
M  V30 3364 H 369.52 -4.93319 0.737401 0
M  V30 3365 H 368.674 -5.90078 -1.41042 0
M  V30 3366 H 367.413 -4.63911 -1.50458 0
M  V30 3367 H 366.418 -5.45952 0.649328 0
M  V30 3368 H 367.643 -6.75189 0.727809 0
M  V30 3369 H 365.589 -6.38931 -1.48672 0
M  V30 3370 H 365.506 -7.55712 -0.208789 0
M  V30 3371 H 366.774 -7.66959 -1.39263 0
M  V30 3372 N 371.003 -0.499398 -1.49478 0
M  V30 3373 C 372.251 0.0455996 -2.02049 0
M  V30 3374 C 372.572 1.37633 -1.38138 0
M  V30 3375 O 371.842 1.8842 -0.536166 0
M  V30 3376 H 370.422 0.0198416 -0.746736 0
M  V30 3377 H 373.084 -0.656274 -1.83519 0
M  V30 3378 H 372.18 0.176445 -3.11601 0
M  V30 3379 N 372.481 1.55866 -0.233164 0
M  V30 3380 C 373.892 1.847 0.272554 0
M  V30 3381 C 374.243 1.15477 1.58617 0
M  V30 3382 O 373.368 0.42841 2.12117 0
M  V30 3383 C 373.963 3.35071 0.501299 0
M  V30 3384 C 372.522 3.6418 0.951304 0
M  V30 3385 C 371.669 2.77292 0.0208209 0
M  V30 3386 H 374.62 1.52005 -0.456074 0
M  V30 3387 H 374.641 3.55906 1.34577 0
M  V30 3388 H 374.153 3.85424 -0.454936 0
M  V30 3389 H 372.254 3.19293 1.92049 0
M  V30 3390 H 372.367 4.72071 0.817675 0
M  V30 3391 H 370.731 2.49131 0.529723 0
M  V30 3392 H 371.514 3.30448 -0.93054 0
M  V30 3393 N 373.959 -0.0401083 1.57549 0
M  V30 3394 C 374.922 -1.02871 2.04817 0
M  V30 3395 C 375.922 -1.29708 0.950388 0
M  V30 3396 O 377.112 -1.24897 1.21435 0
M  V30 3397 C 374.244 -2.36443 2.45576 0
M  V30 3398 H 375.437 -0.620631 2.93408 0
M  V30 3399 H 372.99 -0.286667 1.53649 0
M  V30 3400 H 373.725 -2.82021 1.60108 0
M  V30 3401 H 373.51 -2.18296 3.25713 0
M  V30 3402 H 375 -3.07441 2.82612 0
M  V30 3403 N 375.437 -1.54477 -0.31217 0
M  V30 3404 C 376.685 -1.72884 -1.04668 0
M  V30 3405 C 377.006 -0.511477 -1.88173 0
M  V30 3406 O 376.276 0.474407 -1.90069 0
M  V30 3407 H 374.856 -0.637461 -0.389425 0
M  V30 3408 H 377.518 -1.91807 -0.345852 0
M  V30 3409 H 376.614 -2.61334 -1.70619 0
M  V30 3410 N 376.915 0.57481 -1.46744 0
M  V30 3411 C 378.164 1.32898 -1.51727 0
M  V30 3412 C 378.477 1.948 -0.176692 0
M  V30 3413 O 379.683 2.71299 -0.104385 0
M  V30 3414 C 378.139 2.40901 -2.67385 0
M  V30 3415 C 377.747 1.85266 -4.07898 0
M  V30 3416 C 379.491 3.17609 -2.81646 0
M  V30 3417 C 377.398 2.90945 -5.14883 0
M  V30 3418 H 376.328 0.499631 -0.564699 0
M  V30 3419 H 378.979 0.612536 -1.72975 0
M  V30 3420 H 377.361 3.15379 -2.39483 0
M  V30 3421 H 378.535 1.17278 -4.45626 0
M  V30 3422 H 376.85 1.21199 -3.98371 0
M  V30 3423 H 379.447 3.96493 -3.58744 0
M  V30 3424 H 379.79 3.70696 -1.89448 0
M  V30 3425 H 380.323 2.50239 -3.09233 0
M  V30 3426 H 377.062 2.42736 -6.089 0
M  V30 3427 H 376.582 3.57398 -4.81691 0
M  V30 3428 H 378.261 3.54755 -5.41071 0
M  V30 3429 N 378.394 1.34581 0.820102 0
M  V30 3430 C 379.805 1.24298 1.39309 0
M  V30 3431 C 380.156 -0.130351 1.95767 0
M  V30 3432 O 379.281 -1.0308 1.90272 0
M  V30 3433 C 379.876 2.25054 2.53251 0
M  V30 3434 C 378.435 2.18552 3.0645 0
M  V30 3435 C 377.582 2.11503 1.79337 0
M  V30 3436 H 380.533 1.45906 0.624262 0
M  V30 3437 H 380.554 1.86917 3.31425 0
M  V30 3438 H 380.066 3.24996 2.1213 0
M  V30 3439 H 378.167 1.21976 3.52069 0
M  V30 3440 H 378.28 3.0993 3.65349 0
M  V30 3441 H 376.644 1.57268 2.00347 0
M  V30 3442 H 377.427 3.13284 1.40386 0
M  V30 3443 N 379.872 -1.04064 1.18357 0
M  V30 3444 C 381.12 -1.76915 0.977013 0
M  V30 3445 C 381.441 -1.88624 -0.494577 0
M  V30 3446 O 380.711 -1.41125 -1.3587 0
M  V30 3447 H 379.291 -0.65535 0.358504 0
M  V30 3448 H 381.953 -1.25592 1.49039 0
M  V30 3449 H 381.049 -2.78178 1.41504 0
M  V30 3450 N 381.35 -0.985608 -1.22978 0
M  V30 3451 C 382.597 -0.657386 -1.91532 0
M  V30 3452 C 382.925 0.809707 -1.76845 0
M  V30 3453 O 382.18 1.60021 -1.12658 0
M  V30 3454 C 382.479 -1.00014 -3.43121 0
M  V30 3455 C 382.145 -2.4583 -3.77993 0
M  V30 3456 C 380.807 -2.85679 -3.87222 0
M  V30 3457 C 383.159 -3.40378 -3.94705 0
M  V30 3458 C 380.487 -4.19081 -4.10595 0
M  V30 3459 C 382.839 -4.73429 -4.1958 0
M  V30 3460 C 381.503 -5.1303 -4.27032 0
M  V30 3461 H 380.773 -0.240555 -0.700867 0
M  V30 3462 H 383.42 -1.24044 -1.45895 0
M  V30 3463 H 381.725 -0.335072 -3.90365 0
M  V30 3464 H 383.422 -0.724322 -3.94404 0
M  V30 3465 H 380.012 -2.13939 -3.71387 0
M  V30 3466 H 384.196 -3.10766 -3.8696 0
M  V30 3467 H 379.452 -4.49362 -4.14589 0
M  V30 3468 H 383.626 -5.46644 -4.31455 0
M  V30 3469 H 381.253 -6.16418 -4.44896 0
M  V30 3470 N 382.828 1.3818 -0.7579 0
M  V30 3471 C 384.239 1.82726 -0.383134 0
M  V30 3472 C 384.59 1.63214 1.08884 0
M  V30 3473 O 383.715 1.13566 1.84205 0
M  V30 3474 C 384.31 3.31728 -0.688631 0
M  V30 3475 C 382.869 3.74606 -0.367091 0
M  V30 3476 C 382.016 2.60896 -0.939599 0
M  V30 3477 H 384.967 1.26847 -0.953699 0
M  V30 3478 H 384.988 3.80487 0.0316492 0
M  V30 3479 H 384.5 3.45898 -1.76001 0
M  V30 3480 H 382.601 3.66013 0.697532 0
M  V30 3481 H 382.714 4.71215 -0.865658 0
M  V30 3482 H 381.078 2.52075 -0.3647 0
M  V30 3483 H 381.861 2.77864 -2.0161 0
M  V30 3484 N 384.306 0.507319 1.49211 0
M  V30 3485 C 385.554 -0.0348839 2.0207 0
M  V30 3486 C 385.875 -1.36898 1.38866 0
M  V30 3487 O 385.145 -1.88133 0.546151 0
M  V30 3488 H 383.725 -0.0158812 0.746831 0
M  V30 3489 H 386.387 0.665998 1.83168 0
M  V30 3490 H 385.483 -0.159917 3.1169 0
M  V30 3491 N 385.784 -1.5574 0.241426 0
M  V30 3492 C 386.717 -2.17168 -0.700935 0
M  V30 3493 C 387.695 -1.12206 -1.1768 0
M  V30 3494 O 388.879 -1.40565 -1.25593 0
M  V30 3495 C 386.006 -2.76796 -1.95196 0
M  V30 3496 C 385.052 -3.94764 -1.61442 0
M  V30 3497 S 385.885 -5.30613 -0.72182 0
M  V30 3498 C 387.041 -5.93691 -1.98197 0
M  V30 3499 H 387.274 -2.96761 -0.178882 0
M  V30 3500 H 384.807 -1.54378 0.0259299 0
M  V30 3501 H 386.765 -3.11787 -2.67019 0
M  V30 3502 H 385.426 -1.9716 -2.44514 0
M  V30 3503 H 384.619 -4.35057 -2.54443 0
M  V30 3504 H 384.221 -3.61022 -0.976672 0
M  V30 3505 H 386.513 -6.10874 -2.92983 0
M  V30 3506 H 387.456 -6.89258 -1.62262 0
M  V30 3507 H 387.864 -5.22709 -2.13156 0
M  V30 3508 N 387.262 0.0317525 -1.57568 0
M  V30 3509 C 388.209 1.0332 -2.06382 0
M  V30 3510 C 389.179 1.36082 -0.952414 0
M  V30 3511 O 390.364 1.46466 -1.2228 0
M  V30 3512 C 387.504 2.32989 -2.54578 0
M  V30 3513 C 386.617 2.0641 -3.79498 0
M  V30 3514 C 385.752 3.2993 -4.16317 0
M  V30 3515 C 384.791 2.98893 -5.34162 0
M  V30 3516 N 383.928 4.14857 -5.66426 0
M  V30 3517 H 388.768 0.609982 -2.9169 0
M  V30 3518 H 386.305 0.289573 -1.44222 0
M  V30 3519 H 388.263 3.0875 -2.80587 0
M  V30 3520 H 386.893 2.73039 -1.7219 0
M  V30 3521 H 385.945 1.21158 -3.6059 0
M  V30 3522 H 387.257 1.79513 -4.65378 0
M  V30 3523 H 386.411 4.1406 -4.4344 0
M  V30 3524 H 385.15 3.59938 -3.29083 0
M  V30 3525 H 384.155 2.13164 -5.06795 0
M  V30 3526 H 385.38 2.70165 -6.23047 0
M  V30 3527 H 383.326 4.44821 -4.82151 0
M  V30 3528 H 383.243 3.91374 -6.4681 0
M  V30 3529 H 384.511 4.99868 -5.98124 0
M  V30 3530 N 388.74 1.54641 0.303973 0
M  V30 3531 C 389.988 1.73437 1.0375 0
M  V30 3532 C 390.309 0.521449 1.87899 0
M  V30 3533 O 389.579 -0.46432 1.90318 0
M  V30 3534 H 388.159 0.639518 0.386039 0
M  V30 3535 H 390.821 1.91988 0.335675 0
M  V30 3536 H 389.917 2.62235 1.69231 0
M  V30 3537 N 390.218 -0.567019 1.47046 0
M  V30 3538 C 391.168 -1.67018 1.55207 0
M  V30 3539 C 392.152 -1.55543 0.411714 0
M  V30 3540 O 393.344 -1.64192 0.661064 0
M  V30 3541 C 390.473 -3.05801 1.56014 0
M  V30 3542 C 389.559 -3.22515 2.75399 0
M  V30 3543 N 389.95 -3.09329 4.00186 0
M  V30 3544 C 388.248 -3.53493 2.71954 0
M  V30 3545 C 388.949 -3.2847 4.80086 0
M  V30 3546 N 387.925 -3.54352 4.12233 0
M  V30 3547 H 391.727 -1.55377 2.4947 0
M  V30 3548 H 389.241 -0.771503 1.42904 0
M  V30 3549 H 391.238 -3.84996 1.59949 0
M  V30 3550 H 389.898 -3.18561 0.628396 0
M  V30 3551 H 390.909 -2.86863 4.31196 0
M  V30 3552 H 387.586 -3.7284 1.87873 0
M  V30 3553 H 388.976 -3.23326 5.88991 0
M  V30 3554 N 391.696 -1.35014 -0.812953 0
M  V30 3555 C 393.112 -1.14914 -1.10757 0
M  V30 3556 C 393.312 0.0426818 -2.01455 0
M  V30 3557 O 392.368 0.715212 -2.42159 0
M  V30 3558 C 393.681 -2.44911 -1.74468 0
M  V30 3559 C 395.229 -2.5106 -1.86917 0
M  V30 3560 C 395.704 -3.81085 -2.54044 0
M  V30 3561 N 397.195 -3.82301 -2.61535 0
M  V30 3562 C 397.93 -4.79634 -3.14227 0
M  V30 3563 N 397.426 -5.87353 -3.67407 0
M  V30 3564 N 399.219 -4.67078 -3.12721 0
M  V30 3565 H 391.37 -2.1136 -0.20989 0
M  V30 3566 H 393.633 -0.935128 -0.155692 0
M  V30 3567 H 393.339 -3.32267 -1.15289 0
M  V30 3568 H 393.213 -2.58989 -2.74234 0
M  V30 3569 H 395.6 -1.64137 -2.45241 0
M  V30 3570 H 395.681 -2.40901 -0.860242 0
M  V30 3571 H 395.325 -4.68402 -1.96372 0
M  V30 3572 H 395.255 -3.88529 -3.55461 0
M  V30 3573 H 397.746 -3.04465 -2.23851 0
M  V30 3574 H 398.059 -6.57624 -4.05894 0
M  V30 3575 H 396.404 -5.91054 -3.65623 0
M  V30 3576 H 399.595 -3.82067 -2.70449 0
M  V30 3577 H 399.768 -5.43098 -3.53481 0
M  V30 3578 N 393.175 1.03435 -1.18907 0
M  V30 3579 C 394.423 1.76394 -0.986382 0
M  V30 3580 C 394.744 1.88883 0.484567 0
M  V30 3581 O 394.014 1.41843 1.3512 0
M  V30 3582 H 392.594 0.65344 -0.361975 0
M  V30 3583 H 395.256 1.248 -1.49703 0
M  V30 3584 H 394.352 2.77424 -1.42978 0
M  V30 3585 N 394.653 0.992116 1.22453 0
M  V30 3586 C 395.9 0.667534 1.91181 0
M  V30 3587 C 396.228 -0.800317 1.77271 0
M  V30 3588 O 395.483 -1.59421 1.13505 0
M  V30 3589 C 395.782 1.01832 3.42586 0
M  V30 3590 C 395.448 2.47831 3.76684 0
M  V30 3591 C 394.11 2.87729 3.85701 0
M  V30 3592 C 396.462 3.42466 3.92895 0
M  V30 3593 C 393.79 4.21252 4.08367 0
M  V30 3594 C 396.142 4.75648 4.17064 0
M  V30 3595 C 394.806 5.15288 4.24305 0
M  V30 3596 H 394.076 0.244268 0.699581 0
M  V30 3597 H 396.723 1.24816 1.45235 0
M  V30 3598 H 395.028 0.355769 3.90181 0
M  V30 3599 H 396.725 0.745228 3.94014 0
M  V30 3600 H 393.315 2.15905 3.70247 0
M  V30 3601 H 397.499 3.12814 3.85307 0
M  V30 3602 H 392.755 4.51554 4.122 0
M  V30 3603 H 396.929 5.48924 4.2855 0
M  V30 3604 H 394.556 6.18769 4.41621 0
M  V30 3605 N 396.131 -1.37776 0.765217 0
M  V30 3606 C 397.408 -1.93975 0.251596 0
M  V30 3607 C 397.788 -1.69949 -1.25222 0
M  V30 3608 O 397.136 -1.04457 -2.03226 0
M  V30 3609 C 397.346 -3.43487 0.617895 0
M  V30 3610 C 398.694 -4.20564 0.584029 0
M  V30 3611 O 399.718 -3.5182 0.556888 0
M  V30 3612 O 398.577 -5.43138 0.605291 0
M  V30 3613 H 395.671 -0.82509 0.0561806 0
M  V30 3614 H 398.217 -1.47101 0.846128 0
M  V30 3615 H 396.989 -3.5453 1.65602 0
M  V30 3616 H 396.612 -3.976 -0.00403411 0
M  V30 3617 N 397.609 -0.515225 -1.4894 0
M  V30 3618 C 398.857 0.0241671 -2.02086 0
M  V30 3619 C 399.178 1.3616 -1.3959 0
M  V30 3620 O 398.448 1.87841 -0.556121 0
M  V30 3621 H 397.028 0.0119203 -0.746905 0
M  V30 3622 H 399.69 -0.675702 -1.82812 0
M  V30 3623 H 398.786 0.143385 -3.1177 0
M  V30 3624 N 399.087 1.5561 -0.249682 0
M  V30 3625 C 400.503 1.59254 0.105103 0
M  V30 3626 C 400.703 1.26685 1.56694 0
M  V30 3627 O 399.759 1.0155 2.31179 0
M  V30 3628 C 401.072 2.99687 -0.246592 0
M  V30 3629 C 402.62 3.12416 -0.191118 0
M  V30 3630 C 403.095 4.55074 -0.516885 0
M  V30 3631 N 404.586 4.60835 -0.467489 0
M  V30 3632 C 405.321 5.69201 -0.69268 0
M  V30 3633 N 404.817 6.85817 -0.981146 0
M  V30 3634 N 406.61 5.58635 -0.623198 0
M  V30 3635 H 398.761 1.75049 -1.20298 0
M  V30 3636 H 401.024 0.815003 -0.484225 0
M  V30 3637 H 400.73 3.28267 -1.26228 0
M  V30 3638 H 400.604 3.74798 0.424962 0
M  V30 3639 H 402.991 2.83615 0.815247 0
M  V30 3640 H 403.072 2.39573 -0.896563 0
M  V30 3641 H 402.716 4.84596 -1.52082 0
M  V30 3642 H 402.646 5.26181 0.210068 0
M  V30 3643 H 405.137 3.7705 -0.253373 0
M  V30 3644 H 405.45 7.64341 -1.14032 0
M  V30 3645 H 403.795 6.87494 -1.01865 0
M  V30 3646 H 406.986 4.66406 -0.397863 0
M  V30 3647 H 407.159 6.43017 -0.802093 0
M  V30 3648 N 400.565 -0.0233959 1.57583 0
M  V30 3649 C 401.513 -1.04063 2.08023 0
M  V30 3650 C 402.507 -1.37084 0.995204 0
M  V30 3651 O 403.713 -1.35923 1.18004 0
M  V30 3652 H 400.088 -0.353144 0.663922 0
M  V30 3653 H 402.059 -0.589453 2.9252 0
M  V30 3654 C 400.808 -2.33123 2.57971 0
M  V30 3655 H 400.131 -2.08577 3.4108 0
M  V30 3656 H 401.571 -3.02632 2.96967 0
M  V30 3657 C 400.03 -3.02483 1.48342 0
M  V30 3658 O 400.56 -3.92541 0.852898 0
M  V30 3659 N 398.766 -2.63909 1.21658 0
M  V30 3660 H 398.313 -1.90758 1.73116 0
M  V30 3661 H 398.271 -3.10633 0.485218 0
M  V30 3662 N 402.043 -1.548 -0.295768 0
M  V30 3663 C 403.291 -1.73985 -1.02828 0
M  V30 3664 C 403.612 -0.531406 -1.87619 0
M  V30 3665 O 402.882 0.454221 -1.90561 0
M  V30 3666 H 401.462 -0.641556 -0.382642 0
M  V30 3667 H 404.124 -1.92163 -0.325489 0
M  V30 3668 H 403.22 -2.63129 -1.67838 0
M  V30 3669 N 403.521 0.559213 -1.47345 0
M  V30 3670 C 404.431 1.69388 -1.62311 0
M  V30 3671 C 405.447 1.6648 -0.505993 0
M  V30 3672 O 406.623 1.85964 -0.773262 0
M  V30 3673 C 403.688 3.05894 -1.63185 0
M  V30 3674 C 402.749 3.19885 -2.86307 0
M  V30 3675 C 401.982 4.49879 -2.87131 0
M  V30 3676 O 402.205 5.35217 -1.97229 0
M  V30 3677 O 401.139 4.67618 -3.78968 0
M  V30 3678 H 404.965 1.59706 -2.58317 0
M  V30 3679 H 402.55 0.728989 -1.30407 0
M  V30 3680 H 404.432 3.87133 -1.66451 0
M  V30 3681 H 403.107 3.15964 -0.70345 0
M  V30 3682 H 402.014 2.38052 -2.88587 0
M  V30 3683 H 403.347 3.14718 -3.78435 0
M  V30 3684 N 404.999 1.35443 0.805782 0
M  V30 3685 C 405.946 1.28431 1.91766 0
M  V30 3686 C 406.916 0.156102 1.65365 0
M  V30 3687 O 408.101 0.339936 1.87747 0
M  V30 3688 C 405.241 1.06301 3.2832 0
M  V30 3689 C 404.354 2.2805 3.66902 0
M  V30 3690 C 403.489 1.99064 4.92491 0
M  V30 3691 C 402.528 3.16863 5.23703 0
M  V30 3692 N 401.665 2.87647 6.40471 0
M  V30 3693 H 406.505 2.23511 1.97096 0
M  V30 3694 H 404.042 1.11105 0.964054 0
M  V30 3695 H 406 0.915012 4.07042 0
M  V30 3696 H 404.63 0.148822 3.22457 0
M  V30 3697 H 403.682 2.53711 2.83434 0
M  V30 3698 H 404.994 3.1601 3.85927 0
M  V30 3699 H 404.148 1.81099 5.7904 0
M  V30 3700 H 402.887 1.0839 4.75503 0
M  V30 3701 H 401.892 3.35404 4.35642 0
M  V30 3702 H 403.117 4.08339 5.4262 0
M  V30 3703 H 401.063 1.99568 6.24907 0
M  V30 3704 H 400.98 3.69141 6.59751 0
M  V30 3705 H 402.248 2.73226 7.30047 0
M  V30 3706 N 406.477 -1.02803 1.19454 0
M  V30 3707 C 407.725 -1.75869 0.995722 0
M  V30 3708 C 408.046 -1.89138 -0.474543 0
M  V30 3709 O 407.316 -1.42558 -1.34366 0
M  V30 3710 H 405.896 -0.651511 0.365435 0
M  V30 3711 H 408.558 -1.24004 1.50363 0
M  V30 3712 H 407.654 -2.76661 1.44447 0
M  V30 3713 N 407.956 -0.998596 -1.21925 0
M  V30 3714 C 408.866 -0.562736 -2.27751 0
M  V30 3715 C 409.882 0.391203 -1.69545 0
M  V30 3716 O 411.058 0.256625 -1.99758 0
M  V30 3717 C 408.123 0.11012 -3.46525 0
M  V30 3718 C 407.184 -0.887495 -4.20026 0
M  V30 3719 C 406.417 -0.246654 -5.3313 0
M  V30 3720 O 406.64 0.958088 -5.62296 0
M  V30 3721 O 405.574 -0.954374 -5.94286 0
M  V30 3722 H 409.4 -1.44329 -2.67213 0
M  V30 3723 H 406.985 -0.767135 -1.28201 0
M  V30 3724 H 408.867 0.486756 -4.18579 0
M  V30 3725 H 407.542 0.965154 -3.08976 0
M  V30 3726 H 406.449 -1.31517 -3.5022 0
M  V30 3727 H 407.782 -1.71191 -4.6147 0
M  V30 3728 N 409.434 1.37368 -0.772513 0
M  V30 3729 C 410.662 2.03942 -0.348588 0
M  V30 3730 C 411.077 1.58264 1.02947 0
M  V30 3731 O 410.434 0.764246 1.65727 0
M  V30 3732 C 410.485 3.5946 -0.38351 0
M  V30 3733 O 410.206 4.03468 -1.70721 0
M  V30 3734 C 411.707 4.4327 0.0519152 0
M  V30 3735 H 408.927 0.654931 -0.145966 0
M  V30 3736 H 411.471 1.75686 -1.04665 0
M  V30 3737 H 409.626 3.86486 0.265978 0
M  V30 3738 H 410.04 4.97991 -1.64636 0
M  V30 3739 H 411.514 5.51995 -0.0236733 0
M  V30 3740 H 411.991 4.2514 1.10238 0
M  V30 3741 H 412.597 4.21471 -0.569415 0
M  V30 3742 N 410.912 0.523116 1.48665 0
M  V30 3743 C 412.16 -0.0134497 2.02096 0
M  V30 3744 C 412.481 -1.35418 1.40311 0
M  V30 3745 O 411.751 -1.87543 0.566074 0
M  V30 3746 H 410.331 -0.00795915 0.746958 0
M  V30 3747 H 412.993 0.685388 1.82451 0
M  V30 3748 H 412.089 -0.126849 3.11842 0
M  V30 3749 N 412.39 -1.55475 0.257931 0
M  V30 3750 C 413.353 -2.20551 -0.623706 0
M  V30 3751 C 414.353 -1.17809 -1.09443 0
M  V30 3752 O 415.543 -1.42823 -0.997362 0
M  V30 3753 C 412.675 -2.85784 -1.8585 0
M  V30 3754 H 413.868 -2.99848 -0.0557743 0
M  V30 3755 H 411.421 -1.56298 0.0084422 0
M  V30 3756 H 412.156 -2.10453 -2.46739 0
M  V30 3757 H 411.941 -3.61057 -1.52907 0
M  V30 3758 H 413.431 -3.35553 -2.48584 0
M  V30 3759 N 413.868 0.0150385 -1.57593 0
M  V30 3760 C 415.279 0.559832 -1.78109 0
M  V30 3761 C 415.63 1.74814 -0.890756 0
M  V30 3762 O 414.755 2.16216 -0.0892482 0
M  V30 3763 C 415.35 1.02238 -3.23006 0
M  V30 3764 C 413.909 1.51258 -3.44671 0
M  V30 3765 C 413.056 0.456955 -2.73509 0
M  V30 3766 H 416.007 -0.211169 -1.57289 0
M  V30 3767 H 416.028 1.88912 -3.30292 0
M  V30 3768 H 415.54 0.157302 -3.87781 0
M  V30 3769 H 413.641 2.39905 -2.8509 0
M  V30 3770 H 413.754 1.55042 -4.5332 0
M  V30 3771 H 412.118 0.915196 -2.37689 0
M  V30 3772 H 412.901 -0.398896 -3.40975 0
M  V30 3773 N 415.346 1.54954 0.287554 0
M  V30 3774 C 416.594 1.74528 1.01904 0
M  V30 3775 C 416.915 0.541349 1.87335 0
M  V30 3776 O 416.185 -0.444108 1.908 0
M  V30 3777 H 414.765 0.643576 0.379235 0
M  V30 3778 H 417.427 1.92333 0.315294 0
M  V30 3779 H 416.523 2.64015 1.6644 0
M  V30 3780 N 416.824 -0.551391 1.4764 0
M  V30 3781 C 417.754 -1.66757 1.63445 0
M  V30 3782 C 418.735 -1.63077 0.483742 0
M  V30 3783 O 419.92 -1.80607 0.71377 0
M  V30 3784 C 417.05 -3.05387 1.65396 0
M  V30 3785 C 416.004 -3.23918 2.79752 0
M  V30 3786 C 415.33 -4.63393 2.66779 0
M  V30 3787 C 416.63 -3.08735 4.21284 0
M  V30 3788 H 418.324 -1.53786 2.56886 0
M  V30 3789 H 415.87 -0.738415 1.23626 0
M  V30 3790 H 417.823 -3.83325 1.75043 0
M  V30 3791 H 416.547 -3.19332 0.685195 0
M  V30 3792 H 415.206 -2.48391 2.69625 0
M  V30 3793 H 414.854 -4.74144 1.67918 0
M  V30 3794 H 414.554 -4.7674 3.43501 0
M  V30 3795 H 416.078 -5.43458 2.78364 0
M  V30 3796 H 417.492 -3.76484 4.32357 0
M  V30 3797 H 415.889 -3.33588 4.98838 0
M  V30 3798 H 416.959 -2.0541 4.39243 0
M  V30 3799 N 418.302 -1.35869 -0.798587 0
M  V30 3800 C 419.249 -1.29446 -1.91082 0
M  V30 3801 C 420.219 -0.16487 -1.6528 0
M  V30 3802 O 421.404 -0.349888 -1.87564 0
M  V30 3803 C 418.544 -1.0804 -3.27752 0
M  V30 3804 C 417.657 -2.29993 -3.65687 0
M  V30 3805 C 416.792 -2.01673 -4.91428 0
M  V30 3806 C 415.831 -3.19636 -5.22015 0
M  V30 3807 N 414.968 -2.91039 -6.38937 0
M  V30 3808 H 419.808 -2.24553 -1.95907 0
M  V30 3809 H 417.345 -1.11615 -0.958148 0
M  V30 3810 H 419.303 -0.936586 -4.06551 0
M  V30 3811 H 417.933 -0.16592 -3.22373 0
M  V30 3812 H 416.985 -2.55211 -2.82085 0
M  V30 3813 H 418.297 -3.18052 -3.84245 0
M  V30 3814 H 417.451 -1.84168 -5.78072 0
M  V30 3815 H 416.19 -1.10911 -4.74921 0
M  V30 3816 H 415.195 -3.37709 -4.33858 0
M  V30 3817 H 416.42 -4.11211 -5.40447 0
M  V30 3818 H 414.366 -2.0288 -6.2384 0
M  V30 3819 H 414.283 -3.72635 -6.57784 0
M  V30 3820 H 415.551 -2.77093 -7.28587 0
M  V30 3821 N 419.78 1.02168 -1.19998 0
M  V30 3822 C 421.028 1.75338 -1.00504 0
M  V30 3823 C 421.349 1.89387 0.464506 0
M  V30 3824 O 420.619 1.43268 1.33608 0
M  V30 3825 H 419.199 0.649564 -0.368885 0
M  V30 3826 H 421.861 1.23205 -1.51018 0
M  V30 3827 H 420.957 2.75892 -1.45912 0
M  V30 3828 N 421.258 1.00505 1.21394 0
M  V30 3829 C 422.168 0.574806 2.27449 0
M  V30 3830 C 423.184 -0.382206 1.6975 0
M  V30 3831 O 424.36 -0.246027 1.99892 0
M  V30 3832 C 421.425 -0.0917414 3.46579 0
M  V30 3833 C 420.486 0.909758 4.1955 0
M  V30 3834 C 419.719 0.274924 5.32991 0
M  V30 3835 O 419.942 -0.928254 5.62796 0
M  V30 3836 O 418.876 0.985877 5.93771 0
M  V30 3837 H 422.702 1.45744 2.66444 0
M  V30 3838 H 420.287 0.773923 1.27792 0
M  V30 3839 H 422.169 -0.464551 4.18832 0
M  V30 3840 H 420.844 -0.948755 3.09484 0
M  V30 3841 H 419.751 1.33372 3.49518 0
M  V30 3842 H 421.084 1.73636 4.60555 0
M  V30 3843 N 422.737 -1.36956 0.779787 0
M  V30 3844 C 423.685 -2.32053 0.15942 0
M  V30 3845 C 424.679 -1.55333 -0.675878 0
M  V30 3846 O 425.885 -1.70668 -0.57204 0
M  V30 3847 H 422.26 -0.751286 0.0327707 0
M  V30 3848 H 424.231 -2.8195 0.977078 0
M  V30 3849 C 422.98 -3.40602 -0.698977 0
M  V30 3850 H 422.303 -3.99746 -0.0655966 0
M  V30 3851 H 423.743 -4.09486 -1.09989 0
M  V30 3852 C 422.202 -2.81359 -1.85307 0
M  V30 3853 O 422.732 -2.72751 -2.94906 0
M  V30 3854 N 420.938 -2.38786 -1.65619 0
M  V30 3855 H 420.485 -2.45987 -0.764725 0
M  V30 3856 H 420.443 -1.99493 -2.43002 0
M  V30 3857 N 424.215 -0.530993 -1.48385 0
M  V30 3858 C 425.463 0.00273189 -2.021 0
M  V30 3859 C 425.784 1.34672 -1.41027 0
M  V30 3860 O 425.054 1.8724 -0.576012 0
M  V30 3861 H 423.634 0.00399774 -0.746989 0
M  V30 3862 H 426.296 -0.695054 -1.82085 0
M  V30 3863 H 425.392 0.11031 -3.11905 0
M  V30 3864 N 425.693 1.55336 -0.266172 0
M  V30 3865 C 426.623 2.25146 0.618981 0
M  V30 3866 C 427.604 1.23845 1.16604 0
M  V30 3867 O 428.789 1.52544 1.20183 0
M  V30 3868 C 425.919 2.96572 1.80728 0
M  V30 3869 C 424.873 4.04726 1.39215 0
M  V30 3870 C 424.199 4.63678 2.66283 0
M  V30 3871 C 425.499 5.19407 0.548942 0
M  V30 3872 H 427.193 2.99377 0.0368116 0
M  V30 3873 H 424.739 1.43991 0.0162651 0
M  V30 3874 H 426.692 3.44116 2.43232 0
M  V30 3875 H 425.416 2.19861 2.41514 0
M  V30 3876 H 424.075 3.57979 0.790351 0
M  V30 3877 H 423.723 3.83646 3.25308 0
M  V30 3878 H 423.423 5.367 2.39222 0
M  V30 3879 H 424.947 5.13967 3.29651 0
M  V30 3880 H 426.361 5.63059 1.07876 0
M  V30 3881 H 424.758 5.98936 0.373593 0
M  V30 3882 H 425.828 4.8295 -0.434394 0
M  V30 3883 N 427.171 -0.0066808 1.57599 0
M  V30 3884 C 428.582 -0.550379 1.78403 0
M  V30 3885 C 428.933 -1.74339 0.900014 0
M  V30 3886 O 428.058 -2.16166 0.100713 0
M  V30 3887 C 428.653 -1.00523 3.23544 0
M  V30 3888 C 427.212 -1.49428 3.45468 0
M  V30 3889 C 426.359 -0.442444 2.73748 0
M  V30 3890 H 429.31 0.219508 1.57175 0
M  V30 3891 H 429.331 -1.87157 3.31289 0
M  V30 3892 H 428.843 -0.136735 3.87859 0
M  V30 3893 H 426.944 -2.3839 2.86358 0
M  V30 3894 H 427.057 -1.52635 4.54136 0
M  V30 3895 H 425.421 -0.902578 2.38171 0
M  V30 3896 H 426.204 0.416973 3.40758 0
M  V30 3897 N 428.649 -1.55105 -0.279332 0
M  V30 3898 C 429.897 -1.75066 -1.00977 0
M  V30 3899 C 430.218 -0.551276 -1.87045 0
M  V30 3900 O 429.488 0.433984 -1.91032 0
M  V30 3901 H 428.068 -0.645578 -0.375816 0
M  V30 3902 H 430.73 -1.92497 -0.305089 0
M  V30 3903 H 429.826 -2.64894 -1.65038 0
M  V30 3904 N 430.127 0.543554 -1.4793 0
M  V30 3905 C 431.037 1.67657 -1.64098 0
M  V30 3906 C 432.053 1.65934 -0.523622 0
M  V30 3907 O 433.229 1.85133 -0.792943 0
M  V30 3908 C 430.294 3.04146 -1.66421 0
M  V30 3909 C 429.355 3.16831 -2.89684 0
M  V30 3910 C 428.588 4.46809 -2.91886 0
M  V30 3911 O 428.811 5.33095 -2.02895 0
M  V30 3912 O 427.745 4.63573 -3.83906 0
M  V30 3913 H 431.571 1.56957 -2.59997 0
M  V30 3914 H 429.156 0.715116 -1.31173 0
M  V30 3915 H 431.038 3.85346 -1.70548 0
M  V30 3916 H 429.713 3.152 -0.736923 0
M  V30 3917 H 428.62 2.34977 -2.91095 0
M  V30 3918 H 429.953 3.10687 -3.81752 0
M  V30 3919 N 431.605 1.3629 0.791371 0
M  V30 3920 C 432.553 1.30514 1.92533 0
M  V30 3921 C 433.547 0.197285 1.68247 0
M  V30 3922 O 434.753 0.364176 1.76278 0
M  V30 3923 H 431.128 0.406263 0.632815 0
M  V30 3924 H 433.099 2.26282 1.94523 0
M  V30 3925 C 431.848 1.10933 3.29529 0
M  V30 3926 H 431.171 1.95427 3.48781 0
M  V30 3927 H 432.611 1.10937 4.0923 0
M  V30 3928 C 431.07 -0.186123 3.36385 0
M  V30 3929 O 431.6 -1.17664 3.84081 0
M  V30 3930 N 429.806 -0.230128 2.89687 0
M  V30 3931 H 429.353 0.576545 2.51065 0
M  V30 3932 H 429.311 -1.09658 2.94657 0
M  V30 3933 N 433.083 -1.0153 1.20538 0
M  V30 3934 C 434.331 -1.74803 1.01432 0
M  V30 3935 C 434.652 -1.8963 -0.454456 0
M  V30 3936 O 433.922 -1.43975 -1.32846 0
M  V30 3937 H 432.502 -0.647598 0.372324 0
M  V30 3938 H 435.164 -1.22402 1.5167 0
M  V30 3939 H 434.26 -2.75114 1.47373 0
M  V30 3940 N 434.561 -1.01147 -1.20859 0
M  V30 3941 C 435.524 -0.582224 -2.21682 0
M  V30 3942 C 436.524 0.344887 -1.57058 0
M  V30 3943 O 437.714 0.134281 -1.73682 0
M  V30 3944 C 434.846 0.150496 -3.40568 0
M  V30 3945 H 436.039 -1.47408 -2.61172 0
M  V30 3946 H 433.592 -0.800695 -1.34233 0
M  V30 3947 H 434.327 1.0575 -3.06574 0
M  V30 3948 H 434.112 -0.515444 -3.88697 0
M  V30 3949 H 435.602 0.438344 -4.15293 0
M  V30 3950 N 436.039 1.36541 -0.78704 0
M  V30 3951 C 437.45 1.81873 -0.421807 0
M  V30 3952 C 437.801 1.65487 1.05397 0
M  V30 3953 O 436.926 1.17448 1.81755 0
M  V30 3954 C 437.521 3.30192 -0.758841 0
M  V30 3955 C 436.08 3.73743 -0.446468 0
M  V30 3956 C 435.227 2.58844 -0.994728 0
M  V30 3957 H 438.178 1.24796 -0.98039 0
M  V30 3958 H 438.199 3.80468 -0.0490648 0
M  V30 3959 H 437.711 3.42087 -1.83299 0
M  V30 3960 H 435.812 3.6741 0.619739 0
M  V30 3961 H 435.925 4.69272 -0.965415 0
M  V30 3962 H 434.289 2.51245 -0.418087 0
M  V30 3963 H 435.072 2.73525 -2.07458 0
M  V30 3964 N 437.518 0.538854 1.48102 0
M  V30 3965 C 438.766 0.00798599 2.02098 0
M  V30 3966 C 439.087 -1.33922 1.41739 0
M  V30 3967 O 438.357 -1.86932 0.585934 0
M  V30 3968 H 436.937 -3.62179e-05 0.747 0
M  V30 3969 H 439.599 0.7047 1.81714 0
M  V30 3970 H 438.695 -0.0937672 3.11959 0
M  V30 3971 N 438.996 -1.55193 0.274407 0
M  V30 3972 C 440.407 -1.85358 -0.223488 0
M  V30 3973 C 440.758 -1.19642 -1.555 0
M  V30 3974 O 439.883 -0.484498 -2.10907 0
M  V30 3975 C 440.478 -3.36282 -0.412285 0
M  V30 3976 C 439.037 -3.66574 -0.854413 0
M  V30 3977 C 438.184 -2.7725 0.0527056 0
M  V30 3978 H 441.135 -1.50743 0.496215 0
M  V30 3979 H 441.156 -3.59349 -1.25094 0
M  V30 3980 H 440.668 -3.84083 0.556965 0
M  V30 3981 H 438.769 -3.24273 -1.83516 0
M  V30 3982 H 438.882 -4.74073 -0.692226 0
M  V30 3983 H 437.246 -2.50447 -0.463484 0
M  V30 3984 H 438.029 -3.27865 1.01783 0
M  V30 3985 N 440.474 -0.00167713 -1.576 0
M  V30 3986 C 441.407 1.02317 -2.03977 0
M  V30 3987 C 442.385 1.33381 -0.929963 0
M  V30 3988 O 443.569 1.45517 -1.19822 0
M  V30 3989 C 440.696 2.35035 -2.43878 0
M  V30 3990 C 439.742 2.19621 -3.65607 0
M  V30 3991 S 440.575 1.52068 -5.13455 0
M  V30 3992 C 441.731 2.86212 -5.56627 0
M  V30 3993 H 441.964 0.628285 -2.90585 0
M  V30 3994 H 439.497 0.209239 -1.52976 0
M  V30 3995 H 441.455 3.11345 -2.67534 0
M  V30 3996 H 440.116 2.71663 -1.57665 0
M  V30 3997 H 439.309 3.1767 -3.91282 0
M  V30 3998 H 438.911 1.51455 -3.41961 0
M  V30 3999 H 441.203 3.82509 -5.59189 0
M  V30 4000 H 442.146 2.65235 -6.56549 0
M  V30 4001 H 442.554 2.90199 -4.84195 0
M  V30 4002 N 441.952 1.55251 0.271103 0
M  V30 4003 C 443.2 1.75599 1.00047 0
M  V30 4004 C 443.521 0.561188 1.8675 0
M  V30 4005 O 442.791 -0.423846 1.9126 0
M  V30 4006 H 441.371 0.647562 0.372387 0
M  V30 4007 H 444.033 1.92656 0.294876 0
M  V30 4008 H 443.129 2.65766 1.6363 0
M  V30 4009 N 443.43 -0.535701 1.48216 0
M  V30 4010 C 444.841 -1.11769 1.49548 0
M  V30 4011 C 445.192 -1.94442 0.26207 0
M  V30 4012 O 444.317 -2.06987 -0.631287 0
M  V30 4013 C 444.912 -2.03367 2.70975 0
M  V30 4014 C 443.471 -2.56795 2.75196 0
M  V30 4015 C 442.618 -1.33631 2.42977 0
M  V30 4016 H 445.569 -0.321232 1.55415 0
M  V30 4017 H 445.59 -2.87569 2.49167 0
M  V30 4018 H 445.102 -1.43169 3.60727 0
M  V30 4019 H 443.203 -3.20731 1.89638 0
M  V30 4020 H 443.316 -2.9632 3.76472 0
M  V30 4021 H 441.68 -1.6502 1.94012 0
M  V30 4022 H 442.463 -0.75194 3.34964 0
M  V30 4023 N 444.908 -1.36708 -0.784132 0
M  V30 4024 C 446.324 -1.17237 -1.08294 0
M  V30 4025 C 446.524 -5.93947e-05 -2.015 0
M  V30 4026 O 445.58 0.663686 -2.43622 0
M  V30 4027 C 446.893 -2.48557 -1.69233 0
M  V30 4028 C 448.441 -2.54968 -1.8155 0
M  V30 4029 C 448.916 -3.86388 -2.45904 0
M  V30 4030 N 450.407 -3.87762 -2.53367 0
M  V30 4031 C 451.142 -4.86191 -3.03983 0
M  V30 4032 N 450.638 -5.95015 -3.54866 0
M  V30 4033 N 452.431 -4.73606 -3.02743 0
M  V30 4034 H 444.582 -2.11758 -0.16501 0
M  V30 4035 H 446.845 -0.93822 -0.135822 0
M  V30 4036 H 446.551 -3.34638 -1.08215 0
M  V30 4037 H 446.425 -2.64748 -2.68679 0
M  V30 4038 H 448.812 -1.69302 -2.41704 0
M  V30 4039 H 448.893 -2.42672 -0.80895 0
M  V30 4040 H 448.537 -4.72462 -1.86392 0
M  V30 4041 H 448.467 -3.95982 -3.4714 0
M  V30 4042 H 450.958 -3.09145 -2.17343 0
M  V30 4043 H 451.271 -6.66086 -3.91854 0
M  V30 4044 H 449.616 -5.98676 -3.53003 0
M  V30 4045 H 452.807 -3.87717 -2.62284 0
M  V30 4046 H 452.98 -5.50473 -3.41881 0
M  V30 4047 N 446.386 1.0089 -1.21074 0
M  V30 4048 C 447.634 1.74262 -1.02358 0
M  V30 4049 C 447.955 1.89869 0.444393 0
M  V30 4050 O 447.225 1.44677 1.32081 0
M  V30 4051 H 445.805 0.645615 -0.375754 0
M  V30 4052 H 448.467 1.21596 -1.52317 0
M  V30 4053 H 447.563 2.74328 -1.4883 0
M  V30 4054 N 447.864 1.01787 1.20321 0
M  V30 4055 C 448.827 0.593972 2.2137 0
M  V30 4056 C 449.827 -0.336553 1.57239 0
M  V30 4057 O 451.017 -0.125069 1.7375 0
M  V30 4058 C 448.149 -0.132433 3.40643 0
M  V30 4059 H 449.342 1.48791 2.60387 0
M  V30 4060 H 446.895 0.807803 1.33807 0
M  V30 4061 H 447.63 -1.04123 3.0713 0
M  V30 4062 H 447.415 0.53605 3.88418 0
M  V30 4063 H 448.905 -0.416314 4.1552 0
M  V30 4064 N 449.342 -1.36122 0.79427 0
M  V30 4065 C 450.753 -1.81646 0.431446 0
M  V30 4066 C 451.104 -1.66043 -1.04518 0
M  V30 4067 O 450.229 -1.1841 -1.8113 0
M  V30 4068 C 450.824 -3.29785 0.776341 0
M  V30 4069 C 449.383 -3.73501 0.466282 0
M  V30 4070 C 448.53 -2.58313 1.00844 0
M  V30 4071 H 451.481 -1.24274 0.986995 0
M  V30 4072 H 451.502 -3.80437 0.0692413 0
M  V30 4073 H 451.014 -3.4111 1.8511 0
M  V30 4074 H 449.115 -3.67733 -0.600245 0
M  V30 4075 H 449.228 -4.68754 0.990288 0
M  V30 4076 H 447.592 -2.5102 0.431406 0
M  V30 4077 H 448.375 -2.72421 2.08906 0
M  V30 4078 N 450.82 -0.546701 -1.47814 0
M  V30 4079 C 452.068 -0.0187037 -2.02091 0
M  V30 4080 C 452.389 1.33168 -1.42447 0
M  V30 4081 O 451.659 1.86619 -0.595839 0
M  V30 4082 H 450.239 -0.00392531 -0.74699 0
M  V30 4083 H 452.901 -0.714327 -1.81338 0
M  V30 4084 H 451.997 0.0772219 -3.12004 0
M  V30 4085 N 452.299 1.55045 -0.282633 0
M  V30 4086 C 453.209 2.26491 0.61147 0
M  V30 4087 C 454.225 1.29348 1.16384 0
M  V30 4088 O 455.401 1.62298 1.19253 0
M  V30 4089 C 452.466 2.97779 1.77563 0
M  V30 4090 C 451.527 4.10418 1.25919 0
M  V30 4091 C 450.76 4.78297 2.36786 0
M  V30 4092 O 450.983 4.45426 3.56303 0
M  V30 4093 O 449.917 5.66089 2.04517 0
M  V30 4094 H 453.743 3.03683 0.0324615 0
M  V30 4095 H 451.328 1.49317 -0.0497576 0
M  V30 4096 H 453.21 3.42554 2.45427 0
M  V30 4097 H 451.885 2.23498 2.34159 0
M  V30 4098 H 450.792 3.70082 0.546797 0
M  V30 4099 H 452.125 4.86622 0.738887 0
M  V30 4100 N 453.777 0.010035 1.57597 0
M  V30 4101 C 455.193 -0.346164 1.55801 0
M  V30 4102 C 455.393 -1.74144 1.01371 0
M  V30 4103 O 454.449 -2.43938 0.651968 0
M  V30 4104 C 455.762 -0.212216 2.9995 0
M  V30 4105 C 457.31 -0.286409 3.11687 0
M  V30 4106 C 457.785 -0.18147 4.5764 0
M  V30 4107 N 459.276 -0.239056 4.62583 0
M  V30 4108 C 460.011 -0.181351 5.73113 0
M  V30 4109 N 459.507 -0.073661 6.92761 0
M  V30 4110 N 461.3 -0.233949 5.61613 0
M  V30 4111 H 453.451 0.922657 1.91313 0
M  V30 4112 H 455.714 0.354595 0.879185 0
M  V30 4113 H 455.42 0.748169 3.4365 0
M  V30 4114 H 455.294 -0.990224 3.6397 0
M  V30 4115 H 457.681 -1.23724 2.67911 0
M  V30 4116 H 457.762 0.521645 2.50425 0
M  V30 4117 H 457.406 0.765863 5.02093 0
M  V30 4118 H 457.336 -1.00814 5.1686 0
M  V30 4119 H 459.827 -0.32321 3.76515 0
M  V30 4120 H 460.14 -0.0358003 7.72792 0
M  V30 4121 H 458.485 -0.0391461 6.94989 0
M  V30 4122 H 461.676 -0.316347 4.6703 0
M  V30 4123 H 461.849 -0.185514 6.47734 0
M  V30 4124 N 455.255 -1.55392 -0.262866 0
M  V30 4125 C 456.503 -1.76127 -0.991147 0
M  V30 4126 C 456.824 -0.571083 -1.8645 0
M  V30 4127 O 456.094 0.413698 -1.91482 0
M  V30 4128 H 454.674 -0.649528 -0.368948 0
M  V30 4129 H 457.336 -1.9281 -0.284655 0
M  V30 4130 H 456.432 -2.6663 -1.62219 0
M  V30 4131 N 456.733 0.527833 -1.48498 0
M  V30 4132 C 458.149 0.856571 -1.34666 0
M  V30 4133 C 458.349 1.98271 -0.35931 0
M  V30 4134 O 457.405 2.51551 0.218703 0
M  V30 4135 C 458.718 1.22207 -2.74747 0
M  V30 4136 C 460.266 1.33183 -2.83251 0
M  V30 4137 C 460.741 1.73075 -4.24039 0
M  V30 4138 N 462.232 1.80174 -4.26722 0
M  V30 4139 C 462.967 2.1243 -5.32598 0
M  V30 4140 N 462.463 2.43096 -6.4875 0
M  V30 4141 N 464.256 2.13454 -5.19994 0
M  V30 4142 H 456.407 -0.215174 -2.11307 0
M  V30 4143 H 458.67 -0.0336281 -0.947403 0
M  V30 4144 H 458.376 0.468195 -3.4857 0
M  V30 4145 H 458.25 2.17173 -3.08409 0
M  V30 4146 H 460.637 2.07647 -2.09683 0
M  V30 4147 H 460.718 0.363333 -2.53206 0
M  V30 4148 H 460.362 0.991712 -4.98124 0
M  V30 4149 H 460.292 2.70979 -4.51529 0
M  V30 4150 H 462.783 1.58744 -3.42942 0
M  V30 4151 H 463.096 2.6682 -7.25277 0
M  V30 4152 H 461.441 2.40611 -6.52021 0
M  V30 4153 H 464.632 1.88956 -4.28268 0
M  V30 4154 H 464.805 2.38261 -6.02608 0
M  V30 4155 N 458.211 1.37122 0.776871 0
M  V30 4156 C 459.622 1.28667 1.35284 0
M  V30 4157 C 459.973 -0.0680035 1.96082 0
M  V30 4158 O 459.098 -0.969743 1.93455 0
M  V30 4159 C 459.693 2.32997 2.45963 0
M  V30 4160 C 458.252 2.28191 2.99342 0
M  V30 4161 C 457.399 2.17101 1.72517 0
M  V30 4162 H 460.35 1.47819 0.577527 0
M  V30 4163 H 460.371 1.97366 3.2531 0
M  V30 4164 H 459.883 3.3158 2.01684 0
M  V30 4165 H 457.984 1.33115 3.4801 0
M  V30 4166 H 458.097 3.21397 3.55304 0
M  V30 4167 H 456.461 1.63562 1.95242 0
M  V30 4168 H 457.244 3.17591 1.30348 0
M  V30 4169 N 459.689 -1.00246 1.21608 0
M  V30 4170 C 460.937 -1.73717 1.0328 0
M  V30 4171 C 461.258 -1.90102 -0.434318 0
M  V30 4172 O 460.528 -1.45376 -1.31311 0
M  V30 4173 H 459.108 -0.643613 0.379172 0
M  V30 4174 H 461.77 -1.20787 1.52959 0
M  V30 4175 H 460.866 -2.73535 1.50283 0
M  V30 4176 N 461.167 -1.02423 -1.1978 0
M  V30 4177 C 462.097 -0.62157 -2.25075 0
M  V30 4178 C 463.078 0.367148 -1.6609 0
M  V30 4179 O 464.263 0.250892 -1.92573 0
M  V30 4180 C 461.393 0.0331826 -3.47284 0
M  V30 4181 C 460.347 -0.877323 -4.18912 0
M  V30 4182 C 459.673 -0.0879296 -5.34628 0
M  V30 4183 C 460.973 -2.18892 -4.74219 0
M  V30 4184 H 462.667 -1.50179 -2.59011 0
M  V30 4185 H 460.213 -0.723547 -1.24502 0
M  V30 4186 H 462.166 0.326488 -4.20133 0
M  V30 4187 H 460.89 0.948164 -3.12534 0
M  V30 4188 H 459.549 -1.15475 -3.47938 0
M  V30 4189 H 459.197 0.828941 -4.96123 0
M  V30 4190 H 458.897 -0.694359 -5.83483 0
M  V30 4191 H 460.421 0.198743 -6.10276 0
M  V30 4192 H 461.835 -1.95746 -5.38847 0
M  V30 4193 H 460.232 -2.74686 -5.33542 0
M  V30 4194 H 461.302 -2.84674 -3.92541 0
M  V30 4195 N 462.645 1.35699 -0.801477 0
M  V30 4196 C 464.056 1.81415 -0.441073 0
M  V30 4197 C 464.407 1.66595 1.03636 0
M  V30 4198 O 463.532 1.19369 1.80499 0
M  V30 4199 C 464.127 3.29369 -0.793819 0
M  V30 4200 C 462.686 3.73248 -0.486083 0
M  V30 4201 C 461.833 2.57775 -1.02213 0
M  V30 4202 H 464.784 1.23749 -0.993572 0
M  V30 4203 H 464.805 3.80395 -0.0894158 0
M  V30 4204 H 464.317 3.40123 -1.86917 0
M  V30 4205 H 462.418 3.68046 0.580735 0
M  V30 4206 H 462.531 4.68222 -1.01513 0
M  V30 4207 H 460.895 2.50788 -0.444712 0
M  V30 4208 H 461.678 2.71309 -2.10348 0
M  V30 4209 N 464.123 0.554532 1.47522 0
M  V30 4210 C 465.371 0.0294208 2.02079 0
M  V30 4211 C 465.692 -1.32411 1.43151 0
M  V30 4212 O 464.962 -1.863 0.605728 0
M  V30 4213 H 463.542 0.00788672 0.746958 0
M  V30 4214 H 466.204 0.723934 1.80956 0
M  V30 4215 H 465.3 -0.0606745 3.12041 0
M  V30 4216 N 465.601 -1.54893 0.290851 0
M  V30 4217 C 466.564 -2.21824 -0.576784 0
M  V30 4218 C 467.564 -1.20104 -1.06919 0
M  V30 4219 O 468.754 -1.44906 -0.966843 0
M  V30 4220 C 465.886 -2.89662 -1.79747 0
M  V30 4221 H 467.079 -2.99899 0.00784051 0
M  V30 4222 H 464.632 -1.56245 0.0415934 0
M  V30 4223 H 465.367 -2.15639 -2.42219 0
M  V30 4224 H 465.152 -3.64219 -1.45214 0
M  V30 4225 H 466.642 -3.4075 -2.4141 0
M  V30 4226 N 467.08 -0.0183926 -1.57589 0
M  V30 4227 C 468.043 0.951986 -2.08494 0
M  V30 4228 C 469.043 1.26092 -0.997874 0
M  V30 4229 O 470.233 1.20304 -1.25987 0
M  V30 4230 C 467.365 2.27165 -2.54182 0
M  V30 4231 H 468.558 0.511307 -2.95509 0
M  V30 4232 H 466.111 0.229444 -1.54607 0
M  V30 4233 H 466.846 2.75884 -1.70465 0
M  V30 4234 H 466.631 2.06057 -3.33591 0
M  V30 4235 H 468.121 2.9674 -2.93828 0
M  V30 4236 N 468.558 1.5553 0.254621 0
M  V30 4237 C 469.806 1.7665 0.981793 0
M  V30 4238 C 470.127 0.580963 1.86145 0
M  V30 4239 O 469.397 -0.403537 1.91699 0
M  V30 4240 H 467.977 0.651475 0.365498 0
M  V30 4241 H 470.639 1.92958 0.274426 0
M  V30 4242 H 469.735 2.67486 1.60802 0
M  V30 4243 N 470.036 -0.519951 1.48776 0
M  V30 4244 C 470.999 -1.60574 1.6355 0
M  V30 4245 C 471.999 -1.52557 0.508234 0
M  V30 4246 O 473.189 -1.56047 0.774262 0
M  V30 4247 C 470.321 -3.00211 1.61512 0
M  V30 4248 H 471.514 -1.4881 2.60376 0
M  V30 4249 H 469.067 -0.742772 1.37523 0
M  V30 4250 H 469.802 -3.17471 0.662009 0
M  V30 4251 H 469.587 -3.07439 2.43359 0
M  V30 4252 H 471.077 -3.79134 1.75064 0
M  V30 4253 N 471.514 -1.37532 -0.769588 0
M  V30 4254 C 472.93 -1.18379 -1.07045 0
M  V30 4255 C 473.13 -0.0214312 -2.01489 0
M  V30 4256 O 472.186 0.637809 -2.44312 0
M  V30 4257 C 473.499 -2.50338 -1.66588 0
M  V30 4258 C 475.047 -2.56879 -1.78835 0
M  V30 4259 C 475.522 -3.88974 -2.41792 0
M  V30 4260 N 477.013 -3.90428 -2.4924 0
M  V30 4261 C 477.748 -4.89388 -2.98809 0
M  V30 4262 N 477.244 -5.98745 -3.48535 0
M  V30 4263 N 479.037 -4.76791 -2.97703 0
M  V30 4264 H 471.188 -2.11921 -0.142541 0
M  V30 4265 H 473.451 -0.939608 -0.125863 0
M  V30 4266 H 473.157 -3.35767 -1.0466 0
M  V30 4267 H 473.031 -2.67583 -2.65856 0
M  V30 4268 H 475.418 -1.71856 -2.39895 0
M  V30 4269 H 475.499 -2.43516 -0.783166 0
M  V30 4270 H 475.143 -4.74412 -1.81371 0
M  V30 4271 H 475.073 -3.99641 -3.4292 0
M  V30 4272 H 477.564 -3.11433 -2.14052 0
M  V30 4273 H 477.877 -6.70205 -3.84767 0
M  V30 4274 H 476.222 -6.02387 -3.46634 0
M  V30 4275 H 479.413 -3.90478 -2.58157 0
M  V30 4276 H 479.586 -5.54069 -3.36024 0
M  V30 4277 N 472.992 0.995999 -1.22138 0
M  V30 4278 C 474.24 1.73167 -1.042 0
M  V30 4279 C 474.561 1.90329 0.42423 0
M  V30 4280 O 473.831 1.4607 1.30539 0
M  V30 4281 H 472.411 0.641593 -0.38258 0
M  V30 4282 H 475.073 1.19974 -1.53598 0
M  V30 4283 H 474.169 2.72734 -1.51731 0
M  V30 4284 N 474.47 1.03057 1.19235 0
M  V30 4285 C 475.418 0.606391 2.24557 0
M  V30 4286 C 476.412 -0.361826 1.65491 0
M  V30 4287 O 477.618 -0.23022 1.78522 0
M  V30 4288 H 473.993 0.177838 0.730669 0
M  V30 4289 H 475.964 1.50529 2.5765 0
M  V30 4290 C 474.713 -0.0252127 3.47691 0
M  V30 4291 H 474.036 0.710838 3.9343 0
M  V30 4292 H 475.476 -0.284931 4.23042 0
M  V30 4293 C 473.935 -1.27229 3.11953 0
M  V30 4294 O 474.465 -2.36416 3.24762 0
M  V30 4295 N 472.671 -1.16169 2.6637 0
M  V30 4296 H 472.218 -0.273189 2.56147 0
M  V30 4297 H 472.176 -1.99703 2.42829 0
M  V30 4298 N 475.948 -1.35272 0.808662 0
M  V30 4299 C 477.225 -1.93077 0.313181 0
M  V30 4300 C 477.605 -1.73847 -1.19752 0
M  V30 4301 O 476.953 -1.1087 -1.998 0
M  V30 4302 C 477.163 -3.41347 0.726859 0
M  V30 4303 C 478.511 -4.18493 0.717532 0
M  V30 4304 O 479.535 -3.4987 0.668535 0
M  V30 4305 O 478.394 -5.40937 0.777779 0
M  V30 4306 H 475.488 -0.822885 0.0824018 0
M  V30 4307 H 478.034 -1.44335 0.892499 0
M  V30 4308 H 476.806 -3.49082 1.76797 0
M  V30 4309 H 476.429 -3.97411 0.122461 0
M  V30 4310 N 477.426 -0.562348 -1.47226 0
M  V30 4311 C 478.674 -0.0401371 -2.0206 0
M  V30 4312 C 478.995 1.3165 -1.43852 0
M  V30 4313 O 478.265 1.85976 -0.615599 0
M  V30 4314 H 476.845 -0.0118479 -0.746906 0
M  V30 4315 H 479.507 -0.73352 -1.8057 0
M  V30 4316 H 478.603 0.0441254 -3.12069 0
M  V30 4317 N 478.904 1.54736 -0.299062 0
M  V30 4318 C 479.867 2.22127 0.565012 0
M  V30 4319 C 480.867 1.20669 1.06281 0
M  V30 4320 O 482.057 1.45417 0.959145 0
M  V30 4321 C 479.189 2.90611 1.78208 0
M  V30 4322 H 480.382 2.99891 -0.0237448 0
M  V30 4323 H 477.935 1.5622 -0.0498788 0
M  V30 4324 H 478.67 2.16921 2.41072 0
M  V30 4325 H 478.455 3.64984 1.43281 0
M  V30 4326 H 479.945 3.42026 2.396 0
M  V30 4327 N 480.382 0.0267497 1.57577 0
M  V30 4328 C 481.798 -0.32962 1.56159 0
M  V30 4329 C 481.998 -1.73059 1.03213 0
M  V30 4330 O 481.054 -2.43233 0.677804 0
M  V30 4331 C 482.367 -0.18039 3.00158 0
M  V30 4332 C 483.915 -0.253334 3.11973 0
M  V30 4333 C 484.39 -0.132921 4.57807 0
M  V30 4334 N 485.881 -0.189979 4.6281 0
M  V30 4335 C 486.616 -0.120554 5.73273 0
M  V30 4336 N 486.112 -0.000180315 6.928 0
M  V30 4337 N 487.905 -0.174369 5.61829 0
M  V30 4338 H 480.056 0.942896 1.90324 0
M  V30 4339 H 482.319 0.3639 0.875375 0
M  V30 4340 H 482.025 0.784576 3.42837 0
M  V30 4341 H 481.899 -0.951565 3.65 0
M  V30 4342 H 484.286 -1.20876 2.69208 0
M  V30 4343 H 484.367 0.548177 2.49857 0
M  V30 4344 H 484.011 0.819073 5.01252 0
M  V30 4345 H 483.941 -0.953264 5.179 0
M  V30 4346 H 486.432 -0.283257 3.76837 0
M  V30 4347 H 486.745 0.0461666 7.72786 0
M  V30 4348 H 485.09 0.034569 6.94991 0
M  V30 4349 H 488.281 -0.266794 4.67339 0
M  V30 4350 H 488.454 -0.116802 6.47895 0
M  V30 4351 N 481.861 -1.55662 -0.24637 0
M  V30 4352 C 483.109 -1.77168 -0.972411 0
M  V30 4353 C 483.43 -0.590827 -1.85834 0
M  V30 4354 O 482.7 0.393365 -1.9191 0
M  V30 4355 H 481.28 -0.653405 -0.362038 0
M  V30 4356 H 483.942 -1.93101 -0.264189 0
M  V30 4357 H 483.038 -2.68335 -1.59382 0
M  V30 4358 N 483.339 0.512053 -1.4905 0
M  V30 4359 C 484.564 1.2959 -1.6193 0
M  V30 4360 C 484.989 1.85906 -0.286454 0
M  V30 4361 O 484.347 1.65312 0.744426 0
M  V30 4362 C 484.395 2.40987 -2.68249 0
M  V30 4363 O 483.499 3.44531 -2.26654 0
M  V30 4364 H 482.84 0.383053 -0.542371 0
M  V30 4365 H 485.37 0.614231 -1.95162 0
M  V30 4366 H 485.38 2.86913 -2.90078 0
M  V30 4367 H 484.055 1.99361 -3.65004 0
M  V30 4368 H 482.632 3.046 -2.15112 0
M  V30 4369 N 484.817 1.37938 0.762283 0
M  V30 4370 C 486.094 1.24196 1.51112 0
M  V30 4371 C 486.474 -0.160409 2.1049 0
M  V30 4372 O 485.822 -1.16904 1.96331 0
M  V30 4373 C 486.032 2.34537 2.58445 0
M  V30 4374 C 487.38 2.7254 3.25588 0
M  V30 4375 O 488.404 2.33783 2.68745 0
M  V30 4376 O 487.263 3.39343 4.28379 0
M  V30 4377 H 484.357 0.485175 0.669727 0
M  V30 4378 H 486.903 1.49743 0.798438 0
M  V30 4379 H 485.675 3.28406 2.12756 0
M  V30 4380 H 485.298 2.10505 3.37303 0
M  V30 4381 N 486.295 -0.989507 1.22664 0
M  V30 4382 C 487.543 -1.72612 1.05117 0
M  V30 4383 C 487.864 -1.90552 -0.414131 0
M  V30 4384 O 487.134 -1.4676 -1.29762 0
M  V30 4385 H 485.714 -0.639555 0.385977 0
M  V30 4386 H 488.376 -1.19158 1.54232 0
M  V30 4387 H 487.472 -2.71926 1.53175 0
M  V30 4388 N 487.773 -1.03688 -1.18687 0
M  V30 4389 C 488.705 -0.582696 -2.21669 0
M  V30 4390 C 489.718 0.345656 -1.59088 0
M  V30 4391 O 490.907 0.140776 -1.77944 0
M  V30 4392 C 488.007 0.169204 -3.38477 0
M  V30 4393 C 487.18 -0.766079 -4.30639 0
M  V30 4394 C 486.239 -0.0581541 -5.26168 0
M  V30 4395 O 485.265 -0.687346 -5.65035 0
M  V30 4396 N 486.467 1.20981 -5.67753 0
M  V30 4397 H 489.232 -1.46843 -2.61261 0
M  V30 4398 H 486.793 -0.916896 -1.33434 0
M  V30 4399 H 488.785 0.652543 -3.99405 0
M  V30 4400 H 487.355 0.956435 -2.97609 0
M  V30 4401 H 486.575 -1.42935 -3.67373 0
M  V30 4402 H 487.863 -1.40146 -4.89118 0
M  V30 4403 H 487.261 1.74159 -5.38224 0
M  V30 4404 H 485.818 1.6375 -6.30896 0
M  V30 4405 N 489.251 1.34841 -0.815825 0
M  V30 4406 C 490.662 1.80937 -0.46029 0
M  V30 4407 C 491.013 1.67685 1.01863 0
M  V30 4408 O 490.138 1.21277 1.79223 0
M  V30 4409 C 490.733 3.28509 -0.828708 0
M  V30 4410 C 489.292 3.72712 -0.525644 0
M  V30 4411 C 488.439 2.56676 -1.04941 0
M  V30 4412 H 491.39 1.22688 -1.00664 0
M  V30 4413 H 491.411 3.80279 -0.129757 0
M  V30 4414 H 490.923 3.38122 -1.90513 0
M  V30 4415 H 489.024 3.68642 0.541666 0
M  V30 4416 H 489.137 4.67119 -1.06474 0
M  V30 4417 H 487.501 2.50302 -0.471286 0
M  V30 4418 H 488.284 2.69063 -2.13214 0
M  V30 4419 N 490.729 0.570148 1.46925 0
M  V30 4420 C 491.977 0.0508523 2.02036 0
M  V30 4421 C 492.298 -1.30885 1.44548 0
M  V30 4422 O 491.568 -1.85647 0.625453 0
M  V30 4423 H 490.148 0.0158088 0.746833 0
M  V30 4424 H 492.81 0.743086 1.80178 0
M  V30 4425 H 491.906 -0.027575 3.12088 0
M  V30 4426 N 492.207 -1.54576 0.307264 0
M  V30 4427 C 493.618 -1.8579 -0.184121 0
M  V30 4428 C 493.969 -1.22914 -1.52927 0
M  V30 4429 O 493.094 -0.529126 -2.09831 0
M  V30 4430 C 493.689 -3.37081 -0.340862 0
M  V30 4431 C 492.248 -3.68304 -0.776465 0
M  V30 4432 C 491.395 -2.77076 0.111503 0
M  V30 4433 H 494.346 -1.49656 0.528078 0
M  V30 4434 H 494.367 -3.61922 -1.17443 0
M  V30 4435 H 493.879 -3.82815 0.638309 0
M  V30 4436 H 491.98 -3.28092 -1.76596 0
M  V30 4437 H 492.093 -4.75434 -0.591512 0
M  V30 4438 H 490.457 -2.51374 -0.410256 0
M  V30 4439 H 491.24 -3.25632 1.08714 0
M  V30 4440 N 493.685 -0.035106 -1.57561 0
M  V30 4441 C 495.096 0.502885 -1.798 0
M  V30 4442 C 495.447 1.71892 -0.945921 0
M  V30 4443 O 494.572 2.15822 -0.157991 0
M  V30 4444 C 495.167 0.919097 -3.26095 0
M  V30 4445 C 493.726 1.40216 -3.49308 0
M  V30 4446 C 492.873 0.369709 -2.74824 0
M  V30 4447 H 495.824 -0.261102 -1.56537 0
M  V30 4448 H 495.845 1.78308 -3.36135 0
M  V30 4449 H 495.357 0.0338526 -3.88085 0
M  V30 4450 H 493.458 2.30714 -2.92578 0
M  V30 4451 H 493.571 1.40541 -4.58023 0
M  V30 4452 H 491.935 0.839113 -2.40481 0
M  V30 4453 H 492.718 -0.507173 -3.39533 0
M  V30 4454 N 495.163 1.55791 0.238111 0
M  V30 4455 C 496.411 1.77681 0.963001 0
M  V30 4456 C 496.732 0.600674 1.85518 0
M  V30 4457 O 496.002 -0.383182 1.92116 0
M  V30 4458 H 494.582 0.655315 0.358568 0
M  V30 4459 H 497.244 1.93239 0.253945 0
M  V30 4460 H 496.34 2.69177 1.57956 0
M  V30 4461 N 496.642 -0.504142 1.49319 0
M  V30 4462 C 498.053 -1.08572 1.51885 0
M  V30 4463 C 498.404 -1.93842 0.303255 0
M  V30 4464 O 497.529 -2.0828 -0.58724 0
M  V30 4465 C 498.124 -1.97574 2.75227 0
M  V30 4466 C 496.683 -2.509 2.80581 0
M  V30 4467 C 495.83 -1.28447 2.45757 0
M  V30 4468 H 498.781 -0.288194 1.56061 0
M  V30 4469 H 498.802 -2.82219 2.55211 0
M  V30 4470 H 498.314 -1.35486 3.63683 0
M  V30 4471 H 496.415 -3.16636 1.96398 0
M  V30 4472 H 496.528 -2.88268 3.82673 0
M  V30 4473 H 494.892 -1.60868 1.97468 0
M  V30 4474 H 495.675 -0.68072 3.36483 0
M  V30 4475 N 498.12 -1.38341 -0.754957 0
M  V30 4476 C 499.531 -1.30803 -1.3322 0
M  V30 4477 C 499.882 0.0368 -1.96165 0
M  V30 4478 O 499.007 0.938844 -1.94974 0
M  V30 4479 C 499.602 -2.3688 -2.42225 0
M  V30 4480 C 498.161 -2.32925 -2.95674 0
M  V30 4481 C 497.308 -2.19819 -1.69042 0
M  V30 4482 H 500.259 -1.48719 -0.553937 0
M  V30 4483 H 500.28 -2.02517 -3.22129 0
M  V30 4484 H 499.792 -3.34747 -1.96383 0
M  V30 4485 H 497.893 -1.38635 -3.45848 0
M  V30 4486 H 498.006 -3.27008 -3.50146 0
M  V30 4487 H 496.37 -1.66648 -1.92615 0
M  V30 4488 H 497.153 -3.19625 -1.25279 0
M  V30 4489 N 499.598 0.982988 -1.23187 0
M  V30 4490 C 500.846 1.72052 -1.06031 0
M  V30 4491 C 501.167 1.90769 0.404019 0
M  V30 4492 O 500.437 1.47446 1.28982 0
M  V30 4493 H 499.017 0.637499 -0.389363 0
M  V30 4494 H 501.679 1.18338 -1.54862 0
M  V30 4495 H 500.775 2.7111 -1.54615 0
M  V30 4496 N 501.076 1.04316 1.18135 0
M  V30 4497 C 502.304 0.768117 1.92113 0
M  V30 4498 C 502.719 -0.675057 1.76319 0
M  V30 4499 O 502.076 -1.46038 1.09449 0
M  V30 4500 C 502.127 1.12808 3.43448 0
M  V30 4501 O 501.848 2.5146 3.58747 0
M  V30 4502 C 503.349 0.8779 4.3452 0
M  V30 4503 H 500.569 0.279937 0.609817 0
M  V30 4504 H 503.113 1.39149 1.49859 0
M  V30 4505 H 501.268 0.549623 3.83481 0
M  V30 4506 H 501.682 2.65313 4.52448 0
M  V30 4507 H 503.156 1.17959 5.39249 0
M  V30 4508 H 503.633 -0.187239 4.38801 0
M  V30 4509 H 504.239 1.43977 4.00188 0
M  V30 4510 N 502.554 -1.34406 0.822964 0
M  V30 4511 C 503.517 -2.2783 0.250271 0
M  V30 4512 C 504.517 -1.50288 -0.571854 0
M  V30 4513 O 505.707 -1.69825 -0.387952 0
M  V30 4514 C 502.839 -3.34663 -0.649137 0
M  V30 4515 H 504.032 -2.79992 1.07444 0
M  V30 4516 H 501.585 -1.44539 0.594829 0
M  V30 4517 H 502.32 -2.87714 -1.49637 0
M  V30 4518 H 502.105 -3.92052 -0.0611199 0
M  V30 4519 H 503.595 -4.04349 -1.04363 0
M  V30 4520 N 504.032 -0.577932 -1.46621 0
M  V30 4521 C 505.28 -0.061566 -2.02006 0
M  V30 4522 C 505.601 1.30117 -1.4524 0
M  V30 4523 O 504.871 1.85313 -0.63529 0
M  V30 4524 H 503.451 -0.0197692 -0.746738 0
M  V30 4525 H 506.113 -0.752631 -1.79782 0
M  V30 4526 H 505.209 0.0110238 -3.12098 0
M  V30 4527 N 505.51 1.54411 -0.315457 0
M  V30 4528 C 506.757 2.00419 0.289543 0
M  V30 4529 C 507.085 1.20373 1.52776 0
M  V30 4530 O 506.34 0.271769 1.93804 0
M  V30 4531 C 506.639 3.50936 0.676652 0
M  V30 4532 C 506.305 4.48532 -0.461472 0
M  V30 4533 C 504.967 4.74936 -0.773879 0
M  V30 4534 C 507.319 5.06567 -1.22637 0
M  V30 4535 C 504.647 5.56634 -1.85405 0
M  V30 4536 C 506.999 5.89441 -2.29657 0
M  V30 4537 C 505.663 6.1415 -2.61488 0
M  V30 4538 H 504.933 0.733386 0.105951 0
M  V30 4539 H 507.58 1.86434 -0.437554 0
M  V30 4540 H 505.885 3.62606 1.48405 0
M  V30 4541 H 507.582 3.83971 1.15618 0
M  V30 4542 H 504.172 4.28096 -0.207893 0
M  V30 4543 H 508.356 4.86157 -0.998271 0
M  V30 4544 H 503.612 5.74012 -2.10523 0
M  V30 4545 H 507.786 6.33432 -2.89374 0
M  V30 4546 H 505.413 6.77245 -3.45317 0
M  V30 4547 N 506.988 0.0434614 1.5754 0
M  V30 4548 C 508.399 -0.493343 1.80064 0
M  V30 4549 C 508.75 -1.71388 0.955023 0
M  V30 4550 O 507.875 -2.15736 0.169434 0
M  V30 4551 C 508.47 -0.90179 3.26578 0
M  V30 4552 C 507.029 -1.38362 3.50047 0
M  V30 4553 C 506.176 -0.355129 2.75017 0
M  V30 4554 H 509.127 0.2694 1.56397 0
M  V30 4555 H 509.148 -1.76523 3.37075 0
M  V30 4556 H 508.66 -0.013271 3.88098 0
M  V30 4557 H 506.761 -2.29159 2.93798 0
M  V30 4558 H 506.874 -1.3811 4.58762 0
M  V30 4559 H 505.238 -0.826348 2.40922 0
M  V30 4560 H 506.021 0.525172 3.39259 0
M  V30 4561 N 508.466 -1.55915 -0.229846 0
M  V30 4562 C 509.714 -1.7819 -0.953565 0
M  V30 4563 C 510.035 -0.610504 -1.85197 0
M  V30 4564 O 509.305 0.372988 -1.92316 0
M  V30 4565 H 507.885 -0.657208 -0.355087 0
M  V30 4566 H 510.547 -1.9337 -0.243693 0
M  V30 4567 H 509.643 -2.70011 -1.56527 0
M  V30 4568 N 509.944 0.496216 -1.49584 0
M  V30 4569 C 511.169 1.27865 -1.63295 0
M  V30 4570 C 511.594 1.85592 -0.306156 0
M  V30 4571 O 510.952 1.66092 0.726851 0
M  V30 4572 C 511 2.38128 -2.7079 0
M  V30 4573 O 510.104 3.42108 -2.30296 0
M  V30 4574 H 509.445 0.377279 -0.546403 0
M  V30 4575 H 511.975 0.593497 -1.95803 0
M  V30 4576 H 511.985 2.8382 -2.93104 0
M  V30 4577 H 510.66 1.95479 -3.67098 0
M  V30 4578 H 509.237 3.02301 -2.18331 0
M  V30 4579 N 511.423 1.38739 0.74761 0
M  V30 4580 C 512.834 1.31507 1.32524 0
M  V30 4581 C 513.185 -0.0263963 1.96182 0
M  V30 4582 O 512.31 -0.92849 1.95469 0
M  V30 4583 C 512.905 2.38162 2.40966 0
M  V30 4584 C 511.464 2.34489 2.94434 0
M  V30 4585 C 510.611 2.20712 1.67873 0
M  V30 4586 H 513.562 1.4901 0.546043 0
M  V30 4587 H 513.583 2.04222 3.21051 0
M  V30 4588 H 513.095 3.35783 1.94605 0
M  V30 4589 H 511.196 1.40467 3.45108 0
M  V30 4590 H 511.309 3.28861 3.48407 0
M  V30 4591 H 509.673 1.67667 1.91729 0
M  V30 4592 H 510.456 3.20285 1.23582 0
M  V30 4593 N 512.901 -0.976442 1.23707 0
M  V30 4594 C 514.149 -1.71487 1.06942 0
M  V30 4595 C 514.47 -1.9098 -0.393897 0
M  V30 4596 O 513.74 -1.48128 -1.28198 0
M  V30 4597 H 512.32 -0.635425 0.392739 0
M  V30 4598 H 514.982 -1.17515 1.55487 0
M  V30 4599 H 514.078 -2.70286 1.56051 0
M  V30 4600 N 514.379 -1.04941 -1.1758 0
M  V30 4601 C 515.342 -0.652456 -2.19717 0
M  V30 4602 C 516.342 0.294745 -1.58076 0
M  V30 4603 O 517.532 0.0789579 -1.74021 0
M  V30 4604 C 514.664 0.0420712 -3.40874 0
M  V30 4605 H 515.857 -1.55642 -2.5635 0
M  V30 4606 H 513.41 -0.842995 -1.31618 0
M  V30 4607 H 514.145 0.95943 -3.09783 0
M  V30 4608 H 513.93 -0.638844 -3.86861 0
M  V30 4609 H 515.42 0.306 -4.16477 0
M  V30 4610 N 515.857 1.33968 -0.830081 0
M  V30 4611 C 516.804 2.29387 -0.255008 0
M  V30 4612 C 517.774 1.53923 0.624243 0
M  V30 4613 O 518.959 1.82262 0.564372 0
M  V30 4614 C 516.099 3.4034 0.571209 0
M  V30 4615 C 515.212 4.30729 -0.331083 0
M  V30 4616 C 514.347 5.2879 0.505389 0
M  V30 4617 C 513.386 6.10819 -0.395843 0
M  V30 4618 N 512.523 7.00948 0.401979 0
M  V30 4619 H 517.363 2.77972 -1.07404 0
M  V30 4620 H 514.9 1.36785 -0.541133 0
M  V30 4621 H 516.858 4.03361 1.06562 0
M  V30 4622 H 515.488 2.9297 1.35529 0
M  V30 4623 H 514.54 3.68507 -0.943759 0
M  V30 4624 H 515.852 4.88181 -1.02377 0
M  V30 4625 H 515.006 5.97297 1.06399 0
M  V30 4626 H 513.745 4.71894 1.23155 0
M  V30 4627 H 512.75 5.41238 -0.966529 0
M  V30 4628 H 513.975 6.69797 -1.12023 0
M  V30 4629 H 511.921 6.46512 1.11168 0
M  V30 4630 H 511.838 7.55643 -0.232167 0
M  V30 4631 H 513.106 7.73774 0.943102 0
M  V30 4632 N 517.335 0.585699 1.46312 0
M  V30 4633 C 518.583 0.072278 2.01971 0
M  V30 4634 C 518.904 -1.29345 1.45928 0
M  V30 4635 O 518.174 -1.84973 0.645109 0
M  V30 4636 H 516.754 0.023729 0.746623 0
M  V30 4637 H 519.416 0.762155 1.7938 0
M  V30 4638 H 518.512 0.00552767 3.121 0
M  V30 4639 N 518.813 -1.54241 0.323641 0
M  V30 4640 C 519.723 -2.28033 -0.551205 0
M  V30 4641 C 520.739 -1.32388 -1.12913 0
M  V30 4642 O 521.915 -1.65403 -1.14908 0
M  V30 4643 C 518.98 -3.02382 -1.69606 0
M  V30 4644 C 518.041 -4.13612 -1.14993 0
M  V30 4645 C 517.274 -4.84407 -2.24022 0
M  V30 4646 O 517.497 -4.54716 -3.44368 0
M  V30 4647 O 516.431 -5.71312 -1.89436 0
M  V30 4648 H 520.257 -3.03662 0.048066 0
M  V30 4649 H 517.842 -1.49133 0.0893289 0
M  V30 4650 H 519.724 -3.48941 -2.36259 0
M  V30 4651 H 518.399 -2.29628 -2.28151 0
M  V30 4652 H 517.306 -3.71402 -0.448484 0
M  V30 4653 H 518.639 -4.8841 -0.609608 0
M  V30 4654 N 520.291 -0.0518155 -1.57515 0
M  V30 4655 C 521.537 0.622745 -1.93002 0
M  V30 4656 C 521.87 1.70456 -0.930499 0
M  V30 4657 O 521.145 1.94452 0.0434086 0
M  V30 4658 C 521.428 1.21824 -3.38867 0
M  V30 4659 C 521.281 0.144434 -4.49568 0
M  V30 4660 C 522.6 2.12968 -3.8514 0
M  V30 4661 H 519.719 0.22491 -0.701844 0
M  V30 4662 H 522.361 -0.113711 -1.89659 0
M  V30 4663 H 520.511 1.8459 -3.41846 0
M  V30 4664 H 522.183 -0.48753 -4.58717 0
M  V30 4665 H 520.426 -0.527424 -4.30582 0
M  V30 4666 H 521.097 0.601127 -5.48717 0
M  V30 4667 H 523.573 1.60163 -3.8404 0
M  V30 4668 H 522.449 2.51578 -4.87852 0
M  V30 4669 H 522.71 3.03004 -3.21934 0
M  V30 4670 N 521.769 1.56035 0.221574 0
M  V30 4671 C 523.017 1.78693 0.944102 0
M  V30 4672 C 523.338 0.620317 1.8487 0
M  V30 4673 O 522.608 -0.362784 1.92512 0
M  V30 4674 H 521.188 0.659082 0.351597 0
M  V30 4675 H 523.85 1.93497 0.233435 0
M  V30 4676 H 522.946 2.70837 1.55093 0
M  V30 4677 N 523.247 -0.488276 1.49845 0
M  V30 4678 C 524.658 -1.06955 1.53028 0
M  V30 4679 C 525.009 -1.9351 0.323797 0
M  V30 4680 O 524.134 -2.08891 -0.565116 0
M  V30 4681 C 524.729 -1.94643 2.77307 0
M  V30 4682 C 523.288 -2.4791 2.83227 0
M  V30 4683 C 522.435 -1.25833 2.47106 0
M  V30 4684 H 525.386 -0.271626 1.56358 0
M  V30 4685 H 525.407 -2.79496 2.5819 0
M  V30 4686 H 524.919 -1.31621 3.65099 0
M  V30 4687 H 523.02 -3.14535 1.99745 0
M  V30 4688 H 523.133 -2.84193 3.85709 0
M  V30 4689 H 521.497 -1.58764 1.99163 0
M  V30 4690 H 522.28 -0.644993 3.37186 0
M  V30 4691 N 524.725 -1.39134 -0.740242 0
M  V30 4692 C 525.688 -1.37217 -1.83587 0
M  V30 4693 C 526.688 -0.270221 -1.58513 0
M  V30 4694 O 527.878 -0.527843 -1.6601 0
M  V30 4695 C 525.01 -1.13959 -3.21288 0
M  V30 4696 H 526.203 -2.34705 -1.86691 0
M  V30 4697 H 523.756 -1.24622 -0.94335 0
M  V30 4698 H 524.491 -0.17131 -3.23847 0
M  V30 4699 H 524.276 -1.93754 -3.40884 0
M  V30 4700 H 525.766 -1.15346 -4.01354 0
M  V30 4701 N 526.204 0.969867 -1.24223 0
M  V30 4702 C 527.452 1.70918 -1.0785 0
M  V30 4703 C 527.773 1.91186 0.383763 0
M  V30 4704 O 527.043 1.48806 1.27411 0
M  V30 4705 H 525.623 0.633334 -0.396103 0
M  V30 4706 H 528.285 1.16689 -1.56108 0
M  V30 4707 H 527.381 2.69455 -1.57482 0
M  V30 4708 N 527.682 1.05563 1.17022 0
M  V30 4709 C 528.907 0.788437 1.91829 0
M  V30 4710 C 529.332 -0.650356 1.76499 0
M  V30 4711 O 528.69 -1.45229 1.08527 0
M  V30 4712 C 528.738 1.1786 3.40795 0
M  V30 4713 O 527.842 0.312965 4.11211 0
M  V30 4714 H 527.183 0.288794 0.597908 0
M  V30 4715 H 529.713 1.40948 1.48307 0
M  V30 4716 H 529.723 1.14697 3.91546 0
M  V30 4717 H 528.398 2.22666 3.51273 0
M  V30 4718 H 526.975 0.405515 3.70689 0
M  V30 4719 N 529.16 -1.33526 0.837174 0
M  V30 4720 C 530.571 -1.80182 0.489017 0
M  V30 4721 C 530.922 -1.69285 -0.991826 0
M  V30 4722 O 530.047 -1.24113 -1.77271 0
M  V30 4723 C 530.642 -3.27149 0.880866 0
M  V30 4724 C 529.201 -3.71828 0.584872 0
M  V30 4725 C 528.348 -2.54974 1.09011 0
M  V30 4726 H 531.299 -1.21071 1.02603 0
M  V30 4727 H 531.32 -3.80024 0.190239 0
M  V30 4728 H 530.832 -3.35048 1.95869 0
M  V30 4729 H 528.933 -3.69457 -0.48295 0
M  V30 4730 H 529.046 -4.65366 1.13892 0
M  V30 4731 H 527.41 -2.4952 0.511047 0
M  V30 4732 H 528.193 -2.65637 2.17467 0
M  V30 4733 N 530.638 -0.59345 -1.46 0
M  V30 4734 C 531.886 -0.082988 -2.0193 0
M  V30 4735 C 532.207 1.28569 -1.46612 0
M  V30 4736 O 531.477 1.84629 -0.654909 0
M  V30 4737 H 530.057 -0.0276882 -0.746487 0
M  V30 4738 H 532.719 -0.771657 -1.78973 0
M  V30 4739 H 531.815 -0.022079 -3.12092 0
M  V30 4740 N 532.116 1.54067 -0.331816 0
M  V30 4741 C 533.341 2.05599 0.272705 0
M  V30 4742 C 533.766 1.2059 1.44359 0
M  V30 4743 O 533.124 0.216907 1.79998 0
M  V30 4744 C 533.172 3.54188 0.677021 0
M  V30 4745 O 532.276 3.72082 1.77844 0
M  V30 4746 H 531.617 0.662286 0.0476801 0
M  V30 4747 H 534.147 1.98826 -0.482624 0
M  V30 4748 H 534.157 3.96608 0.957415 0
M  V30 4749 H 532.832 4.15513 -0.179325 0
M  V30 4750 H 531.409 3.41566 1.49622 0
M  V30 4751 N 533.594 0.0601682 1.57485 0
M  V30 4752 C 534.542 -0.928899 2.13247 0
M  V30 4753 C 535.536 -1.31616 1.06647 0
M  V30 4754 O 536.742 -1.29476 1.25043 0
M  V30 4755 H 533.117 -0.317455 0.681708 0
M  V30 4756 H 535.088 -0.433566 2.95233 0
M  V30 4757 C 533.837 -2.19121 2.69965 0
M  V30 4758 H 533.16 -1.90204 3.51657 0
M  V30 4759 H 534.6 -2.86465 3.12592 0
M  V30 4760 C 533.059 -2.94195 1.64168 0
M  V30 4761 O 533.589 -3.87468 1.05978 0
M  V30 4762 N 531.795 -2.57089 1.35476 0
M  V30 4763 H 531.342 -1.81314 1.82984 0
M  V30 4764 H 531.3 -3.07624 0.649196 0
M  V30 4765 N 535.072 -1.5615 -0.213296 0
M  V30 4766 C 536.32 -1.79191 -0.934612 0
M  V30 4767 C 536.641 -0.630112 -1.84539 0
M  V30 4768 O 535.911 0.35257 -1.92701 0
M  V30 4769 H 534.491 -0.660937 -0.348097 0
M  V30 4770 H 537.153 -1.93618 -0.22317 0
M  V30 4771 H 536.249 -2.71656 -1.53654 0
M  V30 4772 N 536.55 0.480323 -1.50102 0
M  V30 4773 C 537.513 1.56181 -1.6775 0
M  V30 4774 C 538.513 1.51156 -0.548503 0
M  V30 4775 O 539.703 1.5394 -0.815363 0
M  V30 4776 C 536.835 2.95823 -1.69415 0
M  V30 4777 H 538.028 1.41855 -2.6423 0
M  V30 4778 H 535.581 0.70605 -1.39444 0
M  V30 4779 H 536.316 3.15604 -0.745948 0
M  V30 4780 H 536.101 3.00878 -2.51425 0
M  V30 4781 H 537.591 3.74359 -1.85054 0
M  V30 4782 N 538.028 1.39524 0.732853 0
M  V30 4783 C 539.439 1.32905 1.31122 0
M  V30 4784 C 539.79 -0.00558708 1.96199 0
M  V30 4785 O 538.915 -0.907706 1.96443 0
M  V30 4786 C 539.51 2.40704 2.38426 0
M  V30 4787 C 538.069 2.37599 2.91931 0
M  V30 4788 C 537.216 2.2248 1.65523 0
M  V30 4789 H 540.167 1.49581 0.530207 0
M  V30 4790 H 540.188 2.07616 3.18867 0
M  V30 4791 H 539.7 3.37829 1.91033 0
M  V30 4792 H 537.801 1.44119 3.43599 0
M  V30 4793 H 537.914 3.32538 3.44899 0
M  V30 4794 H 536.278 1.69691 1.8994 0
M  V30 4795 H 537.061 3.21577 1.20178 0
M  V30 4796 N 539.506 -0.963266 1.24736 0
M  V30 4797 C 540.754 -1.70343 1.08755 0
M  V30 4798 C 541.075 -1.91387 -0.373619 0
M  V30 4799 O 540.345 -1.4948 -1.2662 0
M  V30 4800 H 538.925 -0.631224 0.399456 0
M  V30 4801 H 541.587 -1.15859 1.56725 0
M  V30 4802 H 540.683 -2.68616 1.58909 0
M  V30 4803 N 540.985 -1.06182 -1.16461 0
M  V30 4804 C 541.917 -0.629584 -2.20383 0
M  V30 4805 C 542.93 0.311834 -1.59786 0
M  V30 4806 O 544.119 0.103 -1.78203 0
M  V30 4807 C 541.219 0.0973695 -3.3876 0
M  V30 4808 C 540.392 -0.857252 -4.28917 0
M  V30 4809 C 539.451 -0.169749 -5.25926 0
M  V30 4810 O 538.477 -0.807044 -5.6345 0
M  V30 4811 N 539.679 1.08911 -5.70192 0
M  V30 4812 H 542.444 -1.52352 -2.58087 0
M  V30 4813 H 540.005 -0.944993 -1.31459 0
M  V30 4814 H 541.997 0.567676 -4.00699 0
M  V30 4815 H 540.567 0.893093 -2.99571 0
M  V30 4816 H 539.787 -1.50696 -3.64259 0
M  V30 4817 H 541.075 -1.50489 -4.86035 0
M  V30 4818 H 540.473 1.62703 -5.41797 0
M  V30 4819 H 539.03 1.50331 -6.34227 0
M  V30 4820 N 542.463 1.3308 -0.844243 0
M  V30 4821 C 543.879 1.50447 -0.532729 0
M  V30 4822 C 544.079 1.78292 0.938837 0
M  V30 4823 O 543.135 1.84635 1.72239 0
M  V30 4824 C 544.448 2.65555 -1.41072 0
M  V30 4825 C 545.996 2.7944 -1.41005 0
M  V30 4826 C 546.471 3.97616 -2.27301 0
M  V30 4827 N 547.962 4.0486 -2.2504 0
M  V30 4828 C 548.697 4.95508 -2.88547 0
M  V30 4829 N 548.193 5.91236 -3.61126 0
M  V30 4830 N 549.986 4.88548 -2.77989 0
M  V30 4831 H 542.137 1.13269 -1.79677 0
M  V30 4832 H 544.4 0.55734 -0.766861 0
M  V30 4833 H 544.106 2.51675 -2.45668 0
M  V30 4834 H 543.98 3.61089 -1.09061 0
M  V30 4835 H 546.367 2.92749 -0.371784 0
M  V30 4836 H 546.448 1.8465 -1.77026 0
M  V30 4837 H 546.092 3.85066 -3.3119 0
M  V30 4838 H 546.022 4.91661 -1.88619 0
M  V30 4839 H 548.513 3.36353 -1.72264 0
M  V30 4840 H 548.826 6.57079 -4.06776 0
M  V30 4841 H 547.171 5.91295 -3.65234 0
M  V30 4842 H 550.362 4.12729 -2.20846 0
M  V30 4843 H 550.535 5.58994 -3.27765 0
M  V30 4844 N 543.941 0.601185 1.45683 0
M  V30 4845 C 545.189 0.0936957 2.01883 0
M  V30 4846 C 545.51 -1.2779 1.47291 0
M  V30 4847 O 544.78 -1.84279 0.664691 0
M  V30 4848 H 543.36 0.0316466 0.746329 0
M  V30 4849 H 546.022 0.781137 1.78562 0
M  V30 4850 H 545.118 0.0386297 3.12076 0
M  V30 4851 N 545.419 -1.53889 0.339982 0
M  V30 4852 C 546.329 -2.28604 -0.526988 0
M  V30 4853 C 547.345 -1.33578 -1.11503 0
M  V30 4854 O 548.521 -1.66612 -1.13148 0
M  V30 4855 C 545.586 -3.04164 -1.66389 0
M  V30 4856 C 544.647 -4.14809 -1.10599 0
M  V30 4857 C 543.88 -4.86756 -2.18871 0
M  V30 4858 O 544.103 -4.58343 -3.39526 0
M  V30 4859 O 543.037 -5.73289 -1.83366 0
M  V30 4860 H 546.863 -3.03594 0.0802707 0
M  V30 4861 H 544.448 -1.4903 0.105141 0
M  V30 4862 H 546.33 -3.51427 -2.32544 0
M  V30 4863 H 545.005 -2.32035 -2.25703 0
M  V30 4864 H 543.912 -3.71857 -0.409067 0
M  V30 4865 H 545.245 -4.89029 -0.557771 0
M  V30 4866 N 546.897 -0.0685191 -1.57451 0
M  V30 4867 C 548.308 0.464634 -1.80826 0
M  V30 4868 C 548.659 1.69847 -0.982169 0
M  V30 4869 O 547.784 2.15439 -0.203734 0
M  V30 4870 C 548.379 0.849721 -3.27971 0
M  V30 4871 C 546.938 1.32776 -3.52204 0
M  V30 4872 C 546.085 0.311332 -2.75547 0
M  V30 4873 H 549.036 -0.294248 -1.55948 0
M  V30 4874 H 549.057 1.71138 -3.39841 0
M  V30 4875 H 548.569 -0.0484736 -3.8807 0
M  V30 4876 H 546.67 2.24456 -2.97406 0
M  V30 4877 H 546.783 1.30794 -4.60901 0
M  V30 4878 H 545.147 0.787915 -2.42206 0
M  V30 4879 H 545.93 -0.579078 -3.38381 0
M  V30 4880 N 548.375 1.56261 0.205012 0
M  V30 4881 C 549.623 1.79684 0.925096 0
M  V30 4882 C 549.944 0.63989 1.84202 0
M  V30 4883 O 549.214 -0.342345 1.92885 0
M  V30 4884 H 547.794 0.662774 0.344587 0
M  V30 4885 H 550.456 1.93734 0.212899 0
M  V30 4886 H 549.552 2.72467 1.52211 0
M  V30 4887 N 549.853 -0.472356 1.50355 0
M  V30 4888 C 551.264 -1.05326 1.54154 0
M  V30 4889 C 551.615 -1.93155 0.344303 0
M  V30 4890 O 550.74 -2.09479 -0.542928 0
M  V30 4891 C 551.335 -1.91691 2.79356 0
M  V30 4892 C 549.894 -2.44892 2.8584 0
M  V30 4893 C 549.041 -1.23205 2.48426 0
M  V30 4894 H 551.992 -0.255027 1.56637 0
M  V30 4895 H 552.013 -2.76742 2.6114 0
M  V30 4896 H 551.525 -1.27741 3.66475 0
M  V30 4897 H 549.626 -3.12399 2.0307 0
M  V30 4898 H 549.739 -2.80086 3.88701 0
M  V30 4899 H 548.103 -1.56643 2.00836 0
M  V30 4900 H 548.886 -0.609194 3.37852 0
M  V30 4901 N 551.331 -1.39911 -0.725443 0
M  V30 4902 C 552.263 -1.35301 -1.85003 0
M  V30 4903 C 553.276 -0.260102 -1.60709 0
M  V30 4904 O 554.465 -0.519749 -1.70766 0
M  V30 4905 C 551.565 -1.08039 -3.21218 0
M  V30 4906 C 550.738 -2.28793 -3.7279 0
M  V30 4907 C 549.797 -1.97841 -4.87591 0
M  V30 4908 O 548.823 -2.70616 -5.00755 0
M  V30 4909 N 550.025 -0.950367 -5.72668 0
M  V30 4910 H 552.79 -2.32218 -1.89459 0
M  V30 4911 H 550.351 -1.34137 -0.90658 0
M  V30 4912 H 552.343 -0.853354 -3.95601 0
M  V30 4913 H 550.913 -0.198229 -3.11971 0
M  V30 4914 H 550.133 -2.67388 -2.8965 0
M  V30 4915 H 551.421 -3.09317 -4.03981 0
M  V30 4916 H 550.819 -0.347436 -5.64632 0
M  V30 4917 H 549.376 -0.783232 -6.47077 0
M  V30 4918 N 552.809 0.956637 -1.25245 0
M  V30 4919 C 554.057 1.69764 -1.09657 0
M  V30 4920 C 554.378 1.91583 0.363464 0
M  V30 4921 O 553.648 1.50149 1.25825 0
M  V30 4922 H 552.228 0.629097 -0.402798 0
M  V30 4923 H 554.89 1.15026 -1.57337 0
M  V30 4924 H 553.986 2.67769 -1.60331 0
M  V30 4925 N 554.287 1.06798 1.15896 0
M  V30 4926 C 555.237 0.653213 2.18443 0
M  V30 4927 C 556.221 -0.318763 1.57711 0
M  V30 4928 O 557.413 -0.133388 1.76497 0
M  V30 4929 C 554.542 0.0465785 3.43268 0
M  V30 4930 C 553.628 1.04336 4.11066 0
M  V30 4931 N 554.019 2.22084 4.54436 0
M  V30 4932 C 552.317 0.875433 4.37324 0
M  V30 4933 C 553.018 2.85276 5.06944 0
M  V30 4934 N 551.994 2.12973 5.00143 0
M  V30 4935 H 555.796 1.55011 2.49698 0
M  V30 4936 H 553.31 0.940384 1.32403 0
M  V30 4937 H 555.307 -0.26843 4.16035 0
M  V30 4938 H 553.967 -0.845504 3.13499 0
M  V30 4939 H 554.978 2.59833 4.48004 0
M  V30 4940 H 551.655 0.0357721 4.17485 0
M  V30 4941 H 553.045 3.85223 5.50503 0
M  V30 4942 N 555.766 -1.3263 0.851289 0
M  V30 4943 C 556.729 -2.27247 0.298541 0
M  V30 4944 C 557.729 -1.51467 -0.539847 0
M  V30 4945 O 558.919 -1.7061 -0.351843 0
M  V30 4946 C 556.051 -3.35964 -0.578004 0
M  V30 4947 H 557.244 -2.7765 1.13359 0
M  V30 4948 H 554.797 -1.43245 0.625354 0
M  V30 4949 H 555.532 -2.90823 -1.435 0
M  V30 4950 H 555.317 -3.92094 0.0220539 0
M  V30 4951 H 556.807 -4.06472 -0.957626 0
M  V30 4952 N 557.244 -0.608902 -1.45362 0
M  V30 4953 C 558.492 -0.104401 -2.0183 0
M  V30 4954 C 558.813 1.27007 -1.47967 0
M  V30 4955 O 558.083 1.83924 -0.674455 0
M  V30 4956 H 556.663 -0.0356042 -0.746151 0
M  V30 4957 H 559.325 -0.790596 -1.78145 0
M  V30 4958 H 558.421 -0.0551793 -3.12051 0
M  V30 4959 N 558.722 1.53707 -0.348139 0
M  V30 4960 C 559.685 2.23812 0.494058 0
M  V30 4961 C 560.685 1.23989 1.02388 0
M  V30 4962 O 561.875 1.48395 0.912396 0
M  V30 4963 C 559.007 2.96133 1.68872 0
M  V30 4964 H 560.2 2.99663 -0.119141 0
M  V30 4965 H 557.753 1.55983 -0.0995539 0
M  V30 4966 H 558.488 2.24481 2.34049 0
M  V30 4967 H 558.273 3.69357 1.31596 0
M  V30 4968 H 559.763 3.49475 2.28597 0
M  V30 4969 N 560.2 0.0768682 1.57412 0
M  V30 4970 C 561.132 -0.918248 2.10002 0
M  V30 4971 C 562.145 -1.25808 1.03325 0
M  V30 4972 O 563.334 -1.21438 1.30824 0
M  V30 4973 C 560.434 -2.23263 2.54964 0
M  V30 4974 C 559.607 -2.07088 3.8527 0
M  V30 4975 C 558.666 -3.21876 4.16272 0
M  V30 4976 O 557.692 -2.96643 4.8579 0
M  V30 4977 N 558.894 -4.4712 3.70221 0
M  V30 4978 H 561.659 -0.469209 2.96004 0
M  V30 4979 H 559.22 -0.108725 1.61535 0
M  V30 4980 H 561.212 -2.9897 2.72762 0
M  V30 4981 H 559.782 -2.59649 1.74072 0
M  V30 4982 H 559.002 -1.15818 3.76802 0
M  V30 4983 H 560.29 -1.93537 4.70554 0
M  V30 4984 H 559.688 -4.70506 3.1407 0
M  V30 4985 H 558.245 -5.19837 3.93209 0
M  V30 4986 N 561.678 -1.56367 -0.196722 0
M  V30 4987 C 562.926 -1.80172 -0.915554 0
M  V30 4988 C 563.247 -0.649649 -1.8386 0
M  V30 4989 O 562.517 0.332111 -1.93064 0
M  V30 4990 H 561.097 -0.664592 -0.341067 0
M  V30 4991 H 563.759 -1.93844 -0.202622 0
M  V30 4992 H 562.855 -2.7327 -1.50764 0
M  V30 4993 N 563.156 0.464375 -1.50603 0
M  V30 4994 C 564.567 1.04507 -1.5471 0
M  V30 4995 C 564.918 1.9297 -0.354542 0
M  V30 4996 O 564.043 2.09763 0.531812 0
M  V30 4997 C 564.638 1.90207 -2.80369 0
M  V30 4998 C 563.197 2.43373 -2.87135 0
M  V30 4999 C 562.344 1.21886 -2.49076 0
M  V30 5000 H 565.295 0.246716 -1.56771 0
M  V30 5001 H 565.316 2.75353 -2.62604 0
M  V30 5002 H 564.828 1.25796 -3.67147 0
M  V30 5003 H 562.929 3.11318 -2.04724 0
M  V30 5004 H 563.042 2.7802 -3.90181 0
M  V30 5005 H 561.406 1.55575 -2.01664 0
M  V30 5006 H 562.189 0.591268 -3.3817 0
M  V30 5007 N 564.634 1.40294 0.718013 0
M  V30 5008 C 566.045 1.34289 1.29705 0
M  V30 5009 C 566.396 0.0152228 1.96194 0
M  V30 5010 O 565.521 -0.88682 1.97394 0
M  V30 5011 C 566.116 2.43219 2.3586 0
M  V30 5012 C 564.675 2.40682 2.89394 0
M  V30 5013 C 563.822 2.24223 1.63154 0
M  V30 5014 H 566.773 1.50135 0.514312 0
M  V30 5015 H 566.794 2.10986 3.16647 0
M  V30 5016 H 566.306 3.39836 1.87439 0
M  V30 5017 H 564.407 1.47756 3.42051 0
M  V30 5018 H 564.52 3.36177 3.41353 0
M  V30 5019 H 562.884 1.71696 1.88129 0
M  V30 5020 H 563.667 3.22834 1.16761 0
M  V30 5021 N 566.112 -0.949982 1.2575 0
M  V30 5022 C 567.36 -1.6918 1.10555 0
M  V30 5023 C 567.681 -1.91773 -0.353298 0
M  V30 5024 O 566.951 -1.50814 -1.25027 0
M  V30 5025 H 565.531 -0.626952 0.406129 0
M  V30 5026 H 568.193 -1.1419 1.57945 0
M  V30 5027 H 567.289 -2.66915 1.61749 0
M  V30 5028 N 567.59 -1.07411 -1.15328 0
M  V30 5029 C 569.001 -0.820261 -1.67716 0
M  V30 5030 C 569.352 0.654539 -1.8496 0
M  V30 5031 O 568.477 1.50664 -1.55337 0
M  V30 5032 C 569.072 -1.48242 -3.04647 0
M  V30 5033 C 567.631 -1.27606 -3.5411 0
M  V30 5034 C 566.778 -1.5517 -2.29821 0
M  V30 5035 H 569.729 -1.23608 -0.995332 0
M  V30 5036 H 569.75 -0.903984 -3.69606 0
M  V30 5037 H 569.262 -2.55578 -2.92064 0
M  V30 5038 H 567.363 -0.222948 -3.71932 0
M  V30 5039 H 567.476 -1.99667 -4.35511 0
M  V30 5040 H 565.84 -0.972747 -2.35393 0
M  V30 5041 H 566.623 -2.63689 -2.19824 0
M  V30 5042 N 569.068 1.32177 -0.85831 0
M  V30 5043 C 570.479 1.79381 -0.517621 0
M  V30 5044 C 570.83 1.70841 0.964769 0
M  V30 5045 O 569.955 1.26917 1.75274 0
M  V30 5046 C 570.55 3.25706 -0.932801 0
M  V30 5047 C 569.109 3.70851 -0.643953 0
M  V30 5048 C 568.256 2.53208 -1.13054 0
M  V30 5049 H 571.207 1.19424 -1.04516 0
M  V30 5050 H 571.228 3.79673 -0.250674 0
M  V30 5051 H 570.74 3.31889 -2.01174 0
M  V30 5052 H 568.841 3.70178 0.424112 0
M  V30 5053 H 568.954 4.63495 -1.21281 0
M  V30 5054 H 567.318 2.48676 -0.550679 0
M  V30 5055 H 568.101 2.62143 -2.21666 0
M  V30 5056 N 570.547 0.616602 1.45037 0
M  V30 5057 C 571.795 0.115103 2.01772 0
M  V30 5058 C 572.116 -1.2622 1.48639 0
M  V30 5059 O 571.386 -1.83563 0.684199 0
M  V30 5060 H 569.966 0.0395607 0.745952 0
M  V30 5061 H 572.628 0.800032 1.77723 0
M  V30 5062 H 571.724 0.0717274 3.12018 0
M  V30 5063 N 572.025 -1.5352 0.356285 0
M  V30 5064 C 573.274 -2.00298 -0.237373 0
M  V30 5065 C 573.587 -1.24784 -1.50627 0
M  V30 5066 O 574.793 -1.62103 -2.17795 0
M  V30 5067 C 573.249 -3.56771 -0.473545 0
M  V30 5068 C 572.857 -4.41154 0.780183 0
M  V30 5069 C 574.601 -4.1193 -1.02537 0
M  V30 5070 C 572.508 -5.89161 0.514108 0
M  V30 5071 H 571.438 -0.748307 -0.092478 0
M  V30 5072 H 574.089 -1.77283 0.473588 0
M  V30 5073 H 572.471 -3.75902 -1.24553 0
M  V30 5074 H 573.645 -4.33797 1.55425 0
M  V30 5075 H 571.96 -3.97052 1.25455 0
M  V30 5076 H 574.557 -5.20133 -1.2396 0
M  V30 5077 H 574.9 -3.65943 -1.98473 0
M  V30 5078 H 575.433 -3.96561 -0.313775 0
M  V30 5079 H 572.172 -6.39408 1.44355 0
M  V30 5080 H 571.692 -5.9939 -0.221632 0
M  V30 5081 H 573.371 -6.46857 0.136122 0
M  V30 5082 N 573.503 -0.0852151 -1.57369 0
M  V30 5083 C 574.451 0.894856 -2.14698 0
M  V30 5084 C 575.445 1.29903 -1.08727 0
M  V30 5085 O 576.651 1.27471 -1.27088 0
M  V30 5086 H 573.026 0.306569 -0.686673 0
M  V30 5087 H 574.997 0.386542 -2.95886 0
M  V30 5088 C 573.746 2.14798 -2.73417 0
M  V30 5089 H 573.069 1.84585 -3.54638 0
M  V30 5090 H 574.509 2.81456 -3.1711 0
M  V30 5091 C 572.968 2.91546 -1.68828 0
M  V30 5092 O 573.498 3.85733 -1.12129 0
M  V30 5093 N 571.704 2.54901 -1.39549 0
M  V30 5094 H 571.251 1.7838 -1.85845 0
M  V30 5095 H 571.209 3.06553 -0.698054 0
M  V30 5096 N 574.981 1.5647 0.188427 0
M  V30 5097 C 576.229 1.80655 0.905986 0
M  V30 5098 C 576.55 0.659391 1.83513 0
M  V30 5099 O 575.82 -0.321868 1.93238 0
M  V30 5100 H 574.4 0.666391 0.337538 0
M  V30 5101 H 577.062 1.93949 0.192339 0
M  V30 5102 H 576.158 2.74066 1.49313 0
M  V30 5103 N 576.459 -0.456382 1.50847 0
M  V30 5104 C 577.684 -1.2349 1.66628 0
M  V30 5105 C 578.109 -1.84715 0.355254 0
M  V30 5106 O 577.467 -1.67961 -0.682559 0
M  V30 5107 C 577.515 -2.30865 2.77009 0
M  V30 5108 O 576.619 -3.35882 2.39285 0
M  V30 5109 H 575.96 -0.36266 0.556214 0
M  V30 5110 H 578.49 -0.541374 1.97308 0
M  V30 5111 H 578.5 -2.75949 3.00526 0
M  V30 5112 H 577.175 -1.85677 3.72152 0
M  V30 5113 H 575.752 -2.96406 2.26269 0
M  V30 5114 N 577.937 -1.40673 -0.710563 0
M  V30 5115 C 579.348 -1.34975 -1.28991 0
M  V30 5116 C 579.699 -0.0256272 -1.96183 0
M  V30 5117 O 578.824 0.876339 -1.97862 0
M  V30 5118 C 579.419 -2.44467 -2.34567 0
M  V30 5119 C 577.978 -2.42213 -2.88114 0
M  V30 5120 C 577.125 -2.25085 -1.61963 0
M  V30 5121 H 580.076 -1.50406 -0.506343 0
M  V30 5122 H 580.097 -2.12663 -3.15523 0
M  V30 5123 H 579.609 -3.40825 -1.85634 0
M  V30 5124 H 577.71 -1.49568 -3.41263 0
M  V30 5125 H 577.823 -3.37983 -3.39565 0
M  V30 5126 H 576.187 -1.72691 -1.87216 0
M  V30 5127 H 576.97 -3.23449 -1.15047 0
M  V30 5128 N 579.415 0.9433 -1.26252 0
M  V30 5129 C 580.663 1.68592 -1.11451 0
M  V30 5130 C 580.984 1.91957 0.343123 0
M  V30 5131 O 580.254 1.51475 1.24226 0
M  V30 5132 H 578.834 0.624789 -0.409448 0
M  V30 5133 H 581.496 1.13351 -1.58548 0
M  V30 5134 H 580.592 2.66054 -1.63162 0
M  V30 5135 N 580.893 1.08022 1.14757 0
M  V30 5136 C 582.141 0.805913 1.85336 0
M  V30 5137 C 582.462 -0.670162 1.83122 0
M  V30 5138 O 581.732 -1.48567 1.2769 0
M  V30 5139 H 580.312 0.295138 0.686223 0
M  V30 5140 H 582.974 1.36538 1.3908 0
M  V30 5141 H 582.07 1.14655 2.90277 0
M  V30 5142 N 582.371 -1.3172 0.865308 0
M  V30 5143 C 583.318 -2.2863 0.315736 0
M  V30 5144 C 584.288 -1.55524 -0.583213 0
M  V30 5145 O 585.473 -1.83694 -0.51585 0
M  V30 5146 C 582.613 -3.41735 -0.480773 0
M  V30 5147 C 581.726 -4.297 0.445167 0
M  V30 5148 C 580.861 -5.29944 -0.365012 0
M  V30 5149 C 579.9 -6.09554 0.557651 0
M  V30 5150 N 579.037 -7.01768 -0.215994 0
M  V30 5151 H 583.877 -2.75026 1.14736 0
M  V30 5152 H 581.414 -1.35302 0.577209 0
M  V30 5153 H 583.372 -4.06045 -0.958306 0
M  V30 5154 H 582.002 -2.96461 -1.27714 0
M  V30 5155 H 581.054 -3.65875 1.04113 0
M  V30 5156 H 582.366 -4.85295 1.15284 0
M  V30 5157 H 581.52 -5.99908 -0.905255 0
M  V30 5158 H 580.259 -4.74994 -1.106 0
M  V30 5159 H 579.264 -5.38485 1.10969 0
M  V30 5160 H 580.489 -6.66591 1.29742 0
M  V30 5161 H 578.435 -6.49232 -0.939878 0
M  V30 5162 H 578.352 -7.54762 0.432431 0
M  V30 5163 H 579.62 -7.76002 -0.737618 0
M  V30 5164 N 583.85 -0.624285 -1.44708 0
M  V30 5165 C 585.098 -0.125802 -2.01708 0
M  V30 5166 C 585.418 1.2543 -1.49306 0
M  V30 5167 O 584.689 1.83198 -0.693924 0
M  V30 5168 H 583.269 -0.0435161 -0.745731 0
M  V30 5169 H 585.931 -0.809446 -1.77296 0
M  V30 5170 H 585.027 -0.0882734 -3.11975 0
M  V30 5171 N 585.328 1.53329 -0.364422 0
M  V30 5172 C 586.238 2.29414 0.490552 0
M  V30 5173 C 587.254 1.35335 1.09363 0
M  V30 5174 O 588.43 1.68391 1.10483 0
M  V30 5175 C 585.495 3.06772 1.61529 0
M  V30 5176 C 584.556 4.16516 1.03986 0
M  V30 5177 C 583.789 4.90176 2.111 0
M  V30 5178 O 584.012 4.63687 3.32191 0
M  V30 5179 O 582.946 5.76134 1.74222 0
M  V30 5180 H 586.772 3.03428 -0.12856 0
M  V30 5181 H 584.357 1.48843 -0.128837 0
M  V30 5182 H 586.239 3.55082 2.26924 0
M  V30 5183 H 584.914 2.35596 2.21983 0
M  V30 5184 H 583.821 3.7246 0.349856 0
M  V30 5185 H 585.154 4.89855 0.4799 0
M  V30 5186 N 586.806 0.0935595 1.57322 0
M  V30 5187 C 587.739 -0.902505 2.09595 0
M  V30 5188 C 588.717 -1.27732 1.00615 0
M  V30 5189 O 589.901 -1.38283 1.28102 0
M  V30 5190 C 587.028 -2.20416 2.57166 0
M  V30 5191 C 586.074 -1.97932 3.7779 0
M  V30 5192 S 586.907 -1.21873 5.21447 0
M  V30 5193 C 588.063 -2.53273 5.72367 0
M  V30 5194 H 588.296 -0.457797 2.93754 0
M  V30 5195 H 585.829 -0.119694 1.53935 0
M  V30 5196 H 587.787 -2.95217 2.85232 0
M  V30 5197 H 586.448 -2.62008 1.73235 0
M  V30 5198 H 585.641 -2.94316 4.09138 0
M  V30 5199 H 585.243 -1.3126 3.5021 0
M  V30 5200 H 587.535 -3.49256 5.8054 0
M  V30 5201 H 588.478 -2.26505 6.70896 0
M  V30 5202 H 588.886 -2.61475 5.00291 0
M  V30 5203 N 588.284 -1.56567 -0.180126 0
M  V30 5204 C 589.532 -1.81133 -0.896392 0
M  V30 5205 C 589.853 -0.669114 -1.83161 0
M  V30 5206 O 589.123 0.311616 -1.93406 0
M  V30 5207 H 587.703 -0.668172 -0.333999 0
M  V30 5208 H 590.365 -1.94048 -0.182051 0
M  V30 5209 H 589.461 -2.74854 -1.47857 0
M  V30 5210 N 589.762 0.448376 -1.51087 0
M  V30 5211 C 591.173 1.0286 -1.5581 0
M  V30 5212 C 591.524 1.92583 -0.374989 0
M  V30 5213 O 590.649 2.10316 0.509533 0
M  V30 5214 C 591.244 1.87223 -2.8237 0
M  V30 5215 C 589.803 2.40314 -2.897 0
M  V30 5216 C 588.95 1.19238 -2.50355 0
M  V30 5217 H 591.901 0.230075 -1.57023 0
M  V30 5218 H 591.922 2.72553 -2.6551 0
M  V30 5219 H 591.434 1.21894 -3.68461 0
M  V30 5220 H 589.535 3.09129 -2.08014 0
M  V30 5221 H 589.648 2.73866 -3.93108 0
M  V30 5222 H 588.012 1.53428 -2.03303 0
M  V30 5223 H 588.795 0.555367 -3.38778 0
M  V30 5224 N 591.24 1.41047 0.703093 0
M  V30 5225 C 592.203 1.42036 1.79884 0
M  V30 5226 C 593.203 0.312153 1.57741 0
M  V30 5227 O 594.393 0.571672 1.64553 0
M  V30 5228 C 591.525 1.22437 3.18154 0
M  V30 5229 H 592.718 2.39572 1.80403 0
M  V30 5230 H 590.271 1.27079 0.909977 0
M  V30 5231 H 591.006 0.257112 3.23279 0
M  V30 5232 H 590.791 2.02723 3.35627 0
M  V30 5233 H 592.281 1.25946 3.98155 0
M  V30 5234 N 592.718 -0.936591 1.26751 0
M  V30 5235 C 593.966 -1.67998 1.12343 0
M  V30 5236 C 594.287 -1.92137 -0.332938 0
M  V30 5237 O 593.557 -1.52132 -1.23421 0
M  V30 5238 H 592.137 -0.622609 0.412756 0
M  V30 5239 H 594.799 -1.12509 1.59147 0
M  V30 5240 H 593.895 -2.65185 1.64571 0
M  V30 5241 N 594.196 -1.08629 -1.14182 0
M  V30 5242 C 595.445 -0.812271 -1.84621 0
M  V30 5243 C 595.758 0.664313 -1.83973 0
M  V30 5244 O 596.964 1.05357 -2.50224 0
M  V30 5245 C 595.42 -1.4031 -3.31423 0
M  V30 5246 C 595.028 -2.91164 -3.40481 0
M  V30 5247 C 596.772 -1.20767 -4.06959 0
M  V30 5248 C 594.679 -3.43373 -4.81507 0
M  V30 5249 H 593.609 -0.30019 -0.691666 0
M  V30 5250 H 596.26 -1.30798 -1.28701 0
M  V30 5251 H 594.642 -0.835096 -3.87094 0
M  V30 5252 H 595.816 -3.5412 -2.94848 0
M  V30 5253 H 594.131 -3.09646 -2.78403 0
M  V30 5254 H 596.728 -1.57237 -5.11058 0
M  V30 5255 H 597.071 -0.147664 -4.16038 0
M  V30 5256 H 597.604 -1.74274 -3.57594 0
M  V30 5257 H 594.343 -4.48958 -4.77616 0
M  V30 5258 H 593.863 -2.85176 -5.27669 0
M  V30 5259 H 595.542 -3.40095 -5.50404 0
M  V30 5260 N 595.674 1.31259 -0.872281 0
M  V30 5261 C 597.085 1.78822 -0.536617 0
M  V30 5262 C 597.436 1.71855 0.946594 0
M  V30 5263 O 596.561 1.28769 1.73918 0
M  V30 5264 C 597.156 3.24698 -0.967294 0
M  V30 5265 C 595.715 3.70147 -0.683251 0
M  V30 5266 C 594.862 2.51994 -1.15733 0
M  V30 5267 H 597.813 1.18308 -1.05777 0
M  V30 5268 H 597.834 3.79386 -0.290929 0
M  V30 5269 H 597.346 3.29737 -2.04683 0
M  V30 5270 H 595.447 3.70607 0.384825 0
M  V30 5271 H 595.56 4.62183 -1.2619 0
M  V30 5272 H 593.924 2.48078 -0.577024 0
M  V30 5273 H 594.707 2.59778 -2.24434 0
M  V30 5274 N 597.152 0.631951 1.44375 0
M  V30 5275 C 598.4 0.136497 2.01639 0
M  V30 5276 C 598.721 -1.24637 1.49969 0
M  V30 5277 O 597.991 -1.82827 0.70363 0
M  V30 5278 H 596.571 0.0474703 0.74549 0
M  V30 5279 H 599.233 0.818837 1.76865 0
M  V30 5280 H 598.329 0.104817 3.11924 0
M  V30 5281 N 598.631 -1.53133 0.372548 0
M  V30 5282 C 599.594 -2.24569 -0.458389 0
M  V30 5283 C 600.594 -1.25603 -1.00402 0
M  V30 5284 O 601.784 -1.49827 -0.888672 0
M  V30 5285 C 598.916 -2.98783 -1.6414 0
M  V30 5286 H 600.109 -2.99436 0.166799 0
M  V30 5287 H 597.662 -1.55805 0.124357 0
M  V30 5288 H 598.397 -2.28176 -2.30448 0
M  V30 5289 H 598.182 -3.71404 -1.25704 0
M  V30 5290 H 599.672 -3.53068 -2.23008 0
M  V30 5291 N 600.109 -0.101901 -1.5727 0
M  V30 5292 C 601.52 0.426173 -1.81771 0
M  V30 5293 C 601.871 1.67725 -1.01797 0
M  V30 5294 O 600.996 2.14958 -0.249386 0
M  V30 5295 C 601.591 0.779962 -3.297 0
M  V30 5296 C 600.15 1.25275 -3.54941 0
M  V30 5297 C 599.297 0.252814 -2.76145 0
M  V30 5298 H 602.248 -0.32726 -1.55289 0
M  V30 5299 H 602.269 1.63891 -3.43395 0
M  V30 5300 H 601.781 -0.130778 -3.8788 0
M  V30 5301 H 599.882 2.18097 -3.021 0
M  V30 5302 H 599.995 1.20988 -4.63572 0
M  V30 5303 H 598.359 0.736362 -2.43823 0
M  V30 5304 H 599.142 -0.650724 -3.37076 0
M  V30 5305 N 601.587 1.56661 0.17182 0
M  V30 5306 C 602.835 1.81606 0.886774 0
M  V30 5307 C 603.156 0.678818 1.82803 0
M  V30 5308 O 602.426 -0.301354 1.93568 0
M  V30 5309 H 601.006 0.669934 0.330451 0
M  V30 5310 H 603.668 1.94142 0.171757 0
M  V30 5311 H 602.764 2.75634 1.46398 0
M  V30 5312 N 603.065 -0.440357 1.51323 0
M  V30 5313 C 603.995 -1.54174 1.75364 0
M  V30 5314 C 604.976 -1.59039 0.603375 0
M  V30 5315 O 606.161 -1.74815 0.845774 0
M  V30 5316 C 603.291 -2.92277 1.87593 0
M  V30 5317 C 602.245 -3.02274 3.03009 0
M  V30 5318 C 601.571 -4.42327 3.00418 0
M  V30 5319 C 602.871 -2.76634 4.43024 0
M  V30 5320 H 604.565 -1.34307 2.67585 0
M  V30 5321 H 602.111 -0.644678 1.28763 0
M  V30 5322 H 604.064 -3.69284 2.02995 0
M  V30 5323 H 602.788 -3.13369 0.920179 0
M  V30 5324 H 601.447 -2.27706 2.87307 0
M  V30 5325 H 601.095 -4.60382 2.02626 0
M  V30 5326 H 600.795 -4.49946 3.77918 0
M  V30 5327 H 602.319 -5.21312 3.17909 0
M  V30 5328 H 603.733 -3.43376 4.59093 0
M  V30 5329 H 602.13 -2.95666 5.22208 0
M  V30 5330 H 603.2 -1.72262 4.5327 0
M  V30 5331 N 604.543 -1.41418 -0.695603 0
M  V30 5332 C 605.476 -1.3768 -1.81988 0
M  V30 5333 C 606.454 -0.244061 -1.60758 0
M  V30 5334 O 607.638 -0.430965 -1.83507 0
M  V30 5335 C 604.765 -1.1476 -3.18666 0
M  V30 5336 C 603.811 -2.30752 -3.58686 0
M  V30 5337 S 604.644 -3.9323 -3.63498 0
M  V30 5338 C 605.8 -3.72613 -5.02902 0
M  V30 5339 H 606.033 -2.32822 -1.84882 0
M  V30 5340 H 603.566 -1.27942 -0.86431 0
M  V30 5341 H 605.524 -1.02223 -3.97569 0
M  V30 5342 H 604.185 -0.212385 -3.13381 0
M  V30 5343 H 603.378 -2.10409 -4.57978 0
M  V30 5344 H 602.98 -2.39696 -2.87092 0
M  V30 5345 H 605.272 -3.32317 -5.904 0
M  V30 5346 H 606.215 -4.71507 -5.28286 0
M  V30 5347 H 606.623 -3.0589 -4.74438 0
M  V30 5348 N 606.021 0.929856 -1.27246 0
M  V30 5349 C 607.269 1.674 -1.13233 0
M  V30 5350 C 607.59 1.92311 0.322744 0
M  V30 5351 O 606.86 1.52784 1.22612 0
M  V30 5352 H 605.44 0.620411 -0.416052 0
M  V30 5353 H 608.102 1.11663 -1.59741 0
M  V30 5354 H 607.198 2.64308 -1.65975 0
M  V30 5355 N 607.499 1.09233 1.13605 0
M  V30 5356 C 608.462 0.733553 2.17144 0
M  V30 5357 C 609.462 -0.235873 1.59061 0
M  V30 5358 O 610.652 -0.0143167 1.74194 0
M  V30 5359 C 607.784 0.084471 3.40795 0
M  V30 5360 H 608.977 1.65049 2.50397 0
M  V30 5361 H 606.53 0.891264 1.28399 0
M  V30 5362 H 607.265 -0.843795 3.1313 0
M  V30 5363 H 607.05 0.781985 3.84223 0
M  V30 5364 H 608.54 -0.151216 4.17326 0
M  V30 5365 N 608.977 -1.30795 0.87923 0
M  V30 5366 C 610.393 -1.48981 0.57243 0
M  V30 5367 C 610.593 -1.80719 -0.891236 0
M  V30 5368 O 609.649 -1.89136 -1.67283 0
M  V30 5369 C 610.962 -2.61721 1.48063 0
M  V30 5370 C 612.51 -2.75603 1.48365 0
M  V30 5371 C 612.985 -3.91449 2.37763 0
M  V30 5372 N 614.476 -3.98751 2.35695 0
M  V30 5373 C 615.211 -4.87684 3.01583 0
M  V30 5374 N 614.707 -5.81454 3.76674 0
M  V30 5375 N 616.5 -4.81005 2.90844 0
M  V30 5376 H 608.651 -1.08465 1.82617 0
M  V30 5377 H 610.914 -0.536813 0.781368 0
M  V30 5378 H 610.62 -2.45073 2.52254 0
M  V30 5379 H 610.494 -3.58071 1.18596 0
M  V30 5380 H 612.881 -2.9166 0.44927 0
M  V30 5381 H 612.962 -1.79891 1.81859 0
M  V30 5382 H 612.606 -3.76149 3.41283 0
M  V30 5383 H 612.536 -4.86487 2.01589 0
M  V30 5384 H 615.027 -3.31668 1.81121 0
M  V30 5385 H 615.34 -6.46063 4.24054 0
M  V30 5386 H 613.685 -5.81403 3.80782 0
M  V30 5387 H 616.876 -4.06728 2.31711 0
M  V30 5388 H 617.049 -5.50107 3.42471 0
M  V30 5389 N 610.455 -0.639598 -1.44038 0
M  V30 5390 C 611.703 -0.147188 -2.01563 0
M  V30 5391 C 612.024 1.2384 -1.50628 0
M  V30 5392 O 611.294 1.82452 -0.713316 0
M  V30 5393 H 609.874 -0.0514231 -0.745228 0
M  V30 5394 H 612.536 -0.828205 -1.76428 0
M  V30 5395 H 611.632 -0.121358 -3.11864 0
M  V30 5396 N 611.933 1.52934 -0.380664 0
M  V30 5397 C 613.344 1.86457 0.0952684 0
M  V30 5398 C 613.695 1.3007 1.46889 0
M  V30 5399 O 612.82 0.628636 2.07068 0
M  V30 5400 C 613.415 3.38323 0.179648 0
M  V30 5401 C 611.974 3.71589 0.599858 0
M  V30 5402 C 611.121 2.76228 -0.243572 0
M  V30 5403 H 614.072 1.46966 -0.59888 0
M  V30 5404 H 614.093 3.67113 1.00042 0
M  V30 5405 H 613.605 3.79333 -0.820228 0
M  V30 5406 H 611.706 3.36144 1.60742 0
M  V30 5407 H 611.819 4.77715 0.364003 0
M  V30 5408 H 610.183 2.53045 0.289855 0
M  V30 5409 H 610.966 3.20074 -1.24127 0
M  V30 5410 N 613.412 0.11024 1.57214 0
M  V30 5411 C 614.823 -0.416527 1.81994 0
M  V30 5412 C 615.174 -1.67183 1.02686 0
M  V30 5413 O 614.299 -2.14823 0.260782 0
M  V30 5414 C 614.894 -0.762466 3.30109 0
M  V30 5415 C 613.453 -1.23391 3.556 0
M  V30 5416 C 612.6 -0.238166 2.76275 0
M  V30 5417 H 615.551 0.335491 1.55113 0
M  V30 5418 H 615.572 -1.62068 3.44259 0
M  V30 5419 H 615.084 0.151346 3.87805 0
M  V30 5420 H 613.185 -2.16492 3.03253 0
M  V30 5421 H 613.298 -1.18528 4.64207 0
M  V30 5422 H 611.662 -0.723421 2.4421 0
M  V30 5423 H 612.445 0.668591 3.36727 0
M  V30 5424 N 614.89 -1.56749 -0.16351 0
M  V30 5425 C 616.138 -1.82074 -0.87713 0
M  V30 5426 C 616.459 -0.688503 -1.82441 0
M  V30 5427 O 615.729 0.291085 -1.93725 0
M  V30 5428 H 614.309 -0.671677 -0.326893 0
M  V30 5429 H 616.971 -1.9423 -0.161459 0
M  V30 5430 H 616.067 -2.76407 -1.44934 0
M  V30 5431 N 616.368 0.432326 -1.51554 0
M  V30 5432 C 617.779 1.01202 -1.56892 0
M  V30 5433 C 618.13 1.92175 -0.395394 0
M  V30 5434 O 617.255 2.10844 0.487198 0
M  V30 5435 C 617.85 1.84217 -2.8434 0
M  V30 5436 C 616.409 2.37228 -2.92233 0
M  V30 5437 C 615.556 1.16576 -2.51606 0
M  V30 5438 H 618.507 0.213407 -1.57259 0
M  V30 5439 H 618.528 2.69721 -2.68385 0
M  V30 5440 H 618.04 1.17979 -3.69733 0
M  V30 5441 H 616.141 3.06905 -2.11282 0
M  V30 5442 H 616.254 2.69682 -3.95991 0
M  V30 5443 H 614.618 1.51263 -2.04919 0
M  V30 5444 H 615.401 0.519404 -3.39348 0
M  V30 5445 N 617.846 1.41785 0.688094 0
M  V30 5446 C 618.809 1.43936 1.78368 0
M  V30 5447 C 619.809 0.328866 1.57401 0
M  V30 5448 O 620.999 0.589093 1.63937 0
M  V30 5449 C 618.131 1.25804 3.16838 0
M  V30 5450 H 619.324 2.41472 1.77852 0
M  V30 5451 H 616.877 1.28037 0.896448 0
M  V30 5452 H 617.612 0.291386 3.22988 0
M  V30 5453 H 617.397 2.06272 3.33458 0
M  V30 5454 H 618.887 1.30162 3.96797 0
M  V30 5455 N 619.324 -0.923095 1.27737 0
M  V30 5456 C 620.572 -1.66797 1.14119 0
M  V30 5457 C 620.893 -1.92479 -0.312541 0
M  V30 5458 O 620.163 -1.53432 -1.218 0
M  V30 5459 H 618.743 -0.618196 0.419336 0
M  V30 5460 H 621.405 -1.10815 1.60331 0
M  V30 5461 H 620.501 -2.63424 1.67374 0
M  V30 5462 N 620.802 -1.09834 -1.13024 0
M  V30 5463 C 621.765 -0.745058 -2.16752 0
M  V30 5464 C 622.765 0.227435 -1.59183 0
M  V30 5465 O 623.955 0.0050786 -1.74199 0
M  V30 5466 C 621.087 -0.102543 -3.40746 0
M  V30 5467 H 622.28 -1.66375 -2.49518 0
M  V30 5468 H 619.833 -0.898061 -1.27924 0
M  V30 5469 H 620.568 0.827177 -3.13573 0
M  V30 5470 H 620.353 -0.80235 -3.83803 0
M  V30 5471 H 621.843 0.129082 -4.174 0
M  V30 5472 N 622.28 1.30327 -0.886154 0
M  V30 5473 C 623.228 2.30052 -0.343317 0
M  V30 5474 C 624.222 1.60212 0.550305 0
M  V30 5475 O 625.428 1.74674 0.434609 0
M  V30 5476 H 621.803 0.746306 -0.0923681 0
M  V30 5477 H 623.774 2.73294 -1.19804 0
M  V30 5478 C 622.523 3.45079 0.426107 0
M  V30 5479 H 621.846 3.99003 -0.25227 0
M  V30 5480 H 623.286 4.16931 0.771009 0
M  V30 5481 C 621.745 2.95195 1.62363 0
M  V30 5482 O 622.275 2.95323 2.723 0
M  V30 5483 N 620.481 2.51192 1.4612 0
M  V30 5484 H 620.028 2.51286 0.566832 0
M  V30 5485 H 619.986 2.18173 2.2638 0
M  V30 5486 N 623.758 0.647228 1.43697 0
M  V30 5487 C 625.006 0.157876 2.01482 0
M  V30 5488 C 625.327 -1.23039 1.51282 0
M  V30 5489 O 624.597 -1.82071 0.722982 0
M  V30 5490 H 623.177 0.0553745 0.744945 0
M  V30 5491 H 625.839 0.83755 1.75986 0
M  V30 5492 H 624.935 0.137895 3.11795 0
M  V30 5493 N 625.236 -1.5273 0.388769 0
M  V30 5494 C 626.199 -2.25043 -0.434544 0
M  V30 5495 C 627.199 -1.26661 -0.990644 0
M  V30 5496 O 628.389 -1.50762 -0.872731 0
M  V30 5497 C 625.521 -3.00507 -1.60961 0
M  V30 5498 H 626.714 -2.99242 0.198549 0
M  V30 5499 H 624.267 -1.55664 0.140875 0
M  V30 5500 H 625.002 -2.30607 -2.28015 0
M  V30 5501 H 624.787 -3.72716 -1.21757 0
M  V30 5502 H 626.277 -3.55413 -2.19251 0
M  V30 5503 N 626.714 -0.118576 -1.57153 0
M  V30 5504 C 628.125 0.40687 -1.82213 0
M  V30 5505 C 628.476 1.66636 -1.03571 0
M  V30 5506 O 627.601 2.14682 -0.272171 0
M  V30 5507 C 628.196 0.744949 -3.30509 0
M  V30 5508 C 626.755 1.21503 -3.5625 0
M  V30 5509 C 625.902 0.223511 -2.76398 0
M  V30 5510 H 628.853 -0.343712 -1.54933 0
M  V30 5511 H 628.874 1.6024 -3.45114 0
M  V30 5512 H 628.386 -0.171911 -3.87719 0
M  V30 5513 H 626.487 2.1488 -3.04396 0
M  V30 5514 H 626.6 1.16065 -4.64829 0
M  V30 5515 H 624.964 0.71046 -2.44591 0
M  V30 5516 H 625.747 -0.686439 -3.36367 0
M  V30 5517 N 628.193 1.56834 0.155195 0
M  V30 5518 C 629.441 1.82536 0.867462 0
M  V30 5519 C 629.762 0.698168 1.82073 0
M  V30 5520 O 629.032 -0.280807 1.93877 0
M  V30 5521 H 627.612 0.673401 0.323327 0
M  V30 5522 H 630.274 1.94313 0.151156 0
M  V30 5523 H 629.37 2.77171 1.43466 0
M  V30 5524 N 629.671 -0.424282 1.51781 0
M  V30 5525 C 630.601 -1.52305 1.7699 0
M  V30 5526 C 631.582 -1.5839 0.620209 0
M  V30 5527 O 632.767 -1.73908 0.864268 0
M  V30 5528 C 629.897 -2.90271 1.90683 0
M  V30 5529 C 628.851 -2.99043 3.06198 0
M  V30 5530 C 628.177 -4.39116 3.05092 0
M  V30 5531 C 629.477 -2.7192 4.45934 0
M  V30 5532 H 631.171 -1.31461 2.68995 0
M  V30 5533 H 628.717 -0.630985 1.29439 0
M  V30 5534 H 630.67 -3.6711 2.06901 0
M  V30 5535 H 629.394 -3.12376 0.953365 0
M  V30 5536 H 628.053 -2.24646 2.89706 0
M  V30 5537 H 627.701 -4.58207 2.07498 0
M  V30 5538 H 627.401 -4.45912 3.82669 0
M  V30 5539 H 628.925 -5.17911 3.2342 0
M  V30 5540 H 630.339 -3.38487 4.62709 0
M  V30 5541 H 628.736 -2.90111 5.25315 0
M  V30 5542 H 629.806 -1.67445 4.55072 0
M  V30 5543 N 631.149 -1.42148 -0.680565 0
M  V30 5544 C 632.565 -1.24947 -0.992995 0
M  V30 5545 C 632.765 -0.149527 -2.00944 0
M  V30 5546 O 631.821 0.481145 -2.47873 0
M  V30 5547 C 633.134 -2.60426 -1.5033 0
M  V30 5548 C 634.682 -2.67733 -1.62137 0
M  V30 5549 C 635.157 -4.03564 -2.16565 0
M  V30 5550 N 636.648 -4.05488 -2.23905 0
M  V30 5551 C 637.383 -5.07401 -2.67081 0
M  V30 5552 N 636.879 -6.19698 -3.09751 0
M  V30 5553 N 638.672 -4.94758 -2.66778 0
M  V30 5554 H 630.823 -2.12399 -0.0074788 0
M  V30 5555 H 633.086 -0.94571 -0.0658529 0
M  V30 5556 H 632.792 -3.41743 -0.830947 0
M  V30 5557 H 632.666 -2.83949 -2.483 0
M  V30 5558 H 635.053 -1.86765 -2.2848 0
M  V30 5559 H 635.134 -2.48004 -0.626713 0
M  V30 5560 H 634.778 -4.84987 -1.50833 0
M  V30 5561 H 634.708 -4.20641 -3.1681 0
M  V30 5562 H 637.199 -3.24415 -1.93812 0
M  V30 5563 H 637.512 -6.93318 -3.41365 0
M  V30 5564 H 635.857 -6.23212 -3.07623 0
M  V30 5565 H 639.048 -4.06105 -2.32801 0
M  V30 5566 H 639.221 -5.74317 -3.00107 0
M  V30 5567 N 632.627 0.916307 -1.28225 0
M  V30 5568 C 633.875 1.6619 -1.15002 0
M  V30 5569 C 634.196 1.92642 0.302329 0
M  V30 5570 O 633.466 1.54076 1.20985 0
M  V30 5571 H 632.046 0.615964 -0.422608 0
M  V30 5572 H 634.708 1.09963 -1.60917 0
M  V30 5573 H 633.804 2.62533 -1.68769 0
M  V30 5574 N 634.105 1.10431 1.1244 0
M  V30 5575 C 635.353 0.845045 1.83585 0
M  V30 5576 C 635.674 -0.631168 1.84503 0
M  V30 5577 O 634.944 -1.45825 1.30813 0
M  V30 5578 H 633.524 0.309628 0.679809 0
M  V30 5579 H 636.186 1.39458 1.36153 0
M  V30 5580 H 635.282 1.20786 2.8778 0
M  V30 5581 N 635.583 -1.29855 0.893053 0
M  V30 5582 C 636.546 -2.26183 0.370687 0
M  V30 5583 C 637.546 -1.53108 -0.491385 0
M  V30 5584 O 638.736 -1.71643 -0.297386 0
M  V30 5585 C 635.868 -3.37633 -0.470827 0
M  V30 5586 H 637.061 -2.73903 1.22135 0
M  V30 5587 H 634.614 -1.41183 0.67061 0
M  V30 5588 H 635.349 -2.95241 -1.34175 0
M  V30 5589 H 635.134 -3.91825 0.146784 0
M  V30 5590 H 636.624 -4.09313 -0.827825 0
M  V30 5591 N 637.061 -0.65484 -1.43351 0
M  V30 5592 C 638.309 -0.168559 -2.01396 0
M  V30 5593 C 638.63 1.22235 -1.51933 0
M  V30 5594 O 637.9 1.81685 -0.732627 0
M  V30 5595 H 636.48 -0.0593244 -0.744641 0
M  V30 5596 H 639.142 -0.846871 -1.75539 0
M  V30 5597 H 638.238 -0.154428 -3.11718 0
M  V30 5598 N 638.539 1.52521 -0.396863 0
M  V30 5599 C 639.449 2.30403 0.44178 0
M  V30 5600 C 640.465 1.37625 1.06468 0
M  V30 5601 O 641.641 1.70697 1.06886 0
M  V30 5602 C 638.706 3.1013 1.54986 0
M  V30 5603 C 637.767 4.18628 0.951279 0
M  V30 5604 C 637 4.94543 2.00655 0
M  V30 5605 O 637.223 4.70629 3.22281 0
M  V30 5606 O 636.157 5.797 1.61962 0
M  V30 5607 H 639.983 3.03087 -0.192892 0
M  V30 5608 H 637.568 1.48537 -0.16038 0
M  V30 5609 H 639.45 3.59816 2.19341 0
M  V30 5610 H 638.125 2.40251 2.16935 0
M  V30 5611 H 637.032 3.73119 0.270773 0
M  V30 5612 H 638.365 4.90763 0.375887 0
M  V30 5613 N 640.017 0.126909 1.57088 0
M  V30 5614 C 641.428 -0.397201 1.82426 0
M  V30 5615 C 641.779 -1.66084 1.04453 0
M  V30 5616 O 640.904 -2.14534 0.283552 0
M  V30 5617 C 641.499 -0.727411 3.30899 0
M  V30 5618 C 640.058 -1.19612 3.56889 0
M  V30 5619 C 639.205 -0.20885 2.76512 0
M  V30 5620 H 642.156 0.351924 1.54749 0
M  V30 5621 H 642.177 -1.58407 3.45959 0
M  V30 5622 H 641.689 0.19247 3.87622 0
M  V30 5623 H 639.79 -2.13263 3.05532 0
M  V30 5624 H 639.903 -1.13598 4.65438 0
M  V30 5625 H 638.267 -0.697479 2.44964 0
M  V30 5626 H 639.05 0.704267 3.35998 0
M  V30 5627 N 641.495 -1.56914 -0.146875 0
M  V30 5628 C 642.743 -1.82994 -0.85777 0
M  V30 5629 C 643.064 -0.707814 -1.817 0
M  V30 5630 O 642.334 0.270521 -1.94023 0
M  V30 5631 H 640.914 -0.675106 -0.319751 0
M  V30 5632 H 643.576 -1.9439 -0.140849 0
M  V30 5633 H 642.672 -2.77928 -1.41994 0
M  V30 5634 N 642.974 0.416227 -1.52004 0
M  V30 5635 C 643.921 1.50666 -1.74838 0
M  V30 5636 C 644.891 1.55245 -0.590599 0
M  V30 5637 O 646.076 1.71928 -0.827374 0
M  V30 5638 C 643.216 2.88185 -1.89851 0
M  V30 5639 C 642.329 2.92971 -3.17478 0
M  V30 5640 C 641.464 4.21745 -3.22962 0
M  V30 5641 C 640.503 4.20478 -4.4482 0
M  V30 5642 N 639.64 5.40811 -4.47736 0
M  V30 5643 H 644.48 1.30498 -2.67907 0
M  V30 5644 H 642.017 0.633568 -1.32757 0
M  V30 5645 H 643.975 3.68007 -1.96537 0
M  V30 5646 H 642.605 3.06865 -1.00169 0
M  V30 5647 H 641.657 2.05684 -3.19997 0
M  V30 5648 H 642.969 2.87899 -4.07328 0
M  V30 5649 H 642.123 5.09954 -3.28682 0
M  V30 5650 H 640.862 4.29503 -2.31038 0
M  V30 5651 H 639.867 3.30659 -4.39254 0
M  V30 5652 H 641.092 4.14366 -5.38031 0
M  V30 5653 H 639.038 5.4925 -3.58692 0
M  V30 5654 H 638.955 5.37705 -5.31422 0
M  V30 5655 H 640.223 6.30993 -4.57676 0
M  V30 5656 N 644.452 1.42507 0.673017 0
M  V30 5657 C 645.4 1.46362 1.80779 0
M  V30 5658 C 646.394 0.339166 1.6597 0
M  V30 5659 O 647.6 0.512262 1.72557 0
M  V30 5660 H 643.975 0.458433 0.596107 0
M  V30 5661 H 645.946 2.41953 1.74646 0
M  V30 5662 C 644.695 1.38462 3.18941 0
M  V30 5663 H 644.018 2.24283 3.30964 0
M  V30 5664 H 645.458 1.45221 3.98355 0
M  V30 5665 C 643.917 0.0996354 3.36753 0
M  V30 5666 O 644.447 -0.846894 3.92671 0
M  V30 5667 N 642.653 0.016211 2.90595 0
M  V30 5668 H 642.2 0.78725 2.45276 0
M  V30 5669 H 642.158 -0.84291 3.0289 0
M  V30 5670 N 645.93 -0.909495 1.28709 0
M  V30 5671 C 647.178 -1.65577 1.15882 0
M  V30 5672 C 647.499 -1.928 -0.292108 0
M  V30 5673 O 646.769 -1.54716 -1.20166 0
M  V30 5674 H 645.349 -0.613714 0.425869 0
M  V30 5675 H 648.011 -1.09108 1.61498 0
M  V30 5676 H 647.107 -2.61634 1.70159 0
M  V30 5677 N 647.408 -1.11026 -1.11852 0
M  V30 5678 C 648.371 -0.768006 -2.1595 0
M  V30 5679 C 649.371 0.210538 -1.59416 0
M  V30 5680 O 650.561 -0.0133978 -1.74195 0
M  V30 5681 C 647.693 -0.138678 -3.40618 0
M  V30 5682 H 648.886 -1.69012 -2.4774 0
M  V30 5683 H 646.439 -0.911578 -1.26964 0
M  V30 5684 H 647.174 0.793872 -3.14433 0
M  V30 5685 H 646.959 -0.843012 -3.8293 0
M  V30 5686 H 648.449 0.0848039 -4.17514 0
M  V30 5687 N 648.886 1.2938 -0.899927 0
M  V30 5688 C 649.833 2.27713 -0.376243 0
M  V30 5689 C 650.803 1.57016 0.541774 0
M  V30 5690 O 651.988 1.84997 0.466966 0
M  V30 5691 C 649.128 3.42889 0.39 0
M  V30 5692 C 648.241 4.28369 -0.558938 0
M  V30 5693 C 647.376 5.30726 0.224379 0
M  V30 5694 C 646.415 6.07862 -0.719068 0
M  V30 5695 N 645.552 7.02094 0.0298569 0
M  V30 5696 H 650.392 2.71888 -1.21988 0
M  V30 5697 H 647.929 1.33724 -0.612879 0
M  V30 5698 H 649.887 4.08443 0.850314 0
M  V30 5699 H 648.517 2.99743 1.19809 0
M  V30 5700 H 647.569 3.62986 -1.13777 0
M  V30 5701 H 648.881 4.82068 -1.2811 0
M  V30 5702 H 648.035 6.02098 0.745881 0
M  V30 5703 H 646.774 4.77759 0.979674 0
M  V30 5704 H 645.779 5.35353 -1.25207 0
M  V30 5705 H 647.004 6.62917 -1.4737 0
M  V30 5706 H 644.95 6.51496 0.767415 0
M  V30 5707 H 644.867 7.5335 -0.632391 0
M  V30 5708 H 646.135 7.77685 0.531615 0
M  V30 5709 N 650.364 0.662433 1.43002 0
M  V30 5710 C 651.612 0.179237 2.01304 0
M  V30 5711 C 651.933 -1.21428 1.52579 0
M  V30 5712 O 651.203 -1.81294 0.742252 0
M  V30 5713 H 649.783 0.0632725 0.744316 0
M  V30 5714 H 652.445 0.856169 1.75088 0
M  V30 5715 H 651.541 0.170957 3.11631 0
M  V30 5716 N 651.842 -1.52309 0.404946 0
M  V30 5717 C 652.752 -2.30634 -0.429555 0
M  V30 5718 C 653.768 -1.38187 -1.05737 0
M  V30 5719 O 654.944 -1.71261 -1.05979 0
M  V30 5720 C 652.009 -3.10947 -1.53339 0
M  V30 5721 C 651.07 -4.19126 -0.929065 0
M  V30 5722 C 650.303 -4.95601 -1.9803 0
M  V30 5723 O 650.526 -4.72331 -3.1978 0
M  V30 5724 O 649.46 -5.80551 -1.58886 0
M  V30 5725 H 653.286 -3.0298 0.208963 0
M  V30 5726 H 650.871 -1.4845 0.168255 0
M  V30 5727 H 652.753 -3.60974 -2.1743 0
M  V30 5728 H 651.428 -2.41399 -2.15658 0
M  V30 5729 H 650.335 -3.73257 -0.250982 0
M  V30 5730 H 651.668 -4.90955 -0.349855 0
M  V30 5731 N 653.32 -0.135238 -1.57019 0
M  V30 5732 C 654.731 0.387521 -1.82634 0
M  V30 5733 C 655.082 1.65528 -1.05332 0
M  V30 5734 O 654.207 2.14381 -0.294926 0
M  V30 5735 C 654.802 0.709852 -3.3128 0
M  V30 5736 C 653.361 1.17718 -3.57518 0
M  V30 5737 C 652.508 0.194183 -2.76619 0
M  V30 5738 H 655.459 -0.360126 -1.5456 0
M  V30 5739 H 655.48 1.5657 -3.46794 0
M  V30 5740 H 654.992 -0.213024 -3.87515 0
M  V30 5741 H 653.093 2.1164 -3.06658 0
M  V30 5742 H 653.206 1.11128 -4.66034 0
M  V30 5743 H 651.57 0.684478 -2.4533 0
M  V30 5744 H 652.353 -0.722076 -3.3562 0
M  V30 5745 N 654.798 1.5699 0.138552 0
M  V30 5746 C 656.046 1.83446 0.848053 0
M  V30 5747 C 656.367 0.71744 1.81322 0
M  V30 5748 O 655.637 -0.260228 1.94164 0
M  V30 5749 H 654.217 0.676792 0.316166 0
M  V30 5750 H 656.879 1.94462 0.130538 0
M  V30 5751 H 655.975 2.78677 1.40518 0
M  V30 5752 N 656.276 -0.40816 1.52223 0
M  V30 5753 C 657.687 -0.986929 1.58482 0
M  V30 5754 C 658.038 -1.91521 0.425917 0
M  V30 5755 O 657.163 -2.11593 -0.453593 0
M  V30 5756 C 657.758 -1.7967 2.87235 0
M  V30 5757 C 656.317 -2.32549 2.9597 0
M  V30 5758 C 655.464 -1.12558 2.53428 0
M  V30 5759 H 658.415 -0.188362 1.57578 0
M  V30 5760 H 658.436 -2.65417 2.72642 0
M  V30 5761 H 657.948 -1.12082 3.71563 0
M  V30 5762 H 656.049 -3.03505 2.16137 0
M  V30 5763 H 656.162 -2.63348 4.00231 0
M  V30 5764 H 654.526 -1.47984 2.07299 0
M  V30 5765 H 655.309 -0.465351 3.40131 0
M  V30 5766 N 657.755 -1.42862 -0.66545 0
M  V30 5767 C 659.171 -1.25993 -0.979687 0
M  V30 5768 C 659.371 -0.170831 -2.00775 0
M  V30 5769 O 658.427 0.454827 -2.4837 0
M  V30 5770 C 659.74 -2.62005 -1.47559 0
M  V30 5771 C 661.288 -2.69437 -1.59288 0
M  V30 5772 C 661.763 -4.05838 -2.12272 0
M  V30 5773 N 663.254 -4.0784 -2.19592 0
M  V30 5774 C 663.989 -5.10205 -2.61684 0
M  V30 5775 N 663.485 -6.22949 -3.03161 0
M  V30 5776 N 665.278 -4.9756 -2.61516 0
M  V30 5777 H 657.429 -2.12395 0.0150493 0
M  V30 5778 H 659.692 -0.946355 -0.0558187 0
M  V30 5779 H 659.398 -3.42605 -0.794654 0
M  V30 5780 H 659.272 -2.86566 -2.45275 0
M  V30 5781 H 661.659 -1.89178 -2.26486 0
M  V30 5782 H 661.74 -2.48655 -0.600374 0
M  V30 5783 H 661.384 -4.86559 -1.4568 0
M  V30 5784 H 661.314 -4.23977 -3.12331 0
M  V30 5785 H 663.805 -3.26452 -1.90361 0
M  V30 5786 H 664.118 -6.96899 -3.33993 0
M  V30 5787 H 662.463 -6.2644 -3.00995 0
M  V30 5788 H 665.654 -4.08551 -2.28481 0
M  V30 5789 H 665.827 -5.77468 -2.93999 0
M  V30 5790 N 659.233 0.902656 -1.29189 0
M  V30 5791 C 660.481 1.6496 -1.16758 0
M  V30 5792 C 660.802 1.92952 0.28188 0
M  V30 5793 O 660.072 1.55351 1.19344 0
M  V30 5794 H 658.652 0.611447 -0.429118 0
M  V30 5795 H 661.314 1.0825 -1.62074 0
M  V30 5796 H 660.41 2.60728 -1.71544 0
M  V30 5797 N 660.711 1.11618 1.11262 0
M  V30 5798 C 661.621 0.78898 2.20935 0
M  V30 5799 C 662.637 -0.21867 1.7262 0
M  V30 5800 O 663.813 -0.0543826 2.01327 0
M  V30 5801 C 660.878 0.239014 3.45875 0
M  V30 5802 C 659.939 1.3055 4.08968 0
M  V30 5803 C 659.172 0.781687 5.27944 0
M  V30 5804 O 659.395 -0.387605 5.69082 0
M  V30 5805 O 658.329 1.54734 5.81671 0
M  V30 5806 H 662.155 1.70477 2.51339 0
M  V30 5807 H 659.74 0.892203 1.19834 0
M  V30 5808 H 661.622 -0.0632312 4.21353 0
M  V30 5809 H 660.297 -0.649454 3.17118 0
M  V30 5810 H 659.204 1.66079 3.35214 0
M  V30 5811 H 660.537 2.16743 4.41909 0
M  V30 5812 N 662.189 -1.289 0.906776 0
M  V30 5813 C 663.605 -1.47733 0.603902 0
M  V30 5814 C 663.805 -1.82568 -0.852702 0
M  V30 5815 O 662.861 -1.92642 -1.63234 0
M  V30 5816 C 664.174 -2.58522 1.53581 0
M  V30 5817 C 665.722 -2.72394 1.54177 0
M  V30 5818 C 666.197 -3.86318 2.46013 0
M  V30 5819 N 667.688 -3.93661 2.441 0
M  V30 5820 C 668.423 -4.81177 3.11859 0
M  V30 5821 N 667.919 -5.73333 3.88923 0
M  V30 5822 N 669.712 -4.74728 3.00981 0
M  V30 5823 H 661.863 -1.04567 1.84877 0
M  V30 5824 H 664.126 -0.520118 0.792579 0
M  V30 5825 H 663.832 -2.39667 2.57396 0
M  V30 5826 H 663.706 -3.55475 1.26165 0
M  V30 5827 H 666.093 -2.90641 0.511034 0
M  V30 5828 H 666.174 -1.75993 1.85634 0
M  V30 5829 H 665.818 -3.68826 3.49185 0
M  V30 5830 H 665.748 -4.82102 2.11862 0
M  V30 5831 H 668.239 -3.27751 1.88115 0
M  V30 5832 H 668.552 -6.36923 4.37663 0
M  V30 5833 H 666.897 -5.73196 3.93029 0
M  V30 5834 H 670.088 -4.01722 2.40286 0
M  V30 5835 H 670.261 -5.42719 3.54062 0
M  V30 5836 N 663.667 -0.670007 -1.42649 0
M  V30 5837 C 664.915 -0.18991 -2.01206 0
M  V30 5838 C 665.236 1.20617 -1.53221 0
M  V30 5839 O 664.506 1.80898 -0.751856 0
M  V30 5840 H 663.086 -0.0672189 -0.743969 0
M  V30 5841 H 665.748 -0.865442 -1.74631 0
M  V30 5842 H 664.844 -0.187481 -3.11536 0
M  V30 5843 N 665.145 1.52092 -0.413018 0
M  V30 5844 C 666.055 2.30858 0.417318 0
M  V30 5845 C 667.071 1.38746 1.05003 0
M  V30 5846 O 668.247 1.71821 1.05069 0
M  V30 5847 C 665.312 3.11756 1.51687 0
M  V30 5848 C 664.373 4.19613 0.906825 0
M  V30 5849 C 663.606 4.96644 1.95399 0
M  V30 5850 O 663.829 4.7402 3.17271 0
M  V30 5851 O 662.763 5.81385 1.55805 0
M  V30 5852 H 666.589 3.02865 -0.225028 0
M  V30 5853 H 664.174 1.48358 -0.176126 0
M  V30 5854 H 666.056 3.62122 2.15512 0
M  V30 5855 H 664.731 2.42539 2.14375 0
M  V30 5856 H 663.638 3.73385 0.231183 0
M  V30 5857 H 664.971 4.91134 0.323814 0
M  V30 5858 N 666.623 0.143563 1.56945 0
M  V30 5859 C 667.586 -0.783295 2.154 0
M  V30 5860 C 668.586 -1.17763 1.09492 0
M  V30 5861 O 669.776 -1.09912 1.35148 0
M  V30 5862 C 666.908 -2.06248 2.7143 0
M  V30 5863 H 668.101 -0.274863 2.98638 0
M  V30 5864 H 665.654 -0.105859 1.55941 0
M  V30 5865 H 666.389 -2.61466 1.91849 0
M  V30 5866 H 666.174 -1.78897 3.4891 0
M  V30 5867 H 667.664 -2.72453 3.16479 0
M  V30 5868 N 668.101 -1.57061 -0.130224 0
M  V30 5869 C 669.349 -1.83893 -0.838313 0
M  V30 5870 C 669.67 -0.727046 -1.80939 0
M  V30 5871 O 668.94 0.249927 -1.94299 0
M  V30 5872 H 667.52 -0.67846 -0.312573 0
M  V30 5873 H 670.182 -1.94529 -0.120224 0
M  V30 5874 H 669.278 -2.79419 -1.39038 0
M  V30 5875 N 669.579 0.400081 -1.52437 0
M  V30 5876 C 670.828 1.14332 -1.66166 0
M  V30 5877 C 671.141 1.91419 -0.402253 0
M  V30 5878 O 672.347 2.6824 -0.419487 0
M  V30 5879 C 670.803 2.08137 -2.9361 0
M  V30 5880 C 670.411 1.36524 -4.26691 0
M  V30 5881 C 672.155 2.82664 -3.16703 0
M  V30 5882 C 670.062 2.29031 -5.45251 0
M  V30 5883 H 668.992 0.430499 -0.61902 0
M  V30 5884 H 671.643 0.407017 -1.78929 0
M  V30 5885 H 670.025 2.85358 -2.74567 0
M  V30 5886 H 671.199 0.646061 -4.56249 0
M  V30 5887 H 669.514 0.74002 -4.09771 0
M  V30 5888 H 672.111 3.52037 -4.0246 0
M  V30 5889 H 672.454 3.46122 -2.31312 0
M  V30 5890 H 672.987 2.12541 -3.36261 0
M  V30 5891 H 669.726 1.70206 -6.33017 0
M  V30 5892 H 669.246 2.98896 -5.2002 0
M  V30 5893 H 670.925 2.89359 -5.78689 0
M  V30 5894 N 671.057 1.43213 0.657864 0
M  V30 5895 C 672.468 1.39669 1.23893 0
M  V30 5896 C 672.819 0.0984217 1.95953 0
M  V30 5897 O 671.944 -0.8023 2.00978 0
M  V30 5898 C 672.539 2.53004 2.25332 0
M  V30 5899 C 671.098 2.5274 2.78926 0
M  V30 5900 C 670.245 2.30941 1.53497 0
M  V30 5901 H 673.196 1.52181 0.450172 0
M  V30 5902 H 673.217 2.24226 3.07413 0
M  V30 5903 H 672.729 3.4748 1.72856 0
M  V30 5904 H 670.83 1.6213 3.35477 0
M  V30 5905 H 670.943 3.50352 3.26787 0
M  V30 5906 H 669.307 1.7952 1.80678 0
M  V30 5907 H 670.09 3.27496 1.02963 0
M  V30 5908 N 672.536 -0.895792 1.29666 0
M  V30 5909 C 673.784 -1.64339 1.17631 0
M  V30 5910 C 674.105 -1.93099 -0.271643 0
M  V30 5911 O 673.375 -1.55981 -1.18518 0
M  V30 5912 H 671.955 -0.609162 0.432354 0
M  V30 5913 H 674.617 -1.07389 1.62646 0
M  V30 5914 H 673.713 -2.59815 1.72924 0
M  V30 5915 N 674.014 -1.12206 -1.10668 0
M  V30 5916 C 675.26 -0.877172 -1.82848 0
M  V30 5917 C 675.593 0.595571 -1.84842 0
M  V30 5918 O 674.868 1.44013 -1.30731 0
M  V30 5919 C 675.151 -1.44957 -3.29635 0
M  V30 5920 C 675.004 -2.99051 -3.35989 0
M  V30 5921 C 676.323 -1.10714 -4.25946 0
M  V30 5922 H 673.442 -0.320103 -0.663854 0
M  V30 5923 H 676.084 -1.38827 -1.2972 0
M  V30 5924 H 674.234 -1.01488 -3.7501 0
M  V30 5925 H 675.906 -3.51182 -2.99113 0
M  V30 5926 H 674.149 -3.34705 -2.75962 0
M  V30 5927 H 674.82 -3.34194 -4.39339 0
M  V30 5928 H 677.296 -1.48254 -3.88793 0
M  V30 5929 H 676.172 -1.5343 -5.2702 0
M  V30 5930 H 676.433 -0.019 -4.42096 0
M  V30 5931 N 675.492 1.28418 -0.913599 0
M  V30 5932 C 676.903 1.77024 -0.593237 0
M  V30 5933 C 677.254 1.74779 0.891441 0
M  V30 5934 O 676.379 1.34237 1.69733 0
M  V30 5935 C 676.974 3.21456 -1.07011 0
M  V30 5936 C 675.533 3.67786 -0.800664 0
M  V30 5937 C 674.68 2.48185 -1.23691 0
M  V30 5938 H 677.631 1.14883 -1.09487 0
M  V30 5939 H 677.652 3.78269 -0.411481 0
M  V30 5940 H 677.164 3.23058 -2.1507 0
M  V30 5941 H 675.265 3.71644 0.266725 0
M  V30 5942 H 675.378 4.57934 -1.4083 0
M  V30 5943 H 673.742 2.46116 -0.655655 0
M  V30 5944 H 674.525 2.52506 -2.32585 0
M  V30 5945 N 676.97 0.677563 1.42291 0
M  V30 5946 C 678.218 0.200578 2.01102 0
M  V30 5947 C 678.539 -1.19803 1.53858 0
M  V30 5948 O 677.809 -1.80496 0.761439 0
M  V30 5949 H 676.389 0.0711634 0.743603 0
M  V30 5950 H 679.051 0.874691 1.7417 0
M  V30 5951 H 678.147 0.204 3.11433 0
M  V30 5952 N 678.448 -1.51871 0.421078 0
M  V30 5953 C 679.411 -2.25914 -0.386712 0
M  V30 5954 C 680.411 -1.28733 -0.963555 0
M  V30 5955 O 681.601 -1.52579 -0.840556 0
M  V30 5956 C 678.733 -3.03853 -1.54551 0
M  V30 5957 H 679.926 -2.98754 0.261978 0
M  V30 5958 H 677.479 -1.5533 0.173862 0
M  V30 5959 H 678.214 -2.35392 -2.23072 0
M  V30 5960 H 677.999 -3.75215 -1.13824 0
M  V30 5961 H 679.489 -3.59984 -2.11663 0
M  V30 5962 N 679.926 -0.151884 -1.56866 0
M  V30 5963 C 680.873 0.785936 -2.17006 0
M  V30 5964 C 681.843 1.2407 -1.10435 0
M  V30 5965 O 683.028 1.31235 -1.38499 0
M  V30 5966 C 680.168 2.01771 -2.79969 0
M  V30 5967 C 679.281 1.6083 -4.00946 0
M  V30 5968 C 678.416 2.79224 -4.51893 0
M  V30 5969 C 677.455 2.3468 -5.65324 0
M  V30 5970 N 676.592 3.461 -6.10867 0
M  V30 5971 H 681.432 0.266286 -2.96808 0
M  V30 5972 H 678.969 0.11972 -1.46612 0
M  V30 5973 H 680.927 2.73989 -3.14621 0
M  V30 5974 H 679.557 2.51139 -2.02803 0
M  V30 5975 H 678.609 0.783592 -3.72242 0
M  V30 5976 H 679.921 1.24119 -4.83111 0
M  V30 5977 H 679.075 3.59625 -4.88625 0
M  V30 5978 H 677.814 3.19183 -3.68746 0
M  V30 5979 H 676.819 1.52721 -5.28163 0
M  V30 5980 H 678.044 1.95801 -6.5026 0
M  V30 5981 H 675.99 3.85671 -5.30654 0
M  V30 5982 H 675.907 3.1342 -6.87971 0
M  V30 5983 H 677.175 4.26844 -6.52246 0
M  V30 5984 N 681.404 1.57128 0.121893 0
M  V30 5985 C 682.652 1.84335 0.828548 0
M  V30 5986 C 682.973 0.736632 1.80551 0
M  V30 5987 O 682.243 -0.23962 1.94429 0
M  V30 5988 H 680.823 0.680108 0.30897 0
M  V30 5989 H 683.485 1.9459 0.109906 0
M  V30 5990 H 682.581 2.80152 1.37554 0
M  V30 5991 N 682.882 -0.391992 1.52647 0
M  V30 5992 C 683.792 -1.503 1.80131 0
M  V30 5993 C 684.808 -1.59825 0.687882 0
M  V30 5994 O 685.984 -1.76218 0.975149 0
M  V30 5995 C 683.049 -2.85863 1.96171 0
M  V30 5996 C 682.11 -2.86084 3.20085 0
M  V30 5997 C 681.343 -4.15181 3.35351 0
M  V30 5998 O 681.566 -5.09981 2.55491 0
M  V30 5999 O 680.5 -4.22603 4.28591 0
M  V30 6000 H 684.326 -1.30007 2.74466 0
M  V30 6001 H 681.911 -0.579539 1.37701 0
M  V30 6002 H 683.793 -3.66236 2.08445 0
M  V30 6003 H 682.468 -3.06189 1.05025 0
M  V30 6004 H 681.375 -2.04504 3.13256 0
M  V30 6005 H 682.708 -2.7071 4.11068 0
M  V30 6006 N 684.36 -1.4356 -0.65026 0
M  V30 6007 C 685.637 -1.35811 -1.40765 0
M  V30 6008 C 686.017 -0.00736379 -2.11099 0
M  V30 6009 O 685.365 1.00932 -2.05 0
M  V30 6010 C 685.575 -2.54332 -2.3899 0
M  V30 6011 C 686.923 -2.97551 -3.02901 0
M  V30 6012 O 687.947 -2.544 -2.49317 0
M  V30 6013 O 686.806 -3.72311 -4.00059 0
M  V30 6014 H 683.9 -0.536861 -0.629054 0
M  V30 6015 H 686.446 -1.55615 -0.676919 0
M  V30 6016 H 685.218 -3.44274 -1.85986 0
M  V30 6017 H 684.841 -2.36643 -3.19509 0
M  V30 6018 N 685.838 0.888903 -1.30139 0
M  V30 6019 C 687.086 1.63713 -1.18501 0
M  V30 6020 C 687.407 1.9324 0.261399 0
M  V30 6021 O 686.677 1.56608 1.17689 0
M  V30 6022 H 685.257 0.606861 -0.435579 0
M  V30 6023 H 687.919 1.06525 -1.63213 0
M  V30 6024 H 687.015 2.58894 -1.743 0
M  V30 6025 N 687.317 1.12792 1.10072 0
M  V30 6026 C 688.264 0.79921 2.16521 0
M  V30 6027 C 689.234 -0.235726 1.64419 0
M  V30 6028 O 690.419 -0.109457 1.90486 0
M  V30 6029 C 687.559 0.264091 3.44088 0
M  V30 6030 C 686.672 1.35729 4.10124 0
M  V30 6031 C 685.807 0.781212 5.25424 0
M  V30 6032 C 684.846 1.85327 5.8337 0
M  V30 6033 N 683.983 1.29564 6.90042 0
M  V30 6034 H 688.823 1.71105 2.43981 0
M  V30 6035 H 686.36 0.854225 1.19756 0
M  V30 6036 H 688.318 -0.0642423 4.17151 0
M  V30 6037 H 686.948 -0.610901 3.16967 0
M  V30 6038 H 686 1.80234 3.34993 0
M  V30 6039 H 687.312 2.16782 4.4923 0
M  V30 6040 H 686.466 0.403769 6.05355 0
M  V30 6041 H 685.205 -0.0604686 4.87663 0
M  V30 6042 H 684.21 2.23986 5.02106 0
M  V30 6043 H 685.435 2.69824 6.23195 0
M  V30 6044 H 683.381 0.475844 6.54272 0
M  V30 6045 H 683.298 2.04271 7.2788 0
M  V30 6046 H 684.566 0.945545 7.73744 0
M  V30 6047 N 688.795 -1.27931 0.920396 0
M  V30 6048 C 690.072 -1.89728 0.475687 0
M  V30 6049 C 690.452 -1.8337 -1.04588 0
M  V30 6050 O 689.8 -1.27404 -1.89685 0
M  V30 6051 C 690.01 -3.33959 1.01354 0
M  V30 6052 C 691.358 -4.10907 1.06963 0
M  V30 6053 O 692.382 -3.42945 0.962646 0
M  V30 6054 O 691.241 -5.32399 1.23343 0
M  V30 6055 H 688.335 -0.81294 0.151845 0
M  V30 6056 H 690.881 -1.36252 1.01161 0
M  V30 6057 H 689.653 -3.32843 2.05746 0
M  V30 6058 H 689.276 -3.94944 0.458829 0
M  V30 6059 N 690.273 -0.685099 -1.4193 0
M  V30 6060 C 691.521 -0.21124 -2.00993 0
M  V30 6061 C 691.842 1.18985 -1.54491 0
M  V30 6062 O 691.112 1.8009 -0.771 0
M  V30 6063 H 689.692 -0.0751059 -0.743215 0
M  V30 6064 H 692.354 -0.883915 -1.73704 0
M  V30 6065 H 691.45 -0.220513 -3.1132 0
M  V30 6066 N 691.751 1.51645 -0.429126 0
M  V30 6067 C 692.976 2.06917 0.141399 0
M  V30 6068 C 693.401 1.29527 1.36398 0
M  V30 6069 O 692.759 0.33094 1.78254 0
M  V30 6070 C 692.807 3.57776 0.4504 0
M  V30 6071 O 691.911 3.82639 1.53821 0
M  V30 6072 H 691.252 0.663978 0.0054647 0
M  V30 6073 H 693.782 1.95355 -0.608093 0
M  V30 6074 H 693.792 4.01894 0.703249 0
M  V30 6075 H 692.467 4.13532 -0.443213 0
M  V30 6076 H 691.044 3.5039 1.27597 0
M  V30 6077 N 693.229 0.160201 1.56784 0
M  V30 6078 C 694.64 -0.358417 1.83227 0
M  V30 6079 C 694.991 -1.63831 1.07952 0
M  V30 6080 O 694.116 -2.13885 0.328995 0
M  V30 6081 C 694.711 -0.657058 3.32368 0
M  V30 6082 C 693.27 -1.12015 3.59346 0
M  V30 6083 C 692.417 -0.15015 2.76893 0
M  V30 6084 H 695.368 0.384669 1.53967 0
M  V30 6085 H 695.389 -1.51033 3.49241 0
M  V30 6086 H 694.901 0.274647 3.87127 0
M  V30 6087 H 693.002 -2.06734 3.09987 0
M  V30 6088 H 693.115 -1.037 4.67743 0
M  V30 6089 H 691.479 -0.645361 2.46388 0
M  V30 6090 H 692.262 0.775379 3.34429 0
M  V30 6091 N 694.707 -1.5719 -0.113559 0
M  V30 6092 C 695.955 -1.84772 -0.818761 0
M  V30 6093 C 696.276 -0.746196 -1.80158 0
M  V30 6094 O 695.546 0.229305 -1.94553 0
M  V30 6095 H 694.126 -0.681737 -0.305359 0
M  V30 6096 H 696.788 -1.94645 -0.0995845 0
M  V30 6097 H 695.884 -2.80878 -1.36067 0
M  V30 6098 N 696.185 0.383891 -1.52853 0
M  V30 6099 C 697.095 1.49343 -1.80925 0
M  V30 6100 C 698.111 1.59458 -0.696348 0
M  V30 6101 O 699.287 1.75698 -0.984481 0
M  V30 6102 C 696.352 2.84819 -1.97684 0
M  V30 6103 C 695.413 2.84382 -3.21598 0
M  V30 6104 C 694.646 4.13397 -3.37548 0
M  V30 6105 O 694.869 5.08619 -2.58192 0
M  V30 6106 O 693.803 4.20325 -4.30826 0
M  V30 6107 H 697.629 1.2855 -2.75152 0
M  V30 6108 H 695.214 0.572229 -1.38007 0
M  V30 6109 H 697.096 3.65125 -2.10385 0
M  V30 6110 H 695.771 3.05627 -1.06647 0
M  V30 6111 H 694.678 2.0284 -3.14336 0
M  V30 6112 H 696.011 2.68526 -4.12498 0
M  V30 6113 N 697.663 1.43903 0.642637 0
M  V30 6114 C 699.074 1.40975 1.22404 0
M  V30 6115 C 699.425 0.1192 1.95838 0
M  V30 6116 O 698.55 -0.780939 2.01818 0
M  V30 6117 C 699.145 2.5538 2.22636 0
M  V30 6118 C 697.704 2.55684 2.76229 0
M  V30 6119 C 696.851 2.32556 1.51039 0
M  V30 6120 H 699.802 1.5265 0.434006 0
M  V30 6121 H 699.823 2.27474 3.05017 0
M  V30 6122 H 699.335 3.49294 1.69161 0
M  V30 6123 H 697.436 1.65679 3.33738 0
M  V30 6124 H 697.549 3.53799 3.23053 0
M  V30 6125 H 695.913 1.81427 1.78764 0
M  V30 6126 H 696.696 3.28569 0.99484 0
M  V30 6127 N 699.141 -0.881989 1.30609 0
M  V30 6128 C 700.389 -1.63082 1.19368 0
M  V30 6129 C 700.71 -1.93376 -0.251147 0
M  V30 6130 O 699.98 -1.5723 -1.16857 0
M  V30 6131 H 698.56 -0.604542 0.438791 0
M  V30 6132 H 701.222 -1.05658 1.63776 0
M  V30 6133 H 700.318 -2.57966 1.7567 0
M  V30 6134 N 700.619 -1.13374 -1.09472 0
M  V30 6135 C 701.582 -0.813639 -2.14272 0
M  V30 6136 C 702.582 0.176677 -1.59826 0
M  V30 6137 O 703.772 -0.0503441 -1.74127 0
M  V30 6138 C 700.904 -0.210897 -3.40247 0
M  V30 6139 H 702.097 -1.74229 -2.44099 0
M  V30 6140 H 699.65 -0.938304 -1.25002 0
M  V30 6141 H 700.385 0.726998 -3.16046 0
M  V30 6142 H 700.17 -0.924048 -3.81056 0
M  V30 6143 H 701.66 -0.00377603 -4.176 0
M  V30 6144 N 702.098 1.27442 -0.927168 0
M  V30 6145 C 703.046 2.28844 -0.416333 0
M  V30 6146 C 704.04 1.61882 0.499057 0
M  V30 6147 O 705.246 1.75969 0.378817 0
M  V30 6148 H 701.621 0.742989 -0.116065 0
M  V30 6149 H 703.592 2.69344 -1.28438 0
M  V30 6150 C 702.341 3.4626 0.316107 0
M  V30 6151 H 701.664 3.97999 -0.379082 0
M  V30 6152 H 703.104 4.19173 0.637975 0
M  V30 6153 C 701.563 3.00211 1.5289 0
M  V30 6154 O 702.093 3.03837 2.62766 0
M  V30 6155 N 700.299 2.55713 1.38054 0
M  V30 6156 H 699.846 2.52962 0.4866 0
M  V30 6157 H 699.804 2.25264 2.19325 0
M  V30 6158 N 703.576 0.692616 1.41565 0
M  V30 6159 C 704.824 0.221896 2.00878 0
M  V30 6160 C 705.145 -1.18164 1.5512 0
M  V30 6161 O 704.415 -1.79679 0.78054 0
M  V30 6162 H 702.995 0.0790463 0.742806 0
M  V30 6163 H 705.657 0.893115 1.73232 0
M  V30 6164 H 704.753 0.23702 3.11199 0
M  V30 6165 N 705.054 -1.51416 0.437162 0
M  V30 6166 C 705.984 -2.30631 -0.364922 0
M  V30 6167 C 706.965 -1.36037 -1.02118 0
M  V30 6168 O 708.15 -1.64956 -1.02485 0
M  V30 6169 C 705.28 -3.1482 -1.46648 0
M  V30 6170 C 704.234 -4.17691 -0.933717 0
M  V30 6171 C 703.56 -4.904 -2.13101 0
M  V30 6172 C 704.86 -5.2229 0.0317201 0
M  V30 6173 H 706.554 -2.97932 0.29614 0
M  V30 6174 H 704.1 -1.4328 0.143865 0
M  V30 6175 H 706.053 -3.69017 -2.03481 0
M  V30 6176 H 704.777 -2.4534 -2.15583 0
M  V30 6177 H 703.436 -3.64545 -0.387602 0
M  V30 6178 H 703.084 -4.17423 -2.80654 0
M  V30 6179 H 702.784 -5.59962 -1.78092 0
M  V30 6180 H 704.308 -5.4742 -2.70487 0
M  V30 6181 H 705.722 -5.7156 -0.446302 0
M  V30 6182 H 704.119 -5.99378 0.29437 0
M  V30 6183 H 705.189 -4.75131 0.968447 0
M  V30 6184 N 706.532 -0.168513 -1.56696 0
M  V30 6185 C 707.943 0.348694 -1.83415 0
M  V30 6186 C 708.294 1.63257 -1.0882 0
M  V30 6187 O 707.419 2.13707 -0.340333 0
M  V30 6188 C 708.014 0.639423 -3.32711 0
M  V30 6189 C 706.573 1.10108 -3.59935 0
M  V30 6190 C 705.72 0.135464 -2.76969 0
M  V30 6191 H 708.671 -0.392829 -1.53761 0
M  V30 6192 H 708.692 1.49179 -3.50037 0
M  V30 6193 H 708.204 -0.295173 -3.86976 0
M  V30 6194 H 706.305 2.05088 -3.11079 0
M  V30 6195 H 706.418 1.01218 -4.68286 0
M  V30 6196 H 704.782 0.632286 -2.46727 0
M  V30 6197 H 705.565 -0.793104 -3.34013 0
M  V30 6198 N 708.01 1.57248 0.105221 0
M  V30 6199 C 709.258 1.85204 0.808951 0
M  V30 6200 C 709.579 0.75574 1.7976 0
M  V30 6201 O 708.849 -0.218984 1.94672 0
M  V30 6202 H 707.429 0.683346 0.301739 0
M  V30 6203 H 710.091 1.94695 0.0892605 0
M  V30 6204 H 709.187 2.81595 1.34575 0
M  V30 6205 N 709.488 -0.375779 1.53054 0
M  V30 6206 C 710.451 -1.44254 1.7811 0
M  V30 6207 C 711.451 -1.47018 0.651328 0
M  V30 6208 O 712.641 -1.47957 0.919472 0
M  V30 6209 C 709.773 -2.8345 1.89391 0
M  V30 6210 H 710.966 -1.23316 2.73374 0
M  V30 6211 H 708.519 -0.608312 1.43977 0
M  V30 6212 H 709.254 -3.09716 0.961589 0
M  V30 6213 H 709.039 -2.82844 2.71555 0
M  V30 6214 H 710.529 -3.60722 2.10404 0
M  V30 6215 N 710.966 -1.44241 -0.634997 0
M  V30 6216 C 711.929 -1.50457 -1.72903 0
M  V30 6217 C 712.929 -0.387058 -1.56072 0
M  V30 6218 O 714.119 -0.649531 -1.61638 0
M  V30 6219 C 711.251 -1.37477 -3.1195 0
M  V30 6220 H 712.444 -2.47907 -1.68767 0
M  V30 6221 H 709.997 -1.31276 -0.84831 0
M  V30 6222 H 710.732 -0.41106 -3.21684 0
M  V30 6223 H 710.517 -2.18506 -3.25573 0
M  V30 6224 H 712.007 -1.44799 -3.91692 0
M  V30 6225 N 712.444 0.87505 -1.31075 0
M  V30 6226 C 713.692 1.62447 -1.20231 0
M  V30 6227 C 714.013 1.93506 0.240888 0
M  V30 6228 O 713.283 1.57847 1.16022 0
M  V30 6229 H 711.863 0.602207 -0.441991 0
M  V30 6230 H 714.525 1.04788 -1.64334 0
M  V30 6231 H 713.621 2.57031 -1.77036 0
M  V30 6232 N 713.922 1.13953 1.08869 0
M  V30 6233 C 714.832 0.835666 2.19212 0
M  V30 6234 C 715.848 -0.182005 1.73045 0
M  V30 6235 O 717.024 -0.0116661 2.01397 0
M  V30 6236 C 714.089 0.312325 3.4529 0
M  V30 6237 C 713.15 1.39196 4.06107 0
M  V30 6238 C 712.383 0.893496 5.26168 0
M  V30 6239 O 712.606 -0.266807 5.69776 0
M  V30 6240 O 711.54 1.67037 5.78258 0
M  V30 6241 H 715.366 1.75769 2.47667 0
M  V30 6242 H 712.951 0.917421 1.17914 0
M  V30 6243 H 714.833 0.0261582 4.21392 0
M  V30 6244 H 713.508 -0.582042 3.18424 0
M  V30 6245 H 712.415 1.73152 3.31616 0
M  V30 6246 H 713.748 2.26068 4.37212 0
M  V30 6247 N 715.4 -1.26948 0.933913 0
M  V30 6248 C 716.816 -1.46419 0.635103 0
M  V30 6249 C 717.016 -1.84336 -0.813785 0
M  V30 6250 O 716.072 -1.96061 -1.59111 0
M  V30 6251 C 717.385 -2.55206 1.5903 0
M  V30 6252 C 718.933 -2.69062 1.5992 0
M  V30 6253 C 719.408 -3.81013 2.54152 0
M  V30 6254 N 720.899 -3.88395 2.52395 0
M  V30 6255 C 721.634 -4.74454 3.21996 0
M  V30 6256 N 721.13 -5.64954 4.00997 0
M  V30 6257 N 722.923 -4.68237 3.10983 0
M  V30 6258 H 715.074 -1.00622 1.87053 0
M  V30 6259 H 717.337 -0.503189 0.803433 0
M  V30 6260 H 717.043 -2.34153 2.62422 0
M  V30 6261 H 716.917 -3.52719 1.33677 0
M  V30 6262 H 719.304 -2.89492 0.572569 0
M  V30 6263 H 719.385 -1.72016 1.89325 0
M  V30 6264 H 719.029 -3.61336 3.5693 0
M  V30 6265 H 718.959 -4.77499 2.22041 0
M  V30 6266 H 721.45 -3.23687 1.95025 0
M  V30 6267 H 721.763 -6.27496 4.51074 0
M  V30 6268 H 720.108 -5.6473 4.05099 0
M  V30 6269 H 723.299 -3.96535 2.48753 0
M  V30 6270 H 723.472 -5.35087 3.65494 0
M  V30 6271 N 716.879 -0.700114 -1.41195 0
M  V30 6272 C 718.127 -0.232546 -2.00758 0
M  V30 6273 C 718.448 1.1734 -1.55745 0
M  V30 6274 O 717.718 1.79262 -0.790058 0
M  V30 6275 H 716.298 -0.0829845 -0.742376 0
M  V30 6276 H 718.96 -0.902289 -1.72756 0
M  V30 6277 H 718.056 -0.253521 -3.11069 0
M  V30 6278 N 718.357 1.51182 -0.445186 0
M  V30 6279 C 719.32 2.26501 0.350722 0
M  V30 6280 C 720.32 1.3025 0.942952 0
M  V30 6281 O 721.51 1.53897 0.816175 0
M  V30 6282 C 718.642 3.06274 1.49697 0
M  V30 6283 H 719.835 2.98299 -0.309474 0
M  V30 6284 H 717.388 1.55034 -0.198551 0
M  V30 6285 H 718.123 2.38911 2.19299 0
M  V30 6286 H 717.908 3.76979 1.0784 0
M  V30 6287 H 719.398 3.63306 2.05909 0
M  V30 6288 N 719.835 0.176821 1.56605 0
M  V30 6289 C 721.246 -0.338963 1.83597 0
M  V30 6290 C 721.597 -1.62677 1.09684 0
M  V30 6291 O 720.722 -2.13524 0.351661 0
M  V30 6292 C 721.317 -0.62177 3.33046 0
M  V30 6293 C 719.876 -1.08198 3.60514 0
M  V30 6294 C 719.023 -0.120774 2.77037 0
M  V30 6295 H 721.974 0.400978 1.53551 0
M  V30 6296 H 721.995 -1.47321 3.50823 0
M  V30 6297 H 721.507 0.315692 3.86814 0
M  V30 6298 H 719.608 -2.03435 3.12162 0
M  V30 6299 H 719.721 -0.987329 4.68816 0
M  V30 6300 H 718.085 -0.619192 2.47059 0
M  V30 6301 H 718.868 0.810806 3.33588 0
M  V30 6302 N 721.313 -1.57302 -0.09688 0
M  V30 6303 C 722.561 -1.8563 -0.799117 0
M  V30 6304 C 722.882 -0.765263 -1.79356 0
M  V30 6305 O 722.152 0.208657 -1.94786 0
M  V30 6306 H 720.732 -0.684937 -0.298111 0
M  V30 6307 H 723.394 -1.9474 -0.0789341 0
M  V30 6308 H 722.49 -2.82305 -1.3308 0
M  V30 6309 N 722.791 0.367657 -1.53252 0
M  V30 6310 C 724.038 1.11052 -1.69333 0
M  V30 6311 C 724.366 1.89363 -0.444064 0
M  V30 6312 O 723.621 1.87094 0.573953 0
M  V30 6313 C 723.92 2.09825 -2.89324 0
M  V30 6314 C 723.586 1.4801 -4.25915 0
M  V30 6315 C 722.248 1.30879 -4.6306 0
M  V30 6316 C 724.6 1.03268 -5.10867 0
M  V30 6317 C 721.928 0.675868 -5.82794 0
M  V30 6318 C 724.28 0.41377 -6.31245 0
M  V30 6319 C 722.944 0.229939 -6.67104 0
M  V30 6320 H 722.214 0.406367 -0.619634 0
M  V30 6321 H 724.861 0.392558 -1.87433 0
M  V30 6322 H 723.166 2.87917 -2.65728 0
M  V30 6323 H 724.863 2.67252 -2.98961 0
M  V30 6324 H 721.453 1.62336 -3.96667 0
M  V30 6325 H 725.637 1.15297 -4.82722 0
M  V30 6326 H 720.893 0.521833 -6.09169 0
M  V30 6327 H 725.067 0.0588768 -6.96375 0
M  V30 6328 H 722.694 -0.262562 -7.59746 0
M  V30 6329 N 724.269 1.44576 0.627338 0
M  V30 6330 C 725.685 1.28546 0.945938 0
M  V30 6331 C 725.885 0.224003 2.00251 0
M  V30 6332 O 724.941 -0.388817 2.49488 0
M  V30 6333 C 726.254 2.65825 1.40561 0
M  V30 6334 C 727.802 2.73566 1.52088 0
M  V30 6335 C 728.277 4.11323 2.01438 0
M  V30 6336 N 729.768 4.13519 2.08702 0
M  V30 6337 C 730.503 5.16964 2.48065 0
M  V30 6338 N 729.999 6.30768 2.86538 0
M  V30 6339 N 731.792 5.04319 2.48232 0
M  V30 6340 H 723.943 2.1228 -0.0713567 0
M  V30 6341 H 726.206 0.947503 0.0307081 0
M  V30 6342 H 725.912 3.44591 0.703539 0
M  V30 6343 H 725.786 2.92969 2.37591 0
M  V30 6344 H 728.173 1.95116 2.21391 0
M  V30 6345 H 728.254 2.50159 0.534237 0
M  V30 6346 H 727.898 4.9025 1.32729 0
M  V30 6347 H 727.828 4.32109 3.0098 0
M  V30 6348 H 730.319 3.31385 1.81638 0
M  V30 6349 H 730.632 7.0551 3.15398 0
M  V30 6350 H 728.977 6.342 2.84281 0
M  V30 6351 H 732.168 4.14465 2.17569 0
M  V30 6352 H 732.341 5.85059 2.78585 0
M  V30 6353 N 725.747 -0.868086 1.31537 0
M  V30 6354 C 726.995 -1.61807 1.21091 0
M  V30 6355 C 727.316 -1.93631 -0.230623 0
M  V30 6356 O 726.586 -1.5846 -1.15183 0
M  V30 6357 H 725.166 -0.599854 0.445178 0
M  V30 6358 H 727.828 -1.03915 1.64887 0
M  V30 6359 H 726.924 -2.56088 1.78396 0
M  V30 6360 N 727.225 -1.14528 -1.08264 0
M  V30 6361 C 728.636 -0.925261 -1.6216 0
M  V30 6362 C 728.987 0.535587 -1.88748 0
M  V30 6363 O 728.112 1.4048 -1.64604 0
M  V30 6364 C 728.707 -1.67316 -2.94603 0
M  V30 6365 C 727.266 -1.49868 -3.45278 0
M  V30 6366 C 726.413 -1.69471 -2.19487 0
M  V30 6367 H 729.364 -1.29687 -0.914707 0
M  V30 6368 H 729.385 -1.13721 -3.63109 0
M  V30 6369 H 728.897 -2.73635 -2.75219 0
M  V30 6370 H 726.998 -0.459032 -3.69762 0
M  V30 6371 H 727.111 -2.2696 -4.21931 0
M  V30 6372 H 725.475 -1.12048 -2.2873 0
M  V30 6373 H 726.258 -2.77136 -2.0261 0
M  V30 6374 N 728.703 1.26451 -0.940633 0
M  V30 6375 C 729.666 2.24651 -0.454378 0
M  V30 6376 C 730.666 1.54826 0.434222 0
M  V30 6377 O 731.856 1.72628 0.233477 0
M  V30 6378 C 728.988 3.39148 0.345192 0
M  V30 6379 H 730.181 2.69182 -1.32217 0
M  V30 6380 H 727.734 1.38596 -0.722547 0
M  V30 6381 H 728.469 3.00018 1.23125 0
M  V30 6382 H 728.254 3.9101 -0.292107 0
M  V30 6383 H 729.744 4.12103 0.675341 0
M  V30 6384 N 730.181 0.707592 1.40822 0
M  V30 6385 C 731.429 0.243189 2.00632 0
M  V30 6386 C 731.75 -1.16512 1.56365 0
M  V30 6387 O 731.02 -1.78841 0.799553 0
M  V30 6388 H 729.6 0.0869203 0.741926 0
M  V30 6389 H 732.262 0.911438 1.72275 0
M  V30 6390 H 731.358 0.270014 3.1093 0
M  V30 6391 N 731.66 -1.50943 0.453197 0
M  V30 6392 C 733.071 -1.86699 -0.00619892 0
M  V30 6393 C 733.422 -1.3693 -1.40515 0
M  V30 6394 O 732.547 -0.726715 -2.03833 0
M  V30 6395 C 733.142 -3.38795 -0.018025 0
M  V30 6396 C 731.701 -3.74028 -0.421885 0
M  V30 6397 C 730.848 -2.74752 0.375087 0
M  V30 6398 H 733.799 -1.43942 0.668317 0
M  V30 6399 H 733.82 -3.71468 -0.824125 0
M  V30 6400 H 733.332 -3.74988 1.00028 0
M  V30 6401 H 731.433 -3.43431 -1.44521 0
M  V30 6402 H 731.546 -4.78908 -0.135664 0
M  V30 6403 H 729.91 -2.5414 -0.168794 0
M  V30 6404 H 730.693 -3.13787 1.39256 0
M  V30 6405 N 733.138 -0.185124 -1.56509 0
M  V30 6406 C 734.086 0.756505 -2.19954 0
M  V30 6407 C 735.08 1.22725 -1.16769 0
M  V30 6408 O 736.286 1.1913 -1.34937 0
M  V30 6409 H 732.661 0.262279 -0.704779 0
M  V30 6410 H 734.632 0.197587 -2.97745 0
M  V30 6411 C 733.381 1.96975 -2.86524 0
M  V30 6412 H 732.704 1.61658 -3.65659 0
M  V30 6413 H 734.144 2.60719 -3.34367 0
M  V30 6414 C 732.603 2.80219 -1.87027 0
M  V30 6415 O 733.133 3.77821 -1.36433 0
M  V30 6416 N 731.339 2.4551 -1.55477 0
M  V30 6417 H 730.886 1.66199 -1.96813 0
M  V30 6418 H 730.844 3.01493 -0.891597 0
M  V30 6419 N 734.616 1.57351 0.0885366 0
M  V30 6420 C 735.864 1.86051 0.789262 0
M  V30 6421 C 736.185 0.774763 1.78948 0
M  V30 6422 O 735.455 -0.198324 1.94894 0
M  V30 6423 H 734.035 0.686508 0.294475 0
M  V30 6424 H 736.697 1.94779 0.0686055 0
M  V30 6425 H 735.793 2.83007 1.31581 0
M  V30 6426 N 736.094 -0.359525 1.53444 0
M  V30 6427 C 737.343 -1.09886 1.69139 0
M  V30 6428 C 737.656 -1.90285 0.452863 0
M  V30 6429 O 738.862 -2.67033 0.490459 0
M  V30 6430 C 737.318 -2.0028 2.99025 0
M  V30 6431 C 736.926 -1.25164 4.30161 0
M  V30 6432 C 738.67 -2.74168 3.24086 0
M  V30 6433 C 736.577 -2.14494 5.51132 0
M  V30 6434 H 735.507 -0.413936 0.630217 0
M  V30 6435 H 738.158 -0.359434 1.79945 0
M  V30 6436 H 736.54 -2.77978 2.82036 0
M  V30 6437 H 737.714 -0.524867 4.57801 0
M  V30 6438 H 736.029 -0.631116 4.11589 0
M  V30 6439 H 738.626 -3.41243 4.11652 0
M  V30 6440 H 738.969 -3.39868 2.40407 0
M  V30 6441 H 739.502 -2.0355 3.41778 0
M  V30 6442 H 736.241 -1.53362 6.37307 0
M  V30 6443 H 735.761 -2.85004 5.27762 0
M  V30 6444 H 737.44 -2.73914 5.86157 0
M  V30 6445 N 737.572 -1.44907 -0.619662 0
M  V30 6446 C 738.983 -1.42905 -1.20146 0
M  V30 6447 C 739.334 -0.150341 -1.95623 0
M  V30 6448 O 738.459 0.748732 -2.03034 0
M  V30 6449 C 739.054 -2.58889 -2.18545 0
M  V30 6450 C 737.613 -2.60046 -2.72127 0
M  V30 6451 C 736.76 -2.3493 -1.4732 0
M  V30 6452 H 739.711 -1.53321 -0.409666 0
M  V30 6453 H 739.732 -2.32298 -3.0136 0
M  V30 6454 H 739.244 -3.51941 -1.63583 0
M  V30 6455 H 737.345 -1.70968 -3.3106 0
M  V30 6456 H 737.458 -3.58893 -3.17384 0
M  V30 6457 H 735.822 -1.84248 -1.75855 0
M  V30 6458 H 736.605 -3.3011 -0.942442 0
M  V30 6459 N 739.05 0.861098 -1.31996 0
M  V30 6460 C 740.298 1.61162 -1.21947 0
M  V30 6461 C 740.619 1.93751 0.220351 0
M  V30 6462 O 739.889 1.59069 1.14341 0
M  V30 6463 H 738.469 0.597485 -0.448353 0
M  V30 6464 H 741.131 1.03039 -1.65436 0
M  V30 6465 H 740.227 2.55138 -1.79752 0
M  V30 6466 N 740.528 1.15101 1.07655 0
M  V30 6467 C 741.438 0.858869 2.18313 0
M  V30 6468 C 742.454 -0.163641 1.73229 0
M  V30 6469 O 743.63 0.00969541 2.01398 0
M  V30 6470 C 740.695 0.34893 3.4494 0
M  V30 6471 C 739.756 1.43495 4.04608 0
M  V30 6472 C 738.989 0.949253 5.2519 0
M  V30 6473 O 739.212 -0.20636 5.70027 0
M  V30 6474 O 738.146 1.73161 5.76454 0
M  V30 6475 H 741.972 1.78386 2.45788 0
M  V30 6476 H 739.557 0.929876 1.16934 0
M  V30 6477 H 741.439 0.070851 4.2134 0
M  V30 6478 H 740.114 -0.548237 3.19024 0
M  V30 6479 H 739.021 1.7666 3.29761 0
M  V30 6480 H 740.354 2.30692 4.3479 0
M  V30 6481 N 742.006 -1.2595 0.947325 0
M  V30 6482 C 742.953 -2.26159 0.460497 0
M  V30 6483 C 743.923 -1.58919 -0.483125 0
M  V30 6484 O 745.108 -1.86603 -0.397983 0
M  V30 6485 C 742.248 -3.441 -0.26247 0
M  V30 6486 C 741.361 -4.25999 0.717539 0
M  V30 6487 C 740.496 -5.31193 -0.0272486 0
M  V30 6488 C 739.535 -6.04774 0.944177 0
M  V30 6489 N 738.672 -7.01721 0.230741 0
M  V30 6490 H 743.512 -2.67173 1.31995 0
M  V30 6491 H 741.049 -1.31358 0.662088 0
M  V30 6492 H 743.007 -4.11317 -0.698137 0
M  V30 6493 H 741.637 -3.03983 -1.08602 0
M  V30 6494 H 740.689 -3.58513 1.27171 0
M  V30 6495 H 742.001 -4.76981 1.45913 0
M  V30 6496 H 741.155 -6.04451 -0.521903 0
M  V30 6497 H 739.894 -4.81066 -0.801682 0
M  V30 6498 H 738.899 -5.30338 1.4499 0
M  V30 6499 H 740.124 -6.56991 1.71872 0
M  V30 6500 H 738.07 -6.53895 -0.525088 0
M  V30 6501 H 737.987 -7.50484 0.911556 0
M  V30 6502 H 739.255 -7.79122 -0.242616 0
M  V30 6503 N 743.484 -0.715051 -1.40445 0
M  V30 6504 C 744.732 -0.253826 -2.005 0
M  V30 6505 C 745.053 1.15681 -1.5698 0
M  V30 6506 O 744.323 1.78414 -0.809027 0
M  V30 6507 H 742.903 -0.0908537 -0.741454 0
M  V30 6508 H 745.565 -0.920561 -1.7179 0
M  V30 6509 H 744.661 -0.286499 -3.10782 0
M  V30 6510 N 744.962 1.50701 -0.461195 0
M  V30 6511 C 746.373 1.867 -0.00370227 0
M  V30 6512 C 746.724 1.37673 1.39787 0
M  V30 6513 O 745.849 0.737515 2.03445 0
M  V30 6514 C 746.444 3.388 5.75786e-05 0
M  V30 6515 C 745.003 3.74247 0.402044 0
M  V30 6516 C 744.15 2.74549 -0.389652 0
M  V30 6517 H 747.101 1.43585 -0.675942 0
M  V30 6518 H 747.122 3.719 0.804414 0
M  V30 6519 H 746.634 3.74452 -1.02015 0
M  V30 6520 H 744.735 3.44192 1.42697 0
M  V30 6521 H 744.848 4.78973 0.110265 0
M  V30 6522 H 743.212 2.54226 0.155314 0
M  V30 6523 H 743.995 3.13044 -1.40919 0
M  V30 6524 N 746.441 0.193421 1.56409 0
M  V30 6525 C 747.404 -0.714371 2.17783 0
M  V30 6526 C 748.404 -1.1422 1.13183 0
M  V30 6527 O 749.594 -1.05557 1.38576 0
M  V30 6528 C 746.726 -1.97509 2.77855 0
M  V30 6529 H 747.919 -0.179714 2.99361 0
M  V30 6530 H 745.472 -0.0561944 1.56199 0
M  V30 6531 H 746.207 -2.5523 2.0007 0
M  V30 6532 H 745.992 -1.67706 3.54425 0
M  V30 6533 H 747.482 -2.62246 3.24987 0
M  V30 6534 N 747.919 -1.57396 -0.0801906 0
M  V30 6535 C 749.167 -1.86467 -0.779384 0
M  V30 6536 C 749.488 -0.784243 -1.78535 0
M  V30 6537 O 748.758 0.187986 -1.94996 0
M  V30 6538 H 747.338 -0.68806 -0.29083 0
M  V30 6539 H 750 -1.94813 -0.0582749 0
M  V30 6540 H 749.096 -2.83701 -1.30078 0
M  V30 6541 N 749.397 0.351382 -1.53633 0
M  V30 6542 C 750.307 1.45471 -1.84052 0
M  V30 6543 C 751.323 1.57945 -0.730015 0
M  V30 6544 O 752.499 1.73571 -1.02153 0
M  V30 6545 C 749.564 2.80562 -2.03681 0
M  V30 6546 C 748.625 2.77497 -3.27558 0
M  V30 6547 C 747.858 4.06144 -3.46241 0
M  V30 6548 O 748.081 5.03028 -2.68922 0
M  V30 6549 O 747.015 4.11092 -4.39645 0
M  V30 6550 H 750.841 1.22684 -2.77817 0
M  V30 6551 H 748.426 0.542827 -1.3919 0
M  V30 6552 H 750.308 3.6058 -2.18082 0
M  V30 6553 H 748.983 3.03296 -1.13106 0
M  V30 6554 H 747.89 1.96126 -3.18568 0
M  V30 6555 H 749.223 2.59716 -4.18101 0
M  V30 6556 N 750.875 1.45233 0.611969 0
M  V30 6557 C 752.291 1.29542 0.932251 0
M  V30 6558 C 752.491 0.24523 2.00002 0
M  V30 6559 O 751.547 -0.362333 2.49887 0
M  V30 6560 C 752.86 2.67301 1.37733 0
M  V30 6561 C 754.408 2.75163 1.49178 0
M  V30 6562 C 754.883 4.13437 1.97064 0
M  V30 6563 N 756.374 4.15709 2.04304 0
M  V30 6564 C 757.109 5.19566 2.42568 0
M  V30 6565 N 756.605 6.33771 2.79832 0
M  V30 6566 N 758.398 5.06923 2.42869 0
M  V30 6567 H 750.549 2.12192 -0.0938679 0
M  V30 6568 H 752.812 0.947775 0.0206569 0
M  V30 6569 H 752.518 3.45318 0.666951 0
M  V30 6570 H 752.392 2.95472 2.3447 0
M  V30 6571 H 754.779 1.97453 2.19309 0
M  V30 6572 H 754.86 2.50712 0.507674 0
M  V30 6573 H 754.504 4.91631 1.27521 0
M  V30 6574 H 754.434 4.35277 2.9638 0
M  V30 6575 H 756.925 3.33293 1.78113 0
M  V30 6576 H 757.238 7.08815 3.07898 0
M  V30 6577 H 755.583 6.37179 2.77538 0
M  V30 6578 H 758.774 4.1675 2.1316 0
M  V30 6579 H 758.947 5.87981 2.72364 0
M  V30 6580 N 752.353 -0.854086 1.3245 0
M  V30 6581 C 753.601 -1.60513 1.228 0
M  V30 6582 C 753.922 -1.93865 -0.210073 0
M  V30 6583 O 753.192 -1.59673 -1.13496 0
M  V30 6584 H 751.772 -0.595099 0.451516 0
M  V30 6585 H 754.434 -1.0216 1.6598 0
M  V30 6586 H 753.53 -2.54182 1.81102 0
M  V30 6587 N 753.831 -1.1567 -1.07043 0
M  V30 6588 C 754.794 -0.858906 -2.12498 0
M  V30 6589 C 755.794 0.142735 -1.60165 0
M  V30 6590 O 756.984 -0.0872678 -1.73981 0
M  V30 6591 C 754.116 -0.283021 -3.39723 0
M  V30 6592 H 755.309 -1.79368 -2.40348 0
M  V30 6593 H 752.862 -0.964608 -1.22984 0
M  V30 6594 H 753.597 0.659796 -3.17517 0
M  V30 6595 H 753.382 -1.00467 -3.7901 0
M  V30 6596 H 754.872 -0.0923543 -4.17498 0
M  V30 6597 N 755.309 1.25446 -0.953992 0
M  V30 6598 C 756.72 1.75047 -0.649255 0
M  V30 6599 C 757.071 1.77527 0.835385 0
M  V30 6600 O 756.196 1.39569 1.65377 0
M  V30 6601 C 756.791 3.17889 -1.17183 0
M  V30 6602 C 755.35 3.65052 -0.917267 0
M  V30 6603 C 754.497 2.44124 -1.31525 0
M  V30 6604 H 757.448 1.11342 -1.13087 0
M  V30 6605 H 757.469 3.76768 -0.531616 0
M  V30 6606 H 756.981 3.16052 -2.25239 0
M  V30 6607 H 755.082 3.72305 0.148354 0
M  V30 6608 H 755.195 4.53222 -1.55328 0
M  V30 6609 H 753.559 2.43906 -0.733624 0
M  V30 6610 H 754.342 2.44979 -2.405 0
M  V30 6611 N 756.787 0.722489 1.40064 0
M  V30 6612 C 758.035 0.264455 2.00362 0
M  V30 6613 C 758.356 -1.14847 1.57592 0
M  V30 6614 O 757.626 -1.77982 0.818477 0
M  V30 6615 H 756.206 0.0947846 0.740962 0
M  V30 6616 H 758.868 0.929659 1.71299 0
M  V30 6617 H 757.964 0.302977 3.10626 0
M  V30 6618 N 758.265 -1.50454 0.469181 0
M  V30 6619 C 759.676 -1.86695 0.0136034 0
M  V30 6620 C 760.027 -1.38413 -1.39055 0
M  V30 6621 O 759.152 -0.748294 -2.03051 0
M  V30 6622 C 759.747 -3.38795 0.0179098 0
M  V30 6623 C 758.306 -3.74455 -0.382191 0
M  V30 6624 C 757.453 -2.74338 0.404207 0
M  V30 6625 H 760.404 -1.43225 0.683547 0
M  V30 6626 H 760.425 -3.72321 -0.78468 0
M  V30 6627 H 759.937 -3.73906 1.04 0
M  V30 6628 H 758.038 -3.44944 -1.4087 0
M  V30 6629 H 758.151 -4.79025 -0.084862 0
M  V30 6630 H 756.515 -2.54305 -0.141829 0
M  V30 6631 H 757.298 -3.12293 1.42577 0
M  V30 6632 N 759.743 -0.201713 -1.56304 0
M  V30 6633 C 760.706 0.702811 -2.18159 0
M  V30 6634 C 761.706 1.13619 -1.13787 0
M  V30 6635 O 762.896 1.0482 -1.39134 0
M  V30 6636 C 760.028 1.96032 -2.78898 0
M  V30 6637 H 761.221 0.163836 -2.99452 0
M  V30 6638 H 758.774 0.04791 -1.56227 0
M  V30 6639 H 759.509 2.54165 -2.01421 0
M  V30 6640 H 759.294 1.65824 -3.55309 0
M  V30 6641 H 760.784 2.60519 -3.26373 0
M  V30 6642 N 761.222 1.57436 0.0718424 0
M  V30 6643 C 762.47 1.86878 0.769484 0
M  V30 6644 C 762.791 0.7937 1.78116 0
M  V30 6645 O 762.061 -0.177642 1.95093 0
M  V30 6646 H 760.641 0.689593 0.287177 0
M  V30 6647 H 763.303 1.94841 0.0479427 0
M  V30 6648 H 762.399 2.84387 1.28572 0
M  V30 6649 N 762.7 -0.34323 1.53817 0
M  V30 6650 C 764.111 -0.918823 1.62525 0
M  V30 6651 C 764.462 -1.89542 0.506765 0
M  V30 6652 O 763.587 -2.13326 -0.363441 0
M  V30 6653 C 764.182 -1.67326 2.94597 0
M  V30 6654 C 762.741 -2.19786 3.05567 0
M  V30 6655 C 761.888 -1.01708 2.57974 0
M  V30 6656 H 764.839 -0.121358 1.58235 0
M  V30 6657 H 764.86 -2.53615 2.83654 0
M  V30 6658 H 764.372 -0.962223 3.75983 0
M  V30 6659 H 762.473 -2.94065 2.28816 0
M  V30 6660 H 762.586 -2.46135 4.1104 0
M  V30 6661 H 760.95 -1.39058 2.13389 0
M  V30 6662 H 761.733 -0.320671 3.41799 0
M  V30 6663 N 764.178 -1.45556 -0.604258 0
M  V30 6664 C 765.594 -1.30035 -0.925368 0
M  V30 6665 C 765.794 -0.255833 -1.99869 0
M  V30 6666 O 764.85 0.349076 -2.50075 0
M  V30 6667 C 766.163 -2.68028 -1.36314 0
M  V30 6668 C 767.711 -2.75951 -1.47717 0
M  V30 6669 C 768.186 -4.14476 -1.94868 0
M  V30 6670 N 769.677 -4.16787 -2.02097 0
M  V30 6671 C 770.412 -5.20845 -2.39809 0
M  V30 6672 N 769.908 -6.35246 -2.76467 0
M  V30 6673 N 771.701 -5.08204 -2.40177 0
M  V30 6674 H 763.852 -2.1214 0.10512 0
M  V30 6675 H 766.115 -0.947871 -0.0156303 0
M  V30 6676 H 765.821 -3.45667 -0.648628 0
M  V30 6677 H 765.695 -2.96711 -2.329 0
M  V30 6678 H 768.082 -1.98613 -2.18258 0
M  V30 6679 H 768.163 -2.50977 -0.494371 0
M  V30 6680 H 767.807 -4.923 -1.24912 0
M  V30 6681 H 767.737 -4.36843 -2.94068 0
M  V30 6682 H 770.228 -3.34233 -1.76343 0
M  V30 6683 H 770.541 -7.10438 -3.04134 0
M  V30 6684 H 768.886 -6.38642 -2.74155 0
M  V30 6685 H 772.077 -4.17874 -2.10947 0
M  V30 6686 H 772.25 -5.89417 -2.69242 0
M  V30 6687 N 765.656 0.84705 -1.32902 0
M  V30 6688 C 766.904 1.5986 -1.2365 0
M  V30 6689 C 767.225 1.93974 0.199789 0
M  V30 6690 O 766.495 1.60273 1.12648 0
M  V30 6691 H 765.075 0.592696 -0.454665 0
M  V30 6692 H 767.737 1.01278 -1.66519 0
M  V30 6693 H 766.833 2.53218 -1.82448 0
M  V30 6694 N 767.134 1.16236 1.06428 0
M  V30 6695 C 768.097 0.870163 2.1204 0
M  V30 6696 C 769.097 -0.134239 1.60239 0
M  V30 6697 O 770.287 0.0964932 1.73933 0
M  V30 6698 C 767.419 0.301033 3.39568 0
M  V30 6699 H 768.612 1.8064 2.39394 0
M  V30 6700 H 766.165 0.971116 1.2247 0
M  V30 6701 H 766.9 -0.642948 3.17863 0
M  V30 6702 H 766.685 1.02475 3.78472 0
M  V30 6703 H 768.175 0.114494 4.17443 0
M  V30 6704 N 768.612 -1.24939 0.960631 0
M  V30 6705 C 769.575 -2.239 0.49006 0
M  V30 6706 C 770.575 -1.55497 -0.409535 0
M  V30 6707 O 771.765 -1.72978 -0.205984 0
M  V30 6708 C 768.897 -3.39654 -0.291193 0
M  V30 6709 H 770.09 -2.67044 1.36482 0
M  V30 6710 H 767.643 -1.37429 0.744505 0
M  V30 6711 H 768.378 -3.01939 -1.18336 0
M  V30 6712 H 768.163 -3.90496 0.354276 0
M  V30 6713 H 769.653 -4.13125 -0.609693 0
M  V30 6714 N 770.09 -0.729906 -1.39679 0
M  V30 6715 C 771.338 -0.275077 -2.00219 0
M  V30 6716 C 771.659 1.1401 -1.58199 0
M  V30 6717 O 770.929 1.77546 -0.827904 0
M  V30 6718 H 769.509 -0.0987127 -0.740449 0
M  V30 6719 H 772.171 -0.93873 -1.70804 0
M  V30 6720 H 771.267 -0.319446 -3.10461 0
M  V30 6721 N 771.568 1.50203 -0.477153 0
M  V30 6722 C 772.478 2.32421 0.319027 0
M  V30 6723 C 773.494 1.43075 0.990233 0
M  V30 6724 O 774.67 1.76123 0.976873 0
M  V30 6725 C 771.735 3.17909 1.38328 0
M  V30 6726 C 770.796 4.23082 0.728036 0
M  V30 6727 C 770.029 5.04484 1.74158 0
M  V30 6728 O 770.252 4.8705 2.96881 0
M  V30 6729 O 769.186 5.8747 1.31006 0
M  V30 6730 H 773.012 3.01638 -0.353281 0
M  V30 6731 H 770.597 1.47478 -0.238891 0
M  V30 6732 H 772.479 3.70937 1.9996 0
M  V30 6733 H 771.154 2.51413 2.03895 0
M  V30 6734 H 770.061 3.7403 0.07261 0
M  V30 6735 H 771.394 4.92065 0.115216 0
M  V30 6736 N 773.046 0.209999 1.56195 0
M  V30 6737 C 774.457 -0.299943 1.84275 0
M  V30 6738 C 774.808 -1.60314 1.1311 0
M  V30 6739 O 773.933 -2.1273 0.396874 0
M  V30 6740 C 774.528 -0.550986 3.3429 0
M  V30 6741 C 773.087 -1.00526 3.62728 0
M  V30 6742 C 772.234 -0.0619828 2.77231 0
M  V30 6743 H 775.185 0.433458 1.52666 0
M  V30 6744 H 775.206 -1.39846 3.53869 0
M  V30 6745 H 774.718 0.397669 3.86057 0
M  V30 6746 H 772.819 -1.96768 3.16407 0
M  V30 6747 H 772.932 -0.887664 4.70805 0
M  V30 6748 H 771.296 -0.566648 2.48317 0
M  V30 6749 H 772.079 0.881383 3.31793 0
M  V30 6750 N 774.524 -1.57472 -0.0634922 0
M  V30 6751 C 775.772 -1.87283 -0.759563 0
M  V30 6752 C 776.093 -0.803135 -1.77693 0
M  V30 6753 O 775.363 0.167293 -1.95184 0
M  V30 6754 H 773.943 -0.691106 -0.283516 0
M  V30 6755 H 776.605 -1.94864 -0.0376091 0
M  V30 6756 H 775.701 -2.85064 -1.27062 0
M  V30 6757 N 776.003 0.335068 -1.53997 0
M  V30 6758 C 777.419 0.678704 -1.4445 0
M  V30 6759 C 777.619 1.92106 -0.608078 0
M  V30 6760 O 776.675 2.52292 -0.102373 0
M  V30 6761 C 777.988 0.863435 -2.88037 0
M  V30 6762 C 779.536 0.961513 -2.97866 0
M  V30 6763 C 780.011 1.1785 -4.42578 0
M  V30 6764 N 781.502 1.2455 -4.46141 0
M  V30 6765 C 782.237 1.43106 -5.55255 0
M  V30 6766 N 781.733 1.5878 -6.74359 0
M  V30 6767 N 783.526 1.45722 -5.42883 0
M  V30 6768 H 775.677 -0.481656 -2.06867 0
M  V30 6769 H 777.94 -0.153615 -0.935471 0
M  V30 6770 H 777.646 0.0219511 -3.51693 0
M  V30 6771 H 777.52 1.76268 -3.33481 0
M  V30 6772 H 779.907 1.79351 -2.34344 0
M  V30 6773 H 779.988 0.0389862 -2.5577 0
M  V30 6774 H 779.632 0.351397 -5.06683 0
M  V30 6775 H 779.562 2.11472 -4.82273 0
M  V30 6776 H 782.053 1.13928 -3.60318 0
M  V30 6777 H 782.366 1.72599 -7.53279 0
M  V30 6778 H 780.711 1.559 -6.77289 0
M  V30 6779 H 783.902 1.33065 -4.48789 0
M  V30 6780 H 784.075 1.59841 -6.27977 0
M  V30 6781 N 777.481 1.45874 0.596531 0
M  V30 6782 C 778.758 1.40942 1.35627 0
M  V30 6783 C 779.138 0.0857066 2.10926 0
M  V30 6784 O 778.486 -0.932544 2.08605 0
M  V30 6785 C 778.696 2.63027 2.29386 0
M  V30 6786 C 780.044 3.08588 2.91649 0
M  V30 6787 O 781.068 2.63478 2.39704 0
M  V30 6788 O 779.927 3.86902 3.85965 0
M  V30 6789 H 777.021 0.559838 0.608696 0
M  V30 6790 H 779.567 1.5802 0.618698 0
M  V30 6791 H 778.339 3.5094 1.7308 0
M  V30 6792 H 777.962 2.48338 3.10506 0
M  V30 6793 N 778.959 -0.83999 1.33349 0
M  V30 6794 C 780.207 -1.59202 1.24496 0
M  V30 6795 C 780.528 -1.94077 -0.189499 0
M  V30 6796 O 779.798 -1.60868 -1.11796 0
M  V30 6797 H 778.378 -0.590276 0.457802 0
M  V30 6798 H 781.04 -1.00394 1.67054 0
M  V30 6799 H 780.136 -2.52247 1.83788 0
M  V30 6800 N 780.437 -1.16799 -1.0581 0
M  V30 6801 C 781.683 -0.953935 -1.78963 0
M  V30 6802 C 782.016 0.516638 -1.87202 0
M  V30 6803 O 781.291 1.38338 -1.36721 0
M  V30 6804 C 781.574 -1.58808 -3.23191 0
M  V30 6805 C 781.427 -3.13032 -3.23003 0
M  V30 6806 C 782.746 -1.2868 -4.20867 0
M  V30 6807 H 779.865 -0.347972 -0.64968 0
M  V30 6808 H 782.507 -1.44204 -1.23715 0
M  V30 6809 H 780.657 -1.17303 -3.70368 0
M  V30 6810 H 782.329 -3.63553 -2.83949 0
M  V30 6811 H 780.572 -3.46108 -2.61518 0
M  V30 6812 H 781.243 -3.52527 -4.24769 0
M  V30 6813 H 783.719 -1.6461 -3.82155 0
M  V30 6814 H 782.595 -1.75645 -5.20038 0
M  V30 6815 H 782.856 -0.206491 -4.41618 0
M  V30 6816 N 781.915 1.24427 -0.967243 0
M  V30 6817 C 783.326 1.74349 -0.667785 0
M  V30 6818 C 783.677 1.78403 0.816509 0
M  V30 6819 O 782.802 1.41315 1.63887 0
M  V30 6820 C 783.397 3.16628 -1.20548 0
M  V30 6821 C 781.956 3.64059 -0.955934 0
M  V30 6822 C 781.103 2.42715 -1.34106 0
M  V30 6823 H 784.054 1.10136 -1.14262 0
M  V30 6824 H 784.075 3.76183 -0.571547 0
M  V30 6825 H 783.587 3.13646 -2.28578 0
M  V30 6826 H 781.688 3.72441 0.108858 0
M  V30 6827 H 781.801 4.51549 -1.60126 0
M  V30 6828 H 780.165 2.43114 -0.759452 0
M  V30 6829 H 780.948 2.42414 -2.43085 0
M  V30 6830 N 783.393 0.737304 1.3929 0
M  V30 6831 C 784.641 0.285691 2.00071 0
M  V30 6832 C 784.962 -1.13169 1.58801 0
M  V30 6833 O 784.232 -1.77104 0.837308 0
M  V30 6834 H 782.812 0.102638 0.739915 0
M  V30 6835 H 785.474 0.947775 1.70303 0
M  V30 6836 H 784.57 0.335906 3.10287 0
M  V30 6837 N 784.871 -1.49948 0.485112 0
M  V30 6838 C 786.119 -2.01996 -0.0648775 0
M  V30 6839 C 786.44 -1.36819 -1.38945 0
M  V30 6840 O 785.71 -0.518163 -1.88923 0
M  V30 6841 H 784.29 -0.746513 -0.0269662 0
M  V30 6842 H 786.952 -1.84136 0.638733 0
M  V30 6843 H 786.048 -3.11418 -0.20617 0
M  V30 6844 N 786.349 -0.21828 -1.56081 0
M  V30 6845 C 787.76 0.290166 -1.84431 0
M  V30 6846 C 788.111 1.59712 -1.13958 0
M  V30 6847 O 787.236 2.12516 -0.40815 0
M  V30 6848 C 787.831 0.53325 -3.34577 0
M  V30 6849 C 786.39 0.986011 -3.63256 0
M  V30 6850 C 785.537 0.0472798 -2.7726 0
M  V30 6851 H 788.488 -0.441548 -1.52434 0
M  V30 6852 H 788.509 1.37967 -3.54606 0
M  V30 6853 H 788.021 -0.418137 -3.85841 0
M  V30 6854 H 786.122 1.95087 -3.17446 0
M  V30 6855 H 786.235 0.862684 -4.71269 0
M  V30 6856 H 784.599 0.553471 -2.48614 0
M  V30 6857 H 785.382 -0.898966 -3.31321 0
M  V30 6858 N 787.827 1.57504 0.0551401 0
M  V30 6859 C 789.075 1.87684 0.74962 0
M  V30 6860 C 789.396 0.812547 1.77264 0
M  V30 6861 O 788.666 -0.15694 1.9527 0
M  V30 6862 H 787.246 0.6926 0.279846 0
M  V30 6863 H 789.908 1.94881 0.0272745 0
M  V30 6864 H 789.004 2.85734 1.25548 0
M  V30 6865 N 789.305 -0.326896 1.54172 0
M  V30 6866 C 790.238 -1.42591 1.78166 0
M  V30 6867 C 791.216 -1.49837 0.631484 0
M  V30 6868 O 792.4 -1.67298 0.868544 0
M  V30 6869 C 789.527 -2.8071 1.89524 0
M  V30 6870 C 788.573 -2.91012 3.11792 0
M  V30 6871 S 789.406 -2.55763 4.70474 0
M  V30 6872 C 790.562 -3.9596 4.84733 0
M  V30 6873 H 790.795 -1.22024 2.71104 0
M  V30 6874 H 788.328 -0.523539 1.45253 0
M  V30 6875 H 790.286 -3.60276 1.96753 0
M  V30 6876 H 788.947 -2.98562 0.975696 0
M  V30 6877 H 788.14 -3.92258 3.16464 0
M  V30 6878 H 787.742 -2.19414 3.02876 0
M  V30 6879 H 790.034 -4.90676 4.67166 0
M  V30 6880 H 790.977 -3.96273 5.86833 0
M  V30 6881 H 791.385 -3.8476 4.13062 0
M  V30 6882 N 790.784 -1.46188 -0.588786 0
M  V30 6883 C 792.2 -1.31009 -0.911524 0
M  V30 6884 C 792.4 -0.277017 -1.99587 0
M  V30 6885 O 791.456 0.322532 -2.50432 0
M  V30 6886 C 792.769 -2.69459 -1.33463 0
M  V30 6887 C 794.317 -2.77502 -1.44782 0
M  V30 6888 C 794.792 -4.1652 -1.90461 0
M  V30 6889 N 796.283 -4.18907 -1.97665 0
M  V30 6890 C 797.018 -5.23359 -2.34271 0
M  V30 6891 N 796.514 -6.38143 -2.69714 0
M  V30 6892 N 798.307 -5.10723 -2.34774 0
M  V30 6893 H 790.458 -2.12016 0.127614 0
M  V30 6894 H 792.721 -0.947984 -0.00557599 0
M  V30 6895 H 792.427 -3.46336 -0.611929 0
M  V30 6896 H 792.301 -2.99165 -2.2974 0
M  V30 6897 H 794.688 -2.00917 -2.1614 0
M  V30 6898 H 794.769 -2.51488 -0.467724 0
M  V30 6899 H 794.413 -4.93597 -1.19684 0
M  V30 6900 H 794.343 -4.39937 -2.89418 0
M  V30 6901 H 796.834 -3.36084 -1.72789 0
M  V30 6902 H 797.147 -7.13624 -2.96582 0
M  V30 6903 H 795.492 -6.41514 -2.67366 0
M  V30 6904 H 798.683 -4.20088 -2.06503 0
M  V30 6905 H 798.856 -5.9224 -2.62975 0
M  V30 6906 N 792.262 0.832906 -1.33792 0
M  V30 6907 C 793.51 1.58539 -1.25338 0
M  V30 6908 C 793.831 1.94175 0.179204 0
M  V30 6909 O 793.101 1.61458 1.10941 0
M  V30 6910 H 791.681 0.58784 -0.460926 0
M  V30 6911 H 794.343 0.995064 -1.67584 0
M  V30 6912 H 793.439 2.51268 -1.85123 0
M  V30 6913 N 793.74 1.17359 1.05189 0
M  V30 6914 C 794.673 0.833768 2.12423 0
M  V30 6915 C 795.651 -0.19945 1.61372 0
M  V30 6916 O 796.835 -0.080979 1.88326 0
M  V30 6917 C 793.962 0.243745 3.37822 0
M  V30 6918 C 793.008 1.25235 4.07699 0
M  V30 6919 S 793.841 2.80368 4.56239 0
M  V30 6920 C 794.997 2.22846 5.84885 0
M  V30 6921 H 795.23 1.74197 2.40921 0
M  V30 6922 H 792.763 0.998242 1.1779 0
M  V30 6923 H 794.721 -0.0901915 4.10401 0
M  V30 6924 H 793.382 -0.642396 3.07461 0
M  V30 6925 H 792.575 0.788168 4.97799 0
M  V30 6926 H 792.177 1.53194 3.41185 0
M  V30 6927 H 794.469 1.60403 6.58238 0
M  V30 6928 H 795.412 3.112 6.3605 0
M  V30 6929 H 795.82 1.66296 5.39449 0
M  V30 6930 N 795.218 -1.23913 0.973828 0
M  V30 6931 C 796.629 -1.73992 0.677021 0
M  V30 6932 C 796.98 -1.78833 -0.807036 0
M  V30 6933 O 796.105 -1.42183 -1.63135 0
M  V30 6934 C 796.7 -3.15985 1.22226 0
M  V30 6935 C 795.259 -3.63547 0.975228 0
M  V30 6936 C 794.406 -2.42001 1.35392 0
M  V30 6937 H 797.357 -1.09529 1.14844 0
M  V30 6938 H 797.378 -3.75875 0.591489 0
M  V30 6939 H 796.89 -3.12429 2.30238 0
M  V30 6940 H 794.991 -3.72493 -0.0891047 0
M  V30 6941 H 795.104 -4.50693 1.62518 0
M  V30 6942 H 793.468 -2.42708 0.772334 0
M  V30 6943 H 794.251 -2.41122 2.44367 0
M  V30 6944 N 796.696 -0.74468 -1.38897 0
M  V30 6945 C 797.944 -0.296298 -1.99916 0
M  V30 6946 C 798.265 1.12325 -1.59399 0
M  V30 6947 O 797.535 1.76658 -0.846689 0
M  V30 6948 H 796.115 -0.106561 -0.73936 0
M  V30 6949 H 798.777 -0.956793 -1.69798 0
M  V30 6950 H 797.873 -0.352356 -3.10105 0
M  V30 6951 N 798.174 1.49689 -0.493057 0
M  V30 6952 C 799.399 2.07331 0.0535114 0
M  V30 6953 C 799.824 1.35196 1.30781 0
M  V30 6954 O 799.182 0.406246 1.7669 0
M  V30 6955 C 799.23 3.59364 0.29825 0
M  V30 6956 O 798.334 3.88819 1.37454 0
M  V30 6957 H 797.675 0.663612 -0.0227018 0
M  V30 6958 H 800.205 1.926 -0.690402 0
M  V30 6959 H 800.215 4.04515 0.532159 0
M  V30 6960 H 798.89 4.1128 -0.618207 0
M  V30 6961 H 797.467 3.55487 1.12621 0
M  V30 6962 N 799.652 0.226554 1.55963 0
M  V30 6963 C 801.063 -0.280381 1.84583 0
M  V30 6964 C 801.414 -1.59105 1.14804 0
M  V30 6965 O 800.539 -2.12297 0.419414 0
M  V30 6966 C 801.134 -0.515499 3.34855 0
M  V30 6967 C 799.693 -0.966733 3.63774 0
M  V30 6968 C 798.84 -0.0325753 2.77281 0
M  V30 6969 H 801.791 0.449626 1.52197 0
M  V30 6970 H 801.812 -1.36085 3.55332 0
M  V30 6971 H 801.324 0.438594 3.85614 0
M  V30 6972 H 799.425 -1.93401 3.18476 0
M  V30 6973 H 799.538 -0.837679 4.7172 0
M  V30 6974 H 797.902 -0.540279 2.48904 0
M  V30 6975 H 798.685 0.916524 3.30839 0
M  V30 6976 N 801.13 -1.57531 -0.0467866 0
M  V30 6977 C 802.378 -1.88078 -0.739656 0
M  V30 6978 C 802.699 -0.821936 -1.76831 0
M  V30 6979 O 801.969 0.146582 -1.95351 0
M  V30 6980 H 800.549 -0.694075 -0.276169 0
M  V30 6981 H 803.211 -1.94893 -0.0169391 0
M  V30 6982 H 802.307 -2.86396 -1.24031 0
M  V30 6983 N 802.608 0.318715 -1.54344 0
M  V30 6984 C 803.856 1.054 -1.72439 0
M  V30 6985 C 804.177 1.88388 -0.503495 0
M  V30 6986 O 803.447 1.89866 0.48246 0
M  V30 6987 H 802.027 0.392124 -0.635805 0
M  V30 6988 H 804.689 0.35398 -1.91659 0
M  V30 6989 H 803.785 1.71726 -2.60608 0
M  V30 6990 N 804.086 1.46499 0.581025 0
M  V30 6991 C 805.497 1.4604 1.16315 0
M  V30 6992 C 805.848 0.202154 1.95156 0
M  V30 6993 O 804.973 -0.694638 2.04948 0
M  V30 6994 C 805.568 2.64593 2.11604 0
M  V30 6995 C 804.127 2.6717 2.65136 0
M  V30 6996 C 803.274 2.38753 1.4104 0
M  V30 6997 H 806.225 1.54354 0.368871 0
M  V30 6998 H 806.246 2.40207 2.95095 0
M  V30 6999 H 805.758 3.56154 1.54194 0
M  V30 7000 H 803.859 1.79685 3.26411 0
M  V30 7001 H 803.972 3.67182 3.07757 0
M  V30 7002 H 802.336 1.88845 1.70908 0
M  V30 7003 H 803.119 3.32493 0.854588 0
M  V30 7004 N 805.565 -0.825799 1.34232 0
M  V30 7005 C 806.813 -1.57873 1.26177 0
M  V30 7006 C 807.134 -1.94267 -0.168904 0
M  V30 7007 O 806.404 -1.62045 -1.10084 0
M  V30 7008 H 804.984 -0.585388 0.464037 0
M  V30 7009 H 807.646 -0.986163 1.6811 0
M  V30 7010 H 806.742 -2.50283 1.86453 0
M  V30 7011 N 807.043 -1.17915 -1.04565 0
M  V30 7012 C 808.268 -0.996749 -1.81878 0
M  V30 7013 C 808.693 0.450169 -1.82634 0
M  V30 7014 O 808.051 1.32268 -1.23995 0
M  V30 7015 C 808.099 -1.55005 -3.25585 0
M  V30 7016 O 807.203 -0.76804 -4.05185 0
M  V30 7017 H 806.544 -0.353456 -0.562108 0
M  V30 7018 H 809.074 -1.56557 -1.31723 0
M  V30 7019 H 809.084 -1.57503 -3.76373 0
M  V30 7020 H 807.759 -2.60327 -3.2435 0
M  V30 7021 H 806.336 -0.81498 -3.63885 0
M  V30 7022 N 808.521 1.23394 -0.980386 0
M  V30 7023 C 809.798 1.87242 -0.565667 0
M  V30 7024 C 810.178 1.88151 0.957197 0
M  V30 7025 O 809.526 1.36309 1.8339 0
M  V30 7026 C 809.736 3.28743 -1.17172 0
M  V30 7027 C 811.084 4.05335 -1.26446 0
M  V30 7028 O 812.108 3.37962 -1.12517 0
M  V30 7029 O 810.967 5.25908 -1.48604 0
M  V30 7030 H 808.061 0.80477 -0.190459 0
M  V30 7031 H 810.607 1.3127 -1.07547 0
M  V30 7032 H 809.379 3.22647 -2.21392 0
M  V30 7033 H 809.002 3.92305 -0.646739 0
M  V30 7034 N 809.999 0.752036 1.385 0
M  V30 7035 C 811.247 0.306895 1.99756 0
M  V30 7036 C 811.568 -1.11478 1.59992 0
M  V30 7037 O 810.838 -1.76206 0.856045 0
M  V30 7038 H 809.418 0.11048 0.738785 0
M  V30 7039 H 812.08 0.965785 1.69289 0
M  V30 7040 H 811.176 0.368797 3.09913 0
M  V30 7041 N 811.477 -1.49425 0.500989 0
M  V30 7042 C 812.424 -2.29126 -0.277443 0
M  V30 7043 C 813.394 -1.35522 -0.960363 0
M  V30 7044 O 814.579 -1.64479 -0.967027 0
M  V30 7045 C 811.719 -3.18193 -1.33593 0
M  V30 7046 C 810.832 -4.26854 -0.664791 0
M  V30 7047 C 809.967 -5.03137 -1.70372 0
M  V30 7048 C 809.006 -6.03635 -1.01445 0
M  V30 7049 N 808.143 -6.73083 -1.99758 0
M  V30 7050 H 812.983 -2.95187 0.408458 0
M  V30 7051 H 810.52 -1.45546 0.213275 0
M  V30 7052 H 812.478 -3.68207 -1.96161 0
M  V30 7053 H 811.108 -2.54116 -1.9906 0
M  V30 7054 H 810.16 -3.80328 0.0741708 0
M  V30 7055 H 811.472 -4.9865 -0.122197 0
M  V30 7056 H 810.626 -5.5702 -2.40445 0
M  V30 7057 H 809.365 -4.31114 -2.28017 0
M  V30 7058 H 808.37 -5.48984 -0.299496 0
M  V30 7059 H 809.595 -6.77644 -0.444497 0
M  V30 7060 H 807.541 -6.03832 -2.56365 0
M  V30 7061 H 807.458 -7.40855 -1.50565 0
M  V30 7062 H 808.726 -7.3157 -2.69119 0
M  V30 7063 N 812.955 -0.234822 -1.55841 0
M  V30 7064 C 814.366 0.270588 -1.84729 0
M  V30 7065 C 814.717 1.58494 -1.15646 0
M  V30 7066 O 813.842 2.12071 -0.430667 0
M  V30 7067 C 814.437 0.497733 -3.35124 0
M  V30 7068 C 812.996 0.947428 -3.64281 0
M  V30 7069 C 812.143 0.01787 -2.77294 0
M  V30 7070 H 815.094 -0.457691 -1.51957 0
M  V30 7071 H 815.115 1.34199 -3.56049 0
M  V30 7072 H 814.627 -0.459037 -3.85376 0
M  V30 7073 H 812.728 1.91709 -3.19497 0
M  V30 7074 H 812.841 0.812651 -4.72158 0
M  V30 7075 H 811.205 0.527071 -2.49187 0
M  V30 7076 H 811.988 -0.934056 -3.30349 0
M  V30 7077 N 814.433 1.57553 0.0384317 0
M  V30 7078 C 815.681 1.88468 0.729672 0
M  V30 7079 C 816.002 0.831302 1.76393 0
M  V30 7080 O 815.272 -0.13622 1.95426 0
M  V30 7081 H 813.852 0.695529 0.272485 0
M  V30 7082 H 816.514 1.94899 0.0066032 0
M  V30 7083 H 815.61 2.8705 1.22511 0
M  V30 7084 N 815.911 -0.310526 1.54511 0
M  V30 7085 C 817.322 -0.884142 1.64438 0
M  V30 7086 C 817.673 -1.88425 0.546855 0
M  V30 7087 O 816.798 -2.14049 -0.31811 0
M  V30 7088 C 817.393 -1.6104 2.9808 0
M  V30 7089 C 815.952 -2.13255 3.1016 0
M  V30 7090 C 815.099 -0.96213 2.60074 0
M  V30 7091 H 818.05 -0.0877666 1.58457 0
M  V30 7092 H 818.071 -2.47541 2.8897 0
M  V30 7093 H 817.583 -0.882255 3.77939 0
M  V30 7094 H 815.684 -2.89145 2.35002 0
M  V30 7095 H 815.797 -2.37361 4.16169 0
M  V30 7096 H 814.161 -1.34501 2.16291 0
M  V30 7097 H 814.944 -0.248098 3.42402 0
M  V30 7098 N 817.389 -1.46805 -0.573248 0
M  V30 7099 C 818.8 -1.46655 -1.15539 0
M  V30 7100 C 819.151 -0.2125 -1.95046 0
M  V30 7101 O 818.276 0.683759 -2.05314 0
M  V30 7102 C 818.871 -2.65711 -2.10198 0
M  V30 7103 C 817.43 -2.68572 -2.63716 0
M  V30 7104 C 816.577 -2.39498 -1.39772 0
M  V30 7105 H 819.528 -1.54547 -0.36068 0
M  V30 7106 H 819.549 -2.41768 -2.93817 0
M  V30 7107 H 819.061 -3.56967 -1.52303 0
M  V30 7108 H 817.162 -1.81414 -3.25453 0
M  V30 7109 H 817.275 -3.68809 -3.05805 0
M  V30 7110 H 815.639 -1.89749 -1.69904 0
M  V30 7111 H 816.422 -3.32942 -0.836943 0
M  V30 7112 N 818.867 0.818669 -1.34668 0
M  V30 7113 C 820.115 1.57201 -1.27013 0
M  V30 7114 C 820.436 1.94354 0.158599 0
M  V30 7115 O 819.706 1.62626 1.09223 0
M  V30 7116 H 818.286 0.582919 -0.467135 0
M  V30 7117 H 820.948 0.977234 -1.6863 0
M  V30 7118 H 820.044 2.49291 -1.87778 0
M  V30 7119 N 820.346 1.18468 1.03938 0
M  V30 7120 C 821.571 1.00638 1.81347 0
M  V30 7121 C 821.996 -0.440477 1.8287 0
M  V30 7122 O 821.354 -1.31609 1.24695 0
M  V30 7123 C 821.402 1.5673 3.24759 0
M  V30 7124 O 820.506 0.789517 4.04772 0
M  V30 7125 H 819.847 0.356432 0.560225 0
M  V30 7126 H 822.377 1.57253 1.30891 0
M  V30 7127 H 822.387 1.59496 3.75533 0
M  V30 7128 H 821.062 2.62043 3.22965 0
M  V30 7129 H 819.639 0.834267 3.63448 0
M  V30 7130 N 821.824 -1.22873 0.986916 0
M  V30 7131 C 822.756 -2.23889 0.490537 0
M  V30 7132 C 823.769 -1.57523 -0.411144 0
M  V30 7133 O 824.958 -1.7721 -0.214236 0
M  V30 7134 C 822.058 -3.37488 -0.30902 0
M  V30 7135 C 821.231 -4.33438 0.587354 0
M  V30 7136 C 820.29 -5.25958 -0.159467 0
M  V30 7137 O 819.316 -5.67394 0.453115 0
M  V30 7138 N 820.518 -5.62265 -1.44355 0
M  V30 7139 H 823.283 -2.67109 1.35914 0
M  V30 7140 H 820.844 -1.37111 0.860937 0
M  V30 7141 H 822.836 -3.96365 -0.817139 0
M  V30 7142 H 821.406 -2.934 -1.07868 0
M  V30 7143 H 820.626 -3.72969 1.27622 0
M  V30 7144 H 821.914 -4.94495 1.19801 0
M  V30 7145 H 821.312 -5.30562 -1.96266 0
M  V30 7146 H 819.869 -6.23585 -1.89698 0
M  V30 7147 N 823.302 -0.75937 -1.38099 0
M  V30 7148 C 824.55 -0.317485 -1.99591 0
M  V30 7149 C 824.871 1.10628 -1.60581 0
M  V30 7150 O 824.141 1.7575 -0.865378 0
M  V30 7151 H 822.721 -0.114397 -0.738189 0
M  V30 7152 H 825.383 -0.974749 -1.68774 0
M  V30 7153 H 824.479 -0.385227 -3.09713 0
M  V30 7154 N 824.78 1.49157 -0.508906 0
M  V30 7155 C 825.69 2.33045 0.269656 0
M  V30 7156 C 826.706 1.45143 0.959662 0
M  V30 7157 O 827.882 1.78155 0.939295 0
M  V30 7158 C 824.947 3.20772 1.31554 0
M  V30 7159 C 824.008 4.24531 0.638131 0
M  V30 7160 C 823.241 5.08065 1.63418 0
M  V30 7161 O 823.464 4.93238 2.86483 0
M  V30 7162 O 822.398 5.90117 1.18516 0
M  V30 7163 H 826.224 3.00821 -0.417183 0
M  V30 7164 H 823.809 1.46938 -0.270119 0
M  V30 7165 H 825.691 3.75095 1.92047 0
M  V30 7166 H 824.366 2.55681 1.98516 0
M  V30 7167 H 823.273 3.74099 -0.00674357 0
M  V30 7168 H 824.606 4.92199 0.0108155 0
M  V30 7169 N 826.258 0.243083 1.55714 0
M  V30 7170 C 827.483 -0.389944 2.03701 0
M  V30 7171 C 827.908 -1.51025 1.12129 0
M  V30 7172 O 827.266 -1.80944 0.11352 0
M  V30 7173 C 827.314 -0.878649 3.49731 0
M  V30 7174 O 826.418 -1.98851 3.61292 0
M  V30 7175 H 825.759 -0.0855115 0.658471 0
M  V30 7176 H 828.289 0.368023 2.01263 0
M  V30 7177 H 828.299 -1.18287 3.90477 0
M  V30 7178 H 826.974 -0.0588107 4.15858 0
M  V30 7179 H 825.551 -1.68928 3.32442 0
M  V30 7180 N 827.736 -1.57571 -0.0300757 0
M  V30 7181 C 828.984 -1.88852 -0.719666 0
M  V30 7182 C 829.305 -0.840645 -1.75949 0
M  V30 7183 O 828.575 0.125854 -1.95495 0
M  V30 7184 H 827.155 -0.696965 -0.268792 0
M  V30 7185 H 829.817 -1.949 0.00373285 0
M  V30 7186 H 828.913 -2.87695 -1.20987 0
M  V30 7187 N 829.214 0.302327 -1.54673 0
M  V30 7188 C 830.63 0.647911 -1.45857 0
M  V30 7189 C 830.83 1.90773 -0.64869 0
M  V30 7190 O 829.886 2.52018 -0.155865 0
M  V30 7191 C 831.199 0.802144 -2.89804 0
M  V30 7192 C 832.747 0.898114 -2.99838 0
M  V30 7193 C 833.222 1.08436 -4.44978 0
M  V30 7194 N 834.713 1.15059 -4.48682 0
M  V30 7195 C 835.448 1.31296 -5.58166 0
M  V30 7196 N 834.944 1.4444 -6.77576 0
M  V30 7197 N 836.737 1.34174 -5.45851 0
M  V30 7198 H 828.888 -0.525428 -2.05798 0
M  V30 7199 H 831.151 -0.173423 -0.932002 0
M  V30 7200 H 830.857 -0.0526531 -3.51661 0
M  V30 7201 H 830.731 1.69155 -3.37145 0
M  V30 7202 H 833.118 1.7434 -2.38096 0
M  V30 7203 H 833.199 -0.0152752 -2.55795 0
M  V30 7204 H 832.843 0.243843 -5.07314 0
M  V30 7205 H 832.773 2.01195 -4.8665 0
M  V30 7206 H 835.264 1.0626 -3.62653 0
M  V30 7207 H 835.577 1.56582 -7.56771 0
M  V30 7208 H 833.922 1.41499 -6.80443 0
M  V30 7209 H 837.113 1.23516 -4.5151 0
M  V30 7210 H 837.286 1.46485 -6.31226 0
M  V30 7211 N 830.692 1.47107 0.565454 0
M  V30 7212 C 832.103 1.47266 1.1476 0
M  V30 7213 C 832.454 0.222841 1.9493 0
M  V30 7214 O 831.579 -0.672862 2.05673 0
M  V30 7215 C 832.174 2.66822 2.08785 0
M  V30 7216 C 830.733 2.69967 2.62288 0
M  V30 7217 C 829.88 2.40236 1.38499 0
M  V30 7218 H 832.831 1.54736 0.352479 0
M  V30 7219 H 832.852 2.43323 2.92531 0
M  V30 7220 H 832.364 3.5777 1.50408 0
M  V30 7221 H 830.465 1.83137 3.24487 0
M  V30 7222 H 830.578 3.70426 3.03845 0
M  V30 7223 H 828.942 1.90648 1.68895 0
M  V30 7224 H 829.725 3.33381 0.819274 0
M  V30 7225 N 832.17 -0.811516 1.35101 0
M  V30 7226 C 833.418 -1.56525 1.27845 0
M  V30 7227 C 833.739 -1.94435 -0.14829 0
M  V30 7228 O 833.009 -1.63203 -1.08359 0
M  V30 7229 H 831.589 -0.580433 0.47022 0
M  V30 7230 H 834.251 -0.968277 1.69146 0
M  V30 7231 H 833.347 -2.48291 1.89097 0
M  V30 7232 N 833.648 -1.19017 -1.03309 0
M  V30 7233 C 835.059 -0.993206 -1.5809 0
M  V30 7234 C 835.41 0.45505 -1.9085 0
M  V30 7235 O 834.535 1.33372 -1.70414 0
M  V30 7236 C 835.13 -1.79661 -2.87241 0
M  V30 7237 C 833.689 -1.64377 -3.38611 0
M  V30 7238 C 832.836 -1.78628 -2.12102 0
M  V30 7239 H 835.787 -1.3345 -0.858879 0
M  V30 7240 H 835.808 -1.29019 -3.57958 0
M  V30 7241 H 835.32 -2.85061 -2.63366 0
M  V30 7242 H 833.421 -0.615447 -3.67482 0
M  V30 7243 H 833.534 -2.44651 -4.11926 0
M  V30 7244 H 831.898 -1.21648 -2.23772 0
M  V30 7245 H 832.681 -2.8548 -1.90673 0
M  V30 7246 N 835.127 1.22348 -0.993418 0
M  V30 7247 C 836.538 1.72893 -0.704616 0
M  V30 7248 C 836.889 1.80095 0.778483 0
M  V30 7249 O 836.014 1.4476 1.60853 0
M  V30 7250 C 836.609 3.14 -1.27237 0
M  V30 7251 C 835.168 3.61949 -1.03294 0
M  V30 7252 C 834.315 2.39816 -1.39225 0
M  V30 7253 H 837.266 1.07688 -1.16572 0
M  V30 7254 H 837.287 3.74886 -0.651212 0
M  V30 7255 H 836.799 3.08727 -2.3518 0
M  V30 7256 H 834.9 3.72588 0.0298329 0
M  V30 7257 H 835.013 4.48051 -1.69668 0
M  V30 7258 H 833.377 2.41448 -0.810849 0
M  V30 7259 H 834.16 2.37203 -2.48172 0
M  V30 7260 N 836.605 0.766683 1.37694 0
M  V30 7261 C 837.853 0.328065 1.9942 0
M  V30 7262 C 838.174 -1.09775 1.61166 0
M  V30 7263 O 837.444 -1.75288 0.874686 0
M  V30 7264 H 836.024 0.11831 0.737572 0
M  V30 7265 H 838.686 0.983686 1.68255 0
M  V30 7266 H 837.782 0.401647 3.09505 0
M  V30 7267 N 838.083 -1.48885 0.516809 0
M  V30 7268 C 839.494 -1.86557 0.0729921 0
M  V30 7269 C 839.845 -1.42767 -1.34581 0
M  V30 7270 O 838.97 -0.812514 -2.00567 0
M  V30 7271 C 839.565 -3.38567 0.125686 0
M  V30 7272 C 838.124 -3.75481 -0.262867 0
M  V30 7273 C 837.271 -2.72913 0.491281 0
M  V30 7274 H 840.222 -1.40978 0.728767 0
M  V30 7275 H 840.243 -3.74629 -0.665831 0
M  V30 7276 H 839.755 -3.70408 1.15842 0
M  V30 7277 H 837.856 -3.49251 -1.29824 0
M  V30 7278 H 837.969 -4.79052 0.067579 0
M  V30 7279 H 836.333 -2.54627 -0.0608525 0
M  V30 7280 H 837.116 -3.07599 1.5244 0
M  V30 7281 N 839.561 -0.251338 -1.55583 0
M  V30 7282 C 840.786 0.379136 -2.03905 0
M  V30 7283 C 841.211 1.50428 -1.12929 0
M  V30 7284 O 840.569 1.80882 -0.123114 0
M  V30 7285 C 840.617 0.86009 -3.50193 0
M  V30 7286 O 839.721 1.96932 -3.62342 0
M  V30 7287 H 839.062 0.0820183 -0.658915 0
M  V30 7288 H 841.592 -0.378692 -2.01065 0
M  V30 7289 H 841.602 1.16214 -3.91099 0
M  V30 7290 H 840.277 0.0367559 -4.15884 0
M  V30 7291 H 838.854 1.67163 -3.33333 0
M  V30 7292 N 841.039 1.57585 0.0217189 0
M  V30 7293 C 842.287 1.89231 0.709641 0
M  V30 7294 C 842.608 0.849964 1.75501 0
M  V30 7295 O 841.878 -0.115485 1.95559 0
M  V30 7296 H 840.458 0.69838 0.265092 0
M  V30 7297 H 843.12 1.94895 -0.0140688 0
M  V30 7298 H 842.216 2.88333 1.19459 0
M  V30 7299 N 842.517 -0.29412 1.54831 0
M  V30 7300 C 843.928 -0.866651 1.65366 0
M  V30 7301 C 844.279 -1.87834 0.56681 0
M  V30 7302 O 843.404 -2.14374 -0.295389 0
M  V30 7303 C 843.999 -1.57869 2.99771 0
M  V30 7304 C 842.558 -2.09954 3.12404 0
M  V30 7305 C 841.705 -0.934492 2.6108 0
M  V30 7306 H 844.656 -0.0709551 1.58541 0
M  V30 7307 H 844.677 -2.44462 2.91579 0
M  V30 7308 H 844.189 -0.84212 3.78853 0
M  V30 7309 H 842.29 -2.86637 2.38055 0
M  V30 7310 H 842.403 -2.32934 4.18663 0
M  V30 7311 H 840.767 -1.32199 2.17705 0
M  V30 7312 H 841.55 -0.211768 3.42646 0
M  V30 7313 N 843.995 -1.47404 -0.557645 0
M  V30 7314 C 845.411 -1.32913 -0.88353 0
M  V30 7315 C 845.611 -0.31929 -1.98954 0
M  V30 7316 O 844.667 0.26934 -2.51059 0
M  V30 7317 C 845.98 -2.72229 -1.27718 0
M  V30 7318 C 847.528 -2.8051 -1.38863 0
M  V30 7319 C 848.003 -4.20466 -1.81583 0
M  V30 7320 N 849.494 -4.23005 -1.88735 0
M  V30 7321 C 850.229 -5.2821 -2.23118 0
M  V30 7322 N 849.725 -6.4372 -2.56117 0
M  V30 7323 N 851.518 -5.15588 -2.23888 0
M  V30 7324 H 843.669 -2.11698 0.172557 0
M  V30 7325 H 845.932 -0.947889 0.0145334 0
M  V30 7326 H 845.638 -3.47556 -0.538329 0
M  V30 7327 H 845.512 -3.03971 -2.23342 0
M  V30 7328 H 847.899 -2.05457 -2.11829 0
M  V30 7329 H 847.98 -2.52423 -0.414274 0
M  V30 7330 H 847.624 -4.96025 -1.09187 0
M  V30 7331 H 847.554 -4.45977 -2.80021 0
M  V30 7332 H 850.045 -3.39674 -1.65621 0
M  V30 7333 H 850.358 -7.19754 -2.81378 0
M  V30 7334 H 848.703 -6.47041 -2.53698 0
M  V30 7335 H 851.894 -4.24374 -1.97546 0
M  V30 7336 H 852.067 -5.97685 -2.50353 0
M  V30 7337 N 845.473 0.80434 -1.35529 0
M  V30 7338 C 846.721 1.55845 -1.28673 0
M  V30 7339 C 847.042 1.94511 0.137976 0
M  V30 7340 O 846.312 1.63775 1.07492 0
M  V30 7341 H 844.892 0.577931 -0.473291 0
M  V30 7342 H 847.554 0.959293 -1.69657 0
M  V30 7343 H 846.65 2.47285 -1.90411 0
M  V30 7344 N 846.951 1.19563 1.02676 0
M  V30 7345 C 847.883 0.893054 2.11086 0
M  V30 7346 C 848.896 -0.115101 1.62393 0
M  V30 7347 O 850.085 0.11459 1.78132 0
M  V30 7348 C 847.185 0.315533 3.37428 0
M  V30 7349 C 846.358 1.37276 4.153 0
M  V30 7350 C 845.417 0.808398 5.19953 0
M  V30 7351 O 844.443 1.48661 5.49444 0
M  V30 7352 N 845.645 -0.387253 5.79207 0
M  V30 7353 H 848.41 1.82622 2.37633 0
M  V30 7354 H 845.971 1.09792 1.18984 0
M  V30 7355 H 847.963 -0.0759166 4.04629 0
M  V30 7356 H 846.533 -0.521961 3.08211 0
M  V30 7357 H 845.753 1.93897 3.43217 0
M  V30 7358 H 847.041 2.08509 4.64114 0
M  V30 7359 H 846.439 -0.955725 5.57568 0
M  V30 7360 H 844.996 -0.720457 6.47806 0
M  V30 7361 N 848.429 -1.21819 0.999893 0
M  V30 7362 C 849.84 -1.72517 0.713775 0
M  V30 7363 C 850.191 -1.80505 -0.768922 0
M  V30 7364 O 849.316 -1.45611 -1.60083 0
M  V30 7365 C 849.911 -3.13321 1.28901 0
M  V30 7366 C 848.47 -3.61396 1.05212 0
M  V30 7367 C 847.617 -2.39074 1.40494 0
M  V30 7368 H 850.568 -1.07068 1.17141 0
M  V30 7369 H 850.589 -3.74535 0.671084 0
M  V30 7370 H 850.101 -3.07475 2.36814 0
M  V30 7371 H 848.202 -3.72599 -0.0100732 0
M  V30 7372 H 848.315 -4.47145 1.72042 0
M  V30 7373 H 846.679 -2.41015 0.823642 0
M  V30 7374 H 847.462 -2.35884 2.49427 0
M  V30 7375 N 849.908 -0.773975 -1.37286 0
M  V30 7376 C 851.156 -0.338636 -1.99243 0
M  V30 7377 C 851.477 1.08919 -1.61746 0
M  V30 7378 O 850.747 1.74822 -0.88397 0
M  V30 7379 H 849.327 -0.12222 -0.736934 0
M  V30 7380 H 851.989 -0.992595 -1.67731 0
M  V30 7381 H 851.085 -0.418055 -3.09287 0
M  V30 7382 N 851.386 1.48609 -0.524698 0
M  V30 7383 C 852.632 2.02797 0.0113382 0
M  V30 7384 C 852.965 1.40147 1.34433 0
M  V30 7385 O 852.24 0.545368 1.86698 0
M  V30 7386 C 852.523 3.59832 0.138931 0
M  V30 7387 C 852.376 4.32971 -1.21886 0
M  V30 7388 C 853.695 4.3145 0.868265 0
M  V30 7389 H 850.814 0.736995 0.00264645 0
M  V30 7390 H 853.456 1.77388 -0.680704 0
M  V30 7391 H 851.606 3.81612 0.72834 0
M  V30 7392 H 853.278 4.22624 -1.84897 0
M  V30 7393 H 851.521 3.94597 -1.80211 0
M  V30 7394 H 852.192 5.41279 -1.08263 0
M  V30 7395 H 854.668 4.14468 0.368145 0
M  V30 7396 H 853.544 5.41025 0.926428 0
M  V30 7397 H 853.805 3.98358 1.91737 0
M  V30 7398 N 852.864 0.259585 1.55447 0
M  V30 7399 C 853.797 -0.675542 2.17972 0
M  V30 7400 C 854.775 -1.16362 1.13572 0
M  V30 7401 O 855.959 -1.23944 1.42021 0
M  V30 7402 C 853.086 -1.91952 2.79056 0
M  V30 7403 C 852.132 -1.56824 3.96621 0
M  V30 7404 S 852.965 -0.659846 5.31419 0
M  V30 7405 C 854.121 -1.91255 5.95963 0
M  V30 7406 H 854.354 -0.144236 2.9695 0
M  V30 7407 H 851.887 0.0439448 1.54337 0
M  V30 7408 H 853.845 -2.63362 3.14882 0
M  V30 7409 H 852.506 -2.42196 2 0
M  V30 7410 H 851.699 -2.49348 4.37997 0
M  V30 7411 H 851.301 -0.934472 3.62138 0
M  V30 7412 H 853.593 -2.85834 6.14252 0
M  V30 7413 H 854.536 -1.54207 6.91105 0
M  V30 7414 H 854.944 -2.07042 5.25161 0
M  V30 7415 N 854.342 -1.57594 -0.0133615 0
M  V30 7416 C 855.59 -1.89605 -0.699596 0
M  V30 7417 C 855.911 -0.85926 -1.75048 0
M  V30 7418 O 855.181 0.105112 -1.95618 0
M  V30 7419 H 853.761 -0.699776 -0.261385 0
M  V30 7420 H 856.423 -1.94885 0.0244044 0
M  V30 7421 H 855.519 -2.88962 -1.17928 0
M  V30 7422 N 855.82 0.285905 -1.54985 0
M  V30 7423 C 857.067 1.0192 -1.74982 0
M  V30 7424 C 857.395 1.86743 -0.543816 0
M  V30 7425 O 856.65 1.89874 0.473972 0
M  V30 7426 C 856.949 1.94193 -3.0004 0
M  V30 7427 C 856.615 1.25225 -4.33162 0
M  V30 7428 C 855.277 1.06149 -4.69346 0
M  V30 7429 C 857.629 0.760427 -5.15623 0
M  V30 7430 C 854.957 0.365991 -5.85557 0
M  V30 7431 C 857.309 0.0785787 -6.32551 0
M  V30 7432 C 855.973 -0.124002 -6.67385 0
M  V30 7433 H 855.243 0.372951 -0.640304 0
M  V30 7434 H 857.89 0.292652 -1.89251 0
M  V30 7435 H 856.195 2.73426 -2.80616 0
M  V30 7436 H 857.892 2.51029 -3.12707 0
M  V30 7437 H 854.482 1.41081 -4.04715 0
M  V30 7438 H 858.666 0.895466 -4.88155 0
M  V30 7439 H 853.922 0.198193 -6.11079 0
M  V30 7440 H 858.096 -0.310339 -6.95708 0
M  V30 7441 H 855.723 -0.664918 -7.57287 0
M  V30 7442 N 857.298 1.47698 0.54982 0
M  V30 7443 C 858.709 1.48474 1.13191 0
M  V30 7444 C 859.06 0.243504 1.94683 0
M  V30 7445 O 858.185 -0.651009 2.06375 0
M  V30 7446 C 858.78 2.69022 2.05944 0
M  V30 7447 C 857.339 2.72733 2.5941 0
M  V30 7448 C 856.486 2.41691 1.35944 0
M  V30 7449 H 859.437 1.55101 0.336048 0
M  V30 7450 H 859.458 2.46412 2.89934 0
M  V30 7451 H 858.97 3.59345 1.46605 0
M  V30 7452 H 857.071 1.86568 3.22526 0
M  V30 7453 H 857.184 3.73628 2.99899 0
M  V30 7454 H 855.548 1.92428 1.66864 0
M  V30 7455 H 856.331 3.34231 0.783869 0
M  V30 7456 N 858.776 -0.797141 1.35954 0
M  V30 7457 C 860.024 -1.55161 1.29497 0
M  V30 7458 C 860.345 -1.94582 -0.127659 0
M  V30 7459 O 859.615 -1.64343 -1.06622 0
M  V30 7460 H 858.195 -0.575413 0.47635 0
M  V30 7461 H 860.857 -0.950282 1.70164 0
M  V30 7462 H 859.953 -2.46272 1.9172 0
M  V30 7463 N 860.254 -1.20106 -1.0204 0
M  V30 7464 C 861.665 -1.00992 -1.57027 0
M  V30 7465 C 862.016 0.434782 -1.91322 0
M  V30 7466 O 861.141 1.31557 -1.71819 0
M  V30 7467 C 861.736 -1.82697 -2.85319 0
M  V30 7468 C 860.295 -1.67959 -3.36848 0
M  V30 7469 C 859.442 -1.80868 -2.10195 0
M  V30 7470 H 862.393 -1.34354 -0.844676 0
M  V30 7471 H 862.414 -1.32809 -3.5657 0
M  V30 7472 H 861.926 -2.87839 -2.60328 0
M  V30 7473 H 860.027 -0.654389 -3.66809 0
M  V30 7474 H 860.14 -2.49006 -4.09308 0
M  V30 7475 H 858.504 -1.24015 -2.22469 0
M  V30 7476 H 859.287 -2.87486 -1.87635 0
M  V30 7477 N 861.732 1.21287 -1.00634 0
M  V30 7478 C 862.679 2.23705 -0.567876 0
M  V30 7479 C 863.649 1.61043 0.406753 0
M  V30 7480 O 864.834 1.88289 0.308499 0
M  V30 7481 C 861.974 3.44961 0.097996 0
M  V30 7482 C 861.087 4.22091 -0.919972 0
M  V30 7483 C 860.222 5.30718 -0.226222 0
M  V30 7484 C 859.261 5.99581 -1.23165 0
M  V30 7485 N 858.398 6.99821 -0.565278 0
M  V30 7486 H 863.238 2.60571 -1.44592 0
M  V30 7487 H 860.775 1.28049 -0.724006 0
M  V30 7488 H 862.733 4.1418 0.501097 0
M  V30 7489 H 861.363 3.08818 0.939744 0
M  V30 7490 H 860.415 3.52038 -1.44131 0
M  V30 7491 H 861.727 4.69476 -1.68505 0
M  V30 7492 H 860.881 6.06253 0.232917 0
M  V30 7493 H 859.62 4.84343 0.571247 0
M  V30 7494 H 858.625 5.22816 -1.70128 0
M  V30 7495 H 859.85 6.48042 -2.03022 0
M  V30 7496 H 857.796 6.55656 0.212508 0
M  V30 7497 H 857.713 7.4528 -1.26858 0
M  V30 7498 H 858.981 7.79393 -0.129389 0
M  V30 7499 N 863.21 0.781244 1.36873 0
M  V30 7500 C 864.458 0.349198 1.9906 0
M  V30 7501 C 864.779 -1.0806 1.62321 0
M  V30 7502 O 864.049 -1.74351 0.893229 0
M  V30 7503 H 862.629 0.126126 0.736275 0
M  V30 7504 H 865.291 1.00148 1.67202 0
M  V30 7505 H 864.387 0.434451 3.09061 0
M  V30 7506 N 864.689 -1.48329 0.532571 0
M  V30 7507 C 865.637 -2.31336 -0.242133 0
M  V30 7508 C 866.631 -1.41391 -0.933006 0
M  V30 7509 O 867.837 -1.58284 -0.857096 0
M  V30 7510 H 864.212 -0.745724 -0.0969536 0
M  V30 7511 H 866.183 -2.94555 0.477504 0
M  V30 7512 C 864.932 -3.23501 -1.27446 0
M  V30 7513 H 864.255 -3.92659 -0.752261 0
M  V30 7514 H 865.695 -3.84461 -1.78789 0
M  V30 7515 C 864.154 -2.45288 -2.30944 0
M  V30 7516 O 864.684 -2.17955 -3.37429 0
M  V30 7517 N 862.89 -2.06737 -2.04226 0
M  V30 7518 H 862.437 -2.29166 -1.17647 0
M  V30 7519 H 862.395 -1.54719 -2.73696 0
M  V30 7520 N 866.167 -0.267825 -1.55308 0
M  V30 7521 C 867.444 0.402449 -1.91415 0
M  V30 7522 C 867.824 1.7428 -1.1912 0
M  V30 7523 O 867.172 2.2631 -0.315609 0
M  V30 7524 C 867.382 0.549926 -3.4464 0
M  V30 7525 C 868.73 0.836188 -4.16285 0
M  V30 7526 O 869.754 0.635009 -3.50494 0
M  V30 7527 O 868.613 1.22051 -5.32697 0
M  V30 7528 H 865.707 0.219177 -0.797427 0
M  V30 7529 H 868.253 -0.313439 -1.6678 0
M  V30 7530 H 867.025 -0.393641 -3.89315 0
M  V30 7531 H 866.648 1.31556 -3.75205 0
M  V30 7532 N 867.645 1.57599 0.00500368 0
M  V30 7533 C 868.893 1.89973 0.68953 0
M  V30 7534 C 869.214 0.868531 1.7459 0
M  V30 7535 O 868.484 -0.0947367 1.95671 0
M  V30 7536 H 867.064 0.701153 0.25767 0
M  V30 7537 H 869.726 1.94869 -0.0347392 0
M  V30 7538 H 868.822 2.89584 1.16394 0
M  V30 7539 N 869.123 -0.277682 1.55134 0
M  V30 7540 C 870.086 -1.32635 1.86924 0
M  V30 7541 C 871.086 -1.42578 0.743507 0
M  V30 7542 O 872.276 -1.4181 1.01171 0
M  V30 7543 C 869.408 -2.70832 2.07034 0
M  V30 7544 H 870.601 -1.0568 2.80663 0
M  V30 7545 H 868.154 -0.515517 1.47554 0
M  V30 7546 H 868.889 -3.02974 1.15661 0
M  V30 7547 H 868.674 -2.65001 2.88993 0
M  V30 7548 H 870.164 -3.46611 2.32918 0
M  V30 7549 N 870.601 -1.47988 -0.541979 0
M  V30 7550 C 872.012 -1.49073 -1.12402 0
M  V30 7551 C 872.363 -0.253825 -1.94551 0
M  V30 7552 O 871.488 0.640056 -2.06718 0
M  V30 7553 C 872.083 -2.7011 -2.04514 0
M  V30 7554 C 870.642 -2.74105 -2.5796 0
M  V30 7555 C 869.789 -2.42409 -1.3466 0
M  V30 7556 H 872.74 -1.55277 -0.327818 0
M  V30 7557 H 872.761 -2.47946 -2.88623 0
M  V30 7558 H 872.273 -3.60117 -1.44697 0
M  V30 7559 H 870.374 -1.88276 -3.21532 0
M  V30 7560 H 870.487 -3.75213 -2.97913 0
M  V30 7561 H 868.851 -1.9331 -1.65841 0
M  V30 7562 H 869.634 -3.34642 -0.766133 0
M  V30 7563 N 872.079 0.78992 -1.36375 0
M  V30 7564 C 873.327 1.54472 -1.30319 0
M  V30 7565 C 873.648 1.94647 0.117338 0
M  V30 7566 O 872.918 1.64906 1.05748 0
M  V30 7567 H 871.498 0.572879 -0.479394 0
M  V30 7568 H 874.16 0.941245 -1.70665 0
M  V30 7569 H 873.256 2.45252 -1.93024 0
M  V30 7570 N 873.557 1.20646 1.01402 0
M  V30 7571 C 874.504 0.957618 2.09996 0
M  V30 7572 C 875.474 -0.113115 1.65714 0
M  V30 7573 O 876.659 0.032142 1.90773 0
M  V30 7574 C 873.799 0.5186 3.41181 0
M  V30 7575 C 872.912 1.65777 3.98926 0
M  V30 7576 C 872.047 1.16881 5.18182 0
M  V30 7577 C 871.086 2.2809 5.68015 0
M  V30 7578 N 870.223 1.80392 6.7853 0
M  V30 7579 H 875.063 1.88732 2.30617 0
M  V30 7580 H 872.6 0.940703 1.13089 0
M  V30 7581 H 874.558 0.245367 4.16478 0
M  V30 7582 H 873.188 -0.3741 3.20625 0
M  V30 7583 H 872.24 2.04586 3.207 0
M  V30 7584 H 873.552 2.49507 4.31912 0
M  V30 7585 H 872.706 0.851694 6.00692 0
M  V30 7586 H 871.445 0.301434 4.86768 0
M  V30 7587 H 870.45 2.60614 4.84108 0
M  V30 7588 H 871.675 3.15308 6.01463 0
M  V30 7589 H 869.621 0.959856 6.4894 0
M  V30 7590 H 869.538 2.57701 7.10722 0
M  V30 7591 H 870.806 1.51688 7.64598 0
M  V30 7592 N 875.035 -1.20752 1.01276 0
M  V30 7593 C 875.983 -2.25432 0.572989 0
M  V30 7594 C 876.977 -1.64935 -0.386354 0
M  V30 7595 O 878.183 -1.7816 -0.256696 0
M  V30 7596 H 874.558 -0.733229 0.166972 0
M  V30 7597 H 876.529 -2.59856 1.46687 0
M  V30 7598 C 875.278 -3.47615 -0.0768249 0
M  V30 7599 H 874.601 -3.94442 0.652354 0
M  V30 7600 H 876.041 -4.22572 -0.3477 0
M  V30 7601 C 874.5 -3.1003 -1.31845 0
M  V30 7602 O 875.03 -3.21216 -2.41211 0
M  V30 7603 N 873.236 -2.64616 -1.20111 0
M  V30 7604 H 872.783 -2.55714 -0.311184 0
M  V30 7605 H 872.741 -2.39838 -2.03286 0
M  V30 7606 N 876.513 -0.788492 -1.36457 0
M  V30 7607 C 877.761 -0.359749 -1.98872 0
M  V30 7608 C 878.082 1.07197 -1.62892 0
M  V30 7609 O 877.352 1.73875 -0.902463 0
M  V30 7610 H 875.932 -0.130029 -0.735596 0
M  V30 7611 H 878.594 -1.01033 -1.66668 0
M  V30 7612 H 877.69 -0.450835 -3.08827 0
M  V30 7613 N 877.991 1.48044 -0.54043 0
M  V30 7614 C 878.901 2.33565 0.220163 0
M  V30 7615 C 879.917 1.47146 0.928659 0
M  V30 7616 O 881.093 1.80107 0.901295 0
M  V30 7617 C 878.158 3.2349 1.2472 0
M  V30 7618 C 877.219 4.25789 0.547938 0
M  V30 7619 C 876.452 5.11417 1.52605 0
M  V30 7620 O 876.675 4.99204 2.75956 0
M  V30 7621 O 875.609 5.92498 1.05972 0
M  V30 7622 H 879.435 2.99868 -0.480898 0
M  V30 7623 H 877.02 1.46332 -0.301226 0
M  V30 7624 H 878.902 3.79084 1.84047 0
M  V30 7625 H 877.577 2.59835 1.93048 0
M  V30 7626 H 876.484 3.74001 -0.0860941 0
M  V30 7627 H 877.817 4.92111 -0.0935896 0
M  V30 7628 N 879.47 0.276058 1.55163 0
M  V30 7629 C 880.886 -0.0780579 1.59409 0
M  V30 7630 C 881.086 -1.54521 1.29327 0
M  V30 7631 O 880.142 -2.29422 1.05459 0
M  V30 7632 C 881.455 0.297422 2.99225 0
M  V30 7633 C 883.003 0.244117 3.12047 0
M  V30 7634 C 883.478 0.594051 4.54131 0
M  V30 7635 N 884.969 0.54564 4.59975 0
M  V30 7636 C 885.704 0.789192 5.67943 0
M  V30 7637 N 885.2 1.09741 6.84053 0
M  V30 7638 N 886.993 0.717926 5.57496 0
M  V30 7639 H 879.144 1.23251 1.72982 0
M  V30 7640 H 881.407 0.497988 0.806667 0
M  V30 7641 H 881.113 1.31782 3.26077 0
M  V30 7642 H 880.987 -0.361286 3.75466 0
M  V30 7643 H 883.374 -0.766992 2.84958 0
M  V30 7644 H 883.455 0.937097 2.38017 0
M  V30 7645 H 883.099 1.60285 4.81945 0
M  V30 7646 H 883.029 -0.120728 5.26462 0
M  V30 7647 H 885.52 0.317334 3.76565 0
M  V30 7648 H 885.833 1.26989 7.62295 0
M  V30 7649 H 884.178 1.13519 6.85666 0
M  V30 7650 H 887.369 0.47697 4.65664 0
M  V30 7651 H 887.542 0.911118 6.41563 0
M  V30 7652 N 880.948 -1.576 0.00335426 0
M  V30 7653 C 882.196 -1.90336 -0.679446 0
M  V30 7654 C 882.517 -0.877777 -1.74127 0
M  V30 7655 O 881.787 0.0843585 -1.95718 0
M  V30 7656 H 880.367 -0.702509 -0.253948 0
M  V30 7657 H 883.029 -1.94848 0.0450731 0
M  V30 7658 H 882.125 -2.90197 -1.14857 0
M  V30 7659 N 882.426 0.269451 -1.5528 0
M  V30 7660 C 883.674 0.998604 -1.75705 0
M  V30 7661 C 883.995 1.86691 -0.563175 0
M  V30 7662 O 883.265 1.91305 0.421811 0
M  V30 7663 H 881.845 0.371698 -0.647958 0
M  V30 7664 H 884.507 0.292826 -1.92688 0
M  V30 7665 H 883.603 1.63348 -2.6594 0
M  V30 7666 N 883.904 1.48273 0.534124 0
M  V30 7667 C 885.315 1.49667 1.1161 0
M  V30 7668 C 885.666 0.264139 1.94414 0
M  V30 7669 O 884.791 -0.629084 2.07054 0
M  V30 7670 C 885.386 2.71191 2.03079 0
M  V30 7671 C 883.945 2.7547 2.56502 0
M  V30 7672 C 883.092 2.43119 1.33373 0
M  V30 7673 H 886.043 1.55449 0.319578 0
M  V30 7674 H 886.064 2.49473 2.87304 0
M  V30 7675 H 885.576 3.60879 1.42785 0
M  V30 7676 H 883.677 1.89979 3.20529 0
M  V30 7677 H 883.79 3.76787 2.95919 0
M  V30 7678 H 882.154 1.94187 1.64813 0
M  V30 7679 H 882.937 3.35044 0.748375 0
M  V30 7680 N 885.382 -0.782676 1.36792 0
M  V30 7681 C 886.63 -1.53778 1.31136 0
M  V30 7682 C 886.951 -1.94706 -0.107014 0
M  V30 7683 O 886.221 -1.65465 -1.04872 0
M  V30 7684 H 884.801 -0.570328 0.482426 0
M  V30 7685 H 887.463 -0.932181 1.71162 0
M  V30 7686 H 886.559 -2.44224 1.94321 0
M  V30 7687 N 886.86 -1.21182 -1.00761 0
M  V30 7688 C 888.108 -1.02543 -1.74153 0
M  V30 7689 C 888.429 0.442372 -1.89916 0
M  V30 7690 O 887.699 1.31927 -1.44818 0
M  V30 7691 H 886.279 -0.37644 -0.645214 0
M  V30 7692 H 888.941 -1.52446 -1.21434 0
M  V30 7693 H 888.037 -1.49122 -2.7417 0
M  V30 7694 N 888.338 1.20213 -1.01915 0
M  V30 7695 C 889.749 1.7136 -0.741131 0
M  V30 7696 C 890.1 1.81705 0.740107 0
M  V30 7697 O 889.225 1.48139 1.57746 0
M  V30 7698 C 889.82 3.11231 -1.33869 0
M  V30 7699 C 888.379 3.59677 -1.10948 0
M  V30 7700 C 887.526 2.36809 -1.4428 0
M  V30 7701 H 890.477 1.05191 -1.1883 0
M  V30 7702 H 890.498 3.7342 -0.730585 0
M  V30 7703 H 890.01 3.03669 -2.41675 0
M  V30 7704 H 888.111 3.72568 -0.0492052 0
M  V30 7705 H 888.224 4.44351 -1.79134 0
M  V30 7706 H 886.588 2.39674 -0.861881 0
M  V30 7707 H 887.371 2.31886 -2.53148 0
M  V30 7708 N 889.816 0.795718 1.36037 0
M  V30 7709 C 891.064 0.370291 1.98679 0
M  V30 7710 C 891.385 -1.06332 1.63458 0
M  V30 7711 O 890.655 -1.73394 0.911671 0
M  V30 7712 H 889.235 0.133928 0.734896 0
M  V30 7713 H 891.897 1.01915 1.6613 0
M  V30 7714 H 890.993 0.467207 3.08583 0
M  V30 7715 N 891.294 -1.47756 0.548274 0
M  V30 7716 C 892.705 -1.8636 0.112547 0
M  V30 7717 C 893.056 -1.45589 -1.31523 0
M  V30 7718 O 892.181 -0.854874 -1.98799 0
M  V30 7719 C 892.776 -3.38224 0.197473 0
M  V30 7720 C 891.335 -3.75954 -0.183163 0
M  V30 7721 C 890.482 -2.7181 0.549059 0
M  V30 7722 H 893.433 -1.394 0.758506 0
M  V30 7723 H 893.454 -3.75957 -0.586217 0
M  V30 7724 H 892.966 -3.67868 1.23673 0
M  V30 7725 H 891.067 -3.51926 -1.22387 0
M  V30 7726 H 891.18 -4.78801 0.169178 0
M  V30 7727 H 889.544 -2.54699 -0.00682862 0
M  V30 7728 H 890.327 -3.04296 1.5893 0
M  V30 7729 N 892.772 -0.284283 -1.55015 0
M  V30 7730 C 893.704 0.63258 -2.20298 0
M  V30 7731 C 894.717 1.11045 -1.1905 0
M  V30 7732 O 895.906 1.03078 -1.4573 0
M  V30 7733 C 893.006 1.87599 -2.82241 0
M  V30 7734 C 892.179 1.5434 -4.09265 0
M  V30 7735 C 891.238 2.64023 -4.55169 0
M  V30 7736 O 890.264 2.29821 -5.20741 0
M  V30 7737 N 891.466 3.94255 -4.26079 0
M  V30 7738 H 894.231 0.0737928 -2.99609 0
M  V30 7739 H 891.792 -0.105767 -1.61554 0
M  V30 7740 H 893.784 2.60289 -3.0989 0
M  V30 7741 H 892.354 2.3436 -2.06868 0
M  V30 7742 H 891.574 0.649912 -3.88806 0
M  V30 7743 H 892.862 1.29634 -4.92009 0
M  V30 7744 H 892.26 4.24859 -3.73512 0
M  V30 7745 H 890.817 4.63295 -4.58477 0
M  V30 7746 N 894.251 1.57596 -0.0117121 0
M  V30 7747 C 895.499 1.90694 0.669342 0
M  V30 7748 C 895.82 0.886999 1.73659 0
M  V30 7749 O 895.09 -0.0739779 1.9576 0
M  V30 7750 H 893.67 0.703846 0.250219 0
M  V30 7751 H 896.332 1.94821 -0.0554057 0
M  V30 7752 H 895.428 2.90802 1.13316 0
M  V30 7753 N 895.729 -0.261212 1.5542 0
M  V30 7754 C 897.14 -0.83138 1.67167 0
M  V30 7755 C 897.491 -1.8659 0.606525 0
M  V30 7756 O 896.616 -2.14953 -0.24985 0
M  V30 7757 C 897.211 -1.51475 3.03052 0
M  V30 7758 C 895.77 -2.0328 3.16787 0
M  V30 7759 C 894.917 -0.878903 2.63003 0
M  V30 7760 H 897.868 -0.0373102 1.58656 0
M  V30 7761 H 897.889 -2.38222 2.96699 0
M  V30 7762 H 897.401 -0.76157 3.80554 0
M  V30 7763 H 895.502 -2.81523 2.44082 0
M  V30 7764 H 895.615 -2.24001 4.2351 0
M  V30 7765 H 893.979 -1.27551 2.2046 0
M  V30 7766 H 894.762 -0.13904 3.43018 0
M  V30 7767 N 897.207 -1.48554 -0.526253 0
M  V30 7768 C 898.618 -1.50256 -1.10815 0
M  V30 7769 C 898.969 -0.274445 -1.94271 0
M  V30 7770 O 898.094 0.618094 -2.07385 0
M  V30 7771 C 898.689 -2.72264 -2.01638 0
M  V30 7772 C 897.248 -2.76826 -2.55038 0
M  V30 7773 C 896.395 -2.43823 -1.32081 0
M  V30 7774 H 899.346 -1.55616 -0.31133 0
M  V30 7775 H 899.367 -2.50993 -2.85977 0
M  V30 7776 H 898.879 -3.61632 -1.4087 0
M  V30 7777 H 896.98 -1.91676 -3.19517 0
M  V30 7778 H 897.093 -3.78351 -2.93917 0
M  V30 7779 H 895.457 -1.95058 -1.63781 0
M  V30 7780 H 896.24 -3.35436 -0.730596 0
M  V30 7781 N 898.685 0.775411 -1.37205 0
M  V30 7782 C 899.933 1.53081 -1.3195 0
M  V30 7783 C 900.254 1.9476 0.0966864 0
M  V30 7784 O 899.524 1.66019 1.03993 0
M  V30 7785 H 898.104 0.567762 -0.485444 0
M  V30 7786 H 900.766 0.92309 -1.71654 0
M  V30 7787 H 899.862 2.4319 -1.95614 0
M  V30 7788 N 900.163 1.21714 1.00117 0
M  V30 7789 C 901.11 0.979837 2.08968 0
M  V30 7790 C 902.08 -0.0955324 1.65825 0
M  V30 7791 O 903.265 0.0523742 1.90728 0
M  V30 7792 C 900.405 0.554758 3.40612 0
M  V30 7793 C 899.518 1.69999 3.97145 0
M  V30 7794 C 898.653 1.2237 5.16913 0
M  V30 7795 C 897.692 2.34101 5.65564 0
M  V30 7796 N 896.829 1.87579 6.76579 0
M  V30 7797 H 901.669 1.91167 2.28602 0
M  V30 7798 H 899.206 0.952645 1.12085 0
M  V30 7799 H 901.164 0.289526 4.16194 0
M  V30 7800 H 899.794 -0.340073 3.21004 0
M  V30 7801 H 898.846 2.07976 3.18512 0
M  V30 7802 H 900.158 2.54074 4.29241 0
M  V30 7803 H 899.312 0.915358 5.99755 0
M  V30 7804 H 898.051 0.353045 4.8642 0
M  V30 7805 H 897.056 2.65734 4.81316 0
M  V30 7806 H 898.281 3.21669 5.98085 0
M  V30 7807 H 896.227 1.02863 6.47885 0
M  V30 7808 H 896.144 2.65225 7.07949 0
M  V30 7809 H 897.412 1.5979 7.62947 0
M  V30 7810 N 901.641 -1.19671 1.02551 0
M  V30 7811 C 902.589 -2.24812 0.596867 0
M  V30 7812 C 903.583 -1.65336 -0.368839 0
M  V30 7813 O 904.789 -1.78422 -0.237786 0
M  V30 7814 H 901.164 -0.731417 0.174739 0
M  V30 7815 H 903.135 -2.58286 1.49435 0
M  V30 7816 C 901.884 -3.47677 -0.0399514 0
M  V30 7817 H 901.207 -3.93728 0.694153 0
M  V30 7818 H 902.647 -4.22917 -0.302861 0
M  V30 7819 C 901.106 -3.11411 -1.2855 0
M  V30 7820 O 901.636 -3.23757 -2.37791 0
M  V30 7821 N 899.842 -2.65875 -1.17297 0
M  V30 7822 H 899.389 -2.56029 -0.284045 0
M  V30 7823 H 899.347 -2.41981 -2.00731 0
M  V30 7824 N 903.119 -0.802921 -1.35613 0
M  V30 7825 C 904.367 -0.380822 -1.9848 0
M  V30 7826 C 904.688 1.05464 -1.6402 0
M  V30 7827 O 903.958 1.72908 -0.920854 0
M  V30 7828 H 902.538 -0.137824 -0.734176 0
M  V30 7829 H 905.2 -1.02795 -1.65587 0
M  V30 7830 H 904.296 -0.483565 -3.08331 0
M  V30 7831 N 904.597 1.47463 -0.556102 0
M  V30 7832 C 905.507 2.33785 0.195378 0
M  V30 7833 C 906.523 1.48123 0.913 0
M  V30 7834 O 907.699 1.81053 0.882141 0
M  V30 7835 C 904.764 3.24795 1.21282 0
M  V30 7836 C 903.825 4.26346 0.502747 0
M  V30 7837 C 903.058 5.13007 1.47172 0
M  V30 7838 O 903.281 5.02103 2.70646 0
M  V30 7839 O 902.215 5.93588 0.996814 0
M  V30 7840 H 906.041 2.99341 -0.512676 0
M  V30 7841 H 903.626 1.46004 -0.31673 0
M  V30 7842 H 905.508 3.81015 1.80016 0
M  V30 7843 H 904.183 2.61868 1.90282 0
M  V30 7844 H 903.09 3.73889 -0.125757 0
M  V30 7845 H 904.423 4.91984 -0.145779 0
M  V30 7846 N 906.075 0.2925 1.54862 0
M  V30 7847 C 907.303 -0.322113 2.04377 0
M  V30 7848 C 907.718 -1.48164 1.17016 0
M  V30 7849 O 907.075 -1.81466 0.19395 0
M  V30 7850 C 907.126 -0.786506 3.5284 0
M  V30 7851 O 906.847 0.326863 4.36879 0
M  V30 7852 C 908.348 -1.46715 4.18318 0
M  V30 7853 H 905.568 -0.0712074 0.667211 0
M  V30 7854 H 908.112 0.429657 1.99935 0
M  V30 7855 H 906.267 -1.48832 3.5767 0
M  V30 7856 H 906.681 -0.0331558 5.2449 0
M  V30 7857 H 908.155 -1.74333 5.23748 0
M  V30 7858 H 908.632 -2.40443 3.67538 0
M  V30 7859 H 909.238 -0.808735 4.1754 0
M  V30 7860 N 907.553 -1.57587 0.0200696 0
M  V30 7861 C 908.801 -1.91046 -0.65922 0
M  V30 7862 C 909.122 -0.896197 -1.73186 0
M  V30 7863 O 908.392 0.0635952 -1.95797 0
M  V30 7864 H 906.972 -0.705163 -0.246483 0
M  V30 7865 H 909.634 -1.94789 0.0657368 0
M  V30 7866 H 908.73 -2.91399 -1.11773 0
M  V30 7867 N 909.032 0.252966 -1.55557 0
M  V30 7868 C 910.443 0.822503 -1.67606 0
M  V30 7869 C 910.794 1.86265 -0.616411 0
M  V30 7870 O 909.919 2.15082 0.238447 0
M  V30 7871 C 910.514 1.49866 -3.03852 0
M  V30 7872 C 909.073 2.01597 -3.17861 0
M  V30 7873 C 908.22 0.864943 -2.63465 0
M  V30 7874 H 911.171 0.0288958 -1.58674 0
M  V30 7875 H 911.192 2.36646 -2.97958 0
M  V30 7876 H 910.704 0.741378 -3.80953 0
M  V30 7877 H 908.805 2.80224 -2.45571 0
M  V30 7878 H 908.918 2.21752 -4.24692 0
M  V30 7879 H 907.282 1.2638 -2.21134 0
M  V30 7880 H 908.065 0.120847 -3.43087 0
M  V30 7881 N 910.51 1.48831 0.518367 0
M  V30 7882 C 911.442 1.60317 1.63802 0
M  V30 7883 C 912.455 0.486771 1.55352 0
M  V30 7884 O 913.644 0.758111 1.61601 0
M  V30 7885 C 910.744 1.52771 3.02513 0
M  V30 7886 C 909.917 2.79649 3.36326 0
M  V30 7887 C 908.976 2.65396 4.54369 0
M  V30 7888 O 908.002 3.39304 4.57013 0
M  V30 7889 N 909.204 1.75784 5.53245 0
M  V30 7890 H 911.969 2.56878 1.54383 0
M  V30 7891 H 909.53 1.45701 0.705889 0
M  V30 7892 H 911.522 1.40914 3.79375 0
M  V30 7893 H 910.092 0.641381 3.05949 0
M  V30 7894 H 909.312 3.05985 2.48529 0
M  V30 7895 H 910.6 3.63799 3.55707 0
M  V30 7896 H 909.998 1.14961 5.53896 0
M  V30 7897 H 908.555 1.69859 6.29278 0
M  V30 7898 N 911.988 -0.768124 1.37614 0
M  V30 7899 C 913.236 -1.52379 1.3276 0
M  V30 7900 C 913.557 -1.94809 -0.0863564 0
M  V30 7901 O 912.827 -1.66568 -1.03112 0
M  V30 7902 H 911.407 -0.565179 0.488448 0
M  V30 7903 H 914.069 -0.913974 1.72141 0
M  V30 7904 H 913.165 -2.4215 1.96901 0
M  V30 7905 N 913.466 -1.22244 -0.994698 0
M  V30 7906 C 914.877 -1.043 -1.5485 0
M  V30 7907 C 915.228 0.394102 -1.92201 0
M  V30 7908 O 914.353 1.27883 -1.74571 0
M  V30 7909 C 914.948 -1.88708 -2.8138 0
M  V30 7910 C 913.507 -1.75067 -3.3321 0
M  V30 7911 C 912.654 -1.85286 -2.06312 0
M  V30 7912 H 915.605 -1.36115 -0.815988 0
M  V30 7913 H 915.626 -1.40342 -3.53673 0
M  V30 7914 H 915.138 -2.93296 -2.54164 0
M  V30 7915 H 913.239 -0.732047 -3.65338 0
M  V30 7916 H 913.352 -2.57632 -4.03934 0
M  V30 7917 H 911.716 -1.28706 -2.19788 0
M  V30 7918 H 912.499 -2.91401 -1.81494 0
M  V30 7919 N 914.944 1.19125 -1.03184 0
M  V30 7920 C 916.355 1.70564 -0.759264 0
M  V30 7921 C 916.706 1.8248 0.720794 0
M  V30 7922 O 915.831 1.49804 1.56166 0
M  V30 7923 C 916.426 3.09793 -1.37163 0
M  V30 7924 C 914.985 3.5848 -1.14757 0
M  V30 7925 C 914.132 2.35265 -1.46784 0
M  V30 7926 H 917.083 1.03925 -1.19939 0
M  V30 7927 H 917.104 3.72624 -0.77015 0
M  V30 7928 H 916.616 3.01088 -2.44882 0
M  V30 7929 H 914.717 3.72494 -0.0887182 0
M  V30 7930 H 914.83 4.42426 -1.83836 0
M  V30 7931 H 913.194 2.38747 -0.887254 0
M  V30 7932 H 913.977 2.29188 -2.55593 0
M  V30 7933 N 916.422 0.810101 1.35185 0
M  V30 7934 C 917.67 0.391343 1.98275 0
M  V30 7935 C 917.991 -1.04592 1.64577 0
M  V30 7936 O 917.261 -1.72417 0.93001 0
M  V30 7937 H 915.841 0.141715 0.733434 0
M  V30 7938 H 918.503 1.03672 1.6504 0
M  V30 7939 H 917.599 0.49991 3.0807 0
M  V30 7940 N 917.9 -1.47166 0.563914 0
M  V30 7941 C 919.311 -1.86231 0.132307 0
M  V30 7942 C 919.662 -1.46976 -1.29971 0
M  V30 7943 O 918.787 -0.875911 -1.97881 0
M  V30 7944 C 919.382 -3.37996 0.233335 0
M  V30 7945 C 917.941 -3.76127 -0.143278 0
M  V30 7946 C 917.088 -2.71212 0.577857 0
M  V30 7947 H 920.039 -1.38588 0.773249 0
M  V30 7948 H 920.06 -3.76558 -0.546309 0
M  V30 7949 H 919.572 -3.66535 1.27568 0
M  V30 7950 H 917.673 -3.53205 -1.18648 0
M  V30 7951 H 917.786 -4.78595 0.219952 0
M  V30 7952 H 916.15 -2.54692 0.020186 0
M  V30 7953 H 916.933 -3.02593 1.62149 0
M  V30 7954 N 919.378 -0.300708 -1.54705 0
M  V30 7955 C 920.606 0.31127 -2.04545 0
M  V30 7956 C 921.021 1.47542 -1.178 0
M  V30 7957 O 920.378 1.81361 -0.203571 0
M  V30 7958 C 920.429 0.767783 -3.53253 0
M  V30 7959 O 920.15 -0.350027 -4.36699 0
M  V30 7960 C 921.651 1.44494 -4.1909 0
M  V30 7961 H 918.871 0.067668 -0.667579 0
M  V30 7962 H 921.415 -0.440254 -1.99705 0
M  V30 7963 H 919.57 1.46933 -3.58454 0
M  V30 7964 H 919.984 0.00534038 -5.245 0
M  V30 7965 H 921.458 1.71553 -5.24665 0
M  V30 7966 H 921.935 2.3849 -3.68808 0
M  V30 7967 H 922.541 0.786581 -4.17963 0
M  V30 7968 N 920.856 1.57574 -0.0284266 0
M  V30 7969 C 922.104 1.91393 0.649079 0
M  V30 7970 C 922.425 0.905368 1.72708 0
M  V30 7971 O 921.695 -0.0532107 1.95828 0
M  V30 7972 H 920.275 0.70646 0.24274 0
M  V30 7973 H 922.937 1.94752 -0.076066 0
M  V30 7974 H 922.033 2.91988 1.10226 0
M  V30 7975 N 922.334 -0.244713 1.55689 0
M  V30 7976 C 923.745 -0.813603 1.6804 0
M  V30 7977 C 924.096 -1.85936 0.626281 0
M  V30 7978 O 923.221 -2.15206 -0.227038 0
M  V30 7979 C 923.816 -1.48252 3.04642 0
M  V30 7980 C 922.375 -1.99908 3.18926 0
M  V30 7981 C 921.522 -0.850958 2.6392 0
M  V30 7982 H 924.473 -0.0204805 1.58687 0
M  V30 7983 H 924.494 -2.35062 2.99209 0
M  V30 7984 H 924.006 -0.721164 3.81341 0
M  V30 7985 H 922.107 -2.78918 2.47054 0
M  V30 7986 H 922.22 -2.19497 4.25862 0
M  V30 7987 H 920.584 -1.25206 2.21801 0
M  V30 7988 H 921.367 -0.10265 3.43146 0
M  V30 7989 N 923.813 -1.49104 -0.510467 0
M  V30 7990 C 925.061 -1.578 -1.26268 0
M  V30 7991 C 925.382 -0.262349 -1.93227 0
M  V30 7992 O 924.652 0.717624 -1.82283 0
M  V30 7993 H 923.232 -0.581387 -0.46904 0
M  V30 7994 H 925.894 -1.85678 -0.592423 0
M  V30 7995 H 924.99 -2.36919 -2.03165 0
M  V30 7996 N 925.291 0.760815 -1.38019 0
M  V30 7997 C 926.539 1.51673 -1.33566 0
M  V30 7998 C 926.86 1.94852 0.076024 0
M  V30 7999 O 926.13 1.67112 1.02227 0
M  V30 8000 H 924.71 0.562581 -0.491438 0
M  V30 8001 H 927.372 0.904832 -1.72623 0
M  V30 8002 H 926.468 2.41102 -1.98182 0
M  V30 8003 N 926.769 1.22769 0.988202 0
M  V30 8004 C 928.046 0.9635 1.70223 0
M  V30 8005 C 928.426 -0.520102 2.04593 0
M  V30 8006 O 927.774 -1.48934 1.73295 0
M  V30 8007 C 927.984 1.86583 2.94937 0
M  V30 8008 C 929.332 2.12469 3.67616 0
M  V30 8009 O 930.356 1.84069 3.04954 0
M  V30 8010 O 929.215 2.60595 4.80367 0
M  V30 8011 H 926.309 0.362737 0.743203 0
M  V30 8012 H 928.855 1.33776 1.04412 0
M  V30 8013 H 927.627 2.86913 2.66077 0
M  V30 8014 H 927.25 1.49344 3.68486 0
M  V30 8015 N 928.247 -1.18576 1.03814 0
M  V30 8016 C 929.194 -2.2212 0.626988 0
M  V30 8017 C 930.164 -1.62064 -0.363912 0
M  V30 8018 O 931.349 -1.89041 -0.258469 0
M  V30 8019 C 928.489 -3.45099 -0.00650133 0
M  V30 8020 C 927.602 -4.19503 1.03156 0
M  V30 8021 C 926.737 -5.29932 0.366852 0
M  V30 8022 C 925.776 -5.96104 1.39018 0
M  V30 8023 N 924.913 -6.98076 0.750625 0
M  V30 8024 H 929.753 -2.56646 1.51449 0
M  V30 8025 H 927.29 -1.26084 0.757702 0
M  V30 8026 H 929.248 -4.15363 -0.391108 0
M  V30 8027 H 927.878 -3.11201 -0.857536 0
M  V30 8028 H 926.93 -3.48092 1.53414 0
M  V30 8029 H 928.242 -4.64843 1.80893 0
M  V30 8030 H 927.396 -6.06657 -0.0720979 0
M  V30 8031 H 926.135 -4.85687 -0.442631 0
M  V30 8032 H 925.14 -5.18122 1.8393 0
M  V30 8033 H 926.365 -6.42432 2.20132 0
M  V30 8034 H 924.311 -6.55989 -0.0385981 0
M  V30 8035 H 924.228 -7.41655 1.46574 0
M  V30 8036 H 925.496 -7.78776 0.335986 0
M  V30 8037 N 929.725 -0.817259 -1.34754 0
M  V30 8038 C 930.973 -0.401852 -1.98065 0
M  V30 8039 C 931.294 1.03718 -1.65129 0
M  V30 8040 O 930.564 1.71921 -0.939141 0
M  V30 8041 H 929.144 -0.145603 -0.732672 0
M  V30 8042 H 931.806 -1.04545 -1.64488 0
M  V30 8043 H 930.902 -0.516241 -3.07801 0
M  V30 8044 N 931.203 1.46865 -0.571711 0
M  V30 8045 C 932.48 1.95596 0.0132445 0
M  V30 8046 C 932.86 1.51438 1.47071 0
M  V30 8047 O 932.208 0.759917 2.15494 0
M  V30 8048 C 932.418 3.48689 -0.147335 0
M  V30 8049 C 933.766 4.24599 -0.00946329 0
M  V30 8050 O 934.79 3.5612 -0.0756112 0
M  V30 8051 O 933.649 5.46332 0.135361 0
M  V30 8052 H 930.743 0.825102 0.0560039 0
M  V30 8053 H 933.289 1.57199 -0.639256 0
M  V30 8054 H 932.061 3.73681 -1.16096 0
M  V30 8055 H 931.684 3.93887 0.542109 0
M  V30 8056 N 932.681 0.308908 1.54543 0
M  V30 8057 C 933.909 -0.300418 2.04707 0
M  V30 8058 C 934.324 -1.46915 1.18581 0
M  V30 8059 O 933.681 -1.81251 0.213186 0
M  V30 8060 C 933.732 -0.749038 3.53655 0
M  V30 8061 O 933.453 0.373181 4.36508 0
M  V30 8062 C 934.954 -1.4227 4.1985 0
M  V30 8063 H 932.174 -0.0641267 0.667929 0
M  V30 8064 H 934.718 0.450839 1.99469 0
M  V30 8065 H 932.873 -1.4503 3.59228 0
M  V30 8066 H 933.287 0.0224752 5.24495 0
M  V30 8067 H 934.761 -1.68768 5.25568 0
M  V30 8068 H 935.238 -2.36531 3.70067 0
M  V30 8069 H 935.844 -0.764404 4.18374 0
M  V30 8070 N 934.159 -1.57557 0.0367827 0
M  V30 8071 C 935.407 -1.91735 -0.63892 0
M  V30 8072 C 935.728 -0.914515 -1.72226 0
M  V30 8073 O 934.998 0.0428248 -1.95853 0
M  V30 8074 H 933.578 -0.707738 -0.23899 0
M  V30 8075 H 936.24 -1.94708 0.0863931 0
M  V30 8076 H 935.336 -2.92568 -1.08676 0
M  V30 8077 N 935.637 0.236453 -1.55816 0
M  V30 8078 C 937.048 0.80468 -1.68469 0
M  V30 8079 C 937.399 1.85601 -0.636133 0
M  V30 8080 O 936.524 2.15323 0.215622 0
M  V30 8081 C 937.119 1.46634 -3.05424 0
M  V30 8082 C 935.678 1.98214 -3.19981 0
M  V30 8083 C 934.825 0.83695 -2.64368 0
M  V30 8084 H 937.776 0.0120647 -1.58695 0
M  V30 8085 H 937.797 2.33472 -3.00451 0
M  V30 8086 H 937.309 0.700931 -3.81718 0
M  V30 8087 H 935.41 2.77604 -2.4853 0
M  V30 8088 H 935.523 2.17235 -4.2702 0
M  V30 8089 H 933.887 1.24028 -2.22462 0
M  V30 8090 H 934.67 0.084451 -3.43196 0
M  V30 8091 N 937.115 1.49373 0.502552 0
M  V30 8092 C 938.526 1.52 1.0841 0
M  V30 8093 C 938.877 0.305317 1.9381 0
M  V30 8094 O 938.002 -0.585023 2.08342 0
M  V30 8095 C 938.597 2.75437 1.97281 0
M  V30 8096 C 937.156 2.80848 2.50602 0
M  V30 8097 C 936.303 2.45894 1.28186 0
M  V30 8098 H 939.254 1.56092 0.286533 0
M  V30 8099 H 939.275 2.55511 2.81947 0
M  V30 8100 H 938.787 3.63827 1.35098 0
M  V30 8101 H 936.888 1.96735 3.16427 0
M  V30 8102 H 937.001 3.82979 2.8786 0
M  V30 8103 H 935.365 1.97639 1.60657 0
M  V30 8104 H 936.148 3.36556 0.677139 0
M  V30 8105 N 938.594 -0.753485 1.38421 0
M  V30 8106 C 939.842 -1.50962 1.34368 0
M  V30 8107 C 940.163 -1.94889 -0.0656895 0
M  V30 8108 O 939.433 -1.67652 -1.01339 0
M  V30 8109 H 938.013 -0.559967 0.494415 0
M  V30 8110 H 940.675 -0.895665 1.73101 0
M  V30 8111 H 939.771 -2.40048 1.99458 0
M  V30 8112 N 940.072 -1.23292 -0.981677 0
M  V30 8113 C 941.483 -1.05936 -1.53735 0
M  V30 8114 C 941.834 0.373695 -1.92608 0
M  V30 8115 O 940.959 1.26024 -1.75917 0
M  V30 8116 C 941.554 -1.91682 -2.79363 0
M  V30 8117 C 940.113 -1.78591 -3.31334 0
M  V30 8118 C 939.26 -1.87463 -2.04335 0
M  V30 8119 H 942.211 -1.36973 -0.801505 0
M  V30 8120 H 942.232 -1.44085 -3.52164 0
M  V30 8121 H 941.744 -2.95975 -2.51039 0
M  V30 8122 H 939.845 -0.770755 -3.64541 0
M  V30 8123 H 939.958 -2.61902 -4.01179 0
M  V30 8124 H 938.322 -1.3103 -2.18411 0
M  V30 8125 H 939.105 -2.9331 -1.78394 0
M  V30 8126 N 941.55 1.18024 -1.04442 0
M  V30 8127 C 942.482 2.21294 -0.596799 0
M  V30 8128 C 943.495 1.59305 0.33552 0
M  V30 8129 O 944.684 1.7803 0.129443 0
M  V30 8130 C 941.784 3.38578 0.147648 0
M  V30 8131 C 940.957 4.30143 -0.793484 0
M  V30 8132 C 940.016 5.2612 -0.0916561 0
M  V30 8133 O 939.042 5.64586 -0.72331 0
M  V30 8134 N 940.244 5.68512 1.17364 0
M  V30 8135 H 943.009 2.6032 -1.48504 0
M  V30 8136 H 940.57 1.32847 -0.925374 0
M  V30 8137 H 942.562 3.99812 0.627098 0
M  V30 8138 H 941.132 2.98212 0.937466 0
M  V30 8139 H 940.352 3.66456 -1.45272 0
M  V30 8140 H 941.64 4.88216 -1.43258 0
M  V30 8141 H 941.038 5.39322 1.70729 0
M  V30 8142 H 939.595 6.31925 1.5973 0
M  V30 8143 N 943.028 0.824394 1.34319 0
M  V30 8144 C 944.276 0.41235 1.97849 0
M  V30 8145 C 944.597 -1.02841 1.65677 0
M  V30 8146 O 943.867 -1.71421 0.948245 0
M  V30 8147 H 942.447 0.149486 0.73189 0
M  V30 8148 H 945.109 1.05416 1.63931 0
M  V30 8149 H 944.205 0.532557 3.07523 0
M  V30 8150 N 944.506 -1.46559 0.579492 0
M  V30 8151 C 945.436 -2.33059 -0.143437 0
M  V30 8152 C 946.417 -1.4515 -0.886868 0
M  V30 8153 O 947.602 -1.73973 -0.862961 0
M  V30 8154 C 944.732 -3.27364 -1.15973 0
M  V30 8155 C 943.686 -4.24689 -0.531348 0
M  V30 8156 C 943.012 -5.08479 -1.65388 0
M  V30 8157 C 944.312 -5.1961 0.529391 0
M  V30 8158 H 946.006 -2.93753 0.578762 0
M  V30 8159 H 943.552 -1.41256 0.279775 0
M  V30 8160 H 945.505 -3.86732 -1.67382 0
M  V30 8161 H 944.229 -2.64771 -1.91217 0
M  V30 8162 H 942.888 -3.6658 -0.0383749 0
M  V30 8163 H 942.536 -4.42273 -2.3959 0
M  V30 8164 H 942.236 -5.74387 -1.23909 0
M  V30 8165 H 943.76 -5.70709 -2.17079 0
M  V30 8166 H 945.174 -5.73212 0.100506 0
M  V30 8167 H 943.571 -5.93843 0.86432 0
M  V30 8168 H 944.641 -4.63737 1.4169 0
M  V30 8169 N 945.984 -0.3171 -1.54377 0
M  V30 8170 C 946.916 0.58571 -2.2159 0
M  V30 8171 C 947.929 1.08495 -1.21378 0
M  V30 8172 O 949.118 0.999638 -1.47883 0
M  V30 8173 C 946.218 1.8157 -2.86156 0
M  V30 8174 C 945.391 1.45625 -4.12447 0
M  V30 8175 C 944.45 2.54308 -4.60667 0
M  V30 8176 O 943.476 2.18724 -5.25498 0
M  V30 8177 N 944.678 3.85129 -4.34345 0
M  V30 8178 H 947.443 0.0102247 -2.99698 0
M  V30 8179 H 945.004 -0.140011 -1.61293 0
M  V30 8180 H 946.996 2.53657 -3.15341 0
M  V30 8181 H 945.566 2.29919 -2.11793 0
M  V30 8182 H 944.786 0.567294 -3.90097 0
M  V30 8183 H 946.074 1.19169 -4.94648 0
M  V30 8184 H 945.472 4.16841 -3.8244 0
M  V30 8185 H 944.029 4.53466 -4.68201 0
M  V30 8186 N 947.462 1.57535 -0.0451378 0
M  V30 8187 C 948.71 1.92071 0.628743 0
M  V30 8188 C 949.031 0.923635 1.71738 0
M  V30 8189 O 948.301 -0.0324376 1.95873 0
M  V30 8190 H 946.881 0.708995 0.235233 0
M  V30 8191 H 949.543 1.9466 -0.0967177 0
M  V30 8192 H 948.639 2.9314 1.07123 0
M  V30 8193 N 948.94 -0.228186 1.55939 0
M  V30 8194 C 949.87 -1.28607 1.94891 0
M  V30 8195 C 950.851 -1.49236 0.816245 0
M  V30 8196 O 952.036 -1.61531 1.07803 0
M  V30 8197 C 949.166 -2.63719 2.25986 0
M  V30 8198 C 948.12 -2.57757 3.4168 0
M  V30 8199 C 947.446 -3.96837 3.58364 0
M  V30 8200 C 948.746 -2.13116 4.76843 0
M  V30 8201 H 950.44 -0.962531 2.83506 0
M  V30 8202 H 947.986 -0.461577 1.36402 0
M  V30 8203 H 949.939 -3.37878 2.51826 0
M  V30 8204 H 948.663 -2.97747 1.34217 0
M  V30 8205 H 947.322 -1.86055 3.15878 0
M  V30 8206 H 946.97 -4.28162 2.63982 0
M  V30 8207 H 946.67 -3.93731 4.36176 0
M  V30 8208 H 948.194 -4.72668 3.86545 0
M  V30 8209 H 949.608 -2.77015 5.01932 0
M  V30 8210 H 948.005 -2.21083 5.57891 0
M  V30 8211 H 949.075 -1.08326 4.72645 0
M  V30 8212 N 950.418 -1.49637 -0.494624 0
M  V30 8213 C 951.829 -1.52573 -1.07603 0
M  V30 8214 C 952.18 -0.315591 -1.93645 0
M  V30 8215 O 951.305 0.573966 -2.08649 0
M  V30 8216 C 951.9 -2.7648 -1.95817 0
M  V30 8217 C 950.459 -2.82173 -2.49109 0
M  V30 8218 C 949.606 -2.4657 -1.2688 0
M  V30 8219 H 952.557 -1.56242 -0.278251 0
M  V30 8220 H 952.578 -2.57003 -2.80588 0
M  V30 8221 H 952.09 -3.64538 -1.33167 0
M  V30 8222 H 950.191 -1.9841 -3.15379 0
M  V30 8223 H 950.304 -3.84501 -2.85825 0
M  V30 8224 H 948.668 -1.98489 -1.59607 0
M  V30 8225 H 949.451 -3.3691 -0.659281 0
M  V30 8226 N 951.896 0.746133 -1.38819 0
M  V30 8227 C 953.144 1.50247 -1.35167 0
M  V30 8228 C 953.465 1.94921 0.0553531 0
M  V30 8229 O 952.735 1.68187 1.00449 0
M  V30 8230 H 951.315 0.557337 -0.497377 0
M  V30 8231 H 953.977 0.886472 -1.73573 0
M  V30 8232 H 953.073 2.38986 -2.00728 0
M  V30 8233 N 953.375 1.23811 0.975125 0
M  V30 8234 C 954.603 1.10019 1.75224 0
M  V30 8235 C 955.018 -0.34791 1.85567 0
M  V30 8236 O 954.375 -1.24043 1.33864 0
M  V30 8237 C 954.426 1.72572 3.1765 0
M  V30 8238 O 954.147 3.11719 3.07836 0
M  V30 8239 C 955.648 1.64292 4.11732 0
M  V30 8240 H 952.868 0.38476 0.549728 0
M  V30 8241 H 955.412 1.63768 1.22476 0
M  V30 8242 H 953.567 1.22843 3.67408 0
M  V30 8243 H 953.981 3.42152 3.97533 0
M  V30 8244 H 955.455 2.12754 5.09352 0
M  V30 8245 H 955.932 0.602722 4.35045 0
M  V30 8246 H 956.538 2.13411 3.6788 0
M  V30 8247 N 954.853 -1.17469 1.05066 0
M  V30 8248 C 956.101 -1.87327 0.758485 0
M  V30 8249 C 956.422 -1.81358 -0.716549 0
M  V30 8250 O 955.692 -1.23868 -1.51768 0
M  V30 8251 H 954.272 -0.693512 0.277579 0
M  V30 8252 H 956.934 -1.4251 1.32954 0
M  V30 8253 H 956.03 -2.93101 1.0723 0
M  V30 8254 N 956.331 -0.831506 -1.3388 0
M  V30 8255 C 957.579 -0.422837 -1.97627 0
M  V30 8256 C 957.9 1.01961 -1.6622 0
M  V30 8257 O 957.17 1.70916 -0.957323 0
M  V30 8258 H 955.75 -0.153365 -0.731087 0
M  V30 8259 H 958.412 -1.06284 -1.6337 0
M  V30 8260 H 957.508 -0.548858 -3.07236 0
M  V30 8261 N 957.809 1.4625 -0.587256 0
M  V30 8262 C 959.22 1.85997 -0.161918 0
M  V30 8263 C 959.571 1.49025 1.27616 0
M  V30 8264 O 958.696 0.907282 1.96462 0
M  V30 8265 C 959.291 3.37582 -0.287077 0
M  V30 8266 C 957.85 3.76308 0.0834211 0
M  V30 8267 C 956.997 2.70259 -0.620932 0
M  V30 8268 H 959.948 1.3734 -0.795199 0
M  V30 8269 H 959.969 3.77379 0.486333 0
M  V30 8270 H 959.481 3.64459 -1.33383 0
M  V30 8271 H 957.582 3.55047 1.13013 0
M  V30 8272 H 957.695 4.78184 -0.296064 0
M  V30 8273 H 956.059 2.54628 -0.0607027 0
M  V30 8274 H 956.842 2.99975 -1.66942 0
M  V30 8275 N 959.287 0.325282 1.54207 0
M  V30 8276 C 960.698 -0.162426 1.85992 0
M  V30 8277 C 961.049 -1.51482 1.2469 0
M  V30 8278 O 960.174 -2.092 0.553578 0
M  V30 8279 C 960.769 -0.3015 3.37456 0
M  V30 8280 C 959.328 -0.73343 3.69185 0
M  V30 8281 C 958.475 0.143831 2.76927 0
M  V30 8282 H 961.426 0.545508 1.4903 0
M  V30 8283 H 961.447 -1.13212 3.63268 0
M  V30 8284 H 960.959 0.682942 3.82044 0
M  V30 8285 H 959.06 -1.72755 3.30131 0
M  V30 8286 H 959.173 -0.535987 4.76092 0
M  V30 8287 H 957.537 -0.380892 2.51836 0
M  V30 8288 H 958.32 1.12507 3.24341 0
M  V30 8289 N 960.765 -1.57509 0.0534917 0
M  V30 8290 C 962.013 -1.92402 -0.618548 0
M  V30 8291 C 962.334 -0.93273 -1.71246 0
M  V30 8292 O 961.604 0.0220495 -1.95888 0
M  V30 8293 H 960.184 -0.710233 -0.23147 0
M  V30 8294 H 962.846 -1.94606 0.10704 0
M  V30 8295 H 961.942 -2.93704 -1.05566 0
M  V30 8296 N 962.243 0.219913 -1.56058 0
M  V30 8297 C 963.153 1.29349 -1.95719 0
M  V30 8298 C 964.169 1.5119 -0.861248 0
M  V30 8299 O 965.345 1.64289 -1.16495 0
M  V30 8300 C 962.41 2.6229 -2.26726 0
M  V30 8301 C 961.471 2.48738 -3.49897 0
M  V30 8302 C 960.704 3.75339 -3.79416 0
M  V30 8303 O 960.927 4.78427 -3.10586 0
M  V30 8304 O 959.861 3.72352 -4.72903 0
M  V30 8305 H 963.687 0.986979 -2.87215 0
M  V30 8306 H 961.272 0.42291 -1.43289 0
M  V30 8307 H 963.154 3.408 -2.47857 0
M  V30 8308 H 961.829 2.92619 -1.38404 0
M  V30 8309 H 960.736 1.68422 -3.34043 0
M  V30 8310 H 962.069 2.23347 -4.38608 0
M  V30 8311 N 963.721 1.49897 0.486681 0
M  V30 8312 C 964.669 1.68125 1.60738 0
M  V30 8313 C 965.663 0.547097 1.60322 0
M  V30 8314 O 966.869 0.727153 1.64659 0
M  V30 8315 H 963.244 0.530391 0.533094 0
M  V30 8316 H 965.215 2.62165 1.42521 0
M  V30 8317 C 963.964 1.77827 2.98786 0
M  V30 8318 H 963.287 2.6448 2.99818 0
M  V30 8319 H 964.727 1.94611 3.76699 0
M  V30 8320 C 963.186 0.526287 3.32764 0
M  V30 8321 O 963.716 -0.341607 4.00245 0
M  V30 8322 N 961.922 0.384947 2.88039 0
M  V30 8323 H 961.469 1.09222 2.33299 0
M  V30 8324 H 961.427 -0.451618 3.11139 0
M  V30 8325 N 965.199 -0.738761 1.39212 0
M  V30 8326 C 966.447 -1.49529 1.35962 0
M  V30 8327 C 966.768 -1.94948 -0.0450152 0
M  V30 8328 O 966.038 -1.68717 -0.995552 0
M  V30 8329 H 964.618 -0.554692 0.500326 0
M  V30 8330 H 967.28 -0.877255 1.74041 0
M  V30 8331 H 966.376 -2.37919 2.01993 0
M  V30 8332 N 966.677 -1.24326 -0.968545 0
M  V30 8333 C 967.624 -1.0349 -2.06297 0
M  V30 8334 C 968.594 0.0515333 -1.6602 0
M  V30 8335 O 969.779 -0.102924 -1.90522 0
M  V30 8336 C 966.919 -0.64487 -3.39021 0
M  V30 8337 C 966.032 -1.80469 -3.92498 0
M  V30 8338 C 965.167 -1.36032 -5.13487 0
M  V30 8339 C 964.206 -2.49014 -5.59159 0
M  V30 8340 N 963.343 -2.05451 -6.71367 0
M  V30 8341 H 968.183 -1.97161 -2.23454 0
M  V30 8342 H 965.72 -0.982028 -1.0952 0
M  V30 8343 H 967.678 -0.399771 -4.1528 0
M  V30 8344 H 966.308 0.254845 -3.21792 0
M  V30 8345 H 965.36 -2.16348 -3.12886 0
M  V30 8346 H 966.672 -2.65365 -4.22354 0
M  V30 8347 H 965.826 -1.07405 -5.97117 0
M  V30 8348 H 964.565 -0.481887 -4.85313 0
M  V30 8349 H 963.57 -2.78402 -4.74102 0
M  V30 8350 H 964.795 -3.37413 -5.89346 0
M  V30 8351 H 962.741 -1.20004 -6.4493 0
M  V30 8352 H 962.658 -2.83901 -7.00668 0
M  V30 8353 H 963.926 -1.79962 -7.58442 0
M  V30 8354 N 968.156 1.1691 -1.05688 0
M  V30 8355 C 969.567 1.68915 -0.795273 0
M  V30 8356 C 969.918 1.83968 0.681925 0
M  V30 8357 O 969.043 1.53083 1.52953 0
M  V30 8358 C 969.638 3.06814 -1.43703 0
M  V30 8359 C 968.197 3.55965 -1.22335 0
M  V30 8360 C 967.344 2.32099 -1.51741 0
M  V30 8361 H 970.295 1.01357 -1.22116 0
M  V30 8362 H 970.316 3.70907 -0.849016 0
M  V30 8363 H 969.828 2.95826 -2.51214 0
M  V30 8364 H 967.929 3.72222 -0.16771 0
M  V30 8365 H 968.042 4.38427 -1.9318 0
M  V30 8366 H 966.406 2.36811 -0.937696 0
M  V30 8367 H 967.189 2.23715 -2.60397 0
M  V30 8368 N 969.634 0.838594 1.33437 0
M  V30 8369 C 970.882 0.433312 1.974 0
M  V30 8370 C 971.203 -1.01078 1.66758 0
M  V30 8371 O 970.473 -1.70406 0.966373 0
M  V30 8372 H 969.053 0.15724 0.730263 0
M  V30 8373 H 971.715 1.07149 1.62804 0
M  V30 8374 H 970.811 0.565144 3.06941 0
M  V30 8375 N 971.112 -1.45937 0.595003 0
M  V30 8376 C 972.022 -2.34221 -0.133325 0
M  V30 8377 C 973.038 -1.50491 -0.873407 0
M  V30 8378 O 974.214 -1.83328 -0.833828 0
M  V30 8379 C 971.279 -3.27896 -1.12628 0
M  V30 8380 C 970.34 -4.27529 -0.389532 0
M  V30 8381 C 969.573 -5.16729 -1.33519 0
M  V30 8382 O 969.796 -5.09102 -2.57238 0
M  V30 8383 O 968.73 -5.96023 -0.839084 0
M  V30 8384 H 972.556 -2.97877 0.591861 0
M  V30 8385 H 970.141 -1.45113 0.355329 0
M  V30 8386 H 972.023 -3.85654 -1.69851 0
M  V30 8387 H 970.698 -2.6682 -1.83272 0
M  V30 8388 H 969.605 -3.73424 0.224843 0
M  V30 8389 H 970.938 -4.91425 0.276169 0
M  V30 8390 N 972.59 -0.333456 -1.54032 0
M  V30 8391 C 974.001 0.15256 -1.86076 0
M  V30 8392 C 974.352 1.50819 -1.25492 0
M  V30 8393 O 973.477 2.08903 -0.564665 0
M  V30 8394 C 974.072 0.283599 -3.37611 0
M  V30 8395 C 972.631 0.713841 -3.69569 0
M  V30 8396 C 971.778 -0.158515 -2.76847 0
M  V30 8397 H 974.729 -0.553404 -1.48738 0
M  V30 8398 H 974.75 1.11284 -3.63863 0
M  V30 8399 H 974.262 -0.703193 -3.81676 0
M  V30 8400 H 972.363 1.71002 -3.31042 0
M  V30 8401 H 972.476 0.510731 -4.7637 0
M  V30 8402 H 970.84 0.367531 -2.52034 0
M  V30 8403 H 971.623 -1.14226 -3.2374 0
M  V30 8404 N 974.068 1.57479 -0.061844 0
M  V30 8405 C 975.316 1.92727 0.608336 0
M  V30 8406 C 975.637 0.941799 1.70749 0
M  V30 8407 O 974.907 -0.0116608 1.95897 0
M  V30 8408 H 973.487 0.71145 0.2277 0
M  V30 8409 H 976.149 1.94546 -0.117359 0
M  V30 8410 H 975.245 2.9426 1.04007 0
M  V30 8411 N 975.546 -0.211634 1.56173 0
M  V30 8412 C 976.957 -0.777776 1.69728 0
M  V30 8413 C 977.308 -1.84566 0.66558 0
M  V30 8414 O 976.433 -2.15639 -0.181338 0
M  V30 8415 C 977.028 -1.41757 3.07718 0
M  V30 8416 C 975.587 -1.93098 3.23094 0
M  V30 8417 C 974.734 -0.794785 2.65666 0
M  V30 8418 H 977.685 0.0131839 1.58695 0
M  V30 8419 H 977.706 -2.28662 3.04128 0
M  V30 8420 H 977.218 -0.640114 3.82785 0
M  V30 8421 H 975.319 -2.73615 2.52914 0
M  V30 8422 H 975.432 -2.10414 4.30422 0
M  V30 8423 H 973.796 -1.20473 2.24407 0
M  V30 8424 H 974.579 -0.0298408 3.43287 0
M  V30 8425 N 977.024 -1.50153 -0.478725 0
M  V30 8426 C 977.971 -1.68458 -1.57767 0
M  V30 8427 C 978.941 -0.5259 -1.57555 0
M  V30 8428 O 980.126 -0.755574 -1.75202 0
M  V30 8429 C 977.266 -1.77772 -2.95789 0
M  V30 8430 C 976.379 -3.05092 -3.05848 0
M  V30 8431 C 975.514 -3.05247 -4.34739 0
M  V30 8432 C 974.553 -4.27053 -4.38512 0
M  V30 8433 N 973.69 -4.24991 -5.58862 0
M  V30 8434 H 978.53 -2.62282 -1.41464 0
M  V30 8435 H 976.067 -1.30023 -0.687921 0
M  V30 8436 H 978.025 -1.81152 -3.75819 0
M  V30 8437 H 976.655 -0.873944 -3.10744 0
M  V30 8438 H 975.707 -3.11219 -2.1874 0
M  V30 8439 H 977.019 -3.95075 -3.04495 0
M  V30 8440 H 976.173 -3.07314 -5.23109 0
M  V30 8441 H 974.912 -2.13081 -4.38689 0
M  V30 8442 H 973.917 -4.25206 -3.4854 0
M  V30 8443 H 975.142 -5.20437 -4.36259 0
M  V30 8444 H 973.088 -3.35674 -5.63612 0
M  V30 8445 H 973.005 -5.08734 -5.59219 0
M  V30 8446 H 974.273 -4.31193 -6.49379 0
M  V30 8447 N 978.502 0.731368 -1.39602 0
M  V30 8448 C 979.75 1.48805 -1.36753 0
M  V30 8449 C 980.071 1.94969 0.034676 0
M  V30 8450 O 979.341 1.69243 0.986591 0
M  V30 8451 H 977.921 0.55203 -0.503261 0
M  V30 8452 H 980.583 0.868013 -1.74504 0
M  V30 8453 H 979.679 2.36844 -2.03252 0
M  V30 8454 N 979.98 1.24838 0.961938 0
M  V30 8455 C 981.257 0.99939 1.68141 0
M  V30 8456 C 981.637 -0.476588 2.0565 0
M  V30 8457 O 980.985 -1.45224 1.76415 0
M  V30 8458 C 981.195 1.92797 2.90913 0
M  V30 8459 C 982.543 2.20219 3.63027 0
M  V30 8460 O 983.567 1.90496 3.00981 0
M  V30 8461 O 982.426 2.70725 4.74731 0
M  V30 8462 H 979.52 0.37842 0.735342 0
M  V30 8463 H 982.066 1.35961 1.01551 0
M  V30 8464 H 980.838 2.92492 2.59931 0
M  V30 8465 H 980.461 1.57127 3.65235 0
M  V30 8466 N 981.458 -1.16348 1.06306 0
M  V30 8467 C 982.421 -2.18941 0.678053 0
M  V30 8468 C 983.421 -1.58409 -0.276277 0
M  V30 8469 O 984.611 -1.74101 -0.0586435 0
M  V30 8470 C 981.743 -3.409 -0.00228684 0
M  V30 8471 H 982.936 -2.54516 1.58624 0
M  V30 8472 H 980.489 -1.30625 0.858298 0
M  V30 8473 H 981.224 -3.10881 -0.923212 0
M  V30 8474 H 981.009 -3.86089 0.683949 0
M  V30 8475 H 982.499 -4.16806 -0.257374 0
M  V30 8476 N 982.937 -0.845659 -1.3299 0
M  V30 8477 C 984.185 -0.443774 -1.97168 0
M  V30 8478 C 984.506 1.00192 -1.67292 0
M  V30 8479 O 983.776 1.69891 -0.975397 0
M  V30 8480 H 982.356 -0.161111 -0.729419 0
M  V30 8481 H 985.018 -1.08011 -1.62233 0
M  V30 8482 H 984.114 -0.581414 -3.06637 0
M  V30 8483 N 984.415 1.45619 -0.602734 0
M  V30 8484 C 985.378 2.28941 0.108962 0
M  V30 8485 C 986.378 1.39501 0.799762 0
M  V30 8486 O 987.568 1.61673 0.648663 0
M  V30 8487 C 984.7 3.204 1.16432 0
M  V30 8488 H 985.893 2.93346 -0.623534 0
M  V30 8489 H 983.446 1.52061 -0.361565 0
M  V30 8490 H 984.181 2.60785 1.92774 0
M  V30 8491 H 983.966 3.86277 0.673248 0
M  V30 8492 H 985.456 3.83063 1.6629 0
M  V30 8493 N 985.893 0.34162 1.53853 0
M  V30 8494 C 987.304 -0.14269 1.86154 0
M  V30 8495 C 987.655 -1.50151 1.2629 0
M  V30 8496 O 986.78 -2.08601 0.575735 0
M  V30 8497 C 987.375 -0.265691 3.37757 0
M  V30 8498 C 985.934 -0.694231 3.69942 0
M  V30 8499 C 985.081 0.173195 2.76759 0
M  V30 8500 H 988.032 0.561284 1.48443 0
M  V30 8501 H 988.053 -1.09352 3.64448 0
M  V30 8502 H 987.565 0.723424 3.81298 0
M  V30 8503 H 985.666 -1.69244 3.31945 0
M  V30 8504 H 985.779 -0.485461 4.76634 0
M  V30 8505 H 984.143 -0.35416 2.52226 0
M  V30 8506 H 984.926 1.15941 3.23129 0
M  V30 8507 N 987.371 -1.57444 0.0701946 0
M  V30 8508 C 988.619 -1.93047 -0.598106 0
M  V30 8509 C 988.94 -0.950841 -1.70247 0
M  V30 8510 O 988.21 0.00127177 -1.959 0
M  V30 8511 H 986.79 -0.712648 -0.223924 0
M  V30 8512 H 989.452 -1.94481 0.127674 0
M  V30 8513 H 988.548 -2.94807 -1.02445 0
M  V30 8514 N 988.849 0.203349 -1.56283 0
M  V30 8515 C 989.812 1.23566 -1.93039 0
M  V30 8516 C 990.812 1.38869 -0.810687 0
M  V30 8517 O 992.002 1.36822 -1.07821 0
M  V30 8518 C 989.134 2.60645 -2.1972 0
M  V30 8519 H 990.327 0.921692 -2.85385 0
M  V30 8520 H 987.88 0.44453 -1.49845 0
M  V30 8521 H 988.615 2.9711 -1.29985 0
M  V30 8522 H 988.4 2.50911 -3.01307 0
M  V30 8523 H 989.89 3.35103 -2.4919 0
M  V30 8524 N 990.327 1.50405 0.470755 0
M  V30 8525 C 991.738 1.54266 1.05162 0
M  V30 8526 C 992.089 0.346359 1.93119 0
M  V30 8527 O 991.214 -0.540699 2.09536 0
M  V30 8528 C 991.809 2.7956 1.91394 0
M  V30 8529 C 990.368 2.86101 2.44588 0
M  V30 8530 C 989.515 2.48557 1.22941 0
M  V30 8531 H 992.466 1.56665 0.253359 0
M  V30 8532 H 992.487 2.61434 2.76464 0
M  V30 8533 H 991.999 3.66611 1.27351 0
M  V30 8534 H 990.1 2.03403 3.12183 0
M  V30 8535 H 990.213 3.88999 2.79672 0
M  V30 8536 H 988.577 2.01003 1.56429 0
M  V30 8537 H 989.36 3.37916 0.605598 0
M  V30 8538 N 991.805 -0.723954 1.39988 0
M  V30 8539 C 993.053 -1.48078 1.3754 0
M  V30 8540 C 993.374 -1.94985 -0.0243358 0
M  V30 8541 O 992.644 -1.69764 -0.977602 0
M  V30 8542 H 991.224 -0.549354 0.506181 0
M  V30 8543 H 993.886 -0.858746 1.74962 0
M  V30 8544 H 992.982 -2.35763 2.04505 0
M  V30 8545 N 993.283 -1.25346 -0.955304 0
M  V30 8546 C 994.531 -1.09837 -1.69647 0
M  V30 8547 C 994.852 0.361425 -1.91621 0
M  V30 8548 O 994.122 1.25666 -1.50283 0
M  V30 8549 H 992.702 -0.403467 -0.628668 0
M  V30 8550 H 995.364 -1.57459 -1.14859 0
M  V30 8551 H 994.46 -1.60616 -2.67598 0
M  V30 8552 N 994.761 1.15782 -1.06922 0
M  V30 8553 C 995.708 2.2038 -0.685659 0
M  V30 8554 C 996.678 1.62972 0.320816 0
M  V30 8555 O 997.863 1.8966 0.208258 0
M  V30 8556 C 995.003 3.44995 -0.084998 0
M  V30 8557 C 994.116 4.16621 -1.14242 0
M  V30 8558 C 993.251 5.28773 -0.507226 0
M  V30 8559 C 992.29 5.92209 -1.54774 0
M  V30 8560 N 991.427 6.9584 -0.935443 0
M  V30 8561 H 996.267 2.5254 -1.58201 0
M  V30 8562 H 993.804 1.24031 -0.790864 0
M  V30 8563 H 995.762 4.16254 0.280845 0
M  V30 8564 H 994.392 3.13365 0.774725 0
M  V30 8565 H 993.444 3.43903 -1.62589 0
M  V30 8566 H 994.756 4.59884 -1.93154 0
M  V30 8567 H 993.91 6.06635 -0.0887719 0
M  V30 8568 H 992.649 4.8669 0.313704 0
M  V30 8569 H 991.654 5.13063 -1.97602 0
M  V30 8570 H 992.879 6.3637 -2.37088 0
M  V30 8571 H 990.825 6.5586 -0.135339 0
M  V30 8572 H 990.742 7.37508 -1.66186 0
M  V30 8573 H 992.01 7.77611 -0.542346 0
M  V30 8574 N 996.239 0.8527 1.3254 0
M  V30 8575 C 997.487 0.454224 1.96929 0
M  V30 8576 C 997.808 -0.993034 1.67821 0
M  V30 8577 O 997.078 -1.69371 0.984393 0
M  V30 8578 H 995.658 0.164977 0.728554 0
M  V30 8579 H 998.32 1.0887 1.61658 0
M  V30 8580 H 997.416 0.597667 3.06324 0
M  V30 8581 N 997.718 -1.45297 0.610449 0
M  V30 8582 C 998.995 -1.95562 0.0386189 0
M  V30 8583 C 999.375 -1.55284 -1.43004 0
M  V30 8584 O 998.723 -0.816785 -2.13403 0
M  V30 8585 C 998.933 -3.48176 0.239731 0
M  V30 8586 C 1000.28 -4.24425 0.122035 0
M  V30 8587 O 1001.3 -3.55794 0.170003 0
M  V30 8588 O 1000.16 -5.46499 0.00953695 0
M  V30 8589 H 997.258 -0.826296 -0.0341081 0
M  V30 8590 H 999.804 -1.55449 0.68071 0
M  V30 8591 H 998.576 -3.70471 1.25963 0
M  V30 8592 H 998.199 -3.95186 -0.437486 0
M  V30 8593 N 999.196 -0.349774 -1.5367 0
M  V30 8594 C 1000.16 0.491676 -2.23864 0
M  V30 8595 C 1001.16 1.02256 -1.24098 0
M  V30 8596 O 1002.35 0.910816 -1.48492 0
M  V30 8597 C 999.481 1.68557 -2.96313 0
M  V30 8598 H 1000.67 -0.12233 -2.9965 0
M  V30 8599 H 998.227 -0.101214 -1.55972 0
M  V30 8600 H 998.962 2.3381 -2.2473 0
M  V30 8601 H 998.747 1.31203 -3.69497 0
M  V30 8602 H 1000.24 2.28225 -3.49718 0
M  V30 8603 N 1000.67 1.57404 -0.0785433 0
M  V30 8604 C 1001.92 1.93361 0.58786 0
M  V30 8605 C 1002.24 0.959856 1.6974 0
M  V30 8606 O 1001.51 0.0091173 1.95898 0
M  V30 8607 H 1000.09 0.713825 0.220141 0
M  V30 8608 H 1002.75 1.94411 -0.137986 0
M  V30 8609 H 1001.85 2.95346 1.00881 0
M  V30 8610 N 1002.15 -0.195058 1.56388 0
M  V30 8611 C 1003.11 -1.2254 1.93692 0
M  V30 8612 C 1004.11 -1.38437 0.81804 0
M  V30 8613 O 1005.3 -1.36248 1.08545 0
M  V30 8614 C 1002.44 -2.59476 2.21099 0
M  V30 8615 H 1003.63 -0.906544 2.8587 0
M  V30 8616 H 1001.18 -0.436577 1.50079 0
M  V30 8617 H 1001.92 -2.96417 1.31558 0
M  V30 8618 H 1001.7 -2.4931 3.02634 0
M  V30 8619 H 1003.19 -3.33777 2.50964 0
M  V30 8620 N 1003.63 -1.50653 -0.462772 0
M  V30 8621 C 1005.04 -1.54821 -1.04342 0
M  V30 8622 C 1005.39 -0.356595 -1.92932 0
M  V30 8623 O 1004.52 0.529579 -2.0982 0
M  V30 8624 C 1005.11 -2.80571 -1.89909 0
M  V30 8625 C 1003.67 -2.87394 -2.43067 0
M  V30 8626 C 1002.82 -2.49206 -1.21621 0
M  V30 8627 H 1005.77 -1.56797 -0.245048 0
M  V30 8628 H 1005.79 -2.62897 -2.75074 0
M  V30 8629 H 1005.3 -3.67281 -1.25405 0
M  V30 8630 H 1003.4 -2.05055 -3.111 0
M  V30 8631 H 1003.52 -3.90477 -2.77605 0
M  V30 8632 H 1001.88 -2.01829 -1.55361 0
M  V30 8633 H 1002.66 -3.38233 -0.587669 0
M  V30 8634 N 1005.11 0.71652 -1.4037 0
M  V30 8635 C 1006.36 1.47347 -1.38324 0
M  V30 8636 C 1006.68 1.94995 0.0139949 0
M  V30 8637 O 1005.95 1.7028 0.968585 0
M  V30 8638 H 1004.53 0.546662 -0.509087 0
M  V30 8639 H 1007.19 0.849455 -1.75415 0
M  V30 8640 H 1006.29 2.34675 -2.05752 0
M  V30 8641 N 1006.59 1.25851 0.948643 0
M  V30 8642 C 1007.5 1.08516 2.07994 0
M  V30 8643 C 1008.51 0.0206696 1.73988 0
M  V30 8644 O 1009.69 0.222854 2.00163 0
M  V30 8645 C 1006.75 0.712145 3.39307 0
M  V30 8646 C 1005.81 1.85523 3.87143 0
M  V30 8647 C 1005.05 1.49992 5.1219 0
M  V30 8648 O 1005.27 0.398268 5.69008 0
M  V30 8649 O 1004.2 2.33215 5.54882 0
M  V30 8650 H 1008.03 2.03405 2.25522 0
M  V30 8651 H 1005.62 1.04844 1.06433 0
M  V30 8652 H 1007.5 0.516512 4.18223 0
M  V30 8653 H 1006.17 -0.207416 3.23035 0
M  V30 8654 H 1005.08 2.10578 3.09205 0
M  V30 8655 H 1006.41 2.75425 4.07924 0
M  V30 8656 N 1008.06 -1.15214 1.07534 0
M  V30 8657 C 1009.48 -1.38031 0.801228 0
M  V30 8658 C 1009.68 -1.92556 -0.593672 0
M  V30 8659 O 1008.74 -2.1325 -1.35206 0
M  V30 8660 C 1010.05 -2.34958 1.87657 0
M  V30 8661 C 1011.6 -2.48617 1.90154 0
M  V30 8662 C 1012.07 -3.48837 2.96777 0
M  V30 8663 N 1013.56 -3.56374 2.95892 0
M  V30 8664 C 1014.3 -4.33746 3.75036 0
M  V30 8665 N 1013.79 -5.14435 4.64036 0
M  V30 8666 N 1015.59 -4.28853 3.63375 0
M  V30 8667 H 1007.74 -0.781639 1.97495 0
M  V30 8668 H 1010 -0.406243 0.856546 0
M  V30 8669 H 1009.71 -2.02013 2.87895 0
M  V30 8670 H 1009.58 -3.3476 1.73827 0
M  V30 8671 H 1011.97 -2.80859 0.905666 0
M  V30 8672 H 1012.05 -1.48808 2.08062 0
M  V30 8673 H 1011.69 -3.1733 3.96565 0
M  V30 8674 H 1011.62 -4.48406 2.76116 0
M  V30 8675 H 1014.11 -2.98784 2.31379 0
M  V30 8676 H 1014.43 -5.70722 5.21053 0
M  V30 8677 H 1012.77 -5.13734 4.68084 0
M  V30 8678 H 1015.96 -3.64882 2.93221 0
M  V30 8679 H 1016.14 -4.88903 4.25298 0
M  V30 8680 N 1009.54 -0.859717 -1.32086 0
M  V30 8681 C 1010.79 -0.464662 -1.96686 0
M  V30 8682 C 1011.11 0.98412 -1.68345 0
M  V30 8683 O 1010.38 1.68847 -0.993361 0
M  V30 8684 H 1008.96 -0.168838 -0.727669 0
M  V30 8685 H 1011.62 -1.09726 -1.61079 0
M  V30 8686 H 1010.72 -0.613904 -3.06003 0
M  V30 8687 N 1011.02 1.44971 -0.618145 0
M  V30 8688 C 1012.43 1.85611 -0.201334 0
M  V30 8689 C 1012.78 1.51698 1.24427 0
M  V30 8690 O 1011.91 0.94875 1.94493 0
M  V30 8691 C 1012.5 3.36897 -0.358619 0
M  V30 8692 C 1011.06 3.764 0.00358196 0
M  V30 8693 C 1010.21 2.68881 -0.678118 0
M  V30 8694 H 1013.16 1.35622 -0.824152 0
M  V30 8695 H 1013.18 3.78326 0.406176 0
M  V30 8696 H 1012.69 3.61548 -1.41084 0
M  V30 8697 H 1010.79 3.57365 1.05457 0
M  V30 8698 H 1010.91 4.77449 -0.397427 0
M  V30 8699 H 1009.27 2.54442 -0.114699 0
M  V30 8700 H 1010.05 2.96367 -1.73268 0
M  V30 8701 N 1012.5 0.357919 1.53482 0
M  V30 8702 C 1013.91 -0.122938 1.86295 0
M  V30 8703 C 1014.26 -1.48803 1.27875 0
M  V30 8704 O 1013.39 -2.07978 0.597828 0
M  V30 8705 C 1013.98 -0.229853 3.38019 0
M  V30 8706 C 1012.54 -0.654955 3.70658 0
M  V30 8707 C 1011.69 0.202539 2.76559 0
M  V30 8708 H 1014.64 0.576997 1.47839 0
M  V30 8709 H 1014.66 -1.05481 3.65587 0
M  V30 8710 H 1014.17 0.763825 3.80509 0
M  V30 8711 H 1012.27 -1.65714 3.33721 0
M  V30 8712 H 1012.38 -0.43488 4.77122 0
M  V30 8713 H 1010.75 -0.327388 2.52587 0
M  V30 8714 H 1011.53 1.19361 3.21882 0
M  V30 8715 N 1013.98 -1.5736 0.0868897 0
M  V30 8716 C 1015.22 -1.9367 -0.577598 0
M  V30 8717 C 1015.55 -0.968844 -1.69229 0
M  V30 8718 O 1014.82 -0.0195061 -1.9589 0
M  V30 8719 H 1013.4 -0.714983 -0.216353 0
M  V30 8720 H 1016.06 -1.94335 0.148294 0
M  V30 8721 H 1015.15 -2.95877 -0.993128 0
M  V30 8722 N 1015.45 0.186762 -1.56489 0
M  V30 8723 C 1016.38 1.23395 -1.98232 0
M  V30 8724 C 1017.37 1.4702 -0.855526 0
M  V30 8725 O 1018.55 1.58616 -1.12048 0
M  V30 8726 C 1015.68 2.57635 -2.32898 0
M  V30 8727 C 1014.63 2.48607 -3.48394 0
M  V30 8728 C 1013.96 3.87196 -3.68759 0
M  V30 8729 C 1015.26 2.00398 -4.82325 0
M  V30 8730 H 1016.95 0.887026 -2.85958 0
M  V30 8731 H 1014.5 0.42525 -1.37578 0
M  V30 8732 H 1016.45 3.31082 -2.60696 0
M  V30 8733 H 1015.18 2.94084 -1.42064 0
M  V30 8734 H 1013.84 1.77615 -3.207 0
M  V30 8735 H 1013.48 4.21012 -2.75241 0
M  V30 8736 H 1013.18 3.82029 -4.46462 0
M  V30 8737 H 1014.71 4.62253 -3.98941 0
M  V30 8738 H 1016.12 2.6361 -5.091 0
M  V30 8739 H 1014.52 2.06214 -5.63556 0
M  V30 8740 H 1015.59 0.957562 -4.75351 0
M  V30 8741 N 1016.93 1.50896 0.454776 0
M  V30 8742 C 1017.9 1.70377 1.53312 0
M  V30 8743 C 1018.9 0.57408 1.50203 0
M  V30 8744 O 1020.09 0.841374 1.52534 0
M  V30 8745 C 1017.22 1.74411 2.92905 0
M  V30 8746 H 1018.41 2.66599 1.37349 0
M  V30 8747 H 1015.96 1.40622 0.68228 0
M  V30 8748 H 1016.7 0.799408 3.14293 0
M  V30 8749 H 1016.48 2.56496 2.96568 0
M  V30 8750 H 1017.97 1.91382 3.71164 0
M  V30 8751 N 1018.41 -0.709066 1.40748 0
M  V30 8752 C 1019.66 -1.46611 1.39103 0
M  V30 8753 C 1019.98 -1.95 -0.00365366 0
M  V30 8754 O 1019.25 -1.70791 -0.959541 0
M  V30 8755 H 1017.83 -0.543954 0.511979 0
M  V30 8756 H 1020.49 -0.840141 1.75863 0
M  V30 8757 H 1019.59 -2.33581 2.06994 0
M  V30 8758 N 1019.89 -1.26353 -0.941956 0
M  V30 8759 C 1020.85 -1.07904 -2.02211 0
M  V30 8760 C 1021.85 -0.0276283 -1.60776 0
M  V30 8761 O 1023.04 -0.270965 -1.7208 0
M  V30 8762 C 1020.17 -0.641084 -3.34818 0
M  V30 8763 H 1021.37 -2.03804 -2.20009 0
M  V30 8764 H 1018.92 -1.08939 -1.12081 0
M  V30 8765 H 1019.66 0.319943 -3.22718 0
M  V30 8766 H 1019.44 -1.40027 -3.66244 0
M  V30 8767 H 1020.93 -0.533826 -4.14174 0
M  V30 8768 N 1021.37 1.14642 -1.08144 0
M  V30 8769 C 1022.78 1.6719 -0.830923 0
M  V30 8770 C 1023.13 1.85373 0.642749 0
M  V30 8771 O 1022.25 1.56293 1.49671 0
M  V30 8772 C 1022.85 3.03697 -1.50179 0
M  V30 8773 C 1021.41 3.5329 -1.29858 0
M  V30 8774 C 1020.56 2.28828 -1.5663 0
M  V30 8775 H 1023.51 0.987441 -1.24239 0
M  V30 8776 H 1023.53 3.69023 -0.9275 0
M  V30 8777 H 1023.04 2.90431 -2.57432 0
M  V30 8778 H 1021.14 3.71783 -0.246626 0
M  V30 8779 H 1021.25 4.34231 -2.02436 0
M  V30 8780 H 1019.62 2.34769 -0.987716 0
M  V30 8781 H 1020.4 2.18141 -2.65084 0
M  V30 8782 N 1022.85 0.866709 1.31628 0
M  V30 8783 C 1024.09 0.475086 1.96437 0
M  V30 8784 C 1024.41 -0.975179 1.68865 0
M  V30 8785 O 1023.68 -1.68317 1.0023 0
M  V30 8786 H 1022.26 0.172695 0.726764 0
M  V30 8787 H 1024.93 1.10578 1.60494 0
M  V30 8788 H 1024.02 0.630123 3.05673 0
M  V30 8789 N 1024.32 -1.44642 0.625825 0
M  V30 8790 C 1025.25 -2.33397 -0.0692188 0
M  V30 8791 C 1026.23 -1.47898 -0.840241 0
M  V30 8792 O 1027.42 -1.7663 -0.807176 0
M  V30 8793 C 1024.55 -3.30888 -1.055 0
M  V30 8794 C 1023.5 -4.26164 -0.395968 0
M  V30 8795 C 1022.83 -5.13483 -1.49128 0
M  V30 8796 C 1024.13 -5.17663 0.694433 0
M  V30 8797 H 1025.82 -2.91763 0.671925 0
M  V30 8798 H 1023.37 -1.40294 0.324573 0
M  V30 8799 H 1025.32 -3.91861 -1.54993 0
M  V30 8800 H 1024.05 -2.7072 -1.82696 0
M  V30 8801 H 1022.71 -3.66516 0.0782691 0
M  V30 8802 H 1022.35 -4.49672 -2.25399 0
M  V30 8803 H 1022.05 -5.78038 -1.05573 0
M  V30 8804 H 1023.58 -5.77327 -1.98813 0
M  V30 8805 H 1024.99 -5.72602 0.282818 0
M  V30 8806 H 1023.39 -5.90793 1.05281 0
M  V30 8807 H 1024.46 -4.58994 1.56372 0
M  V30 8808 N 1025.8 -0.366053 -1.5329 0
M  V30 8809 C 1027.22 -0.0150149 -1.59593 0
M  V30 8810 C 1027.42 1.46719 -1.38116 0
M  V30 8811 O 1026.47 2.22884 -1.18656 0
M  V30 8812 C 1027.79 -0.471374 -2.96982 0
M  V30 8813 C 1029.33 -0.425634 -3.10092 0
M  V30 8814 C 1029.81 -0.857812 -4.49895 0
M  V30 8815 N 1031.3 -0.81289 -4.56011 0
M  V30 8816 C 1032.04 -1.11898 -5.62376 0
M  V30 8817 N 1031.53 -1.49436 -6.76491 0
M  V30 8818 N 1033.32 -1.04174 -5.52362 0
M  V30 8819 H 1025.48 -1.33127 -1.65502 0
M  V30 8820 H 1027.74 -0.544172 -0.776261 0
M  V30 8821 H 1027.44 -1.50569 -3.1784 0
M  V30 8822 H 1027.32 0.141764 -3.76934 0
M  V30 8823 H 1029.71 0.599548 -2.88945 0
M  V30 8824 H 1029.79 -1.07427 -2.32149 0
M  V30 8825 H 1029.43 -1.88111 -4.7178 0
M  V30 8826 H 1029.36 -0.186419 -5.2627 0
M  V30 8827 H 1031.85 -0.536343 -3.74075 0
M  V30 8828 H 1032.16 -1.71217 -7.53594 0
M  V30 8829 H 1030.51 -1.53302 -6.77882 0
M  V30 8830 H 1033.7 -0.747654 -4.62091 0
M  V30 8831 H 1033.87 -1.28362 -6.35159 0
M  V30 8832 N 1027.28 1.57312 -0.0952337 0
M  V30 8833 C 1028.53 1.93974 0.567319 0
M  V30 8834 C 1028.85 0.977805 1.68713 0
M  V30 8835 O 1028.12 0.0298944 1.95877 0
M  V30 8836 H 1026.7 0.71612 0.212558 0
M  V30 8837 H 1029.36 1.94254 -0.158598 0
M  V30 8838 H 1028.46 2.964 0.977423 0
M  V30 8839 N 1028.76 -0.17846 1.56586 0
M  V30 8840 C 1030.01 -0.894464 1.81228 0
M  V30 8841 C 1030.33 -1.83089 0.671062 0
M  V30 8842 O 1029.6 -1.93439 -0.309557 0
M  V30 8843 H 1028.18 -0.333288 0.668527 0
M  V30 8844 H 1030.84 -0.179986 1.94067 0
M  V30 8845 H 1029.93 -1.47565 2.75011 0
M  V30 8846 N 1030.24 -1.51135 -0.446768 0
M  V30 8847 C 1031.2 -1.71187 -1.52406 0
M  V30 8848 C 1032.2 -0.582037 -1.49897 0
M  V30 8849 O 1033.39 -0.849452 -1.52085 0
M  V30 8850 C 1030.52 -1.75962 -2.91976 0
M  V30 8851 H 1031.71 -2.67324 -1.35934 0
M  V30 8852 H 1029.27 -1.40982 -0.674813 0
M  V30 8853 H 1030 -0.816065 -3.13864 0
M  V30 8854 H 1029.79 -2.58065 -2.95203 0
M  V30 8855 H 1031.28 -1.93347 -3.70144 0
M  V30 8856 N 1031.71 0.701592 -1.41122 0
M  V30 8857 C 1032.96 1.45871 -1.39879 0
M  V30 8858 C 1033.28 1.94999 -0.00668769 0
M  V30 8859 O 1032.55 1.71298 0.95047 0
M  V30 8860 H 1031.13 0.541231 -0.514857 0
M  V30 8861 H 1033.79 0.830803 -1.76306 0
M  V30 8862 H 1032.89 2.32479 -2.0823 0
M  V30 8863 N 1033.19 1.2685 0.935242 0
M  V30 8864 C 1034.6 1.11569 1.49697 0
M  V30 8865 C 1034.95 -0.301952 1.93863 0
M  V30 8866 O 1034.08 -1.19408 1.80473 0
M  V30 8867 C 1034.67 2.01918 2.72056 0
M  V30 8868 C 1033.23 1.90765 3.24477 0
M  V30 8869 C 1032.38 1.94918 1.97237 0
M  V30 8870 H 1035.33 1.39853 0.750116 0
M  V30 8871 H 1035.35 1.57056 3.46574 0
M  V30 8872 H 1034.86 3.05088 2.39881 0
M  V30 8873 H 1032.96 0.905521 3.61429 0
M  V30 8874 H 1033.08 2.76611 3.91182 0
M  V30 8875 H 1031.44 1.39046 2.13397 0
M  V30 8876 H 1032.22 2.99729 1.67385 0
M  V30 8877 N 1034.67 -1.14067 1.0875 0
M  V30 8878 C 1036.08 -1.66747 0.839778 0
M  V30 8879 C 1036.43 -1.85711 -0.632909 0
M  V30 8880 O 1035.56 -1.57084 -1.48841 0
M  V30 8881 C 1036.15 -3.02896 1.51787 0
M  V30 8882 C 1034.71 -3.52596 1.3173 0
M  V30 8883 C 1033.86 -2.27994 1.57841 0
M  V30 8884 H 1036.81 -0.980838 1.24761 0
M  V30 8885 H 1036.83 -3.68526 0.947057 0
M  V30 8886 H 1036.34 -2.89062 2.58969 0
M  V30 8887 H 1034.44 -3.71647 0.266339 0
M  V30 8888 H 1034.56 -4.33151 2.04736 0
M  V30 8889 H 1032.92 -2.34241 1.00015 0
M  V30 8890 H 1033.7 -2.16732 2.66237 0
M  V30 8891 N 1036.15 -0.873678 -1.31166 0
M  V30 8892 C 1037.4 -0.485497 -1.96182 0
M  V30 8893 C 1037.72 0.96621 -1.69379 0
M  V30 8894 O 1036.99 1.67783 -1.01121 0
M  V30 8895 H 1035.57 -0.176547 -0.725838 0
M  V30 8896 H 1038.23 -1.11428 -1.59906 0
M  V30 8897 H 1037.33 -0.646325 -3.05334 0
M  V30 8898 N 1037.63 1.44308 -0.633487 0
M  V30 8899 C 1039.04 1.85387 -0.221009 0
M  V30 8900 C 1039.39 1.5301 1.22811 0
M  V30 8901 O 1038.51 0.969325 1.93476 0
M  V30 8902 C 1039.11 3.36497 -0.394331 0
M  V30 8903 C 1037.67 3.76382 -0.0363405 0
M  V30 8904 C 1036.81 2.68146 -0.706598 0
M  V30 8905 H 1039.77 1.34741 -0.83849 0
M  V30 8906 H 1039.79 3.78735 0.366026 0
M  V30 8907 H 1039.3 3.60031 -1.44911 0
M  V30 8908 H 1037.4 3.58463 1.01661 0
M  V30 8909 H 1037.51 4.77 -0.448045 0
M  V30 8910 H 1035.88 2.54306 -0.14168 0
M  V30 8911 H 1036.66 2.94512 -1.76401 0
M  V30 8912 N 1039.1 0.374177 1.53094 0
M  V30 8913 C 1040.01 -0.475935 2.29722 0
M  V30 8914 C 1041.03 -1.085 1.36029 0
M  V30 8915 O 1042.21 -1.09408 1.69091 0
M  V30 8916 C 1039.27 -1.59572 3.07795 0
M  V30 8917 C 1038.33 -1.01332 4.17169 0
M  V30 8918 C 1037.57 -2.07975 4.9151 0
M  V30 8919 O 1037.79 -3.29232 4.65793 0
M  V30 8920 O 1036.72 -1.7055 5.77232 0
M  V30 8921 H 1040.55 0.147877 3.0334 0
M  V30 8922 H 1038.13 0.138312 1.48758 0
M  V30 8923 H 1040.02 -2.24658 3.5652 0
M  V30 8924 H 1038.69 -2.20478 2.37005 0
M  V30 8925 H 1037.6 -0.326133 3.72676 0
M  V30 8926 H 1038.93 -0.4487 4.90151 0
M  V30 8927 N 1040.58 -1.57259 0.103575 0
M  V30 8928 C 1041.83 -1.94272 -0.557024 0
M  V30 8929 C 1042.15 -0.986739 -1.68192 0
M  V30 8930 O 1041.42 -0.0402818 -1.95859 0
M  V30 8931 H 1040 -0.717237 -0.208757 0
M  V30 8932 H 1042.66 -1.94167 0.168898 0
M  V30 8933 H 1041.76 -2.96914 -0.961691 0
M  V30 8934 N 1042.06 0.170153 -1.56679 0
M  V30 8935 C 1043.31 0.884841 -1.817 0
M  V30 8936 C 1043.63 1.82731 -0.680763 0
M  V30 8937 O 1042.9 1.936 0.299294 0
M  V30 8938 H 1041.48 0.329738 -0.670285 0
M  V30 8939 H 1044.14 0.169691 -1.9416 0
M  V30 8940 H 1043.24 1.46104 -2.7579 0
M  V30 8941 N 1043.54 1.5137 0.438746 0
M  V30 8942 C 1044.49 1.72582 1.53245 0
M  V30 8943 C 1045.46 0.567488 1.56105 0
M  V30 8944 O 1046.64 0.80176 1.73137 0
M  V30 8945 C 1043.78 1.85551 2.90972 0
M  V30 8946 C 1042.89 3.13094 2.97652 0
M  V30 8947 C 1042.03 3.16666 4.26493 0
M  V30 8948 C 1041.07 4.38529 4.27035 0
M  V30 8949 N 1040.2 4.39659 5.47398 0
M  V30 8950 H 1045.04 2.65941 1.3446 0
M  V30 8951 H 1042.58 1.31801 0.653206 0
M  V30 8952 H 1044.54 1.91053 3.70884 0
M  V30 8953 H 1043.17 0.956025 3.08318 0
M  V30 8954 H 1042.22 3.16909 2.10412 0
M  V30 8955 H 1043.53 4.03009 2.93914 0
M  V30 8956 H 1042.69 3.21075 5.14777 0
M  V30 8957 H 1041.43 2.24637 4.32885 0
M  V30 8958 H 1040.43 4.34297 3.37144 0
M  V30 8959 H 1041.66 5.31821 4.22307 0
M  V30 8960 H 1039.6 3.50499 5.54514 0
M  V30 8961 H 1039.52 5.23382 5.45534 0
M  V30 8962 H 1040.79 4.48259 6.37718 0
M  V30 8963 N 1045.02 -0.694098 1.41492 0
M  V30 8964 C 1046.26 -1.45127 1.4065 0
M  V30 8965 C 1046.59 -1.94993 0.0170289 0
M  V30 8966 O 1045.86 -1.71799 -0.941372 0
M  V30 8967 H 1044.44 -0.538493 0.51772 0
M  V30 8968 H 1047.1 -0.821441 1.76744 0
M  V30 8969 H 1046.19 -2.31372 2.0946 0
M  V30 8970 N 1046.49 -1.27344 -0.928501 0
M  V30 8971 C 1047.46 -1.10043 -2.01055 0
M  V30 8972 C 1048.46 -0.0446793 -1.60738 0
M  V30 8973 O 1049.65 -0.289202 -1.71783 0
M  V30 8974 C 1046.78 -0.676559 -3.34119 0
M  V30 8975 H 1047.97 -2.06126 -2.17835 0
M  V30 8976 H 1045.53 -1.10121 -1.10919 0
M  V30 8977 H 1046.26 0.285697 -3.23039 0
M  V30 8978 H 1046.05 -1.43903 -3.64739 0
M  V30 8979 H 1047.54 -0.577725 -4.13584 0
M  V30 8980 N 1047.97 1.13488 -1.09353 0
M  V30 8981 C 1048.94 2.17066 -0.735863 0
M  V30 8982 C 1049.94 1.59086 0.234181 0
M  V30 8983 O 1051.13 1.74196 0.012463 0
M  V30 8984 C 1048.26 3.40786 -0.0880975 0
M  V30 8985 H 1049.45 2.50221 -1.65316 0
M  V30 8986 H 1047 1.28304 -0.89263 0
M  V30 8987 H 1047.74 3.1322 0.840462 0
M  V30 8988 H 1047.52 3.8414 -0.786073 0
M  V30 8989 H 1049.01 4.17342 0.146775 0
M  V30 8990 N 1049.45 0.880621 1.30701 0
M  V30 8991 C 1050.7 0.495894 1.95922 0
M  V30 8992 C 1051.02 -0.957214 1.69889 0
M  V30 8993 O 1050.29 -1.67245 1.0201 0
M  V30 8994 H 1048.87 0.180394 0.724891 0
M  V30 8995 H 1051.53 1.12274 1.59313 0
M  V30 8996 H 1050.63 0.662508 3.04987 0
M  V30 8997 N 1050.93 -1.4397 0.641131 0
M  V30 8998 C 1052.34 -1.85267 0.230838 0
M  V30 8999 C 1052.69 -1.53659 -1.21998 0
M  V30 9000 O 1051.82 -0.979572 -1.92959 0
M  V30 9001 C 1052.41 -3.36284 0.412171 0
M  V30 9002 C 1050.97 -3.76358 0.0563004 0
M  V30 9003 C 1050.12 -2.67768 0.720809 0
M  V30 9004 H 1053.07 -1.34294 0.845624 0
M  V30 9005 H 1053.09 -3.78924 -0.345936 0
M  V30 9006 H 1052.6 -3.59258 1.46818 0
M  V30 9007 H 1050.7 -3.58997 -0.997582 0
M  V30 9008 H 1050.82 -4.76756 0.473335 0
M  V30 9009 H 1049.18 -2.54227 0.155164 0
M  V30 9010 H 1049.96 -2.93573 1.77961 0
M  V30 9011 N 1052.41 -0.382291 -1.52893 0
M  V30 9012 C 1053.82 0.0932841 -1.86467 0
M  V30 9013 C 1054.17 1.4675 -1.30226 0
M  V30 9014 O 1053.29 2.07001 -0.63084 0
M  V30 9015 C 1053.89 0.176048 -3.38342 0
M  V30 9016 C 1052.45 0.595904 -3.71653 0
M  V30 9017 C 1051.6 -0.246511 -2.76202 0
M  V30 9018 H 1054.55 -0.600443 -1.46903 0
M  V30 9019 H 1054.57 0.996512 -3.67219 0
M  V30 9020 H 1054.08 -0.824264 -3.79246 0
M  V30 9021 H 1052.18 1.60384 -3.36315 0
M  V30 9022 H 1052.29 0.358919 -4.77754 0
M  V30 9023 H 1050.66 0.287162 -2.53076 0
M  V30 9024 H 1051.44 -1.24467 -3.19942 0
M  V30 9025 N 1053.89 1.57202 -0.111913 0
M  V30 9026 C 1055.13 1.94565 0.546713 0
M  V30 9027 C 1055.45 0.995644 1.67666 0
M  V30 9028 O 1054.72 0.0506681 1.95834 0
M  V30 9029 H 1053.3 0.718334 0.204951 0
M  V30 9030 H 1055.97 1.94074 -0.179193 0
M  V30 9031 H 1055.06 2.9742 0.945931 0
M  V30 9032 N 1055.36 -0.161842 1.56767 0
M  V30 9033 C 1056.77 -0.723385 1.72116 0
M  V30 9034 C 1057.13 -1.82355 0.723961 0
M  V30 9035 O 1056.25 -2.16107 -0.112643 0
M  V30 9036 C 1056.85 -1.31895 3.12072 0
M  V30 9037 C 1055.4 -1.82722 3.29074 0
M  V30 9038 C 1054.55 -0.709863 2.6806 0
M  V30 9039 H 1057.5 0.0636647 1.58572 0
M  V30 9040 H 1057.52 -2.18871 3.11249 0
M  V30 9041 H 1057.04 -0.51801 3.84627 0
M  V30 9042 H 1055.14 -2.6543 2.61491 0
M  V30 9043 H 1055.25 -1.96614 4.36898 0
M  V30 9044 H 1053.61 -1.13273 2.28126 0
M  V30 9045 H 1054.4 0.0793884 3.43208 0
M  V30 9046 N 1056.84 -1.516 -0.430713 0
M  V30 9047 C 1058.25 -1.57 -1.01035 0
M  V30 9048 C 1058.6 -0.397439 -1.92132 0
M  V30 9049 O 1057.73 0.484954 -2.10896 0
M  V30 9050 C 1058.32 -2.84536 -1.83915 0
M  V30 9051 C 1056.88 -2.92485 -2.36917 0
M  V30 9052 C 1056.03 -2.5173 -1.16308 0
M  V30 9053 H 1058.98 -1.57281 -0.211734 0
M  V30 9054 H 1059 -2.68672 -2.69435 0
M  V30 9055 H 1058.51 -3.69858 -1.17586 0
M  V30 9056 H 1056.61 -2.11608 -3.0668 0
M  V30 9057 H 1056.73 -3.96277 -2.6926 0
M  V30 9058 H 1055.09 -2.05079 -1.51045 0
M  V30 9059 H 1055.87 -3.39403 -0.515793 0
M  V30 9060 N 1058.32 0.686584 -1.41858 0
M  V30 9061 C 1059.57 1.44379 -1.41418 0
M  V30 9062 C 1059.89 1.94981 -0.0273696 0
M  V30 9063 O 1059.16 1.72296 0.932248 0
M  V30 9064 H 1057.74 0.53574 -0.520568 0
M  V30 9065 H 1060.4 0.812056 -1.77177 0
M  V30 9066 H 1059.5 2.30258 -2.10684 0
M  V30 9067 N 1059.8 1.27835 0.921735 0
M  V30 9068 C 1060.76 1.11108 2.00469 0
M  V30 9069 C 1061.76 0.053203 1.60712 0
M  V30 9070 O 1062.95 0.298308 1.71627 0
M  V30 9071 C 1060.08 0.694269 3.33755 0
M  V30 9072 H 1061.28 2.07279 2.16738 0
M  V30 9073 H 1058.83 1.10708 1.10333 0
M  V30 9074 H 1059.56 -0.268561 3.23186 0
M  V30 9075 H 1059.35 1.45836 3.6397 0
M  V30 9076 H 1060.84 0.59965 4.13272 0
M  V30 9077 N 1061.28 -1.12907 1.09954 0
M  V30 9078 C 1062.24 -2.16673 0.747364 0
M  V30 9079 C 1063.24 -1.59208 -0.225741 0
M  V30 9080 O 1064.43 -1.742 -0.00322482 0
M  V30 9081 C 1061.56 -3.40735 0.106169 0
M  V30 9082 H 1062.75 -2.49341 1.6664 0
M  V30 9083 H 1060.31 -1.27828 0.899421 0
M  V30 9084 H 1061.04 -3.13661 -0.82384 0
M  V30 9085 H 1060.83 -3.83717 0.806434 0
M  V30 9086 H 1062.32 -4.17414 -0.12464 0
M  V30 9087 N 1062.75 -0.88754 -1.30232 0
M  V30 9088 C 1064 -0.506277 -1.95656 0
M  V30 9089 C 1064.32 0.948191 -1.70395 0
M  V30 9090 O 1063.59 1.66701 -1.02895 0
M  V30 9091 H 1062.17 -0.184235 -0.723924 0
M  V30 9092 H 1064.83 -1.13118 -1.58715 0
M  V30 9093 H 1063.93 -0.678673 -3.04632 0
M  V30 9094 N 1064.23 1.43628 -0.648757 0
M  V30 9095 C 1065.46 2.06217 -0.167945 0
M  V30 9096 C 1065.88 1.486 1.16462 0
M  V30 9097 O 1065.23 0.61559 1.71804 0
M  V30 9098 C 1065.28 3.6144 -0.0660114 0
M  V30 9099 O 1065 4.16914 -1.34589 0
M  V30 9100 C 1066.51 4.41097 0.441408 0
M  V30 9101 H 1063.73 0.665228 -0.0878237 0
M  V30 9102 H 1066.27 1.84207 -0.888144 0
M  V30 9103 H 1064.42 3.82651 0.604722 0
M  V30 9104 H 1064.84 5.10537 -1.20218 0
M  V30 9105 H 1066.31 5.50066 0.461697 0
M  V30 9106 H 1066.79 4.13803 1.47187 0
M  V30 9107 H 1067.4 4.24845 -0.19668 0
M  V30 9108 N 1065.71 0.390394 1.52688 0
M  V30 9109 C 1067.12 -0.083394 1.86514 0
M  V30 9110 C 1067.47 -1.46057 1.31003 0
M  V30 9111 O 1066.6 -2.06663 0.641809 0
M  V30 9112 C 1067.19 -0.158102 3.38431 0
M  V30 9113 C 1065.75 -0.576186 3.71964 0
M  V30 9114 C 1064.9 0.261156 2.76068 0
M  V30 9115 H 1067.85 0.608226 1.46582 0
M  V30 9116 H 1067.87 -0.977023 3.67742 0
M  V30 9117 H 1067.38 0.844365 3.78803 0
M  V30 9118 H 1065.48 -1.58598 3.37161 0
M  V30 9119 H 1065.6 -0.333577 4.77937 0
M  V30 9120 H 1063.96 -0.273737 2.53225 0
M  V30 9121 H 1064.74 1.26162 3.19277 0
M  V30 9122 N 1067.19 -1.57141 0.120249 0
M  V30 9123 C 1068.44 -1.94852 -0.536387 0
M  V30 9124 C 1068.76 -1.00452 -1.67136 0
M  V30 9125 O 1068.03 -0.061053 -1.95805 0
M  V30 9126 H 1066.61 -0.719411 -0.201138 0
M  V30 9127 H 1069.27 -1.93977 0.189482 0
M  V30 9128 H 1068.37 -2.97917 -0.930145 0
M  V30 9129 N 1068.67 0.153526 -1.5685 0
M  V30 9130 C 1069.6 1.19162 -2.00805 0
M  V30 9131 C 1070.58 1.45172 -0.886518 0
M  V30 9132 O 1071.76 1.56203 -1.15387 0
M  V30 9133 C 1068.89 2.52637 -2.38311 0
M  V30 9134 C 1067.85 2.41161 -3.53589 0
M  V30 9135 C 1067.17 3.79287 -3.76889 0
M  V30 9136 C 1068.47 1.90122 -4.86468 0
M  V30 9137 H 1070.17 0.82617 -2.87776 0
M  V30 9138 H 1067.71 0.395972 -1.38449 0
M  V30 9139 H 1069.67 3.25478 -2.6766 0
M  V30 9140 H 1068.39 2.91005 -1.4827 0
M  V30 9141 H 1067.05 1.70772 -3.24395 0
M  V30 9142 H 1066.7 4.15079 -2.84109 0
M  V30 9143 H 1066.4 3.72472 -4.54465 0
M  V30 9144 H 1067.92 4.53687 -4.08657 0
M  V30 9145 H 1069.33 2.52752 -5.14577 0
M  V30 9146 H 1067.73 1.94214 -5.67804 0
M  V30 9147 H 1068.8 0.856517 -4.77275 0
M  V30 9148 N 1070.14 1.51827 0.422667 0
M  V30 9149 C 1071.08 1.70409 1.53275 0
M  V30 9150 C 1072.09 0.584584 1.51942 0
M  V30 9151 O 1073.28 0.859349 1.56453 0
M  V30 9152 C 1070.38 1.717 2.92185 0
M  V30 9153 C 1069.55 3.00472 3.17861 0
M  V30 9154 C 1068.61 2.93755 4.36571 0
M  V30 9155 O 1067.64 3.67682 4.3451 0
M  V30 9156 N 1068.84 2.10612 5.40946 0
M  V30 9157 H 1071.6 2.66176 1.37734 0
M  V30 9158 H 1069.16 1.49895 0.611799 0
M  V30 9159 H 1071.16 1.64756 3.69645 0
M  V30 9160 H 1069.73 0.834655 3.01251 0
M  V30 9161 H 1068.95 3.21171 2.28567 0
M  V30 9162 H 1070.23 3.85684 3.31851 0
M  V30 9163 H 1069.63 1.49954 5.45463 0
M  V30 9164 H 1068.19 2.09535 6.17202 0
M  V30 9165 N 1071.62 -0.679052 1.4222 0
M  V30 9166 C 1072.87 -1.43627 1.42182 0
M  V30 9167 C 1073.19 -1.94964 0.0377095 0
M  V30 9168 O 1072.46 -1.72788 -0.923098 0
M  V30 9169 H 1071.04 -0.532972 0.523402 0
M  V30 9170 H 1073.7 -0.802649 1.77605 0
M  V30 9171 H 1072.8 -2.29137 2.11902 0
M  V30 9172 N 1073.1 -1.28322 -0.914942 0
M  V30 9173 C 1074.03 -1.06469 -2.01841 0
M  V30 9174 C 1075.01 0.0188681 -1.62589 0
M  V30 9175 O 1076.2 -0.128825 -1.88059 0
M  V30 9176 C 1073.32 -0.617685 -3.3302 0
M  V30 9177 C 1072.37 -1.6977 -3.91255 0
M  V30 9178 S 1073.2 -3.29337 -4.22253 0
M  V30 9179 C 1074.36 -2.86468 -5.56495 0
M  V30 9180 H 1074.59 -1.99893 -2.20068 0
M  V30 9181 H 1072.12 -1.12297 -1.05966 0
M  V30 9182 H 1074.08 -0.366481 -4.08861 0
M  V30 9183 H 1072.74 0.296709 -3.12695 0
M  V30 9184 H 1071.94 -1.33653 -4.85956 0
M  V30 9185 H 1071.54 -1.90164 -3.22046 0
M  V30 9186 H 1073.83 -2.32565 -6.36333 0
M  V30 9187 H 1074.77 -3.79962 -5.97523 0
M  V30 9188 H 1075.18 -2.2522 -5.17626 0
M  V30 9189 N 1074.58 1.12322 -1.10551 0
M  V30 9190 C 1075.99 1.6539 -0.8662 0
M  V30 9191 C 1076.34 1.86695 0.603284 0
M  V30 9192 O 1075.47 1.59432 1.46323 0
M  V30 9193 C 1076.06 3.00443 -1.56587 0
M  V30 9194 C 1074.62 3.50456 -1.37323 0
M  V30 9195 C 1073.77 2.25454 -1.61449 0
M  V30 9196 H 1076.72 0.960866 -1.26305 0
M  V30 9197 H 1076.74 3.66972 -1.00557 0
M  V30 9198 H 1076.25 2.84905 -2.63535 0
M  V30 9199 H 1074.35 3.71176 -0.325431 0
M  V30 9200 H 1074.46 4.29839 -2.11601 0
M  V30 9201 H 1072.83 2.32621 -1.03729 0
M  V30 9202 H 1073.61 2.12469 -2.69651 0
M  V30 9203 N 1076.06 0.894434 1.2976 0
M  V30 9204 C 1077.3 0.516646 1.95385 0
M  V30 9205 C 1077.63 -0.939141 1.70895 0
M  V30 9206 O 1076.9 -1.66153 1.03778 0
M  V30 9207 H 1075.48 0.188072 0.722937 0
M  V30 9208 H 1078.14 1.13958 1.58113 0
M  V30 9209 H 1077.23 0.694819 3.04267 0
M  V30 9210 N 1077.53 -1.43282 0.656365 0
M  V30 9211 C 1078.44 -2.34576 -0.033864 0
M  V30 9212 C 1079.46 -1.5406 -0.808793 0
M  V30 9213 O 1080.64 -1.867 -0.755322 0
M  V30 9214 C 1077.7 -3.32378 -0.986197 0
M  V30 9215 C 1076.76 -4.28797 -0.207851 0
M  V30 9216 C 1076 -5.21927 -1.11482 0
M  V30 9217 O 1076.22 -5.19554 -2.35414 0
M  V30 9218 O 1075.15 -5.99045 -0.585536 0
M  V30 9219 H 1078.98 -2.95099 0.717668 0
M  V30 9220 H 1076.56 -1.43475 0.416556 0
M  V30 9221 H 1078.45 -3.9251 -1.53341 0
M  V30 9222 H 1077.12 -2.74354 -1.7179 0
M  V30 9223 H 1076.03 -3.72134 0.383022 0
M  V30 9224 H 1077.36 -4.89811 0.48435 0
M  V30 9225 N 1079.01 -0.398486 -1.52479 0
M  V30 9226 C 1080.43 -0.0488635 -1.59525 0
M  V30 9227 C 1080.63 1.43756 -1.41197 0
M  V30 9228 O 1079.69 2.20317 -1.23357 0
M  V30 9229 C 1081 -0.534262 -2.95916 0
M  V30 9230 C 1082.55 -0.491314 -3.0912 0
M  V30 9231 C 1083.02 -0.953049 -4.47974 0
M  V30 9232 N 1084.51 -0.909434 -4.54184 0
M  V30 9233 C 1085.25 -1.23801 -5.59876 0
M  V30 9234 N 1084.74 -1.63752 -6.73169 0
M  V30 9235 N 1086.54 -1.15867 -5.50028 0
M  V30 9236 H 1078.69 -1.36608 -1.62641 0
M  V30 9237 H 1080.95 -0.560515 -0.764544 0
M  V30 9238 H 1080.66 -1.57277 -3.14574 0
M  V30 9239 H 1080.53 0.0617787 -3.77149 0
M  V30 9240 H 1082.92 0.538123 -2.90152 0
M  V30 9241 H 1083 -1.12327 -2.29818 0
M  V30 9242 H 1082.64 -1.98076 -4.67684 0
M  V30 9243 H 1082.57 -0.298007 -5.25756 0
M  V30 9244 H 1085.06 -0.615569 -3.72853 0
M  V30 9245 H 1085.38 -1.87163 -7.49793 0
M  V30 9246 H 1083.72 -1.67647 -6.74477 0
M  V30 9247 H 1086.91 -0.845502 -4.60401 0
M  V30 9248 H 1087.09 -1.41805 -6.32294 0
M  V30 9249 N 1080.49 1.57075 -0.12858 0
M  V30 9250 C 1081.74 1.95134 0.526046 0
M  V30 9251 C 1082.06 1.01337 1.66601 0
M  V30 9252 O 1081.33 0.0714361 1.9577 0
M  V30 9253 H 1079.91 0.720468 0.19732 0
M  V30 9254 H 1082.57 1.93874 -0.199767 0
M  V30 9255 H 1081.67 2.98406 0.914332 0
M  V30 9256 N 1081.97 -0.145205 1.5693 0
M  V30 9257 C 1083.22 -0.855822 1.83085 0
M  V30 9258 C 1083.54 -1.81625 0.709747 0
M  V30 9259 O 1082.81 -1.94052 -0.268456 0
M  V30 9260 H 1081.39 -0.319032 0.675446 0
M  V30 9261 H 1084.05 -0.138781 1.94405 0
M  V30 9262 H 1083.15 -1.41698 2.78079 0
M  V30 9263 N 1083.45 -1.52049 -0.414609 0
M  V30 9264 C 1084.38 -1.77956 -1.51175 0
M  V30 9265 C 1085.36 -0.630282 -1.57992 0
M  V30 9266 O 1086.54 -0.875324 -1.73354 0
M  V30 9267 C 1083.67 -1.92527 -2.89051 0
M  V30 9268 C 1082.63 -3.08096 -2.97087 0
M  V30 9269 C 1081.95 -3.07882 -4.37164 0
M  V30 9270 C 1083.25 -4.47656 -2.69075 0
M  V30 9271 H 1084.95 -2.69827 -1.29746 0
M  V30 9272 H 1082.49 -1.29839 -0.62273 0
M  V30 9273 H 1084.45 -2.09234 -3.65786 0
M  V30 9274 H 1083.17 -0.973235 -3.11762 0
M  V30 9275 H 1081.83 -2.91131 -2.22797 0
M  V30 9276 H 1081.48 -2.10411 -4.56877 0
M  V30 9277 H 1081.18 -3.85501 -4.43467 0
M  V30 9278 H 1082.7 -3.26712 -5.15841 0
M  V30 9279 H 1084.12 -4.64855 -3.35534 0
M  V30 9280 H 1082.51 -5.27151 -2.8676 0
M  V30 9281 H 1083.58 -4.56129 -1.64544 0
M  V30 9282 N 1084.93 0.6715 -1.42579 0
M  V30 9283 C 1086.17 1.42871 -1.42941 0
M  V30 9284 C 1086.49 1.94941 -0.0480483 0
M  V30 9285 O 1085.76 1.73275 0.913921 0
M  V30 9286 H 1084.34 0.530189 -0.526221 0
M  V30 9287 H 1087.01 0.793219 -1.78028 0
M  V30 9288 H 1086.1 2.2801 -2.13114 0
M  V30 9289 N 1086.4 1.28806 0.908124 0
M  V30 9290 C 1087.63 1.19271 1.69674 0
M  V30 9291 C 1088.05 -0.244403 1.86505 0
M  V30 9292 O 1087.41 -1.17668 1.37927 0
M  V30 9293 C 1087.46 1.9023 3.06341 0
M  V30 9294 O 1086.56 1.2136 3.94139 0
M  V30 9295 H 1085.9 0.413738 0.519343 0
M  V30 9296 H 1088.43 1.70227 1.13508 0
M  V30 9297 H 1088.44 1.98356 3.56537 0
M  V30 9298 H 1087.12 2.94762 2.93408 0
M  V30 9299 H 1085.7 1.21435 3.52573 0
M  V30 9300 N 1087.88 -1.11734 1.11145 0
M  V30 9301 C 1089.29 -1.64928 0.874959 0
M  V30 9302 C 1089.64 -1.87012 -0.593375 0
M  V30 9303 O 1088.77 -1.60206 -1.45475 0
M  V30 9304 C 1089.36 -2.99608 1.58178 0
M  V30 9305 C 1087.92 -3.49723 1.39179 0
M  V30 9306 C 1087.07 -2.24595 1.62642 0
M  V30 9307 H 1090.02 -0.954154 1.26813 0
M  V30 9308 H 1090.04 -3.66434 1.02501 0
M  V30 9309 H 1089.55 -2.83504 2.65042 0
M  V30 9310 H 1087.65 -3.70998 0.345111 0
M  V30 9311 H 1087.77 -4.28711 2.13878 0
M  V30 9312 H 1086.13 -2.32067 1.04961 0
M  V30 9313 H 1086.91 -2.11036 2.70774 0
M  V30 9314 N 1089.36 -0.901303 -1.29284 0
M  V30 9315 C 1090.61 -0.527 -1.95108 0
M  V30 9316 C 1090.93 0.930065 -1.71391 0
M  V30 9317 O 1090.2 1.65601 -1.04658 0
M  V30 9318 H 1088.78 -0.191903 -0.721929 0
M  V30 9319 H 1091.44 -1.14795 -1.57506 0
M  V30 9320 H 1090.54 -0.710945 -3.03895 0
M  V30 9321 N 1090.84 1.42931 -0.663954 0
M  V30 9322 C 1092.25 1.84877 -0.260283 0
M  V30 9323 C 1092.6 1.5558 1.19538 0
M  V30 9324 O 1091.72 1.01015 1.91377 0
M  V30 9325 C 1092.32 3.35585 -0.465618 0
M  V30 9326 C 1090.88 3.76221 -0.116169 0
M  V30 9327 C 1090.03 2.66587 -0.763317 0
M  V30 9328 H 1092.98 1.32932 -0.866882 0
M  V30 9329 H 1093 3.79427 0.285608 0
M  V30 9330 H 1092.51 3.56877 -1.52515 0
M  V30 9331 H 1090.61 3.60539 0.940342 0
M  V30 9332 H 1090.72 4.75943 -0.549123 0
M  V30 9333 H 1089.09 2.53948 -0.19559 0
M  V30 9334 H 1089.87 2.90704 -1.82609 0
M  V30 9335 N 1092.32 0.406567 1.52266 0
M  V30 9336 C 1093.26 -0.420182 2.26943 0
M  V30 9337 C 1094.23 -1.04323 1.29251 0
M  V30 9338 O 1095.42 -1.06799 1.5811 0
M  V30 9339 C 1092.56 -1.5323 3.09216 0
M  V30 9340 C 1091.67 -0.930419 4.21862 0
M  V30 9341 C 1090.81 -2.01502 4.91498 0
M  V30 9342 C 1089.84 -1.38994 5.9611 0
M  V30 9343 N 1088.98 -2.41458 6.59274 0
M  V30 9344 H 1093.82 0.223066 2.97164 0
M  V30 9345 H 1091.36 0.121842 1.46595 0
M  V30 9346 H 1093.32 -2.18803 3.5522 0
M  V30 9347 H 1091.95 -2.14561 2.41171 0
M  V30 9348 H 1091 -0.163809 3.80047 0
M  V30 9349 H 1092.31 -0.433785 4.9691 0
M  V30 9350 H 1091.46 -2.74807 5.40894 0
M  V30 9351 H 1090.2 -2.5453 4.16012 0
M  V30 9352 H 1089.21 -0.642213 5.46036 0
M  V30 9353 H 1090.43 -0.867386 6.73538 0
M  V30 9354 H 1088.38 -2.93623 5.86619 0
M  V30 9355 H 1088.3 -1.96599 7.2999 0
M  V30 9356 H 1089.56 -3.14341 7.13309 0
M  V30 9357 N 1093.79 -1.57004 0.136909 0
M  V30 9358 C 1095.04 -1.9541 -0.51569 0
M  V30 9359 C 1095.36 -1.02219 -1.66061 0
M  V30 9360 O 1094.63 -0.0818172 -1.95729 0
M  V30 9361 H 1093.21 -0.721504 -0.193497 0
M  V30 9362 H 1095.88 -1.93765 0.210046 0
M  V30 9363 H 1094.97 -2.98887 -0.898494 0
M  V30 9364 N 1095.27 0.136881 -1.57004 0
M  V30 9365 C 1096.55 0.87705 -1.74835 0
M  V30 9366 C 1096.93 1.98886 -0.707639 0
M  V30 9367 O 1096.28 2.26879 0.271652 0
M  V30 9368 C 1096.49 1.41021 -3.1924 0
M  V30 9369 C 1097.84 1.86963 -3.81222 0
M  V30 9370 O 1098.86 1.5074 -3.22732 0
M  V30 9371 O 1097.72 2.53798 -4.83993 0
M  V30 9372 H 1094.81 0.415192 -0.715223 0
M  V30 9373 H 1097.36 0.122016 -1.69261 0
M  V30 9374 H 1096.13 0.611677 -3.8649 0
M  V30 9375 H 1095.75 2.22846 -3.2928 0
M  V30 9376 N 1096.75 1.52266 0.40654 0
M  V30 9377 C 1097.7 1.75794 1.4955 0
M  V30 9378 C 1098.67 0.600472 1.54866 0
M  V30 9379 O 1099.85 0.838305 1.71397 0
M  V30 9380 C 1096.99 1.91682 2.86971 0
M  V30 9381 C 1096.11 3.19337 2.90943 0
M  V30 9382 C 1095.24 3.25641 4.1968 0
M  V30 9383 C 1094.28 4.47488 4.17637 0
M  V30 9384 N 1093.42 4.51171 5.37949 0
M  V30 9385 H 1098.26 2.68733 1.28789 0
M  V30 9386 H 1095.79 1.33157 0.625102 0
M  V30 9387 H 1097.75 1.98877 3.66748 0
M  V30 9388 H 1096.38 1.02121 3.06221 0
M  V30 9389 H 1095.43 3.21301 2.03642 0
M  V30 9390 H 1096.75 4.09153 2.85299 0
M  V30 9391 H 1095.9 3.31922 5.07851 0
M  V30 9392 H 1094.64 2.33769 4.28023 0
M  V30 9393 H 1093.64 4.41351 3.27856 0
M  V30 9394 H 1094.87 5.40659 4.10932 0
M  V30 9395 H 1092.81 3.62182 5.46955 0
M  V30 9396 H 1092.73 5.34835 5.3431 0
M  V30 9397 H 1094 4.61685 6.28066 0
M  V30 9398 N 1098.23 -0.663929 1.42933 0
M  V30 9399 C 1099.48 -1.42111 1.43697 0
M  V30 9400 C 1099.8 -1.94913 0.0583858 0
M  V30 9401 O 1099.07 -1.73757 -0.904719 0
M  V30 9402 H 1097.65 -0.527391 0.529026 0
M  V30 9403 H 1100.31 -0.783766 1.78446 0
M  V30 9404 H 1099.41 -2.26877 2.1432 0
M  V30 9405 N 1099.71 -1.29285 -0.901281 0
M  V30 9406 C 1100.62 -1.16161 -2.03823 0
M  V30 9407 C 1101.63 -0.0852298 -1.73791 0
M  V30 9408 O 1102.81 -0.29699 -1.99198 0
M  V30 9409 C 1099.87 -0.837586 -3.3643 0
M  V30 9410 C 1098.93 -1.99764 -3.7999 0
M  V30 9411 C 1098.17 -1.68898 -5.0627 0
M  V30 9412 O 1098.39 -0.609177 -5.67138 0
M  V30 9413 O 1097.32 -2.53648 -5.45845 0
M  V30 9414 H 1101.15 -2.11635 -2.17817 0
M  V30 9415 H 1098.74 -1.08722 -1.02468 0
M  V30 9416 H 1100.62 -0.671376 -4.16017 0
M  V30 9417 H 1099.29 0.0873811 -3.23582 0
M  V30 9418 H 1098.2 -2.21908 -3.01177 0
M  V30 9419 H 1099.53 -2.90376 -3.9742 0
M  V30 9420 N 1101.18 1.11143 -1.11736 0
M  V30 9421 C 1102.6 1.64462 -0.883693 0
M  V30 9422 C 1102.95 1.87324 0.583448 0
M  V30 9423 O 1102.07 1.60975 1.44623 0
M  V30 9424 C 1102.67 2.98765 -1.59764 0
M  V30 9425 C 1101.23 3.4898 -1.41032 0
M  V30 9426 C 1100.37 2.23729 -1.63831 0
M  V30 9427 H 1103.32 0.947415 -1.27317 0
M  V30 9428 H 1103.34 3.65885 -1.04443 0
M  V30 9429 H 1102.86 2.82094 -2.66542 0
M  V30 9430 H 1100.96 3.7081 -0.364781 0
M  V30 9431 H 1101.07 4.27571 -2.16148 0
M  V30 9432 H 1099.43 2.31507 -1.06191 0
M  V30 9433 H 1100.22 2.09597 -2.7189 0
M  V30 9434 N 1102.66 0.908147 1.28804 0
M  V30 9435 C 1103.91 0.53734 1.94826 0
M  V30 9436 C 1104.23 -0.920962 1.71882 0
M  V30 9437 O 1103.5 -1.65043 1.05534 0
M  V30 9438 H 1102.08 0.195729 0.720902 0
M  V30 9439 H 1104.74 1.15628 1.56895 0
M  V30 9440 H 1103.84 0.727052 3.03513 0
M  V30 9441 N 1104.14 -1.42577 0.671525 0
M  V30 9442 C 1105.39 -2.01185 0.192051 0
M  V30 9443 C 1105.71 -1.53349 -1.20454 0
M  V30 9444 O 1104.98 -0.753781 -1.80817 0
M  V30 9445 H 1103.56 -0.743898 0.0680106 0
M  V30 9446 H 1106.22 -1.74539 0.8673 0
M  V30 9447 H 1105.32 -3.11516 0.190796 0
M  V30 9448 N 1105.62 -0.414636 -1.52048 0
M  V30 9449 C 1107.03 0.0537107 -1.86623 0
M  V30 9450 C 1107.38 1.43955 -1.3331 0
M  V30 9451 O 1106.51 2.05616 -0.674606 0
M  V30 9452 C 1107.1 0.104241 -3.3864 0
M  V30 9453 C 1105.66 0.516936 -3.72833 0
M  V30 9454 C 1104.81 -0.305042 -2.75617 0
M  V30 9455 H 1107.76 -0.631469 -1.45596 0
M  V30 9456 H 1107.78 0.918395 -3.6925 0
M  V30 9457 H 1107.29 -0.904523 -3.77412 0
M  V30 9458 H 1105.39 1.53214 -3.39641 0
M  V30 9459 H 1105.5 0.2575 -4.78408 0
M  V30 9460 H 1103.87 0.233416 -2.53628 0
M  V30 9461 H 1104.65 -1.31226 -3.1723 0
M  V30 9462 N 1107.1 1.56929 -0.145233 0
M  V30 9463 C 1108.34 1.95681 0.50532 0
M  V30 9464 C 1108.67 1.03098 1.65516 0
M  V30 9465 O 1107.94 0.0921961 1.95683 0
M  V30 9466 H 1106.52 0.72252 0.189668 0
M  V30 9467 H 1109.18 1.93651 -0.220318 0
M  V30 9468 H 1108.27 2.99359 0.882631 0
M  V30 9469 N 1108.58 -0.128553 1.57075 0
M  V30 9470 C 1109.54 -1.14215 1.98715 0
M  V30 9471 C 1110.54 -1.34843 0.876019 0
M  V30 9472 O 1111.73 -1.31522 1.14227 0
M  V30 9473 C 1108.86 -2.49865 2.31905 0
M  V30 9474 H 1110.05 -0.784481 2.89458 0
M  V30 9475 H 1107.61 -0.372531 1.51796 0
M  V30 9476 H 1108.34 -2.9057 1.44012 0
M  V30 9477 H 1108.13 -2.3625 3.12935 0
M  V30 9478 H 1109.62 -3.22832 2.64895 0
M  V30 9479 N 1110.05 -1.5248 -0.398459 0
M  V30 9480 C 1111.33 -1.57634 -1.15805 0
M  V30 9481 C 1111.71 -0.363785 -2.07942 0
M  V30 9482 O 1111.06 0.648598 -2.19101 0
M  V30 9483 C 1111.27 -2.91042 -1.92602 0
M  V30 9484 C 1112.62 -3.44433 -2.48296 0
M  V30 9485 O 1113.64 -2.92853 -2.0277 0
M  V30 9486 O 1112.5 -4.34529 -3.31432 0
M  V30 9487 H 1109.59 -0.63539 -0.529347 0
M  V30 9488 H 1112.14 -1.64812 -0.404376 0
M  V30 9489 H 1110.91 -3.7074 -1.25169 0
M  V30 9490 H 1110.53 -2.87206 -2.74952 0
M  V30 9491 N 1111.53 0.65634 -1.43283 0
M  V30 9492 C 1112.78 1.41347 -1.44449 0
M  V30 9493 C 1113.1 1.94879 -0.0687217 0
M  V30 9494 O 1112.37 1.74235 0.895492 0
M  V30 9495 H 1110.95 0.524578 -0.531815 0
M  V30 9496 H 1113.61 0.774292 -1.7886 0
M  V30 9497 H 1112.71 2.25737 -2.15521 0
M  V30 9498 N 1113.01 1.29761 0.894412 0
M  V30 9499 C 1114.26 1.18214 1.64782 0
M  V30 9500 C 1114.59 -0.264635 1.92388 0
M  V30 9501 O 1113.86 -1.19051 1.53809 0
M  V30 9502 C 1114.15 2.00138 2.99361 0
M  V30 9503 C 1114 3.52984 2.78787 0
M  V30 9504 C 1115.32 1.83187 4.00163 0
M  V30 9505 H 1112.44 0.430802 0.597979 0
M  V30 9506 H 1115.08 1.59292 1.03566 0
M  V30 9507 H 1113.23 1.65233 3.51611 0
M  V30 9508 H 1114.9 3.97898 2.33398 0
M  V30 9509 H 1113.14 3.77642 2.13469 0
M  V30 9510 H 1113.82 4.05585 3.7444 0
M  V30 9511 H 1116.29 2.13684 3.57041 0
M  V30 9512 H 1115.17 2.42849 4.92255 0
M  V30 9513 H 1115.43 0.788469 4.35012 0
M  V30 9514 N 1114.49 -1.10549 1.12324 0
M  V30 9515 C 1115.9 -1.63991 0.892402 0
M  V30 9516 C 1116.25 -1.87631 -0.573506 0
M  V30 9517 O 1115.37 -1.6174 -1.43768 0
M  V30 9518 C 1115.97 -2.97914 1.61347 0
M  V30 9519 C 1114.53 -3.48227 1.42881 0
M  V30 9520 C 1113.68 -2.22857 1.65015 0
M  V30 9521 H 1116.63 -0.94065 1.27818 0
M  V30 9522 H 1116.65 -3.65326 1.06382 0
M  V30 9523 H 1116.16 -2.80677 2.68034 0
M  V30 9524 H 1114.26 -3.70611 0.384441 0
M  V30 9525 H 1114.37 -4.26419 2.18413 0
M  V30 9526 H 1112.74 -2.30941 1.07417 0
M  V30 9527 H 1113.52 -2.08152 2.72997 0
M  V30 9528 N 1115.97 -0.914965 -1.28321 0
M  V30 9529 C 1117.21 -0.547665 -1.94538 0
M  V30 9530 C 1117.53 0.911834 -1.72368 0
M  V30 9531 O 1116.8 1.64481 -1.06408 0
M  V30 9532 H 1115.38 -0.199549 -0.719853 0
M  V30 9533 H 1118.05 -1.16459 -1.5628 0
M  V30 9534 H 1117.14 -0.743138 -3.03124 0
M  V30 9535 N 1117.44 1.42219 -0.679077 0
M  V30 9536 C 1118.39 2.308 -0.00340316 0
M  V30 9537 C 1119.36 1.462 0.788334 0
M  V30 9538 O 1120.55 1.75023 0.759716 0
M  V30 9539 C 1117.69 3.32084 0.938854 0
M  V30 9540 C 1116.8 4.31772 0.140485 0
M  V30 9541 C 1115.93 5.20128 1.07888 0
M  V30 9542 C 1114.97 6.11493 0.27245 0
M  V30 9543 N 1114.11 6.92388 1.16378 0
M  V30 9544 H 1118.95 2.88024 -0.764587 0
M  V30 9545 H 1116.49 1.41869 -0.38878 0
M  V30 9546 H 1118.44 3.89339 1.49903 0
M  V30 9547 H 1117.07 2.76448 1.66662 0
M  V30 9548 H 1116.13 3.76599 -0.536376 0
M  V30 9549 H 1117.44 4.96432 -0.485433 0
M  V30 9550 H 1116.59 5.82137 1.70884 0
M  V30 9551 H 1115.33 4.55655 1.73868 0
M  V30 9552 H 1114.34 5.48549 -0.370693 0
M  V30 9553 H 1115.56 6.78017 -0.383315 0
M  V30 9554 H 1113.51 6.30538 1.8099 0
M  V30 9555 H 1113.42 7.5367 0.593043 0
M  V30 9556 H 1114.69 7.58879 1.78107 0
M  V30 9557 N 1118.92 0.422693 1.51826 0
M  V30 9558 C 1120.2 -0.20786 1.94492 0
M  V30 9559 C 1120.58 -1.61414 1.36047 0
M  V30 9560 O 1119.93 -2.21987 0.541657 0
M  V30 9561 C 1120.14 -0.200457 3.48424 0
M  V30 9562 C 1121.48 -0.413199 4.22585 0
M  V30 9563 O 1122.51 -0.27922 3.55104 0
M  V30 9564 O 1121.37 -0.678469 5.42272 0
M  V30 9565 H 1118.46 -0.137851 0.81543 0
M  V30 9566 H 1121.01 0.479617 1.62781 0
M  V30 9567 H 1119.78 0.783263 3.83381 0
M  V30 9568 H 1119.4 -0.931464 3.86535 0
M  V30 9569 N 1120.4 -1.5685 0.153553 0
M  V30 9570 C 1121.65 -1.95946 -0.494936 0
M  V30 9571 C 1121.97 -1.03975 -1.64967 0
M  V30 9572 O 1121.24 -0.102572 -1.95631 0
M  V30 9573 H 1119.82 -0.723516 -0.185833 0
M  V30 9574 H 1122.48 -1.93531 0.230585 0
M  V30 9575 H 1121.58 -2.99823 -0.866743 0
M  V30 9576 N 1121.88 0.120221 -1.57141 0
M  V30 9577 C 1123.29 0.677497 -1.73974 0
M  V30 9578 C 1123.64 1.80371 -0.772055 0
M  V30 9579 O 1122.76 2.16329 0.0553062 0
M  V30 9580 C 1123.36 1.23575 -3.1546 0
M  V30 9581 C 1121.92 1.73933 -3.33803 0
M  V30 9582 C 1121.07 0.638542 -2.69848 0
M  V30 9583 H 1124.02 -0.105685 -1.58348 0
M  V30 9584 H 1124.04 2.10542 -3.16942 0
M  V30 9585 H 1123.55 0.415851 -3.85866 0
M  V30 9586 H 1121.65 2.58404 -2.68437 0
M  V30 9587 H 1121.76 1.84961 -4.41957 0
M  V30 9588 H 1120.13 1.07185 -2.31049 0
M  V30 9589 H 1120.91 -0.170356 -3.42877 0
M  V30 9590 N 1123.36 1.52689 0.390367 0
M  V30 9591 C 1124.77 1.41909 0.730338 0
M  V30 9592 C 1124.97 0.538427 1.94173 0
M  V30 9593 O 1124.03 0.0113527 2.52497 0
M  V30 9594 C 1125.34 2.84737 0.966714 0
M  V30 9595 C 1126.89 2.94206 1.06827 0
M  V30 9596 C 1127.36 4.38042 1.33728 0
M  V30 9597 N 1128.86 4.4136 1.40553 0
M  V30 9598 C 1129.59 5.49735 1.63031 0
M  V30 9599 N 1129.09 6.68197 1.82988 0
M  V30 9600 N 1130.88 5.37276 1.65199 0
M  V30 9601 H 1123.03 2.08469 -0.406766 0
M  V30 9602 H 1125.29 0.940401 -0.11979 0
M  V30 9603 H 1125 3.51385 0.148725 0
M  V30 9604 H 1124.87 3.26909 1.88176 0
M  V30 9605 H 1127.26 2.27726 1.87683 0
M  V30 9606 H 1127.34 2.55463 0.131168 0
M  V30 9607 H 1126.99 5.05087 0.533832 0
M  V30 9608 H 1126.92 4.74336 2.28721 0
M  V30 9609 H 1129.41 3.55976 1.26844 0
M  V30 9610 H 1129.72 7.46567 1.99643 0
M  V30 9611 H 1128.06 6.71228 1.80215 0
M  V30 9612 H 1131.26 4.437 1.49158 0
M  V30 9613 H 1131.43 6.21806 1.82377 0
M  V30 9614 N 1124.83 -0.648732 1.43629 0
M  V30 9615 C 1126.08 -1.40579 1.45196 0
M  V30 9616 C 1126.4 -1.9484 0.0790556 0
M  V30 9617 O 1125.67 -1.74707 -0.886239 0
M  V30 9618 H 1124.25 -0.52175 0.53459 0
M  V30 9619 H 1126.92 -0.764796 1.79268 0
M  V30 9620 H 1126.01 -2.24591 2.16715 0
M  V30 9621 N 1126.31 -1.30234 -0.887518 0
M  V30 9622 C 1127.72 -1.17048 -1.45453 0
M  V30 9623 C 1128.07 0.229793 -1.9485 0
M  V30 9624 O 1127.2 1.12628 -1.84781 0
M  V30 9625 C 1127.79 -2.11876 -2.64375 0
M  V30 9626 C 1126.35 -2.02676 -3.17174 0
M  V30 9627 C 1125.5 -2.02104 -1.89866 0
M  V30 9628 H 1128.45 -1.42541 -0.697694 0
M  V30 9629 H 1128.47 -1.69811 -3.40506 0
M  V30 9630 H 1127.98 -3.13781 -2.28392 0
M  V30 9631 H 1126.09 -1.03904 -3.57819 0
M  V30 9632 H 1126.2 -2.90939 -3.80646 0
M  V30 9633 H 1124.56 -1.4687 -2.0809 0
M  V30 9634 H 1125.35 -3.05735 -1.56145 0
M  V30 9635 N 1127.79 1.09952 -1.12909 0
M  V30 9636 C 1129.02 1.8579 -0.910483 0
M  V30 9637 C 1129.43 1.80898 0.540484 0
M  V30 9638 O 1128.79 1.20126 1.3739 0
M  V30 9639 C 1128.84 3.33987 -1.38329 0
M  V30 9640 O 1128.56 3.38811 -2.77739 0
M  V30 9641 C 1130.06 4.26683 -1.20234 0
M  V30 9642 H 1127.28 0.587026 -0.325025 0
M  V30 9643 H 1129.83 1.38965 -1.5003 0
M  V30 9644 H 1127.98 3.78259 -0.836592 0
M  V30 9645 H 1128.4 4.31204 -2.98603 0
M  V30 9646 H 1129.87 5.28846 -1.58197 0
M  V30 9647 H 1130.35 4.38966 -0.14344 0
M  V30 9648 H 1130.95 3.88221 -1.73679 0
M  V30 9649 N 1129.27 0.921757 1.27833 0
M  V30 9650 C 1130.52 0.557974 1.94245 0
M  V30 9651 C 1130.84 -0.90268 1.72849 0
M  V30 9652 O 1130.11 -1.63915 1.07279 0
M  V30 9653 H 1128.69 0.203364 0.718785 0
M  V30 9654 H 1131.35 1.17286 1.5566 0
M  V30 9655 H 1130.45 0.759202 3.02725 0
M  V30 9656 N 1130.75 -1.41857 0.686609 0
M  V30 9657 C 1132.16 -1.84439 0.289662 0
M  V30 9658 C 1132.51 -1.57462 -1.17047 0
M  V30 9659 O 1131.63 -1.04046 -1.89745 0
M  V30 9660 C 1132.23 -3.34802 0.518948 0
M  V30 9661 C 1130.79 -3.75988 0.176007 0
M  V30 9662 C 1129.93 -2.65339 0.805632 0
M  V30 9663 H 1132.89 -1.31536 0.88792 0
M  V30 9664 H 1132.91 -3.79833 -0.225209 0
M  V30 9665 H 1132.42 -3.54405 1.58173 0
M  V30 9666 H 1130.52 -3.61989 -0.882865 0
M  V30 9667 H 1130.63 -4.75009 0.624772 0
M  V30 9668 H 1129 -2.53605 0.235966 0
M  V30 9669 H 1129.78 -2.87762 1.8721 0
M  V30 9670 N 1132.22 -0.430739 -1.51599 0
M  V30 9671 C 1133.47 0.139396 -2.01218 0
M  V30 9672 C 1133.79 1.44361 -1.31982 0
M  V30 9673 O 1134.99 2.0963 -1.72533 0
M  V30 9674 C 1133.45 0.298969 -3.58656 0
M  V30 9675 C 1133.06 -0.994424 -4.36824 0
M  V30 9676 C 1134.8 0.82323 -4.16441 0
M  V30 9677 C 1132.71 -0.800855 -5.85952 0
M  V30 9678 H 1131.64 0.0558698 -0.751927 0
M  V30 9679 H 1134.29 -0.559493 -1.74762 0
M  V30 9680 H 1132.67 1.06071 -3.8153 0
M  V30 9681 H 1133.84 -1.76398 -4.257 0
M  V30 9682 H 1132.16 -1.44672 -3.9046 0
M  V30 9683 H 1134.76 0.984434 -5.2556 0
M  V30 9684 H 1135.1 1.80388 -3.75188 0
M  V30 9685 H 1135.63 0.119982 -3.97619 0
M  V30 9686 H 1132.37 -1.75369 -6.31606 0
M  V30 9687 H 1131.89 -0.0709793 -5.99758 0
M  V30 9688 H 1133.57 -0.451459 -6.45423 0
M  V30 9689 N 1133.7 1.56767 -0.161869 0
M  V30 9690 C 1134.95 1.96206 0.484537 0
M  V30 9691 C 1135.27 1.04848 1.64414 0
M  V30 9692 O 1134.54 0.112946 1.95574 0
M  V30 9693 H 1133.12 0.724491 0.181994 0
M  V30 9694 H 1135.78 1.93406 -0.240845 0
M  V30 9695 H 1134.88 3.00279 0.85083 0
M  V30 9696 N 1135.18 -0.111886 1.57202 0
M  V30 9697 C 1136.59 -0.668261 1.74331 0
M  V30 9698 C 1136.94 -1.79959 0.781609 0
M  V30 9699 O 1136.07 -2.16356 -0.043833 0
M  V30 9700 C 1136.66 -1.219 3.1611 0
M  V30 9701 C 1135.22 -1.7216 3.34721 0
M  V30 9702 C 1134.37 -0.624223 2.70183 0
M  V30 9703 H 1137.32 0.114081 1.58289 0
M  V30 9704 H 1137.34 -2.08858 3.18054 0
M  V30 9705 H 1136.85 -0.395381 3.86081 0
M  V30 9706 H 1134.95 -2.56976 2.69803 0
M  V30 9707 H 1135.07 -1.82615 4.42932 0
M  V30 9708 H 1133.43 -1.05958 2.31614 0
M  V30 9709 H 1134.21 0.188537 3.42782 0
M  V30 9710 N 1136.66 -1.52894 -0.382264 0
M  V30 9711 C 1138.07 -1.60135 -0.959887 0
M  V30 9712 C 1138.42 -0.458363 -1.90771 0
M  V30 9713 O 1137.55 0.417614 -2.12332 0
M  V30 9714 C 1138.14 -2.90243 -1.74769 0
M  V30 9715 C 1136.7 -2.99874 -2.27491 0
M  V30 9716 C 1135.85 -2.55302 -1.0824 0
M  V30 9717 H 1138.8 -1.57875 -0.161589 0
M  V30 9718 H 1138.82 -2.77108 -2.60751 0
M  V30 9719 H 1138.33 -3.73412 -1.0576 0
M  V30 9720 H 1136.43 -2.21258 -2.99793 0
M  V30 9721 H 1136.54 -4.04643 -2.56516 0
M  V30 9722 H 1134.91 -2.09781 -1.44444 0
M  V30 9723 H 1135.69 -3.40872 -0.407553 0
M  V30 9724 N 1138.14 0.641106 -1.43971 0
M  V30 9725 C 1139.39 1.39807 -1.4594 0
M  V30 9726 C 1139.71 1.94795 -0.0893874 0
M  V30 9727 O 1138.98 1.75175 0.876962 0
M  V30 9728 H 1137.56 0.518908 -0.537349 0
M  V30 9729 H 1140.22 0.755278 -1.79671 0
M  V30 9730 H 1139.31 2.23439 -2.17903 0
M  V30 9731 N 1139.62 1.30703 0.880598 0
M  V30 9732 C 1141.03 1.17818 1.4483 0
M  V30 9733 C 1141.38 -0.219456 1.94969 0
M  V30 9734 O 1140.5 -1.11646 1.85375 0
M  V30 9735 C 1141.1 2.13275 2.63247 0
M  V30 9736 C 1139.66 2.04356 3.16094 0
M  V30 9737 C 1138.8 2.03108 1.88792 0
M  V30 9738 H 1141.75 1.42909 0.690125 0
M  V30 9739 H 1141.78 1.71615 3.39601 0
M  V30 9740 H 1141.29 3.14988 2.26725 0
M  V30 9741 H 1139.39 1.058 3.57263 0
M  V30 9742 H 1139.5 2.92953 3.79098 0
M  V30 9743 H 1137.87 1.47971 2.07308 0
M  V30 9744 H 1138.65 3.06558 1.54521 0
M  V30 9745 N 1141.09 -1.09351 1.1349 0
M  V30 9746 C 1142.06 -2.14185 0.815919 0
M  V30 9747 C 1143.06 -1.59845 -0.174976 0
M  V30 9748 O 1144.25 -1.74122 0.0521971 0
M  V30 9749 C 1141.38 -3.40224 0.214517 0
M  V30 9750 H 1142.57 -2.43913 1.74489 0
M  V30 9751 H 1140.12 -1.24902 0.939634 0
M  V30 9752 H 1140.86 -3.16123 -0.723634 0
M  V30 9753 H 1140.64 -3.80958 0.928102 0
M  V30 9754 H 1142.13 -4.17599 0.00821999 0
M  V30 9755 N 1142.57 -0.928524 -1.27343 0
M  V30 9756 C 1143.82 -0.568267 -1.93946 0
M  V30 9757 C 1144.14 0.893501 -1.73325 0
M  V30 9758 O 1143.41 1.63344 -1.08147 0
M  V30 9759 H 1141.99 -0.207173 -0.717696 0
M  V30 9760 H 1144.65 -1.1811 -1.55036 0
M  V30 9761 H 1143.75 -0.775246 -3.02318 0
M  V30 9762 N 1144.05 1.41491 -0.694123 0
M  V30 9763 C 1144.98 2.29197 0.0112742 0
M  V30 9764 C 1145.99 1.44708 0.745877 0
M  V30 9765 O 1147.18 1.68227 0.596821 0
M  V30 9766 C 1144.28 3.22547 1.04004 0
M  V30 9767 C 1143.46 4.35787 0.375347 0
M  V30 9768 C 1142.52 5.09722 1.30652 0
M  V30 9769 O 1141.54 5.63558 0.799459 0
M  V30 9770 N 1142.74 5.1705 2.63893 0
M  V30 9771 H 1145.51 2.90377 -0.741705 0
M  V30 9772 H 1143.07 1.52628 -0.540039 0
M  V30 9773 H 1145.06 3.68878 1.66468 0
M  V30 9774 H 1143.63 2.62685 1.69456 0
M  V30 9775 H 1142.85 3.91857 -0.429145 0
M  V30 9776 H 1144.14 5.08726 -0.0869041 0
M  V30 9777 H 1143.54 4.74756 3.07609 0
M  V30 9778 H 1142.09 5.66962 3.21555 0
M  V30 9779 N 1145.53 0.438773 1.51369 0
M  V30 9780 C 1146.94 -0.0240139 1.86685 0
M  V30 9781 C 1147.29 -1.41816 1.35583 0
M  V30 9782 O 1146.41 -2.04517 0.707232 0
M  V30 9783 C 1147.01 -0.0503527 3.38763 0
M  V30 9784 C 1145.57 -0.457556 3.73609 0
M  V30 9785 C 1144.72 0.348852 2.75097 0
M  V30 9786 H 1147.67 0.654552 1.44573 0
M  V30 9787 H 1147.69 -0.859534 3.70665 0
M  V30 9788 H 1147.2 0.964451 3.75925 0
M  V30 9789 H 1145.3 -1.47791 3.42036 0
M  V30 9790 H 1145.41 -0.181357 4.78757 0
M  V30 9791 H 1143.78 -0.193037 2.53967 0
M  V30 9792 H 1144.56 1.36256 3.15102 0
M  V30 9793 N 1147.01 -1.56678 0.170181 0
M  V30 9794 C 1148.25 -1.9646 -0.474125 0
M  V30 9795 C 1148.57 -1.05719 -1.63855 0
M  V30 9796 O 1147.84 -0.123316 -1.95511 0
M  V30 9797 H 1146.42 -0.725446 -0.178149 0
M  V30 9798 H 1149.09 -1.93276 0.251099 0
M  V30 9799 H 1148.18 -3.00726 -0.834894 0
M  V30 9800 N 1148.48 0.103547 -1.57259 0
M  V30 9801 C 1149.76 0.839768 -1.76656 0
M  V30 9802 C 1150.14 1.9734 -0.749666 0
M  V30 9803 O 1149.49 2.27405 0.223466 0
M  V30 9804 C 1149.7 1.34218 -3.22159 0
M  V30 9805 C 1151.05 1.78835 -3.85102 0
M  V30 9806 O 1152.07 1.43861 -3.25857 0
M  V30 9807 O 1150.93 2.43474 -4.89267 0
M  V30 9808 H 1148.02 0.399928 -0.723869 0
M  V30 9809 H 1150.57 0.0860857 -1.69482 0
M  V30 9810 H 1149.34 0.52956 -3.877 0
M  V30 9811 H 1148.96 2.15811 -3.33933 0
M  V30 9812 N 1149.96 1.53094 0.37415 0
M  V30 9813 C 1150.91 1.78927 1.45787 0
M  V30 9814 C 1151.88 0.633187 1.53558 0
M  V30 9815 O 1153.06 0.874472 1.69581 0
M  V30 9816 C 1150.2 1.97726 2.8284 0
M  V30 9817 C 1149.32 3.25436 2.84104 0
M  V30 9818 C 1148.45 3.3447 4.12678 0
M  V30 9819 C 1147.49 4.56246 4.08051 0
M  V30 9820 N 1146.63 4.6248 5.28258 0
M  V30 9821 H 1151.47 2.71404 1.2306 0
M  V30 9822 H 1149 1.34453 0.596716 0
M  V30 9823 H 1150.96 2.06611 3.62447 0
M  V30 9824 H 1149.59 1.08593 3.03986 0
M  V30 9825 H 1148.64 3.25548 1.96781 0
M  V30 9826 H 1149.96 4.15112 2.76556 0
M  V30 9827 H 1149.11 3.4262 5.00696 0
M  V30 9828 H 1147.85 2.42795 4.22968 0
M  V30 9829 H 1146.85 4.48206 3.1842 0
M  V30 9830 H 1148.08 5.49254 3.99371 0
M  V30 9831 H 1146.03 3.73703 5.3915 0
M  V30 9832 H 1145.94 5.46049 5.22845 0
M  V30 9833 H 1147.21 4.74903 6.18132 0
M  V30 9834 N 1151.44 -0.633461 1.44309 0
M  V30 9835 C 1152.69 -1.39031 1.46679 0
M  V30 9836 C 1153.01 -1.94745 0.0997165 0
M  V30 9837 O 1152.28 -1.75637 -0.867659 0
M  V30 9838 H 1150.86 -0.516051 0.540093 0
M  V30 9839 H 1153.52 -0.745739 1.80069 0
M  V30 9840 H 1152.62 -2.2228 2.19085 0
M  V30 9841 N 1152.92 -1.31168 -0.873655 0
M  V30 9842 C 1153.83 -1.20458 -2.01313 0
M  V30 9843 C 1154.84 -0.122074 -1.73571 0
M  V30 9844 O 1156.02 -0.339176 -1.98523 0
M  V30 9845 C 1153.09 -0.90876 -3.34578 0
M  V30 9846 C 1152.15 -2.07779 -3.75668 0
M  V30 9847 C 1151.38 -1.79599 -5.02573 0
M  V30 9848 O 1151.6 -0.729338 -5.65718 0
M  V30 9849 O 1150.54 -2.65169 -5.40341 0
M  V30 9850 H 1154.36 -2.16207 -2.13279 0
M  V30 9851 H 1151.95 -1.10871 -1.00139 0
M  V30 9852 H 1153.83 -0.759469 -4.145 0
M  V30 9853 H 1152.5 0.0187249 -3.23695 0
M  V30 9854 H 1151.41 -2.28247 -2.96402 0
M  V30 9855 H 1152.74 -2.9874 -3.91172 0
M  V30 9856 N 1154.4 1.08748 -1.14068 0
M  V30 9857 C 1155.64 1.80707 -0.904947 0
M  V30 9858 C 1155.97 1.86478 0.570167 0
M  V30 9859 O 1155.24 1.35536 1.41445 0
M  V30 9860 H 1153.82 0.669261 -0.331811 0
M  V30 9861 H 1156.48 1.31494 -1.43859 0
M  V30 9862 H 1155.57 2.83653 -1.30182 0
M  V30 9863 N 1155.87 0.935264 1.26849 0
M  V30 9864 C 1157.12 0.578545 1.93642 0
M  V30 9865 C 1157.44 -0.884296 1.73796 0
M  V30 9866 O 1156.71 -1.62768 1.09011 0
M  V30 9867 H 1155.29 0.210976 0.716588 0
M  V30 9868 H 1157.96 1.1893 1.54407 0
M  V30 9869 H 1157.05 0.791268 3.01903 0
M  V30 9870 N 1157.35 -1.41121 0.701616 0
M  V30 9871 C 1158.32 -2.29148 0.0490091 0
M  V30 9872 C 1159.32 -1.44679 -0.701763 0
M  V30 9873 O 1160.51 -1.65757 -0.53575 0
M  V30 9874 C 1157.64 -3.2766 -0.940837 0
M  V30 9875 H 1158.83 -2.88354 0.824133 0
M  V30 9876 H 1156.38 -1.49209 0.465457 0
M  V30 9877 H 1157.12 -2.73445 -1.74351 0
M  V30 9878 H 1156.9 -3.89997 -0.405551 0
M  V30 9879 H 1158.39 -3.93609 -1.39507 0
M  V30 9880 N 1158.83 -0.446794 -1.51134 0
M  V30 9881 C 1160.24 0.0141132 -1.86695 0
M  V30 9882 C 1160.59 1.41095 -1.36333 0
M  V30 9883 O 1159.72 2.04139 -0.718068 0
M  V30 9884 C 1160.31 0.0323866 -3.38785 0
M  V30 9885 C 1158.87 0.437737 -3.73846 0
M  V30 9886 C 1158.02 -0.363436 -2.74908 0
M  V30 9887 H 1160.97 -0.66221 -1.44224 0
M  V30 9888 H 1160.99 0.839865 -3.71115 0
M  V30 9889 H 1160.5 -0.984374 -3.75409 0
M  V30 9890 H 1158.6 1.45975 -3.42815 0
M  V30 9891 H 1158.72 0.155964 -4.78846 0
M  V30 9892 H 1157.08 0.179566 -2.54066 0
M  V30 9893 H 1157.86 -1.37925 -3.14375 0
M  V30 9894 N 1160.31 1.56586 -0.178487 0
M  V30 9895 C 1161.56 1.96709 0.4637 0
M  V30 9896 C 1161.88 1.06586 1.63292 0
M  V30 9897 O 1161.15 0.133683 1.95443 0
M  V30 9898 H 1159.73 0.726381 0.174299 0
M  V30 9899 H 1162.39 1.9314 -0.261345 0
M  V30 9900 H 1161.49 3.01164 0.818934 0
M  V30 9901 N 1161.79 -0.095206 1.57312 0
M  V30 9902 C 1162.72 -1.11627 2.05089 0
M  V30 9903 C 1163.7 -1.41782 0.939787 0
M  V30 9904 O 1164.88 -1.51813 1.21105 0
M  V30 9905 C 1162.01 -2.43618 2.47523 0
M  V30 9906 C 1160.97 -2.27872 3.62296 0
M  V30 9907 C 1160.29 -3.65038 3.90706 0
M  V30 9908 C 1161.59 -1.71936 4.93189 0
M  V30 9909 H 1163.29 -0.718795 2.90644 0
M  V30 9910 H 1160.83 -0.344315 1.39823 0
M  V30 9911 H 1162.79 -3.1532 2.79556 0
M  V30 9912 H 1161.51 -2.85301 1.58968 0
M  V30 9913 H 1160.17 -1.58615 3.3051 0
M  V30 9914 H 1159.82 -4.04249 2.99319 0
M  V30 9915 H 1159.52 -3.55349 4.67976 0
M  V30 9916 H 1161.04 -4.38208 4.25213 0
M  V30 9917 H 1162.45 -2.33479 5.23603 0
M  V30 9918 H 1160.85 -1.73006 5.74621 0
M  V30 9919 H 1161.92 -0.678789 4.80125 0
M  V30 9920 N 1163.26 -1.53291 -0.366026 0
M  V30 9921 C 1164.68 -1.61144 -0.942849 0
M  V30 9922 C 1165.03 -0.478571 -1.90274 0
M  V30 9923 O 1164.15 0.395069 -2.12763 0
M  V30 9924 C 1164.75 -2.92081 -1.71681 0
M  V30 9925 C 1163.31 -3.0227 -2.24298 0
M  V30 9926 C 1162.45 -2.56436 -1.05526 0
M  V30 9927 H 1165.4 -1.58038 -0.144835 0
M  V30 9928 H 1165.42 -2.79858 -2.57798 0
M  V30 9929 H 1164.94 -3.74513 -1.01793 0
M  V30 9930 H 1163.04 -2.24425 -2.97429 0
M  V30 9931 H 1163.15 -4.07341 -2.5221 0
M  V30 9932 H 1161.51 -2.11301 -1.42211 0
M  V30 9933 H 1162.3 -3.41285 -0.371376 0
M  V30 9934 N 1164.74 0.6258 -1.44643 0
M  V30 9935 C 1165.99 1.38251 -1.47414 0
M  V30 9936 C 1166.31 1.94689 -0.110043 0
M  V30 9937 O 1165.58 1.76095 0.858333 0
M  V30 9938 H 1164.16 0.513179 -0.542823 0
M  V30 9939 H 1166.82 0.736179 -1.80462 0
M  V30 9940 H 1165.92 2.21115 -2.2026 0
M  V30 9941 N 1166.22 1.31629 0.866686 0
M  V30 9942 C 1167.47 1.20861 1.61479 0
M  V30 9943 C 1167.78 -0.231208 1.94229 0
M  V30 9944 O 1168.99 -0.460618 2.67564 0
M  V30 9945 C 1167.44 2.11602 2.91123 0
M  V30 9946 C 1167.05 3.60598 2.65844 0
M  V30 9947 C 1168.8 2.09642 3.69121 0
M  V30 9948 C 1166.7 4.43337 3.91415 0
M  V30 9949 H 1165.63 0.448783 0.605896 0
M  V30 9950 H 1168.28 1.56507 0.958001 0
M  V30 9951 H 1166.67 1.68858 3.58194 0
M  V30 9952 H 1167.84 4.11609 2.07159 0
M  V30 9953 H 1166.16 3.64568 2.01194 0
M  V30 9954 H 1168.75 2.68701 4.62281 0
M  V30 9955 H 1169.1 1.08438 4.01929 0
M  V30 9956 H 1169.63 2.50603 3.08938 0
M  V30 9957 H 1166.37 5.45309 3.63756 0
M  V30 9958 H 1165.89 3.97083 4.49539 0
M  V30 9959 H 1167.57 4.5572 4.5927 0
M  V30 9960 N 1167.7 -1.08142 1.14644 0
M  V30 9961 C 1168.66 -2.13308 0.83859 0
M  V30 9962 C 1169.66 -1.60022 -0.158012 0
M  V30 9963 O 1170.85 -1.74057 0.0706621 0
M  V30 9964 C 1167.98 -3.39978 0.250591 0
M  V30 9965 H 1169.18 -2.42049 1.77066 0
M  V30 9966 H 1166.73 -1.23899 0.952828 0
M  V30 9967 H 1167.47 -3.16873 -0.690064 0
M  V30 9968 H 1167.25 -3.79952 0.968456 0
M  V30 9969 H 1168.74 -4.17567 0.0525115 0
M  V30 9970 N 1169.18 -0.941978 -1.26351 0
M  V30 9971 C 1170.43 -0.588806 -1.93333 0
M  V30 9972 C 1170.75 0.875067 -1.74263 0
M  V30 9973 O 1170.02 1.62187 -1.09873 0
M  V30 9974 H 1168.6 -0.214774 -0.715459 0
M  V30 9975 H 1171.26 -1.19747 -1.53774 0
M  V30 9976 H 1170.35 -0.807267 -3.01479 0
M  V30 9977 N 1170.66 1.40747 -0.709091 0
M  V30 9978 C 1172.07 1.83955 -0.318968 0
M  V30 9979 C 1172.42 1.59304 1.14527 0
M  V30 9980 O 1171.54 1.07052 1.88066 0
M  V30 9981 C 1172.14 3.33934 -0.572147 0
M  V30 9982 C 1170.7 3.75661 -0.235802 0
M  V30 9983 C 1169.84 2.64024 -0.847743 0
M  V30 9984 H 1172.79 1.30107 -0.908734 0
M  V30 9985 H 1172.82 3.80143 0.164752 0
M  V30 9986 H 1172.33 3.51844 -1.63791 0
M  V30 9987 H 1170.43 3.63348 0.825164 0
M  V30 9988 H 1170.54 4.73955 -0.700263 0
M  V30 9989 H 1168.91 2.53197 -0.276283 0
M  V30 9990 H 1169.69 2.84748 -1.91765 0
M  V30 9991 N 1172.13 0.454803 1.50895 0
M  V30 9992 C 1173.55 0.108037 1.59234 0
M  V30 9993 C 1173.75 -1.38416 1.46435 0
M  V30 9994 O 1172.81 -2.15586 1.31449 0
M  V30 9995 C 1174.12 0.643721 2.93729 0
M  V30 9996 C 1175.67 0.605703 3.07083 0
M  V30 9997 C 1176.14 1.11865 4.44128 0
M  V30 9998 N 1177.63 1.07738 4.50496 0
M  V30 9999 C 1178.37 1.44495 5.54895 0
M  V30 10000 N 1177.86 1.88624 6.66628 0
M  V30 10001 N 1179.66 1.36201 5.45349 0
M  V30 10002 H 1171.81 1.4255 1.57459 0
M  V30 10003 H 1174.07 0.588504 0.743214 0
M  V30 10004 H 1173.78 1.68844 3.0852 0
M  V30 10005 H 1173.65 0.0782404 3.77119 0
M  V30 10006 H 1176.04 -0.430065 2.91949 0
M  V30 10007 H 1176.12 1.2078 2.2549 0
M  V30 10008 H 1175.76 2.15297 4.6001 0
M  V30 10009 H 1175.69 0.492933 5.24288 0
M  V30 10010 H 1178.18 0.753526 3.70311 0
M  V30 10011 H 1178.5 2.14863 7.4233 0
M  V30 10012 H 1176.84 1.92564 6.6779 0
M  V30 10013 H 1180.03 1.01579 4.56946 0
M  V30 10014 H 1180.21 1.65175 6.26595 0
M  V30 10015 N 1173.61 -1.56489 0.186789 0
M  V30 10016 C 1174.86 -1.96952 -0.453261 0
M  V30 10017 C 1175.18 -1.07451 -1.62725 0
M  V30 10018 O 1174.45 -0.144046 -1.9537 0
M  V30 10019 H 1173.03 -0.727295 -0.170445 0
M  V30 10020 H 1175.69 -1.92999 0.271584 0
M  V30 10021 H 1174.79 -3.01594 -0.802951 0
M  V30 10022 N 1175.09 0.086862 -1.5736 0
M  V30 10023 C 1176.31 0.806017 -1.91097 0
M  V30 10024 C 1176.74 1.71082 -0.78183 0
M  V30 10025 O 1176.1 1.79335 0.266175 0
M  V30 10026 C 1176.15 1.5884 -3.23732 0
M  V30 10027 O 1175.25 2.69798 -3.11902 0
M  V30 10028 H 1174.59 0.220899 -0.626179 0
M  V30 10029 H 1177.12 0.059619 -2.04513 0
M  V30 10030 H 1177.13 1.97088 -3.5724 0
M  V30 10031 H 1175.81 0.924426 -4.05496 0
M  V30 10032 H 1174.38 2.34519 -2.89923 0
M  V30 10033 N 1176.57 1.53483 0.357892 0
M  V30 10034 C 1177.98 1.61641 0.934289 0
M  V30 10035 C 1178.33 0.488655 1.90017 0
M  V30 10036 O 1177.45 -0.38378 2.1297 0
M  V30 10037 C 1178.05 2.92987 1.7013 0
M  V30 10038 C 1176.61 3.03456 2.22692 0
M  V30 10039 C 1175.76 2.56992 1.04165 0
M  V30 10040 H 1178.71 1.58112 0.136452 0
M  V30 10041 H 1178.73 2.81221 2.5631 0
M  V30 10042 H 1178.24 3.75047 0.998056 0
M  V30 10043 H 1176.34 2.25999 2.96235 0
M  V30 10044 H 1176.45 4.08673 2.50046 0
M  V30 10045 H 1174.82 2.12052 1.41088 0
M  V30 10046 H 1175.6 3.41477 0.353272 0
M  V30 10047 N 1178.05 -0.61812 1.44973 0
M  V30 10048 C 1179.29 -1.37468 1.48145 0
M  V30 10049 C 1179.61 -1.94628 0.120366 0
M  V30 10050 O 1178.88 -1.76548 -0.848982 0
M  V30 10051 H 1177.46 -0.510293 0.545536 0
M  V30 10052 H 1180.13 -0.726598 1.8085 0
M  V30 10053 H 1179.22 -2.19944 2.2143 0
M  V30 10054 N 1179.52 -1.32087 -0.859693 0
M  V30 10055 C 1180.43 -1.22587 -2.00024 0
M  V30 10056 C 1181.45 -0.140477 -1.73432 0
M  V30 10057 O 1182.63 -0.360213 -1.98153 0
M  V30 10058 C 1179.69 -0.944195 -3.33595 0
M  V30 10059 C 1178.75 -2.11752 -3.73443 0
M  V30 10060 C 1177.98 -1.84919 -5.0064 0
M  V30 10061 O 1178.21 -0.789299 -5.64913 0
M  V30 10062 O 1177.14 -2.70885 -5.37499 0
M  V30 10063 H 1180.97 -2.18457 -2.10974 0
M  V30 10064 H 1178.55 -1.11927 -0.989577 0
M  V30 10065 H 1180.43 -0.803389 -4.13671 0
M  V30 10066 H 1179.11 -0.0156083 -3.23696 0
M  V30 10067 H 1178.02 -2.31378 -2.93965 0
M  V30 10068 H 1179.35 -3.02872 -3.87981 0
M  V30 10069 N 1181 1.07532 -1.15215 0
M  V30 10070 C 1182.42 1.32183 -0.894411 0
M  V30 10071 C 1182.62 1.96188 0.459614 0
M  V30 10072 O 1181.67 2.22057 1.20195 0
M  V30 10073 C 1182.99 2.21473 -2.03397 0
M  V30 10074 C 1184.53 2.34927 -2.06829 0
M  V30 10075 C 1185.01 3.27564 -3.20103 0
M  V30 10076 N 1186.5 3.35144 -3.19738 0
M  V30 10077 C 1187.24 4.0688 -4.04025 0
M  V30 10078 N 1186.73 4.81246 -4.98371 0
M  V30 10079 N 1188.52 4.02802 -3.92055 0
M  V30 10080 H 1180.68 0.643732 -2.0241 0
M  V30 10081 H 1182.94 0.346272 -0.882496 0
M  V30 10082 H 1182.64 1.81701 -3.01127 0
M  V30 10083 H 1182.52 3.2199 -1.96475 0
M  V30 10084 H 1184.91 2.73953 -1.09699 0
M  V30 10085 H 1184.99 1.34121 -2.17819 0
M  V30 10086 H 1184.63 2.89258 -4.17483 0
M  V30 10087 H 1184.56 4.2832 -3.06349 0
M  V30 10088 H 1187.05 2.82135 -2.51412 0
M  V30 10089 H 1187.36 5.33472 -5.59131 0
M  V30 10090 H 1185.71 4.80268 -5.02362 0
M  V30 10091 H 1188.9 3.43816 -3.17661 0
M  V30 10092 H 1189.07 4.58443 -4.57967 0
M  V30 10093 N 1182.48 0.948665 1.2585 0
M  V30 10094 C 1183.73 0.59905 1.93018 0
M  V30 10095 C 1184.05 -0.865813 1.74725 0
M  V30 10096 O 1183.32 -1.61602 1.10732 0
M  V30 10097 H 1181.9 0.218565 0.71431 0
M  V30 10098 H 1184.56 1.20561 1.53137 0
M  V30 10099 H 1183.66 0.823244 3.01047 0
M  V30 10100 N 1183.96 -1.40369 0.716545 0
M  V30 10101 C 1184.87 -2.34508 0.065658 0
M  V30 10102 C 1185.88 -1.57352 -0.742723 0
M  V30 10103 O 1187.06 -1.89735 -0.675456 0
M  V30 10104 C 1184.13 -3.36262 -0.844337 0
M  V30 10105 C 1183.19 -4.29292 -0.0257971 0
M  V30 10106 C 1182.42 -5.26185 -0.892452 0
M  V30 10107 O 1182.64 -5.29071 -2.13166 0
M  V30 10108 O 1181.58 -6.0099 -0.330933 0
M  V30 10109 H 1185.4 -2.91789 0.842184 0
M  V30 10110 H 1182.99 -1.41579 0.477034 0
M  V30 10111 H 1184.87 -3.98661 -1.36555 0
M  V30 10112 H 1183.54 -2.81393 -1.59999 0
M  V30 10113 H 1182.45 -3.70175 0.540512 0
M  V30 10114 H 1183.78 -4.87316 0.69166 0
M  V30 10115 N 1185.44 -0.462799 -1.50652 0
M  V30 10116 C 1186.66 0.0929761 -2.06691 0
M  V30 10117 C 1187.08 1.34241 -1.32758 0
M  V30 10118 O 1186.44 1.78187 -0.394427 0
M  V30 10119 C 1186.49 0.389492 -3.59396 0
M  V30 10120 O 1186.21 -0.810379 -4.3054 0
M  V30 10121 C 1187.71 0.993147 -4.32032 0
M  V30 10122 H 1184.93 -0.00338664 -0.670991 0
M  V30 10123 H 1187.47 -0.649201 -1.93922 0
M  V30 10124 H 1185.63 1.08159 -3.71995 0
M  V30 10125 H 1186.04 -0.54996 -5.21609 0
M  V30 10126 H 1187.52 1.15044 -5.39878 0
M  V30 10127 H 1187.99 1.98106 -3.91983 0
M  V30 10128 H 1188.6 0.339677 -4.23941 0
M  V30 10129 N 1186.91 1.56388 -0.195085 0
M  V30 10130 C 1188.16 1.97189 0.44281 0
M  V30 10131 C 1188.48 1.08312 1.62153 0
M  V30 10132 O 1187.75 0.154404 1.95291 0
M  V30 10133 H 1186.33 0.728188 0.166585 0
M  V30 10134 H 1189 1.92852 -0.281815 0
M  V30 10135 H 1188.09 3.02016 0.786945 0
M  V30 10136 N 1188.39 -0.0785156 1.57404 0
M  V30 10137 C 1189.8 -0.631132 1.75709 0
M  V30 10138 C 1190.15 -1.78261 0.819605 0
M  V30 10139 O 1189.28 -2.164 0.00206912 0
M  V30 10140 C 1189.87 -1.15168 3.18625 0
M  V30 10141 C 1188.43 -1.65021 3.38297 0
M  V30 10142 C 1187.58 -0.566773 2.71446 0
M  V30 10143 H 1190.53 0.147631 1.58012 0
M  V30 10144 H 1190.55 -2.02065 3.22413 0
M  V30 10145 H 1190.06 -0.313399 3.86833 0
M  V30 10146 H 1188.17 -2.51196 2.75194 0
M  V30 10147 H 1188.28 -1.73179 4.46706 0
M  V30 10148 H 1186.64 -1.01021 2.33809 0
M  V30 10149 H 1187.43 0.261204 3.42305 0
M  V30 10150 N 1189.87 -1.5367 -0.349747 0
M  V30 10151 C 1191.28 -1.62135 -0.925704 0
M  V30 10152 C 1191.63 -0.498725 -1.89756 0
M  V30 10153 O 1190.76 0.372481 -2.1317 0
M  V30 10154 C 1191.35 -2.93885 -1.68573 0
M  V30 10155 C 1189.91 -3.04632 -2.2108 0
M  V30 10156 C 1189.06 -2.57541 -1.02801 0
M  V30 10157 H 1192.01 -1.58182 -0.128065 0
M  V30 10158 H 1192.03 -2.82577 -2.54815 0
M  V30 10159 H 1191.54 -3.75571 -0.978153 0
M  V30 10160 H 1189.64 -2.27567 -2.95032 0
M  V30 10161 H 1189.76 -4.09993 -2.47876 0
M  V30 10162 H 1188.12 -2.12798 -1.39962 0
M  V30 10163 H 1188.9 -3.4166 -0.335157 0
M  V30 10164 N 1191.35 0.610423 -1.45298 0
M  V30 10165 C 1192.6 1.3668 -1.48872 0
M  V30 10166 C 1192.92 1.94562 -0.130686 0
M  V30 10167 O 1192.19 1.76996 0.839607 0
M  V30 10168 H 1190.77 0.507393 -0.548235 0
M  V30 10169 H 1193.43 0.716997 -1.81232 0
M  V30 10170 H 1192.53 2.18766 -2.22593 0
M  V30 10171 N 1192.83 1.32541 0.852676 0
M  V30 10172 C 1194.24 1.20863 1.42299 0
M  V30 10173 C 1194.59 -0.178051 1.9539 0
M  V30 10174 O 1193.71 -1.07689 1.87702 0
M  V30 10175 C 1194.31 2.18811 2.58664 0
M  V30 10176 C 1192.87 2.11015 3.11689 0
M  V30 10177 C 1192.01 2.07067 1.84441 0
M  V30 10178 H 1194.97 1.44341 0.659657 0
M  V30 10179 H 1194.99 1.78779 3.35884 0
M  V30 10180 H 1194.5 3.19726 2.19993 0
M  V30 10181 H 1192.6 1.13354 3.54939 0
M  V30 10182 H 1192.71 3.00929 3.72799 0
M  V30 10183 H 1191.08 1.52335 2.04123 0
M  V30 10184 H 1191.86 3.09767 1.47984 0
M  V30 10185 N 1194.3 -1.0692 1.15784 0
M  V30 10186 C 1195.27 -2.12407 0.861167 0
M  V30 10187 C 1196.27 -1.6018 -0.141031 0
M  V30 10188 O 1197.46 -1.73972 0.0891192 0
M  V30 10189 C 1194.59 -3.39693 0.286636 0
M  V30 10190 H 1195.78 -2.40157 1.79623 0
M  V30 10191 H 1193.34 -1.22881 0.965916 0
M  V30 10192 H 1194.07 -3.17587 -0.656417 0
M  V30 10193 H 1193.86 -3.78903 1.0087 0
M  V30 10194 H 1195.35 -4.17488 0.0967971 0
M  V30 10195 N 1195.78 -0.955326 -1.25345 0
M  V30 10196 C 1197.03 -0.609278 -1.92697 0
M  V30 10197 C 1197.35 0.856535 -1.75181 0
M  V30 10198 O 1196.62 1.61013 -1.11587 0
M  V30 10199 H 1195.2 -0.22235 -0.713141 0
M  V30 10200 H 1197.86 -1.21372 -1.52496 0
M  V30 10201 H 1196.96 -0.839198 -3.00606 0
M  V30 10202 N 1197.26 1.39987 -0.723979 0
M  V30 10203 C 1198.51 2.00731 -0.267115 0
M  V30 10204 C 1198.84 1.57424 1.14228 0
M  V30 10205 O 1198.09 0.789205 1.79081 0
M  V30 10206 C 1198.39 3.56101 -0.304472 0
M  V30 10207 C 1198.06 4.1902 -1.66533 0
M  V30 10208 C 1196.72 4.3592 -2.03783 0
M  V30 10209 C 1199.07 4.54034 -2.55935 0
M  V30 10210 C 1196.4 4.85119 -3.29964 0
M  V30 10211 C 1198.75 5.04637 -3.81477 0
M  V30 10212 C 1197.41 5.19745 -4.18833 0
M  V30 10213 H 1196.68 0.734525 -0.0977442 0
M  V30 10214 H 1199.33 1.67476 -0.928659 0
M  V30 10215 H 1197.64 3.89314 0.440647 0
M  V30 10216 H 1199.33 4.00944 0.0669875 0
M  V30 10217 H 1195.92 4.0626 -1.36569 0
M  V30 10218 H 1200.11 4.40606 -2.2843 0
M  V30 10219 H 1195.36 4.95001 -3.58865 0
M  V30 10220 H 1199.54 5.30705 -4.50916 0
M  V30 10221 H 1197.16 5.5763 -5.16675 0
M  V30 10222 N 1198.74 0.470782 1.50404 0
M  V30 10223 C 1200.15 0.0155901 1.86693 0
M  V30 10224 C 1200.5 -1.38908 1.38561 0
M  V30 10225 O 1199.63 -2.02971 0.750454 0
M  V30 10226 C 1200.22 0.0215152 3.38793 0
M  V30 10227 C 1198.78 -0.378206 3.74495 0
M  V30 10228 C 1197.93 0.407126 2.74295 0
M  V30 10229 H 1200.88 0.68507 1.43152 0
M  V30 10230 H 1200.9 -0.780717 3.72404 0
M  V30 10231 H 1200.41 1.04397 3.73795 0
M  V30 10232 H 1198.51 -1.40503 3.45094 0
M  V30 10233 H 1198.63 -0.0797643 4.79034 0
M  V30 10234 H 1196.99 -0.139123 2.5432 0
M  V30 10235 H 1197.77 1.42909 3.12141 0
M  V30 10236 N 1200.22 -1.56282 0.203376 0
M  V30 10237 C 1201.47 -1.97421 -0.432346 0
M  V30 10238 C 1201.79 -1.0917 -1.61576 0
M  V30 10239 O 1201.06 -0.164759 -1.95206 0
M  V30 10240 H 1199.64 -0.729062 -0.162721 0
M  V30 10241 H 1202.3 -1.927 0.292039 0
M  V30 10242 H 1201.39 -3.02429 -0.770918 0
M  V30 10243 N 1201.7 0.070167 -1.57444 0
M  V30 10244 C 1202.66 1.06761 -2.02817 0
M  V30 10245 C 1203.66 1.31498 -0.925462 0
M  V30 10246 O 1204.85 1.27192 -1.19029 0
M  V30 10247 C 1201.98 2.41086 -2.41019 0
M  V30 10248 H 1203.17 0.67651 -2.9217 0
M  V30 10249 H 1200.73 0.315936 -1.53074 0
M  V30 10250 H 1201.46 2.85025 -1.54697 0
M  V30 10251 H 1201.25 2.24472 -3.21488 0
M  V30 10252 H 1202.74 3.12778 -2.76694 0
M  V30 10253 N 1203.17 1.53854 0.341593 0
M  V30 10254 C 1204.58 1.62623 0.917093 0
M  V30 10255 C 1204.94 0.508781 1.89488 0
M  V30 10256 O 1204.06 -0.361171 2.13365 0
M  V30 10257 C 1204.66 2.94775 1.67012 0
M  V30 10258 C 1203.21 3.058 2.19461 0
M  V30 10259 C 1202.36 2.58082 1.01433 0
M  V30 10260 H 1205.31 1.58248 0.119674 0
M  V30 10261 H 1205.33 2.83924 2.53313 0
M  V30 10262 H 1204.85 3.76085 0.958221 0
M  V30 10263 H 1202.95 2.29128 2.93821 0
M  V30 10264 H 1203.06 4.11302 2.45698 0
M  V30 10265 H 1201.42 2.13537 1.38831 0
M  V30 10266 H 1202.21 3.41833 0.317033 0
M  V30 10267 N 1204.65 -0.602709 1.4562 0
M  V30 10268 C 1205.9 -1.35889 1.49595 0
M  V30 10269 C 1206.22 -1.9449 0.141002 0
M  V30 10270 O 1205.49 -1.77438 -0.830209 0
M  V30 10271 H 1204.07 -0.504478 0.550918 0
M  V30 10272 H 1206.73 -0.707376 1.8161 0
M  V30 10273 H 1205.83 -2.17583 2.2375 0
M  V30 10274 N 1206.13 -1.32992 -0.845635 0
M  V30 10275 C 1207.06 -1.18513 -1.96182 0
M  V30 10276 C 1208.07 -0.11781 -1.62373 0
M  V30 10277 O 1209.26 -0.36761 -1.74674 0
M  V30 10278 C 1206.36 -0.793812 -3.29472 0
M  V30 10279 C 1205.54 -1.95134 -3.91461 0
M  V30 10280 C 1204.6 -1.54209 -5.03096 0
M  V30 10281 O 1203.62 -2.25545 -5.22607 0
M  V30 10282 N 1204.82 -0.443235 -5.78805 0
M  V30 10283 H 1207.59 -2.14663 -2.09141 0
M  V30 10284 H 1205.15 -1.25648 -1.02099 0
M  V30 10285 H 1207.14 -0.502263 -4.01571 0
M  V30 10286 H 1205.71 0.0768031 -3.12506 0
M  V30 10287 H 1204.93 -2.40889 -3.12035 0
M  V30 10288 H 1206.22 -2.72604 -4.2961 0
M  V30 10289 H 1205.62 0.150298 -5.655 0
M  V30 10290 H 1204.17 -0.211331 -6.51457 0
M  V30 10291 N 1207.61 1.06304 -1.1635 0
M  V30 10292 C 1208.56 2.15879 -0.865967 0
M  V30 10293 C 1209.55 1.68595 0.164929 0
M  V30 10294 O 1210.76 1.7999 0.0189271 0
M  V30 10295 H 1207.13 0.704721 -0.262435 0
M  V30 10296 H 1209.1 2.38185 -1.79751 0
M  V30 10297 C 1207.85 3.4558 -0.383374 0
M  V30 10298 H 1207.17 3.82356 -1.16806 0
M  V30 10299 H 1208.61 4.2346 -0.213964 0
M  V30 10300 C 1207.07 3.24738 0.897044 0
M  V30 10301 O 1207.6 3.50284 1.96632 0
M  V30 10302 N 1205.81 2.78172 0.840761 0
M  V30 10303 H 1205.36 2.57583 -0.029584 0
M  V30 10304 H 1205.31 2.64606 1.69797 0
M  V30 10305 N 1209.09 0.96196 1.24836 0
M  V30 10306 C 1210.33 0.619489 1.92371 0
M  V30 10307 C 1210.65 -0.847233 1.75633 0
M  V30 10308 O 1209.92 -1.60419 1.12439 0
M  V30 10309 H 1208.5 0.226129 0.711951 0
M  V30 10310 H 1211.17 1.22179 1.5185 0
M  V30 10311 H 1210.26 0.855128 3.00157 0
M  V30 10312 N 1210.56 -1.39601 0.731392 0
M  V30 10313 C 1211.47 -2.34425 0.090527 0
M  V30 10314 C 1212.49 -1.58131 -0.725992 0
M  V30 10315 O 1213.67 -1.90441 -0.655294 0
M  V30 10316 C 1210.73 -3.37138 -0.808624 0
M  V30 10317 C 1209.79 -4.29295 0.0197365 0
M  V30 10318 C 1209.02 -5.27102 -0.836593 0
M  V30 10319 O 1209.25 -5.31302 -2.07543 0
M  V30 10320 O 1208.18 -6.01307 -0.267172 0
M  V30 10321 H 1212.01 -2.9088 0.873084 0
M  V30 10322 H 1209.59 -1.41066 0.492024 0
M  V30 10323 H 1211.47 -4.00087 -1.32319 0
M  V30 10324 H 1210.15 -2.83074 -1.57006 0
M  V30 10325 H 1209.06 -3.69581 0.579744 0
M  V30 10326 H 1210.39 -4.86555 0.743308 0
M  V30 10327 N 1212.04 -0.478751 -1.50152 0
M  V30 10328 C 1213.45 -0.0254907 -1.86683 0
M  V30 10329 C 1213.8 1.38171 -1.39295 0
M  V30 10330 O 1212.93 2.0257 -0.761207 0
M  V30 10331 C 1213.52 -0.0394819 -3.38777 0
M  V30 10332 C 1212.08 0.35834 -3.7469 0
M  V30 10333 C 1211.23 -0.421667 -2.74075 0
M  V30 10334 H 1214.18 -0.692653 -1.42787 0
M  V30 10335 H 1214.2 0.760957 -3.72813 0
M  V30 10336 H 1213.71 -1.06378 -3.73236 0
M  V30 10337 H 1211.82 1.38671 -3.45834 0
M  V30 10338 H 1211.93 0.0543589 -4.79069 0
M  V30 10339 H 1210.29 0.125634 -2.5439 0
M  V30 10340 H 1211.08 -1.44562 -3.11379 0
M  V30 10341 N 1213.52 1.56172 -0.211661 0
M  V30 10342 C 1214.77 1.97648 0.421871 0
M  V30 10343 C 1215.09 1.10026 1.60995 0
M  V30 10344 O 1214.36 0.175109 1.95116 0
M  V30 10345 H 1212.94 0.729914 0.158852 0
M  V30 10346 H 1215.6 1.92542 -0.302254 0
M  V30 10347 H 1214.7 3.02834 0.754868 0
M  V30 10348 N 1215 -0.0618163 1.57479 0
M  V30 10349 C 1216.25 -0.757569 1.87364 0
M  V30 10350 C 1216.57 -1.77607 0.805025 0
M  V30 10351 O 1215.84 -1.95202 -0.165216 0
M  V30 10352 H 1214.42 -0.28278 0.691408 0
M  V30 10353 H 1217.08 -0.0355354 1.94868 0
M  V30 10354 H 1216.18 -1.26758 2.85199 0
M  V30 10355 N 1216.48 -1.54033 -0.333429 0
M  V30 10356 C 1217.42 -1.82729 -1.40992 0
M  V30 10357 C 1218.39 -0.673677 -1.51825 0
M  V30 10358 O 1219.58 -0.919126 -1.67203 0
M  V30 10359 C 1216.72 -2.05155 -2.77498 0
M  V30 10360 C 1215.83 -3.32854 -2.75376 0
M  V30 10361 C 1214.97 -3.45294 -4.03665 0
M  V30 10362 C 1214.01 -4.66905 -3.95811 0
M  V30 10363 N 1213.14 -4.76323 -5.1581 0
M  V30 10364 H 1217.98 -2.74572 -1.15821 0
M  V30 10365 H 1215.52 -1.35988 -0.560859 0
M  V30 10366 H 1217.48 -2.16148 -3.56841 0
M  V30 10367 H 1216.11 -1.16615 -3.01 0
M  V30 10368 H 1215.16 -3.30651 -1.88081 0
M  V30 10369 H 1216.47 -4.22299 -2.65453 0
M  V30 10370 H 1215.63 -3.55775 -4.91436 0
M  V30 10371 H 1214.36 -2.53924 -4.16382 0
M  V30 10372 H 1213.37 -4.56491 -3.06425 0
M  V30 10373 H 1214.59 -5.59649 -3.84668 0
M  V30 10374 H 1212.54 -3.87866 -5.29052 0
M  V30 10375 H 1212.46 -5.59719 -5.08184 0
M  V30 10376 H 1213.73 -4.91125 -6.05324 0
M  V30 10377 N 1217.95 0.594978 -1.45938 0
M  V30 10378 C 1219.2 1.35093 -1.50314 0
M  V30 10379 C 1219.52 1.94412 -0.151315 0
M  V30 10380 O 1218.79 1.77876 0.820787 0
M  V30 10381 H 1217.37 0.501549 -0.553586 0
M  V30 10382 H 1220.04 0.697735 -1.81983 0
M  V30 10383 H 1219.13 2.16393 -2.24901 0
M  V30 10384 N 1219.43 1.33438 0.838571 0
M  V30 10385 C 1220.34 1.25753 1.98049 0
M  V30 10386 C 1221.36 0.168051 1.73187 0
M  V30 10387 O 1222.53 0.391691 1.97554 0
M  V30 10388 C 1219.6 0.997148 3.32051 0
M  V30 10389 C 1218.66 2.17667 3.70027 0
M  V30 10390 C 1217.89 1.92861 4.97635 0
M  V30 10391 O 1218.12 0.879072 5.63585 0
M  V30 10392 O 1217.05 2.79402 5.33121 0
M  V30 10393 H 1220.88 2.21786 2.07472 0
M  V30 10394 H 1218.46 1.13488 0.971645 0
M  V30 10395 H 1220.34 0.869099 4.1234 0
M  V30 10396 H 1219.02 0.0671036 3.2363 0
M  V30 10397 H 1217.93 2.36025 2.90246 0
M  V30 10398 H 1219.26 3.09006 3.83114 0
M  V30 10399 N 1220.91 -1.05686 1.16912 0
M  V30 10400 C 1222.33 -1.30744 0.915327 0
M  V30 10401 C 1222.53 -1.96895 -0.428344 0
M  V30 10402 O 1221.58 -2.23941 -1.16647 0
M  V30 10403 C 1222.9 -2.18209 2.06894 0
M  V30 10404 C 1224.44 -2.31607 2.1054 0
M  V30 10405 C 1224.92 -3.2243 3.25273 0
M  V30 10406 N 1226.41 -3.30015 3.2503 0
M  V30 10407 C 1227.14 -4.00401 4.10447 0
M  V30 10408 N 1226.64 -4.73256 5.05965 0
M  V30 10409 N 1228.43 -3.96514 3.98413 0
M  V30 10410 H 1220.58 -0.611449 2.03409 0
M  V30 10411 H 1222.85 -0.332188 0.887894 0
M  V30 10412 H 1222.55 -1.76887 3.0398 0
M  V30 10413 H 1222.43 -3.18823 2.01573 0
M  V30 10414 H 1224.81 -2.72173 1.14044 0
M  V30 10415 H 1224.9 -1.30639 2.19925 0
M  V30 10416 H 1224.54 -2.82579 4.22032 0
M  V30 10417 H 1224.47 -4.23392 3.13125 0
M  V30 10418 H 1226.96 -2.781 2.55869 0
M  V30 10419 H 1227.27 -5.24509 5.67547 0
M  V30 10420 H 1225.62 -4.72215 5.09939 0
M  V30 10421 H 1228.81 -3.38719 3.2309 0
M  V30 10422 H 1228.98 -4.511 4.65202 0
M  V30 10423 N 1222.39 -0.968567 -1.24324 0
M  V30 10424 C 1223.64 -0.629682 -1.9204 0
M  V30 10425 C 1223.96 0.837906 -1.7608 0
M  V30 10426 O 1223.23 1.5982 -1.13289 0
M  V30 10427 H 1221.81 -0.229901 -0.710742 0
M  V30 10428 H 1224.47 -1.22982 -1.512 0
M  V30 10429 H 1223.57 -0.871034 -2.99699 0
M  V30 10430 N 1223.87 1.39211 -0.738786 0
M  V30 10431 C 1224.83 2.28937 -0.109746 0
M  V30 10432 C 1225.83 1.46488 0.663157 0
M  V30 10433 O 1227.02 1.67119 0.491614 0
M  V30 10434 C 1224.15 3.30039 0.853633 0
M  V30 10435 H 1225.34 2.86068 -0.900295 0
M  V30 10436 H 1222.9 1.47922 -0.504853 0
M  V30 10437 H 1223.63 2.77971 1.6704 0
M  V30 10438 H 1223.42 3.90935 0.302007 0
M  V30 10439 H 1224.91 3.97169 1.29022 0
M  V30 10440 N 1225.34 0.486708 1.49896 0
M  V30 10441 C 1226.76 0.0353906 1.86666 0
M  V30 10442 C 1227.11 -1.3743 1.40026 0
M  V30 10443 O 1226.23 -2.02163 0.77194 0
M  V30 10444 C 1226.83 0.0574475 3.38751 0
M  V30 10445 C 1225.39 -0.338464 3.74875 0
M  V30 10446 C 1224.53 0.436196 2.73848 0
M  V30 10447 H 1227.48 0.700215 1.42417 0
M  V30 10448 H 1227.5 -0.741175 3.73212 0
M  V30 10449 H 1227.02 1.08356 3.72667 0
M  V30 10450 H 1225.12 -1.36835 3.46565 0
M  V30 10451 H 1225.23 -0.0289519 4.79091 0
M  V30 10452 H 1223.59 -0.112141 2.54453 0
M  V30 10453 H 1224.38 1.46212 3.10608 0
M  V30 10454 N 1226.82 -1.56058 0.219941 0
M  V30 10455 C 1228.07 -1.97869 -0.411383 0
M  V30 10456 C 1228.39 -1.10878 -1.60409 0
M  V30 10457 O 1227.66 -0.185454 -1.9502 0
M  V30 10458 H 1226.24 -0.730747 -0.154979 0
M  V30 10459 H 1228.9 -1.92379 0.312461 0
M  V30 10460 H 1228 -3.0323 -0.738798 0
M  V30 10461 N 1228.3 0.053464 -1.57509 0
M  V30 10462 C 1229.21 1.07902 -2.08313 0
M  V30 10463 C 1230.23 1.41223 -1.01647 0
M  V30 10464 O 1231.4 1.51032 -1.33233 0
M  V30 10465 C 1228.47 2.36813 -2.5322 0
M  V30 10466 C 1227.53 2.10297 -3.74264 0
M  V30 10467 C 1226.76 3.33062 -4.1702 0
M  V30 10468 O 1226.99 4.42857 -3.59491 0
M  V30 10469 O 1225.92 3.20195 -5.09665 0
M  V30 10470 H 1229.75 0.677368 -2.9605 0
M  V30 10471 H 1227.33 0.268838 -1.46961 0
M  V30 10472 H 1229.21 3.12645 -2.82544 0
M  V30 10473 H 1227.89 2.76323 -1.68605 0
M  V30 10474 H 1226.79 1.32111 -3.49996 0
M  V30 10475 H 1228.13 1.75658 -4.59788 0
M  V30 10476 N 1229.78 1.54207 0.325255 0
M  V30 10477 C 1230.73 1.83474 1.40021 0
M  V30 10478 C 1231.7 0.681719 1.51466 0
M  V30 10479 O 1232.88 0.92798 1.66713 0
M  V30 10480 C 1230.02 2.06624 2.76407 0
M  V30 10481 C 1229.13 3.3431 2.73607 0
M  V30 10482 C 1228.27 3.4743 4.01828 0
M  V30 10483 C 1227.31 4.68997 3.93329 0
M  V30 10484 N 1226.45 4.79052 5.13277 0
M  V30 10485 H 1231.29 2.75182 1.14363 0
M  V30 10486 H 1228.82 1.36284 0.553639 0
M  V30 10487 H 1230.78 2.18037 3.5569 0
M  V30 10488 H 1229.41 1.18209 3.00377 0
M  V30 10489 H 1228.46 3.31643 1.86324 0
M  V30 10490 H 1229.77 4.237 2.6321 0
M  V30 10491 H 1228.93 3.58376 4.89542 0
M  V30 10492 H 1227.67 2.56128 4.1503 0
M  V30 10493 H 1226.67 4.58109 3.04 0
M  V30 10494 H 1227.9 5.61681 3.81695 0
M  V30 10495 H 1225.84 3.90666 5.26988 0
M  V30 10496 H 1225.76 5.62406 5.05208 0
M  V30 10497 H 1227.03 4.94328 6.02711 0
M  V30 10498 N 1231.26 -0.58723 1.46251 0
M  V30 10499 C 1232.51 -1.34294 1.51028 0
M  V30 10500 C 1232.83 -1.94329 0.161623 0
M  V30 10501 O 1232.1 -1.78309 -0.811342 0
M  V30 10502 H 1230.68 -0.498607 0.556238 0
M  V30 10503 H 1233.34 -0.688074 1.8235 0
M  V30 10504 H 1232.43 -2.15197 2.26045 0
M  V30 10505 N 1232.74 -1.33881 -0.831482 0
M  V30 10506 C 1233.65 -1.26802 -1.97379 0
M  V30 10507 C 1234.66 -0.177233 -1.73095 0
M  V30 10508 O 1235.84 -0.402163 -1.97344 0
M  V30 10509 C 1232.9 -1.01474 -3.31517 0
M  V30 10510 C 1231.96 -2.19626 -3.68867 0
M  V30 10511 C 1231.2 -1.95497 -4.96605 0
M  V30 10512 O 1231.42 -0.908948 -5.63111 0
M  V30 10513 O 1230.35 -2.82226 -5.31632 0
M  V30 10514 H 1234.18 -2.22883 -2.06293 0
M  V30 10515 H 1231.76 -1.14001 -0.965613 0
M  V30 10516 H 1233.65 -0.890954 -4.11874 0
M  V30 10517 H 1232.32 -0.0842656 -3.2359 0
M  V30 10518 H 1231.23 -2.37561 -2.88991 0
M  V30 10519 H 1232.56 -3.11034 -3.81469 0
M  V30 10520 N 1234.21 1.05064 -1.1747 0
M  V30 10521 C 1235.46 1.77737 -0.961979 0
M  V30 10522 C 1235.78 1.88198 0.510551 0
M  V30 10523 O 1235.05 1.39968 1.37062 0
M  V30 10524 H 1233.63 0.658366 -0.352935 0
M  V30 10525 H 1236.29 1.26851 -1.47969 0
M  V30 10526 H 1235.39 2.79368 -1.39141 0
M  V30 10527 N 1235.69 0.975146 1.23809 0
M  V30 10528 C 1236.94 0.639858 1.91704 0
M  V30 10529 C 1237.26 -0.828557 1.76522 0
M  V30 10530 O 1236.53 -1.59217 1.14135 0
M  V30 10531 H 1235.11 0.233667 0.709513 0
M  V30 10532 H 1237.77 1.23782 1.50545 0
M  V30 10533 H 1236.87 0.886915 2.99233 0
M  V30 10534 N 1237.17 -1.38817 0.746158 0
M  V30 10535 C 1238.58 -1.83045 0.367629 0
M  V30 10536 C 1238.93 -1.62285 -1.10263 0
M  V30 10537 O 1238.06 -1.12001 -1.85162 0
M  V30 10538 C 1238.65 -3.323 0.660482 0
M  V30 10539 C 1237.21 -3.74903 0.335318 0
M  V30 10540 C 1236.36 -2.61683 0.917446 0
M  V30 10541 H 1239.31 -1.27651 0.94291 0
M  V30 10542 H 1239.33 -3.80446 -0.0639061 0
M  V30 10543 H 1238.84 -3.47377 1.73062 0
M  V30 10544 H 1236.94 -3.65408 -0.728538 0
M  V30 10545 H 1237.06 -4.71932 0.825677 0
M  V30 10546 H 1235.42 -2.52376 0.343316 0
M  V30 10547 H 1236.2 -2.79563 1.99247 0
M  V30 10548 N 1238.65 -0.49465 -1.49636 0
M  V30 10549 C 1240.06 -0.0452894 -1.86645 0
M  V30 10550 C 1240.41 1.36686 -1.40753 0
M  V30 10551 O 1239.53 2.01751 -0.78265 0
M  V30 10552 C 1240.13 -0.0754115 -3.38716 0
M  V30 10553 C 1238.69 0.318579 -3.75049 0
M  V30 10554 C 1237.84 -0.450712 -2.73613 0
M  V30 10555 H 1240.79 -0.707758 -1.42044 0
M  V30 10556 H 1240.81 0.721372 -3.73599 0
M  V30 10557 H 1240.32 -1.10331 -3.72087 0
M  V30 10558 H 1238.42 1.34995 -3.47285 0
M  V30 10559 H 1238.53 0.00354416 -4.791 0
M  V30 10560 H 1236.9 0.0986455 -2.54509 0
M  V30 10561 H 1237.68 -1.47857 -3.09828 0
M  V30 10562 N 1240.13 1.55939 -0.228214 0
M  V30 10563 C 1241.37 1.98084 0.400884 0
M  V30 10564 C 1241.69 1.11727 1.59819 0
M  V30 10565 O 1240.96 0.195794 1.94919 0
M  V30 10566 H 1239.54 0.731558 0.151102 0
M  V30 10567 H 1242.21 1.92211 -0.322659 0
M  V30 10568 H 1241.3 3.03617 0.722706 0
M  V30 10569 N 1241.6 -0.0451101 1.57535 0
M  V30 10570 C 1242.85 -0.740209 1.88809 0
M  V30 10571 C 1243.18 -1.75854 0.823956 0
M  V30 10572 O 1242.46 -1.93817 -0.16286 0
M  V30 10573 C 1242.74 -1.42424 3.30737 0
M  V30 10574 C 1242.59 -0.42052 4.4783 0
M  V30 10575 C 1243.91 -2.36241 3.7132 0
M  V30 10576 H 1241.03 -0.267628 0.686691 0
M  V30 10577 H 1243.67 -0.00309149 1.9 0
M  V30 10578 H 1241.82 -2.05254 3.29853 0
M  V30 10579 H 1243.5 0.204625 4.60846 0
M  V30 10580 H 1241.74 0.261739 4.3301 0
M  V30 10581 H 1242.41 -0.937298 5.43984 0
M  V30 10582 H 1244.89 -1.83468 3.73468 0
M  V30 10583 H 1243.76 -2.81091 4.71465 0
M  V30 10584 H 1244.02 -3.2222 3.02699 0
M  V30 10585 N 1243.08 -1.54377 -0.317073 0
M  V30 10586 C 1244.05 -1.83488 -1.37349 0
M  V30 10587 C 1245.05 -0.706981 -1.44424 0
M  V30 10588 O 1246.24 -0.975289 -1.44339 0
M  V30 10589 C 1243.37 -2.00074 -2.76013 0
M  V30 10590 H 1244.56 -2.77883 -1.12789 0
M  V30 10591 H 1242.11 -1.46194 -0.552902 0
M  V30 10592 H 1242.85 -1.07913 -3.05819 0
M  V30 10593 H 1242.63 -2.82155 -2.7227 0
M  V30 10594 H 1244.12 -2.24022 -3.52426 0
M  V30 10595 N 1244.56 0.579466 -1.4656 0
M  V30 10596 C 1245.81 1.33492 -1.51738 0
M  V30 10597 C 1246.13 1.94241 -0.171926 0
M  V30 10598 O 1245.4 1.78737 0.801875 0
M  V30 10599 H 1243.98 0.49565 -0.558874 0
M  V30 10600 H 1246.64 0.678394 -1.82712 0
M  V30 10601 H 1245.74 2.13995 -2.27183 0
M  V30 10602 N 1246.04 1.3432 0.824371 0
M  V30 10603 C 1247.45 1.23855 1.39703 0
M  V30 10604 C 1247.8 -0.136566 1.95724 0
M  V30 10605 O 1246.93 -1.03683 1.89944 0
M  V30 10606 C 1247.52 2.24249 2.53965 0
M  V30 10607 C 1246.08 2.17578 3.07143 0
M  V30 10608 C 1245.23 2.10933 1.80008 0
M  V30 10609 H 1248.18 1.45707 0.628891 0
M  V30 10610 H 1248.2 1.85864 3.32016 0
M  V30 10611 H 1247.71 3.24321 2.13161 0
M  V30 10612 H 1245.81 1.20858 3.52455 0
M  V30 10613 H 1245.92 3.08769 3.66331 0
M  V30 10614 H 1244.29 1.56631 2.00845 0
M  V30 10615 H 1245.07 3.12836 1.4138 0
M  V30 10616 N 1247.52 -1.0444 1.18026 0
M  V30 10617 C 1248.93 -1.5903 0.978076 0
M  V30 10618 C 1249.28 -1.90407 -0.473241 0
M  V30 10619 O 1248.4 -1.69133 -1.34992 0
M  V30 10620 C 1249 -2.88942 1.76912 0
M  V30 10621 C 1247.56 -3.40164 1.61139 0
M  V30 10622 C 1246.7 -2.13797 1.76596 0
M  V30 10623 H 1249.66 -0.871574 1.32625 0
M  V30 10624 H 1249.68 -3.59173 1.25598 0
M  V30 10625 H 1249.19 -2.66074 2.82535 0
M  V30 10626 H 1247.29 -3.68053 0.580353 0
M  V30 10627 H 1247.4 -4.14241 2.40709 0
M  V30 10628 H 1245.77 -2.24922 1.19507 0
M  V30 10629 H 1246.55 -1.93389 2.83647 0
M  V30 10630 N 1248.99 -0.981699 -1.2329 0
M  V30 10631 C 1250.24 -0.650015 -1.91361 0
M  V30 10632 C 1250.56 0.819184 -1.76959 0
M  V30 10633 O 1249.83 1.5861 -1.14977 0
M  V30 10634 H 1248.41 -0.237427 -0.708264 0
M  V30 10635 H 1251.08 -1.24579 -1.49887 0
M  V30 10636 H 1250.17 -0.902772 -2.98758 0
M  V30 10637 N 1250.47 1.3842 -0.753509 0
M  V30 10638 C 1251.72 1.99723 -0.309021 0
M  V30 10639 C 1252.04 1.60111 1.11308 0
M  V30 10640 O 1251.31 0.85792 1.76115 0
M  V30 10641 H 1249.89 0.738667 -0.111266 0
M  V30 10642 H 1252.55 1.69186 -0.967586 0
M  V30 10643 H 1251.65 3.09874 -0.372095 0
M  V30 10644 N 1251.95 0.502579 1.49372 0
M  V30 10645 C 1253.18 -0.0403087 2.07361 0
M  V30 10646 C 1253.6 -1.29918 1.36026 0
M  V30 10647 O 1252.96 -1.76428 0.417488 0
M  V30 10648 C 1253.01 -0.275362 3.59547 0
M  V30 10649 O 1252.11 -1.34975 3.89686 0
M  V30 10650 H 1251.45 0.0269268 0.663454 0
M  V30 10651 H 1253.98 0.702652 1.92156 0
M  V30 10652 H 1253.99 -0.506392 4.04845 0
M  V30 10653 H 1252.67 0.644382 4.10878 0
M  V30 10654 H 1251.24 -1.10355 3.56197 0
M  V30 10655 N 1253.43 -1.55816 0.23648 0
M  V30 10656 C 1254.68 -1.98294 -0.390373 0
M  V30 10657 C 1255 -1.12573 -1.59224 0
M  V30 10658 O 1254.27 -0.206128 -1.94813 0
M  V30 10659 H 1252.85 -0.732349 -0.14722 0
M  V30 10660 H 1255.51 -1.92037 0.332848 0
M  V30 10661 H 1254.61 -3.03996 -0.706595 0
M  V30 10662 N 1254.91 0.036755 -1.57557 0
M  V30 10663 C 1256.32 0.584324 -1.7732 0
M  V30 10664 C 1256.67 1.76025 -0.86658 0
M  V30 10665 O 1255.79 2.16318 -0.059443 0
M  V30 10666 C 1256.39 1.06679 -3.21566 0
M  V30 10667 C 1254.95 1.55994 -3.42553 0
M  V30 10668 C 1254.09 0.494604 -2.72853 0
M  V30 10669 H 1257.05 -0.189473 -1.57565 0
M  V30 10670 H 1257.07 1.93446 -3.27657 0
M  V30 10671 H 1256.58 0.210727 -3.87527 0
M  V30 10672 H 1254.68 2.43811 -2.81757 0
M  V30 10673 H 1254.79 1.61274 -4.5114 0
M  V30 10674 H 1253.16 0.947865 -2.36406 0
M  V30 10675 H 1253.94 -0.351868 -3.41492 0
M  V30 10676 N 1256.39 1.54543 0.308881 0
M  V30 10677 C 1257.35 1.84214 1.36374 0
M  V30 10678 C 1258.35 0.71463 1.44047 0
M  V30 10679 O 1259.54 0.98293 1.4382 0
M  V30 10680 C 1256.67 2.01535 2.74948 0
M  V30 10681 H 1257.86 2.78477 1.11314 0
M  V30 10682 H 1255.42 1.46485 0.545141 0
M  V30 10683 H 1256.15 1.09533 3.05242 0
M  V30 10684 H 1255.94 2.83595 2.7077 0
M  V30 10685 H 1257.43 2.25888 3.51233 0
M  V30 10686 N 1257.86 -0.571685 1.46866 0
M  V30 10687 C 1259.11 -1.32685 1.52444 0
M  V30 10688 C 1259.43 -1.94147 0.182225 0
M  V30 10689 O 1258.7 -1.79159 -0.792385 0
M  V30 10690 H 1257.28 -0.492679 0.561495 0
M  V30 10691 H 1259.94 -0.668694 1.8307 0
M  V30 10692 H 1259.04 -2.12788 2.28315 0
M  V30 10693 N 1259.34 -1.34755 -0.817236 0
M  V30 10694 C 1260.75 -1.24594 -1.39044 0
M  V30 10695 C 1261.1 0.126184 -1.95794 0
M  V30 10696 O 1260.23 1.02675 -1.90491 0
M  V30 10697 C 1260.82 -2.25592 -2.52772 0
M  V30 10698 C 1259.38 -2.19204 -3.05984 0
M  V30 10699 C 1258.53 -2.11884 -1.78886 0
M  V30 10700 H 1261.48 -1.46039 -0.621155 0
M  V30 10701 H 1261.5 -1.87622 -3.31026 0
M  V30 10702 H 1261.01 -3.25447 -2.11438 0
M  V30 10703 H 1259.11 -1.22725 -3.51809 0
M  V30 10704 H 1259.23 -3.10707 -3.64689 0
M  V30 10705 H 1257.59 -1.57694 -2.00012 0
M  V30 10706 H 1258.37 -3.13582 -1.39719 0
M  V30 10707 N 1260.82 1.03812 -1.18578 0
M  V30 10708 C 1262.23 1.58509 -0.986496 0
M  V30 10709 C 1262.58 1.90655 0.463136 0
M  V30 10710 O 1261.71 1.69847 1.34093 0
M  V30 10711 C 1262.3 2.88 -1.78441 0
M  V30 10712 C 1260.86 3.39304 -1.6294 0
M  V30 10713 C 1260.01 2.12857 -1.77727 0
M  V30 10714 H 1262.96 0.864528 -1.33085 0
M  V30 10715 H 1262.98 3.58502 -1.27501 0
M  V30 10716 H 1262.49 2.64572 -2.83942 0
M  V30 10717 H 1260.59 3.6774 -0.599864 0
M  V30 10718 H 1260.71 4.12959 -2.42902 0
M  V30 10719 H 1259.07 2.24285 -1.20699 0
M  V30 10720 H 1259.85 1.91882 -2.84669 0
M  V30 10721 N 1262.3 0.988223 1.22768 0
M  V30 10722 C 1263.55 0.660154 1.91014 0
M  V30 10723 C 1263.87 -0.809788 1.77391 0
M  V30 10724 O 1263.14 -1.57998 1.15817 0
M  V30 10725 H 1261.72 0.24118 0.706995 0
M  V30 10726 H 1264.38 1.25372 1.49224 0
M  V30 10727 H 1263.47 0.918603 2.98275 0
M  V30 10728 N 1263.78 -1.38018 0.760839 0
M  V30 10729 C 1265.19 -1.82645 0.387022 0
M  V30 10730 C 1265.54 -1.63445 -1.08536 0
M  V30 10731 O 1264.66 -1.13958 -1.83963 0
M  V30 10732 C 1265.26 -3.3158 0.69569 0
M  V30 10733 C 1263.82 -3.74527 0.375063 0
M  V30 10734 C 1262.96 -2.60696 0.94515 0
M  V30 10735 H 1265.91 -1.26644 0.956396 0
M  V30 10736 H 1265.94 -3.80493 -0.0235511 0
M  V30 10737 H 1265.45 -3.45522 1.76737 0
M  V30 10738 H 1263.55 -3.6616 -0.689741 0
M  V30 10739 H 1263.66 -4.71029 0.875685 0
M  V30 10740 H 1262.03 -2.51997 0.370065 0
M  V30 10741 H 1262.81 -2.77434 2.02201 0
M  V30 10742 N 1265.25 -0.510493 -1.49103 0
M  V30 10743 C 1266.19 0.299697 -2.27232 0
M  V30 10744 C 1267.2 0.922102 -1.34168 0
M  V30 10745 O 1268.39 0.803836 -1.59376 0
M  V30 10746 C 1265.49 1.43778 -3.06889 0
M  V30 10747 C 1264.66 0.920927 -4.27595 0
M  V30 10748 C 1263.72 1.93777 -4.89221 0
M  V30 10749 O 1262.75 1.5025 -5.49011 0
M  V30 10750 N 1263.95 3.2688 -4.79718 0
M  V30 10751 H 1266.71 -0.37028 -2.97404 0
M  V30 10752 H 1264.27 -0.343617 -1.58212 0
M  V30 10753 H 1266.27 2.11577 -3.44988 0
M  V30 10754 H 1264.84 2.01175 -2.39264 0
M  V30 10755 H 1264.06 0.0675358 -3.94142 0
M  V30 10756 H 1265.34 0.554168 -5.05773 0
M  V30 10757 H 1264.74 3.64924 -4.32258 0
M  V30 10758 H 1263.3 3.90366 -5.21974 0
M  V30 10759 N 1266.73 1.55688 -0.24474 0
M  V30 10760 C 1267.98 1.98498 0.379852 0
M  V30 10761 C 1268.3 1.13416 1.58625 0
M  V30 10762 O 1267.57 0.216456 1.947 0
M  V30 10763 H 1266.15 0.73312 0.143334 0
M  V30 10764 H 1268.81 1.91858 -0.343027 0
M  V30 10765 H 1267.91 3.04367 0.690463 0
M  V30 10766 N 1268.21 -0.0283989 1.57574 0
M  V30 10767 C 1269.46 -0.720142 1.89583 0
M  V30 10768 C 1269.79 -1.7497 0.842562 0
M  V30 10769 O 1269.06 -1.93979 -0.142294 0
M  V30 10770 C 1269.35 -1.38909 3.32229 0
M  V30 10771 C 1269.2 -0.372998 4.48251 0
M  V30 10772 C 1270.52 -2.32289 3.73804 0
M  V30 10773 H 1267.64 -0.26033 0.689491 0
M  V30 10774 H 1270.28 0.0170607 1.89992 0
M  V30 10775 H 1268.43 -2.01744 3.32011 0
M  V30 10776 H 1270.1 0.253492 4.60603 0
M  V30 10777 H 1268.34 0.30765 4.32708 0
M  V30 10778 H 1269.02 -0.879549 5.44948 0
M  V30 10779 H 1271.49 -1.79497 3.75393 0
M  V30 10780 H 1270.37 -2.76075 4.74419 0
M  V30 10781 H 1270.63 -3.18992 3.06099 0
M  V30 10782 N 1269.69 -1.54705 -0.300681 0
M  V30 10783 C 1270.63 -1.85678 -1.37084 0
M  V30 10784 C 1271.6 -0.70573 -1.50362 0
M  V30 10785 O 1272.79 -0.954385 -1.65215 0
M  V30 10786 C 1269.93 -2.10995 -2.73084 0
M  V30 10787 C 1269.04 -3.38621 -2.68254 0
M  V30 10788 C 1268.18 -3.53779 -3.9625 0
M  V30 10789 C 1267.22 -4.75195 -3.85818 0
M  V30 10790 N 1266.35 -4.87157 -5.05591 0
M  V30 10791 H 1271.19 -2.76967 -1.09971 0
M  V30 10792 H 1268.73 -1.37147 -0.531887 0
M  V30 10793 H 1270.69 -2.23669 -3.52176 0
M  V30 10794 H 1269.32 -1.22973 -2.98458 0
M  V30 10795 H 1268.37 -3.34566 -1.81025 0
M  V30 10796 H 1269.68 -4.27834 -2.56436 0
M  V30 10797 H 1268.84 -3.66119 -4.83779 0
M  V30 10798 H 1267.58 -2.62699 -4.10902 0
M  V30 10799 H 1266.58 -4.62888 -2.96673 0
M  V30 10800 H 1267.81 -5.67683 -3.72711 0
M  V30 10801 H 1265.75 -3.99001 -5.20706 0
M  V30 10802 H 1265.67 -5.70372 -4.96197 0
M  V30 10803 H 1266.94 -5.03854 -5.9477 0
M  V30 10804 N 1271.17 0.563888 -1.47167 0
M  V30 10805 C 1272.41 1.31875 -1.53145 0
M  V30 10806 C 1272.74 1.94047 -0.192518 0
M  V30 10807 O 1272.01 1.79577 0.782872 0
M  V30 10808 H 1270.59 0.489694 -0.5641 0
M  V30 10809 H 1273.25 0.658976 -1.83422 0
M  V30 10810 H 1272.34 2.11574 -2.2944 0
M  V30 10811 N 1272.64 1.35187 0.810078 0
M  V30 10812 C 1273.55 1.29926 1.95337 0
M  V30 10813 C 1274.57 0.204748 1.72791 0
M  V30 10814 O 1275.75 0.433507 1.96679 0
M  V30 10815 C 1272.81 1.06736 3.29861 0
M  V30 10816 C 1271.87 2.25466 3.65326 0
M  V30 10817 C 1271.11 2.03373 4.93432 0
M  V30 10818 O 1271.33 0.998419 5.61594 0
M  V30 10819 O 1270.26 2.90648 5.27075 0
M  V30 10820 H 1274.09 2.26137 2.02721 0
M  V30 10821 H 1271.67 1.15523 0.947354 0
M  V30 10822 H 1273.56 0.956367 4.10404 0
M  V30 10823 H 1272.23 0.135735 3.23415 0
M  V30 10824 H 1271.14 2.42129 2.85175 0
M  V30 10825 H 1272.47 3.17063 3.76473 0
M  V30 10826 N 1274.12 -1.03182 1.19127 0
M  V30 10827 C 1275.54 -1.28773 0.942854 0
M  V30 10828 C 1275.74 -1.97759 -0.386483 0
M  V30 10829 O 1274.79 -2.26365 -1.1187 0
M  V30 10830 C 1276.11 -2.13771 2.11476 0
M  V30 10831 C 1277.66 -2.27089 2.15406 0
M  V30 10832 C 1278.13 -3.15458 3.32039 0
M  V30 10833 N 1279.62 -3.23046 3.31957 0
M  V30 10834 C 1280.36 -3.91604 4.18848 0
M  V30 10835 N 1279.85 -4.62418 5.15889 0
M  V30 10836 N 1281.65 -3.87974 4.06734 0
M  V30 10837 H 1273.8 -0.568165 2.0466 0
M  V30 10838 H 1276.06 -0.31328 0.89474 0
M  V30 10839 H 1275.77 -1.704 3.07663 0
M  V30 10840 H 1275.64 -3.14476 2.0829 0
M  V30 10841 H 1278.03 -2.69693 1.19791 0
M  V30 10842 H 1278.11 -1.25945 2.22647 0
M  V30 10843 H 1277.75 -2.73564 4.27931 0
M  V30 10844 H 1277.68 -4.16654 3.22035 0
M  V30 10845 H 1280.17 -2.7261 2.6171 0
M  V30 10846 H 1280.49 -5.12353 5.78545 0
M  V30 10847 H 1278.83 -4.61293 5.1984 0
M  V30 10848 H 1282.02 -3.31789 3.30202 0
M  V30 10849 H 1282.19 -4.4113 4.74666 0
M  V30 10850 N 1275.6 -0.99472 -1.22242 0
M  V30 10851 C 1276.85 -0.670275 -1.90661 0
M  V30 10852 C 1277.17 0.800369 -1.77818 0
M  V30 10853 O 1276.44 1.57381 -1.16653 0
M  V30 10854 H 1275.02 -0.244925 -0.705706 0
M  V30 10855 H 1277.68 -1.26162 -1.48557 0
M  V30 10856 H 1276.78 -0.934408 -2.97784 0
M  V30 10857 N 1277.08 1.37613 -0.768148 0
M  V30 10858 C 1278.3 2.04579 -0.340892 0
M  V30 10859 C 1278.73 1.57556 1.02751 0
M  V30 10860 O 1278.09 0.734151 1.65771 0
M  V30 10861 C 1278.13 3.58495 -0.389099 0
M  V30 10862 O 1277.24 4.07838 0.611741 0
M  V30 10863 H 1276.58 0.647246 -0.148216 0
M  V30 10864 H 1279.11 1.75999 -1.04333 0
M  V30 10865 H 1279.12 4.07263 -0.245116 0
M  V30 10866 H 1277.79 3.92076 -1.38742 0
M  V30 10867 H 1276.37 3.70399 0.431173 0
M  V30 10868 N 1278.56 0.518393 1.4883 0
M  V30 10869 C 1279.97 0.0749773 1.86549 0
M  V30 10870 C 1280.32 -1.34429 1.4291 0
M  V30 10871 O 1279.44 -2.00481 0.814648 0
M  V30 10872 C 1280.04 0.129289 3.38553 0
M  V30 10873 C 1278.6 -0.258871 3.75509 0
M  V30 10874 C 1277.74 0.494185 2.72861 0
M  V30 10875 H 1280.7 0.730266 1.409 0
M  V30 10876 H 1280.72 -0.661844 3.747 0
M  V30 10877 H 1280.23 1.16237 3.70285 0
M  V30 10878 H 1278.33 -1.29453 3.49389 0
M  V30 10879 H 1278.44 0.0726769 4.79045 0
M  V30 10880 H 1276.81 -0.0581428 2.54634 0
M  V30 10881 H 1277.59 1.52767 3.07436 0
M  V30 10882 N 1280.03 -1.55556 0.252993 0
M  V30 10883 C 1281.28 -1.98697 -0.369319 0
M  V30 10884 C 1281.6 -1.14256 -1.58021 0
M  V30 10885 O 1280.87 -0.226779 -1.94583 0
M  V30 10886 H 1279.45 -0.733869 -0.139444 0
M  V30 10887 H 1282.12 -1.91673 0.353197 0
M  V30 10888 H 1281.21 -3.04728 -0.674312 0
M  V30 10889 N 1281.51 0.0200419 -1.57587 0
M  V30 10890 C 1282.76 0.707627 -1.89307 0
M  V30 10891 C 1283.08 1.7541 -0.851831 0
M  V30 10892 O 1282.35 1.95571 0.113404 0
M  V30 10893 H 1280.93 0.264349 -0.698662 0
M  V30 10894 H 1283.59 -0.0161428 -1.94893 0
M  V30 10895 H 1282.69 1.19152 -2.8846 0
M  V30 10896 N 1282.99 1.54862 0.292472 0
M  V30 10897 C 1284.4 1.65459 0.864891 0
M  V30 10898 C 1284.75 0.568808 1.87774 0
M  V30 10899 O 1283.88 -0.293107 2.14406 0
M  V30 10900 C 1284.47 2.99939 1.5755 0
M  V30 10901 C 1283.03 3.12628 2.09621 0
M  V30 10902 C 1282.18 2.61179 0.931713 0
M  V30 10903 H 1285.13 1.58549 0.0692679 0
M  V30 10904 H 1285.15 2.91839 2.44152 0
M  V30 10905 H 1284.66 3.78943 0.838088 0
M  V30 10906 H 1282.76 2.3836 2.86383 0
M  V30 10907 H 1282.88 4.18911 2.32488 0
M  V30 10908 H 1281.24 2.17846 1.31967 0
M  V30 10909 H 1282.02 3.42669 0.208121 0
M  V30 10910 N 1284.47 -0.556076 1.47464 0
M  V30 10911 C 1285.72 -1.31061 1.53842 0
M  V30 10912 C 1286.04 -1.93943 0.202806 0
M  V30 10913 O 1285.31 -1.7999 -0.773338 0
M  V30 10914 H 1283.89 -0.486696 0.566689 0
M  V30 10915 H 1286.55 -0.64924 1.83769 0
M  V30 10916 H 1285.65 -2.10354 2.30559 0
M  V30 10917 N 1285.95 -1.35615 -0.802897 0
M  V30 10918 C 1286.91 -1.28705 -1.89651 0
M  V30 10919 C 1287.91 -0.197681 -1.5958 0
M  V30 10920 O 1289.1 -0.451618 -1.68244 0
M  V30 10921 C 1286.23 -0.991941 -3.26149 0
M  V30 10922 H 1287.43 -2.25951 -1.97196 0
M  V30 10923 H 1284.98 -1.20192 -0.999179 0
M  V30 10924 H 1285.71 -0.0235051 -3.24291 0
M  V30 10925 H 1285.5 -1.78013 -3.49362 0
M  V30 10926 H 1286.99 -0.969298 -4.06195 0
M  V30 10927 N 1287.43 1.02549 -1.19673 0
M  V30 10928 C 1288.39 2.09064 -0.939407 0
M  V30 10929 C 1289.39 1.60593 0.0814837 0
M  V30 10930 O 1290.58 1.73521 -0.153626 0
M  V30 10931 C 1287.71 3.38395 -0.412513 0
M  V30 10932 H 1288.9 2.33325 -1.88413 0
M  V30 10933 H 1286.46 1.19211 -1.01086 0
M  V30 10934 H 1287.19 3.19805 0.538094 0
M  V30 10935 H 1286.98 3.74898 -1.14863 0
M  V30 10936 H 1288.47 4.16841 -0.251678 0
M  V30 10937 N 1288.9 1.00119 1.21713 0
M  V30 10938 C 1290.15 0.680377 1.90303 0
M  V30 10939 C 1290.47 -0.790927 1.7824 0
M  V30 10940 O 1289.74 -1.5676 1.17486 0
M  V30 10941 H 1288.32 0.248665 0.704397 0
M  V30 10942 H 1290.98 1.26948 1.47886 0
M  V30 10943 H 1290.08 0.950188 2.97284 0
M  V30 10944 N 1290.38 -1.37203 0.775435 0
M  V30 10945 C 1291.63 -1.99601 0.341431 0
M  V30 10946 C 1291.96 -1.61555 -1.08306 0
M  V30 10947 O 1291.21 -0.855126 -1.76029 0
M  V30 10948 C 1291.51 -3.54725 0.436426 0
M  V30 10949 C 1291.18 -4.1255 1.8197 0
M  V30 10950 C 1289.84 -4.28056 2.19822 0
M  V30 10951 C 1292.19 -4.44222 2.7261 0
M  V30 10952 C 1289.52 -4.72538 3.47742 0
M  V30 10953 C 1291.87 -4.90131 3.99943 0
M  V30 10954 C 1290.53 -5.03842 4.37835 0
M  V30 10955 H 1289.8 -0.730391 0.124938 0
M  V30 10956 H 1292.45 -1.63914 0.990177 0
M  V30 10957 H 1290.76 -3.90681 -0.295852 0
M  V30 10958 H 1292.45 -4.00916 0.0818664 0
M  V30 10959 H 1289.04 -4.00911 1.51553 0
M  V30 10960 H 1293.23 -4.31824 2.44625 0
M  V30 10961 H 1288.48 -4.81341 3.76989 0
M  V30 10962 H 1292.66 -5.13604 4.70302 0
M  V30 10963 H 1290.28 -5.3807 5.37015 0
M  V30 10964 N 1291.86 -0.526279 -1.48553 0
M  V30 10965 C 1293.27 -0.0848694 -1.86507 0
M  V30 10966 C 1293.62 1.3367 -1.43621 0
M  V30 10967 O 1292.75 2.00046 -0.825268 0
M  V30 10968 C 1293.34 -0.147241 -3.3848 0
M  V30 10969 C 1291.9 0.238954 -3.75641 0
M  V30 10970 C 1291.05 -0.508648 -2.72595 0
M  V30 10971 H 1294 -0.737728 -1.40511 0
M  V30 10972 H 1294.02 0.641964 -3.75045 0
M  V30 10973 H 1293.53 -1.18199 -3.69663 0
M  V30 10974 H 1291.63 1.27598 -3.50071 0
M  V30 10975 H 1291.75 -0.0980808 -4.79 0
M  V30 10976 H 1290.11 0.0446382 -2.54661 0
M  V30 10977 H 1290.89 -1.54395 -3.06622 0
M  V30 10978 N 1293.34 1.5542 -0.261239 0
M  V30 10979 C 1294.59 1.9889 0.358777 0
M  V30 10980 C 1294.91 1.15092 1.57413 0
M  V30 10981 O 1294.18 0.237095 1.9446 0
M  V30 10982 H 1292.76 0.734599 0.13555 0
M  V30 10983 H 1295.42 1.91483 -0.363357 0
M  V30 10984 H 1294.51 3.05082 0.658142 0
M  V30 10985 N 1294.82 -0.0116844 1.57596 0
M  V30 10986 C 1295.78 -0.991601 2.0664 0
M  V30 10987 C 1296.78 -1.27973 0.973629 0
M  V30 10988 O 1297.97 -1.22686 1.23668 0
M  V30 10989 C 1295.1 -2.31975 2.49801 0
M  V30 10990 H 1296.29 -0.567607 2.9448 0
M  V30 10991 H 1293.85 -0.258906 1.54141 0
M  V30 10992 H 1294.58 -2.79087 1.65169 0
M  V30 10993 H 1294.37 -2.12386 3.29598 0
M  V30 10994 H 1295.86 -3.02294 2.88112 0
M  V30 10995 N 1296.29 -1.55015 -0.284256 0
M  V30 10996 C 1297.71 -1.46603 -0.630845 0
M  V30 10997 C 1297.91 -0.67091 -1.90003 0
M  V30 10998 O 1296.97 -0.185266 -2.51819 0
M  V30 10999 C 1298.28 -2.9072 -0.768268 0
M  V30 11000 C 1299.83 -3.00866 -0.863061 0
M  V30 11001 C 1300.3 -4.46214 -1.03235 0
M  V30 11002 N 1301.79 -4.49994 -1.09815 0
M  V30 11003 C 1302.53 -5.5966 -1.24773 0
M  V30 11004 N 1302.02 -6.79215 -1.36523 0
M  V30 11005 N 1303.82 -5.4738 -1.27795 0
M  V30 11006 H 1295.97 -2.05171 0.549409 0
M  V30 11007 H 1298.23 -0.929915 0.184288 0
M  V30 11008 H 1297.94 -3.51575 0.0936899 0
M  V30 11009 H 1297.81 -3.39096 -1.65209 0
M  V30 11010 H 1300.2 -2.40114 -1.71549 0
M  V30 11011 H 1300.28 -2.5576 0.0451267 0
M  V30 11012 H 1299.92 -5.07564 -0.18462 0
M  V30 11013 H 1299.85 -4.88965 -1.95502 0
M  V30 11014 H 1302.34 -3.63869 -1.0202 0
M  V30 11015 H 1302.66 -7.58547 -1.47739 0
M  V30 11016 H 1301 -6.82048 -1.33548 0
M  V30 11017 H 1304.19 -4.52921 -1.18238 0
M  V30 11018 H 1304.37 -6.32892 -1.39109 0
M  V30 11019 N 1297.77 0.548248 -1.47757 0
M  V30 11020 C 1299.02 1.30243 -1.54535 0
M  V30 11021 C 1299.34 1.93832 -0.213089 0
M  V30 11022 O 1298.61 1.80397 0.763782 0
M  V30 11023 H 1297.19 0.483684 -0.569262 0
M  V30 11024 H 1299.85 0.639485 -1.8411 0
M  V30 11025 H 1298.95 2.09128 -2.31672 0
M  V30 11026 N 1299.25 1.36039 0.795694 0
M  V30 11027 C 1300.18 1.32528 1.92246 0
M  V30 11028 C 1301.16 0.197805 1.68946 0
M  V30 11029 O 1302.35 0.394474 1.90151 0
M  V30 11030 C 1299.48 1.10748 3.29169 0
M  V30 11031 C 1298.43 2.20253 3.66978 0
M  V30 11032 C 1297.76 1.83624 5.02181 0
M  V30 11033 C 1299.06 3.62296 3.76216 0
M  V30 11034 H 1300.75 2.2681 1.95442 0
M  V30 11035 H 1298.3 1.09181 0.938908 0
M  V30 11036 H 1300.25 1.06929 4.07608 0
M  V30 11037 H 1298.97 0.129141 3.26345 0
M  V30 11038 H 1297.63 2.23187 2.90832 0
M  V30 11039 H 1297.28 0.843804 4.95872 0
M  V30 11040 H 1296.98 2.56935 5.28449 0
M  V30 11041 H 1298.5 1.81349 5.83048 0
M  V30 11042 H 1299.92 3.61623 4.44861 0
M  V30 11043 H 1298.31 4.34459 4.13963 0
M  V30 11044 H 1299.38 3.97657 2.77483 0
M  V30 11045 N 1300.73 -1.01913 1.20215 0
M  V30 11046 C 1302.14 -1.5692 1.01159 0
M  V30 11047 C 1302.49 -1.91368 -0.432746 0
M  V30 11048 O 1301.62 -1.71959 -1.31374 0
M  V30 11049 C 1302.21 -2.85125 1.83001 0
M  V30 11050 C 1300.77 -3.36669 1.68318 0
M  V30 11051 C 1299.92 -2.10003 1.81091 0
M  V30 11052 H 1302.87 -0.843246 1.34443 0
M  V30 11053 H 1302.89 -3.56428 1.33188 0
M  V30 11054 H 1302.4 -2.60021 2.88116 0
M  V30 11055 H 1300.5 -3.66739 0.658292 0
M  V30 11056 H 1300.61 -4.09042 2.49442 0
M  V30 11057 H 1298.98 -2.22337 1.24252 0
M  V30 11058 H 1299.76 -1.87329 2.87685 0
M  V30 11059 N 1302.21 -1.00763 -1.2118 0
M  V30 11060 C 1303.45 -0.690459 -1.8994 0
M  V30 11061 C 1303.78 0.781464 -1.78656 0
M  V30 11062 O 1303.05 1.56135 -1.18316 0
M  V30 11063 H 1301.63 -0.252397 -0.703068 0
M  V30 11064 H 1304.29 -1.2773 -1.47211 0
M  V30 11065 H 1303.38 -0.96594 -2.96776 0
M  V30 11066 N 1303.68 1.3679 -0.7827 0
M  V30 11067 C 1305.1 1.82006 -0.41603 0
M  V30 11068 C 1305.45 1.65151 1.05922 0
M  V30 11069 O 1304.57 1.1687 1.82127 0
M  V30 11070 C 1305.17 3.30432 -0.748353 0
M  V30 11071 C 1303.73 3.73883 -0.4346 0
M  V30 11072 C 1302.87 2.59159 -0.986505 0
M  V30 11073 H 1305.82 1.25107 -0.976423 0
M  V30 11074 H 1305.84 3.80482 -0.036985 0
M  V30 11075 H 1305.36 3.42667 -1.82212 0
M  V30 11076 H 1303.46 3.67211 0.631401 0
M  V30 11077 H 1303.57 4.69577 -0.950511 0
M  V30 11078 H 1301.93 2.51377 -0.410108 0
M  V30 11079 H 1302.72 2.74182 -2.06589 0
M  V30 11080 N 1305.16 0.53415 1.48272 0
M  V30 11081 C 1306.57 0.0947592 1.86459 0
M  V30 11082 C 1306.92 -1.32906 1.44328 0
M  V30 11083 O 1306.05 -1.99605 0.835866 0
M  V30 11084 C 1306.64 0.16519 3.38397 0
M  V30 11085 C 1305.2 -0.219029 3.75762 0
M  V30 11086 C 1304.35 0.523097 2.72321 0
M  V30 11087 H 1307.3 0.74517 1.40117 0
M  V30 11088 H 1307.32 -0.622065 3.75381 0
M  V30 11089 H 1306.83 1.20157 3.69031 0
M  V30 11090 H 1304.94 -1.2574 3.50742 0
M  V30 11091 H 1305.05 0.123482 4.78941 0
M  V30 11092 H 1303.41 -0.0311323 2.54681 0
M  V30 11093 H 1304.2 1.56019 3.05799 0
M  V30 11094 N 1306.64 -1.55279 0.269478 0
M  V30 11095 C 1307.89 -1.99077 -0.348224 0
M  V30 11096 C 1308.21 -1.15925 -1.568 0
M  V30 11097 O 1307.48 -0.247404 -1.94331 0
M  V30 11098 H 1306.06 -0.735307 -0.131653 0
M  V30 11099 H 1308.72 -1.91288 0.373506 0
M  V30 11100 H 1307.82 -3.05427 -0.641953 0
M  V30 11101 N 1308.12 0.00332656 -1.576 0
M  V30 11102 C 1309.34 0.703587 -1.95101 0
M  V30 11103 C 1309.77 1.66697 -0.871418 0
M  V30 11104 O 1309.13 1.80494 0.170739 0
M  V30 11105 C 1309.17 1.41457 -3.31696 0
M  V30 11106 O 1308.28 2.52885 -3.25765 0
M  V30 11107 H 1307.62 0.187396 -0.637008 0
M  V30 11108 H 1310.15 -0.0488727 -2.04542 0
M  V30 11109 H 1310.16 1.77874 -3.67185 0
M  V30 11110 H 1308.83 0.708182 -4.09826 0
M  V30 11111 H 1307.41 2.18821 -3.01947 0
M  V30 11112 N 1309.6 1.55164 0.276031 0
M  V30 11113 C 1310.54 1.88623 1.36104 0
M  V30 11114 C 1311.54 0.762265 1.51281 0
M  V30 11115 O 1312.74 0.946573 1.53101 0
M  V30 11116 H 1309.12 0.59863 0.455133 0
M  V30 11117 H 1311.09 2.79266 1.05134 0
M  V30 11118 C 1309.84 2.17207 2.71508 0
M  V30 11119 H 1309.16 3.03179 2.6062 0
M  V30 11120 H 1310.6 2.44541 3.46375 0
M  V30 11121 C 1309.06 0.978671 3.22372 0
M  V30 11122 O 1309.59 0.211766 4.01141 0
M  V30 11123 N 1307.8 0.777199 2.80014 0
M  V30 11124 H 1307.34 1.40252 2.16072 0
M  V30 11125 H 1307.3 -0.0196754 3.14394 0
M  V30 11126 N 1311.07 -0.540404 1.48045 0
M  V30 11127 C 1312.32 -1.29422 1.55224 0
M  V30 11128 C 1312.64 -1.93716 0.223365 0
M  V30 11129 O 1311.91 -1.808 -0.754204 0
M  V30 11130 H 1310.49 -0.480658 0.571819 0
M  V30 11131 H 1313.16 -0.629712 1.84447 0
M  V30 11132 H 1312.25 -2.07897 2.32777 0
M  V30 11133 N 1312.55 -1.36459 -0.788468 0
M  V30 11134 C 1313.5 -1.30924 -1.92254 0
M  V30 11135 C 1314.49 -0.200866 -1.68205 0
M  V30 11136 O 1315.7 -0.367927 -1.762 0
M  V30 11137 H 1312.08 -0.407609 -0.631949 0
M  V30 11138 H 1314.05 -2.26695 -1.94041 0
M  V30 11139 C 1312.8 -1.11635 -3.29292 0
M  V30 11140 H 1312.12 -1.96168 -3.48365 0
M  V30 11141 H 1313.56 -1.11808 -4.08993 0
M  V30 11142 C 1312.02 0.178963 -3.36424 0
M  V30 11143 O 1312.55 1.16846 -3.8433 0
M  V30 11144 N 1310.75 0.223962 -2.89736 0
M  V30 11145 H 1310.3 -0.581888 -2.50942 0
M  V30 11146 H 1310.26 1.0903 -2.94889 0
M  V30 11147 N 1314.03 1.01274 -1.20754 0
M  V30 11148 C 1315.44 1.56381 -1.0199 0
M  V30 11149 C 1315.79 1.91595 0.422591 0
M  V30 11150 O 1314.92 1.72653 1.3046 0
M  V30 11151 C 1315.51 2.8415 -1.8451 0
M  V30 11152 C 1314.07 3.35772 -1.70101 0
M  V30 11153 C 1313.22 2.0904 -1.82202 0
M  V30 11154 H 1316.17 0.836105 -1.34889 0
M  V30 11155 H 1316.19 3.55717 -1.35076 0
M  V30 11156 H 1315.7 2.5849 -2.8949 0
M  V30 11157 H 1313.8 3.66384 -0.677732 0
M  V30 11158 H 1313.92 4.07714 -2.51607 0
M  V30 11159 H 1312.28 2.21675 -1.25429 0
M  V30 11160 H 1313.06 1.858 -2.88675 0
M  V30 11161 N 1315.51 1.01404 1.20644 0
M  V30 11162 C 1316.76 0.700523 1.89571 0
M  V30 11163 C 1317.08 -0.771978 1.79068 0
M  V30 11164 O 1316.35 -1.55506 1.19142 0
M  V30 11165 H 1314.93 0.256122 0.70172 0
M  V30 11166 H 1317.59 1.28509 1.46531 0
M  V30 11167 H 1316.69 0.981665 2.9626 0
M  V30 11168 N 1316.99 -1.36373 0.789944 0
M  V30 11169 C 1318.4 -1.81783 0.425677 0
M  V30 11170 C 1318.75 -1.65711 -1.05045 0
M  V30 11171 O 1317.87 -1.17835 -1.81505 0
M  V30 11172 C 1318.47 -3.3003 0.765866 0
M  V30 11173 C 1317.03 -3.73647 0.454421 0
M  V30 11174 C 1316.18 -2.58632 1.00023 0
M  V30 11175 H 1319.13 -1.24587 0.983044 0
M  V30 11176 H 1319.15 -3.80457 0.0571624 0
M  V30 11177 H 1318.66 -3.41696 1.84026 0
M  V30 11178 H 1316.76 -3.67541 -0.611918 0
M  V30 11179 H 1316.87 -4.69066 0.975401 0
M  V30 11180 H 1315.24 -2.51156 0.423434 0
M  V30 11181 H 1316.02 -2.73083 2.0804 0
M  V30 11182 N 1318.47 -0.542005 -1.47987 0
M  V30 11183 C 1319.88 -0.104646 -1.86406 0
M  V30 11184 C 1320.23 1.32139 -1.4503 0
M  V30 11185 O 1319.35 1.99159 -0.846439 0
M  V30 11186 C 1319.95 -0.183133 -3.38305 0
M  V30 11187 C 1318.51 0.199098 -3.75873 0
M  V30 11188 C 1317.65 -0.537532 -2.7204 0
M  V30 11189 H 1320.6 -0.75259 -1.3972 0
M  V30 11190 H 1320.63 0.602149 -3.75705 0
M  V30 11191 H 1320.14 -1.22113 -3.68389 0
M  V30 11192 H 1318.24 1.23878 -3.51404 0
M  V30 11193 H 1318.35 -0.14888 -4.78869 0
M  V30 11194 H 1316.72 0.0176255 -2.54694 0
M  V30 11195 H 1317.5 -1.57639 -3.04967 0
M  V30 11196 N 1319.94 1.55134 -0.277709 0
M  V30 11197 C 1321.19 1.99259 0.337662 0
M  V30 11198 C 1321.51 1.16755 1.56183 0
M  V30 11199 O 1320.78 0.257707 1.94198 0
M  V30 11200 H 1319.36 0.735995 0.127751 0
M  V30 11201 H 1322.02 1.91087 -0.383646 0
M  V30 11202 H 1321.12 3.05763 0.625747 0
M  V30 11203 N 1321.42 0.00503138 1.57599 0
M  V30 11204 C 1322.83 -0.537106 1.78807 0
M  V30 11205 C 1323.18 -1.73666 0.912945 0
M  V30 11206 O 1322.31 -2.16085 0.116775 0
M  V30 11207 C 1322.9 -0.98116 3.24282 0
M  V30 11208 C 1321.46 -1.46857 3.46569 0
M  V30 11209 C 1320.61 -0.422088 2.74069 0
M  V30 11210 H 1323.56 0.231182 1.57007 0
M  V30 11211 H 1323.58 -1.8469 3.32671 0
M  V30 11212 H 1323.09 -0.107907 3.8795 0
M  V30 11213 H 1321.19 -2.36255 2.88122 0
M  V30 11214 H 1321.31 -1.49256 4.55258 0
M  V30 11215 H 1319.67 -0.884853 2.38836 0
M  V30 11216 H 1320.45 0.442285 3.40439 0
M  V30 11217 N 1322.9 -1.55308 -0.267798 0
M  V30 11218 C 1324.12 -1.80524 -1.02107 0
M  V30 11219 C 1324.55 -0.579268 -1.78958 0
M  V30 11220 O 1323.91 0.471262 -1.75068 0
M  V30 11221 C 1323.96 -3.03248 -1.95123 0
M  V30 11222 O 1323.06 -2.78699 -3.03975 0
M  V30 11223 H 1322.4 -0.596518 -0.291655 0
M  V30 11224 H 1324.93 -2.0246 -0.295128 0
M  V30 11225 H 1324.94 -3.32121 -2.3698 0
M  V30 11226 H 1323.62 -3.92126 -1.386 0
M  V30 11227 H 1322.19 -2.60936 -2.66396 0
M  V30 11228 N 1324.38 0.532545 -1.4833 0
M  V30 11229 C 1325.63 1.28597 -1.55908 0
M  V30 11230 C 1325.95 1.93595 -0.233635 0
M  V30 11231 O 1325.22 1.81197 0.744605 0
M  V30 11232 H 1323.8 0.477619 -0.57436 0
M  V30 11233 H 1326.46 0.619922 -1.84778 0
M  V30 11234 H 1325.55 2.0666 -2.33877 0
M  V30 11235 N 1325.86 1.36875 0.78122 0
M  V30 11236 C 1327.08 1.349 1.57533 0
M  V30 11237 C 1327.51 -0.0655249 1.87986 0
M  V30 11238 O 1326.86 -1.03986 1.48515 0
M  V30 11239 C 1326.91 2.18562 2.86815 0
M  V30 11240 O 1326.02 1.58374 3.80777 0
M  V30 11241 H 1325.36 0.461355 0.477543 0
M  V30 11242 H 1327.89 1.80271 0.96766 0
M  V30 11243 H 1327.9 2.31436 3.36008 0
M  V30 11244 H 1326.57 3.21385 2.63978 0
M  V30 11245 H 1325.15 1.54487 3.39394 0
M  V30 11246 N 1327.33 -1.00632 1.21289 0
M  V30 11247 C 1328.74 -1.55838 1.02817 0
M  V30 11248 C 1329.1 -1.91816 -0.412425 0
M  V30 11249 O 1328.22 -1.73342 -1.29543 0
M  V30 11250 C 1328.82 -2.83168 1.86014 0
M  V30 11251 C 1327.37 -3.34865 1.71879 0
M  V30 11252 C 1326.52 -2.0807 1.83309 0
M  V30 11253 H 1329.47 -0.828939 1.3533 0
M  V30 11254 H 1329.49 -3.54996 1.36961 0
M  V30 11255 H 1329.01 -2.56951 2.90857 0
M  V30 11256 H 1327.11 -3.6602 0.697153 0
M  V30 11257 H 1327.22 -4.06374 2.53766 0
M  V30 11258 H 1325.58 -2.21006 1.26603 0
M  V30 11259 H 1326.37 -1.84267 2.89656 0
M  V30 11260 N 1328.81 -1.02043 -1.20104 0
M  V30 11261 C 1330.06 -0.710566 -1.89197 0
M  V30 11262 C 1330.38 0.762471 -1.79475 0
M  V30 11263 O 1329.65 1.54871 -1.19965 0
M  V30 11264 H 1328.23 -0.259839 -0.700352 0
M  V30 11265 H 1330.89 -1.29285 -1.45848 0
M  V30 11266 H 1329.99 -0.997363 -2.95735 0
M  V30 11267 N 1330.29 1.35952 -0.797165 0
M  V30 11268 C 1331.24 2.29941 -0.198995 0
M  V30 11269 C 1332.21 1.52355 0.661592 0
M  V30 11270 O 1333.39 1.80832 0.60865 0
M  V30 11271 C 1330.53 3.38846 0.654033 0
M  V30 11272 C 1329.65 4.31409 -0.225949 0
M  V30 11273 C 1328.78 5.27401 0.634188 0
M  V30 11274 C 1327.82 6.11602 -0.246773 0
M  V30 11275 N 1326.96 6.9976 0.57279 0
M  V30 11276 H 1331.8 2.80508 -1.00594 0
M  V30 11277 H 1329.33 1.38064 -0.507617 0
M  V30 11278 H 1331.29 4.00643 1.16367 0
M  V30 11279 H 1329.92 2.89578 1.42633 0
M  V30 11280 H 1328.97 3.70699 -0.853616 0
M  V30 11281 H 1330.29 4.90532 -0.904416 0
M  V30 11282 H 1329.44 5.94525 1.20933 0
M  V30 11283 H 1328.18 4.68751 1.34625 0
M  V30 11284 H 1327.18 5.43434 -0.834258 0
M  V30 11285 H 1328.41 6.72329 -0.956559 0
M  V30 11286 H 1326.35 6.43609 1.26901 0
M  V30 11287 H 1326.27 7.55985 -0.0478303 0
M  V30 11288 H 1327.54 7.71244 1.13151 0
M  V30 11289 N 1331.77 0.549846 1.47697 0
M  V30 11290 C 1333.05 -0.0422793 1.95554 0
M  V30 11291 C 1333.43 -1.49303 1.49238 0
M  V30 11292 O 1332.77 -2.16598 0.727844 0
M  V30 11293 C 1332.98 0.0955552 3.48869 0
M  V30 11294 C 1334.33 -0.0535698 4.24566 0
M  V30 11295 O 1335.36 0.0227365 3.56193 0
M  V30 11296 O 1334.21 -0.21645 5.46071 0
M  V30 11297 H 1331.31 -0.0682465 0.824179 0
M  V30 11298 H 1333.85 0.615849 1.58131 0
M  V30 11299 H 1332.63 1.10536 3.75363 0
M  V30 11300 H 1332.25 -0.600522 3.93039 0
M  V30 11301 N 1333.25 -1.54984 0.285932 0
M  V30 11302 C 1334.49 -1.99436 -0.32709 0
M  V30 11303 C 1334.82 -1.17582 -1.55562 0
M  V30 11304 O 1334.09 -0.268002 -1.94058 0
M  V30 11305 H 1332.67 -0.736662 -0.123846 0
M  V30 11306 H 1335.33 -1.90881 0.393774 0
M  V30 11307 H 1334.42 -3.0609 -0.609523 0
M  V30 11308 N 1334.72 -0.0133892 -1.57594 0
M  V30 11309 C 1336.14 0.527615 -1.7909 0
M  V30 11310 C 1336.49 1.73179 -0.922142 0
M  V30 11311 O 1335.61 2.1602 -0.128233 0
M  V30 11312 C 1336.21 0.963949 -3.24798 0
M  V30 11313 C 1334.77 1.45017 -3.47343 0
M  V30 11314 C 1333.91 0.407548 -2.74289 0
M  V30 11315 H 1336.86 -0.239505 -1.56882 0
M  V30 11316 H 1336.88 1.82924 -3.33645 0
M  V30 11317 H 1336.4 0.0873315 -3.88002 0
M  V30 11318 H 1334.5 2.34724 -2.89371 0
M  V30 11319 H 1334.61 1.4684 -4.56043 0
M  V30 11320 H 1332.97 0.872174 -2.39301 0
M  V30 11321 H 1333.76 -0.460333 -3.402 0
M  V30 11322 N 1336.2 1.55448 0.259558 0
M  V30 11323 C 1337.61 1.67256 0.8296 0
M  V30 11324 C 1337.96 0.60851 1.86525 0
M  V30 11325 O 1337.09 -0.247563 2.14979 0
M  V30 11326 C 1337.68 3.03213 1.51152 0
M  V30 11327 C 1336.24 3.17004 2.02943 0
M  V30 11328 C 1335.39 2.63096 0.876103 0
M  V30 11329 H 1338.34 1.5866 0.0356218 0
M  V30 11330 H 1338.36 2.96952 2.37906 0
M  V30 11331 H 1337.87 3.80635 0.75752 0
M  V30 11332 H 1335.98 2.44381 2.81263 0
M  V30 11333 H 1336.09 4.23748 2.2355 0
M  V30 11334 H 1334.45 2.20596 1.27317 0
M  V30 11335 H 1335.24 3.43033 0.13539 0
M  V30 11336 N 1337.68 -0.524672 1.4861 0
M  V30 11337 C 1338.93 -1.27768 1.56588 0
M  V30 11338 C 1339.25 -1.93469 0.243899 0
M  V30 11339 O 1338.52 -1.8159 -0.734985 0
M  V30 11340 H 1337.1 -0.474566 0.576885 0
M  V30 11341 H 1339.76 -0.610114 1.85104 0
M  V30 11342 H 1338.86 -2.05416 2.34969 0
M  V30 11343 N 1339.16 -1.37287 -0.77395 0
M  V30 11344 C 1340.57 -1.28954 -1.3501 0
M  V30 11345 C 1340.92 0.0638301 -1.96096 0
M  V30 11346 O 1340.05 0.965624 -1.93661 0
M  V30 11347 C 1340.64 -2.3352 -2.45467 0
M  V30 11348 C 1339.2 -2.28828 -2.98856 0
M  V30 11349 C 1338.35 -2.17468 -1.72055 0
M  V30 11350 H 1341.3 -1.47941 -0.57438 0
M  V30 11351 H 1341.32 -1.98058 -3.24889 0
M  V30 11352 H 1340.83 -3.32009 -2.00977 0
M  V30 11353 H 1338.93 -1.33855 -3.47726 0
M  V30 11354 H 1339.04 -3.22152 -3.54619 0
M  V30 11355 H 1337.41 -1.63977 -1.94894 0
M  V30 11356 H 1338.19 -3.17868 -1.29672 0
M  V30 11357 N 1340.64 0.999871 -1.21821 0
M  V30 11358 C 1341.6 2.07024 -0.983541 0
M  V30 11359 C 1342.6 1.6073 0.0474011 0
M  V30 11360 O 1343.79 1.73156 -0.190398 0
M  V30 11361 C 1340.92 3.37444 -0.484199 0
M  V30 11362 H 1342.11 2.29276 -1.9332 0
M  V30 11363 H 1339.67 1.1704 -1.03592 0
M  V30 11364 H 1340.4 3.20874 0.470138 0
M  V30 11365 H 1340.19 3.72378 -1.2279 0
M  V30 11366 H 1341.68 4.16213 -0.34004 0
M  V30 11367 N 1342.11 1.02678 1.19562 0
M  V30 11368 C 1343.36 0.72059 1.88817 0
M  V30 11369 C 1343.68 -0.752942 1.79877 0
M  V30 11370 O 1342.95 -1.54233 1.20785 0
M  V30 11371 H 1341.53 0.26355 0.698964 0
M  V30 11372 H 1344.2 1.30056 1.4516 0
M  V30 11373 H 1343.29 1.01303 2.95202 0
M  V30 11374 N 1343.59 -1.35528 0.804364 0
M  V30 11375 C 1344.54 -2.31728 0.20125 0
M  V30 11376 C 1345.53 -1.56527 -0.647751 0
M  V30 11377 O 1346.74 -1.71672 -0.541163 0
M  V30 11378 H 1343.12 -0.750572 0.0463165 0
M  V30 11379 H 1345.09 -2.80142 1.02777 0
M  V30 11380 C 1343.84 -3.41807 -0.637429 0
M  V30 11381 H 1343.16 -3.99799 0.00651699 0
M  V30 11382 H 1344.6 -4.11403 -1.02585 0
M  V30 11383 C 1343.06 -2.84655 -1.80202 0
M  V30 11384 O 1343.59 -2.78026 -2.89939 0
M  V30 11385 N 1341.79 -2.41735 -1.61285 0
M  V30 11386 H 1341.34 -2.47327 -0.720231 0
M  V30 11387 H 1341.3 -2.03844 -2.39364 0
M  V30 11388 N 1345.07 -0.557671 -1.47404 0
M  V30 11389 C 1346.3 -0.0386599 -2.06864 0
M  V30 11390 C 1346.71 1.25527 -1.41027 0
M  V30 11391 O 1346.07 1.75318 -0.506949 0
M  V30 11392 C 1346.12 0.160141 -3.61145 0
M  V30 11393 O 1345.84 -1.08255 -4.24515 0
M  V30 11394 C 1347.34 0.716381 -4.37473 0
M  V30 11395 H 1344.56 -0.0460523 -0.669418 0
M  V30 11396 H 1347.11 -0.771214 -1.894 0
M  V30 11397 H 1345.26 0.842826 -3.78121 0
M  V30 11398 H 1345.68 -0.88057 -5.17055 0
M  V30 11399 H 1347.15 0.804773 -5.46102 0
M  V30 11400 H 1347.63 1.72776 -4.03788 0
M  V30 11401 H 1348.23 0.0693787 -4.25243 0
M  V30 11402 N 1346.55 1.54831 -0.294147 0
M  V30 11403 C 1347.8 1.99606 0.316509 0
M  V30 11404 C 1348.12 1.18405 1.54936 0
M  V30 11405 O 1347.39 0.278289 1.93913 0
M  V30 11406 H 1345.97 0.737309 0.119938 0
M  V30 11407 H 1348.63 1.90669 -0.403891 0
M  V30 11408 H 1347.73 3.06409 0.593282 0
M  V30 11409 N 1348.03 0.0217466 1.57585 0
M  V30 11410 C 1348.99 -0.947546 2.08696 0
M  V30 11411 C 1349.99 -1.25879 1.00055 0
M  V30 11412 O 1351.18 -1.20035 1.26242 0
M  V30 11413 C 1348.31 -2.26624 2.54665 0
M  V30 11414 H 1349.51 -0.505016 2.95617 0
M  V30 11415 H 1347.06 -0.226152 1.54655 0
M  V30 11416 H 1347.79 -2.75521 1.71052 0
M  V30 11417 H 1347.58 -2.05347 3.34028 0
M  V30 11418 H 1349.07 -2.96114 2.94459 0
M  V30 11419 N 1349.51 -1.55583 -0.251311 0
M  V30 11420 C 1350.92 -1.67693 -0.820719 0
M  V30 11421 C 1351.27 -0.618393 -1.862 0
M  V30 11422 O 1350.39 0.236158 -2.15108 0
M  V30 11423 C 1350.99 -3.04011 -1.49542 0
M  V30 11424 C 1349.55 -3.18075 -2.01259 0
M  V30 11425 C 1348.69 -2.63557 -0.862138 0
M  V30 11426 H 1351.64 -1.58677 -0.0272072 0
M  V30 11427 H 1351.67 -2.9821 -2.36328 0
M  V30 11428 H 1351.18 -3.81032 -0.737323 0
M  V30 11429 H 1349.28 -2.45869 -2.79963 0
M  V30 11430 H 1349.39 -4.24927 -2.213 0
M  V30 11431 H 1347.76 -2.21268 -1.26145 0
M  V30 11432 H 1348.54 -3.431 -0.117196 0
M  V30 11433 N 1350.98 0.516783 -1.48886 0
M  V30 11434 C 1352.23 1.26936 -1.57263 0
M  V30 11435 C 1352.55 1.93337 -0.254156 0
M  V30 11436 O 1351.82 1.81977 0.725345 0
M  V30 11437 H 1350.4 0.4715 -0.579393 0
M  V30 11438 H 1353.06 0.600289 -1.85425 0
M  V30 11439 H 1352.16 2.04167 -2.36055 0
M  V30 11440 N 1352.46 1.37696 0.766659 0
M  V30 11441 C 1353.69 1.36564 1.56093 0
M  V30 11442 C 1354.11 -0.0455828 1.88045 0
M  V30 11443 O 1353.47 -1.02405 1.49609 0
M  V30 11444 C 1353.52 2.21592 2.84481 0
M  V30 11445 O 1352.62 1.62404 3.79076 0
M  V30 11446 H 1351.96 0.466394 0.472623 0
M  V30 11447 H 1354.49 1.81287 0.948486 0
M  V30 11448 H 1354.5 2.34987 3.33534 0
M  V30 11449 H 1353.18 3.24167 2.60554 0
M  V30 11450 H 1351.75 1.58078 3.37736 0
M  V30 11451 N 1353.94 -0.993397 1.22349 0
M  V30 11452 C 1355.35 -1.54739 1.04465 0
M  V30 11453 C 1355.7 -1.92243 -0.392057 0
M  V30 11454 O 1354.83 -1.74707 -1.27697 0
M  V30 11455 C 1355.42 -2.81179 1.89007 0
M  V30 11456 C 1353.98 -3.33023 1.75421 0
M  V30 11457 C 1353.13 -2.06114 1.85505 0
M  V30 11458 H 1356.08 -0.814539 1.36202 0
M  V30 11459 H 1356.1 -3.53523 1.40718 0
M  V30 11460 H 1355.61 -2.53851 2.93566 0
M  V30 11461 H 1353.71 -3.6526 0.735935 0
M  V30 11462 H 1353.83 -4.03659 2.58062 0
M  V30 11463 H 1352.19 -2.19651 1.2894 0
M  V30 11464 H 1352.97 -1.81184 2.91594 0
M  V30 11465 N 1355.42 -1.03311 -1.19015 0
M  V30 11466 C 1356.67 -0.730593 -1.88432 0
M  V30 11467 C 1356.99 0.743392 -1.80274 0
M  V30 11468 O 1356.26 1.5359 -1.21601 0
M  V30 11469 H 1354.84 -0.267253 -0.697556 0
M  V30 11470 H 1357.5 -1.30824 -1.44468 0
M  V30 11471 H 1356.59 -1.02867 -2.9466 0
M  V30 11472 N 1356.9 1.35099 -0.81154 0
M  V30 11473 C 1358.14 1.9892 -0.394815 0
M  V30 11474 C 1358.47 1.6422 1.0366 0
M  V30 11475 O 1357.75 0.908031 1.72003 0
M  V30 11476 C 1358.03 3.55331 -0.58413 0
M  V30 11477 C 1357.89 3.99812 -2.06084 0
M  V30 11478 C 1359.2 4.40098 -0.0129096 0
M  V30 11479 H 1356.32 0.72261 -0.144926 0
M  V30 11480 H 1358.97 1.60173 -1.02199 0
M  V30 11481 H 1357.12 3.88468 -0.0502446 0
M  V30 11482 H 1358.79 3.77061 -2.65749 0
M  V30 11483 H 1357.03 3.50539 -2.55548 0
M  V30 11484 H 1357.7 5.08655 -2.14416 0
M  V30 11485 H 1360.18 4.13449 -0.468917 0
M  V30 11486 H 1359.05 5.4862 -0.175252 0
M  V30 11487 H 1359.31 4.28675 1.0812 0
M  V30 11488 N 1358.37 0.56548 1.47106 0
M  V30 11489 C 1359.6 0.0476763 2.07345 0
M  V30 11490 C 1360.02 -1.24032 1.41413 0
M  V30 11491 O 1359.38 -1.74498 0.491941 0
M  V30 11492 C 1359.43 -0.122618 3.60391 0
M  V30 11493 O 1358.53 -1.18326 3.9506 0
M  V30 11494 H 1357.87 0.0550419 0.661715 0
M  V30 11495 H 1360.4 0.78352 1.89003 0
M  V30 11496 H 1360.41 -0.334227 4.06629 0
M  V30 11497 H 1359.09 0.81807 4.07775 0
M  V30 11498 H 1357.67 -0.951481 3.60557 0
M  V30 11499 N 1359.85 -1.54672 0.302354 0
M  V30 11500 C 1361.1 -1.99771 -0.305919 0
M  V30 11501 C 1361.42 -1.19225 -1.54306 0
M  V30 11502 O 1360.69 -0.288569 -1.93763 0
M  V30 11503 H 1359.27 -0.737934 -0.116026 0
M  V30 11504 H 1361.93 -1.90452 0.413997 0
M  V30 11505 H 1361.03 -3.06719 -0.577024 0
M  V30 11506 N 1361.33 -0.0301034 -1.57571 0
M  V30 11507 C 1362.74 0.508591 -1.79639 0
M  V30 11508 C 1363.09 1.72191 -0.940458 0
M  V30 11509 O 1362.22 2.15872 -0.151138 0
M  V30 11510 C 1362.81 0.929446 -3.25802 0
M  V30 11511 C 1361.37 1.41325 -3.48861 0
M  V30 11512 C 1360.52 0.378433 -2.74706 0
M  V30 11513 H 1363.47 -0.256131 -1.56619 0
M  V30 11514 H 1363.49 1.79374 -3.35567 0
M  V30 11515 H 1363 0.0461738 -3.88073 0
M  V30 11516 H 1361.1 2.31641 -2.91844 0
M  V30 11517 H 1361.22 1.41995 -4.57574 0
M  V30 11518 H 1359.58 0.846744 -2.40213 0
M  V30 11519 H 1360.36 -0.49639 -3.39692 0
M  V30 11520 N 1362.81 1.55714 0.243056 0
M  V30 11521 C 1363.76 1.90638 1.30099 0
M  V30 11522 C 1364.73 0.761049 1.47639 0
M  V30 11523 O 1365.91 1.01505 1.61559 0
M  V30 11524 C 1363.05 2.20985 2.65065 0
M  V30 11525 C 1362.16 3.48343 2.55501 0
M  V30 11526 C 1361.3 3.68241 3.82847 0
M  V30 11527 C 1360.34 4.89187 3.67916 0
M  V30 11528 N 1359.47 5.05586 4.87162 0
M  V30 11529 H 1364.31 2.80857 0.996155 0
M  V30 11530 H 1361.85 1.39027 0.480619 0
M  V30 11531 H 1363.81 2.36585 3.43632 0
M  V30 11532 H 1362.44 1.33966 2.93689 0
M  V30 11533 H 1361.49 3.41054 1.68483 0
M  V30 11534 H 1362.8 4.37057 2.4038 0
M  V30 11535 H 1361.96 3.83822 4.69857 0
M  V30 11536 H 1360.7 2.77768 4.00869 0
M  V30 11537 H 1359.7 4.7358 2.79289 0
M  V30 11538 H 1360.93 5.81124 3.51385 0
M  V30 11539 H 1358.87 4.18051 5.05538 0
M  V30 11540 H 1358.79 5.88395 4.74686 0
M  V30 11541 H 1360.06 5.25582 5.7566 0
M  V30 11542 N 1364.29 -0.50888 1.49158 0
M  V30 11543 C 1365.53 -1.261 1.57934 0
M  V30 11544 C 1365.86 -1.93199 0.264405 0
M  V30 11545 O 1365.13 -1.82359 -0.715684 0
M  V30 11546 H 1363.71 -0.468421 0.581886 0
M  V30 11547 H 1366.37 -0.590447 1.85741 0
M  V30 11548 H 1365.46 -2.02913 2.37135 0
M  V30 11549 N 1365.76 -1.381 -0.759346 0
M  V30 11550 C 1367.04 -1.24517 -1.50847 0
M  V30 11551 C 1367.42 0.155929 -2.10523 0
M  V30 11552 O 1366.77 1.16485 -1.96579 0
M  V30 11553 C 1366.98 -2.35086 -2.57945 0
M  V30 11554 C 1368.33 -2.73232 -3.25007 0
M  V30 11555 O 1369.35 -2.34355 -2.68247 0
M  V30 11556 O 1368.21 -3.40254 -4.27656 0
M  V30 11557 H 1365.3 -0.486599 -0.668693 0
M  V30 11558 H 1367.85 -1.49913 -0.795249 0
M  V30 11559 H 1366.62 -3.28858 -2.12056 0
M  V30 11560 H 1366.25 -2.11222 -3.36854 0
M  V30 11561 N 1367.24 0.986894 -1.22875 0
M  V30 11562 C 1368.21 2.0597 -1.00544 0
M  V30 11563 C 1369.21 1.60771 0.0303509 0
M  V30 11564 O 1370.4 1.72945 -0.208753 0
M  V30 11565 C 1367.53 3.36911 -0.519962 0
M  V30 11566 H 1368.72 2.27213 -1.9574 0
M  V30 11567 H 1366.27 1.15935 -1.04827 0
M  V30 11568 H 1367.01 3.21355 0.436078 0
M  V30 11569 H 1366.79 3.71054 -1.26732 0
M  V30 11570 H 1368.28 4.15829 -0.384166 0
M  V30 11571 N 1368.72 1.0394 1.18466 0
M  V30 11572 C 1369.97 0.740576 1.88042 0
M  V30 11573 C 1370.29 -0.733822 1.80666 0
M  V30 11574 O 1369.56 -1.52943 1.22414 0
M  V30 11575 H 1368.14 0.270949 0.696129 0
M  V30 11576 H 1370.8 1.31588 1.43772 0
M  V30 11577 H 1369.9 1.04429 2.94111 0
M  V30 11578 N 1370.2 -1.34667 0.818693 0
M  V30 11579 C 1371.13 -2.28368 0.195126 0
M  V30 11580 C 1372.14 -1.50836 -0.612562 0
M  V30 11581 O 1373.33 -1.72917 -0.442936 0
M  V30 11582 C 1370.43 -3.30601 -0.745411 0
M  V30 11583 C 1369.61 -4.37396 0.0185308 0
M  V30 11584 C 1368.66 -5.19415 -0.842298 0
M  V30 11585 O 1367.69 -5.68467 -0.288821 0
M  V30 11586 N 1368.89 -5.38709 -2.1627 0
M  V30 11587 H 1371.66 -2.8252 1.00013 0
M  V30 11588 H 1369.22 -1.47146 0.675262 0
M  V30 11589 H 1371.21 -3.82367 -1.3258 0
M  V30 11590 H 1369.78 -2.76875 -1.45118 0
M  V30 11591 H 1369 -3.86402 0.780205 0
M  V30 11592 H 1370.29 -5.05877 0.544575 0
M  V30 11593 H 1369.69 -5.00523 -2.63616 0
M  V30 11594 H 1368.24 -5.9361 -2.69204 0
M  V30 11595 N 1371.68 -0.573274 -1.46804 0
M  V30 11596 C 1373.09 -0.144162 -1.86143 0
M  V30 11597 C 1373.44 1.29033 -1.47801 0
M  V30 11598 O 1372.56 1.97319 -0.888494 0
M  V30 11599 C 1373.16 -0.254851 -3.3784 0
M  V30 11600 C 1371.72 0.119325 -3.76211 0
M  V30 11601 C 1370.86 -0.595115 -2.70839 0
M  V30 11602 H 1373.82 -0.782057 -1.38093 0
M  V30 11603 H 1373.84 0.522321 -3.76898 0
M  V30 11604 H 1373.35 -1.29899 -3.65715 0
M  V30 11605 H 1371.45 1.16396 -3.53953 0
M  V30 11606 H 1371.56 -0.250421 -4.78445 0
M  V30 11607 H 1369.93 -0.0364028 -2.54674 0
M  V30 11608 H 1370.71 -1.64072 -3.01555 0
M  V30 11609 N 1373.15 1.5451 -0.310553 0
M  V30 11610 C 1374.4 1.99931 0.29532 0
M  V30 11611 C 1374.72 1.20042 1.53672 0
M  V30 11612 O 1373.99 0.298841 1.93607 0
M  V30 11613 H 1372.57 0.738539 0.112111 0
M  V30 11614 H 1375.24 1.9023 -0.424092 0
M  V30 11615 H 1374.33 3.07021 0.560749 0
M  V30 11616 N 1374.63 0.0384594 1.57553 0
M  V30 11617 C 1375.54 -0.955737 2.14249 0
M  V30 11618 C 1376.56 -1.35056 1.09708 0
M  V30 11619 O 1377.74 -1.43008 1.41812 0
M  V30 11620 C 1374.8 -2.21647 2.66596 0
M  V30 11621 C 1373.86 -1.88119 3.85888 0
M  V30 11622 C 1373.09 -3.08182 4.35729 0
M  V30 11623 O 1373.32 -4.21145 3.84699 0
M  V30 11624 O 1372.25 -2.89936 5.27467 0
M  V30 11625 H 1376.08 -0.50361 2.99495 0
M  V30 11626 H 1373.66 -0.182698 1.48279 0
M  V30 11627 H 1375.54 -2.9564 3.00291 0
M  V30 11628 H 1374.22 -2.66022 1.84428 0
M  V30 11629 H 1373.13 -1.11481 3.57103 0
M  V30 11630 H 1374.46 -1.48553 4.69247 0
M  V30 11631 N 1376.11 -1.55841 -0.234795 0
M  V30 11632 C 1377.06 -1.91326 -1.29086 0
M  V30 11633 C 1378.03 -0.768868 -1.47233 0
M  V30 11634 O 1379.21 -1.0236 -1.61019 0
M  V30 11635 C 1376.35 -2.22388 -2.6389 0
M  V30 11636 C 1375.47 -3.49693 -2.5365 0
M  V30 11637 C 1374.6 -3.70267 -3.80889 0
M  V30 11638 C 1373.64 -4.91132 -3.65317 0
M  V30 11639 N 1372.78 -5.08163 -4.84474 0
M  V30 11640 H 1377.62 -2.81382 -0.981246 0
M  V30 11641 H 1375.15 -1.3928 -0.47324 0
M  V30 11642 H 1377.11 -2.38404 -3.42373 0
M  V30 11643 H 1375.74 -1.35521 -2.92974 0
M  V30 11644 H 1374.79 -3.41943 -1.66672 0
M  V30 11645 H 1376.11 -4.38326 -2.38059 0
M  V30 11646 H 1375.26 -3.86308 -4.67815 0
M  V30 11647 H 1374 -2.7989 -3.9939 0
M  V30 11648 H 1373 -4.75054 -2.76774 0
M  V30 11649 H 1374.23 -5.8298 -3.48298 0
M  V30 11650 H 1372.18 -4.20726 -5.03314 0
M  V30 11651 H 1372.09 -5.90904 -4.71559 0
M  V30 11652 H 1373.36 -5.28627 -5.72865 0
M  V30 11653 N 1377.59 0.500963 -1.49426 0
M  V30 11654 C 1378.84 1.25261 -1.58601 0
M  V30 11655 C 1379.16 1.93056 -0.274647 0
M  V30 11656 O 1378.43 1.82736 0.706003 0
M  V30 11657 H 1377.01 0.465328 -0.584362 0
M  V30 11658 H 1379.67 0.580588 -1.86052 0
M  V30 11659 H 1378.77 2.01652 -2.38208 0
M  V30 11660 N 1379.07 1.38501 0.752011 0
M  V30 11661 C 1380.29 1.38212 1.54636 0
M  V30 11662 C 1380.72 -0.0256356 1.88083 0
M  V30 11663 O 1380.08 -1.00812 1.50687 0
M  V30 11664 C 1380.12 2.24597 2.82114 0
M  V30 11665 O 1379.23 1.66415 3.77332 0
M  V30 11666 H 1378.57 0.47138 0.46765 0
M  V30 11667 H 1381.1 1.82283 0.929205 0
M  V30 11668 H 1381.11 2.38511 3.31023 0
M  V30 11669 H 1379.78 3.26913 2.57101 0
M  V30 11670 H 1378.36 1.61651 3.36041 0
M  V30 11671 N 1380.55 -0.980364 1.23396 0
M  V30 11672 C 1381.96 -1.53622 1.061 0
M  V30 11673 C 1382.31 -1.92648 -0.371645 0
M  V30 11674 O 1381.43 -1.76051 -1.25837 0
M  V30 11675 C 1382.03 -2.79159 1.91979 0
M  V30 11676 C 1380.59 -3.31144 1.78943 0
M  V30 11677 C 1379.73 -2.04135 1.87681 0
M  V30 11678 H 1382.68 -0.800047 1.37058 0
M  V30 11679 H 1382.71 -3.52011 1.4446 0
M  V30 11680 H 1382.22 -2.50723 2.96242 0
M  V30 11681 H 1380.32 -3.64459 0.774634 0
M  V30 11682 H 1380.43 -4.009 2.62329 0
M  V30 11683 H 1378.8 -2.18271 1.31262 0
M  V30 11684 H 1379.58 -1.78081 2.93499 0
M  V30 11685 N 1382.02 -1.04567 -1.17913 0
M  V30 11686 C 1383.27 -0.750538 -1.87647 0
M  V30 11687 C 1383.59 0.72423 -1.81052 0
M  V30 11688 O 1382.86 1.52292 -1.23223 0
M  V30 11689 H 1381.44 -0.274636 -0.694683 0
M  V30 11690 H 1384.1 -1.32349 -1.43072 0
M  V30 11691 H 1383.2 -1.05987 -2.93553 0
M  V30 11692 N 1383.5 1.34231 -0.825823 0
M  V30 11693 C 1384.46 2.27776 -0.25512 0
M  V30 11694 C 1385.46 1.50409 0.568654 0
M  V30 11695 O 1386.65 1.69907 0.384337 0
M  V30 11696 C 1383.79 3.348 0.642013 0
M  V30 11697 H 1384.98 2.79763 -1.0804 0
M  V30 11698 H 1382.53 1.44412 -0.597904 0
M  V30 11699 H 1383.27 2.88032 1.49024 0
M  V30 11700 H 1383.05 3.92064 0.0527756 0
M  V30 11701 H 1384.54 4.0457 1.03502 0
M  V30 11702 N 1384.98 0.581051 1.46498 0
M  V30 11703 C 1385.91 -0.19094 2.28403 0
M  V30 11704 C 1386.92 -0.857039 1.38415 0
M  V30 11705 O 1388.11 -0.726881 1.6303 0
M  V30 11706 C 1385.21 -1.28972 3.134 0
M  V30 11707 C 1384.39 -0.715867 4.31502 0
M  V30 11708 C 1383.45 -1.70215 4.97909 0
M  V30 11709 O 1382.47 -1.23885 5.55555 0
M  V30 11710 N 1383.67 -3.0362 4.94768 0
M  V30 11711 H 1386.44 0.511754 2.95298 0
M  V30 11712 H 1384 0.41871 1.56392 0
M  V30 11713 H 1385.99 -1.94877 3.5469 0
M  V30 11714 H 1384.56 -1.8953 2.4859 0
M  V30 11715 H 1383.78 0.120591 3.94016 0
M  V30 11716 H 1385.07 -0.312226 5.07841 0
M  V30 11717 H 1384.47 -3.43885 4.49177 0
M  V30 11718 H 1383.02 -3.65018 5.40005 0
M  V30 11719 N 1386.46 -1.54343 0.318742 0
M  V30 11720 C 1387.71 -2.00084 -0.284713 0
M  V30 11721 C 1388.03 -1.20855 -1.53033 0
M  V30 11722 O 1387.3 -0.309104 -1.93446 0
M  V30 11723 H 1385.88 -0.739123 -0.108193 0
M  V30 11724 H 1388.54 -1.90002 0.434174 0
M  V30 11725 H 1387.63 -3.07314 -0.544459 0
M  V30 11726 N 1387.94 -0.0468143 -1.5753 0
M  V30 11727 C 1389.35 0.489509 -1.80169 0
M  V30 11728 C 1389.7 1.71184 -0.958669 0
M  V30 11729 O 1388.82 2.15699 -0.174025 0
M  V30 11730 C 1389.42 0.894838 -3.26769 0
M  V30 11731 C 1387.98 1.37617 -3.50341 0
M  V30 11732 C 1387.12 0.349275 -2.75092 0
M  V30 11733 H 1390.07 -0.272728 -1.56339 0
M  V30 11734 H 1390.1 1.75805 -3.3745 0
M  V30 11735 H 1389.61 0.00501096 -3.881 0
M  V30 11736 H 1387.71 2.28533 -2.94285 0
M  V30 11737 H 1387.82 1.37133 -4.59055 0
M  V30 11738 H 1386.19 0.821219 -2.41098 0
M  V30 11739 H 1386.97 -0.532391 -3.39147 0
M  V30 11740 N 1389.41 1.55964 0.226527 0
M  V30 11741 C 1390.83 1.68978 0.793936 0
M  V30 11742 C 1391.18 0.647938 1.85192 0
M  V30 11743 O 1390.3 -0.201907 2.15456 0
M  V30 11744 C 1390.9 3.06351 1.44687 0
M  V30 11745 C 1389.46 3.21237 1.96173 0
M  V30 11746 C 1388.6 2.64896 0.8201 0
M  V30 11747 H 1391.55 1.587 0.00195967 0
M  V30 11748 H 1391.57 3.01932 2.31554 0
M  V30 11749 H 1391.09 3.82156 0.676611 0
M  V30 11750 H 1389.19 2.50292 2.76016 0
M  V30 11751 H 1389.3 4.28394 2.14512 0
M  V30 11752 H 1387.66 2.23247 1.22609 0
M  V30 11753 H 1388.45 3.43243 0.0625967 0
M  V30 11754 N 1390.89 -0.493031 1.4969 0
M  V30 11755 C 1392.14 -1.24418 1.59263 0
M  V30 11756 C 1392.46 -1.92908 0.284882 0
M  V30 11757 O 1391.73 -1.83108 -0.696302 0
M  V30 11758 H 1390.31 -0.462223 0.586821 0
M  V30 11759 H 1392.97 -0.570713 1.86357 0
M  V30 11760 H 1392.07 -2.00386 2.39274 0
M  V30 11761 N 1392.37 -1.38898 -0.744656 0
M  V30 11762 C 1393.33 -1.36633 -1.84022 0
M  V30 11763 C 1394.33 -0.265187 -1.58598 0
M  V30 11764 O 1395.52 -0.522569 -1.66177 0
M  V30 11765 C 1392.66 -1.12938 -3.21649 0
M  V30 11766 H 1393.85 -2.34111 -1.87435 0
M  V30 11767 H 1391.4 -1.24322 -0.947302 0
M  V30 11768 H 1392.14 -0.161027 -3.239 0
M  V30 11769 H 1391.92 -1.9267 -3.41498 0
M  V30 11770 H 1393.41 -1.14071 -4.01718 0
M  V30 11771 N 1393.85 0.973806 -1.23914 0
M  V30 11772 C 1395.26 1.53057 -1.06913 0
M  V30 11773 C 1395.61 1.92842 0.361423 0
M  V30 11774 O 1394.74 1.76716 1.24901 0
M  V30 11775 C 1395.33 2.78137 -1.93457 0
M  V30 11776 C 1393.89 3.3019 -1.80697 0
M  V30 11777 C 1393.04 2.03137 -1.88761 0
M  V30 11778 H 1395.99 0.792767 -1.37481 0
M  V30 11779 H 1396.01 3.5124 -1.46325 0
M  V30 11780 H 1395.52 2.49149 -2.97568 0
M  V30 11781 H 1393.62 3.64043 -0.793951 0
M  V30 11782 H 1393.73 3.99503 -2.64451 0
M  V30 11783 H 1392.1 2.17572 -1.32418 0
M  V30 11784 H 1392.88 1.76522 -2.9444 0
M  V30 11785 N 1395.33 1.05191 1.17357 0
M  V30 11786 C 1396.57 0.760479 1.87246 0
M  V30 11787 C 1396.9 -0.714618 1.81434 0
M  V30 11788 O 1396.17 -1.51636 1.24029 0
M  V30 11789 H 1394.75 0.278317 0.693216 0
M  V30 11790 H 1397.41 1.33106 1.42369 0
M  V30 11791 H 1396.5 1.07542 2.92987 0
M  V30 11792 N 1396.8 -1.33791 0.83293 0
M  V30 11793 C 1398.22 -1.80336 0.483294 0
M  V30 11794 C 1398.57 -1.68969 -0.997195 0
M  V30 11795 O 1397.69 -1.23549 -1.77664 0
M  V30 11796 C 1398.29 -3.27427 0.870475 0
M  V30 11797 C 1396.85 -3.72012 0.573064 0
M  V30 11798 C 1395.99 -2.55319 1.08201 0
M  V30 11799 H 1398.94 -1.21396 1.02218 0
M  V30 11800 H 1398.96 -3.80083 0.178173 0
M  V30 11801 H 1398.48 -3.35668 1.94804 0
M  V30 11802 H 1396.58 -3.69302 -0.494678 0
M  V30 11803 H 1396.69 -4.65725 1.12414 0
M  V30 11804 H 1395.05 -2.49681 0.503123 0
M  V30 11805 H 1395.84 -2.66326 2.16623 0
M  V30 11806 N 1398.28 -0.588812 -1.46187 0
M  V30 11807 C 1399.21 0.128595 -2.33146 0
M  V30 11808 C 1400.19 0.877608 -1.45712 0
M  V30 11809 O 1401.38 0.851866 -1.74519 0
M  V30 11810 C 1398.51 1.13886 -3.28096 0
M  V30 11811 C 1397.46 0.504296 -4.25019 0
M  V30 11812 C 1396.79 1.62147 -5.09522 0
M  V30 11813 C 1398.09 -0.562466 -5.19263 0
M  V30 11814 H 1399.78 -0.597455 -2.93378 0
M  V30 11815 H 1397.33 -0.288764 -1.41075 0
M  V30 11816 H 1399.28 1.64916 -3.8779 0
M  V30 11817 H 1398.01 1.89527 -2.65983 0
M  V30 11818 H 1396.66 0.0150325 -3.66597 0
M  V30 11819 H 1396.31 2.36769 -4.4379 0
M  V30 11820 H 1396.01 1.20249 -5.75164 0
M  V30 11821 H 1397.54 2.13441 -5.7208 0
M  V30 11822 H 1398.95 -0.137003 -5.73136 0
M  V30 11823 H 1397.35 -0.902115 -5.93281 0
M  V30 11824 H 1398.42 -1.4464 -4.62825 0
M  V30 11825 N 1399.76 1.54172 -0.326923 0
M  V30 11826 C 1401.01 2.00233 0.274098 0
M  V30 11827 C 1401.33 1.21665 1.5239 0
M  V30 11828 O 1400.6 0.319359 1.93279 0
M  V30 11829 H 1399.18 0.739687 0.104271 0
M  V30 11830 H 1401.84 1.8977 -0.444244 0
M  V30 11831 H 1400.94 3.07599 0.528154 0
M  V30 11832 N 1401.24 0.0551678 1.57503 0
M  V30 11833 C 1402.49 -0.617201 1.92025 0
M  V30 11834 C 1402.8 -1.71767 0.93571 0
M  V30 11835 O 1404.01 -2.44847 1.17312 0
M  V30 11836 C 1402.46 -1.14915 3.41061 0
M  V30 11837 C 1402.07 -0.0805814 4.47928 0
M  V30 11838 C 1403.81 -1.79654 3.8461 0
M  V30 11839 C 1401.72 -0.625639 5.88081 0
M  V30 11840 H 1400.65 -0.23431 0.716669 0
M  V30 11841 H 1403.3 0.124706 1.83076 0
M  V30 11842 H 1401.68 -1.9435 3.45028 0
M  V30 11843 H 1402.86 0.693222 4.55556 0
M  V30 11844 H 1401.17 0.469581 4.13744 0
M  V30 11845 H 1403.77 -2.21436 4.86693 0
M  V30 11846 H 1404.11 -2.64987 3.21073 0
M  V30 11847 H 1404.65 -1.06868 3.83176 0
M  V30 11848 H 1401.39 0.190148 6.55224 0
M  V30 11849 H 1400.91 -1.36734 5.84007 0
M  V30 11850 H 1402.58 -1.10728 6.37454 0
M  V30 11851 N 1402.72 -1.56081 -0.218252 0
M  V30 11852 C 1403.68 -1.91851 -1.25402 0
M  V30 11853 C 1404.68 -0.797399 -1.39636 0
M  V30 11854 O 1405.87 -1.06511 -1.37844 0
M  V30 11855 C 1403 -2.17223 -2.6273 0
M  V30 11856 H 1404.19 -2.84493 -0.948882 0
M  V30 11857 H 1401.75 -1.49414 -0.458809 0
M  V30 11858 H 1402.48 -1.27144 -2.98337 0
M  V30 11859 H 1402.27 -2.98899 -2.53775 0
M  V30 11860 H 1403.76 -2.45981 -3.37466 0
M  V30 11861 N 1404.2 0.485086 -1.49949 0
M  V30 11862 C 1405.44 1.23571 -1.5992 0
M  V30 11863 C 1405.76 1.92754 -0.295108 0
M  V30 11864 O 1405.03 1.83474 0.686582 0
M  V30 11865 H 1403.61 0.459104 -0.589264 0
M  V30 11866 H 1406.28 0.560822 -1.86657 0
M  V30 11867 H 1405.37 1.99114 -2.40333 0
M  V30 11868 N 1405.67 1.39291 0.737279 0
M  V30 11869 C 1406.92 1.35702 1.49224 0
M  V30 11870 C 1407.24 -0.0450282 1.95548 0
M  V30 11871 O 1408.44 -0.203495 2.70736 0
M  V30 11872 C 1406.9 2.38387 2.69629 0
M  V30 11873 C 1406.51 3.84295 2.30263 0
M  V30 11874 C 1408.25 2.4387 3.47459 0
M  V30 11875 C 1406.16 4.78626 3.47377 0
M  V30 11876 H 1405.09 0.50449 0.560362 0
M  V30 11877 H 1407.74 1.64926 0.804466 0
M  V30 11878 H 1406.12 2.0223 3.40469 0
M  V30 11879 H 1407.29 4.2948 1.66984 0
M  V30 11880 H 1405.61 3.82085 1.6553 0
M  V30 11881 H 1408.21 3.11539 4.34566 0
M  V30 11882 H 1408.55 1.46253 3.89764 0
M  V30 11883 H 1409.08 2.78908 2.83646 0
M  V30 11884 H 1405.82 5.77497 3.10124 0
M  V30 11885 H 1405.34 4.38123 4.09645 0
M  V30 11886 H 1407.02 4.9742 4.13742 0
M  V30 11887 N 1407.15 -0.967221 1.24429 0
M  V30 11888 C 1408.38 -1.7452 1.11133 0
M  V30 11889 C 1408.79 -1.85785 -0.336087 0
M  V30 11890 O 1408.15 -1.34652 -1.23188 0
M  V30 11891 C 1408.2 -3.16544 1.74591 0
M  V30 11892 O 1407.92 -3.05845 3.13673 0
M  V30 11893 C 1409.42 -4.10677 1.6691 0
M  V30 11894 H 1406.64 -0.547267 0.388253 0
M  V30 11895 H 1409.19 -1.2143 1.64545 0
M  V30 11896 H 1407.34 -3.66618 1.2518 0
M  V30 11897 H 1407.76 -3.95346 3.44676 0
M  V30 11898 H 1409.23 -5.07987 2.15992 0
M  V30 11899 H 1409.71 -4.34652 0.630411 0
M  V30 11900 H 1410.31 -3.66514 2.15749 0
M  V30 11901 N 1408.63 -1.05812 -1.16797 0
M  V30 11902 C 1409.88 -0.770398 -1.8684 0
M  V30 11903 C 1410.2 0.704986 -1.8181 0
M  V30 11904 O 1409.47 1.50977 -1.24832 0
M  V30 11905 H 1408.05 -0.281989 -0.691731 0
M  V30 11906 H 1410.71 -1.33859 -1.41661 0
M  V30 11907 H 1409.81 -1.09094 -2.92412 0
M  V30 11908 N 1410.11 1.33347 -0.840014 0
M  V30 11909 C 1411.07 2.27492 -0.279264 0
M  V30 11910 C 1412.07 1.51004 0.552669 0
M  V30 11911 O 1413.26 1.70305 0.366295 0
M  V30 11912 C 1410.39 3.35462 0.606466 0
M  V30 11913 H 1411.59 2.78601 -1.11001 0
M  V30 11914 H 1409.14 1.4377 -0.613187 0
M  V30 11915 H 1409.87 2.89596 1.45961 0
M  V30 11916 H 1409.66 3.92098 0.0111889 0
M  V30 11917 H 1411.15 4.05645 0.992052 0
M  V30 11918 N 1411.59 0.596556 1.45873 0
M  V30 11919 C 1413 0.259317 1.57479 0
M  V30 11920 C 1413.2 -1.23829 1.58961 0
M  V30 11921 O 1412.26 -2.02076 1.51399 0
M  V30 11922 C 1413.57 0.920755 2.86256 0
M  V30 11923 C 1415.12 0.895638 2.99912 0
M  V30 11924 C 1415.59 1.53688 4.31444 0
M  V30 11925 N 1417.08 1.50186 4.38176 0
M  V30 11926 C 1417.82 1.96727 5.38596 0
M  V30 11927 N 1417.32 2.51304 6.45615 0
M  V30 11928 N 1419.11 1.87561 5.29884 0
M  V30 11929 H 1411.26 1.56909 1.43155 0
M  V30 11930 H 1413.52 0.656664 0.683737 0
M  V30 11931 H 1413.23 1.97481 2.91023 0
M  V30 11932 H 1413.1 0.437331 3.74656 0
M  V30 11933 H 1415.49 -0.149838 2.94719 0
M  V30 11934 H 1415.57 1.41722 2.12952 0
M  V30 11935 H 1415.21 2.58163 4.37395 0
M  V30 11936 H 1415.14 0.990408 5.17203 0
M  V30 11937 H 1417.64 1.10305 3.61443 0
M  V30 11938 H 1417.95 2.84639 7.18471 0
M  V30 11939 H 1416.29 2.55337 6.46396 0
M  V30 11940 H 1419.48 1.4467 4.45183 0
M  V30 11941 H 1419.66 2.24146 6.07999 0
M  V30 11942 N 1413.06 -1.53996 0.335095 0
M  V30 11943 C 1414.31 -2.00375 -0.263475 0
M  V30 11944 C 1414.63 -1.22471 -1.51742 0
M  V30 11945 O 1413.9 -0.329604 -1.93107 0
M  V30 11946 H 1412.48 -0.740229 -0.100347 0
M  V30 11947 H 1415.14 -1.89531 0.454302 0
M  V30 11948 H 1414.24 -3.07874 -0.511834 0
M  V30 11949 N 1414.54 -0.0635198 -1.57472 0
M  V30 11950 C 1415.47 0.90431 -2.15278 0
M  V30 11951 C 1416.45 1.31609 -1.07764 0
M  V30 11952 O 1417.64 1.38861 -1.35762 0
M  V30 11953 C 1414.77 2.17483 -2.70774 0
M  V30 11954 C 1413.72 1.90272 -3.8338 0
M  V30 11955 C 1413.05 3.23885 -4.25444 0
M  V30 11956 C 1414.35 1.21454 -5.07983 0
M  V30 11957 H 1416.04 0.422786 -2.964 0
M  V30 11958 H 1413.59 0.201918 -1.42577 0
M  V30 11959 H 1415.54 2.856 -3.09856 0
M  V30 11960 H 1414.26 2.67863 -1.86861 0
M  V30 11961 H 1412.92 1.24564 -3.44789 0
M  V30 11962 H 1412.57 3.72089 -3.38465 0
M  V30 11963 H 1412.27 3.06472 -5.01347 0
M  V30 11964 H 1413.8 3.93212 -4.67137 0
M  V30 11965 H 1415.21 1.79625 -5.44433 0
M  V30 11966 H 1413.61 1.14327 -5.89109 0
M  V30 11967 H 1414.68 0.19238 -4.84518 0
M  V30 11968 N 1416.02 1.56195 0.209972 0
M  V30 11969 C 1416.98 1.92514 1.24383 0
M  V30 11970 C 1417.98 0.804793 1.39211 0
M  V30 11971 O 1419.17 1.0724 1.37278 0
M  V30 11972 C 1416.3 2.18613 2.61574 0
M  V30 11973 H 1417.5 2.84992 0.933781 0
M  V30 11974 H 1415.05 1.49656 0.450878 0
M  V30 11975 H 1415.79 1.28724 2.97659 0
M  V30 11976 H 1415.57 3.00241 2.52186 0
M  V30 11977 H 1417.06 2.47767 3.36156 0
M  V30 11978 N 1417.5 -0.477127 1.50204 0
M  V30 11979 C 1418.75 -1.22722 1.60573 0
M  V30 11980 C 1419.07 -1.92595 0.305326 0
M  V30 11981 O 1418.34 -1.83836 -0.676842 0
M  V30 11982 H 1416.92 -0.455973 0.591691 0
M  V30 11983 H 1419.58 -0.550915 1.86952 0
M  V30 11984 H 1418.67 -1.97837 2.41385 0
M  V30 11985 N 1418.98 -1.3968 -0.729882 0
M  V30 11986 C 1420.39 -1.33184 -1.30839 0
M  V30 11987 C 1420.74 0.00141129 -1.962 0
M  V30 11988 O 1419.86 0.903523 -1.96635 0
M  V30 11989 C 1420.46 -2.41211 -2.37913 0
M  V30 11990 C 1419.02 -2.3822 -2.91424 0
M  V30 11991 C 1418.16 -2.22832 -1.65049 0
M  V30 11992 H 1421.12 -1.49694 -0.527023 0
M  V30 11993 H 1421.14 -2.08294 -3.18424 0
M  V30 11994 H 1420.65 -3.38234 -1.90313 0
M  V30 11995 H 1418.75 -1.4485 -3.43292 0
M  V30 11996 H 1418.86 -3.33271 -3.44191 0
M  V30 11997 H 1417.23 -1.70095 -1.89578 0
M  V30 11998 H 1418.01 -3.21832 -1.19494 0
M  V30 11999 N 1420.45 0.960609 -1.2494 0
M  V30 12000 C 1421.87 1.51915 -1.0853 0
M  V30 12001 C 1422.22 1.93215 0.340949 0
M  V30 12002 O 1421.34 1.78031 1.2302 0
M  V30 12003 C 1421.94 2.76069 -1.96396 0
M  V30 12004 C 1420.5 3.28255 -1.84189 0
M  V30 12005 C 1419.64 2.01124 -1.90905 0
M  V30 12006 H 1422.59 0.778141 -1.38314 0
M  V30 12007 H 1422.61 3.49668 -1.50042 0
M  V30 12008 H 1422.13 2.45979 -3.00193 0
M  V30 12009 H 1420.23 3.6318 -0.832518 0
M  V30 12010 H 1420.34 3.96675 -2.68673 0
M  V30 12011 H 1418.7 2.16155 -1.34718 0
M  V30 12012 H 1419.49 1.73389 -2.96295 0
M  V30 12013 N 1421.93 1.0643 1.16234 0
M  V30 12014 C 1423.18 0.780296 1.86429 0
M  V30 12015 C 1423.5 -0.695335 1.82181 0
M  V30 12016 O 1422.77 -1.50312 1.2563 0
M  V30 12017 H 1421.35 0.285654 0.690225 0
M  V30 12018 H 1424.01 1.34609 1.40949 0
M  V30 12019 H 1423.11 1.10644 2.91829 0
M  V30 12020 N 1423.41 -1.329 0.847073 0
M  V30 12021 C 1424.34 -2.27027 0.231111 0
M  V30 12022 C 1425.32 -1.50045 -0.626524 0
M  V30 12023 O 1426.51 -1.79193 -0.58499 0
M  V30 12024 C 1423.63 -3.31911 -0.67472 0
M  V30 12025 C 1422.68 -4.26362 0.108531 0
M  V30 12026 S 1423.51 -5.14874 1.4719 0
M  V30 12027 C 1424.67 -6.23285 0.571586 0
M  V30 12028 H 1424.9 -2.78922 1.02906 0
M  V30 12029 H 1422.43 -1.40315 0.64428 0
M  V30 12030 H 1424.39 -3.92821 -1.19172 0
M  V30 12031 H 1423.05 -2.78815 -1.44641 0
M  V30 12032 H 1422.25 -5.00639 -0.581079 0
M  V30 12033 H 1421.85 -3.69831 0.556863 0
M  V30 12034 H 1424.14 -6.77119 -0.227261 0
M  V30 12035 H 1425.08 -6.96347 1.28477 0
M  V30 12036 H 1425.49 -5.64303 0.149291 0
M  V30 12037 N 1424.89 -0.604284 -1.45555 0
M  V30 12038 C 1426.3 -0.183613 -1.85795 0
M  V30 12039 C 1426.65 1.25869 -1.50504 0
M  V30 12040 O 1425.78 1.9539 -0.930148 0
M  V30 12041 C 1426.37 -0.326455 -3.37224 0
M  V30 12042 C 1424.93 0.0394987 -3.76379 0
M  V30 12043 C 1424.08 -0.65243 -2.69516 0
M  V30 12044 H 1427.03 -0.811173 -1.36403 0
M  V30 12045 H 1427.05 0.442258 -3.77921 0
M  V30 12046 H 1426.56 -1.37627 -3.62878 0
M  V30 12047 H 1424.66 1.08862 -3.56342 0
M  V30 12048 H 1424.77 -0.35185 -4.77806 0
M  V30 12049 H 1423.14 -0.0904148 -2.54539 0
M  V30 12050 H 1423.92 -1.70432 -2.98007 0
M  V30 12051 N 1426.37 1.53816 -0.343257 0
M  V30 12052 C 1427.61 2.00512 0.252845 0
M  V30 12053 C 1427.94 1.23274 1.51091 0
M  V30 12054 O 1427.21 0.339841 1.9293 0
M  V30 12055 H 1425.79 0.740751 0.0964202 0
M  V30 12056 H 1428.45 1.89288 -0.464347 0
M  V30 12057 H 1427.54 3.08142 0.495499 0
M  V30 12058 N 1427.84 0.0718701 1.57436 0
M  V30 12059 C 1429.26 -0.460784 1.80924 0
M  V30 12060 C 1429.61 -1.69637 0.985781 0
M  V30 12061 O 1428.73 -2.15395 0.208319 0
M  V30 12062 C 1429.33 -0.842738 3.28151 0
M  V30 12063 C 1427.89 -1.32026 3.52486 0
M  V30 12064 C 1427.03 -0.305466 2.75612 0
M  V30 12065 H 1429.98 0.297566 1.55885 0
M  V30 12066 H 1430 -1.70414 3.40205 0
M  V30 12067 H 1429.52 0.056733 3.88059 0
M  V30 12068 H 1427.62 -2.23822 2.97883 0
M  V30 12069 H 1427.73 -1.29813 4.61178 0
M  V30 12070 H 1426.09 -0.782758 2.42374 0
M  V30 12071 H 1426.88 0.586279 3.38257 0
M  V30 12072 N 1429.32 -1.56304 -0.201686 0
M  V30 12073 C 1430.74 -1.49741 -0.552247 0
M  V30 12074 C 1430.94 -0.770683 -1.86179 0
M  V30 12075 O 1429.99 -0.318489 -2.50483 0
M  V30 12076 C 1431.31 -2.94384 -0.613083 0
M  V30 12077 C 1432.86 -3.05018 -0.702365 0
M  V30 12078 C 1433.33 -4.51058 -0.794371 0
M  V30 12079 N 1434.82 -4.55183 -0.858072 0
M  V30 12080 C 1435.56 -5.65487 -0.949317 0
M  V30 12081 N 1435.05 -6.85497 -1.00327 0
M  V30 12082 N 1436.85 -5.53385 -0.985995 0
M  V30 12083 H 1429 -2.01971 0.657394 0
M  V30 12084 H 1431.26 -0.918839 0.233322 0
M  V30 12085 H 1430.97 -3.50584 0.279921 0
M  V30 12086 H 1430.84 -3.47376 -1.47002 0
M  V30 12087 H 1433.23 -2.4887 -1.5858 0
M  V30 12088 H 1433.31 -2.55161 0.180636 0
M  V30 12089 H 1432.95 -5.07829 0.0846883 0
M  V30 12090 H 1432.88 -4.98641 -1.69308 0
M  V30 12091 H 1435.37 -3.68765 -0.825888 0
M  V30 12092 H 1435.69 -7.65312 -1.07322 0
M  V30 12093 H 1434.03 -6.88169 -0.972061 0
M  V30 12094 H 1437.22 -4.58552 -0.940635 0
M  V30 12095 H 1437.39 -6.39376 -1.05365 0
M  V30 12096 N 1430.8 0.469154 -1.50455 0
M  V30 12097 C 1432.05 1.21868 -1.61222 0
M  V30 12098 C 1432.37 1.9243 -0.315535 0
M  V30 12099 O 1431.64 1.84192 0.667083 0
M  V30 12100 H 1430.22 0.452828 -0.594101 0
M  V30 12101 H 1432.88 0.540993 -1.87241 0
M  V30 12102 H 1431.98 1.96554 -2.42431 0
M  V30 12103 N 1432.28 1.40065 0.722464 0
M  V30 12104 C 1433.5 1.4146 1.5167 0
M  V30 12105 C 1433.93 0.0142653 1.88095 0
M  V30 12106 O 1433.29 -0.975934 1.52791 0
M  V30 12107 C 1433.33 2.30531 2.77287 0
M  V30 12108 O 1432.44 1.74382 3.73717 0
M  V30 12109 H 1431.78 0.481194 0.457546 0
M  V30 12110 H 1434.31 1.84213 0.890331 0
M  V30 12111 H 1434.32 2.45479 3.25889 0
M  V30 12112 H 1432.99 3.32292 2.50109 0
M  V30 12113 H 1431.57 1.68743 3.32536 0
M  V30 12114 N 1433.76 -0.95397 1.25448 0
M  V30 12115 C 1435.17 -1.51337 1.09335 0
M  V30 12116 C 1435.52 -1.93393 -0.330698 0
M  V30 12117 O 1434.64 -1.78681 -1.22074 0
M  V30 12118 C 1435.24 -2.75024 1.97857 0
M  V30 12119 C 1433.8 -3.27274 1.85927 0
M  V30 12120 C 1432.95 -2.00108 1.91969 0
M  V30 12121 H 1435.9 -0.770795 1.38724 0
M  V30 12122 H 1435.92 -3.48867 1.51894 0
M  V30 12123 H 1435.43 -2.44383 3.01494 0
M  V30 12124 H 1433.53 -3.62734 0.851767 0
M  V30 12125 H 1433.64 -3.95245 2.70773 0
M  V30 12126 H 1432.01 -2.15438 1.35862 0
M  V30 12127 H 1432.79 -1.71816 2.97211 0
M  V30 12128 N 1435.24 -1.07045 -1.15668 0
M  V30 12129 C 1436.48 -0.790172 -1.86013 0
M  V30 12130 C 1436.8 0.685663 -1.82548 0
M  V30 12131 O 1436.07 1.49644 -1.26426 0
M  V30 12132 H 1434.65 -0.28931 -0.688701 0
M  V30 12133 H 1437.32 -1.35354 -1.40233 0
M  V30 12134 H 1436.41 -1.1219 -2.91239 0
M  V30 12135 N 1436.71 1.32449 -0.85411 0
M  V30 12136 C 1438.12 1.79545 -0.511923 0
M  V30 12137 C 1438.48 1.70534 0.970188 0
M  V30 12138 O 1437.6 1.2636 1.75676 0
M  V30 12139 C 1438.2 3.26 -0.922456 0
M  V30 12140 C 1436.75 3.71053 -0.632176 0
M  V30 12141 C 1435.9 2.53565 -1.12249 0
M  V30 12142 H 1438.85 1.19755 -1.04137 0
M  V30 12143 H 1438.87 3.79751 -0.238618 0
M  V30 12144 H 1438.39 3.32526 -2.00119 0
M  V30 12145 H 1436.49 3.70042 0.435862 0
M  V30 12146 H 1436.6 4.63878 -1.19809 0
M  V30 12147 H 1434.96 2.48849 -0.542781 0
M  V30 12148 H 1435.75 2.62846 -2.20832 0
M  V30 12149 N 1438.19 0.611994 1.45232 0
M  V30 12150 C 1439.12 -0.142449 2.28757 0
M  V30 12151 C 1440.14 -0.827486 1.40202 0
M  V30 12152 O 1441.33 -0.692136 1.64535 0
M  V30 12153 C 1438.43 -1.22296 3.16065 0
M  V30 12154 C 1437.6 -0.624178 4.32924 0
M  V30 12155 C 1436.66 -1.59615 5.01408 0
M  V30 12156 O 1435.68 -1.12073 5.58058 0
M  V30 12157 N 1436.89 -2.93057 5.01097 0
M  V30 12158 H 1439.65 0.574276 2.94147 0
M  V30 12159 H 1437.21 0.451789 1.55469 0
M  V30 12160 H 1439.2 -1.87309 3.58744 0
M  V30 12161 H 1437.77 -1.84215 2.52554 0
M  V30 12162 H 1436.99 0.204141 3.93671 0
M  V30 12163 H 1438.28 -0.204435 5.08389 0
M  V30 12164 H 1437.68 -3.3428 4.5637 0
M  V30 12165 H 1436.24 -3.53481 5.47626 0
M  V30 12166 N 1439.67 -1.53632 0.351409 0
M  V30 12167 C 1440.92 -2.00643 -0.242208 0
M  V30 12168 C 1441.24 -1.24074 -1.50435 0
M  V30 12169 O 1440.51 -0.350067 -1.92747 0
M  V30 12170 H 1439.09 -0.741252 -0.0924904 0
M  V30 12171 H 1441.75 -1.89039 0.474379 0
M  V30 12172 H 1440.85 -3.084 -0.479151 0
M  V30 12173 N 1441.15 -0.0802183 -1.57396 0
M  V30 12174 C 1442.39 0.587831 -1.94094 0
M  V30 12175 C 1442.73 1.6875 -0.961093 0
M  V30 12176 O 1442 1.94498 0.00832799 0
M  V30 12177 C 1442.28 1.15692 -3.41009 0
M  V30 12178 C 1442.14 0.0633211 -4.49755 0
M  V30 12179 C 1443.46 2.05987 -3.88918 0
M  V30 12180 H 1440.58 0.212214 -0.705786 0
M  V30 12181 H 1443.22 -0.147902 -1.89423 0
M  V30 12182 H 1441.37 1.78394 -3.4512 0
M  V30 12183 H 1443.04 -0.57019 -4.57763 0
M  V30 12184 H 1441.28 -0.605003 -4.2956 0
M  V30 12185 H 1441.95 0.502056 -5.49712 0
M  V30 12186 H 1444.43 1.5321 -3.86867 0
M  V30 12187 H 1443.31 2.42737 -4.92311 0
M  V30 12188 H 1443.57 2.97147 -3.27347 0
M  V30 12189 N 1442.63 1.56409 0.193394 0
M  V30 12190 C 1443.57 1.94681 1.23968 0
M  V30 12191 C 1444.54 0.807634 1.45143 0
M  V30 12192 O 1445.73 1.06593 1.58248 0
M  V30 12193 C 1442.87 2.29306 2.57901 0
M  V30 12194 C 1441.98 3.56296 2.4429 0
M  V30 12195 C 1441.12 3.80235 3.70938 0
M  V30 12196 C 1440.15 5.00645 3.52167 0
M  V30 12197 N 1439.29 5.20829 4.70831 0
M  V30 12198 H 1444.13 2.83884 0.906298 0
M  V30 12199 H 1441.67 1.40486 0.436146 0
M  V30 12200 H 1443.63 2.47398 3.35932 0
M  V30 12201 H 1442.26 1.43241 2.89278 0
M  V30 12202 H 1441.31 3.46241 1.57547 0
M  V30 12203 H 1442.62 4.44483 2.26354 0
M  V30 12204 H 1441.77 3.98575 4.57408 0
M  V30 12205 H 1440.51 2.90381 3.91829 0
M  V30 12206 H 1439.52 4.82225 2.64081 0
M  V30 12207 H 1440.74 5.92009 3.32719 0
M  V30 12208 H 1438.69 4.33923 4.91983 0
M  V30 12209 H 1438.61 6.03199 4.55726 0
M  V30 12210 H 1439.87 5.4363 5.58648 0
M  V30 12211 N 1444.1 -0.461169 1.50702 0
M  V30 12212 C 1445.35 -1.21012 1.61866 0
M  V30 12213 C 1445.67 -1.9226 0.325736 0
M  V30 12214 O 1444.94 -1.84543 -0.657306 0
M  V30 12215 H 1443.52 -0.449671 0.596494 0
M  V30 12216 H 1446.18 -0.531056 1.87525 0
M  V30 12217 H 1445.28 -1.95266 2.4347 0
M  V30 12218 N 1445.58 -1.40446 -0.715026 0
M  V30 12219 C 1446.49 -1.43074 -1.85922 0
M  V30 12220 C 1447.51 -0.323294 -1.7097 0
M  V30 12221 O 1448.68 -0.567966 -1.93226 0
M  V30 12222 C 1445.75 -1.29206 -3.21725 0
M  V30 12223 C 1444.81 -2.50097 -3.48927 0
M  V30 12224 C 1444.04 -2.36881 -4.7825 0
M  V30 12225 O 1444.27 -1.38292 -5.53382 0
M  V30 12226 O 1443.2 -3.26266 -5.058 0
M  V30 12227 H 1447.03 -2.39565 -1.86661 0
M  V30 12228 H 1444.61 -1.21775 -0.865522 0
M  V30 12229 H 1446.49 -1.23681 -4.02841 0
M  V30 12230 H 1445.17 -0.358207 -3.21712 0
M  V30 12231 H 1444.07 -2.61199 -2.67817 0
M  V30 12232 H 1445.41 -3.42244 -3.53737 0
M  V30 12233 N 1447.06 0.947303 -1.25952 0
M  V30 12234 C 1448.28 1.73261 -1.13997 0
M  V30 12235 C 1448.71 1.85666 0.301639 0
M  V30 12236 O 1448.07 1.34244 1.21854 0
M  V30 12237 C 1448.12 3.12046 -1.8072 0
M  V30 12238 O 1447.22 3.97684 -1.09182 0
M  V30 12239 H 1446.56 0.53182 -0.397572 0
M  V30 12240 H 1449.09 1.18689 -1.66656 0
M  V30 12241 H 1449.1 3.62468 -1.87299 0
M  V30 12242 H 1447.78 3.02334 -2.856 0
M  V30 12243 H 1446.35 3.56141 -1.10536 0
M  V30 12244 N 1448.54 1.07657 1.15099 0
M  V30 12245 C 1449.79 0.800025 1.85591 0
M  V30 12246 C 1450.11 -0.675973 1.82909 0
M  V30 12247 O 1449.38 -1.48971 1.27218 0
M  V30 12248 H 1447.96 0.292958 0.687157 0
M  V30 12249 H 1450.62 1.36096 1.39513 0
M  V30 12250 H 1449.72 1.13733 2.90639 0
M  V30 12251 N 1450.02 -1.31994 0.861122 0
M  V30 12252 C 1450.96 -2.28729 0.308476 0
M  V30 12253 C 1451.93 -1.55338 -0.588148 0
M  V30 12254 O 1453.12 -1.8353 -0.52168 0
M  V30 12255 C 1450.26 -3.4158 -0.491621 0
M  V30 12256 C 1449.37 -4.29839 0.431522 0
M  V30 12257 C 1448.51 -5.29826 -0.381836 0
M  V30 12258 C 1447.55 -6.09728 0.538296 0
M  V30 12259 N 1446.68 -7.01696 -0.238274 0
M  V30 12260 H 1451.52 -2.75389 1.13863 0
M  V30 12261 H 1449.06 -1.35485 0.572911 0
M  V30 12262 H 1451.02 -4.05738 -0.971193 0
M  V30 12263 H 1449.65 -2.96054 -1.28654 0
M  V30 12264 H 1448.7 -3.66204 1.02951 0
M  V30 12265 H 1450.01 -4.85658 1.13742 0
M  V30 12266 H 1449.17 -5.99618 -0.924297 0
M  V30 12267 H 1447.9 -4.7464 -1.12107 0
M  V30 12268 H 1446.91 -5.38834 1.09259 0
M  V30 12269 H 1448.13 -6.67 1.27625 0
M  V30 12270 H 1446.08 -6.4893 -0.960486 0
M  V30 12271 H 1446 -7.54896 0.408466 0
M  V30 12272 H 1447.27 -7.75764 -0.762252 0
M  V30 12273 N 1451.49 -0.619688 -1.44906 0
M  V30 12274 C 1452.91 -0.203309 -1.8559 0
M  V30 12275 C 1453.26 1.24265 -1.51831 0
M  V30 12276 O 1452.38 1.94392 -0.950819 0
M  V30 12277 C 1452.98 -0.362204 -3.36858 0
M  V30 12278 C 1451.54 -0.000423575 -3.764 0
M  V30 12279 C 1450.68 -0.680979 -2.68808 0
M  V30 12280 H 1453.63 -0.825595 -1.35535 0
M  V30 12281 H 1453.65 0.402149 -3.78369 0
M  V30 12282 H 1453.17 -1.41468 -3.61398 0
M  V30 12283 H 1451.27 1.05077 -3.57477 0
M  V30 12284 H 1451.38 -0.402508 -4.77406 0
M  V30 12285 H 1449.74 -0.117407 -2.54429 0
M  V30 12286 H 1450.53 -1.73583 -2.96182 0
M  V30 12287 N 1452.97 1.53444 -0.359552 0
M  V30 12288 C 1454.22 2.00769 0.231564 0
M  V30 12289 C 1454.54 1.2487 1.49775 0
M  V30 12290 O 1453.81 0.360284 1.92558 0
M  V30 12291 H 1452.39 0.741732 0.0885581 0
M  V30 12292 H 1455.05 1.88785 -0.484397 0
M  V30 12293 H 1454.15 3.0865 0.462789 0
M  V30 12294 N 1454.45 0.0885642 1.57351 0
M  V30 12295 C 1455.41 -0.858178 2.12528 0
M  V30 12296 C 1456.41 -1.21522 1.05304 0
M  V30 12297 O 1457.6 -1.14573 1.3122 0
M  V30 12298 C 1454.74 -2.15619 2.64048 0
M  V30 12299 H 1455.93 -0.37918 2.97493 0
M  V30 12300 H 1453.48 -0.160354 1.55475 0
M  V30 12301 H 1454.22 -2.68018 1.82584 0
M  V30 12302 H 1454 -1.90995 3.42437 0
M  V30 12303 H 1455.49 -2.83359 3.06753 0
M  V30 12304 N 1455.93 -1.56509 -0.185096 0
M  V30 12305 C 1456.88 -1.96237 -1.24875 0
M  V30 12306 C 1457.87 -0.849169 -1.46579 0
M  V30 12307 O 1459.08 -1.03422 -1.47322 0
M  V30 12308 H 1455.45 -0.624147 -0.419457 0
M  V30 12309 H 1457.42 -2.8492 -0.88673 0
M  V30 12310 C 1456.17 -2.32667 -2.58382 0
M  V30 12311 H 1455.49 -3.17858 -2.425 0
M  V30 12312 H 1456.93 -2.6432 -3.31528 0
M  V30 12313 C 1455.39 -1.16496 -3.16118 0
M  V30 12314 O 1455.92 -0.445283 -3.99224 0
M  V30 12315 N 1454.13 -0.939133 -2.75007 0
M  V30 12316 H 1453.68 -1.52611 -2.07527 0
M  V30 12317 H 1453.63 -0.163659 -3.13974 0
M  V30 12318 N 1457.41 0.45317 -1.50944 0
M  V30 12319 C 1458.65 1.20151 -1.62506 0
M  V30 12320 C 1458.98 1.92085 -0.335927 0
M  V30 12321 O 1458.25 1.84889 0.64751 0
M  V30 12322 H 1456.83 0.446502 -0.59887 0
M  V30 12323 H 1459.49 0.521103 -1.87804 0
M  V30 12324 H 1458.58 1.93972 -2.44502 0
M  V30 12325 N 1458.88 1.40823 0.707568 0
M  V30 12326 C 1459.81 1.44485 1.83429 0
M  V30 12327 C 1460.8 0.304848 1.67346 0
M  V30 12328 O 1461.98 0.514605 1.87258 0
M  V30 12329 C 1459.11 1.31458 3.21459 0
M  V30 12330 C 1458.06 2.43145 3.52228 0
M  V30 12331 C 1457.39 2.15189 4.89487 0
M  V30 12332 C 1458.69 3.85489 3.52414 0
M  V30 12333 H 1460.38 2.38781 1.80622 0
M  V30 12334 H 1457.93 1.14931 0.867572 0
M  V30 12335 H 1459.88 1.32635 3.99983 0
M  V30 12336 H 1458.61 0.336422 3.24863 0
M  V30 12337 H 1457.27 2.41231 2.76049 0
M  V30 12338 H 1456.91 1.15745 4.89502 0
M  V30 12339 H 1456.61 2.90022 5.11039 0
M  V30 12340 H 1458.14 2.18062 5.70334 0
M  V30 12341 H 1459.55 3.89183 4.20963 0
M  V30 12342 H 1457.95 4.59906 3.85495 0
M  V30 12343 H 1459.02 4.14499 2.51632 0
M  V30 12344 N 1460.36 -0.94061 1.26453 0
M  V30 12345 C 1461.59 -1.72654 1.14914 0
M  V30 12346 C 1462.01 -1.85823 -0.291789 0
M  V30 12347 O 1461.37 -1.34888 -1.2114 0
M  V30 12348 C 1461.42 -3.11083 1.82372 0
M  V30 12349 O 1460.52 -3.971 1.1129 0
M  V30 12350 H 1459.86 -0.529704 0.400387 0
M  V30 12351 H 1462.39 -1.17803 1.67283 0
M  V30 12352 H 1462.4 -3.6147 1.89219 0
M  V30 12353 H 1461.08 -3.00815 2.87199 0
M  V30 12354 H 1459.66 -3.5555 1.12423 0
M  V30 12355 N 1461.84 -1.08266 -1.14527 0
M  V30 12356 C 1463.09 -0.809856 -1.85164 0
M  V30 12357 C 1463.41 0.666263 -1.83265 0
M  V30 12358 O 1462.68 1.48295 -1.28006 0
M  V30 12359 H 1461.26 -0.296598 -0.685594 0
M  V30 12360 H 1463.92 -1.36834 -1.38789 0
M  V30 12361 H 1463.02 -1.15272 -2.90032 0
M  V30 12362 N 1463.32 1.31536 -0.86811 0
M  V30 12363 C 1464.23 2.32326 -0.32588 0
M  V30 12364 C 1465.25 1.64632 0.563243 0
M  V30 12365 O 1466.42 1.96067 0.460403 0
M  V30 12366 C 1463.49 3.43562 0.46539 0
M  V30 12367 C 1462.55 4.26919 -0.451472 0
M  V30 12368 C 1461.78 5.32844 0.302129 0
M  V30 12369 O 1462 5.49485 1.53045 0
M  V30 12370 O 1460.94 6.00944 -0.339048 0
M  V30 12371 H 1464.76 2.80622 -1.16126 0
M  V30 12372 H 1462.35 1.35401 -0.631428 0
M  V30 12373 H 1464.23 4.11368 0.914028 0
M  V30 12374 H 1462.91 2.97432 1.27734 0
M  V30 12375 H 1461.81 3.61874 -0.948571 0
M  V30 12376 H 1463.15 4.7661 -1.22897 0
M  V30 12377 N 1464.8 0.627364 1.44575 0
M  V30 12378 C 1466.21 0.292662 1.56894 0
M  V30 12379 C 1466.41 -1.20429 1.61552 0
M  V30 12380 O 1465.47 -1.98819 1.55651 0
M  V30 12381 C 1466.78 0.981267 2.84239 0
M  V30 12382 C 1468.33 0.959053 2.97945 0
M  V30 12383 C 1468.81 1.62805 4.28087 0
M  V30 12384 N 1470.3 1.59446 4.34892 0
M  V30 12385 C 1471.03 2.08107 5.34302 0
M  V30 12386 N 1470.53 2.64942 6.40139 0
M  V30 12387 N 1472.32 1.98758 5.25787 0
M  V30 12388 H 1464.47 1.5991 1.39795 0
M  V30 12389 H 1466.73 0.671019 0.669655 0
M  V30 12390 H 1466.44 2.0361 2.86768 0
M  V30 12391 H 1466.31 0.516703 3.73644 0
M  V30 12392 H 1468.7 -0.0872902 2.94971 0
M  V30 12393 H 1468.78 1.46207 2.09898 0
M  V30 12394 H 1468.43 2.67382 4.31821 0
M  V30 12395 H 1468.36 1.09989 5.14985 0
M  V30 12396 H 1470.85 1.17947 3.59022 0
M  V30 12397 H 1471.16 2.99814 7.12272 0
M  V30 12398 H 1469.51 2.68991 6.40835 0
M  V30 12399 H 1472.7 1.54081 4.42014 0
M  V30 12400 H 1472.87 2.36992 6.03107 0
M  V30 12401 N 1466.28 -1.53251 0.367684 0
M  V30 12402 C 1467.52 -2.00889 -0.220914 0
M  V30 12403 C 1467.84 -1.25662 -1.4911 0
M  V30 12404 O 1467.11 -0.370491 -1.92365 0
M  V30 12405 H 1465.69 -0.742191 -0.0846233 0
M  V30 12406 H 1468.36 -1.88525 0.494402 0
M  V30 12407 H 1467.45 -3.08891 -0.446414 0
M  V30 12408 N 1467.75 -0.0969077 -1.57302 0
M  V30 12409 C 1469.16 0.431942 -1.81635 0
M  V30 12410 C 1469.52 1.68047 -1.01264 0
M  V30 12411 O 1468.64 2.15036 -0.24256 0
M  V30 12412 C 1469.24 0.790426 -3.29451 0
M  V30 12413 C 1467.79 1.26401 -3.54542 0
M  V30 12414 C 1466.94 0.26158 -2.76063 0
M  V30 12415 H 1469.89 -0.322328 -1.55392 0
M  V30 12416 H 1469.91 1.64981 -3.42873 0
M  V30 12417 H 1469.43 -0.118463 -3.87919 0
M  V30 12418 H 1467.53 2.19055 -3.01406 0
M  V30 12419 H 1467.64 1.22459 -4.63185 0
M  V30 12420 H 1466 0.7441 -2.43588 0
M  V30 12421 H 1466.79 -0.640018 -3.37281 0
M  V30 12422 N 1469.23 1.56605 0.176793 0
M  V30 12423 C 1470.64 1.71418 0.739775 0
M  V30 12424 C 1470.99 0.706527 1.83037 0
M  V30 12425 O 1470.12 -0.133259 2.15989 0
M  V30 12426 C 1470.71 3.10799 1.34867 0
M  V30 12427 C 1469.27 3.27315 1.85854 0
M  V30 12428 C 1468.42 2.67371 0.73541 0
M  V30 12429 H 1471.37 1.58626 -0.0485305 0
M  V30 12430 H 1471.39 3.09146 2.21831 0
M  V30 12431 H 1470.9 3.84116 0.554688 0
M  V30 12432 H 1469 2.58947 2.67913 0
M  V30 12433 H 1469.12 4.35002 2.00774 0
M  V30 12434 H 1467.48 2.27035 1.15444 0
M  V30 12435 H 1468.26 3.43268 -0.0466351 0
M  V30 12436 N 1470.71 -0.445159 1.51182 0
M  V30 12437 C 1471.96 -1.19288 1.6314 0
M  V30 12438 C 1472.28 -1.91904 0.346109 0
M  V30 12439 O 1471.55 -1.8523 -0.637695 0
M  V30 12440 H 1470.13 -0.443319 0.601229 0
M  V30 12441 H 1472.79 -0.511136 1.88078 0
M  V30 12442 H 1471.89 -1.92672 2.45528 0
M  V30 12443 N 1472.19 -1.41197 -0.700089 0
M  V30 12444 C 1473.6 -1.3593 -1.27985 0
M  V30 12445 C 1473.95 -0.0402059 -1.96159 0
M  V30 12446 O 1473.07 0.861611 -1.98508 0
M  V30 12447 C 1473.67 -2.46203 -2.32743 0
M  V30 12448 C 1472.23 -2.44348 -2.86306 0
M  V30 12449 C 1471.38 -2.26283 -1.60285 0
M  V30 12450 H 1474.33 -1.50778 -0.495152 0
M  V30 12451 H 1474.35 -2.15001 -3.13934 0
M  V30 12452 H 1473.86 -3.42195 -1.83096 0
M  V30 12453 H 1471.96 -1.521 -3.40142 0
M  V30 12454 H 1472.07 -3.40497 -3.37044 0
M  V30 12455 H 1470.44 -1.74078 -1.85928 0
M  V30 12456 H 1471.22 -3.24295 -1.1264 0
M  V30 12457 N 1473.67 0.933891 -1.2695 0
M  V30 12458 C 1474.6 2.03768 -1.04934 0
M  V30 12459 C 1475.61 1.62798 -0.00740752 0
M  V30 12460 O 1476.8 1.76765 -0.248289 0
M  V30 12461 C 1473.9 3.34097 -0.568515 0
M  V30 12462 C 1473.07 4.03794 -1.68133 0
M  V30 12463 C 1472.13 5.12397 -1.19731 0
M  V30 12464 O 1471.16 5.36701 -1.89579 0
M  V30 12465 N 1472.36 5.80479 -0.0496327 0
M  V30 12466 H 1475.12 2.23219 -1.99984 0
M  V30 12467 H 1472.69 1.10386 -1.18433 0
M  V30 12468 H 1474.68 4.04053 -0.228736 0
M  V30 12469 H 1473.25 3.11265 0.288587 0
M  V30 12470 H 1472.47 3.27655 -2.1917 0
M  V30 12471 H 1473.76 4.4711 -2.42837 0
M  V30 12472 H 1473.15 5.63179 0.533509 0
M  V30 12473 H 1471.71 6.5139 0.231014 0
M  V30 12474 N 1475.14 1.08871 1.13951 0
M  V30 12475 C 1476.39 0.819665 1.84732 0
M  V30 12476 C 1476.71 -0.656535 1.83615 0
M  V30 12477 O 1475.98 -1.47614 1.28791 0
M  V30 12478 H 1474.56 0.30023 0.684011 0
M  V30 12479 H 1477.22 1.37568 1.38062 0
M  V30 12480 H 1476.32 1.16809 2.89417 0
M  V30 12481 N 1476.62 -1.31073 0.875073 0
M  V30 12482 C 1477.55 -2.30855 0.350468 0
M  V30 12483 C 1478.53 -1.60569 -0.561384 0
M  V30 12484 O 1479.72 -1.88242 -0.477329 0
M  V30 12485 C 1476.85 -3.44444 -0.444493 0
M  V30 12486 C 1475.8 -4.26357 0.374716 0
M  V30 12487 C 1475.13 -5.31903 -0.546243 0
M  V30 12488 C 1476.43 -4.96817 1.61153 0
M  V30 12489 H 1478.12 -2.74983 1.18427 0
M  V30 12490 H 1475.67 -1.32199 0.570909 0
M  V30 12491 H 1477.62 -4.13304 -0.82206 0
M  V30 12492 H 1476.34 -2.99096 -1.31185 0
M  V30 12493 H 1475 -3.59171 0.734295 0
M  V30 12494 H 1474.65 -4.82803 -1.41102 0
M  V30 12495 H 1474.35 -5.876 -0.00198173 0
M  V30 12496 H 1475.88 -6.03621 -0.920542 0
M  V30 12497 H 1477.29 -5.58247 1.30511 0
M  V30 12498 H 1475.69 -5.62334 2.09524 0
M  V30 12499 H 1476.76 -4.2351 2.36151 0
M  V30 12500 N 1478.1 -0.635022 -1.4424 0
M  V30 12501 C 1479.51 -0.222982 -1.85364 0
M  V30 12502 C 1479.86 1.22648 -1.5314 0
M  V30 12503 O 1478.99 1.93373 -0.971384 0
M  V30 12504 C 1479.58 -0.397912 -3.36455 0
M  V30 12505 C 1478.14 -0.0403458 -3.76378 0
M  V30 12506 C 1477.29 -0.709451 -2.68071 0
M  V30 12507 H 1480.24 -0.839923 -1.34651 0
M  V30 12508 H 1480.26 0.361996 -3.78774 0
M  V30 12509 H 1479.77 -1.45294 -3.59877 0
M  V30 12510 H 1477.87 1.01279 -3.58571 0
M  V30 12511 H 1477.99 -0.453121 -4.76952 0
M  V30 12512 H 1476.35 -0.144386 -2.5429 0
M  V30 12513 H 1477.13 -1.76715 -2.94324 0
M  V30 12514 N 1479.58 1.53054 -0.375806 0
M  V30 12515 C 1480.83 2.01003 0.210257 0
M  V30 12516 C 1481.15 1.26451 1.48442 0
M  V30 12517 O 1480.42 0.380687 1.92166 0
M  V30 12518 H 1479 0.74263 0.0806861 0
M  V30 12519 H 1481.66 1.8826 -0.504393 0
M  V30 12520 H 1480.76 3.09123 0.430027 0
M  V30 12521 N 1481.06 0.105248 1.57248 0
M  V30 12522 C 1481.99 -0.846915 2.176 0
M  V30 12523 C 1482.97 -1.28706 1.11216 0
M  V30 12524 O 1484.15 -1.35213 1.39396 0
M  V30 12525 C 1481.28 -2.10228 2.76445 0
M  V30 12526 C 1480.24 -1.80041 3.8829 0
M  V30 12527 C 1479.56 -3.12491 4.33882 0
M  V30 12528 C 1480.86 -1.07943 5.11024 0
M  V30 12529 H 1482.56 -0.344052 2.97417 0
M  V30 12530 H 1480.1 -0.164045 1.43063 0
M  V30 12531 H 1482.06 -2.77284 3.17319 0
M  V30 12532 H 1480.78 -2.62815 1.93897 0
M  V30 12533 H 1479.44 -1.15379 3.4797 0
M  V30 12534 H 1479.09 -3.62985 3.48211 0
M  V30 12535 H 1478.79 -2.93072 5.09296 0
M  V30 12536 H 1480.31 -3.80688 4.77398 0
M  V30 12537 H 1481.72 -1.65127 5.49004 0
M  V30 12538 H 1480.12 -0.986674 5.91933 0
M  V30 12539 H 1481.19 -0.0638511 4.84858 0
M  V30 12540 N 1482.53 -1.56697 -0.168486 0
M  V30 12541 C 1483.5 -1.95744 -1.19235 0
M  V30 12542 C 1484.5 -0.841419 -1.37028 0
M  V30 12543 O 1485.69 -1.10842 -1.34386 0
M  V30 12544 C 1482.82 -2.25471 -2.55686 0
M  V30 12545 H 1484.01 -2.87368 -0.857892 0
M  V30 12546 H 1481.57 -1.50798 -0.411041 0
M  V30 12547 H 1482.3 -1.36571 -2.94141 0
M  V30 12548 H 1482.09 -3.06822 -2.44137 0
M  V30 12549 H 1483.58 -2.56593 -3.29469 0
M  V30 12550 N 1484.01 0.437135 -1.51416 0
M  V30 12551 C 1485.26 1.18421 -1.63771 0
M  V30 12552 C 1485.58 1.91718 -0.356282 0
M  V30 12553 O 1484.85 1.85566 0.627863 0
M  V30 12554 H 1483.43 0.440125 -0.603572 0
M  V30 12555 H 1486.09 0.501155 -1.88347 0
M  V30 12556 H 1485.19 1.91367 -2.46546 0
M  V30 12557 N 1485.49 1.41566 0.692592 0
M  V30 12558 C 1486.72 1.44445 1.48132 0
M  V30 12559 C 1487.13 0.0505867 1.88732 0
M  V30 12560 O 1486.49 -0.930779 1.5698 0
M  V30 12561 C 1486.54 2.35582 2.74196 0
M  V30 12562 O 1486.26 3.69545 2.35305 0
M  V30 12563 C 1487.76 2.47296 3.67912 0
M  V30 12564 H 1484.98 0.491877 0.456396 0
M  V30 12565 H 1487.53 1.85884 0.852499 0
M  V30 12566 H 1485.68 1.97445 3.33308 0
M  V30 12567 H 1486.1 4.1818 3.16584 0
M  V30 12568 H 1487.57 3.15225 4.53141 0
M  V30 12569 H 1488.05 1.50517 4.12603 0
M  V30 12570 H 1488.65 2.86082 3.14702 0
M  V30 12571 N 1486.97 -0.927146 1.27443 0
M  V30 12572 C 1487.93 -2.00938 1.10257 0
M  V30 12573 C 1488.93 -1.60733 0.0463898 0
M  V30 12574 O 1490.12 -1.71752 0.291029 0
M  V30 12575 C 1487.25 -3.34047 0.680115 0
M  V30 12576 H 1488.45 -2.17615 2.06358 0
M  V30 12577 H 1486 -1.10802 1.10239 0
M  V30 12578 H 1486.73 -3.23069 -0.282259 0
M  V30 12579 H 1486.52 -3.64585 1.44291 0
M  V30 12580 H 1488.01 -4.13523 0.582126 0
M  V30 12581 N 1488.45 -1.09474 -1.13372 0
M  V30 12582 C 1489.69 -0.82945 -1.84295 0
M  V30 12583 C 1490.02 0.646788 -1.83961 0
M  V30 12584 O 1489.29 1.46929 -1.29572 0
M  V30 12585 H 1487.87 -0.303853 -0.682409 0
M  V30 12586 H 1490.53 -1.38298 -1.3733 0
M  V30 12587 H 1489.62 -1.18342 -2.88793 0
M  V30 12588 N 1489.92 1.30607 -0.882012 0
M  V30 12589 C 1490.83 2.31967 -0.350503 0
M  V30 12590 C 1491.85 1.6522 0.54575 0
M  V30 12591 O 1493.03 1.96544 0.439581 0
M  V30 12592 C 1490.09 3.44037 0.428924 0
M  V30 12593 C 1489.15 4.26417 -0.496727 0
M  V30 12594 C 1488.39 5.33135 0.245597 0
M  V30 12595 O 1488.61 5.51077 1.47209 0
M  V30 12596 O 1487.54 6.00551 -0.402767 0
M  V30 12597 H 1491.37 2.79374 -1.19095 0
M  V30 12598 H 1488.95 1.34723 -0.645754 0
M  V30 12599 H 1490.84 4.12314 0.870346 0
M  V30 12600 H 1489.51 2.9877 1.24573 0
M  V30 12601 H 1488.42 3.60848 -0.986899 0
M  V30 12602 H 1489.75 4.7528 -1.27945 0
M  V30 12603 N 1491.4 0.642663 1.43901 0
M  V30 12604 C 1492.81 0.232809 1.85243 0
M  V30 12605 C 1493.16 -1.21834 1.53789 0
M  V30 12606 O 1492.29 -1.92855 0.981625 0
M  V30 12607 C 1492.88 0.415749 3.36239 0
M  V30 12608 C 1491.44 0.0603055 3.76352 0
M  V30 12609 C 1490.59 0.723658 2.67691 0
M  V30 12610 H 1493.54 0.847052 1.34204 0
M  V30 12611 H 1493.56 -0.341903 3.78961 0
M  V30 12612 H 1493.07 1.472 3.59101 0
M  V30 12613 H 1491.18 -0.993761 3.59103 0
M  V30 12614 H 1491.29 0.478408 4.76705 0
M  V30 12615 H 1489.65 0.15787 2.5421 0
M  V30 12616 H 1490.44 1.78273 2.93383 0
M  V30 12617 N 1492.88 -1.52852 0.383918 0
M  V30 12618 C 1494.13 -2.01112 -0.199594 0
M  V30 12619 C 1494.45 -1.27237 -1.47769 0
M  V30 12620 O 1493.72 -0.390873 -1.91961 0
M  V30 12621 H 1492.3 -0.743047 -0.0767466 0
M  V30 12622 H 1494.96 -1.8799 0.51437 0
M  V30 12623 H 1494.06 -3.09347 -0.413627 0
M  V30 12624 N 1494.36 -0.113586 -1.5719 0
M  V30 12625 C 1495.78 0.243023 -1.57739 0
M  V30 12626 C 1495.98 1.67105 -1.12597 0
M  V30 12627 O 1495.03 2.39126 -0.810874 0
M  V30 12628 C 1496.34 0.014629 -3.00696 0
M  V30 12629 C 1497.89 0.0809485 -3.12895 0
M  V30 12630 C 1498.37 -0.119685 -4.57844 0
M  V30 12631 N 1499.86 -0.0654711 -4.63154 0
M  V30 12632 C 1500.59 -0.195692 -5.73066 0
M  V30 12633 N 1500.09 -0.381782 -6.91747 0
M  V30 12634 N 1501.88 -0.13565 -5.61936 0
M  V30 12635 H 1494.03 -1.04639 -1.84836 0
M  V30 12636 H 1496.3 -0.411609 -0.85398 0
M  V30 12637 H 1496 -0.972399 -3.3799 0
M  V30 12638 H 1495.88 0.748882 -3.69691 0
M  V30 12639 H 1498.26 1.0585 -2.75463 0
M  V30 12640 H 1498.34 -0.685097 -2.46455 0
M  V30 12641 H 1497.99 -1.09418 -4.95974 0
M  V30 12642 H 1497.92 0.666281 -5.22368 0
M  V30 12643 H 1500.41 0.0750649 -3.77825 0
M  V30 12644 H 1500.72 -0.472157 -7.71356 0
M  V30 12645 H 1499.07 -0.417686 -6.93744 0
M  V30 12646 H 1502.26 0.0087301 -4.68099 0
M  V30 12647 H 1502.43 -0.240579 -6.47553 0
M  V30 12648 N 1495.84 1.56784 0.160173 0
M  V30 12649 C 1497.11 1.73513 0.902908 0
M  V30 12650 C 1497.49 0.678036 1.99915 0
M  V30 12651 O 1496.84 -0.305302 2.26451 0
M  V30 12652 C 1497.05 3.17111 1.45744 0
M  V30 12653 C 1498.4 3.78404 1.92602 0
M  V30 12654 O 1499.42 3.20459 1.55515 0
M  V30 12655 O 1498.28 4.80172 2.60954 0
M  V30 12656 H 1495.38 0.708981 0.425764 0
M  V30 12657 H 1497.92 1.69061 0.147129 0
M  V30 12658 H 1496.7 3.85539 0.668985 0
M  V30 12659 H 1496.32 3.25936 2.2771 0
M  V30 12660 N 1497.32 -0.429099 1.51646 0
M  V30 12661 C 1498.56 -1.17551 1.64396 0
M  V30 12662 C 1498.88 -1.91526 0.366444 0
M  V30 12663 O 1498.15 -1.85896 -0.618013 0
M  V30 12664 H 1496.73 -0.436918 0.605898 0
M  V30 12665 H 1499.4 -0.491159 1.8861 0
M  V30 12666 H 1498.49 -1.90057 2.47557 0
M  V30 12667 N 1498.79 -1.41931 -0.685074 0
M  V30 12668 C 1499.74 -1.44824 -1.82013 0
M  V30 12669 C 1500.74 -0.325083 -1.66252 0
M  V30 12670 O 1501.94 -0.497614 -1.72985 0
M  V30 12671 H 1498.32 -0.453362 -0.599972 0
M  V30 12672 H 1500.29 -2.40464 -1.76691 0
M  V30 12673 C 1499.04 -1.35753 -3.20104 0
M  V30 12674 H 1498.36 -2.21469 -3.32854 0
M  V30 12675 H 1499.8 -1.41838 -3.99572 0
M  V30 12676 C 1498.26 -0.0710816 -3.36825 0
M  V30 12677 O 1498.79 0.880155 -3.91939 0
M  V30 12678 N 1496.99 0.00842652 -2.90599 0
M  V30 12679 H 1496.54 -0.766427 -2.45934 0
M  V30 12680 H 1496.5 0.868559 -3.02165 0
M  V30 12681 N 1500.27 0.920374 -1.27933 0
M  V30 12682 C 1501.68 1.48385 -1.13309 0
M  V30 12683 C 1502.03 1.94202 0.279307 0
M  V30 12684 O 1501.16 1.81855 1.17294 0
M  V30 12685 C 1501.75 2.69681 -2.05079 0
M  V30 12686 C 1500.31 3.22229 -1.94539 0
M  V30 12687 C 1499.46 1.94948 -1.97207 0
M  V30 12688 H 1502.41 0.733744 -1.40719 0
M  V30 12689 H 1502.43 3.44717 -1.6109 0
M  V30 12690 H 1501.94 2.36304 -3.07867 0
M  V30 12691 H 1500.04 3.60348 -0.94764 0
M  V30 12692 H 1500.16 3.87927 -2.81157 0
M  V30 12693 H 1498.52 2.1176 -1.41527 0
M  V30 12694 H 1499.3 1.63875 -3.01662 0
M  V30 12695 N 1501.75 1.10074 1.1279 0
M  V30 12696 C 1503 0.839212 1.83852 0
M  V30 12697 C 1503.32 -0.637023 1.84301 0
M  V30 12698 O 1502.59 -1.46239 1.30349 0
M  V30 12699 H 1501.17 0.307468 0.680788 0
M  V30 12700 H 1503.83 1.39025 1.36595 0
M  V30 12701 H 1502.93 1.19872 2.88162 0
M  V30 12702 N 1503.23 -1.30138 0.888926 0
M  V30 12703 C 1504.45 -2.00679 0.523697 0
M  V30 12704 C 1504.88 -1.66167 -0.881479 0
M  V30 12705 O 1504.24 -0.880418 -1.58488 0
M  V30 12706 C 1504.28 -3.53535 0.710284 0
M  V30 12707 O 1503.39 -4.11689 -0.242066 0
M  V30 12708 H 1502.73 -0.631273 0.205888 0
M  V30 12709 H 1505.26 -1.65891 1.19756 0
M  V30 12710 H 1505.27 -4.03402 0.610794 0
M  V30 12711 H 1503.94 -3.77992 1.73478 0
M  V30 12712 H 1502.52 -3.72777 -0.0959393 0
M  V30 12713 N 1504.71 -0.650285 -1.43559 0
M  V30 12714 C 1505.98 -0.0925343 -1.95381 0
M  V30 12715 C 1506.36 1.38668 -1.59168 0
M  V30 12716 O 1505.71 2.11069 -0.875324 0
M  V30 12717 C 1505.92 -0.335657 -3.47382 0
M  V30 12718 C 1507.27 -0.239032 -4.23927 0
M  V30 12719 O 1508.29 -0.268056 -3.5519 0
M  V30 12720 O 1507.15 -0.160241 -5.46265 0
M  V30 12721 H 1504.25 0.0113084 -0.826923 0
M  V30 12722 H 1506.79 -0.723319 -1.53513 0
M  V30 12723 H 1505.56 -1.36132 -3.66857 0
M  V30 12724 H 1505.19 0.328339 -3.96242 0
M  V30 12725 N 1506.18 1.52647 -0.392018 0
M  V30 12726 C 1507.43 2.01215 0.188926 0
M  V30 12727 C 1507.75 1.28019 1.47092 0
M  V30 12728 O 1507.02 0.401048 1.91751 0
M  V30 12729 H 1505.6 0.743444 0.0728049 0
M  V30 12730 H 1508.26 1.87715 -0.524332 0
M  V30 12731 H 1507.36 3.09562 0.397216 0
M  V30 12732 N 1507.66 0.121921 1.57128 0
M  V30 12733 C 1508.59 -0.823788 2.18486 0
M  V30 12734 C 1509.57 -1.27519 1.12574 0
M  V30 12735 O 1510.76 -1.33727 1.40822 0
M  V30 12736 C 1507.89 -2.07284 2.78659 0
M  V30 12737 C 1506.84 -1.75912 3.90178 0
M  V30 12738 C 1506.17 -3.07871 4.37172 0
M  V30 12739 C 1507.47 -1.02517 5.1214 0
M  V30 12740 H 1509.16 -0.312488 2.97765 0
M  V30 12741 H 1506.71 -0.148862 1.43228 0
M  V30 12742 H 1508.66 -2.73903 3.20242 0
M  V30 12743 H 1507.39 -2.60743 1.96673 0
M  V30 12744 H 1506.04 -1.11681 3.49174 0
M  V30 12745 H 1505.69 -3.59271 3.52041 0
M  V30 12746 H 1505.39 -2.87653 5.12376 0
M  V30 12747 H 1506.92 -3.75604 4.81409 0
M  V30 12748 H 1508.33 -1.59295 5.50725 0
M  V30 12749 H 1506.73 -0.923836 5.92946 0
M  V30 12750 H 1507.8 -0.0124219 4.84898 0
M  V30 12751 N 1509.14 -1.56867 -0.151857 0
M  V30 12752 C 1510.55 -1.72573 -0.712411 0
M  V30 12753 C 1510.9 -0.735557 -1.8189 0
M  V30 12754 O 1510.03 0.09888 -2.16174 0
M  V30 12755 C 1510.62 -3.12906 -1.29905 0
M  V30 12756 C 1509.18 -3.30231 -1.80623 0
M  V30 12757 C 1508.33 -2.68507 -0.692781 0
M  V30 12758 H 1511.28 -1.58528 0.0737603 0
M  V30 12759 H 1511.3 -3.12636 -2.16885 0
M  V30 12760 H 1510.81 -3.84949 -0.493509 0
M  V30 12761 H 1508.91 -2.63176 -2.6376 0
M  V30 12762 H 1509.03 -4.38141 -1.93828 0
M  V30 12763 H 1507.39 -2.28842 -1.11818 0
M  V30 12764 H 1508.17 -3.43151 0.10124 0
M  V30 12765 N 1510.62 0.421051 -1.51871 0
M  V30 12766 C 1511.87 1.16677 -1.65018 0
M  V30 12767 C 1512.19 1.91329 -0.376596 0
M  V30 12768 O 1511.46 1.86221 0.608146 0
M  V30 12769 H 1510.04 0.433698 -0.608206 0
M  V30 12770 H 1512.7 0.48115 -1.88868 0
M  V30 12771 H 1511.8 1.88742 -2.48562 0
M  V30 12772 N 1512.1 1.42293 0.677538 0
M  V30 12773 C 1513.51 1.25158 0.990334 0
M  V30 12774 C 1513.71 0.153803 2.00912 0
M  V30 12775 O 1512.77 -0.475868 2.47975 0
M  V30 12776 C 1514.08 2.60745 1.49775 0
M  V30 12777 C 1515.63 2.68077 1.61566 0
M  V30 12778 C 1516.1 4.04024 2.15705 0
M  V30 12779 N 1517.6 4.05964 2.23042 0
M  V30 12780 C 1518.33 5.07968 2.66 0
M  V30 12781 N 1517.83 6.20356 3.08432 0
M  V30 12782 N 1519.62 4.95325 2.65725 0
M  V30 12783 H 1511.77 2.124 0.00295822 0
M  V30 12784 H 1514.03 0.945848 0.06384 0
M  V30 12785 H 1513.74 3.41919 0.823672 0
M  V30 12786 H 1513.61 2.84476 2.47695 0
M  V30 12787 H 1516 1.87251 2.28082 0
M  V30 12788 H 1516.08 2.48137 0.621434 0
M  V30 12789 H 1515.73 4.85306 1.498 0
M  V30 12790 H 1515.66 4.21314 3.15914 0
M  V30 12791 H 1518.15 3.24827 1.93122 0
M  V30 12792 H 1518.46 6.94043 3.39889 0
M  V30 12793 H 1516.8 6.23865 3.06296 0
M  V30 12794 H 1520 4.06599 2.31936 0
M  V30 12795 H 1520.17 5.74954 2.98884 0
M  V30 12796 N 1513.57 -0.913576 1.28419 0
M  V30 12797 C 1514.85 -1.64203 1.06285 0
M  V30 12798 C 1515.23 -2.07319 -0.397728 0
M  V30 12799 O 1514.58 -1.8183 -1.38383 0
M  V30 12800 C 1514.79 -2.8334 2.03763 0
M  V30 12801 C 1516.14 -3.54355 2.33918 0
M  V30 12802 O 1517.16 -2.93489 2.01848 0
M  V30 12803 O 1516.02 -4.6405 2.88652 0
M  V30 12804 H 1513.11 -0.720359 0.406217 0
M  V30 12805 H 1515.66 -0.962866 1.39739 0
M  V30 12806 H 1514.43 -2.48575 3.02203 0
M  V30 12807 H 1514.06 -3.5897 1.70956 0
M  V30 12808 N 1515.05 -1.1067 -1.12204 0
M  V30 12809 C 1516.3 -0.84895 -1.83405 0
M  V30 12810 C 1516.62 0.62724 -1.84637 0
M  V30 12811 O 1515.89 1.45546 -1.31123 0
M  V30 12812 H 1514.47 -0.311074 -0.679148 0
M  V30 12813 H 1517.13 -1.39747 -1.35856 0
M  V30 12814 H 1516.23 -1.21398 -2.87522 0
M  V30 12815 N 1516.53 1.29665 -0.895815 0
M  V30 12816 C 1517.76 2.00399 -0.534333 0
M  V30 12817 C 1518.18 1.66632 0.872654 0
M  V30 12818 O 1517.54 0.888811 1.58018 0
M  V30 12819 C 1517.59 3.53154 -0.729023 0
M  V30 12820 O 1516.69 4.11812 0.22023 0
M  V30 12821 H 1516.03 0.630173 -0.209233 0
M  V30 12822 H 1518.56 1.65253 -1.20634 0
M  V30 12823 H 1518.57 4.03073 -0.632179 0
M  V30 12824 H 1517.25 3.77067 -1.75481 0
M  V30 12825 H 1515.82 3.72822 0.0761687 0
M  V30 12826 N 1518.01 0.657889 1.43212 0
M  V30 12827 C 1519.42 0.252443 1.84985 0
M  V30 12828 C 1519.77 -1.20196 1.55072 0
M  V30 12829 O 1518.9 -1.91803 1.00202 0
M  V30 12830 C 1519.49 0.451388 3.3578 0
M  V30 12831 C 1518.05 0.100219 3.76267 0
M  V30 12832 C 1517.2 0.752009 2.66908 0
M  V30 12833 H 1520.15 0.861239 1.33298 0
M  V30 12834 H 1520.17 -0.30169 3.79302 0
M  V30 12835 H 1519.68 1.51001 3.5752 0
M  V30 12836 H 1517.78 -0.955618 3.60137 0
M  V30 12837 H 1517.89 0.528942 4.76171 0
M  V30 12838 H 1516.26 0.184823 2.54029 0
M  V30 12839 H 1517.04 1.81375 2.91476 0
M  V30 12840 N 1519.49 -1.52437 0.400108 0
M  V30 12841 C 1520.73 -2.01312 -0.178252 0
M  V30 12842 C 1521.06 -1.28797 -1.46411 0
M  V30 12843 O 1520.33 -0.411211 -1.91536 0
M  V30 12844 H 1518.91 -0.743819 -0.0688613 0
M  V30 12845 H 1521.57 -1.87434 0.53428 0
M  V30 12846 H 1520.66 -3.09768 -0.380793 0
M  V30 12847 N 1520.96 -0.130252 -1.57061 0
M  V30 12848 C 1522.21 0.523969 -1.9519 0
M  V30 12849 C 1522.53 1.66493 -1.01514 0
M  V30 12850 O 1521.8 1.95762 -0.0735194 0
M  V30 12851 H 1520.38 0.196553 -0.720677 0
M  V30 12852 H 1523.05 -0.20183 -1.93852 0
M  V30 12853 H 1522.14 0.911156 -2.98504 0
M  V30 12854 N 1522.44 1.56945 0.143535 0
M  V30 12855 C 1523.39 1.98526 1.17711 0
M  V30 12856 C 1524.36 0.853402 1.425 0
M  V30 12857 O 1525.55 1.11574 1.54777 0
M  V30 12858 C 1522.69 2.37395 2.50475 0
M  V30 12859 C 1521.8 3.63887 2.32831 0
M  V30 12860 C 1520.93 3.91844 3.58653 0
M  V30 12861 C 1519.97 5.11595 3.36061 0
M  V30 12862 N 1519.11 5.35545 4.54022 0
M  V30 12863 H 1523.95 2.86624 0.815524 0
M  V30 12864 H 1521.49 1.41802 0.391231 0
M  V30 12865 H 1523.44 2.5796 3.27891 0
M  V30 12866 H 1522.07 1.52372 2.84575 0
M  V30 12867 H 1521.13 3.51078 1.46452 0
M  V30 12868 H 1522.44 4.51459 2.12098 0
M  V30 12869 H 1521.59 4.12926 4.44497 0
M  V30 12870 H 1520.33 3.027 3.82393 0
M  V30 12871 H 1519.34 4.90383 2.48606 0
M  V30 12872 H 1520.56 6.02295 3.13716 0
M  V30 12873 H 1518.51 4.49355 4.77929 0
M  V30 12874 H 1518.42 6.17393 4.36305 0
M  V30 12875 H 1519.69 5.61127 5.4107 0
M  V30 12876 N 1523.92 -0.412991 1.52093 0
M  V30 12877 C 1525.17 -1.15801 1.65634 0
M  V30 12878 C 1525.49 -1.91127 0.386737 0
M  V30 12879 O 1524.76 -1.86541 -0.598262 0
M  V30 12880 H 1523.34 -0.430467 0.610498 0
M  V30 12881 H 1526 -0.471127 1.8912 0
M  V30 12882 H 1525.1 -1.87421 2.49559 0
M  V30 12883 N 1525.4 -1.4265 -0.669982 0
M  V30 12884 C 1526.68 -1.33858 -1.42623 0
M  V30 12885 C 1527.06 0.0217285 -2.11089 0
M  V30 12886 O 1526.4 1.03748 -2.03589 0
M  V30 12887 C 1526.61 -2.51015 -2.42472 0
M  V30 12888 C 1527.96 -2.93348 -3.06972 0
M  V30 12889 O 1528.99 -2.5094 -2.52799 0
M  V30 12890 O 1527.85 -3.66762 -4.05151 0
M  V30 12891 H 1524.94 -0.528141 -0.636393 0
M  V30 12892 H 1527.49 -1.54667 -0.6983 0
M  V30 12893 H 1526.26 -3.41679 -1.90713 0
M  V30 12894 H 1525.88 -2.32218 -3.2274 0
M  V30 12895 N 1526.88 0.906753 -1.28902 0
M  V30 12896 C 1528.29 1.18635 -1.06761 0
M  V30 12897 C 1528.49 2.00643 0.185594 0
M  V30 12898 O 1527.55 2.3647 0.885324 0
M  V30 12899 C 1528.86 1.91414 -2.31907 0
M  V30 12900 C 1530.41 2.04269 -2.37156 0
M  V30 12901 C 1530.89 2.80458 -3.62088 0
M  V30 12902 N 1532.38 2.88016 -3.62769 0
M  V30 12903 C 1533.11 3.47485 -4.56116 0
M  V30 12904 N 1532.61 4.08178 -5.59788 0
M  V30 12905 N 1534.4 3.45092 -4.43698 0
M  V30 12906 H 1526.55 0.359413 -2.09337 0
M  V30 12907 H 1528.81 0.221688 -0.921715 0
M  V30 12908 H 1528.52 1.38587 -3.23244 0
M  V30 12909 H 1528.39 2.91929 -2.38867 0
M  V30 12910 H 1530.78 2.56275 -1.46312 0
M  V30 12911 H 1530.86 1.0291 -2.34186 0
M  V30 12912 H 1530.51 2.2913 -4.53279 0
M  V30 12913 H 1530.44 3.82147 -3.62314 0
M  V30 12914 H 1532.93 2.44902 -2.87805 0
M  V30 12915 H 1533.24 4.51557 -6.27149 0
M  V30 12916 H 1531.59 4.06661 -5.63606 0
M  V30 12917 H 1534.78 2.96891 -3.61903 0
M  V30 12918 H 1534.95 3.91145 -5.16633 0
M  V30 12919 N 1528.36 1.11264 1.11616 0
M  V30 12920 C 1529.6 0.858664 1.82952 0
M  V30 12921 C 1529.92 -0.617439 1.84967 0
M  V30 12922 O 1529.19 -1.44849 1.31893 0
M  V30 12923 H 1527.77 0.314671 0.677489 0
M  V30 12924 H 1530.44 1.40466 1.35113 0
M  V30 12925 H 1529.53 1.22921 2.86874 0
M  V30 12926 N 1529.83 -1.29188 0.902679 0
M  V30 12927 C 1530.74 -2.3138 0.387363 0
M  V30 12928 C 1531.76 -1.66067 -0.519396 0
M  V30 12929 O 1532.94 -1.97219 -0.408257 0
M  V30 12930 C 1530 -3.44675 -0.374137 0
M  V30 12931 C 1529.06 -4.25572 0.564503 0
M  V30 12932 C 1528.29 -5.33458 -0.160748 0
M  V30 12933 O 1528.52 -5.53349 -1.38423 0
M  V30 12934 O 1527.45 -5.99834 0.498259 0
M  V30 12935 H 1531.28 -2.77444 1.23525 0
M  V30 12936 H 1528.86 -1.33679 0.667106 0
M  V30 12937 H 1530.74 -4.13647 -0.80464 0
M  V30 12938 H 1529.42 -3.00714 -1.19804 0
M  V30 12939 H 1528.33 -3.59232 1.04418 0
M  V30 12940 H 1529.66 -4.73184 1.3549 0
M  V30 12941 N 1531.31 -0.665475 -1.42861 0
M  V30 12942 C 1532.26 0.030395 -2.3258 0
M  V30 12943 C 1533.25 0.800329 -1.49302 0
M  V30 12944 O 1534.46 0.709346 -1.65434 0
M  V30 12945 H 1530.83 0.0286201 -0.751455 0
M  V30 12946 H 1532.81 -0.743838 -2.8898 0
M  V30 12947 C 1531.55 0.974474 -3.33765 0
M  V30 12948 H 1530.88 0.391447 -3.97879 0
M  V30 12949 H 1532.32 1.43023 -3.99149 0
M  V30 12950 C 1530.78 2.0764 -2.65306 0
M  V30 12951 O 1531.31 3.16172 -2.47787 0
M  V30 12952 N 1529.51 1.84544 -2.24481 0
M  V30 12953 H 1529.06 0.962826 -2.3893 0
M  V30 12954 H 1529.02 2.58464 -1.79007 0
M  V30 12955 N 1532.79 1.52222 -0.408187 0
M  V30 12956 C 1534.04 2.01404 0.167574 0
M  V30 12957 C 1534.36 1.29572 1.45726 0
M  V30 12958 O 1533.63 0.421363 1.91315 0
M  V30 12959 H 1532.21 0.744174 0.0649156 0
M  V30 12960 H 1534.87 1.87148 -0.544212 0
M  V30 12961 H 1533.97 3.09966 0.36436 0
M  V30 12962 N 1534.27 0.138579 1.5699 0
M  V30 12963 C 1535.49 -0.525074 2.00643 0
M  V30 12964 C 1535.92 -1.58174 1.01796 0
M  V30 12965 O 1535.28 -1.81298 -0.00754003 0
M  V30 12966 C 1535.32 -1.11019 3.43085 0
M  V30 12967 O 1534.43 -2.22529 3.4721 0
M  V30 12968 H 1533.77 -0.129283 0.651292 0
M  V30 12969 H 1536.3 0.23283 2.03271 0
M  V30 12970 H 1536.31 -1.44093 3.81708 0
M  V30 12971 H 1534.98 -0.336325 4.14538 0
M  V30 12972 H 1533.56 -1.90747 3.20422 0
M  V30 12973 N 1535.75 -1.57019 -0.13521 0
M  V30 12974 C 1537.16 -1.73319 -0.694067 0
M  V30 12975 C 1537.51 -0.754808 -1.811 0
M  V30 12976 O 1536.63 0.0759463 -2.16267 0
M  V30 12977 C 1537.23 -3.14266 -1.26579 0
M  V30 12978 C 1535.79 -3.32128 -1.7711 0
M  V30 12979 C 1534.93 -2.69226 -0.664263 0
M  V30 12980 H 1537.88 -1.58441 0.0905702 0
M  V30 12981 H 1537.91 -3.14919 -2.13557 0
M  V30 12982 H 1537.42 -3.85451 -0.452652 0
M  V30 12983 H 1535.52 -2.65959 -2.60953 0
M  V30 12984 H 1535.63 -4.40172 -1.8917 0
M  V30 12985 H 1534 -2.30016 -1.09384 0
M  V30 12986 H 1534.78 -3.43024 0.13763 0
M  V30 12987 N 1537.22 0.404919 -1.52309 0
M  V30 12988 C 1538.47 1.14921 -1.66246 0
M  V30 12989 C 1538.79 1.90919 -0.396868 0
M  V30 12990 O 1538.06 1.86856 0.588361 0
M  V30 12991 H 1536.64 0.427223 -0.612772 0
M  V30 12992 H 1539.31 0.461091 -1.89367 0
M  V30 12993 H 1538.4 1.86095 -2.5055 0
M  V30 12994 N 1538.7 1.43003 0.662408 0
M  V30 12995 C 1539.67 1.4713 1.75743 0
M  V30 12996 C 1540.67 0.357203 1.56782 0
M  V30 12997 O 1541.86 0.618566 1.62848 0
M  V30 12998 C 1538.99 1.31499 3.14517 0
M  V30 12999 H 1540.18 2.44641 1.73467 0
M  V30 13000 H 1537.73 1.29633 0.873208 0
M  V30 13001 H 1538.47 0.349596 3.2241 0
M  V30 13002 H 1538.25 2.12253 3.29683 0
M  V30 13003 H 1539.74 1.37298 3.94384 0
M  V30 13004 N 1540.18 -0.899904 1.29381 0
M  V30 13005 C 1541.59 -1.46563 1.15655 0
M  V30 13006 C 1541.94 -1.94622 -0.248375 0
M  V30 13007 O 1541.07 -1.83698 -1.14386 0
M  V30 13008 C 1541.66 -2.66384 2.09344 0
M  V30 13009 C 1540.22 -3.19093 1.99641 0
M  V30 13010 C 1539.37 -1.91786 2.00283 0
M  V30 13011 H 1542.32 -0.711264 1.41869 0
M  V30 13012 H 1542.34 -3.42111 1.66554 0
M  V30 13013 H 1541.85 -2.31376 3.11587 0
M  V30 13014 H 1539.95 -3.58795 1.00485 0
M  V30 13015 H 1540.07 -3.83405 2.87293 0
M  V30 13016 H 1538.43 -2.09482 1.44878 0
M  V30 13017 H 1539.21 -1.59055 3.04231 0
M  V30 13018 N 1541.66 -1.11854 -1.11024 0
M  V30 13019 C 1542.91 -0.868355 -1.82494 0
M  V30 13020 C 1543.23 0.607622 -1.85292 0
M  V30 13021 O 1542.5 1.44147 -1.32659 0
M  V30 13022 H 1541.08 -0.31826 -0.67581 0
M  V30 13023 H 1543.74 -1.4118 -1.34366 0
M  V30 13024 H 1542.84 -1.24441 -2.86218 0
M  V30 13025 N 1543.14 1.28707 -0.909517 0
M  V30 13026 C 1544.1 2.25692 -0.39946 0
M  V30 13027 C 1545.1 1.53721 0.471848 0
M  V30 13028 O 1546.29 1.72008 0.275504 0
M  V30 13029 C 1543.42 3.38205 0.427793 0
M  V30 13030 H 1544.61 2.72326 -1.25613 0
M  V30 13031 H 1542.17 1.40317 -0.688535 0
M  V30 13032 H 1542.9 2.96926 1.30404 0
M  V30 13033 H 1542.69 3.91606 -0.19667 0
M  V30 13034 H 1544.18 4.10334 0.775634 0
M  V30 13035 N 1544.61 0.673042 1.42506 0
M  V30 13036 C 1546.03 0.272049 1.84707 0
M  V30 13037 C 1546.38 -1.18545 1.56338 0
M  V30 13038 O 1545.5 -1.9073 1.02231 0
M  V30 13039 C 1546.1 0.486977 3.35282 0
M  V30 13040 C 1544.66 0.140122 3.76139 0
M  V30 13041 C 1543.8 0.780276 2.66096 0
M  V30 13042 H 1546.75 0.875329 1.32377 0
M  V30 13043 H 1546.77 -0.261443 3.79601 0
M  V30 13044 H 1546.29 1.54784 3.55898 0
M  V30 13045 H 1544.39 -0.917366 3.6113 0
M  V30 13046 H 1544.5 0.579417 4.75583 0
M  V30 13047 H 1542.86 0.211756 2.53818 0
M  V30 13048 H 1543.65 1.84456 2.89536 0
M  V30 13049 N 1546.09 -1.52004 0.416254 0
M  V30 13050 C 1547.34 -2.0149 -0.15689 0
M  V30 13051 C 1547.66 -1.30343 -1.45037 0
M  V30 13052 O 1546.93 -0.431503 -1.91089 0
M  V30 13053 H 1545.51 -0.744508 -0.0609682 0
M  V30 13054 H 1548.17 -1.86857 0.55413 0
M  V30 13055 H 1547.27 -3.10155 -0.347917 0
M  V30 13056 N 1547.57 -0.146903 -1.56914 0
M  V30 13057 C 1548.52 0.804576 -2.13332 0
M  V30 13058 C 1549.5 1.2095 -1.06112 0
M  V30 13059 O 1550.7 1.17594 -1.3229 0
M  V30 13060 C 1547.83 2.0437 -2.7584 0
M  V30 13061 C 1546.91 1.66188 -3.90183 0
M  V30 13062 N 1547.3 0.988267 -4.96051 0
M  V30 13063 C 1545.6 1.9546 -4.00888 0
M  V30 13064 C 1546.3 0.803957 -5.76118 0
M  V30 13065 N 1545.28 1.33779 -5.26882 0
M  V30 13066 H 1549.08 0.280693 -2.92557 0
M  V30 13067 H 1546.59 0.0546404 -1.62308 0
M  V30 13068 H 1548.59 2.73532 -3.1462 0
M  V30 13069 H 1547.25 2.57276 -1.98089 0
M  V30 13070 H 1548.26 0.64904 -5.13817 0
M  V30 13071 H 1544.94 2.50216 -3.34213 0
M  V30 13072 H 1546.33 0.273065 -6.71345 0
M  V30 13073 N 1549.05 1.57088 0.126881 0
M  V30 13074 C 1550.46 1.73685 0.684865 0
M  V30 13075 C 1550.81 0.764401 1.80697 0
M  V30 13076 O 1549.94 -0.0644761 2.16304 0
M  V30 13077 C 1550.53 3.14933 1.24911 0
M  V30 13078 C 1549.09 3.33063 1.75346 0
M  V30 13079 C 1548.24 2.69575 0.649976 0
M  V30 13080 H 1551.19 1.58391 -0.0989715 0
M  V30 13081 H 1551.21 3.16047 2.11884 0
M  V30 13082 H 1550.72 3.85686 0.432204 0
M  V30 13083 H 1548.82 2.67339 2.59539 0
M  V30 13084 H 1548.93 4.41169 1.86833 0
M  V30 13085 H 1547.3 2.30592 1.08163 0
M  V30 13086 H 1548.08 3.42946 -0.15582 0
M  V30 13087 N 1550.53 -0.396836 1.52522 0
M  V30 13088 C 1551.77 -1.14037 1.66853 0
M  V30 13089 C 1552.1 -1.90706 0.406987 0
M  V30 13090 O 1551.37 -1.87165 -0.578443 0
M  V30 13091 H 1549.95 -0.423967 0.615029 0
M  V30 13092 H 1552.61 -0.451042 1.89609 0
M  V30 13093 H 1551.7 -1.84763 2.51533 0
M  V30 13094 N 1552.01 -1.43353 -0.654814 0
M  V30 13095 C 1553.42 -1.39933 -1.23595 0
M  V30 13096 C 1553.77 -0.102592 -1.95932 0
M  V30 13097 O 1552.89 0.798021 -2.01148 0
M  V30 13098 C 1553.49 -2.53483 -2.24793 0
M  V30 13099 C 1552.05 -2.53333 -2.78387 0
M  V30 13100 C 1551.19 -2.31268 -1.53005 0
M  V30 13101 H 1554.14 -1.52277 -0.446932 0
M  V30 13102 H 1554.17 -2.2488 -3.06935 0
M  V30 13103 H 1553.68 -3.47847 -1.72116 0
M  V30 13104 H 1551.78 -1.62844 -3.35131 0
M  V30 13105 H 1551.89 -3.51047 -3.26041 0
M  V30 13106 H 1550.26 -1.79905 -1.80295 0
M  V30 13107 H 1551.04 -3.27714 -1.02266 0
M  V30 13108 N 1553.48 0.89303 -1.29857 0
M  V30 13109 C 1554.89 1.45948 -1.16431 0
M  V30 13110 C 1555.25 1.94751 0.238051 0
M  V30 13111 O 1554.37 1.84302 1.1341 0
M  V30 13112 C 1554.97 2.6527 -2.10754 0
M  V30 13113 C 1553.52 3.1803 -2.0133 0
M  V30 13114 C 1552.67 1.90721 -2.01297 0
M  V30 13115 H 1555.62 0.70373 -1.42244 0
M  V30 13116 H 1555.64 3.41223 -1.68366 0
M  V30 13117 H 1555.16 2.2972 -3.1281 0
M  V30 13118 H 1553.26 3.58257 -1.02386 0
M  V30 13119 H 1553.37 3.81876 -2.89323 0
M  V30 13120 H 1551.73 2.0871 -1.45987 0
M  V30 13121 H 1552.52 1.5744 -3.0507 0
M  V30 13122 N 1554.96 1.12442 1.10429 0
M  V30 13123 C 1556.21 0.878021 1.82031 0
M  V30 13124 C 1556.53 -0.597787 1.85611 0
M  V30 13125 O 1555.8 -1.43442 1.33422 0
M  V30 13126 H 1554.38 0.321839 0.674113 0
M  V30 13127 H 1557.04 1.41891 1.33615 0
M  V30 13128 H 1556.14 1.25957 2.85554 0
M  V30 13129 N 1556.44 -1.28223 0.91633 0
M  V30 13130 C 1557.85 -1.76898 0.597003 0
M  V30 13131 C 1558.2 -1.74969 -0.887719 0
M  V30 13132 O 1557.33 -1.34598 -1.69447 0
M  V30 13133 C 1557.92 -3.21228 1.07694 0
M  V30 13134 C 1556.48 -3.67614 0.80849 0
M  V30 13135 C 1555.63 -2.47921 1.24219 0
M  V30 13136 H 1558.58 -1.1465 1.09732 0
M  V30 13137 H 1558.6 -3.7818 0.419531 0
M  V30 13138 H 1558.11 -3.226 2.15757 0
M  V30 13139 H 1556.21 -3.717 -0.258814 0
M  V30 13140 H 1556.33 -4.57633 1.41804 0
M  V30 13141 H 1554.69 -2.45976 0.660892 0
M  V30 13142 H 1555.47 -2.5201 2.33122 0
M  V30 13143 N 1557.92 -0.68059 -1.42147 0
M  V30 13144 C 1559.16 -0.205567 -2.01755 0
M  V30 13145 C 1559.5 1.18677 -1.53718 0
M  V30 13146 O 1558.77 1.79796 -0.741867 0
M  V30 13147 C 1559.05 -0.246615 -3.59255 0
M  V30 13148 C 1558.91 -1.67483 -4.17456 0
M  V30 13149 C 1560.23 0.40196 -4.38261 0
M  V30 13150 H 1557.35 -0.0761717 -0.733053 0
M  V30 13151 H 1559.99 -0.866473 -1.69092 0
M  V30 13152 H 1558.14 0.316127 -3.87212 0
M  V30 13153 H 1559.81 -2.29026 -4.00431 0
M  V30 13154 H 1558.05 -2.2137 -3.73065 0
M  V30 13155 H 1558.72 -1.65519 -5.266 0
M  V30 13156 H 1561.2 -0.077135 -4.16028 0
M  V30 13157 H 1560.08 0.342627 -5.4783 0
M  V30 13158 H 1560.34 1.48044 -4.16576 0
M  V30 13159 N 1559.4 1.51781 -0.424309 0
M  V30 13160 C 1560.64 2.0157 0.146203 0
M  V30 13161 C 1560.96 1.3111 1.44344 0
M  V30 13162 O 1560.23 0.441631 1.90857 0
M  V30 13163 H 1558.81 0.744821 0.057019 0
M  V30 13164 H 1561.48 1.8656 -0.564031 0
M  V30 13165 H 1560.57 3.10335 0.331464 0
M  V30 13166 N 1560.87 0.155222 1.56834 0
M  V30 13167 C 1562.28 -0.364232 1.83113 0
M  V30 13168 C 1562.64 -1.64173 1.07432 0
M  V30 13169 O 1561.76 -2.13988 0.322202 0
M  V30 13170 C 1562.36 -0.667608 3.32157 0
M  V30 13171 C 1560.91 -1.13156 3.58989 0
M  V30 13172 C 1560.06 -0.158941 2.76844 0
M  V30 13173 H 1563.01 0.379779 1.54089 0
M  V30 13174 H 1563.03 -1.52141 3.4876 0
M  V30 13175 H 1562.55 0.262355 3.87212 0
M  V30 13176 H 1560.65 -2.07717 3.09329 0
M  V30 13177 H 1560.76 -1.05184 4.67411 0
M  V30 13178 H 1559.12 -0.653181 2.46182 0
M  V30 13179 H 1559.91 0.764757 3.34674 0
M  V30 13180 N 1562.35 -1.57153 -0.118549 0
M  V30 13181 C 1563.31 -1.99438 -1.12947 0
M  V30 13182 C 1564.31 -0.884588 -1.34282 0
M  V30 13183 O 1565.5 -1.15062 -1.30792 0
M  V30 13184 C 1562.64 -2.33492 -2.48384 0
M  V30 13185 H 1563.83 -2.89952 -0.766034 0
M  V30 13186 H 1561.38 -1.5203 -0.362858 0
M  V30 13187 H 1562.12 -1.45859 -2.89647 0
M  V30 13188 H 1561.9 -3.14433 -2.34252 0
M  V30 13189 H 1563.39 -2.66945 -3.21139 0
M  V30 13190 N 1563.83 0.388742 -1.5273 0
M  V30 13191 C 1565.08 1.13151 -1.67455 0
M  V30 13192 C 1565.4 1.90487 -0.417095 0
M  V30 13193 O 1564.67 1.87469 0.568509 0
M  V30 13194 H 1563.25 0.4207 -0.617269 0
M  V30 13195 H 1565.91 0.44098 -1.89846 0
M  V30 13196 H 1565.01 1.83427 -2.52509 0
M  V30 13197 N 1565.31 1.43698 0.647203 0
M  V30 13198 C 1566.25 1.49323 1.75987 0
M  V30 13199 C 1567.22 0.342379 1.62533 0
M  V30 13200 O 1568.41 0.550379 1.8269 0
M  V30 13201 C 1565.55 1.428 3.14169 0
M  V30 13202 C 1564.66 2.68136 3.38714 0
M  V30 13203 C 1563.8 2.53559 4.66778 0
M  V30 13204 C 1562.84 3.74135 4.84447 0
M  V30 13205 N 1561.97 3.58332 6.03774 0
M  V30 13206 H 1566.81 2.44395 1.70514 0
M  V30 13207 H 1564.35 1.21309 0.832021 0
M  V30 13208 H 1566.31 1.37011 3.94061 0
M  V30 13209 H 1564.94 0.513057 3.18697 0
M  V30 13210 H 1563.99 2.84179 2.52877 0
M  V30 13211 H 1565.3 3.57684 3.47654 0
M  V30 13212 H 1564.46 2.45513 5.54805 0
M  V30 13213 H 1563.2 1.61545 4.60168 0
M  V30 13214 H 1562.2 3.82584 3.94854 0
M  V30 13215 H 1563.43 4.67165 4.92883 0
M  V30 13216 H 1561.37 2.69057 5.98284 0
M  V30 13217 H 1561.29 4.41485 6.13699 0
M  V30 13218 H 1562.56 3.54148 6.94406 0
M  V30 13219 N 1566.79 -0.886131 1.30328 0
M  V30 13220 C 1568.01 -1.67625 1.22134 0
M  V30 13221 C 1568.44 -1.86893 -0.212712 0
M  V30 13222 O 1567.79 -1.39905 -1.1531 0
M  V30 13223 C 1567.84 -3.03068 1.95402 0
M  V30 13224 O 1566.95 -3.92022 1.28032 0
M  V30 13225 H 1566.29 -0.512246 0.422493 0
M  V30 13226 H 1568.82 -1.10602 1.72129 0
M  V30 13227 H 1568.83 -3.53119 2.04379 0
M  V30 13228 H 1567.5 -2.88363 2.99699 0
M  V30 13229 H 1566.08 -3.50461 1.27402 0
M  V30 13230 N 1568.26 -1.13026 -1.09832 0
M  V30 13231 C 1569.51 -0.887662 -1.81563 0
M  V30 13232 C 1569.83 0.587935 -1.85926 0
M  V30 13233 O 1569.1 1.42732 -1.3418 0
M  V30 13234 H 1567.68 -0.32541 -0.672397 0
M  V30 13235 H 1570.35 -1.42597 -1.32861 0
M  V30 13236 H 1569.44 -1.2747 -2.84882 0
M  V30 13237 N 1569.74 1.27735 -0.923117 0
M  V30 13238 C 1571.02 1.89626 -0.479724 0
M  V30 13239 C 1571.4 1.83592 1.04197 0
M  V30 13240 O 1570.75 1.27808 1.89413 0
M  V30 13241 C 1570.96 3.33742 -1.02064 0
M  V30 13242 C 1572.31 4.10678 -1.07837 0
M  V30 13243 O 1573.33 3.4274 -0.969943 0
M  V30 13244 O 1572.19 5.32135 -1.24476 0
M  V30 13245 H 1569.28 0.812615 -0.153575 0
M  V30 13246 H 1571.83 1.36036 -1.01451 0
M  V30 13247 H 1570.6 3.32404 -2.06454 0
M  V30 13248 H 1570.22 3.94845 -0.467234 0
M  V30 13249 N 1571.22 0.688118 1.41784 0
M  V30 13250 C 1572.64 0.358943 1.55511 0
M  V30 13251 C 1572.84 -1.13469 1.66514 0
M  V30 13252 O 1571.89 -1.92039 1.63943 0
M  V30 13253 C 1573.21 1.10094 2.79821 0
M  V30 13254 C 1574.75 1.08456 2.93609 0
M  V30 13255 C 1575.23 1.80815 4.20797 0
M  V30 13256 N 1576.72 1.77748 4.27738 0
M  V30 13257 C 1577.45 2.30581 5.24995 0
M  V30 13258 N 1576.95 2.91854 6.28326 0
M  V30 13259 N 1578.74 2.2088 5.16884 0
M  V30 13260 H 1570.89 1.65695 1.32886 0
M  V30 13261 H 1573.16 0.698818 0.640592 0
M  V30 13262 H 1572.86 2.15589 2.77874 0
M  V30 13263 H 1572.74 0.674713 3.71117 0
M  V30 13264 H 1575.12 0.0378955 2.95076 0
M  V30 13265 H 1575.21 1.54978 2.03508 0
M  V30 13266 H 1574.85 2.85457 4.20092 0
M  V30 13267 H 1574.78 1.31732 5.09857 0
M  V30 13268 H 1577.27 1.33069 3.53696 0
M  V30 13269 H 1577.58 3.29755 6.98915 0
M  V30 13270 H 1575.93 2.95929 6.28849 0
M  V30 13271 H 1579.12 1.72689 4.35082 0
M  V30 13272 H 1579.29 2.62359 5.92513 0
M  V30 13273 N 1572.7 -1.51554 0.432352 0
M  V30 13274 C 1573.95 -2.01645 -0.135511 0
M  V30 13275 C 1574.27 -1.31874 -1.43647 0
M  V30 13276 O 1573.54 -0.451746 -1.9062 0
M  V30 13277 H 1572.12 -0.745113 -0.0530683 0
M  V30 13278 H 1574.78 -1.86258 0.573917 0
M  V30 13279 H 1573.88 -3.10506 -0.315001 0
M  V30 13280 N 1574.18 -0.163538 -1.56749 0
M  V30 13281 C 1575.09 0.782461 -2.21167 0
M  V30 13282 C 1576.1 1.25911 -1.20093 0
M  V30 13283 O 1577.28 1.31286 -1.52728 0
M  V30 13284 C 1574.34 1.99761 -2.83366 0
M  V30 13285 C 1573.4 1.56859 -3.99617 0
M  V30 13286 C 1572.64 2.72582 -4.58841 0
M  V30 13287 O 1572.86 3.89243 -4.16949 0
M  V30 13288 O 1571.79 2.47104 -5.48838 0
M  V30 13289 H 1575.62 0.264023 -3.0255 0
M  V30 13290 H 1573.21 0.06429 -1.49262 0
M  V30 13291 H 1575.09 2.70843 -3.22835 0
M  V30 13292 H 1573.76 2.50526 -2.04984 0
M  V30 13293 H 1572.67 0.827511 -3.64833 0
M  V30 13294 H 1574 1.10794 -4.79568 0
M  V30 13295 N 1575.65 1.57214 0.110213 0
M  V30 13296 C 1576.88 1.8988 0.834297 0
M  V30 13297 C 1577.3 0.756347 1.72224 0
M  V30 13298 O 1576.66 -0.292768 1.78921 0
M  V30 13299 C 1576.71 3.21338 1.63629 0
M  V30 13300 O 1575.81 3.07862 2.74399 0
M  V30 13301 H 1575.16 0.62283 0.23017 0
M  V30 13302 H 1577.69 2.04402 0.0899726 0
M  V30 13303 H 1577.7 3.54275 2.02369 0
M  V30 13304 H 1576.37 4.04079 0.984521 0
M  V30 13305 H 1574.95 2.8641 2.38797 0
M  V30 13306 N 1577.13 -0.380637 1.52934 0
M  V30 13307 C 1578.38 -1.12261 1.68053 0
M  V30 13308 C 1578.7 -1.90263 0.427191 0
M  V30 13309 O 1577.97 -1.87768 -0.558559 0
M  V30 13310 H 1576.55 -0.41742 0.619491 0
M  V30 13311 H 1579.21 -0.430906 1.90077 0
M  V30 13312 H 1578.31 -1.82085 2.53479 0
M  V30 13313 N 1578.61 -1.44039 -0.639573 0
M  V30 13314 C 1580.02 -1.41236 -1.22104 0
M  V30 13315 C 1580.37 -0.123367 -1.95812 0
M  V30 13316 O 1579.5 0.776641 -2.01983 0
M  V30 13317 C 1580.09 -2.55853 -2.22092 0
M  V30 13318 C 1578.65 -2.56271 -2.75685 0
M  V30 13319 C 1577.8 -2.32877 -1.50544 0
M  V30 13320 H 1580.75 -1.52742 -0.430756 0
M  V30 13321 H 1580.77 -2.28123 -3.04533 0
M  V30 13322 H 1580.28 -3.49653 -1.68417 0
M  V30 13323 H 1578.38 -1.66389 -3.33385 0
M  V30 13324 H 1578.5 -3.54486 -3.22299 0
M  V30 13325 H 1576.86 -1.81807 -1.78377 0
M  V30 13326 H 1577.64 -3.2878 -0.987845 0
M  V30 13327 N 1580.09 0.879207 -1.30796 0
M  V30 13328 C 1581.05 1.96707 -1.17639 0
M  V30 13329 C 1582.05 1.6045 -0.106013 0
M  V30 13330 O 1583.24 1.70553 -0.354573 0
M  V30 13331 C 1580.37 3.31292 -0.803625 0
M  V30 13332 H 1581.57 2.09806 -2.14293 0
M  V30 13333 H 1579.12 1.06634 -1.14276 0
M  V30 13334 H 1579.85 3.23894 0.162159 0
M  V30 13335 H 1579.64 3.58979 -1.57723 0
M  V30 13336 H 1581.13 4.11077 -0.735201 0
M  V30 13337 N 1581.57 1.13606 1.09231 0
M  V30 13338 C 1582.82 0.897278 1.81089 0
M  V30 13339 C 1583.14 -0.578066 1.86235 0
M  V30 13340 O 1582.41 -1.42018 1.34935 0
M  V30 13341 H 1580.99 0.328971 0.670662 0
M  V30 13342 H 1583.65 1.433 1.32103 0
M  V30 13343 H 1582.74 1.28979 2.84202 0
M  V30 13344 N 1583.05 -1.27244 0.929878 0
M  V30 13345 C 1584.46 -1.76254 0.615732 0
M  V30 13346 C 1584.81 -1.759 -0.869111 0
M  V30 13347 O 1583.93 -1.36388 -1.6801 0
M  V30 13348 C 1584.53 -3.20068 1.11095 0
M  V30 13349 C 1583.09 -3.66736 0.847435 0
M  V30 13350 C 1582.23 -2.4659 1.26842 0
M  V30 13351 H 1585.18 -1.1348 1.10942 0
M  V30 13352 H 1585.21 -3.77714 0.459618 0
M  V30 13353 H 1584.72 -3.20293 2.19166 0
M  V30 13354 H 1582.82 -3.71954 -0.219376 0
M  V30 13355 H 1582.93 -4.56104 1.4665 0
M  V30 13356 H 1581.3 -2.45261 0.686944 0
M  V30 13357 H 1582.08 -2.49524 2.35781 0
M  V30 13358 N 1584.52 -0.695628 -1.41417 0
M  V30 13359 C 1585.49 -0.0392949 -2.29166 0
M  V30 13360 C 1586.49 0.70789 -1.4438 0
M  V30 13361 O 1587.68 0.542771 -1.65528 0
M  V30 13362 C 1584.81 0.954719 -3.27258 0
M  V30 13363 H 1586 -0.811902 -2.88701 0
M  V30 13364 H 1583.55 -0.459128 -1.49405 0
M  V30 13365 H 1584.29 1.75509 -2.72703 0
M  V30 13366 H 1584.07 0.422079 -3.89822 0
M  V30 13367 H 1585.56 1.41174 -3.93014 0
M  V30 13368 N 1586 1.51322 -0.440383 0
M  V30 13369 C 1587.25 2.01714 0.124815 0
M  V30 13370 C 1587.57 1.32634 1.42945 0
M  V30 13371 O 1586.84 0.461849 1.90378 0
M  V30 13372 H 1585.42 0.745384 0.049116 0
M  V30 13373 H 1588.08 1.85951 -0.583787 0
M  V30 13374 H 1587.18 3.10669 0.29853 0
M  V30 13375 N 1587.48 0.171848 1.5666 0
M  V30 13376 C 1588.44 -0.744316 2.16778 0
M  V30 13377 C 1589.44 -1.15769 1.11598 0
M  V30 13378 O 1590.63 -1.07456 1.37109 0
M  V30 13379 C 1587.76 -2.01319 2.75106 0
M  V30 13380 H 1588.96 -0.220952 2.99085 0
M  V30 13381 H 1586.51 -0.0777149 1.56107 0
M  V30 13382 H 1587.25 -2.57963 1.96534 0
M  V30 13383 H 1587.03 -1.72575 3.5208 0
M  V30 13384 H 1588.52 -2.667 3.21342 0
M  V30 13385 N 1588.96 -1.5727 -0.101874 0
M  V30 13386 C 1590.37 -1.74753 -0.657147 0
M  V30 13387 C 1590.72 -0.793052 -1.79458 0
M  V30 13388 O 1589.84 0.0300559 -2.16379 0
M  V30 13389 C 1590.44 -3.1688 -1.19885 0
M  V30 13390 C 1589 -3.3581 -1.70025 0
M  V30 13391 C 1588.15 -2.70575 -0.607007 0
M  V30 13392 H 1591.1 -1.58214 0.124158 0
M  V30 13393 H 1591.12 -3.19378 -2.06829 0
M  V30 13394 H 1590.63 -3.86325 -0.37079 0
M  V30 13395 H 1588.73 -2.71434 -2.55253 0
M  V30 13396 H 1588.84 -4.44086 -1.79791 0
M  V30 13397 H 1587.21 -2.32284 -1.04481 0
M  V30 13398 H 1587.99 -3.42655 0.21036 0
M  V30 13399 N 1590.44 0.372521 -1.53134 0
M  V30 13400 C 1591.68 1.11368 -1.68646 0
M  V30 13401 C 1592 1.90034 -0.437275 0
M  V30 13402 O 1591.27 1.88062 0.548593 0
M  V30 13403 H 1589.85 0.414129 -0.621696 0
M  V30 13404 H 1592.52 0.42082 -1.90303 0
M  V30 13405 H 1591.61 1.80738 -2.54441 0
M  V30 13406 N 1591.91 1.44376 0.631925 0
M  V30 13407 C 1593.32 1.41881 1.21353 0
M  V30 13408 C 1593.68 0.13375 1.95744 0
M  V30 13409 O 1592.8 -0.765919 2.02392 0
M  V30 13410 C 1593.4 2.57027 2.20732 0
M  V30 13411 C 1591.95 2.5773 2.74322 0
M  V30 13412 C 1591.1 2.33672 1.49307 0
M  V30 13413 H 1594.05 1.52968 0.42265 0
M  V30 13414 H 1594.07 2.29735 3.03319 0
M  V30 13415 H 1593.59 3.50541 1.66561 0
M  V30 13416 H 1591.69 1.68155 3.32498 0
M  V30 13417 H 1591.8 3.5619 3.20415 0
M  V30 13418 H 1590.16 1.8275 1.7741 0
M  V30 13419 H 1590.95 3.293 0.970395 0
M  V30 13420 N 1593.39 -0.872258 1.31261 0
M  V30 13421 C 1594.35 -1.96081 1.1868 0
M  V30 13422 C 1595.35 -1.60392 0.11452 0
M  V30 13423 O 1596.54 -1.70363 0.363613 0
M  V30 13424 C 1593.68 -3.30862 0.821183 0
M  V30 13425 H 1594.87 -2.08667 2.15402 0
M  V30 13426 H 1592.42 -1.06026 1.14839 0
M  V30 13427 H 1593.16 -3.23976 -0.14498 0
M  V30 13428 H 1592.94 -3.58137 1.59625 0
M  V30 13429 H 1594.43 -4.10682 0.756991 0
M  V30 13430 N 1594.87 -1.14184 -1.08627 0
M  V30 13431 C 1596.12 -0.906869 -1.80611 0
M  V30 13432 C 1596.44 0.568182 -1.86539 0
M  V30 13433 O 1595.71 1.41301 -1.35687 0
M  V30 13434 H 1594.29 -0.332523 -0.668908 0
M  V30 13435 H 1596.95 -1.43998 -1.31341 0
M  V30 13436 H 1596.05 -1.30484 -2.83514 0
M  V30 13437 N 1596.35 1.26749 -0.936613 0
M  V30 13438 C 1597.57 1.98597 -0.597817 0
M  V30 13439 C 1598 1.69324 0.8192 0
M  V30 13440 O 1597.36 0.938634 1.55111 0
M  V30 13441 C 1597.4 3.50656 -0.841007 0
M  V30 13442 O 1596.51 4.12304 0.0891038 0
M  V30 13443 H 1595.85 0.623197 -0.229176 0
M  V30 13444 H 1598.38 1.61332 -1.2583 0
M  V30 13445 H 1598.39 4.00857 -0.760093 0
M  V30 13446 H 1597.06 3.71293 -1.87388 0
M  V30 13447 H 1595.64 3.72876 -0.0424804 0
M  V30 13448 N 1597.83 0.703118 1.41046 0
M  V30 13449 C 1599.24 0.375417 1.55122 0
M  V30 13450 C 1599.44 -1.11696 1.67709 0
M  V30 13451 O 1598.5 -1.90289 1.65971 0
M  V30 13452 C 1599.81 1.13056 2.78638 0
M  V30 13453 C 1601.36 1.11564 2.92442 0
M  V30 13454 C 1601.83 1.85268 4.18855 0
M  V30 13455 N 1603.33 1.82275 4.25829 0
M  V30 13456 C 1604.06 2.36137 5.2252 0
M  V30 13457 N 1603.56 2.98502 6.25195 0
M  V30 13458 N 1605.35 2.26349 5.14512 0
M  V30 13459 H 1597.5 1.67096 1.31121 0
M  V30 13460 H 1599.76 0.705573 0.633144 0
M  V30 13461 H 1599.47 2.18524 2.75572 0
M  V30 13462 H 1599.34 0.714037 3.7038 0
M  V30 13463 H 1601.73 0.0691901 2.95019 0
M  V30 13464 H 1601.81 1.57128 2.01853 0
M  V30 13465 H 1601.46 2.89896 4.1704 0
M  V30 13466 H 1601.39 1.37133 5.08431 0
M  V30 13467 H 1603.88 1.36812 3.52265 0
M  V30 13468 H 1604.19 3.37149 6.95378 0
M  V30 13469 H 1602.53 3.02582 6.25675 0
M  V30 13470 H 1605.73 1.77294 4.33226 0
M  V30 13471 H 1605.9 2.68629 5.89697 0
M  V30 13472 N 1599.3 -1.51086 0.448402 0
M  V30 13473 C 1600.55 -2.01778 -0.114116 0
M  V30 13474 C 1600.87 -1.3339 -1.4224 0
M  V30 13475 O 1600.14 -0.471938 -1.9013 0
M  V30 13476 H 1598.72 -0.745634 -0.0451624 0
M  V30 13477 H 1601.39 -1.85639 0.59364 0
M  V30 13478 H 1600.48 -3.10823 -0.28205 0
M  V30 13479 N 1600.78 -0.180154 -1.56567 0
M  V30 13480 C 1601.75 0.732809 -2.17169 0
M  V30 13481 C 1602.75 1.15176 -1.1221 0
M  V30 13482 O 1603.94 1.06728 -1.37677 0
M  V30 13483 C 1601.07 1.99857 -2.7617 0
M  V30 13484 H 1602.26 0.205088 -2.99198 0
M  V30 13485 H 1599.81 0.0694351 -1.56146 0
M  V30 13486 H 1600.55 2.56917 -1.97899 0
M  V30 13487 H 1600.33 1.70705 -3.5299 0
M  V30 13488 H 1601.82 2.64992 -3.22752 0
M  V30 13489 N 1602.26 1.57322 0.0935319 0
M  V30 13490 C 1603.67 1.75099 0.64787 0
M  V30 13491 C 1604.02 0.802558 1.79035 0
M  V30 13492 O 1603.15 -0.0185803 2.16392 0
M  V30 13493 C 1603.74 3.17512 1.18203 0
M  V30 13494 C 1602.3 3.36707 1.68242 0
M  V30 13495 C 1601.45 2.70893 0.592649 0
M  V30 13496 H 1604.4 1.58146 -0.132546 0
M  V30 13497 H 1604.42 3.2047 2.05132 0
M  V30 13498 H 1603.93 3.86516 0.350297 0
M  V30 13499 H 1602.03 2.72784 2.5381 0
M  V30 13500 H 1602.15 4.45033 1.77433 0
M  V30 13501 H 1600.51 2.32835 1.03248 0
M  V30 13502 H 1601.29 3.42539 -0.228529 0
M  V30 13503 N 1603.74 -0.364395 1.53329 0
M  V30 13504 C 1604.99 -1.10473 1.69234 0
M  V30 13505 C 1605.31 -1.89799 0.447347 0
M  V30 13506 O 1604.58 -1.8835 -0.538612 0
M  V30 13507 H 1603.16 -0.410826 0.623884 0
M  V30 13508 H 1605.82 -0.410721 1.90523 0
M  V30 13509 H 1604.92 -1.79387 2.55396 0
M  V30 13510 N 1605.22 -1.44709 -0.62426 0
M  V30 13511 C 1606.63 -1.42523 -1.20599 0
M  V30 13512 C 1606.98 -0.144129 -1.9567 0
M  V30 13513 O 1606.1 0.755175 -2.02796 0
M  V30 13514 C 1606.7 -2.58194 -2.19365 0
M  V30 13515 C 1605.26 -2.59181 -2.72951 0
M  V30 13516 C 1604.4 -2.34461 -1.48065 0
M  V30 13517 H 1607.36 -1.5319 -0.414532 0
M  V30 13518 H 1607.38 -2.3134 -3.02096 0
M  V30 13519 H 1606.89 -3.5142 -1.64699 0
M  V30 13520 H 1604.99 -1.69916 -3.31601 0
M  V30 13521 H 1605.1 -3.57884 -3.18521 0
M  V30 13522 H 1603.47 -1.83688 -1.76439 0
M  V30 13523 H 1604.25 -3.2981 -0.952918 0
M  V30 13524 N 1606.69 0.865285 -1.31722 0
M  V30 13525 C 1607.63 1.97919 -1.15588 0
M  V30 13526 C 1608.64 1.6253 -0.0936929 0
M  V30 13527 O 1609.83 1.752 -0.341639 0
M  V30 13528 C 1606.93 3.30614 -0.744814 0
M  V30 13529 C 1606.1 3.94314 -1.89301 0
M  V30 13530 C 1605.16 5.0533 -1.46724 0
M  V30 13531 O 1604.19 5.25898 -2.17762 0
M  V30 13532 N 1605.39 5.794 -0.357262 0
M  V30 13533 H 1608.15 2.12304 -2.11535 0
M  V30 13534 H 1605.71 1.03953 -1.24118 0
M  V30 13535 H 1607.71 4.02273 -0.442594 0
M  V30 13536 H 1606.28 3.12357 0.123186 0
M  V30 13537 H 1605.5 3.15577 -2.3623 0
M  V30 13538 H 1606.78 4.33609 -2.66196 0
M  V30 13539 H 1606.18 5.65215 0.23423 0
M  V30 13540 H 1604.74 6.51699 -0.114599 0
M  V30 13541 N 1608.17 1.14759 1.0802 0
M  V30 13542 C 1609.42 0.916435 1.80127 0
M  V30 13543 C 1609.74 -0.558281 1.86837 0
M  V30 13544 O 1609.01 -1.40579 1.36434 0
M  V30 13545 H 1607.59 0.336066 0.667135 0
M  V30 13546 H 1610.25 1.44693 1.30576 0
M  V30 13547 H 1609.35 1.31986 2.82818 0
M  V30 13548 N 1609.65 -1.26251 0.943322 0
M  V30 13549 C 1611.06 -1.75591 0.634391 0
M  V30 13550 C 1611.41 -1.76812 -0.850406 0
M  V30 13551 O 1610.54 -1.38162 -1.66554 0
M  V30 13552 C 1611.13 -3.18871 1.14484 0
M  V30 13553 C 1609.69 -3.65817 0.886285 0
M  V30 13554 C 1608.84 -2.4523 1.2945 0
M  V30 13555 H 1611.79 -1.12297 1.12139 0
M  V30 13556 H 1611.81 -3.77205 0.499654 0
M  V30 13557 H 1611.32 -3.17951 2.22551 0
M  V30 13558 H 1609.42 -3.72165 -0.179913 0
M  V30 13559 H 1609.54 -4.54523 1.5148 0
M  V30 13560 H 1607.9 -2.44519 0.712919 0
M  V30 13561 H 1608.68 -2.47009 2.38415 0
M  V30 13562 N 1611.13 -0.710588 -1.40671 0
M  V30 13563 C 1612.55 -0.383638 -1.54921 0
M  V30 13564 C 1612.75 1.10805 -1.68299 0
M  V30 13565 O 1611.8 1.89406 -1.66978 0
M  V30 13566 C 1613.11 -1.14532 -2.78034 0
M  V30 13567 C 1614.66 -1.13113 -2.91847 0
M  V30 13568 C 1615.14 -1.87487 -4.17867 0
M  V30 13569 N 1616.63 -1.8453 -4.24856 0
M  V30 13570 C 1617.36 -2.38904 -5.2126 0
M  V30 13571 N 1616.86 -3.01813 -6.23603 0
M  V30 13572 N 1618.65 -2.29075 -5.13304 0
M  V30 13573 H 1610.8 -1.67789 -1.30233 0
M  V30 13574 H 1613.07 -0.70892 -0.629393 0
M  V30 13575 H 1612.77 -2.19983 -2.74409 0
M  V30 13576 H 1612.65 -0.733669 -3.69996 0
M  V30 13577 H 1615.03 -0.0848347 -2.94978 0
M  V30 13578 H 1615.11 -1.58196 -2.01017 0
M  V30 13579 H 1614.76 -2.92104 -4.15497 0
M  V30 13580 H 1614.69 -1.39827 -5.07697 0
M  V30 13581 H 1617.18 -1.38679 -3.51535 0
M  V30 13582 H 1617.49 -3.40832 -6.9358 0
M  V30 13583 H 1615.84 -3.05896 -6.24062 0
M  V30 13584 H 1619.03 -1.79589 -4.32279 0
M  V30 13585 H 1619.2 -2.71752 -5.88264 0
M  V30 13586 N 1612.61 1.50847 -0.456408 0
M  V30 13587 C 1613.86 2.01835 0.103414 0
M  V30 13588 C 1614.18 1.34142 1.4153 0
M  V30 13589 O 1613.45 0.482015 1.89877 0
M  V30 13590 H 1612.03 0.745863 0.0412074 0
M  V30 13591 H 1614.69 1.85322 -0.603477 0
M  V30 13592 H 1613.78 3.10968 0.265562 0
M  V30 13593 N 1614.09 0.188454 1.56469 0
M  V30 13594 C 1615.36 -0.499324 1.89119 0
M  V30 13595 C 1615.74 -1.80116 1.10098 0
M  V30 13596 O 1615.09 -2.27623 0.200048 0
M  V30 13597 C 1615.3 -0.724574 3.41396 0
M  V30 13598 C 1616.65 -1.04692 4.11491 0
M  V30 13599 O 1617.67 -0.812526 3.46809 0
M  V30 13600 O 1616.53 -1.48998 5.25797 0
M  V30 13601 H 1613.63 -0.259468 0.785242 0
M  V30 13602 H 1616.17 0.228172 1.68159 0
M  V30 13603 H 1614.94 0.195039 3.90814 0
M  V30 13604 H 1614.57 -1.50477 3.68025 0
M  V30 13605 N 1615.56 -1.5737 -0.0851874 0
M  V30 13606 C 1616.51 -2.02758 -1.10262 0
M  V30 13607 C 1617.48 -0.905702 -1.39235 0
M  V30 13608 O 1618.67 -1.17241 -1.50529 0
M  V30 13609 C 1615.81 -2.46528 -2.41492 0
M  V30 13610 C 1614.92 -3.72278 -2.19165 0
M  V30 13611 C 1614.05 -4.04885 -3.43863 0
M  V30 13612 C 1613.09 -5.23715 -3.16842 0
M  V30 13613 N 1612.23 -5.52026 -4.33833 0
M  V30 13614 H 1617.07 -2.89453 -0.708583 0
M  V30 13615 H 1614.61 -1.43156 -0.338332 0
M  V30 13616 H 1616.56 -2.69952 -3.18091 0
M  V30 13617 H 1615.19 -1.62829 -2.78723 0
M  V30 13618 H 1614.25 -3.56272 -1.33321 0
M  V30 13619 H 1615.56 -4.5902 -1.95197 0
M  V30 13620 H 1614.71 -4.29138 -4.28865 0
M  V30 13621 H 1613.45 -3.16683 -3.70895 0
M  V30 13622 H 1612.46 -4.99272 -2.30234 0
M  V30 13623 H 1613.68 -6.13523 -2.91146 0
M  V30 13624 H 1611.63 -4.66784 -4.60922 0
M  V30 13625 H 1611.54 -6.3316 -4.13091 0
M  V30 13626 H 1612.81 -5.80822 -5.19871 0
M  V30 13627 N 1617.04 0.356258 -1.53521 0
M  V30 13628 C 1618.29 1.09573 -1.69818 0
M  V30 13629 C 1618.61 1.89559 -0.457406 0
M  V30 13630 O 1617.88 1.88633 0.528616 0
M  V30 13631 H 1616.46 0.407512 -0.626054 0
M  V30 13632 H 1619.12 0.400612 -1.90738 0
M  V30 13633 H 1618.22 1.7803 -2.56343 0
M  V30 13634 N 1618.52 1.45038 0.616577 0
M  V30 13635 C 1619.43 1.55542 1.75624 0
M  V30 13636 C 1620.45 0.440304 1.68337 0
M  V30 13637 O 1621.62 0.699725 1.88854 0
M  V30 13638 C 1618.69 1.51062 3.1206 0
M  V30 13639 C 1617.75 2.7354 3.30869 0
M  V30 13640 C 1616.98 2.69264 4.60796 0
M  V30 13641 O 1617.2 1.76085 5.42541 0
M  V30 13642 O 1616.14 3.60335 4.82123 0
M  V30 13643 H 1619.96 2.51854 1.69715 0
M  V30 13644 H 1617.55 1.27448 0.779578 0
M  V30 13645 H 1619.43 1.51138 3.93364 0
M  V30 13646 H 1618.11 0.578976 3.1848 0
M  V30 13647 H 1617.01 2.79027 2.49188 0
M  V30 13648 H 1618.35 3.65799 3.2932 0
M  V30 13649 N 1620 -0.858287 1.32179 0
M  V30 13650 C 1621.23 -1.64473 1.25523 0
M  V30 13651 C 1621.64 -1.87964 -0.177425 0
M  V30 13652 O 1621 -1.44607 -1.11333 0
M  V30 13653 C 1621.05 -3.00609 2.0079 0
M  V30 13654 O 1620.77 -2.7816 3.38465 0
M  V30 13655 C 1622.27 -3.95054 2.01115 0
M  V30 13656 H 1619.49 -0.512393 0.433237 0
M  V30 13657 H 1622.03 -1.07048 1.74244 0
M  V30 13658 H 1620.19 -3.5469 1.55801 0
M  V30 13659 H 1620.6 -3.64712 3.76942 0
M  V30 13660 H 1622.08 -4.87854 2.58268 0
M  V30 13661 H 1622.55 -4.27746 0.996513 0
M  V30 13662 H 1623.16 -3.4691 2.46035 0
M  V30 13663 N 1621.48 -1.1533 -1.07409 0
M  V30 13664 C 1622.72 -0.925974 -1.79639 0
M  V30 13665 C 1623.04 0.548365 -1.87131 0
M  V30 13666 O 1622.31 1.39854 -1.37178 0
M  V30 13667 H 1620.89 -0.339599 -0.665343 0
M  V30 13668 H 1623.56 -1.45383 -1.29806 0
M  V30 13669 H 1622.65 -1.33484 -2.82114 0
M  V30 13670 N 1622.95 1.25748 -0.950004 0
M  V30 13671 C 1623.86 2.29783 -0.472971 0
M  V30 13672 C 1624.88 1.6788 0.457403 0
M  V30 13673 O 1626.06 1.98598 0.334779 0
M  V30 13674 C 1623.12 3.45826 0.245955 0
M  V30 13675 C 1622.18 4.23184 -0.722063 0
M  V30 13676 C 1621.41 5.33687 -0.0373517 0
M  V30 13677 O 1621.64 5.58105 1.1779 0
M  V30 13678 O 1620.57 5.97572 -0.72054 0
M  V30 13679 H 1624.4 2.72668 -1.33737 0
M  V30 13680 H 1621.98 1.31111 -0.71626 0
M  V30 13681 H 1623.86 4.16348 0.650563 0
M  V30 13682 H 1622.54 3.04953 1.0856 0
M  V30 13683 H 1621.45 3.55109 -1.17679 0
M  V30 13684 H 1622.78 4.67829 -1.52959 0
M  V30 13685 N 1624.43 0.718038 1.40292 0
M  V30 13686 C 1625.85 0.391848 1.54715 0
M  V30 13687 C 1626.05 -1.09911 1.68884 0
M  V30 13688 O 1625.1 -1.88518 1.6798 0
M  V30 13689 C 1626.42 1.16005 2.77423 0
M  V30 13690 C 1627.96 1.14659 2.91243 0
M  V30 13691 C 1628.44 1.897 4.16867 0
M  V30 13692 N 1629.93 1.86781 4.23872 0
M  V30 13693 C 1630.67 2.41665 5.19986 0
M  V30 13694 N 1630.16 3.05116 6.21994 0
M  V30 13695 N 1631.95 2.31794 5.12082 0
M  V30 13696 H 1624.11 1.68477 1.29342 0
M  V30 13697 H 1626.37 0.712248 0.625625 0
M  V30 13698 H 1626.07 2.21435 2.73239 0
M  V30 13699 H 1625.95 0.75328 3.69602 0
M  V30 13700 H 1628.34 0.100477 2.94929 0
M  V30 13701 H 1628.42 1.5926 2.00175 0
M  V30 13702 H 1628.06 2.94303 4.13942 0
M  V30 13703 H 1627.99 1.42518 5.06948 0
M  V30 13704 H 1630.48 1.40541 3.50794 0
M  V30 13705 H 1630.79 3.44505 6.91763 0
M  V30 13706 H 1629.14 3.09201 6.22431 0
M  V30 13707 H 1632.33 1.81879 4.31321 0
M  V30 13708 H 1632.5 2.74868 5.86815 0
M  V30 13709 N 1625.91 -1.50602 0.464402 0
M  V30 13710 C 1627.16 -2.01887 -0.0927084 0
M  V30 13711 C 1627.48 -1.34891 -1.40817 0
M  V30 13712 O 1626.75 -0.492078 -1.89619 0
M  V30 13713 H 1625.33 -0.746071 -0.0372514 0
M  V30 13714 H 1627.99 -1.84999 0.613296 0
M  V30 13715 H 1627.09 -3.11105 -0.249067 0
M  V30 13716 N 1627.39 -0.19675 -1.56367 0
M  V30 13717 C 1628.35 0.709734 -2.17934 0
M  V30 13718 C 1629.35 1.13979 -1.13426 0
M  V30 13719 O 1630.54 1.05261 -1.38801 0
M  V30 13720 C 1627.67 1.96917 -2.78274 0
M  V30 13721 H 1628.87 0.173342 -2.99399 0
M  V30 13722 H 1626.42 0.0528698 -1.56211 0
M  V30 13723 H 1627.15 2.54804 -2.00613 0
M  V30 13724 H 1626.94 1.66951 -3.54781 0
M  V30 13725 H 1628.43 2.61554 -3.25545 0
M  V30 13726 N 1628.87 1.57413 0.0768405 0
M  V30 13727 C 1629.83 2.02363 1.0762 0
M  V30 13728 C 1630.83 0.919879 1.3189 0
M  V30 13729 O 1632.02 1.18489 1.27695 0
M  V30 13730 C 1629.15 2.39995 2.42106 0
M  V30 13731 H 1630.34 2.91881 0.688889 0
M  V30 13732 H 1627.9 1.52938 0.322422 0
M  V30 13733 H 1628.63 1.53488 2.85678 0
M  V30 13734 H 1628.42 3.20534 2.25833 0
M  V30 13735 H 1629.91 2.75365 3.13948 0
M  V30 13736 N 1630.34 -0.348112 1.53707 0
M  V30 13737 C 1631.59 -1.08671 1.70396 0
M  V30 13738 C 1631.91 -1.89314 0.467453 0
M  V30 13739 O 1631.18 -1.88911 -0.518605 0
M  V30 13740 H 1629.76 -0.404186 0.628206 0
M  V30 13741 H 1632.43 -0.390491 1.90948 0
M  V30 13742 H 1631.52 -1.76668 2.57284 0
M  V30 13743 N 1631.82 -1.45363 -0.608876 0
M  V30 13744 C 1633.07 -1.48586 -1.364 0
M  V30 13745 C 1633.38 -0.131213 -1.95159 0
M  V30 13746 O 1634.59 -0.0410845 -2.71469 0
M  V30 13747 C 1633.05 -2.61694 -2.47071 0
M  V30 13748 C 1632.65 -4.03466 -1.94729 0
M  V30 13749 C 1634.4 -2.74162 -3.24091 0
M  V30 13750 C 1632.31 -5.07958 -3.02874 0
M  V30 13751 H 1631.24 -0.552893 -0.512665 0
M  V30 13752 H 1633.89 -1.71499 -0.65271 0
M  V30 13753 H 1632.27 -2.32062 -3.20879 0
M  V30 13754 H 1633.44 -4.4277 -1.27638 0
M  V30 13755 H 1631.76 -3.95436 -1.30457 0
M  V30 13756 H 1634.35 -3.494 -4.04752 0
M  V30 13757 H 1634.7 -1.80751 -3.75013 0
M  V30 13758 H 1635.23 -3.03313 -2.57383 0
M  V30 13759 H 1631.97 -6.03073 -2.56871 0
M  V30 13760 H 1631.49 -4.73225 -3.68535 0
M  V30 13761 H 1633.17 -5.3265 -3.67277 0
M  V30 13762 N 1633.3 0.851265 -1.32632 0
M  V30 13763 C 1634.25 1.96012 -1.21852 0
M  V30 13764 C 1635.22 1.65799 -0.0999141 0
M  V30 13765 O 1636.4 1.88793 -0.276049 0
M  V30 13766 C 1633.54 3.31737 -0.951014 0
M  V30 13767 C 1632.66 3.74427 -2.15472 0
M  V30 13768 C 1631.79 4.9896 -1.82242 0
M  V30 13769 C 1630.83 5.3415 -2.98914 0
M  V30 13770 N 1629.97 6.49861 -2.65754 0
M  V30 13771 H 1634.81 2.04565 -2.16696 0
M  V30 13772 H 1632.34 1.00119 -1.07771 0
M  V30 13773 H 1634.3 4.09912 -0.776401 0
M  V30 13774 H 1632.93 3.22776 -0.0393461 0
M  V30 13775 H 1631.98 2.91878 -2.4395 0
M  V30 13776 H 1633.3 3.96425 -3.02736 0
M  V30 13777 H 1632.45 5.84851 -1.61352 0
M  V30 13778 H 1631.19 4.78906 -0.921971 0
M  V30 13779 H 1630.19 4.4677 -3.20432 0
M  V30 13780 H 1631.42 5.5616 -3.89696 0
M  V30 13781 H 1629.36 6.31317 -1.78254 0
M  V30 13782 H 1629.28 6.71894 -3.46547 0
M  V30 13783 H 1630.55 7.38895 -2.48302 0
M  V30 13784 N 1634.78 1.15898 1.06796 0
M  V30 13785 C 1636.03 0.935488 1.79145 0
M  V30 13786 C 1636.35 -0.538433 1.87419 0
M  V30 13787 O 1635.62 -1.39124 1.37917 0
M  V30 13788 H 1634.2 0.343123 0.663533 0
M  V30 13789 H 1636.86 1.4607 1.29034 0
M  V30 13790 H 1635.96 1.34978 2.81402 0
M  V30 13791 N 1636.26 -1.25243 0.956659 0
M  V30 13792 C 1637.21 -2.23532 0.449171 0
M  V30 13793 C 1638.19 -1.54103 -0.462715 0
M  V30 13794 O 1639.38 -1.74517 -0.295436 0
M  V30 13795 C 1636.51 -3.42237 -0.269892 0
M  V30 13796 C 1635.6 -4.1893 0.660181 0
M  V30 13797 N 1635.99 -4.72965 1.7927 0
M  V30 13798 C 1634.29 -4.4353 0.468779 0
M  V30 13799 C 1634.99 -5.31072 2.37355 0
M  V30 13800 N 1633.96 -5.17638 1.65986 0
M  V30 13801 H 1637.77 -2.62918 1.31345 0
M  V30 13802 H 1635.28 -1.40504 0.814394 0
M  V30 13803 H 1637.28 -4.11792 -0.650604 0
M  V30 13804 H 1635.94 -3.04375 -1.13075 0
M  V30 13805 H 1636.95 -4.70038 2.17451 0
M  V30 13806 H 1633.62 -4.16038 -0.349031 0
M  V30 13807 H 1635.01 -5.83654 3.32863 0
M  V30 13808 N 1637.73 -0.725468 -1.3991 0
M  V30 13809 C 1639.15 -0.400048 -1.54505 0
M  V30 13810 C 1639.35 1.09014 -1.69464 0
M  V30 13811 O 1638.41 1.87624 -1.68977 0
M  V30 13812 C 1639.72 -1.17474 -2.76804 0
M  V30 13813 C 1641.27 -1.16202 -2.9063 0
M  V30 13814 C 1641.74 -1.91908 -4.15855 0
M  V30 13815 N 1643.23 -1.89026 -4.22875 0
M  V30 13816 C 1643.97 -2.4442 -5.18697 0
M  V30 13817 N 1643.46 -3.0841 -6.20367 0
M  V30 13818 N 1645.26 -2.34506 -5.10846 0
M  V30 13819 H 1637.41 -1.6916 -1.28447 0
M  V30 13820 H 1639.67 -0.715556 -0.621839 0
M  V30 13821 H 1639.38 -2.22881 -2.72061 0
M  V30 13822 H 1639.25 -0.772871 -3.69197 0
M  V30 13823 H 1641.64 -0.116116 -2.94871 0
M  V30 13824 H 1641.72 -1.60319 -1.99327 0
M  V30 13825 H 1641.36 -2.96494 -4.12375 0
M  V30 13826 H 1641.29 -1.45204 -5.06185 0
M  V30 13827 H 1643.78 -1.42399 -3.50044 0
M  V30 13828 H 1644.1 -3.48169 -6.89926 0
M  V30 13829 H 1642.44 -3.12497 -6.20782 0
M  V30 13830 H 1645.63 -1.84164 -4.3035 0
M  V30 13831 H 1645.81 -2.77976 -5.85349 0
M  V30 13832 N 1639.21 1.50354 -0.472382 0
M  V30 13833 C 1640.46 2.01934 0.0820006 0
M  V30 13834 C 1640.78 1.35636 1.401 0
M  V30 13835 O 1640.05 0.502127 1.89355 0
M  V30 13836 H 1638.63 0.746258 0.0332943 0
M  V30 13837 H 1641.29 1.84671 -0.623099 0
M  V30 13838 H 1640.39 3.11232 0.232565 0
M  V30 13839 N 1640.69 0.205039 1.56261 0
M  V30 13840 C 1641.94 -0.431097 1.97858 0
M  V30 13841 C 1642.27 -1.60937 1.09223 0
M  V30 13842 O 1641.52 -1.95244 0.133495 0
M  V30 13843 C 1641.82 -0.924086 3.45247 0
M  V30 13844 C 1641.49 0.141879 4.50677 0
M  V30 13845 C 1640.15 0.434753 4.79232 0
M  V30 13846 C 1642.5 0.863645 5.13995 0
M  V30 13847 C 1639.83 1.4542 5.68392 0
M  V30 13848 C 1642.18 1.87231 6.04258 0
M  V30 13849 C 1640.84 2.17227 6.31164 0
M  V30 13850 H 1640.11 -0.157749 0.724014 0
M  V30 13851 H 1642.76 0.304094 1.8907 0
M  V30 13852 H 1641.07 -1.73774 3.51155 0
M  V30 13853 H 1642.76 -1.42586 3.74794 0
M  V30 13854 H 1639.35 -0.0965514 4.28491 0
M  V30 13855 H 1643.54 0.650612 4.92017 0
M  V30 13856 H 1638.79 1.69241 5.8751 0
M  V30 13857 H 1642.97 2.43675 6.52377 0
M  V30 13858 H 1640.59 2.96366 7.00051 0
M  V30 13859 N 1642.17 -1.57451 -0.0684915 0
M  V30 13860 C 1643.58 -1.76107 -0.619932 0
M  V30 13861 C 1643.93 -0.830939 -1.77735 0
M  V30 13862 O 1643.06 -0.0158481 -2.16394 0
M  V30 13863 C 1643.65 -3.19352 -1.13136 0
M  V30 13864 C 1642.21 -3.39341 -1.62864 0
M  V30 13865 C 1641.36 -2.71801 -0.549477 0
M  V30 13866 H 1644.31 -1.57915 0.157689 0
M  V30 13867 H 1644.33 -3.23693 -2.00008 0
M  V30 13868 H 1643.84 -3.87024 -0.288762 0
M  V30 13869 H 1641.94 -2.76787 -2.49438 0
M  V30 13870 H 1642.06 -4.47799 -1.70331 0
M  V30 13871 H 1640.42 -2.34448 -0.995302 0
M  V30 13872 H 1641.2 -3.42132 0.282995 0
M  V30 13873 N 1643.65 0.339955 -1.5389 0
M  V30 13874 C 1644.9 1.07766 -1.7097 0
M  V30 13875 C 1645.22 1.89064 -0.477486 0
M  V30 13876 O 1644.49 1.89183 0.508579 0
M  V30 13877 H 1643.07 0.400849 -0.630341 0
M  V30 13878 H 1645.73 0.380359 -1.91153 0
M  V30 13879 H 1644.82 1.75301 -2.58217 0
M  V30 13880 N 1645.13 1.45684 0.601159 0
M  V30 13881 C 1646.07 1.55189 1.7326 0
M  V30 13882 C 1647.07 0.421459 1.64073 0
M  V30 13883 O 1648.27 0.597622 1.6979 0
M  V30 13884 H 1644.65 0.487571 0.572519 0
M  V30 13885 H 1646.62 2.50357 1.6237 0
M  V30 13886 C 1645.37 1.54185 3.11644 0
M  V30 13887 H 1644.69 2.40498 3.19375 0
M  V30 13888 H 1646.13 1.64893 3.90623 0
M  V30 13889 C 1644.59 0.267339 3.35838 0
M  V30 13890 O 1645.12 -0.650146 3.96404 0
M  V30 13891 N 1643.33 0.161015 2.90154 0
M  V30 13892 H 1642.87 0.90851 2.41047 0
M  V30 13893 H 1642.83 -0.690911 3.06714 0
M  V30 13894 N 1646.6 -0.84422 1.33082 0
M  V30 13895 C 1648.01 -1.41526 1.21767 0
M  V30 13896 C 1648.37 -1.955 -0.165606 0
M  V30 13897 O 1647.49 -1.88384 -1.06492 0
M  V30 13898 C 1648.09 -2.57266 2.20454 0
M  V30 13899 C 1646.64 -3.10339 2.12995 0
M  V30 13900 C 1645.79 -1.83119 2.08237 0
M  V30 13901 H 1648.74 -0.650452 1.44758 0
M  V30 13902 H 1648.76 -3.34739 1.80914 0
M  V30 13903 H 1648.28 -2.17952 3.21121 0
M  V30 13904 H 1646.38 -3.5421 1.15612 0
M  V30 13905 H 1646.49 -3.70875 3.03296 0
M  V30 13906 H 1644.85 -2.03148 1.53632 0
M  V30 13907 H 1645.64 -1.46009 3.10703 0
M  V30 13908 N 1648.08 -1.16463 -1.0618 0
M  V30 13909 C 1649.33 -0.944975 -1.78647 0
M  V30 13910 C 1649.65 0.528486 -1.87702 0
M  V30 13911 O 1648.92 1.38391 -1.38653 0
M  V30 13912 H 1647.5 -0.346637 -0.661704 0
M  V30 13913 H 1650.16 -1.46752 -1.28257 0
M  V30 13914 H 1649.26 -1.36469 -2.80683 0
M  V30 13915 N 1649.56 1.24734 -0.963288 0
M  V30 13916 C 1650.52 2.23795 -0.494824 0
M  V30 13917 C 1651.52 1.55584 0.406225 0
M  V30 13918 O 1652.71 1.73021 0.202302 0
M  V30 13919 C 1649.84 3.39715 0.283963 0
M  V30 13920 H 1651.04 2.66753 -1.37051 0
M  V30 13921 H 1648.59 1.37271 -0.747428 0
M  V30 13922 H 1649.33 3.0219 1.17693 0
M  V30 13923 H 1649.11 3.9042 -0.362586 0
M  V30 13924 H 1650.6 4.13254 0.600899 0
M  V30 13925 N 1651.04 0.732878 1.39523 0
M  V30 13926 C 1652.45 0.350145 1.83387 0
M  V30 13927 C 1652.8 -1.11807 1.61225 0
M  V30 13928 O 1651.92 -1.86222 1.10229 0
M  V30 13929 C 1652.52 0.628743 3.32915 0
M  V30 13930 C 1651.08 0.299529 3.75206 0
M  V30 13931 C 1650.23 0.892434 2.62547 0
M  V30 13932 H 1653.18 0.930687 1.28545 0
M  V30 13933 H 1653.2 -0.100206 3.80368 0
M  V30 13934 H 1652.71 1.6974 3.49013 0
M  V30 13935 H 1650.81 -0.763373 3.64696 0
M  V30 13936 H 1650.92 0.780607 4.72698 0
M  V30 13937 H 1649.29 0.319218 2.52692 0
M  V30 13938 H 1650.07 1.9657 2.81452 0
M  V30 13939 N 1652.52 -1.50101 0.480349 0
M  V30 13940 C 1653.76 -2.01974 -0.0712904 0
M  V30 13941 C 1654.08 -1.36377 -1.39378 0
M  V30 13942 O 1653.35 -0.512162 -1.89087 0
M  V30 13943 H 1651.93 -0.746424 -0.0293362 0
M  V30 13944 H 1654.6 -1.84338 0.632883 0
M  V30 13945 H 1653.69 -3.11351 -0.216057 0
M  V30 13946 N 1653.99 -0.213323 -1.5615 0
M  V30 13947 C 1655.22 0.428746 -2.0292 0
M  V30 13948 C 1655.64 1.53137 -1.09227 0
M  V30 13949 O 1655 1.81128 -0.0789684 0
M  V30 13950 C 1655.05 0.945231 -3.47991 0
M  V30 13951 O 1654.15 2.05709 -3.57432 0
M  V30 13952 H 1653.49 0.0980619 -0.656719 0
M  V30 13953 H 1656.02 -0.329548 -2.01929 0
M  V30 13954 H 1656.03 1.25717 -3.88149 0
M  V30 13955 H 1654.71 0.138161 -4.1567 0
M  V30 13956 H 1653.29 1.75242 -3.29158 0
M  V30 13957 N 1655.47 1.57485 0.0601405 0
M  V30 13958 C 1656.88 1.76433 0.610583 0
M  V30 13959 C 1657.23 0.840353 1.77292 0
M  V30 13960 O 1656.36 0.0273238 2.16383 0
M  V30 13961 C 1656.95 3.19947 1.11441 0
M  V30 13962 C 1655.51 3.402 1.61062 0
M  V30 13963 C 1654.66 2.72089 0.535055 0
M  V30 13964 H 1657.61 1.57829 -0.166062 0
M  V30 13965 H 1657.63 3.24749 1.98288 0
M  V30 13966 H 1657.14 3.87172 0.268233 0
M  V30 13967 H 1655.25 2.78106 2.47967 0
M  V30 13968 H 1655.36 4.48696 1.67954 0
M  V30 13969 H 1653.72 2.34972 0.982855 0
M  V30 13970 H 1654.51 3.41977 -0.301135 0
M  V30 13971 N 1656.95 -0.331789 1.54068 0
M  V30 13972 C 1658.2 -1.06858 1.71539 0
M  V30 13973 C 1658.52 -1.88808 0.487506 0
M  V30 13974 O 1657.79 -1.8945 -0.498539 0
M  V30 13975 H 1656.37 -0.3975 0.632457 0
M  V30 13976 H 1659.03 -0.370216 1.91352 0
M  V30 13977 H 1658.13 -1.73929 2.59143 0
M  V30 13978 N 1658.43 -1.46001 -0.593424 0
M  V30 13979 C 1659.84 -1.45049 -1.17549 0
M  V30 13980 C 1660.19 -0.185601 -1.9532 0
M  V30 13981 O 1659.32 0.711989 -2.04352 0
M  V30 13982 C 1659.91 -2.62789 -2.13839 0
M  V30 13983 C 1658.47 -2.64912 -2.67392 0
M  V30 13984 C 1657.62 -2.37549 -1.43059 0
M  V30 13985 H 1660.57 -1.54035 -0.381944 0
M  V30 13986 H 1660.59 -2.37696 -2.97121 0
M  V30 13987 H 1660.1 -3.54834 -1.57208 0
M  V30 13988 H 1658.2 -1.76911 -3.27922 0
M  V30 13989 H 1658.31 -3.6456 -3.10858 0
M  V30 13990 H 1656.68 -1.8739 -1.72503 0
M  V30 13991 H 1657.46 -3.31757 -0.882746 0
M  V30 13992 N 1659.91 0.83715 -1.33527 0
M  V30 13993 C 1660.87 1.92865 -1.23837 0
M  V30 13994 C 1661.87 1.60032 -0.157005 0
M  V30 13995 O 1663.06 1.69339 -0.408654 0
M  V30 13996 C 1660.19 3.28568 -0.908617 0
M  V30 13997 H 1661.38 2.02883 -2.20859 0
M  V30 13998 H 1658.94 1.02944 -1.1761 0
M  V30 13999 H 1659.67 3.24246 0.0590328 0
M  V30 14000 H 1659.46 3.53779 -1.69064 0
M  V30 14001 H 1660.95 4.0853 -0.86561 0
M  V30 14002 N 1661.38 1.17024 1.05561 0
M  V30 14003 C 1662.63 0.954436 1.78143 0
M  V30 14004 C 1662.95 -0.518525 1.8798 0
M  V30 14005 O 1662.22 -1.37654 1.39385 0
M  V30 14006 H 1660.8 0.350141 0.659856 0
M  V30 14007 H 1663.47 1.4743 1.27477 0
M  V30 14008 H 1662.56 1.37955 2.79955 0
M  V30 14009 N 1662.86 -1.24221 0.969889 0
M  V30 14010 C 1663.79 -2.24544 0.459636 0
M  V30 14011 C 1664.81 -1.56941 -0.432813 0
M  V30 14012 O 1666 -1.76898 -0.238637 0
M  V30 14013 C 1663.1 -3.3703 -0.3555 0
M  V30 14014 C 1662.27 -4.34207 0.527566 0
M  V30 14015 C 1661.33 -5.25689 -0.231934 0
M  V30 14016 O 1660.35 -5.67964 0.37488 0
M  V30 14017 N 1661.56 -5.60222 -1.5209 0
M  V30 14018 H 1664.32 -2.68957 1.3222 0
M  V30 14019 H 1661.88 -1.38285 0.84196 0
M  V30 14020 H 1663.87 -3.95201 -0.871685 0
M  V30 14021 H 1662.44 -2.91885 -1.11901 0
M  V30 14022 H 1661.66 -3.74693 1.2247 0
M  V30 14023 H 1662.95 -4.96099 1.12975 0
M  V30 14024 H 1662.35 -5.27807 -2.03559 0
M  V30 14025 H 1660.91 -6.20911 -1.98273 0
M  V30 14026 N 1664.34 -0.740267 -1.39132 0
M  V30 14027 C 1665.27 -0.064087 -2.2911 0
M  V30 14028 C 1666.29 0.697897 -1.47082 0
M  V30 14029 O 1667.47 0.541189 -1.70098 0
M  V30 14030 C 1664.57 0.933426 -3.25792 0
M  V30 14031 C 1663.75 0.231867 -4.36785 0
M  V30 14032 C 1662.81 1.13823 -5.13742 0
M  V30 14033 O 1661.83 0.613741 -5.65881 0
M  V30 14034 N 1663.03 2.46751 -5.25447 0
M  V30 14035 H 1665.8 -0.836774 -2.87781 0
M  V30 14036 H 1663.36 -0.589928 -1.5077 0
M  V30 14037 H 1665.35 1.5425 -3.74151 0
M  V30 14038 H 1663.92 1.60728 -2.68114 0
M  V30 14039 H 1663.14 -0.557747 -3.90234 0
M  V30 14040 H 1664.43 -0.254115 -5.08165 0
M  V30 14041 H 1663.83 2.91834 -4.84613 0
M  V30 14042 H 1662.39 3.02741 -5.77227 0
M  V30 14043 N 1665.82 1.49844 -0.488302 0
M  V30 14044 C 1667.07 2.02009 0.0605782 0
M  V30 14045 C 1667.39 1.37114 1.38653 0
M  V30 14046 O 1666.66 0.522182 1.88812 0
M  V30 14047 H 1665.24 0.746569 0.0253773 0
M  V30 14048 H 1667.9 1.84 -0.64265 0
M  V30 14049 H 1667 3.11461 0.199542 0
M  V30 14050 N 1667.3 0.221601 1.56034 0
M  V30 14051 C 1668.26 -0.674973 2.19036 0
M  V30 14052 C 1669.26 -1.1216 1.15225 0
M  V30 14053 O 1670.45 -1.0304 1.40458 0
M  V30 14054 C 1667.58 -1.92465 2.81372 0
M  V30 14055 H 1668.77 -0.125689 2.99637 0
M  V30 14056 H 1666.33 -0.0280114 1.56275 0
M  V30 14057 H 1667.06 -2.5158 2.04641 0
M  V30 14058 H 1666.85 -1.61286 3.57392 0
M  V30 14059 H 1668.34 -2.56342 3.29664 0
M  V30 14060 N 1668.77 -1.57515 -0.0517878 0
M  V30 14061 C 1670.02 -1.87396 -0.746022 0
M  V30 14062 C 1670.34 -0.817053 -1.77718 0
M  V30 14063 O 1671.54 -1.00435 -2.5224 0
M  V30 14064 C 1670 -3.32481 -1.37783 0
M  V30 14065 C 1669.61 -4.46349 -0.384208 0
M  V30 14066 C 1671.35 -3.71539 -2.05327 0
M  V30 14067 C 1669.26 -5.82484 -1.02307 0
M  V30 14068 H 1668.19 -0.699127 -0.282379 0
M  V30 14069 H 1670.84 -1.835 0.000245524 0
M  V30 14070 H 1669.22 -3.31051 -2.17304 0
M  V30 14071 H 1670.39 -4.59209 0.382639 0
M  V30 14072 H 1668.71 -4.15976 0.187873 0
M  V30 14073 H 1671.31 -4.70553 -2.53936 0
M  V30 14074 H 1671.65 -3.02361 -2.86153 0
M  V30 14075 H 1672.18 -3.75046 -1.32611 0
M  V30 14076 H 1668.92 -6.55005 -0.254704 0
M  V30 14077 H 1668.44 -5.73388 -1.7603 0
M  V30 14078 H 1670.12 -6.28476 -1.5371 0
M  V30 14079 N 1670.25 0.323614 -1.54242 0
M  V30 14080 C 1671.5 1.05947 -1.72104 0
M  V30 14081 C 1671.82 1.88547 -0.497512 0
M  V30 14082 O 1671.09 1.89712 0.488485 0
M  V30 14083 H 1669.67 0.394141 -0.634557 0
M  V30 14084 H 1672.33 0.360063 -1.91545 0
M  V30 14085 H 1671.43 1.72552 -2.60062 0
M  V30 14086 N 1671.73 1.46313 0.585673 0
M  V30 14087 C 1672.96 1.55273 1.37496 0
M  V30 14088 C 1673.38 0.193481 1.87102 0
M  V30 14089 O 1672.74 -0.825859 1.61398 0
M  V30 14090 C 1672.79 2.5591 2.54052 0
M  V30 14091 O 1671.89 2.09208 3.55395 0
M  V30 14092 H 1671.23 0.522614 0.409598 0
M  V30 14093 H 1673.76 1.9186 0.710697 0
M  V30 14094 H 1673.77 2.75424 3.01008 0
M  V30 14095 H 1672.45 3.54619 2.17298 0
M  V30 14096 H 1671.02 1.9967 3.14939 0
M  V30 14097 N 1673.21 -0.830057 1.33969 0
M  V30 14098 C 1674.62 -1.40227 1.23261 0
M  V30 14099 C 1674.97 -1.95664 -0.144862 0
M  V30 14100 O 1674.1 -1.89503 -1.04488 0
M  V30 14101 C 1674.69 -2.54913 2.2317 0
M  V30 14102 C 1673.25 -3.08062 2.16274 0
M  V30 14103 C 1672.4 -1.809 2.10168 0
M  V30 14104 H 1675.35 -0.635062 1.4544 0
M  V30 14105 H 1675.37 -3.32801 1.84455 0
M  V30 14106 H 1674.88 -2.14534 3.23414 0
M  V30 14107 H 1672.98 -3.52964 1.19362 0
M  V30 14108 H 1673.1 -3.67637 3.07213 0
M  V30 14109 H 1671.46 -2.01508 1.55778 0
M  V30 14110 H 1672.24 -1.42705 3.12234 0
M  V30 14111 N 1674.69 -1.17582 -1.04939 0
M  V30 14112 C 1675.94 -0.96387 -1.77634 0
M  V30 14113 C 1676.26 0.508548 -1.88252 0
M  V30 14114 O 1675.53 1.36913 -1.40113 0
M  V30 14115 H 1674.11 -0.353636 -0.65799 0
M  V30 14116 H 1676.77 -1.48104 -1.26693 0
M  V30 14117 H 1675.86 -1.39438 -2.79219 0
M  V30 14118 N 1676.17 1.23705 -0.976463 0
M  V30 14119 C 1677.58 1.73848 -0.680723 0
M  V30 14120 C 1677.93 1.79005 0.803228 0
M  V30 14121 O 1677.05 1.42529 1.62832 0
M  V30 14122 C 1677.65 3.15724 -1.22898 0
M  V30 14123 C 1676.21 3.63338 -0.982963 0
M  V30 14124 C 1675.35 2.41712 -1.35906 0
M  V30 14125 H 1678.3 1.09284 -1.15077 0
M  V30 14126 H 1678.33 3.75748 -0.599487 0
M  V30 14127 H 1677.84 3.11938 -2.30903 0
M  V30 14128 H 1675.94 3.72512 0.0811766 0
M  V30 14129 H 1676.05 4.50347 -1.63477 0
M  V30 14130 H 1674.42 2.42543 -0.777498 0
M  V30 14131 H 1675.2 2.40601 -2.4488 0
M  V30 14132 N 1677.64 0.747635 1.38738 0
M  V30 14133 C 1678.61 0.124321 2.28863 0
M  V30 14134 C 1679.61 -0.653816 1.46908 0
M  V30 14135 O 1680.8 -0.480963 1.67429 0
M  V30 14136 C 1677.93 -0.832601 3.30576 0
M  V30 14137 H 1679.12 0.918492 2.85489 0
M  V30 14138 H 1676.67 0.514262 1.47598 0
M  V30 14139 H 1677.41 -1.65267 2.79029 0
M  V30 14140 H 1677.19 -0.277109 3.9112 0
M  V30 14141 H 1678.68 -1.2649 3.97982 0
M  V30 14142 N 1679.12 -1.49583 0.496242 0
M  V30 14143 C 1680.37 -2.02038 -0.0498643 0
M  V30 14144 C 1680.69 -1.37848 -1.37924 0
M  V30 14145 O 1679.96 -0.532188 -1.88533 0
M  V30 14146 H 1678.54 -0.746693 -0.0214177 0
M  V30 14147 H 1681.2 -1.83657 0.652399 0
M  V30 14148 H 1680.3 -3.11563 -0.183021 0
M  V30 14149 N 1680.6 -0.229873 -1.55915 0
M  V30 14150 C 1682.01 0.276452 -1.84642 0
M  V30 14151 C 1682.36 1.58861 -1.15142 0
M  V30 14152 O 1681.49 2.12207 -0.423932 0
M  V30 14153 C 1682.08 0.508371 -3.34964 0
M  V30 14154 C 1680.64 0.958989 -3.63979 0
M  V30 14155 C 1679.79 0.0266738 -2.77287 0
M  V30 14156 H 1682.74 -0.452864 -1.52101 0
M  V30 14157 H 1682.76 1.35328 -3.55621 0
M  V30 14158 H 1682.27 -0.4468 -3.8552 0
M  V30 14159 H 1680.37 1.92722 -3.18887 0
M  V30 14160 H 1680.49 0.827637 -4.71897 0
M  V30 14161 H 1678.85 0.53498 -2.49018 0
M  V30 14162 H 1679.63 -0.923563 -3.30644 0
M  V30 14163 N 1682.08 1.5754 0.0434337 0
M  V30 14164 C 1683.49 1.54537 0.398819 0
M  V30 14165 C 1683.69 0.954055 1.77483 0
M  V30 14166 O 1682.75 0.568839 2.46009 0
M  V30 14167 C 1684.06 2.99058 0.313848 0
M  V30 14168 C 1685.61 3.10536 0.39198 0
M  V30 14169 C 1686.09 4.56761 0.336614 0
M  V30 14170 N 1687.58 4.61505 0.395844 0
M  V30 14171 C 1688.31 5.72168 0.375669 0
M  V30 14172 N 1687.81 6.92112 0.30863 0
M  V30 14173 N 1689.6 5.60496 0.424335 0
M  V30 14174 H 1681.75 1.94333 -0.857225 0
M  V30 14175 H 1684.01 0.890708 -0.324566 0
M  V30 14176 H 1683.72 3.4599 -0.631159 0
M  V30 14177 H 1683.59 3.60402 1.11313 0
M  V30 14178 H 1685.98 2.6356 1.32742 0
M  V30 14179 H 1686.06 2.5205 -0.436391 0
M  V30 14180 H 1685.71 5.04402 -0.595093 0
M  V30 14181 H 1685.64 5.13142 1.1829 0
M  V30 14182 H 1688.13 3.75202 0.450753 0
M  V30 14183 H 1688.44 7.72225 0.29794 0
M  V30 14184 H 1686.79 6.94456 0.274891 0
M  V30 14185 H 1689.98 4.65688 0.474599 0
M  V30 14186 H 1690.15 6.46732 0.405143 0
M  V30 14187 N 1683.56 -0.31543 1.54411 0
M  V30 14188 C 1684.8 -1.05033 1.72663 0
M  V30 14189 C 1685.12 -1.8828 0.507504 0
M  V30 14190 O 1684.39 -1.89968 -0.478418 0
M  V30 14191 H 1682.97 -0.39077 0.636638 0
M  V30 14192 H 1685.64 -0.3499 1.91733 0
M  V30 14193 H 1684.73 -1.71171 2.60973 0
M  V30 14194 N 1685.03 -1.46622 -0.577906 0
M  V30 14195 C 1686.45 -1.46287 -1.16004 0
M  V30 14196 C 1686.8 -0.206307 -1.95112 0
M  V30 14197 O 1685.92 0.690275 -2.05096 0
M  V30 14198 C 1686.52 -2.65042 -2.1104 0
M  V30 14199 C 1685.08 -2.67733 -2.64567 0
M  V30 14200 C 1684.22 -2.39053 -1.40531 0
M  V30 14201 H 1687.17 -1.54432 -0.365585 0
M  V30 14202 H 1687.19 -2.40834 -2.94583 0
M  V30 14203 H 1686.71 -3.56481 -1.53436 0
M  V30 14204 H 1684.81 -1.80379 -3.26028 0
M  V30 14205 H 1684.92 -3.67836 -3.06974 0
M  V30 14206 H 1683.28 -1.89209 -1.70506 0
M  V30 14207 H 1684.07 -3.32674 -0.847509 0
M  V30 14208 N 1686.51 0.822941 -1.34408 0
M  V30 14209 C 1687.76 1.58149 -1.26951 0
M  V30 14210 C 1688.09 1.93538 0.160222 0
M  V30 14211 O 1687.37 1.60021 1.1056 0
M  V30 14212 C 1687.65 2.88101 -2.16032 0
M  V30 14213 C 1687.5 2.59293 -3.67542 0
M  V30 14214 C 1688.82 3.89673 -2.04556 0
M  V30 14215 H 1685.94 0.573811 -0.462504 0
M  V30 14216 H 1688.58 0.948017 -1.64659 0
M  V30 14217 H 1686.73 3.42162 -1.84003 0
M  V30 14218 H 1688.4 2.11542 -4.09936 0
M  V30 14219 H 1686.65 1.92738 -3.88632 0
M  V30 14220 H 1687.32 3.51962 -4.25238 0
M  V30 14221 H 1689.79 3.44965 -2.32677 0
M  V30 14222 H 1688.67 4.78404 -2.69111 0
M  V30 14223 H 1688.93 4.30113 -1.02253 0
M  V30 14224 N 1687.99 1.18137 1.04314 0
M  V30 14225 C 1689.24 0.973277 1.77121 0
M  V30 14226 C 1689.56 -0.498558 1.88519 0
M  V30 14227 O 1688.83 -1.36168 1.40837 0
M  V30 14228 H 1687.41 0.35712 0.656105 0
M  V30 14229 H 1690.07 1.48774 1.25906 0
M  V30 14230 H 1689.17 1.40917 2.78476 0
M  V30 14231 N 1689.47 -1.23186 0.98301 0
M  V30 14232 C 1690.88 -1.73484 0.689933 0
M  V30 14233 C 1691.23 -1.79428 -0.793724 0
M  V30 14234 O 1690.36 -1.43391 -1.62074 0
M  V30 14235 C 1690.95 -3.15068 1.24571 0
M  V30 14236 C 1689.51 -3.62812 1.00222 0
M  V30 14237 C 1688.66 -2.40988 1.37186 0
M  V30 14238 H 1691.61 -1.08672 1.15655 0
M  V30 14239 H 1691.63 -3.75425 0.619406 0
M  V30 14240 H 1691.14 -3.10709 2.32554 0
M  V30 14241 H 1689.24 -3.72549 -0.0614202 0
M  V30 14242 H 1689.35 -4.49473 1.65863 0
M  V30 14243 H 1687.72 -2.42127 0.79035 0
M  V30 14244 H 1688.5 -2.39299 2.46152 0
M  V30 14245 N 1690.95 -0.754982 -1.38339 0
M  V30 14246 C 1692.17 -0.321355 -2.04895 0
M  V30 14247 C 1692.6 1.04249 -1.56569 0
M  V30 14248 O 1691.95 1.66464 -0.718299 0
M  V30 14249 C 1692 -0.354873 -3.5885 0
M  V30 14250 O 1691.11 0.65063 -4.07235 0
M  V30 14251 H 1690.45 -0.142033 -0.648631 0
M  V30 14252 H 1692.98 -1.02649 -1.76987 0
M  V30 14253 H 1692.99 -0.206243 -4.07478 0
M  V30 14254 H 1691.66 -1.34994 -3.93382 0
M  V30 14255 H 1690.24 0.466498 -3.69971 0
M  V30 14256 N 1692.42 1.49318 -0.504168 0
M  V30 14257 C 1693.67 2.02062 0.039149 0
M  V30 14258 C 1693.99 1.38577 1.37191 0
M  V30 14259 O 1693.26 0.542179 1.88248 0
M  V30 14260 H 1691.84 0.746796 0.0174575 0
M  V30 14261 H 1694.51 1.83308 -0.66213 0
M  V30 14262 H 1693.6 3.11656 0.166496 0
M  V30 14263 N 1693.9 0.238138 1.5579 0
M  V30 14264 C 1695.31 -0.266656 1.84786 0
M  V30 14265 C 1695.66 -1.58248 1.15983 0
M  V30 14266 O 1694.79 -2.11979 0.43518 0
M  V30 14267 C 1695.38 -0.4906 3.35229 0
M  V30 14268 C 1693.94 -0.939672 3.64482 0
M  V30 14269 C 1693.09 -0.0119682 2.77297 0
M  V30 14270 H 1696.04 0.460924 1.51859 0
M  V30 14271 H 1696.06 -1.3344 3.56334 0
M  V30 14272 H 1695.57 0.467239 3.85277 0
M  V30 14273 H 1693.68 -1.91029 3.19904 0
M  V30 14274 H 1693.79 -0.8026 4.72329 0
M  V30 14275 H 1692.15 -0.521767 2.49298 0
M  V30 14276 H 1692.94 0.941085 3.30149 0
M  V30 14277 N 1695.38 -1.57561 -0.0350783 0
M  V30 14278 C 1696.79 -1.77383 -0.582437 0
M  V30 14279 C 1697.14 -0.868453 -1.75933 0
M  V30 14280 O 1696.27 -0.061745 -2.16312 0
M  V30 14281 C 1696.86 -3.2168 -1.06337 0
M  V30 14282 C 1695.42 -3.42719 -1.55629 0
M  V30 14283 C 1694.57 -2.72906 -0.4917 0
M  V30 14284 H 1697.52 -1.57545 0.19115 0
M  V30 14285 H 1697.54 -3.27863 -1.93097 0
M  V30 14286 H 1697.05 -3.8755 -0.206603 0
M  V30 14287 H 1695.15 -2.82016 -2.43511 0
M  V30 14288 H 1695.27 -4.51312 -1.60794 0
M  V30 14289 H 1693.63 -2.36506 -0.945349 0
M  V30 14290 H 1694.41 -3.41454 0.355502 0
M  V30 14291 N 1696.86 0.307236 -1.54576 0
M  V30 14292 C 1698.11 1.04115 -1.73218 0
M  V30 14293 C 1698.43 1.88008 -0.517482 0
M  V30 14294 O 1697.7 1.90219 0.468336 0
M  V30 14295 H 1696.28 0.387388 -0.638701 0
M  V30 14296 H 1698.94 0.339727 -1.91916 0
M  V30 14297 H 1698.04 1.69784 -2.61877 0
M  V30 14298 N 1698.34 1.46926 0.570122 0
M  V30 14299 C 1699.28 1.58442 1.67824 0
M  V30 14300 C 1700.25 0.428053 1.6049 0
M  V30 14301 O 1701.44 0.646445 1.79515 0
M  V30 14302 C 1698.58 1.59253 3.06158 0
M  V30 14303 C 1697.69 2.85714 3.24024 0
M  V30 14304 C 1696.83 2.77945 4.52681 0
M  V30 14305 C 1695.87 3.99289 4.63934 0
M  V30 14306 N 1695 3.89833 5.83931 0
M  V30 14307 H 1699.84 2.5309 1.5732 0
M  V30 14308 H 1697.38 1.25549 0.766548 0
M  V30 14309 H 1699.34 1.57707 3.86244 0
M  V30 14310 H 1697.97 0.68127 3.15529 0
M  V30 14311 H 1697.02 2.97184 2.37458 0
M  V30 14312 H 1698.33 3.7561 3.28206 0
M  V30 14313 H 1697.49 2.74576 5.41011 0
M  V30 14314 H 1696.22 1.85711 4.50958 0
M  V30 14315 H 1695.23 4.02976 3.74019 0
M  V30 14316 H 1696.45 4.92635 4.67427 0
M  V30 14317 H 1694.4 3.00393 5.83181 0
M  V30 14318 H 1694.32 4.73395 5.89434 0
M  V30 14319 H 1695.59 3.90459 6.74657 0
M  V30 14320 N 1699.82 -0.815801 1.34842 0
M  V30 14321 C 1701.09 -1.55867 1.18173 0
M  V30 14322 C 1701.47 -2.09698 -0.242848 0
M  V30 14323 O 1700.82 -1.91594 -1.24514 0
M  V30 14324 C 1701.03 -2.67445 2.24219 0
M  V30 14325 C 1702.38 -3.36027 2.59559 0
M  V30 14326 O 1703.4 -2.77708 2.23062 0
M  V30 14327 O 1702.26 -4.4136 3.22279 0
M  V30 14328 H 1699.36 -0.688242 0.458533 0
M  V30 14329 H 1701.9 -0.856558 1.46496 0
M  V30 14330 H 1700.67 -2.25473 3.19809 0
M  V30 14331 H 1700.3 -3.453 1.97113 0
M  V30 14332 N 1701.29 -1.18689 -1.03686 0
M  V30 14333 C 1702.54 -0.982656 -1.76602 0
M  V30 14334 C 1702.86 0.488553 -1.88781 0
M  V30 14335 O 1702.13 1.35419 -1.41558 0
M  V30 14336 H 1700.71 -0.360595 -0.654202 0
M  V30 14337 H 1703.37 -1.49439 -1.25115 0
M  V30 14338 H 1702.47 -1.42392 -2.77725 0
M  V30 14339 N 1702.77 1.22662 -0.989529 0
M  V30 14340 C 1704 1.95343 -0.681822 0
M  V30 14341 C 1704.41 1.73139 0.752889 0
M  V30 14342 O 1703.77 1.02838 1.50766 0
M  V30 14343 C 1703.82 3.4813 -0.974049 0
M  V30 14344 O 1703.54 3.69587 -2.35238 0
M  V30 14345 C 1705.04 4.37998 -0.683571 0
M  V30 14346 H 1702.26 0.621675 -0.252509 0
M  V30 14347 H 1704.81 1.55906 -1.32339 0
M  V30 14348 H 1702.96 3.85548 -0.378344 0
M  V30 14349 H 1703.38 4.63812 -2.44906 0
M  V30 14350 H 1704.85 5.43966 -0.938338 0
M  V30 14351 H 1705.33 4.37532 0.382417 0
M  V30 14352 H 1705.93 4.06202 -1.26017 0
M  V30 14353 N 1704.25 0.762308 1.37937 0
M  V30 14354 C 1705.47 0.332217 2.04722 0
M  V30 14355 C 1705.9 -1.03417 1.57119 0
M  V30 14356 O 1705.26 -1.6608 0.727117 0
M  V30 14357 C 1705.31 0.373899 3.58656 0
M  V30 14358 O 1704.41 -0.629024 4.07575 0
M  V30 14359 H 1703.75 0.145471 0.647869 0
M  V30 14360 H 1706.28 1.03586 1.7644 0
M  V30 14361 H 1706.29 0.22785 4.07363 0
M  V30 14362 H 1704.97 1.37079 3.92661 0
M  V30 14363 H 1703.54 -0.446871 3.70213 0
M  V30 14364 N 1705.73 -1.49049 0.51208 0
M  V30 14365 C 1706.98 -2.0208 -0.0284326 0
M  V30 14366 C 1707.3 -1.39303 -1.36454 0
M  V30 14367 O 1706.57 -0.552155 -1.87958 0
M  V30 14368 H 1705.15 -0.746878 -0.0134968 0
M  V30 14369 H 1707.81 -1.82954 0.671842 0
M  V30 14370 H 1706.9 -3.11739 -0.149966 0
M  V30 14371 N 1707.21 -0.246397 -1.55662 0
M  V30 14372 C 1708.16 0.667276 -2.18017 0
M  V30 14373 C 1709.14 1.13957 -1.1359 0
M  V30 14374 O 1710.33 1.08942 -1.39501 0
M  V30 14375 C 1707.46 1.86414 -2.88279 0
M  V30 14376 C 1706.55 1.41037 -3.99962 0
M  V30 14377 N 1706.94 0.670796 -5.01332 0
M  V30 14378 C 1705.24 1.69569 -4.12507 0
M  V30 14379 C 1705.94 0.43594 -5.80064 0
M  V30 14380 N 1704.91 1 -5.34323 0
M  V30 14381 H 1708.71 0.0940693 -2.93749 0
M  V30 14382 H 1706.23 -0.048692 -1.62327 0
M  V30 14383 H 1708.23 2.5297 -3.31379 0
M  V30 14384 H 1706.89 2.44158 -2.14049 0
M  V30 14385 H 1707.9 0.320958 -5.16905 0
M  V30 14386 H 1704.57 2.28455 -3.49449 0
M  V30 14387 H 1705.96 -0.154438 -6.71722 0
M  V30 14388 N 1708.68 1.57577 0.026722 0
M  V30 14389 C 1710.09 1.77689 0.573022 0
M  V30 14390 C 1710.45 0.877771 1.7547 0
M  V30 14391 O 1709.57 0.0732156 2.16276 0
M  V30 14392 C 1710.17 3.22239 1.0463 0
M  V30 14393 C 1708.72 3.4354 1.5381 0
M  V30 14394 C 1707.87 2.73163 0.47722 0
M  V30 14395 H 1710.82 1.57441 -0.199502 0
M  V30 14396 H 1710.84 3.28882 1.91355 0
M  V30 14397 H 1710.36 3.87654 0.186047 0
M  V30 14398 H 1708.46 2.83304 2.42012 0
M  V30 14399 H 1708.57 4.52158 1.58398 0
M  V30 14400 H 1706.93 2.37004 0.932793 0
M  V30 14401 H 1707.72 3.41261 -0.373605 0
M  V30 14402 N 1710.16 -0.299034 1.54737 0
M  V30 14403 C 1711.41 -1.03195 1.73767 0
M  V30 14404 C 1711.73 -1.87731 0.527445 0
M  V30 14405 O 1711 -1.90465 -0.458242 0
M  V30 14406 H 1709.58 -0.383996 0.640747 0
M  V30 14407 H 1712.24 -0.329544 1.92094 0
M  V30 14408 H 1711.34 -1.68393 2.62774 0
M  V30 14409 N 1711.64 -1.47227 -0.562322 0
M  V30 14410 C 1713.05 -1.47509 -1.14446 0
M  V30 14411 C 1713.4 -0.22699 -1.94883 0
M  V30 14412 O 1712.53 0.668483 -2.05816 0
M  V30 14413 C 1713.12 -2.67266 -2.08217 0
M  V30 14414 C 1711.68 -2.70524 -2.61713 0
M  V30 14415 C 1710.83 -2.4053 -1.37988 0
M  V30 14416 H 1713.78 -1.54811 -0.349185 0
M  V30 14417 H 1713.8 -2.43945 -2.92012 0
M  V30 14418 H 1713.31 -3.58089 -1.49646 0
M  V30 14419 H 1711.41 -1.83827 -3.24096 0
M  V30 14420 H 1711.53 -3.71072 -3.03056 0
M  V30 14421 H 1709.89 -1.91007 -1.68489 0
M  V30 14422 H 1710.67 -3.33554 -0.812177 0
M  V30 14423 N 1713.12 0.808639 -1.35273 0
M  V30 14424 C 1714.37 1.56071 -1.27768 0
M  V30 14425 C 1714.68 1.9505 0.146545 0
M  V30 14426 O 1715.89 2.69314 0.343855 0
M  V30 14427 C 1714.34 2.81648 -2.24059 0
M  V30 14428 C 1713.95 2.49915 -3.71815 0
M  V30 14429 C 1715.69 3.59658 -2.25492 0
M  V30 14430 C 1713.6 3.7177 -4.59936 0
M  V30 14431 H 1712.53 0.585811 -0.474701 0
M  V30 14432 H 1715.18 0.889051 -1.60525 0
M  V30 14433 H 1713.56 3.50514 -1.84271 0
M  V30 14434 H 1714.74 1.89068 -4.20226 0
M  V30 14435 H 1713.05 1.85154 -3.72971 0
M  V30 14436 H 1715.65 4.50162 -2.88545 0
M  V30 14437 H 1715.99 3.96835 -1.2581 0
M  V30 14438 H 1716.53 2.97751 -2.63798 0
M  V30 14439 H 1713.26 3.39704 -5.60608 0
M  V30 14440 H 1712.78 4.3185 -4.16252 0
M  V30 14441 H 1714.46 4.39022 -4.75256 0
M  V30 14442 N 1714.6 1.19237 1.03055 0
M  V30 14443 C 1715.84 0.992008 1.76078 0
M  V30 14444 C 1716.17 -0.478535 1.89037 0
M  V30 14445 O 1715.44 -1.34666 1.42274 0
M  V30 14446 H 1714.02 0.364059 0.652281 0
M  V30 14447 H 1716.68 1.50101 1.24321 0
M  V30 14448 H 1715.77 1.43862 2.76966 0
M  V30 14449 N 1716.07 -1.22136 0.99602 0
M  V30 14450 C 1717.49 -1.72743 0.708295 0
M  V30 14451 C 1717.84 -1.8026 -0.774649 0
M  V30 14452 O 1716.96 -1.45102 -1.60544 0
M  V30 14453 C 1717.56 -3.13729 1.27905 0
M  V30 14454 C 1716.12 -3.61729 1.04064 0
M  V30 14455 C 1715.26 -2.39519 1.39735 0
M  V30 14456 H 1718.21 -1.07439 1.16801 0
M  V30 14457 H 1718.23 -3.74746 0.65919 0
M  V30 14458 H 1717.75 -3.08225 2.35836 0
M  V30 14459 H 1715.85 -3.72594 -0.0219029 0
M  V30 14460 H 1715.96 -4.47689 1.70621 0
M  V30 14461 H 1714.32 -2.41275 0.815986 0
M  V30 14462 H 1715.11 -2.36675 2.48677 0
M  V30 14463 N 1717.55 -0.769612 -1.37531 0
M  V30 14464 C 1718.96 -0.398644 -1.82394 0
M  V30 14465 C 1719.31 1.07493 -1.64133 0
M  V30 14466 O 1718.44 1.83234 -1.15127 0
M  V30 14467 C 1719.03 -0.716789 -3.31131 0
M  V30 14468 C 1717.59 -0.398903 -3.7428 0
M  V30 14469 C 1716.74 -0.96173 -2.60089 0
M  V30 14470 H 1719.69 -0.964441 -1.26033 0
M  V30 14471 H 1719.71 -0.00067688 -3.805 0
M  V30 14472 H 1719.22 -1.78933 -3.4439 0
M  V30 14473 H 1717.33 0.666412 -3.66592 0
M  V30 14474 H 1717.44 -0.90566 -4.70462 0
M  V30 14475 H 1715.8 -0.386103 -2.51757 0
M  V30 14476 H 1716.59 -2.03963 -2.76141 0
M  V30 14477 N 1719.03 1.48775 -0.519977 0
M  V30 14478 C 1720.28 2.02092 0.0177154 0
M  V30 14479 C 1720.6 1.40024 1.35714 0
M  V30 14480 O 1719.87 0.562115 1.87662 0
M  V30 14481 H 1718.45 0.746939 0.00953578 0
M  V30 14482 H 1721.11 1.82595 -0.681535 0
M  V30 14483 H 1720.21 3.11815 0.133431 0
M  V30 14484 N 1720.51 0.254649 1.55529 0
M  V30 14485 C 1721.92 -0.247042 1.85058 0
M  V30 14486 C 1722.27 -1.57009 1.17655 0
M  V30 14487 O 1721.4 -2.11506 0.457638 0
M  V30 14488 C 1721.99 -0.455017 3.35731 0
M  V30 14489 C 1720.55 -0.900961 3.65458 0
M  V30 14490 C 1719.7 0.0174436 2.77295 0
M  V30 14491 H 1722.65 0.477005 1.51362 0
M  V30 14492 H 1722.67 -1.29654 3.57729 0
M  V30 14493 H 1722.18 0.508076 3.8476 0
M  V30 14494 H 1720.28 -1.87625 3.21913 0
M  V30 14495 H 1720.39 -0.752458 4.73154 0
M  V30 14496 H 1718.76 -0.495296 2.49838 0
M  V30 14497 H 1719.54 0.976049 3.29132 0
M  V30 14498 N 1721.99 -1.57589 -0.0183649 0
M  V30 14499 C 1723.4 -1.55152 -0.374183 0
M  V30 14500 C 1723.6 -0.98217 -1.75942 0
M  V30 14501 O 1722.66 -0.607905 -2.45073 0
M  V30 14502 C 1723.97 -2.99519 -0.266231 0
M  V30 14503 C 1725.52 -3.1112 -0.342527 0
M  V30 14504 C 1725.99 -4.57239 -0.263905 0
M  V30 14505 N 1727.49 -4.62077 -0.322372 0
M  V30 14506 C 1728.22 -5.72693 -0.284594 0
M  V30 14507 N 1727.72 -6.92516 -0.198482 0
M  V30 14508 N 1729.51 -5.611 -0.335111 0
M  V30 14509 H 1721.66 -1.92945 0.888033 0
M  V30 14510 H 1723.92 -0.885432 0.338695 0
M  V30 14511 H 1723.63 -3.44942 0.686123 0
M  V30 14512 H 1723.5 -3.62127 -1.05565 0
M  V30 14513 H 1725.89 -2.65638 -1.28532 0
M  V30 14514 H 1725.97 -2.51324 0.476435 0
M  V30 14515 H 1725.62 -5.03391 0.675263 0
M  V30 14516 H 1725.55 -5.14959 -1.10111 0
M  V30 14517 H 1728.04 -3.75872 -0.391004 0
M  V30 14518 H 1728.35 -7.72602 -0.175048 0
M  V30 14519 H 1726.69 -6.94806 -0.164374 0
M  V30 14520 H 1729.89 -4.66384 -0.400452 0
M  V30 14521 H 1730.06 -6.47295 -0.302203 0
M  V30 14522 N 1723.46 0.290824 -1.54893 0
M  V30 14523 C 1724.71 1.02272 -1.74312 0
M  V30 14524 C 1725.03 1.87449 -0.537393 0
M  V30 14525 O 1724.3 1.90705 0.448135 0
M  V30 14526 H 1722.88 0.380592 -0.642774 0
M  V30 14527 H 1725.55 0.319353 -1.92266 0
M  V30 14528 H 1724.64 1.66997 -2.63663 0
M  V30 14529 N 1724.94 1.47523 0.554506 0
M  V30 14530 C 1725.89 1.60623 1.68235 0
M  V30 14531 C 1726.88 0.473445 1.6265 0
M  V30 14532 O 1728.09 0.651337 1.67802 0
M  V30 14533 H 1724.47 0.505539 0.556718 0
M  V30 14534 H 1726.44 2.55395 1.54323 0
M  V30 14535 C 1725.19 1.64022 3.06581 0
M  V30 14536 H 1724.51 2.50537 3.11562 0
M  V30 14537 H 1725.95 1.77237 3.85179 0
M  V30 14538 C 1724.41 0.374048 3.34817 0
M  V30 14539 O 1724.94 -0.523704 3.98272 0
M  V30 14540 N 1723.14 0.253244 2.89494 0
M  V30 14541 H 1722.69 0.984738 2.38035 0
M  V30 14542 H 1722.65 -0.592982 3.08757 0
M  V30 14543 N 1726.42 -0.801453 1.357 0
M  V30 14544 C 1727.84 -1.09776 1.1585 0
M  V30 14545 C 1728.04 -2.01484 -0.0255653 0
M  V30 14546 O 1727.09 -2.42758 -0.694613 0
M  V30 14547 C 1728.41 -1.72381 2.46385 0
M  V30 14548 C 1729.95 -1.84777 2.52639 0
M  V30 14549 C 1730.43 -2.50797 3.83229 0
M  V30 14550 N 1731.92 -2.58277 3.84509 0
M  V30 14551 C 1732.65 -3.10141 4.82286 0
M  V30 14552 N 1732.15 -3.62404 5.90454 0
M  V30 14553 N 1733.94 -3.08742 4.69718 0
M  V30 14554 H 1726.09 -0.191926 2.11531 0
M  V30 14555 H 1728.36 -0.147742 0.936417 0
M  V30 14556 H 1728.06 -1.12462 3.33234 0
M  V30 14557 H 1727.94 -2.72024 2.6131 0
M  V30 14558 H 1730.32 -2.43837 1.66215 0
M  V30 14559 H 1730.41 -0.839745 2.41624 0
M  V30 14560 H 1730.05 -1.92385 4.70053 0
M  V30 14561 H 1729.98 -3.52147 3.91535 0
M  V30 14562 H 1732.47 -2.21257 3.06356 0
M  V30 14563 H 1732.78 -4.00293 6.61049 0
M  V30 14564 H 1731.13 -3.60588 5.94139 0
M  V30 14565 H 1734.32 -2.67193 3.84351 0
M  V30 14566 H 1734.49 -3.48854 5.46081 0
M  V30 14567 N 1727.9 -1.19782 -1.02421 0
M  V30 14568 C 1729.15 -1.00133 -1.7555 0
M  V30 14569 C 1729.47 0.468503 -1.89288 0
M  V30 14570 O 1728.74 1.3391 -1.42986 0
M  V30 14571 H 1727.32 -0.367513 -0.650341 0
M  V30 14572 H 1729.98 -1.50758 -1.23523 0
M  V30 14573 H 1729.08 -1.45329 -2.76199 0
M  V30 14574 N 1729.38 1.21606 -1.00248 0
M  V30 14575 C 1730.29 2.2757 -0.570004 0
M  V30 14576 C 1731.3 1.69669 0.385788 0
M  V30 14577 O 1732.48 1.99839 0.250246 0
M  V30 14578 C 1729.54 3.46558 0.0990566 0
M  V30 14579 C 1728.61 4.19741 -0.9009 0
M  V30 14580 C 1727.84 5.33048 -0.263673 0
M  V30 14581 O 1728.06 5.62599 0.940131 0
M  V30 14582 O 1727 5.93978 -0.973342 0
M  V30 14583 H 1730.82 2.66751 -1.45182 0
M  V30 14584 H 1728.41 1.27955 -0.771224 0
M  V30 14585 H 1730.29 4.18733 0.47339 0
M  V30 14586 H 1728.96 3.09283 0.955285 0
M  V30 14587 H 1727.87 3.49798 -1.32634 0
M  V30 14588 H 1729.2 4.60921 -1.72664 0
M  V30 14589 N 1730.86 0.776895 1.37121 0
M  V30 14590 C 1732.27 0.457116 1.52914 0
M  V30 14591 C 1732.47 -1.0265 1.73394 0
M  V30 14592 O 1731.53 -1.81224 1.75824 0
M  V30 14593 C 1732.84 1.27667 2.72253 0
M  V30 14594 C 1734.39 1.26909 2.86117 0
M  V30 14595 C 1734.86 2.0721 4.08446 0
M  V30 14596 N 1736.35 2.04591 4.15568 0
M  V30 14597 C 1737.09 2.63502 5.09268 0
M  V30 14598 N 1736.59 3.31222 6.08493 0
M  V30 14599 N 1738.38 2.53304 5.0179 0
M  V30 14600 H 1730.53 1.73811 1.2208 0
M  V30 14601 H 1732.79 0.738142 0.594853 0
M  V30 14602 H 1732.5 2.32825 2.63601 0
M  V30 14603 H 1732.37 0.909363 3.66074 0
M  V30 14604 H 1734.76 0.225476 2.94237 0
M  V30 14605 H 1734.84 1.67607 1.9324 0
M  V30 14606 H 1734.48 3.11595 4.01087 0
M  V30 14607 H 1734.41 1.63891 5.00447 0
M  V30 14608 H 1736.91 1.55293 3.44518 0
M  V30 14609 H 1737.22 3.73535 6.76529 0
M  V30 14610 H 1735.56 3.35322 6.08756 0
M  V30 14611 H 1738.75 2.00009 4.23218 0
M  V30 14612 H 1738.93 2.99509 5.74629 0
M  V30 14613 N 1732.33 -1.48497 0.527859 0
M  V30 14614 C 1733.58 -2.02099 -0.00699772 0
M  V30 14615 C 1733.9 -1.40742 -1.34969 0
M  V30 14616 O 1733.17 -0.572059 -1.87361 0
M  V30 14617 H 1731.75 -0.746979 -0.00557445 0
M  V30 14618 H 1734.41 -1.82231 0.691209 0
M  V30 14619 H 1733.51 -3.11881 -0.116893 0
M  V30 14620 N 1733.81 -0.262893 -1.55392 0
M  V30 14621 C 1735.04 0.363972 -2.04181 0
M  V30 14622 C 1735.46 1.49585 -1.14044 0
M  V30 14623 O 1734.82 1.80785 -0.136553 0
M  V30 14624 C 1734.87 0.834041 -3.50822 0
M  V30 14625 O 1733.97 1.94234 -3.63795 0
M  V30 14626 H 1733.31 0.0771193 -0.659506 0
M  V30 14627 H 1735.84 -0.393623 -2.00778 0
M  V30 14628 H 1735.85 1.13304 -3.91952 0
M  V30 14629 H 1734.53 0.00584833 -4.159 0
M  V30 14630 H 1733.1 1.64681 -3.34566 0
M  V30 14631 N 1735.29 1.57597 0.0100073 0
M  V30 14632 C 1736.2 2.11209 1.02117 0
M  V30 14633 C 1737.22 1.05503 1.38366 0
M  V30 14634 O 1738.39 1.37348 1.47301 0
M  V30 14635 C 1735.46 2.59654 2.2974 0
M  V30 14636 C 1734.52 3.79921 1.99896 0
M  V30 14637 C 1733.75 4.26046 3.21435 0
M  V30 14638 O 1733.97 3.71566 4.32775 0
M  V30 14639 O 1732.91 5.18301 3.06018 0
M  V30 14640 H 1736.73 2.97805 0.595469 0
M  V30 14641 H 1734.32 1.47647 0.228208 0
M  V30 14642 H 1736.2 2.91058 3.04735 0
M  V30 14643 H 1734.88 1.76161 2.71568 0
M  V30 14644 H 1733.78 3.53506 1.22409 0
M  V30 14645 H 1735.12 4.64457 1.62912 0
M  V30 14646 N 1736.77 -0.282606 1.55045 0
M  V30 14647 C 1738.02 -1.01346 1.74852 0
M  V30 14648 C 1738.34 -1.87161 0.547327 0
M  V30 14649 O 1737.61 -1.9094 -0.438015 0
M  V30 14650 H 1736.19 -0.377178 0.644784 0
M  V30 14651 H 1738.85 -0.309152 1.92432 0
M  V30 14652 H 1737.94 -1.65596 2.64545 0
M  V30 14653 N 1738.25 -1.47815 -0.546675 0
M  V30 14654 C 1739.47 -1.58864 -1.33331 0
M  V30 14655 C 1739.9 -0.24302 -1.86524 0
M  V30 14656 O 1739.25 0.782777 -1.63531 0
M  V30 14657 C 1739.3 -2.62556 -2.47177 0
M  V30 14658 O 1738.41 -2.18558 -3.49723 0
M  V30 14659 H 1737.75 -0.53329 -0.395598 0
M  V30 14660 H 1740.28 -1.93677 -0.659579 0
M  V30 14661 H 1740.29 -2.83307 -2.936 0
M  V30 14662 H 1738.96 -3.60255 -2.0782 0
M  V30 14663 H 1737.54 -2.0795 -3.09534 0
M  V30 14664 N 1739.72 0.794246 -1.36123 0
M  V30 14665 C 1741.13 1.36909 -1.26936 0
M  V30 14666 C 1741.49 1.9598 0.0929337 0
M  V30 14667 O 1740.61 1.92206 0.994266 0
M  V30 14668 C 1741.21 2.48906 -2.2985 0
M  V30 14669 C 1739.76 3.0222 -2.24366 0
M  V30 14670 C 1738.91 1.75264 -2.1489 0
M  V30 14671 H 1741.86 0.596278 -1.47072 0
M  V30 14672 H 1741.88 3.27794 -1.93213 0
M  V30 14673 H 1741.4 2.05884 -3.28988 0
M  V30 14674 H 1739.5 3.49675 -1.28679 0
M  V30 14675 H 1739.61 3.59363 -3.16852 0
M  V30 14676 H 1737.97 1.97306 -1.61066 0
M  V30 14677 H 1738.76 1.34377 -3.15908 0
M  V30 14678 N 1741.2 1.20323 1.01785 0
M  V30 14679 C 1742.45 1.01063 1.75016 0
M  V30 14680 C 1742.77 -0.458458 1.89534 0
M  V30 14681 O 1742.04 -1.3315 1.43694 0
M  V30 14682 H 1740.62 0.370957 0.648383 0
M  V30 14683 H 1743.28 1.51411 1.22722 0
M  V30 14684 H 1742.38 1.46792 2.75424 0
M  V30 14685 N 1742.68 -1.21073 1.00892 0
M  V30 14686 C 1743.63 -2.21426 0.543574 0
M  V30 14687 C 1744.61 -1.55927 -0.396938 0
M  V30 14688 O 1745.81 -1.75613 -0.221152 0
M  V30 14689 C 1742.93 -3.43074 -0.124494 0
M  V30 14690 C 1742.02 -4.15753 0.837269 0
M  V30 14691 N 1742.41 -4.64936 1.99168 0
M  V30 14692 C 1740.71 -4.41142 0.656473 0
M  V30 14693 C 1741.41 -5.20527 2.59666 0
M  V30 14694 N 1740.39 -5.10133 1.87792 0
M  V30 14695 H 1744.19 -2.5711 1.42378 0
M  V30 14696 H 1741.7 -1.36923 0.873254 0
M  V30 14697 H 1743.7 -4.14181 -0.475363 0
M  V30 14698 H 1742.36 -3.08897 -1.00064 0
M  V30 14699 H 1743.37 -4.60392 2.37191 0
M  V30 14700 H 1740.05 -4.17144 -0.172261 0
M  V30 14701 H 1741.44 -5.69011 3.57318 0
M  V30 14702 N 1744.16 -0.784156 -1.36707 0
M  V30 14703 C 1745.57 -0.417967 -1.81961 0
M  V30 14704 C 1745.92 1.05746 -1.65264 0
M  V30 14705 O 1745.05 1.82003 -1.17064 0
M  V30 14706 C 1745.64 -0.751869 -3.30352 0
M  V30 14707 C 1744.2 -0.438578 -3.73836 0
M  V30 14708 C 1743.35 -0.989262 -2.59054 0
M  V30 14709 H 1746.3 -0.977754 -1.25003 0
M  V30 14710 H 1746.32 -0.041034 -3.80478 0
M  V30 14711 H 1745.83 -1.82576 -3.42473 0
M  V30 14712 H 1743.93 0.627493 -3.67278 0
M  V30 14713 H 1744.04 -0.955508 -4.69475 0
M  V30 14714 H 1742.41 -0.412783 -2.51333 0
M  V30 14715 H 1743.19 -2.06881 -2.73962 0
M  V30 14716 N 1745.64 1.48215 -0.535727 0
M  V30 14717 C 1746.88 2.021 -0.00372016 0
M  V30 14718 C 1747.21 1.41456 1.34221 0
M  V30 14719 O 1746.48 0.581987 1.87055 0
M  V30 14720 H 1745.06 0.746998 0.00161295 0
M  V30 14721 H 1747.72 1.81862 -0.700863 0
M  V30 14722 H 1746.81 3.11939 0.100352 0
M  V30 14723 N 1747.11 0.27113 1.5525 0
M  V30 14724 C 1748.05 -0.651235 2.19753 0
M  V30 14725 C 1749.06 -1.12051 1.18104 0
M  V30 14726 O 1750.25 -1.0431 1.44851 0
M  V30 14727 C 1747.35 -1.89985 2.8064 0
M  V30 14728 C 1746.52 -1.57805 4.07942 0
M  V30 14729 C 1745.58 -2.67872 4.52914 0
M  V30 14730 O 1744.61 -2.34228 5.18774 0
M  V30 14731 N 1745.81 -3.97854 4.22721 0
M  V30 14732 H 1748.57 -0.0991913 2.99536 0
M  V30 14733 H 1746.13 0.0920667 1.61638 0
M  V30 14734 H 1748.13 -2.62907 3.07672 0
M  V30 14735 H 1746.7 -2.36105 2.04874 0
M  V30 14736 H 1745.92 -0.682852 3.88241 0
M  V30 14737 H 1747.2 -1.33801 4.90892 0
M  V30 14738 H 1746.6 -4.28011 3.69897 0
M  V30 14739 H 1745.16 -4.67165 4.54533 0
M  V30 14740 N 1748.59 -1.576 -0.00164943 0
M  V30 14741 C 1750 -1.78578 -0.544681 0
M  V30 14742 C 1750.35 -0.905575 -1.74051 0
M  V30 14743 O 1749.48 -0.107614 -2.16132 0
M  V30 14744 C 1750.07 -3.23863 -0.994898 0
M  V30 14745 C 1748.63 -3.45943 -1.48325 0
M  V30 14746 C 1747.78 -2.73887 -0.433702 0
M  V30 14747 H 1750.73 -1.57104 0.224524 0
M  V30 14748 H 1750.75 -3.31885 -1.86099 0
M  V30 14749 H 1750.26 -3.87901 -0.124352 0
M  V30 14750 H 1748.37 -2.87118 -2.37474 0
M  V30 14751 H 1748.48 -4.54621 -1.51185 0
M  V30 14752 H 1746.84 -2.38458 -0.894969 0
M  V30 14753 H 1747.63 -3.40623 0.42785 0
M  V30 14754 N 1750.07 0.274379 -1.55193 0
M  V30 14755 C 1751.32 1.00418 -1.75387 0
M  V30 14756 C 1751.64 1.86868 -0.557244 0
M  V30 14757 O 1750.91 1.9117 0.427883 0
M  V30 14758 H 1749.49 0.373753 -0.646775 0
M  V30 14759 H 1752.15 0.298942 -1.92594 0
M  V30 14760 H 1751.25 1.64191 -2.6542 0
M  V30 14761 N 1751.55 1.48103 0.538828 0
M  V30 14762 C 1752.96 1.49312 1.12085 0
M  V30 14763 C 1753.31 0.257965 1.94497 0
M  V30 14764 O 1752.44 -0.635654 2.06854 0
M  V30 14765 C 1753.03 2.70545 2.03939 0
M  V30 14766 C 1751.59 2.74654 2.57376 0
M  V30 14767 C 1750.74 2.42695 1.34144 0
M  V30 14768 H 1753.69 1.55347 0.324512 0
M  V30 14769 H 1753.71 2.4856 2.88094 0
M  V30 14770 H 1753.22 3.60424 1.4393 0
M  V30 14771 H 1751.32 1.8896 3.21131 0
M  V30 14772 H 1751.43 3.75846 2.97114 0
M  V30 14773 H 1749.8 1.93663 1.65429 0
M  V30 14774 H 1750.58 3.34804 0.759009 0
M  V30 14775 N 1753.03 -0.787016 1.36542 0
M  V30 14776 C 1754.44 -1.36234 1.2766 0
M  V30 14777 C 1754.79 -1.96026 -0.0825391 0
M  V30 14778 O 1753.91 -1.92731 -0.984059 0
M  V30 14779 C 1754.51 -2.47684 2.31167 0
M  V30 14780 C 1753.07 -3.01026 2.25966 0
M  V30 14781 C 1752.21 -1.74122 2.15816 0
M  V30 14782 H 1755.17 -0.58847 1.47386 0
M  V30 14783 H 1755.19 -3.26765 1.94949 0
M  V30 14784 H 1754.7 -2.04136 3.30076 0
M  V30 14785 H 1752.8 -3.48988 1.30531 0
M  V30 14786 H 1752.91 -3.57677 3.18754 0
M  V30 14787 H 1751.28 -1.9645 1.6211 0
M  V30 14788 H 1752.06 -1.32699 3.16616 0
M  V30 14789 N 1754.5 -1.20861 -1.01145 0
M  V30 14790 C 1755.75 -1.0199 -1.74478 0
M  V30 14791 C 1756.07 0.4484 -1.89775 0
M  V30 14792 O 1755.34 1.32386 -1.44398 0
M  V30 14793 H 1753.92 -0.37439 -0.646406 0
M  V30 14794 H 1756.59 -1.5206 -1.21917 0
M  V30 14795 H 1755.68 -1.48251 -2.74642 0
M  V30 14796 N 1755.98 1.20536 -1.01532 0
M  V30 14797 C 1757.39 1.71594 -0.735687 0
M  V30 14798 C 1757.74 1.81469 0.745873 0
M  V30 14799 O 1756.87 1.47638 1.58215 0
M  V30 14800 C 1757.46 3.11654 -1.3288 0
M  V30 14801 C 1756.02 3.60027 -1.09806 0
M  V30 14802 C 1755.17 2.37266 -1.43528 0
M  V30 14803 H 1758.12 1.05568 -1.18495 0
M  V30 14804 H 1758.14 3.7365 -0.718725 0
M  V30 14805 H 1757.65 3.04434 -2.4071 0
M  V30 14806 H 1755.76 3.72581 -0.0373763 0
M  V30 14807 H 1755.87 4.44918 -1.77722 0
M  V30 14808 H 1754.23 2.39947 -0.854268 0
M  V30 14809 H 1755.02 2.32688 -2.5241 0
M  V30 14810 N 1757.46 0.791395 1.36289 0
M  V30 14811 C 1758.87 0.427611 1.81737 0
M  V30 14812 C 1759.22 -1.04868 1.65822 0
M  V30 14813 O 1758.35 -1.81379 1.18028 0
M  V30 14814 C 1758.94 0.769378 3.29949 0
M  V30 14815 C 1757.5 0.458397 3.73598 0
M  V30 14816 C 1756.65 1.00299 2.58526 0
M  V30 14817 H 1759.6 0.98437 1.24482 0
M  V30 14818 H 1759.62 0.061211 3.80451 0
M  V30 14819 H 1759.13 1.8439 3.415 0
M  V30 14820 H 1757.23 -0.608006 3.67606 0
M  V30 14821 H 1757.35 0.980392 4.68962 0
M  V30 14822 H 1755.71 0.426106 2.5111 0
M  V30 14823 H 1756.49 2.08331 2.72861 0
M  V30 14824 N 1758.94 -1.47929 0.54358 0
M  V30 14825 C 1760.19 -2.02095 0.0144379 0
M  V30 14826 C 1760.51 -1.42166 -1.33469 0
M  V30 14827 O 1759.78 -0.591899 -1.86744 0
M  V30 14828 H 1758.36 -0.746996 0.00234858 0
M  V30 14829 H 1761.02 -1.81488 0.710498 0
M  V30 14830 H 1760.12 -3.11987 -0.0838074 0
M  V30 14831 N 1760.42 -0.27936 -1.55104 0
M  V30 14832 C 1761.38 0.593214 -2.2139 0
M  V30 14833 C 1762.38 1.07807 -1.19308 0
M  V30 14834 O 1763.57 0.97756 -1.44185 0
M  V30 14835 C 1760.7 1.81889 -2.88321 0
M  V30 14836 H 1761.9 0.0143941 -2.99897 0
M  V30 14837 H 1759.45 -0.0300083 -1.56271 0
M  V30 14838 H 1760.18 2.43811 -2.13838 0
M  V30 14839 H 1759.97 1.4791 -3.63132 0
M  V30 14840 H 1761.46 2.4393 -3.38951 0
M  V30 14841 N 1761.9 1.57599 -0.0067085 0
M  V30 14842 C 1763.31 1.78864 0.535202 0
M  V30 14843 C 1763.66 0.914793 1.73568 0
M  V30 14844 O 1762.78 0.119075 2.16072 0
M  V30 14845 C 1763.38 3.24386 0.977709 0
M  V30 14846 C 1761.94 3.46725 1.46488 0
M  V30 14847 C 1761.08 2.74114 0.419171 0
M  V30 14848 H 1764.03 1.56982 -0.232853 0
M  V30 14849 H 1764.06 3.32867 1.84336 0
M  V30 14850 H 1763.57 3.87961 0.103778 0
M  V30 14851 H 1761.67 2.88373 2.35948 0
M  V30 14852 H 1761.78 4.55416 1.48772 0
M  V30 14853 H 1760.15 2.3893 0.882311 0
M  V30 14854 H 1760.93 3.40392 -0.445908 0
M  V30 14855 N 1763.37 -0.266145 1.55336 0
M  V30 14856 C 1764.62 -0.994862 1.75917 0
M  V30 14857 C 1764.94 -1.8657 0.567147 0
M  V30 14858 O 1764.21 -1.91394 -0.417738 0
M  V30 14859 H 1762.79 -0.370318 0.648748 0
M  V30 14860 H 1765.45 -0.288724 1.9275 0
M  V30 14861 H 1764.55 -1.62781 2.66287 0
M  V30 14862 N 1764.85 -1.48386 -0.530967 0
M  V30 14863 C 1766.26 -1.49904 -1.11291 0
M  V30 14864 C 1766.61 -0.268276 -1.94357 0
M  V30 14865 O 1765.74 0.624676 -2.07188 0
M  V30 14866 C 1766.33 -2.71622 -2.02501 0
M  V30 14867 C 1764.89 -2.76015 -2.55916 0
M  V30 14868 C 1764.04 -2.43403 -1.32855 0
M  V30 14869 H 1766.99 -1.55517 -0.316269 0
M  V30 14870 H 1767.01 -2.50084 -2.86772 0
M  V30 14871 H 1766.52 -3.61182 -1.42017 0
M  V30 14872 H 1764.62 -1.9066 -3.20124 0
M  V30 14873 H 1764.74 -3.77416 -2.95116 0
M  V30 14874 H 1763.1 -1.94537 -1.644 0
M  V30 14875 H 1763.88 -3.35202 -0.741242 0
M  V30 14876 N 1766.33 0.779763 -1.36958 0
M  V30 14877 C 1767.57 1.55113 -1.33114 0
M  V30 14878 C 1767.93 1.91808 0.0859451 0
M  V30 14879 O 1769.13 2.67644 0.24903 0
M  V30 14880 C 1767.41 2.78752 -2.23679 0
M  V30 14881 S 1768.96 3.68899 -2.37611 0
M  V30 14882 H 1765.78 0.531134 -0.472671 0
M  V30 14883 H 1768.38 0.917613 -1.72627 0
M  V30 14884 H 1767.09 2.4986 -3.25573 0
M  V30 14885 H 1766.62 3.47069 -1.85221 0
M  V30 14886 H 1768.63 4.70347 -1.58075 0
M  V30 14887 N 1767.81 1.21396 1.00503 0
M  V30 14888 C 1769.05 1.0426 1.7581 0
M  V30 14889 C 1769.41 -0.416605 1.87426 0
M  V30 14890 O 1770.61 -0.708477 2.59295 0
M  V30 14891 C 1768.88 1.72061 3.13257 0
M  V30 14892 S 1770.44 1.70181 4.04455 0
M  V30 14893 H 1767.26 0.373616 0.604923 0
M  V30 14894 H 1769.86 1.54141 1.20253 0
M  V30 14895 H 1768.57 2.77418 3.02436 0
M  V30 14896 H 1768.1 1.2236 3.73887 0
M  V30 14897 H 1770.11 0.742877 4.90608 0
M  V30 14898 N 1769.29 -1.19996 1.0217 0
M  V30 14899 C 1770.53 -1.89121 0.712579 0
M  V30 14900 C 1770.85 -1.79556 -0.760561 0
M  V30 14901 O 1770.12 -1.2013 -1.54744 0
M  V30 14902 H 1768.7 -0.700075 0.260585 0
M  V30 14903 H 1771.37 -1.4571 1.2944 0
M  V30 14904 H 1770.46 -2.95629 1.00051 0
M  V30 14905 N 1770.76 -0.798611 -1.35867 0
M  V30 14906 C 1772.01 -0.374519 -1.986 0
M  V30 14907 C 1772.33 1.05984 -1.63684 0
M  V30 14908 O 1771.6 1.73199 -0.915359 0
M  V30 14909 H 1770.18 -0.135492 -0.734609 0
M  V30 14910 H 1772.84 -1.02269 -1.65913 0
M  V30 14911 H 1771.94 -0.473773 -3.08483 0
M  V30 14912 N 1772.24 1.47639 -0.551417 0
M  V30 14913 C 1773.49 2.02784 -0.0252425 0
M  V30 14914 C 1773.82 1.42549 1.31884 0
M  V30 14915 O 1773.1 0.578954 1.85684 0
M  V30 14916 C 1773.38 3.60024 0.0740051 0
M  V30 14917 C 1773.23 4.30702 -1.29676 0
M  V30 14918 C 1774.55 4.32946 0.790302 0
M  V30 14919 H 1771.67 0.736923 -0.0106473 0
M  V30 14920 H 1774.31 1.76131 -0.712589 0
M  V30 14921 H 1772.46 3.82863 0.65939 0
M  V30 14922 H 1774.13 4.1922 -1.9249 0
M  V30 14923 H 1772.38 3.91282 -1.87299 0
M  V30 14924 H 1773.05 5.39238 -1.18009 0
M  V30 14925 H 1775.52 4.15065 0.293326 0
M  V30 14926 H 1774.4 5.42608 0.828692 0
M  V30 14927 H 1774.66 4.01752 1.84521 0
M  V30 14928 N 1773.72 0.287581 1.54954 0
M  V30 14929 C 1774.97 -0.324967 1.9947 0
M  V30 14930 C 1775.29 -1.55437 1.17747 0
M  V30 14931 O 1774.56 -1.9403 0.270067 0
M  V30 14932 H 1773.14 -0.123062 0.736794 0
M  V30 14933 H 1775.8 0.395805 1.90839 0
M  V30 14934 H 1774.9 -0.606265 3.06155 0
M  V30 14935 N 1775.2 -1.57593 0.0150662 0
M  V30 14936 C 1776.16 -2.08293 -0.956385 0
M  V30 14937 C 1777.16 -0.99521 -1.26302 0
M  V30 14938 O 1778.35 -1.25732 -1.2057 0
M  V30 14939 C 1775.48 -2.53702 -2.27701 0
M  V30 14940 H 1776.68 -2.95401 -0.517543 0
M  V30 14941 H 1774.23 -1.54558 -0.232706 0
M  V30 14942 H 1774.96 -1.69882 -2.76244 0
M  V30 14943 H 1774.75 -3.33155 -2.06761 0
M  V30 14944 H 1776.24 -2.93201 -2.9736 0
M  V30 14945 N 1776.68 0.257904 -1.55475 0
M  V30 14946 C 1777.64 1.30244 -1.88598 0
M  V30 14947 C 1778.64 1.4162 -0.761604 0
M  V30 14948 O 1779.83 1.4051 -1.02968 0
M  V30 14949 C 1776.96 2.68173 -2.10466 0
M  V30 14950 H 1778.15 1.02098 -2.81986 0
M  V30 14951 H 1775.71 0.496685 -1.48198 0
M  V30 14952 H 1776.44 3.01476 -1.1951 0
M  V30 14953 H 1776.23 2.61299 -2.92344 0
M  V30 14954 H 1777.72 3.43616 -2.37313 0
M  V30 14955 N 1778.15 1.48666 0.52309 0
M  V30 14956 C 1779.12 1.63211 1.60919 0
M  V30 14957 C 1780.12 0.505012 1.52664 0
M  V30 14958 O 1781.31 0.770967 1.56211 0
M  V30 14959 C 1778.44 1.60878 3.00551 0
M  V30 14960 H 1779.63 2.60061 1.4936 0
M  V30 14961 H 1777.19 1.37366 0.745674 0
M  V30 14962 H 1777.92 0.655306 3.1761 0
M  V30 14963 H 1777.71 2.4271 3.07952 0
M  V30 14964 H 1779.2 1.74263 3.79502 0
M  V30 14965 N 1779.63 -0.772489 1.37369 0
M  V30 14966 C 1780.88 -1.52629 1.31861 0
M  V30 14967 C 1781.19 -1.9537 -0.0947795 0
M  V30 14968 O 1782.4 -2.70131 -0.27233 0
M  V30 14969 C 1780.86 -2.75608 2.31448 0
M  V30 14970 C 1780.46 -2.39969 3.78311 0
M  V30 14971 C 1782.21 -3.53553 2.34948 0
M  V30 14972 C 1780.12 -3.59445 4.69631 0
M  V30 14973 H 1779.05 -0.573019 0.490066 0
M  V30 14974 H 1781.7 -0.846178 1.62825 0
M  V30 14975 H 1780.08 -3.45505 1.935 0
M  V30 14976 H 1781.25 -1.7786 4.25091 0
M  V30 14977 H 1779.57 -1.752 3.77748 0
M  V30 14978 H 1782.16 -4.42353 3.00379 0
M  V30 14979 H 1782.51 -3.93359 1.36287 0
M  V30 14980 H 1783.04 -2.90652 2.716 0
M  V30 14981 H 1779.78 -3.24721 5.69418 0
M  V30 14982 H 1779.3 -4.20662 4.27555 0
M  V30 14983 H 1780.98 -4.26267 4.86729 0
M  V30 14984 N 1781.11 -1.21927 -0.998575 0
M  V30 14985 C 1782.07 -0.985744 -2.0692 0
M  V30 14986 C 1783.07 0.0456907 -1.60735 0
M  V30 14987 O 1784.26 -0.192241 -1.73136 0
M  V30 14988 C 1781.4 -0.48779 -3.37392 0
M  V30 14989 H 1782.59 -1.93563 -2.2907 0
M  V30 14990 H 1780.14 -1.03716 -1.1693 0
M  V30 14991 H 1780.88 0.466723 -3.20924 0
M  V30 14992 H 1780.66 -1.23186 -3.72247 0
M  V30 14993 H 1782.15 -0.344469 -4.16177 0
M  V30 14994 N 1782.59 1.19452 -1.02805 0
M  V30 14995 C 1783.84 1.8874 -0.722599 0
M  V30 14996 C 1784.16 1.79957 0.751028 0
M  V30 14997 O 1783.43 1.20949 1.54104 0
M  V30 14998 H 1782.01 0.698683 -0.264294 0
M  V30 14999 H 1784.67 1.45021 -1.30211 0
M  V30 15000 H 1783.77 2.95094 -1.01617 0
M  V30 15001 N 1784.07 0.805805 1.35442 0
M  V30 15002 C 1785.32 0.382303 1.98044 0
M  V30 15003 C 1785.63 -1.05602 1.64644 0
M  V30 15004 O 1786.83 -1.5826 2.20604 0
M  V30 15005 C 1785.29 0.632619 3.54296 0
M  V30 15006 C 1784.9 2.08344 3.96607 0
M  V30 15007 C 1786.64 0.274435 4.23612 0
M  V30 15008 C 1784.55 2.27954 5.45702 0
M  V30 15009 H 1783.48 0.13921 0.741037 0
M  V30 15010 H 1786.13 0.989752 1.54519 0
M  V30 15011 H 1784.51 -0.0447699 3.95975 0
M  V30 15012 H 1785.69 2.79857 3.66083 0
M  V30 15013 H 1784 2.40142 3.40178 0
M  V30 15014 H 1786.6 0.399019 5.33209 0
M  V30 15015 H 1786.94 -0.779292 4.08941 0
M  V30 15016 H 1787.47 0.90571 3.87352 0
M  V30 15017 H 1784.21 3.3177 5.6534 0
M  V30 15018 H 1783.73 1.60965 5.77798 0
M  V30 15019 H 1785.41 2.09469 6.12153 0
M  V30 15020 N 1785.54 -1.47344 0.559239 0
M  V30 15021 C 1786.79 -2.02068 0.035872 0
M  V30 15022 C 1787.11 -1.43573 -1.31953 0
M  V30 15023 O 1786.38 -0.611672 -1.86106 0
M  V30 15024 H 1784.96 -0.746929 0.0102713 0
M  V30 15025 H 1787.63 -1.80724 0.729707 0
M  V30 15026 H 1786.72 -3.12059 -0.0507123 0
M  V30 15027 N 1787.02 -0.295795 -1.54799 0
M  V30 15028 C 1788.27 0.314384 -1.9964 0
M  V30 15029 C 1788.59 1.5481 -1.1857 0
M  V30 15030 O 1787.86 1.93884 -0.280353 0
M  V30 15031 H 1786.44 0.119153 -0.737436 0
M  V30 15032 H 1789.1 -0.40592 -1.90626 0
M  V30 15033 H 1788.2 0.59002 -3.06472 0
M  V30 15034 N 1788.5 1.57583 -0.0234236 0
M  V30 15035 C 1789.41 2.13328 0.976138 0
M  V30 15036 C 1790.43 1.08414 1.36097 0
M  V30 15037 O 1791.6 1.40441 1.44354 0
M  V30 15038 C 1788.67 2.64469 2.24181 0
M  V30 15039 C 1787.73 3.84076 1.91793 0
M  V30 15040 C 1786.96 4.32768 3.12326 0
M  V30 15041 O 1787.19 3.80663 4.24797 0
M  V30 15042 O 1786.12 5.24676 2.94956 0
M  V30 15043 H 1789.95 2.99001 0.532166 0
M  V30 15044 H 1787.53 1.48098 0.196838 0
M  V30 15045 H 1789.41 2.97456 2.98492 0
M  V30 15046 H 1788.09 1.81881 2.6777 0
M  V30 15047 H 1786.99 3.56023 1.14883 0
M  V30 15048 H 1788.33 4.67808 1.53024 0
M  V30 15049 N 1789.98 -0.249655 1.5561 0
M  V30 15050 C 1790.93 -1.30906 1.90085 0
M  V30 15051 C 1791.9 -1.4796 0.754784 0
M  V30 15052 O 1793.08 -1.61988 1.00819 0
M  V30 15053 C 1790.22 -2.66 2.19859 0
M  V30 15054 C 1789.33 -2.56976 3.47257 0
M  V30 15055 C 1788.47 -3.84404 3.66615 0
M  V30 15056 C 1787.51 -3.69986 4.87623 0
M  V30 15057 N 1786.65 -4.89301 5.03517 0
M  V30 15058 H 1791.49 -1.00805 2.80432 0
M  V30 15059 H 1789.02 -0.486509 1.38822 0
M  V30 15060 H 1790.98 -3.44632 2.35126 0
M  V30 15061 H 1789.61 -2.94254 1.32719 0
M  V30 15062 H 1788.66 -1.69927 3.40337 0
M  V30 15063 H 1789.97 -2.42231 4.36034 0
M  V30 15064 H 1789.13 -4.7148 3.81826 0
M  V30 15065 H 1787.87 -4.02043 2.76066 0
M  V30 15066 H 1786.87 -2.81294 4.72391 0
M  V30 15067 H 1788.1 -3.53845 5.7963 0
M  V30 15068 H 1786.04 -5.07306 4.15905 0
M  V30 15069 H 1785.96 -4.77176 5.86378 0
M  V30 15070 H 1787.23 -5.77883 5.23137 0
M  V30 15071 N 1791.46 -1.48941 -0.515198 0
M  V30 15072 C 1792.42 -1.64062 -1.60051 0
M  V30 15073 C 1793.42 -0.513101 -1.52394 0
M  V30 15074 O 1794.61 -0.77924 -1.558 0
M  V30 15075 C 1791.74 -1.6247 -2.99694 0
M  V30 15076 H 1792.94 -2.60849 -1.47978 0
M  V30 15077 H 1790.49 -1.37759 -0.738378 0
M  V30 15078 H 1791.22 -0.672141 -3.17258 0
M  V30 15079 H 1791.01 -2.4434 -3.0666 0
M  V30 15080 H 1792.5 -1.76273 -3.78573 0
M  V30 15081 N 1792.94 0.765193 -1.37777 0
M  V30 15082 C 1794.18 1.52096 -1.33084 0
M  V30 15083 C 1794.5 1.94827 0.08221 0
M  V30 15084 O 1793.77 1.66787 1.02757 0
M  V30 15085 H 1792.35 0.564139 -0.489649 0
M  V30 15086 H 1795.02 0.910308 -1.72335 0
M  V30 15087 H 1794.11 2.4173 -1.97416 0
M  V30 15088 N 1794.41 1.22455 0.992094 0
M  V30 15089 C 1795.66 1.04752 1.72833 0
M  V30 15090 C 1795.98 -0.418152 1.90464 0
M  V30 15091 O 1795.25 -1.30072 1.46486 0
M  V30 15092 H 1793.83 0.384626 0.640368 0
M  V30 15093 H 1796.49 1.5398 1.19483 0
M  V30 15094 H 1795.59 1.52601 2.72249 0
M  V30 15095 N 1795.89 -1.18905 1.03437 0
M  V30 15096 C 1797.14 -1.88727 0.734048 0
M  V30 15097 C 1797.47 -1.79964 -0.737773 0
M  V30 15098 O 1796.72 -1.19016 -1.5535 0
M  V30 15099 C 1797.02 -3.38811 1.13762 0
M  V30 15100 C 1796.69 -3.67777 2.60865 0
M  V30 15101 C 1795.35 -3.75393 3.01054 0
M  V30 15102 C 1797.7 -3.80666 3.5601 0
M  V30 15103 C 1795.03 -3.9337 4.35289 0
M  V30 15104 C 1797.38 -4.00158 4.89955 0
M  V30 15105 C 1796.04 -4.06007 5.29825 0
M  V30 15106 H 1795.31 -0.690602 0.268607 0
M  V30 15107 H 1797.96 -1.40777 1.29823 0
M  V30 15108 H 1796.27 -3.88697 0.492134 0
M  V30 15109 H 1797.96 -3.91164 0.882696 0
M  V30 15110 H 1794.55 -3.62462 2.28733 0
M  V30 15111 H 1798.74 -3.7412 3.2611 0
M  V30 15112 H 1793.99 -3.9614 4.65707 0
M  V30 15113 H 1798.17 -4.09073 5.63589 0
M  V30 15114 H 1795.79 -4.1969 6.33849 0
M  V30 15115 N 1797.37 -0.812977 -1.35013 0
M  V30 15116 C 1798.33 -0.233373 -2.28009 0
M  V30 15117 C 1799.33 0.58298 -1.4986 0
M  V30 15118 O 1800.52 0.400533 -1.69533 0
M  V30 15119 C 1797.65 0.673931 -3.34172 0
M  V30 15120 H 1798.85 -1.05366 -2.80781 0
M  V30 15121 H 1796.4 -0.584097 -1.44976 0
M  V30 15122 H 1797.14 1.51766 -2.86597 0
M  V30 15123 H 1796.92 0.0901848 -3.91996 0
M  V30 15124 H 1798.41 1.07358 -4.03564 0
M  V30 15125 N 1798.85 1.47045 -0.567045 0
M  V30 15126 C 1800.26 1.86202 -0.13627 0
M  V30 15127 C 1800.61 1.47252 1.29658 0
M  V30 15128 O 1799.73 0.880121 1.97694 0
M  V30 15129 C 1800.33 3.37945 -0.240528 0
M  V30 15130 C 1798.89 3.76157 0.135272 0
M  V30 15131 C 1798.04 2.71089 -0.583628 0
M  V30 15132 H 1800.99 1.38423 -0.776196 0
M  V30 15133 H 1801.01 3.76673 0.538293 0
M  V30 15134 H 1800.52 3.66263 -1.28348 0
M  V30 15135 H 1798.62 3.53456 1.17896 0
M  V30 15136 H 1798.73 4.78547 -0.230137 0
M  V30 15137 H 1797.1 2.54687 -0.0256067 0
M  V30 15138 H 1797.88 3.02247 -1.62792 0
M  V30 15139 N 1800.33 0.304 1.5464 0
M  V30 15140 C 1801.56 -0.306471 2.04314 0
M  V30 15141 C 1801.96 -1.47839 1.18069 0
M  V30 15142 O 1801.31 -1.82612 0.199666 0
M  V30 15143 C 1801.37 -0.822694 3.4996 0
M  V30 15144 C 1801.03 0.224343 4.56449 0
M  V30 15145 C 1802.03 1.05382 5.09108 0
M  V30 15146 C 1799.71 0.366905 5.00958 0
M  V30 15147 C 1801.71 2.01176 6.0482 0
M  V30 15148 C 1799.4 1.32829 5.96489 0
M  V30 15149 C 1800.39 2.1492 6.48304 0
M  V30 15150 O 1800.08 3.09429 7.41963 0
M  V30 15151 H 1799.81 -0.0701033 0.672355 0
M  V30 15152 H 1802.37 0.442449 2.00578 0
M  V30 15153 H 1800.6 -1.62219 3.5103 0
M  V30 15154 H 1802.29 -1.34938 3.82814 0
M  V30 15155 H 1803.05 0.954561 4.75514 0
M  V30 15156 H 1798.93 -0.262121 4.60254 0
M  V30 15157 H 1802.48 2.65291 6.45187 0
M  V30 15158 H 1798.37 1.42826 6.29501 0
M  V30 15159 H 1799.14 3.04442 7.59774 0
M  V30 15160 N 1801.8 -1.57568 0.0317802 0
M  V30 15161 C 1803.03 -1.95927 -0.655449 0
M  V30 15162 C 1803.44 -0.907011 -1.66042 0
M  V30 15163 O 1802.78 0.119389 -1.83312 0
M  V30 15164 C 1802.85 -3.30441 -1.41595 0
M  V30 15165 C 1802.51 -4.53444 -0.569009 0
M  V30 15166 C 1803.51 -5.19663 0.156812 0
M  V30 15167 C 1801.19 -4.99749 -0.505629 0
M  V30 15168 C 1803.19 -6.3051 0.934657 0
M  V30 15169 C 1800.87 -6.10477 0.275919 0
M  V30 15170 C 1801.87 -6.75717 0.994766 0
M  V30 15171 O 1801.56 -7.84319 1.7635 0
M  V30 15172 H 1801.29 -0.650077 -0.185408 0
M  V30 15173 H 1803.85 -2.05209 0.0886364 0
M  V30 15174 H 1802.08 -3.17658 -2.20523 0
M  V30 15175 H 1803.76 -3.53684 -1.99154 0
M  V30 15176 H 1804.53 -4.84858 0.117196 0
M  V30 15177 H 1800.41 -4.48772 -1.05472 0
M  V30 15178 H 1803.95 -6.81365 1.49626 0
M  V30 15179 H 1799.85 -6.4472 0.317242 0
M  V30 15180 H 1800.62 -8.00999 1.68355 0
M  V30 15181 N 1803.28 0.241399 -1.5574 0
M  V30 15182 C 1804.53 0.96675 -1.77478 0
M  V30 15183 C 1804.85 1.85644 -0.596757 0
M  V30 15184 O 1804.12 1.92035 0.387236 0
M  V30 15185 H 1802.7 0.35995 -0.654557 0
M  V30 15186 H 1805.36 0.258023 -1.93185 0
M  V30 15187 H 1804.46 1.58524 -2.68843 0
M  V30 15188 N 1804.76 1.49212 0.507292 0
M  V30 15189 C 1806.04 1.4888 1.26863 0
M  V30 15190 C 1806.42 0.213007 2.10023 0
M  V30 15191 O 1805.77 -0.804785 2.13858 0
M  V30 15192 C 1805.98 2.76407 2.13073 0
M  V30 15193 C 1807.32 3.25647 2.72468 0
M  V30 15194 O 1808.35 2.77481 2.23344 0
M  V30 15195 O 1807.21 4.09518 3.6188 0
M  V30 15196 H 1804.3 0.595597 0.573754 0
M  V30 15197 H 1806.85 1.6147 0.52208 0
M  V30 15198 H 1805.62 3.60758 1.51558 0
M  V30 15199 H 1805.24 2.66648 2.94932 0
M  V30 15200 N 1806.24 -0.757876 1.38181 0
M  V30 15201 C 1807.15 -1.90234 1.37289 0
M  V30 15202 C 1808.16 -1.71883 0.270567 0
M  V30 15203 O 1809.34 -1.94881 0.508279 0
M  V30 15204 C 1806.41 -3.25546 1.19251 0
M  V30 15205 C 1805.47 -3.56452 2.39249 0
M  V30 15206 C 1804.7 -4.85308 2.22063 0
M  V30 15207 O 1804.92 -5.57373 1.2121 0
M  V30 15208 O 1803.86 -5.15594 3.10558 0
M  V30 15209 H 1807.68 -1.9394 2.33711 0
M  V30 15210 H 1805.27 -0.902559 1.19056 0
M  V30 15211 H 1807.15 -4.06454 1.11235 0
M  V30 15212 H 1805.82 -3.22661 0.259109 0
M  V30 15213 H 1804.73 -2.75723 2.52839 0
M  V30 15214 H 1806.06 -3.64094 3.31205 0
M  V30 15215 N 1807.72 -1.22979 -0.985586 0
M  V30 15216 C 1809.13 -1.05448 -1.5407 0
M  V30 15217 C 1809.48 0.379808 -1.92489 0
M  V30 15218 O 1808.6 1.26582 -1.75516 0
M  V30 15219 C 1809.2 -1.90794 -2.7997 0
M  V30 15220 C 1807.76 -1.77538 -3.31899 0
M  V30 15221 C 1806.9 -1.86814 -2.04929 0
M  V30 15222 H 1809.86 -1.36718 -0.80585 0
M  V30 15223 H 1809.88 -1.42967 -3.5262 0
M  V30 15224 H 1809.39 -2.95177 -2.51977 0
M  V30 15225 H 1807.49 -0.759177 -3.64784 0
M  V30 15226 H 1807.6 -2.60627 -4.02008 0
M  V30 15227 H 1805.97 -1.30336 -2.18826 0
M  V30 15228 H 1806.75 -2.92742 -1.79324 0
M  V30 15229 N 1809.19 1.18355 -1.04066 0
M  V30 15230 C 1810.13 2.20807 -0.576164 0
M  V30 15231 C 1811.11 1.57871 0.389277 0
M  V30 15232 O 1812.29 1.86039 0.303581 0
M  V30 15233 C 1809.42 3.3833 0.158303 0
M  V30 15234 C 1808.46 4.19667 -0.760391 0
M  V30 15235 S 1809.3 4.86249 -2.24326 0
M  V30 15236 C 1810.45 6.07172 -1.51964 0
M  V30 15237 H 1810.68 2.59866 -1.4442 0
M  V30 15238 H 1808.22 1.2879 -0.851623 0
M  V30 15239 H 1810.18 4.0644 0.575896 0
M  V30 15240 H 1808.84 2.97682 1.00222 0
M  V30 15241 H 1808.03 5.03631 -0.192705 0
M  V30 15242 H 1807.63 3.56935 -1.11683 0
M  V30 15243 H 1809.92 6.72608 -0.812694 0
M  V30 15244 H 1810.87 6.68447 -2.33633 0
M  V30 15245 H 1811.27 5.55355 -1.01198 0
M  V30 15246 N 1810.67 0.820125 1.3458 0
M  V30 15247 C 1811.95 0.329573 1.92803 0
M  V30 15248 C 1812.33 -1.18271 1.74858 0
M  V30 15249 O 1811.68 -1.98851 1.12564 0
M  V30 15250 C 1811.89 0.755833 3.40717 0
M  V30 15251 C 1813.24 0.75306 4.17869 0
M  V30 15252 O 1814.26 0.698235 3.49289 0
M  V30 15253 O 1813.12 0.823708 5.40257 0
M  V30 15254 H 1810.21 0.0893898 0.822155 0
M  V30 15255 H 1812.76 0.904729 1.43571 0
M  V30 15256 H 1811.53 1.79757 3.47568 0
M  V30 15257 H 1811.15 0.15622 3.97293 0
M  V30 15258 N 1812.15 -1.46743 0.574835 0
M  V30 15259 C 1813.4 -2.02419 0.0574154 0
M  V30 15260 C 1813.73 -1.44723 -1.29944 0
M  V30 15261 O 1812.98 -0.599149 -1.86303 0
M  V30 15262 C 1813.28 -3.57338 -0.0666259 0
M  V30 15263 C 1812.95 -4.34036 1.22161 0
M  V30 15264 C 1811.61 -4.5471 1.57457 0
M  V30 15265 C 1813.96 -4.78137 2.07448 0
M  V30 15266 C 1811.29 -5.16735 2.77852 0
M  V30 15267 C 1813.64 -5.41492 3.27062 0
M  V30 15268 C 1812.3 -5.60394 3.6265 0
M  V30 15269 H 1811.57 -0.740702 0.0210098 0
M  V30 15270 H 1814.22 -1.76207 0.749892 0
M  V30 15271 H 1812.53 -3.82642 -0.842183 0
M  V30 15272 H 1814.22 -3.98085 -0.482605 0
M  V30 15273 H 1810.81 -4.18236 0.936826 0
M  V30 15274 H 1815 -4.61928 1.81484 0
M  V30 15275 H 1810.25 -5.29562 3.05572 0
M  V30 15276 H 1814.43 -5.74623 3.93422 0
M  V30 15277 H 1812.05 -6.08226 4.56032 0
M  V30 15278 N 1813.63 -0.312197 -1.54477 0
M  V30 15279 C 1814.58 0.558894 -2.23931 0
M  V30 15280 C 1815.55 1.12071 -1.22594 0
M  V30 15281 O 1816.73 1.16316 -1.51245 0
M  V30 15282 C 1813.87 1.71948 -2.99212 0
M  V30 15283 C 1812.98 1.18799 -4.15344 0
M  V30 15284 C 1812.12 2.31334 -4.78182 0
M  V30 15285 C 1811.16 1.75375 -5.86438 0
M  V30 15286 N 1810.29 2.81528 -6.43184 0
M  V30 15287 H 1815.13 -0.0399708 -2.97973 0
M  V30 15288 H 1812.67 -0.0314967 -1.47066 0
M  V30 15289 H 1814.63 2.40225 -3.41098 0
M  V30 15290 H 1813.26 2.28981 -2.27525 0
M  V30 15291 H 1812.31 0.397122 -3.78321 0
M  V30 15292 H 1813.62 0.738426 -4.93304 0
M  V30 15293 H 1812.78 3.07537 -5.22978 0
M  V30 15294 H 1811.52 2.79622 -3.99578 0
M  V30 15295 H 1810.52 0.976658 -5.41056 0
M  V30 15296 H 1811.75 1.27978 -6.66932 0
M  V30 15297 H 1809.69 3.29129 -5.6746 0
M  V30 15298 H 1809.61 2.41101 -7.16524 0
M  V30 15299 H 1810.88 3.57595 -6.92637 0
M  V30 15300 N 1815.11 1.57549 -0.040136 0
M  V30 15301 C 1816.36 1.91427 0.635496 0
M  V30 15302 C 1816.67 0.919277 1.72652 0
M  V30 15303 O 1817.87 1.14971 2.45955 0
M  V30 15304 C 1816.33 3.39949 1.18164 0
M  V30 15305 C 1815.94 4.4783 0.12332 0
M  V30 15306 C 1817.68 3.82878 1.83315 0
M  V30 15307 C 1815.59 5.87458 0.681727 0
M  V30 15308 H 1814.52 0.714401 0.241138 0
M  V30 15309 H 1817.17 1.83186 -0.107231 0
M  V30 15310 H 1815.55 3.43157 1.97633 0
M  V30 15311 H 1816.73 4.56197 -0.64972 0
M  V30 15312 H 1815.04 4.14173 -0.43008 0
M  V30 15313 H 1817.64 4.84558 2.2607 0
M  V30 15314 H 1817.98 3.1853 2.68038 0
M  V30 15315 H 1818.51 3.82139 1.10519 0
M  V30 15316 H 1815.25 6.55376 -0.127616 0
M  V30 15317 H 1814.77 5.82675 1.423 0
M  V30 15318 H 1816.45 6.36369 1.16806 0
M  V30 15319 N 1816.58 -0.233136 1.55866 0
M  V30 15320 C 1817.53 -1.3085 1.92304 0
M  V30 15321 C 1818.53 -1.49121 0.803693 0
M  V30 15322 O 1819.73 -1.50433 0.988433 0
M  V30 15323 H 1816.11 -0.438451 0.610954 0
M  V30 15324 H 1818.08 -0.973925 2.82059 0
M  V30 15325 C 1816.83 -2.65415 2.24611 0
M  V30 15326 H 1816.15 -2.5216 3.10251 0
M  V30 15327 H 1817.59 -3.395 2.54 0
M  V30 15328 C 1816.05 -3.1955 1.0672 0
M  V30 15329 O 1816.58 -4.00405 0.322308 0
M  V30 15330 N 1814.79 -2.77764 0.854123 0
M  V30 15331 H 1814.33 -2.12122 1.46157 0
M  V30 15332 H 1814.29 -3.14329 0.0670326 0
M  V30 15333 N 1818.06 -1.49479 -0.499372 0
M  V30 15334 C 1819.29 -1.6276 -1.27738 0
M  V30 15335 C 1819.71 -0.299635 -1.86407 0
M  V30 15336 O 1819.06 0.715092 -1.67907 0
M  V30 15337 C 1819.11 -2.69762 -2.40647 0
M  V30 15338 O 1818.84 -3.97407 -1.84388 0
M  V30 15339 C 1820.34 -2.93762 -3.31992 0
M  V30 15340 H 1817.56 -0.547893 -0.387368 0
M  V30 15341 H 1820.1 -1.95522 -0.599292 0
M  V30 15342 H 1818.26 -2.39773 -3.04282 0
M  V30 15343 H 1818.67 -4.56361 -2.58525 0
M  V30 15344 H 1820.14 -3.72361 -4.07494 0
M  V30 15345 H 1820.62 -2.0374 -3.89085 0
M  V30 15346 H 1821.23 -3.25173 -2.74122 0
M  V30 15347 N 1819.54 0.750537 -1.38581 0
M  V30 15348 C 1820.82 1.50051 -1.25475 0
M  V30 15349 C 1821.2 2.10618 0.142521 0
M  V30 15350 O 1820.55 1.97317 1.15231 0
M  V30 15351 C 1820.76 2.56443 -2.36724 0
M  V30 15352 C 1822.1 3.23261 -2.75296 0
M  V30 15353 O 1823.13 2.66749 -2.36058 0
M  V30 15354 O 1821.99 4.25481 -3.4297 0
M  V30 15355 H 1819.08 0.665581 -0.490847 0
M  V30 15356 H 1821.63 0.785688 -1.50416 0
M  V30 15357 H 1820.4 2.09958 -3.30202 0
M  V30 15358 H 1820.02 3.35503 -2.13363 0
M  V30 15359 N 1821.02 1.235 0.979051 0
M  V30 15360 C 1821.93 1.03412 2.10578 0
M  V30 15361 C 1822.95 -0.0217644 1.73986 0
M  V30 15362 O 1824.12 0.173977 2.00647 0
M  V30 15363 C 1821.19 0.629192 3.40943 0
M  V30 15364 C 1820.25 1.76028 3.91552 0
M  V30 15365 C 1819.48 1.37457 5.15695 0
M  V30 15366 O 1819.7 0.259393 5.6981 0
M  V30 15367 O 1818.64 2.19614 5.60404 0
M  V30 15368 H 1822.46 1.97845 2.30415 0
M  V30 15369 H 1820.05 1.02218 1.08958 0
M  V30 15370 H 1821.93 0.414372 4.19358 0
M  V30 15371 H 1820.61 -0.286128 3.22433 0
M  V30 15372 H 1819.51 2.02975 3.14248 0
M  V30 15373 H 1820.85 2.65396 4.14519 0
M  V30 15374 N 1822.5 -1.17802 1.04693 0
M  V30 15375 C 1823.75 -1.87271 0.749172 0
M  V30 15376 C 1824.06 -1.81614 -0.726342 0
M  V30 15377 O 1825.27 -2.46506 -1.13785 0
M  V30 15378 C 1823.72 -3.35992 1.28986 0
M  V30 15379 C 1823.33 -3.50163 2.79446 0
M  V30 15380 C 1825.07 -4.10821 1.06892 0
M  V30 15381 C 1822.98 -4.92878 3.26841 0
M  V30 15382 H 1821.91 -0.701451 0.276554 0
M  V30 15383 H 1824.56 -1.33065 1.26357 0
M  V30 15384 H 1822.94 -3.89705 0.703298 0
M  V30 15385 H 1824.12 -3.06692 3.43914 0
M  V30 15386 H 1822.43 -2.88747 3.00023 0
M  V30 15387 H 1825.03 -5.16098 1.39809 0
M  V30 15388 H 1825.37 -4.163 0.00644311 0
M  V30 15389 H 1825.91 -3.633 1.62043 0
M  V30 15390 H 1822.64 -4.92572 4.32497 0
M  V30 15391 H 1822.16 -5.3704 2.67112 0
M  V30 15392 H 1823.84 -5.61624 3.21227 0
M  V30 15393 N 1823.98 -0.827251 -1.34143 0
M  V30 15394 C 1824.91 -0.197383 -2.27345 0
M  V30 15395 C 1825.89 0.648729 -1.49098 0
M  V30 15396 O 1827.07 0.611527 -1.78305 0
M  V30 15397 C 1824.2 0.723918 -3.30873 0
M  V30 15398 C 1823.24 -0.0452254 -4.26476 0
M  V30 15399 S 1824.08 -1.39531 -5.17002 0
M  V30 15400 C 1825.23 -0.478996 -6.24064 0
M  V30 15401 H 1825.47 -0.987544 -2.80419 0
M  V30 15402 H 1823 -0.623379 -1.41256 0
M  V30 15403 H 1824.96 1.2499 -3.91009 0
M  V30 15404 H 1823.62 1.48764 -2.76637 0
M  V30 15405 H 1822.81 0.655335 -4.99721 0
M  V30 15406 H 1822.41 -0.5019 -3.70617 0
M  V30 15407 H 1824.7 0.327755 -6.76707 0
M  V30 15408 H 1825.65 -1.18126 -6.98178 0
M  V30 15409 H 1826.06 -0.0655033 -5.64462 0
M  V30 15410 N 1825.45 1.46436 -0.582609 0
M  V30 15411 C 1826.68 2.06768 -0.0737657 0
M  V30 15412 C 1827.1 1.43137 1.23115 0
M  V30 15413 O 1826.45 0.536633 1.74432 0
M  V30 15414 C 1826.5 3.61365 0.0988205 0
M  V30 15415 O 1826.23 4.22616 -1.15444 0
M  V30 15416 C 1827.73 4.38626 0.642025 0
M  V30 15417 H 1824.95 0.66854 -0.0574078 0
M  V30 15418 H 1827.49 1.88064 -0.80325 0
M  V30 15419 H 1825.65 3.79497 0.778526 0
M  V30 15420 H 1826.06 5.15486 -0.968204 0
M  V30 15421 H 1827.53 5.47389 0.711966 0
M  V30 15422 H 1828.01 4.06663 1.65897 0
M  V30 15423 H 1828.62 4.253 -0.00280852 0
M  V30 15424 N 1826.93 0.320385 1.54309 0
M  V30 15425 C 1828.16 -0.28794 2.05391 0
M  V30 15426 C 1828.58 -1.45249 1.19517 0
M  V30 15427 O 1827.94 -1.80154 0.203556 0
M  V30 15428 C 1827.99 -0.703261 3.53676 0
M  V30 15429 O 1827.09 -1.80598 3.70753 0
M  V30 15430 H 1826.43 -0.052589 0.661914 0
M  V30 15431 H 1828.96 0.46787 1.99179 0
M  V30 15432 H 1828.97 -0.986793 3.95887 0
M  V30 15433 H 1827.65 0.148514 4.15635 0
M  V30 15434 H 1826.22 -1.5215 3.40448 0
M  V30 15435 N 1828.41 -1.57525 0.0484906 0
M  V30 15436 C 1829.34 -2.14405 -0.924811 0
M  V30 15437 C 1830.32 -1.06503 -1.32631 0
M  V30 15438 O 1831.51 -1.3443 -1.4015 0
M  V30 15439 C 1828.64 -2.68686 -2.20057 0
M  V30 15440 C 1827.59 -3.81547 -1.93922 0
M  V30 15441 C 1826.92 -4.22334 -3.27929 0
M  V30 15442 C 1828.22 -5.06801 -1.26295 0
M  V30 15443 H 1829.91 -2.95983 -0.45105 0
M  V30 15444 H 1827.46 -1.42378 -0.215514 0
M  V30 15445 H 1829.41 -3.07117 -2.88543 0
M  V30 15446 H 1828.13 -1.84296 -2.69634 0
M  V30 15447 H 1826.79 -3.43585 -1.27848 0
M  V30 15448 H 1826.44 -3.34899 -3.75302 0
M  V30 15449 H 1826.14 -4.984 -3.11242 0
M  V30 15450 H 1827.66 -4.63363 -3.97652 0
M  V30 15451 H 1829.08 -5.42695 -1.84812 0
M  V30 15452 H 1827.47 -5.87991 -1.19943 0
M  V30 15453 H 1828.54 -4.84313 -0.238605 0
M  V30 15454 N 1829.89 0.224867 -1.55988 0
M  V30 15455 C 1830.83 1.27865 -1.92144 0
M  V30 15456 C 1831.8 1.46741 -0.778228 0
M  V30 15457 O 1832.99 1.60364 -1.03383 0
M  V30 15458 C 1830.13 2.62468 -2.24063 0
M  V30 15459 C 1829.24 2.51419 -3.51301 0
M  V30 15460 C 1828.38 3.78523 -3.72684 0
M  V30 15461 C 1827.42 3.62182 -4.93448 0
M  V30 15462 N 1826.55 4.81228 -5.11237 0
M  V30 15463 H 1831.39 0.96331 -2.82001 0
M  V30 15464 H 1828.93 0.464362 -1.39578 0
M  V30 15465 H 1830.89 3.40848 -2.4058 0
M  V30 15466 H 1829.52 2.92105 -1.37384 0
M  V30 15467 H 1828.57 1.64491 -3.42997 0
M  V30 15468 H 1829.88 2.35263 -4.39833 0
M  V30 15469 H 1829.04 4.65346 -3.89279 0
M  V30 15470 H 1827.78 3.976 -2.82428 0
M  V30 15471 H 1826.78 2.73743 -4.76807 0
M  V30 15472 H 1828.01 3.44579 -5.85186 0
M  V30 15473 H 1825.95 5.00625 -4.23923 0
M  V30 15474 H 1825.87 4.67787 -5.93895 0
M  V30 15475 H 1827.14 5.69487 -5.32264 0
M  V30 15476 N 1831.37 1.49742 0.491438 0
M  V30 15477 C 1832.59 1.63703 1.27343 0
M  V30 15478 C 1833.02 0.312079 1.85493 0
M  V30 15479 O 1832.37 -0.721545 1.66323 0
M  V30 15480 C 1832.42 2.71549 2.37262 0
M  V30 15481 O 1831.53 2.31387 3.41371 0
M  V30 15482 H 1830.87 0.547605 0.375533 0
M  V30 15483 H 1833.4 1.95991 0.587243 0
M  V30 15484 H 1833.41 2.94009 2.82883 0
M  V30 15485 H 1832.08 3.6772 1.94306 0
M  V30 15486 H 1830.66 2.19295 3.01603 0
M  V30 15487 N 1832.84 -0.743177 1.38977 0
M  V30 15488 C 1834.09 -1.50479 1.35956 0
M  V30 15489 C 1834.42 -1.94143 -0.0471116 0
M  V30 15490 O 1833.7 -1.66195 -1.01042 0
M  V30 15491 C 1833.98 -2.75016 2.32461 0
M  V30 15492 C 1833.83 -2.37423 3.82034 0
M  V30 15493 C 1835.15 -3.77084 2.26927 0
M  V30 15494 H 1832.27 -0.545869 0.495172 0
M  V30 15495 H 1834.91 -0.850403 1.69906 0
M  V30 15496 H 1833.06 -3.30852 2.03639 0
M  V30 15497 H 1834.74 -1.87282 4.21572 0
M  V30 15498 H 1832.98 -1.69752 3.99208 0
M  V30 15499 H 1833.65 -3.2657 4.45035 0
M  V30 15500 H 1836.13 -3.30812 2.52394 0
M  V30 15501 H 1835 -4.61901 2.96545 0
M  V30 15502 H 1835.26 -4.23419 1.27156 0
M  V30 15503 N 1834.32 -1.24018 -0.972487 0
M  V30 15504 C 1835.27 -1.02594 -2.08752 0
M  V30 15505 C 1836.26 0.0376128 -1.69358 0
M  V30 15506 O 1837.47 -0.116549 -1.79622 0
M  V30 15507 H 1833.85 -0.314713 -0.682979 0
M  V30 15508 H 1835.82 -1.97163 -2.23985 0
M  V30 15509 C 1834.57 -0.642298 -3.41716 0
M  V30 15510 H 1833.89 -1.45243 -3.72484 0
M  V30 15511 H 1835.33 -0.531964 -4.2065 0
M  V30 15512 C 1833.79 0.650173 -3.30567 0
M  V30 15513 O 1834.32 1.6972 -3.64085 0
M  V30 15514 N 1832.52 0.629085 -2.83709 0
M  V30 15515 H 1832.07 -0.223302 -2.5663 0
M  V30 15516 H 1832.03 1.49407 -2.76631 0
M  V30 15517 N 1835.8 1.17245 -1.05316 0
M  V30 15518 C 1837.05 1.87165 -0.762471 0
M  V30 15519 C 1837.37 1.8151 0.712687 0
M  V30 15520 O 1836.64 1.2419 1.51504 0
M  V30 15521 H 1835.22 0.69292 -0.279054 0
M  V30 15522 H 1837.88 1.42227 -1.33257 0
M  V30 15523 H 1836.98 2.92872 -1.07854 0
M  V30 15524 N 1837.28 0.834353 1.33702 0
M  V30 15525 C 1838.21 0.221764 2.28125 0
M  V30 15526 C 1839.22 -0.594917 1.51541 0
M  V30 15527 O 1840.41 -0.422726 1.73422 0
M  V30 15528 C 1837.51 -0.706778 3.31448 0
M  V30 15529 C 1836.69 0.0695756 4.37345 0
M  V30 15530 C 1835.74 -0.781623 5.20362 0
M  V30 15531 O 1834.77 -0.222459 5.68765 0
M  V30 15532 N 1835.97 -2.09968 5.41197 0
M  V30 15533 H 1838.74 1.03303 2.81333 0
M  V30 15534 H 1836.3 0.692389 1.46348 0
M  V30 15535 H 1838.29 -1.28109 3.83888 0
M  V30 15536 H 1836.86 -1.41877 2.78549 0
M  V30 15537 H 1836.08 0.825247 3.85465 0
M  V30 15538 H 1837.37 0.603576 5.05207 0
M  V30 15539 H 1836.77 -2.57756 5.03565 0
M  V30 15540 H 1835.32 -2.62258 5.96711 0
M  V30 15541 N 1838.76 -1.46125 0.590367 0
M  V30 15542 C 1840.01 -2.01555 0.0765543 0
M  V30 15543 C 1840.32 -1.46661 -1.29422 0
M  V30 15544 O 1841.52 -1.93958 -1.8998 0
M  V30 15545 C 1839.98 -3.59797 0.0862369 0
M  V30 15546 C 1839.59 -4.23687 1.4558 0
M  V30 15547 C 1841.33 -4.22856 -0.373232 0
M  V30 15548 C 1839.24 -5.7403 1.42279 0
M  V30 15549 H 1838.17 -0.75359 0.0248501 0
M  V30 15550 H 1840.82 -1.67778 0.743149 0
M  V30 15551 H 1839.2 -3.90684 -0.646675 0
M  V30 15552 H 1840.38 -4.04398 2.20905 0
M  V30 15553 H 1838.69 -3.72753 1.85592 0
M  V30 15554 H 1841.29 -5.33073 -0.416837 0
M  V30 15555 H 1841.63 -3.92325 -1.39237 0
M  V30 15556 H 1842.16 -3.96622 0.305859 0
M  V30 15557 H 1838.9 -6.09234 2.41898 0
M  V30 15558 H 1838.42 -5.95561 0.711862 0
M  V30 15559 H 1840.1 -6.36896 1.13899 0
M  V30 15560 N 1840.23 -0.328564 -1.54137 0
M  V30 15561 C 1841.14 0.543922 -2.28207 0
M  V30 15562 C 1842.16 1.1249 -1.32748 0
M  V30 15563 O 1843.34 1.1438 -1.65769 0
M  V30 15564 C 1840.4 1.6864 -3.02922 0
M  V30 15565 C 1839.46 1.13672 -4.13977 0
M  V30 15566 C 1838.7 2.22474 -4.85119 0
M  V30 15567 O 1838.92 3.42914 -4.55813 0
M  V30 15568 O 1837.85 1.87611 -5.71914 0
M  V30 15569 H 1841.68 -0.0577601 -3.03645 0
M  V30 15570 H 1839.26 -0.0940895 -1.49103 0
M  V30 15571 H 1841.15 2.35143 -3.49693 0
M  V30 15572 H 1839.82 2.27417 -2.30355 0
M  V30 15573 H 1838.73 0.436625 -3.71543 0
M  V30 15574 H 1840.06 0.594012 -4.88602 0
M  V30 15575 N 1841.71 1.57497 -0.0568439 0
M  V30 15576 C 1842.94 1.97645 0.628589 0
M  V30 15577 C 1843.36 0.934424 1.63249 0
M  V30 15578 O 1842.72 -0.101706 1.81015 0
M  V30 15579 C 1842.77 3.36855 1.2869 0
M  V30 15580 O 1841.87 3.35182 2.40264 0
M  V30 15581 H 1841.21 0.643698 0.16294 0
M  V30 15582 H 1843.74 2.04206 -0.126927 0
M  V30 15583 H 1843.75 3.73708 1.63726 0
M  V30 15584 H 1842.43 4.12231 0.551203 0
M  V30 15585 H 1841.01 3.10081 2.07133 0
M  V30 15586 N 1843.19 -0.216591 1.56105 0
M  V30 15587 C 1844.12 -1.27155 1.95841 0
M  V30 15588 C 1845.1 -1.48626 0.827313 0
M  V30 15589 O 1846.29 -1.60725 1.09 0
M  V30 15590 C 1843.42 -2.62032 2.27939 0
M  V30 15591 C 1842.37 -2.55211 3.43586 0
M  V30 15592 C 1841.7 -3.94163 3.61303 0
M  V30 15593 C 1843 -2.09566 4.78413 0
M  V30 15594 H 1844.69 -0.941435 2.84214 0
M  V30 15595 H 1842.24 -0.451427 1.36741 0
M  V30 15596 H 1844.19 -3.35997 2.5433 0
M  V30 15597 H 1842.91 -2.96742 1.36426 0
M  V30 15598 H 1841.57 -1.83703 3.17252 0
M  V30 15599 H 1841.22 -4.26188 2.67156 0
M  V30 15600 H 1840.92 -3.90479 4.3909 0
M  V30 15601 H 1842.44 -4.69782 3.90047 0
M  V30 15602 H 1843.86 -2.73277 5.03977 0
M  V30 15603 H 1842.26 -2.16931 5.59518 0
M  V30 15604 H 1843.33 -1.0481 4.73437 0
M  V30 15605 N 1844.67 -1.5 -0.48349 0
M  V30 15606 C 1845.92 -1.59612 -1.23317 0
M  V30 15607 C 1846.23 -0.29614 -1.93345 0
M  V30 15608 O 1847.44 -0.271008 -2.70144 0
M  V30 15609 C 1845.89 -2.81692 -2.24003 0
M  V30 15610 C 1845.5 -4.18518 -1.59834 0
M  V30 15611 C 1847.24 -3.00643 -2.9969 0
M  V30 15612 C 1845.15 -5.31799 -2.58735 0
M  V30 15613 H 1844.08 -0.594352 -0.463963 0
M  V30 15614 H 1846.73 -1.76414 -0.505016 0
M  V30 15615 H 1845.11 -2.58422 -3.00057 0
M  V30 15616 H 1846.29 -4.51994 -0.896542 0
M  V30 15617 H 1844.6 -4.0507 -0.964743 0
M  V30 15618 H 1847.2 -3.82445 -3.73684 0
M  V30 15619 H 1847.54 -2.11883 -3.58345 0
M  V30 15620 H 1848.08 -3.24035 -2.30751 0
M  V30 15621 H 1844.82 -6.22674 -2.04836 0
M  V30 15622 H 1844.34 -5.02756 -3.27103 0
M  V30 15623 H 1846.01 -5.61861 -3.20814 0
M  V30 15624 N 1846.15 0.735796 -1.39369 0
M  V30 15625 C 1847.37 1.53013 -1.40007 0
M  V30 15626 C 1847.8 1.881 0.00368376 0
M  V30 15627 O 1847.15 1.51853 0.990469 0
M  V30 15628 C 1847.2 2.79474 -2.27874 0
M  V30 15629 O 1846.31 3.75364 -1.70808 0
M  V30 15630 H 1845.65 0.462117 -0.476806 0
M  V30 15631 H 1848.18 0.907868 -1.83355 0
M  V30 15632 H 1848.19 3.28217 -2.42358 0
M  V30 15633 H 1846.86 2.53268 -3.29891 0
M  V30 15634 H 1845.44 3.34131 -1.65562 0
M  V30 15635 N 1847.63 1.24532 0.965897 0
M  V30 15636 C 1849.04 1.07886 1.52373 0
M  V30 15637 C 1849.39 -0.349136 1.93069 0
M  V30 15638 O 1848.51 -1.23774 1.77508 0
M  V30 15639 C 1849.11 1.95224 2.76899 0
M  V30 15640 C 1847.67 1.82796 3.29033 0
M  V30 15641 C 1846.81 1.9005 2.01931 0
M  V30 15642 H 1849.76 1.37982 0.783997 0
M  V30 15643 H 1849.79 1.48558 3.50301 0
M  V30 15644 H 1849.3 2.99148 2.47249 0
M  V30 15645 H 1847.4 0.817115 3.6353 0
M  V30 15646 H 1847.51 2.66989 3.97811 0
M  V30 15647 H 1845.88 1.338 2.16725 0
M  V30 15648 H 1846.66 2.95558 1.74644 0
M  V30 15649 N 1849.1 -1.16685 1.05936 0
M  V30 15650 C 1850.38 -1.8312 0.6875 0
M  V30 15651 C 1850.76 -1.94035 -0.831474 0
M  V30 15652 O 1850.11 -1.48067 -1.74036 0
M  V30 15653 C 1850.32 -3.20331 1.38524 0
M  V30 15654 C 1851.67 -3.96149 1.52811 0
M  V30 15655 O 1852.69 -3.29837 1.34485 0
M  V30 15656 O 1851.55 -5.15005 1.82845 0
M  V30 15657 H 1848.64 -0.790513 0.242937 0
M  V30 15658 H 1851.19 -1.23918 1.15941 0
M  V30 15659 H 1849.96 -3.074 2.42118 0
M  V30 15660 H 1849.58 -3.87206 0.903164 0
M  V30 15661 N 1850.58 -0.841432 -1.33258 0
M  V30 15662 C 1851.83 -0.437512 -1.97307 0
M  V30 15663 C 1852.15 1.00723 -1.66973 0
M  V30 15664 O 1851.42 1.70199 -0.969998 0
M  V30 15665 H 1850 -0.158794 -0.729927 0
M  V30 15666 H 1852.66 -1.07495 -1.62575 0
M  V30 15667 H 1851.76 -0.571675 -3.0682 0
M  V30 15668 N 1852.06 1.4581 -0.598108 0
M  V30 15669 C 1853.28 2.07188 -0.0938515 0
M  V30 15670 C 1853.71 1.44141 1.20851 0
M  V30 15671 O 1853.07 0.530689 1.73359 0
M  V30 15672 C 1853.12 3.60575 0.0423086 0
M  V30 15673 O 1852.22 3.97598 1.09496 0
M  V30 15674 H 1851.56 0.660324 -0.0697682 0
M  V30 15675 H 1854.09 1.87211 -0.825426 0
M  V30 15676 H 1854.1 4.07272 0.243566 0
M  V30 15677 H 1852.78 4.05852 -0.9087 0
M  V30 15678 H 1851.35 3.62587 0.87093 0
M  V30 15679 N 1853.54 0.336733 1.53961 0
M  V30 15680 C 1854.95 -0.0154439 1.59593 0
M  V30 15681 C 1855.15 -1.49328 1.35291 0
M  V30 15682 O 1854.21 -2.25107 1.14381 0
M  V30 15683 C 1855.52 0.414613 2.97828 0
M  V30 15684 C 1857.07 0.36638 3.10848 0
M  V30 15685 C 1857.55 0.7718 4.5145 0
M  V30 15686 N 1859.04 0.725719 4.5748 0
M  V30 15687 C 1859.77 1.01145 5.64409 0
M  V30 15688 N 1859.27 1.36499 6.7922 0
M  V30 15689 N 1861.06 0.936141 5.5425 0
M  V30 15690 H 1853.21 1.29944 1.68012 0
M  V30 15691 H 1855.47 0.529259 0.786504 0
M  V30 15692 H 1855.18 1.44476 3.20655 0
M  V30 15693 H 1855.05 -0.21367 3.76594 0
M  V30 15694 H 1857.44 -0.65458 2.87749 0
M  V30 15695 H 1857.52 1.02978 2.34157 0
M  V30 15696 H 1857.17 1.79074 4.75284 0
M  V30 15697 H 1857.1 0.0859543 5.2653 0
M  V30 15698 H 1859.59 0.464858 3.7503 0
M  V30 15699 H 1859.9 1.56805 7.56725 0
M  V30 15700 H 1858.25 1.40338 6.80684 0
M  V30 15701 H 1861.44 0.659334 4.63433 0
M  V30 15702 H 1861.61 1.16217 6.37493 0
M  V30 15703 N 1855.02 -1.57465 0.0651956 0
M  V30 15704 C 1855.96 -2.12345 -0.904345 0
M  V30 15705 C 1856.93 -1.03429 -1.29968 0
M  V30 15706 O 1858.12 -1.31055 -1.38669 0
M  V30 15707 C 1855.26 -2.68423 -2.16895 0
M  V30 15708 C 1854.37 -3.91472 -1.82684 0
M  V30 15709 C 1853.51 -4.35816 -3.03706 0
M  V30 15710 C 1852.54 -5.5153 -2.65482 0
M  V30 15711 N 1851.68 -5.90863 -3.79242 0
M  V30 15712 H 1856.52 -2.94889 -0.429468 0
M  V30 15713 H 1854.06 -1.45729 -0.200344 0
M  V30 15714 H 1856.02 -2.99041 -2.90913 0
M  V30 15715 H 1854.65 -1.88654 -2.61934 0
M  V30 15716 H 1853.7 -3.67357 -0.987564 0
M  V30 15717 H 1855.01 -4.75536 -1.50557 0
M  V30 15718 H 1854.16 -4.68062 -3.86009 0
M  V30 15719 H 1852.9 -3.50593 -3.39022 0
M  V30 15720 H 1851.91 -5.18943 -1.81598 0
M  V30 15721 H 1853.13 -6.3848 -2.31343 0
M  V30 15722 H 1851.08 -5.08591 -4.14332 0
M  V30 15723 H 1851 -6.69651 -3.50861 0
M  V30 15724 H 1852.26 -6.27729 -4.62144 0
M  V30 15725 N 1856.49 0.20831 -1.56217 0
M  V30 15726 C 1857.44 1.27775 -1.94362 0
M  V30 15727 C 1858.44 1.47824 -0.827316 0
M  V30 15728 O 1859.64 1.48841 -1.01224 0
M  V30 15729 H 1856.02 0.428676 -0.617852 0
M  V30 15730 H 1857.99 0.928929 -2.83573 0
M  V30 15731 C 1856.74 2.61808 -2.28806 0
M  V30 15732 H 1856.06 2.47192 -3.14223 0
M  V30 15733 H 1857.5 3.35416 -2.59369 0
M  V30 15734 C 1855.96 3.17812 -1.1179 0
M  V30 15735 O 1856.49 3.99841 -0.385968 0
M  V30 15736 N 1854.69 2.7637 -0.898205 0
M  V30 15737 H 1854.24 2.0977 -1.49514 0
M  V30 15738 H 1854.2 3.14182 -0.117031 0
M  V30 15739 N 1857.97 1.50255 0.475528 0
M  V30 15740 C 1859.38 1.53931 1.05651 0
M  V30 15741 C 1859.73 0.340226 1.93228 0
M  V30 15742 O 1858.86 -0.547349 2.09363 0
M  V30 15743 C 1859.45 2.78951 1.92281 0
M  V30 15744 C 1858.01 2.85323 2.45495 0
M  V30 15745 C 1857.16 2.48166 1.2373 0
M  V30 15746 H 1860.11 1.56583 0.258332 0
M  V30 15747 H 1860.13 2.60555 2.77293 0
M  V30 15748 H 1859.64 3.66205 1.28514 0
M  V30 15749 H 1857.74 2.0241 3.12827 0
M  V30 15750 H 1857.86 3.88109 2.80906 0
M  V30 15751 H 1856.22 2.00505 1.57066 0
M  V30 15752 H 1857 3.37722 0.616324 0
M  V30 15753 N 1859.45 -0.728395 1.39758 0
M  V30 15754 C 1860.41 -1.82415 1.38772 0
M  V30 15755 C 1861.41 -1.58278 0.283678 0
M  V30 15756 O 1862.6 -1.65556 0.541927 0
M  V30 15757 C 1859.73 -3.20309 1.16684 0
M  V30 15758 H 1860.93 -1.8469 2.36283 0
M  V30 15759 H 1858.48 -0.932729 1.25419 0
M  V30 15760 H 1859.22 -3.2369 0.198817 0
M  V30 15761 H 1859 -3.39226 1.96643 0
M  V30 15762 H 1860.49 -4.0036 1.18751 0
M  V30 15763 N 1860.93 -1.25042 -0.959279 0
M  V30 15764 C 1862.34 -1.01764 -1.22948 0
M  V30 15765 C 1862.54 0.268402 -1.99704 0
M  V30 15766 O 1861.6 0.982348 -2.32607 0
M  V30 15767 C 1862.91 -2.23794 -2.0084 0
M  V30 15768 C 1864.46 -2.28507 -2.13901 0
M  V30 15769 C 1864.94 -3.50181 -2.9519 0
M  V30 15770 N 1866.43 -3.50549 -3.0277 0
M  V30 15771 C 1867.16 -4.41357 -3.66049 0
M  V30 15772 N 1866.66 -5.42431 -4.30976 0
M  V30 15773 N 1868.45 -4.29049 -3.63143 0
M  V30 15774 H 1860.6 -2.07672 -0.445667 0
M  V30 15775 H 1862.86 -0.91176 -0.259611 0
M  V30 15776 H 1862.57 -3.17237 -1.51835 0
M  V30 15777 H 1862.44 -2.26592 -3.01556 0
M  V30 15778 H 1864.83 -1.3559 -2.62105 0
M  V30 15779 H 1864.91 -2.29731 -1.12505 0
M  V30 15780 H 1864.56 -4.43417 -2.47677 0
M  V30 15781 H 1864.49 -3.46202 -3.96802 0
M  V30 15782 H 1866.98 -2.77432 -2.56593 0
M  V30 15783 H 1867.29 -6.07941 -4.77104 0
M  V30 15784 H 1865.64 -5.46308 -4.29619 0
M  V30 15785 H 1868.83 -3.49317 -3.11601 0
M  V30 15786 H 1869 -5.00017 -4.12174 0
M  V30 15787 N 1862.41 1.16121 -1.06553 0
M  V30 15788 C 1863.35 2.22656 -0.672827 0
M  V30 15789 C 1864.35 1.66492 0.312509 0
M  V30 15790 O 1865.55 1.79127 0.17709 0
M  V30 15791 H 1861.93 0.725064 -0.199464 0
M  V30 15792 H 1863.9 2.53065 -1.58116 0
M  V30 15793 C 1862.65 3.47612 -0.0780782 0
M  V30 15794 H 1861.97 3.91145 -0.82739 0
M  V30 15795 H 1863.41 4.23701 0.159143 0
M  V30 15796 C 1861.87 3.15594 1.17906 0
M  V30 15797 O 1862.4 3.31641 2.26665 0
M  V30 15798 N 1860.61 2.69703 1.08206 0
M  V30 15799 H 1860.15 2.56846 0.196981 0
M  V30 15800 H 1860.11 2.48654 1.92402 0
M  V30 15801 N 1863.88 0.848487 1.3281 0
M  V30 15802 C 1865.12 0.455061 1.9927 0
M  V30 15803 C 1865.49 -0.969773 1.65709 0
M  V30 15804 O 1866.69 -1.46743 2.25211 0
M  V30 15805 C 1864.96 0.680294 3.50866 0
M  V30 15806 S 1866.52 0.383521 4.37121 0
M  V30 15807 H 1863.34 0.170742 0.690194 0
M  V30 15808 H 1865.94 1.09986 1.61627 0
M  V30 15809 H 1864.64 1.71648 3.7278 0
M  V30 15810 H 1864.17 0.0216913 3.93394 0
M  V30 15811 H 1866.19 -0.792918 4.89824 0
M  V30 15812 N 1865.36 -1.4549 0.605832 0
M  V30 15813 C 1866.78 -1.57311 0.269339 0
M  V30 15814 C 1866.98 -1.59746 -1.22814 0
M  V30 15815 O 1866.03 -1.52682 -2.01108 0
M  V30 15816 C 1867.35 -2.85664 0.938963 0
M  V30 15817 C 1868.9 -2.99336 0.914717 0
M  V30 15818 C 1869.37 -4.30457 1.56432 0
M  V30 15819 N 1870.86 -4.37211 1.52973 0
M  V30 15820 C 1871.6 -5.37333 2.00152 0
M  V30 15821 N 1871.09 -6.44001 2.5541 0
M  V30 15822 N 1872.89 -5.28679 1.90931 0
M  V30 15823 H 1865.04 -1.42153 1.57817 0
M  V30 15824 H 1867.3 -0.679542 0.661004 0
M  V30 15825 H 1867.01 -2.89759 1.9933 0
M  V30 15826 H 1866.88 -3.7437 0.461178 0
M  V30 15827 H 1869.27 -2.94809 -0.131069 0
M  V30 15828 H 1869.35 -2.12045 1.43075 0
M  V30 15829 H 1868.99 -4.35742 2.60942 0
M  V30 15830 H 1868.92 -5.16561 1.02332 0
M  V30 15831 H 1871.41 -3.60733 1.12605 0
M  V30 15832 H 1871.73 -7.16644 2.89208 0
M  V30 15833 H 1870.07 -6.44757 2.59448 0
M  V30 15834 H 1873.26 -4.44253 1.47502 0
M  V30 15835 H 1873.43 -6.06559 2.28013 0
M  V30 15836 N 1866.84 -0.344893 -1.5378 0
M  V30 15837 C 1868.12 0.306554 -1.93183 0
M  V30 15838 C 1868.5 1.68127 -1.27658 0
M  V30 15839 O 1867.85 2.24456 -0.428003 0
M  V30 15840 C 1868.06 0.377484 -3.46953 0
M  V30 15841 C 1869.4 0.627685 -4.19935 0
M  V30 15842 O 1870.43 0.459544 -3.53223 0
M  V30 15843 O 1869.29 0.953511 -5.38117 0
M  V30 15844 H 1866.38 0.179163 -0.80736 0
M  V30 15845 H 1868.93 -0.396168 -1.65011 0
M  V30 15846 H 1867.7 -0.587175 -3.86869 0
M  V30 15847 H 1867.32 1.12694 -3.81295 0
M  V30 15848 N 1868.32 1.57428 -0.0735454 0
M  V30 15849 C 1869.25 2.15849 0.890584 0
M  V30 15850 C 1870.23 1.086 1.3092 0
M  V30 15851 O 1871.41 1.36643 1.37994 0
M  V30 15852 C 1868.54 2.72153 2.15755 0
M  V30 15853 C 1867.5 3.84584 1.87827 0
M  V30 15854 C 1866.82 4.27498 3.21169 0
M  V30 15855 C 1868.12 5.08746 1.18217 0
M  V30 15856 H 1869.82 2.96663 0.403904 0
M  V30 15857 H 1867.36 1.42703 0.192836 0
M  V30 15858 H 1869.32 3.11668 2.83621 0
M  V30 15859 H 1868.04 1.88562 2.66668 0
M  V30 15860 H 1866.7 3.45575 1.22366 0
M  V30 15861 H 1866.35 3.40827 3.69927 0
M  V30 15862 H 1866.05 5.03288 3.03273 0
M  V30 15863 H 1867.57 4.69631 3.9023 0
M  V30 15864 H 1868.99 5.45566 1.76155 0
M  V30 15865 H 1867.38 5.89825 1.10573 0
M  V30 15866 H 1868.45 4.84631 0.161525 0
M  V30 15867 N 1869.8 -0.200022 1.56326 0
M  V30 15868 C 1870.74 -1.24792 1.94154 0
M  V30 15869 C 1871.71 -1.45484 0.801474 0
M  V30 15870 O 1872.9 -1.58699 1.05921 0
M  V30 15871 C 1870.04 -2.5887 2.28211 0
M  V30 15872 C 1869.15 -2.45798 3.55257 0
M  V30 15873 C 1868.29 -3.72546 3.78659 0
M  V30 15874 C 1867.33 -3.54286 4.99147 0
M  V30 15875 N 1866.46 -4.73034 5.18829 0
M  V30 15876 H 1871.3 -0.918324 2.83497 0
M  V30 15877 H 1868.84 -0.442097 1.40299 0
M  V30 15878 H 1870.8 -3.36977 2.45972 0
M  V30 15879 H 1869.43 -2.89883 1.42014 0
M  V30 15880 H 1868.48 -1.59013 3.4557 0
M  V30 15881 H 1869.79 -2.28236 4.4352 0
M  V30 15882 H 1868.95 -4.59094 3.96633 0
M  V30 15883 H 1867.68 -3.93057 2.88717 0
M  V30 15884 H 1866.69 -2.66123 4.81102 0
M  V30 15885 H 1867.91 -3.35225 5.90594 0
M  V30 15886 H 1865.86 -4.93818 4.31834 0
M  V30 15887 H 1865.78 -4.58279 6.01262 0
M  V30 15888 H 1867.05 -5.60947 5.41257 0
M  V30 15889 N 1871.27 -1.50505 -0.467553 0
M  V30 15890 C 1872.52 -1.61671 -1.21938 0
M  V30 15891 C 1872.85 -0.318688 -1.91871 0
M  V30 15892 O 1872.1 0.695639 -1.82919 0
M  V30 15893 C 1872.4 -2.74913 -2.28381 0
M  V30 15894 C 1872.07 -4.1527 -1.75674 0
M  V30 15895 C 1870.73 -4.5346 -1.6102 0
M  V30 15896 C 1873.08 -5.02978 -1.3661 0
M  V30 15897 C 1870.41 -5.77094 -1.05732 0
M  V30 15898 C 1872.76 -6.27163 -0.827621 0
M  V30 15899 C 1871.43 -6.64152 -0.667746 0
M  V30 15900 H 1870.7 -0.591596 -0.446201 0
M  V30 15901 H 1873.34 -1.84449 -0.514858 0
M  V30 15902 H 1871.65 -2.46237 -3.04754 0
M  V30 15903 H 1873.35 -2.80756 -2.86317 0
M  V30 15904 H 1869.94 -3.85144 -1.88047 0
M  V30 15905 H 1874.12 -4.74103 -1.46764 0
M  V30 15906 H 1869.38 -6.04424 -0.920946 0
M  V30 15907 H 1873.55 -6.94484 -0.516286 0
M  V30 15908 H 1871.18 -7.5983 -0.237178 0
M  V30 15909 N 1872.75 0.720973 -1.40142 0
M  V30 15910 C 1873.99 1.49327 -1.39573 0
M  V30 15911 C 1874.36 1.91999 0.00451559 0
M  V30 15912 O 1875.56 2.68459 0.135289 0
M  V30 15913 C 1873.83 2.69014 -2.35301 0
M  V30 15914 S 1875.39 3.58489 -2.53043 0
M  V30 15915 H 1872.21 0.510609 -0.494773 0
M  V30 15916 H 1874.81 0.843571 -1.76364 0
M  V30 15917 H 1873.51 2.35827 -3.35878 0
M  V30 15918 H 1873.04 3.389 -1.99775 0
M  V30 15919 H 1875.06 4.6322 -1.77882 0
M  V30 15920 N 1874.23 1.25549 0.952634 0
M  V30 15921 C 1875.18 1.02791 2.03514 0
M  V30 15922 C 1876.16 -0.0358706 1.6086 0
M  V30 15923 O 1877.36 0.179707 1.76085 0
M  V30 15924 C 1874.49 0.650727 3.37076 0
M  V30 15925 C 1873.57 1.75137 3.86248 0
M  V30 15926 N 1873.96 2.98686 4.08192 0
M  V30 15927 C 1872.26 1.63235 4.15055 0
M  V30 15928 C 1872.96 3.70141 4.48743 0
M  V30 15929 N 1871.94 2.97771 4.54789 0
M  V30 15930 H 1875.74 1.96585 2.18476 0
M  V30 15931 H 1873.25 1.15898 1.13761 0
M  V30 15932 H 1875.25 0.468871 4.14255 0
M  V30 15933 H 1873.91 -0.279854 3.23492 0
M  V30 15934 H 1874.92 3.3471 3.95208 0
M  V30 15935 H 1871.6 0.770867 4.10322 0
M  V30 15936 H 1872.99 4.762 4.74008 0
M  V30 15937 N 1875.71 -1.15554 1.07168 0
M  V30 15938 C 1877.12 -1.67889 0.816719 0
M  V30 15939 C 1877.47 -1.84821 -0.658442 0
M  V30 15940 O 1876.6 -1.55018 -1.50991 0
M  V30 15941 C 1877.19 -3.04959 1.47598 0
M  V30 15942 C 1875.75 -3.54378 1.26858 0
M  V30 15943 C 1874.9 -2.30148 1.54684 0
M  V30 15944 H 1877.85 -0.997938 1.23397 0
M  V30 15945 H 1877.87 -3.69796 0.89618 0
M  V30 15946 H 1877.38 -2.92603 2.54961 0
M  V30 15947 H 1875.48 -3.71979 0.215097 0
M  V30 15948 H 1875.59 -4.35932 1.98747 0
M  V30 15949 H 1873.96 -2.35597 0.967776 0
M  V30 15950 H 1874.74 -2.20381 2.63225 0
M  V30 15951 N 1877.19 -0.855519 -1.32358 0
M  V30 15952 C 1878.1 -0.303696 -2.32626 0
M  V30 15953 C 1879.11 0.578927 -1.64087 0
M  V30 15954 O 1880.29 0.479091 -1.95619 0
M  V30 15955 C 1877.35 0.498152 -3.43103 0
M  V30 15956 C 1876.42 -0.410714 -4.27331 0
M  V30 15957 C 1875.65 0.35296 -5.32532 0
M  V30 15958 O 1875.87 1.58282 -5.47999 0
M  V30 15959 O 1874.81 -0.281689 -6.0124 0
M  V30 15960 H 1878.63 -1.13443 -2.81717 0
M  V30 15961 H 1876.22 -0.618479 -1.35997 0
M  V30 15962 H 1878.1 0.95324 -4.10477 0
M  V30 15963 H 1876.77 1.30567 -2.96199 0
M  V30 15964 H 1875.68 -0.913997 -3.62763 0
M  V30 15965 H 1877.01 -1.18344 -4.77761 0
M  V30 15966 N 1878.67 1.45167 -0.61354 0
M  V30 15967 C 1879.6 2.3333 0.089004 0
M  V30 15968 C 1880.58 1.47181 0.85275 0
M  V30 15969 O 1881.76 1.7594 0.822122 0
M  V30 15970 C 1878.89 3.29982 1.08301 0
M  V30 15971 C 1877.85 4.25813 0.432084 0
M  V30 15972 C 1877.17 5.122 1.53476 0
M  V30 15973 C 1878.47 5.18233 -0.65052 0
M  V30 15974 H 1880.17 2.92322 -0.647165 0
M  V30 15975 H 1877.71 1.40565 -0.312667 0
M  V30 15976 H 1879.66 3.90533 1.5831 0
M  V30 15977 H 1878.39 2.69162 1.84985 0
M  V30 15978 H 1877.05 3.6657 -0.0471927 0
M  V30 15979 H 1876.7 4.47744 2.29203 0
M  V30 15980 H 1876.4 5.77122 1.10469 0
M  V30 15981 H 1877.92 5.7562 2.037 0
M  V30 15982 H 1879.33 5.72821 -0.234262 0
M  V30 15983 H 1877.73 5.91664 -1.00268 0
M  V30 15984 H 1878.8 4.60304 -1.52475 0
M  V30 15985 N 1880.14 0.353044 1.53595 0
M  V30 15986 C 1881.09 -0.499326 2.25334 0
M  V30 15987 C 1882.06 -1.08781 1.25522 0
M  V30 15988 O 1883.25 -1.12265 1.54276 0
M  V30 15989 C 1880.39 -1.63955 3.03666 0
M  V30 15990 C 1879.5 -1.07745 4.18348 0
M  V30 15991 C 1878.63 -2.18575 4.84147 0
M  V30 15992 C 1877.67 -1.59765 5.90882 0
M  V30 15993 N 1876.81 -2.64376 6.50423 0
M  V30 15994 H 1881.65 0.118959 2.97762 0
M  V30 15995 H 1879.19 0.0704777 1.46931 0
M  V30 15996 H 1881.14 -2.31097 3.47347 0
M  V30 15997 H 1879.77 -2.22868 2.33516 0
M  V30 15998 H 1878.83 -0.296678 3.79241 0
M  V30 15999 H 1880.14 -0.607375 4.95088 0
M  V30 16000 H 1879.29 -2.93563 5.30948 0
M  V30 16001 H 1878.03 -2.68929 4.06852 0
M  V30 16002 H 1877.04 -0.832863 5.43455 0
M  V30 16003 H 1878.26 -1.10251 6.70091 0
M  V30 16004 H 1876.21 -3.13968 5.75986 0
M  V30 16005 H 1876.12 -2.22019 7.22664 0
M  V30 16006 H 1877.39 -3.39105 7.01875 0
M  V30 16007 N 1881.62 -1.57387 0.0818932 0
M  V30 16008 C 1882.85 -1.9862 -0.597066 0
M  V30 16009 C 1883.27 -0.960277 -1.61741 0
M  V30 16010 O 1882.63 0.0728948 -1.81153 0
M  V30 16011 C 1882.68 -3.3886 -1.23315 0
M  V30 16012 O 1881.78 -3.38962 -2.34901 0
M  V30 16013 H 1881.12 -0.646208 -0.152679 0
M  V30 16014 H 1883.65 -2.03978 0.159398 0
M  V30 16015 H 1883.66 -3.76266 -1.5776 0
M  V30 16016 H 1882.34 -4.13056 -0.485551 0
M  V30 16017 H 1880.91 -3.13337 -2.02174 0
M  V30 16018 N 1883.1 0.191729 -1.56429 0
M  V30 16019 C 1884.35 0.909797 -1.80464 0
M  V30 16020 C 1884.67 1.83652 -0.655516 0
M  V30 16021 O 1883.94 1.93169 0.325946 0
M  V30 16022 H 1882.52 0.338944 -0.665677 0
M  V30 16023 H 1885.18 0.196432 -1.93908 0
M  V30 16024 H 1884.28 1.49891 -2.7375 0
M  V30 16025 N 1884.58 1.50751 0.459565 0
M  V30 16026 C 1885.49 1.7326 1.58171 0
M  V30 16027 C 1886.5 0.616042 1.6273 0
M  V30 16028 O 1887.68 0.895726 1.80385 0
M  V30 16029 C 1884.74 1.83249 2.94314 0
M  V30 16030 C 1883.81 3.07031 3.00051 0
M  V30 16031 C 1883.04 3.16534 4.297 0
M  V30 16032 O 1883.26 2.32532 5.2085 0
M  V30 16033 O 1882.2 4.0935 4.41266 0
M  V30 16034 H 1886.02 2.68406 1.42098 0
M  V30 16035 H 1883.61 1.34985 0.640273 0
M  V30 16036 H 1885.49 1.91933 3.75153 0
M  V30 16037 H 1884.16 0.912887 3.10561 0
M  V30 16038 H 1883.07 3.0384 2.18248 0
M  V30 16039 H 1884.4 3.98608 2.88743 0
M  V30 16040 N 1886.06 -0.713531 1.40522 0
M  V30 16041 C 1887.29 -1.50042 1.42024 0
M  V30 16042 C 1887.69 -1.89191 0.0188277 0
M  V30 16043 O 1887.04 -1.56122 -0.968071 0
M  V30 16044 C 1887.1 -2.8045 2.24918 0
M  V30 16045 C 1886.76 -2.63612 3.73306 0
M  V30 16046 C 1887.76 -2.30736 4.65893 0
M  V30 16047 C 1885.44 -2.79813 4.17145 0
M  V30 16048 C 1887.44 -2.14273 6.00305 0
M  V30 16049 C 1885.13 -2.62967 5.51626 0
M  V30 16050 C 1886.12 -2.30246 6.43021 0
M  V30 16051 O 1885.81 -2.1353 7.75023 0
M  V30 16052 H 1885.54 -0.46954 0.486321 0
M  V30 16053 H 1888.1 -0.887579 1.85233 0
M  V30 16054 H 1886.33 -3.44075 1.76492 0
M  V30 16055 H 1888.02 -3.42176 2.18336 0
M  V30 16056 H 1888.78 -2.17851 4.3332 0
M  V30 16057 H 1884.66 -3.04269 3.46325 0
M  V30 16058 H 1888.21 -1.88656 6.71606 0
M  V30 16059 H 1884.1 -2.75437 5.83785 0
M  V30 16060 H 1884.87 -2.28434 7.85977 0
M  V30 16061 N 1887.53 -1.26053 -0.945962 0
M  V30 16062 C 1888.78 -1.12488 -1.69464 0
M  V30 16063 C 1889.13 0.329284 -1.89561 0
M  V30 16064 O 1888.43 1.2387 -1.46174 0
M  V30 16065 C 1888.62 -1.8222 -3.07459 0
M  V30 16066 C 1888.45 -3.34267 -3.00825 0
M  V30 16067 C 1887.22 -4.03545 -3.04104 0
M  V30 16068 C 1889.42 -4.30534 -2.81327 0
M  V30 16069 N 1887.4 -5.42302 -2.87719 0
M  V30 16070 C 1888.77 -5.56434 -2.73462 0
M  V30 16071 C 1890.83 -4.20843 -2.66074 0
M  V30 16072 C 1889.53 -6.73749 -2.51902 0
M  V30 16073 C 1891.56 -5.37861 -2.45886 0
M  V30 16074 C 1890.92 -6.62705 -2.38748 0
M  V30 16075 H 1887.02 -0.466384 -0.627702 0
M  V30 16076 H 1889.6 -1.59274 -1.11982 0
M  V30 16077 H 1887.77 -1.37916 -3.63089 0
M  V30 16078 H 1889.5 -1.6132 -3.71158 0
M  V30 16079 H 1886.26 -3.5487 -3.13631 0
M  V30 16080 H 1886.68 -6.15147 -2.82707 0
M  V30 16081 H 1891.32 -3.25061 -2.70361 0
M  V30 16082 H 1889.04 -7.69633 -2.46355 0
M  V30 16083 H 1892.63 -5.3223 -2.34996 0
M  V30 16084 H 1891.51 -7.51726 -2.23333 0
M  V30 16085 N 1889.01 1.14984 -1.07779 0
M  V30 16086 C 1890.26 1.86148 -0.804777 0
M  V30 16087 C 1890.59 1.82364 0.667615 0
M  V30 16088 O 1889.87 1.24982 1.4903 0
M  V30 16089 C 1890.15 3.35067 -1.31916 0
M  V30 16090 C 1890 3.4746 -2.85642 0
M  V30 16091 C 1891.32 4.29961 -0.939217 0
M  V30 16092 H 1888.44 0.675899 -0.293818 0
M  V30 16093 H 1891.08 1.35065 -1.33632 0
M  V30 16094 H 1889.23 3.78702 -0.867011 0
M  V30 16095 H 1890.9 3.12658 -3.3918 0
M  V30 16096 H 1889.15 2.88878 -3.23623 0
M  V30 16097 H 1889.82 4.52109 -3.16704 0
M  V30 16098 H 1892.29 3.94309 -1.3289 0
M  V30 16099 H 1891.17 5.32633 -1.32641 0
M  V30 16100 H 1891.43 4.4183 0.15442 0
M  V30 16101 N 1890.49 0.862526 1.31902 0
M  V30 16102 C 1891.77 0.390745 1.91657 0
M  V30 16103 C 1892.15 -1.12648 1.78532 0
M  V30 16104 O 1891.49 -1.95169 1.18833 0
M  V30 16105 C 1891.7 0.863847 3.3814 0
M  V30 16106 C 1893.05 0.885621 4.15261 0
M  V30 16107 O 1894.08 0.809005 3.46891 0
M  V30 16108 O 1892.94 0.995169 5.37363 0
M  V30 16109 H 1890.03 0.115501 0.818895 0
M  V30 16110 H 1892.58 0.949947 1.4062 0
M  V30 16111 H 1891.35 1.90723 3.41673 0
M  V30 16112 H 1890.97 0.282536 3.96595 0
M  V30 16113 N 1891.97 -1.4484 0.62123 0
M  V30 16114 C 1893.38 -1.85568 0.205284 0
M  V30 16115 C 1893.73 -1.51963 -1.24104 0
M  V30 16116 O 1892.86 -0.952887 -1.94291 0
M  V30 16117 C 1893.45 -3.3682 0.365788 0
M  V30 16118 C 1892.01 -3.764 0.00442911 0
M  V30 16119 C 1891.16 -2.68736 0.683839 0
M  V30 16120 H 1894.11 -1.35447 0.827036 0
M  V30 16121 H 1894.13 -3.78411 -0.398123 0
M  V30 16122 H 1893.64 -3.61247 1.41853 0
M  V30 16123 H 1891.74 -3.57588 -1.04696 0
M  V30 16124 H 1891.85 -4.77363 0.407588 0
M  V30 16125 H 1890.22 -2.54417 0.120114 0
M  V30 16126 H 1891 -2.95997 1.73898 0
M  V30 16127 N 1893.45 -0.361184 -1.53405 0
M  V30 16128 C 1894.39 0.502532 -2.27107 0
M  V30 16129 C 1895.39 1.08711 -1.29916 0
M  V30 16130 O 1896.59 1.03082 -1.47561 0
M  V30 16131 H 1892.97 0.180773 -0.729949 0
M  V30 16132 H 1894.94 -0.140891 -2.98067 0
M  V30 16133 C 1893.69 1.63258 -3.06989 0
M  V30 16134 H 1893.01 1.19205 -3.81615 0
M  V30 16135 H 1894.45 2.21174 -3.61743 0
M  V30 16136 C 1892.91 2.57234 -2.17559 0
M  V30 16137 O 1893.44 3.59939 -1.78345 0
M  V30 16138 N 1891.65 2.26322 -1.82282 0
M  V30 16139 H 1891.19 1.4284 -2.1437 0
M  V30 16140 H 1891.15 2.89455 -1.22731 0
M  V30 16141 N 1894.92 1.57341 -0.0902386 0
M  V30 16142 C 1895.86 2.10775 0.900374 0
M  V30 16143 C 1896.87 1.0439 1.24926 0
M  V30 16144 O 1898.06 1.31851 1.20322 0
M  V30 16145 C 1895.16 2.56852 2.21089 0
M  V30 16146 C 1894.33 3.87016 2.03808 0
M  V30 16147 C 1893.39 4.18991 3.18328 0
M  V30 16148 O 1892.42 4.88292 2.92505 0
M  V30 16149 N 1893.62 3.74006 4.43959 0
M  V30 16150 H 1896.38 2.96392 0.444045 0
M  V30 16151 H 1893.94 1.61621 0.0949979 0
M  V30 16152 H 1895.94 2.75292 2.96642 0
M  V30 16153 H 1894.51 1.76271 2.58161 0
M  V30 16154 H 1893.73 3.77772 1.12613 0
M  V30 16155 H 1895.01 4.72181 1.89532 0
M  V30 16156 H 1894.41 3.18056 4.67821 0
M  V30 16157 H 1892.97 3.97611 5.16477 0
M  V30 16158 N 1896.4 -0.183431 1.56529 0
M  V30 16159 C 1897.65 -0.900214 1.80944 0
M  V30 16160 C 1897.97 -1.83302 0.665246 0
M  V30 16161 O 1897.24 -1.9334 -0.315697 0
M  V30 16162 H 1895.82 -0.335409 0.667465 0
M  V30 16163 H 1898.48 -0.186146 1.94009 0
M  V30 16164 H 1897.58 -1.48437 2.74541 0
M  V30 16165 N 1897.88 -1.50992 -0.451564 0
M  V30 16166 C 1899.12 -1.64605 -1.21179 0
M  V30 16167 C 1899.48 -0.347889 -1.88822 0
M  V30 16168 O 1900.69 -0.359643 -2.66383 0
M  V30 16169 C 1898.96 -2.8067 -2.21267 0
M  V30 16170 S 1900.52 -3.14531 -3.05967 0
M  V30 16171 H 1897.33 -0.58007 -0.411145 0
M  V30 16172 H 1899.94 -1.88849 -0.505611 0
M  V30 16173 H 1898.64 -3.73449 -1.70187 0
M  V30 16174 H 1898.17 -2.58572 -2.96486 0
M  V30 16175 H 1900.19 -2.59864 -4.22712 0
M  V30 16176 N 1899.36 0.706069 -1.40899 0
M  V30 16177 C 1900.31 1.82011 -1.41918 0
M  V30 16178 C 1901.28 1.6381 -0.274879 0
M  V30 16179 O 1902.46 1.84809 -0.474366 0
M  V30 16180 C 1899.6 3.19805 -1.29687 0
M  V30 16181 C 1898.71 3.49512 -2.53901 0
M  V30 16182 C 1897.85 4.76863 -2.34041 0
M  V30 16183 C 1896.89 4.99504 -3.53783 0
M  V30 16184 N 1896.02 6.18074 -3.33059 0
M  V30 16185 H 1900.86 1.80474 -2.37135 0
M  V30 16186 H 1898.4 0.881471 -1.17765 0
M  V30 16187 H 1900.36 3.99389 -1.206 0
M  V30 16188 H 1898.99 3.20546 -0.380837 0
M  V30 16189 H 1898.04 2.64411 -2.73479 0
M  V30 16190 H 1899.35 3.62147 -3.43002 0
M  V30 16191 H 1898.51 5.64482 -2.22361 0
M  V30 16192 H 1897.25 4.66454 -1.42379 0
M  V30 16193 H 1896.25 4.10336 -3.65929 0
M  V30 16194 H 1897.48 5.11779 -4.46385 0
M  V30 16195 H 1895.42 6.08898 -2.44088 0
M  V30 16196 H 1895.34 6.3143 -4.15731 0
M  V30 16197 H 1896.61 7.08456 -3.25131 0
M  V30 16198 N 1900.84 1.26553 0.939264 0
M  V30 16199 C 1901.77 1.10778 2.05549 0
M  V30 16200 C 1902.75 0.0124359 1.70095 0
M  V30 16201 O 1903.93 0.184814 1.93319 0
M  V30 16202 C 1901.06 0.742011 3.39281 0
M  V30 16203 C 1900.02 1.78931 3.88803 0
M  V30 16204 C 1899.34 1.2778 5.19207 0
M  V30 16205 C 1900.64 3.1912 4.13473 0
M  V30 16206 H 1902.34 2.04151 2.19004 0
M  V30 16207 H 1899.88 0.98294 1.05234 0
M  V30 16208 H 1901.84 0.618526 4.16836 0
M  V30 16209 H 1900.56 -0.22742 3.25807 0
M  V30 16210 H 1899.22 1.9015 3.13431 0
M  V30 16211 H 1898.87 0.298159 5.02116 0
M  V30 16212 H 1898.57 1.9779 5.53311 0
M  V30 16213 H 1900.09 1.16703 5.99344 0
M  V30 16214 H 1901.5 3.10967 4.81635 0
M  V30 16215 H 1899.9 3.86738 4.58862 0
M  V30 16216 H 1900.97 3.65034 3.19183 0
M  V30 16217 N 1902.31 -1.14411 1.08387 0
M  V30 16218 C 1903.59 -1.8162 0.726188 0
M  V30 16219 C 1903.97 -1.95755 -0.790129 0
M  V30 16220 O 1903.32 -1.51725 -1.70856 0
M  V30 16221 C 1903.53 -3.17321 1.45287 0
M  V30 16222 C 1904.88 -3.92818 1.6118 0
M  V30 16223 O 1905.9 -3.2691 1.41451 0
M  V30 16224 O 1904.76 -5.1101 1.93728 0
M  V30 16225 H 1901.85 -0.785182 0.25965 0
M  V30 16226 H 1904.4 -1.21431 1.18544 0
M  V30 16227 H 1903.17 -3.02195 2.48584 0
M  V30 16228 H 1902.8 -3.85203 0.985093 0
M  V30 16229 N 1903.79 -0.869509 -1.31443 0
M  V30 16230 C 1904.76 -0.329869 -2.26814 0
M  V30 16231 C 1905.76 0.518895 -1.52198 0
M  V30 16232 O 1906.95 0.328267 -1.71079 0
M  V30 16233 C 1904.08 0.53159 -3.3673 0
M  V30 16234 H 1905.27 -1.1718 -2.7606 0
M  V30 16235 H 1902.82 -0.645061 -1.42368 0
M  V30 16236 H 1903.56 1.39473 -2.92776 0
M  V30 16237 H 1903.34 -0.0761553 -3.92026 0
M  V30 16238 H 1904.83 0.901447 -4.07754 0
M  V30 16239 N 1905.27 1.44508 -0.628902 0
M  V30 16240 C 1906.52 2.01281 -0.129966 0
M  V30 16241 C 1906.83 1.50041 1.25488 0
M  V30 16242 O 1908.04 1.98927 1.84771 0
M  V30 16243 C 1906.49 3.59442 -0.1816 0
M  V30 16244 C 1906.1 4.19678 -1.56762 0
M  V30 16245 C 1907.85 4.23697 0.260988 0
M  V30 16246 C 1905.75 5.70056 -1.57449 0
M  V30 16247 H 1904.68 0.752667 -0.0448215 0
M  V30 16248 H 1907.33 1.65749 -0.787372 0
M  V30 16249 H 1905.72 3.92261 0.542864 0
M  V30 16250 H 1906.89 3.98399 -2.31549 0
M  V30 16251 H 1905.21 3.67701 -1.9541 0
M  V30 16252 H 1907.8 5.33991 0.275356 0
M  V30 16253 H 1908.15 3.95878 1.28787 0
M  V30 16254 H 1908.68 3.95672 -0.410909 0
M  V30 16255 H 1905.42 6.02606 -2.57966 0
M  V30 16256 H 1904.94 5.93464 -0.869514 0
M  V30 16257 H 1906.62 6.33652 -1.30745 0
M  V30 16258 N 1906.75 0.369315 1.53212 0
M  V30 16259 C 1907.7 -0.475399 2.25851 0
M  V30 16260 C 1908.67 -1.07444 1.26669 0
M  V30 16261 O 1909.85 -1.10623 1.55458 0
M  V30 16262 C 1906.99 -1.60725 3.05388 0
M  V30 16263 C 1906.1 -1.03302 4.19467 0
M  V30 16264 C 1905.24 -2.13427 4.86438 0
M  V30 16265 C 1904.28 -1.53489 5.92543 0
M  V30 16266 N 1903.42 -2.57463 6.5319 0
M  V30 16267 H 1908.26 0.150534 2.9762 0
M  V30 16268 H 1905.79 0.0860577 1.46848 0
M  V30 16269 H 1907.75 -2.274 3.49779 0
M  V30 16270 H 1906.38 -2.20378 2.35867 0
M  V30 16271 H 1905.43 -0.256437 3.79535 0
M  V30 16272 H 1906.74 -0.55483 4.95705 0
M  V30 16273 H 1905.9 -2.87915 5.34032 0
M  V30 16274 H 1904.64 -2.64599 4.09681 0
M  V30 16275 H 1903.64 -0.775176 5.44308 0
M  V30 16276 H 1904.87 -1.03137 6.71222 0
M  V30 16277 H 1902.81 -3.07841 5.79284 0
M  V30 16278 H 1902.73 -2.14342 7.24978 0
M  V30 16279 H 1904 -3.31642 7.05432 0
M  V30 16280 N 1908.23 -1.57291 0.0985816 0
M  V30 16281 C 1909.47 -1.94767 -0.56514 0
M  V30 16282 C 1909.81 -0.980722 -1.67617 0
M  V30 16283 O 1909.08 -0.0143714 -1.94495 0
M  V30 16284 C 1909.36 -3.42336 -1.11704 0
M  V30 16285 C 1909.22 -4.49799 -0.0108284 0
M  V30 16286 C 1910.54 -3.91296 -2.01434 0
M  V30 16287 H 1907.66 -0.708215 -0.203963 0
M  V30 16288 H 1910.3 -1.89238 0.169998 0
M  V30 16289 H 1908.45 -3.47179 -1.74354 0
M  V30 16290 H 1910.12 -4.57066 0.623574 0
M  V30 16291 H 1908.36 -4.28825 0.655093 0
M  V30 16292 H 1909.03 -5.50261 -0.437868 0
M  V30 16293 H 1911.51 -3.88628 -1.48685 0
M  V30 16294 H 1910.39 -4.9511 -2.36975 0
M  V30 16295 H 1910.65 -3.30792 -2.93307 0
M  V30 16296 N 1909.71 0.175127 -1.56624 0
M  V30 16297 C 1910.95 0.892368 -1.81777 0
M  V30 16298 C 1911.28 1.8241 -0.675051 0
M  V30 16299 O 1910.54 1.9276 0.337944 0
M  V30 16300 C 1910.83 1.72397 -3.13072 0
M  V30 16301 C 1910.5 0.941494 -4.40961 0
M  V30 16302 C 1909.16 0.725524 -4.75699 0
M  V30 16303 C 1911.51 0.392358 -5.19721 0
M  V30 16304 C 1908.84 -0.0507428 -5.86678 0
M  V30 16305 C 1911.19 -0.370801 -6.31512 0
M  V30 16306 C 1909.86 -0.597606 -6.64819 0
M  V30 16307 H 1909.13 0.326541 -0.665171 0
M  V30 16308 H 1911.78 0.157524 -1.90851 0
M  V30 16309 H 1910.08 2.52809 -2.99324 0
M  V30 16310 H 1911.78 2.28189 -3.29743 0
M  V30 16311 H 1908.37 1.11986 -4.13711 0
M  V30 16312 H 1912.55 0.546561 -4.93281 0
M  V30 16313 H 1907.81 -0.236241 -6.10943 0
M  V30 16314 H 1911.98 -0.803585 -6.91748 0
M  V30 16315 H 1909.61 -1.201 -7.50653 0
M  V30 16316 N 1911.18 1.5123 0.44355 0
M  V30 16317 C 1912.42 1.65246 1.20305 0
M  V30 16318 C 1912.79 0.357897 1.88635 0
M  V30 16319 O 1913.99 0.373765 2.66189 0
M  V30 16320 C 1912.26 2.8184 2.19775 0
M  V30 16321 S 1913.82 3.16149 3.04295 0
M  V30 16322 H 1910.64 0.582242 0.408063 0
M  V30 16323 H 1913.24 1.89114 0.495589 0
M  V30 16324 H 1911.94 3.74347 1.68204 0
M  V30 16325 H 1911.47 2.60141 2.95111 0
M  V30 16326 H 1913.49 2.62102 4.21327 0
M  V30 16327 N 1912.66 -0.698586 1.41271 0
M  V30 16328 C 1913.61 -1.83387 1.43081 0
M  V30 16329 C 1914.6 -1.66554 0.309204 0
M  V30 16330 O 1915.81 -1.73452 0.481084 0
M  V30 16331 H 1912.18 -0.604271 0.447617 0
M  V30 16332 H 1914.16 -1.78977 2.38767 0
M  V30 16333 C 1912.9 -3.21385 1.32692 0
M  V30 16334 H 1912.23 -3.34952 2.18283 0
M  V30 16335 H 1913.67 -4.00907 1.38019 0
M  V30 16336 C 1912.13 -3.36877 0.0389378 0
M  V30 16337 O 1912.66 -3.91081 -0.917515 0
M  V30 16338 N 1910.86 -2.90578 -0.0361557 0
M  V30 16339 H 1910.41 -2.46654 0.742925 0
M  V30 16340 H 1910.37 -3.01322 -0.897353 0
M  V30 16341 N 1914.14 -1.27049 -0.93254 0
M  V30 16342 C 1915.07 -1.03677 -2.03289 0
M  V30 16343 C 1916.05 0.0412728 -1.62548 0
M  V30 16344 O 1917.23 -0.102897 -1.88219 0
M  V30 16345 C 1914.36 -0.571733 -3.3384 0
M  V30 16346 C 1913.41 -1.64362 -3.93557 0
M  V30 16347 S 1914.24 -3.23486 -4.26752 0
M  V30 16348 C 1915.4 -2.78772 -5.6039 0
M  V30 16349 H 1915.63 -1.96842 -2.22802 0
M  V30 16350 H 1913.16 -1.10826 -1.07503 0
M  V30 16351 H 1915.12 -0.310101 -4.09327 0
M  V30 16352 H 1913.78 0.339773 -3.12257 0
M  V30 16353 H 1912.97 -1.26944 -4.87751 0
M  V30 16354 H 1912.58 -1.85708 -3.24636 0
M  V30 16355 H 1914.87 -2.23774 -6.39478 0
M  V30 16356 H 1915.81 -3.71692 -6.02703 0
M  V30 16357 H 1916.22 -2.18065 -5.2068 0
M  V30 16358 N 1915.62 1.13835 -1.08993 0
M  V30 16359 C 1916.53 2.22715 -0.73724 0
M  V30 16360 C 1917.54 1.72064 0.258869 0
M  V30 16361 O 1918.72 2.01145 0.101321 0
M  V30 16362 C 1915.78 3.46338 -0.158285 0
M  V30 16363 C 1914.85 4.11902 -1.20977 0
M  V30 16364 C 1914.08 5.29624 -0.658349 0
M  V30 16365 O 1914.3 5.68023 0.520219 0
M  V30 16366 O 1913.24 5.85121 -1.41126 0
M  V30 16367 H 1917.06 2.55247 -1.64568 0
M  V30 16368 H 1914.65 1.21882 -0.864013 0
M  V30 16369 H 1916.53 4.2109 0.161481 0
M  V30 16370 H 1915.2 3.15517 0.723235 0
M  V30 16371 H 1914.11 3.38996 -1.58216 0
M  V30 16372 H 1915.44 4.46843 -2.06378 0
M  V30 16373 N 1917.1 0.876467 1.3098 0
M  V30 16374 C 1918.32 0.505315 2.00634 0
M  V30 16375 C 1918.74 -0.903951 1.65753 0
M  V30 16376 O 1918.1 -1.59318 0.890164 0
M  V30 16377 C 1918.15 0.660442 3.55416 0
M  V30 16378 O 1917.87 2.01422 3.89051 0
M  V30 16379 C 1919.37 0.291158 4.42343 0
M  V30 16380 H 1916.59 0.196195 0.641676 0
M  V30 16381 H 1919.13 1.17942 1.67062 0
M  V30 16382 H 1917.29 0.0338076 3.87385 0
M  V30 16383 H 1917.7 2.02668 4.83762 0
M  V30 16384 H 1919.18 0.450631 5.50158 0
M  V30 16385 H 1919.65 -0.770188 4.32394 0
M  V30 16386 H 1920.26 0.893762 4.15803 0
M  V30 16387 N 1918.57 -1.44173 0.636557 0
M  V30 16388 C 1919.82 -2.01594 0.142933 0
M  V30 16389 C 1920.14 -1.50366 -1.24157 0
M  V30 16390 O 1919.41 -0.709463 -1.82602 0
M  V30 16391 H 1917.99 -0.745335 0.04985 0
M  V30 16392 H 1920.65 -1.76602 0.824479 0
M  V30 16393 H 1919.75 -3.11889 0.114775 0
M  V30 16394 N 1920.05 -0.377435 -1.53014 0
M  V30 16395 C 1920.96 0.471045 -2.29822 0
M  V30 16396 C 1921.98 1.0821 -1.36259 0
M  V30 16397 O 1923.15 1.09048 -1.69324 0
M  V30 16398 C 1920.22 1.58917 -3.08134 0
M  V30 16399 C 1919.28 1.00444 -4.17384 0
M  V30 16400 C 1918.51 2.06928 -4.91952 0
M  V30 16401 O 1918.74 3.2824 -4.66492 0
M  V30 16402 O 1917.67 1.69321 -5.77593 0
M  V30 16403 H 1921.5 -0.154333 -3.03308 0
M  V30 16404 H 1919.08 -0.141478 -1.48729 0
M  V30 16405 H 1920.96 2.23899 -3.56997 0
M  V30 16406 H 1919.64 2.19973 -2.37473 0
M  V30 16407 H 1918.54 0.3182 -3.72744 0
M  V30 16408 H 1919.88 0.438266 -4.90245 0
M  V30 16409 N 1921.53 1.57237 -0.106922 0
M  V30 16410 C 1922.76 1.9912 0.562038 0
M  V30 16411 C 1923.17 0.986338 1.60987 0
M  V30 16412 O 1922.53 -0.0224611 1.82486 0
M  V30 16413 C 1922.58 3.41034 1.19909 0
M  V30 16414 O 1922.3 4.37674 0.193157 0
M  V30 16415 C 1923.8 3.97984 1.95253 0
M  V30 16416 H 1921.02 0.654071 0.149772 0
M  V30 16417 H 1923.57 2.03618 -0.189699 0
M  V30 16418 H 1921.72 3.37513 1.90168 0
M  V30 16419 H 1922.14 5.20401 0.654461 0
M  V30 16420 H 1923.61 4.99398 2.35171 0
M  V30 16421 H 1924.09 3.36455 2.82303 0
M  V30 16422 H 1924.69 4.05014 1.29784 0
M  V30 16423 N 1923.01 -0.166818 1.56715 0
M  V30 16424 C 1924.25 -0.889157 1.84047 0
M  V30 16425 C 1924.61 -1.79232 0.688478 0
M  V30 16426 O 1925.81 -2.5526 0.842361 0
M  V30 16427 C 1924.08 -1.66005 3.16508 0
M  V30 16428 S 1925.64 -2.43054 3.65336 0
M  V30 16429 H 1922.46 -0.297718 0.645666 0
M  V30 16430 H 1925.06 -0.150479 1.9492 0
M  V30 16431 H 1923.77 -0.987677 3.98338 0
M  V30 16432 H 1923.3 -2.44002 3.08588 0
M  V30 16433 H 1925.31 -3.67847 3.33021 0
M  V30 16434 N 1924.49 -1.51463 -0.435524 0
M  V30 16435 C 1925.74 -1.63454 -1.18176 0
M  V30 16436 C 1926.05 -0.357501 -1.92305 0
M  V30 16437 O 1927.25 -0.356815 -2.69145 0
M  V30 16438 C 1925.71 -2.88676 -2.14928 0
M  V30 16439 C 1925.32 -4.23391 -1.46438 0
M  V30 16440 C 1927.06 -3.10025 -2.89974 0
M  V30 16441 C 1924.97 -5.39761 -2.41685 0
M  V30 16442 H 1923.9 -0.608812 -0.444819 0
M  V30 16443 H 1926.55 -1.77931 -0.448635 0
M  V30 16444 H 1924.93 -2.67837 -2.91683 0
M  V30 16445 H 1926.11 -4.54618 -0.75229 0
M  V30 16446 H 1924.42 -4.07934 -0.835385 0
M  V30 16447 H 1927.02 -3.9414 -3.61327 0
M  V30 16448 H 1927.36 -2.23177 -3.51423 0
M  V30 16449 H 1927.89 -3.31213 -2.20325 0
M  V30 16450 H 1924.63 -6.28875 -1.84922 0
M  V30 16451 H 1924.15 -5.12908 -3.10943 0
M  V30 16452 H 1925.83 -5.71783 -3.02776 0
M  V30 16453 N 1925.96 0.691085 -1.4164 0
M  V30 16454 C 1927.19 1.48481 -1.44804 0
M  V30 16455 C 1927.61 1.88016 -0.0561606 0
M  V30 16456 O 1926.97 1.54927 0.941657 0
M  V30 16457 C 1927.02 2.72083 -2.3665 0
M  V30 16458 O 1926.12 3.6974 -1.82663 0
M  V30 16459 H 1925.47 0.446714 -0.491267 0
M  V30 16460 H 1928 0.849076 -1.8615 0
M  V30 16461 H 1928.01 3.2034 -2.52678 0
M  V30 16462 H 1926.68 2.42645 -3.37781 0
M  V30 16463 H 1925.26 3.28695 -1.76108 0
M  V30 16464 N 1927.44 1.27542 0.925789 0
M  V30 16465 C 1928.41 1.10471 2.0082 0
M  V30 16466 C 1929.41 0.0481002 1.60728 0
M  V30 16467 O 1930.6 0.292857 1.71721 0
M  V30 16468 C 1927.73 0.683669 3.33974 0
M  V30 16469 H 1928.92 2.0659 2.17395 0
M  V30 16470 H 1926.47 1.10357 1.10684 0
M  V30 16471 H 1927.21 -0.278821 3.23099 0
M  V30 16472 H 1926.99 1.44679 3.64431 0
M  V30 16473 H 1928.48 0.586526 4.13461 0
M  V30 16474 N 1928.92 -1.13255 1.09595 0
M  V30 16475 C 1929.87 -2.20794 0.731624 0
M  V30 16476 C 1930.86 -1.67263 -0.268256 0
M  V30 16477 O 1932.07 -1.79533 -0.129535 0
M  V30 16478 H 1928.44 -0.719521 0.218618 0
M  V30 16479 H 1930.41 -2.48784 1.6477 0
M  V30 16480 C 1929.16 -3.47283 0.170214 0
M  V30 16481 H 1928.49 -3.88814 0.930805 0
M  V30 16482 H 1929.93 -4.23974 -0.0467499 0
M  V30 16483 C 1928.39 -3.18609 -1.09497 0
M  V30 16484 O 1928.92 -3.37534 -2.17793 0
M  V30 16485 N 1927.12 -2.72477 -1.01017 0
M  V30 16486 H 1926.67 -2.57278 -0.128814 0
M  V30 16487 H 1926.63 -2.53668 -1.85741 0
M  V30 16488 N 1930.4 -0.883401 -1.30514 0
M  V30 16489 C 1931.81 -0.55179 -1.7836 0
M  V30 16490 C 1932.16 0.93196 -1.72653 0
M  V30 16491 O 1931.29 1.72818 -1.30242 0
M  V30 16492 C 1931.88 -0.994845 -3.23865 0
M  V30 16493 C 1930.44 -0.714672 -3.69553 0
M  V30 16494 C 1929.59 -1.1787 -2.51002 0
M  V30 16495 H 1932.54 -1.06778 -1.17406 0
M  V30 16496 H 1932.56 -0.32315 -3.79125 0
M  V30 16497 H 1932.07 -2.07477 -3.27986 0
M  V30 16498 H 1930.17 0.353326 -3.70921 0
M  V30 16499 H 1930.28 -1.30112 -4.61094 0
M  V30 16500 H 1928.65 -0.598079 -2.47578 0
M  V30 16501 H 1929.43 -2.26633 -2.57862 0
M  V30 16502 N 1931.88 1.43833 -0.644194 0
M  V30 16503 C 1932.81 2.33467 0.0394911 0
M  V30 16504 C 1933.79 1.48957 0.821339 0
M  V30 16505 O 1934.97 1.77644 0.784618 0
M  V30 16506 C 1932.1 3.32205 1.01277 0
M  V30 16507 C 1931.06 4.26634 0.341666 0
M  V30 16508 C 1930.38 5.15341 1.42577 0
M  V30 16509 C 1931.68 5.16737 -0.760299 0
M  V30 16510 H 1933.38 2.90883 -0.709025 0
M  V30 16511 H 1930.92 1.3987 -0.342413 0
M  V30 16512 H 1932.88 3.93803 1.49991 0
M  V30 16513 H 1931.6 2.73025 1.79234 0
M  V30 16514 H 1930.26 3.66387 -0.124937 0
M  V30 16515 H 1929.91 4.52505 2.19654 0
M  V30 16516 H 1929.61 5.79336 0.98203 0
M  V30 16517 H 1931.13 5.79811 1.91444 0
M  V30 16518 H 1932.54 5.72195 -0.355713 0
M  V30 16519 H 1930.94 5.89404 -1.12796 0
M  V30 16520 H 1932.01 4.56966 -1.62204 0
M  V30 16521 N 1933.35 0.385544 1.52811 0
M  V30 16522 C 1934.3 -0.466338 2.27877 0
M  V30 16523 C 1935.3 -1.0663 1.31629 0
M  V30 16524 O 1936.5 -1.00721 1.49182 0
M  V30 16525 H 1932.88 -0.169137 0.732732 0
M  V30 16526 H 1934.85 0.188293 2.97805 0
M  V30 16527 C 1933.6 -1.58354 3.09547 0
M  V30 16528 H 1932.92 -1.13119 3.83463 0
M  V30 16529 H 1934.36 -2.1539 3.65216 0
M  V30 16530 C 1932.82 -2.53741 2.21624 0
M  V30 16531 O 1933.35 -3.57056 1.84048 0
M  V30 16532 N 1931.56 -2.23394 1.85859 0
M  V30 16533 H 1931.1 -1.39412 2.16615 0
M  V30 16534 H 1931.06 -2.87466 1.27321 0
M  V30 16535 N 1934.83 -1.57178 0.115259 0
M  V30 16536 C 1936.08 -1.95355 -0.54445 0
M  V30 16537 C 1936.41 -0.998445 -1.66567 0
M  V30 16538 O 1935.69 -0.0349993 -1.94469 0
M  V30 16539 C 1935.97 -3.43502 -1.08067 0
M  V30 16540 C 1935.82 -4.49785 0.0368794 0
M  V30 16541 C 1937.14 -3.9341 -1.97273 0
M  V30 16542 H 1934.26 -0.710338 -0.19644 0
M  V30 16543 H 1936.9 -1.89047 0.19006 0
M  V30 16544 H 1935.05 -3.49008 -1.70662 0
M  V30 16545 H 1936.72 -4.56379 0.672017 0
M  V30 16546 H 1934.97 -4.28106 0.700539 0
M  V30 16547 H 1935.64 -5.50694 -0.379481 0
M  V30 16548 H 1938.11 -3.90184 -1.44555 0
M  V30 16549 H 1936.99 -4.97596 -2.31711 0
M  V30 16550 H 1937.25 -3.33884 -2.89782 0
M  V30 16551 N 1936.31 0.158505 -1.56801 0
M  V30 16552 C 1937.72 0.71972 -1.7227 0
M  V30 16553 C 1938.07 1.822 -0.72784 0
M  V30 16554 O 1937.2 2.1613 0.108043 0
M  V30 16555 C 1937.79 1.31231 -3.12352 0
M  V30 16556 C 1936.35 1.82021 -3.29462 0
M  V30 16557 C 1935.5 0.704157 -2.68211 0
M  V30 16558 H 1938.45 -0.0670395 -1.58558 0
M  V30 16559 H 1938.47 2.18208 -3.11714 0
M  V30 16560 H 1937.98 0.509823 -3.84737 0
M  V30 16561 H 1936.08 2.64873 -2.62056 0
M  V30 16562 H 1936.2 1.95684 -4.37315 0
M  V30 16563 H 1934.56 1.12787 -2.28366 0
M  V30 16564 H 1935.34 -0.0866929 -3.43191 0
M  V30 16565 N 1937.79 1.51692 0.427485 0
M  V30 16566 C 1939.21 1.40086 0.764726 0
M  V30 16567 C 1939.41 0.490917 1.95428 0
M  V30 16568 O 1938.46 -0.0502236 2.5245 0
M  V30 16569 C 1939.77 2.82295 1.03586 0
M  V30 16570 C 1941.32 2.91513 1.1397 0
M  V30 16571 C 1941.8 4.34651 1.44371 0
M  V30 16572 N 1943.29 4.37802 1.51274 0
M  V30 16573 C 1944.02 5.45596 1.76388 0
M  V30 16574 N 1943.52 6.63536 1.99228 0
M  V30 16575 N 1945.31 5.33088 1.78252 0
M  V30 16576 H 1937.46 2.09399 -0.355809 0
M  V30 16577 H 1939.73 0.943043 -0.0968225 0
M  V30 16578 H 1939.43 3.50918 0.234369 0
M  V30 16579 H 1939.31 3.22223 1.96092 0
M  V30 16580 H 1941.69 2.23082 1.9318 0
M  V30 16581 H 1941.77 2.55068 0.193426 0
M  V30 16582 H 1941.42 5.03635 0.656841 0
M  V30 16583 H 1941.35 4.68617 2.4022 0
M  V30 16584 H 1943.84 3.52777 1.35487 0
M  V30 16585 H 1944.15 7.41477 2.17789 0
M  V30 16586 H 1942.5 6.66634 1.9653 0
M  V30 16587 H 1945.69 4.39931 1.59933 0
M  V30 16588 H 1945.86 6.17174 1.97486 0
M  V30 16589 N 1939.27 -0.683564 1.42004 0
M  V30 16590 C 1940.21 -1.7973 1.44796 0
M  V30 16591 C 1941.18 -1.63352 0.300905 0
M  V30 16592 O 1942.37 -1.84031 0.503707 0
M  V30 16593 C 1939.51 -3.17701 1.34758 0
M  V30 16594 C 1938.62 -3.45428 2.59429 0
M  V30 16595 C 1937.76 -4.73079 2.41598 0
M  V30 16596 C 1936.8 -4.93812 3.61685 0
M  V30 16597 N 1935.93 -6.12698 3.4285 0
M  V30 16598 H 1940.77 -1.76679 2.39976 0
M  V30 16599 H 1938.31 -0.862624 1.19152 0
M  V30 16600 H 1940.27 -3.9742 1.26938 0
M  V30 16601 H 1938.9 -3.19899 0.431785 0
M  V30 16602 H 1937.95 -2.60027 2.77651 0
M  V30 16603 H 1939.26 -3.56645 3.48721 0
M  V30 16604 H 1938.42 -5.60873 2.31314 0
M  V30 16605 H 1937.16 -4.6413 1.49782 0
M  V30 16606 H 1936.16 -4.04463 3.72411 0
M  V30 16607 H 1937.39 -5.04612 4.5447 0
M  V30 16608 H 1935.33 -6.04938 2.53744 0
M  V30 16609 H 1935.25 -6.24736 4.25724 0
M  V30 16610 H 1936.52 -7.03194 3.36361 0
M  V30 16611 N 1940.75 -1.28031 -0.919012 0
M  V30 16612 C 1941.7 -1.08151 -2.00717 0
M  V30 16613 C 1942.68 -0.00679124 -1.60899 0
M  V30 16614 O 1943.87 -0.226329 -1.75547 0
M  V30 16615 C 1941 -0.739868 -3.35233 0
M  V30 16616 C 1940.09 -1.85317 -3.81469 0
M  V30 16617 N 1940.48 -3.09403 -4.00129 0
M  V30 16618 C 1938.78 -1.74182 -4.10581 0
M  V30 16619 C 1939.48 -3.81909 -4.38772 0
M  V30 16620 N 1938.45 -3.09725 -4.46734 0
M  V30 16621 H 1942.25 -2.02308 -2.13187 0
M  V30 16622 H 1939.77 -1.18873 -1.10648 0
M  V30 16623 H 1941.77 -0.578538 -4.12866 0
M  V30 16624 H 1940.43 0.193987 -3.2412 0
M  V30 16625 H 1941.44 -3.45071 -3.86195 0
M  V30 16626 H 1938.11 -0.879386 -4.08134 0
M  V30 16627 H 1939.5 -4.886 -4.61216 0
M  V30 16628 N 1942.22 1.12672 -1.10194 0
M  V30 16629 C 1943.47 1.84605 -0.85397 0
M  V30 16630 C 1943.82 1.82345 0.613845 0
M  V30 16631 O 1943.12 1.25627 1.44667 0
M  V30 16632 C 1943.31 3.31602 -1.33322 0
M  V30 16633 C 1943.14 3.48177 -2.8461 0
M  V30 16634 C 1941.91 3.61958 -3.52582 0
M  V30 16635 C 1944.11 3.43553 -3.82722 0
M  V30 16636 N 1942.09 3.66874 -4.92216 0
M  V30 16637 C 1943.46 3.54933 -5.08352 0
M  V30 16638 C 1945.52 3.27003 -3.75465 0
M  V30 16639 C 1944.22 3.51472 -6.27583 0
M  V30 16640 C 1946.25 3.24853 -4.94191 0
M  V30 16641 C 1945.61 3.36792 -6.18669 0
M  V30 16642 H 1941.71 0.69135 -0.365458 0
M  V30 16643 H 1944.29 1.3491 -1.40383 0
M  V30 16644 H 1942.46 3.79845 -0.810711 0
M  V30 16645 H 1944.19 3.9138 -1.02975 0
M  V30 16646 H 1940.95 3.63969 -3.03024 0
M  V30 16647 H 1941.37 3.73003 -5.64976 0
M  V30 16648 H 1946.01 3.16668 -2.80145 0
M  V30 16649 H 1943.73 3.60577 -7.23194 0
M  V30 16650 H 1947.32 3.13232 -4.90282 0
M  V30 16651 H 1946.2 3.35099 -7.08998 0
M  V30 16652 N 1943.7 0.89031 1.30043 0
M  V30 16653 C 1944.95 0.521592 1.96599 0
M  V30 16654 C 1945.3 -0.920162 1.6897 0
M  V30 16655 O 1944.6 -1.64226 0.986941 0
M  V30 16656 C 1944.79 0.739209 3.49672 0
M  V30 16657 C 1944.62 2.20056 3.9218 0
M  V30 16658 C 1943.39 2.84618 4.17517 0
M  V30 16659 C 1945.59 3.17488 4.04605 0
M  V30 16660 N 1943.57 4.21295 4.46525 0
M  V30 16661 C 1944.94 4.39254 4.37557 0
M  V30 16662 C 1946.99 3.13205 3.87049 0
M  V30 16663 C 1945.7 5.57284 4.54782 0
M  V30 16664 C 1947.72 4.30512 4.05479 0
M  V30 16665 C 1947.09 5.51045 4.38781 0
M  V30 16666 H 1943.18 0.240293 0.744166 0
M  V30 16667 H 1945.77 1.14916 1.5717 0
M  V30 16668 H 1943.94 0.141088 3.88144 0
M  V30 16669 H 1945.67 0.33686 4.03296 0
M  V30 16670 H 1942.43 2.35459 4.10921 0
M  V30 16671 H 1942.85 4.91896 4.65153 0
M  V30 16672 H 1947.49 2.21112 3.60374 0
M  V30 16673 H 1945.21 6.49877 4.80298 0
M  V30 16674 H 1948.8 4.28674 3.93358 0
M  V30 16675 H 1947.68 6.40304 4.52747 0
M  V30 16676 N 1945.18 -1.43489 0.651812 0
M  V30 16677 C 1946.41 -2.06181 0.172334 0
M  V30 16678 C 1946.82 -1.48848 -1.16145 0
M  V30 16679 O 1946.18 -0.619246 -1.71673 0
M  V30 16680 C 1946.23 -3.61425 0.0737039 0
M  V30 16681 O 1945.95 -4.16627 1.35476 0
M  V30 16682 C 1947.45 -4.4119 -0.432019 0
M  V30 16683 H 1944.67 -0.665039 0.0892394 0
M  V30 16684 H 1947.22 -1.84018 0.892063 0
M  V30 16685 H 1945.37 -3.82779 -0.596577 0
M  V30 16686 H 1945.79 -5.1028 1.21305 0
M  V30 16687 H 1947.26 -5.50163 -0.449989 0
M  V30 16688 H 1947.74 -4.14115 -1.46306 0
M  V30 16689 H 1948.34 -4.24802 0.205721 0
M  V30 16690 N 1946.66 -0.393643 -1.52605 0
M  V30 16691 C 1947.93 0.244939 -1.9406 0
M  V30 16692 C 1948.31 1.63981 -1.32942 0
M  V30 16693 O 1947.66 2.2298 -0.499195 0
M  V30 16694 C 1947.87 0.266912 -3.47978 0
M  V30 16695 C 1949.22 0.493768 -4.21719 0
M  V30 16696 O 1950.24 0.346936 -3.54506 0
M  V30 16697 O 1949.1 0.78183 -5.40879 0
M  V30 16698 H 1946.2 0.153387 -0.812651 0
M  V30 16699 H 1948.74 -0.448465 -1.63667 0
M  V30 16700 H 1947.52 -0.709958 -3.84806 0
M  V30 16701 H 1947.14 1.00506 -3.84687 0
M  V30 16702 N 1948.14 1.57115 -0.123593 0
M  V30 16703 C 1949.36 2.00133 0.544196 0
M  V30 16704 C 1949.79 1.00282 1.59139 0
M  V30 16705 O 1949.14 -0.0248396 1.81283 0
M  V30 16706 C 1949.19 3.4201 1.14287 0
M  V30 16707 O 1948.3 3.45071 2.25832 0
M  V30 16708 H 1947.64 0.650029 0.135492 0
M  V30 16709 H 1950.17 2.03484 -0.213423 0
M  V30 16710 H 1950.18 3.80316 1.47728 0
M  V30 16711 H 1948.85 4.14198 0.375866 0
M  V30 16712 H 1947.43 3.18587 1.93795 0
M  V30 16713 N 1949.61 -0.150187 1.56883 0
M  V30 16714 C 1950.84 -0.88235 1.87695 0
M  V30 16715 C 1951.26 -1.74093 0.712272 0
M  V30 16716 O 1950.62 -1.78118 -0.338207 0
M  V30 16717 C 1950.67 -1.71754 3.1707 0
M  V30 16718 O 1949.77 -2.82145 3.00779 0
M  V30 16719 H 1949.11 -0.245947 0.616771 0
M  V30 16720 H 1951.64 -0.141963 2.04107 0
M  V30 16721 H 1951.65 -2.1132 3.4901 0
M  V30 16722 H 1950.33 -1.08704 4.01443 0
M  V30 16723 H 1948.91 -2.46008 2.8024 0
M  V30 16724 N 1951.09 -1.51916 -0.419434 0
M  V30 16725 C 1952.06 -1.73908 -1.49293 0
M  V30 16726 C 1953.06 -0.60898 -1.48822 0
M  V30 16727 O 1954.25 -0.876745 -1.50528 0
M  V30 16728 C 1951.38 -1.812 -2.88755 0
M  V30 16729 H 1952.57 -2.69732 -1.3109 0
M  V30 16730 H 1950.12 -1.42176 -0.649274 0
M  V30 16731 H 1950.86 -0.872544 -3.12341 0
M  V30 16732 H 1950.64 -2.63348 -2.905 0
M  V30 16733 H 1952.13 -1.99992 -3.66596 0
M  V30 16734 N 1952.57 0.676023 -1.42365 0
M  V30 16735 C 1953.48 1.81906 -1.48147 0
M  V30 16736 C 1954.5 1.70014 -0.37032 0
M  V30 16737 O 1955.67 1.91586 -0.621036 0
M  V30 16738 C 1952.74 3.18039 -1.38029 0
M  V30 16739 C 1951.8 3.41897 -2.59625 0
M  V30 16740 C 1951.03 4.71536 -2.4998 0
M  V30 16741 O 1951.25 5.49358 -1.535 0
M  V30 16742 O 1950.19 4.9661 -3.40091 0
M  V30 16743 H 1954.01 1.79984 -2.44621 0
M  V30 16744 H 1951.6 0.831611 -1.24115 0
M  V30 16745 H 1953.48 3.99277 -1.34743 0
M  V30 16746 H 1952.16 3.20602 -0.446789 0
M  V30 16747 H 1951.06 2.60512 -2.68485 0
M  V30 16748 H 1952.4 3.44164 -3.51869 0
M  V30 16749 N 1954.05 1.28517 0.912209 0
M  V30 16750 C 1955 1.12575 2.01483 0
M  V30 16751 C 1955.97 0.0224628 1.66085 0
M  V30 16752 O 1957.15 0.18768 1.89875 0
M  V30 16753 C 1954.29 0.795229 3.35813 0
M  V30 16754 C 1953.4 1.97772 3.84071 0
M  V30 16755 C 1952.54 1.58768 5.06918 0
M  V30 16756 C 1951.58 2.73672 5.47513 0
M  V30 16757 N 1950.71 2.3515 6.6155 0
M  V30 16758 H 1955.55 2.06918 2.1445 0
M  V30 16759 H 1953.09 1.02983 1.05037 0
M  V30 16760 H 1955.05 0.584339 4.13088 0
M  V30 16761 H 1953.68 -0.111266 3.22608 0
M  V30 16762 H 1952.73 2.30069 3.0294 0
M  V30 16763 H 1954.04 2.83913 4.10115 0
M  V30 16764 H 1953.2 1.33894 5.91741 0
M  V30 16765 H 1951.94 0.697566 4.82686 0
M  V30 16766 H 1950.94 2.99242 4.61231 0
M  V30 16767 H 1952.17 3.63328 5.73733 0
M  V30 16768 H 1950.11 1.4861 6.38945 0
M  V30 16769 H 1950.03 3.14827 6.87328 0
M  V30 16770 H 1951.3 2.13564 7.49674 0
M  V30 16771 N 1955.53 -1.12086 1.1079 0
M  V30 16772 C 1956.47 -2.17926 0.760064 0
M  V30 16773 C 1957.44 -1.63967 -0.265316 0
M  V30 16774 O 1958.63 -1.90258 -0.143764 0
M  V30 16775 C 1955.77 -3.44508 0.202045 0
M  V30 16776 C 1954.88 -4.12503 1.28317 0
M  V30 16777 C 1954.02 -5.26747 0.686406 0
M  V30 16778 C 1953.06 -5.86614 1.74785 0
M  V30 16779 N 1952.19 -6.92264 1.17108 0
M  V30 16780 H 1957.03 -2.47025 1.66681 0
M  V30 16781 H 1954.57 -1.21275 0.832507 0
M  V30 16782 H 1956.53 -4.16967 -0.139401 0
M  V30 16783 H 1955.16 -3.15814 -0.667918 0
M  V30 16784 H 1954.21 -3.38186 1.74168 0
M  V30 16785 H 1955.52 -4.53063 2.08651 0
M  V30 16786 H 1954.68 -6.05984 0.294621 0
M  V30 16787 H 1953.41 -4.87474 -0.148334 0
M  V30 16788 H 1952.42 -5.0606 2.14902 0
M  V30 16789 H 1953.64 -6.27956 2.5855 0
M  V30 16790 H 1951.59 -6.55023 0.35787 0
M  V30 16791 H 1951.51 -7.31443 1.91122 0
M  V30 16792 H 1952.78 -7.75322 0.805966 0
M  V30 16793 N 1957 -0.897194 -1.29569 0
M  V30 16794 C 1957.95 -0.344408 -2.25384 0
M  V30 16795 C 1958.94 0.534097 -1.51777 0
M  V30 16796 O 1960.13 0.376524 -1.72949 0
M  V30 16797 C 1957.26 0.429246 -3.40606 0
M  V30 16798 C 1956.35 -0.464038 -4.21554 0
M  V30 16799 N 1956.74 -1.57011 -4.80813 0
M  V30 16800 C 1955.03 -0.26137 -4.45233 0
M  V30 16801 C 1955.74 -2.12323 -5.41566 0
M  V30 16802 N 1954.71 -1.41659 -5.24818 0
M  V30 16803 H 1958.51 -1.18938 -2.68758 0
M  V30 16804 H 1956.03 -0.747965 -1.4415 0
M  V30 16805 H 1958.02 0.84199 -4.08309 0
M  V30 16806 H 1956.68 1.27151 -2.98769 0
M  V30 16807 H 1957.7 -1.95287 -4.7967 0
M  V30 16808 H 1954.37 0.542726 -4.13957 0
M  V30 16809 H 1955.76 -3.05274 -5.98546 0
M  V30 16810 N 1958.48 1.43142 -0.659413 0
M  V30 16811 C 1959.73 2.02038 -0.175593 0
M  V30 16812 C 1960.06 1.5194 1.20946 0
M  V30 16813 O 1959.34 0.715095 1.80877 0
M  V30 16814 C 1959.62 3.59581 -0.193256 0
M  V30 16815 C 1959.47 4.19896 -1.61267 0
M  V30 16816 C 1960.79 4.37616 0.466976 0
M  V30 16817 H 1957.91 0.734103 -0.0652811 0
M  V30 16818 H 1960.55 1.7036 -0.841276 0
M  V30 16819 H 1958.7 3.867 0.373574 0
M  V30 16820 H 1960.37 4.03786 -2.23056 0
M  V30 16821 H 1958.62 3.7631 -2.15807 0
M  V30 16822 H 1959.29 5.28999 -1.57683 0
M  V30 16823 H 1961.76 4.16097 -0.0153667 0
M  V30 16824 H 1960.64 5.47261 0.423915 0
M  V30 16825 H 1960.9 4.14332 1.54211 0
M  V30 16826 N 1959.96 0.40173 1.52394 0
M  V30 16827 C 1961.21 -0.169136 2.02696 0
M  V30 16828 C 1961.56 -1.4343 1.28241 0
M  V30 16829 O 1960.85 -1.87836 0.377919 0
M  V30 16830 C 1961.05 -0.478372 3.54184 0
M  V30 16831 C 1960.88 0.755269 4.43312 0
M  V30 16832 C 1959.65 1.27826 4.88865 0
M  V30 16833 C 1961.85 1.63123 4.87745 0
M  V30 16834 N 1959.83 2.46816 5.62099 0
M  V30 16835 C 1961.2 2.66744 5.59685 0
M  V30 16836 C 1963.25 1.64986 4.6977 0
M  V30 16837 C 1961.96 3.72129 6.15559 0
M  V30 16838 C 1963.98 2.69286 5.26535 0
M  V30 16839 C 1963.34 3.71627 5.98392 0
M  V30 16840 H 1959.44 -0.0236524 0.781642 0
M  V30 16841 H 1962.03 0.554415 1.8664 0
M  V30 16842 H 1960.2 -1.17097 3.70328 0
M  V30 16843 H 1961.93 -1.03747 3.91176 0
M  V30 16844 H 1958.69 0.837395 4.66138 0
M  V30 16845 H 1959.11 3.07056 6.03362 0
M  V30 16846 H 1963.75 0.87206 4.13709 0
M  V30 16847 H 1961.47 4.50769 6.70696 0
M  V30 16848 H 1965.06 2.71626 5.145 0
M  V30 16849 H 1963.94 4.51008 6.4153 0
M  V30 16850 N 1961.44 -1.57047 0.131923 0
M  V30 16851 C 1962.69 -1.95632 -0.522925 0
M  V30 16852 C 1963.01 -1.01597 -1.65856 0
M  V30 16853 O 1962.27 -0.0422719 -1.95654 0
M  V30 16854 C 1962.57 -3.4056 -1.08413 0
M  V30 16855 C 1962.23 -4.50848 -0.0685085 0
M  V30 16856 C 1960.9 -4.80738 0.210726 0
M  V30 16857 C 1963.25 -5.17464 0.622935 0
M  V30 16858 C 1960.58 -5.74557 1.18747 0
M  V30 16859 C 1962.93 -6.12334 1.58839 0
M  V30 16860 C 1961.59 -6.40611 1.87548 0
M  V30 16861 H 1960.86 -0.715867 -0.191352 0
M  V30 16862 H 1963.51 -1.90283 0.215565 0
M  V30 16863 H 1961.81 -3.42667 -1.89965 0
M  V30 16864 H 1963.51 -3.67734 -1.59914 0
M  V30 16865 H 1960.1 -4.27574 -0.29633 0
M  V30 16866 H 1964.28 -4.94516 0.420386 0
M  V30 16867 H 1959.54 -5.94765 1.4165 0
M  V30 16868 H 1963.71 -6.63034 2.12977 0
M  V30 16869 H 1961.34 -7.13114 2.63387 0
M  V30 16870 N 1962.92 0.141865 -1.5696 0
M  V30 16871 C 1964.16 0.851923 -1.83267 0
M  V30 16872 C 1964.49 1.81473 -0.713611 0
M  V30 16873 O 1963.76 1.94109 0.264326 0
M  V30 16874 H 1962.34 0.317594 -0.676124 0
M  V30 16875 H 1965 0.134643 -1.94434 0
M  V30 16876 H 1964.09 1.41106 -2.7838 0
M  V30 16877 N 1964.39 1.52136 0.411372 0
M  V30 16878 C 1965.3 1.78205 1.52579 0
M  V30 16879 C 1966.32 0.667501 1.60687 0
M  V30 16880 O 1967.5 0.952661 1.77444 0
M  V30 16881 C 1964.56 1.9252 2.88335 0
M  V30 16882 C 1963.62 3.16421 2.90131 0
M  V30 16883 C 1962.86 3.30044 4.19412 0
M  V30 16884 O 1963.08 2.48985 5.13189 0
M  V30 16885 O 1962.01 4.23182 4.2802 0
M  V30 16886 H 1965.84 2.72791 1.33487 0
M  V30 16887 H 1963.42 1.36953 0.597004 0
M  V30 16888 H 1965.31 2.03771 3.68857 0
M  V30 16889 H 1963.98 1.01123 3.07499 0
M  V30 16890 H 1962.89 3.1063 2.08471 0
M  V30 16891 H 1964.22 4.07592 2.75916 0
M  V30 16892 N 1965.87 -0.668464 1.42721 0
M  V30 16893 C 1967.1 -1.46158 1.47148 0
M  V30 16894 C 1967.52 -1.87903 0.0860652 0
M  V30 16895 O 1966.88 -1.56406 -0.91689 0
M  V30 16896 C 1966.93 -2.68284 2.40949 0
M  V30 16897 O 1966.03 -3.66787 1.88522 0
M  V30 16898 H 1965.37 -0.438842 0.498311 0
M  V30 16899 H 1967.9 -0.819353 1.87477 0
M  V30 16900 H 1967.91 -3.1628 2.57742 0
M  V30 16901 H 1966.59 -2.3724 3.41599 0
M  V30 16902 H 1965.17 -3.25851 1.81315 0
M  V30 16903 N 1967.35 -1.28999 -0.905381 0
M  V30 16904 C 1968.28 -1.07966 -2.01044 0
M  V30 16905 C 1969.26 0.00678474 -1.62599 0
M  V30 16906 O 1970.45 -0.142798 -1.87958 0
M  V30 16907 C 1967.57 -0.642417 -3.32552 0
M  V30 16908 C 1966.62 -1.72673 -3.89982 0
M  V30 16909 S 1967.45 -3.32466 -4.19794 0
M  V30 16910 C 1968.61 -2.90596 -5.54351 0
M  V30 16911 H 1968.84 -2.01523 -2.18576 0
M  V30 16912 H 1966.37 -1.13081 -1.05128 0
M  V30 16913 H 1968.33 -0.396855 -4.08577 0
M  V30 16914 H 1966.99 0.273463 -3.12907 0
M  V30 16915 H 1966.19 -1.37261 -4.84949 0
M  V30 16916 H 1965.79 -1.92552 -3.20624 0
M  V30 16917 H 1968.08 -2.37288 -6.34587 0
M  V30 16918 H 1969.02 -3.84392 -5.94683 0
M  V30 16919 H 1969.43 -2.2906 -5.15938 0
M  V30 16920 N 1968.83 1.11497 -1.11383 0
M  V30 16921 C 1970.11 1.79631 -0.774086 0
M  V30 16922 C 1970.49 1.97781 0.737951 0
M  V30 16923 O 1969.83 1.56202 1.66773 0
M  V30 16924 C 1970.04 3.13357 -1.53649 0
M  V30 16925 C 1971.39 3.88407 -1.71538 0
M  V30 16926 O 1972.42 3.23045 -1.50069 0
M  V30 16927 O 1971.28 5.05694 -2.07209 0
M  V30 16928 H 1968.37 0.778022 -0.280376 0
M  V30 16929 H 1970.92 1.18245 -1.21722 0
M  V30 16930 H 1969.69 2.95498 -2.56509 0
M  V30 16931 H 1969.31 3.82456 -1.08688 0
M  V30 16932 N 1970.31 0.904053 1.29092 0
M  V30 16933 C 1971.56 0.531152 1.94995 0
M  V30 16934 C 1971.88 -0.926415 1.71588 0
M  V30 16935 O 1971.15 -1.65378 1.0501 0
M  V30 16936 H 1969.73 0.193439 0.721519 0
M  V30 16937 H 1972.39 1.1513 1.57262 0
M  V30 16938 H 1971.48 0.717412 3.03743 0
M  V30 16939 N 1971.79 -1.4279 0.666995 0
M  V30 16940 C 1973.03 -2.01245 0.185662 0
M  V30 16941 C 1973.35 -1.52966 -1.2094 0
M  V30 16942 O 1972.62 -0.748036 -1.81056 0
M  V30 16943 H 1971.2 -0.74411 0.0656484 0
M  V30 16944 H 1973.87 -1.74814 0.861754 0
M  V30 16945 H 1972.96 -3.11575 0.180905 0
M  V30 16946 N 1973.26 -0.409806 -1.52179 0
M  V30 16947 C 1974.51 0.165758 -2.0182 0
M  V30 16948 C 1974.84 1.45086 -1.29539 0
M  V30 16949 O 1974.09 1.91766 -0.390424 0
M  V30 16950 C 1974.39 0.459582 -3.54433 0
M  V30 16951 C 1974.06 -0.7364 -4.44846 0
M  V30 16952 C 1972.72 -1.06445 -4.69279 0
M  V30 16953 C 1975.07 -1.53553 -4.98067 0
M  V30 16954 C 1972.4 -2.19281 -5.44181 0
M  V30 16955 C 1974.75 -2.65467 -5.74204 0
M  V30 16956 C 1973.42 -2.98757 -5.96909 0
M  V30 16957 H 1972.69 0.0606551 -0.738513 0
M  V30 16958 H 1975.33 -0.551364 -1.83391 0
M  V30 16959 H 1973.64 1.25828 -3.71045 0
M  V30 16960 H 1975.34 0.917888 -3.90353 0
M  V30 16961 H 1971.93 -0.470734 -4.26007 0
M  V30 16962 H 1976.11 -1.29532 -4.79098 0
M  V30 16963 H 1971.37 -2.4542 -5.59981 0
M  V30 16964 H 1975.54 -3.27776 -6.14439 0
M  V30 16965 H 1973.17 -3.86307 -6.5473 0
M  V30 16966 N 1974.74 1.56975 -0.14025 0
M  V30 16967 C 1975.67 2.13532 0.832862 0
M  V30 16968 C 1976.69 1.08312 1.21542 0
M  V30 16969 O 1977.88 1.35613 1.16067 0
M  V30 16970 C 1974.98 2.63756 2.12806 0
M  V30 16971 C 1974.15 3.93304 1.91392 0
M  V30 16972 C 1973.21 4.28907 3.04837 0
M  V30 16973 O 1972.23 4.97351 2.76822 0
M  V30 16974 N 1973.44 3.87941 4.31835 0
M  V30 16975 H 1976.2 2.97655 0.349525 0
M  V30 16976 H 1973.76 1.61841 0.0435313 0
M  V30 16977 H 1975.75 2.8459 2.87734 0
M  V30 16978 H 1974.32 1.84395 2.52423 0
M  V30 16979 H 1973.54 3.81164 1.00538 0
M  V30 16980 H 1974.83 4.77972 1.74414 0
M  V30 16981 H 1974.23 3.32779 4.57466 0
M  V30 16982 H 1972.79 4.13841 5.03566 0
M  V30 16983 N 1976.22 -0.133539 1.57033 0
M  V30 16984 C 1977.47 -0.843859 1.8408 0
M  V30 16985 C 1977.79 -1.80556 0.723177 0
M  V30 16986 O 1977.05 -1.93588 -0.286718 0
M  V30 16987 C 1977.35 -1.64036 3.17533 0
M  V30 16988 C 1977.01 -0.82425 4.43302 0
M  V30 16989 C 1975.68 -0.599146 4.77455 0
M  V30 16990 C 1978.03 -0.254425 5.20579 0
M  V30 16991 C 1975.36 0.206272 5.86337 0
M  V30 16992 C 1977.71 0.538105 6.30307 0
M  V30 16993 C 1976.37 0.773661 6.63001 0
M  V30 16994 H 1975.64 -0.30879 0.673595 0
M  V30 16995 H 1978.29 -0.106868 1.91202 0
M  V30 16996 H 1976.59 -2.44784 3.05921 0
M  V30 16997 H 1978.29 -2.19367 3.35677 0
M  V30 16998 H 1974.88 -1.00978 4.16535 0
M  V30 16999 H 1979.07 -0.415584 4.94557 0
M  V30 17000 H 1974.32 0.398139 6.10102 0
M  V30 17001 H 1978.5 0.986708 6.89374 0
M  V30 17002 H 1976.12 1.3996 7.47205 0
M  V30 17003 N 1977.7 -1.52352 -0.403298 0
M  V30 17004 C 1978.92 -1.70849 -1.17582 0
M  V30 17005 C 1979.35 -0.419696 -1.83358 0
M  V30 17006 O 1978.71 0.623346 -1.70247 0
M  V30 17007 C 1978.75 -2.8492 -2.21027 0
M  V30 17008 O 1977.86 -2.50896 -3.273 0
M  V30 17009 H 1977.2 -0.568568 -0.342967 0
M  V30 17010 H 1979.73 -1.99082 -0.471975 0
M  V30 17011 H 1979.74 -3.10002 -2.6526 0
M  V30 17012 H 1978.41 -3.78423 -1.72536 0
M  V30 17013 H 1976.99 -2.36506 -2.88304 0
M  V30 17014 N 1979.18 0.660885 -1.43074 0
M  V30 17015 C 1980.41 1.44668 -1.47495 0
M  V30 17016 C 1980.81 1.8899 -0.0890316 0
M  V30 17017 O 1980.16 1.59607 0.90946 0
M  V30 17018 C 1980.22 2.71909 -2.35171 0
M  V30 17019 C 1979.88 2.49576 -3.82833 0
M  V30 17020 C 1980.88 2.13286 -4.74136 0
M  V30 17021 C 1978.56 2.64138 -4.27243 0
M  V30 17022 C 1980.56 1.91846 -6.07844 0
M  V30 17023 C 1978.25 2.42313 -5.61006 0
M  V30 17024 C 1979.24 2.06222 -6.51123 0
M  V30 17025 O 1978.93 1.84619 -7.82414 0
M  V30 17026 H 1978.66 0.451167 -0.503412 0
M  V30 17027 H 1981.22 0.81822 -1.88399 0
M  V30 17028 H 1979.45 3.37287 -1.89141 0
M  V30 17029 H 1981.14 3.33836 -2.30885 0
M  V30 17030 H 1981.9 2.01619 -4.41106 0
M  V30 17031 H 1977.78 2.91206 -3.5738 0
M  V30 17032 H 1981.33 1.63599 -6.78145 0
M  V30 17033 H 1977.22 2.53581 -5.93605 0
M  V30 17034 H 1977.99 1.99106 -7.93914 0
M  V30 17035 N 1980.65 1.29477 0.898527 0
M  V30 17036 C 1981.9 1.17284 1.64587 0
M  V30 17037 C 1982.22 -0.275718 1.93041 0
M  V30 17038 O 1981.49 -1.18847 1.55731 0
M  V30 17039 H 1980.07 0.431068 0.610073 0
M  V30 17040 H 1982.74 1.62419 1.07732 0
M  V30 17041 H 1981.83 1.72375 2.60179 0
M  V30 17042 N 1982.13 -1.10905 1.11972 0
M  V30 17043 C 1983.08 -2.19193 0.778293 0
M  V30 17044 C 1984.07 -1.67794 -0.232717 0
M  V30 17045 O 1985.28 -1.79768 -0.0914242 0
M  V30 17046 H 1981.66 -0.714722 0.23383 0
M  V30 17047 H 1983.63 -2.45233 1.7001 0
M  V30 17048 C 1982.38 -3.46844 0.24384 0
M  V30 17049 H 1981.7 -3.86752 1.01307 0
M  V30 17050 H 1983.14 -4.23978 0.0431918 0
M  V30 17051 C 1981.6 -3.2086 -1.02714 0
M  V30 17052 O 1982.13 -3.42078 -2.10584 0
M  V30 17053 N 1980.33 -2.74559 -0.952145 0
M  V30 17054 H 1979.88 -2.57493 -0.0742122 0
M  V30 17055 H 1979.84 -2.57551 -1.80319 0
M  V30 17056 N 1983.61 -0.910886 -1.2861 0
M  V30 17057 C 1985.02 -0.589499 -1.77149 0
M  V30 17058 C 1985.37 0.895128 -1.74591 0
M  V30 17059 O 1984.5 1.70016 -1.33879 0
M  V30 17060 C 1985.09 -1.06332 -3.21682 0
M  V30 17061 C 1983.65 -0.792899 -3.67954 0
M  V30 17062 C 1982.8 -1.23167 -2.48445 0
M  V30 17063 H 1985.75 -1.09245 -1.15114 0
M  V30 17064 H 1985.77 -0.403495 -3.78355 0
M  V30 17065 H 1985.28 -2.14387 -3.23512 0
M  V30 17066 H 1983.38 0.274569 -3.71587 0
M  V30 17067 H 1983.5 -1.39863 -4.5823 0
M  V30 17068 H 1981.86 -0.650459 -2.46254 0
M  V30 17069 H 1982.64 -2.32051 -2.52996 0
M  V30 17070 N 1985.09 1.42434 -0.674558 0
M  V30 17071 C 1986 2.346 0.00398919 0
M  V30 17072 C 1987.01 1.55078 0.789109 0
M  V30 17073 O 1988.19 1.87647 0.731485 0
M  V30 17074 C 1985.26 3.33607 0.94379 0
M  V30 17075 C 1984.32 4.29026 0.153229 0
M  V30 17076 C 1983.55 5.23304 1.04827 0
M  V30 17077 O 1983.77 5.2251 2.28779 0
M  V30 17078 O 1982.71 5.99742 0.509202 0
M  V30 17079 H 1986.53 2.94161 -0.755189 0
M  V30 17080 H 1984.12 1.42933 -0.434794 0
M  V30 17081 H 1986 3.94431 1.4833 0
M  V30 17082 H 1984.67 2.76519 1.68282 0
M  V30 17083 H 1983.58 3.71616 -0.430381 0
M  V30 17084 H 1984.91 4.89155 -0.546686 0
M  V30 17085 N 1986.57 0.417871 1.51959 0
M  V30 17086 C 1987.5 -0.394222 2.30148 0
M  V30 17087 C 1988.48 -1.0384 1.34727 0
M  V30 17088 O 1989.66 -1.04575 1.63639 0
M  V30 17089 C 1986.79 -1.50639 3.1293 0
M  V30 17090 C 1985.75 -0.986759 4.1647 0
M  V30 17091 C 1985.07 -2.1932 4.8765 0
M  V30 17092 C 1986.37 -0.0347019 5.22288 0
M  V30 17093 H 1988.07 0.258228 2.98284 0
M  V30 17094 H 1985.61 0.125633 1.43451 0
M  V30 17095 H 1987.57 -2.08157 3.664 0
M  V30 17096 H 1986.29 -2.18685 2.42579 0
M  V30 17097 H 1984.95 -0.43393 3.64023 0
M  V30 17098 H 1984.6 -2.8594 4.1382 0
M  V30 17099 H 1984.3 -1.85199 5.57652 0
M  V30 17100 H 1985.82 -2.77427 5.43936 0
M  V30 17101 H 1987.23 -0.518951 5.70946 0
M  V30 17102 H 1985.63 0.218124 5.99703 0
M  V30 17103 H 1986.7 0.907947 4.76324 0
M  V30 17104 N 1988.04 -1.56898 0.148573 0
M  V30 17105 C 1989.46 -1.82957 -0.371991 0
M  V30 17106 C 1989.81 -1.06735 -1.64627 0
M  V30 17107 O 1988.93 -0.313128 -2.14123 0
M  V30 17108 C 1989.53 -3.31871 -0.681682 0
M  V30 17109 C 1988.09 -3.58506 -1.14676 0
M  V30 17110 C 1987.23 -2.76774 -0.170675 0
M  V30 17111 H 1990.18 -1.54248 0.373244 0
M  V30 17112 H 1990.2 -3.48112 -1.53618 0
M  V30 17113 H 1989.72 -3.8732 0.245938 0
M  V30 17114 H 1987.82 -3.08445 -2.09027 0
M  V30 17115 H 1987.93 -4.66961 -1.07165 0
M  V30 17116 H 1986.29 -2.45903 -0.663611 0
M  V30 17117 H 1987.08 -3.34995 0.750563 0
M  V30 17118 N 1989.52 0.125209 -1.57102 0
M  V30 17119 C 1990.43 1.17286 -2.03177 0
M  V30 17120 C 1991.45 1.4571 -0.951035 0
M  V30 17121 O 1992.62 1.56949 -1.2621 0
M  V30 17122 C 1989.69 2.4811 -2.42161 0
M  V30 17123 C 1988.75 2.2714 -3.64288 0
M  V30 17124 C 1987.98 3.51726 -4.01404 0
M  V30 17125 O 1988.21 4.58785 -3.38929 0
M  V30 17126 O 1987.14 3.43096 -4.94539 0
M  V30 17127 H 1990.97 0.811619 -2.92654 0
M  V30 17128 H 1988.55 0.335551 -1.45583 0
M  V30 17129 H 1990.43 3.252 -2.67998 0
M  V30 17130 H 1989.11 2.83721 -1.55833 0
M  V30 17131 H 1988.02 1.47929 -3.4361 0
M  V30 17132 H 1989.35 1.96435 -4.51303 0
M  V30 17133 N 1991 1.52564 0.395213 0
M  V30 17134 C 1992.28 1.5788 1.1547 0
M  V30 17135 C 1992.66 0.36821 2.07864 0
M  V30 17136 O 1992.01 -0.643933 2.19239 0
M  V30 17137 C 1992.22 2.91451 1.91982 0
M  V30 17138 C 1993.56 3.44961 2.47562 0
M  V30 17139 O 1994.59 2.93284 2.02146 0
M  V30 17140 O 1993.45 4.35233 3.30506 0
M  V30 17141 H 1990.54 0.636516 0.527993 0
M  V30 17142 H 1993.09 1.64897 0.400867 0
M  V30 17143 H 1991.86 3.71006 1.2438 0
M  V30 17144 H 1991.48 2.8779 2.7434 0
M  V30 17145 N 1992.48 -0.653289 1.43422 0
M  V30 17146 C 1993.72 -1.41528 1.4525 0
M  V30 17147 C 1994.06 -1.94049 0.0764514 0
M  V30 17148 O 1993.33 -1.72284 -0.902682 0
M  V30 17149 C 1993.62 -2.59676 2.49481 0
M  V30 17150 C 1993.47 -2.12647 3.9636 0
M  V30 17151 C 1994.79 -3.61889 2.50449 0
M  V30 17152 H 1991.91 -0.513273 0.528885 0
M  V30 17153 H 1994.55 -0.740628 1.74971 0
M  V30 17154 H 1992.7 -3.17232 2.24268 0
M  V30 17155 H 1994.37 -1.60092 4.32629 0
M  V30 17156 H 1992.61 -1.4402 4.09195 0
M  V30 17157 H 1993.28 -2.97607 4.64902 0
M  V30 17158 H 1995.76 -3.14091 2.72921 0
M  V30 17159 H 1994.64 -4.42106 3.2532 0
M  V30 17160 H 1994.9 -4.14475 1.53826 0
M  V30 17161 N 1993.96 -1.29952 -0.891648 0
M  V30 17162 C 1994.89 -1.18331 -2.01296 0
M  V30 17163 C 1995.87 -0.0755571 -1.69932 0
M  V30 17164 O 1997.05 -0.256435 -1.92499 0
M  V30 17165 C 1994.18 -0.867421 -3.36293 0
M  V30 17166 C 1993.14 -1.93237 -3.81894 0
M  V30 17167 C 1992.46 -1.46962 -5.14107 0
M  V30 17168 C 1993.76 -3.34246 -4.01344 0
M  V30 17169 H 1995.46 -2.12138 -2.11276 0
M  V30 17170 H 1993 -1.02132 -1.01514 0
M  V30 17171 H 1994.96 -0.772806 -4.14253 0
M  V30 17172 H 1993.68 0.106342 -3.26427 0
M  V30 17173 H 1992.34 -2.01651 -3.06157 0
M  V30 17174 H 1991.99 -0.484311 -5.00663 0
M  V30 17175 H 1991.69 -2.1819 -5.45589 0
M  V30 17176 H 1993.21 -1.38866 -5.94599 0
M  V30 17177 H 1994.62 -3.28629 -4.69762 0
M  V30 17178 H 1993.02 -4.03502 -4.44192 0
M  V30 17179 H 1994.09 -3.76629 -3.05415 0
M  V30 17180 N 1995.44 1.1031 -1.12559 0
M  V30 17181 C 1996.71 1.788 -0.793094 0
M  V30 17182 C 1997.09 1.98553 0.716932 0
M  V30 17183 O 1996.44 1.57962 1.65107 0
M  V30 17184 C 1996.65 3.1171 -1.56964 0
M  V30 17185 C 1998 3.86566 -1.75648 0
M  V30 17186 O 1999.02 3.21435 -1.53487 0
M  V30 17187 O 1997.88 5.03468 -2.1256 0
M  V30 17188 H 1994.98 0.775004 -0.288612 0
M  V30 17189 H 1997.52 1.16948 -1.22969 0
M  V30 17190 H 1996.29 2.92761 -2.59628 0
M  V30 17191 H 1995.92 3.81282 -1.12738 0
M  V30 17192 N 1996.91 0.917694 1.28125 0
M  V30 17193 C 1998.16 0.553715 1.95094 0
M  V30 17194 C 1998.49 -0.900999 1.72034 0
M  V30 17195 O 1997.77 -1.64132 1.04359 0
M  V30 17196 C 1998.05 0.868367 3.49473 0
M  V30 17197 C 1997.9 2.3761 3.81918 0
M  V30 17198 C 1999.22 0.367261 4.38565 0
M  V30 17199 H 1996.34 0.202644 0.708593 0
M  V30 17200 H 1998.98 1.14765 1.51423 0
M  V30 17201 H 1997.13 0.362898 3.86801 0
M  V30 17202 H 1998.81 2.95249 3.54437 0
M  V30 17203 H 1997.05 2.82945 3.28823 0
M  V30 17204 H 1997.72 2.5468 4.89737 0
M  V30 17205 H 2000.2 0.800328 4.08331 0
M  V30 17206 H 1999.07 0.616464 5.45427 0
M  V30 17207 H 1999.33 -0.732497 4.3599 0
M  V30 17208 N 1998.39 -1.42074 0.682102 0
M  V30 17209 C 1999.34 -2.27995 -0.0145854 0
M  V30 17210 C 2000.33 -1.4148 -0.766303 0
M  V30 17211 O 2001.52 -1.64868 -0.644013 0
M  V30 17212 C 1998.65 -3.29606 -0.959932 0
M  V30 17213 C 1997.73 -4.23603 -0.205172 0
M  V30 17214 N 1998.12 -4.99531 0.793859 0
M  V30 17215 C 1996.42 -4.43799 -0.442582 0
M  V30 17216 C 1997.12 -5.68232 1.24447 0
M  V30 17217 N 1996.1 -5.40572 0.572991 0
M  V30 17218 H 1999.9 -2.84127 0.751591 0
M  V30 17219 H 1997.41 -1.54125 0.511785 0
M  V30 17220 H 1999.41 -3.8997 -1.47408 0
M  V30 17221 H 1998.07 -2.75035 -1.72585 0
M  V30 17222 H 1999.08 -5.04426 1.17365 0
M  V30 17223 H 1995.76 -4.00258 -1.18744 0
M  V30 17224 H 1997.15 -6.3913 2.07273 0
M  V30 17225 N 1999.87 -0.425924 -1.51735 0
M  V30 17226 C 2000.8 0.382011 -2.30354 0
M  V30 17227 C 2001.78 1.03124 -1.35276 0
M  V30 17228 O 2002.97 1.03705 -1.64191 0
M  V30 17229 C 2000.1 1.48978 -3.13724 0
M  V30 17230 C 1999.05 0.964659 -4.16987 0
M  V30 17231 C 1998.38 2.1673 -4.88807 0
M  V30 17232 C 1999.68 0.00700314 -5.223 0
M  V30 17233 H 2001.37 -0.274043 -2.98143 0
M  V30 17234 H 1998.92 -0.133238 -1.43382 0
M  V30 17235 H 2000.87 2.06211 -3.67498 0
M  V30 17236 H 1999.59 2.17396 -2.43735 0
M  V30 17237 H 1998.25 0.414618 -3.64248 0
M  V30 17238 H 1997.9 2.83741 -4.15331 0
M  V30 17239 H 1997.6 1.82239 -5.58626 0
M  V30 17240 H 1999.12 2.74538 -5.454 0
M  V30 17241 H 2000.54 0.488665 -5.71214 0
M  V30 17242 H 1998.93 -0.249924 -5.99579 0
M  V30 17243 H 2000 -0.933195 -4.75836 0
M  V30 17244 N 2001.35 1.56817 -0.156891 0
M  V30 17245 C 2002.31 2.16058 0.764967 0
M  V30 17246 C 2003.31 1.10488 1.16829 0
M  V30 17247 O 2004.5 1.36077 1.0876 0
M  V30 17248 C 2001.63 2.73173 2.03935 0
M  V30 17249 H 2002.83 2.98861 0.249482 0
M  V30 17250 H 2000.38 1.56025 0.0926074 0
M  V30 17251 H 2001.11 1.94064 2.59827 0
M  V30 17252 H 2000.9 3.50417 1.75926 0
M  V30 17253 H 2002.39 3.18783 2.69754 0
M  V30 17254 N 2002.83 -0.116876 1.57166 0
M  V30 17255 C 2004.07 -0.824288 1.84964 0
M  V30 17256 C 2004.4 -1.79779 0.742287 0
M  V30 17257 O 2003.66 -1.93881 -0.26617 0
M  V30 17258 C 2003.95 -1.60659 3.19255 0
M  V30 17259 C 2003.62 -0.777185 4.44152 0
M  V30 17260 C 2002.28 -0.548471 4.78064 0
M  V30 17261 C 2004.63 -0.199197 5.20819 0
M  V30 17262 C 2001.96 0.26845 5.86086 0
M  V30 17263 C 2004.31 0.604927 6.29701 0
M  V30 17264 C 2002.98 0.843937 6.62143 0
M  V30 17265 H 2002.25 -0.301628 0.676832 0
M  V30 17266 H 2004.9 -0.0865824 1.91304 0
M  V30 17267 H 2003.2 -2.41526 3.08501 0
M  V30 17268 H 2004.9 -2.15794 3.37985 0
M  V30 17269 H 2001.49 -0.965541 4.17583 0
M  V30 17270 H 2005.67 -0.363107 4.9497 0
M  V30 17271 H 2000.93 0.462826 6.09646 0
M  V30 17272 H 2005.1 1.05977 6.88289 0
M  V30 17273 H 2002.73 1.47877 7.45679 0
M  V30 17274 N 2004.3 -1.52772 -0.387116 0
M  V30 17275 C 2005.23 -1.80654 -1.47941 0
M  V30 17276 C 2006.21 -0.658677 -1.56829 0
M  V30 17277 O 2007.4 -0.906449 -1.71747 0
M  V30 17278 C 2004.53 -1.97709 -2.85532 0
M  V30 17279 C 2003.48 -3.13404 -2.91482 0
M  V30 17280 C 2002.81 -3.15717 -4.3154 0
M  V30 17281 C 2004.11 -4.52437 -2.60957 0
M  V30 17282 H 2005.8 -2.72123 -1.24858 0
M  V30 17283 H 2003.35 -1.30941 -0.59921 0
M  V30 17284 H 2005.3 -2.15798 -3.61952 0
M  V30 17285 H 2004.03 -1.02931 -3.09956 0
M  V30 17286 H 2002.69 -2.95102 -2.1751 0
M  V30 17287 H 2002.33 -2.18618 -4.53007 0
M  V30 17288 H 2002.03 -3.93437 -4.36441 0
M  V30 17289 H 2003.56 -3.35963 -5.09864 0
M  V30 17290 H 2004.97 -4.70831 -3.27095 0
M  V30 17291 H 2003.37 -5.32238 -2.77205 0
M  V30 17292 H 2004.44 -4.59022 -1.5629 0
M  V30 17293 N 2005.78 0.645673 -1.43767 0
M  V30 17294 C 2007.2 0.962209 -1.27333 0
M  V30 17295 C 2007.4 2.0052 -0.198519 0
M  V30 17296 O 2006.45 2.48974 0.420512 0
M  V30 17297 C 2007.77 1.4393 -2.64016 0
M  V30 17298 C 2009.31 1.55555 -2.71609 0
M  V30 17299 C 2009.79 2.06652 -4.08728 0
M  V30 17300 N 2011.28 2.13944 -4.10831 0
M  V30 17301 C 2012.02 2.54619 -5.13767 0
M  V30 17302 N 2011.51 2.94536 -6.27073 0
M  V30 17303 N 2013.3 2.54625 -5.01121 0
M  V30 17304 H 2005.46 -0.0443554 -2.12354 0
M  V30 17305 H 2007.72 0.042755 -0.947035 0
M  V30 17306 H 2007.42 0.747304 -3.43669 0
M  V30 17307 H 2007.3 2.41297 -2.89923 0
M  V30 17308 H 2009.69 2.23854 -1.92285 0
M  V30 17309 H 2009.77 0.566006 -2.49459 0
M  V30 17310 H 2009.41 1.38952 -4.88523 0
M  V30 17311 H 2009.34 3.06451 -4.28247 0
M  V30 17312 H 2011.83 1.85838 -3.29048 0
M  V30 17313 H 2012.14 3.24345 -7.01442 0
M  V30 17314 H 2010.49 2.92323 -6.30533 0
M  V30 17315 H 2013.68 2.22822 -4.11665 0
M  V30 17316 H 2013.85 2.86002 -5.81469 0
M  V30 17317 N 2007.26 1.30423 0.884744 0
M  V30 17318 C 2008.19 1.19397 2.00666 0
M  V30 17319 C 2009.17 0.084568 1.6989 0
M  V30 17320 O 2010.36 0.266641 1.92361 0
M  V30 17321 C 2007.49 0.885244 3.35828 0
M  V30 17322 C 2006.44 1.9526 3.80864 0
M  V30 17323 C 2005.77 1.49687 5.13321 0
M  V30 17324 C 2007.07 3.3637 3.99566 0
M  V30 17325 H 2008.76 2.13256 2.10148 0
M  V30 17326 H 2006.31 1.02669 1.00971 0
M  V30 17327 H 2008.26 0.794764 4.13837 0
M  V30 17328 H 2006.98 -0.0890295 3.26479 0
M  V30 17329 H 2005.64 2.03272 3.05084 0
M  V30 17330 H 2005.29 0.510855 5.00399 0
M  V30 17331 H 2004.99 2.2108 5.44424 0
M  V30 17332 H 2006.51 1.42018 5.93855 0
M  V30 17333 H 2007.93 3.31115 4.68012 0
M  V30 17334 H 2006.32 4.05852 4.42046 0
M  V30 17335 H 2007.39 3.78244 3.03414 0
M  V30 17336 N 2008.74 -1.09711 1.13142 0
M  V30 17337 C 2009.67 -2.18301 0.828662 0
M  V30 17338 C 2010.65 -1.6879 -0.210733 0
M  V30 17339 O 2011.83 -1.94073 -0.0702977 0
M  V30 17340 C 2008.96 -3.46081 0.290674 0
M  V30 17341 C 2007.92 -4.0891 1.26398 0
M  V30 17342 C 2007.24 -5.3148 0.585887 0
M  V30 17343 C 2008.54 -4.51751 2.62142 0
M  V30 17344 H 2010.24 -2.43885 1.73668 0
M  V30 17345 H 2007.78 -1.17216 0.836449 0
M  V30 17346 H 2009.74 -4.21347 0.0665509 0
M  V30 17347 H 2008.46 -3.20011 -0.652716 0
M  V30 17348 H 2007.12 -3.3566 1.47405 0
M  V30 17349 H 2006.77 -5.01689 -0.362883 0
M  V30 17350 H 2006.47 -5.7447 1.23522 0
M  V30 17351 H 2007.99 -6.09472 0.370976 0
M  V30 17352 H 2009.41 -5.18255 2.45121 0
M  V30 17353 H 2007.8 -5.05615 3.23223 0
M  V30 17354 H 2008.87 -3.64297 3.20025 0
M  V30 17355 N 2010.22 -0.924476 -1.27637 0
M  V30 17356 C 2011.44 -0.57884 -1.99159 0
M  V30 17357 C 2011.87 0.83532 -1.68535 0
M  V30 17358 O 2011.22 1.55999 -0.92379 0
M  V30 17359 C 2011.27 -0.807508 -3.51442 0
M  V30 17360 O 2010.38 0.128443 -4.122 0
M  V30 17361 H 2009.72 -0.223218 -0.625356 0
M  V30 17362 H 2012.25 -1.24285 -1.62525 0
M  V30 17363 H 2012.26 -0.721808 -4.01564 0
M  V30 17364 H 2010.93 -1.83836 -3.73064 0
M  V30 17365 H 2009.51 -0.00689785 -3.72899 0
M  V30 17366 N 2011.69 1.41711 -0.689627 0
M  V30 17367 C 2012.92 2.06171 -0.225425 0
M  V30 17368 C 2013.34 1.51535 1.11439 0
M  V30 17369 O 2012.7 0.639865 1.69633 0
M  V30 17370 C 2012.75 3.60114 -0.187089 0
M  V30 17371 O 2011.85 4.03757 0.83989 0
M  V30 17372 H 2011.2 0.654551 -0.111621 0
M  V30 17373 H 2013.73 1.81582 -0.942814 0
M  V30 17374 H 2013.74 4.07997 -0.0159369 0
M  V30 17375 H 2012.41 3.99251 -1.16497 0
M  V30 17376 H 2010.99 3.67392 0.638575 0
M  V30 17377 N 2013.17 0.433965 1.51507 0
M  V30 17378 C 2014.59 0.0860823 1.59368 0
M  V30 17379 C 2014.79 -1.40421 1.44513 0
M  V30 17380 O 2013.84 -2.17377 1.28465 0
M  V30 17381 C 2015.16 0.603181 2.94588 0
M  V30 17382 C 2016.71 0.563326 3.07889 0
M  V30 17383 C 2017.18 1.05734 4.45628 0
M  V30 17384 N 2018.67 1.01519 4.51938 0
M  V30 17385 C 2019.41 1.36835 5.56834 0
M  V30 17386 N 2018.9 1.79419 6.69164 0
M  V30 17387 N 2020.7 1.28673 5.47174 0
M  V30 17388 H 2012.85 1.40366 1.59408 0
M  V30 17389 H 2015.11 0.578206 0.751253 0
M  V30 17390 H 2014.82 1.64576 3.10818 0
M  V30 17391 H 2014.69 0.0262621 3.77191 0
M  V30 17392 H 2017.08 -0.470257 2.91329 0
M  V30 17393 H 2017.16 1.17661 2.27134 0
M  V30 17394 H 2016.8 2.08938 4.62934 0
M  V30 17395 H 2016.73 0.420634 5.24917 0
M  V30 17396 H 2019.22 0.702422 3.71314 0
M  V30 17397 H 2019.54 2.04612 7.45221 0
M  V30 17398 H 2017.88 1.83343 6.70381 0
M  V30 17399 H 2021.07 0.952726 4.58302 0
M  V30 17400 H 2021.24 1.56524 6.28812 0
M  V30 17401 N 2014.65 -1.56732 0.165206 0
M  V30 17402 C 2015.61 -2.1646 -0.753498 0
M  V30 17403 C 2016.61 -1.11106 -1.16241 0
M  V30 17404 O 2017.8 -1.36652 -1.08037 0
M  V30 17405 C 2014.94 -2.7425 -2.02483 0
M  V30 17406 H 2016.13 -2.98989 -0.233629 0
M  V30 17407 H 2013.68 -1.56072 -0.0843317 0
M  V30 17408 H 2014.42 -1.95439 -2.58794 0
M  V30 17409 H 2014.2 -3.51345 -1.74065 0
M  V30 17410 H 2015.69 -3.20209 -2.6806 0
M  V30 17411 N 2016.13 0.10854 -1.57226 0
M  V30 17412 C 2017.35 0.832276 -1.89968 0
M  V30 17413 C 2017.78 1.72143 -0.758179 0
M  V30 17414 O 2017.14 1.78952 0.290864 0
M  V30 17415 C 2017.18 1.63287 -3.21512 0
M  V30 17416 O 2016.29 2.74071 -3.08154 0
M  V30 17417 H 2015.63 0.229508 -0.623075 0
M  V30 17418 H 2018.16 0.0877974 -2.04412 0
M  V30 17419 H 2018.17 2.01992 -3.5449 0
M  V30 17420 H 2016.84 0.98022 -4.04184 0
M  V30 17421 H 2015.42 2.38492 -2.86664 0
M  V30 17422 N 2017.61 1.52975 0.379009 0
M  V30 17423 C 2018.54 1.74729 1.48332 0
M  V30 17424 C 2019.55 0.627862 1.50206 0
M  V30 17425 O 2020.74 0.903805 1.53927 0
M  V30 17426 C 2017.84 1.79998 2.87148 0
M  V30 17427 C 2017.01 3.09452 3.09125 0
M  V30 17428 C 2016.07 3.06138 4.27979 0
M  V30 17429 O 2015.1 3.79976 4.23801 0
M  V30 17430 N 2016.3 2.26019 5.34692 0
M  V30 17431 H 2019.07 2.70011 1.30054 0
M  V30 17432 H 2016.63 1.51586 0.568617 0
M  V30 17433 H 2018.62 1.75275 3.64775 0
M  V30 17434 H 2017.19 0.920593 2.98737 0
M  V30 17435 H 2016.41 3.27586 2.19274 0
M  V30 17436 H 2017.7 3.9503 3.20669 0
M  V30 17437 H 2017.09 1.65515 5.40945 0
M  V30 17438 H 2015.65 2.27126 6.10948 0
M  V30 17439 N 2019.08 -0.63804 1.44107 0
M  V30 17440 C 2020.03 -1.77153 1.5073 0
M  V30 17441 C 2021.03 -1.65093 0.379567 0
M  V30 17442 O 2022.23 -1.71255 0.554218 0
M  V30 17443 H 2018.61 -0.584742 0.472843 0
M  V30 17444 H 2020.58 -1.68689 2.46143 0
M  V30 17445 C 2019.33 -3.15467 1.46204 0
M  V30 17446 H 2018.65 -3.25392 2.32293 0
M  V30 17447 H 2020.09 -3.94693 1.54899 0
M  V30 17448 C 2018.55 -3.36409 0.181784 0
M  V30 17449 O 2019.08 -3.94621 -0.750818 0
M  V30 17450 N 2017.29 -2.90469 0.0871207 0
M  V30 17451 H 2016.83 -2.43281 0.846871 0
M  V30 17452 H 2016.79 -3.04857 -0.768744 0
M  V30 17453 N 2020.56 -1.3089 -0.877815 0
M  V30 17454 C 2021.81 -1.19488 -1.62498 0
M  V30 17455 C 2022.12 0.247666 -1.94026 0
M  V30 17456 O 2023.33 0.483286 -2.67164 0
M  V30 17457 C 2021.79 -2.09126 -2.92906 0
M  V30 17458 C 2021.39 -3.58331 -2.68891 0
M  V30 17459 C 2023.14 -2.06505 -3.70885 0
M  V30 17460 C 2021.05 -4.40003 -3.9516 0
M  V30 17461 H 2019.98 -0.44363 -0.609679 0
M  V30 17462 H 2022.63 -1.5569 -0.971235 0
M  V30 17463 H 2021.01 -1.65815 -3.59613 0
M  V30 17464 H 2022.18 -4.09838 -2.10642 0
M  V30 17465 H 2020.5 -3.62849 -2.04278 0
M  V30 17466 H 2023.09 -2.64772 -4.64543 0
M  V30 17467 H 2023.44 -1.05026 -4.02834 0
M  V30 17468 H 2023.97 -2.47975 -3.11052 0
M  V30 17469 H 2020.71 -5.42205 -3.68366 0
M  V30 17470 H 2020.23 -3.93258 -4.52889 0
M  V30 17471 H 2021.91 -4.5181 -4.63117 0
M  V30 17472 N 2022.04 1.0911 -1.13723 0
M  V30 17473 C 2023.27 1.85108 -0.924265 0
M  V30 17474 C 2023.68 1.81295 0.527025 0
M  V30 17475 O 2023.04 1.21144 1.36493 0
M  V30 17476 C 2023.09 3.3295 -1.40807 0
M  V30 17477 O 2022.81 3.36738 -2.80249 0
M  V30 17478 C 2024.31 4.25778 -1.23401 0
M  V30 17479 H 2021.53 0.584594 -0.329379 0
M  V30 17480 H 2024.08 1.37847 -1.51058 0
M  V30 17481 H 2022.23 3.77627 -0.864679 0
M  V30 17482 H 2022.65 4.28973 -3.01799 0
M  V30 17483 H 2024.12 5.27655 -1.62123 0
M  V30 17484 H 2024.6 4.38847 -0.176058 0
M  V30 17485 H 2025.2 3.8692 -1.76559 0
M  V30 17486 N 2023.52 0.931232 1.27145 0
M  V30 17487 C 2024.75 0.5891 1.98023 0
M  V30 17488 C 2025.16 -0.837994 1.6963 0
M  V30 17489 O 2024.5 -1.56901 0.955394 0
M  V30 17490 C 2024.56 0.7394 3.51814 0
M  V30 17491 C 2024.23 2.13927 4.03837 0
M  V30 17492 C 2025.22 3.11379 4.1634 0
M  V30 17493 C 2022.91 2.45717 4.38097 0
M  V30 17494 C 2024.9 4.38727 4.62382 0
M  V30 17495 C 2022.59 3.733 4.83829 0
M  V30 17496 C 2023.59 4.69618 4.95931 0
M  V30 17497 O 2023.27 5.94931 5.40659 0
M  V30 17498 H 2023.01 0.221707 0.638609 0
M  V30 17499 H 2025.56 1.25146 1.62873 0
M  V30 17500 H 2023.79 0.0199268 3.86695 0
M  V30 17501 H 2025.48 0.401803 4.03906 0
M  V30 17502 H 2026.25 2.88141 3.90128 0
M  V30 17503 H 2022.12 1.71488 4.27917 0
M  V30 17504 H 2025.67 5.13911 4.71743 0
M  V30 17505 H 2021.57 3.96355 5.09483 0
M  V30 17506 H 2022.33 5.9797 5.58905 0
M  V30 17507 N 2025 -1.41343 0.697132 0
M  V30 17508 C 2025.95 -2.27998 0.00959736 0
M  V30 17509 C 2026.93 -1.42285 -0.751254 0
M  V30 17510 O 2028.12 -1.65542 -0.626491 0
M  V30 17511 C 2025.25 -3.30606 -0.924919 0
M  V30 17512 C 2024.34 -4.23797 -0.160232 0
M  V30 17513 N 2024.73 -4.98661 0.846797 0
M  V30 17514 C 2023.03 -4.44243 -0.395486 0
M  V30 17515 C 2023.73 -5.6688 1.30467 0
M  V30 17516 N 2022.7 -5.39934 0.630293 0
M  V30 17517 H 2026.51 -2.83314 0.781684 0
M  V30 17518 H 2024.02 -1.53574 0.528104 0
M  V30 17519 H 2026.02 -3.91511 -1.43264 0
M  V30 17520 H 2024.68 -2.7685 -1.69659 0
M  V30 17521 H 2025.69 -5.03153 1.22708 0
M  V30 17522 H 2022.37 -4.01495 -1.14492 0
M  V30 17523 H 2023.76 -6.36896 2.1404 0
M  V30 17524 N 2026.48 -0.441993 -1.51275 0
M  V30 17525 C 2027.72 0.122024 -2.04035 0
M  V30 17526 C 2028.08 1.39557 -1.31863 0
M  V30 17527 O 2029.28 2.04012 -1.75022 0
M  V30 17528 C 2027.55 0.330958 -3.55864 0
M  V30 17529 S 2029.11 0.857712 -4.30336 0
M  V30 17530 H 2025.93 0.0296645 -0.710381 0
M  V30 17531 H 2028.53 -0.602467 -1.85985 0
M  V30 17532 H 2027.23 -0.602196 -4.05958 0
M  V30 17533 H 2026.77 1.0824 -3.78217 0
M  V30 17534 H 2028.78 2.13474 -4.47932 0
M  V30 17535 N 2027.95 1.56642 -0.173515 0
M  V30 17536 C 2028.9 2.1807 0.755917 0
M  V30 17537 C 2029.87 1.12136 1.22534 0
M  V30 17538 O 2031.06 1.40296 1.29312 0
M  V30 17539 C 2028.2 2.82726 1.97888 0
M  V30 17540 C 2027.31 4.03127 1.55282 0
M  V30 17541 C 2026.44 4.55703 2.72962 0
M  V30 17542 C 2025.48 5.68509 2.26857 0
M  V30 17543 N 2024.62 6.15585 3.37638 0
M  V30 17544 H 2029.46 2.97147 0.225305 0
M  V30 17545 H 2027 1.46763 0.0994783 0
M  V30 17546 H 2028.95 3.18371 2.69621 0
M  V30 17547 H 2027.58 2.0625 2.48316 0
M  V30 17548 H 2026.64 3.73288 0.732154 0
M  V30 17549 H 2027.95 4.84777 1.17441 0
M  V30 17550 H 2027.1 4.93541 3.52849 0
M  V30 17551 H 2025.84 3.73115 3.14065 0
M  V30 17552 H 2024.85 5.3022 1.45418 0
M  V30 17553 H 2026.07 6.529 1.8681 0
M  V30 17554 H 2024.02 5.35925 3.78312 0
M  V30 17555 H 2023.93 6.9223 3.03897 0
M  V30 17556 H 2025.2 6.58074 4.17803 0
M  V30 17557 N 2029.43 -0.1002 1.57281 0
M  V30 17558 C 2030.38 -1.14082 2.02702 0
M  V30 17559 C 2031.37 -1.41773 0.927183 0
M  V30 17560 O 2032.58 -1.41514 1.11237 0
M  V30 17561 H 2028.95 -0.385095 0.645915 0
M  V30 17562 H 2030.93 -0.731375 2.89298 0
M  V30 17563 C 2029.67 -2.45424 2.46297 0
M  V30 17564 H 2029 -2.24959 3.30505 0
M  V30 17565 H 2030.44 -3.16752 2.81859 0
M  V30 17566 C 2028.9 -3.09356 1.33418 0
M  V30 17567 O 2029.43 -3.96233 0.660494 0
M  V30 17568 N 2027.63 -2.69526 1.08646 0
M  V30 17569 H 2027.18 -1.98972 1.63609 0
M  V30 17570 H 2027.14 -3.1263 0.333186 0
M  V30 17571 N 2030.91 -1.53174 -0.370891 0
M  V30 17572 C 2032.13 -1.73304 -1.13932 0
M  V30 17573 C 2032.56 -0.458494 -1.82427 0
M  V30 17574 O 2031.92 0.587094 -1.71531 0
M  V30 17575 C 2031.97 -2.89544 -2.14933 0
M  V30 17576 O 2031.07 -2.57782 -3.21904 0
M  V30 17577 H 2030.41 -0.575715 -0.33083 0
M  V30 17578 H 2032.94 -2.00038 -0.429641 0
M  V30 17579 H 2032.95 -3.15559 -2.58625 0
M  V30 17580 H 2031.63 -3.81998 -1.64471 0
M  V30 17581 H 2030.2 -2.42568 -2.83223 0
M  V30 17582 N 2032.39 0.630389 -1.44443 0
M  V30 17583 C 2033.64 1.38591 -1.46545 0
M  V30 17584 C 2033.95 1.95333 -0.102227 0
M  V30 17585 O 2035.16 2.715 -0.000780135 0
M  V30 17586 C 2033.61 2.50929 -2.57998 0
M  V30 17587 C 2033.22 2.00697 -4.00531 0
M  V30 17588 C 2034.96 3.28126 -2.69321 0
M  V30 17589 C 2032.87 3.10381 -5.03406 0
M  V30 17590 H 2031.8 0.520816 -0.545221 0
M  V30 17591 H 2034.45 0.678097 -1.70511 0
M  V30 17592 H 2032.83 3.24288 -2.27273 0
M  V30 17593 H 2034.01 1.34197 -4.40826 0
M  V30 17594 H 2032.32 1.36313 -3.93456 0
M  V30 17595 H 2034.92 4.09894 -3.43353 0
M  V30 17596 H 2035.26 3.77655 -1.75164 0
M  V30 17597 H 2035.8 2.61857 -2.99459 0
M  V30 17598 H 2032.53 2.65795 -5.99194 0
M  V30 17599 H 2032.05 3.7552 -4.67702 0
M  V30 17600 H 2033.73 3.75144 -5.27139 0
M  V30 17601 N 2033.87 1.31354 0.870861 0
M  V30 17602 C 2034.83 1.18889 1.95954 0
M  V30 17603 C 2035.83 0.116227 1.60379 0
M  V30 17604 O 2037.02 0.365426 1.70324 0
M  V30 17605 C 2034.15 0.824704 3.30774 0
M  V30 17606 H 2035.34 2.15624 2.08438 0
M  V30 17607 H 2032.9 1.14952 1.05904 0
M  V30 17608 H 2033.63 -0.141533 3.23991 0
M  V30 17609 H 2033.42 1.60006 3.57967 0
M  V30 17610 H 2034.91 0.761361 4.10601 0
M  V30 17611 N 2035.34 -1.08505 1.143 0
M  V30 17612 C 2036.57 -1.84347 0.932715 0
M  V30 17613 C 2036.98 -1.81853 -0.522138 0
M  V30 17614 O 2036.32 -1.21982 -1.37354 0
M  V30 17615 C 2036.39 -3.32995 1.3548 0
M  V30 17616 C 2036.05 -3.59226 2.82499 0
M  V30 17617 C 2037.05 -3.54154 3.80619 0
M  V30 17618 C 2034.73 -3.87269 3.19888 0
M  V30 17619 C 2036.73 -3.76754 5.14135 0
M  V30 17620 C 2034.41 -4.09522 4.5358 0
M  V30 17621 C 2035.41 -4.04258 5.50513 0
M  V30 17622 O 2035.1 -4.25928 6.81792 0
M  V30 17623 H 2034.83 -0.58885 0.332012 0
M  V30 17624 H 2037.39 -1.37951 1.5218 0
M  V30 17625 H 2035.62 -3.80144 0.70904 0
M  V30 17626 H 2037.3 -3.90271 1.11548 0
M  V30 17627 H 2038.07 -3.32505 3.5308 0
M  V30 17628 H 2033.95 -3.90487 2.45033 0
M  V30 17629 H 2037.49 -3.72561 5.89783 0
M  V30 17630 H 2033.39 -4.30655 4.80839 0
M  V30 17631 H 2034.16 -4.43339 6.88036 0
M  V30 17632 N 2036.82 -0.937962 -1.26649 0
M  V30 17633 C 2037.75 -0.389349 -2.24854 0
M  V30 17634 C 2038.73 0.520034 -1.5406 0
M  V30 17635 O 2039.92 0.458213 -1.82846 0
M  V30 17636 C 2037.04 0.440897 -3.35818 0
M  V30 17637 C 2036.09 -0.406503 -4.24558 0
M  V30 17638 S 2036.92 -1.82845 -5.03317 0
M  V30 17639 C 2038.08 -1.00617 -6.1776 0
M  V30 17640 H 2038.31 -1.22165 -2.71041 0
M  V30 17641 H 2035.84 -0.740851 -1.35465 0
M  V30 17642 H 2037.8 0.914026 -4.00195 0
M  V30 17643 H 2036.46 1.24784 -2.8825 0
M  V30 17644 H 2035.66 0.229461 -5.03477 0
M  V30 17645 H 2035.26 -0.814194 -3.6503 0
M  V30 17646 H 2037.55 -0.246937 -6.7705 0
M  V30 17647 H 2038.49 -1.76871 -6.85655 0
M  V30 17648 H 2038.9 -0.543652 -5.61876 0
M  V30 17649 N 2038.3 1.40971 -0.704618 0
M  V30 17650 C 2039.58 1.94885 -0.167059 0
M  V30 17651 C 2039.96 1.64346 1.3249 0
M  V30 17652 O 2039.3 0.955268 2.07574 0
M  V30 17653 C 2039.51 3.45847 -0.468035 0
M  V30 17654 C 2040.86 4.22705 -0.400704 0
M  V30 17655 O 2041.89 3.53908 -0.403464 0
M  V30 17656 O 2040.75 5.45255 -0.368676 0
M  V30 17657 H 2037.84 0.826752 -0.0202699 0
M  V30 17658 H 2040.39 1.50639 -0.7814 0
M  V30 17659 H 2039.16 3.61392 -1.50038 0
M  V30 17660 H 2038.78 3.97207 0.176823 0
M  V30 17661 N 2039.78 0.45001 1.51039 0
M  V30 17662 C 2040.71 -0.390998 2.2584 0
M  V30 17663 C 2041.72 -0.975406 1.30344 0
M  V30 17664 O 2042.91 -0.867391 1.56008 0
M  V30 17665 C 2040.01 -1.56025 3.00848 0
M  V30 17666 C 2039.19 -1.09244 4.23538 0
M  V30 17667 C 2038.24 -2.13329 4.81017 0
M  V30 17668 O 2037.27 -1.72246 5.42513 0
M  V30 17669 N 2038.47 -3.45941 4.6616 0
M  V30 17670 H 2041.24 0.250165 2.98654 0
M  V30 17671 H 2038.8 0.279599 1.59467 0
M  V30 17672 H 2040.79 -2.25304 3.36185 0
M  V30 17673 H 2039.36 -2.10651 2.30965 0
M  V30 17674 H 2038.58 -0.226269 3.9355 0
M  V30 17675 H 2039.87 -0.757479 5.0313 0
M  V30 17676 H 2039.27 -3.82042 4.17205 0
M  V30 17677 H 2037.82 -4.11078 5.05824 0
M  V30 17678 N 2041.26 -1.56548 0.18182 0
M  V30 17679 C 2042.22 -2.17247 -0.730497 0
M  V30 17680 C 2043.22 -1.12333 -1.15056 0
M  V30 17681 O 2044.41 -1.3779 -1.06581 0
M  V30 17682 C 2041.54 -2.76383 -1.99563 0
M  V30 17683 H 2042.73 -2.9922 -0.201904 0
M  V30 17684 H 2040.29 -1.56153 -0.0677734 0
M  V30 17685 H 2041.02 -1.98173 -2.56706 0
M  V30 17686 H 2040.81 -3.53172 -1.70329 0
M  V30 17687 H 2042.3 -3.23034 -2.64649 0
M  V30 17688 N 2042.73 0.0918577 -1.57332 0
M  V30 17689 C 2043.96 0.81208 -1.9084 0
M  V30 17690 C 2044.38 1.71329 -0.776394 0
M  V30 17691 O 2043.74 1.7925 0.271867 0
M  V30 17692 C 2043.79 1.59867 -3.23226 0
M  V30 17693 O 2042.89 2.70787 -3.11044 0
M  V30 17694 H 2042.24 0.222886 -0.625474 0
M  V30 17695 H 2044.77 0.0661119 -2.04493 0
M  V30 17696 H 2044.78 1.98221 -3.56613 0
M  V30 17697 H 2043.45 0.937296 -4.05201 0
M  V30 17698 H 2042.03 2.35438 -2.89177 0
M  V30 17699 N 2044.21 1.53368 0.362763 0
M  V30 17700 C 2045.46 1.69352 1.10292 0
M  V30 17701 C 2045.78 0.449366 1.89752 0
M  V30 17702 O 2045.05 -0.536608 1.88407 0
M  V30 17703 H 2043.63 0.62432 0.410162 0
M  V30 17704 H 2046.29 1.90567 0.408694 0
M  V30 17705 H 2045.39 2.55586 1.79115 0
M  V30 17706 N 2045.69 -0.62272 1.44776 0
M  V30 17707 C 2046.64 -1.75545 1.526 0
M  V30 17708 C 2047.63 -1.64681 0.397056 0
M  V30 17709 O 2048.84 -1.70658 0.572351 0
M  V30 17710 H 2045.21 -0.579694 0.479018 0
M  V30 17711 H 2047.18 -1.66069 2.47919 0
M  V30 17712 C 2045.93 -3.13899 1.49542 0
M  V30 17713 H 2045.26 -3.2291 2.35731 0
M  V30 17714 H 2046.7 -3.93028 1.59076 0
M  V30 17715 C 2045.16 -3.36197 0.217454 0
M  V30 17716 O 2045.69 -3.95395 -0.708921 0
M  V30 17717 N 2043.89 -2.90361 0.117924 0
M  V30 17718 H 2043.44 -2.4237 0.872626 0
M  V30 17719 H 2043.4 -3.05655 -0.736367 0
M  V30 17720 N 2047.17 -1.31814 -0.863883 0
M  V30 17721 C 2048.41 -1.22028 -1.61979 0
M  V30 17722 C 2048.75 0.219661 -1.92954 0
M  V30 17723 O 2048.02 1.15428 -1.56546 0
M  V30 17724 C 2048.31 -2.0707 -2.94608 0
M  V30 17725 C 2048.16 -3.59395 -2.70473 0
M  V30 17726 C 2049.48 -1.92477 -3.95779 0
M  V30 17727 H 2046.6 -0.444641 -0.587762 0
M  V30 17728 H 2049.24 -1.61666 -0.998202 0
M  V30 17729 H 2047.39 -1.73395 -3.47659 0
M  V30 17730 H 2049.06 -4.03237 -2.24048 0
M  V30 17731 H 2047.3 -3.82521 -2.04597 0
M  V30 17732 H 2047.97 -4.14213 -3.64871 0
M  V30 17733 H 2050.45 -2.21959 -3.51957 0
M  V30 17734 H 2049.33 -2.54272 -4.86453 0
M  V30 17735 H 2049.59 -0.889783 -4.33053 0
M  V30 17736 N 2048.65 1.07897 -1.14873 0
M  V30 17737 C 2049.59 2.14955 -0.840422 0
M  V30 17738 C 2050.56 1.64839 0.204277 0
M  V30 17739 O 2051.75 1.9066 0.0730523 0
M  V30 17740 C 2048.89 3.43521 -0.329768 0
M  V30 17741 C 2048 4.07456 -1.43538 0
M  V30 17742 C 2047.14 5.23836 -0.881432 0
M  V30 17743 C 2046.18 5.79723 -1.96437 0
M  V30 17744 N 2045.31 6.87441 -1.42721 0
M  V30 17745 H 2050.15 2.40669 -1.75734 0
M  V30 17746 H 2047.69 1.18102 -0.876944 0
M  V30 17747 H 2049.65 4.17197 -0.01545 0
M  V30 17748 H 2048.28 3.18076 0.550246 0
M  V30 17749 H 2047.33 3.31489 -1.86599 0
M  V30 17750 H 2048.64 4.45007 -2.25323 0
M  V30 17751 H 2047.8 6.04473 -0.519325 0
M  V30 17752 H 2046.53 4.87689 -0.0326916 0
M  V30 17753 H 2045.54 4.97736 -2.33536 0
M  V30 17754 H 2046.76 6.17927 -2.81678 0
M  V30 17755 H 2044.71 6.53244 -0.600731 0
M  V30 17756 H 2044.63 7.23845 -2.18137 0
M  V30 17757 H 2045.9 7.71797 -1.09317 0
M  V30 17758 N 2050.12 0.944665 1.2615 0
M  V30 17759 C 2051.07 0.455723 2.26256 0
M  V30 17760 C 2052.04 -0.486478 1.58816 0
M  V30 17761 O 2053.23 -0.401921 1.86519 0
M  V30 17762 C 2050.37 -0.269732 3.44044 0
M  V30 17763 C 2049.48 0.708546 4.2615 0
M  V30 17764 C 2048.61 -0.0384607 5.31186 0
M  V30 17765 C 2047.65 0.931409 6.04972 0
M  V30 17766 N 2046.79 0.215929 7.01768 0
M  V30 17767 H 2051.63 1.31431 2.67451 0
M  V30 17768 H 2049.17 0.659314 1.31497 0
M  V30 17769 H 2051.13 -0.706817 4.11169 0
M  V30 17770 H 2049.76 -1.09243 3.03753 0
M  V30 17771 H 2048.81 1.26414 3.58781 0
M  V30 17772 H 2050.12 1.44906 4.77288 0
M  V30 17773 H 2049.27 -0.53466 6.0434 0
M  V30 17774 H 2048.01 -0.811835 4.80896 0
M  V30 17775 H 2047.02 1.4387 5.30642 0
M  V30 17776 H 2048.24 1.70485 6.57352 0
M  V30 17777 H 2046.19 -0.538889 6.53783 0
M  V30 17778 H 2046.11 0.895714 7.50675 0
M  V30 17779 H 2047.37 -0.259061 7.79069 0
M  V30 17780 N 2051.6 -1.40596 0.712085 0
M  V30 17781 C 2052.57 -2.29105 0.0660369 0
M  V30 17782 C 2053.57 -1.45196 -0.690992 0
M  V30 17783 O 2054.76 -1.66151 -0.523417 0
M  V30 17784 C 2051.89 -3.2835 -0.916461 0
M  V30 17785 H 2053.08 -2.87734 0.845539 0
M  V30 17786 H 2050.63 -1.48859 0.476533 0
M  V30 17787 H 2051.37 -2.74733 -1.72314 0
M  V30 17788 H 2051.15 -3.90288 -0.376557 0
M  V30 17789 H 2052.64 -3.94634 -1.36578 0
M  V30 17790 N 2053.08 -0.458013 -1.50798 0
M  V30 17791 C 2054.01 0.333063 -2.31112 0
M  V30 17792 C 2054.99 1.00231 -1.37433 0
M  V30 17793 O 2056.18 1.00199 -1.66354 0
M  V30 17794 C 2053.31 1.4229 -3.16814 0
M  V30 17795 C 2052.26 0.875993 -4.1894 0
M  V30 17796 C 2051.59 2.06313 -4.93294 0
M  V30 17797 C 2052.89 -0.103786 -5.22197 0
M  V30 17798 H 2054.58 -0.337222 -2.97495 0
M  V30 17799 H 2052.13 -0.163622 -1.43067 0
M  V30 17800 H 2054.08 1.98369 -3.7179 0
M  V30 17801 H 2052.8 2.12177 -2.48291 0
M  V30 17802 H 2051.46 0.337263 -3.65045 0
M  V30 17803 H 2051.11 2.74868 -4.21256 0
M  V30 17804 H 2050.81 1.70348 -5.62366 0
M  V30 17805 H 2052.33 2.62908 -5.511 0
M  V30 17806 H 2053.75 0.367392 -5.72122 0
M  V30 17807 H 2052.15 -0.377048 -5.98914 0
M  V30 17808 H 2053.22 -1.03392 -4.73749 0
M  V30 17809 N 2054.56 1.56449 -0.190119 0
M  V30 17810 C 2055.51 2.1886 0.732745 0
M  V30 17811 C 2056.48 1.1343 1.21338 0
M  V30 17812 O 2057.66 1.4166 1.27817 0
M  V30 17813 C 2054.8 2.84809 1.94878 0
M  V30 17814 C 2053.91 4.04751 1.50998 0
M  V30 17815 C 2053.05 4.58572 2.68114 0
M  V30 17816 C 2052.09 5.70883 2.20815 0
M  V30 17817 N 2051.23 6.19132 3.3109 0
M  V30 17818 H 2056.07 2.97369 0.193776 0
M  V30 17819 H 2053.6 1.46861 0.0839065 0
M  V30 17820 H 2055.56 3.21213 2.66229 0
M  V30 17821 H 2054.19 2.08872 2.46115 0
M  V30 17822 H 2053.24 3.74043 0.69252 0
M  V30 17823 H 2054.55 4.85996 1.12292 0
M  V30 17824 H 2053.71 4.97256 3.47594 0
M  V30 17825 H 2052.45 3.76425 3.1009 0
M  V30 17826 H 2051.45 5.31733 1.39786 0
M  V30 17827 H 2052.68 6.54845 1.79875 0
M  V30 17828 H 2050.62 5.39908 3.72607 0
M  V30 17829 H 2050.54 6.95415 2.96538 0
M  V30 17830 H 2051.81 6.62468 4.108 0
M  V30 17831 N 2056.04 -0.0835127 1.57379 0
M  V30 17832 C 2056.97 -1.101 2.05913 0
M  V30 17833 C 2057.95 -1.41079 0.950298 0
M  V30 17834 O 2059.13 -1.50909 1.2223 0
M  V30 17835 C 2056.26 -2.41772 2.49327 0
M  V30 17836 C 2055.22 -2.25173 3.63979 0
M  V30 17837 C 2054.54 -3.62124 3.93408 0
M  V30 17838 C 2055.84 -1.68267 4.94453 0
M  V30 17839 H 2057.54 -0.697176 2.9117 0
M  V30 17840 H 2055.08 -0.333914 1.40075 0
M  V30 17841 H 2057.04 -3.13234 2.81891 0
M  V30 17842 H 2055.76 -2.84112 1.61084 0
M  V30 17843 H 2054.42 -1.56154 3.3168 0
M  V30 17844 H 2054.07 -4.02013 3.02315 0
M  V30 17845 H 2053.77 -3.51861 4.70603 0
M  V30 17846 H 2055.29 -4.35036 4.28458 0
M  V30 17847 H 2056.71 -2.29582 5.25324 0
M  V30 17848 H 2055.1 -1.68731 5.7589 0
M  V30 17849 H 2056.17 -0.64309 4.80617 0
M  V30 17850 N 2057.52 -1.53558 -0.354624 0
M  V30 17851 C 2058.45 -1.75568 -1.45778 0
M  V30 17852 C 2059.43 -0.604381 -1.5095 0
M  V30 17853 O 2060.61 -0.838257 -1.68836 0
M  V30 17854 C 2057.74 -1.84435 -2.8408 0
M  V30 17855 C 2056.78 -3.06498 -2.96583 0
M  V30 17856 S 2057.62 -4.65789 -2.64199 0
M  V30 17857 C 2058.77 -4.7752 -4.0463 0
M  V30 17858 H 2059.01 -2.68861 -1.2689 0
M  V30 17859 H 2056.54 -1.44286 -0.549628 0
M  V30 17860 H 2058.5 -1.90229 -3.63762 0
M  V30 17861 H 2057.16 -0.921738 -3.00271 0
M  V30 17862 H 2056.35 -3.09344 -3.97897 0
M  V30 17863 H 2055.95 -2.98873 -2.24836 0
M  V30 17864 H 2058.24 -4.58248 -4.99014 0
M  V30 17865 H 2059.19 -5.79597 -4.06784 0
M  V30 17866 H 2059.6 -4.06062 -3.9214 0
M  V30 17867 N 2058.99 0.615033 -1.45104 0
M  V30 17868 C 2060.24 1.37152 -1.48438 0
M  V30 17869 C 2060.56 1.94602 -0.124508 0
M  V30 17870 O 2059.83 1.76728 0.845222 0
M  V30 17871 H 2058.41 0.509131 -0.546621 0
M  V30 17872 H 2061.07 0.722747 -1.81004 0
M  V30 17873 H 2060.17 2.19472 -2.21898 0
M  V30 17874 N 2060.47 1.3227 0.85688 0
M  V30 17875 C 2061.7 1.25837 1.64863 0
M  V30 17876 C 2062.12 -0.171028 1.87321 0
M  V30 17877 O 2061.48 -1.12165 1.42438 0
M  V30 17878 C 2061.53 2.02105 2.9864 0
M  V30 17879 O 2060.63 1.36733 3.89073 0
M  V30 17880 H 2059.97 0.433799 0.502707 0
M  V30 17881 H 2062.5 1.7455 1.0674 0
M  V30 17882 H 2062.51 2.12195 3.48479 0
M  V30 17883 H 2061.19 3.06048 2.81616 0
M  V30 17884 H 2059.76 1.35177 3.47537 0
M  V30 17885 N 2061.95 -1.07287 1.15444 0
M  V30 17886 C 2062.9 -2.16605 0.847634 0
M  V30 17887 C 2063.89 -1.68449 -0.179217 0
M  V30 17888 O 2065.1 -1.79968 -0.0341862 0
M  V30 17889 H 2061.47 -0.706921 0.25645 0
M  V30 17890 H 2063.44 -2.397 1.77726 0
M  V30 17891 C 2062.19 -3.45893 0.354062 0
M  V30 17892 H 2061.52 -3.83333 1.1356 0
M  V30 17893 H 2062.96 -4.23626 0.178055 0
M  V30 17894 C 2061.41 -3.23966 -0.924544 0
M  V30 17895 O 2061.94 -3.48604 -1.99594 0
M  V30 17896 N 2060.15 -2.77449 -0.864314 0
M  V30 17897 H 2059.7 -2.57599 0.00774481 0
M  V30 17898 H 2059.66 -2.63157 -1.72034 0
M  V30 17899 N 2063.43 -0.951342 -1.25647 0
M  V30 17900 C 2064.34 -0.475416 -2.29732 0
M  V30 17901 C 2065.35 0.455617 -1.67929 0
M  V30 17902 O 2066.53 0.332666 -1.98634 0
M  V30 17903 C 2063.59 0.242274 -3.45852 0
M  V30 17904 C 2062.66 -0.726566 -4.23107 0
M  V30 17905 C 2061.89 -0.043031 -5.33683 0
M  V30 17906 O 2062.11 1.17196 -5.5823 0
M  V30 17907 O 2061.05 -0.726899 -5.97495 0
M  V30 17908 H 2064.87 -1.34027 -2.72526 0
M  V30 17909 H 2062.46 -0.717655 -1.31035 0
M  V30 17910 H 2064.34 0.646132 -4.16417 0
M  V30 17911 H 2063.01 1.08236 -3.05068 0
M  V30 17912 H 2061.92 -1.18057 -3.54984 0
M  V30 17913 H 2063.25 -1.53457 -4.67666 0
M  V30 17914 N 2064.91 1.40216 -0.719531 0
M  V30 17915 C 2066.15 2.00418 -0.260225 0
M  V30 17916 C 2066.47 1.57349 1.15179 0
M  V30 17917 O 2065.74 0.814718 1.78155 0
M  V30 17918 H 2064.32 0.741161 -0.0932204 0
M  V30 17919 H 2066.99 1.71495 -0.926041 0
M  V30 17920 H 2066.08 3.10689 -0.29642 0
M  V30 17921 N 2066.38 0.466004 1.50553 0
M  V30 17922 C 2067.29 -0.33625 2.32178 0
M  V30 17923 C 2068.31 -1.00081 1.42337 0
M  V30 17924 O 2069.49 -0.989904 1.75393 0
M  V30 17925 C 2066.55 -1.40682 3.16875 0
M  V30 17926 C 2065.61 -0.759384 4.2253 0
M  V30 17927 C 2064.84 -1.77894 5.03179 0
M  V30 17928 O 2065.07 -3.00483 4.84836 0
M  V30 17929 O 2064 -1.35358 5.86483 0
M  V30 17930 H 2067.83 0.330908 3.01892 0
M  V30 17931 H 2065.41 0.22795 1.47651 0
M  V30 17932 H 2067.29 -2.02704 3.69444 0
M  V30 17933 H 2065.97 -2.05753 2.49894 0
M  V30 17934 H 2064.88 -0.100338 3.73965 0
M  V30 17935 H 2066.21 -0.151694 4.91966 0
M  V30 17936 N 2067.86 -1.56346 0.198413 0
M  V30 17937 C 2069.11 -1.97674 -0.43948 0
M  V30 17938 C 2069.44 -1.0854 -1.61398 0
M  V30 17939 O 2068.69 -0.125218 -1.95299 0
M  V30 17940 C 2068.99 -3.44852 -0.938713 0
M  V30 17941 C 2068.66 -4.50733 0.122773 0
M  V30 17942 C 2067.32 -4.79412 0.414434 0
M  V30 17943 C 2069.67 -5.14356 0.841848 0
M  V30 17944 C 2067 -5.69004 1.43009 0
M  V30 17945 C 2069.35 -6.05046 1.84667 0
M  V30 17946 C 2068.01 -6.3208 2.1455 0
M  V30 17947 H 2067.28 -0.723339 -0.160817 0
M  V30 17948 H 2069.93 -1.89197 0.296077 0
M  V30 17949 H 2068.24 -3.50415 -1.75261 0
M  V30 17950 H 2069.93 -3.74186 -1.44173 0
M  V30 17951 H 2066.52 -4.28446 -0.114715 0
M  V30 17952 H 2070.71 -4.92288 0.629749 0
M  V30 17953 H 2065.96 -5.88222 1.66749 0
M  V30 17954 H 2070.14 -6.53404 2.40907 0
M  V30 17955 H 2067.76 -7.01301 2.93395 0
M  V30 17956 N 2069.34 0.0751653 -1.57421 0
M  V30 17957 C 2070.29 1.08969 -2.03456 0
M  V30 17958 C 2071.26 1.38655 -0.914549 0
M  V30 17959 O 2072.44 1.4978 -1.18197 0
M  V30 17960 C 2069.58 2.39917 -2.4806 0
M  V30 17961 C 2068.7 2.1679 -3.73666 0
M  V30 17962 C 2067.83 3.41278 -4.07066 0
M  V30 17963 C 2066.87 3.13501 -5.25722 0
M  V30 17964 N 2066.01 4.30309 -5.54778 0
M  V30 17965 H 2070.85 0.690138 -2.89898 0
M  V30 17966 H 2068.38 0.32921 -1.43369 0
M  V30 17967 H 2070.34 3.16366 -2.71972 0
M  V30 17968 H 2068.97 2.77681 -1.646 0
M  V30 17969 H 2068.02 1.3105 -3.57114 0
M  V30 17970 H 2069.34 1.9227 -4.60254 0
M  V30 17971 H 2068.49 4.26124 -4.31861 0
M  V30 17972 H 2067.23 3.68871 -3.19039 0
M  V30 17973 H 2066.23 2.2705 -5.00728 0
M  V30 17974 H 2067.46 2.87234 -6.15365 0
M  V30 17975 H 2065.4 4.5794 -4.69709 0
M  V30 17976 H 2065.32 4.09051 -6.35778 0
M  V30 17977 H 2066.59 5.16162 -5.84121 0
M  V30 17978 N 2070.82 1.53744 0.346476 0
M  V30 17979 C 2071.78 1.80833 1.40826 0
M  V30 17980 C 2072.78 0.679291 1.45747 0
M  V30 17981 O 2073.97 0.947566 1.46174 0
M  V30 17982 C 2071.1 1.94771 2.79781 0
M  V30 17983 H 2072.3 2.75679 1.18071 0
M  V30 17984 H 2069.85 1.45112 0.5807 0
M  V30 17985 H 2070.58 1.02057 3.07823 0
M  V30 17986 H 2070.37 2.76908 2.77605 0
M  V30 17987 H 2071.86 2.17255 3.56637 0
M  V30 17988 N 2072.3 -0.607329 1.45428 0
M  V30 17989 C 2073.21 -1.7463 1.56657 0
M  V30 17990 C 2074.22 -1.68053 0.451014 0
M  V30 17991 O 2075.4 -1.88405 0.711736 0
M  V30 17992 C 2072.46 -3.11092 1.53045 0
M  V30 17993 C 2071.52 -3.29121 2.75641 0
M  V30 17994 C 2070.76 -4.59072 2.72193 0
M  V30 17995 O 2070.98 -5.41408 1.79536 0
M  V30 17996 O 2069.91 -4.79819 3.63397 0
M  V30 17997 H 2073.74 -1.68108 2.5293 0
M  V30 17998 H 2071.33 -0.771447 1.27942 0
M  V30 17999 H 2073.21 -3.92394 1.5364 0
M  V30 18000 H 2071.88 -3.18105 0.599244 0
M  V30 18001 H 2070.79 -2.47406 2.80608 0
M  V30 18002 H 2072.12 -3.26984 3.67889 0
M  V30 18003 N 2073.77 -1.32722 -0.849853 0
M  V30 18004 C 2075.02 -1.23312 -1.60121 0
M  V30 18005 C 2075.34 0.203882 -1.93931 0
M  V30 18006 O 2074.61 1.12986 -1.60035 0
M  V30 18007 H 2073.19 -0.453413 -0.593654 0
M  V30 18008 H 2075.86 -1.66305 -1.0163 0
M  V30 18009 H 2074.95 -1.81913 -2.53602 0
M  V30 18010 N 2075.25 1.06673 -1.16011 0
M  V30 18011 C 2076.2 2.16153 -0.859109 0
M  V30 18012 C 2077.19 1.68542 0.170281 0
M  V30 18013 O 2078.4 1.79983 0.0246416 0
M  V30 18014 H 2074.78 0.705551 -0.260196 0
M  V30 18015 H 2076.75 2.38754 -1.78994 0
M  V30 18016 C 2075.5 3.457 -0.3724 0
M  V30 18017 H 2074.82 3.82725 -1.15591 0
M  V30 18018 H 2076.26 4.23526 -0.200519 0
M  V30 18019 C 2074.72 3.24451 0.90735 0
M  V30 18020 O 2075.25 3.49658 1.97743 0
M  V30 18021 N 2073.45 2.77904 0.849588 0
M  V30 18022 H 2073 2.57591 -0.0214058 0
M  V30 18023 H 2072.96 2.64066 1.70636 0
M  V30 18024 N 2076.73 0.957992 1.25141 0
M  V30 18025 C 2077.96 0.631439 1.97554 0
M  V30 18026 C 2078.38 -0.790342 1.7069 0
M  V30 18027 O 2077.74 -1.53495 0.964826 0
M  V30 18028 C 2077.79 0.900403 3.49178 0
M  V30 18029 O 2076.89 -0.01911 4.12396 0
M  V30 18030 H 2076.23 0.23972 0.619217 0
M  V30 18031 H 2078.76 1.2855 1.59173 0
M  V30 18032 H 2078.77 0.828022 3.99509 0
M  V30 18033 H 2077.45 1.93663 3.68059 0
M  V30 18034 H 2076.02 0.105763 3.7275 0
M  V30 18035 N 2078.21 -1.39832 0.726957 0
M  V30 18036 C 2079.16 -2.30655 0.0817379 0
M  V30 18037 C 2080.13 -1.48792 -0.738257 0
M  V30 18038 O 2081.31 -1.775 -0.699873 0
M  V30 18039 C 2078.45 -3.35079 -0.825599 0
M  V30 18040 C 2077.56 -4.32 0.006145 0
M  V30 18041 C 2076.7 -5.23491 -0.90172 0
M  V30 18042 C 2075.74 -6.12066 -0.064744 0
M  V30 18043 N 2074.87 -6.95939 -0.928103 0
M  V30 18044 H 2079.71 -2.85263 0.861906 0
M  V30 18045 H 2077.25 -1.40468 0.436709 0
M  V30 18046 H 2079.21 -3.94203 -1.36602 0
M  V30 18047 H 2077.84 -2.81946 -1.57183 0
M  V30 18048 H 2076.89 -3.74562 0.66389 0
M  V30 18049 H 2078.2 -4.94499 0.65365 0
M  V30 18050 H 2077.36 -5.87602 -1.51027 0
M  V30 18051 H 2076.1 -4.61294 -1.58302 0
M  V30 18052 H 2075.1 -5.46975 0.556665 0
M  V30 18053 H 2076.33 -6.76326 0.613222 0
M  V30 18054 H 2074.27 -6.36318 -1.59484 0
M  V30 18055 H 2074.19 -7.55249 -0.336895 0
M  V30 18056 H 2075.46 -7.64487 -1.52247 0
M  V30 18057 N 2079.69 -0.473982 -1.50304 0
M  V30 18058 C 2080.93 0.0800096 -2.02342 0
M  V30 18059 C 2081.26 1.39461 -1.35576 0
M  V30 18060 O 2080.52 1.89937 -0.471407 0
M  V30 18061 C 2080.82 0.308841 -3.56063 0
M  V30 18062 C 2080.48 -0.924412 -4.41322 0
M  V30 18063 C 2079.14 -1.26253 -4.64342 0
M  V30 18064 C 2081.5 -1.7454 -4.91106 0
M  V30 18065 C 2078.82 -2.42164 -5.34391 0
M  V30 18066 C 2081.18 -2.89582 -5.62428 0
M  V30 18067 C 2079.84 -3.23805 -5.83701 0
M  V30 18068 H 2079.11 0.0292776 -0.740421 0
M  V30 18069 H 2081.76 -0.62865 -1.80887 0
M  V30 18070 H 2080.06 1.09977 -3.76048 0
M  V30 18071 H 2081.76 0.7515 -3.93895 0
M  V30 18072 H 2078.35 -0.650995 -4.23627 0
M  V30 18073 H 2082.53 -1.49735 -4.73173 0
M  V30 18074 H 2077.79 -2.6895 -5.49068 0
M  V30 18075 H 2081.96 -3.53542 -5.99984 0
M  V30 18076 H 2079.59 -4.13729 -6.37756 0
M  V30 18077 N 2081.16 1.56239 -0.206702 0
M  V30 18078 C 2082.39 2.02291 0.434267 0
M  V30 18079 C 2082.81 1.08672 1.54388 0
M  V30 18080 O 2082.16 0.0936387 1.8226 0
M  V30 18081 C 2082.22 3.47969 0.97978 0
M  V30 18082 O 2081.94 4.38016 -0.0855779 0
M  V30 18083 C 2083.44 4.09596 1.69548 0
M  V30 18084 H 2080.66 0.662272 0.107873 0
M  V30 18085 H 2083.2 2.02 -0.318809 0
M  V30 18086 H 2081.36 3.48923 1.68319 0
M  V30 18087 H 2081.77 5.2351 0.32218 0
M  V30 18088 H 2083.24 5.13343 2.02935 0
M  V30 18089 H 2083.72 3.53727 2.60334 0
M  V30 18090 H 2084.33 4.12448 1.03764 0
M  V30 18091 N 2082.64 -0.0668159 1.57458 0
M  V30 18092 C 2083.87 -0.776687 1.91445 0
M  V30 18093 C 2084.28 -1.71389 0.801403 0
M  V30 18094 O 2083.62 -1.82206 -0.233788 0
M  V30 18095 C 2083.69 -1.61981 3.2094 0
M  V30 18096 C 2083.35 -0.851453 4.48998 0
M  V30 18097 C 2084.35 -0.168463 5.19627 0
M  V30 18098 C 2082.03 -0.817153 4.95609 0
M  V30 18099 C 2084.03 0.538543 6.35121 0
M  V30 18100 C 2081.71 -0.106378 6.11007 0
M  V30 18101 C 2082.71 0.570265 6.80615 0
M  V30 18102 O 2082.4 1.26958 7.93812 0
M  V30 18103 H 2082.13 -0.225698 0.63721 0
M  V30 18104 H 2084.68 -0.0398627 2.05361 0
M  V30 18105 H 2082.91 -2.39956 3.03246 0
M  V30 18106 H 2084.6 -2.20882 3.40538 0
M  V30 18107 H 2085.37 -0.186236 4.84642 0
M  V30 18108 H 2081.25 -1.33329 4.41299 0
M  V30 18109 H 2084.79 1.06725 6.89388 0
M  V30 18110 H 2080.69 -0.0865497 6.45442 0
M  V30 18111 H 2081.46 1.17936 8.09959 0
M  V30 18112 N 2084.12 -1.53926 -0.338317 0
M  V30 18113 C 2085.35 -1.75368 -1.09789 0
M  V30 18114 C 2085.76 -0.495294 -1.82187 0
M  V30 18115 O 2085.12 0.533316 -1.74534 0
M  V30 18116 C 2085.17 -2.93722 -2.10736 0
M  V30 18117 O 2084.89 -4.14695 -1.4128 0
M  V30 18118 C 2086.39 -3.27258 -2.99027 0
M  V30 18119 H 2083.61 -0.585824 -0.327188 0
M  V30 18120 H 2086.16 -2.00767 -0.388932 0
M  V30 18121 H 2084.31 -2.70639 -2.77188 0
M  V30 18122 H 2084.73 -4.81165 -2.08759 0
M  V30 18123 H 2086.2 -4.13409 -3.65783 0
M  V30 18124 H 2086.68 -2.43786 -3.65329 0
M  V30 18125 H 2087.28 -3.52366 -2.38156 0
M  V30 18126 N 2085.6 0.599608 -1.45748 0
M  V30 18127 C 2086.85 1.3604 -1.50403 0
M  V30 18128 C 2087.18 1.93632 -0.148419 0
M  V30 18129 O 2086.45 1.75516 0.838118 0
M  V30 18130 C 2086.74 2.50237 -2.58946 0
M  V30 18131 C 2086.59 1.9779 -4.03979 0
M  V30 18132 C 2087.91 3.52344 -2.63708 0
M  V30 18133 H 2085.03 0.49329 -0.547571 0
M  V30 18134 H 2087.67 0.675178 -1.77599 0
M  V30 18135 H 2085.82 3.0869 -2.35888 0
M  V30 18136 H 2087.49 1.43925 -4.38273 0
M  V30 18137 H 2085.73 1.28734 -4.14258 0
M  V30 18138 H 2086.41 2.80147 -4.75628 0
M  V30 18139 H 2088.88 3.03746 -2.8439 0
M  V30 18140 H 2087.76 4.29728 -3.41504 0
M  V30 18141 H 2088.02 4.08481 -1.69103 0
M  V30 18142 N 2087.08 1.33171 0.842803 0
M  V30 18143 C 2088.01 1.2572 1.96766 0
M  V30 18144 C 2088.99 0.138574 1.69535 0
M  V30 18145 O 2090.17 0.327704 1.91415 0
M  V30 18146 C 2087.3 0.991637 3.32842 0
M  V30 18147 C 2086.26 2.07278 3.74459 0
M  V30 18148 C 2085.58 1.65942 5.08299 0
M  V30 18149 C 2086.88 3.48911 3.88662 0
M  V30 18150 H 2088.58 2.19834 2.03257 0
M  V30 18151 H 2086.12 1.05829 0.976533 0
M  V30 18152 H 2088.08 0.926021 4.111 0
M  V30 18153 H 2086.8 0.0148823 3.26597 0
M  V30 18154 H 2085.46 2.12875 2.98462 0
M  V30 18155 H 2085.11 0.669795 4.98521 0
M  V30 18156 H 2084.81 2.38288 5.37115 0
M  V30 18157 H 2086.33 1.60839 5.89036 0
M  V30 18158 H 2087.75 3.45837 4.57241 0
M  V30 18159 H 2086.14 4.1971 4.2891 0
M  V30 18160 H 2087.21 3.87705 2.91226 0
M  V30 18161 N 2088.56 -1.06056 1.16576 0
M  V30 18162 C 2089.47 -2.17107 0.888912 0
M  V30 18163 C 2090.48 -1.73438 -0.139723 0
M  V30 18164 O 2091.66 -2.01365 0.0374846 0
M  V30 18165 C 2088.72 -3.44425 0.396494 0
M  V30 18166 C 2087.78 -4.02589 1.49065 0
M  V30 18167 C 2087.02 -5.2383 1.02163 0
M  V30 18168 O 2087.24 -5.70257 -0.127684 0
M  V30 18169 O 2086.17 -5.7401 1.81098 0
M  V30 18170 H 2090 -2.43304 1.81761 0
M  V30 18171 H 2087.58 -1.1564 0.945923 0
M  V30 18172 H 2089.47 -4.21203 0.128983 0
M  V30 18173 H 2088.14 -3.1975 -0.504164 0
M  V30 18174 H 2087.05 -3.27292 1.81193 0
M  V30 18175 H 2088.38 -4.31565 2.3667 0
M  V30 18176 N 2090.03 -0.964615 -1.24631 0
M  V30 18177 C 2091.31 -0.54181 -1.87946 0
M  V30 18178 C 2091.69 0.981047 -1.86919 0
M  V30 18179 O 2091.04 1.85109 -1.33966 0
M  V30 18180 C 2091.25 -1.12982 -3.30206 0
M  V30 18181 C 2092.6 -1.21281 -4.0691 0
M  V30 18182 O 2093.62 -1.0821 -3.39366 0
M  V30 18183 O 2092.48 -1.41904 -5.27755 0
M  V30 18184 H 2089.57 -0.180209 -0.807127 0
M  V30 18185 H 2092.12 -1.05869 -1.32627 0
M  V30 18186 H 2090.89 -2.17271 -3.25436 0
M  V30 18187 H 2090.51 -0.596798 -3.93096 0
M  V30 18188 N 2091.51 1.39445 -0.734362 0
M  V30 18189 C 2092.76 2.0013 -0.281468 0
M  V30 18190 C 2093.08 1.58562 1.13504 0
M  V30 18191 O 2092.35 0.833568 1.77281 0
M  V30 18192 H 2090.93 0.74013 -0.101076 0
M  V30 18193 H 2093.59 1.70503 -0.944178 0
M  V30 18194 H 2092.69 3.10357 -0.329356 0
M  V30 18195 N 2092.99 0.481946 1.5005 0
M  V30 18196 C 2094.23 -0.067885 2.04287 0
M  V30 18197 C 2094.59 -1.36011 1.35517 0
M  V30 18198 O 2095.79 -1.993 1.80369 0
M  V30 18199 C 2094.07 -0.23649 3.56617 0
M  V30 18200 S 2095.62 -0.743315 4.32458 0
M  V30 18201 H 2092.44 -0.0108195 0.710918 0
M  V30 18202 H 2095.04 0.651566 1.84323 0
M  V30 18203 H 2093.75 0.709617 4.04218 0
M  V30 18204 H 2093.28 -0.981739 3.80953 0
M  V30 18205 H 2095.29 -2.01523 4.53435 0
M  V30 18206 N 2094.47 -1.56127 0.214985 0
M  V30 18207 C 2095.7 -2.02519 -0.423533 0
M  V30 18208 C 2096.11 -1.0949 -1.5381 0
M  V30 18209 O 2095.47 -0.103303 -1.82207 0
M  V30 18210 C 2095.52 -3.48484 -0.961313 0
M  V30 18211 O 2095.24 -4.37965 0.108806 0
M  V30 18212 C 2096.74 -4.10489 -1.67373 0
M  V30 18213 H 2093.96 -0.662835 -0.104359 0
M  V30 18214 H 2096.5 -2.01828 0.329517 0
M  V30 18215 H 2094.66 -3.49811 -1.66466 0
M  V30 18216 H 2095.07 -5.23673 -0.294413 0
M  V30 18217 H 2096.55 -5.14412 -2.00209 0
M  V30 18218 H 2097.02 -3.55102 -2.58455 0
M  V30 18219 H 2097.63 -4.12992 -1.01575 0
M  V30 18220 N 2095.95 0.0584645 -1.57492 0
M  V30 18221 C 2096.89 1.06805 -2.04601 0
M  V30 18222 C 2097.86 1.37677 -0.929204 0
M  V30 18223 O 2099.05 1.48518 -1.19779 0
M  V30 18224 C 2096.19 2.37272 -2.50591 0
M  V30 18225 C 2095.3 2.12815 -3.75944 0
M  V30 18226 C 2094.44 3.36941 -4.10663 0
M  V30 18227 C 2093.47 3.07907 -5.29018 0
M  V30 18228 N 2092.61 4.24401 -5.5931 0
M  V30 18229 H 2097.45 0.659352 -2.90614 0
M  V30 18230 H 2094.99 0.313985 -1.4371 0
M  V30 18231 H 2096.95 3.13463 -2.75312 0
M  V30 18232 H 2095.58 2.75919 -1.67536 0
M  V30 18233 H 2094.63 1.27255 -3.58483 0
M  V30 18234 H 2095.94 1.87378 -4.62267 0
M  V30 18235 H 2095.09 4.21519 -4.36356 0
M  V30 18236 H 2093.83 3.65466 -3.22933 0
M  V30 18237 H 2092.84 2.21727 -5.03108 0
M  V30 18238 H 2094.06 2.80691 -6.18377 0
M  V30 18239 H 2092.01 4.52933 -4.7454 0
M  V30 18240 H 2091.93 4.02284 -6.40081 0
M  V30 18241 H 2093.19 5.09938 -5.89562 0
M  V30 18242 N 2097.42 1.54103 0.330149 0
M  V30 18243 C 2098.37 1.7941 1.40698 0
M  V30 18244 C 2099.36 0.649833 1.47194 0
M  V30 18245 O 2100.55 0.909637 1.51837 0
M  V30 18246 C 2097.68 2.01906 2.77649 0
M  V30 18247 C 2096.76 3.22436 2.75492 0
M  V30 18248 N 2097.16 4.43627 2.42959 0
M  V30 18249 C 2095.45 3.23876 3.06628 0
M  V30 18250 C 2096.15 5.25536 2.49372 0
M  V30 18251 N 2095.13 4.62564 2.85544 0
M  V30 18252 H 2098.93 2.70694 1.14463 0
M  V30 18253 H 2096.45 1.53209 0.538595 0
M  V30 18254 H 2098.44 2.18174 3.55255 0
M  V30 18255 H 2097.1 1.11872 3.04819 0
M  V30 18256 H 2098.11 4.70743 2.1592 0
M  V30 18257 H 2094.79 2.43854 3.38883 0
M  V30 18258 H 2096.18 6.32297 2.27265 0
M  V30 18259 N 2098.9 -0.59187 1.46064 0
M  V30 18260 C 2100.13 -1.37666 1.54453 0
M  V30 18261 C 2100.55 -1.87916 0.18248 0
M  V30 18262 O 2099.9 -1.63106 -0.818692 0
M  V30 18263 C 2099.95 -2.57045 2.54185 0
M  V30 18264 O 2099.67 -2.08879 3.85099 0
M  V30 18265 C 2101.18 -3.49713 2.72426 0
M  V30 18266 H 2098.4 -0.420872 0.522597 0
M  V30 18267 H 2100.94 -0.720387 1.91391 0
M  V30 18268 H 2099.09 -3.18681 2.20276 0
M  V30 18269 H 2099.51 -2.86557 4.39301 0
M  V30 18270 H 2100.98 -4.29981 3.4615 0
M  V30 18271 H 2101.46 -4.01064 1.7901 0
M  V30 18272 H 2102.07 -2.9392 3.07395 0
M  V30 18273 N 2100.38 -1.33616 -0.835729 0
M  V30 18274 C 2101.63 -1.25003 -1.58804 0
M  V30 18275 C 2101.95 0.183302 -1.94137 0
M  V30 18276 O 2101.22 1.11282 -1.61224 0
M  V30 18277 H 2099.8 -0.459684 -0.588812 0
M  V30 18278 H 2102.46 -1.67374 -0.998599 0
M  V30 18279 H 2101.56 -1.84593 -2.51658 0
M  V30 18280 N 2101.86 1.05436 -1.17136 0
M  V30 18281 C 2102.77 2.16633 -0.900413 0
M  V30 18282 C 2103.78 1.7351 0.130523 0
M  V30 18283 O 2104.96 2.01342 -0.0481629 0
M  V30 18284 C 2102.03 3.4421 -0.414754 0
M  V30 18285 C 2101.09 4.01793 -1.51198 0
M  V30 18286 C 2100.32 5.23281 -1.0494 0
M  V30 18287 O 2100.54 5.70317 0.0974405 0
M  V30 18288 O 2099.48 5.73041 -1.8414 0
M  V30 18289 H 2103.3 2.42336 -1.83049 0
M  V30 18290 H 2100.89 1.15137 -0.952042 0
M  V30 18291 H 2102.77 4.21128 -0.151319 0
M  V30 18292 H 2101.44 3.20013 0.487199 0
M  V30 18293 H 2100.35 3.26326 -1.82926 0
M  V30 18294 H 2101.68 4.30304 -2.38955 0
M  V30 18295 N 2103.34 0.971211 1.24118 0
M  V30 18296 C 2104.58 0.645565 1.92883 0
M  V30 18297 C 2104.94 -0.810841 1.7448 0
M  V30 18298 O 2104.23 -1.57617 1.08938 0
M  V30 18299 C 2104.42 0.960091 3.44263 0
M  V30 18300 C 2104.25 2.44552 3.77391 0
M  V30 18301 C 2103.02 3.10595 3.98571 0
M  V30 18302 C 2105.22 3.42577 3.83595 0
M  V30 18303 N 2103.2 4.48839 4.18828 0
M  V30 18304 C 2104.57 4.66192 4.08736 0
M  V30 18305 C 2106.63 3.37186 3.66347 0
M  V30 18306 C 2105.33 5.85078 4.18421 0
M  V30 18307 C 2107.36 4.55428 3.77279 0
M  V30 18308 C 2106.72 5.77834 4.02848 0
M  V30 18309 H 2102.82 0.287133 0.727378 0
M  V30 18310 H 2105.4 1.24679 1.49543 0
M  V30 18311 H 2103.57 0.387647 3.86461 0
M  V30 18312 H 2105.31 0.592659 4.00337 0
M  V30 18313 H 2102.06 2.61116 3.95115 0
M  V30 18314 H 2102.49 5.20482 4.32929 0
M  V30 18315 H 2107.13 2.43583 3.45582 0
M  V30 18316 H 2104.85 6.79106 4.37996 0
M  V30 18317 H 2108.43 4.52822 3.65299 0
M  V30 18318 H 2107.31 6.67801 4.1111 0
M  V30 18319 N 2104.81 -1.39054 0.741747 0
M  V30 18320 C 2106.04 -2.05193 0.301789 0
M  V30 18321 C 2106.46 -1.55567 -1.05739 0
M  V30 18322 O 2105.82 -0.702382 -1.67141 0
M  V30 18323 C 2105.87 -3.59172 0.320615 0
M  V30 18324 O 2104.97 -4.06596 -0.68946 0
M  V30 18325 H 2104.32 -0.649957 0.135837 0
M  V30 18326 H 2106.85 -1.77958 1.00956 0
M  V30 18327 H 2106.86 -4.07657 0.167351 0
M  V30 18328 H 2105.53 -3.94652 1.31234 0
M  V30 18329 H 2104.11 -3.69509 -0.50178 0
M  V30 18330 N 2106.29 -0.489897 -1.49792 0
M  V30 18331 C 2107.24 0.294423 -2.28914 0
M  V30 18332 C 2108.21 0.970384 -1.34806 0
M  V30 18333 O 2109.39 0.979195 -1.63757 0
M  V30 18334 C 2106.53 1.35949 -3.17194 0
M  V30 18335 C 2105.65 0.696419 -4.2635 0
M  V30 18336 C 2104.78 1.74098 -5.0186 0
M  V30 18337 C 2103.82 1.05917 -6.02866 0
M  V30 18338 N 2102.96 2.04743 -6.71584 0
M  V30 18339 H 2107.8 -0.386562 -2.95482 0
M  V30 18340 H 2105.34 -0.202479 -1.457 0
M  V30 18341 H 2107.29 1.98886 -3.66743 0
M  V30 18342 H 2105.92 2.00938 -2.52633 0
M  V30 18343 H 2104.98 -0.0459714 -3.80372 0
M  V30 18344 H 2106.29 0.159163 -4.98546 0
M  V30 18345 H 2105.44 2.44568 -5.55222 0
M  V30 18346 H 2104.18 2.31207 -4.29412 0
M  V30 18347 H 2103.19 0.340189 -5.48747 0
M  V30 18348 H 2104.41 0.494725 -6.77296 0
M  V30 18349 H 2102.36 2.60835 -6.01915 0
M  V30 18350 H 2102.27 1.56053 -7.39718 0
M  V30 18351 H 2103.54 2.74536 -7.29555 0
M  V30 18352 N 2107.77 1.56011 -0.223262 0
M  V30 18353 C 2109 2.0274 0.412787 0
M  V30 18354 C 2109.41 1.10304 1.53227 0
M  V30 18355 O 2108.77 0.112965 1.8215 0
M  V30 18356 C 2108.82 3.48989 0.942818 0
M  V30 18357 O 2108.54 4.37901 -0.132031 0
M  V30 18358 C 2110.04 4.11371 1.65194 0
M  V30 18359 H 2107.26 0.663379 0.100842 0
M  V30 18360 H 2109.81 2.0165 -0.340215 0
M  V30 18361 H 2107.96 3.50689 1.64609 0
M  V30 18362 H 2108.38 5.23822 0.266637 0
M  V30 18363 H 2109.85 5.15467 1.97479 0
M  V30 18364 H 2110.33 3.56468 2.56568 0
M  V30 18365 H 2110.93 4.13525 0.993831 0
M  V30 18366 N 2109.25 -0.0501116 1.5752 0
M  V30 18367 C 2110.49 -0.7462 1.88573 0
M  V30 18368 C 2110.83 -1.76115 0.818369 0
M  V30 18369 O 2110.1 -1.93764 -0.169013 0
M  V30 18370 C 2110.39 -1.43474 3.30284 0
M  V30 18371 C 2110.24 -0.434736 4.47694 0
M  V30 18372 C 2111.56 -2.37419 3.70568 0
M  V30 18373 H 2108.68 -0.269807 0.685838 0
M  V30 18374 H 2111.32 -0.00912382 1.89998 0
M  V30 18375 H 2109.47 -2.06301 3.29199 0
M  V30 18376 H 2111.14 0.189992 4.60909 0
M  V30 18377 H 2109.38 0.24799 4.33091 0
M  V30 18378 H 2110.05 -0.954564 5.43684 0
M  V30 18379 H 2112.53 -1.84653 3.72884 0
M  V30 18380 H 2111.41 -2.82587 4.7057 0
M  V30 18381 H 2111.67 -3.2318 3.01674 0
M  V30 18382 N 2110.73 -1.54276 -0.321972 0
M  V30 18383 C 2111.97 -1.72557 -1.05973 0
M  V30 18384 C 2112.3 -0.500117 -1.8796 0
M  V30 18385 O 2111.56 0.518125 -1.88717 0
M  V30 18386 C 2111.86 -2.95429 -2.01138 0
M  V30 18387 C 2111.52 -4.30124 -1.35293 0
M  V30 18388 C 2110.18 -4.66743 -1.17066 0
M  V30 18389 C 2112.54 -5.13709 -0.880472 0
M  V30 18390 C 2109.86 -5.84545 -0.502454 0
M  V30 18391 C 2112.22 -6.32196 -0.226079 0
M  V30 18392 C 2110.88 -6.67492 -0.0316775 0
M  V30 18393 H 2110.15 -0.631432 -0.387782 0
M  V30 18394 H 2112.8 -1.88517 -0.336709 0
M  V30 18395 H 2111.1 -2.74163 -2.79896 0
M  V30 18396 H 2112.8 -3.06767 -2.58253 0
M  V30 18397 H 2109.39 -4.01314 -1.50481 0
M  V30 18398 H 2113.57 -4.85934 -1.00907 0
M  V30 18399 H 2108.83 -6.1045 -0.340653 0
M  V30 18400 H 2113 -6.96243 0.148004 0
M  V30 18401 H 2110.63 -7.58631 0.488125 0
M  V30 18402 N 2112.2 0.584116 -1.46376 0
M  V30 18403 C 2113.11 1.72116 -1.59415 0
M  V30 18404 C 2114.13 1.67314 -0.477692 0
M  V30 18405 O 2115.31 1.87248 -0.74162 0
M  V30 18406 C 2112.37 3.08617 -1.57975 0
M  V30 18407 C 2111.43 3.24694 -2.80842 0
M  V30 18408 C 2110.67 4.54683 -2.79462 0
M  V30 18409 O 2110.89 5.38484 -1.88126 0
M  V30 18410 O 2109.82 4.73977 -3.70985 0
M  V30 18411 H 2113.65 1.64062 -2.55572 0
M  V30 18412 H 2111.23 0.750995 -1.29153 0
M  V30 18413 H 2113.12 3.899 -1.59863 0
M  V30 18414 H 2111.79 3.17111 -0.649775 0
M  V30 18415 H 2110.7 2.4291 -2.84509 0
M  V30 18416 H 2112.03 3.2109 -3.73044 0
M  V30 18417 N 2113.68 1.34058 0.828631 0
M  V30 18418 C 2114.91 1.28969 1.61402 0
M  V30 18419 C 2115.32 -0.139572 1.88684 0
M  V30 18420 O 2114.66 -1.09533 1.47473 0
M  V30 18421 C 2114.73 2.00658 2.9829 0
M  V30 18422 C 2114.39 3.49935 2.93929 0
M  V30 18423 C 2115.39 4.44949 2.68918 0
M  V30 18424 C 2113.07 3.92264 3.13742 0
M  V30 18425 C 2115.07 5.80266 2.63761 0
M  V30 18426 C 2112.75 5.27683 3.0821 0
M  V30 18427 C 2113.75 6.21496 2.83253 0
M  V30 18428 O 2113.44 7.54433 2.77643 0
M  V30 18429 H 2113.17 0.445319 0.508593 0
M  V30 18430 H 2115.73 1.77155 1.03949 0
M  V30 18431 H 2113.96 1.47077 3.57638 0
M  V30 18432 H 2115.64 1.88933 3.59248 0
M  V30 18433 H 2116.41 4.13567 2.53352 0
M  V30 18434 H 2112.29 3.19646 3.32186 0
M  V30 18435 H 2115.83 6.53461 2.442 0
M  V30 18436 H 2111.73 5.58685 3.23328 0
M  V30 18437 H 2112.5 7.64102 2.93411 0
M  V30 18438 N 2115.16 -1.04814 1.17694 0
M  V30 18439 C 2116.58 -1.3006 0.925018 0
M  V30 18440 C 2116.78 -1.97207 -0.4137 0
M  V30 18441 O 2115.83 -2.24802 -1.14979 0
M  V30 18442 C 2117.15 -2.16666 2.0851 0
M  V30 18443 C 2118.69 -2.30036 2.12256 0
M  V30 18444 C 2119.17 -3.20004 3.27661 0
M  V30 18445 N 2120.66 -3.2759 3.27473 0
M  V30 18446 C 2121.4 -3.97339 4.13412 0
M  V30 18447 N 2120.89 -4.69483 5.09468 0
M  V30 18448 N 2122.68 -3.93542 4.01349 0
M  V30 18449 H 2114.84 -0.596316 2.03857 0
M  V30 18450 H 2117.1 -0.325581 0.890338 0
M  V30 18451 H 2116.8 -1.74624 3.05286 0
M  V30 18452 H 2116.68 -3.17317 2.03936 0
M  V30 18453 H 2119.07 -2.71318 1.16063 0
M  V30 18454 H 2119.15 -1.29001 2.2089 0
M  V30 18455 H 2118.79 -2.79435 4.24121 0
M  V30 18456 H 2118.72 -4.21053 3.16263 0
M  V30 18457 H 2121.21 -2.76191 2.57928 0
M  V30 18458 H 2121.52 -5.20277 5.7143 0
M  V30 18459 H 2119.87 -4.68413 5.13434 0
M  V30 18460 H 2123.06 -3.36308 3.25599 0
M  V30 18461 H 2123.23 -4.4763 4.68542 0
M  V30 18462 N 2116.64 -0.977779 -1.23601 0
M  V30 18463 C 2117.87 -0.663151 -1.95984 0
M  V30 18464 C 2118.28 0.769376 -1.72412 0
M  V30 18465 O 2117.64 1.51741 -1.01395 0
M  V30 18466 C 2117.69 -0.940786 -3.49044 0
M  V30 18467 O 2117.41 -2.31701 -3.71815 0
M  V30 18468 C 2118.91 -0.641745 -4.3863 0
M  V30 18469 H 2116.13 -0.246565 -0.624057 0
M  V30 18470 H 2118.68 -1.30845 -1.57162 0
M  V30 18471 H 2116.83 -0.341537 -3.85892 0
M  V30 18472 H 2117.25 -2.40469 -4.66128 0
M  V30 18473 H 2118.72 -0.886389 -5.44837 0
M  V30 18474 H 2119.2 0.42415 -4.37147 0
M  V30 18475 H 2119.8 -1.22135 -4.07386 0
M  V30 18476 N 2118.12 1.38658 -0.749111 0
M  V30 18477 C 2119.53 1.53804 -0.426214 0
M  V30 18478 C 2119.73 1.7129 1.06122 0
M  V30 18479 O 2118.79 1.72138 1.84729 0
M  V30 18480 C 2120.1 2.7477 -1.22155 0
M  V30 18481 C 2121.65 2.88616 -1.21118 0
M  V30 18482 C 2122.13 4.12538 -1.98939 0
M  V30 18483 N 2123.62 4.19606 -1.96176 0
M  V30 18484 C 2124.35 5.14474 -2.53188 0
M  V30 18485 N 2123.85 6.15043 -3.18895 0
M  V30 18486 N 2125.64 5.06792 -2.43143 0
M  V30 18487 H 2117.79 1.25557 -1.71316 0
M  V30 18488 H 2120.05 0.609604 -0.726008 0
M  V30 18489 H 2119.76 2.68239 -2.27466 0
M  V30 18490 H 2119.63 3.67832 -0.835424 0
M  V30 18491 H 2122.02 2.94632 -0.166149 0
M  V30 18492 H 2122.1 1.96577 -1.63679 0
M  V30 18493 H 2121.75 4.07284 -3.03451 0
M  V30 18494 H 2121.68 5.03648 -1.53775 0
M  V30 18495 H 2124.17 3.47577 -1.4832 0
M  V30 18496 H 2124.48 6.83917 -3.59829 0
M  V30 18497 H 2122.83 6.15389 -3.22989 0
M  V30 18498 H 2126.02 4.27162 -1.91442 0
M  V30 18499 H 2126.19 5.80546 -2.87871 0
M  V30 18500 N 2119.6 0.497834 1.49531 0
M  V30 18501 C 2120.54 -0.282279 2.29067 0
M  V30 18502 C 2121.51 -0.963221 1.35319 0
M  V30 18503 O 2122.7 -0.970497 1.64274 0
M  V30 18504 C 2119.84 -1.34265 3.1791 0
M  V30 18505 C 2118.95 -0.673799 4.26713 0
M  V30 18506 C 2118.09 -1.71434 5.02776 0
M  V30 18507 C 2117.12 -1.02719 6.0342 0
M  V30 18508 N 2116.26 -2.01178 6.7266 0
M  V30 18509 H 2121.1 0.402227 2.95273 0
M  V30 18510 H 2118.64 0.210203 1.4559 0
M  V30 18511 H 2120.6 -1.96938 3.67792 0
M  V30 18512 H 2119.23 -1.99596 2.53695 0
M  V30 18513 H 2118.28 0.0661428 3.80342 0
M  V30 18514 H 2119.59 -0.132722 4.98623 0
M  V30 18515 H 2118.74 -2.4162 5.56511 0
M  V30 18516 H 2117.48 -2.28926 4.30632 0
M  V30 18517 H 2116.49 -0.311083 5.48919 0
M  V30 18518 H 2117.71 -0.458799 6.77548 0
M  V30 18519 H 2115.66 -2.57639 6.0329 0
M  V30 18520 H 2115.58 -1.52128 7.40536 0
M  V30 18521 H 2116.84 -2.70663 7.31001 0
M  V30 18522 N 2121.07 -1.5589 0.231532 0
M  V30 18523 C 2122.04 -2.19461 -0.661012 0
M  V30 18524 C 2123.04 -1.15936 -1.11424 0
M  V30 18525 O 2124.23 -1.41111 -1.02144 0
M  V30 18526 C 2121.36 -2.82592 -1.90669 0
M  V30 18527 H 2122.55 -2.9971 -0.106607 0
M  V30 18528 H 2120.1 -1.5629 -0.0180602 0
M  V30 18529 H 2120.84 -2.06239 -2.50272 0
M  V30 18530 H 2120.62 -3.58412 -1.59007 0
M  V30 18531 H 2122.11 -3.3129 -2.54238 0
M  V30 18532 N 2122.55 0.0417572 -1.57545 0
M  V30 18533 C 2123.8 0.736189 -1.88966 0
M  V30 18534 C 2124.13 1.75678 -0.827697 0
M  V30 18535 O 2123.41 1.93851 0.158734 0
M  V30 18536 C 2123.69 1.4172 -3.3104 0
M  V30 18537 C 2123.54 0.410987 -4.47918 0
M  V30 18538 C 2124.86 2.3545 -3.71822 0
M  V30 18539 H 2121.98 0.266166 -0.687259 0
M  V30 18540 H 2124.62 -0.000952352 -1.9 0
M  V30 18541 H 2122.77 2.04552 -3.30289 0
M  V30 18542 H 2124.44 -0.214433 -4.60801 0
M  V30 18543 H 2122.69 -0.270954 -4.32953 0
M  V30 18544 H 2123.36 0.925718 -5.44182 0
M  V30 18545 H 2125.83 1.82673 -3.73858 0
M  V30 18546 H 2124.71 2.80087 -4.72062 0
M  V30 18547 H 2124.97 3.21575 -3.03384 0
M  V30 18548 N 2124.03 1.54445 0.313786 0
M  V30 18549 C 2125.45 1.45373 0.658707 0
M  V30 18550 C 2125.65 0.634528 1.91248 0
M  V30 18551 O 2124.7 0.137176 2.52127 0
M  V30 18552 C 2126.01 2.89201 0.823608 0
M  V30 18553 C 2127.56 2.99164 0.92032 0
M  V30 18554 C 2128.04 4.44162 1.11732 0
M  V30 18555 N 2129.53 4.47817 1.18382 0
M  V30 18556 C 2130.26 5.57177 1.35431 0
M  V30 18557 N 2129.76 6.76486 1.4946 0
M  V30 18558 N 2131.55 5.44842 1.38217 0
M  V30 18559 H 2123.7 2.06182 -0.510155 0
M  V30 18560 H 2125.97 0.933263 -0.166508 0
M  V30 18561 H 2125.67 3.5169 -0.0265797 0
M  V30 18562 H 2125.55 3.35881 1.7165 0
M  V30 18563 H 2127.93 2.36797 1.761 0
M  V30 18564 H 2128.01 2.558 0.00368975 0
M  V30 18565 H 2127.66 5.0712 0.281448 0
M  V30 18566 H 2127.59 4.85145 2.04797 0
M  V30 18567 H 2130.08 3.61855 1.08945 0
M  V30 18568 H 2130.39 7.55589 1.62188 0
M  V30 18569 H 2128.74 6.79376 1.46539 0
M  V30 18570 H 2131.93 4.50582 1.2686 0
M  V30 18571 H 2132.1 6.30122 1.51161 0
M  V30 18572 N 2125.51 -0.576345 1.46683 0
M  V30 18573 C 2126.44 -1.69505 1.60594 0
M  V30 18574 C 2127.42 -1.63873 0.456022 0
M  V30 18575 O 2128.6 -1.81791 0.683045 0
M  V30 18576 C 2125.73 -3.08148 1.60194 0
M  V30 18577 C 2124.69 -3.28615 2.7422 0
M  V30 18578 C 2124.01 -4.6785 2.58884 0
M  V30 18579 C 2125.31 -3.15834 4.15989 0
M  V30 18580 H 2127.01 -1.58119 2.54241 0
M  V30 18581 H 2124.55 -0.759271 1.22356 0
M  V30 18582 H 2126.51 -3.86237 1.68519 0
M  V30 18583 H 2125.23 -3.20447 0.630952 0
M  V30 18584 H 2123.89 -2.52927 2.65375 0
M  V30 18585 H 2123.54 -4.76923 1.59854 0
M  V30 18586 H 2123.24 -4.82495 3.35368 0
M  V30 18587 H 2124.76 -5.48099 2.69109 0
M  V30 18588 H 2126.18 -3.83761 4.25911 0
M  V30 18589 H 2124.57 -3.41998 4.9311 0
M  V30 18590 H 2125.64 -2.12828 4.35698 0
M  V30 18591 N 2126.99 -1.34495 -0.82151 0
M  V30 18592 C 2128.4 -1.24152 -1.39439 0
M  V30 18593 C 2128.75 0.1324 -1.95753 0
M  V30 18594 O 2127.87 1.03279 -1.90164 0
M  V30 18595 C 2128.47 -2.24789 -2.53487 0
M  V30 18596 C 2127.03 -2.18232 -3.06679 0
M  V30 18597 C 2126.17 -2.11315 -1.79558 0
M  V30 18598 H 2129.12 -1.45841 -0.625789 0
M  V30 18599 H 2129.15 -1.8657 -3.3162 0
M  V30 18600 H 2128.66 -3.24774 -2.1247 0
M  V30 18601 H 2126.76 -1.21608 -3.52196 0
M  V30 18602 H 2126.87 -3.09548 -3.65673 0
M  V30 18603 H 2125.24 -1.57058 -2.00512 0
M  V30 18604 H 2126.02 -3.13136 -1.40714 0
M  V30 18605 N 2128.46 1.04188 -1.18248 0
M  V30 18606 C 2129.71 1.76764 -0.971464 0
M  V30 18607 C 2130.03 1.89102 0.49997 0
M  V30 18608 O 2131.23 2.58519 0.829468 0
M  V30 18609 C 2129.69 3.17801 -1.68909 0
M  V30 18610 C 2129.3 3.1356 -3.19975 0
M  V30 18611 C 2131.04 3.94763 -1.56084 0
M  V30 18612 C 2128.95 4.49449 -3.84382 0
M  V30 18613 H 2127.88 0.662591 -0.359847 0
M  V30 18614 H 2130.53 1.16702 -1.41608 0
M  V30 18615 H 2128.91 3.78252 -1.17224 0
M  V30 18616 H 2130.08 2.62568 -3.78675 0
M  V30 18617 H 2128.4 2.50097 -3.32927 0
M  V30 18618 H 2131 4.95253 -2.01566 0
M  V30 18619 H 2131.34 4.13128 -0.512919 0
M  V30 18620 H 2131.87 3.40885 -2.05043 0
M  V30 18621 H 2128.61 4.36289 -4.89216 0
M  V30 18622 H 2128.13 5.00549 -3.3047 0
M  V30 18623 H 2129.81 5.18367 -3.87175 0
M  V30 18624 N 2129.94 0.98432 1.23081 0
M  V30 18625 C 2131.19 0.656352 1.91885 0
M  V30 18626 C 2131.52 -0.808541 1.76568 0
M  V30 18627 O 2130.8 -1.5837 1.12912 0
M  V30 18628 C 2131.08 1.05239 3.44379 0
M  V30 18629 C 2130.93 2.57521 3.68786 0
M  V30 18630 C 2132.25 0.599218 4.36002 0
M  V30 18631 H 2129.37 0.23992 0.696855 0
M  V30 18632 H 2132.01 1.22631 1.45127 0
M  V30 18633 H 2130.16 0.567423 3.84334 0
M  V30 18634 H 2131.83 3.13622 3.38288 0
M  V30 18635 H 2130.08 2.99978 3.13362 0
M  V30 18636 H 2130.75 2.80282 4.75548 0
M  V30 18637 H 2133.22 1.01565 4.03514 0
M  V30 18638 H 2132.1 0.904717 5.41393 0
M  V30 18639 H 2132.36 -0.500359 4.39259 0
M  V30 18640 N 2131.42 -1.38259 0.756453 0
M  V30 18641 C 2132.7 -1.94131 0.239274 0
M  V30 18642 C 2133.08 -1.6915 -1.26299 0
M  V30 18643 O 2132.43 -1.03165 -2.03885 0
M  V30 18644 C 2132.64 -3.43872 0.596071 0
M  V30 18645 C 2133.98 -4.20927 0.557312 0
M  V30 18646 O 2135.01 -3.52166 0.534537 0
M  V30 18647 O 2133.87 -5.43511 0.57079 0
M  V30 18648 H 2130.96 -0.82543 0.0509403 0
M  V30 18649 H 2133.51 -1.47636 0.83677 0
M  V30 18650 H 2132.28 -3.55575 1.63348 0
M  V30 18651 H 2131.9 -3.97589 -0.0292809 0
M  V30 18652 N 2132.9 -0.505757 -1.49264 0
M  V30 18653 C 2134.15 0.0389421 -2.01662 0
M  V30 18654 C 2134.46 1.37604 -1.39012 0
M  V30 18655 O 2135.67 2.00771 -1.82766 0
M  V30 18656 C 2134.12 0.119854 -3.597 0
M  V30 18657 C 2133.73 -1.21089 -4.31325 0
M  V30 18658 C 2135.47 0.614665 -4.20026 0
M  V30 18659 C 2133.38 -1.09188 -5.81233 0
M  V30 18660 H 2132.31 0.0183265 -0.753777 0
M  V30 18661 H 2134.96 -0.645894 -1.71757 0
M  V30 18662 H 2133.34 0.869244 -3.86342 0
M  V30 18663 H 2134.52 -1.97394 -4.1638 0
M  V30 18664 H 2132.83 -1.63951 -3.82765 0
M  V30 18665 H 2135.43 0.721287 -5.29813 0
M  V30 18666 H 2135.77 1.61466 -3.83711 0
M  V30 18667 H 2136.31 -0.0783291 -3.97723 0
M  V30 18668 H 2133.05 -2.06629 -6.22081 0
M  V30 18669 H 2132.57 -0.369793 -5.98659 0
M  V30 18670 H 2134.24 -0.772559 -6.42371 0
M  V30 18671 N 2134.38 1.55765 -0.239796 0
M  V30 18672 C 2135.34 2.19809 0.649364 0
M  V30 18673 C 2136.34 1.16526 1.10808 0
M  V30 18674 O 2137.53 1.41651 1.01394 0
M  V30 18675 C 2134.66 2.83599 1.89168 0
M  V30 18676 H 2135.85 2.99763 0.0907114 0
M  V30 18677 H 2133.41 1.56297 0.00977153 0
M  V30 18678 H 2134.14 2.07564 2.49174 0
M  V30 18679 H 2133.93 3.5925 1.57104 0
M  V30 18680 H 2135.42 3.32634 2.52477 0
M  V30 18681 N 2135.85 -0.0334016 1.57565 0
M  V30 18682 C 2137.27 -0.580549 1.77444 0
M  V30 18683 C 2137.62 -1.7584 0.870324 0
M  V30 18684 O 2136.74 -2.16305 0.0640468 0
M  V30 18685 C 2137.34 -1.05995 3.21793 0
M  V30 18686 C 2135.9 -1.55265 3.42885 0
M  V30 18687 C 2135.04 -0.488796 2.72958 0
M  V30 18688 H 2137.99 0.192826 1.57524 0
M  V30 18689 H 2138.01 -1.92748 3.28068 0
M  V30 18690 H 2137.53 -0.202479 3.87571 0
M  V30 18691 H 2135.63 -2.43211 2.82275 0
M  V30 18692 H 2135.74 -1.60314 4.51482 0
M  V30 18693 H 2134.1 -0.942831 2.36607 0
M  V30 18694 H 2134.89 0.359136 3.41416 0
M  V30 18695 N 2137.33 -1.54609 -0.305591 0
M  V30 18696 C 2138.56 -1.774 -1.05891 0
M  V30 18697 C 2138.97 -0.531327 -1.81586 0
M  V30 18698 O 2138.31 0.508271 -1.76528 0
M  V30 18699 C 2138.38 -2.9256 -2.08923 0
M  V30 18700 C 2138.04 -4.30818 -1.52464 0
M  V30 18701 C 2139.04 -5.11015 -0.957049 0
M  V30 18702 C 2136.72 -4.77407 -1.56165 0
M  V30 18703 C 2138.72 -6.35921 -0.433983 0
M  V30 18704 C 2136.4 -6.02276 -1.03471 0
M  V30 18705 C 2137.4 -6.81368 -0.471844 0
M  V30 18706 O 2137.09 -8.03886 0.047115 0
M  V30 18707 H 2136.82 -0.595455 -0.320014 0
M  V30 18708 H 2139.37 -2.02364 -0.35183 0
M  V30 18709 H 2137.6 -2.6321 -2.83298 0
M  V30 18710 H 2139.29 -3.02969 -2.70119 0
M  V30 18711 H 2140.06 -4.76167 -0.921391 0
M  V30 18712 H 2135.94 -4.15877 -1.98915 0
M  V30 18713 H 2139.48 -6.976 0.00600517 0
M  V30 18714 H 2135.38 -6.36612 -1.0675 0
M  V30 18715 H 2136.15 -8.18473 -0.0666184 0
M  V30 18716 N 2138.81 0.568558 -1.46987 0
M  V30 18717 C 2140.09 1.3291 -1.43507 0
M  V30 18718 C 2140.47 2.10724 -0.12598 0
M  V30 18719 O 2139.82 2.10348 0.892528 0
M  V30 18720 C 2140.03 2.2432 -2.6736 0
M  V30 18721 C 2141.37 2.85701 -3.14102 0
M  V30 18722 O 2142.4 2.34627 -2.68009 0
M  V30 18723 O 2141.26 3.78504 -3.94204 0
M  V30 18724 H 2138.35 0.597891 -0.571363 0
M  V30 18725 H 2140.9 0.588401 -1.59173 0
M  V30 18726 H 2139.67 1.66345 -3.54182 0
M  V30 18727 H 2139.29 3.05705 -2.54224 0
M  V30 18728 N 2140.29 1.34929 0.814366 0
M  V30 18729 C 2141.54 1.27105 1.56612 0
M  V30 18730 C 2141.85 -0.154812 1.94986 0
M  V30 18731 O 2143.06 -0.355268 2.69166 0
M  V30 18732 C 2141.51 2.22863 2.82595 0
M  V30 18733 C 2141.12 3.70753 2.51489 0
M  V30 18734 C 2142.86 2.23965 3.6061 0
M  V30 18735 C 2140.77 4.58355 3.73717 0
M  V30 18736 H 2139.7 0.472214 0.587818 0
M  V30 18737 H 2142.35 1.60146 0.895848 0
M  V30 18738 H 2140.73 1.82784 3.51292 0
M  V30 18739 H 2141.91 4.19421 1.90848 0
M  V30 18740 H 2140.22 3.72182 1.86733 0
M  V30 18741 H 2142.82 2.86634 4.51381 0
M  V30 18742 H 2143.16 1.24126 3.97364 0
M  V30 18743 H 2143.7 2.62533 2.98866 0
M  V30 18744 H 2140.44 5.59163 3.42077 0
M  V30 18745 H 2139.96 4.14418 4.3361 0
M  V30 18746 H 2141.63 4.73391 4.41033 0
M  V30 18747 N 2141.77 -1.0356 1.18799 0
M  V30 18748 C 2143.01 -1.76497 0.984535 0
M  V30 18749 C 2143.34 -1.88833 -0.486544 0
M  V30 18750 O 2142.61 -1.41702 -1.35268 0
M  V30 18751 H 2141.19 -0.653818 0.36129 0
M  V30 18752 H 2143.85 -1.24956 1.49573 0
M  V30 18753 H 2142.94 -2.77573 1.42687 0
M  V30 18754 N 2143.25 -0.990834 -1.22557 0
M  V30 18755 C 2144.49 -0.664218 -1.90873 0
M  V30 18756 C 2144.81 0.80601 -1.77563 0
M  V30 18757 O 2144.08 1.57751 -1.16153 0
M  V30 18758 H 2142.66 -0.242684 -0.70648 0
M  V30 18759 H 2145.33 -1.2569 -1.48957 0
M  V30 18760 H 2144.42 -0.924949 -2.98079 0
M  V30 18761 N 2144.72 1.37856 -0.763775 0
M  V30 18762 C 2146.13 1.82562 -0.390909 0
M  V30 18763 C 2146.49 1.63676 1.08188 0
M  V30 18764 O 2145.61 1.14349 1.8372 0
M  V30 18765 C 2146.21 3.31432 -0.702745 0
M  V30 18766 C 2144.76 3.74446 -0.383033 0
M  V30 18767 C 2143.91 2.60494 -0.950696 0
M  V30 18768 H 2146.86 1.2644 -0.95909 0
M  V30 18769 H 2146.88 3.80497 0.0154528 0
M  V30 18770 H 2146.4 3.45145 -1.77472 0
M  V30 18771 H 2144.5 3.66306 0.681946 0
M  V30 18772 H 2144.61 4.70842 -0.885708 0
M  V30 18773 H 2142.97 2.51918 -0.375427 0
M  V30 18774 H 2143.76 2.77003 -2.02791 0
M  V30 18775 N 2146.2 0.513665 1.48994 0
M  V30 18776 C 2147.48 -0.0899538 1.95393 0
M  V30 18777 C 2147.86 -1.52898 1.45552 0
M  V30 18778 O 2147.21 -2.18308 0.674808 0
M  V30 18779 C 2147.42 0.010453 3.48998 0
M  V30 18780 C 2148.76 -0.157087 4.24309 0
M  V30 18781 O 2149.79 -0.0641299 3.56142 0
M  V30 18782 O 2148.65 -0.349548 5.45381 0
M  V30 18783 H 2145.74 -0.0883243 0.82227 0
M  V30 18784 H 2148.29 0.577105 1.59586 0
M  V30 18785 H 2147.06 1.0135 3.77947 0
M  V30 18786 H 2146.68 -0.696188 3.91458 0
M  V30 18787 N 2147.68 -1.55636 0.248053 0
M  V30 18788 C 2148.61 -2.18762 -0.683786 0
M  V30 18789 C 2149.62 -1.16427 -1.13791 0
M  V30 18790 O 2150.81 -1.43286 -1.06449 0
M  V30 18791 C 2147.91 -2.77789 -1.9413 0
M  V30 18792 C 2147.09 -4.05554 -1.63843 0
M  V30 18793 C 2146.15 -4.48887 -2.74566 0
M  V30 18794 O 2145.17 -5.15239 -2.41903 0
M  V30 18795 N 2146.37 -4.16768 -4.04085 0
M  V30 18796 H 2149.14 -2.99356 -0.143647 0
M  V30 18797 H 2146.7 -1.61757 0.0680612 0
M  V30 18798 H 2148.69 -3.03735 -2.67445 0
M  V30 18799 H 2147.26 -2.01346 -2.3912 0
M  V30 18800 H 2146.48 -3.87184 -0.740411 0
M  V30 18801 H 2147.77 -4.88851 -1.41074 0
M  V30 18802 H 2147.17 -3.63502 -4.33455 0
M  V30 18803 H 2145.72 -4.47548 -4.73861 0
M  V30 18804 N 2149.16 0.0250451 -1.5758 0
M  V30 18805 C 2150.07 1.04128 -2.10225 0
M  V30 18806 C 2151.08 1.39367 -1.04178 0
M  V30 18807 O 2152.26 1.48605 -1.35936 0
M  V30 18808 C 2149.32 2.32208 -2.5745 0
M  V30 18809 C 2148.39 2.03512 -3.77996 0
M  V30 18810 C 2147.62 3.25486 -4.22959 0
M  V30 18811 O 2147.84 4.36301 -3.6742 0
M  V30 18812 O 2146.78 3.1095 -5.15358 0
M  V30 18813 H 2150.6 0.623859 -2.97223 0
M  V30 18814 H 2148.19 0.242286 -1.47422 0
M  V30 18815 H 2150.07 3.07498 -2.88137 0
M  V30 18816 H 2148.74 2.73237 -1.73561 0
M  V30 18817 H 2147.65 1.25777 -3.52322 0
M  V30 18818 H 2148.98 1.67337 -4.62882 0
M  V30 18819 N 2150.64 1.54769 0.297388 0
M  V30 18820 C 2151.88 1.74221 1.03214 0
M  V30 18821 C 2152.21 0.529956 1.87141 0
M  V30 18822 O 2151.47 -0.488036 1.89517 0
M  V30 18823 C 2151.76 2.98592 1.96412 0
M  V30 18824 C 2151.43 4.32222 1.28433 0
M  V30 18825 C 2150.09 4.68546 1.09626 0
M  V30 18826 C 2152.44 5.15045 0.798634 0
M  V30 18827 C 2149.77 5.8527 0.409394 0
M  V30 18828 C 2152.12 6.32476 0.125474 0
M  V30 18829 C 2150.79 6.67458 -0.0745188 0
M  V30 18830 H 2150.06 0.637521 0.377688 0
M  V30 18831 H 2152.71 1.89028 0.306675 0
M  V30 18832 H 2151.01 2.78581 2.75499 0
M  V30 18833 H 2152.71 3.10837 2.5334 0
M  V30 18834 H 2149.3 4.03658 1.44078 0
M  V30 18835 H 2153.48 4.87477 0.931633 0
M  V30 18836 H 2148.74 6.10915 0.243492 0
M  V30 18837 H 2152.91 6.95919 -0.258751 0
M  V30 18838 H 2150.54 7.57759 -0.608755 0
M  V30 18839 N 2152.11 -0.560755 1.47286 0
M  V30 18840 C 2153.36 -1.31548 1.53426 0
M  V30 18841 C 2153.68 -1.94006 0.196648 0
M  V30 18842 O 2152.95 -1.79743 -0.779049 0
M  V30 18843 H 2151.53 -0.488493 0.565141 0
M  V30 18844 H 2154.19 -0.655071 1.83562 0
M  V30 18845 H 2153.29 -2.11085 2.2989 0
M  V30 18846 N 2153.59 -1.35359 -0.807199 0
M  V30 18847 C 2154.84 -1.28788 -1.56657 0
M  V30 18848 C 2155.17 0.137625 -1.93712 0
M  V30 18849 O 2154.45 1.08685 -1.61301 0
M  V30 18850 C 2154.73 -2.19379 -2.85561 0
M  V30 18851 C 2154.58 -3.70543 -2.54986 0
M  V30 18852 C 2155.9 -2.0909 -3.87259 0
M  V30 18853 H 2153.02 -0.469169 -0.568374 0
M  V30 18854 H 2155.66 -1.65754 -0.928736 0
M  V30 18855 H 2153.81 -1.87984 -3.39992 0
M  V30 18856 H 2155.48 -4.12377 -2.06743 0
M  V30 18857 H 2153.73 -3.90855 -1.88189 0
M  V30 18858 H 2154.4 -4.29316 -3.46975 0
M  V30 18859 H 2156.87 -2.36687 -3.42226 0
M  V30 18860 H 2155.75 -2.74675 -4.75231 0
M  V30 18861 H 2156.01 -1.07265 -4.2889 0
M  V30 18862 N 2155.07 1.02928 -1.19346 0
M  V30 18863 C 2156.35 1.73394 -0.905199 0
M  V30 18864 C 2156.73 2.02711 0.589208 0
M  V30 18865 O 2156.07 1.68142 1.54727 0
M  V30 18866 C 2156.28 3.01097 -1.7647 0
M  V30 18867 C 2157.63 3.74613 -1.99876 0
M  V30 18868 O 2158.66 3.11023 -1.73618 0
M  V30 18869 O 2157.52 4.88931 -2.44149 0
M  V30 18870 H 2154.61 0.755081 -0.337316 0
M  V30 18871 H 2157.16 1.08891 -1.30157 0
M  V30 18872 H 2155.93 2.75657 -2.77721 0
M  V30 18873 H 2155.55 3.7334 -1.36758 0
M  V30 18874 N 2156.55 0.997319 1.2203 0
M  V30 18875 C 2157.79 0.676667 1.91178 0
M  V30 18876 C 2158.13 -0.789768 1.77416 0
M  V30 18877 O 2157.4 -1.57163 1.14586 0
M  V30 18878 C 2157.68 1.08886 3.43243 0
M  V30 18879 C 2157.54 2.61418 3.66034 0
M  V30 18880 C 2158.86 0.645428 4.35342 0
M  V30 18881 H 2155.98 0.247298 0.694271 0
M  V30 18882 H 2158.62 1.24163 1.43818 0
M  V30 18883 H 2156.77 0.608155 3.8371 0
M  V30 18884 H 2158.44 3.17192 3.34943 0
M  V30 18885 H 2156.68 3.03284 3.10163 0
M  V30 18886 H 2157.35 2.8531 4.72549 0
M  V30 18887 H 2159.83 1.05839 4.02414 0
M  V30 18888 H 2158.71 0.962088 5.40403 0
M  V30 18889 H 2158.97 -0.453741 4.39765 0
M  V30 18890 N 2158.03 -1.37449 0.771075 0
M  V30 18891 C 2159.27 -1.99314 0.33443 0
M  V30 18892 C 2159.6 -1.61515 -1.0926 0
M  V30 18893 O 2158.87 -0.880278 -1.75008 0
M  V30 18894 H 2157.45 -0.73719 0.120664 0
M  V30 18895 H 2160.11 -1.6794 0.989052 0
M  V30 18896 H 2159.2 -3.09375 0.411526 0
M  V30 18897 N 2159.5 -0.52156 -1.4872 0
M  V30 18898 C 2160.92 -0.0789475 -1.86533 0
M  V30 18899 C 2161.27 1.34125 -1.43196 0
M  V30 18900 O 2160.39 2.00307 -0.818913 0
M  V30 18901 C 2160.99 -0.136494 -3.38525 0
M  V30 18902 C 2159.55 0.250879 -3.75563 0
M  V30 18903 C 2158.69 -0.499991 -2.72755 0
M  V30 18904 H 2161.64 -0.733264 -1.40744 0
M  V30 18905 H 2161.66 0.653868 -3.7484 0
M  V30 18906 H 2161.18 -1.17024 -3.70036 0
M  V30 18907 H 2159.28 1.28709 -3.49664 0
M  V30 18908 H 2159.39 -0.0828724 -4.79028 0
M  V30 18909 H 2157.75 0.0527232 -2.54645 0
M  V30 18910 H 2158.54 -1.53421 -3.0711 0
M  V30 18911 N 2160.98 1.55502 -0.256304 0
M  V30 18912 C 2162.23 1.99463 0.366354 0
M  V30 18913 C 2162.56 1.14436 1.56902 0
M  V30 18914 O 2161.84 0.209944 1.93364 0
M  V30 18915 C 2162.12 3.51836 0.767016 0
M  V30 18916 C 2161.97 4.47626 -0.441687 0
M  V30 18917 C 2163.29 4.09574 1.61051 0
M  V30 18918 H 2160.41 0.72514 0.131688 0
M  V30 18919 H 2163.05 1.86568 -0.359494 0
M  V30 18920 H 2161.2 3.62956 1.38546 0
M  V30 18921 H 2162.87 4.48475 -1.08018 0
M  V30 18922 H 2161.12 4.2006 -1.08313 0
M  V30 18923 H 2161.79 5.51874 -0.117869 0
M  V30 18924 H 2164.26 4.01614 1.08838 0
M  V30 18925 H 2163.14 5.16436 1.85969 0
M  V30 18926 H 2163.4 3.58619 2.58544 0
M  V30 18927 N 2162.46 -0.0166879 1.57591 0
M  V30 18928 C 2163.7 -0.709687 1.91684 0
M  V30 18929 C 2164.06 -1.71854 0.856176 0
M  V30 18930 O 2165.27 -2.46069 1.08182 0
M  V30 18931 C 2163.54 -1.35082 3.30889 0
M  V30 18932 S 2165.1 -2.07126 3.86839 0
M  V30 18933 H 2161.91 -0.234822 0.671103 0
M  V30 18934 H 2164.52 0.0359916 1.95467 0
M  V30 18935 H 2163.22 -0.603509 4.05938 0
M  V30 18936 H 2162.75 -2.13479 3.3044 0
M  V30 18937 H 2164.77 -3.34431 3.66566 0
M  V30 18938 N 2163.94 -1.54924 -0.289176 0
M  V30 18939 C 2165.19 -1.74766 -1.02289 0
M  V30 18940 C 2165.51 -0.539873 -1.86857 0
M  V30 18941 O 2164.77 0.477978 -1.89773 0
M  V30 18942 C 2165.07 -2.99629 -1.94826 0
M  V30 18943 C 2164.73 -4.32897 -1.26139 0
M  V30 18944 C 2163.4 -4.69121 -1.0714 0
M  V30 18945 C 2165.75 -5.15461 -0.771309 0
M  V30 18946 C 2163.08 -5.85479 -0.37835 0
M  V30 18947 C 2165.43 -6.32533 -0.0919302 0
M  V30 18948 C 2164.09 -6.67409 0.109915 0
M  V30 18949 H 2163.36 -0.639515 -0.374301 0
M  V30 18950 H 2166.01 -1.89188 -0.296646 0
M  V30 18951 H 2164.31 -2.80038 -2.74018 0
M  V30 18952 H 2166.01 -3.12176 -2.51688 0
M  V30 18953 H 2162.6 -4.04416 -1.41935 0
M  V30 18954 H 2166.78 -4.87965 -0.905767 0
M  V30 18955 H 2162.04 -6.11035 -0.211091 0
M  V30 18956 H 2166.21 -6.95772 0.295654 0
M  V30 18957 H 2163.84 -7.57425 0.648932 0
M  V30 18958 N 2165.42 0.552936 -1.47582 0
M  V30 18959 C 2166.35 1.66928 -1.6327 0
M  V30 18960 C 2167.33 1.63127 -0.482035 0
M  V30 18961 O 2168.51 1.80682 -0.71188 0
M  V30 18962 C 2165.64 3.0556 -1.65076 0
M  V30 18963 C 2164.6 3.2421 -2.79413 0
M  V30 18964 C 2163.92 4.63672 -2.66294 0
M  V30 18965 C 2165.22 3.09176 -4.20961 0
M  V30 18966 H 2166.92 1.54055 -2.56725 0
M  V30 18967 H 2164.46 0.739709 -1.23549 0
M  V30 18968 H 2166.42 3.83508 -1.74642 0
M  V30 18969 H 2165.14 3.19403 -0.681852 0
M  V30 18970 H 2163.8 2.48673 -2.69365 0
M  V30 18971 H 2163.45 4.7432 -1.67422 0
M  V30 18972 H 2163.15 4.77099 -3.43002 0
M  V30 18973 H 2164.67 5.43749 -2.77795 0
M  V30 18974 H 2166.08 3.76936 -4.31963 0
M  V30 18975 H 2164.48 3.3411 -4.98488 0
M  V30 18976 H 2165.55 2.05869 -4.39028 0
M  V30 18977 O 2166.93 1.45655 0.697637 0
M  V30 18978 H 2167.62 1.38968 1.34936 0
M  V30 END ATOM
M  V30 BEGIN BOND
M  V30 END BOND
M  V30 END CTAB
M  END
$$$$
