drugbank_target|P02538 Keratin, type II cytoskeletal 6A (DB01593; DB14487)
 OpenBabel12092121083D

  0  0  0     0  0            999 V3000
M  V30 BEGIN CTAB
M  V30 COUNTS 8386 8436 0 0 0
M  V30 BEGIN ATOM
M  V30 1 H -0.908 1.98254 -0.117106 0
M  V30 2 N 0 1.576 0 0
M  V30 3 C 0.933 2.03868 1.02534 0
M  V30 4 C 1.911 0.928543 1.3348 0
M  V30 5 O 3.095 1.19667 1.45644 0
M  V30 6 C 0.222 2.43627 2.35294 0
M  V30 7 C -0.732 3.65373 2.2001 0
M  V30 8 S 0.101 5.13292 1.52614 0
M  V30 9 C 1.257 5.56322 2.86805 0
M  V30 10 H 1.49 2.90518 0.631377 0
M  V30 11 H -0.977 1.52953 0.210867 0
M  V30 12 H 0.981 2.67203 3.11629 0
M  V30 13 H -0.358 1.57376 2.7183 0
M  V30 14 H -1.165 3.90944 3.18086 0
M  V30 15 H -1.563 3.418 1.51819 0
M  V30 16 H 0.729 5.58782 3.83104 0
M  V30 17 H 1.672 6.56266 2.65933 0
M  V30 18 H 2.08 4.83886 2.90714 0
M  V30 19 N 1.4781 -0.272755 1.55222 0
M  V30 20 C 2.4411 -1.32041 1.87344 0
M  V30 21 C 3.4411 -1.42342 0.74803 0
M  V30 22 O 4.6311 -1.41488 1.0162 0
M  V30 23 C 1.7631 -2.70173 2.07893 0
M  V30 24 H 2.9561 -1.04789 2.80997 0
M  V30 25 H 0.5091 -0.51083 1.47717 0
M  V30 26 H 1.2441 -3.02605 1.16622 0
M  V30 27 H 1.0291 -2.64082 2.89833 0
M  V30 28 H 2.5191 -3.45869 2.34017 0
M  V30 29 N 2.9562 -1.48159 -0.537278 0
M  V30 30 C 4.1812 -1.59707 -1.32319 0
M  V30 31 C 4.6062 -0.254859 -1.86365 0
M  V30 32 O 3.9642 0.772378 -1.64024 0
M  V30 33 C 4.0122 -2.6412 -2.45505 0
M  V30 34 O 3.1162 -2.20774 -3.48328 0
M  V30 35 H 2.4572 -0.535791 -0.392204 0
M  V30 36 H 4.9872 -1.94092 -0.647268 0
M  V30 37 H 4.9972 -2.85166 -2.91795 0
M  V30 38 H 3.6722 -3.61567 -2.05528 0
M  V30 39 H 2.2492 -2.09911 -3.08207 0
M  V30 40 N 4.4343 0.785586 -1.36625 0
M  V30 41 C 5.6623 1.57448 -1.3423 0
M  V30 42 C 6.0773 1.88649 0.0755653 0
M  V30 43 O 5.4343 1.50414 1.03354 0
M  V30 44 C 5.4853 2.89316 -2.16745 0
M  V30 45 O 5.2063 2.59459 -3.53005 0
M  V30 46 C 6.7073 3.83606 -2.22174 0
M  V30 47 H 3.9273 0.488226 -0.4603 0
M  V30 48 H 6.4713 0.974733 -1.79775 0
M  V30 49 H 4.6263 3.4575 -1.74745 0
M  V30 50 H 5.0403 3.43804 -3.96105 0
M  V30 51 H 6.5143 4.73181 -2.8426 0
M  V30 52 H 6.9913 4.21734 -1.22627 0
M  V30 53 H 7.5973 3.33104 -2.64427 0
M  V30 54 N 5.9124 1.20967 1.01018 0
M  V30 55 C 7.1374 1.0503 1.78839 0
M  V30 56 C 7.5624 -0.395752 1.8389 0
M  V30 57 O 6.9204 -1.28529 1.27867 0
M  V30 58 C 6.9684 1.64602 3.2084 0
M  V30 59 O 6.0724 0.887988 4.02726 0
M  V30 60 H 5.4134 0.369987 0.551367 0
M  V30 61 H 7.9434 1.60399 1.27018 0
M  V30 62 H 7.9534 1.68607 3.71532 0
M  V30 63 H 6.6284 2.69841 3.16479 0
M  V30 64 H 5.2054 0.922648 3.61305 0
M  V30 65 N 7.3905 -1.2043 1.01659 0
M  V30 66 C 8.6185 -1.93777 0.725132 0
M  V30 67 C 9.0335 -1.74772 -0.714166 0
M  V30 68 O 8.3905 -1.06169 -1.4844 0
M  V30 69 C 8.4415 -3.45876 1.05129 0
M  V30 70 O 8.1625 -3.6426 2.43406 0
M  V30 71 C 9.6635 -4.36368 0.780891 0
M  V30 72 H 6.8835 -0.615901 0.266284 0
M  V30 73 H 9.4275 -1.52922 1.35776 0
M  V30 74 H 7.5825 -3.8461 0.464065 0
M  V30 75 H 7.9965 -4.58246 2.55169 0
M  V30 76 H 9.4705 -5.41743 1.05918 0
M  V30 77 H 9.9475 -4.38275 -0.284937 0
M  V30 78 H 10.5535 -4.03296 1.35027 0
M  V30 79 N 8.8686 -0.792821 -1.36206 0
M  V30 80 C 10.0966 -0.378825 -2.03402 0
M  V30 81 C 10.5116 1.00586 -1.59774 0
M  V30 82 O 9.8686 1.64574 -0.788764 0
M  V30 83 C 9.9196 -0.43683 -3.58851 0
M  V30 84 O 9.6406 -1.76691 -4.00889 0
M  V30 85 C 11.1416 -0.0138943 -4.43298 0
M  V30 86 H 8.3616 -0.155673 -0.652692 0
M  V30 87 H 10.9056 -1.07261 -1.74113 0
M  V30 88 H 9.0606 0.208575 -3.86838 0
M  V30 89 H 9.4746 -1.72011 -4.95492 0
M  V30 90 H 10.9486 -0.105615 -5.51899 0
M  V30 91 H 11.4256 1.03915 -4.2673 0
M  V30 92 H 12.0316 -0.63192 -4.20579 0
M  V30 93 N 10.3467 1.47872 -0.545128 0
M  V30 94 C 11.5957 2.01695 -0.0145033 0
M  V30 95 C 11.9087 1.42609 1.33873 0
M  V30 96 O 13.1147 1.88021 1.95858 0
M  V30 97 C 11.5707 3.59892 0.0245068 0
M  V30 98 C 11.1787 4.27966 -1.32475 0
M  V30 99 C 12.9227 4.21507 0.50316 0
M  V30 100 C 10.8297 5.78136 -1.2455 0
M  V30 101 H 9.7597 0.753998 -0.00165172 0
M  V30 102 H 12.4107 1.69985 -0.691175 0
M  V30 103 H 10.7927 3.88509 0.766575 0
M  V30 104 H 11.9667 4.11003 -2.08357 0
M  V30 105 H 10.2817 3.78286 -1.74036 0
M  V30 106 H 12.8787 5.31538 0.580656 0
M  V30 107 H 13.2217 3.87855 1.51243 0
M  V30 108 H 13.7547 3.97376 -0.183681 0
M  V30 109 H 10.4937 6.16388 -2.23039 0
M  V30 110 H 10.0137 5.97469 -0.528282 0
M  V30 111 H 11.6927 6.40099 -0.942488 0
M  V30 112 N 11.8248 0.280983 1.55075 0
M  V30 113 C 13.2408 -0.0729964 1.59433 0
M  V30 114 C 13.4408 -1.5411 1.29817 0
M  V30 115 O 12.4968 -2.29086 1.06187 0
M  V30 116 C 13.8098 0.306921 2.9913 0
M  V30 117 C 15.3578 0.254023 3.11968 0
M  V30 118 C 15.8328 0.608467 4.5394 0
M  V30 119 N 17.3238 0.560241 4.59799 0
M  V30 120 C 18.0588 0.80722 5.6769 0
M  V30 121 N 17.5548 1.11912 6.83701 0
M  V30 122 N 19.3478 0.735623 5.57266 0
M  V30 123 H 11.4988 1.238 1.7259 0
M  V30 124 H 13.7618 0.500547 0.805082 0
M  V30 125 H 13.4678 1.32816 3.25657 0
M  V30 126 H 13.3418 -0.349363 3.75579 0
M  V30 127 H 15.7288 -0.75794 2.852 0
M  V30 128 H 15.8098 0.944649 2.37718 0
M  V30 129 H 15.4538 1.61814 4.81434 0
M  V30 130 H 15.3838 -0.104013 5.26497 0
M  V30 131 H 17.8748 0.329288 3.76463 0
M  V30 132 H 18.1878 1.29409 7.61888 0
M  V30 133 H 16.5328 1.15695 6.85303 0
M  V30 134 H 19.7238 0.491752 4.6551 0
M  V30 135 H 19.8968 0.931482 6.4127 0
M  V30 136 N 13.3029 -1.57598 0.00835791 0
M  V30 137 C 14.5279 -1.95617 -0.689103 0
M  V30 138 C 14.9529 -0.883753 -1.66046 0
M  V30 139 O 14.3109 0.157352 -1.80616 0
M  V30 140 C 14.3589 -3.32736 -1.38994 0
M  V30 141 O 13.4629 -3.27631 -2.50463 0
M  V30 142 H 12.8039 -0.638379 -0.182668 0
M  V30 143 H 15.3339 -2.045 0.064036 0
M  V30 144 H 15.3439 -3.68494 -1.75147 0
M  V30 145 H 14.0189 -4.1034 -0.677778 0
M  V30 146 H 12.5959 -3.03561 -2.16576 0
M  V30 147 N 14.781 0.264519 -1.55364 0
M  V30 148 C 15.731 1.32966 -1.85214 0
M  V30 149 C 16.715 1.44306 -0.711653 0
M  V30 150 O 17.907 1.47844 -0.973192 0
M  V30 151 C 15.036 2.68839 -2.13495 0
M  V30 152 C 14.122 2.61575 -3.33825 0
M  V30 153 N 14.513 2.23933 -4.53528 0
M  V30 154 C 12.811 2.92621 -3.36584 0
M  V30 155 C 13.512 2.26868 -5.35636 0
M  V30 156 N 12.488 2.65677 -4.74254 0
M  V30 157 H 16.29 1.02884 -2.75304 0
M  V30 158 H 13.804 0.473157 -1.55354 0
M  V30 159 H 15.801 3.45685 -2.33039 0
M  V30 160 H 14.461 2.99802 -1.24694 0
M  V30 161 H 15.472 1.95769 -4.79474 0
M  V30 162 H 12.149 3.2824 -2.58002 0
M  V30 163 H 13.539 2.00254 -6.41364 0
M  V30 164 N 16.2591 1.48442 0.529413 0
M  V30 165 C 17.4841 1.60406 1.31471 0
M  V30 166 C 17.9091 0.264738 1.86228 0
M  V30 167 O 17.2671 -0.763668 1.64432 0
M  V30 168 C 17.3151 2.65419 2.44101 0
M  V30 169 O 16.4191 2.22618 3.47153 0
M  V30 170 H 15.7601 0.537863 0.389357 0
M  V30 171 H 18.2901 1.94432 0.636965 0
M  V30 172 H 18.3001 2.86709 2.90279 0
M  V30 173 H 16.9751 3.62652 2.03608 0
M  V30 174 H 15.5521 2.11543 3.0709 0
M  V30 175 N 17.7372 -0.778329 1.37039 0
M  V30 176 C 18.9622 -1.57248 1.35233 0
M  V30 177 C 19.3872 -1.87999 -0.0615568 0
M  V30 178 O 18.7452 -1.48734 -1.03672 0
M  V30 179 C 18.7932 -2.86353 2.19167 0
M  V30 180 O 17.8972 -3.80442 1.59178 0
M  V30 181 H 17.2382 -0.476569 0.462362 0
M  V30 182 H 19.7682 -0.963853 1.80474 0
M  V30 183 H 19.7782 -3.35519 2.32145 0
M  V30 184 H 18.4532 -2.63299 3.21942 0
M  V30 185 H 17.0302 -3.39067 1.55203 0
M  V30 186 N 19.2153 -1.21501 -1.00376 0
M  V30 187 C 20.4403 -1.05977 -1.78279 0
M  V30 188 C 20.8653 0.385994 -1.84097 0
M  V30 189 O 20.2233 1.27849 -1.28547 0
M  V30 190 C 20.2713 -1.66302 -3.19963 0
M  V30 191 O 19.3753 -0.909333 -4.0225 0
M  V30 192 H 18.7163 -0.372906 -0.549397 0
M  V30 193 H 21.2463 -1.6107 -1.26165 0
M  V30 194 H 21.2563 -1.70574 -3.70632 0
M  V30 195 H 19.9313 -2.71515 -3.15043 0
M  V30 196 H 18.5083 -0.941795 -3.60811 0
M  V30 197 N 20.6934 1.19889 -1.02296 0
M  V30 198 C 22.1094 1.41462 -0.738954 0
M  V30 199 C 22.3094 1.89721 0.678846 0
M  V30 200 O 21.3654 2.07016 1.4457 0
M  V30 201 C 22.6784 2.43083 -1.77005 0
M  V30 202 C 24.2264 2.5684 -1.78892 0
M  V30 203 C 24.7014 3.61709 -2.80945 0
M  V30 204 N 26.1924 3.69199 -2.79725 0
M  V30 205 C 26.9274 4.50019 -3.55345 0
M  V30 206 N 26.4234 5.34592 -4.40662 0
M  V30 207 N 28.2164 4.44612 -3.43914 0
M  V30 208 H 20.3674 0.868827 -1.93817 0
M  V30 209 H 22.6304 0.44399 -0.837602 0
M  V30 210 H 22.3364 2.14636 -2.78612 0
M  V30 211 H 22.2104 3.4217 -1.58744 0
M  V30 212 H 24.5974 2.84614 -0.779674 0
M  V30 213 H 24.6784 1.57927 -2.01228 0
M  V30 214 H 24.3224 3.34678 -3.82038 0
M  V30 215 H 24.2524 4.60259 -2.5587 0
M  V30 216 H 26.7434 3.08794 -2.17842 0
M  V30 217 H 27.0564 5.93363 -4.95116 0
M  V30 218 H 25.4014 5.34073 -4.44737 0
M  V30 219 H 28.5924 3.7758 -2.76679 0
M  V30 220 H 28.7654 5.0736 -4.031 0
M  V30 221 N 22.1715 0.800033 1.35784 0
M  V30 222 C 23.5875 0.482977 1.52117 0
M  V30 223 C 23.7875 -0.996948 1.75109 0
M  V30 224 O 22.8435 -1.78216 1.78872 0
M  V30 225 C 24.1565 1.32264 2.70049 0
M  V30 226 C 25.7045 1.31742 2.83924 0
M  V30 227 C 26.1795 2.14106 4.04874 0
M  V30 228 N 27.6705 2.11607 4.12039 0
M  V30 229 C 28.4055 2.72099 5.04727 0
M  V30 230 N 27.9015 3.41492 6.02789 0
M  V30 231 N 29.6945 2.61776 4.97423 0
M  V30 232 H 21.8455 1.75856 1.19115 0
M  V30 233 H 24.1085 0.748122 0.582252 0
M  V30 234 H 23.8145 2.37261 2.59616 0
M  V30 235 H 23.6885 0.971303 3.6448 0
M  V30 236 H 26.0755 0.275333 2.93813 0
M  V30 237 H 26.1565 1.70859 1.9037 0
M  V30 238 H 25.8005 3.18351 3.95746 0
M  V30 239 H 25.7305 1.72353 4.97596 0
M  V30 240 H 28.2215 1.61112 3.41835 0
M  V30 241 H 28.5345 3.84953 6.70098 0
M  V30 242 H 26.8795 3.45596 6.02983 0
M  V30 243 H 30.0705 2.07157 4.19766 0
M  V30 244 H 30.2435 3.0921 5.69468 0
M  V30 245 N 23.6496 -1.47581 0.552962 0
M  V30 246 C 24.8976 -2.02082 0.0272703 0
M  V30 247 C 25.2186 -1.4301 -1.32563 0
M  V30 248 O 24.4886 -0.603745 -1.86365 0
M  V30 249 H 23.0686 -0.746966 0.00709182 0
M  V30 250 H 25.7306 -1.81033 0.722008 0
M  V30 251 H 24.8266 -3.12034 -0.0639951 0
M  V30 252 N 25.1277 -0.289203 -1.54924 0
M  V30 253 C 26.3747 0.323519 -1.99899 0
M  V30 254 C 26.7027 1.54797 -1.17762 0
M  V30 255 O 25.9577 1.94237 -0.238835 0
M  V30 256 C 26.2567 0.736119 -3.49737 0
M  V30 257 C 25.9227 -0.385276 -4.49251 0
M  V30 258 C 24.5847 -0.693156 -4.76181 0
M  V30 259 C 26.9367 -1.14021 -5.08575 0
M  V30 260 C 24.2647 -1.7593 -5.59701 0
M  V30 261 C 26.6167 -2.19619 -5.93254 0
M  V30 262 C 25.2807 -2.51026 -6.185 0
M  V30 263 H 24.5507 0.118384 -0.731482 0
M  V30 264 H 27.1977 -0.405847 -1.8715 0
M  V30 265 H 25.5027 1.54539 -3.60035 0
M  V30 266 H 27.1997 1.22118 -3.81953 0
M  V30 267 H 23.7897 -0.135202 -4.28387 0
M  V30 268 H 27.9737 -0.915611 -4.87781 0
M  V30 269 H 23.2297 -2.0075 -5.77503 0
M  V30 270 H 27.4037 -2.78581 -6.38252 0
M  V30 271 H 25.0307 -3.33772 -6.83008 0
M  V30 272 N 26.6058 1.57591 -0.0167156 0
M  V30 273 C 27.8308 1.9598 0.67872 0
M  V30 274 C 28.2558 0.892546 1.65575 0
M  V30 275 O 27.6138 -0.147772 1.80697 0
M  V30 276 C 27.6618 3.33468 1.37227 0
M  V30 277 O 26.7658 3.28954 2.48722 0
M  V30 278 H 26.1068 0.639339 0.17928 0
M  V30 279 H 28.6368 2.04463 -0.0748802 0
M  V30 280 H 28.6468 3.69417 1.7319 0
M  V30 281 H 27.3218 4.10694 0.656007 0
M  V30 282 H 25.8988 3.04705 2.14963 0
M  V30 283 N 28.0839 -0.256276 1.55502 0
M  V30 284 C 29.0469 -1.30047 1.88734 0
M  V30 285 C 30.0469 -1.4154 0.763086 0
M  V30 286 O 31.2369 -1.40403 1.03115 0
M  V30 287 C 28.3689 -2.67953 2.10747 0
M  V30 288 H 29.5619 -1.01802 2.82093 0
M  V30 289 H 27.1149 -0.495134 1.4825 0
M  V30 290 H 27.8499 -3.01351 1.19825 0
M  V30 291 H 27.6349 -2.60993 2.92617 0
M  V30 292 H 29.1249 -3.43368 2.37673 0
M  V30 293 N 29.562 -1.4872 -0.521534 0
M  V30 294 C 30.51 -1.64328 -1.64618 0
M  V30 295 C 31.504 -0.50953 -1.61555 0
M  V30 296 O 32.71 -0.688525 -1.66311 0
M  V30 297 H 29.085 -0.517805 -0.545328 0
M  V30 298 H 31.056 -2.58767 -1.48601 0
M  V30 299 C 29.805 -1.70805 -3.02855 0
M  V30 300 H 29.128 -2.5741 -3.05909 0
M  V30 301 H 30.568 -1.85766 -3.81139 0
M  V30 302 C 29.027 -0.448479 -3.33902 0
M  V30 303 O 29.557 0.434928 -3.99339 0
M  V30 304 N 27.763 -0.317616 -2.88859 0
M  V30 305 H 27.31 -1.03748 -2.35784 0
M  V30 306 H 27.268 0.524113 -3.10001 0
M  V30 307 N 31.0401 0.771051 -1.3745 0
M  V30 308 C 32.2651 1.56529 -1.36065 0
M  V30 309 C 32.6901 1.88029 0.0515859 0
M  V30 310 O 32.0481 1.49282 1.02882 0
M  V30 311 C 32.0961 2.85187 -2.20683 0
M  V30 312 O 31.2001 3.79593 -1.61193 0
M  V30 313 H 30.5411 0.47411 -0.464883 0
M  V30 314 H 33.0711 0.954269 -1.80983 0
M  V30 315 H 33.0811 3.34283 -2.33921 0
M  V30 316 H 31.7561 2.61588 -3.23334 0
M  V30 317 H 30.3331 3.38239 -1.56999 0
M  V30 318 N 32.5182 1.22032 0.997298 0
M  V30 319 C 33.4812 0.987909 2.06816 0
M  V30 320 C 34.4812 -0.0440084 1.6074 0
M  V30 321 O 35.6712 0.194053 1.73116 0
M  V30 322 C 32.8032 0.49132 3.37341 0
M  V30 323 H 33.9962 1.93803 2.28868 0
M  V30 324 H 31.5492 1.03838 1.16822 0
M  V30 325 H 32.2842 -0.463364 3.20973 0
M  V30 326 H 32.0692 1.23575 3.72118 0
M  V30 327 H 33.5592 0.348824 4.16141 0
M  V30 328 N 33.9963 -1.19345 1.0293 0
M  V30 329 C 35.4123 -1.41069 0.746446 0
M  V30 330 C 35.6123 -1.90078 -0.668776 0
M  V30 331 O 34.6683 -2.0778 -1.4347 0
M  V30 332 C 35.9813 -2.42141 1.78292 0
M  V30 333 C 37.5293 -2.55887 1.80252 0
M  V30 334 C 38.0043 -3.60214 2.8286 0
M  V30 335 N 39.4953 -3.67711 2.81679 0
M  V30 336 C 40.2303 -4.48128 3.57727 0
M  V30 337 N 39.7263 -5.32248 4.43491 0
M  V30 338 N 41.5193 -4.42782 3.46267 0
M  V30 339 H 33.6703 -0.858536 1.94275 0
M  V30 340 H 35.9333 -0.439541 0.839945 0
M  V30 341 H 35.6393 -2.13155 2.79746 0
M  V30 342 H 35.5133 -3.41323 1.60557 0
M  V30 343 H 37.9003 -2.84196 0.794757 0
M  V30 344 H 37.9813 -1.56858 2.02062 0
M  V30 345 H 37.6253 -3.32647 3.83807 0
M  V30 346 H 37.5553 -4.58895 2.58307 0
M  V30 347 H 40.0463 -3.07634 2.19476 0
M  V30 348 H 40.3593 -5.90729 4.98256 0
M  V30 349 H 38.7043 -5.31707 4.47564 0
M  V30 350 H 41.8953 -3.76107 2.78677 0
M  V30 351 H 42.0683 -5.05215 4.05785 0
M  V30 352 N 35.4744 -0.807222 -1.35358 0
M  V30 353 C 36.4044 -0.232509 -2.3234 0
M  V30 354 C 37.3854 0.642386 -1.57504 0
M  V30 355 O 38.5704 0.572526 -1.85569 0
M  V30 356 C 35.7004 0.619238 -3.41735 0
M  V30 357 C 34.6544 -0.157215 -4.27711 0
M  V30 358 C 33.9804 0.816273 -5.28433 0
M  V30 359 C 35.2804 -1.35656 -5.04376 0
M  V30 360 H 36.9744 -1.04276 -2.80654 0
M  V30 361 H 34.5204 -0.50288 -1.34934 0
M  V30 362 H 36.4734 1.03137 -4.08584 0
M  V30 363 H 35.1974 1.46239 -2.92031 0
M  V30 364 H 33.8564 -0.550525 -3.62443 0
M  V30 365 H 33.5044 1.65494 -4.74996 0
M  V30 366 H 33.2044 0.301067 -5.86828 0
M  V30 367 H 34.7284 1.22659 -5.98153 0
M  V30 368 H 36.1424 -1.01927 -5.64166 0
M  V30 369 H 34.5394 -1.8063 -5.7227 0
M  V30 370 H 35.6094 -2.14288 -4.34981 0
M  V30 371 N 36.9525 1.47285 -0.560781 0
M  V30 372 C 38.3635 1.86258 -0.128343 0
M  V30 373 C 38.7145 1.46699 1.30284 0
M  V30 374 O 37.8395 0.871698 1.98067 0
M  V30 375 C 38.4345 3.38044 -0.22614 0
M  V30 376 C 36.9935 3.76096 0.151283 0
M  V30 377 C 36.1405 2.71335 -0.572084 0
M  V30 378 H 39.0915 1.38752 -0.770297 0
M  V30 379 H 39.1125 3.76441 0.554322 0
M  V30 380 H 38.6245 3.66806 -1.26788 0
M  V30 381 H 36.7255 3.52951 1.19399 0
M  V30 382 H 36.8385 4.78641 -0.209765 0
M  V30 383 H 35.2025 2.54696 -0.0147653 0
M  V30 384 H 35.9855 3.02938 -1.61504 0
M  V30 385 N 38.4306 0.297415 1.54768 0
M  V30 386 C 39.6786 -0.312295 1.99673 0
M  V30 387 C 39.9996 -1.54686 1.18732 0
M  V30 388 O 39.2696 -1.93854 0.282382 0
M  V30 389 H 37.8496 -0.118381 0.73756 0
M  V30 390 H 40.5116 0.407915 1.90583 0
M  V30 391 H 39.6076 -0.586813 3.06534 0
M  V30 392 N 39.9087 -1.5758 0.0250728 0
M  V30 393 C 41.1547 -1.91917 -0.655413 0
M  V30 394 C 41.4877 -0.901433 -1.72011 0
M  V30 395 O 40.7627 0.0764069 -1.9435 0
M  V30 396 C 41.0457 -3.36751 -1.27558 0
M  V30 397 C 40.8987 -4.49258 -0.220719 0
M  V30 398 C 42.2177 -3.81469 -2.19475 0
M  V30 399 H 39.3367 -0.697925 -0.23679 0
M  V30 400 H 41.9787 -1.89825 0.0815036 0
M  V30 401 H 40.1287 -3.38664 -1.90365 0
M  V30 402 H 41.8007 -4.59478 0.409601 0
M  V30 403 H 40.0437 -4.31415 0.454264 0
M  V30 404 H 40.7147 -5.47618 -0.694175 0
M  V30 405 H 43.1907 -3.81266 -1.66659 0
M  V30 406 H 42.0667 -4.83512 -2.59822 0
M  V30 407 H 42.3277 -3.16744 -3.08424 0
M  V30 408 N 41.3868 0.248026 -1.55636 0
M  V30 409 C 42.6118 0.998028 -1.81808 0
M  V30 410 C 43.0368 1.78207 -0.601979 0
M  V30 411 O 42.3948 1.75653 0.448961 0
M  V30 412 C 42.4428 1.9125 -3.05705 0
M  V30 413 O 41.5468 3.00406 -2.82542 0
M  V30 414 H 40.8878 0.284045 -0.600179 0
M  V30 415 H 43.4178 0.269357 -2.02819 0
M  V30 416 H 43.4278 2.32737 -3.35108 0
M  V30 417 H 42.1028 1.33602 -3.93857 0
M  V30 418 H 40.6798 2.63056 -2.64303 0
M  V30 419 N 42.8649 1.48995 0.513639 0
M  V30 420 C 44.2809 1.35478 0.843682 0
M  V30 421 C 44.4809 0.378213 1.97919 0
M  V30 422 O 43.5369 -0.194689 2.51748 0
M  V30 423 C 44.8499 2.75901 1.1958 0
M  V30 424 C 46.3979 2.84509 1.30474 0
M  V30 425 C 46.8729 4.25671 1.69021 0
M  V30 426 N 48.3639 4.28422 1.76094 0
M  V30 427 C 49.0989 5.34601 2.07338 0
M  V30 428 N 48.5949 6.5104 2.36894 0
M  V30 429 N 50.3879 5.22007 2.08483 0
M  V30 430 H 42.5389 2.11092 -0.235328 0
M  V30 431 H 44.8019 0.947039 -0.0426669 0
M  V30 432 H 44.5079 3.49001 0.434913 0
M  V30 433 H 44.3819 3.10467 2.1422 0
M  V30 434 H 46.7689 2.11655 2.05637 0
M  V30 435 H 46.8499 2.53542 0.339155 0
M  V30 436 H 46.4939 4.99048 0.944135 0
M  V30 437 H 46.4239 4.54094 2.66658 0
M  V30 438 H 48.9149 3.44441 1.55464 0
M  V30 439 H 49.2279 7.2779 2.59887 0
M  V30 440 H 47.5729 6.54287 2.34378 0
M  V30 441 H 50.7639 4.30051 1.84861 0
M  V30 442 H 50.9369 6.04854 2.325 0
M  V30 443 N 44.343 -0.763751 1.37857 0
M  V30 444 C 45.568 -1.55805 1.36893 0
M  V30 445 C 45.993 -1.88054 -0.0416135 0
M  V30 446 O 45.351 -1.49825 -1.02089 0
M  V30 447 C 45.399 -2.84012 2.22192 0
M  V30 448 O 44.503 -3.78732 1.63204 0
M  V30 449 H 43.844 -0.471638 0.46739 0
M  V30 450 H 46.374 -0.944657 1.81487 0
M  V30 451 H 46.384 -3.33037 2.35691 0
M  V30 452 H 45.059 -2.59869 3.24716 0
M  V30 453 H 43.636 -3.37402 1.58791 0
M  V30 454 N 45.8211 -1.22559 -0.990812 0
M  V30 455 C 47.0691 -1.04933 -1.72724 0
M  V30 456 C 47.3901 0.416158 -1.90508 0
M  V30 457 O 46.6601 1.29918 -1.46622 0
M  V30 458 H 45.2401 -0.385296 -0.639965 0
M  V30 459 H 47.9021 -1.54105 -1.19322 0
M  V30 460 H 46.9981 -1.52886 -2.72089 0
M  V30 461 N 47.2992 1.18797 -1.03562 0
M  V30 462 C 48.5462 1.8865 -0.736023 0
M  V30 463 C 48.8742 1.80041 0.735889 0
M  V30 464 O 48.1292 1.19179 1.55225 0
M  V30 465 C 48.4282 3.38692 -1.14117 0
M  V30 466 C 48.0942 3.67504 -2.6125 0
M  V30 467 C 46.7562 3.75078 -3.01447 0
M  V30 468 C 49.1082 3.80293 -3.56408 0
M  V30 469 C 46.4362 3.92915 -4.35701 0
M  V30 470 C 48.7882 3.99645 -4.90374 0
M  V30 471 C 47.4522 4.05453 -5.30249 0
M  V30 472 H 46.7222 0.690321 -0.26933 0
M  V30 473 H 49.3692 1.40641 -1.29971 0
M  V30 474 H 47.6742 3.88645 -0.496202 0
M  V30 475 H 49.3712 3.91072 -0.886789 0
M  V30 476 H 45.9612 3.62223 -2.29113 0
M  V30 477 H 50.1452 3.73779 -3.26501 0
M  V30 478 H 45.4012 3.95653 -4.66121 0
M  V30 479 H 49.5752 4.08482 -5.64017 0
M  V30 480 H 47.2022 4.19027 -6.34288 0
M  V30 481 N 48.7773 0.814389 1.34928 0
M  V30 482 C 50.0023 0.410097 2.03305 0
M  V30 483 C 50.4273 -0.973464 1.60951 0
M  V30 484 O 49.7853 -1.63185 0.789964 0
M  V30 485 C 49.8333 0.51049 3.56968 0
M  V30 486 O 48.9373 -0.473035 4.09678 0
M  V30 487 H 48.2783 0.170088 0.641846 0
M  V30 488 H 50.8083 1.10244 1.72358 0
M  V30 489 H 50.8183 0.383135 4.06197 0
M  V30 490 H 49.4933 1.51963 3.87144 0
M  V30 491 H 48.0703 -0.305272 3.71648 0
M  V30 492 N 50.2554 -1.46986 0.568584 0
M  V30 493 C 51.4804 -2.07335 0.0520528 0
M  V30 494 C 51.9054 -1.41675 -1.23733 0
M  V30 495 O 51.2634 -0.495623 -1.74394 0
M  V30 496 C 51.3114 -3.60417 -0.11501 0
M  V30 497 O 50.4154 -3.95309 -1.17492 0
M  V30 498 H 49.7564 -0.661597 0.0564385 0
M  V30 499 H 52.2864 -1.88837 0.787507 0
M  V30 500 H 52.2964 -4.06698 -0.325644 0
M  V30 501 H 50.9714 -4.07601 0.826675 0
M  V30 502 H 49.5484 -3.60757 -0.943869 0
M  V30 503 N 51.7335 -0.305618 -1.54608 0
M  V30 504 C 52.9795 0.302746 -2.00528 0
M  V30 505 C 53.3125 1.53184 -1.19367 0
M  V30 506 O 52.5875 1.92598 -0.271321 0
M  V30 507 C 52.8705 0.654756 -3.54097 0
M  V30 508 C 52.7235 -0.583793 -4.45995 0
M  V30 509 C 54.0425 1.47947 -4.14487 0
M  V30 510 H 51.1615 0.108564 -0.72896 0
M  V30 511 H 53.8035 -0.418634 -1.85331 0
M  V30 512 H 51.9535 1.26935 -3.67178 0
M  V30 513 H 53.6255 -1.22224 -4.44814 0
M  V30 514 H 51.8685 -1.21615 -4.16404 0
M  V30 515 H 52.5395 -0.293287 -5.5122 0
M  V30 516 H 55.0155 0.96013 -4.04871 0
M  V30 517 H 53.8915 1.69454 -5.22088 0
M  V30 518 H 54.1525 2.47011 -3.66658 0
M  V30 519 N 53.2116 1.57565 -0.0334293 0
M  V30 520 C 54.4366 1.96689 0.657895 0
M  V30 521 C 54.8616 0.910057 1.64619 0
M  V30 522 O 54.2196 -0.128598 1.80843 0
M  V30 523 C 54.2676 3.34905 1.33683 0
M  V30 524 O 53.3716 3.31574 2.45219 0
M  V30 525 H 52.7126 0.641205 0.172489 0
M  V30 526 H 55.2426 2.04372 -0.0965621 0
M  V30 527 H 55.2526 3.71234 1.69262 0
M  V30 528 H 53.9276 4.11366 0.612411 0
M  V30 529 H 52.5046 3.06968 2.11719 0
M  V30 530 N 54.6897 -0.239769 1.55765 0
M  V30 531 C 55.9357 -0.968234 1.78194 0
M  V30 532 C 56.2687 -1.84701 0.599938 0
M  V30 533 O 55.5437 -1.9031 -0.401524 0
M  V30 534 C 55.8267 -1.8227 3.10564 0
M  V30 535 C 55.6797 -0.971633 4.3918 0
M  V30 536 C 56.9987 -2.80388 3.39221 0
M  V30 537 H 54.1177 -0.350572 0.648281 0
M  V30 538 H 56.7597 -0.238259 1.885 0
M  V30 539 H 54.9097 -2.44507 3.01908 0
M  V30 540 H 56.5817 -0.367408 4.59835 0
M  V30 541 H 54.8247 -0.276276 4.32919 0
M  V30 542 H 55.4957 -1.60346 5.28198 0
M  V30 543 H 57.9717 -2.28287 3.47885 0
M  V30 544 H 56.8477 -3.3729 4.33044 0
M  V30 545 H 57.1087 -3.57212 2.60484 0
M  V30 546 N 56.1678 -1.49265 -0.50573 0
M  V30 547 C 57.3928 -1.62478 -1.28902 0
M  V30 548 C 57.8178 -0.294332 -1.85783 0
M  V30 549 O 57.1758 0.737412 -1.65626 0
M  V30 550 C 57.2238 -2.69268 -2.39848 0
M  V30 551 O 56.3278 -2.28113 -3.43567 0
M  V30 552 H 55.6688 -0.54399 -0.380751 0
M  V30 553 H 58.1988 -1.95421 -0.605952 0
M  V30 554 H 58.2088 -2.91291 -2.85681 0
M  V30 555 H 56.8838 -3.65846 -1.97812 0
M  V30 556 H 55.4608 -2.16401 -3.03685 0
M  V30 557 N 57.6459 0.756429 -1.3826 0
M  V30 558 C 59.0619 1.0591 -1.19395 0
M  V30 559 C 59.2619 2.01459 -0.0406567 0
M  V30 560 O 58.3179 2.44909 0.614467 0
M  V30 561 C 59.6309 1.64191 -2.51916 0
M  V30 562 C 61.1789 1.76376 -2.58574 0
M  V30 563 C 61.6539 2.38069 -3.91264 0
M  V30 564 N 63.1449 2.45503 -3.92788 0
M  V30 565 C 63.8799 2.94126 -4.92217 0
M  V30 566 N 63.3759 3.42805 -6.02043 0
M  V30 567 N 65.1689 2.9314 -4.7961 0
M  V30 568 H 57.3199 0.122313 -2.12048 0
M  V30 569 H 59.5829 0.116892 -0.940766 0
M  V30 570 H 59.2889 1.01451 -3.3675 0
M  V30 571 H 59.1629 2.6329 -2.70108 0
M  V30 572 H 61.5499 2.38244 -1.74137 0
M  V30 573 H 61.6309 0.759894 -2.44252 0
M  V30 574 H 61.2749 1.76835 -4.76121 0
M  V30 575 H 61.2049 3.39091 -4.02895 0
M  V30 576 H 63.6959 2.1107 -3.13461 0
M  V30 577 H 64.0089 3.78354 -6.73846 0
M  V30 578 H 62.3539 3.4087 -6.05667 0
M  V30 579 H 65.5449 2.54419 -3.92923 0
M  V30 580 H 65.7179 3.30721 -5.5725 0
M  V30 581 N 59.124 1.23083 0.984299 0
M  V30 582 C 60.349 1.088 1.76571 0
M  V30 583 C 60.774 -0.356657 1.84688 0
M  V30 584 O 60.132 -1.25788 1.30565 0
M  V30 585 C 60.18 1.71371 3.17277 0
M  V30 586 O 59.284 0.973213 4.00752 0
M  V30 587 H 58.625 0.381599 0.543395 0
M  V30 588 H 61.155 1.63057 1.23587 0
M  V30 589 H 61.165 1.76449 3.67872 0
M  V30 590 H 59.84 2.76493 3.10684 0
M  V30 591 H 58.417 0.999078 3.59267 0
M  V30 592 N 60.6021 -1.18246 1.0419 0
M  V30 593 C 62.0181 -1.40269 0.761366 0
M  V30 594 C 62.2181 -1.90777 -0.648578 0
M  V30 595 O 61.2741 -2.0929 -1.41258 0
M  V30 596 C 62.5871 -2.40237 1.8085 0
M  V30 597 C 64.1351 -2.53961 1.82955 0
M  V30 598 C 64.6101 -3.57194 2.86664 0
M  V30 599 N 66.1011 -3.64702 2.85563 0
M  V30 600 C 66.8361 -4.44309 3.6246 0
M  V30 601 N 66.3321 -5.27514 4.49111 0
M  V30 602 N 68.1251 -4.39084 3.50944 0
M  V30 603 H 60.2761 -0.837882 1.95175 0
M  V30 604 H 62.5391 -0.430608 0.84456 0
M  V30 605 H 62.2451 -2.10176 2.81991 0
M  V30 606 H 62.1191 -3.39601 1.64168 0
M  V30 607 H 64.5061 -2.83338 0.824855 0
M  V30 608 H 64.5871 -1.54706 2.03715 0
M  V30 609 H 64.2311 -3.28558 3.87314 0
M  V30 610 H 64.1611 -4.5613 2.6316 0
M  V30 611 H 66.6521 -3.05289 2.22727 0
M  V30 612 H 66.9651 -5.85411 5.04493 0
M  V30 613 H 65.3101 -5.2693 4.53178 0
M  V30 614 H 68.5011 -3.7313 2.82651 0
M  V30 615 H 68.6741 -5.00883 4.11121 0
M  V30 616 N 62.0802 -0.821533 -1.34494 0
M  V30 617 C 63.3282 -0.408139 -1.97936 0
M  V30 618 C 63.6492 1.03193 -1.65457 0
M  V30 619 O 62.9192 1.71622 -0.944595 0
M  V30 620 H 61.4992 -0.147928 -0.732206 0
M  V30 621 H 64.1612 -1.05067 -1.64155 0
M  V30 622 H 63.2572 -0.52601 -3.07635 0
M  V30 623 N 63.5583 1.46682 -0.576371 0
M  V30 624 C 64.7833 2.07304 -0.0630475 0
M  V30 625 C 65.2083 1.42329 1.2298 0
M  V30 626 O 64.5663 0.504865 1.74129 0
M  V30 627 C 64.6143 3.60472 0.095895 0
M  V30 628 O 63.7183 3.95927 1.15394 0
M  V30 629 H 63.0593 0.661288 -0.0599463 0
M  V30 630 H 65.5893 1.88417 -0.797511 0
M  V30 631 H 65.5993 4.06865 0.304071 0
M  V30 632 H 64.2743 4.07157 -0.84828 0
M  V30 633 H 62.8513 3.61252 0.924724 0
M  V30 634 N 65.0364 0.313813 1.54444 0
M  V30 635 C 66.2844 -0.291099 1.99993 0
M  V30 636 C 66.6054 -1.53418 1.20366 0
M  V30 637 O 65.8754 -1.93544 0.302927 0
M  V30 638 H 64.4554 -0.110552 0.738774 0
M  V30 639 H 67.1174 0.428106 1.9014 0
M  V30 640 H 66.2134 -0.554268 3.07139 0
M  V30 641 N 66.5145 -1.57545 0.0417849 0
M  V30 642 C 67.7625 -1.91937 -0.632829 0
M  V30 643 C 68.0835 -0.919978 -1.71934 0
M  V30 644 O 67.3535 0.0366064 -1.95866 0
M  V30 645 H 65.9335 -0.708493 -0.236742 0
M  V30 646 H 68.5955 -1.9468 0.0925745 0
M  V30 647 H 67.6915 -2.92912 -1.07746 0
M  V30 648 N 67.9926 0.231505 -1.5589 0
M  V30 649 C 68.9226 1.29022 -1.94617 0
M  V30 650 C 69.9036 1.4941 -0.813067 0
M  V30 651 O 71.0886 1.6176 -1.07459 0
M  V30 652 C 68.2186 2.64199 -2.25424 0
M  V30 653 C 67.1726 2.58484 -3.41131 0
M  V30 654 C 66.4986 3.97599 -3.57518 0
M  V30 655 C 67.7986 2.1413 -4.76388 0
M  V30 656 H 69.4926 0.968563 -2.83301 0
M  V30 657 H 67.0386 0.464479 -1.36303 0
M  V30 658 H 68.9916 3.38413 -2.51107 0
M  V30 659 H 67.7156 2.98032 -1.33583 0
M  V30 660 H 66.3746 1.86727 -3.15481 0
M  V30 661 H 66.0226 4.28723 -2.6307 0
M  V30 662 H 65.7226 3.94659 -4.35337 0
M  V30 663 H 67.2466 4.7349 -3.85538 0
M  V30 664 H 68.6606 2.78083 -5.01341 0
M  V30 665 H 67.0576 2.2227 -5.57419 0
M  V30 666 H 68.1276 1.09331 -4.72414 0
M  V30 667 N 69.4707 1.49531 0.497807 0
M  V30 668 C 70.7187 1.58865 1.24926 0
M  V30 669 C 71.0397 0.278721 1.92998 0
M  V30 670 O 70.3097 -0.702144 1.82885 0
M  V30 671 H 68.8897 0.585343 0.464094 0
M  V30 672 H 71.5517 1.86174 0.57666 0
M  V30 673 H 70.6477 2.38633 2.01149 0
M  V30 674 N 70.9488 -0.749086 1.3866 0
M  V30 675 C 72.1968 -1.50535 1.34847 0
M  V30 676 C 72.5178 -1.94909 -0.0595016 0
M  V30 677 O 71.7878 -1.67973 -1.00806 0
M  V30 678 H 70.3678 -0.558395 0.49619 0
M  V30 679 H 73.0298 -0.890165 1.73384 0
M  V30 680 H 72.1258 -2.39413 2.00219 0
M  V30 681 N 72.4269 -1.23603 -0.977757 0
M  V30 682 C 73.3899 -1.02069 -2.05218 0
M  V30 683 C 74.3899 0.0184305 -1.60789 0
M  V30 684 O 75.5799 -0.221569 -1.72785 0
M  V30 685 C 72.7119 -0.544926 -3.36517 0
M  V30 686 H 73.9049 -1.9742 -2.25755 0
M  V30 687 H 71.4579 -1.05684 -1.15155 0
M  V30 688 H 72.1929 0.412241 -3.21669 0
M  V30 689 H 71.9779 -1.2948 -3.70105 0
M  V30 690 H 73.4679 -0.414985 -4.15533 0
M  V30 691 N 73.905 1.17692 -1.04816 0
M  V30 692 C 75.145 1.89545 -0.764979 0
M  V30 693 C 75.509 1.78979 0.695028 0
M  V30 694 O 76.71 2.45613 1.09215 0
M  V30 695 C 74.981 3.35659 -1.22751 0
M  V30 696 S 76.54 4.25526 -1.07112 0
M  V30 697 H 73.358 0.654432 -0.27792 0
M  V30 698 H 75.96 1.42163 -1.34201 0
M  V30 699 H 74.664 3.40882 -2.28533 0
M  V30 700 H 74.195 3.88083 -0.644594 0
M  V30 701 H 76.21 4.962 0.00697508 0
M  V30 702 N 75.3831 0.828654 1.34056 0
M  V30 703 C 76.6311 0.41863 1.97717 0
M  V30 704 C 76.9521 -1.02314 1.66002 0
M  V30 705 O 76.2221 -1.71119 0.953683 0
M  V30 706 H 74.8021 0.151809 0.731412 0
M  V30 707 H 77.4641 1.05936 1.63596 0
M  V30 708 H 76.5601 0.542318 3.07352 0
M  V30 709 N 76.8612 -1.46375 0.584142 0
M  V30 710 C 78.1092 -2.01978 0.0701287 0
M  V30 711 C 78.4302 -1.4579 -1.295 0
M  V30 712 O 77.7002 -0.64314 -1.85042 0
M  V30 713 H 76.2802 -0.746648 0.0229345 0
M  V30 714 H 78.9422 -1.79461 0.760245 0
M  V30 715 H 78.0382 -3.121 0.0022064 0
M  V30 716 N 78.3393 -0.321999 -1.54275 0
M  V30 717 C 79.3023 0.531975 -2.22941 0
M  V30 718 C 80.3023 1.04478 -1.22234 0
M  V30 719 O 81.4923 0.937452 -1.46825 0
M  V30 720 C 78.6243 1.73874 -2.93224 0
M  V30 721 H 79.8173 -0.0682612 -2.99822 0
M  V30 722 H 77.3703 -0.0730644 -1.56129 0
M  V30 723 H 78.1053 2.37825 -2.20476 0
M  V30 724 H 77.8903 1.37847 -3.6707 0
M  V30 725 H 79.3803 2.34496 -3.45545 0
M  V30 726 N 79.8174 1.5752 -0.0501392 0
M  V30 727 C 81.0654 1.9227 0.622642 0
M  V30 728 C 81.3864 0.929083 1.71444 0
M  V30 729 O 80.6564 -0.0262186 1.95882 0
M  V30 730 H 79.2364 0.709739 0.232981 0
M  V30 731 H 81.8984 1.94628 -0.102898 0
M  V30 732 H 80.9944 2.93479 1.06191 0
M  V30 733 N 81.2955 -0.223234 1.56011 0
M  V30 734 C 82.5425 -0.947875 1.78946 0
M  V30 735 C 82.8705 -1.844 0.618608 0
M  V30 736 O 82.1255 -1.91629 -0.397093 0
M  V30 737 C 82.4245 -1.81948 3.0762 0
M  V30 738 C 82.0905 -1.07672 4.37856 0
M  V30 739 C 80.7525 -0.871544 4.73242 0
M  V30 740 C 83.1045 -0.552081 5.18268 0
M  V30 741 C 80.4325 -0.129791 5.86556 0
M  V30 742 C 82.7845 0.17632 6.32354 0
M  V30 743 C 81.4485 0.39277 6.66343 0
M  V30 744 H 80.7185 -0.346852 0.654809 0
M  V30 745 H 83.3655 -0.216171 1.90276 0
M  V30 746 H 81.6705 -2.61899 2.91404 0
M  V30 747 H 83.3675 -2.38227 3.22566 0
M  V30 748 H 79.9575 -1.24662 4.1007 0
M  V30 749 H 84.1415 -0.698076 4.91366 0
M  V30 750 H 79.3975 0.048153 6.11381 0
M  V30 751 H 83.5715 0.590367 6.93893 0
M  V30 752 H 81.1985 0.969466 7.53993 0
M  V30 753 N 82.7736 -1.49793 -0.48987 0
M  V30 754 C 84.0216 -1.59525 -1.24081 0
M  V30 755 C 84.3426 -0.288953 -1.92847 0
M  V30 756 O 83.6126 0.692436 -1.83254 0
M  V30 757 H 82.1926 -0.587796 -0.460983 0
M  V30 758 H 84.8546 -1.86477 -0.566778 0
M  V30 759 H 83.9506 -2.39696 -1.99881 0
M  V30 760 N 84.2517 0.741722 -1.39055 0
M  V30 761 C 85.4767 1.53607 -1.39354 0
M  V30 762 C 85.9017 1.88096 0.0116905 0
M  V30 763 O 85.2597 1.5143 0.996924 0
M  V30 764 C 85.3077 2.80441 -2.26682 0
M  V30 765 O 84.4117 3.76088 -1.69208 0
M  V30 766 H 83.7527 0.464142 -0.474835 0
M  V30 767 H 86.2827 0.915665 -1.82967 0
M  V30 768 H 86.2927 3.29246 -2.40959 0
M  V30 769 H 84.9677 2.5467 -3.2881 0
M  V30 770 H 83.5447 3.34833 -1.64138 0
M  V30 771 N 85.7298 1.2412 0.971189 0
M  V30 772 C 87.1458 1.00584 1.23916 0
M  V30 773 C 87.3458 -0.287481 1.99439 0
M  V30 774 O 86.4018 -1.00454 2.31658 0
M  V30 775 C 87.7148 2.21864 2.0297 0
M  V30 776 C 89.2628 2.26452 2.16076 0
M  V30 777 C 89.7378 3.47343 2.98524 0
M  V30 778 N 91.2288 3.47639 3.06107 0
M  V30 779 C 91.9638 4.37837 3.70251 0
M  V30 780 N 91.4598 5.38286 4.36142 0
M  V30 781 N 93.2528 4.25558 3.67228 0
M  V30 782 H 85.4038 2.07236 0.465499 0
M  V30 783 H 87.6668 0.909236 0.268315 0
M  V30 784 H 87.3728 3.15771 1.54861 0
M  V30 785 H 87.2468 2.23698 3.03709 0
M  V30 786 H 89.6338 1.33078 2.6339 0
M  V30 787 H 89.7148 2.28645 1.14696 0
M  V30 788 H 89.3588 4.41029 2.51905 0
M  V30 789 H 89.2888 3.42393 4.00093 0
M  V30 790 H 91.7798 2.74966 2.59233 0
M  V30 791 H 92.0928 6.03352 4.82894 0
M  V30 792 H 90.4378 5.42176 4.34822 0
M  V30 793 H 93.6288 3.46322 3.14927 0
M  V30 794 H 93.8018 4.96054 4.16935 0
M  V30 795 N 87.2079 -1.17134 1.05439 0
M  V30 796 C 88.4329 -1.91913 0.786396 0
M  V30 797 C 88.8579 -1.7643 -0.652234 0
M  V30 798 O 88.2159 -1.08372 -1.45345 0
M  V30 799 C 88.2639 -3.40921 1.17497 0
M  V30 800 O 87.3679 -4.11244 0.308589 0
M  V30 801 H 86.7089 -0.598215 0.288158 0
M  V30 802 H 89.2389 -1.48457 1.4079 0
M  V30 803 H 89.2489 -3.91668 1.14281 0
M  V30 804 H 87.9239 -3.5151 2.22292 0
M  V30 805 H 86.5009 -3.70731 0.40157 0
M  V30 806 N 88.686 -0.835752 -1.33615 0
M  V30 807 C 89.616 -0.281739 -2.31794 0
M  V30 808 C 90.597 0.608833 -1.58831 0
M  V30 809 O 91.782 0.533035 -1.86741 0
M  V30 810 C 88.912 0.546612 -3.42971 0
M  V30 811 C 87.866 -0.247904 -4.27281 0
M  V30 812 C 87.192 0.704001 -5.30045 0
M  V30 813 C 88.492 -1.46324 -5.01385 0
M  V30 814 H 90.186 -1.10206 -2.78379 0
M  V30 815 H 87.732 -0.531388 -1.33837 0
M  V30 816 H 89.685 0.944467 -4.1068 0
M  V30 817 H 88.409 1.40011 -2.95067 0
M  V30 818 H 87.068 -0.627281 -3.61194 0
M  V30 819 H 86.716 1.55381 -4.78399 0
M  V30 820 H 86.416 0.176524 -5.87335 0
M  V30 821 H 87.94 1.09944 -6.0062 0
M  V30 822 H 89.354 -1.13871 -5.61877 0
M  V30 823 H 87.751 -1.92728 -5.6831 0
M  V30 824 H 88.821 -2.23467 -4.30338 0
M  V30 825 N 90.1641 1.46063 -0.591896 0
M  V30 826 C 91.3941 2.06418 -0.0867676 0
M  V30 827 C 91.8021 1.43975 1.22751 0
M  V30 828 O 91.1451 0.542531 1.75506 0
M  V30 829 C 91.2071 3.59213 0.143725 0
M  V30 830 C 90.8711 4.439 -1.08635 0
M  V30 831 C 91.8681 4.79864 -2.00067 0
M  V30 832 C 89.5531 4.84896 -1.31077 0
M  V30 833 C 91.5471 5.55661 -3.12282 0
M  V30 834 C 89.2341 5.6045 -2.43596 0
M  V30 835 C 90.2321 5.95747 -3.34027 0
M  V30 836 O 89.9201 6.69772 -4.4459 0
M  V30 837 H 89.6521 0.673443 -0.0587447 0
M  V30 838 H 92.2061 1.88539 -0.814994 0
M  V30 839 H 90.4361 3.75433 0.926668 0
M  V30 840 H 92.1251 4.01463 0.5985 0
M  V30 841 H 92.8911 4.48763 -1.83947 0
M  V30 842 H 88.7701 4.56867 -0.61594 0
M  V30 843 H 92.3141 5.8313 -3.82891 0
M  V30 844 H 88.2111 5.90965 -2.59674 0
M  V30 845 H 88.9791 6.88207 -4.43073 0
M  V30 846 N 91.6422 0.330177 1.54103 0
M  V30 847 C 92.8902 -0.269871 2.0029 0
M  V30 848 C 93.2112 -1.52133 1.21986 0
M  V30 849 O 92.4812 -1.93212 0.323438 0
M  V30 850 H 91.0612 -0.10271 0.739905 0
M  V30 851 H 93.7232 0.448249 1.89675 0
M  V30 852 H 92.8192 -0.52166 3.07709 0
M  V30 853 N 93.1203 -1.57491 0.0584922 0
M  V30 854 C 94.0503 -2.14988 -0.911178 0
M  V30 855 C 95.0313 -1.07343 -1.31952 0
M  V30 856 O 96.2163 -1.35318 -1.39294 0
M  V30 857 C 93.3463 -2.70078 -2.18347 0
M  V30 858 C 92.3003 -3.82771 -1.91495 0
M  V30 859 C 91.6263 -4.24408 -3.25241 0
M  V30 860 C 92.9263 -5.07592 -1.23075 0
M  V30 861 H 94.6203 -2.96263 -0.432246 0
M  V30 862 H 92.1663 -1.42512 -0.206469 0
M  V30 863 H 94.1193 -3.08943 -2.86587 0
M  V30 864 H 92.8433 -1.86005 -2.68458 0
M  V30 865 H 91.5023 -3.44389 -1.25664 0
M  V30 866 H 91.1503 -3.37275 -3.73168 0
M  V30 867 H 90.8503 -5.00366 -3.08071 0
M  V30 868 H 92.3743 -4.65879 -3.94701 0
M  V30 869 H 93.7883 -5.43857 -1.81362 0
M  V30 870 H 92.1853 -5.88741 -1.16207 0
M  V30 871 H 93.2553 -4.84454 -0.207847 0
M  V30 872 N 94.5984 0.214957 -1.56127 0
M  V30 873 C 95.8464 0.936518 -1.79091 0
M  V30 874 C 96.1674 1.84606 -0.628148 0
M  V30 875 O 95.4374 1.92664 0.35462 0
M  V30 876 H 94.0174 0.3488 -0.660566 0
M  V30 877 H 96.6794 0.22523 -1.93594 0
M  V30 878 H 95.7754 1.53943 -2.71492 0
M  V30 879 N 96.0765 1.50051 0.48192 0
M  V30 880 C 97.3245 1.60181 1.23234 0
M  V30 881 C 97.6455 0.299176 1.92691 0
M  V30 882 O 96.9155 -0.682708 1.83619 0
M  V30 883 H 95.4955 0.590232 0.457859 0
M  V30 884 H 98.1575 1.86775 0.556881 0
M  V30 885 H 97.2535 2.40753 1.98607 0
M  V30 886 N 97.5546 -0.734337 1.39446 0
M  V30 887 C 98.7796 -1.52866 1.40167 0
M  V30 888 C 99.2046 -1.881 -0.00171513 0
M  V30 889 O 98.5626 -1.51957 -0.988879 0
M  V30 890 C 98.6106 -2.79235 2.28167 0
M  V30 891 O 97.7146 -3.75185 1.71201 0
M  V30 892 H 97.0556 -0.461618 0.477289 0
M  V30 893 H 99.5856 -0.905949 1.8345 0
M  V30 894 H 99.5956 -3.27963 2.42702 0
M  V30 895 H 98.2706 -2.52923 3.30156 0
M  V30 896 H 96.8476 -3.33958 1.65912 0
M  V30 897 N 99.0327 -1.24633 -0.964593 0
M  V30 898 C 99.9797 -1.04144 -2.05968 0
M  V30 899 C 100.95 0.046262 -1.66036 0
M  V30 900 O 102.135 -0.108972 -1.90489 0
M  V30 901 C 99.2747 -0.65563 -3.38815 0
M  V30 902 C 98.3877 -1.81714 -3.91923 0
M  V30 903 C 97.5227 -1.37662 -5.13052 0
M  V30 904 C 96.5617 -2.50788 -5.58365 0
M  V30 905 N 95.6987 -2.07582 -6.70712 0
M  V30 906 H 100.539 -1.9787 -2.22827 0
M  V30 907 H 98.0757 -0.9855 -1.09208 0
M  V30 908 H 100.034 -0.412954 -4.15151 0
M  V30 909 H 98.6637 0.244627 -3.21872 0
M  V30 910 H 97.7157 -2.1734 -3.12198 0
M  V30 911 H 99.0277 -2.66705 -4.21509 0
M  V30 912 H 98.1817 -1.093 -5.96773 0
M  V30 913 H 96.9207 -0.497293 -4.85158 0
M  V30 914 H 95.9257 -2.79906 -4.73215 0
M  V30 915 H 97.1507 -3.39283 -5.88272 0
M  V30 916 H 95.0967 -1.22051 -6.44546 0
M  V30 917 H 95.0137 -2.86125 -6.99763 0
M  V30 918 H 96.2817 -1.82369 -7.57867 0
M  V30 919 N 100.511 1.16574 -1.06058 0
M  V30 920 C 101.927 1.3904 -0.783585 0
M  V30 921 C 102.127 1.91784 0.618145 0
M  V30 922 O 101.183 2.11511 1.37911 0
M  V30 923 C 102.496 2.37329 -1.84649 0
M  V30 924 C 104.044 2.51018 -1.86973 0
M  V30 925 C 104.519 3.52588 -2.92311 0
M  V30 926 N 106.01 3.60113 -2.91329 0
M  V30 927 C 106.745 4.38486 -3.69482 0
M  V30 928 N 106.241 5.20302 -4.57447 0
M  V30 929 N 108.034 4.33446 -3.57885 0
M  V30 930 H 100.185 0.806725 -1.96483 0
M  V30 931 H 102.448 0.417117 -0.851303 0
M  V30 932 H 102.154 2.05663 -2.85299 0
M  V30 933 H 102.028 3.36946 -1.6955 0
M  V30 934 H 104.415 2.81989 -0.869827 0
M  V30 935 H 104.496 1.51445 -2.0615 0
M  V30 936 H 104.14 3.22354 -3.92492 0
M  V30 937 H 104.07 4.51886 -2.70383 0
M  V30 938 H 106.561 3.01707 -2.27555 0
M  V30 939 H 106.874 5.77311 -5.13743 0
M  V30 940 H 105.219 5.19653 -4.61503 0
M  V30 941 H 108.41 3.68586 -2.88551 0
M  V30 942 H 108.583 4.94279 -4.19037 0
M  V30 943 N 101.989 0.842826 1.3317 0
M  V30 944 C 103.238 0.436738 1.96915 0
M  V30 945 C 103.551 -1.01025 1.67491 0
M  V30 946 O 104.757 -1.5212 2.24881 0
M  V30 947 C 103.213 0.730021 3.52418 0
M  V30 948 C 102.821 2.19195 3.90714 0
M  V30 949 C 104.565 0.391076 4.22695 0
M  V30 950 C 102.472 2.42907 5.39212 0
M  V30 951 H 101.402 0.15958 0.736919 0
M  V30 952 H 104.053 1.03196 1.51733 0
M  V30 953 H 102.435 0.0643755 3.95948 0
M  V30 954 H 103.609 2.8984 3.58231 0
M  V30 955 H 101.924 2.49425 3.33431 0
M  V30 956 H 104.521 0.545817 5.31907 0
M  V30 957 H 104.864 -0.666294 4.10933 0
M  V30 958 H 105.397 1.01212 3.84709 0
M  V30 959 H 102.136 3.47224 5.55982 0
M  V30 960 H 101.656 1.76827 5.73142 0
M  V30 961 H 103.335 2.2626 6.06148 0
M  V30 962 N 103.467 -1.45747 0.599634 0
M  V30 963 C 104.692 -2.07178 0.0960198 0
M  V30 964 C 105.117 -1.44268 -1.207 0
M  V30 965 O 104.475 -0.532503 -1.73303 0
M  V30 966 C 104.523 -3.60579 -0.0385348 0
M  V30 967 O 103.627 -3.97713 -1.0908 0
M  V30 968 H 102.968 -0.660251 0.0704593 0
M  V30 969 H 105.498 -1.87124 0.827385 0
M  V30 970 H 105.508 -4.07298 -0.239304 0
M  V30 971 H 104.183 -4.05756 0.912947 0
M  V30 972 H 102.76 -3.62678 -0.867135 0
M  V30 973 N 104.945 -0.338344 -1.53925 0
M  V30 974 C 106.194 0.260732 -2.00008 0
M  V30 975 C 106.507 1.52073 -1.23017 0
M  V30 976 O 107.713 2.19672 -1.5955 0
M  V30 977 C 106.169 0.51515 -3.56194 0
M  V30 978 C 105.777 -0.728645 -4.42035 0
M  V30 979 C 107.521 1.07337 -4.10706 0
M  V30 980 C 105.428 -0.445315 -5.89721 0
M  V30 981 H 104.358 0.101205 -0.747177 0
M  V30 982 H 107.009 -0.452866 -1.77824 0
M  V30 983 H 105.391 1.28932 -3.74423 0
M  V30 984 H 106.565 -1.50352 -4.35581 0
M  V30 985 H 104.88 -1.20813 -3.98489 0
M  V30 986 H 107.477 1.30022 -5.18651 0
M  V30 987 H 107.82 2.0273 -3.63602 0
M  V30 988 H 108.353 0.360034 -3.96167 0
M  V30 989 H 105.092 -1.36883 -6.41049 0
M  V30 990 H 104.612 0.291569 -5.99091 0
M  V30 991 H 106.291 -0.0606218 -6.46972 0
M  V30 992 N 106.423 1.57458 -0.0668435 0
M  V30 993 C 107.671 1.92919 0.602214 0
M  V30 994 C 107.992 0.947215 1.70449 0
M  V30 995 O 107.262 -0.00544117 1.95899 0
M  V30 996 H 105.842 0.71217 0.22544 0
M  V30 997 H 108.504 1.94508 -0.123535 0
M  V30 998 H 107.6 2.94589 1.03073 0
M  V30 999 N 107.901 -0.206675 1.56239 0
M  V30 1000 C 109.149 -0.927007 1.79586 0
M  V30 1001 C 109.47 -1.8427 0.637929 0
M  V30 1002 O 108.74 -1.92849 -0.344398 0
M  V30 1003 H 107.32 -0.345292 0.662407 0
M  V30 1004 H 109.982 -0.21496 1.93711 0
M  V30 1005 H 109.078 -1.52501 2.72305 0
M  V30 1006 N 109.379 -1.50304 -0.473955 0
M  V30 1007 C 110.627 -1.60832 -1.22382 0
M  V30 1008 C 110.948 -0.30939 -1.9253 0
M  V30 1009 O 110.218 0.67296 -1.83978 0
M  V30 1010 H 108.798 -0.592652 -0.454723 0
M  V30 1011 H 111.46 -1.87068 -0.546968 0
M  V30 1012 H 110.556 -2.41803 -1.97327 0
M  V30 1013 N 110.857 0.726932 -1.39834 0
M  V30 1014 C 112.082 1.52121 -1.40976 0
M  V30 1015 C 112.507 1.88098 -0.00826029 0
M  V30 1016 O 111.865 1.52479 0.980807 0
M  V30 1017 C 111.913 2.78021 -2.29644 0
M  V30 1018 O 111.017 3.74272 -1.73188 0
M  V30 1019 H 110.358 0.45908 -0.479731 0
M  V30 1020 H 112.888 0.896207 -1.83927 0
M  V30 1021 H 112.898 3.26671 -2.44438 0
M  V30 1022 H 111.573 2.51169 -3.31492 0
M  V30 1023 H 110.15 3.33073 -1.6768 0
M  V30 1024 N 112.336 1.25143 0.95797 0
M  V30 1025 C 113.576 1.10893 1.71703 0
M  V30 1026 C 113.94 -0.34478 1.88879 0
M  V30 1027 O 115.141 -0.609014 2.6181 0
M  V30 1028 C 113.412 1.83889 3.06463 0
M  V30 1029 S 114.971 1.85491 3.97666 0
M  V30 1030 H 111.789 0.396428 0.590226 0
M  V30 1031 H 114.391 1.58618 1.14283 0
M  V30 1032 H 113.095 2.88756 2.9163 0
M  V30 1033 H 112.626 1.36538 3.68946 0
M  V30 1034 H 114.641 0.929553 4.87415 0
M  V30 1035 N 113.814 -1.1601 1.06675 0
M  V30 1036 C 114.777 -2.18724 0.685001 0
M  V30 1037 C 115.777 -1.58496 -0.271246 0
M  V30 1038 O 116.967 -1.74119 -0.0531156 0
M  V30 1039 C 114.099 -3.40899 0.00853648 0
M  V30 1040 H 115.292 -2.54011 1.59431 0
M  V30 1041 H 112.845 -1.30352 0.862441 0
M  V30 1042 H 113.58 -3.11173 -0.913337 0
M  V30 1043 H 113.365 -3.8587 0.696204 0
M  V30 1044 H 114.855 -4.16886 -0.24414 0
M  V30 1045 N 115.292 -0.849877 -1.32721 0
M  V30 1046 C 116.541 -0.447175 -1.96681 0
M  V30 1047 C 116.854 1.00135 -1.68025 0
M  V30 1048 O 118.06 1.50926 -2.25685 0
M  V30 1049 C 116.516 -0.7487 -3.52026 0
M  V30 1050 C 116.124 -2.21264 -3.89546 0
M  V30 1051 C 117.868 -0.413487 -4.22481 0
M  V30 1052 C 115.775 -2.45763 -5.37917 0
M  V30 1053 H 114.705 -0.163486 -0.736063 0
M  V30 1054 H 117.356 -1.03999 -1.51183 0
M  V30 1055 H 115.738 -0.0853727 -3.95908 0
M  V30 1056 H 116.912 -2.91736 -3.56689 0
M  V30 1057 H 115.227 -2.5119 -3.32103 0
M  V30 1058 H 117.824 -0.574017 -5.3161 0
M  V30 1059 H 118.167 0.644492 -4.11281 0
M  V30 1060 H 118.7 -1.03251 -3.84167 0
M  V30 1061 H 115.439 -3.50168 -5.54132 0
M  V30 1062 H 114.959 -1.79864 -5.72197 0
M  V30 1063 H 116.638 -2.29471 -6.0494 0
M  V30 1064 N 116.77 1.45427 -0.607355 0
M  V30 1065 C 117.995 2.07124 -0.107006 0
M  V30 1066 C 118.42 1.44906 1.19933 0
M  V30 1067 O 117.778 0.541687 1.73019 0
M  V30 1068 C 117.826 3.60595 0.0194119 0
M  V30 1069 O 116.93 3.98285 1.0697 0
M  V30 1070 H 116.271 0.659868 -0.0739597 0
M  V30 1071 H 118.801 1.86683 -0.837297 0
M  V30 1072 H 118.811 4.07419 0.2177 0
M  V30 1073 H 117.486 4.05266 -0.934453 0
M  V30 1074 H 116.063 3.63133 0.847889 0
M  V30 1075 N 118.248 0.346503 1.53744 0
M  V30 1076 C 119.496 -0.248612 2.00565 0
M  V30 1077 C 119.817 -1.5083 1.23593 0
M  V30 1078 O 119.087 -1.92858 0.343912 0
M  V30 1079 H 117.667 -0.0948564 0.740953 0
M  V30 1080 H 120.329 0.468341 1.89189 0
M  V30 1081 H 119.425 -0.488994 3.08245 0
M  V30 1082 N 119.726 -1.57421 0.075193 0
M  V30 1083 C 120.974 -1.93236 -0.591974 0
M  V30 1084 C 121.295 -0.956241 -1.69944 0
M  V30 1085 O 120.565 -0.00494792 -1.95899 0
M  V30 1086 H 119.145 -0.713355 -0.22166 0
M  V30 1087 H 121.807 -1.9444 0.133848 0
M  V30 1088 H 120.903 -2.95131 -1.01509 0
M  V30 1089 N 121.204 0.198386 -1.56346 0
M  V30 1090 C 122.434 0.934215 -1.84271 0
M  V30 1091 C 122.842 1.77496 -0.655125 0
M  V30 1092 O 122.185 1.7961 0.385488 0
M  V30 1093 C 122.247 1.88278 -3.06254 0
M  V30 1094 C 121.911 1.22431 -4.40295 0
M  V30 1095 C 122.908 0.602839 -5.16393 0
M  V30 1096 C 120.593 1.22915 -4.87029 0
M  V30 1097 C 122.587 -0.0050083 -6.374 0
M  V30 1098 C 120.274 0.617465 -6.07973 0
M  V30 1099 C 121.272 0.00146341 -6.83 0
M  V30 1100 O 120.96 -0.600642 -8.01653 0
M  V30 1101 H 120.692 0.278245 -0.616081 0
M  V30 1102 H 123.246 0.211626 -2.04307 0
M  V30 1103 H 121.476 2.64498 -2.82095 0
M  V30 1104 H 123.165 2.48612 -3.20853 0
M  V30 1105 H 123.931 0.591265 -4.81382 0
M  V30 1106 H 119.81 1.69801 -4.28589 0
M  V30 1107 H 123.354 -0.48643 -6.95902 0
M  V30 1108 H 119.251 0.62653 -6.42452 0
M  V30 1109 H 120.019 -0.497225 -8.16988 0
M  V30 1110 N 122.682 1.50554 0.465978 0
M  V30 1111 C 123.93 1.61479 1.21528 0
M  V30 1112 C 124.251 0.319596 1.92363 0
M  V30 1113 O 123.521 -0.663194 1.84333 0
M  V30 1114 H 122.101 0.595055 0.451573 0
M  V30 1115 H 124.763 1.87355 0.53704 0
M  V30 1116 H 123.859 2.42846 1.96042 0
M  V30 1117 N 124.16 -0.719506 1.40217 0
M  V30 1118 C 125.385 -1.51371 1.4178 0
M  V30 1119 C 125.81 -1.88091 0.0182355 0
M  V30 1120 O 125.168 -1.52997 -0.972707 0
M  V30 1121 C 125.216 -2.768 2.31115 0
M  V30 1122 O 124.32 -3.73349 1.7517 0
M  V30 1123 H 123.661 -0.456529 0.482159 0
M  V30 1124 H 126.191 -0.88644 1.844 0
M  V30 1125 H 126.201 -3.25371 2.46167 0
M  V30 1126 H 124.876 -2.49407 3.3282 0
M  V30 1127 H 123.453 -3.32179 1.69444 0
M  V30 1128 N 125.638 -1.25649 -0.95132 0
M  V30 1129 C 127.054 -1.02542 -1.223 0
M  V30 1130 C 127.254 0.255715 -1.99871 0
M  V30 1131 O 126.31 0.967558 -2.33226 0
M  V30 1132 C 127.623 -2.25065 -1.99415 0
M  V30 1133 C 129.171 -2.29861 -2.12446 0
M  V30 1134 C 129.646 -3.52048 -2.92961 0
M  V30 1135 N 131.137 -3.52465 -3.00538 0
M  V30 1136 C 131.872 -4.43672 -3.63239 0
M  V30 1137 N 131.368 -5.45157 -4.27523 0
M  V30 1138 N 133.161 -4.31346 -3.60412 0
M  V30 1139 H 125.312 -2.07951 -0.432471 0
M  V30 1140 H 127.575 -0.91339 -0.253816 0
M  V30 1141 H 127.281 -3.18194 -1.49817 0
M  V30 1142 H 127.155 -2.28502 -3.00111 0
M  V30 1143 H 129.542 -1.37252 -2.61239 0
M  V30 1144 H 129.623 -2.3044 -1.11044 0
M  V30 1145 H 129.267 -4.44981 -2.44856 0
M  V30 1146 H 129.197 -3.48715 -3.94596 0
M  V30 1147 H 131.688 -2.79056 -2.54826 0
M  V30 1148 H 132.001 -6.10958 -4.73234 0
M  V30 1149 H 130.346 -5.49025 -4.26141 0
M  V30 1150 H 133.537 -3.51288 -3.09377 0
M  V30 1151 H 133.71 -5.02624 -4.0899 0
M  V30 1152 N 127.117 1.15442 -1.07289 0
M  V30 1153 C 128.08 2.18358 -0.696591 0
M  V30 1154 C 129.08 1.58637 0.262837 0
M  V30 1155 O 130.27 1.74145 0.0438809 0
M  V30 1156 C 127.402 3.4089 -0.0266151 0
M  V30 1157 H 128.595 2.53162 -1.60776 0
M  V30 1158 H 126.148 1.29893 -0.869342 0
M  V30 1159 H 126.883 3.11653 0.896822 0
M  V30 1160 H 126.668 3.85495 -0.716657 0
M  V30 1161 H 128.158 4.17009 0.222028 0
M  V30 1162 N 128.595 0.856903 1.32268 0
M  V30 1163 C 129.843 0.460474 1.96784 0
M  V30 1164 C 130.164 -0.987701 1.68135 0
M  V30 1165 O 129.434 -1.69058 0.989765 0
M  V30 1166 H 128.014 0.167289 0.728027 0
M  V30 1167 H 130.676 1.09383 1.61312 0
M  V30 1168 H 129.772 0.60739 3.06133 0
M  V30 1169 N 130.073 -1.45103 0.615059 0
M  V30 1170 C 131.321 -2.01784 0.112955 0
M  V30 1171 C 131.642 -1.48504 -1.26378 0
M  V30 1172 O 130.912 -0.682245 -1.83636 0
M  V30 1173 H 129.492 -0.745993 0.0387668 0
M  V30 1174 H 132.154 -1.77808 0.798141 0
M  V30 1175 H 131.25 -3.12025 0.0684069 0
M  V30 1176 N 131.551 -0.354651 -1.53558 0
M  V30 1177 C 132.776 0.242153 -2.05981 0
M  V30 1178 C 133.201 1.42553 -1.2272 0
M  V30 1179 O 132.559 1.79656 -0.243604 0
M  V30 1180 C 132.607 0.624367 -3.55154 0
M  V30 1181 O 131.711 1.72301 -3.74681 0
M  V30 1182 H 131.052 0.0378432 -0.662921 0
M  V30 1183 H 133.582 -0.512087 -1.98088 0
M  V30 1184 H 133.592 0.898433 -3.97985 0
M  V30 1185 H 132.267 -0.240989 -4.15201 0
M  V30 1186 H 130.844 1.44535 -3.4375 0
M  V30 1187 N 133.029 1.57378 -0.0835403 0
M  V30 1188 C 134.259 1.97975 0.590713 0
M  V30 1189 C 134.667 0.961083 1.62972 0
M  V30 1190 O 134.01 -0.0590879 1.83605 0
M  V30 1191 C 134.072 3.34915 1.3066 0
M  V30 1192 C 133.736 4.55069 0.419698 0
M  V30 1193 C 134.733 5.18868 -0.32749 0
M  V30 1194 C 132.418 5.0114 0.341137 0
M  V30 1195 C 134.412 6.27098 -1.14134 0
M  V30 1196 C 132.099 6.0924 -0.476374 0
M  V30 1197 C 133.097 6.72083 -1.21627 0
M  V30 1198 O 132.785 7.781 -2.02028 0
M  V30 1199 H 132.517 0.655818 0.163947 0
M  V30 1200 H 135.071 2.04807 -0.156021 0
M  V30 1201 H 133.301 3.24733 2.09966 0
M  V30 1202 H 134.99 3.60037 1.87424 0
M  V30 1203 H 135.756 4.84211 -0.276459 0
M  V30 1204 H 131.635 4.51996 0.90668 0
M  V30 1205 H 135.179 6.7608 -1.71935 0
M  V30 1206 H 131.076 6.43329 -0.528927 0
M  V30 1207 H 131.844 7.95034 -1.94586 0
M  V30 1208 N 134.507 -0.190092 1.56449 0
M  V30 1209 C 135.755 -0.907908 1.80559 0
M  V30 1210 C 136.076 -1.83583 0.657438 0
M  V30 1211 O 135.346 -1.93203 -0.323924 0
M  V30 1212 H 133.926 -0.338247 0.666032 0
M  V30 1213 H 136.588 -0.194403 1.93928 0
M  V30 1214 H 135.684 -1.49604 2.73907 0
M  V30 1215 N 135.985 -1.50799 -0.457987 0
M  V30 1216 C 137.232 -1.62442 -1.20908 0
M  V30 1217 C 137.56 -0.330865 -1.91665 0
M  V30 1218 O 136.815 0.68401 -1.83357 0
M  V30 1219 C 137.114 -2.76358 -2.2663 0
M  V30 1220 C 136.78 -4.16378 -1.73033 0
M  V30 1221 C 135.442 -4.54473 -1.58138 0
M  V30 1222 C 137.794 -5.03836 -1.33413 0
M  V30 1223 C 135.122 -5.77754 -1.02065 0
M  V30 1224 C 137.474 -6.27676 -0.78778 0
M  V30 1225 C 136.138 -6.64562 -0.625561 0
M  V30 1226 H 135.408 -0.594417 -0.442435 0
M  V30 1227 H 138.055 -1.84772 -0.503136 0
M  V30 1228 H 136.36 -2.48167 -3.03184 0
M  V30 1229 H 138.057 -2.82568 -2.84528 0
M  V30 1230 H 134.647 -3.86331 -1.85598 0
M  V30 1231 H 138.831 -4.75026 -1.4375 0
M  V30 1232 H 134.087 -6.04997 -0.882547 0
M  V30 1233 H 138.261 -6.94797 -0.472177 0
M  V30 1234 H 135.888 -7.59965 -0.188926 0
M  V30 1235 N 137.463 0.71206 -1.40597 0
M  V30 1236 C 138.711 1.46907 -1.38791 0
M  V30 1237 C 139.032 1.94998 0.00780391 0
M  V30 1238 O 138.302 1.70587 0.963174 0
M  V30 1239 H 136.882 0.545043 -0.51082 0
M  V30 1240 H 139.544 0.843882 -1.75683 0
M  V30 1241 H 138.64 2.34021 -2.06496 0
M  V30 1242 N 138.941 1.26152 0.944643 0
M  V30 1243 C 140.189 1.11271 1.6871 0
M  V30 1244 C 140.51 -0.345166 1.91921 0
M  V30 1245 O 139.78 -1.24387 1.51343 0
M  V30 1246 H 138.36 0.408783 0.625224 0
M  V30 1247 H 141.022 1.58427 1.1352 0
M  V30 1248 H 140.118 1.62879 2.66227 0
M  V30 1249 N 140.419 -1.14872 1.07899 0
M  V30 1250 C 141.382 -2.17986 0.708161 0
M  V30 1251 C 142.382 -1.58775 -0.25442 0
M  V30 1252 O 143.572 -1.74166 -0.034645 0
M  V30 1253 C 140.704 -3.40871 0.0446929 0
M  V30 1254 H 141.897 -2.52306 1.62116 0
M  V30 1255 H 139.45 -1.2943 0.876218 0
M  V30 1256 H 140.185 -3.12124 -0.880281 0
M  V30 1257 H 139.97 -3.8511 0.737091 0
M  V30 1258 H 141.46 -4.17121 -0.19991 0
M  V30 1259 N 141.898 -0.863906 -1.31812 0
M  V30 1260 C 143.146 -0.470904 -1.96537 0
M  V30 1261 C 143.467 0.978771 -1.68657 0
M  V30 1262 O 142.737 1.6853 -0.998717 0
M  V30 1263 H 141.317 -0.171148 -0.72713 0
M  V30 1264 H 143.979 -1.10236 -1.60729 0
M  V30 1265 H 143.075 -0.623616 -3.05806 0
M  V30 1266 N 143.376 1.44774 -0.622745 0
M  V30 1267 C 144.601 2.06999 -0.128968 0
M  V30 1268 C 145.026 1.4617 1.1839 0
M  V30 1269 O 144.384 0.560007 1.72434 0
M  V30 1270 C 144.432 3.60595 -0.0188351 0
M  V30 1271 O 143.536 3.99398 1.02739 0
M  V30 1272 H 142.877 0.659047 -0.0809544 0
M  V30 1273 H 145.407 1.85784 -0.85705 0
M  V30 1274 H 145.417 4.07627 0.174476 0
M  V30 1275 H 144.092 4.04252 -0.977384 0
M  V30 1276 H 142.669 3.64011 0.809326 0
M  V30 1277 N 144.854 0.36279 1.53368 0
M  V30 1278 C 146.102 -0.227326 2.00817 0
M  V30 1279 C 146.423 -1.49511 1.25186 0
M  V30 1280 O 145.693 -1.92482 0.364348 0
M  V30 1281 H 144.273 -0.0869923 0.741917 0
M  V30 1282 H 146.935 0.488381 1.88682 0
M  V30 1283 H 146.031 -0.456273 3.08747 0
M  V30 1284 N 146.332 -1.57332 0.0918853 0
M  V30 1285 C 147.579 -1.94236 -0.572577 0
M  V30 1286 C 147.907 -0.973398 -1.6839 0
M  V30 1287 O 147.162 0.00756912 -1.95699 0
M  V30 1288 C 147.461 -3.37689 -1.17051 0
M  V30 1289 C 147.127 -4.50527 -0.183304 0
M  V30 1290 C 145.789 -4.81119 0.0882276 0
M  V30 1291 C 148.141 -5.18883 0.49095 0
M  V30 1292 C 145.469 -5.77395 1.04076 0
M  V30 1293 C 147.821 -6.1618 1.43193 0
M  V30 1294 C 146.485 -6.45179 1.71173 0
M  V30 1295 H 145.755 -0.710762 -0.209521 0
M  V30 1296 H 148.402 -1.9077 0.167036 0
M  V30 1297 H 146.707 -3.37718 -1.9863 0
M  V30 1298 H 148.404 -3.63543 -1.69227 0
M  V30 1299 H 144.994 -4.26681 -0.405124 0
M  V30 1300 H 149.178 -4.95427 0.294312 0
M  V30 1301 H 144.434 -5.98179 1.26457 0
M  V30 1302 H 148.608 -6.68243 1.96023 0
M  V30 1303 H 146.235 -7.1959 2.4514 0
M  V30 1304 N 147.81 0.181792 -1.56548 0
M  V30 1305 C 149.058 0.89832 -1.81038 0
M  V30 1306 C 149.379 1.83232 -0.667164 0
M  V30 1307 O 148.649 1.93372 0.313673 0
M  V30 1308 H 147.229 0.33471 -0.667816 0
M  V30 1309 H 149.891 0.184116 -1.94028 0
M  V30 1310 H 148.987 1.4815 -2.74696 0
M  V30 1311 N 149.288 1.51039 0.449983 0
M  V30 1312 C 150.535 1.63081 1.20045 0
M  V30 1313 C 150.863 0.341024 1.91487 0
M  V30 1314 O 150.118 -0.674276 1.83717 0
M  V30 1315 C 150.417 2.77556 2.25161 0
M  V30 1316 C 150.083 4.17289 1.70823 0
M  V30 1317 C 148.745 4.55305 1.55725 0
M  V30 1318 C 151.097 5.04536 1.3074 0
M  V30 1319 C 148.425 5.78287 0.989999 0
M  V30 1320 C 150.777 6.28085 0.754482 0
M  V30 1321 C 149.441 6.64885 0.590308 0
M  V30 1322 H 148.711 0.596755 0.439277 0
M  V30 1323 H 151.358 1.85037 0.49333 0
M  V30 1324 H 149.663 2.49771 3.01863 0
M  V30 1325 H 151.36 2.84073 2.83026 0
M  V30 1326 H 147.95 3.8731 1.83546 0
M  V30 1327 H 152.134 4.75782 1.41229 0
M  V30 1328 H 147.39 6.05456 0.850451 0
M  V30 1329 H 151.564 6.95038 0.435324 0
M  V30 1330 H 149.191 7.60055 0.14862 0
M  V30 1331 N 150.766 -0.704594 1.40972 0
M  V30 1332 C 152.014 -1.46169 1.39568 0
M  V30 1333 C 152.335 -1.95 0.00253745 0
M  V30 1334 O 151.605 -1.71095 -0.954114 0
M  V30 1335 H 150.185 -0.542326 0.513704 0
M  V30 1336 H 152.847 -0.834553 1.76128 0
M  V30 1337 H 151.943 -2.32922 2.07735 0
M  V30 1338 N 152.244 -1.26651 -0.937939 0
M  V30 1339 C 153.492 -1.12165 -1.68118 0
M  V30 1340 C 153.813 0.334983 -1.92101 0
M  V30 1341 O 153.083 1.23583 -1.52 0
M  V30 1342 H 151.663 -0.412093 -0.623048 0
M  V30 1343 H 154.325 -1.59027 -1.12678 0
M  V30 1344 H 153.421 -1.64289 -2.6536 0
M  V30 1345 N 153.722 1.14298 -1.08507 0
M  V30 1346 C 154.97 1.84993 -0.813763 0
M  V30 1347 C 155.291 1.83405 0.662393 0
M  V30 1348 O 154.561 1.28319 1.48024 0
M  V30 1349 H 153.141 0.684966 -0.298045 0
M  V30 1350 H 155.803 1.385 -1.37126 0
M  V30 1351 H 154.899 2.89788 -1.15884 0
M  V30 1352 N 155.201 0.870884 1.31352 0
M  V30 1353 C 156.164 0.332243 2.26779 0
M  V30 1354 C 157.164 -0.517302 1.52252 0
M  V30 1355 O 158.354 -0.326477 1.71113 0
M  V30 1356 C 155.486 -0.528066 3.36785 0
M  V30 1357 H 156.679 1.17469 2.75937 0
M  V30 1358 H 154.232 0.64655 1.423 0
M  V30 1359 H 154.967 -1.39167 2.92922 0
M  V30 1360 H 154.752 0.0802582 3.92018 0
M  V30 1361 H 156.242 -0.897179 4.07849 0
M  V30 1362 N 156.679 -1.44442 0.630414 0
M  V30 1363 C 157.927 -2.01653 0.134351 0
M  V30 1364 C 158.248 -1.49836 -1.24796 0
M  V30 1365 O 157.518 -0.701684 -1.82902 0
M  V30 1366 H 156.098 -0.74554 0.0466769 0
M  V30 1367 H 158.76 -1.76952 0.816955 0
M  V30 1368 H 157.856 -3.11935 0.101498 0
M  V30 1369 N 158.157 -0.370918 -1.53173 0
M  V30 1370 C 159.406 0.218249 -2.00516 0
M  V30 1371 C 159.719 1.49429 -1.26215 0
M  V30 1372 O 160.925 2.16239 -1.64174 0
M  V30 1373 C 159.381 0.43948 -3.57207 0
M  V30 1374 C 158.989 -0.822244 -4.4039 0
M  V30 1375 C 160.733 0.986012 -4.1289 0
M  V30 1376 C 158.64 -0.570304 -5.88644 0
M  V30 1377 H 157.57 0.0853333 -0.749156 0
M  V30 1378 H 160.221 -0.490483 -1.76823 0
M  V30 1379 H 158.603 1.20961 -3.77074 0
M  V30 1380 H 159.777 -1.59557 -4.32294 0
M  V30 1381 H 158.092 -1.29238 -3.95836 0
M  V30 1382 H 160.689 1.18991 -5.21292 0
M  V30 1383 H 161.032 1.94972 -3.6782 0
M  V30 1384 H 161.565 0.27592 -3.96842 0
M  V30 1385 H 158.304 -1.50449 -6.38001 0
M  V30 1386 H 157.824 0.164427 -5.99575 0
M  V30 1387 H 159.503 -0.19784 -6.46697 0
M  V30 1388 N 159.635 1.57281 -0.100228 0
M  V30 1389 C 160.883 1.94153 0.561157 0
M  V30 1390 C 161.204 0.983157 1.68401 0
M  V30 1391 O 160.474 0.0361132 1.95867 0
M  V30 1392 H 159.054 0.716791 0.210283 0
M  V30 1393 H 161.716 1.94202 -0.164765 0
M  V30 1394 H 160.812 2.96709 0.968008 0
M  V30 1395 N 161.113 -0.173488 1.56642 0
M  V30 1396 C 162.36 -0.890465 1.81871 0
M  V30 1397 C 162.688 -1.82339 0.67696 0
M  V30 1398 O 161.943 -1.92795 -0.335926 0
M  V30 1399 C 162.242 -1.72069 3.13252 0
M  V30 1400 C 161.908 -0.936878 4.41059 0
M  V30 1401 C 160.57 -0.720545 4.75775 0
M  V30 1402 C 162.922 -0.386919 5.19762 0
M  V30 1403 C 160.25 0.0568829 5.86672 0
M  V30 1404 C 162.602 0.37741 6.31473 0
M  V30 1405 C 161.266 0.604563 6.64757 0
M  V30 1406 H 160.536 -0.325844 0.665512 0
M  V30 1407 H 163.183 -0.155527 1.90867 0
M  V30 1408 H 161.488 -2.52496 2.99588 0
M  V30 1409 H 163.185 -2.27844 3.29982 0
M  V30 1410 H 159.775 -1.11553 4.13828 0
M  V30 1411 H 163.959 -0.541398 4.93338 0
M  V30 1412 H 159.215 0.242635 6.10918 0
M  V30 1413 H 163.389 0.810825 6.91664 0
M  V30 1414 H 161.016 1.20885 7.50527 0
M  V30 1415 N 162.591 -1.51276 -0.441967 0
M  V30 1416 C 163.839 -1.63392 -1.18943 0
M  V30 1417 C 164.16 -0.350159 -1.9183 0
M  V30 1418 O 163.43 0.633784 -1.85364 0
M  V30 1419 H 162.01 -0.602164 -0.442049 0
M  V30 1420 H 164.672 -1.88186 -0.507165 0
M  V30 1421 H 163.768 -2.45934 -1.92154 0
M  V30 1422 N 164.069 0.697108 -1.41344 0
M  V30 1423 C 164.999 1.82353 -1.45841 0
M  V30 1424 C 165.98 1.67115 -0.317247 0
M  V30 1425 O 167.165 1.86871 -0.528474 0
M  V30 1426 C 164.295 3.20476 -1.33838 0
M  V30 1427 C 163.249 3.50415 -2.4575 0
M  V30 1428 C 162.575 4.87878 -2.18813 0
M  V30 1429 C 163.875 3.49546 -3.88091 0
M  V30 1430 H 165.569 1.78846 -2.40113 0
M  V30 1431 H 163.115 0.859028 -1.15571 0
M  V30 1432 H 165.068 3.98988 -1.35596 0
M  V30 1433 H 163.792 3.24604 -0.360498 0
M  V30 1434 H 162.451 2.74253 -2.43271 0
M  V30 1435 H 162.099 4.8863 -1.19371 0
M  V30 1436 H 161.799 5.08875 -2.93803 0
M  V30 1437 H 163.323 5.68702 -2.22284 0
M  V30 1438 H 164.737 4.18066 -3.92293 0
M  V30 1439 H 163.134 3.82075 -4.62751 0
M  V30 1440 H 164.204 2.48552 -4.16353 0
M  V30 1441 N 165.547 1.27147 0.931209 0
M  V30 1442 C 166.795 1.13055 1.6752 0
M  V30 1443 C 167.116 -0.324791 1.92276 0
M  V30 1444 O 166.386 -1.22775 1.52654 0
M  V30 1445 H 164.966 0.415391 0.620854 0
M  V30 1446 H 167.628 1.59623 1.11833 0
M  V30 1447 H 166.724 1.65694 2.64485 0
M  V30 1448 N 167.025 -1.13721 1.09112 0
M  V30 1449 C 168.273 -1.84559 0.823562 0
M  V30 1450 C 168.594 -1.83754 -0.652658 0
M  V30 1451 O 167.864 -1.29102 -1.47342 0
M  V30 1452 H 166.444 -0.683376 0.301673 0
M  V30 1453 H 169.106 -1.37771 1.37859 0
M  V30 1454 H 168.202 -2.8917 1.17419 0
M  V30 1455 N 168.503 -0.877838 -1.30888 0
M  V30 1456 C 169.751 -0.491723 -1.96027 0
M  V30 1457 C 170.072 0.960827 -1.69685 0
M  V30 1458 O 169.342 1.67462 -1.01654 0
M  V30 1459 H 167.922 -0.17885 -0.725273 0
M  V30 1460 H 170.584 -1.11935 -1.59551 0
M  V30 1461 H 169.68 -0.656016 -3.05128 0
M  V30 1462 N 169.982 1.44106 -0.638065 0
M  V30 1463 C 170.945 2.29138 0.0531013 0
M  V30 1464 C 171.945 1.41409 0.765506 0
M  V30 1465 O 173.135 1.63206 0.609046 0
M  V30 1466 C 170.267 3.23144 1.08584 0
M  V30 1467 H 171.46 2.91739 -0.694883 0
M  V30 1468 H 169.013 1.51134 -0.398538 0
M  V30 1469 H 169.748 2.65408 1.86357 0
M  V30 1470 H 169.533 3.87804 0.578852 0
M  V30 1471 H 171.023 3.87004 1.56899 0
M  V30 1472 N 171.46 0.379036 1.52974 0
M  V30 1473 C 172.708 -0.206014 2.01047 0
M  V30 1474 C 173.029 -1.48175 1.26765 0
M  V30 1475 O 172.299 -1.92085 0.384743 0
M  V30 1476 H 170.879 -0.0791184 0.742798 0
M  V30 1477 H 173.541 0.508366 1.88153 0
M  V30 1478 H 172.637 -0.423501 3.09213 0
M  V30 1479 N 172.938 -1.57226 0.108567 0
M  V30 1480 C 173.868 -2.17778 -0.84232 0
M  V30 1481 C 174.849 -1.11487 -1.2847 0
M  V30 1482 O 176.034 -1.39681 -1.34918 0
M  V30 1483 C 173.164 -2.76888 -2.09644 0
M  V30 1484 C 172.118 -3.88669 -1.79221 0
M  V30 1485 C 171.444 -4.34541 -3.11574 0
M  V30 1486 C 172.744 -5.11251 -1.06864 0
M  V30 1487 H 174.438 -2.97489 -0.337774 0
M  V30 1488 H 171.984 -1.43097 -0.161025 0
M  V30 1489 H 173.937 -3.17904 -2.76614 0
M  V30 1490 H 172.661 -1.94451 -2.62405 0
M  V30 1491 H 171.32 -3.48213 -1.14644 0
M  V30 1492 H 170.968 -3.48977 -3.62249 0
M  V30 1493 H 170.668 -5.09914 -2.91996 0
M  V30 1494 H 172.192 -4.782 -3.7968 0
M  V30 1495 H 173.606 -5.49352 -1.63968 0
M  V30 1496 H 172.003 -5.9214 -0.974178 0
M  V30 1497 H 173.073 -4.8487 -0.0536168 0
M  V30 1498 N 174.416 0.165178 -1.56732 0
M  V30 1499 C 175.379 1.18822 -1.95995 0
M  V30 1500 C 176.379 1.3685 -0.84431 0
M  V30 1501 O 177.569 1.34152 -1.11126 0
M  V30 1502 C 174.701 2.5521 -2.26011 0
M  V30 1503 H 175.894 0.851825 -2.87548 0
M  V30 1504 H 173.447 0.407857 -1.50885 0
M  V30 1505 H 174.182 2.93852 -1.37191 0
M  V30 1506 H 173.967 2.43489 -3.07336 0
M  V30 1507 H 175.457 3.28927 -2.57288 0
M  V30 1508 N 175.894 1.51508 0.433938 0
M  V30 1509 C 177.142 1.6402 1.18075 0
M  V30 1510 C 177.463 0.360328 1.91642 0
M  V30 1511 O 176.733 -0.623945 1.85698 0
M  V30 1512 H 175.313 0.6045 0.43885 0
M  V30 1513 H 177.975 1.88452 0.497178 0
M  V30 1514 H 177.071 2.46949 1.90847 0
M  V30 1515 N 177.372 -0.689602 1.41712 0
M  V30 1516 C 178.62 -1.4468 1.4111 0
M  V30 1517 C 178.941 -1.94986 0.0232196 0
M  V30 1518 O 178.211 -1.72097 -0.935913 0
M  V30 1519 H 176.791 -0.536847 0.519427 0
M  V30 1520 H 179.453 -0.815825 1.77004 0
M  V30 1521 H 178.549 -2.30706 2.10193 0
M  V30 1522 N 178.85 -1.27639 -0.924453 0
M  V30 1523 C 180.097 -1.14167 -1.67249 0
M  V30 1524 C 180.425 0.311863 -1.91984 0
M  V30 1525 O 179.68 1.24425 -1.51053 0
M  V30 1526 C 179.979 -1.87407 -3.04325 0
M  V30 1527 C 179.645 -3.37249 -2.99289 0
M  V30 1528 C 178.307 -3.7812 -2.97622 0
M  V30 1529 C 180.659 -4.32845 -2.90336 0
M  V30 1530 C 177.987 -5.12944 -2.8479 0
M  V30 1531 C 180.339 -5.6773 -2.79045 0
M  V30 1532 C 179.003 -6.07889 -2.7573 0
M  V30 1533 H 178.273 -0.417766 -0.612007 0
M  V30 1534 H 180.92 -1.58286 -1.07786 0
M  V30 1535 H 179.225 -1.35805 -3.67511 0
M  V30 1536 H 180.922 -1.74408 -3.61086 0
M  V30 1537 H 177.512 -3.04748 -3.01374 0
M  V30 1538 H 181.696 -4.02239 -2.90719 0
M  V30 1539 H 176.952 -5.432 -2.80612 0
M  V30 1540 H 181.126 -6.41472 -2.71083 0
M  V30 1541 H 178.753 -7.12314 -2.65544 0
M  V30 1542 N 180.328 1.1314 -1.09713 0
M  V30 1543 C 181.576 1.84119 -0.833338 0
M  V30 1544 C 181.897 1.84097 0.642904 0
M  V30 1545 O 181.167 1.29881 1.46655 0
M  V30 1546 H 179.747 0.681766 -0.305293 0
M  V30 1547 H 182.409 1.37038 -1.38588 0
M  V30 1548 H 181.505 2.88543 -1.18951 0
M  V30 1549 N 181.806 0.884767 1.30421 0
M  V30 1550 C 183.054 0.502112 1.95763 0
M  V30 1551 C 183.375 -0.951815 1.70192 0
M  V30 1552 O 182.645 -1.6692 1.0254 0
M  V30 1553 H 181.225 0.182694 0.724315 0
M  V30 1554 H 183.887 1.1278 1.58955 0
M  V30 1555 H 182.983 0.672188 3.04775 0
M  V30 1556 N 183.284 -1.43765 0.645699 0
M  V30 1557 C 184.695 -1.85193 0.236719 0
M  V30 1558 C 185.046 -1.54045 -1.21509 0
M  V30 1559 O 184.171 -0.985694 -1.92647 0
M  V30 1560 C 184.766 -3.36151 0.422845 0
M  V30 1561 C 183.325 -3.76338 0.0682492 0
M  V30 1562 C 182.472 -2.67538 0.729306 0
M  V30 1563 H 185.423 -1.34025 0.849883 0
M  V30 1564 H 185.444 -3.79032 -0.333904 0
M  V30 1565 H 184.956 -3.5879 1.47958 0
M  V30 1566 H 183.057 -3.59312 -0.986179 0
M  V30 1567 H 183.17 -4.76603 0.488469 0
M  V30 1568 H 181.534 -2.54176 0.163235 0
M  V30 1569 H 182.317 -2.93006 1.78892 0
M  V30 1570 N 184.763 -0.387143 -1.52771 0
M  V30 1571 C 186.011 0.195349 -2.01154 0
M  V30 1572 C 186.332 1.475 -1.27549 0
M  V30 1573 O 185.602 1.91878 -0.394924 0
M  V30 1574 H 184.182 0.075178 -0.743207 0
M  V30 1575 H 186.844 -0.518337 -1.87881 0
M  V30 1576 H 185.94 0.407096 -3.09434 0
M  V30 1577 N 186.241 1.57166 -0.116904 0
M  V30 1578 C 187.488 1.95123 0.541603 0
M  V30 1579 C 187.816 1.00006 1.6682 0
M  V30 1580 O 187.071 0.0235658 1.95686 0
M  V30 1581 C 187.37 3.39508 1.11664 0
M  V30 1582 C 187.036 4.50762 0.111606 0
M  V30 1583 C 185.698 4.80918 -0.164758 0
M  V30 1584 C 188.05 5.18036 -0.573438 0
M  V30 1585 C 185.378 5.75666 -1.13249 0
M  V30 1586 C 187.73 6.13824 -1.52978 0
M  V30 1587 C 186.394 6.42374 -1.81415 0
M  V30 1588 H 185.664 0.714005 0.198187 0
M  V30 1589 H 188.311 1.9048 -0.197365 0
M  V30 1590 H 186.616 3.40835 1.93232 0
M  V30 1591 H 188.313 3.66189 1.63422 0
M  V30 1592 H 184.903 4.27272 0.337192 0
M  V30 1593 H 189.087 4.94896 -0.373092 0
M  V30 1594 H 184.343 5.96092 -1.35958 0
M  V30 1595 H 188.517 6.65039 -2.06629 0
M  V30 1596 H 186.144 7.15599 -2.56557 0
M  V30 1597 N 187.719 -0.156864 1.56817 0
M  V30 1598 C 189.13 -0.717916 1.72345 0
M  V30 1599 C 189.481 -1.82124 0.729747 0
M  V30 1600 O 188.606 -2.16141 -0.105781 0
M  V30 1601 C 189.201 -1.30904 3.12489 0
M  V30 1602 C 187.76 -1.81676 3.29653 0
M  V30 1603 C 186.907 -0.701349 2.68284 0
M  V30 1604 H 189.858 0.0686989 1.58551 0
M  V30 1605 H 189.879 -2.17882 3.11942 0
M  V30 1606 H 189.391 -0.505796 3.8479 0
M  V30 1607 H 187.492 -2.64598 2.62333 0
M  V30 1608 H 187.605 -1.95226 4.3752 0
M  V30 1609 H 185.969 -1.12548 2.28484 0
M  V30 1610 H 186.752 0.0902846 3.43181 0
M  V30 1611 N 189.197 -1.51736 -0.425897 0
M  V30 1612 C 190.443 -1.65214 -1.1761 0
M  V30 1613 C 190.776 -0.372778 -1.90589 0
M  V30 1614 O 190.051 0.628139 -1.84078 0
M  V30 1615 C 190.334 -2.86312 -2.18398 0
M  V30 1616 C 190.187 -4.24254 -1.49426 0
M  V30 1617 C 191.506 -3.02925 -3.19256 0
M  V30 1618 H 188.625 -0.601263 -0.426206 0
M  V30 1619 H 191.267 -1.8425 -0.463882 0
M  V30 1620 H 189.417 -2.70213 -2.79137 0
M  V30 1621 H 191.089 -4.52046 -0.919362 0
M  V30 1622 H 189.332 -4.26426 -0.796432 0
M  V30 1623 H 190.003 -5.05001 -2.22885 0
M  V30 1624 H 192.479 -3.1781 -2.68581 0
M  V30 1625 H 191.355 -3.89199 -3.8706 0
M  V30 1626 H 191.616 -2.15497 -3.86023 0
M  V30 1627 N 190.675 0.682077 -1.42076 0
M  V30 1628 C 191.915 1.45424 -1.43636 0
M  V30 1629 C 192.279 1.91939 -0.0484001 0
M  V30 1630 O 193.48 2.6873 0.0612514 0
M  V30 1631 C 191.751 2.62427 -2.42625 0
M  V30 1632 S 193.31 3.51379 -2.62827 0
M  V30 1633 H 190.128 0.496779 -0.508657 0
M  V30 1634 H 192.73 0.794645 -1.78621 0
M  V30 1635 H 191.434 2.26481 -3.42249 0
M  V30 1636 H 190.965 3.33266 -2.09039 0
M  V30 1637 H 192.98 4.58141 -1.9058 0
M  V30 1638 N 192.153 1.28127 0.917671 0
M  V30 1639 C 193.564 1.13622 1.48145 0
M  V30 1640 C 193.915 -0.275207 1.9426 0
M  V30 1641 O 193.04 -1.1691 1.82102 0
M  V30 1642 C 193.635 2.05648 2.69248 0
M  V30 1643 C 192.194 1.95219 3.21818 0
M  V30 1644 C 191.341 1.97618 1.94532 0
M  V30 1645 H 194.292 1.40874 0.730772 0
M  V30 1646 H 194.313 1.61818 3.44377 0
M  V30 1647 H 193.825 3.08365 2.35653 0
M  V30 1648 H 191.926 0.955244 3.60147 0
M  V30 1649 H 192.039 2.81976 3.87333 0
M  V30 1650 H 190.403 1.41973 2.11461 0
M  V30 1651 H 191.186 3.02007 1.63238 0
M  V30 1652 N 193.631 -1.12557 1.10312 0
M  V30 1653 C 195.042 -1.65574 0.862678 0
M  V30 1654 C 195.393 -1.86566 -0.607256 0
M  V30 1655 O 194.518 -1.59121 -1.46662 0
M  V30 1656 C 195.113 -3.00776 1.55947 0
M  V30 1657 C 193.672 -3.50748 1.36576 0
M  V30 1658 C 192.819 -2.25797 1.60968 0
M  V30 1659 H 195.77 -0.963552 1.26101 0
M  V30 1660 H 195.791 -3.67185 0.997753 0
M  V30 1661 H 195.303 -2.85465 2.62928 0
M  V30 1662 H 193.404 -3.71245 0.317531 0
M  V30 1663 H 193.517 -4.30289 2.10686 0
M  V30 1664 H 191.881 -2.32841 1.03234 0
M  V30 1665 H 192.664 -2.13043 2.69198 0
M  V30 1666 N 195.109 -0.891671 -1.2995 0
M  V30 1667 C 196.357 -0.512486 -1.95494 0
M  V30 1668 C 196.678 0.942776 -1.70695 0
M  V30 1669 O 195.948 1.66374 -1.03424 0
M  V30 1670 H 194.528 -0.186533 -0.723336 0
M  V30 1671 H 197.19 -1.13621 -1.58355 0
M  V30 1672 H 196.286 -0.688342 -3.04415 0
M  V30 1673 N 196.587 1.43421 -0.653314 0
M  V30 1674 C 197.835 2.01414 -0.166415 0
M  V30 1675 C 198.156 1.51803 1.22397 0
M  V30 1676 O 197.426 0.730693 1.81763 0
M  V30 1677 H 196.006 0.744703 -0.0585319 0
M  V30 1678 H 198.668 1.75629 -0.845003 0
M  V30 1679 H 197.764 3.11734 -0.151111 0
M  V30 1680 N 198.065 0.39524 1.52563 0
M  V30 1681 C 199.314 -0.186321 2.00838 0
M  V30 1682 C 199.627 -1.47402 1.28577 0
M  V30 1683 O 200.833 -2.13599 1.67593 0
M  V30 1684 C 199.289 -0.382595 3.57861 0
M  V30 1685 C 198.897 0.892202 4.39026 0
M  V30 1686 C 200.641 -0.9202 4.14406 0
M  V30 1687 C 198.548 0.66388 5.87662 0
M  V30 1688 H 197.478 -0.0734041 0.750418 0
M  V30 1689 H 200.129 0.518552 1.76021 0
M  V30 1690 H 198.511 -1.14946 3.7895 0
M  V30 1691 H 199.685 1.66414 4.29701 0
M  V30 1692 H 198 1.35519 3.9373 0
M  V30 1693 H 200.597 -1.10683 5.23119 0
M  V30 1694 H 200.94 -1.89096 3.70875 0
M  V30 1695 H 201.473 -0.212751 3.97231 0
M  V30 1696 H 198.212 1.6058 6.35527 0
M  V30 1697 H 197.732 -0.0690193 5.9976 0
M  V30 1698 H 199.411 0.300699 6.46301 0
M  V30 1699 N 199.544 -1.57102 0.125237 0
M  V30 1700 C 200.476 -2.12726 -0.853237 0
M  V30 1701 C 201.489 -1.07145 -1.22571 0
M  V30 1702 O 202.678 -1.34497 -1.17358 0
M  V30 1703 C 199.778 -2.61709 -2.15317 0
M  V30 1704 C 198.951 -3.91456 -1.95143 0
M  V30 1705 C 198.01 -4.25973 -3.08923 0
M  V30 1706 O 197.036 -4.94682 -2.81564 0
M  V30 1707 N 198.238 -3.83795 -4.35524 0
M  V30 1708 H 201.003 -2.97307 -0.377964 0
M  V30 1709 H 198.564 -1.61792 -0.0590011 0
M  V30 1710 H 200.556 -2.81826 -2.90441 0
M  V30 1711 H 199.126 -1.81974 -2.54174 0
M  V30 1712 H 198.346 -3.80185 -1.04177 0
M  V30 1713 H 199.634 -4.76283 -1.78976 0
M  V30 1714 H 199.032 -3.2839 -4.60626 0
M  V30 1715 H 197.589 -4.09008 -5.07499 0
M  V30 1716 N 201.022 0.148545 -1.56898 0
M  V30 1717 C 201.932 1.20293 -2.01412 0
M  V30 1718 C 202.948 1.47107 -0.929273 0
M  V30 1719 O 204.124 1.58807 -1.23863 0
M  V30 1720 C 201.189 2.51682 -2.38447 0
M  V30 1721 C 200.25 2.32529 -3.60872 0
M  V30 1722 C 199.483 3.57653 -3.96132 0
M  V30 1723 O 199.706 4.63771 -3.32073 0
M  V30 1724 O 198.64 3.50408 -4.89385 0
M  V30 1725 H 202.466 0.855025 -2.91416 0
M  V30 1726 H 200.051 0.357151 -1.45068 0
M  V30 1727 H 201.933 3.29147 -2.63135 0
M  V30 1728 H 200.608 2.86006 -1.51599 0
M  V30 1729 H 199.515 1.53019 -3.41373 0
M  V30 1730 H 200.848 2.03121 -4.48333 0
M  V30 1731 N 202.5 1.5196 0.417844 0
M  V30 1732 C 203.746 1.65836 1.16732 0
M  V30 1733 C 204.079 0.382881 1.90388 0
M  V30 1734 O 203.354 -0.618368 1.84408 0
M  V30 1735 C 203.637 2.87466 2.16876 0
M  V30 1736 C 203.49 4.25041 1.47174 0
M  V30 1737 C 204.809 3.04613 3.17646 0
M  V30 1738 H 201.928 0.603515 0.423011 0
M  V30 1739 H 204.57 1.84494 0.454105 0
M  V30 1740 H 202.72 2.71689 2.777 0
M  V30 1741 H 204.392 4.52527 0.895376 0
M  V30 1742 H 202.635 4.26843 0.773806 0
M  V30 1743 H 203.306 5.06176 2.20204 0
M  V30 1744 H 205.782 3.1923 2.66892 0
M  V30 1745 H 204.658 3.91247 3.8499 0
M  V30 1746 H 204.919 2.17541 3.84874 0
M  V30 1747 N 203.978 -0.674533 1.42435 0
M  V30 1748 C 205.206 -1.46283 1.46317 0
M  V30 1749 C 205.621 -1.88653 0.0745836 0
M  V30 1750 O 204.978 -1.58151 -0.91074 0
M  V30 1751 C 205.029 -2.71178 2.3905 0
M  V30 1752 O 204.75 -2.30586 3.72507 0
M  V30 1753 C 206.251 -3.64738 2.51955 0
M  V30 1754 H 203.471 -0.450104 0.497642 0
M  V30 1755 H 206.015 -0.828792 1.86953 0
M  V30 1756 H 204.17 -3.3077 2.01667 0
M  V30 1757 H 204.584 -3.11241 4.22172 0
M  V30 1758 H 206.058 -4.49096 3.20962 0
M  V30 1759 H 206.535 -4.10656 1.55752 0
M  V30 1760 H 207.141 -3.11038 2.90061 0
M  V30 1761 N 205.456 -1.28612 -0.910864 0
M  V30 1762 C 206.702 -1.16106 -1.66274 0
M  V30 1763 C 207.035 0.289113 -1.92036 0
M  V30 1764 O 206.31 1.21 -1.52281 0
M  V30 1765 C 206.593 -1.96309 -3.01885 0
M  V30 1766 C 206.446 -3.49405 -2.8326 0
M  V30 1767 C 207.765 -1.78076 -4.02463 0
M  V30 1768 H 204.884 -0.423152 -0.603417 0
M  V30 1769 H 207.526 -1.57961 -1.05586 0
M  V30 1770 H 205.676 -1.60742 -3.53687 0
M  V30 1771 H 207.348 -3.94894 -2.38446 0
M  V30 1772 H 205.591 -3.74893 -2.18261 0
M  V30 1773 H 206.262 -4.00784 -3.79574 0
M  V30 1774 H 208.738 -2.0912 -3.59733 0
M  V30 1775 H 207.614 -2.36561 -4.95308 0
M  V30 1776 H 207.875 -0.733008 -4.35981 0
M  V30 1777 N 206.934 1.1197 -1.10907 0
M  V30 1778 C 207.882 2.19927 -0.757303 0
M  V30 1779 C 208.876 1.67564 0.248747 0
M  V30 1780 O 210.082 1.79672 0.108605 0
M  V30 1781 H 206.457 0.716925 -0.226987 0
M  V30 1782 H 208.428 2.46847 -1.67658 0
M  V30 1783 C 207.177 3.47061 -0.210671 0
M  V30 1784 H 206.5 3.87703 -0.976049 0
M  V30 1785 H 207.94 4.24 -0.0026584 0
M  V30 1786 C 206.399 3.19864 1.05777 0
M  V30 1787 O 206.929 3.40049 2.13845 0
M  V30 1788 N 205.135 2.73636 0.978349 0
M  V30 1789 H 204.682 2.5741 0.0988246 0
M  V30 1790 H 204.64 2.55815 1.82773 0
M  V30 1791 N 208.412 0.89855 1.29475 0
M  V30 1792 C 209.344 0.332726 2.26772 0
M  V30 1793 C 210.357 -0.520323 1.54261 0
M  V30 1794 O 211.546 -0.337668 1.75277 0
M  V30 1795 C 208.646 -0.544334 3.345 0
M  V30 1796 C 207.819 0.282728 4.36485 0
M  V30 1797 C 206.878 -0.526982 5.23555 0
M  V30 1798 O 205.904 0.0551165 5.69173 0
M  V30 1799 N 207.106 -1.83331 5.5079 0
M  V30 1800 H 209.871 1.16897 2.75962 0
M  V30 1801 H 207.432 0.762919 1.42798 0
M  V30 1802 H 209.424 -1.09239 3.89678 0
M  V30 1803 H 207.994 -1.28127 2.85136 0
M  V30 1804 H 207.214 1.01221 3.80983 0
M  V30 1805 H 208.502 0.84918 5.01664 0
M  V30 1806 H 207.9 -2.32898 5.15534 0
M  V30 1807 H 206.457 -2.32852 6.08788 0
M  V30 1808 N 209.89 -1.43072 0.660911 0
M  V30 1809 C 211.115 -2.06584 0.183805 0
M  V30 1810 C 211.54 -1.49257 -1.14472 0
M  V30 1811 O 210.898 -0.605528 -1.70889 0
M  V30 1812 C 210.946 -3.60418 0.114434 0
M  V30 1813 O 210.05 -4.01981 -0.921137 0
M  V30 1814 H 209.391 -0.656669 0.0983994 0
M  V30 1815 H 211.921 -1.83447 0.906006 0
M  V30 1816 H 211.931 -4.07946 -0.0663394 0
M  V30 1817 H 210.606 -4.01519 1.08422 0
M  V30 1818 H 209.183 -3.66029 -0.71253 0
M  V30 1819 N 211.368 -0.403325 -1.52352 0
M  V30 1820 C 212.298 0.416205 -2.29761 0
M  V30 1821 C 213.279 1.05123 -1.33728 0
M  V30 1822 O 214.464 1.06134 -1.62632 0
M  V30 1823 C 211.594 1.53624 -3.11475 0
M  V30 1824 C 210.548 1.02653 -4.15507 0
M  V30 1825 C 209.874 2.23971 -4.85532 0
M  V30 1826 C 211.174 0.08463 -5.22231 0
M  V30 1827 H 212.868 -0.229701 -2.98518 0
M  V30 1828 H 210.414 -0.111913 -1.43564 0
M  V30 1829 H 212.367 2.1165 -3.64393 0
M  V30 1830 H 211.091 2.20994 -2.40477 0
M  V30 1831 H 209.75 0.46871 -3.63591 0
M  V30 1832 H 209.398 2.89883 -4.11068 0
M  V30 1833 H 209.098 1.90521 -5.55856 0
M  V30 1834 H 210.622 2.82614 -5.41259 0
M  V30 1835 H 212.036 0.573509 -5.70424 0
M  V30 1836 H 210.433 -0.160783 -5.99885 0
M  V30 1837 H 211.503 -0.86237 -4.7717 0
M  V30 1838 N 212.846 1.57033 -0.133567 0
M  V30 1839 C 213.776 2.1909 0.807567 0
M  V30 1840 C 214.757 1.13517 1.26681 0
M  V30 1841 O 215.942 1.41809 1.32679 0
M  V30 1842 C 213.072 2.80188 2.05212 0
M  V30 1843 C 212.026 3.91471 1.73015 0
M  V30 1844 C 211.352 4.39443 3.04622 0
M  V30 1845 C 212.652 5.12886 0.987168 0
M  V30 1846 H 214.346 2.97988 0.290403 0
M  V30 1847 H 211.892 1.43335 0.138239 0
M  V30 1848 H 213.845 3.22264 2.71521 0
M  V30 1849 H 212.569 1.98601 2.59278 0
M  V30 1850 H 211.228 3.49993 1.0909 0
M  V30 1851 H 210.876 3.54695 3.56651 0
M  V30 1852 H 210.576 5.14495 2.83847 0
M  V30 1853 H 212.1 4.8418 3.72024 0
M  V30 1854 H 213.514 5.51891 1.55208 0
M  V30 1855 H 211.911 5.93615 0.87985 0
M  V30 1856 H 212.981 4.84894 -0.0235286 0
M  V30 1857 N 214.325 -0.140222 1.56975 0
M  V30 1858 C 215.553 -0.866437 1.87884 0
M  V30 1859 C 215.968 -1.74428 0.722517 0
M  V30 1860 O 215.325 -1.79891 -0.30749 0
M  V30 1861 C 215.376 -1.71753 3.18093 0
M  V30 1862 O 215.097 -0.875056 4.29272 0
M  V30 1863 C 216.598 -2.55074 3.62563 0
M  V30 1864 H 213.818 -0.25019 0.622612 0
M  V30 1865 H 216.362 -0.130977 2.0408 0
M  V30 1866 H 214.517 -2.40598 3.03631 0
M  V30 1867 H 214.931 -1.46002 5.03769 0
M  V30 1868 H 216.405 -3.10356 4.5649 0
M  V30 1869 H 216.882 -3.31434 2.88181 0
M  V30 1870 H 217.488 -1.91509 3.79743 0
M  V30 1871 N 215.803 -1.52179 -0.40978 0
M  V30 1872 C 217.214 -1.58377 -0.988615 0
M  V30 1873 C 217.565 -0.423879 -1.91566 0
M  V30 1874 O 216.69 0.455844 -2.11544 0
M  V30 1875 C 217.285 -2.87044 -1.79976 0
M  V30 1876 C 215.844 -2.95722 -2.32863 0
M  V30 1877 C 214.991 -2.53309 -1.12828 0
M  V30 1878 H 217.942 -1.57558 -0.190039 0
M  V30 1879 H 217.963 -2.7236 -2.65707 0
M  V30 1880 H 217.475 -3.71444 -1.12478 0
M  V30 1881 H 215.576 -2.15814 -3.03735 0
M  V30 1882 H 215.689 -3.99951 -2.63773 0
M  V30 1883 H 214.053 -2.07142 -1.48204 0
M  V30 1884 H 214.836 -3.40082 -0.46897 0
M  V30 1885 N 217.281 0.66697 -1.42791 0
M  V30 1886 C 218.211 1.79218 -1.49677 0
M  V30 1887 C 219.192 1.66405 -0.352623 0
M  V30 1888 O 220.377 1.85708 -0.567993 0
M  V30 1889 C 217.507 3.17565 -1.40605 0
M  V30 1890 C 216.461 3.45124 -2.53127 0
M  V30 1891 C 215.787 4.83127 -2.29112 0
M  V30 1892 C 217.087 3.41236 -3.95418 0
M  V30 1893 H 218.781 1.73713 -2.43853 0
M  V30 1894 H 216.327 0.83432 -1.17367 0
M  V30 1895 H 218.28 3.96022 -1.44029 0
M  V30 1896 H 217.004 3.23767 -0.429271 0
M  V30 1897 H 215.663 2.69031 -2.49034 0
M  V30 1898 H 215.311 4.85988 -1.29709 0
M  V30 1899 H 215.011 5.02528 -3.04531 0
M  V30 1900 H 216.535 5.63859 -2.34297 0
M  V30 1901 H 217.949 4.09651 -4.01073 0
M  V30 1902 H 216.346 3.72173 -4.70752 0
M  V30 1903 H 217.416 2.39665 -4.21532 0
M  V30 1904 N 218.759 1.29093 0.90403 0
M  V30 1905 C 219.707 1.13727 2.02901 0
M  V30 1906 C 220.701 0.0539853 1.69314 0
M  V30 1907 O 221.907 0.213469 1.7873 0
M  V30 1908 H 218.282 0.35117 0.664969 0
M  V30 1909 H 220.253 2.08982 2.13001 0
M  V30 1910 C 219.002 0.826066 3.37745 0
M  V30 1911 H 218.325 1.65164 3.64089 0
M  V30 1912 H 219.765 0.758559 4.17159 0
M  V30 1913 C 218.224 -0.470541 3.33598 0
M  V30 1914 O 218.754 -1.49792 3.72727 0
M  V30 1915 N 216.96 -0.474812 2.86695 0
M  V30 1916 H 216.507 0.361692 2.55048 0
M  V30 1917 H 216.465 -1.34236 2.84303 0
M  V30 1918 N 220.237 -1.11381 1.11499 0
M  V30 1919 C 221.167 -2.19509 0.796125 0
M  V30 1920 C 222.148 -1.68458 -0.235796 0
M  V30 1921 O 223.333 -1.93947 -0.0991344 0
M  V30 1922 C 220.463 -3.46475 0.239205 0
M  V30 1923 C 219.417 -4.10744 1.20307 0
M  V30 1924 C 218.743 -5.32293 0.50683 0
M  V30 1925 C 220.043 -4.55597 2.55399 0
M  V30 1926 H 221.737 -2.46439 1.70024 0
M  V30 1927 H 219.283 -1.18446 0.818935 0
M  V30 1928 H 221.236 -4.214 0.00392006 0
M  V30 1929 H 219.96 -3.19006 -0.700206 0
M  V30 1930 H 218.619 -3.37813 1.42399 0
M  V30 1931 H 218.267 -5.01095 -0.437408 0
M  V30 1932 H 217.967 -5.76243 1.1497 0
M  V30 1933 H 219.491 -6.09956 0.280351 0
M  V30 1934 H 220.905 -5.21841 2.37391 0
M  V30 1935 H 219.302 -5.10363 3.15673 0
M  V30 1936 H 220.372 -3.69013 3.14575 0
M  V30 1937 N 221.715 -0.905404 -1.28997 0
M  V30 1938 C 222.647 -0.344748 -2.26592 0
M  V30 1939 C 223.66 0.512135 -1.54535 0
M  V30 1940 O 224.849 0.328368 -1.75454 0
M  V30 1941 C 221.949 0.526587 -3.34784 0
M  V30 1942 C 221.122 -0.305871 -4.36329 0
M  V30 1943 C 220.181 0.499209 -5.23827 0
M  V30 1944 O 219.207 -0.0853004 -5.69136 0
M  V30 1945 N 220.409 1.80408 -5.51755 0
M  V30 1946 H 223.174 -1.18359 -2.75338 0
M  V30 1947 H 220.735 -0.770481 -1.42391 0
M  V30 1948 H 222.727 1.07171 -3.90252 0
M  V30 1949 H 221.297 1.26613 -2.85811 0
M  V30 1950 H 220.517 -1.0324 -3.80441 0
M  V30 1951 H 221.805 -0.875773 -5.01206 0
M  V30 1952 H 221.203 2.3016 -5.16762 0
M  V30 1953 H 219.76 2.29621 -6.10014 0
M  V30 1954 N 223.193 1.4272 -0.668489 0
M  V30 1955 C 224.442 2.00846 -0.185389 0
M  V30 1956 C 224.755 1.53442 1.21305 0
M  V30 1957 O 225.961 2.03944 1.79218 0
M  V30 1958 C 224.417 3.58805 -0.280591 0
M  V30 1959 C 224.025 4.15198 -1.68268 0
M  V30 1960 C 225.769 4.24255 0.14412 0
M  V30 1961 C 223.676 5.655 -1.73099 0
M  V30 1962 H 222.606 0.751145 -0.0655475 0
M  V30 1963 H 225.257 1.63516 -0.832752 0
M  V30 1964 H 223.639 3.93608 0.434553 0
M  V30 1965 H 224.813 3.91866 -2.42441 0
M  V30 1966 H 223.128 3.62176 -2.05469 0
M  V30 1967 H 225.725 5.34547 0.128086 0
M  V30 1968 H 226.068 3.99277 1.17827 0
M  V30 1969 H 226.601 3.94389 -0.519798 0
M  V30 1970 H 223.34 5.95268 -2.74475 0
M  V30 1971 H 222.86 5.90842 -1.03274 0
M  V30 1972 H 224.539 6.29808 -1.48158 0
M  V30 1973 N 224.671 0.411399 1.52136 0
M  V30 1974 C 225.948 -0.222308 1.94333 0
M  V30 1975 C 226.328 -1.6242 1.34844 0
M  V30 1976 O 225.676 -2.22384 0.525145 0
M  V30 1977 C 225.886 -0.226345 3.48265 0
M  V30 1978 C 227.234 -0.444592 4.22266 0
M  V30 1979 O 228.258 -0.305602 3.54887 0
M  V30 1980 O 227.117 -0.718749 5.41753 0
M  V30 1981 H 224.211 -0.143907 0.814383 0
M  V30 1982 H 226.757 0.467506 1.63133 0
M  V30 1983 H 225.529 0.75475 3.83952 0
M  V30 1984 H 225.152 -0.960163 3.85832 0
M  V30 1985 N 226.149 -1.5696 0.141893 0
M  V30 1986 C 227.56 -1.82797 -0.379776 0
M  V30 1987 C 227.911 -1.06033 -1.6508 0
M  V30 1988 O 227.036 -0.304011 -2.14254 0
M  V30 1989 C 227.631 -3.31578 -0.695802 0
M  V30 1990 C 226.19 -3.58014 -1.16201 0
M  V30 1991 C 225.337 -2.76699 -0.182455 0
M  V30 1992 H 228.288 -1.54406 0.366675 0
M  V30 1993 H 228.309 -3.47454 -1.55099 0
M  V30 1994 H 227.821 -3.87421 0.229449 0
M  V30 1995 H 225.922 -3.07553 -2.10338 0
M  V30 1996 H 226.035 -4.66501 -1.09151 0
M  V30 1997 H 224.399 -2.45618 -0.674072 0
M  V30 1998 H 225.182 -3.35311 0.736297 0
M  V30 1999 N 227.627 0.131896 -1.57047 0
M  V30 2000 C 228.855 0.856461 -1.88341 0
M  V30 2001 C 229.27 1.74042 -0.731757 0
M  V30 2002 O 228.627 1.80051 0.297945 0
M  V30 2003 C 228.678 1.70064 -3.18999 0
M  V30 2004 O 228.399 0.852278 -4.2973 0
M  V30 2005 C 229.9 2.53148 -3.63911 0
M  V30 2006 H 227.12 0.246885 -0.62393 0
M  V30 2007 H 229.664 0.120152 -2.04147 0
M  V30 2008 H 227.819 2.38984 -3.04902 0
M  V30 2009 H 228.233 1.43329 -5.04537 0
M  V30 2010 H 229.707 3.07931 -4.58129 0
M  V30 2011 H 230.184 3.29901 -2.89935 0
M  V30 2012 H 230.79 1.89492 -3.80753 0
M  V30 2013 N 229.106 1.52395 0.401703 0
M  V30 2014 C 230.355 1.66044 1.14509 0
M  V30 2015 C 230.668 0.400216 1.91462 0
M  V30 2016 O 231.874 0.416632 2.68284 0
M  V30 2017 C 230.33 2.93388 2.0845 0
M  V30 2018 C 229.938 4.26545 1.36978 0
M  V30 2019 C 231.682 3.16402 2.83001 0
M  V30 2020 C 229.589 5.45007 2.29611 0
M  V30 2021 H 228.519 0.618562 0.431158 0
M  V30 2022 H 231.17 1.78886 0.40892 0
M  V30 2023 H 229.552 2.74263 2.8565 0
M  V30 2024 H 230.726 4.56179 0.650916 0
M  V30 2025 H 229.041 4.09692 0.74438 0
M  V30 2026 H 231.638 4.02085 3.52465 0
M  V30 2027 H 231.981 2.30943 3.46368 0
M  V30 2028 H 232.514 3.36034 2.12898 0
M  V30 2029 H 229.253 6.32835 1.70879 0
M  V30 2030 H 228.773 5.19702 2.9945 0
M  V30 2031 H 230.452 5.7838 2.89974 0
M  V30 2032 N 230.584 -0.659388 1.43143 0
M  V30 2033 C 231.516 -1.7849 1.43784 0
M  V30 2034 C 232.529 -1.5932 0.334787 0
M  V30 2035 O 233.718 -1.68155 0.598842 0
M  V30 2036 C 230.818 -3.15828 1.22906 0
M  V30 2037 C 229.991 -3.61711 2.45934 0
M  V30 2038 C 229.05 -4.77831 2.20371 0
M  V30 2039 O 228.076 -4.87586 2.93681 0
M  V30 2040 N 229.278 -5.67611 1.21647 0
M  V30 2041 H 232.043 -1.7842 2.40803 0
M  V30 2042 H 229.604 -0.84302 1.3822 0
M  V30 2043 H 231.596 -3.91189 1.03697 0
M  V30 2044 H 230.166 -3.10707 0.343542 0
M  V30 2045 H 229.386 -2.76861 2.80609 0
M  V30 2046 H 230.674 -3.89112 3.27825 0
M  V30 2047 H 230.072 -5.62397 0.610449 0
M  V30 2048 H 228.629 -6.42719 1.08423 0
M  V30 2049 N 232.062 -1.29571 -0.897171 0
M  V30 2050 C 233.478 -1.07637 -1.17841 0
M  V30 2051 C 233.678 0.170713 -2.00776 0
M  V30 2052 O 232.734 0.867768 -2.3712 0
M  V30 2053 C 234.047 -2.3332 -1.8969 0
M  V30 2054 C 235.595 -2.38664 -2.02505 0
M  V30 2055 C 236.07 -3.64157 -2.77765 0
M  V30 2056 N 237.561 -3.64894 -2.85318 0
M  V30 2057 C 238.296 -4.58679 -3.44094 0
M  V30 2058 N 237.792 -5.62799 -4.04017 0
M  V30 2059 N 239.585 -4.46245 -3.41793 0
M  V30 2060 H 231.736 -2.09598 -0.343883 0
M  V30 2061 H 233.999 -0.923333 -0.214848 0
M  V30 2062 H 233.705 -3.24262 -1.36187 0
M  V30 2063 H 233.579 -2.41025 -2.9015 0
M  V30 2064 H 235.966 -1.48208 -2.55183 0
M  V30 2065 H 236.047 -2.34943 -1.01171 0
M  V30 2066 H 235.691 -4.54965 -2.25763 0
M  V30 2067 H 235.621 -3.65137 -3.7945 0
M  V30 2068 H 238.112 -2.89613 -2.42761 0
M  V30 2069 H 238.425 -6.3048 -4.46895 0
M  V30 2070 H 236.77 -5.66605 -4.02472 0
M  V30 2071 H 239.961 -3.64094 -2.94199 0
M  V30 2072 H 240.134 -5.19518 -3.87304 0
M  V30 2073 N 233.54 1.10788 -1.12088 0
M  V30 2074 C 234.786 1.82942 -0.875226 0
M  V30 2075 C 235.119 1.84779 0.597538 0
M  V30 2076 O 234.394 1.30578 1.44152 0
M  V30 2077 C 234.677 3.29789 -1.44606 0
M  V30 2078 C 234.53 3.36307 -2.98693 0
M  V30 2079 C 235.849 4.26064 -1.10261 0
M  V30 2080 H 232.968 0.664195 -0.319397 0
M  V30 2081 H 235.61 1.29867 -1.38689 0
M  V30 2082 H 233.76 3.75118 -1.01089 0
M  V30 2083 H 235.432 2.99487 -3.50864 0
M  V30 2084 H 233.675 2.76318 -3.34411 0
M  V30 2085 H 234.346 4.39694 -3.33726 0
M  V30 2086 H 236.822 3.88951 -1.4784 0
M  V30 2087 H 235.698 5.27183 -1.52869 0
M  V30 2088 H 235.959 4.42098 -0.0142953 0
M  V30 2089 N 235.018 0.912232 1.28515 0
M  V30 2090 C 236.434 0.610159 1.47476 0
M  V30 2091 C 236.634 -0.844955 1.82928 0
M  V30 2092 O 235.69 -1.62416 1.93332 0
M  V30 2093 C 237.003 1.54675 2.57868 0
M  V30 2094 C 238.551 1.55331 2.71738 0
M  V30 2095 C 239.026 2.47649 3.85272 0
M  V30 2096 N 240.517 2.45767 3.92623 0
M  V30 2097 C 241.252 3.13896 4.79851 0
M  V30 2098 N 240.748 3.9135 5.71679 0
M  V30 2099 N 242.541 3.02991 4.73448 0
M  V30 2100 H 234.692 1.85318 1.03783 0
M  V30 2101 H 236.955 0.794777 0.516753 0
M  V30 2102 H 236.661 2.5841 2.38574 0
M  V30 2103 H 236.535 1.27671 3.54937 0
M  V30 2104 H 238.922 0.52335 2.90422 0
M  V30 2105 H 239.003 1.86378 1.75205 0
M  V30 2106 H 238.647 3.50745 3.67342 0
M  V30 2107 H 238.577 2.13904 4.81199 0
M  V30 2108 H 241.068 1.89503 3.26951 0
M  V30 2109 H 241.381 4.40359 6.35062 0
M  V30 2110 H 239.726 3.95455 5.71524 0
M  V30 2111 H 242.917 2.41987 4.007 0
M  V30 2112 H 243.09 3.5636 5.41213 0
M  V30 2113 N 236.496 -1.42363 0.676048 0
M  V30 2114 C 237.459 -2.29199 0.00766941 0
M  V30 2115 C 238.459 -1.43389 -0.727745 0
M  V30 2116 O 239.649 -1.64764 -0.56556 0
M  V30 2117 C 236.781 -3.2591 -0.999785 0
M  V30 2118 H 237.974 -2.89794 0.771988 0
M  V30 2119 H 235.527 -1.50024 0.438468 0
M  V30 2120 H 236.262 -2.70256 -1.79255 0
M  V30 2121 H 236.047 -3.89202 -0.475829 0
M  V30 2122 H 237.537 -3.91028 -1.46583 0
M  V30 2123 N 237.974 -0.419461 -1.51915 0
M  V30 2124 C 238.884 0.407528 -2.31033 0
M  V30 2125 C 239.9 1.04413 -1.3919 0
M  V30 2126 O 241.076 1.0434 -1.72265 0
M  V30 2127 C 238.141 1.50365 -3.12396 0
M  V30 2128 C 237.202 0.889029 -4.19994 0
M  V30 2129 C 236.435 1.93291 -4.97468 0
M  V30 2130 O 236.658 3.15259 -4.75361 0
M  V30 2131 O 235.592 1.53339 -5.8204 0
M  V30 2132 H 239.418 -0.237865 -3.02767 0
M  V30 2133 H 237.003 -0.182413 -1.48282 0
M  V30 2134 H 238.885 2.13975 -3.63032 0
M  V30 2135 H 237.56 2.13345 -2.43445 0
M  V30 2136 H 236.467 0.215353 -3.7348 0
M  V30 2137 H 237.8 0.302991 -4.91267 0
M  V30 2138 N 239.452 1.56882 -0.150215 0
M  V30 2139 C 240.362 2.20494 0.801222 0
M  V30 2140 C 241.378 1.19019 1.26927 0
M  V30 2141 O 242.554 1.51607 1.32579 0
M  V30 2142 C 239.619 2.81659 2.02161 0
M  V30 2143 C 238.68 3.9827 1.60249 0
M  V30 2144 C 237.913 4.56508 2.7647 0
M  V30 2145 O 238.136 4.13627 3.92771 0
M  V30 2146 O 237.07 5.46719 2.51757 0
M  V30 2147 H 240.896 3.02315 0.289717 0
M  V30 2148 H 238.481 1.49202 0.0769684 0
M  V30 2149 H 240.363 3.20522 2.73576 0
M  V30 2150 H 239.038 2.02849 2.52258 0
M  V30 2151 H 237.945 3.64117 0.858477 0
M  V30 2152 H 239.278 4.78609 1.14864 0
M  V30 2153 N 240.93 -0.123565 1.57115 0
M  V30 2154 C 242.346 -0.476961 1.52306 0
M  V30 2155 C 242.546 -1.82109 0.86248 0
M  V30 2156 O 241.602 -2.48586 0.442884 0
M  V30 2157 C 242.915 -0.465661 2.97073 0
M  V30 2158 C 244.463 -0.549534 3.08138 0
M  V30 2159 C 244.938 -0.568669 4.54456 0
M  V30 2160 N 246.429 -0.630237 4.58892 0
M  V30 2161 C 247.164 -0.666415 5.69514 0
M  V30 2162 N 246.66 -0.660514 6.89644 0
M  V30 2163 N 248.453 -0.709077 5.5761 0
M  V30 2164 H 240.604 0.757198 1.98445 0
M  V30 2165 H 242.867 0.278808 0.906074 0
M  V30 2166 H 242.573 0.454232 3.48754 0
M  V30 2167 H 242.447 -1.29513 3.54269 0
M  V30 2168 H 244.834 -1.45985 2.56461 0
M  V30 2169 H 244.915 0.307532 2.53945 0
M  V30 2170 H 244.559 0.337581 5.06777 0
M  V30 2171 H 244.489 -1.44256 5.06456 0
M  V30 2172 H 246.98 -0.641146 3.72421 0
M  V30 2173 H 247.293 -0.690616 7.69708 0
M  V30 2174 H 245.638 -0.628012 6.92157 0
M  V30 2175 H 248.829 -0.711019 4.62668 0
M  V30 2176 H 249.002 -0.733804 6.43832 0
M  V30 2177 N 242.408 -1.52605 -0.393616 0
M  V30 2178 C 243.318 -1.79971 -1.50492 0
M  V30 2179 C 244.334 -0.686181 -1.59899 0
M  V30 2180 O 245.51 -0.973274 -1.76322 0
M  V30 2181 C 242.575 -1.95867 -2.86072 0
M  V30 2182 C 241.636 -3.19781 -2.86424 0
M  V30 2183 C 240.869 -3.34909 -4.15538 0
M  V30 2184 O 241.092 -2.54948 -5.10253 0
M  V30 2185 O 240.026 -4.28141 -4.23059 0
M  V30 2186 H 243.852 -2.74328 -1.30299 0
M  V30 2187 H 241.437 -1.3764 -0.581005 0
M  V30 2188 H 243.319 -2.08056 -3.66457 0
M  V30 2189 H 241.994 -1.04699 -3.063 0
M  V30 2190 H 240.901 -3.13038 -2.04837 0
M  V30 2191 H 242.234 -4.1078 -2.71147 0
M  V30 2192 N 243.887 0.651787 -1.4349 0
M  V30 2193 C 244.819 1.77725 -1.44729 0
M  V30 2194 C 245.832 1.59141 -0.343231 0
M  V30 2195 O 247.021 1.67835 -0.607751 0
M  V30 2196 C 244.121 3.15172 -1.24579 0
M  V30 2197 C 243.294 3.60402 -2.47849 0
M  V30 2198 C 242.353 4.76656 -2.22902 0
M  V30 2199 O 241.379 4.86022 -2.96263 0
M  V30 2200 N 242.581 5.66958 -1.24656 0
M  V30 2201 H 245.346 1.77141 -2.41746 0
M  V30 2202 H 242.907 0.835678 -1.38665 0
M  V30 2203 H 244.899 3.90634 -1.0577 0
M  V30 2204 H 243.469 3.1052 -0.360015 0
M  V30 2205 H 242.689 2.75369 -2.82073 0
M  V30 2206 H 243.977 3.87368 -3.29884 0
M  V30 2207 H 243.375 5.62065 -0.640265 0
M  V30 2208 H 241.932 6.42135 -1.1183 0
M  V30 2209 N 245.365 1.30045 0.890287 0
M  V30 2210 C 246.614 1.17929 1.63633 0
M  V30 2211 C 246.927 -0.266204 1.9378 0
M  V30 2212 O 248.133 -0.508804 2.6669 0
M  V30 2213 C 246.589 2.06317 2.94892 0
M  V30 2214 C 246.197 3.55745 2.72305 0
M  V30 2215 C 247.941 2.0295 3.72843 0
M  V30 2216 C 245.848 4.36205 3.99348 0
M  V30 2217 H 244.778 0.437782 0.613892 0
M  V30 2218 H 247.429 1.54754 0.986075 0
M  V30 2219 H 245.811 1.6237 3.61182 0
M  V30 2220 H 246.985 4.07805 2.1455 0
M  V30 2221 H 245.3 3.6088 2.07737 0
M  V30 2222 H 247.897 2.60319 4.67053 0
M  V30 2223 H 248.24 1.0117 4.0382 0
M  V30 2224 H 248.773 2.4499 3.13408 0
M  V30 2225 H 245.512 5.38659 3.73533 0
M  V30 2226 H 245.032 3.8891 4.56628 0
M  V30 2227 H 246.711 4.47362 4.67415 0
M  V30 2228 N 246.843 -1.10192 1.12674 0
M  V30 2229 C 247.79 -2.16606 0.796906 0
M  V30 2230 C 248.76 -1.64394 -0.237476 0
M  V30 2231 O 249.945 -1.90474 -0.111484 0
M  V30 2232 C 247.085 -3.44116 0.26043 0
M  V30 2233 C 246.198 -4.10268 1.35293 0
M  V30 2234 C 245.333 -5.25507 0.775621 0
M  V30 2235 C 244.372 -5.83567 1.84706 0
M  V30 2236 N 243.509 -6.90179 1.28829 0
M  V30 2237 H 248.349 -2.44163 1.70846 0
M  V30 2238 H 245.886 -1.19846 0.85295 0
M  V30 2239 H 247.844 -4.17143 -0.0686814 0
M  V30 2240 H 246.474 -3.16901 -0.614274 0
M  V30 2241 H 245.526 -3.35184 1.79877 0
M  V30 2242 H 246.838 -4.4946 2.16303 0
M  V30 2243 H 245.992 -6.05398 0.397327 0
M  V30 2244 H 244.731 -4.87656 -0.0656581 0
M  V30 2245 H 243.736 -5.02344 2.23452 0
M  V30 2246 H 244.961 -6.23482 2.69161 0
M  V30 2247 H 242.907 -6.54322 0.468881 0
M  V30 2248 H 242.824 -7.28097 2.03497 0
M  V30 2249 H 244.092 -7.73844 0.937311 0
M  V30 2250 N 248.321 -0.919034 -1.28029 0
M  V30 2251 C 249.549 -0.570971 -1.98866 0
M  V30 2252 C 249.964 0.848996 -1.68634 0
M  V30 2253 O 249.321 1.56307 -0.942036 0
M  V30 2254 C 249.372 -0.776876 -3.53054 0
M  V30 2255 O 249.093 -2.14097 -3.82222 0
M  V30 2256 C 250.594 -0.436356 -4.41147 0
M  V30 2257 H 247.814 -0.217175 -0.634883 0
M  V30 2258 H 250.358 -1.23368 -1.63097 0
M  V30 2259 H 248.513 -0.161085 -3.87065 0
M  V30 2260 H 248.927 -2.18455 -4.76841 0
M  V30 2261 H 250.401 -0.63117 -5.4838 0
M  V30 2262 H 250.878 0.627686 -4.34692 0
M  V30 2263 H 251.484 -1.02991 -4.12641 0
M  V30 2264 N 249.799 1.42003 -0.683588 0
M  V30 2265 C 250.729 2.33487 -0.024866 0
M  V30 2266 C 251.71 1.51163 0.779975 0
M  V30 2267 O 252.895 1.79739 0.735362 0
M  V30 2268 C 250.025 3.3487 0.920836 0
M  V30 2269 C 248.979 4.27414 0.223958 0
M  V30 2270 C 248.305 5.19074 1.2832 0
M  V30 2271 C 249.605 5.14445 -0.90242 0
M  V30 2272 H 251.299 2.88819 -0.788921 0
M  V30 2273 H 248.845 1.38873 -0.38083 0
M  V30 2274 H 250.798 3.97787 1.39081 0
M  V30 2275 H 249.522 2.77861 1.71642 0
M  V30 2276 H 248.181 3.65904 -0.225864 0
M  V30 2277 H 247.829 4.58387 2.071 0
M  V30 2278 H 247.529 5.81822 0.821995 0
M  V30 2279 H 249.053 5.84867 1.75392 0
M  V30 2280 H 250.467 5.70998 -0.513272 0
M  V30 2281 H 248.864 5.86072 -1.28997 0
M  V30 2282 H 249.934 4.52322 -1.74737 0
M  V30 2283 N 251.277 0.427512 1.51691 0
M  V30 2284 C 252.225 -0.403359 2.29076 0
M  V30 2285 C 253.219 -1.02962 1.34518 0
M  V30 2286 O 254.425 -0.965715 1.51901 0
M  V30 2287 H 250.8 -0.148879 0.737115 0
M  V30 2288 H 252.771 0.270295 2.97173 0
M  V30 2289 C 251.52 -1.49763 3.13794 0
M  V30 2290 H 250.843 -1.02508 3.86435 0
M  V30 2291 H 252.283 -2.05244 3.71014 0
M  V30 2292 C 250.742 -2.47536 2.28533 0
M  V30 2293 O 251.272 -3.51848 1.93819 0
M  V30 2294 N 249.478 -2.18187 1.91945 0
M  V30 2295 H 249.025 -1.33389 2.20375 0
M  V30 2296 H 248.983 -2.83848 1.35195 0
M  V30 2297 N 252.755 -1.56801 0.158532 0
M  V30 2298 C 253.703 -2.18638 -0.793729 0
M  V30 2299 C 254.697 -1.14669 -1.24689 0
M  V30 2300 O 255.903 -1.32895 -1.21403 0
M  V30 2301 H 252.278 -0.700226 -0.274204 0
M  V30 2302 H 254.249 -2.97367 -0.248095 0
M  V30 2303 C 252.998 -2.83139 -2.0181 0
M  V30 2304 H 252.321 -3.62863 -1.67841 0
M  V30 2305 H 253.761 -3.29894 -2.66357 0
M  V30 2306 C 252.22 -1.82244 -2.83353 0
M  V30 2307 O 252.75 -1.3 -3.80083 0
M  V30 2308 N 250.956 -1.51288 -2.48114 0
M  V30 2309 H 250.503 -1.93964 -1.69516 0
M  V30 2310 H 250.461 -0.840296 -3.02963 0
M  V30 2311 N 254.233 0.115231 -1.57178 0
M  V30 2312 C 255.18 1.14115 -2.00615 0
M  V30 2313 C 256.15 1.40939 -0.878941 0
M  V30 2314 O 257.335 1.52741 -1.14345 0
M  V30 2315 C 254.475 2.46156 -2.4187 0
M  V30 2316 C 253.588 2.26236 -3.68024 0
M  V30 2317 C 252.723 3.51534 -3.98243 0
M  V30 2318 C 251.762 3.26787 -5.17568 0
M  V30 2319 N 250.899 4.44298 -5.43639 0
M  V30 2320 H 255.739 0.763743 -2.88047 0
M  V30 2321 H 253.276 0.365615 -1.42484 0
M  V30 2322 H 255.234 3.23189 -2.63827 0
M  V30 2323 H 253.864 2.81783 -1.57475 0
M  V30 2324 H 252.916 1.40102 -3.5366 0
M  V30 2325 H 254.228 2.03929 -4.55208 0
M  V30 2326 H 253.382 4.36984 -4.20868 0
M  V30 2327 H 252.121 3.76876 -3.09541 0
M  V30 2328 H 251.126 2.39729 -4.94783 0
M  V30 2329 H 252.351 3.02812 -6.0785 0
M  V30 2330 H 250.297 4.69754 -4.57895 0
M  V30 2331 H 250.214 4.25109 -6.25154 0
M  V30 2332 H 251.482 5.3087 -5.70786 0
M  V30 2333 N 255.711 1.52812 0.385517 0
M  V30 2334 C 256.958 1.68026 1.1302 0
M  V30 2335 C 257.286 0.421934 1.89868 0
M  V30 2336 O 256.541 -0.595749 1.86412 0
M  V30 2337 C 256.84 2.86856 2.13187 0
M  V30 2338 C 256.506 4.24159 1.5297 0
M  V30 2339 C 255.168 4.61501 1.36274 0
M  V30 2340 C 257.52 5.09627 1.09223 0
M  V30 2341 C 254.848 5.81966 0.743837 0
M  V30 2342 C 257.2 6.30719 0.487411 0
M  V30 2343 C 255.864 6.6679 0.307777 0
M  V30 2344 H 255.134 0.614849 0.413571 0
M  V30 2345 H 257.781 1.86962 0.414405 0
M  V30 2346 H 256.086 2.6235 2.90998 0
M  V30 2347 H 257.783 2.95821 2.70722 0
M  V30 2348 H 254.373 3.94746 1.66954 0
M  V30 2349 H 258.557 4.81343 1.20922 0
M  V30 2350 H 253.813 6.08519 0.592891 0
M  V30 2351 H 257.987 6.96259 0.140143 0
M  V30 2352 H 255.614 7.60001 -0.173879 0
M  V30 2353 N 257.189 -0.644168 1.43834 0
M  V30 2354 C 258.152 -1.73857 1.49353 0
M  V30 2355 C 259.152 -1.56315 0.377112 0
M  V30 2356 O 260.342 -1.62048 0.639226 0
M  V30 2357 C 257.474 -3.12819 1.35488 0
M  V30 2358 H 258.667 -1.70342 2.46827 0
M  V30 2359 H 256.22 -0.856652 1.30733 0
M  V30 2360 H 256.955 -3.2194 0.390569 0
M  V30 2361 H 256.74 -3.26958 2.16428 0
M  V30 2362 H 258.23 -3.92606 1.42302 0
M  V30 2363 N 258.668 -1.30515 -0.883378 0
M  V30 2364 C 259.893 -1.22487 -1.67367 0
M  V30 2365 C 260.318 0.208767 -1.86938 0
M  V30 2366 O 259.676 1.15015 -1.40148 0
M  V30 2367 C 259.724 -1.96041 -3.02655 0
M  V30 2368 O 258.828 -1.28859 -3.91751 0
M  V30 2369 H 258.169 -0.423573 -0.511353 0
M  V30 2370 H 260.699 -1.72362 -1.10239 0
M  V30 2371 H 260.709 -2.05124 -3.52687 0
M  V30 2372 H 259.384 -3.00307 -2.8773 0
M  V30 2373 H 257.961 -1.28141 -3.50192 0
M  V30 2374 N 260.146 1.09593 -1.13257 0
M  V30 2375 C 261.393 1.81734 -0.893257 0
M  V30 2376 C 261.721 1.8563 0.580656 0
M  V30 2377 O 260.976 1.31906 1.44566 0
M  V30 2378 C 261.275 3.27802 -1.42411 0
M  V30 2379 C 260.941 3.44041 -2.91456 0
M  V30 2380 C 259.603 3.48181 -3.3215 0
M  V30 2381 C 261.955 3.48719 -3.87356 0
M  V30 2382 C 259.283 3.54575 -4.67433 0
M  V30 2383 C 261.635 3.56648 -5.2248 0
M  V30 2384 C 260.299 3.59055 -5.62704 0
M  V30 2385 H 259.569 0.665011 -0.326866 0
M  V30 2386 H 262.216 1.2912 -1.41422 0
M  V30 2387 H 260.521 3.83042 -0.823795 0
M  V30 2388 H 262.218 3.82149 -1.21503 0
M  V30 2389 H 258.808 3.41502 -2.58987 0
M  V30 2390 H 262.992 3.44763 -3.57004 0
M  V30 2391 H 258.248 3.54725 -4.97976 0
M  V30 2392 H 262.422 3.59212 -5.96607 0
M  V30 2393 H 260.049 3.63763 -6.67518 0
M  V30 2394 N 261.624 0.925811 1.2754 0
M  V30 2395 C 262.873 0.561084 1.93739 0
M  V30 2396 C 263.186 -0.901685 1.73577 0
M  V30 2397 O 264.392 -1.37511 2.34101 0
M  V30 2398 C 262.848 0.952668 3.47062 0
M  V30 2399 C 262.456 2.43599 3.75983 0
M  V30 2400 C 264.2 0.659103 4.19352 0
M  V30 2401 C 262.107 2.76707 5.22673 0
M  V30 2402 H 261.037 0.206122 0.725279 0
M  V30 2403 H 263.688 1.12637 1.44863 0
M  V30 2404 H 262.07 0.316053 3.94737 0
M  V30 2405 H 263.244 3.12035 3.39073 0
M  V30 2406 H 261.559 2.70125 3.16893 0
M  V30 2407 H 264.156 0.882985 5.27359 0
M  V30 2408 H 264.499 -0.403607 4.14339 0
M  V30 2409 H 265.032 1.25473 3.77494 0
M  V30 2410 H 261.771 3.8188 5.32774 0
M  V30 2411 H 261.291 2.12919 5.60737 0
M  V30 2412 H 262.97 2.6435 5.90532 0
M  V30 2413 N 263.102 -1.41638 0.69111 0
M  V30 2414 C 264.379 -1.95036 0.148421 0
M  V30 2415 C 264.759 -1.63072 -1.34055 0
M  V30 2416 O 264.107 -0.93538 -2.08478 0
M  V30 2417 C 264.317 -3.46279 0.434951 0
M  V30 2418 C 265.665 -4.23069 0.360275 0
M  V30 2419 O 266.689 -3.54277 0.369613 0
M  V30 2420 O 265.548 -5.45583 0.316534 0
M  V30 2421 H 262.642 -0.826908 0.0123654 0
M  V30 2422 H 265.188 -1.5138 0.766963 0
M  V30 2423 H 263.96 -3.6281 1.46576 0
M  V30 2424 H 263.583 -3.97019 -0.214787 0
M  V30 2425 N 264.58 -0.43555 -1.51462 0
M  V30 2426 C 265.527 0.376797 -2.27703 0
M  V30 2427 C 266.497 1.01838 -1.31219 0
M  V30 2428 O 267.682 1.03762 -1.60119 0
M  V30 2429 C 264.822 1.47301 -3.12084 0
M  V30 2430 C 263.935 0.849744 -4.2356 0
M  V30 2431 C 263.07 1.92086 -4.95254 0
M  V30 2432 C 262.109 1.27593 -5.98654 0
M  V30 2433 N 261.246 2.28833 -6.63762 0
M  V30 2434 H 266.086 -0.279734 -2.96684 0
M  V30 2435 H 263.623 -0.149795 -1.46335 0
M  V30 2436 H 265.581 2.11984 -3.59331 0
M  V30 2437 H 264.211 2.0992 -2.45221 0
M  V30 2438 H 263.263 0.0912529 -3.80291 0
M  V30 2439 H 264.575 0.338878 -4.97648 0
M  V30 2440 H 263.729 2.64435 -5.46039 0
M  V30 2441 H 262.468 2.46545 -4.20793 0
M  V30 2442 H 261.473 0.537893 -5.47162 0
M  V30 2443 H 262.698 0.738693 -6.7507 0
M  V30 2444 H 260.644 2.82375 -5.92115 0
M  V30 2445 H 260.561 1.82632 -7.33608 0
M  V30 2446 H 261.829 3.00671 -7.19178 0
M  V30 2447 N 266.058 1.56714 -0.166846 0
M  V30 2448 C 267.304 1.97039 0.479962 0
M  V30 2449 C 267.637 1.05264 1.63197 0
M  V30 2450 O 266.912 0.0988833 1.94248 0
M  V30 2451 C 267.195 3.46867 0.967212 0
M  V30 2452 C 267.048 4.49421 -0.18466 0
M  V30 2453 C 268.367 3.9968 1.84238 0
M  V30 2454 H 265.486 0.71641 0.172992 0
M  V30 2455 H 268.128 1.8832 -0.252079 0
M  V30 2456 H 266.278 3.54428 1.59101 0
M  V30 2457 H 267.95 4.53924 -0.821621 0
M  V30 2458 H 266.193 4.25573 -0.840837 0
M  V30 2459 H 266.864 5.51644 0.198317 0
M  V30 2460 H 269.34 3.94723 1.31655 0
M  V30 2461 H 268.216 5.04941 2.15234 0
M  V30 2462 H 268.477 3.43226 2.78654 0
M  V30 2463 N 267.536 -0.106894 1.57237 0
M  V30 2464 C 268.952 -0.46078 1.52804 0
M  V30 2465 C 269.152 -1.81184 0.881746 0
M  V30 2466 O 268.208 -2.48102 0.469224 0
M  V30 2467 C 269.521 -0.434127 2.9755 0
M  V30 2468 C 271.069 -0.516821 3.08704 0
M  V30 2469 C 271.544 -0.520436 4.55033 0
M  V30 2470 N 273.035 -0.58153 4.59535 0
M  V30 2471 C 273.77 -0.605973 5.70189 0
M  V30 2472 N 273.266 -0.587331 6.90306 0
M  V30 2473 N 275.059 -0.649895 5.5833 0
M  V30 2474 H 267.21 0.778203 1.9763 0
M  V30 2475 H 269.473 0.288403 0.903066 0
M  V30 2476 H 269.179 0.491197 3.48253 0
M  V30 2477 H 269.053 -1.25748 3.55622 0
M  V30 2478 H 271.44 -1.43256 2.57995 0
M  V30 2479 H 271.521 0.334449 2.53604 0
M  V30 2480 H 271.165 0.391313 5.0639 0
M  V30 2481 H 271.095 -1.38876 5.07958 0
M  V30 2482 H 273.586 -0.60161 3.73081 0
M  V30 2483 H 273.899 -0.60894 7.70397 0
M  V30 2484 H 272.244 -0.554564 6.92784 0
M  V30 2485 H 275.435 -0.661907 4.63397 0
M  V30 2486 H 275.608 -0.665476 6.44574 0
M  V30 2487 N 269.014 -1.53014 -0.377408 0
M  V30 2488 C 270.261 -1.68623 -1.12128 0
M  V30 2489 C 270.589 -0.431997 -1.89642 0
M  V30 2490 O 269.844 0.585855 -1.86725 0
M  V30 2491 C 270.143 -2.87982 -2.11663 0
M  V30 2492 C 269.809 -4.24964 -1.50719 0
M  V30 2493 C 268.471 -4.62217 -1.33825 0
M  V30 2494 C 270.823 -5.10199 -1.06519 0
M  V30 2495 C 268.151 -5.82352 -0.712963 0
M  V30 2496 C 270.503 -6.30969 -0.453955 0
M  V30 2497 C 269.167 -6.66944 -0.272411 0
M  V30 2498 H 268.437 -0.617034 -0.410305 0
M  V30 2499 H 271.084 -1.8718 -0.404484 0
M  V30 2500 H 269.389 -2.63889 -2.89603 0
M  V30 2501 H 271.086 -2.97253 -2.6915 0
M  V30 2502 H 267.676 -3.95626 -1.64858 0
M  V30 2503 H 271.86 -4.81978 -1.18368 0
M  V30 2504 H 267.116 -6.08824 -0.560611 0
M  V30 2505 H 271.29 -6.96324 -0.103217 0
M  V30 2506 H 268.917 -7.59898 0.214181 0
M  V30 2507 N 270.492 0.636531 -1.44174 0
M  V30 2508 C 271.422 1.76003 -1.53444 0
M  V30 2509 C 272.403 1.65619 -0.387841 0
M  V30 2510 O 273.588 1.84461 -0.607257 0
M  V30 2511 C 270.718 3.14511 -1.4731 0
M  V30 2512 C 269.672 3.39677 -2.60391 0
M  V30 2513 C 268.998 4.78159 -2.39308 0
M  V30 2514 C 270.298 3.32772 -4.02567 0
M  V30 2515 H 271.992 1.68501 -2.47483 0
M  V30 2516 H 269.538 0.809237 -1.19111 0
M  V30 2517 H 271.491 3.92878 -1.52397 0
M  V30 2518 H 270.215 3.22783 -0.49785 0
M  V30 2519 H 268.874 2.63688 -2.54684 0
M  V30 2520 H 268.522 4.83128 -1.39988 0
M  V30 2521 H 268.222 4.95956 -3.15122 0
M  V30 2522 H 269.746 5.58762 -2.46205 0
M  V30 2523 H 271.16 4.01051 -4.09672 0
M  V30 2524 H 269.557 3.62104 -4.7854 0
M  V30 2525 H 270.627 2.30669 -4.2652 0
M  V30 2526 N 271.97 1.30982 0.876444 0
M  V30 2527 C 272.88 1.2003 2.01569 0
M  V30 2528 C 273.896 0.11838 1.73597 0
M  V30 2529 O 275.072 0.33495 1.98595 0
M  V30 2530 C 272.137 0.901637 3.34771 0
M  V30 2531 C 271.198 2.06979 3.76109 0
M  V30 2532 C 270.431 1.78529 5.02954 0
M  V30 2533 O 270.654 0.717296 5.65872 0
M  V30 2534 O 269.588 2.64019 5.40905 0
M  V30 2535 H 273.414 2.15753 2.13739 0
M  V30 2536 H 270.999 1.10658 1.00375 0
M  V30 2537 H 272.881 0.750645 4.1466 0
M  V30 2538 H 271.556 -0.0256141 3.2369 0
M  V30 2539 H 270.463 2.27616 2.96887 0
M  V30 2540 H 271.796 2.97907 3.91807 0
M  V30 2541 N 273.449 -1.08991 1.13837 0
M  V30 2542 C 274.381 -2.15606 0.777612 0
M  V30 2543 C 275.394 -1.61533 -0.202739 0
M  V30 2544 O 276.583 -1.78491 0.0181055 0
M  V30 2545 C 273.683 -3.3864 0.132623 0
M  V30 2546 C 272.856 -4.22115 1.1462 0
M  V30 2547 C 271.915 -5.23564 0.526074 0
M  V30 2548 O 270.941 -5.56678 1.18735 0
M  V30 2549 N 272.143 -5.76266 -0.699866 0
M  V30 2550 H 274.908 -2.47159 1.69506 0
M  V30 2551 H 272.469 -1.24747 1.03198 0
M  V30 2552 H 274.461 -4.03626 -0.29459 0
M  V30 2553 H 273.031 -3.04938 -0.687849 0
M  V30 2554 H 272.251 -3.53199 1.75055 0
M  V30 2555 H 273.539 -4.74709 1.83109 0
M  V30 2556 H 272.937 -5.51585 -1.25581 0
M  V30 2557 H 271.494 -6.42963 -1.06968 0
M  V30 2558 N 274.927 -0.932562 -1.27047 0
M  V30 2559 C 275.859 -0.392734 -2.2581 0
M  V30 2560 C 276.872 0.479241 -1.55586 0
M  V30 2561 O 278.061 0.291078 -1.76111 0
M  V30 2562 C 275.161 0.455456 -3.35826 0
M  V30 2563 C 274.334 -0.398355 -4.35582 0
M  V30 2564 C 273.393 0.387985 -5.24768 0
M  V30 2565 O 272.419 -0.206003 -5.68827 0
M  V30 2566 N 273.621 1.68664 -5.55457 0
M  V30 2567 H 276.386 -1.24173 -2.72766 0
M  V30 2568 H 273.947 -0.800511 -1.40725 0
M  V30 2569 H 275.939 0.988692 -3.92437 0
M  V30 2570 H 274.509 1.20522 -2.88432 0
M  V30 2571 H 273.729 -1.11286 -3.78165 0
M  V30 2572 H 275.017 -0.981889 -4.99236 0
M  V30 2573 H 274.415 2.19147 -5.21528 0
M  V30 2574 H 272.972 2.1663 -6.14748 0
M  V30 2575 N 276.405 1.4127 -0.698611 0
M  V30 2576 C 277.353 2.32588 -0.023855 0
M  V30 2577 C 278.347 1.51128 0.765292 0
M  V30 2578 O 279.553 1.67043 0.670571 0
M  V30 2579 H 275.928 0.751918 0.0110871 0
M  V30 2580 H 277.899 2.87167 -0.811031 0
M  V30 2581 C 276.648 3.35947 0.896369 0
M  V30 2582 H 275.971 3.98684 0.298548 0
M  V30 2583 H 277.411 4.02376 1.33676 0
M  V30 2584 C 275.87 2.70076 2.01396 0
M  V30 2585 O 276.4 2.55093 3.10307 0
M  V30 2586 N 274.606 2.28724 1.79259 0
M  V30 2587 H 274.153 2.4111 0.906841 0
M  V30 2588 H 274.111 1.84986 2.54219 0
M  V30 2589 N 277.883 0.443576 1.51229 0
M  V30 2590 C 278.83 -0.364716 2.279 0
M  V30 2591 C 279.8 -1.0114 1.31757 0
M  V30 2592 O 280.985 -1.02912 1.60667 0
M  V30 2593 C 278.125 -1.45644 3.12861 0
M  V30 2594 C 277.238 -0.827269 4.24005 0
M  V30 2595 C 276.373 -1.89456 4.96266 0
M  V30 2596 C 275.412 -1.24416 5.99322 0
M  V30 2597 N 274.549 -2.25309 6.64966 0
M  V30 2598 H 279.389 0.295464 2.96532 0
M  V30 2599 H 276.926 0.157554 1.46254 0
M  V30 2600 H 278.884 -2.10076 3.6045 0
M  V30 2601 H 277.514 -2.08616 2.46331 0
M  V30 2602 H 276.566 -0.0710839 3.80334 0
M  V30 2603 H 277.878 -0.312481 4.9782 0
M  V30 2604 H 277.032 -2.61535 5.47434 0
M  V30 2605 H 275.771 -2.4431 4.22095 0
M  V30 2606 H 274.776 -0.508868 5.4744 0
M  V30 2607 H 276.001 -0.702882 6.75453 0
M  V30 2608 H 273.947 -2.79231 5.93604 0
M  V30 2609 H 273.864 -1.78739 7.34567 0
M  V30 2610 H 275.132 -2.96853 7.20763 0
M  V30 2611 N 279.361 -1.56624 0.175154 0
M  V30 2612 C 280.607 -1.9729 -0.469506 0
M  V30 2613 C 280.94 -1.06128 -1.62636 0
M  V30 2614 O 280.215 -0.109183 -1.94193 0
M  V30 2615 C 280.498 -3.47375 -0.948804 0
M  V30 2616 C 280.351 -4.49317 0.208491 0
M  V30 2617 C 281.67 -4.00652 -1.82116 0
M  V30 2618 H 278.789 -0.717317 -0.16919 0
M  V30 2619 H 281.431 -1.88184 0.262062 0
M  V30 2620 H 279.581 -3.55267 -1.57219 0
M  V30 2621 H 281.253 -4.53482 0.845682 0
M  V30 2622 H 279.496 -4.25121 0.863395 0
M  V30 2623 H 280.167 -5.51741 -0.169059 0
M  V30 2624 H 282.643 -3.95416 -1.2956 0
M  V30 2625 H 281.519 -5.06075 -2.12554 0
M  V30 2626 H 281.78 -3.44699 -2.7683 0
M  V30 2627 N 280.839 0.0985539 -1.57292 0
M  V30 2628 C 281.769 1.12064 -2.04851 0
M  V30 2629 C 282.75 1.41981 -0.936767 0
M  V30 2630 O 283.935 1.52071 -1.20781 0
M  V30 2631 C 281.065 2.44144 -2.47004 0
M  V30 2632 C 280.019 2.28643 -3.6181 0
M  V30 2633 C 279.345 3.65869 -3.89929 0
M  V30 2634 C 280.645 1.72986 -4.92822 0
M  V30 2635 H 282.339 0.724979 -2.9049 0
M  V30 2636 H 279.885 0.34729 -1.39749 0
M  V30 2637 H 281.838 3.15914 -2.78884 0
M  V30 2638 H 280.562 2.85639 -1.5836 0
M  V30 2639 H 279.221 1.59318 -3.30172 0
M  V30 2640 H 278.869 4.04885 -2.98458 0
M  V30 2641 H 278.569 3.56344 -4.67218 0
M  V30 2642 H 280.093 4.39112 -4.2428 0
M  V30 2643 H 281.507 2.34593 -5.23105 0
M  V30 2644 H 279.904 1.74229 -5.74251 0
M  V30 2645 H 280.974 0.689007 -4.7998 0
M  V30 2646 N 282.317 1.53212 0.369288 0
M  V30 2647 C 283.227 1.82342 1.47609 0
M  V30 2648 C 284.243 0.711532 1.58787 0
M  V30 2649 O 285.419 1.0012 1.74751 0
M  V30 2650 C 282.484 2.00393 2.8292 0
M  V30 2651 C 281.545 3.24297 2.81301 0
M  V30 2652 C 280.778 3.41478 4.10157 0
M  V30 2653 O 281.001 2.63033 5.06132 0
M  V30 2654 O 279.935 4.34817 4.16194 0
M  V30 2655 H 283.761 2.76366 1.25918 0
M  V30 2656 H 281.346 1.38547 0.559034 0
M  V30 2657 H 283.228 2.13859 3.63101 0
M  V30 2658 H 281.903 1.09559 3.04596 0
M  V30 2659 H 280.81 3.16257 1.99831 0
M  V30 2660 H 282.143 4.15041 2.64578 0
M  V30 2661 N 283.795 -0.628877 1.44509 0
M  V30 2662 C 285.023 -1.41554 1.50897 0
M  V30 2663 C 285.438 -1.8832 0.134564 0
M  V30 2664 O 284.795 -1.60969 -0.859965 0
M  V30 2665 C 284.846 -2.63435 2.47556 0
M  V30 2666 O 284.567 -2.18619 3.79654 0
M  V30 2667 C 286.068 -3.56537 2.63431 0
M  V30 2668 H 283.288 -0.434044 0.511709 0
M  V30 2669 H 285.832 -0.768895 1.89495 0
M  V30 2670 H 283.987 -3.24187 2.12089 0
M  V30 2671 H 284.401 -2.97652 4.31861 0
M  V30 2672 H 285.875 -4.38657 3.35088 0
M  V30 2673 H 286.352 -4.05493 1.68738 0
M  V30 2674 H 286.958 -3.01653 2.9981 0
M  V30 2675 N 285.273 -1.31445 -0.869486 0
M  V30 2676 C 286.22 -1.19135 -1.97675 0
M  V30 2677 C 287.19 -0.0770266 -1.65921 0
M  V30 2678 O 288.375 -0.249972 -1.89155 0
M  V30 2679 C 285.515 -0.905149 -3.33018 0
M  V30 2680 C 284.628 -2.10285 -3.77365 0
M  V30 2681 C 283.763 -1.75339 -5.01427 0
M  V30 2682 C 282.802 -2.91515 -5.38224 0
M  V30 2683 N 281.939 -2.56762 -6.53466 0
M  V30 2684 H 286.779 -2.13853 -2.07535 0
M  V30 2685 H 284.316 -1.06379 -1.01597 0
M  V30 2686 H 286.274 -0.719765 -4.10944 0
M  V30 2687 H 284.904 0.00519624 -3.228 0
M  V30 2688 H 283.956 -2.39899 -2.95216 0
M  V30 2689 H 285.268 -2.97237 -4.00564 0
M  V30 2690 H 284.422 -1.53266 -5.87022 0
M  V30 2691 H 283.161 -0.855801 -4.80133 0
M  V30 2692 H 282.166 -3.14237 -4.51149 0
M  V30 2693 H 283.391 -3.81985 -5.61484 0
M  V30 2694 H 281.337 -1.69526 -6.33717 0
M  V30 2695 H 281.254 -3.37243 -6.76612 0
M  V30 2696 H 282.522 -2.38083 -7.42251 0
M  V30 2697 N 286.751 1.08385 -1.14413 0
M  V30 2698 C 287.997 1.81212 -0.923793 0
M  V30 2699 C 288.352 1.84555 0.543814 0
M  V30 2700 O 287.645 1.31056 1.39767 0
M  V30 2701 C 287.839 3.26273 -1.45879 0
M  V30 2702 C 287.668 3.37063 -2.97689 0
M  V30 2703 C 286.438 3.4824 -3.66138 0
M  V30 2704 C 288.636 3.28698 -3.95553 0
M  V30 2705 N 286.618 3.47824 -5.05858 0
M  V30 2706 C 287.989 3.35276 -5.21527 0
M  V30 2707 C 290.044 3.12437 -3.8767 0
M  V30 2708 C 288.747 3.27267 -6.40538 0
M  V30 2709 C 290.773 3.05757 -5.06228 0
M  V30 2710 C 290.135 3.12938 -6.3107 0
M  V30 2711 H 286.234 0.6769 -0.391574 0
M  V30 2712 H 288.818 1.29455 -1.45429 0
M  V30 2713 H 286.989 3.76474 -0.95507 0
M  V30 2714 H 288.721 3.87165 -1.17835 0
M  V30 2715 H 285.476 3.52141 -3.16692 0
M  V30 2716 H 285.9 3.51171 -5.78798 0
M  V30 2717 H 290.542 3.05747 -2.92025 0
M  V30 2718 H 288.26 3.32718 -7.36427 0
M  V30 2719 H 291.846 2.94295 -5.01878 0
M  V30 2720 H 290.726 3.078 -7.21269 0
M  V30 2721 N 288.23 0.939286 1.26551 0
M  V30 2722 C 289.458 0.602536 1.97932 0
M  V30 2723 C 289.873 -0.82206 1.69964 0
M  V30 2724 O 289.23 -1.54789 0.966784 0
M  V30 2725 C 289.281 0.832946 3.51773 0
M  V30 2726 O 289.002 2.20151 3.78768 0
M  V30 2727 C 290.503 0.506483 4.40397 0
M  V30 2728 H 287.723 0.227248 0.631347 0
M  V30 2729 H 290.267 1.25948 1.61113 0
M  V30 2730 H 288.422 0.222644 3.8676 0
M  V30 2731 H 288.836 2.26013 4.73306 0
M  V30 2732 H 290.31 0.718333 5.47306 0
M  V30 2733 H 290.787 -0.558451 4.35635 0
M  V30 2734 H 291.393 1.09543 4.10951 0
M  V30 2735 N 289.708 -1.40897 0.706093 0
M  V30 2736 C 290.638 -2.33418 0.0620085 0
M  V30 2737 C 291.619 -1.52385 -0.755827 0
M  V30 2738 O 292.804 -1.80886 -0.706674 0
M  V30 2739 C 289.934 -3.36293 -0.867445 0
M  V30 2740 C 288.888 -4.27716 -0.155932 0
M  V30 2741 C 288.214 -5.2105 -1.20046 0
M  V30 2742 C 289.514 -5.12944 0.984149 0
M  V30 2743 H 291.208 -2.87527 0.83477 0
M  V30 2744 H 288.754 -1.38249 0.402875 0
M  V30 2745 H 290.707 -3.99949 -1.32735 0
M  V30 2746 H 289.431 -2.80556 -1.67199 0
M  V30 2747 H 288.09 -3.65498 0.284047 0
M  V30 2748 H 287.738 -4.61624 -1.99781 0
M  V30 2749 H 287.438 -5.83056 -0.729328 0
M  V30 2750 H 288.962 -5.87584 -1.66066 0
M  V30 2751 H 290.376 -5.70109 0.604048 0
M  V30 2752 H 288.773 -5.83945 1.38304 0
M  V30 2753 H 289.843 -4.49485 1.81911 0
M  V30 2754 N 291.186 -0.45159 -1.50991 0
M  V30 2755 C 292.116 0.342898 -2.30969 0
M  V30 2756 C 293.097 1.00815 -1.37005 0
M  V30 2757 O 294.282 1.00907 -1.65926 0
M  V30 2758 C 291.412 1.43637 -3.16205 0
M  V30 2759 C 290.366 0.893818 -4.18563 0
M  V30 2760 C 289.692 2.08411 -4.92411 0
M  V30 2761 C 290.992 -0.0815568 -5.22236 0
M  V30 2762 H 292.686 -0.324556 -2.97636 0
M  V30 2763 H 290.232 -0.157531 -1.43136 0
M  V30 2764 H 292.185 1.9995 -3.70942 0
M  V30 2765 H 290.909 2.13232 -2.47386 0
M  V30 2766 H 289.568 0.352798 -3.64898 0
M  V30 2767 H 289.216 2.76658 -4.20082 0
M  V30 2768 H 288.916 1.72741 -5.61636 0
M  V30 2769 H 290.44 2.65251 -5.49976 0
M  V30 2770 H 291.854 0.391742 -5.7196 0
M  V30 2771 H 290.251 -0.351551 -5.99069 0
M  V30 2772 H 291.321 -1.01374 -4.74185 0
M  V30 2773 N 292.664 1.56529 -0.183458 0
M  V30 2774 C 293.596 2.15747 0.773697 0
M  V30 2775 C 294.609 1.1162 1.1851 0
M  V30 2776 O 295.798 1.3876 1.12285 0
M  V30 2777 C 292.898 2.6952 2.05456 0
M  V30 2778 C 292.071 3.98429 1.8048 0
M  V30 2779 C 291.13 4.37145 2.92901 0
M  V30 2780 O 290.156 5.04791 2.6301 0
M  V30 2781 N 291.358 3.99695 4.2098 0
M  V30 2782 H 294.123 2.98505 0.26736 0
M  V30 2783 H 291.684 1.619 -0.0010878 0
M  V30 2784 H 293.676 2.92412 2.79781 0
M  V30 2785 H 292.246 1.91282 2.47245 0
M  V30 2786 H 291.466 3.8379 0.899947 0
M  V30 2787 H 292.754 4.82597 1.61175 0
M  V30 2788 H 292.152 3.4526 4.48121 0
M  V30 2789 H 290.709 4.27562 4.9197 0
M  V30 2790 N 294.142 -0.090211 1.57342 0
M  V30 2791 C 295.052 -1.12735 2.05738 0
M  V30 2792 C 296.068 -1.43557 0.983231 0
M  V30 2793 O 297.244 -1.54101 1.29672 0
M  V30 2794 C 294.309 -2.42659 2.47624 0
M  V30 2795 C 293.37 -2.18975 3.69254 0
M  V30 2796 C 292.603 -3.42704 4.09133 0
M  V30 2797 O 292.826 -4.51127 3.49057 0
M  V30 2798 O 291.76 -3.32003 5.02053 0
M  V30 2799 H 295.586 -0.746279 2.94388 0
M  V30 2800 H 293.171 -0.303064 1.46294 0
M  V30 2801 H 295.053 -3.19155 2.7517 0
M  V30 2802 H 293.728 -2.80182 1.62109 0
M  V30 2803 H 292.635 -1.40244 3.46818 0
M  V30 2804 H 293.968 -1.86342 4.55563 0
M  V30 2805 N 295.62 -1.53406 -0.361157 0
M  V30 2806 C 296.552 -1.76446 -1.46286 0
M  V30 2807 C 297.565 -0.645322 -1.49464 0
M  V30 2808 O 298.754 -0.921681 -1.52864 0
M  V30 2809 C 295.854 -1.83332 -2.85031 0
M  V30 2810 C 295.027 -3.13033 -3.05498 0
M  V30 2811 C 294.086 -3.11104 -4.24383 0
M  V30 2812 O 293.112 -3.84888 -4.19344 0
M  V30 2813 N 294.314 -2.32234 -5.32022 0
M  V30 2814 H 297.079 -2.71508 -1.26899 0
M  V30 2815 H 294.64 -1.52238 -0.550915 0
M  V30 2816 H 296.632 -1.79514 -3.62708 0
M  V30 2817 H 295.202 -0.955342 -2.97644 0
M  V30 2818 H 294.422 -3.30119 -2.15442 0
M  V30 2819 H 295.71 -3.9874 -3.16044 0
M  V30 2820 H 295.108 -1.71807 -5.38979 0
M  V30 2821 H 293.665 -2.3423 -6.08259 0
M  V30 2822 N 297.098 0.621204 -1.44841 0
M  V30 2823 C 298.346 1.37783 -1.47852 0
M  V30 2824 C 298.667 1.94653 -0.116224 0
M  V30 2825 O 297.937 1.76367 0.852737 0
M  V30 2826 H 296.517 0.511453 -0.544449 0
M  V30 2827 H 299.179 0.730446 -1.80694 0
M  V30 2828 H 298.275 2.20414 -2.20961 0
M  V30 2829 N 298.576 1.31904 0.862503 0
M  V30 2830 C 299.804 1.24998 1.64873 0
M  V30 2831 C 300.219 -0.183425 1.87907 0
M  V30 2832 O 299.576 -1.11794 1.44251 0
M  V30 2833 C 299.627 1.99829 3.01248 0
M  V30 2834 O 299.348 3.37575 2.79239 0
M  V30 2835 C 300.849 1.99852 3.95694 0
M  V30 2836 H 298.069 0.431599 0.513773 0
M  V30 2837 H 300.613 1.73901 1.07604 0
M  V30 2838 H 298.768 1.54668 3.55185 0
M  V30 2839 H 299.182 3.75776 3.65914 0
M  V30 2840 H 300.656 2.56709 4.88676 0
M  V30 2841 H 301.133 0.982852 4.28062 0
M  V30 2842 H 301.739 2.44926 3.47694 0
M  V30 2843 N 300.054 -1.07777 1.14986 0
M  V30 2844 C 301.001 -2.14867 0.842672 0
M  V30 2845 C 301.971 -1.6486 -0.202552 0
M  V30 2846 O 303.156 -1.90668 -0.0710568 0
M  V30 2847 C 300.296 -3.43486 0.333363 0
M  V30 2848 C 299.409 -4.07306 1.43965 0
M  V30 2849 C 298.544 -5.23744 0.886914 0
M  V30 2850 C 297.583 -5.79517 1.97043 0
M  V30 2851 N 296.72 -6.87291 1.4344 0
M  V30 2852 H 301.56 -2.40485 1.75986 0
M  V30 2853 H 299.097 -1.1801 0.878179 0
M  V30 2854 H 301.055 -4.17195 0.0198163 0
M  V30 2855 H 299.685 -3.18133 -0.546916 0
M  V30 2856 H 298.737 -3.31293 1.86946 0
M  V30 2857 H 300.049 -4.44771 2.25788 0
M  V30 2858 H 299.203 -6.04419 0.525651 0
M  V30 2859 H 297.942 -4.87685 0.0377957 0
M  V30 2860 H 296.947 -4.97491 2.34057 0
M  V30 2861 H 298.172 -6.17632 2.82325 0
M  V30 2862 H 296.118 -6.5318 0.607567 0
M  V30 2863 H 296.035 -7.23617 2.18895 0
M  V30 2864 H 297.303 -7.71682 1.10124 0
M  V30 2865 N 301.532 -0.945985 -1.26051 0
M  V30 2866 C 302.76 -0.613025 -1.9761 0
M  V30 2867 C 303.175 0.813035 -1.70397 0
M  V30 2868 O 302.532 1.54274 -0.974979 0
M  V30 2869 C 302.583 -0.85159 -3.51326 0
M  V30 2870 O 302.304 -2.22157 -3.77595 0
M  V30 2871 C 303.805 -0.529831 -4.40122 0
M  V30 2872 H 301.025 -0.230593 -0.630133 0
M  V30 2873 H 303.569 -1.268 -1.60443 0
M  V30 2874 H 301.724 -0.243151 -3.86636 0
M  V30 2875 H 302.138 -2.2852 -4.721 0
M  V30 2876 H 303.612 -0.747348 -5.46917 0
M  V30 2877 H 304.089 0.535341 -4.35925 0
M  V30 2878 H 304.695 -1.11721 -4.10364 0
M  V30 2879 N 303.011 1.40521 -0.713556 0
M  V30 2880 C 304.257 2.01221 -0.252564 0
M  V30 2881 C 304.59 1.56444 1.1506 0
M  V30 2882 O 303.865 0.783597 1.78017 0
M  V30 2883 C 304.148 3.58582 -0.330332 0
M  V30 2884 C 304.001 4.13437 -1.77173 0
M  V30 2885 C 305.32 4.39079 0.299641 0
M  V30 2886 H 302.439 0.731077 -0.0932471 0
M  V30 2887 H 305.081 1.67026 -0.905673 0
M  V30 2888 H 303.231 3.87844 0.225737 0
M  V30 2889 H 304.903 3.9498 -2.38303 0
M  V30 2890 H 303.146 3.67801 -2.3001 0
M  V30 2891 H 303.817 5.22597 -1.77755 0
M  V30 2892 H 306.293 4.15735 -0.174139 0
M  V30 2893 H 305.169 5.4848 0.214771 0
M  V30 2894 H 305.43 4.19915 1.38288 0
M  V30 2895 N 304.489 0.459591 1.5075 0
M  V30 2896 C 305.905 0.113092 1.59199 0
M  V30 2897 C 306.105 -1.37951 1.46874 0
M  V30 2898 O 305.161 -2.15168 1.32132 0
M  V30 2899 C 306.474 0.653043 2.93523 0
M  V30 2900 C 308.022 0.615449 3.0689 0
M  V30 2901 C 308.497 1.13275 4.43771 0
M  V30 2902 N 309.988 1.09167 4.50152 0
M  V30 2903 C 310.723 1.46256 5.54434 0
M  V30 2904 N 310.219 1.90739 6.66026 0
M  V30 2905 N 312.012 1.37932 5.44914 0
M  V30 2906 H 304.163 1.43049 1.57005 0
M  V30 2907 H 306.426 0.590861 0.741341 0
M  V30 2908 H 306.132 1.69822 3.07983 0
M  V30 2909 H 306.006 0.0902132 3.77092 0
M  V30 2910 H 308.393 -0.420793 2.92084 0
M  V30 2911 H 308.474 1.21495 2.25106 0
M  V30 2912 H 308.118 2.16757 4.59324 0
M  V30 2913 H 308.048 0.509576 5.24129 0
M  V30 2914 H 310.539 0.76528 3.7007 0
M  V30 2915 H 310.852 2.17218 7.41644 0
M  V30 2916 H 309.197 1.94683 6.67176 0
M  V30 2917 H 312.388 1.0303 4.56621 0
M  V30 2918 H 312.561 1.67164 6.26067 0
M  V30 2919 N 305.967 -1.56429 0.191757 0
M  V30 2920 C 306.899 -2.16154 -0.762245 0
M  V30 2921 C 307.912 -1.12247 -1.17917 0
M  V30 2922 O 309.101 -1.39353 -1.11548 0
M  V30 2923 C 306.201 -2.70606 -2.04024 0
M  V30 2924 C 305.374 -3.99381 -1.78364 0
M  V30 2925 C 304.433 -4.38692 -2.90578 0
M  V30 2926 O 303.459 -5.06179 -2.6033 0
M  V30 2927 N 304.661 -4.01922 -4.18854 0
M  V30 2928 H 307.426 -2.98643 -0.251526 0
M  V30 2929 H 304.987 -1.61897 0.00967373 0
M  V30 2930 H 306.979 -2.93891 -2.78227 0
M  V30 2931 H 305.549 -1.9259 -2.46227 0
M  V30 2932 H 304.769 -3.84262 -0.879581 0
M  V30 2933 H 306.057 -4.83445 -1.58614 0
M  V30 2934 H 305.455 -3.47631 -4.46283 0
M  V30 2935 H 304.012 -4.30165 -4.89695 0
M  V30 2936 N 307.445 0.0818655 -1.57387 0
M  V30 2937 C 308.393 1.11712 -2.04018 0
M  V30 2938 C 309.387 1.40683 -0.94364 0
M  V30 2939 O 310.593 1.40209 -1.12878 0
M  V30 2940 H 306.968 0.377542 -0.650358 0
M  V30 2941 H 308.939 0.697614 -2.90131 0
M  V30 2942 C 307.688 2.42537 -2.49141 0
M  V30 2943 H 307.011 2.21092 -3.33104 0
M  V30 2944 H 308.451 3.13446 -2.85531 0
M  V30 2945 C 306.91 3.0778 -1.37014 0
M  V30 2946 O 307.44 3.95436 -0.706621 0
M  V30 2947 N 305.646 2.68242 -1.11779 0
M  V30 2948 H 305.193 1.97052 -1.65917 0
M  V30 2949 H 305.151 3.1222 -0.369594 0
M  V30 2950 N 308.923 1.53595 0.353017 0
M  V30 2951 C 309.853 1.83902 1.43883 0
M  V30 2952 C 310.834 0.693421 1.55324 0
M  V30 2953 O 312.019 0.944452 1.69687 0
M  V30 2954 C 309.149 2.04016 2.8106 0
M  V30 2955 C 308.103 3.19814 2.84434 0
M  V30 2956 C 307.429 3.25244 4.24406 0
M  V30 2957 C 308.729 4.58133 2.50822 0
M  V30 2958 H 310.423 2.74835 1.1877 0
M  V30 2959 H 307.969 1.32242 0.569917 0
M  V30 2960 H 309.922 2.238 3.57059 0
M  V30 2961 H 308.646 1.09804 3.07588 0
M  V30 2962 H 307.305 2.9987 2.10887 0
M  V30 2963 H 306.953 2.28646 4.48029 0
M  V30 2964 H 306.653 4.03054 4.27576 0
M  V30 2965 H 308.177 3.47228 5.0226 0
M  V30 2966 H 309.591 4.77995 3.16534 0
M  V30 2967 H 307.988 5.38276 2.6529 0
M  V30 2968 H 309.058 4.62387 1.46034 0
M  V30 2969 N 310.401 -0.613514 1.45168 0
M  V30 2970 C 311.311 -1.75296 1.55912 0
M  V30 2971 C 312.327 -1.68244 0.443856 0
M  V30 2972 O 313.503 -1.88706 0.70371 0
M  V30 2973 C 310.568 -3.1174 1.5172 0
M  V30 2974 C 309.629 -3.30291 2.74238 0
M  V30 2975 C 308.862 -4.60226 2.70236 0
M  V30 2976 O 309.085 -5.42168 1.77229 0
M  V30 2977 O 308.019 -4.81361 3.61352 0
M  V30 2978 H 311.845 -1.69183 2.52212 0
M  V30 2979 H 309.43 -0.776886 1.27612 0
M  V30 2980 H 311.312 -3.93044 1.51968 0
M  V30 2981 H 309.987 -3.18357 0.585697 0
M  V30 2982 H 308.894 -2.48598 2.79553 0
M  V30 2983 H 310.227 -3.28547 3.66494 0
M  V30 2984 N 311.879 -1.3236 -0.855495 0
M  V30 2985 C 313.29 -1.2056 -1.42556 0
M  V30 2986 C 313.641 0.182209 -1.95352 0
M  V30 2987 O 312.766 1.08088 -1.87472 0
M  V30 2988 C 313.361 -2.1826 -2.59129 0
M  V30 2989 C 311.92 -2.10351 -3.12137 0
M  V30 2990 C 311.067 -2.06674 -1.84882 0
M  V30 2991 H 314.018 -1.442 -0.662727 0
M  V30 2992 H 314.039 -1.78064 -3.36264 0
M  V30 2993 H 313.551 -3.19257 -2.20673 0
M  V30 2994 H 311.652 -1.12599 -3.55179 0
M  V30 2995 H 311.765 -3.00135 -3.73438 0
M  V30 2996 H 310.129 -1.51901 -2.04446 0
M  V30 2997 H 310.912 -3.09451 -1.48643 0
M  V30 2998 N 313.357 1.07166 -1.15556 0
M  V30 2999 C 314.287 2.16403 -0.877046 0
M  V30 3000 C 315.268 1.69217 0.173111 0
M  V30 3001 O 316.453 1.94181 0.027084 0
M  V30 3002 C 313.583 3.45349 -0.367632 0
M  V30 3003 C 312.537 4.05995 -1.35468 0
M  V30 3004 C 311.863 5.30045 -0.704038 0
M  V30 3005 C 313.163 4.45804 -2.72132 0
M  V30 3006 H 314.857 2.39959 -1.79053 0
M  V30 3007 H 312.403 1.15325 -0.862331 0
M  V30 3008 H 314.356 4.21095 -0.160317 0
M  V30 3009 H 313.08 3.21385 0.581326 0
M  V30 3010 H 311.739 3.32296 -1.54839 0
M  V30 3011 H 311.387 5.02373 0.251128 0
M  V30 3012 H 311.087 5.71579 -1.36277 0
M  V30 3013 H 312.611 6.08495 -0.50654 0
M  V30 3014 H 314.025 5.12671 -2.56595 0
M  V30 3015 H 312.422 4.98296 -3.34397 0
M  V30 3016 H 313.492 3.57083 -3.28054 0
M  V30 3017 N 314.835 0.952656 1.25548 0
M  V30 3018 C 316.082 0.606373 1.93208 0
M  V30 3019 C 316.41 -0.85631 1.74636 0
M  V30 3020 O 315.665 -1.62951 1.08376 0
M  V30 3021 C 315.964 0.908818 3.45652 0
M  V30 3022 C 315.63 2.35722 3.84378 0
M  V30 3023 C 314.292 2.75312 3.9466 0
M  V30 3024 C 316.644 3.29793 4.03591 0
M  V30 3025 C 313.972 4.08047 4.21562 0
M  V30 3026 C 316.324 4.62138 4.31985 0
M  V30 3027 C 314.988 5.01528 4.40484 0
M  V30 3028 H 314.258 0.221888 0.706998 0
M  V30 3029 H 316.905 1.20132 1.49133 0
M  V30 3030 H 315.21 0.231456 3.91116 0
M  V30 3031 H 316.907 0.619498 3.96186 0
M  V30 3032 H 313.497 2.04017 3.76928 0
M  V30 3033 H 317.681 3.00397 3.95064 0
M  V30 3034 H 312.937 4.38212 4.26357 0
M  V30 3035 H 317.111 5.35012 4.45797 0
M  V30 3036 H 314.738 6.04406 4.61083 0
M  V30 3037 N 316.313 -1.40141 0.720998 0
M  V30 3038 C 317.223 -2.34486 0.0731031 0
M  V30 3039 C 318.239 -1.57587 -0.737723 0
M  V30 3040 O 319.415 -1.89949 -0.669429 0
M  V30 3041 C 316.48 -3.36528 -0.833656 0
M  V30 3042 C 315.541 -4.29298 -0.0121673 0
M  V30 3043 C 314.774 -5.26466 -0.875742 0
M  V30 3044 O 314.997 -5.29745 -2.11485 0
M  V30 3045 O 313.931 -6.01092 -0.31185 0
M  V30 3046 H 317.757 -2.9152 0.851444 0
M  V30 3047 H 315.342 -1.41427 0.481527 0
M  V30 3048 H 317.224 -3.99093 -1.35289 0
M  V30 3049 H 315.899 -2.81899 -1.59105 0
M  V30 3050 H 314.806 -3.70001 0.552262 0
M  V30 3051 H 316.139 -4.87094 0.707129 0
M  V30 3052 N 317.792 -0.46758 -1.50504 0
M  V30 3053 C 318.724 0.364655 -2.26281 0
M  V30 3054 C 319.737 0.960151 -1.31472 0
M  V30 3055 O 320.926 0.849153 -1.57008 0
M  V30 3056 C 318.026 1.52509 -3.02645 0
M  V30 3057 C 317.199 1.04302 -4.24782 0
M  V30 3058 C 316.258 2.07709 -4.8347 0
M  V30 3059 O 315.284 1.65913 -5.44483 0
M  V30 3060 N 316.486 3.40485 -4.70159 0
M  V30 3061 H 319.251 -0.28495 -2.98342 0
M  V30 3062 H 316.812 -0.298163 -1.59131 0
M  V30 3063 H 318.804 2.21371 -3.38787 0
M  V30 3064 H 317.374 2.07945 -2.33404 0
M  V30 3065 H 316.594 0.180393 -3.93787 0
M  V30 3066 H 317.882 0.698798 -5.03978 0
M  V30 3067 H 317.28 3.77155 -4.21629 0
M  V30 3068 H 315.837 4.05156 -5.1058 0
M  V30 3069 N 319.27 1.56325 -0.20005 0
M  V30 3070 C 320.5 2.01811 0.442232 0
M  V30 3071 C 320.908 1.07932 1.55394 0
M  V30 3072 O 320.251 0.0772685 1.83537 0
M  V30 3073 C 320.313 3.43685 1.05457 0
M  V30 3074 C 319.977 4.56928 0.0809833 0
M  V30 3075 C 320.974 5.15009 -0.711471 0
M  V30 3076 C 318.659 5.0229 -0.0315364 0
M  V30 3077 C 320.653 6.16904 -1.60336 0
M  V30 3078 C 318.34 6.04028 -0.926981 0
M  V30 3079 C 319.338 6.6121 -1.71146 0
M  V30 3080 O 319.026 7.60971 -2.59189 0
M  V30 3081 H 318.758 0.666173 0.114848 0
M  V30 3082 H 321.312 2.03085 -0.307511 0
M  V30 3083 H 319.542 3.39413 1.85299 0
M  V30 3084 H 321.231 3.72948 1.60201 0
M  V30 3085 H 321.997 4.80827 -0.634873 0
M  V30 3086 H 317.876 4.57476 0.568902 0
M  V30 3087 H 321.42 6.61464 -2.21611 0
M  V30 3088 H 317.317 6.37634 -1.00468 0
M  V30 3089 H 318.085 7.7841 -2.53023 0
M  V30 3090 N 320.748 -0.0735177 1.57428 0
M  V30 3091 C 321.997 -0.771809 1.86349 0
M  V30 3092 C 322.31 -1.78828 0.792452 0
M  V30 3093 O 323.516 -2.53602 0.96945 0
M  V30 3094 C 321.972 -1.42358 3.30548 0
M  V30 3095 C 321.58 -0.445761 4.45777 0
M  V30 3096 C 323.324 -2.10434 3.6867 0
M  V30 3097 C 321.231 -1.10335 5.81016 0
M  V30 3098 H 320.161 -0.291999 0.695164 0
M  V30 3099 H 322.812 -0.0250749 1.83483 0
M  V30 3100 H 321.194 -2.21852 3.28021 0
M  V30 3101 H 322.368 0.319239 4.59693 0
M  V30 3102 H 320.683 0.130457 4.16196 0
M  V30 3103 H 323.28 -2.60405 4.67004 0
M  V30 3104 H 323.623 -2.90298 2.98383 0
M  V30 3105 H 324.156 -1.37773 3.7318 0
M  V30 3106 H 320.895 -0.345061 6.54591 0
M  V30 3107 H 320.415 -1.83925 5.70904 0
M  V30 3108 H 322.094 -1.62367 6.26295 0
M  V30 3109 N 322.226 -1.5378 -0.344866 0
M  V30 3110 C 323.174 -1.82373 -1.4437 0
M  V30 3111 C 324.168 -0.694128 -1.54526 0
M  V30 3112 O 325.374 -0.877442 -1.57165 0
M  V30 3113 H 321.749 -0.577765 -0.481344 0
M  V30 3114 H 323.72 -2.74306 -1.17468 0
M  V30 3115 C 322.469 -2.04898 -2.80913 0
M  V30 3116 H 321.792 -2.9127 -2.73865 0
M  V30 3117 H 323.232 -2.28871 -3.56923 0
M  V30 3118 C 321.691 -0.834116 -3.26411 0
M  V30 3119 O 322.221 -0.0328885 -4.01687 0
M  V30 3120 N 320.427 -0.65171 -2.83198 0
M  V30 3121 H 319.974 -1.30489 -2.22104 0
M  V30 3122 H 319.932 0.159686 -3.13994 0
M  V30 3123 N 323.704 0.605807 -1.45491 0
M  V30 3124 C 324.652 1.73754 -1.54636 0
M  V30 3125 C 325.646 1.64207 -0.416219 0
M  V30 3126 O 326.852 1.69979 -0.592199 0
M  V30 3127 H 323.227 0.574073 -0.485741 0
M  V30 3128 H 325.198 1.63169 -2.49837 0
M  V30 3129 C 323.947 3.12135 -1.53189 0
M  V30 3130 H 323.27 3.20141 -2.39478 0
M  V30 3131 H 324.71 3.91147 -1.63645 0
M  V30 3132 C 323.169 3.35921 -0.256616 0
M  V30 3133 O 323.699 3.96194 0.662798 0
M  V30 3134 N 321.905 2.90204 -0.151751 0
M  V30 3135 H 321.452 2.41336 -0.90081 0
M  V30 3136 H 321.41 3.06492 0.700699 0
M  V30 3137 N 325.182 1.32811 0.848464 0
M  V30 3138 C 326.112 1.24882 1.97299 0
M  V30 3139 C 327.093 0.131357 1.69592 0
M  V30 3140 O 328.278 0.319553 1.91553 0
M  V30 3141 C 325.408 0.97746 3.33261 0
M  V30 3142 C 324.362 2.05682 3.75338 0
M  V30 3143 C 323.688 1.63777 5.09 0
M  V30 3144 C 324.988 3.47254 3.90144 0
M  V30 3145 H 326.682 2.18966 2.04191 0
M  V30 3146 H 324.228 1.05413 0.981029 0
M  V30 3147 H 326.181 0.908513 4.1149 0
M  V30 3148 H 324.905 0.000980011 3.266 0
M  V30 3149 H 323.564 2.11603 2.99366 0
M  V30 3150 H 323.212 0.648569 4.98801 0
M  V30 3151 H 322.912 2.36 5.38124 0
M  V30 3152 H 324.436 1.5833 5.89715 0
M  V30 3153 H 325.85 3.43888 4.58709 0
M  V30 3154 H 324.247 4.1788 4.30693 0
M  V30 3155 H 325.317 3.86462 2.92874 0
M  V30 3156 N 326.66 -1.06551 1.16123 0
M  V30 3157 C 328.076 -1.3142 0.905585 0
M  V30 3158 C 328.276 -1.96571 -0.442964 0
M  V30 3159 O 327.332 -2.23068 -1.18308 0
M  V30 3160 C 328.645 -2.19741 2.05267 0
M  V30 3161 C 330.193 -2.33165 2.08813 0
M  V30 3162 C 330.668 -3.24838 3.22868 0
M  V30 3163 N 332.159 -3.32421 3.22568 0
M  V30 3164 C 332.894 -4.0344 4.0746 0
M  V30 3165 N 332.39 -4.77003 5.02434 0
M  V30 3166 N 334.183 -3.99464 3.95456 0
M  V30 3167 H 326.334 -0.626548 2.02949 0
M  V30 3168 H 328.597 -0.338777 0.8854 0
M  V30 3169 H 328.303 -1.79142 3.02657 0
M  V30 3170 H 328.177 -3.20313 1.99198 0
M  V30 3171 H 330.564 -2.73013 1.12018 0
M  V30 3172 H 330.645 -1.3227 2.18948 0
M  V30 3173 H 330.289 -2.85708 4.19921 0
M  V30 3174 H 330.219 -4.25707 3.0997 0
M  V30 3175 H 332.71 -2.79994 2.53795 0
M  V30 3176 H 333.023 -5.28712 5.63634 0
M  V30 3177 H 331.368 -4.75992 5.06415 0
M  V30 3178 H 334.559 -3.4111 3.20564 0
M  V30 3179 H 334.732 -4.54544 4.61837 0
M  V30 3180 N 328.138 -0.959301 -1.25041 0
M  V30 3181 C 329.554 -0.664474 -1.4511 0
M  V30 3182 C 329.754 0.776481 -1.85938 0
M  V30 3183 O 328.81 1.55128 -1.99227 0
M  V30 3184 C 330.123 -1.64139 -2.5195 0
M  V30 3185 C 331.671 -1.65309 -2.65786 0
M  V30 3186 C 332.146 -2.61777 -3.75815 0
M  V30 3187 N 333.637 -2.60169 -3.83231 0
M  V30 3188 C 334.372 -3.31489 -4.6787 0
M  V30 3189 N 333.868 -4.12298 -5.56761 0
M  V30 3190 N 335.661 -3.20354 -4.61876 0
M  V30 3191 H 327.812 -1.89043 -0.968332 0
M  V30 3192 H 330.075 -0.813408 -0.4869 0
M  V30 3193 H 329.781 -2.67086 -2.28819 0
M  V30 3194 H 329.655 -1.40756 -3.49954 0
M  V30 3195 H 332.042 -0.630778 -2.8828 0
M  V30 3196 H 332.123 -1.92753 -1.68167 0
M  V30 3197 H 331.767 -3.64137 -3.54071 0
M  V30 3198 H 331.697 -2.31616 -4.72929 0
M  V30 3199 H 334.188 -2.01507 -3.19692 0
M  V30 3200 H 334.501 -4.63625 -6.18281 0
M  V30 3201 H 332.846 -4.16395 -5.56454 0
M  V30 3202 H 336.037 -2.56692 -3.91442 0
M  V30 3203 H 336.21 -3.76201 -5.27614 0
M  V30 3204 N 329.616 1.39756 -0.72842 0
M  V30 3205 C 330.548 2.29157 -0.0446202 0
M  V30 3206 C 331.561 1.46484 0.710367 0
M  V30 3207 O 332.75 1.69632 0.55562 0
M  V30 3208 C 329.85 3.24987 0.961071 0
M  V30 3209 C 329.023 4.36572 0.268967 0
M  V30 3210 C 328.082 5.12756 1.18184 0
M  V30 3211 O 327.108 5.6534 0.661794 0
M  V30 3212 N 328.31 5.23331 2.51206 0
M  V30 3213 H 331.075 2.88482 -0.812295 0
M  V30 3214 H 328.636 1.51265 -0.577098 0
M  V30 3215 H 330.628 3.72827 1.57423 0
M  V30 3216 H 329.198 2.66739 1.63 0
M  V30 3217 H 328.418 3.90694 -0.524574 0
M  V30 3218 H 329.706 5.08363 -0.210934 0
M  V30 3219 H 329.104 4.82116 2.9594 0
M  V30 3220 H 327.661 5.74634 3.07634 0
M  V30 3221 N 331.094 0.475555 1.50254 0
M  V30 3222 C 332.024 -0.30611 2.31485 0
M  V30 3223 C 333.005 -0.986228 1.38591 0
M  V30 3224 O 334.19 -0.982541 1.67511 0
M  V30 3225 C 331.32 -1.38588 3.1845 0
M  V30 3226 C 330.274 -0.827115 4.19932 0
M  V30 3227 C 329.6 -2.00551 4.95665 0
M  V30 3228 C 330.9 0.16463 5.2204 0
M  V30 3229 H 332.594 0.371866 2.97082 0
M  V30 3230 H 330.14 0.180282 1.42867 0
M  V30 3231 H 332.093 -1.94023 3.74076 0
M  V30 3232 H 330.817 -2.09269 2.50747 0
M  V30 3233 H 329.476 -0.294702 3.65414 0
M  V30 3234 H 329.124 -2.6994 4.2443 0
M  V30 3235 H 328.824 -1.63784 5.64313 0
M  V30 3236 H 330.348 -2.56468 5.54127 0
M  V30 3237 H 331.762 -0.300699 5.72511 0
M  V30 3238 H 330.159 0.446813 5.98434 0
M  V30 3239 H 331.229 1.08905 4.72512 0
M  V30 3240 N 332.573 -1.56217 0.208337 0
M  V30 3241 C 333.85 -1.89739 -0.475234 0
M  V30 3242 C 334.23 -1.1238 -1.78701 0
M  V30 3243 O 333.578 -0.228979 -2.2735 0
M  V30 3244 C 333.788 -3.42289 -0.681101 0
M  V30 3245 C 335.136 -4.12789 -0.994507 0
M  V30 3246 O 336.16 -3.47814 -0.768357 0
M  V30 3247 O 335.019 -5.27649 -1.42299 0
M  V30 3248 H 332.113 -0.788478 -0.249461 0
M  V30 3249 H 334.659 -1.67855 0.249538 0
M  V30 3250 H 333.431 -3.90534 0.244722 0
M  V30 3251 H 333.054 -3.69909 -1.45785 0
M  V30 3252 N 334.051 0.0651679 -1.57465 0
M  V30 3253 C 335.276 0.779605 -1.9219 0
M  V30 3254 C 335.701 1.69988 -0.805333 0
M  V30 3255 O 335.059 1.79685 0.241435 0
M  V30 3256 C 335.107 1.54364 -3.2589 0
M  V30 3257 O 334.211 2.65474 -3.1559 0
M  V30 3258 H 333.552 0.212249 -0.629163 0
M  V30 3259 H 336.082 0.0314294 -2.04576 0
M  V30 3260 H 336.092 1.92146 -3.59922 0
M  V30 3261 H 334.767 0.868457 -4.06732 0
M  V30 3262 H 333.344 2.30501 -2.93128 0
M  V30 3263 N 335.529 1.53961 0.336706 0
M  V30 3264 C 336.778 1.70751 1.07363 0
M  V30 3265 C 337.091 0.481061 1.89592 0
M  V30 3266 O 338.297 0.530046 2.66276 0
M  V30 3267 C 336.753 3.01965 1.95818 0
M  V30 3268 C 336.361 4.31971 1.18764 0
M  V30 3269 C 338.105 3.28121 2.69327 0
M  V30 3270 C 336.012 5.54255 2.06289 0
M  V30 3271 H 334.942 0.636292 0.404535 0
M  V30 3272 H 337.593 1.80459 0.332681 0
M  V30 3273 H 335.975 2.86132 2.7376 0
M  V30 3274 H 337.149 4.5853 0.456849 0
M  V30 3275 H 335.464 4.12481 0.569946 0
M  V30 3276 H 338.061 4.16673 3.35094 0
M  V30 3277 H 338.404 2.45426 3.36261 0
M  V30 3278 H 338.937 3.44762 1.98454 0
M  V30 3279 H 335.676 6.39513 1.43885 0
M  V30 3280 H 335.196 5.31935 2.77138 0
M  V30 3281 H 336.875 5.90159 2.65182 0
M  V30 3282 N 337.007 -0.598083 1.45811 0
M  V30 3283 C 338.253 -1.35882 1.50545 0
M  V30 3284 C 338.586 -1.93616 0.150445 0
M  V30 3285 O 337.861 -1.75604 -0.83628 0
M  V30 3286 C 338.144 -2.49966 2.59208 0
M  V30 3287 C 337.997 -1.97367 4.04186 0
M  V30 3288 C 339.316 -3.52068 2.64076 0
M  V30 3289 H 336.435 -0.492717 0.548087 0
M  V30 3290 H 339.077 -0.673319 1.77669 0
M  V30 3291 H 337.227 -3.08443 2.3621 0
M  V30 3292 H 338.899 -1.43466 4.38423 0
M  V30 3293 H 337.142 -1.283 4.14393 0
M  V30 3294 H 337.813 -2.79649 4.75921 0
M  V30 3295 H 340.289 -3.03448 2.84708 0
M  V30 3296 H 339.165 -4.2937 3.41954 0
M  V30 3297 H 339.426 -4.08304 1.69531 0
M  V30 3298 N 338.485 -1.33259 -0.841409 0
M  V30 3299 C 339.733 -1.24326 -1.59334 0
M  V30 3300 C 340.054 0.191564 -1.94057 0
M  V30 3301 O 339.324 1.11967 -1.60749 0
M  V30 3302 H 337.904 -0.457174 -0.590763 0
M  V30 3303 H 340.566 -1.66947 -1.00571 0
M  V30 3304 H 339.662 -1.8352 -2.52442 0
M  V30 3305 N 339.963 1.05934 -1.16686 0
M  V30 3306 C 340.873 2.17014 -0.891183 0
M  V30 3307 C 341.889 1.73453 0.137907 0
M  V30 3308 O 343.065 2.01361 -0.039592 0
M  V30 3309 C 340.13 3.44384 -0.400099 0
M  V30 3310 C 339.191 4.02433 -1.49486 0
M  V30 3311 C 338.424 5.23723 -1.02711 0
M  V30 3312 O 338.647 5.7027 0.121716 0
M  V30 3313 O 337.581 5.7382 -1.81699 0
M  V30 3314 H 341.407 2.43113 -1.82015 0
M  V30 3315 H 338.992 1.15541 -0.947132 0
M  V30 3316 H 340.874 4.21189 -0.133392 0
M  V30 3317 H 339.549 3.19802 0.500817 0
M  V30 3318 H 338.456 3.27102 -1.81535 0
M  V30 3319 H 339.789 4.31317 -2.37121 0
M  V30 3320 N 341.441 0.965919 1.2453 0
M  V30 3321 C 342.857 0.67216 1.44756 0
M  V30 3322 C 343.057 -0.766609 1.86347 0
M  V30 3323 O 342.113 -1.5407 2.00047 0
M  V30 3324 C 343.426 1.65473 2.51076 0
M  V30 3325 C 344.974 1.66716 2.64905 0
M  V30 3326 C 345.449 2.63766 3.74421 0
M  V30 3327 N 346.94 2.62198 3.81846 0
M  V30 3328 C 347.675 3.33966 4.66106 0
M  V30 3329 N 347.171 4.15245 5.54566 0
M  V30 3330 N 348.964 3.22799 4.60171 0
M  V30 3331 H 341.115 1.89553 0.958293 0
M  V30 3332 H 343.378 0.815979 0.482579 0
M  V30 3333 H 343.084 2.68296 2.27399 0
M  V30 3334 H 342.958 1.4261 3.49202 0
M  V30 3335 H 345.345 0.646057 2.87941 0
M  V30 3336 H 345.426 1.93642 1.67142 0
M  V30 3337 H 345.07 3.6601 3.52135 0
M  V30 3338 H 345 2.34121 4.71694 0
M  V30 3339 H 347.491 2.032 3.18619 0
M  V30 3340 H 347.804 4.66898 6.15814 0
M  V30 3341 H 346.149 4.1934 5.54237 0
M  V30 3342 H 349.34 2.58764 3.90075 0
M  V30 3343 H 349.513 3.78994 5.25612 0
M  V30 3344 N 342.919 -1.39368 0.735821 0
M  V30 3345 C 344.167 -2.00101 0.283562 0
M  V30 3346 C 344.488 -1.5868 -1.13338 0
M  V30 3347 O 343.758 -0.835423 -1.77193 0
M  V30 3348 H 342.338 -0.740024 0.101851 0
M  V30 3349 H 345 -1.70404 0.945962 0
M  V30 3350 H 344.096 -3.10323 0.332604 0
M  V30 3351 N 344.397 -0.483516 -1.5 0
M  V30 3352 C 345.813 -0.138404 -1.58999 0
M  V30 3353 C 346.013 1.35597 -1.4905 0
M  V30 3354 O 345.069 2.13039 -1.35539 0
M  V30 3355 C 346.382 -0.699658 -2.92447 0
M  V30 3356 C 347.93 -0.664195 -3.05872 0
M  V30 3357 C 348.405 -1.20321 -4.41913 0
M  V30 3358 N 349.896 -1.16315 -4.48358 0
M  V30 3359 C 350.631 -1.55058 -5.52037 0
M  V30 3360 N 350.127 -2.01311 -6.62907 0
M  V30 3361 N 351.92 -1.46584 -5.42651 0
M  V30 3362 H 344.071 -1.45529 -1.5471 0
M  V30 3363 H 346.334 -0.60258 -0.731848 0
M  V30 3364 H 346.04 -1.747 -3.05242 0
M  V30 3365 H 345.914 -0.150194 -3.76901 0
M  V30 3366 H 348.301 0.374272 -2.92717 0
M  V30 3367 H 348.382 -1.25061 -2.23144 0
M  V30 3368 H 348.026 -2.24037 -4.55818 0
M  V30 3369 H 347.956 -0.592896 -5.23252 0
M  V30 3370 H 350.447 -0.824058 -3.68806 0
M  V30 3371 H 350.76 -2.2899 -7.38095 0
M  V30 3372 H 349.105 -2.05273 -6.63994 0
M  V30 3373 H 352.296 -1.10281 -4.54924 0
M  V30 3374 H 352.469 -1.77103 -6.23329 0
M  V30 3375 N 345.875 1.56104 -0.216619 0
M  V30 3376 C 346.805 2.23063 0.690296 0
M  V30 3377 C 347.786 1.20072 1.20485 0
M  V30 3378 O 348.971 1.48643 1.24976 0
M  V30 3379 C 346.101 2.90672 1.90072 0
M  V30 3380 C 345.055 4.00092 1.5202 0
M  V30 3381 C 344.381 4.54972 2.80899 0
M  V30 3382 C 345.681 5.17398 0.71391 0
M  V30 3383 H 347.375 2.99109 0.132038 0
M  V30 3384 H 344.921 1.43866 0.0620664 0
M  V30 3385 H 346.874 3.36204 2.54057 0
M  V30 3386 H 345.598 2.12066 2.48386 0
M  V30 3387 H 344.257 3.55283 0.903839 0
M  V30 3388 H 343.905 3.73102 3.37348 0
M  V30 3389 H 343.605 5.28817 2.56176 0
M  V30 3390 H 345.129 5.0322 3.45836 0
M  V30 3391 H 346.543 5.59342 1.25735 0
M  V30 3392 H 344.94 5.97444 0.563951 0
M  V30 3393 H 346.01 4.84088 -0.280527 0
M  V30 3394 N 347.353 -0.0568162 1.57498 0
M  V30 3395 C 348.63 -0.786954 1.79071 0
M  V30 3396 C 349.01 -1.95028 0.80792 0
M  V30 3397 O 348.358 -2.27968 -0.155858 0
M  V30 3398 C 348.568 -1.24594 3.26002 0
M  V30 3399 C 349.916 -1.67323 3.90241 0
M  V30 3400 O 350.94 -1.34124 3.29984 0
M  V30 3401 O 349.799 -2.28842 4.9628 0
M  V30 3402 H 346.893 -0.378262 0.735423 0
M  V30 3403 H 349.439 -0.035734 1.69662 0
M  V30 3404 H 348.211 -0.41423 3.89101 0
M  V30 3405 H 347.834 -2.05803 3.40192 0
M  V30 3406 N 348.832 -1.54138 -0.328536 0
M  V30 3407 C 350.057 -1.76378 -1.09112 0
M  V30 3408 C 350.482 -0.508596 -1.81094 0
M  V30 3409 O 349.84 0.539598 -1.73084 0
M  V30 3410 C 349.888 -2.95358 -2.06872 0
M  V30 3411 O 348.992 -2.66556 -3.14677 0
M  V30 3412 H 348.333 -0.584614 -0.314838 0
M  V30 3413 H 350.863 -2.01146 -0.374348 0
M  V30 3414 H 350.873 -3.22566 -2.4983 0
M  V30 3415 H 349.548 -3.86385 -1.5388 0
M  V30 3416 H 348.125 -2.50282 -2.7643 0
M  V30 3417 N 350.31 0.590341 -1.46126 0
M  V30 3418 C 351.22 1.72793 -1.58681 0
M  V30 3419 C 352.236 1.67516 -0.470566 0
M  V30 3420 O 353.412 1.87562 -0.733642 0
M  V30 3421 C 350.477 3.09287 -1.5666 0
M  V30 3422 C 349.538 3.25886 -2.79458 0
M  V30 3423 C 348.771 4.55869 -2.77524 0
M  V30 3424 O 348.994 5.3928 -1.85832 0
M  V30 3425 O 347.928 4.75552 -3.68964 0
M  V30 3426 H 351.754 1.65149 -2.54872 0
M  V30 3427 H 349.339 0.756486 -1.28832 0
M  V30 3428 H 351.221 3.90577 -1.58202 0
M  V30 3429 H 349.896 3.17385 -0.636271 0
M  V30 3430 H 348.803 2.44119 -2.83472 0
M  V30 3431 H 350.136 3.22675 -3.71674 0
M  V30 3432 N 351.788 1.33704 0.83433 0
M  V30 3433 C 352.718 1.26967 1.95963 0
M  V30 3434 C 353.699 0.149337 1.69443 0
M  V30 3435 O 354.884 0.339852 1.91203 0
M  V30 3436 C 352.014 1.01275 3.32206 0
M  V30 3437 C 350.968 2.09652 3.73136 0
M  V30 3438 C 350.294 1.69166 5.07235 0
M  V30 3439 C 351.594 3.51372 3.86439 0
M  V30 3440 H 353.288 2.2112 2.01857 0
M  V30 3441 H 350.834 1.06447 0.969793 0
M  V30 3442 H 352.787 0.952106 4.10503 0
M  V30 3443 H 351.511 0.0356203 3.26581 0
M  V30 3444 H 350.17 2.14766 2.97104 0
M  V30 3445 H 349.818 0.701437 4.98085 0
M  V30 3446 H 349.518 2.41694 5.35591 0
M  V30 3447 H 351.042 1.64576 5.88003 0
M  V30 3448 H 352.456 3.48734 4.55036 0
M  V30 3449 H 350.853 4.22425 4.26236 0
M  V30 3450 H 351.923 3.89546 2.88759 0
M  V30 3451 N 353.266 -1.05314 1.17247 0
M  V30 3452 C 354.682 -1.30452 0.919473 0
M  V30 3453 C 354.882 -1.9703 -0.42209 0
M  V30 3454 O 353.938 -2.24311 -1.15935 0
M  V30 3455 C 355.251 -2.17551 2.07586 0
M  V30 3456 C 356.799 -2.30937 2.11275 0
M  V30 3457 C 357.274 -3.21396 3.26296 0
M  V30 3458 N 358.765 -3.28981 3.26076 0
M  V30 3459 C 359.5 -3.99095 4.11716 0
M  V30 3460 N 358.996 -4.71648 5.07465 0
M  V30 3461 N 360.789 -3.95247 3.9967 0
M  V30 3462 H 352.94 -0.604988 2.03602 0
M  V30 3463 H 355.203 -0.329368 0.888944 0
M  V30 3464 H 354.909 -1.75921 3.0454 0
M  V30 3465 H 354.783 -3.18182 2.02584 0
M  V30 3466 H 357.17 -2.71809 1.14907 0
M  V30 3467 H 357.251 -1.2994 2.20339 0
M  V30 3468 H 356.895 -2.81238 4.22927 0
M  V30 3469 H 356.825 -4.22395 3.14467 0
M  V30 3470 H 359.316 -2.77286 2.5675 0
M  V30 3471 H 359.629 -5.22705 5.6921 0
M  V30 3472 H 357.974 -4.70594 5.11435 0
M  V30 3473 H 361.165 -3.37691 3.24164 0
M  V30 3474 H 361.338 -4.4962 4.66632 0
M  V30 3475 N 354.744 -0.972509 -1.24016 0
M  V30 3476 C 355.992 -0.635776 -1.91839 0
M  V30 3477 C 356.313 0.832312 -1.76345 0
M  V30 3478 O 355.583 1.5946 -1.13795 0
M  V30 3479 H 354.163 -0.232157 -0.710009 0
M  V30 3480 H 356.825 -1.23462 -1.50809 0
M  V30 3481 H 355.921 -0.880545 -2.99421 0
M  V30 3482 N 356.222 1.38976 -0.743202 0
M  V30 3483 C 357.155 2.28128 -0.0572165 0
M  V30 3484 C 358.133 1.44827 0.739182 0
M  V30 3485 O 359.317 1.74207 0.720009 0
M  V30 3486 C 356.444 3.25796 0.926001 0
M  V30 3487 C 355.49 4.25947 0.217099 0
M  V30 3488 S 356.323 5.24604 -1.07477 0
M  V30 3489 C 357.479 6.25829 -0.0943545 0
M  V30 3490 H 357.712 2.85961 -0.813246 0
M  V30 3491 H 355.245 1.44822 -0.535341 0
M  V30 3492 H 357.203 3.82583 1.48797 0
M  V30 3493 H 355.864 2.66966 1.65493 0
M  V30 3494 H 355.057 4.94746 0.961372 0
M  V30 3495 H 354.659 3.73002 -0.273059 0
M  V30 3496 H 356.951 6.73411 0.743239 0
M  V30 3497 H 357.894 7.0412 -0.749713 0
M  V30 3498 H 358.302 5.63797 0.281706 0
M  V30 3499 N 357.7 0.491464 1.49741 0
M  V30 3500 C 358.632 -0.328609 2.26832 0
M  V30 3501 C 359.645 -0.939113 1.32983 0
M  V30 3502 O 360.834 -0.824067 1.58339 0
M  V30 3503 C 357.934 -1.47675 3.05033 0
M  V30 3504 C 357.107 -0.975305 4.26388 0
M  V30 3505 C 356.166 -1.99991 4.86714 0
M  V30 3506 O 355.192 -1.57229 5.47054 0
M  V30 3507 N 356.394 -3.32962 4.75517 0
M  V30 3508 H 359.159 0.332377 2.97851 0
M  V30 3509 H 356.72 0.323441 1.58636 0
M  V30 3510 H 358.712 -2.15954 3.42266 0
M  V30 3511 H 357.282 -2.04206 2.36683 0
M  V30 3512 H 356.502 -0.117723 3.94024 0
M  V30 3513 H 357.79 -0.618531 5.05026 0
M  V30 3514 H 357.188 -3.70399 4.27576 0
M  V30 3515 H 355.745 -3.96982 5.16961 0
M  V30 3516 N 359.178 -1.55987 0.224894 0
M  V30 3517 C 360.455 -1.90232 -0.455083 0
M  V30 3518 C 360.835 -1.14269 -1.77499 0
M  V30 3519 O 360.183 -0.253079 -2.27094 0
M  V30 3520 C 360.393 -3.42993 -0.644758 0
M  V30 3521 C 361.741 -4.13821 -0.950669 0
M  V30 3522 O 362.765 -3.4861 -0.731423 0
M  V30 3523 O 361.624 -5.29128 -1.36695 0
M  V30 3524 H 358.718 -0.79108 -0.241084 0
M  V30 3525 H 361.264 -1.67581 0.267327 0
M  V30 3526 H 360.036 -3.90252 0.28613 0
M  V30 3527 H 359.659 -3.71434 -1.41853 0
M  V30 3528 N 360.656 0.0484629 -1.57525 0
M  V30 3529 C 361.586 1.0549 -2.08313 0
M  V30 3530 C 362.567 1.38929 -0.981463 0
M  V30 3531 O 363.752 1.48151 -1.25558 0
M  V30 3532 C 360.882 2.36162 -2.54646 0
M  V30 3533 C 359.836 2.17016 -3.68901 0
M  V30 3534 C 359.162 3.53278 -4.01371 0
M  V30 3535 C 360.462 1.57219 -4.98076 0
M  V30 3536 H 362.156 0.632195 -2.92649 0
M  V30 3537 H 359.702 0.302654 -1.40784 0
M  V30 3538 H 361.655 3.06882 -2.88793 0
M  V30 3539 H 360.379 2.80456 -1.67368 0
M  V30 3540 H 359.038 1.48733 -3.35073 0
M  V30 3541 H 358.686 3.95185 -3.11188 0
M  V30 3542 H 358.386 3.41299 -4.78318 0
M  V30 3543 H 359.91 4.25391 -4.38035 0
M  V30 3544 H 361.324 2.17832 -5.30304 0
M  V30 3545 H 359.721 1.55871 -5.79503 0
M  V30 3546 H 360.791 0.535956 -4.81929 0
M  V30 3547 N 362.134 1.5431 0.320358 0
M  V30 3548 C 363.38 1.72924 1.05949 0
M  V30 3549 C 363.713 0.503185 1.87568 0
M  V30 3550 O 362.988 -0.499839 1.87968 0
M  V30 3551 C 363.271 3.00676 1.98156 0
M  V30 3552 C 363.124 4.3354 1.19845 0
M  V30 3553 C 364.443 3.24198 2.9763 0
M  V30 3554 H 361.562 0.629195 0.383774 0
M  V30 3555 H 364.204 1.87008 0.335854 0
M  V30 3556 H 362.354 2.888 2.59859 0
M  V30 3557 H 364.026 4.57305 0.605773 0
M  V30 3558 H 362.269 4.309 0.500784 0
M  V30 3559 H 362.94 5.19156 1.87567 0
M  V30 3560 H 365.416 3.35557 2.4605 0
M  V30 3561 H 364.292 4.14938 3.59329 0
M  V30 3562 H 364.553 2.41577 3.7026 0
M  V30 3563 N 363.613 -0.582584 1.46437 0
M  V30 3564 C 364.523 -1.71949 1.59595 0
M  V30 3565 C 365.539 -1.67264 0.479443 0
M  V30 3566 O 366.715 -1.87171 0.743579 0
M  V30 3567 C 363.78 -3.08452 1.58298 0
M  V30 3568 C 362.841 -3.244 2.81182 0
M  V30 3569 C 362.074 -4.54391 2.79937 0
M  V30 3570 O 362.297 -5.38287 1.8869 0
M  V30 3571 O 361.231 -4.73588 3.71481 0
M  V30 3572 H 365.057 -1.63795 2.55744 0
M  V30 3573 H 362.642 -0.749643 1.29231 0
M  V30 3574 H 364.524 -3.89732 1.60271 0
M  V30 3575 H 363.199 -3.17043 0.653094 0
M  V30 3576 H 362.106 -2.42613 2.84763 0
M  V30 3577 H 363.439 -3.20699 3.7338 0
M  V30 3578 N 365.091 -1.34144 -0.827227 0
M  V30 3579 C 366.368 -1.16844 -1.56865 0
M  V30 3580 C 366.748 0.260654 -2.09485 0
M  V30 3581 O 366.096 1.26138 -1.9053 0
M  V30 3582 C 366.306 -2.21939 -2.6934 0
M  V30 3583 C 367.654 -2.56695 -3.3822 0
M  V30 3584 O 368.678 -2.20695 -2.79593 0
M  V30 3585 O 367.537 -3.18518 -4.44082 0
M  V30 3586 H 364.631 -0.452669 -0.692112 0
M  V30 3587 H 367.177 -1.45763 -0.868973 0
M  V30 3588 H 365.949 -3.17882 -2.28182 0
M  V30 3589 H 365.572 -1.94172 -3.46962 0
M  V30 3590 N 366.569 1.04691 -1.17803 0
M  V30 3591 C 367.816 1.77782 -0.969532 0
M  V30 3592 C 368.144 1.87926 0.501401 0
M  V30 3593 O 367.399 1.37918 1.38842 0
M  V30 3594 C 367.698 3.21467 -1.56186 0
M  V30 3595 C 367.364 3.3137 -3.05786 0
M  V30 3596 C 366.026 3.3378 -3.46619 0
M  V30 3597 C 368.378 3.31976 -4.01797 0
M  V30 3598 C 365.706 3.34431 -4.82051 0
M  V30 3599 C 368.058 3.34167 -5.37136 0
M  V30 3600 C 366.722 3.34866 -5.77426 0
M  V30 3601 H 365.992 0.650549 -0.354777 0
M  V30 3602 H 368.639 1.23006 -1.46772 0
M  V30 3603 H 366.944 3.79203 -0.985515 0
M  V30 3604 H 368.641 3.76652 -1.37602 0
M  V30 3605 H 365.231 3.3021 -2.73238 0
M  V30 3606 H 369.415 3.29311 -3.71306 0
M  V30 3607 H 364.671 3.33285 -5.12573 0
M  V30 3608 H 368.845 3.33585 -6.11305 0
M  V30 3609 H 366.472 3.35124 -6.82346 0
M  V30 3610 N 368.047 0.979072 1.23499 0
M  V30 3611 C 368.994 0.517904 2.24914 0
M  V30 3612 C 369.964 -0.442525 1.60097 0
M  V30 3613 O 371.149 -0.350365 1.87556 0
M  V30 3614 C 368.289 -0.174813 3.44657 0
M  V30 3615 C 367.402 0.825721 4.24035 0
M  V30 3616 C 366.537 0.107946 5.3109 0
M  V30 3617 C 365.576 1.09778 6.02175 0
M  V30 3618 N 364.713 0.40925 7.00906 0
M  V30 3619 H 369.553 1.38751 2.63727 0
M  V30 3620 H 367.09 0.695303 1.2963 0
M  V30 3621 H 369.048 -0.593233 4.12961 0
M  V30 3622 H 367.678 -1.0083 3.06648 0
M  V30 3623 H 366.73 1.36253 3.55161 0
M  V30 3624 H 368.042 1.58005 4.73113 0
M  V30 3625 H 367.196 -0.367904 6.05583 0
M  V30 3626 H 365.935 -0.678994 4.8295 0
M  V30 3627 H 364.94 1.5844 5.26476 0
M  V30 3628 H 366.165 1.88536 6.52404 0
M  V30 3629 H 364.111 -0.358506 6.5502 0
M  V30 3630 H 364.028 1.10226 7.47921 0
M  V30 3631 H 365.296 -0.0442557 7.79487 0
M  V30 3632 N 369.525 -1.3858 0.750561 0
M  V30 3633 C 370.473 -2.32339 0.110162 0
M  V30 3634 C 371.467 -1.53864 -0.708674 0
M  V30 3635 O 372.673 -1.69417 -0.608112 0
M  V30 3636 H 369.048 -0.751812 0.0168275 0
M  V30 3637 H 371.019 -2.83959 0.917053 0
M  V30 3638 C 369.768 -3.39043 -0.771067 0
M  V30 3639 H 369.091 -3.99517 -0.150374 0
M  V30 3640 H 370.531 -4.07061 -1.1865 0
M  V30 3641 C 368.99 -2.77365 -1.91234 0
M  V30 3642 O 369.52 -2.66434 -3.00626 0
M  V30 3643 N 367.726 -2.35219 -1.70646 0
M  V30 3644 H 367.273 -2.4431 -0.81673 0
M  V30 3645 H 367.231 -1.94294 -2.47178 0
M  V30 3646 N 371.003 -0.499398 -1.49478 0
M  V30 3647 C 371.95 0.279881 -2.29097 0
M  V30 3648 C 372.92 0.961805 -1.3542 0
M  V30 3649 O 374.105 0.968777 -1.64376 0
M  V30 3650 C 371.245 1.33932 -3.18051 0
M  V30 3651 C 370.358 0.669333 -4.26783 0
M  V30 3652 C 369.493 1.70907 -5.02955 0
M  V30 3653 C 368.532 1.02087 -6.03527 0
M  V30 3654 N 367.669 2.00474 -6.7287 0
M  V30 3655 H 372.509 -0.405317 -2.95231 0
M  V30 3656 H 370.046 -0.211726 -1.45568 0
M  V30 3657 H 372.004 1.96553 -3.67998 0
M  V30 3658 H 370.634 1.9933 -2.53904 0
M  V30 3659 H 369.686 -0.0701234 -3.80335 0
M  V30 3660 H 370.998 0.127503 -4.98637 0
M  V30 3661 H 370.152 2.41037 -5.56764 0
M  V30 3662 H 368.891 2.28476 -4.30871 0
M  V30 3663 H 367.896 0.305338 -5.48951 0
M  V30 3664 H 369.121 0.451708 -6.77596 0
M  V30 3665 H 367.067 2.57007 -6.03559 0
M  V30 3666 H 366.984 1.51353 -7.40694 0
M  V30 3667 H 368.252 2.69897 -7.31284 0
M  V30 3668 N 372.481 1.55866 -0.233164 0
M  V30 3669 C 373.711 2.02704 0.399325 0
M  V30 3670 C 374.119 1.11204 1.53069 0
M  V30 3671 O 373.462 0.116182 1.83332 0
M  V30 3672 C 373.524 3.45844 0.981429 0
M  V30 3673 C 373.188 4.56997 -0.0159561 0
M  V30 3674 C 374.185 5.13384 -0.820552 0
M  V30 3675 C 371.87 5.0211 -0.138072 0
M  V30 3676 C 373.864 6.13365 -1.73386 0
M  V30 3677 C 371.551 6.01926 -1.0549 0
M  V30 3678 C 372.549 6.57431 -1.85132 0
M  V30 3679 O 372.237 7.55302 -2.75272 0
M  V30 3680 H 371.969 0.668459 0.100692 0
M  V30 3681 H 374.523 2.02387 -0.35052 0
M  V30 3682 H 372.753 3.43267 1.78058 0
M  V30 3683 H 374.442 3.76262 1.52255 0
M  V30 3684 H 375.208 4.79372 -0.736721 0
M  V30 3685 H 371.087 4.5858 0.471737 0
M  V30 3686 H 374.631 6.56614 -2.35592 0
M  V30 3687 H 370.528 6.35359 -1.1397 0
M  V30 3688 H 371.296 7.72867 -2.69477 0
M  V30 3689 N 373.959 -0.0401083 1.57549 0
M  V30 3690 C 374.869 -1.06133 2.0922 0
M  V30 3691 C 375.885 -1.40356 1.0284 0
M  V30 3692 O 377.061 -1.49897 1.34509 0
M  V30 3693 C 374.126 -2.34658 2.55218 0
M  V30 3694 C 373.187 -2.07117 3.76033 0
M  V30 3695 C 372.42 -3.29514 4.19829 0
M  V30 3696 O 372.643 -4.39794 3.63232 0
M  V30 3697 O 371.577 -3.15863 5.12362 0
M  V30 3698 H 375.403 -0.652244 2.96613 0
M  V30 3699 H 372.988 -0.256368 1.47184 0
M  V30 3700 H 374.87 -3.10239 2.85184 0
M  V30 3701 H 373.545 -2.74883 1.70941 0
M  V30 3702 H 372.452 -1.29139 3.51104 0
M  V30 3703 H 373.785 -1.71754 4.61261 0
M  V30 3704 N 375.437 -1.54477 -0.31217 0
M  V30 3705 C 376.714 -1.63891 -1.06767 0
M  V30 3706 C 377.094 -0.480028 -2.0557 0
M  V30 3707 O 376.442 0.524487 -2.22399 0
M  V30 3708 C 376.652 -3.01402 -1.75948 0
M  V30 3709 C 378 -3.57838 -2.28554 0
M  V30 3710 O 379.024 -3.03782 -1.85998 0
M  V30 3711 O 377.883 -4.52462 -3.06497 0
M  V30 3712 H 374.977 -0.664125 -0.492816 0
M  V30 3713 H 377.523 -1.66823 -0.311149 0
M  V30 3714 H 376.295 -3.77187 -1.04144 0
M  V30 3715 H 375.918 -3.02199 -2.58383 0
M  V30 3716 N 376.915 0.57481 -1.46744 0
M  V30 3717 C 377.825 1.711 -1.60505 0
M  V30 3718 C 378.841 1.67008 -0.488307 0
M  V30 3719 O 380.017 1.86774 -0.753495 0
M  V30 3720 C 377.082 3.07608 -1.59932 0
M  V30 3721 C 376.143 3.22904 -2.82898 0
M  V30 3722 C 375.376 4.529 -2.82343 0
M  V30 3723 O 375.599 5.37278 -1.91542 0
M  V30 3724 O 374.533 4.71611 -3.73987 0
M  V30 3725 H 378.359 1.62436 -2.56609 0
M  V30 3726 H 375.944 0.742779 -1.29627 0
M  V30 3727 H 377.826 3.88877 -1.62336 0
M  V30 3728 H 376.501 3.16692 -0.669898 0
M  V30 3729 H 375.408 2.41099 -2.86046 0
M  V30 3730 H 376.741 3.18715 -3.75076 0
M  V30 3731 N 378.394 1.34581 0.820102 0
M  V30 3732 C 379.643 1.26437 1.57151 0
M  V30 3733 C 379.956 -0.163111 1.94919 0
M  V30 3734 O 381.162 -0.366722 2.69012 0
M  V30 3735 C 379.618 2.21658 2.83541 0
M  V30 3736 C 379.226 3.69679 2.53065 0
M  V30 3737 C 380.97 2.22428 3.61561 0
M  V30 3738 C 378.877 4.56761 3.75664 0
M  V30 3739 H 377.807 0.469707 0.589823 0
M  V30 3740 H 380.458 1.59763 0.902656 0
M  V30 3741 H 378.84 1.81287 3.52067 0
M  V30 3742 H 380.014 4.18605 1.92631 0
M  V30 3743 H 378.329 3.71384 1.88316 0
M  V30 3744 H 380.926 2.8471 4.52597 0
M  V30 3745 H 381.269 1.22434 3.97889 0
M  V30 3746 H 381.802 2.61259 2.99981 0
M  V30 3747 H 378.541 5.57702 3.44454 0
M  V30 3748 H 378.061 4.12568 4.35371 0
M  V30 3749 H 379.74 4.71509 4.43044 0
M  V30 3750 N 379.872 -1.04064 1.18357 0
M  V30 3751 C 380.82 -2.14187 0.907007 0
M  V30 3752 C 381.814 -1.68879 -0.132725 0
M  V30 3753 O 383.02 -1.79993 0.0154248 0
M  V30 3754 H 379.395 -0.699585 0.275835 0
M  V30 3755 H 381.366 -2.34711 1.84264 0
M  V30 3756 C 380.115 -3.44785 0.449254 0
M  V30 3757 H 379.438 -3.80058 1.24081 0
M  V30 3758 H 380.878 -4.22974 0.294737 0
M  V30 3759 C 379.337 -3.26391 -0.834909 0
M  V30 3760 O 379.867 -3.53973 -1.89911 0
M  V30 3761 N 378.073 -2.79726 -0.787523 0
M  V30 3762 H 377.62 -2.5748 0.0787347 0
M  V30 3763 H 377.578 -2.67798 -1.64716 0
M  V30 3764 N 381.35 -0.985608 -1.22978 0
M  V30 3765 C 382.297 -0.529825 -2.24636 0
M  V30 3766 C 383.267 0.434028 -1.60329 0
M  V30 3767 O 384.452 0.340414 -1.87739 0
M  V30 3768 C 381.592 0.156533 -3.44745 0
M  V30 3769 C 380.705 -0.848197 -4.23591 0
M  V30 3770 C 379.84 -0.136109 -5.31026 0
M  V30 3771 C 378.879 -1.1297 -6.01585 0
M  V30 3772 N 378.016 -0.446415 -7.00679 0
M  V30 3773 H 382.856 -1.40148 -2.62988 0
M  V30 3774 H 380.393 -0.702168 -1.29259 0
M  V30 3775 H 382.351 0.571324 -4.1327 0
M  V30 3776 H 380.981 0.992025 -3.07179 0
M  V30 3777 H 380.033 -1.38135 -3.54433 0
M  V30 3778 H 381.345 -1.60512 -4.72268 0
M  V30 3779 H 380.499 0.335784 -6.0577 0
M  V30 3780 H 379.238 0.653373 -4.83304 0
M  V30 3781 H 378.243 -1.6123 -5.25628 0
M  V30 3782 H 379.468 -1.91993 -6.51395 0
M  V30 3783 H 377.414 0.323763 -6.55201 0
M  V30 3784 H 377.331 -1.1419 -7.47326 0
M  V30 3785 H 378.599 0.00291697 -7.795 0
M  V30 3786 N 382.828 1.3818 -0.7579 0
M  V30 3787 C 384.244 1.5353 -0.435972 0
M  V30 3788 C 384.444 1.71961 1.05032 0
M  V30 3789 O 383.5 1.73307 1.83633 0
M  V30 3790 C 384.813 2.73989 -1.23898 0
M  V30 3791 C 386.361 2.87841 -1.22949 0
M  V30 3792 C 386.836 4.11266 -2.01554 0
M  V30 3793 N 388.327 4.18352 -1.98837 0
M  V30 3794 C 389.062 5.12856 -2.5645 0
M  V30 3795 N 388.558 6.13005 -3.22794 0
M  V30 3796 N 390.351 5.05238 -2.46356 0
M  V30 3797 H 382.502 1.24467 -1.7211 0
M  V30 3798 H 384.765 0.604982 -0.729864 0
M  V30 3799 H 384.471 2.66789 -2.29165 0
M  V30 3800 H 384.345 3.67294 -0.858764 0
M  V30 3801 H 386.732 2.9452 -0.184854 0
M  V30 3802 H 386.813 1.95534 -1.64924 0
M  V30 3803 H 386.457 4.05349 -3.06031 0
M  V30 3804 H 386.387 5.02661 -1.5697 0
M  V30 3805 H 388.878 3.46628 -1.50524 0
M  V30 3806 H 389.191 6.81619 -3.64165 0
M  V30 3807 H 387.536 6.13325 -3.2689 0
M  V30 3808 H 390.727 4.25938 -1.9415 0
M  V30 3809 H 390.9 5.78707 -2.91552 0
M  V30 3810 N 384.306 0.507319 1.49211 0
M  V30 3811 C 385.534 -0.0315749 2.06876 0
M  V30 3812 C 385.949 -1.30241 1.36685 0
M  V30 3813 O 385.306 -1.76937 0.447152 0
M  V30 3814 C 385.357 -0.282627 3.60393 0
M  V30 3815 O 385.078 0.937835 4.27944 0
M  V30 3816 C 386.579 -0.864453 4.3479 0
M  V30 3817 H 383.799 0.0233048 0.670595 0
M  V30 3818 H 386.343 0.706484 1.91909 0
M  V30 3819 H 384.498 -0.97068 3.75042 0
M  V30 3820 H 384.912 0.704567 5.19746 0
M  V30 3821 H 386.386 -0.989664 5.43056 0
M  V30 3822 H 386.863 -1.86382 3.97692 0
M  V30 3823 H 387.469 -0.213672 4.24763 0
M  V30 3824 N 385.784 -1.5574 0.241426 0
M  V30 3825 C 386.747 -2.19877 -0.647063 0
M  V30 3826 C 387.747 -1.16642 -1.10686 0
M  V30 3827 O 388.937 -1.41757 -1.01245 0
M  V30 3828 C 386.069 -2.83797 -1.88871 0
M  V30 3829 H 387.262 -2.99772 -0.087574 0
M  V30 3830 H 384.815 -1.56298 -0.00813574 0
M  V30 3831 H 385.55 -2.07824 -2.48957 0
M  V30 3832 H 385.335 -3.59414 -1.56728 0
M  V30 3833 H 386.825 -3.32898 -2.52129 0
M  V30 3834 N 387.262 0.0317525 -1.57568 0
M  V30 3835 C 388.225 1.01783 -2.0536 0
M  V30 3836 C 389.225 1.29203 -0.957253 0
M  V30 3837 O 390.415 1.24251 -1.22095 0
M  V30 3838 C 387.547 2.35137 -2.46827 0
M  V30 3839 H 388.74 0.605062 -2.93733 0
M  V30 3840 H 386.293 0.278514 -1.53799 0
M  V30 3841 H 387.028 2.81168 -1.61602 0
M  V30 3842 H 386.813 2.16566 -3.26866 0
M  V30 3843 H 388.303 3.05938 -2.84239 0
M  V30 3844 N 388.74 1.54641 0.303973 0
M  V30 3845 C 389.65 1.88439 1.39743 0
M  V30 3846 C 390.666 0.778239 1.55626 0
M  V30 3847 O 391.842 1.07442 1.70347 0
M  V30 3848 C 388.907 2.12212 2.74166 0
M  V30 3849 C 387.968 3.35936 2.67293 0
M  V30 3850 C 387.201 3.58566 3.95305 0
M  V30 3851 O 387.424 2.84263 4.9452 0
M  V30 3852 O 386.358 4.52078 3.97378 0
M  V30 3853 H 390.184 2.81458 1.14083 0
M  V30 3854 H 387.769 1.40793 0.499768 0
M  V30 3855 H 389.651 2.29067 3.53704 0
M  V30 3856 H 388.326 1.22379 2.99675 0
M  V30 3857 H 387.233 3.24448 1.86237 0
M  V30 3858 H 388.566 4.2589 2.46736 0
M  V30 3859 N 390.218 -0.567019 1.47046 0
M  V30 3860 C 391.166 -1.69593 1.59188 0
M  V30 3861 C 392.16 -1.63046 0.459609 0
M  V30 3862 O 393.366 -1.6835 0.637058 0
M  V30 3863 H 389.741 -0.560993 0.500791 0
M  V30 3864 H 391.712 -1.56488 2.54075 0
M  V30 3865 C 390.461 -3.07964 1.61411 0
M  V30 3866 H 389.784 -3.13679 2.47881 0
M  V30 3867 H 391.224 -3.86671 1.73958 0
M  V30 3868 C 389.683 -3.35123 0.34559 0
M  V30 3869 O 390.213 -3.97812 -0.557521 0
M  V30 3870 N 388.419 -2.89699 0.22864 0
M  V30 3871 H 387.966 -2.38863 0.964479 0
M  V30 3872 H 387.924 -3.08242 -0.619192 0
M  V30 3873 N 391.696 -1.35014 -0.812953 0
M  V30 3874 C 392.606 -1.2951 -1.95613 0
M  V30 3875 C 393.622 -0.20107 -1.72834 0
M  V30 3876 O 394.798 -0.42932 -1.96771 0
M  V30 3877 C 391.863 -1.06033 -3.30088 0
M  V30 3878 C 390.924 -2.24688 -3.65805 0
M  V30 3879 C 390.157 -2.02322 -4.93864 0
M  V30 3880 O 390.38 -0.986464 -5.61805 0
M  V30 3881 O 389.314 -2.89525 -5.27692 0
M  V30 3882 H 393.14 -2.25705 -2.03202 0
M  V30 3883 H 390.725 -1.15321 -0.949811 0
M  V30 3884 H 392.607 -0.94763 -4.10607 0
M  V30 3885 H 391.282 -0.128852 -3.23443 0
M  V30 3886 H 390.189 -2.41521 -2.85689 0
M  V30 3887 H 391.522 -3.16261 -3.77147 0
M  V30 3888 N 393.175 1.03435 -1.18907 0
M  V30 3889 C 394.422 1.76743 -0.988334 0
M  V30 3890 C 394.75 1.88447 0.481441 0
M  V30 3891 O 394.005 1.39383 1.37371 0
M  V30 3892 C 394.304 3.19792 -1.59586 0
M  V30 3893 C 393.97 3.28108 -3.09283 0
M  V30 3894 C 392.632 3.30084 -3.5014 0
M  V30 3895 C 394.984 3.27696 -4.05296 0
M  V30 3896 C 392.312 3.29299 -4.85571 0
M  V30 3897 C 394.664 3.28451 -5.4065 0
M  V30 3898 C 393.328 3.28723 -5.80946 0
M  V30 3899 H 392.598 0.64675 -0.361657 0
M  V30 3900 H 395.245 1.21442 -1.48068 0
M  V30 3901 H 393.55 3.78136 -1.02568 0
M  V30 3902 H 395.247 3.75171 -1.41589 0
M  V30 3903 H 391.837 3.27294 -2.76725 0
M  V30 3904 H 396.021 3.25354 -3.74778 0
M  V30 3905 H 391.277 3.2783 -5.16079 0
M  V30 3906 H 395.451 3.27082 -6.14809 0
M  V30 3907 H 393.078 3.27868 -6.85862 0
M  V30 3908 N 394.653 0.992116 1.22453 0
M  V30 3909 C 395.899 0.668523 1.91464 0
M  V30 3910 C 396.232 -0.797313 1.77078 0
M  V30 3911 O 395.507 -1.5765 1.13916 0
M  V30 3912 C 395.79 1.07424 3.43703 0
M  V30 3913 C 395.643 2.59857 3.67143 0
M  V30 3914 C 396.962 0.626891 4.35612 0
M  V30 3915 H 394.081 0.244341 0.695318 0
M  V30 3916 H 396.723 1.2355 1.44345 0
M  V30 3917 H 394.873 0.591816 3.83966 0
M  V30 3918 H 396.545 3.15764 3.3629 0
M  V30 3919 H 394.788 3.01961 3.11451 0
M  V30 3920 H 395.459 2.83296 4.73759 0
M  V30 3921 H 397.935 1.04125 4.02861 0
M  V30 3922 H 396.811 0.939076 5.40807 0
M  V30 3923 H 397.072 -0.472457 4.39568 0
M  V30 3924 N 396.131 -1.37776 0.765217 0
M  V30 3925 C 397.359 -2.04124 0.337767 0
M  V30 3926 C 397.774 -1.57715 -1.03785 0
M  V30 3927 O 397.131 -0.755447 -1.6613 0
M  V30 3928 C 397.182 -3.59658 0.364442 0
M  V30 3929 O 396.903 -4.04367 1.68579 0
M  V30 3930 C 398.404 -4.43236 -0.0754221 0
M  V30 3931 H 395.624 -0.655696 0.142491 0
M  V30 3932 H 398.168 -1.76238 1.03732 0
M  V30 3933 H 396.323 -3.86339 -0.286471 0
M  V30 3934 H 396.737 -4.98857 1.61993 0
M  V30 3935 H 398.211 -5.52 -0.00560067 0
M  V30 3936 H 398.688 -4.2455 -1.12491 0
M  V30 3937 H 399.294 -4.21767 0.547055 0
M  V30 3938 N 397.609 -0.515225 -1.4894 0
M  V30 3939 C 398.539 0.244628 -2.32215 0
M  V30 3940 C 399.52 0.949136 -1.41157 0
M  V30 3941 O 400.705 0.937783 -1.70057 0
M  V30 3942 C 397.835 1.30096 -3.22013 0
M  V30 3943 C 396.789 0.715486 -4.21977 0
M  V30 3944 C 396.115 1.87339 -5.00808 0
M  V30 3945 C 397.415 -0.302982 -5.2142 0
M  V30 3946 H 399.109 -0.450501 -2.95991 0
M  V30 3947 H 396.655 -0.218098 -1.42339 0
M  V30 3948 H 398.608 1.84037 -3.79089 0
M  V30 3949 H 397.332 2.02547 -2.56207 0
M  V30 3950 H 395.991 0.197715 -3.66066 0
M  V30 3951 H 395.639 2.58592 -4.31438 0
M  V30 3952 H 395.339 1.48764 -5.68457 0
M  V30 3953 H 396.863 2.41686 -5.60732 0
M  V30 3954 H 398.277 0.148802 -5.73107 0
M  V30 3955 H 396.674 -0.60532 -5.97039 0
M  V30 3956 H 397.744 -1.21395 -4.69459 0
M  V30 3957 N 399.087 1.5561 -0.249682 0
M  V30 3958 C 400.034 2.21496 0.648694 0
M  V30 3959 C 401.004 1.17977 1.16921 0
M  V30 3960 O 402.189 1.46434 1.22318 0
M  V30 3961 C 399.329 2.92039 1.83868 0
M  V30 3962 C 398.442 4.10219 1.35442 0
M  V30 3963 C 397.577 4.6847 2.50419 0
M  V30 3964 C 396.616 5.78893 1.98869 0
M  V30 3965 N 395.753 6.31315 3.07223 0
M  V30 3966 H 400.593 2.97892 0.0801582 0
M  V30 3967 H 398.13 1.47074 0.0278031 0
M  V30 3968 H 400.088 3.31138 2.53778 0
M  V30 3969 H 398.718 2.18111 2.37965 0
M  V30 3970 H 397.77 3.76413 0.54928 0
M  V30 3971 H 399.082 4.89927 0.936649 0
M  V30 3972 H 398.236 5.10158 3.28366 0
M  V30 3973 H 396.975 3.87984 2.95499 0
M  V30 3974 H 395.98 5.3668 1.19393 0
M  V30 3975 H 397.205 6.61232 1.54755 0
M  V30 3976 H 395.151 5.53733 3.51732 0
M  V30 3977 H 395.068 7.06224 2.69784 0
M  V30 3978 H 396.336 6.77662 3.8522 0
M  V30 3979 N 400.565 -0.0233959 1.57583 0
M  V30 3980 C 401.512 -1.02224 2.06927 0
M  V30 3981 C 402.482 -1.35575 0.959617 0
M  V30 3982 O 403.667 -1.45815 1.23055 0
M  V30 3983 C 400.807 -2.31636 2.5581 0
M  V30 3984 C 399.92 -2.04394 3.80588 0
M  V30 3985 C 399.055 -3.27717 4.18061 0
M  V30 3986 C 398.094 -2.96056 5.3574 0
M  V30 3987 N 397.231 -4.11847 5.68618 0
M  V30 3988 H 402.071 -0.594504 2.9201 0
M  V30 3989 H 399.608 -0.281921 1.44373 0
M  V30 3990 H 401.566 -3.07258 2.82221 0
M  V30 3991 H 400.196 -2.72122 1.73636 0
M  V30 3992 H 399.248 -1.19244 3.61227 0
M  V30 3993 H 400.56 -1.77042 4.66323 0
M  V30 3994 H 399.714 -4.11702 4.4563 0
M  V30 3995 H 398.453 -3.58188 3.30988 0
M  V30 3996 H 397.458 -2.10474 5.07918 0
M  V30 3997 H 398.683 -2.66857 6.24471 0
M  V30 3998 H 396.629 -4.42258 4.84504 0
M  V30 3999 H 396.546 -3.87938 6.48876 0
M  V30 4000 H 397.814 -4.96689 6.00766 0
M  V30 4001 N 402.043 -1.548 -0.295768 0
M  V30 4002 C 403.32 -1.65014 -1.05023 0
M  V30 4003 C 403.7 -0.501805 -2.05049 0
M  V30 4004 O 403.048 0.500869 -2.22943 0
M  V30 4005 C 403.258 -3.03252 -1.72741 0
M  V30 4006 C 404.606 -3.60242 -2.24746 0
M  V30 4007 O 405.63 -3.05737 -1.82765 0
M  V30 4008 O 404.489 -4.55687 -3.01681 0
M  V30 4009 H 401.583 -0.669314 -0.485744 0
M  V30 4010 H 404.129 -1.67144 -0.293438 0
M  V30 4011 H 402.901 -3.7827 -1.00138 0
M  V30 4012 H 402.524 -3.04922 -2.55163 0
M  V30 4013 N 403.521 0.559213 -1.47345 0
M  V30 4014 C 404.767 1.31843 -1.54095 0
M  V30 4015 C 405.1 1.93149 -0.201726 0
M  V30 4016 O 404.375 1.77759 0.789428 0
M  V30 4017 C 404.658 2.43006 -2.65744 0
M  V30 4018 C 404.511 1.86581 -4.09277 0
M  V30 4019 C 405.83 3.44943 -2.73318 0
M  V30 4020 H 402.949 0.478012 -0.560957 0
M  V30 4021 H 405.591 0.625977 -1.79392 0
M  V30 4022 H 403.741 3.02072 -2.44305 0
M  V30 4023 H 405.413 1.31792 -4.42073 0
M  V30 4024 H 403.656 1.17268 -4.17649 0
M  V30 4025 H 404.327 2.66933 -4.83168 0
M  V30 4026 H 406.803 2.95793 -2.92653 0
M  V30 4027 H 405.679 4.20153 -3.53218 0
M  V30 4028 H 405.94 4.03665 -1.80296 0
M  V30 4029 N 404.999 1.35443 0.805782 0
M  V30 4030 C 406.276 1.19325 1.54987 0
M  V30 4031 C 406.656 -0.227294 2.09873 0
M  V30 4032 O 406.004 -1.2309 1.92512 0
M  V30 4033 C 406.214 2.26196 2.65775 0
M  V30 4034 C 407.562 2.62043 3.34094 0
M  V30 4035 O 408.586 2.25115 2.76046 0
M  V30 4036 O 407.445 3.25542 4.38958 0
M  V30 4037 H 404.539 0.463623 0.684823 0
M  V30 4038 H 407.085 1.47127 0.845674 0
M  V30 4039 H 405.857 3.21471 2.23096 0
M  V30 4040 H 405.48 1.99667 3.43829 0
M  V30 4041 N 406.477 -1.02803 1.19454 0
M  V30 4042 C 407.44 -2.09264 0.934955 0
M  V30 4043 C 408.44 -1.60576 -0.0849015 0
M  V30 4044 O 409.63 -1.73554 0.149933 0
M  V30 4045 C 406.762 -3.38482 0.40531 0
M  V30 4046 H 407.955 -2.33726 1.87916 0
M  V30 4047 H 405.508 -1.19426 1.00832 0
M  V30 4048 H 406.243 -3.19689 -0.544899 0
M  V30 4049 H 406.028 -3.75142 1.14065 0
M  V30 4050 H 407.518 -4.16894 0.242806 0
M  V30 4051 N 407.956 -0.998596 -1.21925 0
M  V30 4052 C 408.919 -0.558679 -2.22287 0
M  V30 4053 C 409.919 0.361525 -1.56683 0
M  V30 4054 O 411.109 0.152695 -1.73529 0
M  V30 4055 C 408.241 0.18661 -3.40389 0
M  V30 4056 H 409.434 -1.4463 -2.62721 0
M  V30 4057 H 406.987 -0.786413 -1.35075 0
M  V30 4058 H 407.722 1.08996 -3.05435 0
M  V30 4059 H 407.507 -0.474188 -3.89222 0
M  V30 4060 H 408.997 0.482367 -4.14805 0
M  V30 4061 N 409.434 1.37368 -0.772513 0
M  V30 4062 C 410.664 2.03647 -0.348082 0
M  V30 4063 C 411.072 1.58392 1.03482 0
M  V30 4064 O 410.415 0.760921 1.672 0
M  V30 4065 C 410.477 3.58131 -0.313404 0
M  V30 4066 C 410.141 4.2652 -1.64102 0
M  V30 4067 C 411.138 4.50587 -2.5936 0
M  V30 4068 C 408.823 4.64335 -1.91567 0
M  V30 4069 C 410.817 5.11526 -3.80289 0
M  V30 4070 C 408.504 5.24996 -3.12766 0
M  V30 4071 C 409.502 5.48529 -4.06946 0
M  V30 4072 O 409.19 6.07921 -5.26011 0
M  V30 4073 H 408.922 0.660538 -0.143753 0
M  V30 4074 H 411.476 1.76669 -1.04772 0
M  V30 4075 H 409.706 3.84159 0.442617 0
M  V30 4076 H 411.395 4.05813 0.0840613 0
M  V30 4077 H 412.161 4.21784 -2.39423 0
M  V30 4078 H 408.04 4.45353 -1.19088 0
M  V30 4079 H 411.584 5.29811 -4.53813 0
M  V30 4080 H 407.481 5.53223 -3.32588 0
M  V30 4081 H 408.249 6.26398 -5.26847 0
M  V30 4082 N 410.912 0.523116 1.48665 0
M  V30 4083 C 411.845 -0.290518 2.26343 0
M  V30 4084 C 412.823 -0.950913 1.31895 0
M  V30 4085 O 414.007 -0.976662 1.61225 0
M  V30 4086 C 411.134 -1.41088 3.07915 0
M  V30 4087 C 410.18 -0.862597 4.17686 0
M  V30 4088 S 411.013 0.264135 5.34848 0
M  V30 4089 C 412.169 -0.858864 6.19979 0
M  V30 4090 H 412.402 0.368726 2.95005 0
M  V30 4091 H 409.935 0.30878 1.51281 0
M  V30 4092 H 411.893 -2.0527 3.55492 0
M  V30 4093 H 410.554 -2.04182 2.38681 0
M  V30 4094 H 409.747 -1.70287 4.74361 0
M  V30 4095 H 409.349 -0.297595 3.72814 0
M  V30 4096 H 411.641 -1.7591 6.54264 0
M  V30 4097 H 412.584 -0.330244 7.07329 0
M  V30 4098 H 412.992 -1.13617 5.52948 0
M  V30 4099 N 412.39 -1.55475 0.257931 0
M  V30 4100 C 413.338 -2.23244 -0.653076 0
M  V30 4101 C 414.332 -1.22366 -1.17144 0
M  V30 4102 O 415.538 -1.40347 -1.12706 0
M  V30 4103 H 411.913 -0.716247 -0.229117 0
M  V30 4104 H 413.884 -2.98343 -0.0584788 0
M  V30 4105 C 412.633 -2.95401 -1.83395 0
M  V30 4106 H 411.956 -3.72802 -1.44424 0
M  V30 4107 H 413.396 -3.46165 -2.44838 0
M  V30 4108 C 411.855 -1.99895 -2.71189 0
M  V30 4109 O 412.385 -1.53909 -3.71046 0
M  V30 4110 N 410.591 -1.6676 -2.3799 0
M  V30 4111 H 410.138 -2.04352 -1.56837 0
M  V30 4112 H 410.096 -1.03127 -2.97005 0
M  V30 4113 N 413.868 0.0150385 -1.57593 0
M  V30 4114 C 414.815 1.01126 -2.07466 0
M  V30 4115 C 415.785 1.35064 -0.966794 0
M  V30 4116 O 416.97 1.4516 -1.23827 0
M  V30 4117 C 414.11 2.30276 -2.57035 0
M  V30 4118 C 413.223 2.02373 -3.81666 0
M  V30 4119 C 412.358 3.25496 -4.19793 0
M  V30 4120 C 411.397 2.93211 -5.37303 0
M  V30 4121 N 410.534 4.08826 -5.70794 0
M  V30 4122 H 415.374 0.57901 -2.92321 0
M  V30 4123 H 412.911 0.27426 -1.44521 0
M  V30 4124 H 414.869 3.05757 -2.83846 0
M  V30 4125 H 413.499 2.71197 -1.75077 0
M  V30 4126 H 412.551 1.17327 -3.61854 0
M  V30 4127 H 413.863 1.74567 -4.67256 0
M  V30 4128 H 413.017 4.09333 -4.47807 0
M  V30 4129 H 411.756 3.56428 -3.32882 0
M  V30 4130 H 410.761 2.07777 -5.09027 0
M  V30 4131 H 411.986 2.63542 -6.25877 0
M  V30 4132 H 409.932 4.39682 -4.86842 0
M  V30 4133 H 409.849 3.84491 -6.50924 0
M  V30 4134 H 411.117 4.93496 -6.03392 0
M  V30 4135 N 415.346 1.54954 0.287554 0
M  V30 4136 C 416.592 1.75132 1.02257 0
M  V30 4137 C 416.925 0.542858 1.86458 0
M  V30 4138 O 416.2 -0.459856 1.88986 0
M  V30 4139 C 416.483 3.04812 1.91733 0
M  V30 4140 C 416.336 4.35985 1.10622 0
M  V30 4141 C 417.655 3.30438 2.90687 0
M  V30 4142 H 414.774 0.637194 0.370341 0
M  V30 4143 H 417.416 1.87678 0.296111 0
M  V30 4144 H 415.566 2.94247 2.53675 0
M  V30 4145 H 417.238 4.58487 0.508636 0
M  V30 4146 H 415.481 4.31865 0.409271 0
M  V30 4147 H 416.152 5.23017 1.76513 0
M  V30 4148 H 418.628 3.40701 2.38877 0
M  V30 4149 H 417.504 4.22467 3.50447 0
M  V30 4150 H 417.765 2.49377 3.65053 0
M  V30 4151 N 416.824 -0.551391 1.4764 0
M  V30 4152 C 417.734 -1.68525 1.63207 0
M  V30 4153 C 418.75 -1.6621 0.514815 0
M  V30 4154 O 419.926 -1.85551 0.783113 0
M  V30 4155 C 416.991 -3.05025 1.64805 0
M  V30 4156 C 416.052 -3.18362 2.88 0
M  V30 4157 C 415.285 -4.4835 2.89513 0
M  V30 4158 O 415.508 -5.34163 2.00065 0
M  V30 4159 O 414.442 -4.65602 3.81443 0
M  V30 4160 H 418.268 -1.58333 2.59161 0
M  V30 4161 H 415.853 -0.722063 1.30792 0
M  V30 4162 H 417.735 -3.86245 1.68502 0
M  V30 4163 H 416.41 -3.15587 0.720197 0
M  V30 4164 H 415.317 -2.36518 2.89845 0
M  V30 4165 H 416.65 -3.12707 3.80099 0
M  V30 4166 N 418.302 -1.35869 -0.798587 0
M  V30 4167 C 419.232 -1.32118 -1.92528 0
M  V30 4168 C 420.213 -0.194209 -1.68988 0
M  V30 4169 O 421.398 -0.390426 -1.90235 0
M  V30 4170 C 418.528 -1.10047 -3.29404 0
M  V30 4171 C 417.482 -2.19471 -3.67446 0
M  V30 4172 C 416.808 -1.82555 -5.02571 0
M  V30 4173 C 418.108 -3.61495 -3.76987 0
M  V30 4174 H 419.802 -2.26394 -1.95924 0
M  V30 4175 H 417.348 -1.08981 -0.94123 0
M  V30 4176 H 419.301 -1.06061 -4.07835 0
M  V30 4177 H 418.025 -0.122195 -3.26371 0
M  V30 4178 H 416.684 -2.22568 -2.91306 0
M  V30 4179 H 416.332 -0.833249 -4.9605 0
M  V30 4180 H 416.032 -2.5581 -5.28995 0
M  V30 4181 H 417.556 -1.80108 -5.83432 0
M  V30 4182 H 418.97 -3.60676 -4.4563 0
M  V30 4183 H 417.367 -4.33577 -4.14887 0
M  V30 4184 H 418.437 -3.97065 -2.78329 0
M  V30 4185 N 419.78 1.02168 -1.19998 0
M  V30 4186 C 420.712 2.10705 -0.901994 0
M  V30 4187 C 421.725 1.6244 0.108216 0
M  V30 4188 O 422.914 1.78082 -0.12214 0
M  V30 4189 C 420.014 3.37291 -0.329834 0
M  V30 4190 C 419.187 4.14714 -1.39035 0
M  V30 4191 C 418.246 5.19606 -0.830432 0
M  V30 4192 O 417.272 5.48809 -1.50989 0
M  V30 4193 N 418.474 5.79366 0.362696 0
M  V30 4194 H 421.239 2.36856 -1.83628 0
M  V30 4195 H 418.8 1.18518 -1.10296 0
M  V30 4196 H 420.792 4.04657 0.0587633 0
M  V30 4197 H 419.362 3.0843 0.508891 0
M  V30 4198 H 418.582 3.42392 -1.9535 0
M  V30 4199 H 419.87 4.63226 -2.10474 0
M  V30 4200 H 419.268 5.57968 0.932081 0
M  V30 4201 H 417.825 6.48106 0.69299 0
M  V30 4202 N 421.258 1.00505 1.21394 0
M  V30 4203 C 422.221 0.570459 2.21987 0
M  V30 4204 C 423.221 -0.353211 1.56873 0
M  V30 4205 O 424.411 -0.14349 1.73608 0
M  V30 4206 C 421.543 -0.168555 3.40483 0
M  V30 4207 H 422.736 1.46021 2.6195 0
M  V30 4208 H 420.289 0.793565 1.34656 0
M  V30 4209 H 421.024 -1.07374 3.06009 0
M  V30 4210 H 420.809 0.494823 3.88965 0
M  V30 4211 H 422.299 -0.460362 4.15055 0
M  V30 4212 N 422.737 -1.36956 0.779787 0
M  V30 4213 C 423.684 -2.30175 0.169697 0
M  V30 4214 C 424.654 -1.51501 -0.68094 0
M  V30 4215 O 425.839 -1.80042 -0.631629 0
M  V30 4216 C 422.979 -3.37985 -0.697131 0
M  V30 4217 C 422.092 -4.31661 0.170992 0
M  V30 4218 C 421.227 -5.2655 -0.701298 0
M  V30 4219 C 420.266 -6.11867 0.168869 0
M  V30 4220 N 419.403 -6.98973 -0.661855 0
M  V30 4221 H 424.243 -2.81767 0.970135 0
M  V30 4222 H 421.78 -1.38699 0.489994 0
M  V30 4223 H 423.738 -3.99128 -1.2146 0
M  V30 4224 H 422.368 -2.87739 -1.46309 0
M  V30 4225 H 421.42 -3.71756 0.80634 0
M  V30 4226 H 422.732 -4.91644 0.841875 0
M  V30 4227 H 421.886 -5.92937 -1.28494 0
M  V30 4228 H 420.625 -4.66998 -1.40584 0
M  V30 4229 H 419.63 -5.44452 0.764986 0
M  V30 4230 H 420.855 -6.73493 0.870863 0
M  V30 4231 H 418.801 -6.41941 -1.35086 0
M  V30 4232 H 418.718 -7.55984 -0.0484447 0
M  V30 4233 H 419.986 -7.6974 -1.22963 0
M  V30 4234 N 424.215 -0.530993 -1.48385 0
M  V30 4235 C 425.178 0.220497 -2.28137 0
M  V30 4236 C 426.178 0.866851 -1.35434 0
M  V30 4237 O 427.368 0.726746 -1.58316 0
M  V30 4238 C 424.5 1.31921 -3.1434 0
M  V30 4239 H 425.693 -0.479714 -2.96038 0
M  V30 4240 H 423.246 -0.286968 -1.53643 0
M  V30 4241 H 423.981 2.05264 -2.51072 0
M  V30 4242 H 423.766 0.86085 -3.82533 0
M  V30 4243 H 425.256 1.84776 -3.74497 0
M  V30 4244 N 425.693 1.55336 -0.266172 0
M  V30 4245 C 426.97 1.91372 0.404486 0
M  V30 4246 C 427.35 1.18935 1.74407 0
M  V30 4247 O 426.698 0.3132 2.26343 0
M  V30 4248 C 426.908 3.44581 0.553593 0
M  V30 4249 C 428.256 4.16196 0.840618 0
M  V30 4250 O 429.28 3.50426 0.638739 0
M  V30 4251 O 428.139 5.32567 1.22618 0
M  V30 4252 H 425.233 0.797194 0.220025 0
M  V30 4253 H 427.779 1.66813 -0.311664 0
M  V30 4254 H 426.551 3.89357 -0.389498 0
M  V30 4255 H 426.174 3.75065 1.31955 0
M  V30 4256 N 427.171 -0.0066808 1.57599 0
M  V30 4257 C 428.399 -0.704087 1.94551 0
M  V30 4258 C 428.814 -1.67677 0.867746 0
M  V30 4259 O 428.171 -1.8185 -0.153925 0
M  V30 4260 C 428.222 -1.44177 3.31505 0
M  V30 4261 O 427.943 -0.508097 4.35144 0
M  V30 4262 C 429.444 -2.23429 3.82876 0
M  V30 4263 H 426.664 -0.196523 0.641576 0
M  V30 4264 H 429.208 0.042453 2.04456 0
M  V30 4265 H 427.363 -2.13999 3.22929 0
M  V30 4266 H 427.777 -1.02782 5.14331 0
M  V30 4267 H 429.251 -2.70552 4.8115 0
M  V30 4268 H 429.728 -3.05818 3.15233 0
M  V30 4269 H 430.334 -1.58636 3.94607 0
M  V30 4270 N 428.649 -1.55105 -0.279332 0
M  V30 4271 C 429.579 -1.90557 -1.34945 0
M  V30 4272 C 430.56 -0.766738 -1.51839 0
M  V30 4273 O 431.745 -1.02434 -1.64988 0
M  V30 4274 C 428.875 -2.17193 -2.71006 0
M  V30 4275 C 427.829 -3.33021 -2.68851 0
M  V30 4276 C 427.155 -3.45123 -4.08405 0
M  V30 4277 C 428.455 -4.69578 -2.28678 0
M  V30 4278 H 430.149 -2.80188 -1.05522 0
M  V30 4279 H 427.695 -1.34811 -0.506173 0
M  V30 4280 H 429.648 -2.40581 -3.45975 0
M  V30 4281 H 428.372 -1.24355 -3.01999 0
M  V30 4282 H 427.031 -3.0959 -1.9634 0
M  V30 4283 H 426.679 -2.49762 -4.3661 0
M  V30 4284 H 426.379 -4.22995 -4.07859 0
M  V30 4285 H 427.903 -3.70796 -4.85121 0
M  V30 4286 H 429.317 -4.92553 -2.93368 0
M  V30 4287 H 427.714 -5.5032 -2.39306 0
M  V30 4288 H 428.784 -4.68828 -1.23807 0
M  V30 4289 N 430.127 0.543554 -1.4793 0
M  V30 4290 C 431.355 1.32516 -1.58894 0
M  V30 4291 C 431.77 1.87215 -0.244131 0
M  V30 4292 O 431.127 1.65709 0.764652 0
M  V30 4293 C 431.178 2.48554 -2.62494 0
M  V30 4294 O 430.899 1.96112 -3.91755 0
M  V30 4295 C 432.4 3.40572 -2.8377 0
M  V30 4296 H 429.62 0.403472 -0.536145 0
M  V30 4297 H 432.164 0.657106 -1.93655 0
M  V30 4298 H 430.319 3.1127 -2.30629 0
M  V30 4299 H 430.733 2.71967 -4.4848 0
M  V30 4300 H 432.207 4.18375 -3.60093 0
M  V30 4301 H 432.684 3.94965 -1.92092 0
M  V30 4302 H 433.29 2.8366 -3.16887 0
M  V30 4303 N 431.605 1.3629 0.791371 0
M  V30 4304 C 432.882 1.20962 1.53712 0
M  V30 4305 C 433.262 -0.205021 2.10102 0
M  V30 4306 O 432.61 -1.21042 1.93807 0
M  V30 4307 C 432.82 2.29002 2.63361 0
M  V30 4308 C 434.168 2.65572 3.31295 0
M  V30 4309 O 435.192 2.2803 2.73643 0
M  V30 4310 O 434.051 3.3018 4.35481 0
M  V30 4311 H 431.145 0.47086 0.679867 0
M  V30 4312 H 433.691 1.48016 0.830021 0
M  V30 4313 H 432.463 3.2382 2.19674 0
M  V30 4314 H 432.086 2.03303 3.41692 0
M  V30 4315 N 433.083 -1.0153 1.20538 0
M  V30 4316 C 433.993 -2.13557 0.971113 0
M  V30 4317 C 435.009 -1.73845 -0.0734366 0
M  V30 4318 O 436.185 -2.01075 0.114299 0
M  V30 4319 C 433.25 -3.42661 0.527639 0
M  V30 4320 C 432.311 -3.96608 1.64319 0
M  V30 4321 C 431.544 -5.1955 1.22078 0
M  V30 4322 O 431.767 -5.70329 0.0900198 0
M  V30 4323 O 430.701 -5.66681 2.02871 0
M  V30 4324 H 434.527 -2.3619 1.90913 0
M  V30 4325 H 432.112 -1.11946 0.989362 0
M  V30 4326 H 433.994 -4.20404 0.289621 0
M  V30 4327 H 432.669 -3.21441 -0.381779 0
M  V30 4328 H 431.576 -3.20139 1.93551 0
M  V30 4329 H 432.909 -4.22219 2.52966 0
M  V30 4330 N 434.561 -1.01147 -1.20859 0
M  V30 4331 C 435.81 -0.693214 -1.89413 0
M  V30 4332 C 436.123 0.779969 -1.79376 0
M  V30 4333 O 437.329 1.21057 -2.43017 0
M  V30 4334 C 435.785 -1.18949 -3.39675 0
M  V30 4335 C 435.393 -2.68921 -3.58309 0
M  V30 4336 C 437.137 -0.94642 -4.13815 0
M  V30 4337 C 435.044 -3.12056 -5.0237 0
M  V30 4338 H 433.974 -0.255595 -0.709357 0
M  V30 4339 H 436.625 -1.22349 -1.36759 0
M  V30 4340 H 435.007 -0.587228 -3.91622 0
M  V30 4341 H 436.181 -3.34652 -3.16772 0
M  V30 4342 H 434.496 -2.91314 -2.97532 0
M  V30 4343 H 437.093 -1.24417 -5.20023 0
M  V30 4344 H 437.436 0.117219 -4.16135 0
M  V30 4345 H 437.969 -1.5118 -3.67953 0
M  V30 4346 H 434.708 -4.17674 -5.05202 0
M  V30 4347 H 434.228 -2.51041 -5.44737 0
M  V30 4348 H 435.907 -3.04403 -5.70918 0
M  V30 4349 N 436.039 1.36541 -0.78704 0
M  V30 4350 C 436.987 2.31965 -0.171724 0
M  V30 4351 C 437.981 1.55689 0.667631 0
M  V30 4352 O 439.187 1.70969 0.562981 0
M  V30 4353 H 435.562 0.751101 -0.0367545 0
M  V30 4354 H 437.533 2.81428 -0.992017 0
M  V30 4355 C 436.282 3.40968 0.680904 0
M  V30 4356 H 435.605 3.99775 0.0443961 0
M  V30 4357 H 437.045 4.10063 1.07815 0
M  V30 4358 C 435.504 2.82338 1.83813 0
M  V30 4359 O 436.034 2.74311 2.93456 0
M  V30 4360 N 434.24 2.39661 1.6435 0
M  V30 4361 H 433.787 2.46389 0.751668 0
M  V30 4362 H 433.745 2.00779 2.4194 0
M  V30 4363 N 437.518 0.538854 1.48102 0
M  V30 4364 C 438.765 0.0080018 2.02498 0
M  V30 4365 C 439.093 -1.33437 1.41509 0
M  V30 4366 O 438.348 -1.87709 0.553507 0
M  V30 4367 C 438.647 -0.153808 3.57069 0
M  V30 4368 C 438.313 1.11533 4.36888 0
M  V30 4369 C 436.975 1.46314 4.58417 0
M  V30 4370 C 439.327 1.95718 4.83057 0
M  V30 4371 C 436.655 2.6516 5.23361 0
M  V30 4372 C 439.007 3.13751 5.49312 0
M  V30 4373 C 437.671 3.48866 5.69077 0
M  V30 4374 H 436.941 0.00292807 0.740994 0
M  V30 4375 H 439.588 0.706668 1.77984 0
M  V30 4376 H 437.893 -0.935309 3.80472 0
M  V30 4377 H 439.59 -0.579607 3.96789 0
M  V30 4378 H 436.18 0.834484 4.20398 0
M  V30 4379 H 440.364 1.70158 4.66219 0
M  V30 4380 H 435.62 2.92558 5.36861 0
M  V30 4381 H 439.794 3.79282 5.84053 0
M  V30 4382 H 437.421 4.41054 6.19173 0
M  V30 4383 N 438.996 -1.55193 0.274407 0
M  V30 4384 C 439.926 -2.25471 -0.607032 0
M  V30 4385 C 440.907 -1.24461 -1.15946 0
M  V30 4386 O 442.092 -1.53179 -1.19373 0
M  V30 4387 C 439.222 -2.97526 -1.79153 0
M  V30 4388 C 438.176 -4.05459 -1.37067 0
M  V30 4389 C 437.502 -4.65084 -2.6382 0
M  V30 4390 C 438.802 -5.19691 -0.521389 0
M  V30 4391 H 440.496 -2.99393 -0.0209343 0
M  V30 4392 H 438.042 -1.43997 -0.00862866 0
M  V30 4393 H 439.995 -3.45402 -2.41404 0
M  V30 4394 H 438.719 -2.21138 -2.40344 0
M  V30 4395 H 437.378 -3.58393 -0.771355 0
M  V30 4396 H 437.026 -3.85365 -3.23268 0
M  V30 4397 H 436.726 -5.37961 -2.36372 0
M  V30 4398 H 438.25 -5.15708 -3.26921 0
M  V30 4399 H 439.664 -5.63623 -1.04889 0
M  V30 4400 H 438.061 -5.99126 -0.341825 0
M  V30 4401 H 439.131 -4.82713 0.46 0
M  V30 4402 N 440.474 -0.00167713 -1.576 0
M  V30 4403 C 441.89 0.354422 -1.55615 0
M  V30 4404 C 442.09 1.74679 -1.00447 0
M  V30 4405 O 441.146 2.4428 -0.639022 0
M  V30 4406 C 442.459 0.22812 -2.99833 0
M  V30 4407 C 444.007 0.302934 -3.11531 0
M  V30 4408 C 444.482 0.205737 -4.57538 0
M  V30 4409 N 445.973 0.263584 -4.62449 0
M  V30 4410 C 446.708 0.211742 -5.73009 0
M  V30 4411 N 446.204 0.110399 -6.92712 0
M  V30 4412 N 447.997 0.263729 -5.61481 0
M  V30 4413 H 440.148 -0.912498 -1.918 0
M  V30 4414 H 442.411 -0.349928 -0.881053 0
M  V30 4415 H 442.117 -0.729934 -3.44042 0
M  V30 4416 H 441.991 1.00951 -3.6344 0
M  V30 4417 H 444.378 1.25143 -2.67251 0
M  V30 4418 H 444.459 -0.508357 -2.50698 0
M  V30 4419 H 444.103 -0.739225 -5.02492 0
M  V30 4420 H 444.033 1.03554 -5.16318 0
M  V30 4421 H 446.524 0.343173 -3.76339 0
M  V30 4422 H 446.837 0.0767828 -7.72762 0
M  V30 4423 H 445.182 0.0760025 -6.94958 0
M  V30 4424 H 448.373 0.34111 -4.66855 0
M  V30 4425 H 448.546 0.219862 -6.47627 0
M  V30 4426 N 441.952 1.55251 0.271103 0
M  V30 4427 C 442.915 1.87484 1.31842 0
M  V30 4428 C 443.915 0.749545 1.42262 0
M  V30 4429 O 445.105 1.01771 1.4138 0
M  V30 4430 C 442.237 2.0818 2.69951 0
M  V30 4431 H 443.43 2.81108 1.0449 0
M  V30 4432 H 440.983 1.47771 0.509258 0
M  V30 4433 H 441.718 1.16944 3.02481 0
M  V30 4434 H 441.503 2.90114 2.63774 0
M  V30 4435 H 442.993 2.34385 3.4562 0
M  V30 4436 N 443.43 -0.535701 1.48216 0
M  V30 4437 C 444.36 -1.65014 1.65204 0
M  V30 4438 C 445.341 -1.62554 0.501011 0
M  V30 4439 O 446.526 -1.7984 0.732886 0
M  V30 4440 C 443.656 -3.03616 1.68626 0
M  V30 4441 C 442.61 -3.20932 2.83172 0
M  V30 4442 C 441.936 -4.60537 2.71679 0
M  V30 4443 C 443.236 -3.04249 4.24535 0
M  V30 4444 H 444.93 -1.51053 2.58502 0
M  V30 4445 H 442.476 -0.725262 1.24402 0
M  V30 4446 H 444.429 -3.81446 1.79099 0
M  V30 4447 H 443.153 -3.18587 0.719026 0
M  V30 4448 H 441.812 -2.45517 2.72244 0
M  V30 4449 H 441.46 -4.72336 1.72937 0
M  V30 4450 H 441.16 -4.73069 3.48538 0
M  V30 4451 H 442.684 -5.40475 2.84112 0
M  V30 4452 H 444.098 -3.71877 4.36326 0
M  V30 4453 H 442.495 -3.28278 5.02348 0
M  V30 4454 H 443.565 -2.00739 4.41397 0
M  V30 4455 N 444.908 -1.36708 -0.784132 0
M  V30 4456 C 446.138 -1.34203 -1.57077 0
M  V30 4457 C 446.546 0.0774945 -1.89041 0
M  V30 4458 O 445.889 1.04628 -1.50992 0
M  V30 4459 C 445.951 -2.10351 -2.91535 0
M  V30 4460 C 445.615 -3.59405 -2.82272 0
M  V30 4461 C 446.612 -4.53545 -2.54151 0
M  V30 4462 C 444.297 -4.02362 -3.00683 0
M  V30 4463 C 446.291 -5.8862 -2.44551 0
M  V30 4464 C 443.978 -5.37526 -2.90704 0
M  V30 4465 C 444.976 -6.30468 -2.62677 0
M  V30 4466 O 444.664 -7.63149 -2.52702 0
M  V30 4467 H 444.396 -0.461791 -0.493685 0
M  V30 4468 H 446.95 -1.80475 -0.980712 0
M  V30 4469 H 445.18 -1.5875 -3.52612 0
M  V30 4470 H 446.869 -2.00636 -3.52845 0
M  V30 4471 H 447.635 -4.21669 -2.39625 0
M  V30 4472 H 443.514 -3.30389 -3.21503 0
M  V30 4473 H 447.058 -6.61133 -2.22596 0
M  V30 4474 H 442.955 -5.69008 -3.04795 0
M  V30 4475 H 443.723 -7.73331 -2.68144 0
M  V30 4476 N 446.386 1.0089 -1.21074 0
M  V30 4477 C 447.663 1.71834 -0.934469 0
M  V30 4478 C 448.043 2.0368 0.554753 0
M  V30 4479 O 447.391 1.70742 1.51854 0
M  V30 4480 C 447.601 2.98061 -1.8155 0
M  V30 4481 C 448.949 3.7117 -2.06199 0
M  V30 4482 O 449.973 3.08034 -1.78867 0
M  V30 4483 O 448.832 4.84721 -2.52404 0
M  V30 4484 H 445.926 0.749253 -0.35007 0
M  V30 4485 H 448.472 1.06668 -1.31985 0
M  V30 4486 H 447.244 2.70908 -2.82355 0
M  V30 4487 H 446.867 3.70968 -1.43068 0
M  V30 4488 N 447.864 1.01787 1.20321 0
M  V30 4489 C 448.827 0.593972 2.2137 0
M  V30 4490 C 449.827 -0.336553 1.57239 0
M  V30 4491 O 451.017 -0.125069 1.7375 0
M  V30 4492 C 448.149 -0.132433 3.40643 0
M  V30 4493 H 449.342 1.48791 2.60387 0
M  V30 4494 H 446.895 0.807803 1.33807 0
M  V30 4495 H 447.63 -1.04123 3.0713 0
M  V30 4496 H 447.415 0.53605 3.88418 0
M  V30 4497 H 448.905 -0.416314 4.1552 0
M  V30 4498 N 449.342 -1.36122 0.79427 0
M  V30 4499 C 450.252 -2.33769 0.197296 0
M  V30 4500 C 451.268 -1.61276 -0.653153 0
M  V30 4501 O 452.444 -1.9323 -0.5678 0
M  V30 4502 C 449.509 -3.40474 -0.654098 0
M  V30 4503 C 448.57 -4.28759 0.215411 0
M  V30 4504 C 447.803 -5.30368 -0.595443 0
M  V30 4505 O 448.026 -5.40211 -1.83107 0
M  V30 4506 O 446.96 -6.019 0.00721351 0
M  V30 4507 H 450.786 -2.86597 1.00478 0
M  V30 4508 H 448.371 -1.38676 0.555818 0
M  V30 4509 H 450.253 -4.05703 -1.13944 0
M  V30 4510 H 448.928 -2.89937 -1.43938 0
M  V30 4511 H 447.835 -3.66554 0.747615 0
M  V30 4512 H 449.168 -4.82661 0.964332 0
M  V30 4513 N 450.82 -0.546701 -1.47814 0
M  V30 4514 C 451.75 0.195317 -2.32682 0
M  V30 4515 C 452.731 0.918981 -1.43139 0
M  V30 4516 O 453.916 0.901501 -1.72008 0
M  V30 4517 C 451.046 1.23237 -3.247 0
M  V30 4518 C 450 0.625818 -4.234 0
M  V30 4519 C 449.326 1.76674 -5.04669 0
M  V30 4520 C 450.626 -0.413515 -5.2066 0
M  V30 4521 H 452.32 -0.513184 -2.94969 0
M  V30 4522 H 449.866 -0.248241 -1.41844 0
M  V30 4523 H 451.819 1.75955 -3.82907 0
M  V30 4524 H 450.543 1.97067 -2.60446 0
M  V30 4525 H 449.202 0.120023 -3.66403 0
M  V30 4526 H 448.85 2.49383 -4.36826 0
M  V30 4527 H 448.55 1.36673 -5.71484 0
M  V30 4528 H 450.074 2.29738 -5.65732 0
M  V30 4529 H 451.488 0.0272042 -5.73294 0
M  V30 4530 H 449.885 -0.731825 -5.95621 0
M  V30 4531 H 450.955 -1.31325 -4.66778 0
M  V30 4532 N 452.299 1.55045 -0.282633 0
M  V30 4533 C 453.524 2.04628 0.337977 0
M  V30 4534 C 453.949 1.15937 1.48123 0
M  V30 4535 O 453.307 0.159532 1.80597 0
M  V30 4536 C 453.355 3.51854 0.78936 0
M  V30 4537 O 452.459 3.66236 1.89592 0
M  V30 4538 H 451.8 0.660434 0.0687261 0
M  V30 4539 H 454.33 2.00261 -0.419124 0
M  V30 4540 H 454.34 3.93361 1.08311 0
M  V30 4541 H 453.015 4.15873 -0.0470419 0
M  V30 4542 H 451.592 3.36633 1.60413 0
M  V30 4543 N 453.777 0.010035 1.57597 0
M  V30 4544 C 454.709 -1.00649 2.05918 0
M  V30 4545 C 455.722 -1.30077 0.978964 0
M  V30 4546 O 456.911 -1.26878 1.25556 0
M  V30 4547 C 454.011 -2.33876 2.45265 0
M  V30 4548 C 453.184 -2.23242 3.7614 0
M  V30 4549 C 452.243 -3.39242 4.02245 0
M  V30 4550 O 451.269 -3.1698 4.72771 0
M  V30 4551 N 452.471 -4.6242 3.50924 0
M  V30 4552 H 455.236 -0.594333 2.93748 0
M  V30 4553 H 452.797 -0.17714 1.60928 0
M  V30 4554 H 454.789 -3.1027 2.59836 0
M  V30 4555 H 453.359 -2.66799 1.62902 0
M  V30 4556 H 452.579 -1.31696 3.71551 0
M  V30 4557 H 453.867 -2.13321 4.61922 0
M  V30 4558 H 453.265 -4.83404 2.93832 0
M  V30 4559 H 451.822 -5.36046 3.70807 0
M  V30 4560 N 455.255 -1.55392 -0.262866 0
M  V30 4561 C 456.188 -1.8391 -1.35101 0
M  V30 4562 C 457.166 -0.692901 -1.47097 0
M  V30 4563 O 458.35 -0.936979 -1.63563 0
M  V30 4564 C 455.477 -2.00969 -2.72634 0
M  V30 4565 C 454.523 -3.23559 -2.7787 0
M  V30 4566 S 455.356 -4.80647 -2.3609 0
M  V30 4567 C 456.512 -5.00692 -3.75578 0
M  V30 4568 H 456.745 -2.75918 -1.1071 0
M  V30 4569 H 454.278 -1.47294 -0.463029 0
M  V30 4570 H 456.236 -2.11482 -3.51832 0
M  V30 4571 H 454.897 -1.09832 -2.94272 0
M  V30 4572 H 454.09 -3.32413 -3.78837 0
M  V30 4573 H 453.692 -3.11689 -2.06702 0
M  V30 4574 H 455.984 -4.87055 -4.70939 0
M  V30 4575 H 456.927 -6.02717 -3.71669 0
M  V30 4576 H 457.335 -4.28619 -3.6735 0
M  V30 4577 N 456.733 0.527833 -1.48498 0
M  V30 4578 C 457.665 1.6482 -1.5927 0
M  V30 4579 C 458.678 1.55659 -0.476869 0
M  V30 4580 O 459.867 1.62081 -0.747806 0
M  V30 4581 C 456.967 3.0348 -1.50842 0
M  V30 4582 C 456.14 3.381 -2.77502 0
M  V30 4583 C 455.199 4.5605 -2.62497 0
M  V30 4584 O 454.225 4.59165 -3.36387 0
M  V30 4585 N 455.427 5.54353 -1.72257 0
M  V30 4586 H 458.192 1.56015 -2.55889 0
M  V30 4587 H 455.753 0.715152 -1.45249 0
M  V30 4588 H 457.745 3.80264 -1.38496 0
M  V30 4589 H 456.315 3.06352 -0.621887 0
M  V30 4590 H 455.535 2.50473 -3.04396 0
M  V30 4591 H 456.823 3.58017 -3.61527 0
M  V30 4592 H 456.221 5.54617 -1.11431 0
M  V30 4593 H 454.778 6.30347 -1.65849 0
M  V30 4594 N 458.211 1.37122 0.776871 0
M  V30 4595 C 459.439 1.3523 1.5659 0
M  V30 4596 C 459.854 -0.0635518 1.88693 0
M  V30 4597 O 459.211 -1.02394 1.51069 0
M  V30 4598 C 459.262 2.18583 2.8793 0
M  V30 4599 O 458.983 3.5465 2.57206 0
M  V30 4600 C 460.484 2.24612 3.82183 0
M  V30 4601 H 457.704 0.4634 0.485285 0
M  V30 4602 H 460.248 1.80392 0.963266 0
M  V30 4603 H 458.403 1.76943 3.4463 0
M  V30 4604 H 458.817 3.98286 3.41275 0
M  V30 4605 H 460.291 2.87267 4.71361 0
M  V30 4606 H 460.768 1.25309 4.20944 0
M  V30 4607 H 461.374 2.66543 3.31414 0
M  V30 4608 N 459.689 -1.00246 1.21608 0
M  V30 4609 C 460.639 -2.07492 0.945051 0
M  V30 4610 C 461.623 -1.60585 -0.100675 0
M  V30 4611 O 462.815 -1.76667 0.10859 0
M  V30 4612 C 459.944 -3.39425 0.514342 0
M  V30 4613 C 459.03 -3.92993 1.59428 0
M  V30 4614 N 459.421 -4.19898 2.81991 0
M  V30 4615 C 457.719 -4.21297 1.46374 0
M  V30 4616 C 458.42 -4.63297 3.51754 0
M  V30 4617 N 457.396 -4.66421 2.79199 0
M  V30 4618 H 461.198 -2.26222 1.87619 0
M  V30 4619 H 458.712 -1.18339 1.11219 0
M  V30 4620 H 460.709 -4.15808 0.301527 0
M  V30 4621 H 459.369 -3.22101 -0.410008 0
M  V30 4622 H 460.38 -4.08377 3.1851 0
M  V30 4623 H 457.057 -4.13095 0.604863 0
M  V30 4624 H 458.447 -4.92816 4.56708 0
M  V30 4625 N 461.167 -1.02423 -1.1978 0
M  V30 4626 C 462.416 -0.713265 -1.88667 0
M  V30 4627 C 462.729 0.7609 -1.80193 0
M  V30 4628 O 463.935 1.18473 -2.44288 0
M  V30 4629 C 462.391 -1.22545 -3.38394 0
M  V30 4630 C 461.999 -2.72706 -3.55437 0
M  V30 4631 C 463.743 -0.990257 -4.12788 0
M  V30 4632 C 461.65 -3.17367 -4.99031 0
M  V30 4633 H 460.58 -0.263105 -0.706606 0
M  V30 4634 H 463.231 -1.23792 -1.35454 0
M  V30 4635 H 461.613 -0.628732 -3.90977 0
M  V30 4636 H 462.787 -3.37993 -3.13205 0
M  V30 4637 H 461.102 -2.94453 -2.94425 0
M  V30 4638 H 463.699 -1.29926 -5.18675 0
M  V30 4639 H 464.042 0.0730761 -4.16236 0
M  V30 4640 H 464.575 -1.55074 -3.66329 0
M  V30 4641 H 461.314 -4.23009 -5.00743 0
M  V30 4642 H 460.834 -2.56805 -5.42044 0
M  V30 4643 H 462.513 -3.10441 -5.67658 0
M  V30 4644 N 462.645 1.35699 -0.801477 0
M  V30 4645 C 463.87 2.03687 -0.390678 0
M  V30 4646 C 464.295 1.60015 0.988778 0
M  V30 4647 O 463.653 0.774357 1.63931 0
M  V30 4648 C 463.701 3.57439 -0.476404 0
M  V30 4649 O 462.805 4.09208 0.512106 0
M  V30 4650 H 462.146 0.64344 -0.163956 0
M  V30 4651 H 464.676 1.73403 -1.08594 0
M  V30 4652 H 464.686 4.06544 -0.344357 0
M  V30 4653 H 463.361 3.88576 -1.48262 0
M  V30 4654 H 461.938 3.7134 0.340721 0
M  V30 4655 N 464.123 0.554532 1.47522 0
M  V30 4656 C 465.4 -0.0360704 1.95567 0
M  V30 4657 C 465.78 -1.48828 1.49711 0
M  V30 4658 O 465.128 -2.16366 0.734717 0
M  V30 4659 C 465.338 0.106631 3.48837 0
M  V30 4660 C 466.686 -0.0400899 4.24581 0
M  V30 4661 O 467.71 0.0340453 3.56184 0
M  V30 4662 O 466.569 -0.199111 5.46137 0
M  V30 4663 H 463.663 -0.0656294 0.824392 0
M  V30 4664 H 466.209 0.620867 1.57935 0
M  V30 4665 H 464.981 1.11727 3.7501 0
M  V30 4666 H 464.604 -0.58804 3.93227 0
M  V30 4667 N 465.601 -1.54893 0.290851 0
M  V30 4668 C 466.829 -2.04343 -0.324288 0
M  V30 4669 C 467.244 -1.16859 -1.48289 0
M  V30 4670 O 466.601 -0.192018 -1.81487 0
M  V30 4671 C 466.652 -3.52756 -0.79026 0
M  V30 4672 O 466.373 -4.36913 0.322213 0
M  V30 4673 C 467.874 -4.18161 -1.4716 0
M  V30 4674 H 465.094 -0.667135 -0.0719173 0
M  V30 4675 H 467.638 -1.99981 0.427529 0
M  V30 4676 H 465.793 -3.57511 -1.49213 0
M  V30 4677 H 466.207 -5.24486 -0.0387372 0
M  V30 4678 H 467.681 -5.23562 -1.7489 0
M  V30 4679 H 468.158 -3.67282 -2.40834 0
M  V30 4680 H 468.764 -4.17454 -0.813178 0
M  V30 4681 N 467.08 -0.0183926 -1.57589 0
M  V30 4682 C 468.305 0.676634 -1.96052 0
M  V30 4683 C 468.73 1.6548 -0.894307 0
M  V30 4684 O 468.088 1.80712 0.145849 0
M  V30 4685 C 468.136 1.36872 -3.33614 0
M  V30 4686 O 467.24 2.48372 -3.29219 0
M  V30 4687 H 466.581 0.1786 -0.63953 0
M  V30 4688 H 469.111 -0.077056 -2.04455 0
M  V30 4689 H 469.121 1.72797 -3.69601 0
M  V30 4690 H 467.796 0.651636 -4.10763 0
M  V30 4691 H 466.373 2.14639 -3.04934 0
M  V30 4692 N 468.558 1.5553 0.254621 0
M  V30 4693 C 469.804 1.77262 0.985193 0
M  V30 4694 C 470.137 0.582286 1.85265 0
M  V30 4695 O 469.412 -0.419666 1.89919 0
M  V30 4696 C 469.695 3.0881 1.85225 0
M  V30 4697 C 469.548 4.38233 1.0135 0
M  V30 4698 C 470.867 3.3653 2.83612 0
M  V30 4699 H 467.986 0.644906 0.356742 0
M  V30 4700 H 470.628 1.88264 0.256236 0
M  V30 4701 H 468.778 2.99562 2.47376 0
M  V30 4702 H 470.45 4.59463 0.411269 0
M  V30 4703 H 468.693 4.32636 0.317574 0
M  V30 4704 H 469.364 5.26644 1.65379 0
M  V30 4705 H 471.84 3.45691 2.31596 0
M  V30 4706 H 470.716 4.29805 3.41407 0
M  V30 4707 H 470.977 2.57064 3.59681 0
M  V30 4708 N 470.036 -0.519951 1.48776 0
M  V30 4709 C 471.282 -1.27711 1.57536 0
M  V30 4710 C 471.615 -1.92547 0.252866 0
M  V30 4711 O 470.89 -1.7979 -0.742021 0
M  V30 4712 C 471.173 -2.35875 2.72094 0
M  V30 4713 C 471.026 -1.75664 4.1408 0
M  V30 4714 C 472.345 -3.37575 2.82367 0
M  V30 4715 H 469.464 -0.462971 0.573434 0
M  V30 4716 H 472.106 -0.578194 1.80989 0
M  V30 4717 H 470.256 -2.95488 2.52228 0
M  V30 4718 H 471.928 -1.20025 4.45412 0
M  V30 4719 H 470.171 -1.06154 4.20611 0
M  V30 4720 H 470.842 -2.54029 4.90075 0
M  V30 4721 H 473.318 -2.87929 3.00393 0
M  V30 4722 H 472.194 -4.1064 3.64233 0
M  V30 4723 H 472.455 -3.98743 1.90936 0
M  V30 4724 N 471.514 -1.37532 -0.769588 0
M  V30 4725 C 472.444 -1.36172 -1.89682 0
M  V30 4726 C 473.425 -0.23001 -1.68538 0
M  V30 4727 O 474.61 -0.43069 -1.89364 0
M  V30 4728 C 471.74 -1.1701 -3.26995 0
M  V30 4729 C 470.694 -2.27216 -3.62708 0
M  V30 4730 C 470.02 -1.93174 -4.98586 0
M  V30 4731 C 471.32 -3.6941 -3.69234 0
M  V30 4732 H 473.014 -2.30499 -1.91078 0
M  V30 4733 H 470.56 -1.10953 -0.917902 0
M  V30 4734 H 472.513 -1.14688 -4.05493 0
M  V30 4735 H 471.237 -0.191395 -3.26039 0
M  V30 4736 H 469.896 -2.28697 -2.86519 0
M  V30 4737 H 469.544 -0.938281 -4.94171 0
M  V30 4738 H 469.244 -2.66973 -5.23449 0
M  V30 4739 H 470.768 -1.92443 -5.79481 0
M  V30 4740 H 472.182 -3.70047 -4.37879 0
M  V30 4741 H 470.579 -4.4228 -4.05597 0
M  V30 4742 H 471.649 -4.0288 -2.69844 0
M  V30 4743 N 472.992 0.995999 -1.22138 0
M  V30 4744 C 474.217 1.77601 -1.0711 0
M  V30 4745 C 474.642 1.84339 0.374264 0
M  V30 4746 O 474 1.29359 1.27028 0
M  V30 4747 C 474.048 3.18897 -1.68336 0
M  V30 4748 O 473.152 4.01663 -0.934928 0
M  V30 4749 H 472.493 0.547011 -0.376397 0
M  V30 4750 H 475.023 1.25137 -1.6187 0
M  V30 4751 H 475.033 3.69539 -1.72931 0
M  V30 4752 H 473.708 3.13308 -2.73516 0
M  V30 4753 H 472.285 3.60204 -0.964751 0
M  V30 4754 N 474.47 1.03057 1.19235 0
M  V30 4755 C 475.403 0.557384 2.21288 0
M  V30 4756 C 476.381 -0.402675 1.57535 0
M  V30 4757 O 477.565 -0.319376 1.85775 0
M  V30 4758 C 474.692 -0.187041 3.38183 0
M  V30 4759 C 473.738 0.72471 4.20298 0
M  V30 4760 S 474.571 2.20187 4.88137 0
M  V30 4761 C 475.727 1.46801 6.08441 0
M  V30 4762 H 475.96 1.42207 2.61083 0
M  V30 4763 H 473.493 0.840651 1.29508 0
M  V30 4764 H 475.451 -0.610405 4.05936 0
M  V30 4765 H 474.112 -1.02748 2.96819 0
M  V30 4766 H 473.305 0.149911 5.03777 0
M  V30 4767 H 472.907 1.08647 3.57871 0
M  V30 4768 H 475.199 0.755522 6.73274 0
M  V30 4769 H 476.142 2.27946 6.70407 0
M  V30 4770 H 476.55 0.964762 5.56195 0
M  V30 4771 N 475.948 -1.35272 0.808662 0
M  V30 4772 C 477.225 -1.93077 0.313181 0
M  V30 4773 C 477.605 -1.73847 -1.19752 0
M  V30 4774 O 476.953 -1.1087 -1.998 0
M  V30 4775 C 477.163 -3.41347 0.726859 0
M  V30 4776 C 478.511 -4.18493 0.717532 0
M  V30 4777 O 479.535 -3.4987 0.668535 0
M  V30 4778 O 478.394 -5.40937 0.777779 0
M  V30 4779 H 475.488 -0.822885 0.0824018 0
M  V30 4780 H 478.034 -1.44335 0.892499 0
M  V30 4781 H 476.806 -3.49082 1.76797 0
M  V30 4782 H 476.429 -3.97411 0.122461 0
M  V30 4783 N 477.426 -0.562348 -1.47226 0
M  V30 4784 C 478.374 0.195476 -2.31777 0
M  V30 4785 C 479.368 0.90433 -1.43242 0
M  V30 4786 O 480.574 0.825031 -1.59979 0
M  V30 4787 H 476.949 0.0819095 -0.747526 0
M  V30 4788 H 478.92 -0.536753 -2.93533 0
M  V30 4789 C 477.669 1.20902 -3.26003 0
M  V30 4790 H 476.992 0.672997 -3.94095 0
M  V30 4791 H 478.432 1.71006 -3.87986 0
M  V30 4792 C 476.891 2.25955 -2.49891 0
M  V30 4793 O 477.421 3.32969 -2.2471 0
M  V30 4794 N 475.627 2.00019 -2.1081 0
M  V30 4795 H 475.174 1.13006 -2.31489 0
M  V30 4796 H 475.132 2.70523 -1.60201 0
M  V30 4797 N 478.904 1.54736 -0.299062 0
M  V30 4798 C 479.852 2.24897 0.593658 0
M  V30 4799 C 480.846 1.25429 1.13859 0
M  V30 4800 O 482.052 1.43286 1.08945 0
M  V30 4801 H 478.427 0.72207 0.210046 0
M  V30 4802 H 480.398 2.98393 -0.0206421 0
M  V30 4803 C 479.147 3.00159 1.75499 0
M  V30 4804 H 478.47 3.76501 1.34489 0
M  V30 4805 H 479.91 3.52535 2.35574 0
M  V30 4806 C 478.369 2.07015 2.65794 0
M  V30 4807 O 478.899 1.63692 3.66835 0
M  V30 4808 N 477.105 1.73012 2.33485 0
M  V30 4809 H 476.652 2.08439 1.51364 0
M  V30 4810 H 476.61 1.10965 2.94167 0
M  V30 4811 N 480.382 0.0267497 1.57577 0
M  V30 4812 C 481.798 -0.32962 1.56159 0
M  V30 4813 C 481.998 -1.73059 1.03213 0
M  V30 4814 O 481.054 -2.43233 0.677804 0
M  V30 4815 C 482.367 -0.18039 3.00158 0
M  V30 4816 C 483.915 -0.253334 3.11973 0
M  V30 4817 C 484.39 -0.132921 4.57807 0
M  V30 4818 N 485.881 -0.189979 4.6281 0
M  V30 4819 C 486.616 -0.120554 5.73273 0
M  V30 4820 N 486.112 -0.000180315 6.928 0
M  V30 4821 N 487.905 -0.174369 5.61829 0
M  V30 4822 H 480.056 0.942896 1.90324 0
M  V30 4823 H 482.319 0.3639 0.875375 0
M  V30 4824 H 482.025 0.784576 3.42837 0
M  V30 4825 H 481.899 -0.951565 3.65 0
M  V30 4826 H 484.286 -1.20876 2.69208 0
M  V30 4827 H 484.367 0.548177 2.49857 0
M  V30 4828 H 484.011 0.819073 5.01252 0
M  V30 4829 H 483.941 -0.953264 5.179 0
M  V30 4830 H 486.432 -0.283257 3.76837 0
M  V30 4831 H 486.745 0.0461666 7.72786 0
M  V30 4832 H 485.09 0.034569 6.94991 0
M  V30 4833 H 488.281 -0.266794 4.67339 0
M  V30 4834 H 488.454 -0.116802 6.47895 0
M  V30 4835 N 481.861 -1.55662 -0.24637 0
M  V30 4836 C 482.809 -1.91186 -1.3248 0
M  V30 4837 C 483.803 -0.790996 -1.49799 0
M  V30 4838 O 485.009 -0.975617 -1.51267 0
M  V30 4839 H 481.384 -0.607207 -0.443626 0
M  V30 4840 H 483.355 -2.81221 -0.997853 0
M  V30 4841 C 482.104 -2.22349 -2.67313 0
M  V30 4842 H 481.427 -3.08097 -2.54786 0
M  V30 4843 H 482.867 -2.51107 -3.41645 0
M  V30 4844 C 481.326 -1.04001 -3.20446 0
M  V30 4845 O 481.856 -0.28828 -4.00664 0
M  V30 4846 N 480.062 -0.830494 -2.7848 0
M  V30 4847 H 479.609 -1.4435 -2.13356 0
M  V30 4848 H 479.567 -0.0403258 -3.14374 0
M  V30 4849 N 483.339 0.512053 -1.4905 0
M  V30 4850 C 484.269 1.62365 -1.67809 0
M  V30 4851 C 485.25 1.61737 -0.526809 0
M  V30 4852 O 486.435 1.78651 -0.761404 0
M  V30 4853 C 483.565 3.00895 -1.73435 0
M  V30 4854 C 482.519 3.16387 -2.88242 0
M  V30 4855 C 481.845 4.56157 -2.78971 0
M  V30 4856 C 483.145 2.97457 -4.29321 0
M  V30 4857 H 484.839 1.46921 -2.60873 0
M  V30 4858 H 482.385 0.705379 -1.2554 0
M  V30 4859 H 484.338 3.78549 -1.85145 0
M  V30 4860 H 483.062 3.17403 -0.769619 0
M  V30 4861 H 481.721 2.41155 -2.76116 0
M  V30 4862 H 481.369 4.69525 -1.8043 0
M  V30 4863 H 481.069 4.67465 -3.5602 0
M  V30 4864 H 482.593 5.35886 -2.92675 0
M  V30 4865 H 484.007 3.64888 -4.42187 0
M  V30 4866 H 482.404 3.20245 -5.07507 0
M  V30 4867 H 483.474 1.93692 -4.44535 0
M  V30 4868 N 484.817 1.37938 0.762283 0
M  V30 4869 C 486.094 1.24196 1.51112 0
M  V30 4870 C 486.474 -0.160409 2.1049 0
M  V30 4871 O 485.822 -1.16904 1.96331 0
M  V30 4872 C 486.032 2.34537 2.58445 0
M  V30 4873 C 487.38 2.7254 3.25588 0
M  V30 4874 O 488.404 2.33783 2.68745 0
M  V30 4875 O 487.263 3.39343 4.28379 0
M  V30 4876 H 484.357 0.485175 0.669727 0
M  V30 4877 H 486.903 1.49743 0.798438 0
M  V30 4878 H 485.675 3.28406 2.12756 0
M  V30 4879 H 485.298 2.10505 3.37303 0
M  V30 4880 N 486.295 -0.989507 1.22664 0
M  V30 4881 C 487.225 -2.09847 1.02404 0
M  V30 4882 C 488.206 -1.70007 -0.0561303 0
M  V30 4883 O 489.391 -1.93906 0.106748 0
M  V30 4884 C 486.521 -3.41996 0.604663 0
M  V30 4885 C 485.475 -3.95699 1.63115 0
M  V30 4886 C 484.801 -5.23936 1.0675 0
M  V30 4887 C 486.101 -4.25999 3.02196 0
M  V30 4888 H 487.795 -2.27054 1.95158 0
M  V30 4889 H 485.341 -1.09111 0.939727 0
M  V30 4890 H 487.294 -4.1899 0.45002 0
M  V30 4891 H 486.018 -3.24626 -0.35855 0
M  V30 4892 H 484.677 -3.2084 1.77362 0
M  V30 4893 H 484.325 -5.02909 0.0955422 0
M  V30 4894 H 484.025 -5.60833 1.75328 0
M  V30 4895 H 485.549 -6.0356 0.924516 0
M  V30 4896 H 486.963 -4.93777 2.91303 0
M  V30 4897 H 485.36 -4.74076 3.67929 0
M  V30 4898 H 486.43 -3.33636 3.51873 0
M  V30 4899 N 487.773 -1.03688 -1.18687 0
M  V30 4900 C 489.05 -0.652397 -1.84399 0
M  V30 4901 C 489.43 0.868386 -1.92412 0
M  V30 4902 O 488.778 1.76832 -1.44716 0
M  V30 4903 C 488.988 -1.3238 -3.22919 0
M  V30 4904 C 490.336 -1.45216 -3.98996 0
M  V30 4905 O 491.36 -1.2816 -3.32345 0
M  V30 4906 O 490.219 -1.72975 -5.18403 0
M  V30 4907 H 487.313 -0.227793 -0.795009 0
M  V30 4908 H 489.859 -1.13553 -1.2611 0
M  V30 4909 H 488.631 -2.36202 -3.11968 0
M  V30 4910 H 488.254 -0.829039 -3.88861 0
M  V30 4911 N 489.251 1.34841 -0.815825 0
M  V30 4912 C 490.476 2.03261 -0.41226 0
M  V30 4913 C 490.901 1.61055 0.971751 0
M  V30 4914 O 490.259 0.7917 1.63101 0
M  V30 4915 C 490.307 3.56914 -0.514289 0
M  V30 4916 O 489.411 4.09728 0.468675 0
M  V30 4917 H 488.752 0.641664 -0.170771 0
M  V30 4918 H 491.282 1.72241 -1.10427 0
M  V30 4919 H 491.292 4.06156 -0.387457 0
M  V30 4920 H 489.967 3.86982 -1.52375 0
M  V30 4921 H 488.544 3.71681 0.301316 0
M  V30 4922 N 490.729 0.570148 1.46925 0
M  V30 4923 C 491.978 0.0487352 2.01641 0
M  V30 4924 C 492.291 -1.31433 1.44861 0
M  V30 4925 O 493.497 -1.92638 1.91318 0
M  V30 4926 C 491.953 0.0365817 3.59881 0
M  V30 4927 C 491.561 1.39719 4.25655 0
M  V30 4928 C 493.305 -0.431545 4.22301 0
M  V30 4929 C 491.212 1.34345 5.75939 0
M  V30 4930 H 490.142 0.0144492 0.753862 0
M  V30 4931 H 492.793 0.719928 1.68788 0
M  V30 4932 H 491.175 -0.700522 3.89755 0
M  V30 4933 H 492.349 2.15303 4.07408 0
M  V30 4934 H 490.664 1.80431 3.75278 0
M  V30 4935 H 493.261 -0.490354 5.32447 0
M  V30 4936 H 493.604 -1.44638 3.90366 0
M  V30 4937 H 494.137 0.251102 3.97007 0
M  V30 4938 H 490.876 2.33469 6.12513 0
M  V30 4939 H 490.396 0.629615 5.96486 0
M  V30 4940 H 492.075 1.051 6.38407 0
M  V30 4941 N 492.207 -1.54576 0.307264 0
M  V30 4942 C 493.456 -1.99442 -0.300976 0
M  V30 4943 C 493.769 -1.19928 -1.5452 0
M  V30 4944 O 494.975 -1.55092 -2.22842 0
M  V30 4945 C 493.431 -3.55084 -0.586809 0
M  V30 4946 C 493.039 -4.43413 0.639438 0
M  V30 4947 C 494.783 -4.0846 -1.1559 0
M  V30 4948 C 492.69 -5.90499 0.326411 0
M  V30 4949 H 491.62 -0.744986 -0.116238 0
M  V30 4950 H 494.271 -1.787 0.416947 0
M  V30 4951 H 492.653 -3.71749 -1.36449 0
M  V30 4952 H 493.827 -4.38522 1.41545 0
M  V30 4953 H 492.142 -4.00842 1.1276 0
M  V30 4954 H 494.739 -5.15926 -1.40445 0
M  V30 4955 H 495.082 -3.59443 -2.10015 0
M  V30 4956 H 495.615 -3.95362 -0.439778 0
M  V30 4957 H 492.354 -6.43676 1.23939 0
M  V30 4958 H 491.874 -5.98382 -0.412212 0
M  V30 4959 H 493.553 -6.46962 -0.0697393 0
M  V30 4960 N 493.685 -0.035106 -1.57561 0
M  V30 4961 C 494.648 0.929819 -2.09492 0
M  V30 4962 C 495.648 1.25026 -1.01119 0
M  V30 4963 O 496.838 1.18961 -1.27255 0
M  V30 4964 C 493.97 2.24457 -2.56577 0
M  V30 4965 H 495.163 0.479935 -2.96035 0
M  V30 4966 H 492.716 0.213033 -1.54841 0
M  V30 4967 H 493.451 2.74061 -1.73382 0
M  V30 4968 H 493.236 2.02508 -3.35757 0
M  V30 4969 H 494.726 2.93607 -2.96959 0
M  V30 4970 N 495.163 1.55791 0.238111 0
M  V30 4971 C 496.073 1.94196 1.31625 0
M  V30 4972 C 497.089 0.843545 1.52185 0
M  V30 4973 O 498.265 1.1457 1.65637 0
M  V30 4974 C 495.33 2.2365 2.64918 0
M  V30 4975 C 494.391 3.46971 2.52804 0
M  V30 4976 C 493.624 3.7501 3.79741 0
M  V30 4977 O 493.847 3.04982 4.82019 0
M  V30 4978 O 492.781 4.68525 3.77846 0
M  V30 4979 H 496.607 2.86044 1.02043 0
M  V30 4980 H 494.192 1.42786 0.439603 0
M  V30 4981 H 496.074 2.43863 3.4367 0
M  V30 4982 H 494.749 1.34979 2.94215 0
M  V30 4983 H 493.656 3.32055 1.72309 0
M  V30 4984 H 494.989 4.35971 2.28451 0
M  V30 4985 N 496.642 -0.504142 1.49319 0
M  V30 4986 C 497.888 -1.26033 1.58882 0
M  V30 4987 C 498.221 -1.92268 0.273274 0
M  V30 4988 O 497.496 -1.80567 -0.72291 0
M  V30 4989 C 497.779 -2.32976 2.7458 0
M  V30 4990 C 497.632 -1.71263 4.1592 0
M  V30 4991 C 498.951 -3.34561 2.85932 0
M  V30 4992 H 496.07 -0.456863 0.578312 0
M  V30 4993 H 498.712 -0.558965 1.81592 0
M  V30 4994 H 496.862 -2.92796 2.55348 0
M  V30 4995 H 498.534 -1.15294 4.4666 0
M  V30 4996 H 496.777 -1.01686 4.21714 0
M  V30 4997 H 497.448 -2.48816 4.92742 0
M  V30 4998 H 499.924 -2.84727 3.0343 0
M  V30 4999 H 498.8 -4.06754 3.68568 0
M  V30 5000 H 499.061 -3.96695 1.95154 0
M  V30 5001 N 498.12 -1.38341 -0.754957 0
M  V30 5002 C 499.067 -1.3546 -1.86867 0
M  V30 5003 C 500.037 -0.217369 -1.64672 0
M  V30 5004 O 501.222 -0.409383 -1.86356 0
M  V30 5005 C 498.362 -1.18413 -3.24149 0
M  V30 5006 C 497.475 -2.41511 -3.58185 0
M  V30 5007 C 496.61 -2.17205 -4.84763 0
M  V30 5008 C 495.649 -3.36081 -5.11582 0
M  V30 5009 N 494.786 -3.11219 -6.29354 0
M  V30 5010 H 499.626 -2.30672 -1.88664 0
M  V30 5011 H 497.163 -1.14607 -0.922154 0
M  V30 5012 H 499.121 -1.06545 -4.03366 0
M  V30 5013 H 497.751 -0.268397 -3.21682 0
M  V30 5014 H 496.803 -2.64056 -2.73822 0
M  V30 5015 H 498.115 -3.30115 -3.73932 0
M  V30 5016 H 497.269 -2.02465 -5.7192 0
M  V30 5017 H 496.008 -1.25964 -4.71152 0
M  V30 5018 H 495.013 -3.51341 -4.22894 0
M  V30 5019 H 496.238 -4.28196 -5.27091 0
M  V30 5020 H 494.184 -2.22624 -6.17069 0
M  V30 5021 H 494.101 -3.93373 -6.45596 0
M  V30 5022 H 495.369 -3.00132 -7.19403 0
M  V30 5023 N 499.598 0.982988 -1.23187 0
M  V30 5024 C 500.561 2.05649 -1.01198 0
M  V30 5025 C 501.561 1.6078 0.0252464 0
M  V30 5026 O 502.751 1.72878 -0.214243 0
M  V30 5027 C 499.883 3.36744 -0.530656 0
M  V30 5028 H 501.076 2.2659 -1.96461 0
M  V30 5029 H 498.629 1.15602 -1.05195 0
M  V30 5030 H 499.364 3.21492 0.425873 0
M  V30 5031 H 499.149 3.7065 -1.2791 0
M  V30 5032 H 500.639 4.15705 -0.397366 0
M  V30 5033 N 501.076 1.04316 1.18135 0
M  V30 5034 C 502.008 0.594444 2.21357 0
M  V30 5035 C 503.021 -0.337215 1.59269 0
M  V30 5036 O 504.21 -0.131337 1.78016 0
M  V30 5037 C 501.31 -0.151251 3.38562 0
M  V30 5038 C 500.483 0.788907 4.30227 0
M  V30 5039 C 499.542 0.0860572 5.2613 0
M  V30 5040 O 498.568 0.717302 5.64662 0
M  V30 5041 N 499.77 -1.17969 5.68387 0
M  V30 5042 H 502.535 1.48227 2.60478 0
M  V30 5043 H 500.096 0.92396 1.32946 0
M  V30 5044 H 502.088 -0.631352 3.99745 0
M  V30 5045 H 500.658 -0.940639 2.98112 0
M  V30 5046 H 499.878 1.44882 3.6661 0
M  V30 5047 H 501.166 1.42738 4.88368 0
M  V30 5048 H 500.564 -1.71302 5.3914 0
M  V30 5049 H 499.121 -1.60402 6.31755 0
M  V30 5050 N 502.554 -1.34406 0.822964 0
M  V30 5051 C 503.784 -2.02214 0.423424 0
M  V30 5052 C 504.192 -1.62124 -0.975322 0
M  V30 5053 O 503.535 -0.822452 -1.6426 0
M  V30 5054 C 503.597 -3.56721 0.446107 0
M  V30 5055 C 503.261 -4.20136 1.79819 0
M  V30 5056 C 504.258 -4.4065 2.75904 0
M  V30 5057 C 501.943 -4.56906 2.08669 0
M  V30 5058 C 503.937 -4.9706 3.99012 0
M  V30 5059 C 501.624 -5.13026 3.32036 0
M  V30 5060 C 502.622 -5.33047 4.27024 0
M  V30 5061 O 502.31 -5.87979 5.48211 0
M  V30 5062 H 502.042 -0.654748 0.168169 0
M  V30 5063 H 504.596 -1.72659 1.11257 0
M  V30 5064 H 502.826 -3.85537 -0.299734 0
M  V30 5065 H 504.515 -4.05845 0.0666114 0
M  V30 5066 H 505.281 -4.12607 2.54912 0
M  V30 5067 H 501.16 -4.40626 1.35535 0
M  V30 5068 H 504.704 -5.12603 4.73164 0
M  V30 5069 H 500.601 -5.40498 3.52891 0
M  V30 5070 H 501.369 -6.06413 5.49732 0
M  V30 5071 N 504.032 -0.577932 -1.46621 0
M  V30 5072 C 504.942 0.160651 -2.34049 0
M  V30 5073 C 505.958 0.890911 -1.49462 0
M  V30 5074 O 507.134 0.855166 -1.82343 0
M  V30 5075 C 504.199 1.16447 -3.26559 0
M  V30 5076 C 503.26 0.4394 -4.27045 0
M  V30 5077 C 502.493 1.3954 -5.15135 0
M  V30 5078 O 502.716 2.63162 -5.06065 0
M  V30 5079 O 501.65 0.908585 -5.95003 0
M  V30 5080 H 505.476 -0.557057 -2.98547 0
M  V30 5081 H 503.061 -0.338369 -1.45518 0
M  V30 5082 H 504.943 1.7434 -3.83645 0
M  V30 5083 H 503.618 1.86373 -2.64663 0
M  V30 5084 H 502.525 -0.181247 -3.73661 0
M  V30 5085 H 503.858 -0.218799 -4.91713 0
M  V30 5086 N 505.51 1.54411 -0.315457 0
M  V30 5087 C 506.42 2.27737 0.56329 0
M  V30 5088 C 507.436 1.31787 1.13614 0
M  V30 5089 O 508.612 1.64791 1.15784 0
M  V30 5090 C 505.677 3.01478 1.71207 0
M  V30 5091 C 504.738 4.12997 1.17185 0
M  V30 5092 C 503.971 4.83212 2.26588 0
M  V30 5093 O 504.194 4.52884 3.46775 0
M  V30 5094 O 503.128 5.70299 1.92463 0
M  V30 5095 H 506.954 3.03683 -0.0319614 0
M  V30 5096 H 504.539 1.49178 -0.0814188 0
M  V30 5097 H 506.421 3.47683 2.38106 0
M  V30 5098 H 505.096 2.28414 2.29366 0
M  V30 5099 H 504.003 3.71159 0.468174 0
M  V30 5100 H 505.336 4.8808 0.635501 0
M  V30 5101 N 506.988 0.0434614 1.5754 0
M  V30 5102 C 508.237 -0.631454 1.91561 0
M  V30 5103 C 508.55 -1.72457 0.92292 0
M  V30 5104 O 509.756 -2.45712 1.15489 0
M  V30 5105 C 508.212 -1.17447 3.40197 0
M  V30 5106 C 507.82 -0.113867 4.47855 0
M  V30 5107 C 509.564 -1.82507 3.83264 0
M  V30 5108 C 507.471 -0.669326 5.876 0
M  V30 5109 H 506.401 -0.239629 0.714908 0
M  V30 5110 H 509.052 0.111097 1.83163 0
M  V30 5111 H 507.434 -1.96909 3.43574 0
M  V30 5112 H 508.608 0.659348 4.56058 0
M  V30 5113 H 506.923 0.438821 4.14081 0
M  V30 5114 H 509.52 -2.25047 4.85034 0
M  V30 5115 H 509.863 -2.67365 3.19095 0
M  V30 5116 H 510.396 -1.09712 3.82372 0
M  V30 5117 H 507.135 0.141449 6.55347 0
M  V30 5118 H 506.655 -1.4107 5.82974 0
M  V30 5119 H 508.334 -1.15463 6.36614 0
M  V30 5120 N 508.466 -1.55915 -0.229846 0
M  V30 5121 C 509.429 -1.90914 -1.26824 0
M  V30 5122 C 510.429 -0.786999 -1.40225 0
M  V30 5123 O 511.619 -1.05484 -1.38632 0
M  V30 5124 C 508.751 -2.15264 -2.64337 0
M  V30 5125 H 509.944 -2.8378 -0.969998 0
M  V30 5126 H 507.497 -1.49069 -0.4699 0
M  V30 5127 H 508.232 -1.24923 -2.99274 0
M  V30 5128 H 508.017 -2.97005 -2.55989 0
M  V30 5129 H 509.507 -2.43467 -3.39284 0
M  V30 5130 N 509.944 0.496216 -1.49584 0
M  V30 5131 C 510.876 1.61404 -1.62731 0
M  V30 5132 C 511.889 1.54613 -0.50978 0
M  V30 5133 O 513.078 1.60458 -0.782017 0
M  V30 5134 C 510.178 3.00212 -1.57245 0
M  V30 5135 C 509.351 3.32138 -2.84611 0
M  V30 5136 C 508.41 4.5038 -2.72112 0
M  V30 5137 O 507.436 4.51926 -3.46051 0
M  V30 5138 N 508.638 5.50575 -1.83977 0
M  V30 5139 H 511.403 1.50552 -2.59141 0
M  V30 5140 H 508.964 0.684182 -1.46733 0
M  V30 5141 H 510.956 3.77241 -1.4653 0
M  V30 5142 H 509.526 3.04964 -0.686729 0
M  V30 5143 H 508.746 2.4396 -3.09641 0
M  V30 5144 H 510.034 3.50268 -3.69039 0
M  V30 5145 H 509.432 5.52128 -1.23171 0
M  V30 5146 H 507.989 6.26687 -1.79182 0
M  V30 5147 N 511.423 1.38739 0.74761 0
M  V30 5148 C 512.839 1.20067 1.05148 0
M  V30 5149 C 513.039 0.0534835 2.01429 0
M  V30 5150 O 512.095 -0.59886 2.45296 0
M  V30 5151 C 513.408 2.52957 1.62584 0
M  V30 5152 C 514.956 2.59692 1.74726 0
M  V30 5153 C 515.431 3.92772 2.35573 0
M  V30 5154 N 516.922 3.94343 2.42997 0
M  V30 5155 C 517.657 4.9408 2.90985 0
M  V30 5156 N 517.153 6.04214 3.38965 0
M  V30 5157 N 518.946 4.81466 2.9008 0
M  V30 5158 H 511.097 2.12121 0.108808 0
M  V30 5159 H 513.36 0.941491 0.110899 0
M  V30 5160 H 513.066 3.37389 0.993051 0
M  V30 5161 H 512.94 2.71779 2.61565 0
M  V30 5162 H 515.327 1.75651 2.3713 0
M  V30 5163 H 515.408 2.44731 0.744326 0
M  V30 5164 H 515.052 4.77238 1.738 0
M  V30 5165 H 514.982 4.05046 3.36519 0
M  V30 5166 H 517.473 3.14799 2.0907 0
M  V30 5167 H 517.786 6.76241 3.74056 0
M  V30 5168 H 516.131 6.07825 3.37007 0
M  V30 5169 H 519.322 3.94535 2.51912 0
M  V30 5170 H 519.495 5.59344 3.27166 0
M  V30 5171 N 512.901 -0.976442 1.23707 0
M  V30 5172 C 514.126 -1.75875 1.09922 0
M  V30 5173 C 514.551 -1.84911 -0.34489 0
M  V30 5174 O 513.909 -1.31363 -1.24954 0
M  V30 5175 C 513.957 -3.16179 1.73388 0
M  V30 5176 O 513.061 -4.00124 0.99871 0
M  V30 5177 H 512.402 -0.540954 0.385052 0
M  V30 5178 H 514.932 -1.22546 1.6384 0
M  V30 5179 H 514.942 -3.66741 1.78788 0
M  V30 5180 H 513.617 -3.08917 2.78466 0
M  V30 5181 H 512.194 -3.58624 1.02193 0
M  V30 5182 N 514.379 -1.04941 -1.1758 0
M  V30 5183 C 515.795 -0.770282 -1.39781 0
M  V30 5184 C 515.995 0.636417 -1.91186 0
M  V30 5185 O 515.051 1.39923 -2.10185 0
M  V30 5186 C 516.364 -1.82376 -2.3908 0
M  V30 5187 C 517.912 -1.84569 -2.52791 0
M  V30 5188 C 518.387 -2.88933 -3.55361 0
M  V30 5189 N 519.878 -2.8788 -3.62877 0
M  V30 5190 C 520.613 -3.65282 -4.41992 0
M  V30 5191 N 520.109 -4.52461 -5.24643 0
M  V30 5192 N 521.902 -3.53732 -4.36841 0
M  V30 5193 H 514.053 -1.95705 -0.825438 0
M  V30 5194 H 516.316 -0.847284 -0.425222 0
M  V30 5195 H 516.022 -2.83323 -2.08376 0
M  V30 5196 H 515.896 -1.66327 -3.38549 0
M  V30 5197 H 518.283 -0.842879 -2.82807 0
M  V30 5198 H 518.364 -2.04696 -1.53406 0
M  V30 5199 H 518.008 -3.89398 -3.26085 0
M  V30 5200 H 517.938 -2.66059 -4.54445 0
M  V30 5201 H 520.429 -2.24666 -3.03864 0
M  V30 5202 H 520.742 -5.08211 -5.82187 0
M  V30 5203 H 519.087 -4.56524 -5.24033 0
M  V30 5204 H 522.278 -2.85021 -3.71323 0
M  V30 5205 H 522.451 -4.14302 -4.98255 0
M  V30 5206 N 515.857 1.33968 -0.830081 0
M  V30 5207 C 516.82 2.27694 -0.26235 0
M  V30 5208 C 517.82 1.50589 0.563876 0
M  V30 5209 O 519.01 1.70028 0.378941 0
M  V30 5210 C 516.142 3.35002 0.63138 0
M  V30 5211 H 517.335 2.79419 -1.08928 0
M  V30 5212 H 514.888 1.44221 -0.602486 0
M  V30 5213 H 515.623 2.88504 1.48109 0
M  V30 5214 H 515.408 3.92079 0.0403276 0
M  V30 5215 H 516.898 4.04897 1.02217 0
M  V30 5216 N 517.335 0.585699 1.46312 0
M  V30 5217 C 518.245 -0.148236 2.34131 0
M  V30 5218 C 519.261 -0.882972 1.49932 0
M  V30 5219 O 520.437 -0.845484 1.82794 0
M  V30 5220 C 517.502 -1.14714 3.27172 0
M  V30 5221 C 516.563 -0.416746 4.27272 0
M  V30 5222 C 515.796 -1.36806 5.15868 0
M  V30 5223 O 516.019 -2.60475 5.07454 0
M  V30 5224 O 514.953 -0.877018 5.95476 0
M  V30 5225 H 518.779 0.572882 2.98248 0
M  V30 5226 H 516.364 0.346082 1.45336 0
M  V30 5227 H 518.246 -1.72303 3.84564 0
M  V30 5228 H 516.921 -1.84967 2.65648 0
M  V30 5229 H 515.828 0.201061 3.73559 0
M  V30 5230 H 517.161 0.244872 4.9159 0
M  V30 5231 N 518.813 -1.54241 0.323641 0
M  V30 5232 C 519.776 -2.22997 -0.529602 0
M  V30 5233 C 520.776 -1.22345 -1.04347 0
M  V30 5234 O 521.966 -1.46924 -0.935889 0
M  V30 5235 C 519.098 -2.93409 -1.73562 0
M  V30 5236 H 520.291 -2.99815 0.0714518 0
M  V30 5237 H 517.844 -1.56121 0.0747258 0
M  V30 5238 H 518.579 -2.20729 -2.37591 0
M  V30 5239 H 518.364 -3.67217 -1.37456 0
M  V30 5240 H 519.854 -3.45794 -2.34128 0
M  V30 5241 N 520.291 -0.0518155 -1.57515 0
M  V30 5242 C 521.201 0.937539 -2.15052 0
M  V30 5243 C 522.217 1.34121 -1.10849 0
M  V30 5244 O 523.393 1.418 -1.4302 0
M  V30 5245 C 520.458 2.19379 -2.68466 0
M  V30 5246 C 519.519 1.84841 -3.87469 0
M  V30 5247 C 518.752 3.04477 -4.38326 0
M  V30 5248 O 518.975 4.17868 -3.88256 0
M  V30 5249 O 517.909 2.85453 -5.29906 0
M  V30 5250 H 521.735 0.478201 -2.99912 0
M  V30 5251 H 519.32 0.17012 -1.48428 0
M  V30 5252 H 521.202 2.93084 -3.02787 0
M  V30 5253 H 519.877 2.64449 -1.86677 0
M  V30 5254 H 518.784 1.08449 -3.58036 0
M  V30 5255 H 520.117 1.44569 -4.7049 0
M  V30 5256 N 521.769 1.56035 0.221574 0
M  V30 5257 C 522.994 1.83476 0.967026 0
M  V30 5258 C 523.419 0.632139 1.7716 0
M  V30 5259 O 522.777 -0.419082 1.7639 0
M  V30 5260 C 522.825 3.08907 1.86034 0
M  V30 5261 O 521.929 2.876 2.95567 0
M  V30 5262 H 521.27 0.604913 0.273817 0
M  V30 5263 H 523.8 2.03247 0.234893 0
M  V30 5264 H 523.81 3.3901 2.27016 0
M  V30 5265 H 522.485 3.96068 1.26898 0
M  V30 5266 H 521.062 2.6873 2.58532 0
M  V30 5267 N 523.247 -0.488276 1.49845 0
M  V30 5268 C 524.493 -1.24065 1.61182 0
M  V30 5269 C 524.848 -1.9004 0.300435 0
M  V30 5270 O 524.141 -1.78341 -0.700365 0
M  V30 5271 C 524.335 -2.32152 2.71735 0
M  V30 5272 C 524.164 -1.76778 4.13497 0
M  V30 5273 C 522.934 -1.57513 4.80123 0
M  V30 5274 C 525.132 -1.27242 4.98311 0
M  V30 5275 N 523.114 -0.972015 6.06156 0
M  V30 5276 C 524.485 -0.791457 6.14928 0
M  V30 5277 C 526.54 -1.15934 4.84214 0
M  V30 5278 C 525.243 -0.208593 7.18997 0
M  V30 5279 C 527.269 -0.590436 5.88445 0
M  V30 5280 C 526.631 -0.119767 7.04298 0
M  V30 5281 H 522.73 -0.443487 0.644083 0
M  V30 5282 H 525.314 -0.545551 1.86901 0
M  V30 5283 H 523.485 -2.99108 2.47768 0
M  V30 5284 H 525.217 -2.99187 2.72523 0
M  V30 5285 H 521.972 -1.82247 4.37131 0
M  V30 5286 H 522.396 -0.689367 6.73481 0
M  V30 5287 H 527.038 -1.5092 3.94947 0
M  V30 5288 H 524.756 0.153501 8.07954 0
M  V30 5289 H 528.342 -0.505548 5.79599 0
M  V30 5290 H 527.222 0.313568 7.83573 0
M  V30 5291 N 524.725 -1.39134 -0.740242 0
M  V30 5292 C 525.955 -1.39132 -1.52728 0
M  V30 5293 C 526.363 0.0173133 -1.89192 0
M  V30 5294 O 525.706 0.997715 -1.54244 0
M  V30 5295 C 525.768 -2.1952 -2.84695 0
M  V30 5296 C 525.432 -3.68203 -2.70695 0
M  V30 5297 C 526.429 -4.61401 -2.39593 0
M  V30 5298 C 524.114 -4.11724 -2.8773 0
M  V30 5299 C 526.108 -5.96102 -2.25701 0
M  V30 5300 C 523.795 -5.46503 -2.73456 0
M  V30 5301 C 524.793 -6.38506 -2.42486 0
M  V30 5302 O 524.481 -7.70803 -2.28295 0
M  V30 5303 H 524.213 -0.477263 -0.478744 0
M  V30 5304 H 526.767 -1.83504 -0.922799 0
M  V30 5305 H 524.997 -1.69888 -3.47383 0
M  V30 5306 H 526.686 -2.1176 -3.46284 0
M  V30 5307 H 527.452 -4.29079 -2.26088 0
M  V30 5308 H 523.331 -3.4045 -3.10829 0
M  V30 5309 H 526.875 -6.6788 -2.0145 0
M  V30 5310 H 522.772 -5.78417 -2.86538 0
M  V30 5311 H 523.54 -7.8147 -2.43405 0
M  V30 5312 N 526.204 0.969867 -1.24223 0
M  V30 5313 C 527.136 2.0669 -0.99055 0
M  V30 5314 C 528.149 1.62753 0.0392222 0
M  V30 5315 O 529.338 1.77403 -0.197561 0
M  V30 5316 C 526.438 3.35589 -0.472594 0
M  V30 5317 C 525.611 4.08444 -1.56499 0
M  V30 5318 C 524.67 5.15616 -1.05007 0
M  V30 5319 O 523.696 5.41911 -1.7413 0
M  V30 5320 N 524.898 5.80383 0.116641 0
M  V30 5321 H 527.663 2.28855 -1.93508 0
M  V30 5322 H 525.224 1.13733 -1.15223 0
M  V30 5323 H 527.216 4.04542 -0.112919 0
M  V30 5324 H 525.786 3.10311 0.377617 0
M  V30 5325 H 525.006 3.33798 -2.09696 0
M  V30 5326 H 526.294 4.53882 -2.29932 0
M  V30 5327 H 525.692 5.6142 0.694589 0
M  V30 5328 H 524.249 6.50462 0.417483 0
M  V30 5329 N 527.682 1.05563 1.17022 0
M  V30 5330 C 528.91 0.78845 1.91288 0
M  V30 5331 C 529.325 -0.656318 1.77025 0
M  V30 5332 O 528.682 -1.44869 1.10992 0
M  V30 5333 C 528.733 1.16444 3.42232 0
M  V30 5334 O 528.454 2.5525 3.5606 0
M  V30 5335 C 529.955 0.923937 4.33565 0
M  V30 5336 H 527.175 0.286389 0.606813 0
M  V30 5337 H 529.719 1.4073 1.48375 0
M  V30 5338 H 527.874 0.590266 3.82877 0
M  V30 5339 H 528.288 2.70097 4.49609 0
M  V30 5340 H 529.762 1.23672 5.37968 0
M  V30 5341 H 530.239 -0.140688 4.38975 0
M  V30 5342 H 530.845 1.48214 3.98639 0
M  V30 5343 N 529.16 -1.33526 0.837174 0
M  V30 5344 C 530.107 -2.29248 0.267169 0
M  V30 5345 C 531.077 -1.54252 -0.616071 0
M  V30 5346 O 532.262 -1.82559 -0.554699 0
M  V30 5347 C 529.402 -3.40638 -0.553152 0
M  V30 5348 C 528.515 -4.30548 0.353921 0
M  V30 5349 C 527.65 -5.29051 -0.477339 0
M  V30 5350 C 526.689 -6.106 0.42823 0
M  V30 5351 N 525.826 -7.01152 -0.364801 0
M  V30 5352 H 530.666 -2.77398 1.08877 0
M  V30 5353 H 528.203 -1.36496 0.54838 0
M  V30 5354 H 530.161 -4.03921 -1.04422 0
M  V30 5355 H 528.791 -2.93685 -1.33973 0
M  V30 5356 H 527.843 -3.68001 0.963289 0
M  V30 5357 H 529.155 -4.87631 1.04964 0
M  V30 5358 H 528.309 -5.97853 -1.0323 0
M  V30 5359 H 527.048 -4.72541 -1.2065 0
M  V30 5360 H 526.053 -5.40718 0.995219 0
M  V30 5361 H 527.278 -6.69193 1.15573 0
M  V30 5362 H 525.224 -6.47092 -1.07738 0
M  V30 5363 H 525.141 -7.5551 0.272238 0
M  V30 5364 H 526.409 -7.74263 -0.902054 0
M  V30 5365 N 530.638 -0.59345 -1.46 0
M  V30 5366 C 531.868 -0.0889642 -2.06408 0
M  V30 5367 C 532.276 1.22597 -1.44106 0
M  V30 5368 O 531.619 1.75448 -0.544398 0
M  V30 5369 C 531.681 0.139902 -3.59228 0
M  V30 5370 C 531.345 -1.09107 -4.43784 0
M  V30 5371 C 532.342 -2.00577 -4.79651 0
M  V30 5372 C 530.027 -1.31593 -4.84756 0
M  V30 5373 C 532.021 -3.12873 -5.55328 0
M  V30 5374 C 529.708 -2.44192 -5.60191 0
M  V30 5375 C 530.706 -3.34661 -5.95392 0
M  V30 5376 O 530.394 -4.45302 -6.69299 0
M  V30 5377 H 530.126 -0.0594613 -0.67338 0
M  V30 5378 H 532.68 -0.817 -1.88452 0
M  V30 5379 H 530.91 0.922672 -3.75531 0
M  V30 5380 H 532.599 0.594228 -4.01527 0
M  V30 5381 H 533.365 -1.84425 -4.48567 0
M  V30 5382 H 529.244 -0.620801 -4.56801 0
M  V30 5383 H 532.788 -3.83511 -5.82722 0
M  V30 5384 H 528.685 -2.60303 -5.90688 0
M  V30 5385 H 529.453 -4.43805 -6.87735 0
M  V30 5386 N 532.116 1.54067 -0.331816 0
M  V30 5387 C 533.026 2.28322 0.539104 0
M  V30 5388 C 534.042 1.32985 1.1221 0
M  V30 5389 O 535.218 1.6601 1.1403 0
M  V30 5390 C 532.283 3.03277 1.68 0
M  V30 5391 C 531.344 4.14216 1.12798 0
M  V30 5392 C 530.577 4.85588 2.2145 0
M  V30 5393 O 530.8 4.56536 3.41952 0
M  V30 5394 O 529.734 5.72309 1.86404 0
M  V30 5395 H 533.56 3.03632 -0.0641692 0
M  V30 5396 H 531.145 1.49083 -0.0972365 0
M  V30 5397 H 533.027 3.50189 2.34405 0
M  V30 5398 H 531.702 2.30834 2.2693 0
M  V30 5399 H 530.609 3.71635 0.428782 0
M  V30 5400 H 531.942 4.88727 0.583698 0
M  V30 5401 N 533.594 0.0601682 1.57485 0
M  V30 5402 C 534.504 -0.926121 2.15546 0
M  V30 5403 C 535.52 -1.33532 1.11558 0
M  V30 5404 O 536.696 -1.4104 1.4377 0
M  V30 5405 C 533.761 -2.17952 2.69625 0
M  V30 5406 C 532.822 -1.82783 3.88444 0
M  V30 5407 C 532.055 -3.02148 4.39935 0
M  V30 5408 O 532.278 -4.15803 3.90466 0
M  V30 5409 O 531.212 -2.82639 5.31412 0
M  V30 5410 H 535.038 -0.462289 3.00161 0
M  V30 5411 H 532.623 -0.162246 1.48516 0
M  V30 5412 H 534.505 -2.91474 3.04337 0
M  V30 5413 H 533.18 -2.63456 1.88077 0
M  V30 5414 H 532.087 -1.06549 3.58606 0
M  V30 5415 H 533.42 -1.42072 4.7125 0
M  V30 5416 N 535.072 -1.5615 -0.213296 0
M  V30 5417 C 536.002 -1.96109 -1.26742 0
M  V30 5418 C 536.983 -0.830448 -1.48451 0
M  V30 5419 O 538.168 -1.09339 -1.60495 0
M  V30 5420 C 535.298 -2.28492 -2.61551 0
M  V30 5421 C 534.252 -3.44124 -2.54485 0
M  V30 5422 C 533.578 -3.62134 -3.93399 0
M  V30 5423 C 534.878 -4.78855 -2.08556 0
M  V30 5424 H 536.572 -2.84412 -0.935434 0
M  V30 5425 H 534.118 -1.36836 -0.44854 0
M  V30 5426 H 536.071 -2.55039 -3.3546 0
M  V30 5427 H 534.795 -1.37052 -2.96453 0
M  V30 5428 H 533.454 -3.17639 -1.83033 0
M  V30 5429 H 533.102 -2.68055 -4.25623 0
M  V30 5430 H 532.802 -4.39913 -3.89551 0
M  V30 5431 H 534.326 -3.91038 -4.68958 0
M  V30 5432 H 535.74 -5.04552 -2.72213 0
M  V30 5433 H 534.137 -5.59975 -2.1575 0
M  V30 5434 H 535.207 -4.73657 -1.03811 0
M  V30 5435 N 536.55 0.480323 -1.50102 0
M  V30 5436 C 537.482 1.59669 -1.64433 0
M  V30 5437 C 538.495 1.54063 -0.52615 0
M  V30 5438 O 539.684 1.59619 -0.798992 0
M  V30 5439 C 536.784 2.98527 -1.6042 0
M  V30 5440 C 535.957 3.291 -2.88117 0
M  V30 5441 C 535.016 4.47468 -2.76873 0
M  V30 5442 O 534.042 4.4823 -3.50825 0
M  V30 5443 N 535.244 5.48593 -1.89806 0
M  V30 5444 H 538.009 1.47795 -2.60723 0
M  V30 5445 H 535.57 0.66858 -1.4745 0
M  V30 5446 H 537.562 3.75666 -1.50523 0
M  V30 5447 H 536.132 3.04218 -0.719036 0
M  V30 5448 H 535.352 2.40662 -3.12211 0
M  V30 5449 H 536.64 3.46334 -3.72734 0
M  V30 5450 H 536.038 5.50791 -1.2902 0
M  V30 5451 H 534.595 6.24752 -1.85819 0
M  V30 5452 N 538.028 1.39524 0.732853 0
M  V30 5453 C 539.274 1.37068 1.49467 0
M  V30 5454 C 539.607 -0.0327166 1.94172 0
M  V30 5455 O 538.882 -0.998071 1.66939 0
M  V30 5456 C 539.165 2.34494 2.73285 0
M  V30 5457 C 539.018 3.83784 2.34585 0
M  V30 5458 C 540.337 2.29717 3.75391 0
M  V30 5459 H 537.456 0.499206 0.542183 0
M  V30 5460 H 540.098 1.70532 0.837783 0
M  V30 5461 H 538.248 2.06087 3.29333 0
M  V30 5462 H 539.92 4.22949 1.84151 0
M  V30 5463 H 538.163 4.00455 1.66787 0
M  V30 5464 H 538.834 4.47444 3.23262 0
M  V30 5465 H 541.31 2.54839 3.28932 0
M  V30 5466 H 540.186 2.99962 4.59689 0
M  V30 5467 H 540.447 1.30291 4.22465 0
M  V30 5468 N 539.506 -0.963266 1.24736 0
M  V30 5469 C 540.734 -1.74166 1.11686 0
M  V30 5470 C 541.149 -1.8589 -0.330187 0
M  V30 5471 O 540.506 -1.35042 -1.2276 0
M  V30 5472 C 540.557 -3.15989 1.75595 0
M  V30 5473 O 540.278 -3.04847 3.14642 0
M  V30 5474 C 541.779 -4.10145 1.68213 0
M  V30 5475 H 538.999 -0.546031 0.389989 0
M  V30 5476 H 541.543 -1.20907 1.64929 0
M  V30 5477 H 539.698 -3.66219 1.26343 0
M  V30 5478 H 540.112 -3.9425 3.4593 0
M  V30 5479 H 541.586 -5.07299 2.17604 0
M  V30 5480 H 542.063 -4.3445 0.644208 0
M  V30 5481 H 542.669 -3.65827 2.16912 0
M  V30 5482 N 540.985 -1.06182 -1.16461 0
M  V30 5483 C 541.948 -0.675723 -2.19013 0
M  V30 5484 C 542.948 0.277963 -1.58379 0
M  V30 5485 O 544.138 0.0604962 -1.74095 0
M  V30 5486 C 541.27 0.00591459 -3.40899 0
M  V30 5487 H 542.463 -1.58353 -2.54685 0
M  V30 5488 H 540.016 -0.856908 -1.30716 0
M  V30 5489 H 540.751 0.92652 -3.10783 0
M  V30 5490 H 540.536 -0.67984 -3.86161 0
M  V30 5491 H 542.026 0.26181 -4.16778 0
M  V30 5492 N 542.463 1.3308 -0.844243 0
M  V30 5493 C 543.711 1.97215 -0.441676 0
M  V30 5494 C 544.032 1.67185 1.0037 0
M  V30 5495 O 543.302 0.973588 1.69994 0
M  V30 5496 H 541.882 0.72959 -0.160335 0
M  V30 5497 H 544.544 1.62348 -1.07838 0
M  V30 5498 H 543.64 3.06698 -0.57815 0
M  V30 5499 N 543.941 0.601185 1.45683 0
M  V30 5500 C 545.357 0.264315 1.57396 0
M  V30 5501 C 545.557 -1.23324 1.59353 0
M  V30 5502 O 544.613 -2.01594 1.52039 0
M  V30 5503 C 545.926 0.929839 2.85962 0
M  V30 5504 C 547.474 0.905156 2.99626 0
M  V30 5505 C 547.949 1.55057 4.30954 0
M  V30 5506 N 549.44 1.51576 4.37697 0
M  V30 5507 C 550.175 1.98436 5.37969 0
M  V30 5508 N 549.671 2.53352 6.44813 0
M  V30 5509 N 551.464 1.89242 5.29286 0
M  V30 5510 H 543.615 1.57363 1.42656 0
M  V30 5511 H 545.878 0.658831 0.681649 0
M  V30 5512 H 545.584 1.98404 2.90394 0
M  V30 5513 H 545.458 0.449224 3.74515 0
M  V30 5514 H 547.845 -0.14048 2.94765 0
M  V30 5515 H 547.926 1.42397 2.12501 0
M  V30 5516 H 547.57 2.5955 4.36573 0
M  V30 5517 H 547.5 1.00682 5.16886 0
M  V30 5518 H 549.991 1.11452 3.61091 0
M  V30 5519 H 550.304 2.86918 7.17564 0
M  V30 5520 H 548.649 2.57388 6.45582 0
M  V30 5521 H 551.84 1.46083 4.44722 0
M  V30 5522 H 552.013 2.26075 6.07284 0
M  V30 5523 N 545.419 -1.53889 0.339982 0
M  V30 5524 C 546.369 -2.2165 -0.534354 0
M  V30 5525 C 547.353 -1.20266 -1.06887 0
M  V30 5526 O 548.545 -1.45827 -1.00316 0
M  V30 5527 C 545.674 -2.99014 -1.68659 0
M  V30 5528 C 544.76 -4.07751 -1.16618 0
M  V30 5529 N 545.151 -5.04469 -0.366717 0
M  V30 5530 C 543.449 -4.21998 -1.4434 0
M  V30 5531 C 544.15 -5.81638 -0.0847275 0
M  V30 5532 N 543.126 -5.39388 -0.675391 0
M  V30 5533 H 546.928 -2.93781 0.0835562 0
M  V30 5534 H 544.442 -1.61736 0.146665 0
M  V30 5535 H 546.439 -3.46056 -2.32489 0
M  V30 5536 H 545.099 -2.28408 -2.30781 0
M  V30 5537 H 546.11 -5.17899 -0.00811038 0
M  V30 5538 H 542.787 -3.62612 -2.06928 0
M  V30 5539 H 544.177 -6.69563 0.559943 0
M  V30 5540 N 546.897 -0.0685191 -1.57451 0
M  V30 5541 C 548.145 0.60016 -1.92983 0
M  V30 5542 C 548.466 1.70348 -0.949028 0
M  V30 5543 O 547.736 1.959 0.00335647 0
M  V30 5544 H 546.316 0.224682 -0.712409 0
M  V30 5545 H 548.978 -0.125605 -1.94495 0
M  V30 5546 H 548.074 1.02759 -2.94698 0
M  V30 5547 N 548.375 1.56261 0.205012 0
M  V30 5548 C 549.652 1.70856 0.952233 0
M  V30 5549 C 550.032 0.620501 2.01775 0
M  V30 5550 O 549.38 -0.370035 2.25484 0
M  V30 5551 C 549.59 3.12807 1.54767 0
M  V30 5552 C 550.938 3.72733 2.0336 0
M  V30 5553 O 551.962 3.15873 1.64629 0
M  V30 5554 O 550.821 4.72501 2.746 0
M  V30 5555 H 547.915 0.696496 0.445895 0
M  V30 5556 H 550.461 1.6857 0.195489 0
M  V30 5557 H 549.233 3.83465 0.779132 0
M  V30 5558 H 548.856 3.1928 2.36951 0
M  V30 5559 N 549.853 -0.472356 1.50355 0
M  V30 5560 C 551.13 -1.23356 1.51798 0
M  V30 5561 C 551.51 -2.09469 0.26193 0
M  V30 5562 O 550.858 -2.15677 -0.754691 0
M  V30 5563 C 551.068 -2.06568 2.81302 0
M  V30 5564 C 552.416 -2.648 3.31913 0
M  V30 5565 O 553.44 -2.16812 2.82614 0
M  V30 5566 O 552.299 -3.52231 4.17846 0
M  V30 5567 H 549.393 -0.559707 0.608816 0
M  V30 5568 H 551.939 -0.48428 1.62643 0
M  V30 5569 H 550.711 -1.43103 3.64194 0
M  V30 5570 H 550.334 -2.88633 2.73454 0
M  V30 5571 N 551.331 -1.39911 -0.725443 0
M  V30 5572 C 552.261 -1.42138 -1.85254 0
M  V30 5573 C 553.242 -0.283513 -1.67721 0
M  V30 5574 O 554.427 -0.490717 -1.87898 0
M  V30 5575 C 551.557 -1.27354 -3.23107 0
M  V30 5576 C 550.511 -2.3864 -3.55296 0
M  V30 5577 C 549.837 -2.08939 -4.92188 0
M  V30 5578 C 551.137 -3.8097 -3.57295 0
M  V30 5579 H 552.831 -2.36461 -1.83648 0
M  V30 5580 H 550.377 -1.13817 -0.882138 0
M  V30 5581 H 552.33 -1.2753 -4.01639 0
M  V30 5582 H 551.054 -0.295025 -3.25265 0
M  V30 5583 H 549.713 -2.37696 -2.79099 0
M  V30 5584 H 549.361 -1.09502 -4.90936 0
M  V30 5585 H 549.061 -2.83491 -5.14691 0
M  V30 5586 H 550.585 -2.10781 -5.73065 0
M  V30 5587 H 551.999 -3.8379 -4.25885 0
M  V30 5588 H 550.396 -4.5496 -3.9132 0
M  V30 5589 H 551.466 -4.11261 -2.5689 0
M  V30 5590 N 552.809 0.956637 -1.25245 0
M  V30 5591 C 554.225 1.22733 -1.02023 0
M  V30 5592 C 554.425 1.99761 0.264186 0
M  V30 5593 O 553.481 2.32814 0.977436 0
M  V30 5594 C 554.794 2.00367 -2.24217 0
M  V30 5595 C 556.342 2.13418 -2.28958 0
M  V30 5596 C 556.817 2.9445 -3.50803 0
M  V30 5597 N 558.308 3.02029 -3.51187 0
M  V30 5598 C 559.043 3.65116 -4.42129 0
M  V30 5599 N 558.539 4.2983 -5.43339 0
M  V30 5600 N 560.332 3.62237 -4.29815 0
M  V30 5601 H 552.483 0.441282 -2.07765 0
M  V30 5602 H 554.746 0.257686 -0.912306 0
M  V30 5603 H 554.452 1.51165 -3.17556 0
M  V30 5604 H 554.326 3.01077 -2.27228 0
M  V30 5605 H 556.713 2.61819 -1.36143 0
M  V30 5606 H 556.794 1.1202 -2.29968 0
M  V30 5607 H 556.438 2.46741 -4.43939 0
M  V30 5608 H 556.368 3.9607 -3.47039 0
M  V30 5609 H 558.859 2.56007 -2.77973 0
M  V30 5610 H 559.172 4.75819 -6.08947 0
M  V30 5611 H 557.517 4.28465 -5.47214 0
M  V30 5612 H 560.708 3.10863 -3.49974 0
M  V30 5613 H 560.881 4.11117 -5.00886 0
M  V30 5614 N 554.287 1.06798 1.15896 0
M  V30 5615 C 555.235 0.677525 2.22514 0
M  V30 5616 C 556.229 -0.308994 1.66558 0
M  V30 5617 O 557.435 -0.173308 1.79164 0
M  V30 5618 H 553.81 0.200994 0.724642 0
M  V30 5619 H 555.781 1.5865 2.52731 0
M  V30 5620 C 554.53 0.0854153 3.47595 0
M  V30 5621 H 553.853 0.835645 3.90969 0
M  V30 5622 H 555.293 -0.150199 4.23734 0
M  V30 5623 C 553.752 -1.1724 3.15843 0
M  V30 5624 O 554.282 -2.25965 3.32119 0
M  V30 5625 N 552.488 -1.07636 2.69931 0
M  V30 5626 H 552.035 -0.191559 2.56887 0
M  V30 5627 H 551.993 -1.91876 2.4906 0
M  V30 5628 N 555.766 -1.3263 0.851289 0
M  V30 5629 C 556.994 -2.01563 0.466899 0
M  V30 5630 C 557.409 -1.63996 -0.935447 0
M  V30 5631 O 556.766 -0.85957 -1.6099 0
M  V30 5632 C 556.817 -3.56613 0.592433 0
M  V30 5633 O 556.538 -3.92828 1.93954 0
M  V30 5634 C 558.039 -4.42818 0.206612 0
M  V30 5635 H 555.259 -0.645307 0.183902 0
M  V30 5636 H 557.803 -1.69285 1.1473 0
M  V30 5637 H 555.958 -3.87379 -0.0401936 0
M  V30 5638 H 556.372 -4.87545 1.9339 0
M  V30 5639 H 557.846 -5.50918 0.345462 0
M  V30 5640 H 558.323 -4.30844 -0.85264 0
M  V30 5641 H 558.929 -4.17434 0.814176 0
M  V30 5642 N 557.244 -0.608902 -1.45362 0
M  V30 5643 C 558.191 0.109172 -2.30542 0
M  V30 5644 C 559.161 0.858704 -1.42181 0
M  V30 5645 O 560.346 0.844178 -1.71109 0
M  V30 5646 C 557.486 1.09971 -3.27109 0
M  V30 5647 C 556.599 0.350911 -4.30572 0
M  V30 5648 C 555.734 1.33129 -5.14247 0
M  V30 5649 C 554.773 0.570377 -6.09437 0
M  V30 5650 N 553.91 1.5001 -6.85887 0
M  V30 5651 H 558.75 -0.623195 -2.91411 0
M  V30 5652 H 556.287 -0.319122 -1.43597 0
M  V30 5653 H 558.245 1.68714 -3.81564 0
M  V30 5654 H 556.875 1.79947 -2.67991 0
M  V30 5655 H 555.927 -0.352054 -3.78767 0
M  V30 5656 H 557.239 -0.242725 -4.98209 0
M  V30 5657 H 556.393 1.99074 -5.73109 0
M  V30 5658 H 555.132 1.95885 -4.46632 0
M  V30 5659 H 554.137 -0.102702 -5.49704 0
M  V30 5660 H 555.362 -0.0521607 -6.7908 0
M  V30 5661 H 553.308 2.11529 -6.2096 0
M  V30 5662 H 553.225 0.959934 -7.49881 0
M  V30 5663 H 554.493 2.14909 -7.49289 0
M  V30 5664 N 558.722 1.53707 -0.348139 0
M  V30 5665 C 559.654 2.22725 0.540946 0
M  V30 5666 C 560.667 1.2354 1.06027 0
M  V30 5667 O 561.856 1.49867 0.96964 0
M  V30 5668 C 558.956 2.89756 1.75768 0
M  V30 5669 C 558.129 4.15297 1.37285 0
M  V30 5670 C 557.188 4.65697 2.44976 0
M  V30 5671 O 556.214 5.29798 2.08092 0
M  V30 5672 N 557.416 4.42017 3.763 0
M  V30 5673 H 560.181 2.99658 -0.0501592 0
M  V30 5674 H 557.742 1.60979 -0.17248 0
M  V30 5675 H 559.734 3.20388 2.47252 0
M  V30 5676 H 558.304 2.16382 2.25605 0
M  V30 5677 H 557.524 3.9116 0.488584 0
M  V30 5678 H 558.812 4.96948 1.09179 0
M  V30 5679 H 558.21 3.9076 4.09051 0
M  V30 5680 H 556.767 4.77242 4.4394 0
M  V30 5681 N 560.2 0.0768682 1.57412 0
M  V30 5682 C 561.11 -0.903207 2.16516 0
M  V30 5683 C 562.126 -1.32341 1.12968 0
M  V30 5684 O 563.302 -1.39507 1.45258 0
M  V30 5685 C 560.367 -2.1508 2.71922 0
M  V30 5686 C 559.428 -1.78653 3.90361 0
M  V30 5687 C 558.661 -2.97465 4.43114 0
M  V30 5688 O 558.884 -4.11638 3.94854 0
M  V30 5689 O 557.818 -2.76987 5.3438 0
M  V30 5690 H 561.644 -0.430427 3.00634 0
M  V30 5691 H 559.229 -0.146485 1.4868 0
M  V30 5692 H 561.111 -2.8823 3.07411 0
M  V30 5693 H 559.786 -2.61446 1.9086 0
M  V30 5694 H 558.693 -1.0274 3.59716 0
M  V30 5695 H 560.026 -1.37066 4.7273 0
M  V30 5696 N 561.678 -1.56367 -0.196722 0
M  V30 5697 C 562.927 -1.79724 -0.915539 0
M  V30 5698 C 563.24 -0.649804 -1.84491 0
M  V30 5699 O 564.446 -0.767631 -2.60422 0
M  V30 5700 C 562.902 -3.18369 -1.67836 0
M  V30 5701 C 562.51 -4.4091 -0.793897 0
M  V30 5702 C 564.254 -3.51037 -2.38691 0
M  V30 5703 C 562.161 -5.70577 -1.55549 0
M  V30 5704 H 561.091 -0.67013 -0.345604 0
M  V30 5705 H 563.742 -1.82721 -0.168856 0
M  V30 5706 H 562.124 -3.09617 -2.46887 0
M  V30 5707 H 563.298 -4.60781 -0.042163 0
M  V30 5708 H 561.613 -4.15937 -0.19626 0
M  V30 5709 H 564.21 -4.4515 -2.96219 0
M  V30 5710 H 564.553 -2.74704 -3.12799 0
M  V30 5711 H 565.086 -3.61229 -1.66608 0
M  V30 5712 H 561.825 -6.49871 -0.857226 0
M  V30 5713 H 561.345 -5.54726 -2.2812 0
M  V30 5714 H 563.024 -6.11637 -2.10971 0
M  V30 5715 N 563.156 0.464375 -1.50603 0
M  V30 5716 C 564.119 1.54393 -1.69397 0
M  V30 5717 C 565.119 1.50566 -0.564504 0
M  V30 5718 O 566.309 1.53066 -0.831645 0
M  V30 5719 C 563.441 2.9401 -1.72543 0
M  V30 5720 H 564.634 1.39044 -2.65719 0
M  V30 5721 H 562.187 0.69122 -1.40185 0
M  V30 5722 H 562.922 3.14795 -0.77938 0
M  V30 5723 H 562.707 2.98195 -2.54602 0
M  V30 5724 H 564.197 3.72375 -1.89015 0
M  V30 5725 N 564.634 1.40294 0.718013 0
M  V30 5726 C 565.544 1.42678 1.86226 0
M  V30 5727 C 566.56 0.319655 1.71039 0
M  V30 5728 O 567.736 0.563852 1.93346 0
M  V30 5729 C 564.801 1.2852 3.21999 0
M  V30 5730 C 563.862 2.49354 3.49458 0
M  V30 5731 C 563.095 2.35863 4.78753 0
M  V30 5732 O 563.318 1.37114 5.53675 0
M  V30 5733 O 562.252 3.25189 5.06494 0
M  V30 5734 H 566.078 2.39167 1.87171 0
M  V30 5735 H 563.663 1.2159 0.868112 0
M  V30 5736 H 565.545 1.22824 4.03103 0
M  V30 5737 H 564.22 0.351359 3.21787 0
M  V30 5738 H 563.127 2.60628 2.68373 0
M  V30 5739 H 564.46 3.41491 3.54464 0
M  V30 5740 N 566.112 -0.949982 1.2575 0
M  V30 5741 C 567.361 -1.68956 1.10168 0
M  V30 5742 C 567.674 -1.92327 -0.356309 0
M  V30 5743 O 568.88 -2.64026 -0.632657 0
M  V30 5744 C 567.336 -3.04196 1.92336 0
M  V30 5745 C 566.944 -2.88603 3.42655 0
M  V30 5746 C 568.688 -3.81904 1.85336 0
M  V30 5747 C 566.595 -4.19262 4.17101 0
M  V30 5748 H 565.525 -0.633645 0.408668 0
M  V30 5749 H 568.176 -1.05719 1.49986 0
M  V30 5750 H 566.558 -3.68363 1.45344 0
M  V30 5751 H 567.732 -2.3334 3.97353 0
M  V30 5752 H 566.047 -2.24345 3.50796 0
M  V30 5753 H 568.644 -4.78688 2.38248 0
M  V30 5754 H 568.987 -4.08099 0.822226 0
M  V30 5755 H 569.52 -3.24495 2.30104 0
M  V30 5756 H 566.259 -3.98254 5.20648 0
M  V30 5757 H 565.779 -4.74273 3.67186 0
M  V30 5758 H 567.458 -4.87775 4.25071 0
M  V30 5759 N 567.59 -1.07411 -1.15328 0
M  V30 5760 C 568.538 -0.689316 -2.22151 0
M  V30 5761 C 569.532 0.300156 -1.6672 0
M  V30 5762 O 570.738 0.163804 -1.79253 0
M  V30 5763 H 567.113 -0.204834 -0.723566 0
M  V30 5764 H 569.084 -1.59988 -2.51886 0
M  V30 5765 C 567.833 -0.103848 -3.47545 0
M  V30 5766 H 567.156 -0.856367 -3.90521 0
M  V30 5767 H 568.596 0.127725 -4.23808 0
M  V30 5768 C 567.055 1.15563 -3.1646 0
M  V30 5769 O 567.585 2.242 -3.33312 0
M  V30 5770 N 565.791 1.06203 -2.70498 0
M  V30 5771 H 565.338 0.177933 -2.56985 0
M  V30 5772 H 565.296 1.90553 -2.50074 0
M  V30 5773 N 569.068 1.32177 -0.85831 0
M  V30 5774 C 570.484 1.49873 -0.548656 0
M  V30 5775 C 570.684 1.79278 0.919874 0
M  V30 5776 O 569.74 1.86451 1.70271 0
M  V30 5777 C 571.053 2.64043 -1.4388 0
M  V30 5778 C 572.601 2.77928 -1.43961 0
M  V30 5779 C 573.076 3.95182 -2.31506 0
M  V30 5780 N 574.567 4.0245 -2.29321 0
M  V30 5781 C 575.302 4.9242 -2.93786 0
M  V30 5782 N 574.798 5.87373 -3.67376 0
M  V30 5783 N 576.591 4.85572 -2.83155 0
M  V30 5784 H 568.742 1.11357 -1.80868 0
M  V30 5785 H 571.005 0.549175 -0.772729 0
M  V30 5786 H 570.711 2.49055 -2.48324 0
M  V30 5787 H 570.585 3.59912 -1.12885 0
M  V30 5788 H 572.972 2.92338 -0.402813 0
M  V30 5789 H 573.053 1.82762 -1.78974 0
M  V30 5790 H 572.697 3.81531 -3.35256 0
M  V30 5791 H 572.627 4.89633 -1.93823 0
M  V30 5792 H 575.118 3.34507 -1.75822 0
M  V30 5793 H 575.431 6.52728 -4.13722 0
M  V30 5794 H 573.776 5.87388 -3.71484 0
M  V30 5795 H 576.967 4.10363 -2.25211 0
M  V30 5796 H 577.14 5.55486 -3.33676 0
M  V30 5797 N 570.547 0.616602 1.45037 0
M  V30 5798 C 571.48 -0.145984 2.27733 0
M  V30 5799 C 572.458 -0.865108 1.37676 0
M  V30 5800 O 573.642 -0.872152 1.6711 0
M  V30 5801 C 570.769 -1.2122 3.16265 0
M  V30 5802 C 569.815 -0.595218 4.22326 0
M  V30 5803 S 570.648 0.603744 5.32086 0
M  V30 5804 C 571.804 -0.462842 6.24186 0
M  V30 5805 H 572.037 0.555591 2.92062 0
M  V30 5806 H 569.57 0.404364 1.49011 0
M  V30 5807 H 571.528 -1.82247 3.67827 0
M  V30 5808 H 570.189 -1.88589 2.51183 0
M  V30 5809 H 569.382 -1.39775 4.8423 0
M  V30 5810 H 568.984 -0.0598965 3.73952 0
M  V30 5811 H 571.276 -1.33945 6.64127 0
M  V30 5812 H 572.219 0.120259 7.07998 0
M  V30 5813 H 572.627 -0.782219 5.59054 0
M  V30 5814 N 572.025 -1.5352 0.356285 0
M  V30 5815 C 573.274 -2.00298 -0.237373 0
M  V30 5816 C 573.587 -1.24784 -1.50627 0
M  V30 5817 O 574.793 -1.62103 -2.17795 0
M  V30 5818 C 573.249 -3.56771 -0.473545 0
M  V30 5819 C 572.857 -4.41154 0.780183 0
M  V30 5820 C 574.601 -4.1193 -1.02537 0
M  V30 5821 C 572.508 -5.89161 0.514108 0
M  V30 5822 H 571.438 -0.748307 -0.092478 0
M  V30 5823 H 574.089 -1.77283 0.473588 0
M  V30 5824 H 572.471 -3.75902 -1.24553 0
M  V30 5825 H 573.645 -4.33797 1.55425 0
M  V30 5826 H 571.96 -3.97052 1.25455 0
M  V30 5827 H 574.557 -5.20133 -1.2396 0
M  V30 5828 H 574.9 -3.65943 -1.98473 0
M  V30 5829 H 575.433 -3.96561 -0.313775 0
M  V30 5830 H 572.172 -6.39408 1.44355 0
M  V30 5831 H 571.692 -5.9939 -0.221632 0
M  V30 5832 H 573.371 -6.46857 0.136122 0
M  V30 5833 N 573.503 -0.0852151 -1.57369 0
M  V30 5834 C 574.435 0.907099 -2.10486 0
M  V30 5835 C 575.448 1.25259 -1.03991 0
M  V30 5836 O 576.637 1.20743 -1.31467 0
M  V30 5837 C 573.737 2.21908 -2.56145 0
M  V30 5838 C 572.91 2.05042 -3.86363 0
M  V30 5839 C 571.969 3.19664 -4.17973 0
M  V30 5840 O 570.995 2.94062 -4.87356 0
M  V30 5841 N 572.197 4.45151 -3.72587 0
M  V30 5842 H 574.962 0.453505 -2.96249 0
M  V30 5843 H 572.523 0.100157 -1.6159 0
M  V30 5844 H 574.515 2.97519 -2.74343 0
M  V30 5845 H 573.085 2.58723 -1.75446 0
M  V30 5846 H 572.305 1.13819 -3.77411 0
M  V30 5847 H 573.593 1.91039 -4.71574 0
M  V30 5848 H 572.991 4.68834 -3.16561 0
M  V30 5849 H 571.548 5.17744 -3.9596 0
M  V30 5850 N 574.981 1.5647 0.188427 0
M  V30 5851 C 576.397 1.50204 0.539532 0
M  V30 5852 C 576.597 0.78644 1.85519 0
M  V30 5853 O 575.653 0.339714 2.50204 0
M  V30 5854 C 576.966 2.94893 0.588103 0
M  V30 5855 C 578.514 3.05602 0.67648 0
M  V30 5856 C 578.989 4.51716 0.756101 0
M  V30 5857 N 580.48 4.55894 0.819451 0
M  V30 5858 C 581.215 5.66272 0.90134 0
M  V30 5859 N 580.711 6.86323 0.945118 0
M  V30 5860 N 582.504 5.54201 0.939043 0
M  V30 5861 H 574.655 2.01406 -0.674493 0
M  V30 5862 H 576.918 0.916828 -0.241103 0
M  V30 5863 H 576.624 3.50334 -0.309633 0
M  V30 5864 H 576.498 3.4861 1.44051 0
M  V30 5865 H 578.885 2.50206 1.56465 0
M  V30 5866 H 578.966 2.54999 -0.202262 0
M  V30 5867 H 578.61 5.07739 -0.12774 0
M  V30 5868 H 578.54 5.00058 1.65074 0
M  V30 5869 H 581.031 3.69452 0.794594 0
M  V30 5870 H 581.344 7.66194 1.0083 0
M  V30 5871 H 579.689 6.88968 0.913683 0
M  V30 5872 H 582.88 4.59333 0.901725 0
M  V30 5873 H 583.053 6.40247 0.999402 0
M  V30 5874 N 576.459 -0.456382 1.50847 0
M  V30 5875 C 577.389 -1.56025 1.73719 0
M  V30 5876 C 578.37 -1.5967 0.586473 0
M  V30 5877 O 579.555 -1.75702 0.827185 0
M  V30 5878 C 576.685 -2.94251 1.84483 0
M  V30 5879 C 575.639 -3.05471 2.99786 0
M  V30 5880 C 574.965 -4.45489 2.95709 0
M  V30 5881 C 576.265 -2.81318 4.40065 0
M  V30 5882 H 577.959 -1.37138 2.66146 0
M  V30 5883 H 575.505 -0.658299 1.28072 0
M  V30 5884 H 577.458 -3.71417 1.99067 0
M  V30 5885 H 576.182 -3.14328 0.886891 0
M  V30 5886 H 574.841 -2.30741 2.84876 0
M  V30 5887 H 574.489 -4.62505 1.97732 0
M  V30 5888 H 574.189 -4.53929 3.73125 0
M  V30 5889 H 575.713 -5.24655 3.12362 0
M  V30 5890 H 577.127 -3.48226 4.55425 0
M  V30 5891 H 575.524 -3.01188 5.19043 0
M  V30 5892 H 576.594 -1.7706 4.51418 0
M  V30 5893 N 577.937 -1.40673 -0.710563 0
M  V30 5894 C 579.353 -1.22813 -1.01928 0
M  V30 5895 C 579.553 -0.10687 -2.01216 0
M  V30 5896 O 578.609 0.533614 -2.46797 0
M  V30 5897 C 579.922 -2.57178 -1.5582 0
M  V30 5898 C 581.47 -2.64233 -1.67779 0
M  V30 5899 C 581.945 -3.98879 -2.25076 0
M  V30 5900 N 583.436 -4.00647 -2.32456 0
M  V30 5901 C 584.171 -5.01621 -2.77784 0
M  V30 5902 N 583.667 -6.12989 -3.22826 0
M  V30 5903 N 585.46 -4.88988 -2.77213 0
M  V30 5904 H 577.611 -2.12335 -0.05253 0
M  V30 5905 H 579.874 -0.9441 -0.085898 0
M  V30 5906 H 579.58 -3.39903 -0.903249 0
M  V30 5907 H 579.454 -2.78618 -2.54267 0
M  V30 5908 H 581.841 -1.81876 -2.3239 0
M  V30 5909 H 581.922 -2.46619 -0.679178 0
M  V30 5910 H 581.566 -4.81678 -1.61086 0
M  V30 5911 H 581.496 -4.13826 -3.25661 0
M  V30 5912 H 583.987 -3.20231 -2.0065 0
M  V30 5913 H 584.3 -6.85921 -3.55995 0
M  V30 5914 H 582.645 -6.16547 -3.20773 0
M  V30 5915 H 585.836 -4.01075 -2.41363 0
M  V30 5916 H 586.009 -5.67822 -3.12221 0
M  V30 5917 N 579.415 0.9433 -1.26252 0
M  V30 5918 C 580.64 1.72898 -1.14547 0
M  V30 5919 C 581.065 1.85761 0.295743 0
M  V30 5920 O 580.423 1.3463 1.21427 0
M  V30 5921 C 580.471 3.11471 -1.8171 0
M  V30 5922 O 579.575 3.97336 -1.10445 0
M  V30 5923 H 578.916 0.530555 -0.399259 0
M  V30 5924 H 581.446 1.18159 -1.67032 0
M  V30 5925 H 581.456 3.61872 -1.88449 0
M  V30 5926 H 580.131 3.01425 -2.86558 0
M  V30 5927 H 578.708 3.55788 -1.11666 0
M  V30 5928 N 580.893 1.08022 1.14757 0
M  V30 5929 C 581.803 0.718292 2.23333 0
M  V30 5930 C 582.819 -0.273477 1.71837 0
M  V30 5931 O 583.995 -0.118406 2.01052 0
M  V30 5932 C 581.06 0.128855 3.4646 0
M  V30 5933 C 580.121 1.17473 4.12915 0
M  V30 5934 C 579.354 0.61333 5.30164 0
M  V30 5935 O 579.577 -0.568458 5.6756 0
M  V30 5936 O 578.511 1.3615 5.86299 0
M  V30 5937 H 582.337 1.62394 2.56636 0
M  V30 5938 H 579.922 0.853628 1.22611 0
M  V30 5939 H 581.804 -0.197249 4.20938 0
M  V30 5940 H 580.479 -0.750014 3.14891 0
M  V30 5941 H 579.386 1.5533 3.40328 0
M  V30 5942 H 580.719 2.02574 4.48581 0
M  V30 5943 N 582.371 -1.3172 0.865308 0
M  V30 5944 C 583.62 -1.96145 0.470098 0
M  V30 5945 C 583.933 -1.69182 -0.981674 0
M  V30 5946 O 585.139 -2.27431 -1.48281 0
M  V30 5947 C 583.595 -3.51129 0.789732 0
M  V30 5948 C 583.203 -3.86938 2.25795 0
M  V30 5949 C 584.947 -4.2197 0.462765 0
M  V30 5950 C 582.854 -5.35012 2.52024 0
M  V30 5951 H 581.784 -0.734105 0.172065 0
M  V30 5952 H 584.435 -1.49959 1.05757 0
M  V30 5953 H 582.817 -3.95781 0.131571 0
M  V30 5954 H 583.991 -3.5326 2.95879 0
M  V30 5955 H 582.306 -3.29149 2.55049 0
M  V30 5956 H 584.903 -5.30904 0.636019 0
M  V30 5957 H 585.246 -4.12005 -0.59645 0
M  V30 5958 H 585.779 -3.82936 1.07727 0
M  V30 5959 H 582.518 -5.50008 3.56611 0
M  V30 5960 H 582.038 -5.70058 1.8653 0
M  V30 5961 H 583.717 -6.0222 2.36515 0
M  V30 5962 N 583.85 -0.624285 -1.44708 0
M  V30 5963 C 585.127 -0.0572781 -1.95516 0
M  V30 5964 C 585.507 1.41516 -1.56641 0
M  V30 5965 O 584.855 2.12614 -0.837111 0
M  V30 5966 C 585.065 -0.272944 -3.47931 0
M  V30 5967 C 586.413 -0.162529 -4.24289 0
M  V30 5968 O 587.437 -0.203946 -3.55616 0
M  V30 5969 O 586.296 -0.0616847 -5.46465 0
M  V30 5970 H 583.389 0.0262219 -0.826584 0
M  V30 5971 H 585.936 -0.695512 -1.54793 0
M  V30 5972 H 584.707 -1.29492 -3.69253 0
M  V30 5973 H 584.331 0.399756 -3.95585 0
M  V30 5974 N 585.328 1.53329 -0.364422 0
M  V30 5975 C 586.278 2.22472 0.499024 0
M  V30 5976 C 587.262 1.21952 1.0496 0
M  V30 5977 O 588.454 1.47405 0.979836 0
M  V30 5978 C 585.583 3.01659 1.6388 0
M  V30 5979 C 584.669 4.09555 1.10116 0
M  V30 5980 N 585.06 5.04988 0.286414 0
M  V30 5981 C 583.358 4.2424 1.37608 0
M  V30 5982 C 584.059 5.81699 -0.00781682 0
M  V30 5983 N 583.035 5.40394 0.589494 0
M  V30 5984 H 586.837 2.93611 -0.130284 0
M  V30 5985 H 584.351 1.61483 -0.172377 0
M  V30 5986 H 586.348 3.4971 2.26954 0
M  V30 5987 H 585.008 2.32051 2.27118 0
M  V30 5988 H 586.019 5.17847 -0.0742839 0
M  V30 5989 H 582.696 3.65858 2.01133 0
M  V30 5990 H 584.086 6.68587 -0.666394 0
M  V30 5991 N 586.806 0.0935595 1.57322 0
M  V30 5992 C 588.052 -0.571355 1.94585 0
M  V30 5993 C 588.385 -1.67929 0.975366 0
M  V30 5994 O 587.66 -1.94498 0.00816206 0
M  V30 5995 C 587.943 -1.12797 3.41978 0
M  V30 5996 C 587.796 -0.0251881 4.49793 0
M  V30 5997 C 589.115 -2.02682 3.90651 0
M  V30 5998 H 586.234 -0.206223 0.70756 0
M  V30 5999 H 588.876 0.163956 1.89291 0
M  V30 6000 H 587.026 -1.75461 3.4662 0
M  V30 6001 H 588.698 0.608979 4.57263 0
M  V30 6002 H 586.941 0.641399 4.29032 0
M  V30 6003 H 587.612 -0.455433 5.50118 0
M  V30 6004 H 590.088 -1.49925 3.88152 0
M  V30 6005 H 588.964 -2.38555 4.94351 0
M  V30 6006 H 589.225 -2.94362 3.29854 0
M  V30 6007 N 588.284 -1.56567 -0.180126 0
M  V30 6008 C 589.231 -1.95725 -1.22313 0
M  V30 6009 C 590.201 -0.819911 -1.44453 0
M  V30 6010 O 591.386 -1.07931 -1.57339 0
M  V30 6011 C 588.526 -2.31484 -2.55947 0
M  V30 6012 C 587.639 -3.58354 -2.4126 0
M  V30 6013 C 586.774 -3.83366 -3.67701 0
M  V30 6014 C 585.813 -5.03612 -3.47909 0
M  V30 6015 N 584.95 -5.24802 -4.66398 0
M  V30 6016 H 589.79 -2.84642 -0.882198 0
M  V30 6017 H 587.327 -1.4085 -0.42422 0
M  V30 6018 H 589.285 -2.50237 -3.33822 0
M  V30 6019 H 587.915 -1.45689 -2.88053 0
M  V30 6020 H 586.967 -3.47565 -1.54606 0
M  V30 6021 H 588.279 -4.46386 -2.22577 0
M  V30 6022 H 587.433 -4.02439 -4.54013 0
M  V30 6023 H 586.172 -2.93692 -3.89353 0
M  V30 6024 H 585.177 -4.84447 -2.59983 0
M  V30 6025 H 586.402 -5.94809 -3.27688 0
M  V30 6026 H 584.348 -4.38079 -4.88286 0
M  V30 6027 H 584.265 -6.07041 -4.50596 0
M  V30 6028 H 585.533 -5.48346 -5.54019 0
M  V30 6029 N 589.762 0.448376 -1.51087 0
M  V30 6030 C 590.709 1.54341 -1.71603 0
M  V30 6031 C 591.679 1.56463 -0.557536 0
M  V30 6032 O 592.864 1.73644 -0.79072 0
M  V30 6033 C 590.004 2.92148 -1.83695 0
M  V30 6034 C 589.117 2.99639 -3.11192 0
M  V30 6035 C 588.252 4.285 -3.13944 0
M  V30 6036 C 587.291 4.29819 -4.35801 0
M  V30 6037 N 586.428 5.50186 -4.36164 0
M  V30 6038 H 591.268 1.36151 -2.65079 0
M  V30 6039 H 588.805 0.661585 -1.31383 0
M  V30 6040 H 590.763 3.72093 -1.88687 0
M  V30 6041 H 589.393 3.0892 -0.936374 0
M  V30 6042 H 588.445 2.12425 -3.15562 0
M  V30 6043 H 589.757 2.96474 -4.01129 0
M  V30 6044 H 588.911 5.16811 -3.17791 0
M  V30 6045 H 587.65 4.34307 -2.21876 0
M  V30 6046 H 586.655 3.39902 -4.32142 0
M  V30 6047 H 587.88 4.25685 -5.29121 0
M  V30 6048 H 585.826 5.56735 -3.46961 0
M  V30 6049 H 585.743 5.48856 -5.19897 0
M  V30 6050 H 587.011 6.40559 -4.44189 0
M  V30 6051 N 591.24 1.41047 0.703093 0
M  V30 6052 C 592.172 1.38228 1.82827 0
M  V30 6053 C 593.185 0.285637 1.60275 0
M  V30 6054 O 594.374 0.54685 1.69917 0
M  V30 6055 C 591.474 1.13136 3.19458 0
M  V30 6056 C 590.647 2.34695 3.69103 0
M  V30 6057 C 589.706 2.05574 4.84382 0
M  V30 6058 O 588.732 2.78549 4.96386 0
M  V30 6059 N 589.934 1.04135 5.71083 0
M  V30 6060 H 592.699 2.35203 1.85741 0
M  V30 6061 H 590.26 1.35562 0.885125 0
M  V30 6062 H 592.252 0.916183 3.94193 0
M  V30 6063 H 590.822 0.247836 3.11616 0
M  V30 6064 H 590.042 2.71963 2.85359 0
M  V30 6065 H 591.33 3.15705 3.99009 0
M  V30 6066 H 590.728 0.43722 5.64008 0
M  V30 6067 H 589.285 0.886078 6.45749 0
M  V30 6068 N 592.718 -0.936591 1.26751 0
M  V30 6069 C 593.958 -1.69796 1.13792 0
M  V30 6070 C 594.322 -1.89437 -0.312671 0
M  V30 6071 O 595.523 -2.62806 -0.564489 0
M  V30 6072 C 593.794 -3.03297 1.89065 0
M  V30 6073 S 595.353 -3.94461 1.92214 0
M  V30 6074 H 592.171 -0.583412 0.406389 0
M  V30 6075 H 594.773 -1.11575 1.60535 0
M  V30 6076 H 593.477 -2.86687 2.93665 0
M  V30 6077 H 593.008 -3.66575 1.42781 0
M  V30 6078 H 595.023 -4.85767 1.01215 0
M  V30 6079 N 594.196 -1.08629 -1.14182 0
M  V30 6080 C 595.159 -0.722027 -2.1753 0
M  V30 6081 C 596.159 0.244305 -1.58933 0
M  V30 6082 O 597.349 0.0235545 -1.74184 0
M  V30 6083 C 594.481 -0.0663966 -3.40835 0
M  V30 6084 H 595.674 -1.63719 -2.51269 0
M  V30 6085 H 593.227 -0.884442 -1.28869 0
M  V30 6086 H 593.962 0.860389 -3.12678 0
M  V30 6087 H 593.747 -0.761598 -3.84632 0
M  V30 6088 H 595.237 0.173346 -4.1724 0
M  V30 6089 N 595.674 1.31259 -0.872281 0
M  V30 6090 C 596.622 2.30404 -0.318897 0
M  V30 6091 C 597.616 1.5962 0.567267 0
M  V30 6092 O 598.822 1.74204 0.453111 0
M  V30 6093 H 595.197 0.747243 -0.0844474 0
M  V30 6094 H 597.168 2.74549 -1.16899 0
M  V30 6095 C 595.917 3.44608 0.462683 0
M  V30 6096 H 595.24 3.99248 -0.209936 0
M  V30 6097 H 596.68 4.1609 0.815187 0
M  V30 6098 C 595.139 2.93456 1.65485 0
M  V30 6099 O 595.669 2.92418 2.75417 0
M  V30 6100 N 593.875 2.49628 1.48776 0
M  V30 6101 H 593.422 2.50671 0.593452 0
M  V30 6102 H 593.38 2.15759 2.28682 0
M  V30 6103 N 597.152 0.631951 1.44375 0
M  V30 6104 C 598.082 -0.0593243 2.33425 0
M  V30 6105 C 599.063 -0.833964 1.48253 0
M  V30 6106 O 600.248 -0.799682 1.76971 0
M  V30 6107 C 597.378 -1.04096 3.31333 0
M  V30 6108 C 596.332 -0.377899 4.26328 0
M  V30 6109 C 595.658 -1.4695 5.14111 0
M  V30 6110 C 596.958 0.716371 5.17364 0
M  V30 6111 H 598.652 0.684287 2.91475 0
M  V30 6112 H 596.198 0.330518 1.40156 0
M  V30 6113 H 598.151 -1.53331 3.92514 0
M  V30 6114 H 596.875 -1.81547 2.71493 0
M  V30 6115 H 595.534 0.0938054 3.6648 0
M  V30 6116 H 595.182 -2.2349 4.50623 0
M  V30 6117 H 594.882 -1.03121 5.78481 0
M  V30 6118 H 596.406 -1.96363 5.78164 0
M  V30 6119 H 597.82 0.307089 5.72477 0
M  V30 6120 H 596.217 1.07784 5.90341 0
M  V30 6121 H 597.287 1.58316 4.58327 0
M  V30 6122 N 598.631 -1.53133 0.372548 0
M  V30 6123 C 599.563 -2.23557 -0.505444 0
M  V30 6124 C 600.576 -1.25211 -1.04049 0
M  V30 6125 O 601.765 -1.51391 -0.945675 0
M  V30 6126 C 598.865 -2.92516 -1.71136 0
M  V30 6127 C 598.038 -4.17428 -1.30661 0
M  V30 6128 C 597.097 -4.69535 -2.37536 0
M  V30 6129 O 596.123 -5.33042 -1.99637 0
M  V30 6130 N 597.325 -4.47947 -3.6922 0
M  V30 6131 H 600.09 -2.9954 0.0978259 0
M  V30 6132 H 597.651 -1.60684 0.198068 0
M  V30 6133 H 599.643 -3.24281 -2.42124 0
M  V30 6134 H 598.213 -2.19944 -2.22134 0
M  V30 6135 H 597.433 -3.91888 -0.426292 0
M  V30 6136 H 598.721 -4.98622 -1.01259 0
M  V30 6137 H 598.119 -3.97219 -4.02783 0
M  V30 6138 H 596.676 -4.84245 -4.36292 0
M  V30 6139 N 600.109 -0.101901 -1.5727 0
M  V30 6140 C 601.072 0.840129 -2.13247 0
M  V30 6141 C 602.072 1.20625 -1.06331 0
M  V30 6142 O 603.262 1.13456 -1.32186 0
M  V30 6143 C 600.394 2.13372 -2.65867 0
M  V30 6144 H 601.587 0.353945 -2.97804 0
M  V30 6145 H 599.14 0.147167 -1.55606 0
M  V30 6146 H 599.875 2.66461 -1.84849 0
M  V30 6147 H 599.66 1.88085 -3.44044 0
M  V30 6148 H 601.15 2.80748 -3.09145 0
M  V30 6149 N 601.587 1.56661 0.17182 0
M  V30 6150 C 602.55 1.9549 1.19651 0
M  V30 6151 C 603.55 0.838501 1.37207 0
M  V30 6152 O 604.74 1.10556 1.34622 0
M  V30 6153 C 601.872 2.24927 2.56166 0
M  V30 6154 H 603.065 2.87184 0.864007 0
M  V30 6155 H 600.618 1.50711 0.41425 0
M  V30 6156 H 601.353 1.35944 2.94431 0
M  V30 6157 H 601.138 3.06301 2.4479 0
M  V30 6158 H 602.628 2.55891 3.30014 0
M  V30 6159 N 603.065 -0.440357 1.51323 0
M  V30 6160 C 604.314 -1.18697 1.63076 0
M  V30 6161 C 604.627 -1.92418 0.35136 0
M  V30 6162 O 605.833 -2.69258 0.348221 0
M  V30 6163 C 604.289 -2.15849 2.87988 0
M  V30 6164 C 603.897 -1.47789 4.22921 0
M  V30 6165 C 605.641 -2.90962 3.09098 0
M  V30 6166 C 603.548 -2.43407 5.38987 0
M  V30 6167 H 602.478 -0.44676 0.607389 0
M  V30 6168 H 605.129 -0.454313 1.77787 0
M  V30 6169 H 603.511 -2.92537 2.66905 0
M  V30 6170 H 604.685 -0.7668 4.54375 0
M  V30 6171 H 603 -0.848404 4.07665 0
M  V30 6172 H 605.597 -3.62584 3.92985 0
M  V30 6173 H 605.94 -3.52133 2.22053 0
M  V30 6174 H 606.473 -2.21381 3.30507 0
M  V30 6175 H 603.212 -1.86929 6.28282 0
M  V30 6176 H 602.732 -3.12579 5.11913 0
M  V30 6177 H 604.411 -3.046 5.70813 0
M  V30 6178 N 604.543 -1.41418 -0.695603 0
M  V30 6179 C 605.506 -1.42988 -1.79129 0
M  V30 6180 C 606.506 -0.320514 -1.57573 0
M  V30 6181 O 607.696 -0.58039 -1.64247 0
M  V30 6182 C 604.828 -1.24122 -3.175 0
M  V30 6183 H 606.021 -2.40526 -1.7913 0
M  V30 6184 H 603.574 -1.2756 -0.903225 0
M  V30 6185 H 604.309 -0.274253 -3.23138 0
M  V30 6186 H 604.094 -2.045 -3.34547 0
M  V30 6187 H 605.584 -1.28056 -3.97481 0
M  V30 6188 N 606.021 0.929856 -1.27246 0
M  V30 6189 C 607.298 1.65544 -1.04186 0
M  V30 6190 C 607.678 2.06796 0.424097 0
M  V30 6191 O 607.026 1.80053 1.40688 0
M  V30 6192 C 607.236 2.85912 -2.00138 0
M  V30 6193 C 608.584 3.57305 -2.29387 0
M  V30 6194 O 609.608 2.96036 -1.98094 0
M  V30 6195 O 608.467 4.67688 -2.82719 0
M  V30 6196 H 605.561 0.725473 -0.397011 0
M  V30 6197 H 608.107 0.980583 -1.38501 0
M  V30 6198 H 606.879 2.52403 -2.99013 0
M  V30 6199 H 606.502 3.61118 -1.66371 0
M  V30 6200 N 607.499 1.09233 1.13605 0
M  V30 6201 C 608.462 0.733553 2.17144 0
M  V30 6202 C 609.462 -0.235873 1.59061 0
M  V30 6203 O 610.652 -0.0143167 1.74194 0
M  V30 6204 C 607.784 0.084471 3.40795 0
M  V30 6205 H 608.977 1.65049 2.50397 0
M  V30 6206 H 606.53 0.891264 1.28399 0
M  V30 6207 H 607.265 -0.843795 3.1313 0
M  V30 6208 H 607.05 0.781985 3.84223 0
M  V30 6209 H 608.54 -0.151216 4.17326 0
M  V30 6210 N 608.977 -1.30795 0.87923 0
M  V30 6211 C 609.887 -2.32041 0.345565 0
M  V30 6212 C 610.903 -1.65103 -0.549265 0
M  V30 6213 O 612.079 -1.9645 -0.443763 0
M  V30 6214 C 609.144 -3.43944 -0.436245 0
M  V30 6215 C 608.205 -4.26521 0.48765 0
M  V30 6216 C 607.438 -5.33081 -0.256943 0
M  V30 6217 O 607.661 -5.50762 -1.48381 0
M  V30 6218 O 606.595 -6.00635 0.389985 0
M  V30 6219 H 610.421 -2.79627 1.18501 0
M  V30 6220 H 608.006 -1.3486 0.642885 0
M  V30 6221 H 609.888 -4.12128 -0.879119 0
M  V30 6222 H 608.563 -2.98504 -1.25208 0
M  V30 6223 H 607.47 -3.61057 0.979216 0
M  V30 6224 H 608.803 -4.75551 1.26933 0
M  V30 6225 N 610.455 -0.639598 -1.44038 0
M  V30 6226 C 611.387 0.0987684 -2.28987 0
M  V30 6227 C 612.4 0.80058 -1.41755 0
M  V30 6228 O 613.589 0.660611 -1.65826 0
M  V30 6229 C 610.689 1.16242 -3.18341 0
M  V30 6230 C 609.862 0.541447 -4.34036 0
M  V30 6231 C 608.921 1.50017 -5.04362 0
M  V30 6232 O 607.947 1.01403 -5.60095 0
M  V30 6233 N 609.149 2.83441 -5.06598 0
M  V30 6234 H 611.914 -0.630305 -2.92997 0
M  V30 6235 H 609.475 -0.481376 -1.54578 0
M  V30 6236 H 611.467 1.80429 -3.62253 0
M  V30 6237 H 610.037 1.79362 -2.56024 0
M  V30 6238 H 609.257 -0.27923 -3.9321 0
M  V30 6239 H 610.545 0.107379 -5.08687 0
M  V30 6240 H 609.943 3.2551 -4.62666 0
M  V30 6241 H 608.5 3.42966 -5.54272 0
M  V30 6242 N 611.933 1.52934 -0.380664 0
M  V30 6243 C 613.349 1.59571 -0.0302429 0
M  V30 6244 C 613.549 1.39509 1.45394 0
M  V30 6245 O 612.605 1.20777 2.21741 0
M  V30 6246 C 613.918 2.96519 -0.499691 0
M  V30 6247 C 615.466 3.09672 -0.455204 0
M  V30 6248 C 615.941 4.49056 -0.900703 0
M  V30 6249 N 617.432 4.55215 -0.856367 0
M  V30 6250 C 618.167 5.61282 -1.17259 0
M  V30 6251 N 617.663 6.75035 -1.55885 0
M  V30 6252 N 619.456 5.51343 -1.0944 0
M  V30 6253 H 611.607 1.64224 -1.347 0
M  V30 6254 H 613.87 0.771033 -0.551554 0
M  V30 6255 H 613.576 3.16388 -1.53595 0
M  V30 6256 H 613.45 3.77052 0.105789 0
M  V30 6257 H 615.837 2.89504 0.571949 0
M  V30 6258 H 615.918 2.31113 -1.09638 0
M  V30 6259 H 615.562 4.69964 -1.92604 0
M  V30 6260 H 615.492 5.26068 -0.236629 0
M  V30 6261 H 617.983 3.73546 -0.572013 0
M  V30 6262 H 618.296 7.51926 -1.784 0
M  V30 6263 H 616.641 6.76388 -1.59764 0
M  V30 6264 H 619.832 4.61356 -0.791713 0
M  V30 6265 H 620.005 6.33905 -1.34417 0
M  V30 6266 N 613.412 0.11024 1.57214 0
M  V30 6267 C 614.66 -0.548783 1.94506 0
M  V30 6268 C 614.981 -1.67772 0.99386 0
M  V30 6269 O 614.251 -1.9584 0.0485841 0
M  V30 6270 H 612.831 -0.205715 0.718116 0
M  V30 6271 H 615.493 0.177127 1.94093 0
M  V30 6272 H 614.589 -0.949096 2.97319 0
M  V30 6273 N 614.89 -1.56749 -0.16351 0
M  V30 6274 C 615.8 -2.00255 -1.2221 0
M  V30 6275 C 616.816 -0.915194 -1.47987 0
M  V30 6276 O 617.992 -1.22342 -1.59982 0
M  V30 6277 C 615.057 -2.36035 -2.53946 0
M  V30 6278 C 614.118 -3.58637 -2.35962 0
M  V30 6279 C 613.351 -3.92701 -3.61416 0
M  V30 6280 O 613.574 -3.27632 -4.66919 0
M  V30 6281 O 612.508 -4.86019 -3.55062 0
M  V30 6282 H 616.334 -2.90586 -0.882794 0
M  V30 6283 H 613.919 -1.44721 -0.370978 0
M  V30 6284 H 615.801 -2.59982 -3.31643 0
M  V30 6285 H 614.476 -1.48863 -2.8744 0
M  V30 6286 H 613.383 -3.39898 -1.5627 0
M  V30 6287 H 614.716 -4.46374 -2.0739 0
M  V30 6288 N 616.368 0.432326 -1.51554 0
M  V30 6289 C 617.301 1.54525 -1.6792 0
M  V30 6290 C 618.279 1.53831 -0.526764 0
M  V30 6291 O 619.463 1.72884 -0.751233 0
M  V30 6292 C 616.59 2.931 -1.69736 0
M  V30 6293 C 615.636 3.11799 -2.91005 0
M  V30 6294 S 616.469 2.87565 -4.51737 0
M  V30 6295 C 617.625 4.28412 -4.56305 0
M  V30 6296 H 617.858 1.4041 -2.62054 0
M  V30 6297 H 615.391 0.622357 -1.41301 0
M  V30 6298 H 617.349 3.72974 -1.71467 0
M  V30 6299 H 616.01 3.04574 -0.767705 0
M  V30 6300 H 615.203 4.13127 -2.8869 0
M  V30 6301 H 614.805 2.39757 -2.87041 0
M  V30 6302 H 617.097 5.21692 -4.32254 0
M  V30 6303 H 618.04 4.35758 -5.58141 0
M  V30 6304 H 618.448 4.12301 -3.85576 0
M  V30 6305 N 617.846 1.41785 0.688094 0
M  V30 6306 C 618.809 1.43936 1.78368 0
M  V30 6307 C 619.809 0.328866 1.57401 0
M  V30 6308 O 620.999 0.589093 1.63937 0
M  V30 6309 C 618.131 1.25804 3.16838 0
M  V30 6310 H 619.324 2.41472 1.77852 0
M  V30 6311 H 616.877 1.28037 0.896448 0
M  V30 6312 H 617.612 0.291386 3.22988 0
M  V30 6313 H 617.397 2.06272 3.33458 0
M  V30 6314 H 618.887 1.30162 3.96797 0
M  V30 6315 N 619.324 -0.923095 1.27737 0
M  V30 6316 C 620.254 -2.04124 1.13383 0
M  V30 6317 C 621.235 -1.70066 0.0340658 0
M  V30 6318 O 622.42 -1.93068 0.209383 0
M  V30 6319 C 619.55 -3.3831 0.785097 0
M  V30 6320 C 618.504 -3.86496 1.8386 0
M  V30 6321 C 617.83 -5.1754 1.34373 0
M  V30 6322 C 619.13 -4.09381 3.24353 0
M  V30 6323 H 620.824 -2.1639 2.06919 0
M  V30 6324 H 618.37 -1.03976 0.996243 0
M  V30 6325 H 620.323 -4.16016 0.671485 0
M  V30 6326 H 619.047 -3.2607 -0.185969 0
M  V30 6327 H 617.706 -3.10987 1.9412 0
M  V30 6328 H 617.354 -5.01696 0.361989 0
M  V30 6329 H 617.054 -5.50751 2.04811 0
M  V30 6330 H 618.578 -5.97811 1.24315 0
M  V30 6331 H 619.992 -4.77641 3.17067 0
M  V30 6332 H 618.389 -4.53906 3.92542 0
M  V30 6333 H 619.459 -3.14515 3.69064 0
M  V30 6334 N 620.802 -1.09834 -1.13024 0
M  V30 6335 C 621.749 -0.741522 -2.18564 0
M  V30 6336 C 622.719 0.279236 -1.63736 0
M  V30 6337 O 623.904 0.159923 -1.90129 0
M  V30 6338 C 621.044 -0.17277 -3.44667 0
M  V30 6339 C 620.157 -1.24808 -4.13578 0
M  V30 6340 C 619.292 -0.641631 -5.27311 0
M  V30 6341 C 618.331 -1.69795 -5.88078 0
M  V30 6342 N 617.468 -1.11223 -6.93234 0
M  V30 6343 H 622.308 -1.64576 -2.48432 0
M  V30 6344 H 619.845 -0.822174 -1.21978 0
M  V30 6345 H 621.803 0.17482 -4.16834 0
M  V30 6346 H 620.433 0.694725 -3.15235 0
M  V30 6347 H 619.485 -1.71288 -3.39653 0
M  V30 6348 H 620.797 -2.04795 -4.54819 0
M  V30 6349 H 619.951 -0.243128 -6.06213 0
M  V30 6350 H 618.69 0.189742 -4.87331 0
M  V30 6351 H 617.695 -2.10595 -5.07868 0
M  V30 6352 H 618.92 -2.53206 -6.3013 0
M  V30 6353 H 616.866 -0.302208 -6.55304 0
M  V30 6354 H 616.783 -1.84901 -7.3304 0
M  V30 6355 H 618.051 -0.740068 -7.75979 0
M  V30 6356 N 622.28 1.30327 -0.886154 0
M  V30 6357 C 623.557 1.90922 -0.425217 0
M  V30 6358 C 623.937 1.80533 1.09413 0
M  V30 6359 O 623.285 1.2233 1.92996 0
M  V30 6360 C 623.495 3.36529 -0.924638 0
M  V30 6361 C 624.843 4.13598 -0.960305 0
M  V30 6362 O 625.867 3.45377 -0.871382 0
M  V30 6363 O 624.726 5.35482 -1.09184 0
M  V30 6364 H 621.82 0.81668 -0.130238 0
M  V30 6365 H 624.366 1.38886 -0.975132 0
M  V30 6366 H 623.138 3.38181 -1.96849 0
M  V30 6367 H 622.761 3.96021 -0.353955 0
M  V30 6368 N 623.758 0.647228 1.43697 0
M  V30 6369 C 624.721 -0.0385101 2.29168 0
M  V30 6370 C 625.721 -0.756487 1.41894 0
M  V30 6371 O 626.911 -0.598641 1.63591 0
M  V30 6372 C 624.043 -1.06524 3.23829 0
M  V30 6373 H 625.236 0.713445 2.9129 0
M  V30 6374 H 622.789 0.408153 1.50877 0
M  V30 6375 H 623.524 -1.84664 2.66589 0
M  V30 6376 H 623.309 -0.554147 3.88164 0
M  V30 6377 H 624.799 -1.54432 3.87996 0
M  V30 6378 N 625.236 -1.5273 0.388769 0
M  V30 6379 C 626.183 -2.26437 -0.446639 0
M  V30 6380 C 627.153 -1.28025 -1.05824 0
M  V30 6381 O 628.338 -1.56852 -1.08637 0
M  V30 6382 C 625.478 -3.07407 -1.56828 0
M  V30 6383 C 624.591 -4.20747 -0.979589 0
M  V30 6384 C 623.726 -4.89113 -2.07224 0
M  V30 6385 C 622.765 -5.94447 -1.45942 0
M  V30 6386 N 621.902 -6.56411 -2.49135 0
M  V30 6387 H 626.742 -2.97404 0.18837 0
M  V30 6388 H 624.279 -1.46727 0.104725 0
M  V30 6389 H 626.237 -3.52642 -2.22934 0
M  V30 6390 H 624.867 -2.3865 -2.17361 0
M  V30 6391 H 623.919 -3.7983 -0.208151 0
M  V30 6392 H 625.231 -4.9637 -0.491747 0
M  V30 6393 H 624.385 -5.3765 -2.81101 0
M  V30 6394 H 623.124 -4.13013 -2.59368 0
M  V30 6395 H 622.129 -5.4525 -0.705894 0
M  V30 6396 H 623.354 -6.7248 -0.945932 0
M  V30 6397 H 621.3 -5.83152 -3.00449 0
M  V30 6398 H 621.217 -7.27645 -2.05105 0
M  V30 6399 H 622.485 -7.09592 -3.22644 0
M  V30 6400 N 626.714 -0.118576 -1.57153 0
M  V30 6401 C 627.662 0.849114 -2.16547 0
M  V30 6402 C 628.656 1.27567 -1.11458 0
M  V30 6403 O 629.862 1.24746 -1.29763 0
M  V30 6404 H 626.237 0.291935 -0.693021 0
M  V30 6405 H 628.208 0.323693 -2.96639 0
M  V30 6406 C 626.957 2.08951 -2.77912 0
M  V30 6407 H 626.28 1.77021 -3.58474 0
M  V30 6408 H 627.72 2.74666 -3.23008 0
M  V30 6409 C 626.179 2.87899 -1.74974 0
M  V30 6410 O 626.709 3.83268 -1.20285 0
M  V30 6411 N 624.915 2.51884 -1.44924 0
M  V30 6412 H 624.462 1.74397 -1.89587 0
M  V30 6413 H 624.42 3.05003 -0.762921 0
M  V30 6414 N 628.193 1.56834 0.155195 0
M  V30 6415 C 629.14 1.97646 1.19184 0
M  V30 6416 C 630.11 0.842788 1.4313 0
M  V30 6417 O 631.295 1.1042 1.55602 0
M  V30 6418 C 628.435 2.35527 2.52232 0
M  V30 6419 C 627.548 3.62147 2.35529 0
M  V30 6420 C 626.683 3.89167 3.61555 0
M  V30 6421 C 625.722 5.09084 3.39853 0
M  V30 6422 N 624.859 5.32156 4.5799 0
M  V30 6423 H 629.699 2.8601 0.836802 0
M  V30 6424 H 627.236 1.41507 0.401758 0
M  V30 6425 H 629.194 2.55516 3.29799 0
M  V30 6426 H 627.824 1.50253 2.85699 0
M  V30 6427 H 626.876 3.4998 1.49057 0
M  V30 6428 H 628.188 4.49871 2.15448 0
M  V30 6429 H 627.342 4.09611 4.47553 0
M  V30 6430 H 626.081 2.9985 3.84632 0
M  V30 6431 H 625.086 4.88522 2.52243 0
M  V30 6432 H 626.311 5.99947 3.18183 0
M  V30 6433 H 624.257 4.45791 4.81255 0
M  V30 6434 H 624.174 6.14133 4.40882 0
M  V30 6435 H 625.442 5.57091 5.45225 0
M  V30 6436 N 629.671 -0.424282 1.51781 0
M  V30 6437 C 630.601 -1.52305 1.7699 0
M  V30 6438 C 631.582 -1.5839 0.620209 0
M  V30 6439 O 632.767 -1.73908 0.864268 0
M  V30 6440 C 629.897 -2.90271 1.90683 0
M  V30 6441 C 628.851 -2.99043 3.06198 0
M  V30 6442 C 628.177 -4.39116 3.05092 0
M  V30 6443 C 629.477 -2.7192 4.45934 0
M  V30 6444 H 631.171 -1.31461 2.68995 0
M  V30 6445 H 628.717 -0.630985 1.29439 0
M  V30 6446 H 630.67 -3.6711 2.06901 0
M  V30 6447 H 629.394 -3.12376 0.953365 0
M  V30 6448 H 628.053 -2.24646 2.89706 0
M  V30 6449 H 627.701 -4.58207 2.07498 0
M  V30 6450 H 627.401 -4.45912 3.82669 0
M  V30 6451 H 628.925 -5.17911 3.2342 0
M  V30 6452 H 630.339 -3.38487 4.62709 0
M  V30 6453 H 628.736 -2.90111 5.25315 0
M  V30 6454 H 629.806 -1.67445 4.55072 0
M  V30 6455 N 631.149 -1.42148 -0.680565 0
M  V30 6456 C 632.059 -1.47565 -1.82378 0
M  V30 6457 C 633.075 -0.36489 -1.70131 0
M  V30 6458 O 634.251 -0.614916 -1.91783 0
M  V30 6459 C 631.316 -1.37013 -3.18478 0
M  V30 6460 C 630.377 -2.58532 -3.42724 0
M  V30 6461 C 629.61 -2.48473 -4.72331 0
M  V30 6462 O 629.833 -1.51745 -5.49845 0
M  V30 6463 O 628.767 -3.38503 -4.97694 0
M  V30 6464 H 632.593 -2.44045 -1.80764 0
M  V30 6465 H 630.178 -1.23849 -0.835569 0
M  V30 6466 H 632.06 -1.33468 -3.99705 0
M  V30 6467 H 630.735 -0.436552 -3.20743 0
M  V30 6468 H 629.642 -2.67652 -2.61368 0
M  V30 6469 H 630.975 -3.50769 -3.45286 0
M  V30 6470 N 632.627 0.916307 -1.28225 0
M  V30 6471 C 633.875 1.6619 -1.15002 0
M  V30 6472 C 634.196 1.92642 0.302329 0
M  V30 6473 O 633.466 1.54076 1.20985 0
M  V30 6474 H 632.046 0.615964 -0.422608 0
M  V30 6475 H 634.708 1.09963 -1.60917 0
M  V30 6476 H 633.804 2.62533 -1.68769 0
M  V30 6477 N 634.105 1.10431 1.1244 0
M  V30 6478 C 635.035 0.775143 2.20258 0
M  V30 6479 C 636.016 -0.25186 1.68225 0
M  V30 6480 O 637.201 -0.117637 1.93843 0
M  V30 6481 C 634.331 0.206133 3.46688 0
M  V30 6482 C 633.285 1.16382 4.11873 0
M  V30 6483 C 632.611 0.456014 5.32752 0
M  V30 6484 C 633.911 2.5104 4.58013 0
M  V30 6485 H 635.605 1.67665 2.4805 0
M  V30 6486 H 633.151 0.807595 1.19222 0
M  V30 6487 H 635.104 -0.036291 4.21384 0
M  V30 6488 H 633.828 -0.730614 3.18323 0
M  V30 6489 H 632.487 1.39169 3.39157 0
M  V30 6490 H 632.135 -0.485203 5.00654 0
M  V30 6491 H 631.835 1.09466 5.77314 0
M  V30 6492 H 633.359 0.222135 6.10196 0
M  V30 6493 H 634.773 2.32401 5.24083 0
M  V30 6494 H 633.17 3.10789 5.13352 0
M  V30 6495 H 634.24 3.11039 3.71998 0
M  V30 6496 N 635.583 -1.29855 0.893053 0
M  V30 6497 C 636.493 -2.31661 0.370157 0
M  V30 6498 C 637.509 -1.65677 -0.531723 0
M  V30 6499 O 638.685 -1.9691 -0.422902 0
M  V30 6500 C 635.75 -3.44388 -0.399741 0
M  V30 6501 C 634.811 -4.2598 0.532861 0
M  V30 6502 C 634.044 -5.33324 -0.200388 0
M  V30 6503 O 634.267 -5.52305 -1.42531 0
M  V30 6504 O 633.201 -6.00188 0.453668 0
M  V30 6505 H 637.027 -2.78354 1.2146 0
M  V30 6506 H 634.612 -1.34171 0.657153 0
M  V30 6507 H 636.494 -4.13037 -0.835358 0
M  V30 6508 H 635.169 -2.99815 -1.22035 0
M  V30 6509 H 634.076 -3.59998 1.01746 0
M  V30 6510 H 635.409 -4.74178 1.3197 0
M  V30 6511 N 637.061 -0.65484 -1.43351 0
M  V30 6512 C 638.338 -0.0987371 -1.95351 0
M  V30 6513 C 638.718 1.38161 -1.59608 0
M  V30 6514 O 638.066 2.10791 -0.882021 0
M  V30 6515 C 638.276 -0.346684 -3.47274 0
M  V30 6516 C 639.624 -0.25249 -4.23849 0
M  V30 6517 O 640.648 -0.279332 -3.55103 0
M  V30 6518 O 639.507 -0.177584 -5.46211 0
M  V30 6519 H 636.601 0.0086829 -0.826954 0
M  V30 6520 H 639.147 -0.728189 -1.53282 0
M  V30 6521 H 637.919 -1.37296 -3.66423 0
M  V30 6522 H 637.542 0.315757 -3.96344 0
M  V30 6523 N 638.539 1.52521 -0.396863 0
M  V30 6524 C 639.502 2.2527 0.422604 0
M  V30 6525 C 640.502 1.27184 0.983913 0
M  V30 6526 O 641.692 1.51222 0.864723 0
M  V30 6527 C 638.824 3.01356 1.59365 0
M  V30 6528 H 640.017 2.99133 -0.214416 0
M  V30 6529 H 637.57 1.55587 -0.149128 0
M  V30 6530 H 638.305 2.31813 2.26789 0
M  V30 6531 H 638.09 3.73357 1.19779 0
M  V30 6532 H 639.58 3.56571 2.17363 0
M  V30 6533 N 640.017 0.126909 1.57088 0
M  V30 6534 C 640.947 -0.816847 2.18746 0
M  V30 6535 C 641.928 -1.27161 1.12979 0
M  V30 6536 O 643.113 -1.33279 1.41246 0
M  V30 6537 C 640.243 -2.06398 2.79315 0
M  V30 6538 C 639.197 -1.74673 3.90735 0
M  V30 6539 C 638.523 -3.06482 4.38147 0
M  V30 6540 C 639.823 -1.0089 5.12463 0
M  V30 6541 H 641.517 -0.303032 2.97863 0
M  V30 6542 H 639.063 -0.144314 1.43275 0
M  V30 6543 H 641.016 -2.72885 3.2111 0
M  V30 6544 H 639.74 -2.60118 1.975 0
M  V30 6545 H 638.399 -1.10572 3.49527 0
M  V30 6546 H 638.047 -3.58152 3.5318 0
M  V30 6547 H 637.747 -2.86025 5.13287 0
M  V30 6548 H 639.271 -3.74073 4.82599 0
M  V30 6549 H 640.685 -1.57546 5.51228 0
M  V30 6550 H 639.082 -0.905006 5.93237 0
M  V30 6551 H 640.152 0.00297335 4.849 0
M  V30 6552 N 641.495 -1.56914 -0.146875 0
M  V30 6553 C 642.427 -1.94878 -1.20645 0
M  V30 6554 C 643.44 -0.844633 -1.39175 0
M  V30 6555 O 644.629 -1.12304 -1.38744 0
M  V30 6556 C 641.729 -2.20769 -2.57127 0
M  V30 6557 C 640.902 -3.52053 -2.59572 0
M  V30 6558 C 639.961 -3.66482 -3.77594 0
M  V30 6559 O 638.987 -4.38873 -3.62462 0
M  V30 6560 N 640.189 -3.03156 -4.95052 0
M  V30 6561 H 642.954 -2.86374 -0.883757 0
M  V30 6562 H 640.515 -1.58366 -0.336436 0
M  V30 6563 H 642.507 -2.27664 -3.34591 0
M  V30 6564 H 641.077 -1.35538 -2.81688 0
M  V30 6565 H 640.297 -3.56598 -1.68023 0
M  V30 6566 H 641.585 -4.38396 -2.58238 0
M  V30 6567 H 640.983 -2.44258 -5.10249 0
M  V30 6568 H 639.54 -3.15611 -5.70292 0
M  V30 6569 N 642.974 0.416227 -1.52004 0
M  V30 6570 C 643.921 1.50666 -1.74838 0
M  V30 6571 C 644.891 1.55245 -0.590599 0
M  V30 6572 O 646.076 1.71928 -0.827374 0
M  V30 6573 C 643.216 2.88185 -1.89851 0
M  V30 6574 C 642.329 2.92971 -3.17478 0
M  V30 6575 C 641.464 4.21745 -3.22962 0
M  V30 6576 C 640.503 4.20478 -4.4482 0
M  V30 6577 N 639.64 5.40811 -4.47736 0
M  V30 6578 H 644.48 1.30498 -2.67907 0
M  V30 6579 H 642.017 0.633568 -1.32757 0
M  V30 6580 H 643.975 3.68007 -1.96537 0
M  V30 6581 H 642.605 3.06865 -1.00169 0
M  V30 6582 H 641.657 2.05684 -3.19997 0
M  V30 6583 H 642.969 2.87899 -4.07328 0
M  V30 6584 H 642.123 5.09954 -3.28682 0
M  V30 6585 H 640.862 4.29503 -2.31038 0
M  V30 6586 H 639.867 3.30659 -4.39254 0
M  V30 6587 H 641.092 4.14366 -5.38031 0
M  V30 6588 H 639.038 5.4925 -3.58692 0
M  V30 6589 H 638.955 5.37705 -5.31422 0
M  V30 6590 H 640.223 6.30993 -4.57676 0
M  V30 6591 N 644.452 1.42507 0.673017 0
M  V30 6592 C 645.415 1.4582 1.76831 0
M  V30 6593 C 646.415 0.345542 1.57043 0
M  V30 6594 O 647.605 0.606447 1.63303 0
M  V30 6595 C 644.737 1.29158 3.15485 0
M  V30 6596 H 645.93 2.43345 1.7528 0
M  V30 6597 H 643.483 1.28981 0.882817 0
M  V30 6598 H 644.218 0.325626 3.22661 0
M  V30 6599 H 644.003 2.09797 3.31252 0
M  V30 6600 H 645.493 1.34363 3.95394 0
M  V30 6601 N 645.93 -0.909495 1.28709 0
M  V30 6602 C 646.877 -2.01245 1.13 0
M  V30 6603 C 647.847 -1.6608 0.0259684 0
M  V30 6604 O 649.032 -1.89835 0.191687 0
M  V30 6605 C 646.172 -3.35644 0.802315 0
M  V30 6606 C 645.285 -3.83653 1.98582 0
M  V30 6607 C 644.42 -5.06582 1.59837 0
M  V30 6608 C 643.459 -5.46934 2.74827 0
M  V30 6609 N 642.596 -6.61053 2.36546 0
M  V30 6610 H 647.436 -2.14013 2.0737 0
M  V30 6611 H 644.973 -1.0482 1.03205 0
M  V30 6612 H 646.931 -4.12963 0.593057 0
M  V30 6613 H 645.561 -3.22631 -0.104457 0
M  V30 6614 H 644.613 -3.02454 2.30708 0
M  V30 6615 H 645.925 -4.09515 2.84779 0
M  V30 6616 H 645.079 -5.91457 1.35143 0
M  V30 6617 H 643.818 -4.82537 0.707753 0
M  V30 6618 H 642.823 -4.60599 3.00215 0
M  V30 6619 H 644.048 -5.72965 3.64538 0
M  V30 6620 H 641.994 -6.3863 1.49959 0
M  V30 6621 H 641.911 -6.86662 3.16277 0
M  V30 6622 H 643.179 -7.49221 2.15146 0
M  V30 6623 N 647.408 -1.11026 -1.11852 0
M  V30 6624 C 648.34 -0.72249 -2.17515 0
M  V30 6625 C 649.353 0.243782 -1.60964 0
M  V30 6626 O 650.542 0.0273252 -1.78479 0
M  V30 6627 C 647.642 -0.0463979 -3.38868 0
M  V30 6628 C 646.815 -1.0384 -4.24895 0
M  V30 6629 C 645.874 -0.392659 -5.24733 0
M  V30 6630 O 644.9 -1.0453 -5.5952 0
M  V30 6631 N 646.102 0.846296 -5.74298 0
M  V30 6632 H 648.867 -1.63161 -2.51393 0
M  V30 6633 H 646.428 -0.999899 -1.27333 0
M  V30 6634 H 648.42 0.397215 -4.02746 0
M  V30 6635 H 646.99 0.765231 -3.03089 0
M  V30 6636 H 646.21 -1.6601 -3.57539 0
M  V30 6637 H 647.498 -1.70968 -4.79215 0
M  V30 6638 H 646.896 1.39578 -5.4821 0
M  V30 6639 H 645.453 1.23296 -6.40032 0
M  V30 6640 N 648.886 1.2938 -0.899927 0
M  V30 6641 C 650.163 1.9046 -0.445443 0
M  V30 6642 C 650.543 1.81683 1.07492 0
M  V30 6643 O 649.891 1.24371 1.91688 0
M  V30 6644 C 650.101 3.35529 -0.960279 0
M  V30 6645 C 651.449 4.12556 -1.00412 0
M  V30 6646 O 652.473 3.44434 -0.907965 0
M  V30 6647 O 651.332 5.34294 -1.14857 0
M  V30 6648 H 648.426 0.815253 -0.138893 0
M  V30 6649 H 650.972 1.37844 -0.989808 0
M  V30 6650 H 649.744 3.36074 -2.00425 0
M  V30 6651 H 649.367 3.95624 -0.395939 0
M  V30 6652 N 650.364 0.662433 1.43002 0
M  V30 6653 C 651.294 -0.00979809 2.33498 0
M  V30 6654 C 652.275 -0.802329 1.49989 0
M  V30 6655 O 653.46 -0.761964 1.78627 0
M  V30 6656 C 650.59 -0.970446 3.33466 0
M  V30 6657 C 649.544 -0.287383 4.27034 0
M  V30 6658 C 648.87 -1.36012 5.17112 0
M  V30 6659 C 650.17 0.82595 5.15728 0
M  V30 6660 H 651.864 0.745959 2.89958 0
M  V30 6661 H 649.41 0.360172 1.39423 0
M  V30 6662 H 651.363 -1.44971 3.95679 0
M  V30 6663 H 650.087 -1.75748 2.75282 0
M  V30 6664 H 648.746 0.17152 3.66199 0
M  V30 6665 H 648.394 -2.13882 4.55262 0
M  V30 6666 H 648.094 -0.908276 5.80538 0
M  V30 6667 H 649.618 -1.84056 5.82199 0
M  V30 6668 H 651.032 0.42845 5.71697 0
M  V30 6669 H 649.429 1.20282 5.87922 0
M  V30 6670 H 650.499 1.68003 4.54866 0
M  V30 6671 N 651.842 -1.52309 0.404946 0
M  V30 6672 C 652.805 -2.25491 -0.410651 0
M  V30 6673 C 653.805 -1.27704 -0.977154 0
M  V30 6674 O 654.995 -1.51679 -0.856691 0
M  V30 6675 C 652.127 -3.02197 -1.57765 0
M  V30 6676 H 653.32 -2.99015 0.230277 0
M  V30 6677 H 650.873 -1.55506 0.157377 0
M  V30 6678 H 651.608 -2.33013 -2.25556 0
M  V30 6679 H 651.393 -3.73987 -1.17797 0
M  V30 6680 H 652.883 -3.57719 -2.15469 0
M  V30 6681 N 653.32 -0.135238 -1.57019 0
M  V30 6682 C 654.736 0.221262 -1.58059 0
M  V30 6683 C 654.936 1.65538 -1.14889 0
M  V30 6684 O 653.992 2.37985 -0.843751 0
M  V30 6685 C 655.305 -0.0268114 -3.00688 0
M  V30 6686 C 656.853 0.0378206 -3.12977 0
M  V30 6687 C 657.328 -0.182769 -4.57635 0
M  V30 6688 N 658.819 -0.129292 -4.6302 0
M  V30 6689 C 659.554 -0.274648 -5.72742 0
M  V30 6690 N 659.05 -0.477075 -6.91155 0
M  V30 6691 N 660.843 -0.213077 -5.61696 0
M  V30 6692 H 652.994 -1.07177 -1.83376 0
M  V30 6693 H 655.257 -0.423338 -0.848227 0
M  V30 6694 H 654.963 -1.01889 -3.36618 0
M  V30 6695 H 654.837 0.697863 -3.70688 0
M  V30 6696 H 657.224 1.02043 -2.76896 0
M  V30 6697 H 657.305 -0.718996 -2.45487 0
M  V30 6698 H 656.949 -1.16243 -4.94419 0
M  V30 6699 H 656.879 0.59423 -5.23237 0
M  V30 6700 H 659.37 0.0229896 -3.77893 0
M  V30 6701 H 659.683 -0.578413 -7.70632 0
M  V30 6702 H 658.028 -0.513252 -6.93102 0
M  V30 6703 H 661.219 -0.0557796 -4.68067 0
M  V30 6704 H 661.392 -0.329796 -6.4716 0
M  V30 6705 N 654.798 1.5699 0.138552 0
M  V30 6706 C 655.728 2.01933 1.17241 0
M  V30 6707 C 656.709 0.90033 1.44319 0
M  V30 6708 O 657.894 1.16872 1.55095 0
M  V30 6709 C 655.024 2.40711 2.50351 0
M  V30 6710 C 653.978 3.55874 2.37776 0
M  V30 6711 C 653.304 3.80491 3.75674 0
M  V30 6712 C 654.604 4.8826 1.85472 0
M  V30 6713 H 656.298 2.88551 0.798672 0
M  V30 6714 H 653.844 1.3882 0.382743 0
M  V30 6715 H 655.797 2.70754 3.22909 0
M  V30 6716 H 654.521 1.5104 2.89576 0
M  V30 6717 H 653.18 3.2601 1.67669 0
M  V30 6718 H 652.828 2.88057 4.12349 0
M  V30 6719 H 652.528 4.57998 3.68119 0
M  V30 6720 H 654.052 4.12967 4.49767 0
M  V30 6721 H 655.466 5.16965 2.4783 0
M  V30 6722 H 653.863 5.69631 1.88787 0
M  V30 6723 H 654.933 4.78071 0.810935 0
M  V30 6724 N 656.276 -0.40816 1.52223 0
M  V30 6725 C 657.206 -1.5042 1.78595 0
M  V30 6726 C 658.187 -1.57723 0.636974 0
M  V30 6727 O 659.372 -1.72982 0.882664 0
M  V30 6728 C 656.502 -2.88232 1.93751 0
M  V30 6729 C 655.456 -2.95779 3.09352 0
M  V30 6730 C 654.782 -4.35855 3.09732 0
M  V30 6731 C 656.082 -2.67175 4.48793 0
M  V30 6732 H 657.776 -1.28601 2.70374 0
M  V30 6733 H 655.322 -0.617221 1.30101 0
M  V30 6734 H 657.275 -3.64895 2.10783 0
M  V30 6735 H 655.999 -3.11347 0.986443 0
M  V30 6736 H 654.658 -2.21561 2.92072 0
M  V30 6737 H 654.306 -4.55981 2.12346 0
M  V30 6738 H 654.006 -4.41829 3.87377 0
M  V30 6739 H 655.53 -5.14451 3.28895 0
M  V30 6740 H 656.944 -3.3356 4.66273 0
M  V30 6741 H 655.341 -2.84523 5.28362 0
M  V30 6742 H 656.411 -1.62609 4.56822 0
M  V30 6743 N 657.755 -1.42862 -0.66545 0
M  V30 6744 C 658.702 -1.4707 -1.77874 0
M  V30 6745 C 659.672 -0.321654 -1.62956 0
M  V30 6746 O 660.857 -0.52707 -1.83376 0
M  V30 6747 C 657.997 -1.38788 -3.15962 0
M  V30 6748 C 657.11 -2.63801 -3.42101 0
M  V30 6749 C 656.245 -2.47594 -4.69969 0
M  V30 6750 C 655.284 -3.67936 -4.89172 0
M  V30 6751 N 654.421 -3.50614 -6.08288 0
M  V30 6752 H 659.261 -2.42204 -1.73613 0
M  V30 6753 H 656.798 -1.20239 -0.847401 0
M  V30 6754 H 658.756 -1.31982 -3.95773 0
M  V30 6755 H 657.386 -0.472431 -3.19324 0
M  V30 6756 H 656.438 -2.80935 -2.56475 0
M  V30 6757 H 657.75 -3.53228 -3.52181 0
M  V30 6758 H 656.904 -2.38427 -5.57886 0
M  V30 6759 H 655.643 -1.55672 -4.62188 0
M  V30 6760 H 654.648 -3.77525 -3.99694 0
M  V30 6761 H 655.873 -4.60851 -4.98792 0
M  V30 6762 H 653.819 -2.61417 -6.01662 0
M  V30 6763 H 653.736 -4.33634 -6.19272 0
M  V30 6764 H 655.004 -3.45276 -6.98859 0
M  V30 6765 N 659.233 0.902656 -1.29189 0
M  V30 6766 C 660.143 2.03946 -1.15944 0
M  V30 6767 C 661.159 1.738 -0.0833803 0
M  V30 6768 O 662.335 1.9923 -0.29487 0
M  V30 6769 C 659.4 3.36519 -0.834006 0
M  V30 6770 C 658.461 3.80203 -1.9936 0
M  V30 6771 C 657.694 5.06449 -1.68359 0
M  V30 6772 O 657.917 5.67202 -0.603141 0
M  V30 6773 O 656.851 5.46114 -2.53067 0
M  V30 6774 H 660.677 2.18043 -2.11403 0
M  V30 6775 H 658.262 1.02584 -1.08613 0
M  V30 6776 H 660.144 4.16089 -0.666949 0
M  V30 6777 H 658.819 3.23573 0.0908245 0
M  V30 6778 H 657.726 3.01413 -2.21588 0
M  V30 6779 H 659.059 3.97729 -2.89952 0
M  V30 6780 N 660.711 1.11618 1.11262 0
M  V30 6781 C 661.941 0.88745 1.86569 0
M  V30 6782 C 662.349 -0.56636 1.80524 0
M  V30 6783 O 661.692 -1.40289 1.18594 0
M  V30 6784 C 661.754 1.27313 3.36202 0
M  V30 6785 C 661.418 2.73649 3.66013 0
M  V30 6786 C 662.415 3.71863 3.63337 0
M  V30 6787 C 660.1 3.10342 3.9496 0
M  V30 6788 C 662.094 5.04788 3.89188 0
M  V30 6789 C 659.781 4.43451 4.20469 0
M  V30 6790 C 660.779 5.40484 4.17572 0
M  V30 6791 O 660.467 6.71195 4.42439 0
M  V30 6792 H 660.199 0.317543 0.596777 0
M  V30 6793 H 662.753 1.48768 1.41624 0
M  V30 6794 H 660.983 0.616062 3.81761 0
M  V30 6795 H 662.672 1.01991 3.92877 0
M  V30 6796 H 663.438 3.44861 3.41022 0
M  V30 6797 H 659.317 2.35431 3.9635 0
M  V30 6798 H 662.861 5.80516 3.86842 0
M  V30 6799 H 658.758 4.70187 4.42261 0
M  V30 6800 H 659.526 6.77012 4.59997 0
M  V30 6801 N 662.189 -1.289 0.906776 0
M  V30 6802 C 663.121 -2.26556 0.347159 0
M  V30 6803 C 664.134 -1.54589 -0.51049 0
M  V30 6804 O 665.323 -1.75489 -0.326501 0
M  V30 6805 C 662.423 -3.3484 -0.523024 0
M  V30 6806 C 661.596 -4.36296 0.310515 0
M  V30 6807 C 660.655 -5.23879 -0.493634 0
M  V30 6808 O 659.681 -5.69127 0.0913569 0
M  V30 6809 N 660.883 -5.51946 -1.7982 0
M  V30 6810 H 663.648 -2.75212 1.18652 0
M  V30 6811 H 661.209 -1.42309 0.771996 0
M  V30 6812 H 663.201 -3.90366 -1.06756 0
M  V30 6813 H 661.771 -2.85946 -1.26309 0
M  V30 6814 H 660.991 -3.80331 1.03644 0
M  V30 6815 H 662.279 -5.01113 0.881106 0
M  V30 6816 H 661.677 -5.17006 -2.2961 0
M  V30 6817 H 660.234 -6.10258 -2.28971 0
M  V30 6818 N 663.667 -0.670007 -1.42649 0
M  V30 6819 C 664.577 0.0114788 -2.34597 0
M  V30 6820 C 665.593 0.794055 -1.54825 0
M  V30 6821 O 666.769 0.737472 -1.87412 0
M  V30 6822 C 663.834 0.954436 -3.33304 0
M  V30 6823 C 662.895 0.166925 -4.28975 0
M  V30 6824 C 662.128 1.06497 -5.22967 0
M  V30 6825 O 662.351 2.30446 -5.21777 0
M  V30 6826 O 661.285 0.528347 -5.99577 0
M  V30 6827 H 665.111 -0.745794 -2.944 0
M  V30 6828 H 662.696 -0.430228 -1.43071 0
M  V30 6829 H 664.578 1.49589 -3.93956 0
M  V30 6830 H 663.253 1.69164 -2.7598 0
M  V30 6831 H 662.16 -0.418515 -3.71752 0
M  V30 6832 H 663.493 -0.531067 -4.89327 0
M  V30 6833 N 665.145 1.52092 -0.413018 0
M  V30 6834 C 666.075 2.30021 0.401567 0
M  V30 6835 C 667.056 1.34395 1.04269 0
M  V30 6836 O 668.241 1.63304 1.05097 0
M  V30 6837 C 665.371 3.12447 1.51638 0
M  V30 6838 C 664.325 4.16153 1.00005 0
M  V30 6839 C 663.651 4.86948 2.20875 0
M  V30 6840 C 664.951 5.22275 0.0513757 0
M  V30 6841 H 666.645 2.98365 -0.248704 0
M  V30 6842 H 664.191 1.4349 -0.121052 0
M  V30 6843 H 666.144 3.65733 2.09326 0
M  V30 6844 H 664.868 2.41879 2.19458 0
M  V30 6845 H 663.527 3.63882 0.445549 0
M  V30 6846 H 663.175 4.12905 2.8726 0
M  V30 6847 H 662.875 5.57057 1.86978 0
M  V30 6848 H 664.399 5.43048 2.79162 0
M  V30 6849 H 665.813 5.70778 0.537176 0
M  V30 6850 H 664.21 5.9977 -0.198977 0
M  V30 6851 H 665.28 4.76611 -0.892736 0
M  V30 6852 N 666.623 0.143563 1.56945 0
M  V30 6853 C 667.556 -0.835367 2.1236 0
M  V30 6854 C 668.534 -1.24466 1.04627 0
M  V30 6855 O 669.718 -1.34138 1.32436 0
M  V30 6856 C 666.845 -2.12123 2.64048 0
M  V30 6857 C 665.891 -1.85812 3.83896 0
M  V30 6858 S 666.724 -1.05222 5.25061 0
M  V30 6859 C 667.88 -2.34935 5.80135 0
M  V30 6860 H 668.113 -0.364109 2.95062 0
M  V30 6861 H 665.646 -0.0706601 1.54238 0
M  V30 6862 H 667.604 -2.85993 2.94479 0
M  V30 6863 H 666.265 -2.56364 1.81483 0
M  V30 6864 H 665.458 -2.81151 4.18294 0
M  V30 6865 H 665.06 -1.20052 3.54208 0
M  V30 6866 H 667.352 -3.3061 5.91357 0
M  V30 6867 H 668.295 -2.05046 6.77762 0
M  V30 6868 H 668.703 -2.45426 5.08356 0
M  V30 6869 N 668.101 -1.57061 -0.130224 0
M  V30 6870 C 669.049 -2.00486 -1.17933 0
M  V30 6871 C 670.043 -0.899933 -1.43519 0
M  V30 6872 O 671.249 -1.08514 -1.43613 0
M  V30 6873 H 667.624 -0.638441 -0.397363 0
M  V30 6874 H 669.595 -2.87848 -0.786501 0
M  V30 6875 C 668.344 -2.41565 -2.50084 0
M  V30 6876 H 667.667 -3.26148 -2.31231 0
M  V30 6877 H 669.107 -2.75757 -3.22078 0
M  V30 6878 C 667.566 -1.27485 -3.11848 0
M  V30 6879 O 668.096 -0.584688 -3.97422 0
M  V30 6880 N 666.302 -1.03478 -2.71552 0
M  V30 6881 H 665.849 -1.59779 -2.02061 0
M  V30 6882 H 665.807 -0.27341 -3.13209 0
M  V30 6883 N 669.579 0.400081 -1.52437 0
M  V30 6884 C 670.825 1.14788 -1.67187 0
M  V30 6885 C 671.158 1.89928 -0.405074 0
M  V30 6886 O 670.433 1.85118 0.596804 0
M  V30 6887 C 670.716 2.13507 -2.89977 0
M  V30 6888 C 670.569 1.42204 -4.2673 0
M  V30 6889 C 671.888 3.14069 -3.083 0
M  V30 6890 H 669.007 0.415939 -0.608411 0
M  V30 6891 H 671.649 0.432542 -1.85011 0
M  V30 6892 H 669.799 2.7451 -2.74912 0
M  V30 6893 H 671.471 0.842503 -4.53541 0
M  V30 6894 H 669.714 0.723939 -4.27717 0
M  V30 6895 H 670.385 2.14281 -5.08712 0
M  V30 6896 H 672.861 2.63148 -3.22323 0
M  V30 6897 H 671.737 3.80398 -3.95713 0
M  V30 6898 H 671.998 3.82309 -2.22018 0
M  V30 6899 N 671.057 1.43213 0.657864 0
M  V30 6900 C 672.004 1.48011 1.77092 0
M  V30 6901 C 672.974 0.330291 1.62783 0
M  V30 6902 O 674.159 0.536787 1.83094 0
M  V30 6903 C 671.299 1.40461 3.15222 0
M  V30 6904 C 670.412 2.65612 3.40697 0
M  V30 6905 C 669.547 2.50083 4.68649 0
M  V30 6906 C 668.586 3.70525 4.87214 0
M  V30 6907 N 667.723 3.53835 6.0642 0
M  V30 6908 H 672.563 2.43121 1.72326 0
M  V30 6909 H 670.1 1.20687 0.841013 0
M  V30 6910 H 672.058 1.34079 3.95068 0
M  V30 6911 H 670.688 0.489359 3.19069 0
M  V30 6912 H 669.74 2.82292 2.54982 0
M  V30 6913 H 671.052 3.5509 3.50303 0
M  V30 6914 H 670.206 2.41383 5.56614 0
M  V30 6915 H 668.945 1.58121 4.61356 0
M  V30 6916 H 667.95 3.79639 3.97686 0
M  V30 6917 H 669.175 4.63489 4.96341 0
M  V30 6918 H 667.121 2.64604 6.00267 0
M  V30 6919 H 667.038 4.36912 6.16963 0
M  V30 6920 H 668.306 3.48978 6.97019 0
M  V30 6921 N 672.536 -0.895792 1.29666 0
M  V30 6922 C 673.466 -2.01673 1.17688 0
M  V30 6923 C 674.447 -1.69955 0.0701317 0
M  V30 6924 O 675.632 -1.9258 0.250289 0
M  V30 6925 C 672.762 -3.36568 0.856681 0
M  V30 6926 C 671.716 -3.82509 1.92017 0
M  V30 6927 C 671.042 -5.14574 1.4532 0
M  V30 6928 C 672.342 -4.02409 3.32963 0
M  V30 6929 H 674.036 -2.11953 2.11463 0
M  V30 6930 H 671.582 -1.01839 1.01807 0
M  V30 6931 H 673.535 -4.14498 0.759577 0
M  V30 6932 H 672.259 -3.26391 -0.116763 0
M  V30 6933 H 670.918 -3.068 2.00673 0
M  V30 6934 H 670.566 -5.00815 0.468325 0
M  V30 6935 H 670.266 -5.46283 2.16447 0
M  V30 6936 H 671.79 -5.9504 1.36968 0
M  V30 6937 H 673.204 -4.70808 3.27127 0
M  V30 6938 H 671.601 -4.45478 4.02082 0
M  V30 6939 H 672.671 -3.06616 3.75652 0
M  V30 6940 N 674.014 -1.12206 -1.10668 0
M  V30 6941 C 674.977 -0.790867 -2.15123 0
M  V30 6942 C 675.977 0.193618 -1.5963 0
M  V30 6943 O 677.167 -0.0318728 -1.74171 0
M  V30 6944 C 674.299 -0.174797 -3.40452 0
M  V30 6945 H 675.492 -1.7163 -2.45933 0
M  V30 6946 H 673.045 -0.924993 -1.2599 0
M  V30 6947 H 673.78 0.760478 -3.15257 0
M  V30 6948 H 673.565 -0.88358 -3.82015 0
M  V30 6949 H 675.055 0.0405162 -4.1758 0
M  V30 6950 N 675.492 1.28418 -0.913599 0
M  V30 6951 C 676.422 2.29713 -0.418847 0
M  V30 6952 C 677.403 1.62165 0.513469 0
M  V30 6953 O 678.588 1.89576 0.421235 0
M  V30 6954 C 675.718 3.45612 0.342042 0
M  V30 6955 C 674.672 4.25056 -0.501123 0
M  V30 6956 C 673.998 5.3329 0.388097 0
M  V30 6957 C 675.298 4.91814 -1.75831 0
M  V30 6958 H 676.992 2.71346 -1.26538 0
M  V30 6959 H 674.538 1.30446 -0.609903 0
M  V30 6960 H 676.491 4.15562 0.699 0
M  V30 6961 H 675.215 3.02858 1.22248 0
M  V30 6962 H 673.874 3.56833 -0.840598 0
M  V30 6963 H 673.522 4.8678 1.26707 0
M  V30 6964 H 673.222 5.87347 -0.172459 0
M  V30 6965 H 674.746 6.06088 0.74094 0
M  V30 6966 H 676.16 5.54126 -1.47026 0
M  V30 6967 H 674.557 5.55866 -2.26126 0
M  V30 6968 H 675.627 4.16313 -2.4862 0
M  V30 6969 N 676.97 0.677563 1.42291 0
M  V30 6970 C 678.247 0.129803 1.95169 0
M  V30 6971 C 678.627 -1.35605 1.61786 0
M  V30 6972 O 677.975 -2.09361 0.915444 0
M  V30 6973 C 678.185 0.401889 3.46678 0
M  V30 6974 C 679.533 0.319889 4.23393 0
M  V30 6975 O 680.557 0.33579 3.54614 0
M  V30 6976 O 679.416 0.264459 5.4586 0
M  V30 6977 H 676.51 0.00447433 0.826988 0
M  V30 6978 H 679.056 0.752483 1.52105 0
M  V30 6979 H 677.828 1.43108 3.64192 0
M  V30 6980 H 677.451 -0.252662 3.96796 0
M  V30 6981 N 678.448 -1.51871 0.421078 0
M  V30 6982 C 679.694 -2.02237 -0.151014 0
M  V30 6983 C 680.027 -1.30554 -1.43768 0
M  V30 6984 O 679.302 -0.41546 -1.90011 0
M  V30 6985 C 679.585 -3.5802 -0.386482 0
M  V30 6986 C 679.438 -4.40339 0.9177 0
M  V30 6987 C 680.757 -4.24444 -1.16342 0
M  V30 6988 H 677.876 -0.735062 -0.0534102 0
M  V30 6989 H 680.518 -1.81656 0.556888 0
M  V30 6990 H 678.668 -3.75688 -0.989494 0
M  V30 6991 H 680.34 -4.34357 1.55344 0
M  V30 6992 H 678.583 -4.06073 1.526 0
M  V30 6993 H 679.254 -5.47451 0.707187 0
M  V30 6994 H 681.73 -4.10948 -0.652788 0
M  V30 6995 H 680.606 -5.33358 -1.29693 0
M  V30 6996 H 680.867 -3.84204 -2.18724 0
M  V30 6997 N 679.926 -0.151884 -1.56866 0
M  V30 6998 C 680.836 0.798876 -2.20579 0
M  V30 6999 C 681.852 1.268 -1.19154 0
M  V30 7000 O 683.028 1.32418 -1.51748 0
M  V30 7001 C 680.093 2.01861 -2.81874 0
M  V30 7002 C 679.154 1.59825 -3.9844 0
M  V30 7003 C 678.387 2.75984 -4.56802 0
M  V30 7004 O 678.61 3.92331 -4.14044 0
M  V30 7005 O 677.544 2.51175 -5.46987 0
M  V30 7006 H 681.37 0.2865 -3.02346 0
M  V30 7007 H 678.955 0.0753806 -1.4921 0
M  V30 7008 H 680.837 2.73235 -3.20813 0
M  V30 7009 H 679.512 2.52042 -2.03117 0
M  V30 7010 H 678.419 0.854601 -3.64208 0
M  V30 7011 H 679.752 1.14355 -4.78731 0
M  V30 7012 N 681.404 1.57128 0.121893 0
M  V30 7013 C 682.653 1.83888 0.828748 0
M  V30 7014 C 682.966 0.737087 1.81181 0
M  V30 7015 O 684.172 0.891007 2.56463 0
M  V30 7016 C 682.628 3.26014 1.52455 0
M  V30 7017 C 682.236 4.44195 0.58263 0
M  V30 7018 C 683.98 3.62025 2.21671 0
M  V30 7019 C 681.887 5.77349 1.28149 0
M  V30 7020 H 680.817 0.685856 0.313238 0
M  V30 7021 H 683.468 1.83319 0.0814851 0
M  V30 7022 H 681.85 3.21044 2.31834 0
M  V30 7023 H 683.024 4.60457 -0.177729 0
M  V30 7024 H 681.339 4.164 -0.00241228 0
M  V30 7025 H 683.936 4.58776 2.74643 0
M  V30 7026 H 684.279 2.89315 2.99337 0
M  V30 7027 H 684.812 3.68767 1.49184 0
M  V30 7028 H 681.551 6.53221 0.546189 0
M  V30 7029 H 681.071 5.64978 2.01394 0
M  V30 7030 H 682.75 6.21006 1.81549 0
M  V30 7031 N 682.882 -0.391992 1.52647 0
M  V30 7032 C 683.845 -1.46135 1.7657 0
M  V30 7033 C 684.845 -1.47701 0.635698 0
M  V30 7034 O 686.035 -1.48924 0.903728 0
M  V30 7035 C 683.167 -2.85443 1.86374 0
M  V30 7036 H 684.36 -1.26208 2.72051 0
M  V30 7037 H 681.913 -0.623549 1.43323 0
M  V30 7038 H 682.648 -3.10718 0.928685 0
M  V30 7039 H 682.433 -2.85708 2.68539 0
M  V30 7040 H 683.923 -3.62933 2.06566 0
M  V30 7041 N 684.36 -1.4356 -0.65026 0
M  V30 7042 C 685.588 -1.48779 -1.43779 0
M  V30 7043 C 686.003 -0.106593 -1.88499 0
M  V30 7044 O 685.36 0.883766 -1.59674 0
M  V30 7045 C 685.411 -2.43618 -2.67081 0
M  V30 7046 O 685.132 -3.76367 -2.24231 0
M  V30 7047 C 686.633 -2.5811 -3.60409 0
M  V30 7048 H 683.853 -0.50521 -0.441593 0
M  V30 7049 H 686.397 -1.88332 -0.796941 0
M  V30 7050 H 684.552 -2.07253 -3.273 0
M  V30 7051 H 684.966 -4.27394 -3.0403 0
M  V30 7052 H 686.44 -3.28539 -4.43583 0
M  V30 7053 H 686.917 -1.627 -4.07953 0
M  V30 7054 H 687.523 -2.95298 -3.0607 0
M  V30 7055 N 685.838 0.888903 -1.30139 0
M  V30 7056 C 687.068 1.67115 -1.21474 0
M  V30 7057 C 687.476 1.87852 0.225472 0
M  V30 7058 O 686.819 1.42324 1.16145 0
M  V30 7059 C 686.881 3.0713 -1.86846 0
M  V30 7060 C 686.545 3.09582 -3.36167 0
M  V30 7061 C 687.542 2.88929 -4.32222 0
M  V30 7062 C 685.227 3.31304 -3.77549 0
M  V30 7063 C 687.221 2.89949 -5.67634 0
M  V30 7064 C 684.908 3.31954 -5.13079 0
M  V30 7065 C 685.906 3.113 -6.07932 0
M  V30 7066 O 685.594 3.11758 -7.40987 0
M  V30 7067 H 685.326 0.528372 -0.421662 0
M  V30 7068 H 687.88 1.11919 -1.7223 0
M  V30 7069 H 686.11 3.63973 -1.30615 0
M  V30 7070 H 687.799 3.6749 -1.72354 0
M  V30 7071 H 688.565 2.71948 -4.01584 0
M  V30 7072 H 684.444 3.46417 -3.04165 0
M  V30 7073 H 687.988 2.73746 -6.41645 0
M  V30 7074 H 683.885 3.48469 -5.43359 0
M  V30 7075 H 684.653 3.27951 -7.49927 0
M  V30 7076 N 687.317 1.12792 1.10072 0
M  V30 7077 C 688.733 0.864745 1.34143 0
M  V30 7078 C 688.933 -0.503201 1.95116 0
M  V30 7079 O 687.989 -1.25111 2.19325 0
M  V30 7080 C 689.302 1.98413 2.25949 0
M  V30 7081 C 690.85 2.01545 2.39476 0
M  V30 7082 C 691.325 3.12727 3.34613 0
M  V30 7083 N 692.816 3.12194 3.42183 0
M  V30 7084 C 693.551 3.94862 4.15779 0
M  V30 7085 N 693.047 4.87528 4.92228 0
M  V30 7086 N 694.84 3.82985 4.11435 0
M  V30 7087 H 686.991 2.00926 0.68866 0
M  V30 7088 H 689.254 0.874564 0.365844 0
M  V30 7089 H 688.96 2.97005 1.88364 0
M  V30 7090 H 688.834 1.89254 3.26287 0
M  V30 7091 H 691.221 1.0357 2.76328 0
M  V30 7092 H 691.302 2.14777 1.3894 0
M  V30 7093 H 690.946 4.10936 2.98486 0
M  V30 7094 H 690.876 2.96732 4.35037 0
M  V30 7095 H 693.367 2.45065 2.87666 0
M  V30 7096 H 693.68 5.47109 5.45794 0
M  V30 7097 H 692.025 4.91539 4.9134 0
M  V30 7098 H 695.216 3.09923 3.50807 0
M  V30 7099 H 695.389 4.47641 4.68531 0
M  V30 7100 N 688.795 -1.27931 0.920396 0
M  V30 7101 C 689.742 -2.27085 0.412422 0
M  V30 7102 C 690.712 -1.57858 -0.516725 0
M  V30 7103 O 691.897 -1.85717 -0.437475 0
M  V30 7104 C 689.037 -3.43466 -0.335399 0
M  V30 7105 C 688.15 -4.27425 0.627017 0
M  V30 7106 C 687.285 -5.31016 -0.139916 0
M  V30 7107 C 686.324 -6.06641 0.815683 0
M  V30 7108 N 685.461 -7.02052 0.0818439 0
M  V30 7109 H 690.301 -2.69913 1.26298 0
M  V30 7110 H 687.838 -1.32732 0.634076 0
M  V30 7111 H 689.796 -4.09744 -0.785226 0
M  V30 7112 H 688.426 -3.01611 -1.15025 0
M  V30 7113 H 687.478 -3.6113 1.19537 0
M  V30 7114 H 688.79 -4.79969 1.35763 0
M  V30 7115 H 687.944 -6.03208 -0.649998 0
M  V30 7116 H 686.683 -4.79257 -0.903543 0
M  V30 7117 H 685.688 -5.33294 1.33708 0
M  V30 7118 H 686.913 -6.60489 1.57897 0
M  V30 7119 H 684.859 -6.52634 -0.663671 0
M  V30 7120 H 684.776 -7.52249 0.752163 0
M  V30 7121 H 686.044 -7.78432 -0.407825 0
M  V30 7122 N 690.273 -0.685099 -1.4193 0
M  V30 7123 C 691.203 -0.0273506 -2.33484 0
M  V30 7124 C 692.184 0.778366 -1.51246 0
M  V30 7125 O 693.369 0.733449 -1.79817 0
M  V30 7126 C 690.499 0.917272 -3.34968 0
M  V30 7127 C 689.453 0.21941 -4.27437 0
M  V30 7128 C 688.779 1.27768 -5.1921 0
M  V30 7129 C 690.079 -0.907894 -5.14349 0
M  V30 7130 H 691.773 -0.791994 -2.88735 0
M  V30 7131 H 689.319 -0.382308 -1.38832 0
M  V30 7132 H 691.272 1.38657 -3.97935 0
M  V30 7133 H 689.996 1.71346 -2.78043 0
M  V30 7134 H 688.655 -0.229757 -3.65879 0
M  V30 7135 H 688.303 2.06612 -4.58607 0
M  V30 7136 H 688.003 0.815803 -5.81909 0
M  V30 7137 H 689.527 1.7477 -5.85054 0
M  V30 7138 H 690.941 -0.519348 -5.70943 0
M  V30 7139 H 689.338 -1.2962 -5.85934 0
M  V30 7140 H 690.408 -1.75218 -4.52136 0
M  V30 7141 N 691.751 1.51645 -0.429126 0
M  V30 7142 C 692.681 2.30434 0.377148 0
M  V30 7143 C 693.662 1.35493 1.02838 0
M  V30 7144 O 694.847 1.6441 1.03359 0
M  V30 7145 C 691.977 3.14038 1.48315 0
M  V30 7146 C 690.931 4.1719 0.955855 0
M  V30 7147 C 690.257 4.89263 2.15698 0
M  V30 7148 C 691.557 5.223 -0.00402136 0
M  V30 7149 H 693.251 2.98085 -0.280336 0
M  V30 7150 H 690.797 1.43354 -0.136265 0
M  V30 7151 H 692.75 3.67933 2.05435 0
M  V30 7152 H 691.474 2.44193 2.16881 0
M  V30 7153 H 690.133 3.64335 0.406929 0
M  V30 7154 H 689.781 4.15929 2.82864 0
M  V30 7155 H 689.481 5.59009 1.81059 0
M  V30 7156 H 691.005 5.45978 2.73387 0
M  V30 7157 H 692.419 5.71315 0.476607 0
M  V30 7158 H 690.816 5.99525 -0.26258 0
M  V30 7159 H 691.886 4.75638 -0.943236 0
M  V30 7160 N 693.229 0.160201 1.56784 0
M  V30 7161 C 694.139 -0.787167 2.21 0
M  V30 7162 C 695.155 -1.26167 1.19825 0
M  V30 7163 O 696.331 -1.31611 1.52448 0
M  V30 7164 C 693.396 -2.00364 2.8294 0
M  V30 7165 C 692.457 -1.5771 3.99282 0
M  V30 7166 C 691.69 -2.73558 4.58259 0
M  V30 7167 O 691.913 -3.90129 4.16119 0
M  V30 7168 O 690.847 -2.48271 5.48311 0
M  V30 7169 H 694.673 -0.270462 3.02493 0
M  V30 7170 H 692.258 -0.0674666 1.49248 0
M  V30 7171 H 694.14 -2.71529 3.22257 0
M  V30 7172 H 692.815 -2.50961 2.04451 0
M  V30 7173 H 691.722 -0.835274 3.64656 0
M  V30 7174 H 693.055 -1.11815 4.79331 0
M  V30 7175 N 694.707 -1.5719 -0.113559 0
M  V30 7176 C 695.955 -1.84772 -0.818761 0
M  V30 7177 C 696.276 -0.746196 -1.80158 0
M  V30 7178 O 695.546 0.229305 -1.94553 0
M  V30 7179 H 694.126 -0.681737 -0.305359 0
M  V30 7180 H 696.788 -1.94645 -0.0995845 0
M  V30 7181 H 695.884 -2.80878 -1.36067 0
M  V30 7182 N 696.185 0.383891 -1.52853 0
M  V30 7183 C 697.095 1.49343 -1.80925 0
M  V30 7184 C 698.111 1.59458 -0.696348 0
M  V30 7185 O 699.287 1.75698 -0.984481 0
M  V30 7186 C 696.352 2.84819 -1.97684 0
M  V30 7187 C 695.413 2.84382 -3.21598 0
M  V30 7188 C 694.646 4.13397 -3.37548 0
M  V30 7189 O 694.869 5.08619 -2.58192 0
M  V30 7190 O 693.803 4.20325 -4.30826 0
M  V30 7191 H 697.629 1.2855 -2.75152 0
M  V30 7192 H 695.214 0.572229 -1.38007 0
M  V30 7193 H 697.096 3.65125 -2.10385 0
M  V30 7194 H 695.771 3.05627 -1.06647 0
M  V30 7195 H 694.678 2.0284 -3.14336 0
M  V30 7196 H 696.011 2.68526 -4.12498 0
M  V30 7197 N 697.663 1.43903 0.642637 0
M  V30 7198 C 698.573 1.52349 1.78401 0
M  V30 7199 C 699.589 0.409869 1.69104 0
M  V30 7200 O 700.765 0.665548 1.90085 0
M  V30 7201 C 697.83 1.45408 3.14734 0
M  V30 7202 C 696.891 2.67528 3.35749 0
M  V30 7203 C 696.124 2.60909 4.65577 0
M  V30 7204 O 696.347 1.6627 5.45628 0
M  V30 7205 O 695.281 3.5158 4.88544 0
M  V30 7206 H 699.107 2.48752 1.7423 0
M  V30 7207 H 696.692 1.26021 0.802439 0
M  V30 7208 H 698.574 1.44019 3.96026 0
M  V30 7209 H 697.249 0.521437 3.19473 0
M  V30 7210 H 696.156 2.74487 2.5418 0
M  V30 7211 H 697.489 3.598 3.35864 0
M  V30 7212 N 699.141 -0.881989 1.30609 0
M  V30 7213 C 700.381 -1.64817 1.20891 0
M  V30 7214 C 700.745 -1.90593 -0.232043 0
M  V30 7215 O 701.946 -2.64964 -0.452516 0
M  V30 7216 C 700.217 -2.95006 2.01758 0
M  V30 7217 S 701.776 -3.85953 2.08771 0
M  V30 7218 H 698.594 -0.565651 0.430767 0
M  V30 7219 H 701.196 -1.04665 1.65122 0
M  V30 7220 H 699.9 -2.73973 3.0556 0
M  V30 7221 H 699.431 -3.60189 1.582 0
M  V30 7222 H 701.446 -4.81037 1.21727 0
M  V30 7223 N 700.619 -1.13374 -1.09472 0
M  V30 7224 C 702.035 -0.871846 -1.33682 0
M  V30 7225 C 702.235 0.492847 -1.9538 0
M  V30 7226 O 701.291 1.23946 -2.19985 0
M  V30 7227 C 702.604 -1.99608 -2.24893 0
M  V30 7228 C 704.152 -2.02812 -2.38404 0
M  V30 7229 C 704.627 -3.14497 -3.3295 0
M  V30 7230 N 706.118 -3.14004 -3.40523 0
M  V30 7231 C 706.853 -3.97061 -4.13679 0
M  V30 7232 N 706.349 -4.90131 -4.89636 0
M  V30 7233 N 708.142 -3.85162 -4.09398 0
M  V30 7234 H 700.293 -2.01288 -0.677995 0
M  V30 7235 H 702.556 -0.876492 -0.361201 0
M  V30 7236 H 702.262 -2.98 -1.86786 0
M  V30 7237 H 702.136 -1.90981 -3.25278 0
M  V30 7238 H 704.523 -1.05034 -2.75775 0
M  V30 7239 H 704.604 -2.15511 -1.37799 0
M  V30 7240 H 704.248 -4.12514 -2.96302 0
M  V30 7241 H 704.178 -2.99035 -4.33458 0
M  V30 7242 H 706.669 -2.46587 -2.86362 0
M  V30 7243 H 706.982 -5.49996 -5.42885 0
M  V30 7244 H 705.327 -4.94138 -4.88726 0
M  V30 7245 H 708.518 -3.11779 -3.49158 0
M  V30 7246 H 708.691 -4.5012 -4.6615 0
M  V30 7247 N 702.098 1.27442 -0.927168 0
M  V30 7248 C 703.028 2.29256 -0.443188 0
M  V30 7249 C 704.009 1.62701 0.49624 0
M  V30 7250 O 705.194 1.90013 0.401105 0
M  V30 7251 C 702.324 3.45955 0.305366 0
M  V30 7252 C 701.278 4.24501 -0.546178 0
M  V30 7253 C 700.604 5.33671 0.331512 0
M  V30 7254 C 701.904 4.89921 -1.81037 0
M  V30 7255 H 703.598 2.69988 -1.29409 0
M  V30 7256 H 701.144 1.29792 -0.623705 0
M  V30 7257 H 703.097 4.1628 0.654885 0
M  V30 7258 H 701.821 3.04138 1.19029 0
M  V30 7259 H 700.48 3.55921 -0.878398 0
M  V30 7260 H 700.128 4.88096 1.21537 0
M  V30 7261 H 699.828 5.87131 -0.234746 0
M  V30 7262 H 701.352 6.0684 0.676614 0
M  V30 7263 H 702.766 5.52536 -1.52895 0
M  V30 7264 H 701.163 5.53436 -2.32009 0
M  V30 7265 H 702.233 4.13652 -2.53021 0
M  V30 7266 N 703.576 0.692616 1.41565 0
M  V30 7267 C 704.524 0.0139952 2.32596 0
M  V30 7268 C 705.518 -0.771691 1.50802 0
M  V30 7269 O 706.724 -0.677646 1.66757 0
M  V30 7270 H 703.099 -0.0142745 0.751865 0
M  V30 7271 H 705.07 0.798851 2.87508 0
M  V30 7272 C 703.819 -0.910602 3.35564 0
M  V30 7273 H 703.142 -0.315446 3.98554 0
M  V30 7274 H 704.582 -1.3538 4.01806 0
M  V30 7275 C 703.041 -2.02539 2.6922 0
M  V30 7276 O 703.571 -3.11386 2.53775 0
M  V30 7277 N 701.777 -1.80227 2.27962 0
M  V30 7278 H 701.324 -0.917054 2.40724 0
M  V30 7279 H 701.282 -2.55001 1.83907 0
M  V30 7280 N 705.054 -1.51416 0.437162 0
M  V30 7281 C 706.302 -2.01687 -0.129108 0
M  V30 7282 C 706.623 -1.32329 -1.43227 0
M  V30 7283 O 705.893 -0.457796 -1.90476 0
M  V30 7284 H 704.473 -0.745277 -0.0507023 0
M  V30 7285 H 707.135 -1.86075 0.579828 0
M  V30 7286 H 706.231 -3.10605 -0.305141 0
M  V30 7287 N 706.532 -0.168513 -1.56696 0
M  V30 7288 C 707.442 0.775435 -2.21414 0
M  V30 7289 C 708.458 1.25529 -1.20492 0
M  V30 7290 O 709.634 1.30801 -1.53144 0
M  V30 7291 C 706.699 1.9886 -2.83999 0
M  V30 7292 C 705.76 1.5559 -4.00113 0
M  V30 7293 C 704.993 2.71124 -4.59704 0
M  V30 7294 O 705.216 3.87917 -4.18182 0
M  V30 7295 O 704.15 2.4536 -5.4962 0
M  V30 7296 H 707.976 0.254416 -3.02632 0
M  V30 7297 H 705.561 0.0595507 -1.49281 0
M  V30 7298 H 707.443 2.69816 -3.23693 0
M  V30 7299 H 706.118 2.49874 -2.05779 0
M  V30 7300 H 705.025 0.815924 -3.65094 0
M  V30 7301 H 706.358 1.09271 -4.79917 0
M  V30 7302 N 708.01 1.57248 0.105221 0
M  V30 7303 C 709.258 1.85204 0.808951 0
M  V30 7304 C 709.579 0.75574 1.7976 0
M  V30 7305 O 708.849 -0.218984 1.94672 0
M  V30 7306 H 707.429 0.683346 0.301739 0
M  V30 7307 H 710.091 1.94695 0.0892605 0
M  V30 7308 H 709.187 2.81595 1.34575 0
M  V30 7309 N 709.488 -0.375779 1.53054 0
M  V30 7310 C 710.734 -1.12114 1.68992 0
M  V30 7311 C 711.067 -1.8926 0.435238 0
M  V30 7312 O 710.342 -1.86044 -0.567278 0
M  V30 7313 C 710.625 -2.08867 2.93337 0
M  V30 7314 C 710.478 -1.35397 4.28938 0
M  V30 7315 C 711.797 -3.09124 3.13257 0
M  V30 7316 H 708.916 -0.406207 0.614951 0
M  V30 7317 H 711.558 -0.403054 1.85676 0
M  V30 7318 H 709.708 -2.70102 2.79244 0
M  V30 7319 H 711.38 -0.770242 4.54824 0
M  V30 7320 H 709.623 -0.655801 4.28814 0
M  V30 7321 H 710.294 -2.06161 5.12056 0
M  V30 7322 H 712.77 -2.57987 3.26469 0
M  V30 7323 H 711.646 -3.74054 4.01715 0
M  V30 7324 H 711.907 -3.78729 2.28072 0
M  V30 7325 N 710.966 -1.44241 -0.634997 0
M  V30 7326 C 712.214 -1.46531 -1.39187 0
M  V30 7327 C 712.535 -0.0976441 -1.94755 0
M  V30 7328 O 711.805 0.869528 -1.75545 0
M  V30 7329 H 710.385 -0.539544 -0.516625 0
M  V30 7330 H 713.047 -1.79989 -0.747655 0
M  V30 7331 H 712.143 -2.18848 -2.22513 0
M  V30 7332 N 712.444 0.87505 -1.31075 0
M  V30 7333 C 713.376 1.98773 -1.14114 0
M  V30 7334 C 714.389 1.62595 -0.0816119 0
M  V30 7335 O 715.578 1.75449 -0.32861 0
M  V30 7336 C 712.678 3.31159 -0.720224 0
M  V30 7337 C 711.851 3.9571 -1.86366 0
M  V30 7338 C 710.91 5.06407 -1.42965 0
M  V30 7339 O 709.936 5.27501 -2.13848 0
M  V30 7340 N 711.138 5.79649 -0.314194 0
M  V30 7341 H 713.903 2.1387 -2.09951 0
M  V30 7342 H 711.464 1.04873 -1.23342 0
M  V30 7343 H 713.456 4.0259 -0.412687 0
M  V30 7344 H 712.026 3.12257 0.146396 0
M  V30 7345 H 711.246 3.17324 -2.33879 0
M  V30 7346 H 712.534 4.35576 -2.62966 0
M  V30 7347 H 711.932 5.65025 0.276228 0
M  V30 7348 H 710.489 6.51766 -0.0661641 0
M  V30 7349 N 713.922 1.13953 1.08869 0
M  V30 7350 C 715.168 0.906151 1.8143 0
M  V30 7351 C 715.501 -0.566089 1.85766 0
M  V30 7352 O 714.776 -1.41915 1.33006 0
M  V30 7353 C 715.059 1.50183 3.27287 0
M  V30 7354 C 714.912 3.04359 3.31189 0
M  V30 7355 C 716.231 1.17477 4.24131 0
M  V30 7356 H 713.35 0.330624 0.658678 0
M  V30 7357 H 715.992 1.40873 1.27495 0
M  V30 7358 H 714.142 1.07442 3.73348 0
M  V30 7359 H 715.814 3.55896 2.93488 0
M  V30 7360 H 714.057 3.39053 2.70602 0
M  V30 7361 H 714.728 3.41141 4.33966 0
M  V30 7362 H 717.204 1.5442 3.86385 0
M  V30 7363 H 716.08 1.61795 5.24513 0
M  V30 7364 H 716.341 0.0893312 4.4201 0
M  V30 7365 N 715.4 -1.26948 0.933913 0
M  V30 7366 C 716.348 -2.2862 0.428463 0
M  V30 7367 C 717.342 -1.62144 -0.490464 0
M  V30 7368 O 718.548 -1.76167 -0.36948 0
M  V30 7369 H 714.923 -0.742363 0.120003 0
M  V30 7370 H 716.894 -2.68659 1.29865 0
M  V30 7371 C 715.643 -3.46423 -0.29774 0
M  V30 7372 H 714.966 -3.97792 0.400183 0
M  V30 7373 H 716.406 -4.19505 -0.615736 0
M  V30 7374 C 714.865 -3.01017 -1.51295 0
M  V30 7375 O 715.395 -3.05226 -2.61151 0
M  V30 7376 N 713.601 -2.56442 -1.36696 0
M  V30 7377 H 713.148 -2.53217 -0.473178 0
M  V30 7378 H 713.106 -2.26424 -2.18127 0
M  V30 7379 N 716.879 -0.700114 -1.41195 0
M  V30 7380 C 718.128 -0.230082 -2.00383 0
M  V30 7381 C 718.441 1.17857 -1.56106 0
M  V30 7382 O 719.647 1.74631 -2.07885 0
M  V30 7383 C 718.103 -0.360447 -3.5809 0
M  V30 7384 C 717.711 -1.77475 -4.11347 0
M  V30 7385 C 719.455 0.0495799 -4.24471 0
M  V30 7386 C 717.362 -1.85653 -5.61504 0
M  V30 7387 H 716.292 -0.0822633 -0.749499 0
M  V30 7388 H 718.943 -0.868969 -1.6162 0
M  V30 7389 H 717.325 0.346768 -3.94479 0
M  V30 7390 H 718.499 -2.51109 -3.86369 0
M  V30 7391 H 716.814 -2.13486 -3.57509 0
M  V30 7392 H 719.411 0.00898219 -5.34699 0
M  V30 7393 H 719.754 1.08904 -4.01803 0
M  V30 7394 H 720.287 -0.607521 -3.93134 0
M  V30 7395 H 717.026 -2.87667 -5.89006 0
M  V30 7396 H 716.546 -1.1641 -5.88395 0
M  V30 7397 H 718.225 -1.62151 -6.26351 0
M  V30 7398 N 718.357 1.51182 -0.445186 0
M  V30 7399 C 719.582 2.07056 0.119445 0
M  V30 7400 C 720.007 1.30966 1.35016 0
M  V30 7401 O 719.365 0.349827 1.77893 0
M  V30 7402 C 719.413 3.58234 0.412428 0
M  V30 7403 O 718.517 3.84249 1.49754 0
M  V30 7404 H 717.858 0.663998 -0.00157797 0
M  V30 7405 H 720.388 1.94699 -0.628779 0
M  V30 7406 H 720.398 4.02617 0.660583 0
M  V30 7407 H 719.073 4.13038 -0.487049 0
M  V30 7408 H 717.65 3.51724 1.23873 0
M  V30 7409 N 719.835 0.176821 1.56605 0
M  V30 7410 C 721.081 -0.467406 1.9734 0
M  V30 7411 C 721.414 -1.62523 1.06301 0
M  V30 7412 O 720.689 -1.94182 0.11125 0
M  V30 7413 C 720.972 -0.945106 3.47476 0
M  V30 7414 C 720.825 0.213273 4.49294 0
M  V30 7415 C 722.144 -1.8169 4.00845 0
M  V30 7416 H 719.263 -0.168426 0.717497 0
M  V30 7417 H 721.905 0.264065 1.88156 0
M  V30 7418 H 720.055 -1.56841 3.55434 0
M  V30 7419 H 721.727 0.850508 4.53392 0
M  V30 7420 H 719.97 0.867918 4.25029 0
M  V30 7421 H 720.641 -0.163187 5.51759 0
M  V30 7422 H 723.117 -1.29139 3.95553 0
M  V30 7423 H 721.993 -2.12015 5.06301 0
M  V30 7424 H 722.254 -2.76463 3.44994 0
M  V30 7425 N 721.313 -1.57302 -0.09688 0
M  V30 7426 C 722.559 -1.86273 -0.801885 0
M  V30 7427 C 722.892 -0.765694 -1.78468 0
M  V30 7428 O 722.167 0.226495 -1.93177 0
M  V30 7429 C 722.45 -3.25876 -1.53221 0
M  V30 7430 C 722.303 -4.46205 -0.567529 0
M  V30 7431 C 723.622 -3.63352 -2.48321 0
M  V30 7432 H 720.741 -0.67752 -0.29006 0
M  V30 7433 H 723.383 -1.89887 -0.0655577 0
M  V30 7434 H 721.533 -3.22926 -2.15988 0
M  V30 7435 H 723.205 -4.6127 0.0529982 0
M  V30 7436 H 721.448 -4.33636 0.119233 0
M  V30 7437 H 722.119 -5.40608 -1.11564 0
M  V30 7438 H 724.595 -3.67234 -1.95648 0
M  V30 7439 H 723.471 -4.61968 -2.9644 0
M  V30 7440 H 723.732 -2.91941 -3.31998 0
M  V30 7441 N 722.791 0.367657 -1.53252 0
M  V30 7442 C 723.723 1.47032 -1.75824 0
M  V30 7443 C 724.736 1.49736 -0.63898 0
M  V30 7444 O 725.925 1.53253 -0.915193 0
M  V30 7445 C 723.025 2.85805 -1.82122 0
M  V30 7446 C 722.198 3.06822 -3.11736 0
M  V30 7447 C 721.257 4.25698 -3.09302 0
M  V30 7448 O 720.283 4.20972 -3.83107 0
M  V30 7449 N 721.485 5.33002 -2.29977 0
M  V30 7450 H 724.25 1.28048 -2.70968 0
M  V30 7451 H 721.811 0.557363 -1.52004 0
M  V30 7452 H 723.803 3.63465 -1.77975 0
M  V30 7453 H 722.373 2.98046 -0.942716 0
M  V30 7454 H 721.593 2.1684 -3.29202 0
M  V30 7455 H 722.881 3.17731 -3.97397 0
M  V30 7456 H 722.279 5.39703 -1.69521 0
M  V30 7457 H 720.836 6.09247 -2.3165 0
M  V30 7458 N 724.269 1.44576 0.627338 0
M  V30 7459 C 725.494 1.51271 1.41887 0
M  V30 7460 C 725.919 0.139814 1.8758 0
M  V30 7461 O 725.277 -0.871746 1.58966 0
M  V30 7462 C 725.325 2.48529 2.61277 0
M  V30 7463 O 724.429 1.98944 3.61241 0
M  V30 7464 H 723.77 0.510668 0.424399 0
M  V30 7465 H 726.3 1.89746 0.765356 0
M  V30 7466 H 726.31 2.66689 3.08773 0
M  V30 7467 H 724.985 3.48249 2.27366 0
M  V30 7468 H 723.562 1.90568 3.20528 0
M  V30 7469 N 725.747 -0.868086 1.31537 0
M  V30 7470 C 726.975 -1.65402 1.24298 0
M  V30 7471 C 727.39 -1.87827 -0.191389 0
M  V30 7472 O 726.747 -1.43776 -1.12404 0
M  V30 7473 C 726.798 -3.02093 1.9855 0
M  V30 7474 O 726.519 -2.80668 3.36388 0
M  V30 7475 C 728.02 -3.96538 1.98173 0
M  V30 7476 H 725.24 -0.515598 0.429417 0
M  V30 7477 H 727.784 -1.0834 1.73444 0
M  V30 7478 H 725.939 -3.55838 1.53161 0
M  V30 7479 H 726.353 -3.67504 3.74221 0
M  V30 7480 H 727.827 -4.8976 2.54635 0
M  V30 7481 H 728.304 -4.28474 0.964697 0
M  V30 7482 H 728.91 -3.48729 2.4345 0
M  V30 7483 N 727.225 -1.14528 -1.08264 0
M  V30 7484 C 728.471 -0.91576 -1.80947 0
M  V30 7485 C 728.804 0.55623 -1.86064 0
M  V30 7486 O 728.079 1.41207 -1.33756 0
M  V30 7487 C 728.362 -1.51917 -3.26486 0
M  V30 7488 C 728.215 -3.06111 -3.2957 0
M  V30 7489 C 729.534 -1.19724 -4.23502 0
M  V30 7490 H 726.653 -0.334113 -0.656915 0
M  V30 7491 H 729.295 -1.41547 -1.26746 0
M  V30 7492 H 727.445 -1.0942 -3.72773 0
M  V30 7493 H 729.117 -3.57448 -2.91597 0
M  V30 7494 H 727.36 -3.40483 -2.688 0
M  V30 7495 H 728.031 -3.43438 -4.32151 0
M  V30 7496 H 730.507 -1.56467 -3.85561 0
M  V30 7497 H 729.383 -1.64575 -5.23647 0
M  V30 7498 H 729.644 -0.112771 -4.41956 0
M  V30 7499 N 728.703 1.26451 -0.940633 0
M  V30 7500 C 729.928 1.98407 -0.60412 0
M  V30 7501 C 730.353 1.69584 0.81382 0
M  V30 7502 O 729.711 0.943553 1.54812 0
M  V30 7503 C 729.759 3.50387 -0.852136 0
M  V30 7504 O 728.863 4.1233 0.076013 0
M  V30 7505 H 728.204 0.622466 -0.231153 0
M  V30 7506 H 730.734 1.60932 -1.26342 0
M  V30 7507 H 730.744 4.00614 -0.772816 0
M  V30 7508 H 729.419 3.70696 -1.88566 0
M  V30 7509 H 727.996 3.7286 -0.0543187 0
M  V30 7510 N 730.181 0.707592 1.40822 0
M  V30 7511 C 731.406 0.251626 2.05868 0
M  V30 7512 C 731.831 -1.09503 1.5294 0
M  V30 7513 O 731.189 -1.68806 0.661385 0
M  V30 7514 C 731.237 0.23287 3.59847 0
M  V30 7515 O 730.341 -0.788477 4.04792 0
M  V30 7516 H 729.682 0.119936 0.653078 0
M  V30 7517 H 732.212 0.96583 1.80369 0
M  V30 7518 H 732.222 0.0678204 4.07944 0
M  V30 7519 H 730.897 1.21565 3.97737 0
M  V30 7520 H 729.474 -0.591802 3.68174 0
M  V30 7521 N 731.66 -1.50943 0.453197 0
M  V30 7522 C 732.908 -2.01813 -0.107709 0
M  V30 7523 C 733.229 -1.33841 -1.41816 0
M  V30 7524 O 732.499 -0.477973 -1.8998 0
M  V30 7525 H 731.079 -0.745773 -0.0427948 0
M  V30 7526 H 733.741 -1.8545 0.599531 0
M  V30 7527 H 732.837 -3.10911 -0.27218 0
M  V30 7528 N 733.138 -0.185124 -1.56509 0
M  V30 7529 C 734.368 0.461469 -2.0138 0
M  V30 7530 C 734.776 1.56417 -1.06445 0
M  V30 7531 O 734.119 1.83603 -0.0597515 0
M  V30 7532 C 734.181 1.08731 -3.42663 0
M  V30 7533 C 733.845 0.124581 -4.5683 0
M  V30 7534 C 734.842 -0.662295 -5.15664 0
M  V30 7535 C 732.527 0.0163947 -5.02297 0
M  V30 7536 C 734.521 -1.54442 -6.18406 0
M  V30 7537 C 732.208 -0.869301 -6.04885 0
M  V30 7538 C 733.206 -1.64828 -6.62813 0
M  V30 7539 O 732.894 -2.51915 -7.63409 0
M  V30 7540 H 732.626 0.1212 -0.665046 0
M  V30 7541 H 735.18 -0.288119 -2.03369 0
M  V30 7542 H 733.41 1.8853 -3.37629 0
M  V30 7543 H 735.099 1.63753 -3.71403 0
M  V30 7544 H 735.865 -0.588963 -4.81411 0
M  V30 7545 H 731.744 0.61253 -4.56913 0
M  V30 7546 H 735.288 -2.15289 -6.63548 0
M  V30 7547 H 731.185 -0.943786 -6.38563 0
M  V30 7548 H 731.953 -2.45584 -7.80789 0
M  V30 7549 N 734.616 1.57351 0.0885366 0
M  V30 7550 C 735.864 1.86051 0.789262 0
M  V30 7551 C 736.185 0.774763 1.78948 0
M  V30 7552 O 735.455 -0.198324 1.94894 0
M  V30 7553 H 734.035 0.686508 0.294475 0
M  V30 7554 H 736.697 1.94779 0.0686055 0
M  V30 7555 H 735.793 2.83007 1.31581 0
M  V30 7556 N 736.094 -0.359525 1.53444 0
M  V30 7557 C 737.342 -1.09935 1.69584 0
M  V30 7558 C 737.663 -1.89656 0.453371 0
M  V30 7559 O 736.933 -1.8852 -0.53263 0
M  V30 7560 H 735.513 -0.408843 0.625185 0
M  V30 7561 H 738.175 -0.40467 1.90653 0
M  V30 7562 H 737.271 -1.78575 2.55964 0
M  V30 7563 N 737.572 -1.44907 -0.619662 0
M  V30 7564 C 738.535 -1.52282 -1.71297 0
M  V30 7565 C 739.535 -0.40359 -1.55653 0
M  V30 7566 O 740.725 -0.666638 -1.6094 0
M  V30 7567 C 737.857 -1.40778 -3.10474 0
M  V30 7568 H 739.05 -2.49683 -1.66128 0
M  V30 7569 H 736.603 -1.32168 -0.834339 0
M  V30 7570 H 737.338 -0.445156 -3.2123 0
M  V30 7571 H 737.123 -2.21947 -3.23237 0
M  V30 7572 H 738.613 -1.48946 -3.90135 0
M  V30 7573 N 739.05 0.861098 -1.31996 0
M  V30 7574 C 740.275 1.65264 -1.2531 0
M  V30 7575 C 740.7 1.87265 0.177007 0
M  V30 7576 O 740.058 1.4208 1.12619 0
M  V30 7577 C 740.106 2.99284 -2.0115 0
M  V30 7578 O 739.21 3.89508 -1.3549 0
M  V30 7579 H 738.551 0.50409 -0.432192 0
M  V30 7580 H 741.081 1.07297 -1.74208 0
M  V30 7581 H 741.091 3.49154 -2.11081 0
M  V30 7582 H 739.766 2.82591 -3.05148 0
M  V30 7583 H 738.343 3.47966 -1.34066 0
M  V30 7584 N 740.528 1.15101 1.07655 0
M  V30 7585 C 741.776 0.922149 1.79836 0
M  V30 7586 C 742.097 -0.552346 1.87014 0
M  V30 7587 O 741.367 -1.40145 1.3688 0
M  V30 7588 H 739.947 0.338182 0.666064 0
M  V30 7589 H 742.609 1.45107 1.30115 0
M  V30 7590 H 741.705 1.32883 2.82398 0
M  V30 7591 N 742.006 -1.2595 0.947325 0
M  V30 7592 C 743.252 -1.9375 0.599064 0
M  V30 7593 C 743.585 -1.74088 -0.860632 0
M  V30 7594 O 742.86 -1.08158 -1.61654 0
M  V30 7595 C 743.143 -3.47353 0.949634 0
M  V30 7596 C 742.996 -3.76273 2.46452 0
M  V30 7597 C 744.315 -4.37589 0.469442 0
M  V30 7598 H 741.434 -0.703674 0.219115 0
M  V30 7599 H 744.076 -1.48705 1.18266 0
M  V30 7600 H 742.226 -3.8585 0.453008 0
M  V30 7601 H 743.898 -3.47455 3.03435 0
M  V30 7602 H 742.141 -3.22135 2.90537 0
M  V30 7603 H 742.812 -4.83664 2.66032 0
M  V30 7604 H 745.288 -4.06353 0.89534 0
M  V30 7605 H 744.164 -5.43841 0.7435 0
M  V30 7606 H 744.425 -4.37579 -0.630618 0
M  V30 7607 N 743.484 -0.715051 -1.40445 0
M  V30 7608 C 744.732 -0.253826 -2.005 0
M  V30 7609 C 745.053 1.15681 -1.5698 0
M  V30 7610 O 744.323 1.78414 -0.809027 0
M  V30 7611 H 742.903 -0.0908537 -0.741454 0
M  V30 7612 H 745.565 -0.920561 -1.7179 0
M  V30 7613 H 744.661 -0.286499 -3.10782 0
M  V30 7614 N 744.962 1.50701 -0.461195 0
M  V30 7615 C 746.187 2.07171 0.0974773 0
M  V30 7616 C 746.612 1.32391 1.3362 0
M  V30 7617 O 745.97 0.368676 1.77512 0
M  V30 7618 C 746.018 3.58651 0.374409 0
M  V30 7619 O 745.122 3.85816 1.4567 0
M  V30 7620 H 744.463 0.663944 -0.00862047 0
M  V30 7621 H 746.993 1.94021 -0.649394 0
M  V30 7622 H 747.003 4.03295 0.617843 0
M  V30 7623 H 745.678 4.12498 -0.530829 0
M  V30 7624 H 744.255 3.53018 1.20136 0
M  V30 7625 N 746.441 0.193421 1.56409 0
M  V30 7626 C 747.689 -0.444908 1.97142 0
M  V30 7627 C 748.01 -1.62268 1.08139 0
M  V30 7628 O 747.28 -1.95307 0.152326 0
M  V30 7629 H 745.86 -0.16736 0.728011 0
M  V30 7630 H 748.522 0.279763 1.92882 0
M  V30 7631 H 747.618 -0.790159 3.01932 0
M  V30 7632 N 747.919 -1.57396 -0.0801906 0
M  V30 7633 C 748.849 -2.06145 -1.09665 0
M  V30 7634 C 749.83 -0.953273 -1.40878 0
M  V30 7635 O 751.015 -1.22548 -1.50651 0
M  V30 7636 C 748.145 -2.49836 -2.41245 0
M  V30 7637 C 747.099 -3.64454 -2.24405 0
M  V30 7638 C 746.425 -3.94172 -3.61293 0
M  V30 7639 C 747.725 -4.94807 -1.67223 0
M  V30 7640 H 749.419 -2.91316 -0.691028 0
M  V30 7641 H 746.965 -1.40145 -0.330957 0
M  V30 7642 H 748.918 -2.82552 -3.12638 0
M  V30 7643 H 747.642 -1.61683 -2.83771 0
M  V30 7644 H 746.301 -3.32008 -1.55454 0
M  V30 7645 H 745.949 -3.03163 -4.01374 0
M  V30 7646 H 745.649 -4.71345 -3.50867 0
M  V30 7647 H 747.173 -4.29376 -4.3413 0
M  V30 7648 H 748.587 -5.25807 -2.28472 0
M  V30 7649 H 746.984 -5.76245 -1.67515 0
M  V30 7650 H 748.054 -4.80751 -0.632944 0
M  V30 7651 N 749.397 0.351382 -1.53633 0
M  V30 7652 C 750.645 1.09034 -1.70165 0
M  V30 7653 C 750.966 1.89413 -0.463422 0
M  V30 7654 O 750.236 1.888 0.522624 0
M  V30 7655 H 748.816 0.405522 -0.627344 0
M  V30 7656 H 751.478 0.394554 -1.90865 0
M  V30 7657 H 750.574 1.77215 -2.56907 0
M  V30 7658 N 750.875 1.45233 0.611969 0
M  V30 7659 C 751.805 1.5641 1.73373 0
M  V30 7660 C 752.786 0.415896 1.64937 0
M  V30 7661 O 753.971 0.638478 1.83404 0
M  V30 7662 C 751.101 1.52627 3.11965 0
M  V30 7663 C 750.055 2.66119 3.35208 0
M  V30 7664 C 749.381 2.4739 4.74028 0
M  V30 7665 C 750.681 4.08157 3.25891 0
M  V30 7666 H 752.375 2.50307 1.64277 0
M  V30 7667 H 749.921 1.20467 0.788904 0
M  V30 7668 H 751.874 1.59043 3.90235 0
M  V30 7669 H 750.598 0.552564 3.21892 0
M  V30 7670 H 749.257 2.59123 2.59327 0
M  V30 7671 H 748.905 1.48168 4.80682 0
M  V30 7672 H 748.605 3.23494 4.90536 0
M  V30 7673 H 750.129 2.55653 5.54503 0
M  V30 7674 H 751.543 4.1642 3.9404 0
M  V30 7675 H 749.94 4.84617 3.5393 0
M  V30 7676 H 751.01 4.30374 2.23397 0
M  V30 7677 N 752.353 -0.854086 1.3245 0
M  V30 7678 C 753.601 -1.60513 1.228 0
M  V30 7679 C 753.922 -1.93865 -0.210073 0
M  V30 7680 O 753.192 -1.59673 -1.13496 0
M  V30 7681 H 751.772 -0.595099 0.451516 0
M  V30 7682 H 754.434 -1.0216 1.6598 0
M  V30 7683 H 753.53 -2.54182 1.81102 0
M  V30 7684 N 753.831 -1.1567 -1.07043 0
M  V30 7685 C 755.079 -0.931673 -1.79344 0
M  V30 7686 C 755.4 0.542421 -1.87304 0
M  V30 7687 O 754.67 1.39418 -1.37621 0
M  V30 7688 H 753.25 -0.34171 -0.664262 0
M  V30 7689 H 755.912 -1.45795 -1.29344 0
M  V30 7690 H 755.008 -1.34379 -2.81689 0
M  V30 7691 N 755.309 1.25446 -0.953992 0
M  V30 7692 C 756.557 1.92762 -0.607227 0
M  V30 7693 C 756.878 1.7509 0.858399 0
M  V30 7694 O 756.148 1.11416 1.61132 0
M  V30 7695 H 754.728 0.713377 -0.221591 0
M  V30 7696 H 757.39 1.52625 -1.21209 0
M  V30 7697 H 756.486 3.00695 -0.835998 0
M  V30 7698 N 756.787 0.722489 1.40064 0
M  V30 7699 C 758.012 0.273446 2.05589 0
M  V30 7700 C 758.437 -1.07875 1.54093 0
M  V30 7701 O 757.795 -1.68095 0.679252 0
M  V30 7702 C 757.843 0.271023 3.5958 0
M  V30 7703 O 756.947 -0.745499 4.05606 0
M  V30 7704 H 756.288 0.126856 0.65177 0
M  V30 7705 H 758.818 0.984906 1.79334 0
M  V30 7706 H 758.828 0.111084 4.07849 0
M  V30 7707 H 757.503 1.25776 3.96425 0
M  V30 7708 H 756.08 -0.552719 3.68781 0
M  V30 7709 N 758.265 -1.50454 0.469181 0
M  V30 7710 C 759.49 -2.0722 -0.0864892 0
M  V30 7711 C 759.915 -1.33098 -1.32916 0
M  V30 7712 O 759.273 -0.378084 -1.77314 0
M  V30 7713 C 759.321 -3.58845 -0.355384 0
M  V30 7714 O 758.425 -3.86583 -1.43622 0
M  V30 7715 H 757.766 -0.663889 0.0121414 0
M  V30 7716 H 760.296 -1.93674 0.659674 0
M  V30 7717 H 760.306 -4.03617 -0.596447 0
M  V30 7718 H 758.981 -4.12211 0.552698 0
M  V30 7719 H 757.558 -3.5365 -1.18262 0
M  V30 7720 N 759.743 -0.201713 -1.56304 0
M  V30 7721 C 760.973 0.440084 -2.01858 0
M  V30 7722 C 761.381 1.55279 -1.08098 0
M  V30 7723 O 760.724 1.83529 -0.0792216 0
M  V30 7724 C 760.786 1.05091 -3.43797 0
M  V30 7725 C 760.45 0.0761208 -4.56937 0
M  V30 7726 C 761.447 -0.716951 -5.14933 0
M  V30 7727 C 759.132 -0.0368815 -5.02286 0
M  V30 7728 C 761.126 -1.60993 -6.16733 0
M  V30 7729 C 758.813 -0.933409 -6.03929 0
M  V30 7730 C 759.811 -1.71849 -6.61027 0
M  V30 7731 O 759.499 -2.59998 -7.60695 0
M  V30 7732 H 759.231 0.114139 -0.666294 0
M  V30 7733 H 761.785 -0.309672 -2.03052 0
M  V30 7734 H 760.015 1.84938 -3.3961 0
M  V30 7735 H 761.704 1.59804 -3.73118 0
M  V30 7736 H 762.47 -0.63999 -4.80759 0
M  V30 7737 H 758.349 0.564034 -4.57537 0
M  V30 7738 H 761.893 -2.22315 -6.61227 0
M  V30 7739 H 757.79 -1.01146 -6.37526 0
M  V30 7740 H 758.558 -2.53851 -7.7814 0
M  V30 7741 N 761.222 1.57436 0.0718424 0
M  V30 7742 C 762.447 1.91858 0.787745 0
M  V30 7743 C 762.872 0.798119 1.70328 0
M  V30 7744 O 762.23 -0.24905 1.79581 0
M  V30 7745 C 762.278 3.25232 1.55744 0
M  V30 7746 O 761.382 3.14462 2.6681 0
M  V30 7747 H 760.723 0.628258 0.214914 0
M  V30 7748 H 763.253 2.04561 0.0401012 0
M  V30 7749 H 763.263 3.59105 1.9367 0
M  V30 7750 H 761.938 4.0636 0.885691 0
M  V30 7751 H 760.515 2.92148 2.31741 0
M  V30 7752 N 762.7 -0.34323 1.53817 0
M  V30 7753 C 763.93 -1.10188 1.74763 0
M  V30 7754 C 764.338 -1.82829 0.486856 0
M  V30 7755 O 763.681 -1.75236 -0.551198 0
M  V30 7756 C 763.743 -2.16 2.87375 0
M  V30 7757 C 763.407 -1.62931 4.26969 0
M  V30 7758 C 764.404 -1.08147 5.08528 0
M  V30 7759 C 762.089 -1.67769 4.73454 0
M  V30 7760 C 764.083 -0.589039 6.34672 0
M  V30 7761 C 761.77 -1.18138 5.99572 0
M  V30 7762 C 762.768 -0.637979 6.80014 0
M  V30 7763 O 762.456 -0.149073 8.03762 0
M  V30 7764 H 762.188 -0.33445 0.587469 0
M  V30 7765 H 764.742 -0.401109 2.01445 0
M  V30 7766 H 762.972 -2.89637 2.56218 0
M  V30 7767 H 764.661 -2.77432 2.96287 0
M  V30 7768 H 765.427 -1.03732 4.73777 0
M  V30 7769 H 761.306 -2.09004 4.10899 0
M  V30 7770 H 764.85 -0.164233 6.97407 0
M  V30 7771 H 760.747 -1.22254 6.33817 0
M  V30 7772 H 761.515 -0.266332 8.18067 0
M  V30 7773 N 764.178 -1.45556 -0.604258 0
M  V30 7774 C 765.426 -1.4945 -1.36048 0
M  V30 7775 C 765.747 -0.138933 -1.94504 0
M  V30 7776 O 765.017 0.832097 -1.7735 0
M  V30 7777 H 763.597 -0.550381 -0.505064 0
M  V30 7778 H 766.259 -1.81535 -0.709308 0
M  V30 7779 H 765.355 -2.23519 -2.17821 0
M  V30 7780 N 765.656 0.84705 -1.32902 0
M  V30 7781 C 766.881 1.63925 -1.27056 0
M  V30 7782 C 767.306 1.87443 0.157136 0
M  V30 7783 O 766.664 1.43266 1.11106 0
M  V30 7784 C 766.712 2.97134 -2.04313 0
M  V30 7785 O 765.816 3.88049 -1.39614 0
M  V30 7786 H 765.157 0.499477 -0.437514 0
M  V30 7787 H 767.687 1.05443 -1.75336 0
M  V30 7788 H 767.697 3.46896 -2.14772 0
M  V30 7789 H 766.372 2.79339 -3.08128 0
M  V30 7790 H 764.949 3.46525 -1.3775 0
M  V30 7791 N 767.134 1.16236 1.06428 0
M  V30 7792 C 768.382 0.941171 1.78847 0
M  V30 7793 C 768.703 -0.53248 1.87589 0
M  V30 7794 O 767.973 -1.38686 1.38358 0
M  V30 7795 H 766.553 0.345228 0.66244 0
M  V30 7796 H 769.215 1.46479 1.28569 0
M  V30 7797 H 768.311 1.35871 2.80972 0
M  V30 7798 N 768.612 -1.24939 0.960631 0
M  V30 7799 C 769.542 -2.28 0.503815 0
M  V30 7800 C 770.523 -1.63959 -0.452928 0
M  V30 7801 O 771.708 -1.91009 -0.350585 0
M  V30 7802 C 768.838 -3.46643 -0.213535 0
M  V30 7803 C 767.792 -4.22903 0.658535 0
M  V30 7804 C 767.118 -5.34363 -0.189902 0
M  V30 7805 C 768.418 -4.84949 1.93963 0
M  V30 7806 H 770.112 -2.66462 1.36521 0
M  V30 7807 H 767.658 -1.28093 0.657897 0
M  V30 7808 H 769.611 -4.1787 -0.544286 0
M  V30 7809 H 768.335 -3.07187 -1.10923 0
M  V30 7810 H 766.994 -3.53467 0.972455 0
M  V30 7811 H 766.642 -4.91147 -1.08553 0
M  V30 7812 H 766.342 -5.86302 0.390331 0
M  V30 7813 H 767.866 -6.0842 -0.515484 0
M  V30 7814 H 769.28 -5.48288 1.67491 0
M  V30 7815 H 767.677 -5.47091 2.46601 0
M  V30 7816 H 768.747 -4.06799 2.639 0
M  V30 7817 N 770.09 -0.729906 -1.39679 0
M  V30 7818 C 771.338 -0.275077 -2.00219 0
M  V30 7819 C 771.659 1.1401 -1.58199 0
M  V30 7820 O 770.929 1.77546 -0.827904 0
M  V30 7821 H 769.509 -0.0987127 -0.740449 0
M  V30 7822 H 772.171 -0.93873 -1.70804 0
M  V30 7823 H 771.267 -0.319446 -3.10461 0
M  V30 7824 N 771.568 1.50203 -0.477153 0
M  V30 7825 C 772.814 2.02658 0.0758507 0
M  V30 7826 C 773.147 1.358 1.38824 0
M  V30 7827 O 772.422 0.485696 1.88338 0
M  V30 7828 C 772.705 3.59208 0.253339 0
M  V30 7829 C 772.558 4.36629 -1.0805 0
M  V30 7830 C 773.877 4.28469 1.00509 0
M  V30 7831 H 770.996 0.736538 0.0260921 0
M  V30 7832 H 773.638 1.79464 -0.623925 0
M  V30 7833 H 771.788 3.79101 0.849378 0
M  V30 7834 H 773.46 4.28292 -1.71358 0
M  V30 7835 H 771.703 4.0013 -1.67566 0
M  V30 7836 H 772.374 5.44449 -0.909883 0
M  V30 7837 H 774.85 4.13087 0.499818 0
M  V30 7838 H 773.726 5.37804 1.09808 0
M  V30 7839 H 773.987 3.92057 2.04314 0
M  V30 7840 N 773.046 0.209999 1.56195 0
M  V30 7841 C 774.294 -0.423974 1.97603 0
M  V30 7842 C 774.615 -1.61112 1.09854 0
M  V30 7843 O 773.885 -1.95134 0.173032 0
M  V30 7844 H 772.465 -0.159629 0.729745 0
M  V30 7845 H 775.127 0.300205 1.92574 0
M  V30 7846 H 774.223 -0.75809 3.02753 0
M  V30 7847 N 774.524 -1.57472 -0.0634922 0
M  V30 7848 C 775.772 -1.87283 -0.759563 0
M  V30 7849 C 776.093 -0.803135 -1.77693 0
M  V30 7850 O 775.363 0.167293 -1.95184 0
M  V30 7851 H 773.943 -0.691106 -0.283516 0
M  V30 7852 H 776.605 -1.94864 -0.0376091 0
M  V30 7853 H 775.701 -2.85064 -1.27062 0
M  V30 7854 N 776.003 0.335068 -1.53997 0
M  V30 7855 C 777.251 1.07223 -1.71312 0
M  V30 7856 C 777.572 1.88911 -0.483486 0
M  V30 7857 O 776.842 1.89344 0.50257 0
M  V30 7858 H 775.422 0.398846 -0.63161 0
M  V30 7859 H 778.084 0.374288 -1.91272 0
M  V30 7860 H 777.18 1.7448 -2.58772 0
M  V30 7861 N 777.481 1.45874 0.596531 0
M  V30 7862 C 778.728 1.50467 1.35521 0
M  V30 7863 C 779.056 0.150802 1.93915 0
M  V30 7864 O 778.311 -0.851913 1.76184 0
M  V30 7865 C 778.61 2.54034 2.51399 0
M  V30 7866 C 778.276 3.9844 2.11085 0
M  V30 7867 C 776.938 4.37758 1.99804 0
M  V30 7868 C 779.29 4.89209 1.79788 0
M  V30 7869 C 776.618 5.65727 1.55465 0
M  V30 7870 C 778.97 6.17602 1.36931 0
M  V30 7871 C 777.634 6.5584 1.24218 0
M  V30 7872 H 776.904 0.550597 0.495907 0
M  V30 7873 H 779.551 1.79279 0.673145 0
M  V30 7874 H 777.856 2.18832 3.24992 0
M  V30 7875 H 779.553 2.54822 3.09624 0
M  V30 7876 H 776.143 3.67353 2.20794 0
M  V30 7877 H 780.327 4.59562 1.87395 0
M  V30 7878 H 775.583 5.94139 1.44253 0
M  V30 7879 H 779.757 6.87373 1.11764 0
M  V30 7880 H 777.384 7.54897 0.896353 0
M  V30 7881 N 778.959 -0.83999 1.33349 0
M  V30 7882 C 780.184 -1.63249 1.27924 0
M  V30 7883 C 780.609 -1.87523 -0.147193 0
M  V30 7884 O 779.967 -1.43853 -1.10345 0
M  V30 7885 C 780.015 -2.96046 2.05886 0
M  V30 7886 O 779.119 -3.87303 1.4167 0
M  V30 7887 H 778.46 -0.49715 0.440157 0
M  V30 7888 H 780.99 -1.04512 1.75893 0
M  V30 7889 H 781 -3.45752 2.16609 0
M  V30 7890 H 779.675 -2.77701 3.09605 0
M  V30 7891 H 778.252 -3.45789 1.39585 0
M  V30 7892 N 780.437 -1.16799 -1.0581 0
M  V30 7893 C 781.662 -0.977402 -1.82925 0
M  V30 7894 C 782.087 0.469514 -1.82146 0
M  V30 7895 O 781.445 1.33576 -1.22585 0
M  V30 7896 C 781.493 -1.51543 -3.27211 0
M  V30 7897 O 780.597 -0.725021 -4.05977 0
M  V30 7898 H 779.938 -0.347474 -0.565825 0
M  V30 7899 H 782.468 -1.55151 -1.33376 0
M  V30 7900 H 782.478 -1.53502 -3.78023 0
M  V30 7901 H 781.153 -2.56872 -3.27093 0
M  V30 7902 H 779.73 -0.77634 -3.64729 0
M  V30 7903 N 781.915 1.24427 -0.967243 0
M  V30 7904 C 783.14 1.9708 -0.646069 0
M  V30 7905 C 783.565 1.71272 0.777665 0
M  V30 7906 O 782.923 0.976179 1.52776 0
M  V30 7907 C 782.971 3.48501 -0.926266 0
M  V30 7908 O 782.075 4.12398 -0.0114653 0
M  V30 7909 H 781.416 0.617423 -0.244304 0
M  V30 7910 H 783.946 1.58215 -1.29727 0
M  V30 7911 H 783.956 3.98885 -0.857619 0
M  V30 7912 H 782.631 3.66613 -1.96386 0
M  V30 7913 H 781.208 3.72661 -0.133396 0
M  V30 7914 N 783.393 0.737304 1.3929 0
M  V30 7915 C 784.618 0.295237 2.05288 0
M  V30 7916 C 785.043 -1.06235 1.55228 0
M  V30 7917 O 784.401 -1.67365 0.697043 0
M  V30 7918 C 784.449 0.309146 3.59272 0
M  V30 7919 O 783.553 -0.702437 4.06374 0
M  V30 7920 H 782.894 0.133762 0.650387 0
M  V30 7921 H 785.424 1.00387 1.78279 0
M  V30 7922 H 785.434 0.154336 4.07708 0
M  V30 7923 H 784.109 1.29974 3.95069 0
M  V30 7924 H 782.686 -0.513574 3.69346 0
M  V30 7925 N 784.871 -1.49948 0.485112 0
M  V30 7926 C 786.119 -2.01996 -0.0648775 0
M  V30 7927 C 786.44 -1.36819 -1.38945 0
M  V30 7928 O 785.71 -0.518163 -1.88923 0
M  V30 7929 H 784.29 -0.746513 -0.0269662 0
M  V30 7930 H 786.952 -1.84136 0.638733 0
M  V30 7931 H 786.048 -3.11418 -0.20617 0
M  V30 7932 N 786.349 -0.21828 -1.56081 0
M  V30 7933 C 787.765 0.137168 -1.59009 0
M  V30 7934 C 787.965 1.59215 -1.23503 0
M  V30 7935 O 787.021 2.33178 -0.968716 0
M  V30 7936 C 788.334 -0.186162 -3.00123 0
M  V30 7937 C 789.882 -0.128135 -3.12738 0
M  V30 7938 C 790.357 -0.425094 -4.56023 0
M  V30 7939 N 791.848 -0.374547 -4.61683 0
M  V30 7940 C 792.583 -0.57786 -5.70481 0
M  V30 7941 N 792.079 -0.842771 -6.87655 0
M  V30 7942 N 793.872 -0.510521 -5.59777 0
M  V30 7943 H 786.023 -1.16746 -1.77437 0
M  V30 7944 H 788.286 -0.467706 -0.824594 0
M  V30 7945 H 787.992 -1.19589 -3.30744 0
M  V30 7946 H 787.866 0.500388 -3.73866 0
M  V30 7947 H 790.253 0.872224 -2.81915 0
M  V30 7948 H 790.334 -0.848112 -2.41331 0
M  V30 7949 H 789.978 -1.42288 -4.87562 0
M  V30 7950 H 789.908 0.316038 -5.25651 0
M  V30 7951 H 792.399 -0.177356 -3.77484 0
M  V30 7952 H 792.712 -0.986095 -7.66483 0
M  V30 7953 H 791.057 -0.879929 -6.89407 0
M  V30 7954 H 794.248 -0.303813 -4.67113 0
M  V30 7955 H 794.421 -0.672378 -6.44502 0
M  V30 7956 N 787.827 1.57504 0.0551401 0
M  V30 7957 C 788.79 2.03826 1.04821 0
M  V30 7958 C 789.79 0.937968 1.30609 0
M  V30 7959 O 790.98 1.20237 1.2605 0
M  V30 7960 C 788.112 2.43309 2.38775 0
M  V30 7961 H 789.305 2.92802 0.6486 0
M  V30 7962 H 786.858 1.53368 0.301315 0
M  V30 7963 H 787.593 1.5741 2.83536 0
M  V30 7964 H 787.378 3.23615 2.21395 0
M  V30 7965 H 788.868 2.79666 3.10124 0
M  V30 7966 N 789.305 -0.326896 1.54172 0
M  V30 7967 C 790.554 -1.06274 1.71431 0
M  V30 7968 C 790.867 -1.89282 0.493123 0
M  V30 7969 O 792.073 -2.65933 0.54699 0
M  V30 7970 C 790.529 -1.93892 3.03206 0
M  V30 7971 C 790.137 -1.16011 4.32719 0
M  V30 7972 C 791.881 -2.67232 3.29829 0
M  V30 7973 C 789.788 -2.02755 5.55558 0
M  V30 7974 H 788.718 -0.400475 0.638855 0
M  V30 7975 H 791.369 -0.321184 1.80667 0
M  V30 7976 H 789.751 -2.71933 2.87869 0
M  V30 7977 H 790.925 -0.427643 4.58811 0
M  V30 7978 H 789.24 -0.54367 4.12836 0
M  V30 7979 H 791.837 -3.32434 4.18798 0
M  V30 7980 H 792.18 -3.34692 2.47562 0
M  V30 7981 H 792.713 -1.96255 3.46018 0
M  V30 7982 H 789.452 -1.3981 6.40417 0
M  V30 7983 H 788.972 -2.73745 5.33689 0
M  V30 7984 H 790.651 -2.61419 5.91835 0
M  V30 7985 N 790.784 -1.46188 -0.588786 0
M  V30 7986 C 792.032 -1.50885 -1.34455 0
M  V30 7987 C 792.353 -0.159555 -1.94346 0
M  V30 7988 O 791.623 0.813239 -1.78222 0
M  V30 7989 H 790.203 -0.555707 -0.499198 0
M  V30 7990 H 792.865 -1.82277 -0.690014 0
M  V30 7991 H 791.961 -2.25816 -2.15438 0
M  V30 7992 N 792.262 0.832906 -1.33792 0
M  V30 7993 C 793.51 1.58539 -1.25338 0
M  V30 7994 C 793.831 1.94175 0.179204 0
M  V30 7995 O 793.101 1.61458 1.10941 0
M  V30 7996 H 791.681 0.58784 -0.460926 0
M  V30 7997 H 794.343 0.995064 -1.67584 0
M  V30 7998 H 793.439 2.51268 -1.85123 0
M  V30 7999 N 793.74 1.17359 1.05189 0
M  V30 8000 C 794.988 0.960087 1.77839 0
M  V30 8001 C 795.309 -0.512554 1.88143 0
M  V30 8002 O 794.579 -1.3721 1.39822 0
M  V30 8003 H 793.159 0.352234 0.658741 0
M  V30 8004 H 795.821 1.47834 1.27008 0
M  V30 8005 H 794.917 1.38843 2.79516 0
M  V30 8006 N 795.218 -1.23913 0.973828 0
M  V30 8007 C 796.148 -2.27453 0.527969 0
M  V30 8008 C 797.129 -1.6443 -0.435513 0
M  V30 8009 O 798.314 -1.9137 -0.330306 0
M  V30 8010 C 795.444 -3.4685 -0.176757 0
M  V30 8011 C 794.398 -4.22181 0.703352 0
M  V30 8012 C 793.724 -5.34534 -0.133215 0
M  V30 8013 C 795.024 -4.82865 1.99096 0
M  V30 8014 H 796.718 -2.65 1.3934 0
M  V30 8015 H 794.264 -1.27388 0.671446 0
M  V30 8016 H 796.217 -4.18424 -0.499934 0
M  V30 8017 H 794.941 -3.08346 -1.07659 0
M  V30 8018 H 793.6 -3.52416 1.00989 0
M  V30 8019 H 793.248 -4.92271 -1.03338 0
M  V30 8020 H 792.948 -5.85855 0.452494 0
M  V30 8021 H 794.472 -6.08933 -0.450924 0
M  V30 8022 H 795.886 -5.46481 1.73297 0
M  V30 8023 H 794.283 -5.44444 2.52389 0
M  V30 8024 H 795.353 -4.03977 2.68199 0
M  V30 8025 N 796.696 -0.74468 -1.38897 0
M  V30 8026 C 797.921 -0.306119 -2.05128 0
M  V30 8027 C 798.346 1.0541 -1.55789 0
M  V30 8028 O 797.704 1.66993 -0.705909 0
M  V30 8029 C 797.752 -0.328195 -3.59103 0
M  V30 8030 O 796.856 0.680876 -4.06741 0
M  V30 8031 H 796.197 -0.137209 -0.649669 0
M  V30 8032 H 798.727 -1.01331 -1.77745 0
M  V30 8033 H 798.737 -0.175956 -4.0762 0
M  V30 8034 H 797.412 -1.32067 -3.94374 0
M  V30 8035 H 795.989 0.49398 -3.69614 0
M  V30 8036 N 798.174 1.49689 -0.493057 0
M  V30 8037 C 799.399 2.07331 0.0535114 0
M  V30 8038 C 799.824 1.35196 1.30781 0
M  V30 8039 O 799.182 0.406246 1.7669 0
M  V30 8040 C 799.23 3.59364 0.29825 0
M  V30 8041 O 798.334 3.88819 1.37454 0
M  V30 8042 H 797.675 0.663612 -0.0227018 0
M  V30 8043 H 800.205 1.926 -0.690402 0
M  V30 8044 H 800.215 4.04515 0.532159 0
M  V30 8045 H 798.89 4.1128 -0.618207 0
M  V30 8046 H 797.467 3.55487 1.12621 0
M  V30 8047 N 799.652 0.226554 1.55963 0
M  V30 8048 C 800.898 -0.404387 1.98727 0
M  V30 8049 C 801.231 -1.59059 1.11418 0
M  V30 8050 O 800.506 -1.93729 0.172971 0
M  V30 8051 C 800.789 -0.834081 3.50307 0
M  V30 8052 C 800.642 0.356104 4.48388 0
M  V30 8053 C 801.961 -1.68845 4.06423 0
M  V30 8054 H 799.08 -0.145515 0.722492 0
M  V30 8055 H 801.722 0.323791 1.87221 0
M  V30 8056 H 799.872 -1.45454 3.60244 0
M  V30 8057 H 801.544 0.99432 4.50456 0
M  V30 8058 H 799.787 1.0027 4.22053 0
M  V30 8059 H 800.458 0.0124333 5.51999 0
M  V30 8060 H 802.934 -1.16489 3.99461 0
M  V30 8061 H 801.81 -1.958 5.1279 0
M  V30 8062 H 802.071 -2.65347 3.53615 0
M  V30 8063 N 801.13 -1.57531 -0.0467866 0
M  V30 8064 C 802.378 -1.88078 -0.739656 0
M  V30 8065 C 802.699 -0.821936 -1.76831 0
M  V30 8066 O 801.969 0.146582 -1.95351 0
M  V30 8067 H 800.549 -0.694075 -0.276169 0
M  V30 8068 H 803.211 -1.94893 -0.0169391 0
M  V30 8069 H 802.307 -2.86396 -1.24031 0
M  V30 8070 N 802.608 0.318715 -1.54344 0
M  V30 8071 C 803.856 1.054 -1.72439 0
M  V30 8072 C 804.177 1.88388 -0.503495 0
M  V30 8073 O 803.447 1.89866 0.48246 0
M  V30 8074 H 802.027 0.392124 -0.635805 0
M  V30 8075 H 804.689 0.35398 -1.91659 0
M  V30 8076 H 803.785 1.71726 -2.60608 0
M  V30 8077 N 804.086 1.46499 0.581025 0
M  V30 8078 C 805.334 1.51596 1.33653 0
M  V30 8079 C 805.655 0.169859 1.94259 0
M  V30 8080 O 804.925 -0.803776 1.78651 0
M  V30 8081 H 803.505 0.558346 0.496244 0
M  V30 8082 H 806.167 1.8264 0.680338 0
M  V30 8083 H 805.263 2.26956 2.14237 0
M  V30 8084 N 805.565 -0.825799 1.34232 0
M  V30 8085 C 806.79 -1.61883 1.29648 0
M  V30 8086 C 807.215 -1.87669 -0.127295 0
M  V30 8087 O 806.573 -1.45016 -1.08813 0
M  V30 8088 C 806.621 -2.93846 2.09014 0
M  V30 8089 O 805.725 -3.85778 1.4577 0
M  V30 8090 H 805.066 -0.492454 0.445405 0
M  V30 8091 H 807.596 -1.02641 1.76992 0
M  V30 8092 H 807.606 -3.43435 2.20264 0
M  V30 8093 H 806.281 -2.74401 3.12533 0
M  V30 8094 H 804.858 -3.4429 1.43245 0
M  V30 8095 N 807.043 -1.17915 -1.04565 0
M  V30 8096 C 808.268 -0.996749 -1.81878 0
M  V30 8097 C 808.693 0.450169 -1.82634 0
M  V30 8098 O 808.051 1.32268 -1.23995 0
M  V30 8099 C 808.099 -1.55005 -3.25585 0
M  V30 8100 O 807.203 -0.76804 -4.05185 0
M  V30 8101 H 806.544 -0.353456 -0.562108 0
M  V30 8102 H 809.074 -1.56557 -1.31723 0
M  V30 8103 H 809.084 -1.57503 -3.76373 0
M  V30 8104 H 807.759 -2.60327 -3.2435 0
M  V30 8105 H 806.336 -0.81498 -3.63885 0
M  V30 8106 N 808.521 1.23394 -0.980386 0
M  V30 8107 C 809.749 1.95844 -0.667286 0
M  V30 8108 C 810.164 1.72574 0.765735 0
M  V30 8109 O 809.521 1.01715 1.51526 0
M  V30 8110 C 809.572 3.48844 -0.948151 0
M  V30 8111 O 809.293 3.71325 -2.32485 0
M  V30 8112 C 810.794 4.38494 -0.651002 0
M  V30 8113 H 808.014 0.623535 -0.247882 0
M  V30 8114 H 810.558 1.56885 -1.31176 0
M  V30 8115 H 808.713 3.85819 -0.349681 0
M  V30 8116 H 809.127 4.65619 -2.41452 0
M  V30 8117 H 810.601 5.44648 -0.897887 0
M  V30 8118 H 811.078 4.37236 0.414922 0
M  V30 8119 H 811.684 4.07127 -1.22995 0
M  V30 8120 N 809.999 0.752036 1.385 0
M  V30 8121 C 811.248 0.304294 1.99391 0
M  V30 8122 C 811.561 -1.11982 1.60373 0
M  V30 8123 O 812.767 -1.66795 2.14223 0
M  V30 8124 C 811.223 0.493101 3.56506 0
M  V30 8125 C 810.831 1.9262 4.04477 0
M  V30 8126 C 812.575 0.107994 4.24363 0
M  V30 8127 C 810.482 2.06365 5.54227 0
M  V30 8128 H 809.412 0.110024 0.745929 0
M  V30 8129 H 812.063 0.928355 1.58284 0
M  V30 8130 H 810.445 -0.20012 3.95494 0
M  V30 8131 H 811.619 2.65276 3.76783 0
M  V30 8132 H 809.934 2.26608 3.49339 0
M  V30 8133 H 812.531 0.189474 5.34364 0
M  V30 8134 H 812.874 -0.939165 4.05568 0
M  V30 8135 H 813.407 0.753011 3.90608 0
M  V30 8136 H 810.146 3.0933 5.77923 0
M  V30 8137 H 809.666 1.38167 5.83669 0
M  V30 8138 H 811.345 1.85286 6.19902 0
M  V30 8139 N 811.477 -1.49425 0.500989 0
M  V30 8140 C 812.424 -2.29126 -0.277443 0
M  V30 8141 C 813.394 -1.35522 -0.960363 0
M  V30 8142 O 814.579 -1.64479 -0.967027 0
M  V30 8143 C 811.719 -3.18193 -1.33593 0
M  V30 8144 C 810.832 -4.26854 -0.664791 0
M  V30 8145 C 809.967 -5.03137 -1.70372 0
M  V30 8146 C 809.006 -6.03635 -1.01445 0
M  V30 8147 N 808.143 -6.73083 -1.99758 0
M  V30 8148 H 812.983 -2.95187 0.408458 0
M  V30 8149 H 810.52 -1.45546 0.213275 0
M  V30 8150 H 812.478 -3.68207 -1.96161 0
M  V30 8151 H 811.108 -2.54116 -1.9906 0
M  V30 8152 H 810.16 -3.80328 0.0741708 0
M  V30 8153 H 811.472 -4.9865 -0.122197 0
M  V30 8154 H 810.626 -5.5702 -2.40445 0
M  V30 8155 H 809.365 -4.31114 -2.28017 0
M  V30 8156 H 808.37 -5.48984 -0.299496 0
M  V30 8157 H 809.595 -6.77644 -0.444497 0
M  V30 8158 H 807.541 -6.03832 -2.56365 0
M  V30 8159 H 807.458 -7.40855 -1.50565 0
M  V30 8160 H 808.726 -7.3157 -2.69119 0
M  V30 8161 N 812.955 -0.234822 -1.55841 0
M  V30 8162 C 814.185 0.397168 -2.02746 0
M  V30 8163 C 814.593 1.52951 -1.11367 0
M  V30 8164 O 813.936 1.8332 -0.118133 0
M  V30 8165 C 813.998 0.977748 -3.45948 0
M  V30 8166 C 813.662 -0.0208193 -4.56995 0
M  V30 8167 C 814.659 -0.826015 -5.13296 0
M  V30 8168 C 812.344 -0.143416 -5.02095 0
M  V30 8169 C 814.338 -1.74038 -6.1318 0
M  V30 8170 C 812.025 -1.0613 -6.01814 0
M  V30 8171 C 813.023 -1.85832 -6.57233 0
M  V30 8172 O 812.711 -2.76075 -7.55008 0
M  V30 8173 H 812.443 0.0999802 -0.668566 0
M  V30 8174 H 814.997 -0.352673 -2.0235 0
M  V30 8175 H 813.227 1.77693 -3.43456 0
M  V30 8176 H 814.916 1.51854 -3.76424 0
M  V30 8177 H 815.682 -0.741822 -4.79293 0
M  V30 8178 H 811.561 0.466857 -4.5863 0
M  V30 8179 H 815.105 -2.36291 -6.56363 0
M  V30 8180 H 811.002 -1.14646 -6.35237 0
M  V30 8181 H 811.77 -2.703 -7.7258 0
M  V30 8182 N 814.433 1.57553 0.0384317 0
M  V30 8183 C 815.661 1.93093 0.743141 0
M  V30 8184 C 816.076 0.833787 1.69391 0
M  V30 8185 O 815.433 -0.190532 1.81503 0
M  V30 8186 C 815.484 3.28533 1.50826 0
M  V30 8187 O 815.205 4.34032 0.595665 0
M  V30 8188 C 816.706 3.78297 2.31098 0
M  V30 8189 H 813.926 0.637486 0.20941 0
M  V30 8190 H 816.47 2.045 -0.00125154 0
M  V30 8191 H 814.625 3.18552 2.20462 0
M  V30 8192 H 815.039 5.12155 1.13124 0
M  V30 8193 H 816.513 4.75602 2.80191 0
M  V30 8194 H 816.99 3.09008 3.12107 0
M  V30 8195 H 817.596 3.91331 1.66555 0
M  V30 8196 N 815.911 -0.310526 1.54511 0
M  V30 8197 C 817.139 -1.06611 1.77318 0
M  V30 8198 C 817.554 -1.81265 0.528043 0
M  V30 8199 O 816.911 -1.75466 -0.50178 0
M  V30 8200 C 816.962 -2.05409 2.97472 0
M  V30 8201 O 816.683 -1.33785 4.17173 0
M  V30 8202 C 818.184 -2.93082 3.32593 0
M  V30 8203 H 815.404 -0.316578 0.591624 0
M  V30 8204 H 817.948 -0.352691 2.01436 0
M  V30 8205 H 816.103 -2.72266 2.7559 0
M  V30 8206 H 816.517 -2.00055 4.84849 0
M  V30 8207 H 817.991 -3.58274 4.19933 0
M  V30 8208 H 818.468 -3.60877 2.50329 0
M  V30 8209 H 819.074 -2.31768 3.566 0
M  V30 8210 N 817.389 -1.46805 -0.573248 0
M  V30 8211 C 818.617 -1.56191 -1.3569 0
M  V30 8212 C 819.032 -0.206362 -1.87669 0
M  V30 8213 O 818.389 0.797883 -1.64134 0
M  V30 8214 C 818.44 -2.57433 -2.53792 0
M  V30 8215 O 818.161 -3.87724 -2.03965 0
M  V30 8216 C 819.662 -2.76851 -3.4622 0
M  V30 8217 H 816.882 -0.527907 -0.414192 0
M  V30 8218 H 819.426 -1.92292 -0.695989 0
M  V30 8219 H 817.581 -2.24311 -3.15854 0
M  V30 8220 H 817.995 -4.42909 -2.80948 0
M  V30 8221 H 819.469 -3.5159 -4.25545 0
M  V30 8222 H 819.946 -1.84095 -3.98755 0
M  V30 8223 H 820.552 -3.11107 -2.89987 0
M  V30 8224 N 818.867 0.818669 -1.34668 0
M  V30 8225 C 820.092 1.61193 -1.30505 0
M  V30 8226 C 820.517 1.87734 0.117341 0
M  V30 8227 O 819.875 1.45591 1.08042 0
M  V30 8228 C 819.923 2.92733 -2.1057 0
M  V30 8229 O 819.027 3.85 -1.47813 0
M  V30 8230 H 818.368 0.490085 -0.44801 0
M  V30 8231 H 820.898 1.01701 -1.77534 0
M  V30 8232 H 820.908 3.42262 -2.22082 0
M  V30 8233 H 819.583 2.7274 -3.13984 0
M  V30 8234 H 818.16 3.43525 -1.45069 0
M  V30 8235 N 820.346 1.18468 1.03938 0
M  V30 8236 C 821.571 1.00638 1.81347 0
M  V30 8237 C 821.996 -0.440477 1.8287 0
M  V30 8238 O 821.354 -1.31609 1.24695 0
M  V30 8239 C 821.402 1.5673 3.24759 0
M  V30 8240 O 820.506 0.789517 4.04772 0
M  V30 8241 H 819.847 0.356432 0.560225 0
M  V30 8242 H 822.377 1.57253 1.30891 0
M  V30 8243 H 822.387 1.59496 3.75533 0
M  V30 8244 H 821.062 2.62043 3.22965 0
M  V30 8245 H 819.639 0.834267 3.63448 0
M  V30 8246 N 821.824 -1.22873 0.986916 0
M  V30 8247 C 823.049 -1.96028 0.677341 0
M  V30 8248 C 823.474 -1.72487 -0.750319 0
M  V30 8249 O 822.832 -1.00036 -1.51203 0
M  V30 8250 C 822.88 -3.46983 0.981593 0
M  V30 8251 O 821.984 -4.12328 0.0770729 0
M  V30 8252 H 821.325 -0.613458 0.254096 0
M  V30 8253 H 823.855 -1.56132 1.32227 0
M  V30 8254 H 823.865 -3.9747 0.920969 0
M  V30 8255 H 822.54 -3.63442 2.02194 0
M  V30 8256 H 821.117 -3.72402 0.192666 0
M  V30 8257 N 823.302 -0.75937 -1.38099 0
M  V30 8258 C 824.527 -0.327859 -2.04792 0
M  V30 8259 C 824.952 1.03752 -1.56899 0
M  V30 8260 O 824.31 1.66235 -0.723581 0
M  V30 8261 C 824.358 -0.366264 -3.58735 0
M  V30 8262 O 823.462 0.637697 -4.0744 0
M  V30 8263 H 822.803 -0.144092 -0.648177 0
M  V30 8264 H 825.333 -1.03211 -1.7666 0
M  V30 8265 H 825.343 -0.219179 -4.07411 0
M  V30 8266 H 824.018 -1.36243 -3.92951 0
M  V30 8267 H 822.595 0.454749 -3.70117 0
M  V30 8268 N 824.78 1.49157 -0.508906 0
M  V30 8269 C 826.196 1.58741 -0.165372 0
M  V30 8270 C 826.396 1.5133 1.33047 0
M  V30 8271 O 825.452 1.39135 2.10707 0
M  V30 8272 C 826.765 2.91217 -0.749194 0
M  V30 8273 C 828.313 3.047 -0.716015 0
M  V30 8274 C 828.788 4.39807 -1.27804 0
M  V30 8275 N 830.279 4.46319 -1.23908 0
M  V30 8276 C 831.014 5.49325 -1.64406 0
M  V30 8277 N 830.51 6.59395 -2.12534 0
M  V30 8278 N 832.303 5.40084 -1.55773 0
M  V30 8279 H 824.454 1.52217 -1.48134 0
M  V30 8280 H 826.717 0.721514 -0.614915 0
M  V30 8281 H 826.423 3.02233 -1.79856 0
M  V30 8282 H 826.297 3.76592 -0.214144 0
M  V30 8283 H 828.684 2.9331 0.324535 0
M  V30 8284 H 828.765 2.2099 -1.2883 0
M  V30 8285 H 828.409 4.5195 -2.31741 0
M  V30 8286 H 828.339 5.2217 -0.681623 0
M  V30 8287 H 830.83 3.67354 -0.886537 0
M  V30 8288 H 831.143 7.34102 -2.41485 0
M  V30 8289 H 829.488 6.60414 -2.16513 0
M  V30 8290 H 832.679 4.52986 -1.17987 0
M  V30 8291 H 832.852 6.20233 -1.87657 0
M  V30 8292 N 826.258 0.243083 1.55714 0
M  V30 8293 C 827.205 -0.658078 2.21219 0
M  V30 8294 C 828.175 -1.1742 1.17481 0
M  V30 8295 O 829.36 -1.22937 1.45915 0
M  V30 8296 C 826.5 -1.85104 2.91257 0
M  V30 8297 C 825.613 -1.3718 4.09641 0
M  V30 8298 C 824.748 -2.52403 4.67404 0
M  V30 8299 C 823.787 -2.01321 5.78045 0
M  V30 8300 N 822.924 -3.09896 6.30007 0
M  V30 8301 H 827.764 -0.0927854 2.97856 0
M  V30 8302 H 825.301 -0.0340375 1.47061 0
M  V30 8303 H 827.259 -2.55179 3.3006 0
M  V30 8304 H 825.889 -2.38887 2.17101 0
M  V30 8305 H 824.941 -0.565232 3.76177 0
M  V30 8306 H 826.253 -0.957409 4.89525 0
M  V30 8307 H 825.407 -3.30525 5.08761 0
M  V30 8308 H 824.146 -2.97142 3.86728 0
M  V30 8309 H 823.151 -1.21667 5.36169 0
M  V30 8310 H 824.376 -1.57556 6.6057 0
M  V30 8311 H 822.322 -3.54077 5.52237 0
M  V30 8312 H 822.239 -2.72776 7.05074 0
M  V30 8313 H 823.507 -3.8809 6.76023 0
M  V30 8314 N 827.736 -1.57571 -0.0300757 0
M  V30 8315 C 828.961 -1.93879 -0.736601 0
M  V30 8316 C 829.386 -0.842998 -1.68152 0
M  V30 8317 O 828.744 0.20135 -1.80178 0
M  V30 8318 C 828.792 -3.29247 -1.47066 0
M  V30 8319 O 827.896 -3.21426 -2.58378 0
M  V30 8320 H 827.237 -0.633735 -0.198181 0
M  V30 8321 H 829.767 -2.04595 0.0141485 0
M  V30 8322 H 829.777 -3.64113 -1.84081 0
M  V30 8323 H 828.452 -4.08565 -0.77764 0
M  V30 8324 H 827.029 -2.98189 -2.23914 0
M  V30 8325 N 829.214 0.302327 -1.54673 0
M  V30 8326 C 830.444 1.05516 -1.77623 0
M  V30 8327 C 830.852 1.81474 -0.535159 0
M  V30 8328 O 830.195 1.76635 0.504543 0
M  V30 8329 C 830.257 2.08305 -2.93001 0
M  V30 8330 C 829.921 1.51554 -4.31139 0
M  V30 8331 C 830.918 0.946261 -5.11216 0
M  V30 8332 C 828.603 1.55157 -4.77736 0
M  V30 8333 C 830.597 0.420559 -6.36011 0
M  V30 8334 C 828.284 1.022 -6.02494 0
M  V30 8335 C 829.282 0.457461 -6.81466 0
M  V30 8336 O 828.97 -0.064083 -8.03874 0
M  V30 8337 H 828.702 0.318756 -0.59613 0
M  V30 8338 H 831.256 0.347558 -2.02438 0
M  V30 8339 H 829.486 2.82742 -2.63807 0
M  V30 8340 H 831.175 2.69479 -3.03539 0
M  V30 8341 H 831.941 0.911338 -4.76361 0
M  V30 8342 H 827.82 1.98037 -4.16296 0
M  V30 8343 H 831.364 -0.0207298 -6.97597 0
M  V30 8344 H 827.261 1.05406 -6.36836 0
M  V30 8345 H 828.029 0.0493422 -8.18485 0
M  V30 8346 N 830.692 1.47107 0.565454 0
M  V30 8347 C 831.639 1.58974 1.6732 0
M  V30 8348 C 832.609 0.433146 1.60353 0
M  V30 8349 O 833.794 0.652141 1.79309 0
M  V30 8350 C 830.934 1.60224 3.05651 0
M  V30 8351 C 830.047 2.86741 3.23116 0
M  V30 8352 C 829.182 2.79381 4.51796 0
M  V30 8353 C 828.221 4.0076 4.62664 0
M  V30 8354 N 827.358 3.91685 5.8269 0
M  V30 8355 H 832.198 2.53588 1.56515 0
M  V30 8356 H 829.735 1.25791 0.762558 0
M  V30 8357 H 831.693 1.58933 3.85741 0
M  V30 8358 H 830.323 0.691285 3.15311 0
M  V30 8359 H 829.375 2.97936 2.36513 0
M  V30 8360 H 830.687 3.7665 3.27011 0
M  V30 8361 H 829.841 2.76293 5.40136 0
M  V30 8362 H 828.58 1.87142 4.50366 0
M  V30 8363 H 827.585 4.04162 3.72738 0
M  V30 8364 H 828.81 4.94117 4.6586 0
M  V30 8365 H 826.756 3.02243 5.82224 0
M  V30 8366 H 826.673 4.75264 5.87929 0
M  V30 8367 H 827.941 3.92599 6.73414 0
M  V30 8368 N 832.17 -0.811516 1.35101 0
M  V30 8369 C 833.12 -1.91227 1.24163 0
M  V30 8370 C 834.104 -1.60307 0.138012 0
M  V30 8371 O 835.296 -1.73116 0.368767 0
M  V30 8372 C 832.425 -3.2808 1.01085 0
M  V30 8373 C 831.511 -3.65082 2.15815 0
M  V30 8374 N 831.902 -3.73558 3.4101 0
M  V30 8375 C 830.2 -3.95005 2.07092 0
M  V30 8376 C 830.901 -4.06158 4.16426 0
M  V30 8377 N 829.877 -4.19982 3.45132 0
M  V30 8378 H 833.679 -1.95975 2.19023 0
M  V30 8379 H 831.193 -1.00583 1.27503 0
M  V30 8380 H 833.19 -4.06771 0.913382 0
M  V30 8381 H 831.85 -3.24622 0.0710406 0
M  V30 8382 H 832.861 -3.56761 3.75423 0
M  V30 8383 H 829.538 -3.99601 1.20937 0
M  V30 8384 H 830.928 -4.19824 5.24592 0
M  V30 8385 O 833.687 -1.3058 -0.950319 0
M  V30 8386 H 834.378 -1.1218 -1.57909 0
M  V30 END ATOM
M  V30 BEGIN BOND
M  V30 END BOND
M  V30 END CTAB
M  END
$$$$
