drugbank_target|P02585 Troponin C, skeletal muscle (DB01023; DB01373; DB04682)
 OpenBabel12092120343D

  0  0  0     0  0            999 V3000
M  V30 BEGIN CTAB
M  V30 COUNTS 2444 2458 0 0 0
M  V30 BEGIN ATOM
M  V30 1 H -0.908 1.98254 -0.117106 0
M  V30 2 N 0 1.576 0 0
M  V30 3 C 0.933 2.03868 1.02534 0
M  V30 4 C 1.911 0.928543 1.3348 0
M  V30 5 O 3.095 1.19667 1.45644 0
M  V30 6 C 0.222 2.43627 2.35294 0
M  V30 7 C -0.732 3.65373 2.2001 0
M  V30 8 S 0.101 5.13292 1.52614 0
M  V30 9 C 1.257 5.56322 2.86805 0
M  V30 10 H 1.49 2.90518 0.631377 0
M  V30 11 H -0.977 1.52953 0.210867 0
M  V30 12 H 0.981 2.67203 3.11629 0
M  V30 13 H -0.358 1.57376 2.7183 0
M  V30 14 H -1.165 3.90944 3.18086 0
M  V30 15 H -1.563 3.418 1.51819 0
M  V30 16 H 0.729 5.58782 3.83104 0
M  V30 17 H 1.672 6.56266 2.65933 0
M  V30 18 H 2.08 4.83886 2.90714 0
M  V30 19 N 1.4781 -0.272755 1.55222 0
M  V30 20 C 2.7061 -1.02255 1.79865 0
M  V30 21 C 3.1211 -1.79924 0.572088 0
M  V30 22 O 2.4781 -1.76638 -0.458842 0
M  V30 23 C 2.5291 -1.98094 3.02392 0
M  V30 24 O 2.2501 -1.23572 4.20311 0
M  V30 25 C 3.7511 -2.84884 3.39641 0
M  V30 26 H 0.9711 -0.302057 0.599168 0
M  V30 27 H 3.5151 -0.303465 2.02236 0
M  V30 28 H 1.6701 -2.65465 2.82147 0
M  V30 29 H 2.0841 -1.88172 4.89583 0
M  V30 30 H 3.5581 -3.47927 4.28545 0
M  V30 31 H 4.0351 -3.54665 2.59055 0
M  V30 32 H 4.6411 -2.23003 3.62146 0
M  V30 33 N 2.9562 -1.48159 -0.537278 0
M  V30 34 C 4.2332 -1.46291 -1.29839 0
M  V30 35 C 4.6132 -0.170613 -2.10409 0
M  V30 36 O 3.9612 0.847746 -2.12192 0
M  V30 37 C 4.1712 -2.72055 -2.18603 0
M  V30 38 C 5.5192 -3.20087 -2.7898 0
M  V30 39 O 6.5432 -2.72921 -2.28894 0
M  V30 40 O 5.4022 -4.02138 -3.70064 0
M  V30 41 H 2.4962 -0.583906 -0.585647 0
M  V30 42 H 5.0422 -1.60384 -0.554534 0
M  V30 43 H 3.8142 -3.57628 -1.58801 0
M  V30 44 H 3.4372 -2.60646 -3.00249 0
M  V30 45 N 4.4343 0.785586 -1.36625 0
M  V30 46 C 5.3663 1.90711 -1.2713 0
M  V30 47 C 6.3793 1.61688 -0.189986 0
M  V30 48 O 7.5683 1.72864 -0.445014 0
M  V30 49 C 4.6683 3.25611 -0.939713 0
M  V30 50 C 3.8413 3.82385 -2.12369 0
M  V30 51 C 2.9003 4.95732 -1.76456 0
M  V30 52 O 1.9263 5.12047 -2.48589 0
M  V30 53 N 3.1283 5.76258 -0.700492 0
M  V30 54 H 5.8933 1.99376 -2.23762 0
M  V30 55 H 3.4543 0.964041 -1.30069 0
M  V30 56 H 5.4463 3.98937 -0.680554 0
M  V30 57 H 4.0163 3.12538 -0.0624074 0
M  V30 58 H 3.2363 3.01001 -2.54543 0
M  V30 59 H 4.5243 4.17047 -2.9146 0
M  V30 60 H 3.9223 5.65609 -0.101624 0
M  V30 61 H 2.4793 6.4987 -0.501165 0
M  V30 62 N 5.9124 1.20967 1.01018 0
M  V30 63 C 6.8444 0.922059 2.09835 0
M  V30 64 C 7.8574 -0.0927106 1.62536 0
M  V30 65 O 9.0464 0.139127 1.77957 0
M  V30 66 C 6.1464 0.362004 3.36961 0
M  V30 67 C 5.3194 1.42986 4.13369 0
M  V30 68 C 4.3784 0.879976 5.1879 0
M  V30 69 O 3.4044 1.56219 5.47343 0
M  V30 70 N 4.6064 -0.307396 5.79686 0
M  V30 71 H 7.3714 1.8588 2.35093 0
M  V30 72 H 4.9324 1.11422 1.1746 0
M  V30 73 H 6.9244 -0.0201474 4.04695 0
M  V30 74 H 5.4944 -0.479437 3.08902 0
M  V30 75 H 4.7144 1.98608 3.40512 0
M  V30 76 H 6.0024 2.14885 4.61196 0
M  V30 77 H 5.4004 -0.878796 5.58832 0
M  V30 78 H 3.9574 -0.631115 6.48737 0
M  V30 79 N 7.3905 -1.2043 1.01659 0
M  V30 80 C 8.3535 -2.21433 0.591616 0
M  V30 81 C 9.3535 -1.57203 -0.338226 0
M  V30 82 O 10.5435 -1.73737 -0.126918 0
M  V30 83 C 7.6755 -3.40628 -0.136058 0
M  V30 84 H 8.8685 -2.60545 1.48514 0
M  V30 85 H 6.4215 -1.33893 0.806379 0
M  V30 86 H 7.1565 -3.07019 -1.04449 0
M  V30 87 H 6.9415 -3.88475 0.531917 0
M  V30 88 H 8.4315 -4.15475 -0.420735 0
M  V30 89 N 8.8686 -0.792821 -1.36206 0
M  V30 90 C 9.7786 -0.194808 -2.3379 0
M  V30 91 C 10.7946 0.654869 -1.61206 0
M  V30 92 O 11.9706 0.569856 -1.9317 0
M  V30 93 C 9.0356 0.657721 -3.40404 0
M  V30 94 C 8.0966 -0.210849 -4.28782 0
M  V30 95 C 7.3296 0.601086 -5.30304 0
M  V30 96 O 7.5526 1.83682 -5.40016 0
M  V30 97 O 6.4866 -0.000808277 -6.019 0
M  V30 98 H 10.3126 -1.00172 -2.86704 0
M  V30 99 H 7.8976 -0.554341 -1.38735 0
M  V30 100 H 9.7796 1.14375 -4.05581 0
M  V30 101 H 8.4546 1.44247 -2.89784 0
M  V30 102 H 7.3616 -0.743714 -3.66633 0
M  V30 103 H 8.6946 -0.959195 -4.82763 0
M  V30 104 N 10.3467 1.47872 -0.545128 0
M  V30 105 C 11.3097 2.28337 0.198717 0
M  V30 106 C 12.3097 1.36255 0.853888 0
M  V30 107 O 13.4997 1.59003 0.711606 0
M  V30 108 C 10.6317 3.15585 1.28915 0
M  V30 109 H 11.8247 2.95567 -0.507941 0
M  V30 110 H 9.3777 1.53362 -0.301616 0
M  V30 111 H 10.1127 2.53019 2.02859 0
M  V30 112 H 9.8977 3.83337 0.824309 0
M  V30 113 H 11.3877 3.76243 1.81194 0
M  V30 114 N 11.8248 0.280983 1.55075 0
M  V30 115 C 13.2408 -0.0729964 1.59433 0
M  V30 116 C 13.4408 -1.5411 1.29817 0
M  V30 117 O 12.4968 -2.29086 1.06187 0
M  V30 118 C 13.8098 0.306921 2.9913 0
M  V30 119 C 15.3578 0.254023 3.11968 0
M  V30 120 C 15.8328 0.608467 4.5394 0
M  V30 121 N 17.3238 0.560241 4.59799 0
M  V30 122 C 18.0588 0.80722 5.6769 0
M  V30 123 N 17.5548 1.11912 6.83701 0
M  V30 124 N 19.3478 0.735623 5.57266 0
M  V30 125 H 11.4988 1.238 1.7259 0
M  V30 126 H 13.7618 0.500547 0.805082 0
M  V30 127 H 13.4678 1.32816 3.25657 0
M  V30 128 H 13.3418 -0.349363 3.75579 0
M  V30 129 H 15.7288 -0.75794 2.852 0
M  V30 130 H 15.8098 0.944649 2.37718 0
M  V30 131 H 15.4538 1.61814 4.81434 0
M  V30 132 H 15.3838 -0.104013 5.26497 0
M  V30 133 H 17.8748 0.329288 3.76463 0
M  V30 134 H 18.1878 1.29409 7.61888 0
M  V30 135 H 16.5328 1.15695 6.85303 0
M  V30 136 H 19.7238 0.491752 4.6551 0
M  V30 137 H 19.8968 0.931482 6.4127 0
M  V30 138 N 13.3029 -1.57598 0.00835791 0
M  V30 139 C 14.5279 -1.95617 -0.689103 0
M  V30 140 C 14.9529 -0.883753 -1.66046 0
M  V30 141 O 14.3109 0.157352 -1.80616 0
M  V30 142 C 14.3589 -3.32736 -1.38994 0
M  V30 143 O 13.4629 -3.27631 -2.50463 0
M  V30 144 H 12.8039 -0.638379 -0.182668 0
M  V30 145 H 15.3339 -2.045 0.064036 0
M  V30 146 H 15.3439 -3.68494 -1.75147 0
M  V30 147 H 14.0189 -4.1034 -0.677778 0
M  V30 148 H 12.5959 -3.03561 -2.16576 0
M  V30 149 N 14.781 0.264519 -1.55364 0
M  V30 150 C 16.011 1.01153 -1.80143 0
M  V30 151 C 16.419 1.80115 -0.579253 0
M  V30 152 O 15.762 1.77813 0.46132 0
M  V30 153 C 15.824 2.01098 -2.97993 0
M  V30 154 C 15.488 1.40995 -4.34706 0
M  V30 155 C 16.485 0.821316 -5.13372 0
M  V30 156 C 14.17 1.43461 -4.81378 0
M  V30 157 C 16.164 0.265339 -6.36847 0
M  V30 158 C 13.851 0.874771 -6.04807 0
M  V30 159 C 14.849 0.291146 -6.82379 0
M  V30 160 O 14.537 -0.260093 -8.03479 0
M  V30 161 H 14.269 0.304125 -0.603725 0
M  V30 162 H 16.823 0.298089 -2.03225 0
M  V30 163 H 15.053 2.76224 -2.70623 0
M  V30 164 H 16.742 2.61997 -3.1002 0
M  V30 165 H 17.508 0.794903 -4.78442 0
M  V30 166 H 13.387 1.87826 -4.21002 0
M  V30 167 H 16.931 -0.190837 -6.97339 0
M  V30 168 H 12.828 0.898452 -6.39217 0
M  V30 169 H 13.596 -0.150265 -8.18362 0
M  V30 170 N 16.2591 1.48442 0.529413 0
M  V30 171 C 17.1891 1.65902 1.64313 0
M  V30 172 C 18.1701 0.507897 1.6234 0
M  V30 173 O 19.3551 0.740503 1.79528 0
M  V30 174 C 16.4851 1.69911 3.02898 0
M  V30 175 C 15.4391 2.8453 3.19729 0
M  V30 176 C 14.7651 2.73629 4.59381 0
M  V30 177 C 16.0651 4.25821 3.02447 0
M  V30 178 H 17.7591 2.5914 1.49955 0
M  V30 179 H 15.3051 1.24709 0.719982 0
M  V30 180 H 17.2581 1.80715 3.80684 0
M  V30 181 H 15.9821 0.732524 3.18279 0
M  V30 182 H 14.6411 2.73283 2.44361 0
M  V30 183 H 14.2891 1.74938 4.71599 0
M  V30 184 H 13.9891 3.50541 4.71588 0
M  V30 185 H 15.5131 2.86401 5.39265 0
M  V30 186 H 16.9271 4.37898 3.70024 0
M  V30 187 H 15.3241 5.03735 3.26146 0
M  V30 188 H 16.3941 4.42244 1.98867 0
M  V30 189 N 17.7372 -0.778329 1.37039 0
M  V30 190 C 18.9622 -1.57248 1.35233 0
M  V30 191 C 19.3872 -1.87999 -0.0615568 0
M  V30 192 O 18.7452 -1.48734 -1.03672 0
M  V30 193 C 18.7932 -2.86353 2.19167 0
M  V30 194 O 17.8972 -3.80442 1.59178 0
M  V30 195 H 17.2382 -0.476569 0.462362 0
M  V30 196 H 19.7682 -0.963853 1.80474 0
M  V30 197 H 19.7782 -3.35519 2.32145 0
M  V30 198 H 18.4532 -2.63299 3.21942 0
M  V30 199 H 17.0302 -3.39067 1.55203 0
M  V30 200 N 19.2153 -1.21501 -1.00376 0
M  V30 201 C 20.1253 -0.991447 -2.12621 0
M  V30 202 C 21.1413 0.0568446 -1.73907 0
M  V30 203 O 22.3173 -0.13348 -2.00957 0
M  V30 204 C 19.3823 -0.560312 -3.42142 0
M  V30 205 C 18.4433 -1.68096 -3.95022 0
M  V30 206 C 17.6763 -1.2703 -5.18362 0
M  V30 207 O 17.8993 -0.144438 -5.70217 0
M  V30 208 O 16.8333 -2.08269 -5.64719 0
M  V30 209 H 20.6593 -1.93158 -2.34358 0
M  V30 210 H 18.2443 -0.999999 -1.10997 0
M  V30 211 H 20.1263 -0.329724 -4.20108 0
M  V30 212 H 18.8013 0.351089 -3.2179 0
M  V30 213 H 17.7083 -1.96597 -3.18278 0
M  V30 214 H 19.0413 -2.56983 -4.19786 0
M  V30 215 N 20.6934 1.19889 -1.02296 0
M  V30 216 C 21.6034 2.26571 -0.608508 0
M  V30 217 C 22.6194 1.70299 0.356964 0
M  V30 218 O 23.7954 2.00235 0.216326 0
M  V30 219 C 20.8604 3.46677 0.0402814 0
M  V30 220 C 19.9214 4.18153 -0.97194 0
M  V30 221 C 19.1544 5.32525 -0.354016 0
M  V30 222 O 19.3774 5.64112 0.844604 0
M  V30 223 O 18.3114 5.92242 -1.07391 0
M  V30 224 H 22.1374 2.64251 -1.49684 0
M  V30 225 H 19.7224 1.26629 -0.792809 0
M  V30 226 H 21.6044 4.19475 0.402324 0
M  V30 227 H 20.2794 3.10858 0.902707 0
M  V30 228 H 19.1864 3.47499 -1.38546 0
M  V30 229 H 20.5194 4.57927 -1.80454 0
M  V30 230 N 22.1715 0.800033 1.35784 0
M  V30 231 C 23.1045 0.151499 2.27697 0
M  V30 232 C 24.0825 -0.678663 1.4776 0
M  V30 233 O 25.2665 -0.647358 1.77035 0
M  V30 234 C 22.3935 -0.790492 3.29346 0
M  V30 235 C 21.4395 -0.0407832 4.26481 0
M  V30 236 S 22.2725 1.29077 5.19711 0
M  V30 237 C 23.4285 0.353055 6.24903 0
M  V30 238 H 23.6615 0.930796 2.82353 0
M  V30 239 H 21.1945 0.594767 1.42485 0
M  V30 240 H 23.1525 -1.3285 3.88409 0
M  V30 241 H 21.8135 -1.54312 2.73581 0
M  V30 242 H 21.0065 -0.755971 4.98298 0
M  V30 243 H 20.6085 0.427063 3.71554 0
M  V30 244 H 22.9005 -0.464147 6.75908 0
M  V30 245 H 23.8435 1.04023 7.00418 0
M  V30 246 H 24.2515 -0.0483344 5.64479 0
M  V30 247 N 23.6496 -1.47581 0.552962 0
M  V30 248 C 24.8986 -2.01684 0.0251995 0
M  V30 249 C 25.2116 -1.43317 -1.33115 0
M  V30 250 O 26.4176 -1.89057 -1.94858 0
M  V30 251 C 24.8736 -3.599 -0.00542052 0
M  V30 252 C 24.4816 -4.27257 1.34742 0
M  V30 253 C 26.2256 -4.21768 -0.4808 0
M  V30 254 C 24.1326 -5.77467 1.27614 0
M  V30 255 H 23.0626 -0.753979 0.00565033 0
M  V30 256 H 25.7136 -1.69616 0.70018 0
M  V30 257 H 24.0956 -3.88911 -0.745961 0
M  V30 258 H 25.2696 -4.09893 2.10534 0
M  V30 259 H 23.5846 -3.77358 1.76039 0
M  V30 260 H 26.1816 -5.31838 -0.55246 0
M  V30 261 H 26.5246 -3.88651 -1.49184 0
M  V30 262 H 27.0576 -3.97273 0.204752 0
M  V30 263 H 23.7966 -6.15196 2.26304 0
M  V30 264 H 23.3166 -5.9718 0.55996 0
M  V30 265 H 24.9956 -6.3959 0.976421 0
M  V30 266 N 25.1277 -0.289203 -1.54924 0
M  V30 267 C 26.0907 0.579144 -2.21762 0
M  V30 268 C 27.0907 1.07047 -1.1999 0
M  V30 269 O 28.2807 0.968384 -1.44803 0
M  V30 270 C 25.4127 1.80055 -2.8947 0
M  V30 271 H 26.6057 -0.00464908 -2.999 0
M  V30 272 H 24.1587 -0.0399306 -1.56249 0
M  V30 273 H 24.8937 2.42449 -2.15381 0
M  V30 274 H 24.6787 1.45602 -3.64064 0
M  V30 275 H 26.1687 2.41773 -3.40493 0
M  V30 276 N 26.6058 1.57591 -0.0167156 0
M  V30 277 C 27.5158 2.1291 0.98521 0
M  V30 278 C 28.5318 1.07834 1.36557 0
M  V30 279 O 29.7078 1.39826 1.44951 0
M  V30 280 C 26.7728 2.63512 2.25305 0
M  V30 281 C 25.8338 3.83256 1.93426 0
M  V30 282 C 25.0668 4.31435 3.14165 0
M  V30 283 O 25.2898 3.78851 4.26413 0
M  V30 284 O 24.2238 5.23416 2.97186 0
M  V30 285 H 28.0498 2.98772 0.544888 0
M  V30 286 H 25.6348 1.48012 0.203141 0
M  V30 287 H 27.5168 2.96183 2.99756 0
M  V30 288 H 26.1918 1.8074 2.68542 0
M  V30 289 H 25.0988 3.55531 1.16398 0
M  V30 290 H 26.4318 4.67153 1.55013 0
M  V30 291 N 28.0839 -0.256276 1.55502 0
M  V30 292 C 29.3309 -0.985619 1.76895 0
M  V30 293 C 29.6589 -1.85671 0.579355 0
M  V30 294 O 28.9139 -1.90744 -0.437651 0
M  V30 295 C 29.2129 -1.88432 3.03691 0
M  V30 296 C 28.8789 -1.16936 4.35473 0
M  V30 297 C 27.5409 -0.97173 4.71286 0
M  V30 298 C 29.8929 -0.661889 5.1698 0
M  V30 299 C 27.2209 -0.254179 5.86149 0
M  V30 300 C 29.5729 0.042149 6.32586 0
M  V30 301 C 28.2369 0.25134 6.67027 0
M  V30 302 H 27.5069 -0.360663 0.647304 0
M  V30 303 H 30.1539 -0.256483 1.89775 0
M  V30 304 H 28.4589 -2.68021 2.85783 0
M  V30 305 H 30.1559 -2.45015 3.1744 0
M  V30 306 H 26.7459 -1.33332 4.07333 0
M  V30 307 H 30.9299 -0.802145 4.89775 0
M  V30 308 H 26.1859 -0.0815408 6.11346 0
M  V30 309 H 30.3599 0.443049 6.94989 0
M  V30 310 H 27.9869 0.809314 7.5588 0
M  V30 311 N 29.562 -1.4872 -0.521534 0
M  V30 312 C 30.509 -1.63871 -1.62527 0
M  V30 313 C 31.479 -0.480559 -1.58996 0
M  V30 314 O 32.664 -0.705085 -1.77294 0
M  V30 315 C 29.804 -1.69227 -3.00759 0
M  V30 316 C 28.917 -2.96207 -3.14461 0
M  V30 317 C 28.052 -2.92671 -4.43303 0
M  V30 318 C 27.091 -4.14318 -4.50563 0
M  V30 319 N 26.228 -4.0881 -5.70805 0
M  V30 320 H 31.068 -2.58123 -1.48918 0
M  V30 321 H 28.605 -1.28 -0.724878 0
M  V30 322 H 30.563 -1.70314 -3.80853 0
M  V30 323 H 29.193 -0.784586 -3.1312 0
M  V30 324 H 28.245 -3.04826 -2.27564 0
M  V30 325 H 29.557 -3.86192 -3.15686 0
M  V30 326 H 28.711 -2.92206 -5.31696 0
M  V30 327 H 27.45 -2.00429 -4.44612 0
M  V30 328 H 26.455 -4.15049 -3.60575 0
M  V30 329 H 27.68 -5.07729 -4.50986 0
M  V30 330 H 25.626 -3.19394 -5.72995 0
M  V30 331 H 25.543 -4.92509 -5.7356 0
M  V30 332 H 26.811 -4.12418 -6.61462 0
M  V30 333 N 31.0401 0.771051 -1.3745 0
M  V30 334 C 32.0031 1.86598 -1.33093 0
M  V30 335 C 33.0031 1.59076 -0.234845 0
M  V30 336 O 34.1931 1.67145 -0.490732 0
M  V30 337 C 31.3251 3.23747 -1.06773 0
M  V30 338 H 32.5181 1.91873 -2.30488 0
M  V30 339 H 30.0711 0.970876 -1.2249 0
M  V30 340 H 30.8061 3.24148 -0.099129 0
M  V30 341 H 30.5911 3.45115 -1.86112 0
M  V30 342 H 32.0811 4.03824 -1.06377 0
M  V30 343 N 32.5182 1.22032 0.997298 0
M  V30 344 C 33.4812 0.987909 2.06816 0
M  V30 345 C 34.4812 -0.0440084 1.6074 0
M  V30 346 O 35.6712 0.194053 1.73116 0
M  V30 347 C 32.8032 0.49132 3.37341 0
M  V30 348 H 33.9962 1.93803 2.28868 0
M  V30 349 H 31.5492 1.03838 1.16822 0
M  V30 350 H 32.2842 -0.463364 3.20973 0
M  V30 351 H 32.0692 1.23575 3.72118 0
M  V30 352 H 33.5592 0.348824 4.16141 0
M  V30 353 N 33.9963 -1.19345 1.0293 0
M  V30 354 C 35.2433 -1.89038 0.726008 0
M  V30 355 C 35.5713 -1.79649 -0.745427 0
M  V30 356 O 34.8263 -1.18354 -1.55855 0
M  V30 357 C 35.1253 -3.39292 1.12319 0
M  V30 358 C 34.7913 -3.68885 2.59297 0
M  V30 359 C 33.4533 -3.76671 2.99453 0
M  V30 360 C 35.8053 -3.82178 3.54386 0
M  V30 361 C 33.1333 -3.9522 4.33611 0
M  V30 362 C 35.4853 -4.0224 4.88248 0
M  V30 363 C 34.1493 -4.08259 5.28092 0
M  V30 364 H 33.4193 -0.691739 0.265665 0
M  V30 365 H 36.0663 -1.41328 1.29223 0
M  V30 366 H 34.3713 -3.88903 0.475584 0
M  V30 367 H 36.0683 -3.91536 0.866037 0
M  V30 368 H 32.6583 -3.63433 2.27189 0
M  V30 369 H 36.8423 -3.75505 3.24514 0
M  V30 370 H 32.0983 -3.98119 4.64016 0
M  V30 371 H 36.2723 -4.11468 5.61843 0
M  V30 372 H 33.8993 -4.22384 6.32057 0
M  V30 373 N 35.4744 -0.807222 -1.35358 0
M  V30 374 C 36.7514 -0.311126 -1.9311 0
M  V30 375 C 37.1314 1.19937 -1.73719 0
M  V30 376 O 36.4794 1.99918 -1.10657 0
M  V30 377 C 36.6894 -0.723226 -3.41424 0
M  V30 378 C 38.0374 -0.713078 -4.18569 0
M  V30 379 O 39.0614 -0.664811 -3.49941 0
M  V30 380 O 37.9204 -0.772022 -5.41019 0
M  V30 381 H 35.0144 -0.081526 -0.822972 0
M  V30 382 H 37.5604 -0.890962 -1.4443 0
M  V30 383 H 36.3324 -1.76426 -3.4927 0
M  V30 384 H 35.9554 -0.118232 -3.97424 0
M  V30 385 N 36.9525 1.47285 -0.560781 0
M  V30 386 C 37.8855 2.27009 0.232821 0
M  V30 387 C 38.8635 1.34273 0.917039 0
M  V30 388 O 40.0475 1.63659 0.935315 0
M  V30 389 C 37.1745 3.11406 1.33206 0
M  V30 390 C 36.2205 4.19746 0.756019 0
M  V30 391 S 37.0535 5.34003 -0.400165 0
M  V30 392 C 38.2095 6.21964 0.700805 0
M  V30 393 H 38.4425 2.93971 -0.443683 0
M  V30 394 H 35.9755 1.50446 -0.347181 0
M  V30 395 H 37.9335 3.60601 1.96156 0
M  V30 396 H 36.5945 2.438 1.98041 0
M  V30 397 H 35.7875 4.78541 1.5816 0
M  V30 398 H 35.3895 3.73451 0.202619 0
M  V30 399 H 37.6815 6.58529 1.59202 0
M  V30 400 H 38.6245 7.07941 0.150126 0
M  V30 401 H 39.0325 5.5566 0.995083 0
M  V30 402 N 38.4306 0.297415 1.54768 0
M  V30 403 C 39.6776 -0.312913 2.00068 0
M  V30 404 C 40.0056 -1.54171 1.18582 0
M  V30 405 O 39.2606 -1.94108 0.249133 0
M  V30 406 C 39.5596 -0.717561 3.50123 0
M  V30 407 C 39.2256 0.409095 4.4904 0
M  V30 408 C 37.8876 0.718399 4.75807 0
M  V30 409 C 40.2396 1.16717 5.07963 0
M  V30 410 C 37.5676 1.78896 5.5876 0
M  V30 411 C 39.9196 2.22762 5.92081 0
M  V30 412 C 38.5836 2.54303 6.1716 0
M  V30 413 H 37.8536 -0.114503 0.7321 0
M  V30 414 H 40.5006 0.415767 1.86932 0
M  V30 415 H 38.8056 -1.52627 3.60849 0
M  V30 416 H 40.5026 -1.20091 3.82595 0
M  V30 417 H 37.0926 0.157918 4.28309 0
M  V30 418 H 41.2766 0.941466 4.87289 0
M  V30 419 H 36.5326 2.0381 5.7643 0
M  V30 420 H 40.7066 2.81962 6.36765 0
M  V30 421 H 38.3336 3.3739 6.81229 0
M  V30 422 N 39.9087 -1.5758 0.0250728 0
M  V30 423 C 41.1857 -1.82917 -0.692873 0
M  V30 424 C 41.5657 -0.908137 -1.90568 0
M  V30 425 O 40.9137 0.0372298 -2.2847 0
M  V30 426 C 41.1237 -3.32034 -1.07492 0
M  V30 427 C 42.4717 -3.98406 -1.46826 0
M  V30 428 O 43.4957 -3.36505 -1.16801 0
M  V30 429 O 42.3547 -5.07497 -2.02754 0
M  V30 430 H 39.4487 -0.754079 -0.33955 0
M  V30 431 H 41.9947 -1.69619 0.0524456 0
M  V30 432 H 40.7667 -3.90728 -0.211552 0
M  V30 433 H 40.3897 -3.50424 -1.87854 0
M  V30 434 N 41.3868 0.248026 -1.55636 0
M  V30 435 C 42.3498 1.29044 -1.89421 0
M  V30 436 C 43.3498 1.41134 -0.770581 0
M  V30 437 O 44.5398 1.39854 -1.03858 0
M  V30 438 C 41.6718 2.66831 -2.12165 0
M  V30 439 H 42.8648 1.00305 -2.82629 0
M  V30 440 H 40.4178 0.487265 -1.48511 0
M  V30 441 H 41.1528 3.00711 -1.21422 0
M  V30 442 H 40.9378 2.59438 -2.93997 0
M  V30 443 H 42.4278 3.42103 -2.3949 0
M  V30 444 N 42.8649 1.48995 0.513639 0
M  V30 445 C 44.1419 1.48338 1.27495 0
M  V30 446 C 44.5219 0.204065 2.10111 0
M  V30 447 O 43.8699 -0.813881 2.13514 0
M  V30 448 C 44.0799 2.75498 2.14247 0
M  V30 449 C 45.4279 3.24484 2.73852 0
M  V30 450 O 46.4519 2.76528 2.24523 0
M  V30 451 O 45.3109 4.07974 3.6362 0
M  V30 452 H 42.4049 0.593149 0.576284 0
M  V30 453 H 44.9509 1.61246 0.528948 0
M  V30 454 H 43.7229 3.60109 1.53092 0
M  V30 455 H 43.3459 2.6539 2.96064 0
M  V30 456 N 44.343 -0.763751 1.37857 0
M  V30 457 C 45.591 -1.51957 1.33243 0
M  V30 458 C 45.912 -1.94835 -0.0801709 0
M  V30 459 O 45.182 -1.66894 -1.02582 0
M  V30 460 H 43.762 -0.563626 0.49024 0
M  V30 461 H 46.424 -0.908504 1.7243 0
M  V30 462 H 45.52 -2.41523 1.97669 0
M  V30 463 N 45.8211 -1.22559 -0.990812 0
M  V30 464 C 47.0691 -1.04933 -1.72724 0
M  V30 465 C 47.3901 0.416158 -1.90508 0
M  V30 466 O 46.6601 1.29918 -1.46622 0
M  V30 467 H 45.2401 -0.385296 -0.639965 0
M  V30 468 H 47.9021 -1.54105 -1.19322 0
M  V30 469 H 46.9981 -1.52886 -2.72089 0
M  V30 470 N 47.2992 1.18797 -1.03562 0
M  V30 471 C 48.5472 1.88278 -0.734569 0
M  V30 472 C 48.8682 1.8043 0.739586 0
M  V30 473 O 48.1382 1.21925 1.53333 0
M  V30 474 H 46.7182 0.696991 -0.268725 0
M  V30 475 H 49.3802 1.44192 -1.31129 0
M  V30 476 H 48.4762 2.94443 -1.03489 0
M  V30 477 N 48.7773 0.814389 1.34928 0
M  V30 478 C 50.0543 0.321363 1.92942 0
M  V30 479 C 50.4343 -1.19014 1.74353 0
M  V30 480 O 49.7823 -1.99328 1.11716 0
M  V30 481 C 49.9923 0.741323 3.41036 0
M  V30 482 C 51.3403 0.735266 4.18185 0
M  V30 483 O 52.3643 0.68336 3.49584 0
M  V30 484 O 51.2233 0.800703 5.40602 0
M  V30 485 H 48.3173 0.0858893 0.822528 0
M  V30 486 H 50.8633 0.898609 1.43955 0
M  V30 487 H 49.6353 1.78276 3.4833 0
M  V30 488 H 49.2583 0.139307 3.97356 0
M  V30 489 N 50.2554 -1.46986 0.568584 0
M  V30 490 C 51.5044 -2.01646 0.0465894 0
M  V30 491 C 51.8174 -1.44721 -1.31587 0
M  V30 492 O 53.0234 -1.91113 -1.92842 0
M  V30 493 C 51.4794 -3.59885 0.032752 0
M  V30 494 C 51.0874 -4.25804 1.39266 0
M  V30 495 C 52.8314 -4.22255 -0.436038 0
M  V30 496 C 50.7384 -5.76081 1.33732 0
M  V30 497 H 49.6684 -0.753876 0.013647 0
M  V30 498 H 52.3194 -1.68864 0.718131 0
M  V30 499 H 50.7014 -3.8968 -0.704669 0
M  V30 500 H 51.8754 -4.07637 2.1487 0
M  V30 501 H 50.1904 -3.7547 1.80032 0
M  V30 502 H 52.7874 -5.32394 -0.49602 0
M  V30 503 H 53.1304 -3.90212 -1.45053 0
M  V30 504 H 53.6634 -3.97033 0.246877 0
M  V30 505 H 50.4024 -6.12761 2.32817 0
M  V30 506 H 49.9224 -5.96553 0.623267 0
M  V30 507 H 51.6014 -6.38518 1.0442 0
M  V30 508 N 51.7335 -0.305618 -1.54608 0
M  V30 509 C 52.9585 0.307562 -2.05107 0
M  V30 510 C 53.3835 1.46385 -1.18123 0
M  V30 511 O 52.7415 1.8034 -0.186324 0
M  V30 512 C 52.7895 0.73704 -3.52987 0
M  V30 513 O 51.8935 1.84134 -3.6901 0
M  V30 514 H 51.2345 0.0589143 -0.661381 0
M  V30 515 H 53.7645 -0.448807 -1.99617 0
M  V30 516 H 53.7745 1.02459 -3.94925 0
M  V30 517 H 52.4495 -0.108773 -4.15758 0
M  V30 518 H 51.0265 1.55398 -3.38978 0
M  V30 519 N 53.2116 1.57565 -0.0334293 0
M  V30 520 C 54.4576 1.92262 0.645226 0
M  V30 521 C 54.7906 0.910543 1.71531 0
M  V30 522 O 54.0656 -0.066099 1.94388 0
M  V30 523 C 54.3486 3.37422 1.2577 0
M  V30 524 C 54.2016 4.49369 0.196891 0
M  V30 525 C 55.5206 3.82628 2.17449 0
M  V30 526 H 52.6396 0.699171 0.233085 0
M  V30 527 H 55.2816 1.89779 -0.0915694 0
M  V30 528 H 53.4316 3.39669 1.88566 0
M  V30 529 H 55.1036 4.59254 -0.433962 0
M  V30 530 H 53.3466 4.31168 -0.477137 0
M  V30 531 H 54.0176 5.47978 0.665124 0
M  V30 532 H 56.4936 3.82145 1.64634 0
M  V30 533 H 55.3696 4.84883 2.57254 0
M  V30 534 H 55.6306 3.18376 3.0674 0
M  V30 535 N 54.6897 -0.239769 1.55765 0
M  V30 536 C 55.6367 -1.29696 1.90913 0
M  V30 537 C 56.6067 -1.47478 0.764164 0
M  V30 538 O 57.7917 -1.61345 1.01845 0
M  V30 539 C 54.9317 -2.64598 2.21544 0
M  V30 540 C 54.0447 -2.54765 3.48882 0
M  V30 541 C 53.1797 -3.82069 3.69049 0
M  V30 542 C 52.2187 -3.66883 4.89963 0
M  V30 543 N 51.3557 -4.86094 5.06614 0
M  V30 544 H 56.1957 -0.990224 2.81067 0
M  V30 545 H 53.7327 -0.477684 1.39128 0
M  V30 546 H 55.6907 -3.43132 2.3731 0
M  V30 547 H 54.3207 -2.93405 1.34585 0
M  V30 548 H 53.3727 -1.67763 3.41409 0
M  V30 549 H 54.6847 -2.39457 4.37563 0
M  V30 550 H 53.8387 -4.69046 3.84812 0
M  V30 551 H 52.5777 -4.00282 2.78614 0
M  V30 552 H 51.5827 -2.78289 4.74168 0
M  V30 553 H 52.8077 -3.50157 5.81865 0
M  V30 554 H 50.7537 -5.04655 4.19117 0
M  V30 555 H 50.6707 -4.73443 5.89396 0
M  V30 556 H 51.9387 -5.74549 5.26795 0
M  V30 557 N 56.1678 -1.49265 -0.50573 0
M  V30 558 C 57.0778 -1.68312 -1.63427 0
M  V30 559 C 58.0938 -0.565682 -1.64548 0
M  V30 560 O 59.2698 -0.839801 -1.83055 0
M  V30 561 C 56.3348 -1.74107 -2.99813 0
M  V30 562 C 55.3958 -2.97653 -3.09356 0
M  V30 563 C 54.6288 -3.03163 -4.39236 0
M  V30 564 O 54.8518 -2.16396 -5.27758 0
M  V30 565 O 53.7858 -3.9558 -4.53652 0
M  V30 566 H 57.6118 -2.63907 -1.50289 0
M  V30 567 H 55.1968 -1.32951 -0.681502 0
M  V30 568 H 57.0788 -1.803 -3.80881 0
M  V30 569 H 55.7538 -0.816901 -3.13223 0
M  V30 570 H 54.6608 -2.96981 -2.27493 0
M  V30 571 H 55.9938 -3.89535 -3.00871 0
M  V30 572 N 57.6459 0.756429 -1.3826 0
M  V30 573 C 58.5759 1.88374 -1.37976 0
M  V30 574 C 59.5569 1.68311 -0.246082 0
M  V30 575 O 60.7419 1.88944 -0.44874 0
M  V30 576 C 57.8719 3.25864 -1.20125 0
M  V30 577 C 56.8259 3.60523 -2.30666 0
M  V30 578 C 56.1519 4.9672 -1.97923 0
M  V30 579 C 57.4519 3.65692 -3.72916 0
M  V30 580 H 59.1459 1.88869 -2.32312 0
M  V30 581 H 56.6919 0.907272 -1.11824 0
M  V30 582 H 58.6449 4.0438 -1.18552 0
M  V30 583 H 57.3689 3.25841 -0.222498 0
M  V30 584 H 56.0279 2.84324 -2.3142 0
M  V30 585 H 55.6759 4.93253 -0.985393 0
M  V30 586 H 55.3759 5.20878 -2.71955 0
M  V30 587 H 56.8999 5.77618 -1.97964 0
M  V30 588 H 58.3139 4.34328 -3.74208 0
M  V30 589 H 56.7109 4.01358 -4.4613 0
M  V30 590 H 57.7809 2.65987 -4.05436 0
M  V30 591 N 59.124 1.23083 0.984299 0
M  V30 592 C 60.372 1.05848 1.72165 0
M  V30 593 C 60.693 -0.406049 1.90726 0
M  V30 594 O 59.963 -1.29139 1.47309 0
M  V30 595 H 58.543 0.388685 0.637913 0
M  V30 596 H 61.205 1.54736 1.18503 0
M  V30 597 H 60.301 1.54327 2.71274 0
M  V30 598 N 60.6021 -1.18246 1.0419 0
M  V30 599 C 61.8301 -1.92195 0.766072 0
M  V30 600 C 62.2451 -1.76247 -0.676933 0
M  V30 601 O 61.6021 -1.09293 -1.46155 0
M  V30 602 C 61.6531 -3.43568 1.12442 0
M  V30 603 O 61.3741 -3.59015 2.51078 0
M  V30 604 C 62.8751 -4.34613 0.873275 0
M  V30 605 H 60.0951 -0.610114 0.279288 0
M  V30 606 H 62.6391 -1.50007 1.38989 0
M  V30 607 H 60.7941 -3.8354 0.545542 0
M  V30 608 H 61.2081 -4.5273 2.64831 0
M  V30 609 H 62.6821 -5.39374 1.17385 0
M  V30 610 H 63.1591 -4.38781 -0.191909 0
M  V30 611 H 63.7651 -4.00341 1.43551 0
M  V30 612 N 62.0802 -0.821533 -1.34494 0
M  V30 613 C 63.3262 -0.409552 -1.98622 0
M  V30 614 C 63.6592 1.0244 -1.64984 0
M  V30 615 O 62.9342 1.71325 -0.920758 0
M  V30 616 C 63.2172 -0.610458 -3.54888 0
M  V30 617 C 63.0702 -2.09043 -3.98273 0
M  V30 618 C 64.3892 -0.0455379 -4.40076 0
M  V30 619 H 61.5082 -0.15028 -0.721516 0
M  V30 620 H 64.1502 -1.03384 -1.59411 0
M  V30 621 H 62.3002 -0.079044 -3.8842 0
M  V30 622 H 63.9722 -2.68537 -3.75081 0
M  V30 623 H 62.2152 -2.58139 -3.48635 0
M  V30 624 H 62.8862 -2.18182 -5.07051 0
M  V30 625 H 65.3622 -0.499557 -4.1309 0
M  V30 626 H 64.2382 -0.215922 -5.48475 0
M  V30 627 H 64.4992 1.04939 -4.29465 0
M  V30 628 N 63.5583 1.46682 -0.576371 0
M  V30 629 C 64.4913 2.27243 0.208731 0
M  V30 630 C 65.4693 1.35238 0.902746 0
M  V30 631 O 66.6533 1.64641 0.917904 0
M  V30 632 C 63.7803 3.12802 1.29896 0
M  V30 633 C 62.8263 4.20524 0.711457 0
M  V30 634 S 63.6593 5.33548 -0.456781 0
M  V30 635 C 64.8153 6.22673 0.634798 0
M  V30 636 H 65.0483 2.93484 -0.474838 0
M  V30 637 H 62.5813 1.50069 -0.363118 0
M  V30 638 H 64.5393 3.62661 1.92321 0
M  V30 639 H 63.2003 2.45887 1.95444 0
M  V30 640 H 62.3933 4.80191 1.53076 0
M  V30 641 H 61.9953 3.73645 0.162999 0
M  V30 642 H 64.2873 6.60181 1.52209 0
M  V30 643 H 65.2303 7.0806 0.0750311 0
M  V30 644 H 65.6383 5.56684 0.936092 0
M  V30 645 N 65.0364 0.313813 1.54444 0
M  V30 646 C 66.4524 -0.0391619 1.59552 0
M  V30 647 C 66.6524 -1.51322 1.33056 0
M  V30 648 O 65.7084 -2.26782 1.11022 0
M  V30 649 C 67.0214 0.370302 2.98411 0
M  V30 650 C 68.5694 0.320139 3.11358 0
M  V30 651 C 69.0444 0.704617 4.52547 0
M  V30 652 N 70.5354 0.657645 4.58508 0
M  V30 653 C 71.2704 0.927453 5.6585 0
M  V30 654 N 70.7664 1.26389 6.81174 0
M  V30 655 N 72.5594 0.853662 5.5558 0
M  V30 656 H 64.7104 1.27433 1.69925 0
M  V30 657 H 66.9734 0.517511 0.794284 0
M  V30 658 H 66.6794 1.39694 3.22767 0
M  V30 659 H 66.5534 -0.269619 3.76235 0
M  V30 660 H 68.9404 -0.697275 2.86744 0
M  V30 661 H 69.0214 0.99486 2.35661 0
M  V30 662 H 68.6654 1.7199 4.77893 0
M  V30 663 H 68.5954 0.00768843 5.26599 0
M  V30 664 H 71.0864 0.409067 3.75679 0
M  V30 665 H 71.3994 1.4554 7.58972 0
M  V30 666 H 69.7444 1.30206 6.82694 0
M  V30 667 H 72.9354 0.590383 4.64362 0
M  V30 668 H 73.1084 1.0673 6.3915 0
M  V30 669 N 66.5145 -1.57545 0.0417849 0
M  V30 670 C 67.4475 -2.06514 -0.970928 0
M  V30 671 C 68.4255 -0.963607 -1.30971 0
M  V30 672 O 69.6095 -1.23486 -1.4242 0
M  V30 673 C 66.7365 -2.4978 -2.28752 0
M  V30 674 C 65.7825 -3.71078 -2.10246 0
M  V30 675 S 66.6155 -5.17158 -1.38952 0
M  V30 676 C 67.7715 -5.6373 -2.71954 0
M  V30 677 H 68.0045 -2.9209 -0.554129 0
M  V30 678 H 65.5375 -1.53459 -0.17024 0
M  V30 679 H 67.4955 -2.75371 -3.04435 0
M  V30 680 H 66.1565 -1.64527 -2.67562 0
M  V30 681 H 65.3495 -3.9924 -3.07609 0
M  V30 682 H 64.9515 -3.45705 -1.42704 0
M  V30 683 H 67.2435 -5.68743 -3.68154 0
M  V30 684 H 68.1865 -6.63086 -2.4844 0
M  V30 685 H 68.5945 -4.91424 -2.77782 0
M  V30 686 N 67.9926 0.231505 -1.5589 0
M  V30 687 C 68.9226 1.29022 -1.94617 0
M  V30 688 C 69.9036 1.4941 -0.813067 0
M  V30 689 O 71.0886 1.6176 -1.07459 0
M  V30 690 C 68.2186 2.64199 -2.25424 0
M  V30 691 C 67.1726 2.58484 -3.41131 0
M  V30 692 C 66.4986 3.97599 -3.57518 0
M  V30 693 C 67.7986 2.1413 -4.76388 0
M  V30 694 H 69.4926 0.968563 -2.83301 0
M  V30 695 H 67.0386 0.464479 -1.36303 0
M  V30 696 H 68.9916 3.38413 -2.51107 0
M  V30 697 H 67.7156 2.98032 -1.33583 0
M  V30 698 H 66.3746 1.86727 -3.15481 0
M  V30 699 H 66.0226 4.28723 -2.6307 0
M  V30 700 H 65.7226 3.94659 -4.35337 0
M  V30 701 H 67.2466 4.7349 -3.85538 0
M  V30 702 H 68.6606 2.78083 -5.01341 0
M  V30 703 H 67.0576 2.2227 -5.57419 0
M  V30 704 H 68.1276 1.09331 -4.72414 0
M  V30 705 N 69.4707 1.49531 0.497807 0
M  V30 706 C 70.7187 1.58865 1.24926 0
M  V30 707 C 71.0397 0.278721 1.92998 0
M  V30 708 O 70.3097 -0.702144 1.82885 0
M  V30 709 H 68.8897 0.585343 0.464094 0
M  V30 710 H 71.5517 1.86174 0.57666 0
M  V30 711 H 70.6477 2.38633 2.01149 0
M  V30 712 N 70.9488 -0.749086 1.3866 0
M  V30 713 C 71.8808 -1.87273 1.32142 0
M  V30 714 C 72.8938 -1.61127 0.232787 0
M  V30 715 O 74.0828 -1.71623 0.49069 0
M  V30 716 C 71.1828 -3.23005 1.02571 0
M  V30 717 C 70.3558 -3.7662 2.22433 0
M  V30 718 C 69.4148 -4.90879 1.89537 0
M  V30 719 O 68.4408 -5.05276 2.62078 0
M  V30 720 N 69.6428 -5.74198 0.853031 0
M  V30 721 H 72.4078 -1.93373 2.28969 0
M  V30 722 H 69.9688 -0.929216 1.32579 0
M  V30 723 H 71.9608 -3.96992 0.786085 0
M  V30 724 H 70.5308 -3.12262 0.145249 0
M  V30 725 H 69.7508 -2.94147 2.62434 0
M  V30 726 H 71.0388 -4.09173 3.02415 0
M  V30 727 H 70.4368 -5.6514 0.25155 0
M  V30 728 H 68.9938 -6.48313 0.67329 0
M  V30 729 N 72.4269 -1.23603 -0.977757 0
M  V30 730 C 73.6549 -1.09646 -1.75458 0
M  V30 731 C 74.0699 0.351859 -1.85492 0
M  V30 732 O 73.4269 1.24327 -1.336 0
M  V30 733 C 73.4779 -1.71895 -3.18016 0
M  V30 734 O 73.1989 -3.11063 -3.08498 0
M  V30 735 C 74.6999 -1.63415 -4.12081 0
M  V30 736 H 71.9199 -0.38359 -0.550545 0
M  V30 737 H 74.4639 -1.63507 -1.22824 0
M  V30 738 H 72.6189 -1.22061 -3.67668 0
M  V30 739 H 73.0329 -3.41305 -3.9826 0
M  V30 740 H 74.5069 -2.11669 -5.09804 0
M  V30 741 H 74.9839 -0.593462 -4.35172 0
M  V30 742 H 75.5899 -2.12628 -3.68334 0
M  V30 743 N 73.905 1.17692 -1.04816 0
M  V30 744 C 75.316 1.69501 -0.782698 0
M  V30 745 C 75.667 1.83456 0.695577 0
M  V30 746 O 74.792 1.51942 1.54086 0
M  V30 747 C 75.387 3.07874 -1.41419 0
M  V30 748 C 73.946 3.56864 -1.19686 0
M  V30 749 C 73.093 2.3322 -1.50012 0
M  V30 750 H 76.044 1.02262 -1.2136 0
M  V30 751 H 76.065 3.71528 -0.821428 0
M  V30 752 H 75.577 2.97685 -2.49009 0
M  V30 753 H 73.678 3.72337 -0.140043 0
M  V30 754 H 73.791 4.39851 -1.89916 0
M  V30 755 H 72.155 2.37501 -0.920071 0
M  V30 756 H 72.938 2.25644 -2.58727 0
M  V30 757 N 75.3831 0.828654 1.34056 0
M  V30 758 C 76.6111 0.43262 2.02326 0
M  V30 759 C 77.0261 -0.963147 1.62385 0
M  V30 760 O 76.3831 -1.62425 0.832121 0
M  V30 761 C 76.4341 0.53182 3.57567 0
M  V30 762 O 76.1551 1.87258 3.96063 0
M  V30 763 C 77.6561 0.131422 4.43105 0
M  V30 764 H 74.8761 0.172923 0.648335 0
M  V30 765 H 77.4201 1.1184 1.71208 0
M  V30 766 H 75.5751 -0.105938 3.87255 0
M  V30 767 H 75.9891 1.85087 4.90758 0
M  V30 768 H 77.4631 0.251904 5.51425 0
M  V30 769 H 77.9401 -0.925645 4.29335 0
M  V30 770 H 78.5461 0.743207 4.18756 0
M  V30 771 N 76.8612 -1.46375 0.584142 0
M  V30 772 C 77.8082 -2.30323 -0.148286 0
M  V30 773 C 78.7782 -1.40703 -0.882713 0
M  V30 774 O 79.9632 -1.69651 -0.873099 0
M  V30 775 C 77.1032 -3.25196 -1.15507 0
M  V30 776 C 76.2162 -4.29915 -0.423943 0
M  V30 777 C 75.3512 -5.11914 -1.41838 0
M  V30 778 C 74.3902 -6.08381 -0.673736 0
M  V30 779 N 73.5272 -6.83242 -1.6163 0
M  V30 780 H 78.3672 -2.92427 0.573644 0
M  V30 781 H 75.9042 -1.44118 0.294703 0
M  V30 782 H 77.8622 -3.78646 -1.75166 0
M  V30 783 H 76.4922 -2.64898 -1.8447 0
M  V30 784 H 75.5442 -3.7931 0.287714 0
M  V30 785 H 76.8562 -4.98549 0.158128 0
M  V30 786 H 76.0102 -5.69648 -2.08773 0
M  V30 787 H 74.7492 -4.43243 -2.03438 0
M  V30 788 H 73.7542 -5.49799 0.00938483 0
M  V30 789 H 74.9792 -6.79071 -0.0631082 0
M  V30 790 H 72.9252 -6.1728 -2.22038 0
M  V30 791 H 72.8422 -7.48144 -1.08707 0
M  V30 792 H 74.1102 -7.45534 -2.27596 0
M  V30 793 N 78.3393 -0.321999 -1.54275 0
M  V30 794 C 79.2493 0.553631 -2.27974 0
M  V30 795 C 80.2653 1.13054 -1.32268 0
M  V30 796 O 81.4413 1.15084 -1.6528 0
M  V30 797 C 78.5063 1.69927 -3.02201 0
M  V30 798 C 77.5673 1.15433 -4.1349 0
M  V30 799 C 76.8003 2.24537 -4.84168 0
M  V30 800 O 77.0233 3.44852 -4.5435 0
M  V30 801 O 75.9573 1.90044 -5.7111 0
M  V30 802 H 79.7833 -0.0448345 -3.03667 0
M  V30 803 H 77.3683 -0.0877418 -1.49142 0
M  V30 804 H 79.2503 2.3663 -3.48689 0
M  V30 805 H 77.9253 2.28395 -2.29385 0
M  V30 806 H 76.8323 0.452436 -3.71354 0
M  V30 807 H 78.1653 0.614805 -4.88345 0
M  V30 808 N 79.8174 1.5752 -0.0501392 0
M  V30 809 C 80.7274 2.14952 0.939827 0
M  V30 810 C 81.7434 1.10706 1.34239 0
M  V30 811 O 82.9194 1.42869 1.41952 0
M  V30 812 C 79.9844 2.68232 2.19665 0
M  V30 813 C 79.0454 3.87272 1.85253 0
M  V30 814 C 78.2784 4.38002 3.04943 0
M  V30 815 O 78.5014 3.87811 4.18281 0
M  V30 816 O 77.4354 5.29602 2.86017 0
M  V30 817 H 81.2614 2.9986 0.481392 0
M  V30 818 H 78.8464 1.4841 0.171699 0
M  V30 819 H 80.7284 3.02475 2.93406 0
M  V30 820 H 79.4034 1.86395 2.64648 0
M  V30 821 H 78.3104 3.5792 1.0883 0
M  V30 822 H 79.6434 4.70336 1.4507 0
M  V30 823 N 81.2955 -0.223234 1.56011 0
M  V30 824 C 82.2255 -1.27988 1.95298 0
M  V30 825 C 83.2065 -1.48976 0.820979 0
M  V30 826 O 84.3915 -1.61188 1.08315 0
M  V30 827 C 81.5215 -2.63 2.26822 0
M  V30 828 C 80.4755 -2.56671 3.42497 0
M  V30 829 C 79.8015 -3.95697 3.59622 0
M  V30 830 C 81.1015 -2.11601 4.77517 0
M  V30 831 H 82.7955 -0.953525 2.8381 0
M  V30 832 H 80.3415 -0.457244 1.36548 0
M  V30 833 H 82.2945 -3.37077 2.52898 0
M  V30 834 H 81.0185 -2.9732 1.35161 0
M  V30 835 H 79.6775 -1.85051 3.16467 0
M  V30 836 H 79.3255 -4.27322 2.6534 0
M  V30 837 H 79.0255 -3.92345 4.37424 0
M  V30 838 H 80.5495 -4.71438 3.88044 0
M  V30 839 H 81.9635 -2.7542 5.02809 0
M  V30 840 H 80.3605 -2.19311 5.5859 0
M  V30 841 H 81.4305 -1.06824 4.72987 0
M  V30 842 N 82.7736 -1.49793 -0.48987 0
M  V30 843 C 84.0506 -1.50348 -1.25119 0
M  V30 844 C 84.4306 -0.237466 -2.0976 0
M  V30 845 O 83.7786 0.77981 -2.14782 0
M  V30 846 C 83.9886 -2.78872 -2.09837 0
M  V30 847 C 85.3366 -3.288 -2.68655 0
M  V30 848 O 86.3606 -2.80065 -2.20096 0
M  V30 849 O 85.2196 -4.13707 -3.57083 0
M  V30 850 H 82.3136 -0.602242 -0.566775 0
M  V30 851 H 84.8596 -1.62067 -0.503229 0
M  V30 852 H 83.6316 -3.62499 -1.47343 0
M  V30 853 H 83.2546 -2.70066 -2.91805 0
M  V30 854 N 84.2517 0.741722 -1.39055 0
M  V30 855 C 85.2147 1.83733 -1.37021 0
M  V30 856 C 86.2147 1.58542 -0.268534 0
M  V30 857 O 87.4047 1.66067 -0.526076 0
M  V30 858 C 84.5367 3.2141 -1.13617 0
M  V30 859 H 85.7297 1.86941 -2.34506 0
M  V30 860 H 83.2827 0.944676 -1.24521 0
M  V30 861 H 84.0177 3.23865 -0.167863 0
M  V30 862 H 83.8027 3.4109 -1.93391 0
M  V30 863 H 85.2927 4.01477 -1.14918 0
M  V30 864 N 85.7298 1.2412 0.971189 0
M  V30 865 C 86.9788 1.07284 1.70801 0
M  V30 866 C 87.2918 -0.388902 1.91695 0
M  V30 867 O 88.4978 -0.677379 2.62914 0
M  V30 868 C 86.9538 1.87145 3.07416 0
M  V30 869 C 86.5618 3.37707 2.94377 0
M  V30 870 C 88.3058 1.78828 3.84995 0
M  V30 871 C 86.2128 4.09925 4.26281 0
M  V30 872 H 85.1428 0.397854 0.64049 0
M  V30 873 H 87.7938 1.4817 1.0825 0
M  V30 874 H 86.1758 1.39071 3.70777 0
M  V30 875 H 87.3498 3.93335 2.4005 0
M  V30 876 H 85.6648 3.46938 2.30267 0
M  V30 877 H 88.2618 2.30089 4.82662 0
M  V30 878 H 88.6048 0.75284 4.09436 0
M  V30 879 H 89.1378 2.24563 3.28354 0
M  V30 880 H 85.8768 5.13813 4.07033 0
M  V30 881 H 85.3968 3.59083 4.80437 0
M  V30 882 H 87.0758 4.1673 4.94919 0
M  V30 883 N 87.2079 -1.17134 1.05439 0
M  V30 884 C 88.4569 -1.86791 0.761049 0
M  V30 885 C 88.7699 -1.82072 -0.714795 0
M  V30 886 O 89.9759 -2.47223 -1.12218 0
M  V30 887 C 88.4319 -3.35166 1.31117 0
M  V30 888 C 88.0399 -3.48381 2.81664 0
M  V30 889 C 89.7839 -4.10134 1.09499 0
M  V30 890 C 87.6909 -4.90793 3.29964 0
M  V30 891 H 86.6209 -0.699681 0.281002 0
M  V30 892 H 89.2719 -1.3226 1.27199 0
M  V30 893 H 87.6539 -3.8925 0.72803 0
M  V30 894 H 88.8279 -3.04502 3.45855 0
M  V30 895 H 87.1429 -2.86836 3.01851 0
M  V30 896 H 89.7399 -5.152 1.43084 0
M  V30 897 H 90.0829 -4.16287 0.0328772 0
M  V30 898 H 90.6159 -3.62264 1.64346 0
M  V30 899 H 87.3549 -4.89816 4.35616 0
M  V30 900 H 86.8749 -5.35333 2.70516 0
M  V30 901 H 88.5539 -5.59573 3.24787 0
M  V30 902 N 88.686 -0.835752 -1.33615 0
M  V30 903 C 89.596 -0.269088 -2.33052 0
M  V30 904 C 90.612 0.603251 -1.63208 0
M  V30 905 O 91.788 0.508112 -1.94885 0
M  V30 906 C 88.853 0.549091 -3.42324 0
M  V30 907 C 87.914 -0.347156 -4.27894 0
M  V30 908 C 87.147 0.43207 -5.31948 0
M  V30 909 O 87.37 1.66409 -5.45586 0
M  V30 910 O 86.304 -0.192298 -6.01593 0
M  V30 911 H 90.13 -1.09243 -2.83372 0
M  V30 912 H 87.715 -0.598198 -1.36901 0
M  V30 913 H 89.597 1.01414 -4.09015 0
M  V30 914 H 88.272 1.34955 -2.94226 0
M  V30 915 H 87.179 -0.859979 -3.64081 0
M  V30 916 H 88.512 -1.1123 -4.79467 0
M  V30 917 N 90.1641 1.46063 -0.591896 0
M  V30 918 C 91.0741 2.34192 0.13831 0
M  V30 919 C 92.0901 1.50305 0.876608 0
M  V30 920 O 93.2661 1.8315 0.837728 0
M  V30 921 C 90.3311 3.27656 1.13326 0
M  V30 922 C 89.3921 4.27445 0.39863 0
M  V30 923 C 88.6251 5.16443 1.34618 0
M  V30 924 O 88.8481 5.08553 2.58321 0
M  V30 925 O 87.7821 5.95843 0.851768 0
M  V30 926 H 91.6081 2.98002 -0.58552 0
M  V30 927 H 89.1931 1.45188 -0.352239 0
M  V30 928 H 91.0751 3.85291 1.70671 0
M  V30 929 H 89.7501 2.6643 1.83839 0
M  V30 930 H 88.6571 3.73471 -0.216895 0
M  V30 931 H 89.9901 4.91482 -0.265709 0
M  V30 932 N 91.6422 0.330177 1.54103 0
M  V30 933 C 92.8882 -0.270806 2.00984 0
M  V30 934 C 93.2212 -1.51265 1.21789 0
M  V30 935 O 92.4962 -1.92142 0.301927 0
M  V30 936 C 92.7792 -0.598339 3.55094 0
M  V30 937 C 92.6322 0.654674 4.4501 0
M  V30 938 C 93.9512 -1.41334 4.16789 0
M  V30 939 H 91.0702 -0.0969531 0.730595 0
M  V30 940 H 93.7122 0.448066 1.84641 0
M  V30 941 H 91.8622 -1.21078 3.69151 0
M  V30 942 H 93.5342 1.29285 4.42813 0
M  V30 943 H 91.7772 1.28224 4.14416 0
M  V30 944 H 92.4482 0.380944 5.50684 0
M  V30 945 H 94.9242 -0.895597 4.06347 0
M  V30 946 H 93.8002 -1.61127 5.24718 0
M  V30 947 H 94.0612 -2.41146 3.70541 0
M  V30 948 N 93.1203 -1.57491 0.0584922 0
M  V30 949 C 94.3973 -1.84346 -0.653918 0
M  V30 950 C 94.7773 -0.948355 -1.88599 0
M  V30 951 O 94.1253 -0.0112403 -2.28497 0
M  V30 952 C 94.3353 -3.34239 -1.00425 0
M  V30 953 C 95.6833 -4.01431 -1.38342 0
M  V30 954 O 96.7073 -3.38907 -1.09637 0
M  V30 955 O 95.5663 -5.11683 -1.91943 0
M  V30 956 H 92.6603 -0.761112 -0.323478 0
M  V30 957 H 95.2063 -1.6947 0.0884125 0
M  V30 958 H 93.9783 -3.91089 -0.128625 0
M  V30 959 H 93.6013 -3.54329 -1.80378 0
M  V30 960 N 94.5984 0.214957 -1.56127 0
M  V30 961 C 95.5084 1.28727 -1.96129 0
M  V30 962 C 96.5244 1.50916 -0.866044 0
M  V30 963 O 97.7004 1.63918 -1.17016 0
M  V30 964 C 94.7654 2.61569 -2.27558 0
M  V30 965 C 93.8264 2.47625 -3.50685 0
M  V30 966 C 93.0594 3.74132 -3.80606 0
M  V30 967 O 93.2824 4.77438 -3.12104 0
M  V30 968 O 92.2164 3.70849 -4.74083 0
M  V30 969 H 96.0424 0.977855 -2.87527 0
M  V30 970 H 93.6274 0.418358 -1.43423 0
M  V30 971 H 95.5094 3.40012 -2.48938 0
M  V30 972 H 94.1844 2.92178 -1.39332 0
M  V30 973 H 93.0914 1.67361 -3.34576 0
M  V30 974 H 94.4244 2.21954 -4.39315 0
M  V30 975 N 96.0765 1.50051 0.48192 0
M  V30 976 C 97.3535 1.51009 1.2432 0
M  V30 977 C 97.7335 0.248587 2.09631 0
M  V30 978 O 97.0815 -0.768409 2.15192 0
M  V30 979 C 97.2915 2.79981 2.08355 0
M  V30 980 C 98.6395 3.3022 2.66908 0
M  V30 981 O 99.6635 2.81228 2.18607 0
M  V30 982 O 98.5225 4.15595 3.54884 0
M  V30 983 H 95.6165 0.605239 0.563573 0
M  V30 984 H 98.1625 1.62332 0.494627 0
M  V30 985 H 96.9345 3.63275 1.45419 0
M  V30 986 H 96.5575 2.7161 2.90368 0
M  V30 987 N 97.5546 -0.734337 1.39446 0
M  V30 988 C 98.8026 -1.49096 1.36436 0
M  V30 989 C 99.1236 -1.94961 -0.0388255 0
M  V30 990 O 98.3936 -1.69033 -0.990191 0
M  V30 991 H 96.9736 -0.5531 0.502085 0
M  V30 992 H 99.6356 -0.871725 1.74319 0
M  V30 993 H 98.7316 -2.37276 2.02747 0
M  V30 994 N 99.0327 -1.24633 -0.964593 0
M  V30 995 C 100.258 -1.11596 -1.74818 0
M  V30 996 C 100.683 0.32723 -1.85232 0
M  V30 997 O 100.041 1.23695 -1.32549 0
M  V30 998 C 100.089 -1.76397 -3.1451 0
M  V30 999 O 99.1927 -1.03685 -3.99153 0
M  V30 1000 H 98.5337 -0.390196 -0.537255 0
M  V30 1001 H 101.064 -1.65002 -1.20977 0
M  V30 1002 H 101.074 -1.8228 -3.65018 0
M  V30 1003 H 99.7487 -2.81401 -3.06246 0
M  V30 1004 H 98.3257 -1.05611 -3.57632 0
M  V30 1005 N 100.511 1.16574 -1.06058 0
M  V30 1006 C 101.759 1.86677 -0.77434 0
M  V30 1007 C 102.08 1.81959 0.701147 0
M  V30 1008 O 101.35 1.2515 1.50713 0
M  V30 1009 H 99.9298 0.691134 -0.283449 0
M  V30 1010 H 102.592 1.41378 -1.34158 0
M  V30 1011 H 101.688 2.92181 -1.09711 0
M  V30 1012 N 101.989 0.842826 1.3317 0
M  V30 1013 C 103.217 0.454055 2.01856 0
M  V30 1014 C 103.632 -0.94587 1.63397 0
M  V30 1015 O 102.989 -1.61534 0.849302 0
M  V30 1016 C 103.04 0.569715 3.56982 0
M  V30 1017 O 102.761 1.91448 3.94055 0
M  V30 1018 C 104.262 0.178412 4.42941 0
M  V30 1019 H 101.482 0.17979 0.646465 0
M  V30 1020 H 104.026 1.1365 1.70012 0
M  V30 1021 H 102.181 -0.0648587 3.87346 0
M  V30 1022 H 102.595 1.90282 4.88767 0
M  V30 1023 H 104.069 0.310376 5.51127 0
M  V30 1024 H 104.546 -0.880056 4.30293 0
M  V30 1025 H 105.152 0.787579 4.17944 0
M  V30 1026 N 103.467 -1.45747 0.599634 0
M  V30 1027 C 104.716 -2.01502 0.0893511 0
M  V30 1028 C 105.029 -1.4748 -1.28488 0
M  V30 1029 O 106.235 -1.95161 -1.88745 0
M  V30 1030 C 104.691 -3.59735 0.109082 0
M  V30 1031 C 104.299 -4.22754 1.48267 0
M  V30 1032 C 106.043 -4.23085 -0.346374 0
M  V30 1033 C 103.95 -5.73115 1.45921 0
M  V30 1034 H 102.88 -0.753417 0.0296347 0
M  V30 1035 H 105.531 -1.67303 0.753788 0
M  V30 1036 H 103.913 -3.91087 -0.621854 0
M  V30 1037 H 105.087 -4.02987 2.23468 0
M  V30 1038 H 103.402 -3.71567 1.87955 0
M  V30 1039 H 105.999 -5.33327 -0.38298 0
M  V30 1040 H 106.342 -3.93201 -1.36743 0
M  V30 1041 H 106.875 -3.9642 0.331038 0
M  V30 1042 H 103.614 -6.07685 2.45762 0
M  V30 1043 H 103.134 -5.95097 0.749665 0
M  V30 1044 H 104.813 -6.3616 1.17941 0
M  V30 1045 N 104.945 -0.338344 -1.53925 0
M  V30 1046 C 106.222 0.314774 -1.93051 0
M  V30 1047 C 106.602 1.68669 -1.26941 0
M  V30 1048 O 105.95 2.24636 -0.418445 0
M  V30 1049 C 106.16 0.392249 -3.46789 0
M  V30 1050 C 107.508 0.645554 -4.19664 0
M  V30 1051 O 108.532 0.474575 -3.53024 0
M  V30 1052 O 107.391 0.976408 -5.37707 0
M  V30 1053 H 104.485 0.182598 -0.80659 0
M  V30 1054 H 107.031 -0.389141 -1.65178 0
M  V30 1055 H 105.803 -0.570702 -3.87116 0
M  V30 1056 H 105.426 1.14316 -3.80812 0
M  V30 1057 N 106.423 1.57458 -0.0668435 0
M  V30 1058 C 107.67 1.93301 0.603406 0
M  V30 1059 C 107.998 0.946486 1.69917 0
M  V30 1060 O 107.253 -0.0387021 1.95662 0
M  V30 1061 C 107.552 3.35784 1.22409 0
M  V30 1062 C 107.218 4.50179 0.254955 0
M  V30 1063 C 105.88 4.81199 -0.0116746 0
M  V30 1064 C 108.232 5.19598 -0.408338 0
M  V30 1065 C 105.56 5.78978 -0.94877 0
M  V30 1066 C 107.912 6.18381 -1.33372 0
M  V30 1067 C 106.576 6.47821 -1.60887 0
M  V30 1068 H 105.846 0.707338 0.220802 0
M  V30 1069 H 108.493 1.91012 -0.136665 0
M  V30 1070 H 106.798 3.34515 2.03978 0
M  V30 1071 H 108.495 3.60804 1.74989 0
M  V30 1072 H 105.085 4.25983 0.472954 0
M  V30 1073 H 109.269 4.95832 -0.215456 0
M  V30 1074 H 104.525 6.00115 -1.16925 0
M  V30 1075 H 108.699 6.71277 -1.85367 0
M  V30 1076 H 106.326 7.23399 -2.33661 0
M  V30 1077 N 107.901 -0.206675 1.56239 0
M  V30 1078 C 108.811 -1.27686 1.96808 0
M  V30 1079 C 109.827 -1.50455 0.874035 0
M  V30 1080 O 111.003 -1.63295 1.17884 0
M  V30 1081 C 108.068 -2.60358 2.28942 0
M  V30 1082 C 107.129 -2.45762 3.51994 0
M  V30 1083 C 106.362 -3.72108 3.82585 0
M  V30 1084 O 106.585 -4.75776 3.14631 0
M  V30 1085 O 105.519 -3.6833 4.76043 0
M  V30 1086 H 109.345 -0.962593 2.88041 0
M  V30 1087 H 106.93 -0.410746 1.43643 0
M  V30 1088 H 108.812 -3.38687 2.50737 0
M  V30 1089 H 107.487 -2.91435 1.4088 0
M  V30 1090 H 106.394 -1.65584 3.35459 0
M  V30 1091 H 107.727 -2.19621 4.40486 0
M  V30 1092 N 109.379 -1.50304 -0.473955 0
M  V30 1093 C 110.289 -1.7174 -1.5982 0
M  V30 1094 C 111.305 -0.600457 -1.63311 0
M  V30 1095 O 112.481 -0.878441 -1.81233 0
M  V30 1096 C 109.546 -1.80427 -2.96052 0
M  V30 1097 C 108.607 -3.04148 -3.02972 0
M  V30 1098 C 107.84 -3.12411 -4.32706 0
M  V30 1099 O 108.063 -2.27542 -5.23049 0
M  V30 1100 O 106.997 -4.05113 -4.45159 0
M  V30 1101 H 110.823 -2.67035 -1.44657 0
M  V30 1102 H 108.408 -1.34366 -0.653148 0
M  V30 1103 H 110.29 -1.88338 -3.7697 0
M  V30 1104 H 108.965 -0.883156 -3.11419 0
M  V30 1105 H 107.872 -3.0174 -2.21142 0
M  V30 1106 H 109.205 -3.95829 -2.92541 0
M  V30 1107 N 110.857 0.726932 -1.39834 0
M  V30 1108 C 112.104 1.48664 -1.37496 0
M  V30 1109 C 112.432 1.94482 0.0264678 0
M  V30 1110 O 111.687 1.67692 1.00886 0
M  V30 1111 C 111.986 2.73495 -2.30077 0
M  V30 1112 C 111.652 2.46502 -3.77555 0
M  V30 1113 C 110.314 2.3885 -4.17737 0
M  V30 1114 C 112.666 2.23604 -4.70798 0
M  V30 1115 C 109.994 2.06352 -5.49214 0
M  V30 1116 C 112.346 1.92622 -6.02561 0
M  V30 1117 C 111.01 1.83444 -6.41798 0
M  V30 1118 H 110.28 0.544001 -0.503135 0
M  V30 1119 H 112.927 0.833657 -1.72402 0
M  V30 1120 H 111.232 3.43575 -1.88317 0
M  V30 1121 H 112.929 3.31549 -2.25558 0
M  V30 1122 H 109.519 2.5334 -3.45712 0
M  V30 1123 H 113.703 2.28479 -4.40581 0
M  V30 1124 H 108.959 1.97776 -5.78528 0
M  V30 1125 H 113.133 1.73914 -6.74334 0
M  V30 1126 H 110.76 1.58029 -7.43593 0
M  V30 1127 N 112.336 1.25143 0.95797 0
M  V30 1128 C 113.266 1.07711 2.07173 0
M  V30 1129 C 114.247 -0.0128462 1.70095 0
M  V30 1130 O 115.432 0.156061 1.93572 0
M  V30 1131 C 112.562 0.691503 3.40346 0
M  V30 1132 C 111.516 1.73132 3.9142 0
M  V30 1133 C 110.842 1.20049 5.21049 0
M  V30 1134 C 112.142 3.1294 4.1817 0
M  V30 1135 H 113.836 2.00873 2.22014 0
M  V30 1136 H 111.382 0.967191 1.06684 0
M  V30 1137 H 113.335 0.556505 4.17709 0
M  V30 1138 H 112.059 -0.275819 3.25433 0
M  V30 1139 H 110.718 1.8547 3.16222 0
M  V30 1140 H 110.366 0.223499 5.02503 0
M  V30 1141 H 110.066 1.89545 5.56189 0
M  V30 1142 H 111.59 1.07782 6.01012 0
M  V30 1143 H 113.004 3.03775 4.86203 0
M  V30 1144 H 111.401 3.79875 4.64559 0
M  V30 1145 H 112.471 3.6025 3.24573 0
M  V30 1146 N 113.814 -1.1601 1.06675 0
M  V30 1147 C 115.06 -1.86909 0.786945 0
M  V30 1148 C 115.393 -1.81717 -0.685018 0
M  V30 1149 O 114.668 -1.23551 -1.50218 0
M  V30 1150 C 114.951 -3.36313 1.28707 0
M  V30 1151 C 114.804 -3.50175 2.82308 0
M  V30 1152 C 116.123 -4.3084 0.898071 0
M  V30 1153 H 113.242 -0.678677 0.287343 0
M  V30 1154 H 115.884 -1.36336 1.32334 0
M  V30 1155 H 114.034 -3.79513 0.830768 0
M  V30 1156 H 115.706 -3.15886 3.36175 0
M  V30 1157 H 113.949 -2.91959 3.20847 0
M  V30 1158 H 114.62 -4.55116 3.12368 0
M  V30 1159 H 117.096 -3.95561 1.29114 0
M  V30 1160 H 115.972 -5.33876 1.27543 0
M  V30 1161 H 116.233 -4.41662 -0.196651 0
M  V30 1162 N 115.292 -0.849877 -1.32721 0
M  V30 1163 C 116.225 -0.235903 -2.26977 0
M  V30 1164 C 117.203 0.623355 -1.50177 0
M  V30 1165 O 118.387 0.581207 -1.79316 0
M  V30 1166 C 115.514 0.667712 -3.32053 0
M  V30 1167 C 114.56 -0.11753 -4.26338 0
M  V30 1168 S 115.393 -1.48277 -5.14562 0
M  V30 1169 C 116.549 -0.584741 -6.23163 0
M  V30 1170 H 116.782 -1.03495 -2.78704 0
M  V30 1171 H 114.315 -0.64724 -1.40179 0
M  V30 1172 H 116.273 1.18343 -3.93072 0
M  V30 1173 H 114.934 1.44052 -2.7912 0
M  V30 1174 H 114.127 0.57051 -5.00761 0
M  V30 1175 H 113.729 -0.564668 -3.69713 0
M  V30 1176 H 116.021 0.212968 -6.77165 0
M  V30 1177 H 116.964 -1.29947 -6.96074 0
M  V30 1178 H 117.372 -0.161202 -5.6427 0
M  V30 1179 N 116.77 1.45427 -0.607355 0
M  V30 1180 C 117.703 2.27635 0.160482 0
M  V30 1181 C 118.681 1.37122 0.873857 0
M  V30 1182 O 119.865 1.66551 0.882775 0
M  V30 1183 C 116.992 3.15486 1.23231 0
M  V30 1184 C 116.038 4.21939 0.622097 0
M  V30 1185 S 116.871 5.32459 -0.569852 0
M  V30 1186 C 118.027 6.23879 0.502577 0
M  V30 1187 H 118.26 2.9241 -0.536983 0
M  V30 1188 H 115.793 1.49265 -0.394868 0
M  V30 1189 H 117.751 3.66659 1.84585 0
M  V30 1190 H 116.412 2.49977 1.90185 0
M  V30 1191 H 115.605 4.8333 1.42856 0
M  V30 1192 H 115.207 3.73906 0.0837063 0
M  V30 1193 H 117.499 6.63261 1.38171 0
M  V30 1194 H 118.442 7.0806 -0.0751759 0
M  V30 1195 H 118.85 5.58545 0.8178 0
M  V30 1196 N 118.248 0.346503 1.53744 0
M  V30 1197 C 119.494 -0.249473 2.0126 0
M  V30 1198 C 119.827 -1.49965 1.23386 0
M  V30 1199 O 119.102 -1.91811 0.32229 0
M  V30 1200 C 119.385 -0.560643 3.55709 0
M  V30 1201 C 119.238 0.701836 4.44291 0
M  V30 1202 C 120.557 -1.36905 4.18264 0
M  V30 1203 H 117.676 -0.0891987 0.731582 0
M  V30 1204 H 120.318 0.467624 1.84156 0
M  V30 1205 H 118.468 -1.17156 3.70414 0
M  V30 1206 H 120.14 1.33974 4.41417 0
M  V30 1207 H 118.383 1.32612 4.13033 0
M  V30 1208 H 119.054 0.43933 5.50249 0
M  V30 1209 H 121.53 -0.852448 4.07275 0
M  V30 1210 H 120.406 -1.55553 5.26398 0
M  V30 1211 H 120.667 -2.37203 3.73078 0
M  V30 1212 N 119.726 -1.57421 0.075193 0
M  V30 1213 C 121.142 -1.57099 -0.281444 0
M  V30 1214 C 121.342 -1.08486 -1.69803 0
M  V30 1215 O 120.398 -0.752279 -2.41033 0
M  V30 1216 C 121.711 -3.00571 -0.0880041 0
M  V30 1217 C 123.259 -3.12605 -0.157281 0
M  V30 1218 C 123.734 -4.57999 0.0079207 0
M  V30 1219 N 125.225 -4.63176 -0.0475725 0
M  V30 1220 C 125.96 -5.73373 0.0557876 0
M  V30 1221 N 125.456 -6.92473 0.21286 0
M  V30 1222 N 127.249 -5.621 -0.00152098 0
M  V30 1223 H 119.4 -1.87335 1.00098 0
M  V30 1224 H 121.663 -0.86377 0.390646 0
M  V30 1225 H 121.369 -3.40262 0.889629 0
M  V30 1226 H 121.243 -3.67754 -0.838875 0
M  V30 1227 H 123.63 -2.72798 -1.1254 0
M  V30 1228 H 123.711 -2.48053 0.62475 0
M  V30 1229 H 123.355 -4.98496 0.972824 0
M  V30 1230 H 123.285 -5.20586 -0.793556 0
M  V30 1231 H 125.776 -3.7753 -0.167244 0
M  V30 1232 H 126.089 -7.72279 0.283781 0
M  V30 1233 H 124.434 -6.94556 0.248267 0
M  V30 1234 H 127.625 -4.67938 -0.122958 0
M  V30 1235 H 127.798 -6.47948 0.0824844 0
M  V30 1236 N 121.204 0.198386 -1.56346 0
M  V30 1237 C 122.136 1.26987 -1.90806 0
M  V30 1238 C 123.149 1.41877 -0.798419 0
M  V30 1239 O 124.338 1.42362 -1.07682 0
M  V30 1240 C 121.438 2.64246 -2.12196 0
M  V30 1241 C 120.611 2.71007 -3.43328 0
M  V30 1242 C 119.67 3.89439 -3.5387 0
M  V30 1243 O 118.696 3.76695 -4.26719 0
M  V30 1244 N 119.898 5.04752 -2.86715 0
M  V30 1245 H 122.663 0.977433 -2.83313 0
M  V30 1246 H 120.224 0.388322 -1.57174 0
M  V30 1247 H 122.216 3.41896 -2.1654 0
M  V30 1248 H 120.786 2.85992 -1.26204 0
M  V30 1249 H 120.006 1.79657 -3.50881 0
M  V30 1250 H 121.294 2.72512 -4.29668 0
M  V30 1251 H 120.692 5.18004 -2.2735 0
M  V30 1252 H 119.249 5.8036 -2.96691 0
M  V30 1253 N 122.682 1.50554 0.465978 0
M  V30 1254 C 123.615 1.64436 1.58227 0
M  V30 1255 C 124.593 0.492367 1.54966 0
M  V30 1256 O 125.777 0.712536 1.74514 0
M  V30 1257 C 122.904 1.63165 2.96808 0
M  V30 1258 C 121.95 2.83987 3.18204 0
M  V30 1259 S 122.783 4.45219 2.97557 0
M  V30 1260 C 123.939 4.46649 4.3847 0
M  V30 1261 H 124.172 2.58861 1.46213 0
M  V30 1262 H 121.705 1.3988 0.653678 0
M  V30 1263 H 123.663 1.63116 3.76701 0
M  V30 1264 H 122.324 0.69967 3.06208 0
M  V30 1265 H 121.517 2.79416 4.19455 0
M  V30 1266 H 121.119 2.81629 2.46092 0
M  V30 1267 H 123.411 4.20526 5.31191 0
M  V30 1268 H 124.354 5.48295 4.48082 0
M  V30 1269 H 124.762 3.76296 4.20787 0
M  V30 1270 N 124.16 -0.719506 1.40217 0
M  V30 1271 C 125.107 -1.83359 1.40172 0
M  V30 1272 C 126.077 -1.64065 0.259206 0
M  V30 1273 O 127.262 -1.85254 0.456677 0
M  V30 1274 C 124.402 -3.2103 1.26624 0
M  V30 1275 C 123.515 -3.51923 2.50548 0
M  V30 1276 C 122.65 -4.79079 2.29471 0
M  V30 1277 C 121.689 -5.02863 3.48992 0
M  V30 1278 N 120.826 -6.2123 3.27135 0
M  V30 1279 H 125.666 -1.82733 2.35399 0
M  V30 1280 H 123.203 -0.892688 1.16917 0
M  V30 1281 H 125.161 -4.00524 1.16776 0
M  V30 1282 H 123.791 -3.20895 0.350176 0
M  V30 1283 H 122.843 -2.67014 2.70939 0
M  V30 1284 H 124.155 -3.6541 3.39525 0
M  V30 1285 H 123.309 -5.66582 2.16955 0
M  V30 1286 H 122.048 -4.67794 1.37913 0
M  V30 1287 H 121.053 -4.13816 3.6199 0
M  V30 1288 H 122.278 -5.16023 4.41472 0
M  V30 1289 H 120.224 -6.11204 2.38256 0
M  V30 1290 H 120.141 -6.35375 4.09675 0
M  V30 1291 H 121.409 -7.11532 3.18344 0
M  V30 1292 N 125.638 -1.25649 -0.95132 0
M  V30 1293 C 126.548 -1.08073 -2.08224 0
M  V30 1294 C 127.564 -0.0169666 -1.73992 0
M  V30 1295 O 128.74 -0.218593 -2.0021 0
M  V30 1296 C 125.805 -0.704922 -3.39458 0
M  V30 1297 C 124.866 -1.84699 -3.87537 0
M  V30 1298 C 124.099 -1.48902 -5.12508 0
M  V30 1299 O 124.322 -0.386156 -5.69091 0
M  V30 1300 O 123.256 -2.32033 -5.55378 0
M  V30 1301 H 127.082 -2.02924 -2.25954 0
M  V30 1302 H 124.667 -1.04618 -1.06656 0
M  V30 1303 H 126.549 -0.507609 -4.18332 0
M  V30 1304 H 125.224 0.214291 -3.2299 0
M  V30 1305 H 124.131 -2.09919 -3.09653 0
M  V30 1306 H 125.464 -2.74557 -4.08509 0
M  V30 1307 N 127.117 1.15442 -1.07289 0
M  V30 1308 C 128.394 1.82306 -0.708792 0
M  V30 1309 C 128.774 1.94991 0.808807 0
M  V30 1310 O 128.122 1.50085 1.72298 0
M  V30 1311 C 128.332 3.18695 -1.42247 0
M  V30 1312 C 129.68 3.94341 -1.57417 0
M  V30 1313 O 130.704 3.28247 -1.38319 0
M  V30 1314 O 129.563 5.12839 -1.88834 0
M  V30 1315 H 126.657 0.787628 -0.252132 0
M  V30 1316 H 129.203 1.22559 -1.17377 0
M  V30 1317 H 127.975 3.04557 -2.45684 0
M  V30 1318 H 127.598 3.86128 -0.948223 0
M  V30 1319 N 128.595 0.856903 1.32268 0
M  V30 1320 C 129.558 0.308171 2.27119 0
M  V30 1321 C 130.558 -0.533421 1.51695 0
M  V30 1322 O 131.748 -0.344607 1.70757 0
M  V30 1323 C 128.88 -0.563757 3.36206 0
M  V30 1324 H 130.073 1.14535 2.77167 0
M  V30 1325 H 127.626 0.631421 1.42978 0
M  V30 1326 H 128.361 -1.42266 2.91429 0
M  V30 1327 H 128.146 0.0386749 3.92081 0
M  V30 1328 H 129.636 -0.940386 4.06874 0
M  V30 1329 N 130.073 -1.45103 0.615059 0
M  V30 1330 C 131.02 -2.30586 -0.0993978 0
M  V30 1331 C 131.99 -1.42544 -0.852669 0
M  V30 1332 O 133.175 -1.71465 -0.836917 0
M  V30 1333 C 130.315 -3.27572 -1.08583 0
M  V30 1334 C 129.428 -4.30717 -0.332656 0
M  V30 1335 C 128.563 -5.14807 -1.30947 0
M  V30 1336 C 127.602 -6.09673 -0.544538 0
M  V30 1337 N 126.739 -6.86517 -1.47101 0
M  V30 1338 H 131.579 -2.91144 0.635542 0
M  V30 1339 H 129.116 -1.4346 0.325206 0
M  V30 1340 H 131.074 -3.82276 -1.67095 0
M  V30 1341 H 129.704 -2.68751 -1.78809 0
M  V30 1342 H 128.756 -3.78615 0.368107 0
M  V30 1343 H 130.068 -4.98102 0.263842 0
M  V30 1344 H 129.222 -5.73948 -1.96643 0
M  V30 1345 H 127.961 -4.47458 -1.9399 0
M  V30 1346 H 126.966 -5.49656 0.126003 0
M  V30 1347 H 128.191 -6.79052 0.080947 0
M  V30 1348 H 126.137 -6.21851 -2.08895 0
M  V30 1349 H 126.054 -7.50281 -0.928137 0
M  V30 1350 H 127.322 -7.50194 -2.11731 0
M  V30 1351 N 131.551 -0.354651 -1.53558 0
M  V30 1352 C 132.799 0.237972 -2.00694 0
M  V30 1353 C 133.12 1.50173 -1.24391 0
M  V30 1354 O 132.39 1.92673 -0.354135 0
M  V30 1355 H 130.97 0.0909256 -0.741446 0
M  V30 1356 H 133.632 -0.478368 -1.88938 0
M  V30 1357 H 132.728 0.47264 -3.085 0
M  V30 1358 N 133.029 1.57378 -0.0835403 0
M  V30 1359 C 133.976 2.13384 0.879539 0
M  V30 1360 C 134.946 1.04936 1.28754 0
M  V30 1361 O 136.131 1.32662 1.37133 0
M  V30 1362 C 133.271 2.70932 2.13752 0
M  V30 1363 C 132.384 3.93575 1.7811 0
M  V30 1364 C 131.519 4.39326 2.98607 0
M  V30 1365 C 130.558 5.54587 2.59037 0
M  V30 1366 N 129.695 5.95243 3.72331 0
M  V30 1367 H 134.535 2.9537 0.395076 0
M  V30 1368 H 132.072 1.45953 0.183349 0
M  V30 1369 H 134.03 3.02411 2.87408 0
M  V30 1370 H 132.66 1.91693 2.59718 0
M  V30 1371 H 131.712 3.68483 0.94469 0
M  V30 1372 H 133.024 4.77258 1.45005 0
M  V30 1373 H 132.178 4.72528 3.80529 0
M  V30 1374 H 130.917 3.5452 3.34913 0
M  V30 1375 H 129.922 5.21024 1.75539 0
M  V30 1376 H 131.147 6.41133 2.23887 0
M  V30 1377 H 129.093 5.13385 4.08378 0
M  V30 1378 H 129.01 6.73694 3.43034 0
M  V30 1379 H 130.278 6.33072 4.54797 0
M  V30 1380 N 134.507 -0.190092 1.56449 0
M  V30 1381 C 135.732 -0.929864 1.85387 0
M  V30 1382 C 136.157 -1.7585 0.667704 0
M  V30 1383 O 135.515 -1.77198 -0.383459 0
M  V30 1384 C 135.563 -1.79773 3.12593 0
M  V30 1385 O 134.667 -2.89713 2.93496 0
M  V30 1386 H 134.008 -0.261574 0.610307 0
M  V30 1387 H 136.538 -0.193896 2.03679 0
M  V30 1388 H 136.548 -2.20139 3.43515 0
M  V30 1389 H 135.223 -1.18892 3.98544 0
M  V30 1390 H 133.8 -2.53065 2.73884 0
M  V30 1391 N 135.985 -1.50799 -0.457987 0
M  V30 1392 C 136.895 -1.73426 -1.57989 0
M  V30 1393 C 137.911 -0.617745 -1.62665 0
M  V30 1394 O 139.087 -0.897614 -1.80291 0
M  V30 1395 C 136.152 -1.83557 -2.94122 0
M  V30 1396 C 135.213 -3.07345 -2.99729 0
M  V30 1397 C 134.446 -3.16983 -4.29368 0
M  V30 1398 O 134.669 -2.33077 -5.20607 0
M  V30 1399 O 133.603 -4.09812 -4.40837 0
M  V30 1400 H 137.429 -2.68555 -1.41817 0
M  V30 1401 H 135.014 -1.35052 -0.638859 0
M  V30 1402 H 136.896 -1.92326 -3.74952 0
M  V30 1403 H 135.571 -0.916137 -3.10465 0
M  V30 1404 H 134.478 -3.04068 -2.1793 0
M  V30 1405 H 135.811 -3.9891 -2.88326 0
M  V30 1406 N 137.463 0.71206 -1.40597 0
M  V30 1407 C 138.373 1.8562 -1.43466 0
M  V30 1408 C 139.389 1.70902 -0.326902 0
M  V30 1409 O 140.565 1.93105 -0.572043 0
M  V30 1410 C 137.63 3.21451 -1.29884 0
M  V30 1411 C 136.691 3.48398 -2.50833 0
M  V30 1412 C 135.924 4.77749 -2.3789 0
M  V30 1413 O 136.147 5.53089 -1.39459 0
M  V30 1414 O 135.081 5.05111 -3.27333 0
M  V30 1415 H 138.907 1.86155 -2.39958 0
M  V30 1416 H 136.492 0.86295 -1.21957 0
M  V30 1417 H 138.374 4.02579 -1.24531 0
M  V30 1418 H 137.049 3.21636 -0.364997 0
M  V30 1419 H 135.956 2.67265 -2.61763 0
M  V30 1420 H 137.289 3.53014 -3.4299 0
M  V30 1421 N 138.941 1.26152 0.944643 0
M  V30 1422 C 139.851 1.09176 2.07648 0
M  V30 1423 C 140.867 0.0261935 1.7398 0
M  V30 1424 O 142.043 0.229208 2.00091 0
M  V30 1425 C 139.108 0.722915 3.39079 0
M  V30 1426 C 138.169 1.86752 3.86552 0
M  V30 1427 C 137.402 1.51617 5.11711 0
M  V30 1428 O 137.625 0.416331 5.68879 0
M  V30 1429 O 136.559 2.34975 5.54139 0
M  V30 1430 H 140.385 2.0412 2.24875 0
M  V30 1431 H 137.97 1.05182 1.061 0
M  V30 1432 H 139.852 0.529787 4.18056 0
M  V30 1433 H 138.527 -0.197159 3.23099 0
M  V30 1434 H 137.434 2.11558 3.08535 0
M  V30 1435 H 138.767 2.76719 4.07047 0
M  V30 1436 N 140.419 -1.14872 1.07899 0
M  V30 1437 C 141.349 -2.2193 0.725887 0
M  V30 1438 C 142.33 -1.67622 -0.28927 0
M  V30 1439 O 143.515 -1.93533 -0.160787 0
M  V30 1440 C 140.645 -3.47061 0.128856 0
M  V30 1441 C 139.599 -4.14363 1.07178 0
M  V30 1442 C 138.925 -5.33636 0.337229 0
M  V30 1443 C 140.225 -4.63492 2.40775 0
M  V30 1444 H 141.919 -2.51724 1.62097 0
M  V30 1445 H 139.465 -1.20991 0.780838 0
M  V30 1446 H 141.418 -4.21199 -0.130147 0
M  V30 1447 H 140.142 -3.16617 -0.80134 0
M  V30 1448 H 138.801 -3.42173 1.3158 0
M  V30 1449 H 138.449 -4.99449 -0.596606 0
M  V30 1450 H 138.149 -5.79609 0.965788 0
M  V30 1451 H 139.673 -6.10539 0.0861567 0
M  V30 1452 H 141.087 -5.2913 2.20669 0
M  V30 1453 H 139.484 -5.20148 2.99276 0
M  V30 1454 H 140.554 -3.78834 3.02676 0
M  V30 1455 N 141.898 -0.863906 -1.31812 0
M  V30 1456 C 142.861 -0.320212 -2.26952 0
M  V30 1457 C 143.861 0.525369 -1.51975 0
M  V30 1458 O 145.051 0.335547 -1.70938 0
M  V30 1459 C 142.183 0.545919 -3.365 0
M  V30 1460 H 143.376 -1.16004 -2.76556 0
M  V30 1461 H 140.929 -0.638995 -1.42641 0
M  V30 1462 H 141.664 1.40718 -2.92179 0
M  V30 1463 H 141.449 -0.0594674 -3.92055 0
M  V30 1464 H 142.939 0.918796 -4.07367 0
M  V30 1465 N 143.376 1.44774 -0.622745 0
M  V30 1466 C 144.286 2.34433 0.0886031 0
M  V30 1467 C 145.302 1.52131 0.844529 0
M  V30 1468 O 146.478 1.84886 0.798691 0
M  V30 1469 C 143.543 3.29986 1.0635 0
M  V30 1470 C 142.604 4.28195 0.307873 0
M  V30 1471 C 141.837 5.19183 1.23633 0
M  V30 1472 O 142.06 5.13918 2.47476 0
M  V30 1473 O 140.994 5.97515 0.725189 0
M  V30 1474 H 144.82 2.96693 -0.648599 0
M  V30 1475 H 142.405 1.44408 -0.382957 0
M  V30 1476 H 144.287 3.88825 1.6246 0
M  V30 1477 H 142.962 2.70269 1.78146 0
M  V30 1478 H 141.869 3.72927 -0.296064 0
M  V30 1479 H 143.202 4.90808 -0.3699 0
M  V30 1480 N 144.854 0.36279 1.53368 0
M  V30 1481 C 146.094 -0.227882 2.03126 0
M  V30 1482 C 146.458 -1.4622 1.24434 0
M  V30 1483 O 147.659 -2.12831 1.64184 0
M  V30 1484 C 145.93 -0.515427 3.53664 0
M  V30 1485 S 147.489 -1.08017 4.25297 0
M  V30 1486 H 144.307 -0.0665377 0.70788 0
M  V30 1487 H 146.909 0.50501 1.88865 0
M  V30 1488 H 145.613 0.390436 4.08539 0
M  V30 1489 H 145.144 -1.27747 3.72081 0
M  V30 1490 H 147.159 -2.36462 4.36234 0
M  V30 1491 N 146.332 -1.57332 0.0918853 0
M  V30 1492 C 147.579 -1.94236 -0.572577 0
M  V30 1493 C 147.907 -0.973398 -1.6839 0
M  V30 1494 O 147.162 0.00756912 -1.95699 0
M  V30 1495 C 147.461 -3.37689 -1.17051 0
M  V30 1496 C 147.127 -4.50527 -0.183304 0
M  V30 1497 C 145.789 -4.81119 0.0882276 0
M  V30 1498 C 148.141 -5.18883 0.49095 0
M  V30 1499 C 145.469 -5.77395 1.04076 0
M  V30 1500 C 147.821 -6.1618 1.43193 0
M  V30 1501 C 146.485 -6.45179 1.71173 0
M  V30 1502 H 145.755 -0.710762 -0.209521 0
M  V30 1503 H 148.402 -1.9077 0.167036 0
M  V30 1504 H 146.707 -3.37718 -1.9863 0
M  V30 1505 H 148.404 -3.63543 -1.69227 0
M  V30 1506 H 144.994 -4.26681 -0.405124 0
M  V30 1507 H 149.178 -4.95427 0.294312 0
M  V30 1508 H 144.434 -5.98179 1.26457 0
M  V30 1509 H 148.608 -6.68243 1.96023 0
M  V30 1510 H 146.235 -7.1959 2.4514 0
M  V30 1511 N 147.81 0.181792 -1.56548 0
M  V30 1512 C 149.226 0.53316 -1.50431 0
M  V30 1513 C 149.426 1.85184 -0.794297 0
M  V30 1514 O 148.482 2.50058 -0.350318 0
M  V30 1515 C 149.795 0.575597 -2.9514 0
M  V30 1516 C 151.343 0.663519 -3.05886 0
M  V30 1517 C 151.818 0.736946 -4.52032 0
M  V30 1518 N 153.309 0.800118 -4.56237 0
M  V30 1519 C 154.044 0.877327 -5.66649 0
M  V30 1520 N 153.54 0.916016 -6.86718 0
M  V30 1521 N 155.333 0.915542 -5.54594 0
M  V30 1522 H 147.484 -0.683025 -2.01118 0
M  V30 1523 H 149.747 -0.244988 -0.915797 0
M  V30 1524 H 149.453 -0.324482 -3.502 0
M  V30 1525 H 149.327 1.42572 -3.49218 0
M  V30 1526 H 151.714 1.55403 -2.50867 0
M  V30 1527 H 151.795 -0.21307 -2.54911 0
M  V30 1528 H 151.439 -0.149262 -5.07681 0
M  V30 1529 H 151.369 1.62953 -5.00753 0
M  V30 1530 H 153.86 0.778926 -3.69785 0
M  V30 1531 H 154.173 0.975813 -7.66614 0
M  V30 1532 H 152.518 0.884469 -6.89349 0
M  V30 1533 H 155.709 0.882245 -4.59711 0
M  V30 1534 H 155.882 0.972253 -6.40665 0
M  V30 1535 N 149.288 1.51039 0.449983 0
M  V30 1536 C 150.537 1.62317 1.19733 0
M  V30 1537 C 150.85 0.339101 1.92638 0
M  V30 1538 O 152.056 0.331069 2.69474 0
M  V30 1539 C 150.512 2.86608 2.17678 0
M  V30 1540 C 150.12 4.21972 1.50479 0
M  V30 1541 C 151.864 3.07239 2.92924 0
M  V30 1542 C 149.771 5.37426 2.46834 0
M  V30 1543 H 148.701 0.604532 0.450619 0
M  V30 1544 H 151.352 1.77494 0.465625 0
M  V30 1545 H 149.734 2.65037 2.94231 0
M  V30 1546 H 150.908 4.53878 0.795716 0
M  V30 1547 H 149.223 4.07117 0.874344 0
M  V30 1548 H 151.82 3.90668 3.65079 0
M  V30 1549 H 152.163 2.19807 3.5354 0
M  V30 1550 H 152.696 3.29091 2.23481 0
M  V30 1551 H 149.435 6.27079 1.90926 0
M  V30 1552 H 148.955 5.09912 3.15832 0
M  V30 1553 H 150.634 5.68862 3.08228 0
M  V30 1554 N 150.766 -0.704594 1.40972 0
M  V30 1555 C 152.013 -1.46458 1.39844 0
M  V30 1556 C 152.341 -1.94499 0.00447594 0
M  V30 1557 O 151.596 -1.69275 -0.982057 0
M  V30 1558 C 151.895 -2.698 2.34399 0
M  V30 1559 C 151.561 -2.40464 3.81429 0
M  V30 1560 C 150.223 -2.32174 4.21484 0
M  V30 1561 C 152.575 -2.16086 4.74296 0
M  V30 1562 C 149.903 -1.97589 5.52427 0
M  V30 1563 C 152.255 -1.83011 6.05549 0
M  V30 1564 C 150.919 -1.7321 6.44635 0
M  V30 1565 H 150.189 -0.535927 0.511725 0
M  V30 1566 H 152.836 -0.806124 1.73706 0
M  V30 1567 H 151.141 -3.40536 1.93759 0
M  V30 1568 H 152.838 -3.27919 2.30804 0
M  V30 1569 H 149.428 -2.47808 3.49699 0
M  V30 1570 H 153.612 -2.2144 4.4416 0
M  V30 1571 H 148.868 -1.88547 5.81601 0
M  V30 1572 H 153.042 -1.63164 6.77016 0
M  V30 1573 H 150.669 -1.46179 7.46013 0
M  V30 1574 N 152.244 -1.26651 -0.937939 0
M  V30 1575 C 153.521 -1.0313 -1.66204 0
M  V30 1576 C 153.901 0.437256 -2.06522 0
M  V30 1577 O 153.249 1.41831 -1.79154 0
M  V30 1578 C 153.459 -1.98314 -2.87181 0
M  V30 1579 C 154.807 -2.27107 -3.58758 0
M  V30 1580 O 155.831 -1.96205 -2.97291 0
M  V30 1581 O 154.69 -2.79736 -4.69479 0
M  V30 1582 H 151.784 -0.392384 -0.727986 0
M  V30 1583 H 154.33 -1.37874 -0.989382 0
M  V30 1584 H 153.102 -2.97399 -2.54302 0
M  V30 1585 H 152.725 -1.64068 -3.6217 0
M  V30 1586 N 153.722 1.14298 -1.08507 0
M  V30 1587 C 155.138 1.37347 -0.812901 0
M  V30 1588 C 155.338 1.93052 0.577325 0
M  V30 1589 O 154.394 2.14389 1.33393 0
M  V30 1590 C 155.707 2.33359 -1.89642 0
M  V30 1591 C 157.255 2.46996 -1.92255 0
M  V30 1592 C 157.73 3.46309 -2.99724 0
M  V30 1593 N 159.221 3.53853 -2.98902 0
M  V30 1594 C 159.956 4.3055 -3.787 0
M  V30 1595 N 159.452 5.10482 -4.6838 0
M  V30 1596 N 161.245 4.25757 -3.66998 0
M  V30 1597 H 153.396 0.764867 -1.9815 0
M  V30 1598 H 155.659 0.398966 -0.859959 0
M  V30 1599 H 155.365 1.99565 -2.89597 0
M  V30 1600 H 155.239 3.33274 -1.76659 0
M  V30 1601 H 157.626 2.80081 -0.929445 0
M  V30 1602 H 157.707 1.47039 -2.09316 0
M  V30 1603 H 157.351 3.13957 -3.99241 0
M  V30 1604 H 157.281 4.46049 -2.79907 0
M  V30 1605 H 159.772 2.96812 -2.33904 0
M  V30 1606 H 160.085 5.66284 -5.25873 0
M  V30 1607 H 158.43 5.09747 -4.72422 0
M  V30 1608 H 161.621 3.62383 -2.96304 0
M  V30 1609 H 161.794 4.85279 -4.29427 0
M  V30 1610 N 155.201 0.870884 1.31352 0
M  V30 1611 C 156.149 0.316445 2.30437 0
M  V30 1612 C 157.143 -0.568965 1.59559 0
M  V30 1613 O 158.349 -0.454964 1.74155 0
M  V30 1614 H 154.724 0.0836521 0.747333 0
M  V30 1615 H 156.695 1.16606 2.74673 0
M  V30 1616 C 155.444 -0.46635 3.44558 0
M  V30 1617 H 154.767 0.205687 3.99271 0
M  V30 1618 H 156.207 -0.819614 4.16003 0
M  V30 1619 C 154.666 -1.65797 2.9328 0
M  V30 1620 O 155.196 -2.75728 2.92125 0
M  V30 1621 N 153.402 -1.49041 2.4947 0
M  V30 1622 H 152.949 -0.59612 2.50608 0
M  V30 1623 H 152.907 -2.28911 2.15516 0
M  V30 1624 N 156.679 -1.44442 0.630414 0
M  V30 1625 C 157.642 -2.29107 -0.0652523 0
M  V30 1626 C 158.642 -1.41002 -0.772995 0
M  V30 1627 O 159.832 -1.62881 -0.617692 0
M  V30 1628 C 156.964 -3.22564 -1.10296 0
M  V30 1629 H 158.157 -2.92103 0.679401 0
M  V30 1630 H 155.71 -1.51343 0.390517 0
M  V30 1631 H 156.445 -2.64416 -1.87762 0
M  V30 1632 H 156.23 -3.87491 -0.59941 0
M  V30 1633 H 157.72 -3.86167 -1.5895 0
M  V30 1634 N 158.157 -0.370918 -1.53173 0
M  V30 1635 C 159.434 0.273754 -1.93675 0
M  V30 1636 C 159.814 1.65938 -1.3049 0
M  V30 1637 O 159.162 2.23698 -0.465999 0
M  V30 1638 C 159.372 0.318602 -3.47543 0
M  V30 1639 C 160.72 0.556392 -4.20939 0
M  V30 1640 O 161.744 0.399587 -3.53952 0
M  V30 1641 O 160.603 0.862133 -5.39657 0
M  V30 1642 H 157.697 0.165448 -0.810281 0
M  V30 1643 H 160.243 -0.42409 -1.64315 0
M  V30 1644 H 159.015 -0.652687 -3.85818 0
M  V30 1645 H 158.638 1.06212 -3.83151 0
M  V30 1646 N 159.635 1.57281 -0.100228 0
M  V30 1647 C 160.883 1.94153 0.561157 0
M  V30 1648 C 161.204 0.983157 1.68401 0
M  V30 1649 O 160.474 0.0361132 1.95867 0
M  V30 1650 H 159.054 0.716791 0.210283 0
M  V30 1651 H 161.716 1.94202 -0.164765 0
M  V30 1652 H 160.812 2.96709 0.968008 0
M  V30 1653 N 161.113 -0.173488 1.56642 0
M  V30 1654 C 162.343 -0.904781 1.85734 0
M  V30 1655 C 162.751 -1.76431 0.68328 0
M  V30 1656 O 162.094 -1.802 -0.356865 0
M  V30 1657 C 162.156 -1.83382 3.09211 0
M  V30 1658 C 161.82 -1.15411 4.42187 0
M  V30 1659 C 162.817 -0.520609 5.17287 0
M  V30 1660 C 160.502 -1.15151 4.88923 0
M  V30 1661 C 162.496 0.106412 6.37311 0
M  V30 1662 C 160.183 -0.520664 6.08878 0
M  V30 1663 C 161.181 0.107196 6.82916 0
M  V30 1664 O 160.869 0.728102 8.00596 0
M  V30 1665 H 160.601 -0.268408 0.62043 0
M  V30 1666 H 163.155 -0.179096 2.04618 0
M  V30 1667 H 161.385 -2.59976 2.86268 0
M  V30 1668 H 163.074 -2.43476 3.24768 0
M  V30 1669 H 163.84 -0.514606 4.82262 0
M  V30 1670 H 159.719 -1.62961 4.31236 0
M  V30 1671 H 163.263 0.597081 6.9504 0
M  V30 1672 H 159.16 -0.524242 6.43368 0
M  V30 1673 H 159.928 0.627138 8.16094 0
M  V30 1674 N 162.591 -1.51276 -0.441967 0
M  V30 1675 C 163.84 -1.6295 -1.18871 0
M  V30 1676 C 164.153 -0.349312 -1.92456 0
M  V30 1677 O 165.359 -0.345355 -2.69295 0
M  V30 1678 C 163.815 -2.87759 -2.16155 0
M  V30 1679 C 163.423 -4.22764 -1.48239 0
M  V30 1680 C 165.167 -3.08788 -2.91291 0
M  V30 1681 C 163.074 -5.38728 -2.4398 0
M  V30 1682 H 162.004 -0.606913 -0.447406 0
M  V30 1683 H 164.655 -1.77739 -0.456205 0
M  V30 1684 H 163.037 -2.66593 -2.92821 0
M  V30 1685 H 164.211 -4.54293 -0.771635 0
M  V30 1686 H 162.526 -4.07575 -0.852741 0
M  V30 1687 H 165.123 -3.92599 -3.63002 0
M  V30 1688 H 165.466 -2.21679 -3.5237 0
M  V30 1689 H 165.999 -3.30272 -2.21733 0
M  V30 1690 H 162.738 -6.28082 -1.87598 0
M  V30 1691 H 162.258 -5.1158 -3.13123 0
M  V30 1692 H 163.937 -5.70489 -3.05207 0
M  V30 1693 N 164.069 0.697108 -1.41344 0
M  V30 1694 C 165.346 1.45154 -1.31109 0
M  V30 1695 C 165.726 2.11009 0.0620449 0
M  V30 1696 O 165.074 2.01571 1.07618 0
M  V30 1697 C 165.284 2.47223 -2.46337 0
M  V30 1698 C 166.632 3.1252 -2.87431 0
M  V30 1699 O 167.656 2.57547 -2.46065 0
M  V30 1700 O 166.515 4.12083 -3.58957 0
M  V30 1701 H 163.609 0.646365 -0.515889 0
M  V30 1702 H 166.155 0.727716 -1.53305 0
M  V30 1703 H 164.927 1.97204 -3.37974 0
M  V30 1704 H 164.55 3.27116 -2.2601 0
M  V30 1705 N 165.547 1.27147 0.931209 0
M  V30 1706 C 166.958 1.12044 1.49342 0
M  V30 1707 C 167.309 -0.295795 1.93957 0
M  V30 1708 O 166.434 -1.18835 1.80852 0
M  V30 1709 C 167.029 2.02781 2.71414 0
M  V30 1710 C 165.588 1.91794 3.2387 0
M  V30 1711 C 164.735 1.95543 1.96617 0
M  V30 1712 H 167.686 1.40091 0.745672 0
M  V30 1713 H 167.707 1.58156 3.46074 0
M  V30 1714 H 167.219 3.05848 2.38911 0
M  V30 1715 H 165.32 0.916992 3.6114 0
M  V30 1716 H 165.433 2.77852 3.90302 0
M  V30 1717 H 163.797 1.39722 2.12955 0
M  V30 1718 H 164.58 3.00259 1.66432 0
M  V30 1719 N 167.025 -1.13721 1.09112 0
M  V30 1720 C 167.935 -2.22638 0.73957 0
M  V30 1721 C 168.951 -1.72091 -0.257068 0
M  V30 1722 O 170.127 -2.01155 -0.0992154 0
M  V30 1723 C 167.192 -3.46322 0.16191 0
M  V30 1724 C 166.253 -4.11775 1.21408 0
M  V30 1725 C 165.486 -5.29555 0.663891 0
M  V30 1726 O 165.709 -5.68077 -0.514274 0
M  V30 1727 O 164.643 -5.84973 1.41738 0
M  V30 1728 H 168.469 -2.55074 1.64836 0
M  V30 1729 H 166.054 -1.21791 0.865289 0
M  V30 1730 H 167.936 -4.21107 -0.157073 0
M  V30 1731 H 166.611 -3.15593 -0.719932 0
M  V30 1732 H 165.518 -3.3883 1.58571 0
M  V30 1733 H 166.851 -4.46627 2.06845 0
M  V30 1734 N 168.503 -0.877838 -1.30888 0
M  V30 1735 C 169.413 -0.343096 -2.32078 0
M  V30 1736 C 170.429 0.551022 -1.65045 0
M  V30 1737 O 171.605 0.445854 -1.96403 0
M  V30 1738 C 168.67 0.439905 -3.43898 0
M  V30 1739 C 167.731 -0.483111 -4.26573 0
M  V30 1740 C 166.964 0.262616 -5.33053 0
M  V30 1741 O 167.187 1.48967 -5.50604 0
M  V30 1742 O 166.121 -0.383593 -6.00676 0
M  V30 1743 H 169.947 -1.18203 -2.79753 0
M  V30 1744 H 167.532 -0.64145 -1.34929 0
M  V30 1745 H 169.414 0.883504 -4.12034 0
M  V30 1746 H 168.089 1.25526 -2.98371 0
M  V30 1747 H 166.996 -0.975374 -3.61161 0
M  V30 1748 H 168.329 -1.26427 -4.75686 0
M  V30 1749 N 169.982 1.44106 -0.638065 0
M  V30 1750 C 170.912 2.33448 0.0494287 0
M  V30 1751 C 171.893 1.48606 0.827672 0
M  V30 1752 O 173.078 1.77308 0.792173 0
M  V30 1753 C 170.208 3.31771 1.02691 0
M  V30 1754 C 169.162 4.26485 0.359823 0
M  V30 1755 C 168.488 5.14729 1.44769 0
M  V30 1756 C 169.788 5.17056 -0.738296 0
M  V30 1757 H 171.482 2.91183 -0.696636 0
M  V30 1758 H 169.028 1.40014 -0.336456 0
M  V30 1759 H 170.981 3.93161 1.51666 0
M  V30 1760 H 169.705 2.7226 1.80395 0
M  V30 1761 H 168.364 3.66437 -0.10934 0
M  V30 1762 H 168.012 4.51566 2.21578 0
M  V30 1763 H 167.712 5.78913 1.00668 0
M  V30 1764 H 169.236 5.78991 1.93911 0
M  V30 1765 H 170.65 5.72342 -0.331354 0
M  V30 1766 H 169.047 5.89879 -1.10286 0
M  V30 1767 H 170.117 4.57652 -1.60258 0
M  V30 1768 N 171.46 0.379036 1.52974 0
M  V30 1769 C 172.423 -0.448865 2.24762 0
M  V30 1770 C 173.423 -0.998689 1.26027 0
M  V30 1771 O 174.613 -0.882313 1.50203 0
M  V30 1772 C 171.745 -1.62872 2.99476 0
M  V30 1773 H 172.938 0.179491 2.99362 0
M  V30 1774 H 170.491 0.13096 1.5575 0
M  V30 1775 H 171.226 -2.29479 2.29151 0
M  V30 1776 H 171.011 -1.24128 3.71934 0
M  V30 1777 H 172.501 -2.2151 3.5401 0
M  V30 1778 N 172.938 -1.57226 0.108567 0
M  V30 1779 C 173.848 -2.18292 -0.859401 0
M  V30 1780 C 174.864 -1.15612 -1.30038 0
M  V30 1781 O 176.04 -1.48039 -1.36552 0
M  V30 1782 C 173.105 -2.762 -2.09558 0
M  V30 1783 C 172.166 -3.93881 -1.70752 0
M  V30 1784 C 171.399 -4.49018 -2.88477 0
M  V30 1785 O 171.622 -4.03068 -4.036 0
M  V30 1786 O 170.556 -5.39852 -2.66164 0
M  V30 1787 H 174.382 -3.01441 -0.369769 0
M  V30 1788 H 171.967 -1.48945 -0.1165 0
M  V30 1789 H 173.849 -3.13156 -2.81978 0
M  V30 1790 H 172.524 -1.96089 -2.57548 0
M  V30 1791 H 171.431 -3.61713 -0.954714 0
M  V30 1792 H 172.764 -4.75396 -1.27513 0
M  V30 1793 N 174.416 0.165178 -1.56732 0
M  V30 1794 C 175.665 0.879143 -1.81532 0
M  V30 1795 C 175.978 1.83144 -0.686842 0
M  V30 1796 O 177.184 2.58823 -0.819944 0
M  V30 1797 C 175.64 1.61388 -3.21686 0
M  V30 1798 C 175.248 0.704904 -4.4242 0
M  V30 1799 C 176.992 2.3157 -3.55774 0
M  V30 1800 C 174.899 1.44022 -5.73595 0
M  V30 1801 H 173.829 0.332033 -0.676957 0
M  V30 1802 H 176.48 0.132008 -1.83025 0
M  V30 1803 H 174.862 2.40599 -3.14529 0
M  V30 1804 H 176.036 -0.0506815 -4.60772 0
M  V30 1805 H 174.351 0.112419 -4.16248 0
M  V30 1806 H 176.948 2.8719 -4.51028 0
M  V30 1807 H 177.291 3.07201 -2.8095 0
M  V30 1808 H 177.824 1.59297 -3.64513 0
M  V30 1809 H 174.563 0.72612 -6.51466 0
M  V30 1810 H 174.083 2.16898 -5.5921 0
M  V30 1811 H 175.762 1.98606 -6.15764 0
M  V30 1812 N 175.894 1.51508 0.433938 0
M  V30 1813 C 177.141 1.64345 1.18309 0
M  V30 1814 C 177.469 0.361315 1.91115 0
M  V30 1815 O 176.724 -0.654753 1.84422 0
M  V30 1816 C 177.023 2.79928 2.22205 0
M  V30 1817 C 176.689 4.19078 1.66387 0
M  V30 1818 C 175.351 4.56932 1.50887 0
M  V30 1819 C 177.703 5.05894 1.25381 0
M  V30 1820 C 175.031 5.79305 0.928608 0
M  V30 1821 C 177.383 6.2885 0.687823 0
M  V30 1822 C 176.047 6.65473 0.519755 0
M  V30 1823 H 175.317 0.601381 0.432923 0
M  V30 1824 H 177.964 1.85549 0.473676 0
M  V30 1825 H 176.269 2.52959 2.99197 0
M  V30 1826 H 177.966 2.87059 2.79997 0
M  V30 1827 H 174.556 3.89234 1.79428 0
M  V30 1828 H 178.74 4.77253 1.36175 0
M  V30 1829 H 173.996 6.06324 0.786186 0
M  V30 1830 H 178.17 6.95461 0.361581 0
M  V30 1831 H 175.797 7.6017 0.0679979 0
M  V30 1832 N 177.372 -0.689602 1.41712 0
M  V30 1833 C 178.788 -1.00093 1.24312 0
M  V30 1834 C 178.988 -2.01036 0.136729 0
M  V30 1835 O 178.044 -2.47562 -0.496918 0
M  V30 1836 C 179.357 -1.51985 2.59463 0
M  V30 1837 C 180.905 -1.63838 2.66695 0
M  V30 1838 C 181.38 -2.1913 4.02177 0
M  V30 1839 N 182.871 -2.26483 4.04054 0
M  V30 1840 C 183.606 -2.70306 5.0569 0
M  V30 1841 N 183.102 -3.13691 6.17713 0
M  V30 1842 N 184.895 -2.69923 4.9305 0
M  V30 1843 H 177.046 -0.0210029 2.1239 0
M  V30 1844 H 179.309 -0.0718733 0.945272 0
M  V30 1845 H 179.015 -0.85269 3.41207 0
M  V30 1846 H 178.889 -2.50103 2.82362 0
M  V30 1847 H 181.276 -2.29664 1.85306 0
M  V30 1848 H 181.357 -0.642492 2.476 0
M  V30 1849 H 181.001 -1.53918 4.84016 0
M  V30 1850 H 180.931 -3.19482 4.18615 0
M  V30 1851 H 183.422 -1.95874 3.23174 0
M  V30 1852 H 183.735 -3.45773 6.9113 0
M  V30 1853 H 182.08 -3.11585 6.21241 0
M  V30 1854 H 185.271 -2.35382 4.04614 0
M  V30 1855 H 185.444 -3.03758 5.72394 0
M  V30 1856 N 178.85 -1.27639 -0.924453 0
M  V30 1857 C 179.813 -1.10681 -2.00705 0
M  V30 1858 C 180.813 -0.0497823 -1.60723 0
M  V30 1859 O 182.003 -0.294654 -1.7169 0
M  V30 1860 C 179.135 -0.687164 -3.33902 0
M  V30 1861 H 180.328 -2.06817 -2.17179 0
M  V30 1862 H 177.881 -1.10473 -1.10569 0
M  V30 1863 H 178.616 0.275439 -3.23128 0
M  V30 1864 H 178.401 -1.45061 -3.6428 0
M  V30 1865 H 179.891 -0.590853 -4.13399 0
M  V30 1866 N 180.328 1.1314 -1.09713 0
M  V30 1867 C 181.553 1.88862 -0.857081 0
M  V30 1868 C 181.978 1.78729 0.586304 0
M  V30 1869 O 181.336 1.13692 1.41222 0
M  V30 1870 C 181.384 3.36325 -1.30069 0
M  V30 1871 O 180.488 4.09815 -0.461007 0
M  V30 1872 H 179.829 0.587108 -0.310162 0
M  V30 1873 H 182.359 1.43129 -1.46203 0
M  V30 1874 H 182.369 3.87157 -1.28738 0
M  V30 1875 H 181.044 3.43017 -2.35185 0
M  V30 1876 H 179.621 3.68986 -0.538888 0
M  V30 1877 N 181.806 0.884767 1.30421 0
M  V30 1878 C 183.054 0.502112 1.95763 0
M  V30 1879 C 183.375 -0.951815 1.70192 0
M  V30 1880 O 182.645 -1.6692 1.0254 0
M  V30 1881 H 181.225 0.182694 0.724315 0
M  V30 1882 H 183.887 1.1278 1.58955 0
M  V30 1883 H 182.983 0.672188 3.04775 0
M  V30 1884 N 183.284 -1.43765 0.645699 0
M  V30 1885 C 184.194 -2.34544 -0.0512957 0
M  V30 1886 C 185.21 -1.53455 -0.82022 0
M  V30 1887 O 186.386 -1.86133 -0.769176 0
M  V30 1888 C 183.451 -3.31636 -1.01087 0
M  V30 1889 C 182.512 -4.2863 -0.239712 0
M  V30 1890 C 181.745 -5.21084 -1.15358 0
M  V30 1891 O 181.968 -5.1779 -2.39269 0
M  V30 1892 O 180.902 -5.98593 -0.630038 0
M  V30 1893 H 184.728 -2.95624 0.695718 0
M  V30 1894 H 182.313 -1.43781 0.405882 0
M  V30 1895 H 184.195 -3.9136 -1.56254 0
M  V30 1896 H 182.87 -2.73069 -1.73824 0
M  V30 1897 H 181.777 -3.72408 0.355356 0
M  V30 1898 H 183.11 -4.90157 0.447936 0
M  V30 1899 N 184.763 -0.387143 -1.52771 0
M  V30 1900 C 185.713 0.465942 -2.23188 0
M  V30 1901 C 186.697 1.03138 -1.23496 0
M  V30 1902 O 187.889 0.957845 -1.48843 0
M  V30 1903 C 185.018 1.59384 -3.04059 0
M  V30 1904 C 184.104 1.04024 -4.11144 0
M  V30 1905 N 184.495 0.211416 -5.05358 0
M  V30 1906 C 182.793 1.31295 -4.26237 0
M  V30 1907 C 183.494 -0.0941698 -5.81624 0
M  V30 1908 N 182.47 0.509207 -5.4121 0
M  V30 1909 H 186.272 -0.173856 -2.93385 0
M  V30 1910 H 183.786 -0.19633 -1.61209 0
M  V30 1911 H 185.783 2.21738 -3.53041 0
M  V30 1912 H 184.443 2.23648 -2.35397 0
M  V30 1913 H 185.454 -0.151151 -5.17679 0
M  V30 1914 H 182.131 1.95679 -3.68803 0
M  V30 1915 H 183.521 -0.765572 -6.67524 0
M  V30 1916 N 186.241 1.57166 -0.116904 0
M  V30 1917 C 187.487 1.95412 0.542405 0
M  V30 1918 C 187.82 1.00019 1.66463 0
M  V30 1919 O 187.095 0.0370346 1.94465 0
M  V30 1920 C 187.378 3.43615 1.07708 0
M  V30 1921 C 187.231 4.49781 -0.0415868 0
M  V30 1922 C 188.55 3.93616 1.96861 0
M  V30 1923 H 185.669 0.710543 0.195696 0
M  V30 1924 H 188.311 1.89027 -0.192038 0
M  V30 1925 H 186.461 3.49187 1.70296 0
M  V30 1926 H 188.133 4.56308 -0.676793 0
M  V30 1927 H 186.376 4.28033 -0.705019 0
M  V30 1928 H 187.047 5.50733 0.373717 0
M  V30 1929 H 189.523 3.90335 1.44146 0
M  V30 1930 H 188.399 4.97838 2.3119 0
M  V30 1931 H 188.66 3.34188 2.89432 0
M  V30 1932 N 187.719 -0.156864 1.56817 0
M  V30 1933 C 188.947 -0.886316 1.86955 0
M  V30 1934 C 189.362 -1.75185 0.703975 0
M  V30 1935 O 188.719 -1.79555 -0.326552 0
M  V30 1936 C 188.77 -1.75117 3.16253 0
M  V30 1937 O 188.491 -0.920537 4.2832 0
M  V30 1938 C 189.992 -2.58905 3.59837 0
M  V30 1939 H 187.212 -0.25678 0.619923 0
M  V30 1940 H 189.756 -0.152615 2.0393 0
M  V30 1941 H 187.911 -2.43805 3.01062 0
M  V30 1942 H 188.325 -1.51337 5.02192 0
M  V30 1943 H 189.799 -3.1518 4.53172 0
M  V30 1944 H 190.276 -3.34472 2.84649 0
M  V30 1945 H 190.882 -1.95526 3.7769 0
M  V30 1946 N 189.197 -1.51736 -0.425897 0
M  V30 1947 C 190.474 -1.55519 -1.1863 0
M  V30 1948 C 190.854 -0.326219 -2.08564 0
M  V30 1949 O 190.202 0.688012 -2.17896 0
M  V30 1950 C 190.412 -2.87521 -1.9782 0
M  V30 1951 C 191.76 -3.39899 -2.54468 0
M  V30 1952 O 192.784 -2.89148 -2.08019 0
M  V30 1953 O 191.643 -4.2848 -3.39215 0
M  V30 1954 H 188.737 -0.625739 -0.540721 0
M  V30 1955 H 191.283 -1.64055 -0.434038 0
M  V30 1956 H 190.055 -3.68422 -1.31836 0
M  V30 1957 H 189.678 -2.822 -2.80088 0
M  V30 1958 N 190.675 0.682077 -1.42076 0
M  V30 1959 C 191.585 1.82535 -1.47371 0
M  V30 1960 C 192.601 1.7017 -0.363079 0
M  V30 1961 O 193.777 1.91848 -0.612875 0
M  V30 1962 C 190.842 3.18624 -1.36674 0
M  V30 1963 C 189.903 3.42999 -2.58167 0
M  V30 1964 C 189.136 4.72595 -2.4797 0
M  V30 1965 O 189.359 5.50006 -1.5116 0
M  V30 1966 O 188.293 4.98054 -3.37974 0
M  V30 1967 H 192.119 1.81023 -2.43853 0
M  V30 1968 H 189.704 0.836887 -1.2376 0
M  V30 1969 H 191.586 3.99847 -1.33043 0
M  V30 1970 H 190.261 3.20789 -0.433138 0
M  V30 1971 H 189.168 2.61653 -2.67373 0
M  V30 1972 H 190.501 3.45659 -3.50401 0
M  V30 1973 N 192.153 1.28127 0.917671 0
M  V30 1974 C 193.063 1.13556 2.05286 0
M  V30 1975 C 194.079 0.0630914 1.73886 0
M  V30 1976 O 195.255 0.271598 1.9956 0
M  V30 1977 C 192.32 0.794676 3.3747 0
M  V30 1978 C 191.381 1.94909 3.82504 0
M  V30 1979 C 190.614 1.62437 5.0838 0
M  V30 1980 O 190.837 0.536905 5.67867 0
M  V30 1981 O 189.771 2.46677 5.4903 0
M  V30 1982 H 193.597 2.08844 2.20495 0
M  V30 1983 H 191.182 1.07409 1.03845 0
M  V30 1984 H 193.064 0.618344 4.16839 0
M  V30 1985 H 191.739 -0.128581 3.23445 0
M  V30 1986 H 190.646 2.18055 3.03978 0
M  V30 1987 H 191.979 2.85291 4.01086 0
M  V30 1988 N 193.631 -1.12557 1.10312 0
M  V30 1989 C 194.88 -1.83395 0.839588 0
M  V30 1990 C 195.193 -1.84939 -0.636929 0
M  V30 1991 O 196.399 -2.51761 -1.01631 0
M  V30 1992 C 194.855 -3.29303 1.45215 0
M  V30 1993 C 194.463 -3.36122 2.96186 0
M  V30 1994 C 196.207 -4.05121 1.26796 0
M  V30 1995 C 194.114 -4.76357 3.50483 0
M  V30 1996 H 193.044 -0.687133 0.310425 0
M  V30 1997 H 195.695 -1.26746 1.32694 0
M  V30 1998 H 194.077 -3.85812 0.892469 0
M  V30 1999 H 195.251 -2.89559 3.58458 0
M  V30 2000 H 193.566 -2.73776 3.13745 0
M  V30 2001 H 196.163 -5.08668 1.64806 0
M  V30 2002 H 196.506 -4.15773 0.209409 0
M  V30 2003 H 197.039 -3.54967 1.79563 0
M  V30 2004 H 193.778 -4.70899 4.55998 0
M  V30 2005 H 193.298 -5.23377 2.92978 0
M  V30 2006 H 194.977 -5.45294 3.48228 0
M  V30 2007 N 195.109 -0.891671 -1.2995 0
M  V30 2008 C 196.019 -0.367691 -2.31701 0
M  V30 2009 C 197.035 0.533486 -1.6562 0
M  V30 2010 O 198.211 0.424997 -1.96865 0
M  V30 2011 C 195.276 0.403406 -3.44345 0
M  V30 2012 C 194.337 -0.528328 -4.26037 0
M  V30 2013 C 193.57 0.206063 -5.33302 0
M  V30 2014 O 193.793 1.43119 -5.52153 0
M  V30 2015 O 192.727 -0.447281 -6.00236 0
M  V30 2016 H 196.553 -1.21163 -2.78484 0
M  V30 2017 H 194.138 -0.655725 -1.34241 0
M  V30 2018 H 196.02 0.839753 -4.12948 0
M  V30 2019 H 194.695 1.22354 -2.99685 0
M  V30 2020 H 193.602 -1.01362 -3.60106 0
M  V30 2021 H 194.935 -1.31465 -4.74318 0
M  V30 2022 N 196.587 1.43421 -0.653314 0
M  V30 2023 C 197.812 2.06678 -0.172846 0
M  V30 2024 C 198.237 1.48648 1.15262 0
M  V30 2025 O 197.595 0.596457 1.71208 0
M  V30 2026 C 197.643 3.60474 -0.0953184 0
M  V30 2027 O 196.747 4.01487 0.942442 0
M  V30 2028 H 196.088 0.657181 -0.0949155 0
M  V30 2029 H 198.618 1.83925 -0.896265 0
M  V30 2030 H 198.628 4.07905 0.0879728 0
M  V30 2031 H 197.303 4.02088 -1.06291 0
M  V30 2032 H 195.88 3.65646 0.731932 0
M  V30 2033 N 198.065 0.39524 1.52563 0
M  V30 2034 C 198.995 -0.428384 2.29537 0
M  V30 2035 C 199.976 -1.05831 1.33169 0
M  V30 2036 O 201.161 -1.06995 1.62067 0
M  V30 2037 C 198.291 -1.55274 3.10656 0
M  V30 2038 C 197.245 -1.04855 4.14957 0
M  V30 2039 C 196.571 -2.26543 4.84337 0
M  V30 2040 C 197.871 -0.112324 5.22179 0
M  V30 2041 H 199.565 0.213867 2.98635 0
M  V30 2042 H 197.111 0.104298 1.43622 0
M  V30 2043 H 199.064 -2.1358 3.63265 0
M  V30 2044 H 197.788 -2.22266 2.39302 0
M  V30 2045 H 196.447 -0.487985 3.63338 0
M  V30 2046 H 196.095 -2.92059 4.09525 0
M  V30 2047 H 195.795 -1.93466 5.54837 0
M  V30 2048 H 197.319 -2.85481 5.39753 0
M  V30 2049 H 198.733 -0.603752 5.70112 0
M  V30 2050 H 197.13 0.128968 5.99961 0
M  V30 2051 H 198.2 0.837052 4.77621 0
M  V30 2052 N 199.544 -1.57102 0.125237 0
M  V30 2053 C 200.477 -2.11371 -0.860094 0
M  V30 2054 C 201.455 -1.03168 -1.25679 0
M  V30 2055 O 202.639 -1.30862 -1.35674 0
M  V30 2056 C 199.766 -2.61555 -2.1519 0
M  V30 2057 C 198.812 -3.81701 -1.9028 0
M  V30 2058 S 199.645 -5.23797 -1.11343 0
M  V30 2059 C 200.801 -5.77353 -2.41689 0
M  V30 2060 H 201.034 -2.94617 -0.39852 0
M  V30 2061 H 198.567 -1.54145 -0.0886555 0
M  V30 2062 H 200.525 -2.91122 -2.89411 0
M  V30 2063 H 199.186 -1.78479 -2.58465 0
M  V30 2064 H 198.379 -4.14985 -2.86014 0
M  V30 2065 H 197.981 -3.52783 -1.24178 0
M  V30 2066 H 200.273 -5.87458 -3.37489 0
M  V30 2067 H 201.216 -6.75323 -2.12942 0
M  V30 2068 H 201.624 -5.05457 -2.51342 0
M  V30 2069 N 201.022 0.148545 -1.56898 0
M  V30 2070 C 201.969 1.18345 -1.98149 0
M  V30 2071 C 202.939 1.42772 -0.848848 0
M  V30 2072 O 204.124 1.55132 -1.11079 0
M  V30 2073 C 201.264 2.51231 -2.36594 0
M  V30 2074 C 200.377 2.33991 -3.63142 0
M  V30 2075 C 199.512 3.59902 -3.90697 0
M  V30 2076 C 198.551 3.37692 -5.1052 0
M  V30 2077 N 197.688 4.5573 -5.34092 0
M  V30 2078 H 202.528 0.82467 -2.86362 0
M  V30 2079 H 200.065 0.395756 -1.41676 0
M  V30 2080 H 202.023 3.28713 -2.56912 0
M  V30 2081 H 200.653 2.85059 -1.51463 0
M  V30 2082 H 199.705 1.47572 -3.50609 0
M  V30 2083 H 201.017 2.13539 -4.5078 0
M  V30 2084 H 200.171 4.45813 -4.11505 0
M  V30 2085 H 198.91 3.83357 -3.01477 0
M  V30 2086 H 197.915 2.5017 -4.89587 0
M  V30 2087 H 199.14 3.15637 -6.0129 0
M  V30 2088 H 197.086 4.79361 -4.47827 0
M  V30 2089 H 197.003 4.38274 -6.15996 0
M  V30 2090 H 198.271 5.42858 -5.59397 0
M  V30 2091 N 202.5 1.5196 0.417844 0
M  V30 2092 C 203.777 1.56146 1.17803 0
M  V30 2093 C 204.157 0.337275 2.08388 0
M  V30 2094 O 203.505 -0.676447 2.18258 0
M  V30 2095 C 203.715 2.88566 1.96293 0
M  V30 2096 C 205.063 3.41244 2.52662 0
M  V30 2097 O 206.087 2.90247 2.06483 0
M  V30 2098 O 204.946 4.30273 3.36938 0
M  V30 2099 H 202.04 0.628598 0.537395 0
M  V30 2100 H 204.586 1.64283 0.425331 0
M  V30 2101 H 203.358 3.69116 1.2988 0
M  V30 2102 H 202.981 2.83681 2.78587 0
M  V30 2103 N 203.978 -0.674533 1.42435 0
M  V30 2104 C 205.226 -1.43175 1.42637 0
M  V30 2105 C 205.547 -1.94951 0.0438992 0
M  V30 2106 O 204.817 -1.7308 -0.917607 0
M  V30 2107 H 203.397 -0.531307 0.525092 0
M  V30 2108 H 206.059 -0.797006 1.77859 0
M  V30 2109 H 205.155 -2.28463 2.12629 0
M  V30 2110 N 205.456 -1.28612 -0.910864 0
M  V30 2111 C 206.733 -1.06632 -1.63979 0
M  V30 2112 C 207.113 0.393351 -2.07403 0
M  V30 2113 O 206.461 1.37999 -1.82122 0
M  V30 2114 C 206.671 -2.0436 -2.8291 0
M  V30 2115 C 208.019 -2.34666 -3.5386 0
M  V30 2116 O 209.043 -2.02467 -2.93062 0
M  V30 2117 O 207.902 -2.89631 -4.63439 0
M  V30 2118 H 204.996 -0.407737 -0.7195 0
M  V30 2119 H 207.542 -1.39942 -0.959914 0
M  V30 2120 H 206.314 -3.02727 -2.47936 0
M  V30 2121 H 205.937 -1.71714 -3.58609 0
M  V30 2122 N 206.934 1.1197 -1.10907 0
M  V30 2123 C 207.881 2.17846 -0.762345 0
M  V30 2124 C 208.851 1.63995 0.263599 0
M  V30 2125 O 210.036 1.90273 0.141773 0
M  V30 2126 C 207.176 3.44487 -0.205651 0
M  V30 2127 C 206.289 4.12369 -1.28748 0
M  V30 2128 C 205.424 5.26674 -0.691919 0
M  V30 2129 C 204.463 5.86431 -1.75399 0
M  V30 2130 N 203.6 6.92142 -1.17833 0
M  V30 2131 H 208.44 2.46851 -1.6694 0
M  V30 2132 H 205.977 1.21188 -0.833776 0
M  V30 2133 H 207.935 4.16981 0.135037 0
M  V30 2134 H 206.565 3.15884 0.664613 0
M  V30 2135 H 205.617 3.38003 -1.74522 0
M  V30 2136 H 206.929 4.52844 -2.09125 0
M  V30 2137 H 206.083 6.05953 -0.300963 0
M  V30 2138 H 204.822 4.8749 0.143232 0
M  V30 2139 H 203.827 5.05835 -2.15432 0
M  V30 2140 H 205.052 6.27685 -2.59208 0
M  V30 2141 H 202.998 6.54985 -0.364725 0
M  V30 2142 H 202.915 7.31242 -1.91887 0
M  V30 2143 H 204.183 7.75237 -0.81408 0
M  V30 2144 N 208.412 0.89855 1.29475 0
M  V30 2145 C 209.36 0.365253 2.29714 0
M  V30 2146 C 210.354 -0.534993 1.6073 0
M  V30 2147 O 211.56 -0.417921 1.75081 0
M  V30 2148 H 207.935 0.0994853 0.74539 0
M  V30 2149 H 209.906 1.22406 2.72138 0
M  V30 2150 C 208.655 -0.393159 3.4547 0
M  V30 2151 H 207.978 0.290332 3.98744 0
M  V30 2152 H 209.418 -0.731189 4.17648 0
M  V30 2153 C 207.877 -1.59539 2.9673 0
M  V30 2154 O 208.407 -2.69469 2.97908 0
M  V30 2155 N 206.613 -1.43716 2.52575 0
M  V30 2156 H 206.16 -0.542828 2.51816 0
M  V30 2157 H 206.118 -2.24288 2.20323 0
M  V30 2158 N 209.89 -1.43072 0.660911 0
M  V30 2159 C 210.838 -2.32569 -0.0378199 0
M  V30 2160 C 211.832 -1.49046 -0.805092 0
M  V30 2161 O 213.038 -1.65206 -0.714624 0
M  V30 2162 H 209.413 -0.75136 -0.031019 0
M  V30 2163 H 211.384 -2.89216 0.734609 0
M  V30 2164 C 210.133 -3.33453 -0.985124 0
M  V30 2165 H 209.456 -3.97752 -0.404147 0
M  V30 2166 H 210.896 -3.98691 -1.44297 0
M  V30 2167 C 209.355 -2.64642 -2.08486 0
M  V30 2168 O 209.885 -2.46776 -3.16961 0
M  V30 2169 N 208.091 -2.23891 -1.8526 0
M  V30 2170 H 207.638 -2.38621 -0.970449 0
M  V30 2171 H 207.596 -1.78181 -2.59034 0
M  V30 2172 N 211.368 -0.403325 -1.52352 0
M  V30 2173 C 212.645 0.232611 -1.94212 0
M  V30 2174 C 213.025 1.63133 -1.33981 0
M  V30 2175 O 212.373 2.22659 -0.513344 0
M  V30 2176 C 212.583 0.244811 -3.4814 0
M  V30 2177 C 213.931 0.46698 -4.22024 0
M  V30 2178 O 214.955 0.324419 -3.5472 0
M  V30 2179 O 213.814 0.74747 -5.41364 0
M  V30 2180 H 210.908 0.148223 -0.813609 0
M  V30 2181 H 213.454 -0.458848 -1.63379 0
M  V30 2182 H 212.226 -0.734378 -3.84347 0
M  V30 2183 H 211.849 0.980611 -3.85318 0
M  V30 2184 N 212.846 1.57033 -0.133567 0
M  V30 2185 C 214.094 1.953 0.519848 0
M  V30 2186 C 214.415 1.01866 1.66278 0
M  V30 2187 O 213.685 0.0776513 1.95746 0
M  V30 2188 H 212.265 0.721091 0.195032 0
M  V30 2189 H 214.927 1.93809 -0.205921 0
M  V30 2190 H 214.023 2.98695 0.904854 0
M  V30 2191 N 214.325 -0.140222 1.56975 0
M  V30 2192 C 215.741 -0.493088 1.51792 0
M  V30 2193 C 215.941 -1.83013 0.843116 0
M  V30 2194 O 214.997 -2.49041 0.416493 0
M  V30 2195 C 216.31 -0.497144 2.96562 0
M  V30 2196 C 217.858 -0.582186 3.07538 0
M  V30 2197 C 218.333 -0.616838 4.53827 0
M  V30 2198 N 219.824 -0.678873 4.58198 0
M  V30 2199 C 220.559 -0.726782 5.68775 0
M  V30 2200 N 220.055 -0.733623 6.88905 0
M  V30 2201 N 221.848 -0.768179 5.56826 0
M  V30 2202 H 213.999 0.736108 1.99237 0
M  V30 2203 H 216.262 0.269182 0.90898 0
M  V30 2204 H 215.968 0.417217 3.49217 0
M  V30 2205 H 215.842 -1.33263 3.52875 0
M  V30 2206 H 218.229 -1.48697 2.54899 0
M  V30 2207 H 218.31 0.280581 2.54257 0
M  V30 2208 H 217.954 0.283812 5.07106 0
M  V30 2209 H 217.884 -1.49619 5.04898 0
M  V30 2210 H 220.375 -0.68061 3.7172 0
M  V30 2211 H 220.688 -0.772215 7.68932 0
M  V30 2212 H 219.033 -0.701389 6.91452 0
M  V30 2213 H 222.224 -0.760051 4.61888 0
M  V30 2214 H 222.397 -0.80205 6.43017 0
M  V30 2215 N 215.803 -1.52179 -0.40978 0
M  V30 2216 C 217.052 -1.65434 -1.15388 0
M  V30 2217 C 217.365 -0.390056 -1.91671 0
M  V30 2218 O 218.571 -0.402399 -2.68501 0
M  V30 2219 C 217.027 -2.92279 -2.10003 0
M  V30 2220 C 216.635 -4.25813 -1.39239 0
M  V30 2221 C 218.379 -3.14897 -2.84675 0
M  V30 2222 C 216.286 -5.43782 -2.32498 0
M  V30 2223 H 215.216 -0.616267 -0.434432 0
M  V30 2224 H 217.867 -1.78666 -0.418401 0
M  V30 2225 H 216.249 -2.72744 -2.871 0
M  V30 2226 H 217.423 -4.55828 -0.675099 0
M  V30 2227 H 215.738 -4.09292 -0.766097 0
M  V30 2228 H 218.335 -4.0021 -3.54593 0
M  V30 2229 H 218.678 -2.29103 -3.47588 0
M  V30 2230 H 219.211 -3.34901 -2.14677 0
M  V30 2231 H 215.95 -6.3192 -1.74233 0
M  V30 2232 H 215.47 -5.18106 -3.02201 0
M  V30 2233 H 217.149 -5.76834 -2.93038 0
M  V30 2234 N 217.281 0.66697 -1.42791 0
M  V30 2235 C 218.558 1.4234 -1.34159 0
M  V30 2236 C 218.938 2.11093 0.0172729 0
M  V30 2237 O 218.286 2.03808 1.03318 0
M  V30 2238 C 218.496 2.41942 -2.51526 0
M  V30 2239 C 219.844 3.06353 -2.93995 0
M  V30 2240 O 220.868 2.52269 -2.51473 0
M  V30 2241 O 219.727 4.04376 -3.67617 0
M  V30 2242 H 216.821 0.635277 -0.529483 0
M  V30 2243 H 219.367 0.695034 -1.54814 0
M  V30 2244 H 218.139 1.89991 -3.42081 0
M  V30 2245 H 217.762 3.22249 -2.32898 0
M  V30 2246 N 218.759 1.29093 0.90403 0
M  V30 2247 C 220.006 1.16813 1.65411 0
M  V30 2248 C 220.334 -0.28128 1.92455 0
M  V30 2249 O 219.589 -1.22006 1.53013 0
M  V30 2250 C 219.888 1.92224 3.01305 0
M  V30 2251 C 219.554 3.41968 2.93885 0
M  V30 2252 C 218.216 3.82807 2.91569 0
M  V30 2253 C 220.568 4.37409 2.83413 0
M  V30 2254 C 217.896 5.1741 2.76594 0
M  V30 2255 C 220.248 5.72097 2.69977 0
M  V30 2256 C 218.912 6.12199 2.66024 0
M  V30 2257 H 218.182 0.42745 0.605283 0
M  V30 2258 H 220.829 1.59981 1.05254 0
M  V30 2259 H 219.134 1.41635 3.65304 0
M  V30 2260 H 220.831 1.80131 3.58265 0
M  V30 2261 H 217.421 3.09504 2.96488 0
M  V30 2262 H 221.605 4.06813 2.84283 0
M  V30 2263 H 216.861 5.47596 2.71935 0
M  V30 2264 H 221.035 6.45704 2.60844 0
M  V30 2265 H 218.662 7.16448 2.54178 0
M  V30 2266 N 220.237 -1.11381 1.11499 0
M  V30 2267 C 221.514 -1.7955 0.775965 0
M  V30 2268 C 221.894 -1.97859 -0.73588 0
M  V30 2269 O 221.242 -1.56376 -1.66609 0
M  V30 2270 C 221.452 -3.13196 1.53977 0
M  V30 2271 C 222.8 -3.88227 1.71944 0
M  V30 2272 O 223.824 -3.22887 1.50407 0
M  V30 2273 O 222.683 -5.05477 2.07738 0
M  V30 2274 H 219.777 -0.777728 0.28119 0
M  V30 2275 H 222.323 -1.18118 1.21845 0
M  V30 2276 H 221.095 -2.95229 2.56818 0
M  V30 2277 H 220.718 -3.82342 1.09088 0
M  V30 2278 N 221.715 -0.905404 -1.28997 0
M  V30 2279 C 222.625 -0.392246 -2.31298 0
M  V30 2280 C 223.641 0.515889 -1.66176 0
M  V30 2281 O 224.817 0.404093 -1.97304 0
M  V30 2282 C 221.882 0.36686 -3.44754 0
M  V30 2283 C 220.943 -0.573485 -4.25452 0
M  V30 2284 C 220.176 0.149488 -5.33491 0
M  V30 2285 O 220.399 1.37255 -5.5364 0
M  V30 2286 O 219.333 -0.510919 -5.99728 0
M  V30 2287 H 223.159 -1.2411 -2.77183 0
M  V30 2288 H 220.744 -0.669926 -1.33538 0
M  V30 2289 H 222.626 0.795907 -4.13816 0
M  V30 2290 H 221.301 1.19169 -3.00966 0
M  V30 2291 H 220.208 -1.05176 -3.59011 0
M  V30 2292 H 221.541 -1.36489 -4.72897 0
M  V30 2293 N 223.193 1.4272 -0.668489 0
M  V30 2294 C 224.44 2.01624 -0.18814 0
M  V30 2295 C 224.768 1.5282 1.20317 0
M  V30 2296 O 224.023 0.718323 1.8204 0
M  V30 2297 C 224.322 3.57021 -0.164499 0
M  V30 2298 C 223.988 4.25232 -1.49962 0
M  V30 2299 C 222.65 4.4358 -1.8652 0
M  V30 2300 C 225.002 4.63727 -2.37921 0
M  V30 2301 C 222.33 4.97694 -3.10674 0
M  V30 2302 C 224.682 5.19218 -3.6138 0
M  V30 2303 C 223.346 5.3578 -3.98115 0
M  V30 2304 H 222.616 0.737795 -0.0688454 0
M  V30 2305 H 225.263 1.70991 -0.862225 0
M  V30 2306 H 223.568 3.87285 0.593079 0
M  V30 2307 H 225.265 4.00372 0.224271 0
M  V30 2308 H 221.855 4.11306 -1.20522 0
M  V30 2309 H 226.039 4.4923 -2.10964 0
M  V30 2310 H 221.295 5.08702 -3.39164 0
M  V30 2311 H 225.469 5.4799 -4.29743 0
M  V30 2312 H 223.096 5.77475 -4.94395 0
M  V30 2313 N 224.671 0.411399 1.52136 0
M  V30 2314 C 225.601 -0.404015 2.29978 0
M  V30 2315 C 226.582 -1.04412 1.34284 0
M  V30 2316 O 227.767 -1.0527 1.63192 0
M  V30 2317 C 224.897 -1.5197 3.12286 0
M  V30 2318 C 223.851 -1.00448 4.16046 0
M  V30 2319 C 223.177 -2.21393 4.86712 0
M  V30 2320 C 224.477 -0.0569336 5.22269 0
M  V30 2321 H 226.171 0.245529 2.98392 0
M  V30 2322 H 223.717 0.119525 1.43503 0
M  V30 2323 H 225.67 -2.09715 3.6551 0
M  V30 2324 H 224.394 -2.19716 2.41646 0
M  V30 2325 H 223.053 -0.449421 3.63835 0
M  V30 2326 H 222.701 -2.87699 4.12599 0
M  V30 2327 H 222.401 -1.87571 5.56858 0
M  V30 2328 H 223.925 -2.7974 5.4275 0
M  V30 2329 H 225.339 -0.54325 5.7072 0
M  V30 2330 H 223.736 0.192594 5.99791 0
M  V30 2331 H 224.806 0.887663 4.76706 0
M  V30 2332 N 226.149 -1.5696 0.141893 0
M  V30 2333 C 227.096 -2.16501 -0.799737 0
M  V30 2334 C 228.066 -1.09643 -1.24771 0
M  V30 2335 O 229.251 -1.3766 -1.32115 0
M  V30 2336 C 226.391 -2.78679 -2.03549 0
M  V30 2337 C 225.504 -3.99914 -1.6338 0
M  V30 2338 C 224.639 -4.50106 -2.82096 0
M  V30 2339 C 223.678 -5.63819 -2.38275 0
M  V30 2340 N 222.815 -6.08651 -3.49983 0
M  V30 2341 H 227.655 -2.96632 -0.285179 0
M  V30 2342 H 225.192 -1.46533 -0.129053 0
M  V30 2343 H 227.15 -3.1287 -2.75986 0
M  V30 2344 H 225.78 -2.012 -2.52425 0
M  V30 2345 H 224.832 -3.71735 -0.807279 0
M  V30 2346 H 226.144 -4.82311 -1.27192 0
M  V30 2347 H 225.298 -4.86325 -3.62729 0
M  V30 2348 H 224.037 -3.66706 -3.21525 0
M  V30 2349 H 223.042 -5.2718 -1.56081 0
M  V30 2350 H 224.267 -6.49 -1.99938 0
M  V30 2351 H 222.213 -5.28188 -3.89042 0
M  V30 2352 H 222.13 -6.85961 -3.17794 0
M  V30 2353 H 223.398 -6.49515 -4.30988 0
M  V30 2354 N 227.627 0.131896 -1.57047 0
M  V30 2355 C 228.56 1.19236 -1.94571 0
M  V30 2356 C 229.538 1.40782 -0.813576 0
M  V30 2357 O 230.722 1.55148 -1.07058 0
M  V30 2358 C 227.849 2.54858 -2.23081 0
M  V30 2359 C 226.895 2.49817 -3.45679 0
M  V30 2360 S 227.728 1.95036 -4.98719 0
M  V30 2361 C 228.884 3.32357 -5.30367 0
M  V30 2362 H 229.117 0.872297 -2.84215 0
M  V30 2363 H 226.65 0.338134 -1.50652 0
M  V30 2364 H 228.608 3.32898 -2.40185 0
M  V30 2365 H 227.269 2.84047 -1.34074 0
M  V30 2366 H 226.462 3.49688 -3.62952 0
M  V30 2367 H 226.064 1.79892 -3.27895 0
M  V30 2368 H 228.356 4.28525 -5.2476 0
M  V30 2369 H 229.299 3.19923 -6.31708 0
M  V30 2370 H 229.707 3.3019 -4.57859 0
M  V30 2371 N 229.106 1.52395 0.401703 0
M  V30 2372 C 230.039 1.70999 1.51111 0
M  V30 2373 C 231.017 0.55765 1.52738 0
M  V30 2374 O 232.201 0.785912 1.71335 0
M  V30 2375 C 229.328 1.75607 2.8962 0
M  V30 2376 C 228.374 2.97227 3.05873 0
M  V30 2377 S 229.207 4.57439 2.78405 0
M  V30 2378 C 230.363 4.64844 4.19131 0
M  V30 2379 H 230.596 2.6483 1.35102 0
M  V30 2380 H 228.129 1.42527 0.593762 0
M  V30 2381 H 230.087 1.78947 3.69443 0
M  V30 2382 H 228.748 0.828914 3.02965 0
M  V30 2383 H 227.941 2.96955 4.07227 0
M  V30 2384 H 227.543 2.91813 2.33925 0
M  V30 2385 H 229.835 4.42677 5.12877 0
M  V30 2386 H 230.778 5.66807 4.24424 0
M  V30 2387 H 231.186 3.93804 4.04448 0
M  V30 2388 N 230.584 -0.659388 1.43143 0
M  V30 2389 C 231.494 -1.80167 1.50256 0
M  V30 2390 C 232.51 -1.69571 0.390106 0
M  V30 2391 O 233.686 -1.90849 0.643319 0
M  V30 2392 C 230.751 -3.16409 1.41725 0
M  V30 2393 C 229.812 -3.38848 2.63591 0
M  V30 2394 C 229.045 -4.68591 2.55458 0
M  V30 2395 O 229.268 -5.47532 1.59891 0
M  V30 2396 O 228.202 -4.92614 3.45854 0
M  V30 2397 H 232.028 -1.77121 2.46702 0
M  V30 2398 H 229.613 -0.817092 1.25076 0
M  V30 2399 H 231.495 -3.9768 1.39387 0
M  V30 2400 H 230.17 -3.20059 0.484118 0
M  V30 2401 H 229.077 -2.57366 2.71502 0
M  V30 2402 H 230.41 -3.4004 3.55856 0
M  V30 2403 N 232.062 -1.29571 -0.897171 0
M  V30 2404 C 233.31 -1.17456 -1.64464 0
M  V30 2405 C 233.631 0.273698 -1.9307 0
M  V30 2406 O 232.901 1.18684 -1.55855 0
M  V30 2407 H 231.481 -0.431706 -0.609622 0
M  V30 2408 H 234.143 -1.62531 -1.07562 0
M  V30 2409 H 233.239 -1.72648 -2.59998 0
M  V30 2410 N 233.54 1.10788 -1.12088 0
M  V30 2411 C 234.786 1.82942 -0.875226 0
M  V30 2412 C 235.119 1.84779 0.597538 0
M  V30 2413 O 234.394 1.30578 1.44152 0
M  V30 2414 C 234.677 3.29789 -1.44606 0
M  V30 2415 C 234.53 3.36307 -2.98693 0
M  V30 2416 C 235.849 4.26064 -1.10261 0
M  V30 2417 H 232.968 0.664195 -0.319397 0
M  V30 2418 H 235.61 1.29867 -1.38689 0
M  V30 2419 H 233.76 3.75118 -1.01089 0
M  V30 2420 H 235.432 2.99487 -3.50864 0
M  V30 2421 H 233.675 2.76318 -3.34411 0
M  V30 2422 H 234.346 4.39694 -3.33726 0
M  V30 2423 H 236.822 3.88951 -1.4784 0
M  V30 2424 H 235.698 5.27183 -1.52869 0
M  V30 2425 H 235.959 4.42098 -0.0142953 0
M  V30 2426 N 235.018 0.912232 1.28515 0
M  V30 2427 C 235.95 0.35676 2.26406 0
M  V30 2428 C 236.963 -0.503933 1.54804 0
M  V30 2429 O 238.152 -0.319059 1.75625 0
M  V30 2430 C 235.252 -0.508825 3.35058 0
M  V30 2431 C 234.425 0.329007 4.36161 0
M  V30 2432 C 233.484 -0.471422 5.24084 0
M  V30 2433 O 232.51 0.115482 5.69083 0
M  V30 2434 N 233.712 -1.77479 5.52704 0
M  V30 2435 H 236.477 1.19818 2.74707 0
M  V30 2436 H 234.038 0.778022 1.4198 0
M  V30 2437 H 236.03 -1.051 3.90815 0
M  V30 2438 H 234.6 -1.25095 2.86478 0
M  V30 2439 H 233.82 1.05256 3.79888 0
M  V30 2440 H 235.108 0.90234 5.00735 0
M  V30 2441 H 234.506 -2.27417 5.17975 0
M  V30 2442 H 233.063 -2.26382 6.11224 0
M  V30 2443 O 236.535 -1.39418 0.815163 0
M  V30 2444 H 237.226 -1.89641 0.394473 0
M  V30 END ATOM
M  V30 BEGIN BOND
M  V30 END BOND
M  V30 END CTAB
M  END
$$$$
