drugbank_target|P02533 Keratin, type I cytoskeletal 14 (DB01593; DB14487)
 OpenBabel12092121083D

  0  0  0     0  0            999 V3000
M  V30 BEGIN CTAB
M  V30 COUNTS 7140 7176 0 0 0
M  V30 BEGIN ATOM
M  V30 1 H -0.908 1.98254 -0.117106 0
M  V30 2 N 0 1.576 0 0
M  V30 3 C 0.933 2.03868 1.02534 0
M  V30 4 C 1.911 0.928543 1.3348 0
M  V30 5 O 3.095 1.19667 1.45644 0
M  V30 6 C 0.222 2.43627 2.35294 0
M  V30 7 C -0.732 3.65373 2.2001 0
M  V30 8 S 0.101 5.13292 1.52614 0
M  V30 9 C 1.257 5.56322 2.86805 0
M  V30 10 H 1.49 2.90518 0.631377 0
M  V30 11 H -0.977 1.52953 0.210867 0
M  V30 12 H 0.981 2.67203 3.11629 0
M  V30 13 H -0.358 1.57376 2.7183 0
M  V30 14 H -1.165 3.90944 3.18086 0
M  V30 15 H -1.563 3.418 1.51819 0
M  V30 16 H 0.729 5.58782 3.83104 0
M  V30 17 H 1.672 6.56266 2.65933 0
M  V30 18 H 2.08 4.83886 2.90714 0
M  V30 19 N 1.4781 -0.272755 1.55222 0
M  V30 20 C 2.7061 -1.02255 1.79865 0
M  V30 21 C 3.1211 -1.79924 0.572088 0
M  V30 22 O 2.4781 -1.76638 -0.458842 0
M  V30 23 C 2.5291 -1.98094 3.02392 0
M  V30 24 O 2.2501 -1.23572 4.20311 0
M  V30 25 C 3.7511 -2.84884 3.39641 0
M  V30 26 H 0.9711 -0.302057 0.599168 0
M  V30 27 H 3.5151 -0.303465 2.02236 0
M  V30 28 H 1.6701 -2.65465 2.82147 0
M  V30 29 H 2.0841 -1.88172 4.89583 0
M  V30 30 H 3.5581 -3.47927 4.28545 0
M  V30 31 H 4.0351 -3.54665 2.59055 0
M  V30 32 H 4.6411 -2.23003 3.62146 0
M  V30 33 N 2.9562 -1.48159 -0.537278 0
M  V30 34 C 4.1842 -1.59454 -1.31841 0
M  V30 35 C 4.5992 -0.252065 -1.8711 0
M  V30 36 O 3.9562 0.757621 -1.66031 0
M  V30 37 C 4.0072 -2.63546 -2.47439 0
M  V30 38 O 3.7282 -3.92583 -1.94449 0
M  V30 39 C 5.2292 -2.85212 -3.39366 0
M  V30 40 H 2.4492 -0.53785 -0.401196 0
M  V30 41 H 4.9932 -1.93932 -0.648891 0
M  V30 42 H 3.1482 -2.31946 -3.1029 0
M  V30 43 H 3.5622 -4.49629 -2.70063 0
M  V30 44 H 5.0362 -3.61863 -4.16844 0
M  V30 45 H 5.5132 -1.93765 -3.94147 0
M  V30 46 H 6.1192 -3.18086 -2.82314 0
M  V30 47 N 4.4343 0.785586 -1.36625 0
M  V30 48 C 5.6743 1.55678 -1.32453 0
M  V30 49 C 6.0383 1.91769 0.0941089 0
M  V30 50 O 7.2393 2.67536 0.26042 0
M  V30 51 C 5.5103 2.79701 -2.22491 0
M  V30 52 S 7.0693 3.69907 -2.36038 0
M  V30 53 H 3.8873 0.533141 -0.470405 0
M  V30 54 H 6.4893 0.924953 -1.72235 0
M  V30 55 H 5.1933 2.51244 -3.24507 0
M  V30 56 H 4.7243 3.47854 -1.83742 0
M  V30 57 H 6.7393 4.71016 -1.56072 0
M  V30 58 N 5.9124 1.20967 1.01018 0
M  V30 59 C 7.1374 1.0503 1.78839 0
M  V30 60 C 7.5624 -0.395752 1.8389 0
M  V30 61 O 6.9204 -1.28529 1.27867 0
M  V30 62 C 6.9684 1.64602 3.2084 0
M  V30 63 O 6.0724 0.887988 4.02726 0
M  V30 64 H 5.4134 0.369987 0.551367 0
M  V30 65 H 7.9434 1.60399 1.27018 0
M  V30 66 H 7.9534 1.68607 3.71532 0
M  V30 67 H 6.6284 2.69841 3.16479 0
M  V30 68 H 5.2054 0.922648 3.61305 0
M  V30 69 N 7.3905 -1.2043 1.01659 0
M  V30 70 C 8.8065 -1.41852 0.731442 0
M  V30 71 C 9.0065 -1.89358 -0.688898 0
M  V30 72 O 8.0625 -2.06247 -1.45666 0
M  V30 73 C 9.3755 -2.44019 1.75714 0
M  V30 74 C 10.9235 -2.57785 1.77527 0
M  V30 75 C 11.3985 -3.63194 2.79023 0
M  V30 76 N 12.8895 -3.70678 2.77763 0
M  V30 77 C 13.6245 -4.51897 3.52954 0
M  V30 78 N 13.1205 -5.36921 4.37821 0
M  V30 79 N 14.9135 -4.4643 3.41551 0
M  V30 80 H 7.0645 -0.879093 1.93354 0
M  V30 81 H 9.3275 -0.448425 0.835236 0
M  V30 82 H 9.0335 -2.1611 2.77469 0
M  V30 83 H 8.9075 -3.43007 1.56927 0
M  V30 84 H 11.2945 -2.85023 0.764569 0
M  V30 85 H 11.3755 -1.58992 2.00387 0
M  V30 86 H 11.0195 -3.36699 3.80258 0
M  V30 87 H 10.9495 -4.61609 2.53425 0
M  V30 88 H 13.4405 -3.09944 2.16201 0
M  V30 89 H 13.7535 -5.95981 4.91962 0
M  V30 90 H 12.0985 -5.36424 4.41899 0
M  V30 91 H 15.2895 -3.79042 2.74672 0
M  V30 92 H 15.4625 -5.09491 4.00404 0
M  V30 93 N 8.8686 -0.792821 -1.36206 0
M  V30 94 C 9.8006 -0.151469 -2.28699 0
M  V30 95 C 10.8136 0.641262 -1.49638 0
M  V30 96 O 12.0026 0.475885 -1.72039 0
M  V30 97 C 9.1026 0.808424 -3.29117 0
M  V30 98 C 8.2756 0.0650202 -4.37352 0
M  V30 99 C 7.3346 0.941358 -5.17711 0
M  V30 100 O 6.3606 0.397352 -5.67811 0
M  V30 101 N 7.5626 2.2652 -5.3448 0
M  V30 102 H 10.3276 -0.945982 -2.84379 0
M  V30 103 H 7.8886 -0.647032 -1.48409 0
M  V30 104 H 9.8806 1.3986 -3.79765 0
M  V30 105 H 8.4506 1.5038 -2.74052 0
M  V30 106 H 7.6706 -0.706255 -3.87822 0
M  V30 107 H 8.9586 -0.447847 -5.06825 0
M  V30 108 H 8.3566 2.73128 -4.95396 0
M  V30 109 H 6.9136 2.80493 -5.88359 0
M  V30 110 N 10.3467 1.47872 -0.545128 0
M  V30 111 C 11.5937 2.02493 -0.0165858 0
M  V30 112 C 11.9217 1.42073 1.32836 0
M  V30 113 O 11.1767 0.561459 1.87473 0
M  V30 114 C 11.4757 3.57131 0.13867 0
M  V30 115 C 11.1417 4.36411 -1.13384 0
M  V30 116 C 9.8037 4.57792 -1.48256 0
M  V30 117 C 12.1557 4.82223 -1.97764 0
M  V30 118 C 9.4837 5.22233 -2.67376 0
M  V30 119 C 11.8357 5.47977 -3.16076 0
M  V30 120 C 10.4997 5.67593 -3.51275 0
M  V30 121 H 9.7697 0.740975 -0.00606918 0
M  V30 122 H 12.4167 1.77683 -0.714207 0
M  V30 123 H 10.7217 3.80865 0.919172 0
M  V30 124 H 12.4187 3.97031 0.562782 0
M  V30 125 H 9.0087 4.2004 -0.852297 0
M  V30 126 H 13.1927 4.65493 -1.72132 0
M  V30 127 H 8.4487 5.35616 -2.94831 0
M  V30 128 H 12.6227 5.8244 -3.81755 0
M  V30 129 H 10.2497 6.17298 -4.43675 0
M  V30 130 N 11.8248 0.280983 1.55075 0
M  V30 131 C 13.0528 -0.337293 2.04132 0
M  V30 132 C 13.4678 -1.4903 1.15912 0
M  V30 133 O 12.8248 -1.81606 0.180459 0
M  V30 134 C 12.8758 -0.812706 3.52246 0
M  V30 135 O 12.5968 0.294387 4.3711 0
M  V30 136 C 14.0978 -1.4982 4.17216 0
M  V30 137 H 11.3178 -0.0761638 0.666663 0
M  V30 138 H 13.8618 0.414787 2.00249 0
M  V30 139 H 12.0168 -1.51486 3.56554 0
M  V30 140 H 12.4308 -0.0721325 5.2445 0
M  V30 141 H 13.9048 -1.7822 5.22438 0
M  V30 142 H 14.3818 -2.43168 3.65741 0
M  V30 143 H 14.9878 -0.839742 4.16927 0
M  V30 144 N 13.3029 -1.57598 0.00835791 0
M  V30 145 C 14.5279 -1.95617 -0.689103 0
M  V30 146 C 14.9529 -0.883753 -1.66046 0
M  V30 147 O 14.3109 0.157352 -1.80616 0
M  V30 148 C 14.3589 -3.32736 -1.38994 0
M  V30 149 O 13.4629 -3.27631 -2.50463 0
M  V30 150 H 12.8039 -0.638379 -0.182668 0
M  V30 151 H 15.3339 -2.045 0.064036 0
M  V30 152 H 15.3439 -3.68494 -1.75147 0
M  V30 153 H 14.0189 -4.1034 -0.677778 0
M  V30 154 H 12.5959 -3.03561 -2.16576 0
M  V30 155 N 14.781 0.264519 -1.55364 0
M  V30 156 C 16.006 1.01726 -1.80739 0
M  V30 157 C 16.431 1.78836 -0.583044 0
M  V30 158 O 15.789 1.75167 0.467566 0
M  V30 159 C 15.837 1.94482 -3.03659 0
M  V30 160 O 14.941 3.03386 -2.7934 0
M  V30 161 H 14.282 0.290395 -0.597132 0
M  V30 162 H 16.812 0.290854 -2.02522 0
M  V30 163 H 16.822 2.36278 -3.32621 0
M  V30 164 H 15.497 1.37772 -3.92418 0
M  V30 165 H 14.074 2.65844 -2.61498 0
M  V30 166 N 16.2591 1.48442 0.529413 0
M  V30 167 C 17.4841 1.60406 1.31471 0
M  V30 168 C 17.9091 0.264738 1.86228 0
M  V30 169 O 17.2671 -0.763668 1.64432 0
M  V30 170 C 17.3151 2.65419 2.44101 0
M  V30 171 O 16.4191 2.22618 3.47153 0
M  V30 172 H 15.7601 0.537863 0.389357 0
M  V30 173 H 18.2901 1.94432 0.636965 0
M  V30 174 H 18.3001 2.86709 2.90279 0
M  V30 175 H 16.9751 3.62652 2.03608 0
M  V30 176 H 15.5521 2.11543 3.0709 0
M  V30 177 N 17.7372 -0.778329 1.37039 0
M  V30 178 C 18.9622 -1.57248 1.35233 0
M  V30 179 C 19.3872 -1.87999 -0.0615568 0
M  V30 180 O 18.7452 -1.48734 -1.03672 0
M  V30 181 C 18.7932 -2.86353 2.19167 0
M  V30 182 O 17.8972 -3.80442 1.59178 0
M  V30 183 H 17.2382 -0.476569 0.462362 0
M  V30 184 H 19.7682 -0.963853 1.80474 0
M  V30 185 H 19.7782 -3.35519 2.32145 0
M  V30 186 H 18.4532 -2.63299 3.21942 0
M  V30 187 H 17.0302 -3.39067 1.55203 0
M  V30 188 N 19.2153 -1.21501 -1.00376 0
M  V30 189 C 20.1483 -0.918669 -2.08892 0
M  V30 190 C 21.1263 0.134277 -1.62045 0
M  V30 191 O 22.3103 0.00504255 -1.88499 0
M  V30 192 C 19.4373 -0.379645 -3.36566 0
M  V30 193 C 18.4833 -1.41559 -4.02323 0
M  V30 194 S 19.3163 -2.98521 -4.44574 0
M  V30 195 C 20.4723 -2.46228 -5.75433 0
M  V30 196 H 20.7053 -1.83761 -2.33707 0
M  V30 197 H 18.2383 -1.04489 -1.13673 0
M  V30 198 H 20.1963 -0.0752195 -4.10431 0
M  V30 199 H 18.8573 0.518008 -3.09799 0
M  V30 200 H 18.0503 -0.988076 -4.9422 0
M  V30 201 H 17.6523 -1.66815 -3.34737 0
M  V30 202 H 19.9443 -1.86791 -6.51241 0
M  V30 203 H 20.8873 -3.36572 -6.22997 0
M  V30 204 H 21.2953 -1.87894 -5.32312 0
M  V30 205 N 20.6934 1.19889 -1.02296 0
M  V30 206 C 21.6404 2.22901 -0.598651 0
M  V30 207 C 22.6104 1.61588 0.384521 0
M  V30 208 O 23.7954 1.88697 0.282522 0
M  V30 209 C 20.9354 3.45063 0.0504476 0
M  V30 210 C 20.0484 4.20783 -0.978053 0
M  V30 211 C 19.1834 5.30356 -0.299338 0
M  V30 212 C 18.2224 5.97826 -1.31416 0
M  V30 213 N 17.3594 6.98975 -0.661667 0
M  V30 214 H 22.1994 2.58554 -1.48169 0
M  V30 215 H 19.7364 1.27039 -0.741584 0
M  V30 216 H 21.6944 4.14831 0.443971 0
M  V30 217 H 20.3244 3.10084 0.897097 0
M  V30 218 H 19.3764 3.50018 -1.48969 0
M  V30 219 H 20.6884 4.67109 -1.74958 0
M  V30 220 H 19.8424 6.06516 0.149347 0
M  V30 221 H 18.5814 4.85084 0.504445 0
M  V30 222 H 17.5864 5.20422 -1.77317 0
M  V30 223 H 18.8114 6.45183 -2.11933 0
M  V30 224 H 16.7574 6.55886 0.122132 0
M  V30 225 H 16.6744 7.43461 -1.37117 0
M  V30 226 H 17.9424 7.7914 -0.236785 0
M  V30 227 N 22.1715 0.800033 1.35784 0
M  V30 228 C 23.4195 0.376597 1.9856 0
M  V30 229 C 23.7405 -1.05812 1.63795 0
M  V30 230 O 23.0105 -1.73103 0.917171 0
M  V30 231 H 21.5905 0.136261 0.734467 0
M  V30 232 H 24.2525 1.02442 1.65806 0
M  V30 233 H 23.3485 0.477002 3.08433 0
M  V30 234 N 23.6496 -1.47581 0.552962 0
M  V30 235 C 24.8746 -2.07378 0.0300593 0
M  V30 236 C 25.2996 -1.40355 -1.25229 0
M  V30 237 O 24.6576 -0.477099 -1.7491 0
M  V30 238 C 24.7056 -3.60274 -0.153231 0
M  V30 239 O 23.8096 -3.94041 -1.21678 0
M  V30 240 H 23.1506 -0.662158 0.0494182 0
M  V30 241 H 25.6806 -1.89662 0.767434 0
M  V30 242 H 25.6906 -4.0633 -0.368761 0
M  V30 243 H 24.3656 -4.08455 0.783397 0
M  V30 244 H 22.9426 -3.59735 -0.982079 0
M  V30 245 N 25.1277 -0.289203 -1.54924 0
M  V30 246 C 26.3677 0.324536 -2.01807 0
M  V30 247 C 26.7317 1.5199 -1.17316 0
M  V30 248 O 27.9327 2.20422 -1.53843 0
M  V30 249 C 26.2037 0.683578 -3.50802 0
M  V30 250 S 27.7627 1.28185 -4.19659 0
M  V30 251 H 24.5807 0.100236 -0.703899 0
M  V30 252 H 27.1827 -0.414325 -1.91059 0
M  V30 253 H 25.8867 -0.195073 -4.09936 0
M  V30 254 H 25.4177 1.45354 -3.65562 0
M  V30 255 H 27.4327 2.57006 -4.24456 0
M  V30 256 N 26.6058 1.57591 -0.0167156 0
M  V30 257 C 27.8538 1.90906 0.663285 0
M  V30 258 C 28.1748 0.892509 1.73376 0
M  V30 259 O 27.4448 -0.0677623 1.95783 0
M  V30 260 H 26.0248 0.704637 0.247983 0
M  V30 261 H 28.6868 1.94803 -0.0615909 0
M  V30 262 H 27.7828 2.9116 1.12393 0
M  V30 263 N 28.0839 -0.256276 1.55502 0
M  V30 264 C 29.3329 -0.983486 1.76098 0
M  V30 265 C 29.6459 -1.86837 0.578896 0
M  V30 266 O 30.8519 -2.63163 0.667648 0
M  V30 267 C 29.3079 -1.79868 3.1173 0
M  V30 268 C 28.9159 -0.961648 4.37557 0
M  V30 269 C 30.6599 -2.51919 3.41668 0
M  V30 270 C 28.5669 -1.77219 5.64223 0
M  V30 271 H 27.4969 -0.370936 0.656447 0
M  V30 272 H 30.1479 -0.238492 1.81944 0
M  V30 273 H 28.5299 -2.58527 2.99966 0
M  V30 274 H 29.7039 -0.218048 4.60284 0
M  V30 275 H 28.0189 -0.354913 4.14885 0
M  V30 276 H 30.6159 -3.12998 4.33516 0
M  V30 277 H 30.9589 -3.23059 2.62562 0
M  V30 278 H 31.4919 -1.80278 3.54605 0
M  V30 279 H 28.2309 -1.10471 6.46124 0
M  V30 280 H 27.7509 -2.49132 5.45613 0
M  V30 281 H 29.4299 -2.34169 6.03137 0
M  V30 282 N 29.562 -1.4872 -0.521534 0
M  V30 283 C 30.81 -1.56857 -1.27437 0
M  V30 284 C 31.131 -0.247982 -1.93417 0
M  V30 285 O 30.401 0.731151 -1.81744 0
M  V30 286 H 28.981 -0.577885 -0.473347 0
M  V30 287 H 31.643 -1.85233 -0.606205 0
M  V30 288 H 30.739 -2.35402 -2.0492 0
M  V30 289 N 31.0401 0.771051 -1.3745 0
M  V30 290 C 32.2881 1.52661 -1.32435 0
M  V30 291 C 32.6091 1.9479 0.0905024 0
M  V30 292 O 31.8791 1.66348 1.03466 0
M  V30 293 H 30.4591 0.566218 -0.487244 0
M  V30 294 H 33.1211 0.917636 -1.71946 0
M  V30 295 H 32.2171 2.42568 -1.96385 0
M  V30 296 N 32.5182 1.22032 0.997298 0
M  V30 297 C 33.7662 1.04016 1.73278 0
M  V30 298 C 34.0872 -0.426255 1.90284 0
M  V30 299 O 33.3572 -1.30694 1.45931 0
M  V30 300 H 31.9372 0.381897 0.642 0
M  V30 301 H 34.5992 1.5347 1.20137 0
M  V30 302 H 33.6952 1.51441 2.72896 0
M  V30 303 N 33.9963 -1.19345 1.0293 0
M  V30 304 C 35.2453 -1.88363 0.721256 0
M  V30 305 C 35.5583 -1.80514 -0.753254 0
M  V30 306 O 36.7643 -2.44788 -1.17436 0
M  V30 307 C 35.2203 -3.37872 1.23978 0
M  V30 308 C 34.8283 -3.54278 2.74211 0
M  V30 309 C 36.5723 -4.12365 1.00775 0
M  V30 310 C 34.4793 -4.97682 3.19479 0
M  V30 311 H 33.4093 -0.705484 0.266098 0
M  V30 312 H 36.0603 -1.34928 1.24365 0
M  V30 313 H 34.4423 -3.90707 0.6453 0
M  V30 314 H 35.6163 -3.11769 3.39318 0
M  V30 315 H 33.9313 -2.93174 2.95699 0
M  V30 316 H 36.5283 -5.18119 1.32123 0
M  V30 317 H 36.8713 -4.16263 -0.0554308 0
M  V30 318 H 37.4043 -3.65668 1.56625 0
M  V30 319 H 34.1433 -4.98945 4.25128 0
M  V30 320 H 33.6633 -5.4095 2.591 0
M  V30 321 H 35.3423 -5.66337 3.12845 0
M  V30 322 N 35.4744 -0.807222 -1.35358 0
M  V30 323 C 36.7224 -0.387122 -1.98358 0
M  V30 324 C 37.0434 1.04942 -1.64354 0
M  V30 325 O 36.3134 1.72615 -0.926339 0
M  V30 326 H 34.8934 -0.140154 -0.733734 0
M  V30 327 H 37.5554 -1.0332 -1.6526 0
M  V30 328 H 36.6514 -0.493352 -3.08176 0
M  V30 329 N 36.9525 1.47285 -0.560781 0
M  V30 330 C 38.2005 2.02064 -0.0379868 0
M  V30 331 C 38.5215 1.43711 1.31803 0
M  V30 332 O 37.7915 0.61362 1.86042 0
M  V30 333 H 36.3715 0.746918 -0.0110531 0
M  V30 334 H 39.0335 1.80648 -0.731598 0
M  V30 335 H 38.1295 3.12064 0.0474463 0
M  V30 336 N 38.4306 0.297415 1.54768 0
M  V30 337 C 39.6786 -0.312295 1.99673 0
M  V30 338 C 39.9996 -1.54686 1.18732 0
M  V30 339 O 39.2696 -1.93854 0.282382 0
M  V30 340 H 37.8496 -0.118381 0.73756 0
M  V30 341 H 40.5116 0.407915 1.90583 0
M  V30 342 H 39.6076 -0.586813 3.06534 0
M  V30 343 N 39.9087 -1.5758 0.0250728 0
M  V30 344 C 41.1337 -1.96337 -0.668317 0
M  V30 345 C 41.5587 -0.901314 -1.651 0
M  V30 346 O 40.9167 0.138187 -1.80773 0
M  V30 347 C 40.9647 -3.34191 -1.35457 0
M  V30 348 O 40.0687 -3.30269 -2.46974 0
M  V30 349 H 39.4097 -0.640281 -0.175887 0
M  V30 350 H 41.9397 -2.0442 0.0857224 0
M  V30 351 H 41.9497 -3.70331 -1.71228 0
M  V30 352 H 40.6247 -4.11036 -0.634218 0
M  V30 353 H 39.2017 -3.05841 -2.13344 0
M  V30 354 N 41.3868 0.248026 -1.55636 0
M  V30 355 C 42.6118 0.998028 -1.81808 0
M  V30 356 C 43.0368 1.78207 -0.601979 0
M  V30 357 O 42.3948 1.75653 0.448961 0
M  V30 358 C 42.4428 1.9125 -3.05705 0
M  V30 359 O 41.5468 3.00406 -2.82542 0
M  V30 360 H 40.8878 0.284045 -0.600179 0
M  V30 361 H 43.4178 0.269357 -2.02819 0
M  V30 362 H 43.4278 2.32737 -3.35108 0
M  V30 363 H 42.1028 1.33602 -3.93857 0
M  V30 364 H 40.6798 2.63056 -2.64303 0
M  V30 365 N 42.8649 1.48995 0.513639 0
M  V30 366 C 44.2809 1.35478 0.843682 0
M  V30 367 C 44.4809 0.378213 1.97919 0
M  V30 368 O 43.5369 -0.194689 2.51748 0
M  V30 369 C 44.8499 2.75901 1.1958 0
M  V30 370 C 46.3979 2.84509 1.30474 0
M  V30 371 C 46.8729 4.25671 1.69021 0
M  V30 372 N 48.3639 4.28422 1.76094 0
M  V30 373 C 49.0989 5.34601 2.07338 0
M  V30 374 N 48.5949 6.5104 2.36894 0
M  V30 375 N 50.3879 5.22007 2.08483 0
M  V30 376 H 42.5389 2.11092 -0.235328 0
M  V30 377 H 44.8019 0.947039 -0.0426669 0
M  V30 378 H 44.5079 3.49001 0.434913 0
M  V30 379 H 44.3819 3.10467 2.1422 0
M  V30 380 H 46.7689 2.11655 2.05637 0
M  V30 381 H 46.8499 2.53542 0.339155 0
M  V30 382 H 46.4939 4.99048 0.944135 0
M  V30 383 H 46.4239 4.54094 2.66658 0
M  V30 384 H 48.9149 3.44441 1.55464 0
M  V30 385 H 49.2279 7.2779 2.59887 0
M  V30 386 H 47.5729 6.54287 2.34378 0
M  V30 387 H 50.7639 4.30051 1.84861 0
M  V30 388 H 50.9369 6.04854 2.325 0
M  V30 389 N 44.343 -0.763751 1.37857 0
M  V30 390 C 45.592 -1.51789 1.32827 0
M  V30 391 C 45.905 -1.95426 -0.0823719 0
M  V30 392 O 47.111 -2.70298 -0.255172 0
M  V30 393 C 45.567 -2.74133 2.33193 0
M  V30 394 C 45.175 -2.37562 3.79827 0
M  V30 395 C 46.919 -3.52054 2.37188 0
M  V30 396 C 44.826 -3.56456 4.71904 0
M  V30 397 H 43.756 -0.569896 0.493695 0
M  V30 398 H 46.407 -0.835822 1.63359 0
M  V30 399 H 44.789 -3.4427 1.9569 0
M  V30 400 H 45.963 -1.75157 4.26212 0
M  V30 401 H 44.278 -1.72798 3.78853 0
M  V30 402 H 46.875 -4.40437 3.03182 0
M  V30 403 H 47.218 -3.92486 1.38782 0
M  V30 404 H 47.751 -2.88921 2.7344 0
M  V30 405 H 44.49 -3.21099 5.71468 0
M  V30 406 H 44.01 -4.17938 4.30218 0
M  V30 407 H 45.689 -4.23168 4.89426 0
M  V30 408 N 45.8211 -1.22559 -0.990812 0
M  V30 409 C 47.0461 -1.07862 -1.77145 0
M  V30 410 C 47.4711 0.366447 -1.84496 0
M  V30 411 O 46.8291 1.26478 -1.29896 0
M  V30 412 C 46.8771 -1.69686 -3.18181 0
M  V30 413 O 45.9811 -0.951946 -4.01263 0
M  V30 414 H 45.3221 -0.378712 -0.545411 0
M  V30 415 H 47.8521 -1.62399 -1.2445 0
M  V30 416 H 47.8621 -1.74496 -3.68802 0
M  V30 417 H 46.5371 -2.74841 -3.12146 0
M  V30 418 H 45.1141 -0.980011 -3.59792 0
M  V30 419 N 47.2992 1.18797 -1.03562 0
M  V30 420 C 48.5242 1.9314 -0.755764 0
M  V30 421 C 48.9492 1.7537 0.68022 0
M  V30 422 O 48.3072 1.06046 1.47051 0
M  V30 423 C 48.3552 3.42747 -1.12058 0
M  V30 424 O 47.4592 4.11683 -0.243124 0
M  V30 425 H 46.8002 0.602724 -0.278604 0
M  V30 426 H 49.3302 1.50678 -1.3841 0
M  V30 427 H 49.3402 3.93437 -1.08035 0
M  V30 428 H 48.0152 3.55002 -2.16672 0
M  V30 429 H 46.5922 3.71323 -0.342539 0
M  V30 430 N 48.7773 0.814389 1.34928 0
M  V30 431 C 50.0233 0.399013 1.98836 0
M  V30 432 C 50.3563 -1.03314 1.64438 0
M  V30 433 O 49.6313 -1.71811 0.911659 0
M  V30 434 C 49.9143 0.591629 3.55207 0
M  V30 435 C 49.7673 2.06928 3.99376 0
M  V30 436 C 51.0863 0.022199 4.40094 0
M  V30 437 H 48.2053 0.146451 0.722303 0
M  V30 438 H 50.8473 1.02537 1.59957 0
M  V30 439 H 48.9973 0.0584441 3.88456 0
M  V30 440 H 50.6693 2.66544 3.76499 0
M  V30 441 H 48.9123 2.56287 3.49999 0
M  V30 442 H 49.5833 2.1549 5.08201 0
M  V30 443 H 52.0593 0.477643 4.13349 0
M  V30 444 H 50.9353 0.186832 5.48582 0
M  V30 445 H 51.1963 -1.07215 4.28902 0
M  V30 446 N 50.2554 -1.46986 0.568584 0
M  V30 447 C 51.1854 -2.32946 -0.160753 0
M  V30 448 C 52.1664 -1.44487 -0.897631 0
M  V30 449 O 53.3514 -1.73327 -0.875867 0
M  V30 450 C 50.4814 -3.26494 -1.18403 0
M  V30 451 C 49.4354 -4.24282 -0.562895 0
M  V30 452 C 48.7614 -5.07236 -1.69163 0
M  V30 453 C 50.0614 -5.19989 0.490761 0
M  V30 454 H 51.7554 -2.94175 0.556916 0
M  V30 455 H 49.3014 -1.4146 0.26927 0
M  V30 456 H 51.2544 -3.85477 -1.70251 0
M  V30 457 H 49.9784 -2.63343 -1.93179 0
M  V30 458 H 48.6374 -3.66541 -0.0656164 0
M  V30 459 H 48.2854 -4.4048 -2.42871 0
M  V30 460 H 47.9854 -5.7345 -1.28174 0
M  V30 461 H 49.5094 -5.6908 -2.21314 0
M  V30 462 H 50.9234 -5.73271 0.0579047 0
M  V30 463 H 49.3204 -5.94469 0.820165 0
M  V30 464 H 50.3904 -4.64777 1.3824 0
M  V30 465 N 51.7335 -0.305618 -1.54608 0
M  V30 466 C 52.6965 0.555591 -2.22364 0
M  V30 467 C 53.6965 1.05768 -1.21119 0
M  V30 468 O 54.8865 0.952972 -1.45822 0
M  V30 469 C 52.0185 1.76974 -2.91364 0
M  V30 470 H 53.2115 -0.0364572 -2.99878 0
M  V30 471 H 50.7645 -0.0565007 -1.56198 0
M  V30 472 H 51.4995 2.40151 -2.17941 0
M  V30 473 H 51.2845 1.41732 -3.65588 0
M  V30 474 H 52.7745 2.38148 -3.43038 0
M  V30 475 N 53.2116 1.57565 -0.0334293 0
M  V30 476 C 54.4596 1.91598 0.642999 0
M  V30 477 C 54.7806 0.910847 1.7242 0
M  V30 478 O 54.0506 -0.0469931 1.95844 0
M  V30 479 H 52.6306 0.707228 0.240496 0
M  V30 480 H 55.2926 1.94726 -0.0822488 0
M  V30 481 H 54.3886 2.92336 1.09298 0
M  V30 482 N 54.6897 -0.239769 1.55765 0
M  V30 483 C 55.9377 -0.964892 1.77579 0
M  V30 484 C 56.2587 -1.85582 0.598699 0
M  V30 485 O 55.5287 -1.92075 -0.385226 0
M  V30 486 H 54.1087 -0.359265 0.654933 0
M  V30 487 H 56.7707 -0.256001 1.93211 0
M  V30 488 H 55.8667 -1.58243 2.69009 0
M  V30 489 N 56.1678 -1.49265 -0.50573 0
M  V30 490 C 57.3928 -1.62478 -1.28902 0
M  V30 491 C 57.8178 -0.294332 -1.85783 0
M  V30 492 O 57.1758 0.737412 -1.65626 0
M  V30 493 C 57.2238 -2.69268 -2.39848 0
M  V30 494 O 56.3278 -2.28113 -3.43567 0
M  V30 495 H 55.6688 -0.54399 -0.380751 0
M  V30 496 H 58.1988 -1.95421 -0.605952 0
M  V30 497 H 58.2088 -2.91291 -2.85681 0
M  V30 498 H 56.8838 -3.65846 -1.97812 0
M  V30 499 H 55.4608 -2.16401 -3.03685 0
M  V30 500 N 57.6459 0.756429 -1.3826 0
M  V30 501 C 58.8859 1.52833 -1.35725 0
M  V30 502 C 59.2499 1.91926 0.0534106 0
M  V30 503 O 60.4509 2.68028 0.203613 0
M  V30 504 C 58.7219 2.74919 -2.28373 0
M  V30 505 S 60.2809 3.64817 -2.43832 0
M  V30 506 H 57.0989 0.523043 -0.481608 0
M  V30 507 H 59.7009 0.888212 -1.74158 0
M  V30 508 H 58.4049 2.44304 -3.29763 0
M  V30 509 H 57.9359 3.43878 -1.91079 0
M  V30 510 H 59.9509 4.676 -1.66027 0
M  V30 511 N 59.124 1.23083 0.984299 0
M  V30 512 C 60.54 0.992637 1.24975 0
M  V30 513 C 60.74 -0.308618 1.99123 0
M  V30 514 O 59.796 -1.02905 2.30579 0
M  V30 515 C 61.109 2.19698 2.05312 0
M  V30 516 C 62.657 2.24147 2.18465 0
M  V30 517 C 63.132 3.44157 3.02192 0
M  V30 518 N 64.623 3.44372 3.09777 0
M  V30 519 C 65.358 4.33886 3.74874 0
M  V30 520 N 64.854 5.3363 4.41827 0
M  V30 521 N 66.647 4.21639 3.71721 0
M  V30 522 H 58.798 2.06731 0.487453 0
M  V30 523 H 61.061 0.906339 0.277944 0
M  V30 524 H 60.767 3.1411 1.58201 0
M  V30 525 H 60.641 2.20465 3.06064 0
M  V30 526 H 63.028 1.30277 2.64786 0
M  V30 527 H 63.109 2.27415 1.17115 0
M  V30 528 H 62.753 4.38332 2.56568 0
M  V30 529 H 62.683 3.3813 4.03702 0
M  V30 530 H 65.174 2.72201 2.62135 0
M  V30 531 H 65.487 5.98196 4.89266 0
M  V30 532 H 63.832 5.37534 4.40548 0
M  V30 533 H 67.023 3.42962 3.18582 0
M  V30 534 H 67.196 4.91604 4.22173 0
M  V30 535 N 60.6021 -1.18246 1.0419 0
M  V30 536 C 61.5651 -2.20128 0.638452 0
M  V30 537 C 62.5651 -1.57885 -0.304805 0
M  V30 538 O 63.7551 -1.73967 -0.0900369 0
M  V30 539 C 60.8871 -3.4084 -0.0637751 0
M  V30 540 H 62.0801 -2.57336 1.54007 0
M  V30 541 H 59.6331 -1.32152 0.834598 0
M  V30 542 H 60.3681 -3.09166 -0.979136 0
M  V30 543 H 60.1531 -3.8726 0.614198 0
M  V30 544 H 61.6431 -4.16274 -0.332512 0
M  V30 545 N 62.0802 -0.821533 -1.34494 0
M  V30 546 C 63.4912 -0.467956 -1.8074 0
M  V30 547 C 63.8422 1.01151 -1.68116 0
M  V30 548 O 62.9672 1.78707 -1.22036 0
M  V30 549 C 63.5622 -0.842627 -3.28154 0
M  V30 550 C 62.1212 -0.541439 -3.72485 0
M  V30 551 C 61.2682 -1.06028 -2.56229 0
M  V30 552 H 64.2192 -1.01183 -1.22261 0
M  V30 553 H 64.2402 -0.145876 -3.8022 0
M  V30 554 H 63.7522 -1.91945 -3.37311 0
M  V30 555 H 61.8532 0.526034 -3.68868 0
M  V30 556 H 61.9662 -1.08453 -4.66663 0
M  V30 557 H 60.3302 -0.481892 -2.501 0
M  V30 558 H 61.1132 -2.14352 -2.68157 0
M  V30 559 N 63.5583 1.46682 -0.576371 0
M  V30 560 C 64.7833 2.07304 -0.0630475 0
M  V30 561 C 65.2083 1.42329 1.2298 0
M  V30 562 O 64.5663 0.504865 1.74129 0
M  V30 563 C 64.6143 3.60472 0.095895 0
M  V30 564 O 63.7183 3.95927 1.15394 0
M  V30 565 H 63.0593 0.661288 -0.0599463 0
M  V30 566 H 65.5893 1.88417 -0.797511 0
M  V30 567 H 65.5993 4.06865 0.304071 0
M  V30 568 H 64.2743 4.07157 -0.84828 0
M  V30 569 H 62.8513 3.61252 0.924724 0
M  V30 570 N 65.0364 0.313813 1.54444 0
M  V30 571 C 66.2644 -0.293918 2.04802 0
M  V30 572 C 66.6794 -1.46537 1.19047 0
M  V30 573 O 66.0364 -1.81182 0.218939 0
M  V30 574 C 66.0874 -0.737806 3.53891 0
M  V30 575 O 65.8084 0.387038 4.36387 0
M  V30 576 C 67.3094 -1.40936 4.203 0
M  V30 577 H 64.5294 -0.0620057 0.668129 0
M  V30 578 H 67.0734 0.457169 1.99324 0
M  V30 579 H 65.2284 -1.43889 3.59687 0
M  V30 580 H 65.6424 0.0391274 5.24485 0
M  V30 581 H 67.1164 -1.67099 5.26101 0
M  V30 582 H 67.5934 -2.35355 3.70816 0
M  V30 583 H 68.1994 -0.751117 4.18615 0
M  V30 584 N 66.5145 -1.57545 0.0417849 0
M  V30 585 C 67.7445 -1.96339 -0.642995 0
M  V30 586 C 68.1525 -0.917536 -1.65463 0
M  V30 587 O 67.4955 0.107747 -1.83384 0
M  V30 588 C 67.5575 -3.31333 -1.39494 0
M  V30 589 C 67.2215 -4.53796 -0.540204 0
M  V30 590 C 68.2185 -5.19553 0.189806 0
M  V30 591 C 65.9035 -5.0006 -0.473886 0
M  V30 592 C 67.8975 -6.29904 0.974674 0
M  V30 593 C 65.5845 -6.10289 0.314677 0
M  V30 594 C 66.5825 -6.75072 1.03765 0
M  V30 595 O 66.2705 -7.83183 1.81327 0
M  V30 596 H 66.0025 -0.651241 -0.181277 0
M  V30 597 H 68.5565 -2.05148 0.101665 0
M  V30 598 H 66.7865 -3.19052 -2.18502 0
M  V30 599 H 68.4755 -3.54942 -1.96904 0
M  V30 600 H 69.2415 -4.84774 0.147981 0
M  V30 601 H 65.1205 -4.49433 -1.0262 0
M  V30 602 H 68.6645 -6.80401 1.5395 0
M  V30 603 H 64.5615 -6.44506 0.358174 0
M  V30 604 H 65.3295 -7.99913 1.73438 0
M  V30 605 N 67.9926 0.231505 -1.5589 0
M  V30 606 C 69.2406 0.955461 -1.78088 0
M  V30 607 C 69.5616 1.85262 -0.608533 0
M  V30 608 O 68.8316 1.92277 0.375035 0
M  V30 609 H 67.4116 0.355787 -0.656829 0
M  V30 610 H 70.0736 0.245751 -1.93344 0
M  V30 611 H 69.1696 1.56814 -2.69844 0
M  V30 612 N 69.4707 1.49531 0.497807 0
M  V30 613 C 70.7187 1.58865 1.24926 0
M  V30 614 C 71.0397 0.278721 1.92998 0
M  V30 615 O 70.3097 -0.702144 1.82885 0
M  V30 616 H 68.8897 0.585343 0.464094 0
M  V30 617 H 71.5517 1.86174 0.57666 0
M  V30 618 H 70.6477 2.38633 2.01149 0
M  V30 619 N 70.9488 -0.749086 1.3866 0
M  V30 620 C 72.1968 -1.50535 1.34847 0
M  V30 621 C 72.5178 -1.94909 -0.0595016 0
M  V30 622 O 71.7878 -1.67973 -1.00806 0
M  V30 623 H 70.3678 -0.558395 0.49619 0
M  V30 624 H 73.0298 -0.890165 1.73384 0
M  V30 625 H 72.1258 -2.39413 2.00219 0
M  V30 626 N 72.4269 -1.23603 -0.977757 0
M  V30 627 C 73.3569 -1.04401 -2.0886 0
M  V30 628 C 74.3379 0.0399052 -1.70053 0
M  V30 629 O 75.5229 -0.125246 -1.93796 0
M  V30 630 C 72.6529 -0.637269 -3.41403 0
M  V30 631 C 71.6069 -1.66883 -3.94124 0
M  V30 632 C 70.9329 -1.11745 -5.22893 0
M  V30 633 C 72.2329 -3.06247 -4.23096 0
M  V30 634 H 73.9269 -1.97316 -2.25182 0
M  V30 635 H 71.4729 -0.950096 -1.08209 0
M  V30 636 H 73.4259 -0.48998 -4.18542 0
M  V30 637 H 72.1499 0.327557 -3.24953 0
M  V30 638 H 70.8089 -1.80416 -3.19133 0
M  V30 639 H 70.4569 -0.143527 -5.02795 0
M  V30 640 H 70.1569 -1.80672 -5.59134 0
M  V30 641 H 71.6809 -0.982067 -6.02651 0
M  V30 642 H 73.0949 -2.96001 -4.90975 0
M  V30 643 H 71.4919 -3.72436 -4.70544 0
M  V30 644 H 72.5619 -3.55041 -3.30263 0
M  V30 645 N 73.905 1.17692 -1.04816 0
M  V30 646 C 75.13 1.92327 -0.776207 0
M  V30 647 C 75.555 1.76082 0.661581 0
M  V30 648 O 74.913 1.076 1.45917 0
M  V30 649 C 74.961 3.41539 -1.15687 0
M  V30 650 O 74.065 4.11402 -0.286775 0
M  V30 651 H 73.406 0.599735 -0.284981 0
M  V30 652 H 75.936 1.49201 -1.4 0
M  V30 653 H 75.946 3.92269 -1.12202 0
M  V30 654 H 74.621 3.52684 -2.20425 0
M  V30 655 H 73.198 3.70939 -0.381903 0
M  V30 656 N 75.3831 0.828654 1.34056 0
M  V30 657 C 76.6291 0.42008 1.98402 0
M  V30 658 C 76.9621 -1.01564 1.65525 0
M  V30 659 O 76.2371 -1.70834 0.929831 0
M  V30 660 C 76.5201 0.62927 3.54559 0
M  V30 661 C 76.3731 2.11152 3.97159 0
M  V30 662 C 77.6921 0.0688756 4.40046 0
M  V30 663 H 74.8111 0.154104 0.720709 0
M  V30 664 H 77.4531 1.04228 1.5886 0
M  V30 665 H 75.6031 0.0996418 3.88372 0
M  V30 666 H 77.2751 2.70522 3.73651 0
M  V30 667 H 75.5181 2.59985 3.47261 0
M  V30 668 H 76.1891 2.20868 5.05887 0
M  V30 669 H 78.6651 0.521458 4.1282 0
M  V30 670 H 77.5411 0.245006 5.48353 0
M  V30 671 H 77.8021 -1.0266 4.30015 0
M  V30 672 N 76.8612 -1.46375 0.584142 0
M  V30 673 C 78.0862 -2.07268 0.0740405 0
M  V30 674 C 78.5112 -1.42979 -1.22223 0
M  V30 675 O 77.8692 -0.514092 -1.73859 0
M  V30 676 C 77.9172 -3.60518 -0.0767769 0
M  V30 677 O 77.0212 -3.96533 -1.13292 0
M  V30 678 H 76.3622 -0.660961 0.0634524 0
M  V30 679 H 78.8922 -1.87991 0.807492 0
M  V30 680 H 78.9022 -4.07021 -0.282489 0
M  V30 681 H 77.5772 -4.06702 0.86986 0
M  V30 682 H 76.1542 -3.61738 -0.905553 0
M  V30 683 N 78.3393 -0.321999 -1.54275 0
M  V30 684 C 79.5643 0.285791 -2.05422 0
M  V30 685 C 79.9893 1.45124 -1.19669 0
M  V30 686 O 79.3473 1.80132 -0.205441 0
M  V30 687 C 79.3953 0.69956 -3.53749 0
M  V30 688 O 78.4993 1.8021 -3.70942 0
M  V30 689 H 77.8403 0.0518962 -0.661969 0
M  V30 690 H 80.3703 -0.469954 -1.9913 0
M  V30 691 H 80.3803 0.982649 -3.9599 0
M  V30 692 H 79.0553 -0.152864 -4.15619 0
M  V30 693 H 77.6323 1.51794 -3.40607 0
M  V30 694 N 79.8174 1.5752 -0.0501392 0
M  V30 695 C 81.0424 1.97376 0.636997 0
M  V30 696 C 81.4674 0.927466 1.63645 0
M  V30 697 O 80.8254 -0.10941 1.8097 0
M  V30 698 C 80.8734 3.36304 1.30123 0
M  V30 699 O 79.9774 3.34156 2.41689 0
M  V30 700 H 79.3184 0.642998 0.165679 0
M  V30 701 H 81.8484 2.04258 -0.118233 0
M  V30 702 H 81.8584 3.73008 1.65315 0
M  V30 703 H 80.5334 4.11993 0.568746 0
M  V30 704 H 79.1104 3.09196 2.08451 0
M  V30 705 N 81.2955 -0.223234 1.56011 0
M  V30 706 C 82.7115 -0.572856 1.48965 0
M  V30 707 C 82.9115 -1.87225 0.74492 0
M  V30 708 O 81.9675 -2.50899 0.283896 0
M  V30 709 C 83.2805 -0.653646 2.9351 0
M  V30 710 C 84.8285 -0.744386 3.0402 0
M  V30 711 C 85.3035 -0.856535 4.49919 0
M  V30 712 N 86.7945 -0.9208 4.53955 0
M  V30 713 C 87.5295 -1.02726 5.64123 0
M  V30 714 N 87.0255 -1.09777 6.84047 0
M  V30 715 N 88.8185 -1.06226 5.51971 0
M  V30 716 H 80.9695 0.629462 2.02858 0
M  V30 717 H 83.2325 0.220621 0.921971 0
M  V30 718 H 82.9385 0.231518 3.50937 0
M  V30 719 H 82.8125 -1.51781 3.45315 0
M  V30 720 H 85.1995 -1.61999 2.46658 0
M  V30 721 H 85.2805 0.14541 2.55386 0
M  V30 722 H 84.9245 0.0146069 5.07898 0
M  V30 723 H 84.8545 -1.76172 4.96257 0
M  V30 724 H 87.3455 -0.876694 3.6759 0
M  V30 725 H 87.6585 -1.17872 7.63758 0
M  V30 726 H 86.0035 -1.06693 6.86762 0
M  V30 727 H 89.1945 -1.00382 4.5721 0
M  V30 728 H 89.3675 -1.14177 6.37862 0
M  V30 729 N 82.7736 -1.49793 -0.48987 0
M  V30 730 C 84.0206 -1.59841 -1.24327 0
M  V30 731 C 84.3486 -0.290135 -1.92324 0
M  V30 732 O 83.6036 0.722749 -1.81865 0
M  V30 733 C 83.9026 -2.71488 -2.32441 0
M  V30 734 C 83.5686 -4.12614 -1.81826 0
M  V30 735 C 82.2306 -4.51017 -1.67742 0
M  V30 736 C 84.5826 -5.00892 -1.4407 0
M  V30 737 C 81.9106 -5.75459 -1.14297 0
M  V30 738 C 84.2626 -6.25863 -0.920742 0
M  V30 739 C 82.9266 -6.63086 -0.766383 0
M  V30 740 H 82.1966 -0.584899 -0.454944 0
M  V30 741 H 84.8436 -1.83663 -0.542215 0
M  V30 742 H 83.1486 -2.4168 -3.0838 0
M  V30 743 H 84.8456 -2.76469 -2.90458 0
M  V30 744 H 81.4356 -3.82307 -1.93751 0
M  V30 745 H 85.6196 -4.7187 -1.53794 0
M  V30 746 H 80.8756 -6.02989 -1.01068 0
M  V30 747 H 85.0496 -6.9364 -0.619448 0
M  V30 748 H 82.6766 -7.59393 -0.350083 0
M  V30 749 N 84.2517 0.741722 -1.39055 0
M  V30 750 C 85.4767 1.53607 -1.39354 0
M  V30 751 C 85.9017 1.88096 0.0116905 0
M  V30 752 O 85.2597 1.5143 0.996924 0
M  V30 753 C 85.3077 2.80441 -2.26682 0
M  V30 754 O 84.4117 3.76088 -1.69208 0
M  V30 755 H 83.7527 0.464142 -0.474835 0
M  V30 756 H 86.2827 0.915665 -1.82967 0
M  V30 757 H 86.2927 3.29246 -2.40959 0
M  V30 758 H 84.9677 2.5467 -3.2881 0
M  V30 759 H 83.5447 3.34833 -1.64138 0
M  V30 760 N 85.7298 1.2412 0.971189 0
M  V30 761 C 86.9548 1.10667 1.75407 0
M  V30 762 C 87.3798 -0.337048 1.85056 0
M  V30 763 O 86.7378 -1.24396 1.31892 0
M  V30 764 C 86.7858 1.74726 3.15441 0
M  V30 765 O 85.8898 1.01566 3.99697 0
M  V30 766 H 85.2308 0.387341 0.539317 0
M  V30 767 H 87.7608 1.64358 1.2185 0
M  V30 768 H 87.7708 1.80341 3.6598 0
M  V30 769 H 86.4458 2.79773 3.07734 0
M  V30 770 H 85.0228 1.03713 3.58187 0
M  V30 771 N 87.2079 -1.17134 1.05439 0
M  V30 772 C 88.4559 -1.87085 0.764429 0
M  V30 773 C 88.7769 -1.81584 -0.710787 0
M  V30 774 O 88.0469 -1.24349 -1.51374 0
M  V30 775 H 86.6269 -0.692627 0.279779 0
M  V30 776 H 89.2889 -1.42087 1.33406 0
M  V30 777 H 88.3849 -2.92759 1.0816 0
M  V30 778 N 88.686 -0.835752 -1.33615 0
M  V30 779 C 89.934 -0.429109 -1.97492 0
M  V30 780 C 90.255 1.01433 -1.66543 0
M  V30 781 O 89.525 1.70611 -0.962744 0
M  V30 782 H 88.105 -0.155686 -0.730596 0
M  V30 783 H 90.767 -1.06802 -1.63031 0
M  V30 784 H 89.863 -0.55861 -3.0706 0
M  V30 785 N 90.1641 1.46063 -0.591896 0
M  V30 786 C 91.1271 2.28854 0.125973 0
M  V30 787 C 92.1271 1.38903 0.810107 0
M  V30 788 O 93.3171 1.61186 0.66066 0
M  V30 789 C 90.4491 3.19526 1.1881 0
M  V30 790 H 91.6421 2.93802 -0.601717 0
M  V30 791 H 89.1951 1.52325 -0.350254 0
M  V30 792 H 89.9301 2.59345 1.94707 0
M  V30 793 H 89.7151 3.85766 0.701936 0
M  V30 794 H 91.2051 3.81817 1.69132 0
M  V30 795 N 91.6422 0.330177 1.54103 0
M  V30 796 C 92.8822 -0.270916 2.02597 0
M  V30 797 C 93.2462 -1.48826 1.21304 0
M  V30 798 O 94.4472 -2.16266 1.59633 0
M  V30 799 C 92.7182 -0.590328 3.52491 0
M  V30 800 S 94.2772 -1.17014 4.2291 0
M  V30 801 H 91.0952 -0.0815379 0.706309 0
M  V30 802 H 93.6972 0.464835 1.89893 0
M  V30 803 H 92.4012 0.303691 4.09275 0
M  V30 804 H 91.9322 -1.3561 3.69288 0
M  V30 805 H 93.9472 -2.45662 4.3112 0
M  V30 806 N 93.1203 -1.57491 0.0584922 0
M  V30 807 C 94.3683 -1.92597 -0.612436 0
M  V30 808 C 94.6893 -0.938162 -1.70949 0
M  V30 809 O 93.9593 0.0158301 -1.95894 0
M  V30 810 H 92.5393 -0.710964 -0.229214 0
M  V30 811 H 95.2013 -1.94571 0.113218 0
M  V30 812 H 94.2973 -2.94038 -1.04633 0
M  V30 813 N 94.5984 0.214957 -1.56127 0
M  V30 814 C 95.5284 1.2695 -1.95974 0
M  V30 815 C 96.5094 1.48539 -0.828868 0
M  V30 816 O 97.6944 1.60611 -1.09168 0
M  V30 817 C 94.8244 2.61794 -2.28214 0
M  V30 818 C 93.7784 2.54851 -3.43853 0
M  V30 819 C 93.1044 3.93785 -3.61715 0
M  V30 820 C 94.4044 2.09065 -4.78632 0
M  V30 821 H 96.0984 0.93846 -2.84312 0
M  V30 822 H 93.6444 0.449996 -1.36788 0
M  V30 823 H 95.5974 3.35731 -2.54682 0
M  V30 824 H 94.3214 2.96599 -1.36736 0
M  V30 825 H 92.9804 1.8337 -3.17444 0
M  V30 826 H 92.6284 4.25908 -2.67602 0
M  V30 827 H 92.3284 3.90019 -4.39498 0
M  V30 828 H 93.8524 4.69374 -3.90539 0
M  V30 829 H 95.2664 2.7275 -5.04262 0
M  V30 830 H 93.6634 2.16346 -5.59745 0
M  V30 831 H 94.7334 1.04315 -4.73547 0
M  V30 832 N 96.0765 1.50051 0.48192 0
M  V30 833 C 97.3245 1.60181 1.23234 0
M  V30 834 C 97.6455 0.299176 1.92691 0
M  V30 835 O 96.9155 -0.682708 1.83619 0
M  V30 836 H 95.4955 0.590232 0.457859 0
M  V30 837 H 98.1575 1.86775 0.556881 0
M  V30 838 H 97.2535 2.40753 1.98607 0
M  V30 839 N 97.5546 -0.734337 1.39446 0
M  V30 840 C 98.8026 -1.49096 1.36436 0
M  V30 841 C 99.1236 -1.94961 -0.0388255 0
M  V30 842 O 98.3936 -1.69033 -0.990191 0
M  V30 843 H 96.9736 -0.5531 0.502085 0
M  V30 844 H 99.6356 -0.871725 1.74319 0
M  V30 845 H 98.7316 -2.37276 2.02747 0
M  V30 846 N 99.0327 -1.24633 -0.964593 0
M  V30 847 C 100.281 -1.08573 -1.70459 0
M  V30 848 C 100.602 0.375655 -1.91347 0
M  V30 849 O 99.8717 1.26779 -1.49345 0
M  V30 850 H 98.4517 -0.398784 -0.631649 0
M  V30 851 H 101.114 -1.56601 -1.16026 0
M  V30 852 H 100.21 -1.58623 -2.68785 0
M  V30 853 N 100.511 1.16574 -1.06058 0
M  V30 854 C 101.741 1.90675 -0.795397 0
M  V30 855 C 102.149 1.77547 0.653735 0
M  V30 856 O 101.492 1.11611 1.45907 0
M  V30 857 C 101.554 3.42011 -1.10764 0
M  V30 858 C 101.218 3.78924 -2.55471 0
M  V30 859 C 102.215 3.81042 -3.53699 0
M  V30 860 C 99.8998 4.09626 -2.90708 0
M  V30 861 C 101.894 4.13346 -4.85205 0
M  V30 862 C 99.5808 4.41597 -4.22416 0
M  V30 863 C 100.579 4.43436 -5.19474 0
M  V30 864 O 100.267 4.74649 -6.48817 0
M  V30 865 H 99.9988 0.611554 -0.288058 0
M  V30 866 H 102.553 1.48711 -1.41683 0
M  V30 867 H 100.783 3.84312 -0.429128 0
M  V30 868 H 102.472 3.97384 -0.827077 0
M  V30 869 H 103.238 3.57437 -3.27817 0
M  V30 870 H 99.1168 4.07361 -2.15819 0
M  V30 871 H 102.661 4.14696 -5.60957 0
M  V30 872 H 98.5578 4.64667 -4.48056 0
M  V30 873 H 99.3258 4.9247 -6.5377 0
M  V30 874 N 101.989 0.842826 1.3317 0
M  V30 875 C 103.237 0.439577 1.97262 0
M  V30 876 C 103.558 -1.00548 1.67078 0
M  V30 877 O 102.828 -1.70098 0.971779 0
M  V30 878 H 101.408 0.159558 0.72976 0
M  V30 879 H 104.07 1.07665 1.62463 0
M  V30 880 H 103.166 0.574886 3.0676 0
M  V30 881 N 103.467 -1.45747 0.599634 0
M  V30 882 C 104.715 -2.01893 0.0915472 0
M  V30 883 C 105.036 -1.47155 -1.27946 0
M  V30 884 O 104.306 -0.66273 -1.84349 0
M  V30 885 H 102.886 -0.746363 0.0308524 0
M  V30 886 H 105.548 -1.78645 0.779237 0
M  V30 887 H 104.644 -3.1208 0.0353086 0
M  V30 888 N 104.945 -0.338344 -1.53925 0
M  V30 889 C 106.193 0.259245 -2.0043 0
M  V30 890 C 106.514 1.51484 -1.22791 0
M  V30 891 O 105.784 1.93037 -0.33368 0
M  V30 892 H 104.364 0.0987845 -0.740439 0
M  V30 893 H 107.026 -0.458302 -1.89435 0
M  V30 894 H 106.122 0.505334 -3.07982 0
M  V30 895 N 106.423 1.57458 -0.0668435 0
M  V30 896 C 107.67 1.93301 0.603406 0
M  V30 897 C 107.998 0.946486 1.69917 0
M  V30 898 O 107.253 -0.0387021 1.95662 0
M  V30 899 C 107.552 3.35784 1.22409 0
M  V30 900 C 107.218 4.50179 0.254955 0
M  V30 901 C 105.88 4.81199 -0.0116746 0
M  V30 902 C 108.232 5.19598 -0.408338 0
M  V30 903 C 105.56 5.78978 -0.94877 0
M  V30 904 C 107.912 6.18381 -1.33372 0
M  V30 905 C 106.576 6.47821 -1.60887 0
M  V30 906 H 105.846 0.707338 0.220802 0
M  V30 907 H 108.493 1.91012 -0.136665 0
M  V30 908 H 106.798 3.34515 2.03978 0
M  V30 909 H 108.495 3.60804 1.74989 0
M  V30 910 H 105.085 4.25983 0.472954 0
M  V30 911 H 109.269 4.95832 -0.215456 0
M  V30 912 H 104.525 6.00115 -1.16925 0
M  V30 913 H 108.699 6.71277 -1.85367 0
M  V30 914 H 106.326 7.23399 -2.33661 0
M  V30 915 N 107.901 -0.206675 1.56239 0
M  V30 916 C 109.126 -0.949474 1.8439 0
M  V30 917 C 109.551 -1.76549 0.649016 0
M  V30 918 O 108.909 -1.76782 -0.402231 0
M  V30 919 C 108.957 -1.83078 3.10668 0
M  V30 920 O 108.061 -2.9281 2.90407 0
M  V30 921 H 107.402 -0.268033 0.607499 0
M  V30 922 H 109.932 -0.215488 2.03462 0
M  V30 923 H 109.942 -2.2377 3.41161 0
M  V30 924 H 108.617 -1.23112 3.97261 0
M  V30 925 H 107.194 -2.55956 2.71184 0
M  V30 926 N 109.379 -1.50304 -0.473955 0
M  V30 927 C 110.604 -1.65175 -1.25427 0
M  V30 928 C 111.029 -0.333673 -1.85117 0
M  V30 929 O 110.387 0.702114 -1.67153 0
M  V30 930 C 110.435 -2.74295 -2.34082 0
M  V30 931 O 109.539 -2.35349 -3.38651 0
M  V30 932 H 108.88 -0.551944 -0.369126 0
M  V30 933 H 111.41 -1.96662 -0.564364 0
M  V30 934 H 111.42 -2.97285 -2.79438 0
M  V30 935 H 110.095 -3.69959 -1.90008 0
M  V30 936 H 108.672 -2.22794 -2.99027 0
M  V30 937 N 110.857 0.726932 -1.39834 0
M  V30 938 C 112.082 1.52121 -1.40976 0
M  V30 939 C 112.507 1.88098 -0.00826029 0
M  V30 940 O 111.865 1.52479 0.980807 0
M  V30 941 C 111.913 2.78021 -2.29644 0
M  V30 942 O 111.017 3.74272 -1.73188 0
M  V30 943 H 110.358 0.45908 -0.479731 0
M  V30 944 H 112.888 0.896207 -1.83927 0
M  V30 945 H 112.898 3.26671 -2.44438 0
M  V30 946 H 111.573 2.51169 -3.31492 0
M  V30 947 H 110.15 3.33073 -1.6768 0
M  V30 948 N 112.336 1.25143 0.95797 0
M  V30 949 C 113.561 1.12521 1.74223 0
M  V30 950 C 113.986 -0.317402 1.85403 0
M  V30 951 O 113.344 -1.2299 1.33204 0
M  V30 952 C 113.392 1.78062 3.1357 0
M  V30 953 O 112.496 1.058 3.98598 0
M  V30 954 H 111.837 0.39304 0.535178 0
M  V30 955 H 114.367 1.65641 1.201 0
M  V30 956 H 114.377 1.84213 3.64046 0
M  V30 957 H 113.052 2.83021 3.04749 0
M  V30 958 H 111.629 1.07506 3.57067 0
M  V30 959 N 113.814 -1.1601 1.06675 0
M  V30 960 C 115.039 -1.91068 0.806706 0
M  V30 961 C 115.464 -1.77112 -0.633485 0
M  V30 962 O 114.822 -1.09908 -1.44187 0
M  V30 963 C 114.87 -3.39655 1.21106 0
M  V30 964 O 113.974 -4.10893 0.352189 0
M  V30 965 H 113.315 -0.595125 0.294486 0
M  V30 966 H 115.845 -1.46955 1.42356 0
M  V30 967 H 115.855 -3.90434 1.18428 0
M  V30 968 H 114.53 -3.49132 2.26008 0
M  V30 969 H 113.107 -3.70285 0.440868 0
M  V30 970 N 115.292 -0.849877 -1.32721 0
M  V30 971 C 116.517 -0.463856 -2.02146 0
M  V30 972 C 116.942 0.930449 -1.63476 0
M  V30 973 O 116.3 1.61033 -0.832952 0
M  V30 974 C 116.348 -0.604955 -3.55489 0
M  V30 975 O 115.452 0.36425 -4.10788 0
M  V30 976 H 114.793 -0.187046 -0.637111 0
M  V30 977 H 117.323 -1.14775 -1.69375 0
M  V30 978 H 117.333 -0.490696 -4.05038 0
M  V30 979 H 116.008 -1.62174 -3.82978 0
M  V30 980 H 114.585 0.206628 -3.72327 0
M  V30 981 N 116.77 1.45427 -0.607355 0
M  V30 982 C 118.017 2.02241 -0.102455 0
M  V30 983 C 118.345 1.4758 1.26691 0
M  V30 984 O 117.6 0.640468 1.84923 0
M  V30 985 C 117.899 3.57398 -0.0129263 0
M  V30 986 C 117.565 4.3121 -1.31792 0
M  V30 987 C 116.227 4.51092 -1.67539 0
M  V30 988 C 118.579 4.73401 -2.18039 0
M  V30 989 C 115.907 5.10422 -2.89285 0
M  V30 990 C 118.259 5.34078 -3.39034 0
M  V30 991 C 116.923 5.52184 -3.75033 0
M  V30 992 H 116.193 0.740051 -0.037491 0
M  V30 993 H 118.84 1.74494 -0.788926 0
M  V30 994 H 117.145 3.84421 0.756806 0
M  V30 995 H 118.842 3.99061 0.393881 0
M  V30 996 H 115.432 4.16047 -1.02968 0
M  V30 997 H 119.616 4.57774 -1.91721 0
M  V30 998 H 114.872 5.22629 -3.17283 0
M  V30 999 H 119.046 5.65724 -4.06115 0
M  V30 1000 H 116.673 5.97925 -4.69457 0
M  V30 1001 N 118.248 0.346503 1.53744 0
M  V30 1002 C 119.496 -0.248612 2.00565 0
M  V30 1003 C 119.817 -1.5083 1.23593 0
M  V30 1004 O 119.087 -1.92858 0.343912 0
M  V30 1005 H 117.667 -0.0948564 0.740953 0
M  V30 1006 H 120.329 0.468341 1.89189 0
M  V30 1007 H 119.425 -0.488994 3.08245 0
M  V30 1008 N 119.726 -1.57421 0.075193 0
M  V30 1009 C 120.951 -1.98364 -0.605515 0
M  V30 1010 C 121.376 -0.953383 -1.62149 0
M  V30 1011 O 120.734 0.0806053 -1.81121 0
M  V30 1012 C 120.782 -3.38332 -1.24756 0
M  V30 1013 O 119.886 -3.37959 -2.36342 0
M  V30 1014 H 119.227 -0.645553 -0.155428 0
M  V30 1015 H 121.757 -2.04044 0.150714 0
M  V30 1016 H 121.767 -3.75591 -1.5936 0
M  V30 1017 H 120.442 -4.12846 -0.503129 0
M  V30 1018 H 119.019 -3.12474 -2.03506 0
M  V30 1019 N 121.204 0.198386 -1.56346 0
M  V30 1020 C 122.452 0.91747 -1.80075 0
M  V30 1021 C 122.773 1.83929 -0.647692 0
M  V30 1022 O 122.043 1.93029 0.334166 0
M  V30 1023 H 120.623 0.341774 -0.664228 0
M  V30 1024 H 123.285 0.204684 -1.93822 0
M  V30 1025 H 122.381 1.51055 -2.7311 0
M  V30 1026 N 122.682 1.50554 0.465978 0
M  V30 1027 C 123.929 1.61798 1.21768 0
M  V30 1028 C 124.257 0.320696 1.91838 0
M  V30 1029 O 123.512 -0.693724 1.82992 0
M  V30 1030 C 123.811 2.75152 2.28093 0
M  V30 1031 C 123.477 4.15454 1.75239 0
M  V30 1032 C 122.139 4.53628 1.60546 0
M  V30 1033 C 124.491 5.03121 1.36083 0
M  V30 1034 C 121.819 5.77204 1.05128 0
M  V30 1035 C 124.171 6.27249 0.821056 0
M  V30 1036 C 122.835 6.64221 0.660795 0
M  V30 1037 H 122.105 0.592063 0.445582 0
M  V30 1038 H 124.752 1.84503 0.512927 0
M  V30 1039 H 123.057 2.46556 3.04496 0
M  V30 1040 H 124.754 2.81055 2.86023 0
M  V30 1041 H 121.344 3.85341 1.87644 0
M  V30 1042 H 125.528 4.74257 1.46267 0
M  V30 1043 H 120.784 6.0452 0.91462 0
M  V30 1044 H 124.958 6.94537 0.509018 0
M  V30 1045 H 122.585 7.59854 0.229226 0
M  V30 1046 N 124.16 -0.719506 1.40217 0
M  V30 1047 C 125.408 -1.47641 1.3801 0
M  V30 1048 C 125.729 -1.94992 -0.018145 0
M  V30 1049 O 124.999 -1.70073 -0.972207 0
M  V30 1050 H 123.579 -0.547744 0.507923 0
M  V30 1051 H 126.241 -0.853187 1.75233 0
M  V30 1052 H 125.337 -2.35112 2.05253 0
M  V30 1053 N 125.638 -1.25649 -0.95132 0
M  V30 1054 C 126.886 -1.10375 -1.69298 0
M  V30 1055 C 127.207 0.355339 -1.91735 0
M  V30 1056 O 126.477 1.25188 -1.50681 0
M  V30 1057 H 125.057 -0.405461 -0.627384 0
M  V30 1058 H 127.719 -1.57823 -1.14358 0
M  V30 1059 H 126.815 -1.61465 -2.67087 0
M  V30 1060 N 127.117 1.15442 -1.07289 0
M  V30 1061 C 128.365 1.85845 -0.794096 0
M  V30 1062 C 128.686 1.82692 0.681809 0
M  V30 1063 O 127.956 1.26741 1.49377 0
M  V30 1064 H 126.536 0.688089 -0.290763 0
M  V30 1065 H 129.198 1.39947 -1.3565 0
M  V30 1066 H 128.294 2.91001 -1.12804 0
M  V30 1067 N 128.595 0.856903 1.32268 0
M  V30 1068 C 129.825 0.47475 2.01071 0
M  V30 1069 C 130.233 -0.933746 1.64553 0
M  V30 1070 O 129.576 -1.62114 0.863989 0
M  V30 1071 C 129.638 0.536746 3.55471 0
M  V30 1072 C 129.302 1.90453 4.15423 0
M  V30 1073 C 130.299 2.87029 4.33486 0
M  V30 1074 C 127.984 2.20229 4.51447 0
M  V30 1075 C 129.978 4.11532 4.86744 0
M  V30 1076 C 127.665 3.44984 5.0441 0
M  V30 1077 C 128.663 4.40452 5.22007 0
M  V30 1078 O 128.351 5.62998 5.73837 0
M  V30 1079 H 128.083 0.184778 0.650256 0
M  V30 1080 H 130.637 1.15615 1.69771 0
M  V30 1081 H 128.867 -0.20152 3.86175 0
M  V30 1082 H 130.556 0.169875 4.05544 0
M  V30 1083 H 131.322 2.6533 4.05986 0
M  V30 1084 H 127.201 1.46705 4.37034 0
M  V30 1085 H 130.745 4.86056 5.00395 0
M  V30 1086 H 126.642 3.66532 5.31342 0
M  V30 1087 H 127.41 5.64987 5.92226 0
M  V30 1088 N 130.073 -1.45103 0.615059 0
M  V30 1089 C 131.321 -2.01784 0.112955 0
M  V30 1090 C 131.642 -1.48504 -1.26378 0
M  V30 1091 O 130.912 -0.682245 -1.83636 0
M  V30 1092 H 129.492 -0.745993 0.0387668 0
M  V30 1093 H 132.154 -1.77808 0.798141 0
M  V30 1094 H 131.25 -3.12025 0.0684069 0
M  V30 1095 N 131.551 -0.354651 -1.53558 0
M  V30 1096 C 132.799 0.237972 -2.00694 0
M  V30 1097 C 133.12 1.50173 -1.24391 0
M  V30 1098 O 132.39 1.92673 -0.354135 0
M  V30 1099 H 130.97 0.0909256 -0.741446 0
M  V30 1100 H 133.632 -0.478368 -1.88938 0
M  V30 1101 H 132.728 0.47264 -3.085 0
M  V30 1102 N 133.029 1.57378 -0.0835403 0
M  V30 1103 C 134.277 1.93547 0.581718 0
M  V30 1104 C 134.598 0.96524 1.69435 0
M  V30 1105 O 133.868 0.0153369 1.95894 0
M  V30 1106 H 132.448 0.714521 0.217874 0
M  V30 1107 H 135.11 1.94366 -0.144158 0
M  V30 1108 H 134.206 2.95665 0.999423 0
M  V30 1109 N 134.507 -0.190092 1.56449 0
M  V30 1110 C 135.437 -1.23816 1.97969 0
M  V30 1111 C 136.418 -1.47201 0.852395 0
M  V30 1112 O 137.603 -1.58854 1.1171 0
M  V30 1113 C 134.733 -2.5813 2.3235 0
M  V30 1114 C 133.687 -2.49348 3.47864 0
M  V30 1115 C 133.013 -3.8798 3.67934 0
M  V30 1116 C 134.313 -2.01424 4.81898 0
M  V30 1117 H 136.007 -0.89311 2.85769 0
M  V30 1118 H 133.553 -0.428177 1.37487 0
M  V30 1119 H 135.506 -3.31637 2.59991 0
M  V30 1120 H 134.23 -2.94386 1.41438 0
M  V30 1121 H 132.889 -1.78297 3.20321 0
M  V30 1122 H 132.537 -4.21597 2.74344 0
M  V30 1123 H 132.237 -3.82978 4.45648 0
M  V30 1124 H 133.761 -4.63101 3.97957 0
M  V30 1125 H 135.175 -2.64693 5.08538 0
M  V30 1126 H 133.572 -2.07413 5.63116 0
M  V30 1127 H 134.642 -0.967677 4.75146 0
M  V30 1128 N 135.985 -1.50799 -0.457987 0
M  V30 1129 C 137.233 -1.62121 -1.2067 0
M  V30 1130 C 137.554 -0.329793 -1.92191 0
M  V30 1131 O 136.824 0.653409 -1.84682 0
M  V30 1132 H 135.404 -0.597441 -0.448411 0
M  V30 1133 H 138.066 -1.87637 -0.527096 0
M  V30 1134 H 137.162 -2.43882 -1.94751 0
M  V30 1135 N 137.463 0.71206 -1.40597 0
M  V30 1136 C 138.426 1.80785 -1.40888 0
M  V30 1137 C 139.426 1.57937 -0.302103 0
M  V30 1138 O 140.616 1.64913 -0.561182 0
M  V30 1139 C 137.748 3.18927 -1.20409 0
M  V30 1140 H 138.941 1.81924 -2.38419 0
M  V30 1141 H 136.494 0.91805 -1.26497 0
M  V30 1142 H 137.229 3.23436 -0.236522 0
M  V30 1143 H 137.014 3.36911 -2.00582 0
M  V30 1144 H 138.504 3.98949 -1.23408 0
M  V30 1145 N 138.941 1.26152 0.944643 0
M  V30 1146 C 140.189 1.11271 1.6871 0
M  V30 1147 C 140.51 -0.345166 1.91921 0
M  V30 1148 O 139.78 -1.24387 1.51343 0
M  V30 1149 H 138.36 0.408783 0.625224 0
M  V30 1150 H 141.022 1.58427 1.1352 0
M  V30 1151 H 140.118 1.62879 2.66227 0
M  V30 1152 N 140.419 -1.14872 1.07899 0
M  V30 1153 C 141.349 -2.2193 0.725887 0
M  V30 1154 C 142.33 -1.67622 -0.28927 0
M  V30 1155 O 143.515 -1.93533 -0.160787 0
M  V30 1156 C 140.645 -3.47061 0.128856 0
M  V30 1157 C 139.599 -4.14363 1.07178 0
M  V30 1158 C 138.925 -5.33636 0.337229 0
M  V30 1159 C 140.225 -4.63492 2.40775 0
M  V30 1160 H 141.919 -2.51724 1.62097 0
M  V30 1161 H 139.465 -1.20991 0.780838 0
M  V30 1162 H 141.418 -4.21199 -0.130147 0
M  V30 1163 H 140.142 -3.16617 -0.80134 0
M  V30 1164 H 138.801 -3.42173 1.3158 0
M  V30 1165 H 138.449 -4.99449 -0.596606 0
M  V30 1166 H 138.149 -5.79609 0.965788 0
M  V30 1167 H 139.673 -6.10539 0.0861567 0
M  V30 1168 H 141.087 -5.2913 2.20669 0
M  V30 1169 H 139.484 -5.20148 2.99276 0
M  V30 1170 H 140.554 -3.78834 3.02676 0
M  V30 1171 N 141.898 -0.863906 -1.31812 0
M  V30 1172 C 143.146 -0.470904 -1.96537 0
M  V30 1173 C 143.467 0.978771 -1.68657 0
M  V30 1174 O 142.737 1.6853 -0.998717 0
M  V30 1175 H 141.317 -0.171148 -0.72713 0
M  V30 1176 H 143.979 -1.10236 -1.60729 0
M  V30 1177 H 143.075 -0.623616 -3.05806 0
M  V30 1178 N 143.376 1.44774 -0.622745 0
M  V30 1179 C 144.624 2.01721 -0.123655 0
M  V30 1180 C 144.945 1.49172 1.25589 0
M  V30 1181 O 144.215 0.691974 1.83272 0
M  V30 1182 H 142.795 0.745777 -0.0427225 0
M  V30 1183 H 145.457 1.77382 -0.807559 0
M  V30 1184 H 144.553 3.11984 -0.0849534 0
M  V30 1185 N 144.854 0.36279 1.53368 0
M  V30 1186 C 146.102 -0.227326 2.00817 0
M  V30 1187 C 146.423 -1.49511 1.25186 0
M  V30 1188 O 145.693 -1.92482 0.364348 0
M  V30 1189 H 144.273 -0.0869923 0.741917 0
M  V30 1190 H 146.935 0.488381 1.88682 0
M  V30 1191 H 146.031 -0.456273 3.08747 0
M  V30 1192 N 146.332 -1.57332 0.0918853 0
M  V30 1193 C 147.579 -1.94236 -0.572577 0
M  V30 1194 C 147.907 -0.973398 -1.6839 0
M  V30 1195 O 147.162 0.00756912 -1.95699 0
M  V30 1196 C 147.461 -3.37689 -1.17051 0
M  V30 1197 C 147.127 -4.50527 -0.183304 0
M  V30 1198 C 145.789 -4.81119 0.0882276 0
M  V30 1199 C 148.141 -5.18883 0.49095 0
M  V30 1200 C 145.469 -5.77395 1.04076 0
M  V30 1201 C 147.821 -6.1618 1.43193 0
M  V30 1202 C 146.485 -6.45179 1.71173 0
M  V30 1203 H 145.755 -0.710762 -0.209521 0
M  V30 1204 H 148.402 -1.9077 0.167036 0
M  V30 1205 H 146.707 -3.37718 -1.9863 0
M  V30 1206 H 148.404 -3.63543 -1.69227 0
M  V30 1207 H 144.994 -4.26681 -0.405124 0
M  V30 1208 H 149.178 -4.95427 0.294312 0
M  V30 1209 H 144.434 -5.98179 1.26457 0
M  V30 1210 H 148.608 -6.68243 1.96023 0
M  V30 1211 H 146.235 -7.1959 2.4514 0
M  V30 1212 N 147.81 0.181792 -1.56548 0
M  V30 1213 C 149.058 0.89832 -1.81038 0
M  V30 1214 C 149.379 1.83232 -0.667164 0
M  V30 1215 O 148.649 1.93372 0.313673 0
M  V30 1216 H 147.229 0.33471 -0.667816 0
M  V30 1217 H 149.891 0.184116 -1.94028 0
M  V30 1218 H 148.987 1.4815 -2.74696 0
M  V30 1219 N 149.288 1.51039 0.449983 0
M  V30 1220 C 150.536 1.62759 1.19808 0
M  V30 1221 C 150.857 0.339981 1.92013 0
M  V30 1222 O 150.127 -0.643606 1.85026 0
M  V30 1223 H 148.707 0.599811 0.445237 0
M  V30 1224 H 151.369 1.87914 0.517138 0
M  V30 1225 H 150.465 2.44911 1.93455 0
M  V30 1226 N 150.766 -0.704594 1.40972 0
M  V30 1227 C 152.014 -1.46169 1.39568 0
M  V30 1228 C 152.335 -1.95 0.00253745 0
M  V30 1229 O 151.605 -1.71095 -0.954114 0
M  V30 1230 H 150.185 -0.542326 0.513704 0
M  V30 1231 H 152.847 -0.834553 1.76128 0
M  V30 1232 H 151.943 -2.32922 2.07735 0
M  V30 1233 N 152.244 -1.26651 -0.937939 0
M  V30 1234 C 153.491 -1.12387 -1.6845 0
M  V30 1235 C 153.819 0.332208 -1.91642 0
M  V30 1236 O 153.074 1.2602 -1.49725 0
M  V30 1237 C 153.373 -1.84168 -3.06295 0
M  V30 1238 C 153.039 -3.34056 -3.02849 0
M  V30 1239 C 151.701 -3.74942 -3.01616 0
M  V30 1240 C 154.053 -4.29741 -2.9491 0
M  V30 1241 C 151.381 -5.09894 -2.90215 0
M  V30 1242 C 153.733 -5.64738 -2.8505 0
M  V30 1243 C 152.397 -6.0493 -2.82162 0
M  V30 1244 H 151.667 -0.411252 -0.616403 0
M  V30 1245 H 154.314 -1.57134 -1.09459 0
M  V30 1246 H 152.619 -1.319 -3.6893 0
M  V30 1247 H 154.316 -1.70569 -3.62915 0
M  V30 1248 H 150.906 -3.01534 -3.0459 0
M  V30 1249 H 155.09 -3.99133 -2.94969 0
M  V30 1250 H 150.346 -5.40194 -2.86358 0
M  V30 1251 H 154.52 -6.38561 -2.77872 0
M  V30 1252 H 152.147 -7.09457 -2.73084 0
M  V30 1253 N 153.722 1.14298 -1.08507 0
M  V30 1254 C 154.685 2.17607 -0.719711 0
M  V30 1255 C 155.685 1.58907 0.245997 0
M  V30 1256 O 156.875 1.74181 0.0254081 0
M  V30 1257 C 154.007 3.40842 -0.0627695 0
M  V30 1258 H 155.2 2.51443 -1.63452 0
M  V30 1259 H 152.753 1.28963 -0.88307 0
M  V30 1260 H 153.488 3.12587 0.863716 0
M  V30 1261 H 153.273 3.84713 -0.757504 0
M  V30 1262 H 154.763 4.17221 0.177786 0
M  V30 1263 N 155.201 0.870884 1.31352 0
M  V30 1264 C 156.449 0.48132 1.96285 0
M  V30 1265 C 156.77 -0.969813 1.69173 0
M  V30 1266 O 156.04 -1.67998 1.00764 0
M  V30 1267 H 154.62 0.175002 0.726212 0
M  V30 1268 H 157.282 1.11087 1.60143 0
M  V30 1269 H 156.378 0.639825 3.05471 0
M  V30 1270 N 156.679 -1.44442 0.630414 0
M  V30 1271 C 157.927 -2.01653 0.134351 0
M  V30 1272 C 158.248 -1.49836 -1.24796 0
M  V30 1273 O 157.518 -0.701684 -1.82902 0
M  V30 1274 H 156.098 -0.74554 0.0466769 0
M  V30 1275 H 158.76 -1.76952 0.816955 0
M  V30 1276 H 157.856 -3.11935 0.101498 0
M  V30 1277 N 158.157 -0.370918 -1.53173 0
M  V30 1278 C 159.434 0.273754 -1.93675 0
M  V30 1279 C 159.814 1.65938 -1.3049 0
M  V30 1280 O 159.162 2.23698 -0.465999 0
M  V30 1281 C 159.372 0.318602 -3.47543 0
M  V30 1282 C 160.72 0.556392 -4.20939 0
M  V30 1283 O 161.744 0.399587 -3.53952 0
M  V30 1284 O 160.603 0.862133 -5.39657 0
M  V30 1285 H 157.697 0.165448 -0.810281 0
M  V30 1286 H 160.243 -0.42409 -1.64315 0
M  V30 1287 H 159.015 -0.652687 -3.85818 0
M  V30 1288 H 158.638 1.06212 -3.83151 0
M  V30 1289 N 159.635 1.57281 -0.100228 0
M  V30 1290 C 160.883 1.94153 0.561157 0
M  V30 1291 C 161.204 0.983157 1.68401 0
M  V30 1292 O 160.474 0.0361132 1.95867 0
M  V30 1293 H 159.054 0.716791 0.210283 0
M  V30 1294 H 161.716 1.94202 -0.164765 0
M  V30 1295 H 160.812 2.96709 0.968008 0
M  V30 1296 N 161.113 -0.173488 1.56642 0
M  V30 1297 C 162.043 -1.2171 1.99271 0
M  V30 1298 C 163.024 -1.46289 0.867959 0
M  V30 1299 O 164.209 -1.5766 1.13388 0
M  V30 1300 C 161.339 -2.55651 2.35074 0
M  V30 1301 C 160.293 -2.45645 3.50489 0
M  V30 1302 C 159.619 -3.84056 3.72028 0
M  V30 1303 C 160.919 -1.96302 4.84007 0
M  V30 1304 H 162.613 -0.86275 2.867 0
M  V30 1305 H 160.159 -0.413571 1.37933 0
M  V30 1306 H 162.112 -3.2886 2.63494 0
M  V30 1307 H 160.836 -2.92869 1.44552 0
M  V30 1308 H 159.495 -1.7489 3.22194 0
M  V30 1309 H 159.143 -4.18664 2.788 0
M  V30 1310 H 158.843 -3.7823 4.49684 0
M  V30 1311 H 160.367 -4.58854 4.02846 0
M  V30 1312 H 161.781 -2.59284 5.11317 0
M  V30 1313 H 160.178 -2.01429 5.65284 0
M  V30 1314 H 161.248 -0.917226 4.76146 0
M  V30 1315 N 162.591 -1.51276 -0.441967 0
M  V30 1316 C 163.521 -1.752 -1.54361 0
M  V30 1317 C 164.502 -0.601682 -1.59103 0
M  V30 1318 O 165.687 -0.843913 -1.74905 0
M  V30 1319 C 162.817 -1.87282 -2.92477 0
M  V30 1320 C 161.771 -3.02687 -3.02596 0
M  V30 1321 C 161.097 -2.99947 -4.42647 0
M  V30 1322 C 162.397 -4.4273 -2.77106 0
M  V30 1323 H 164.091 -2.67442 -1.34592 0
M  V30 1324 H 161.637 -1.28694 -0.646048 0
M  V30 1325 H 163.59 -2.02602 -3.695 0
M  V30 1326 H 162.314 -0.916844 -3.13467 0
M  V30 1327 H 160.973 -2.87065 -2.28012 0
M  V30 1328 H 160.621 -2.02136 -4.60597 0
M  V30 1329 H 160.321 -3.77439 -4.50348 0
M  V30 1330 H 161.845 -3.17354 -5.2165 0
M  V30 1331 H 163.259 -4.58727 -3.43864 0
M  V30 1332 H 161.656 -5.21893 -2.96222 0
M  V30 1333 H 162.726 -4.53087 -1.72744 0
M  V30 1334 N 164.069 0.697108 -1.41344 0
M  V30 1335 C 165.315 1.4593 -1.40827 0
M  V30 1336 C 165.648 1.94193 -0.0167098 0
M  V30 1337 O 164.923 1.69425 0.955263 0
M  V30 1338 C 165.206 2.67229 -2.41373 0
M  V30 1339 C 165.059 2.24741 -3.8963 0
M  V30 1340 C 166.378 3.69423 -2.39196 0
M  V30 1341 H 163.497 0.529303 -0.512842 0
M  V30 1342 H 166.139 0.794112 -1.72609 0
M  V30 1343 H 164.289 3.23982 -2.14401 0
M  V30 1344 H 165.961 1.73327 -4.27499 0
M  V30 1345 H 164.204 1.56542 -4.0457 0
M  V30 1346 H 164.875 3.1177 -4.55525 0
M  V30 1347 H 167.351 3.2234 -2.63128 0
M  V30 1348 H 166.227 4.51907 -3.11563 0
M  V30 1349 H 166.488 4.19012 -1.41001 0
M  V30 1350 N 165.547 1.27147 0.931209 0
M  V30 1351 C 166.795 1.13055 1.6752 0
M  V30 1352 C 167.116 -0.324791 1.92276 0
M  V30 1353 O 166.386 -1.22775 1.52654 0
M  V30 1354 H 164.966 0.415391 0.620854 0
M  V30 1355 H 167.628 1.59623 1.11833 0
M  V30 1356 H 166.724 1.65694 2.64485 0
M  V30 1357 N 167.025 -1.13721 1.09112 0
M  V30 1358 C 168.25 -1.89314 0.847053 0
M  V30 1359 C 168.675 -1.78416 -0.595774 0
M  V30 1360 O 168.033 -1.12942 -1.41823 0
M  V30 1361 C 168.081 -3.3701 1.28284 0
M  V30 1362 O 167.185 -4.10054 0.439267 0
M  V30 1363 H 166.526 -0.588745 0.307044 0
M  V30 1364 H 169.056 -1.43902 1.45442 0
M  V30 1365 H 169.066 -3.87834 1.26683 0
M  V30 1366 H 167.741 -3.4426 2.33363 0
M  V30 1367 H 166.318 -3.69266 0.519312 0
M  V30 1368 N 168.503 -0.877838 -1.30888 0
M  V30 1369 C 169.413 -0.343096 -2.32078 0
M  V30 1370 C 170.429 0.551022 -1.65045 0
M  V30 1371 O 171.605 0.445854 -1.96403 0
M  V30 1372 C 168.67 0.439905 -3.43898 0
M  V30 1373 C 167.731 -0.483111 -4.26573 0
M  V30 1374 C 166.964 0.262616 -5.33053 0
M  V30 1375 O 167.187 1.48967 -5.50604 0
M  V30 1376 O 166.121 -0.383593 -6.00676 0
M  V30 1377 H 169.947 -1.18203 -2.79753 0
M  V30 1378 H 167.532 -0.64145 -1.34929 0
M  V30 1379 H 169.414 0.883504 -4.12034 0
M  V30 1380 H 168.089 1.25526 -2.98371 0
M  V30 1381 H 166.996 -0.975374 -3.61161 0
M  V30 1382 H 168.329 -1.26427 -4.75686 0
M  V30 1383 N 169.982 1.44106 -0.638065 0
M  V30 1384 C 170.929 2.30715 0.062701 0
M  V30 1385 C 171.899 1.43882 0.829883 0
M  V30 1386 O 173.084 1.72775 0.809532 0
M  V30 1387 C 170.224 3.29258 1.03358 0
M  V30 1388 C 169.337 4.31192 0.26409 0
M  V30 1389 C 168.472 5.16825 1.22741 0
M  V30 1390 C 167.511 6.10462 0.447475 0
M  V30 1391 N 166.648 6.8877 1.36161 0
M  V30 1392 H 171.488 2.90096 -0.681781 0
M  V30 1393 H 169.025 1.42925 -0.347988 0
M  V30 1394 H 170.983 3.84886 1.60992 0
M  V30 1395 H 169.613 2.71562 1.74511 0
M  V30 1396 H 168.665 3.77981 -0.428295 0
M  V30 1397 H 169.977 4.97619 -0.343052 0
M  V30 1398 H 169.131 5.77004 1.87487 0
M  V30 1399 H 167.87 4.50488 1.86847 0
M  V30 1400 H 166.875 5.49386 -0.213433 0
M  V30 1401 H 168.1 6.78837 -0.188968 0
M  V30 1402 H 166.046 6.25096 1.98975 0
M  V30 1403 H 165.963 7.51663 0.808656 0
M  V30 1404 H 167.231 7.53467 1.99769 0
M  V30 1405 N 171.46 0.379036 1.52974 0
M  V30 1406 C 172.706 -0.206727 2.01744 0
M  V30 1407 C 173.039 -1.47314 1.26539 0
M  V30 1408 O 172.314 -1.91084 0.362903 0
M  V30 1409 C 172.597 -0.485066 3.56818 0
M  V30 1410 C 172.45 0.795919 4.42702 0
M  V30 1411 C 173.769 -1.28003 4.21074 0
M  V30 1412 H 170.888 -0.0736607 0.73331 0
M  V30 1413 H 173.53 0.506581 1.83122 0
M  V30 1414 H 171.68 -1.09272 3.72816 0
M  V30 1415 H 173.352 1.43307 4.38476 0
M  V30 1416 H 171.595 1.41344 4.10127 0
M  V30 1417 H 172.266 0.555947 5.49193 0
M  V30 1418 H 174.742 -0.765867 4.08991 0
M  V30 1419 H 173.618 -1.44352 5.29579 0
M  V30 1420 H 173.879 -2.29236 3.78026 0
M  V30 1421 N 172.938 -1.57226 0.108567 0
M  V30 1422 C 174.166 -1.99179 -0.559954 0
M  V30 1423 C 174.581 -0.988022 -1.60884 0
M  V30 1424 O 173.938 0.0205512 -1.82488 0
M  V30 1425 C 173.989 -3.41159 -1.19552 0
M  V30 1426 O 173.71 -4.37694 -0.188577 0
M  V30 1427 C 175.211 -3.98188 -1.94837 0
M  V30 1428 H 172.431 -0.654228 -0.149088 0
M  V30 1429 H 174.975 -2.03598 0.19183 0
M  V30 1430 H 173.13 -3.37711 -1.89815 0
M  V30 1431 H 173.544 -5.20469 -0.649014 0
M  V30 1432 H 175.018 -4.99644 -2.34648 0
M  V30 1433 H 175.495 -3.3675 -2.81951 0
M  V30 1434 H 176.101 -4.0515 -1.2936 0
M  V30 1435 N 174.416 0.165178 -1.56732 0
M  V30 1436 C 175.349 1.23336 -1.91998 0
M  V30 1437 C 176.327 1.42476 -0.783531 0
M  V30 1438 O 177.511 1.57384 -1.03743 0
M  V30 1439 C 174.638 2.59533 -2.17625 0
M  V30 1440 C 173.684 2.57093 -3.40302 0
M  V30 1441 S 174.517 2.05571 -4.9447 0
M  V30 1442 C 175.673 3.43532 -5.23198 0
M  V30 1443 H 175.906 0.932387 -2.82301 0
M  V30 1444 H 173.439 0.370013 -1.49901 0
M  V30 1445 H 175.397 3.37918 -2.3307 0
M  V30 1446 H 174.058 2.86827 -1.28019 0
M  V30 1447 H 173.251 3.57308 -3.55453 0
M  V30 1448 H 172.853 1.86806 -3.24005 0
M  V30 1449 H 175.145 4.39559 -5.15552 0
M  V30 1450 H 176.088 3.33251 -6.2478 0
M  V30 1451 H 176.496 3.39828 -4.50752 0
M  V30 1452 N 175.894 1.51508 0.433938 0
M  V30 1453 C 176.826 1.69266 1.54537 0
M  V30 1454 C 177.839 0.573276 1.52373 0
M  V30 1455 O 179.028 0.847698 1.57087 0
M  V30 1456 C 176.128 1.69524 2.93453 0
M  V30 1457 C 175.301 2.98101 3.20085 0
M  V30 1458 C 174.36 2.90502 4.38742 0
M  V30 1459 O 173.386 3.64442 4.3723 0
M  V30 1460 N 174.588 2.06586 5.42496 0
M  V30 1461 H 177.353 2.65145 1.39708 0
M  V30 1462 H 174.914 1.49437 0.622922 0
M  V30 1463 H 176.906 1.62004 3.70859 0
M  V30 1464 H 175.476 0.812245 3.01863 0
M  V30 1465 H 174.696 3.19464 2.30947 0
M  V30 1466 H 175.984 3.83207 3.34708 0
M  V30 1467 H 175.382 1.45896 5.46563 0
M  V30 1468 H 173.939 2.04943 6.18742 0
M  V30 1469 N 177.372 -0.689602 1.41712 0
M  V30 1470 C 178.32 -1.82475 1.44242 0
M  V30 1471 C 179.314 -1.66354 0.319774 0
M  V30 1472 O 180.52 -1.73143 0.492089 0
M  V30 1473 H 176.895 -0.601416 0.451445 0
M  V30 1474 H 178.866 -1.77458 2.39899 0
M  V30 1475 C 177.615 -3.20535 1.3473 0
M  V30 1476 H 176.938 -3.33559 2.20405 0
M  V30 1477 H 178.378 -4.00023 1.40562 0
M  V30 1478 C 176.837 -3.36846 0.0603281 0
M  V30 1479 O 177.367 -3.91656 -0.892663 0
M  V30 1480 N 175.573 -2.90595 -0.0177039 0
M  V30 1481 H 175.12 -2.46178 0.758572 0
M  V30 1482 H 175.078 -3.01886 -0.878201 0
M  V30 1483 N 178.85 -1.27639 -0.924453 0
M  V30 1484 C 179.78 -1.13166 -2.04244 0
M  V30 1485 C 180.761 -0.032256 -1.70069 0
M  V30 1486 O 181.946 -0.207328 -1.9309 0
M  V30 1487 C 179.076 -0.781496 -3.38393 0
M  V30 1488 C 178.03 -1.83449 -3.86692 0
M  V30 1489 C 177.356 -1.33822 -5.17683 0
M  V30 1490 C 178.656 -3.23917 -4.09726 0
M  V30 1491 H 180.35 -2.06689 -2.1661 0
M  V30 1492 H 177.896 -0.995136 -1.04082 0
M  V30 1493 H 179.849 -0.667057 -4.16087 0
M  V30 1494 H 178.573 0.189439 -3.2605 0
M  V30 1495 H 177.232 -1.93789 -3.11193 0
M  V30 1496 H 176.88 -0.35665 -5.01734 0
M  V30 1497 H 176.58 -2.04224 -5.50968 0
M  V30 1498 H 178.104 -1.23679 -5.97943 0
M  V30 1499 H 179.518 -3.16559 -4.77978 0
M  V30 1500 H 177.915 -3.92059 -4.54324 0
M  V30 1501 H 178.985 -3.68729 -3.14908 0
M  V30 1502 N 180.328 1.1314 -1.09713 0
M  V30 1503 C 181.276 2.20717 -0.733934 0
M  V30 1504 C 182.27 1.6729 0.266506 0
M  V30 1505 O 183.476 1.79547 0.127656 0
M  V30 1506 H 179.851 0.719292 -0.21937 0
M  V30 1507 H 181.822 2.48611 -1.6503 0
M  V30 1508 C 180.571 3.47265 -0.173849 0
M  V30 1509 H 179.894 3.88716 -0.934873 0
M  V30 1510 H 181.334 4.23979 0.0423126 0
M  V30 1511 C 179.793 3.18724 1.09164 0
M  V30 1512 O 180.323 3.37762 2.17439 0
M  V30 1513 N 178.529 2.72583 1.00732 0
M  V30 1514 H 178.076 2.57291 0.126121 0
M  V30 1515 H 178.034 2.53862 1.85476 0
M  V30 1516 N 181.806 0.884767 1.30421 0
M  V30 1517 C 183.083 0.423185 1.90967 0
M  V30 1518 C 183.463 -1.09605 1.80416 0
M  V30 1519 O 182.811 -1.93126 1.22125 0
M  V30 1520 C 183.021 0.921056 3.36627 0
M  V30 1521 C 184.369 0.955903 4.137 0
M  V30 1522 O 185.393 0.867706 3.4547 0
M  V30 1523 O 184.252 1.08614 5.35598 0
M  V30 1524 H 181.346 0.129369 0.816819 0
M  V30 1525 H 183.892 0.973653 1.3899 0
M  V30 1526 H 182.664 1.96489 3.3839 0
M  V30 1527 H 182.287 0.349741 3.96059 0
M  V30 1528 N 183.284 -1.43765 0.645699 0
M  V30 1529 C 184.7 -1.56509 0.312591 0
M  V30 1530 C 184.9 -1.6307 -1.18365 0
M  V30 1531 O 183.956 -1.58167 -1.96824 0
M  V30 1532 C 185.269 -2.82968 1.01733 0
M  V30 1533 C 186.817 -2.96701 0.996865 0
M  V30 1534 C 187.292 -4.25982 1.68236 0
M  V30 1535 N 188.783 -4.32829 1.64964 0
M  V30 1536 C 189.518 -5.31613 2.14885 0
M  V30 1537 N 189.014 -6.36718 2.73061 0
M  V30 1538 N 190.807 -5.23217 2.05428 0
M  V30 1539 H 182.958 -1.3775 1.61675 0
M  V30 1540 H 185.221 -0.661067 0.679481 0
M  V30 1541 H 184.927 -2.84156 2.0724 0
M  V30 1542 H 184.801 -3.72957 0.564177 0
M  V30 1543 H 187.188 -2.95058 -0.0497719 0
M  V30 1544 H 187.269 -2.08022 1.48865 0
M  V30 1545 H 186.913 -4.28386 2.72852 0
M  V30 1546 H 186.843 -5.13545 1.16529 0
M  V30 1547 H 189.334 -3.57493 1.22503 0
M  V30 1548 H 189.647 -7.08401 3.08848 0
M  V30 1549 H 187.992 -6.37362 2.77118 0
M  V30 1550 H 191.183 -4.40019 1.59689 0
M  V30 1551 H 191.356 -6.00045 2.44643 0
M  V30 1552 N 184.763 -0.387143 -1.52771 0
M  V30 1553 C 185.693 0.440551 -2.29306 0
M  V30 1554 C 186.674 1.06535 -1.32606 0
M  V30 1555 O 187.859 1.07853 -1.61497 0
M  V30 1556 C 184.989 1.56919 -3.09829 0
M  V30 1557 C 183.943 1.07054 -4.14395 0
M  V30 1558 C 183.269 2.29109 -4.83129 0
M  V30 1559 C 184.569 0.140015 -5.22112 0
M  V30 1560 H 186.263 -0.198026 -2.98744 0
M  V30 1561 H 183.809 -0.09668 -1.43675 0
M  V30 1562 H 185.762 2.15503 -3.62128 0
M  V30 1563 H 184.486 2.23532 -2.3812 0
M  V30 1564 H 183.145 0.507247 -3.63074 0
M  V30 1565 H 182.793 2.94227 -4.0797 0
M  V30 1566 H 182.493 1.96406 -5.53804 0
M  V30 1567 H 184.017 2.88339 -5.38231 0
M  V30 1568 H 185.431 0.633978 -5.69784 0
M  V30 1569 H 183.828 -0.0971485 -6.00021 0
M  V30 1570 H 184.898 -0.811711 -4.78058 0
M  V30 1571 N 186.241 1.57166 -0.116904 0
M  V30 1572 C 187.204 2.14039 0.819742 0
M  V30 1573 C 188.204 1.07477 1.19605 0
M  V30 1574 O 189.394 1.33263 1.1219 0
M  V30 1575 C 186.526 2.67891 2.10826 0
M  V30 1576 H 187.719 2.98128 0.325511 0
M  V30 1577 H 185.272 1.55739 0.132312 0
M  V30 1578 H 186.007 1.87384 2.64685 0
M  V30 1579 H 185.792 3.45823 1.84793 0
M  V30 1580 H 187.282 3.11809 2.77785 0
M  V30 1581 N 187.719 -0.156864 1.56817 0
M  V30 1582 C 188.944 -0.890331 1.87318 0
M  V30 1583 C 189.369 -1.74394 0.704855 0
M  V30 1584 O 188.727 -1.77972 -0.345786 0
M  V30 1585 C 188.775 -1.73102 3.16336 0
M  V30 1586 O 187.879 -2.83422 2.99576 0
M  V30 1587 H 187.22 -0.24857 0.615718 0
M  V30 1588 H 189.75 -0.150649 2.04045 0
M  V30 1589 H 189.76 -2.12803 3.48107 0
M  V30 1590 H 188.435 -1.10412 4.00976 0
M  V30 1591 H 187.012 -2.47199 2.7919 0
M  V30 1592 N 189.197 -1.51736 -0.425897 0
M  V30 1593 C 190.427 -1.68549 -1.19476 0
M  V30 1594 C 190.835 -0.387288 -1.85194 0
M  V30 1595 O 190.178 0.645142 -1.71999 0
M  V30 1596 C 190.24 -2.75275 -2.31223 0
M  V30 1597 C 189.904 -4.17534 -1.8578 0
M  V30 1598 C 190.901 -5.01936 -1.35485 0
M  V30 1599 C 188.586 -4.6369 -1.93123 0
M  V30 1600 C 190.58 -6.30559 -0.931347 0
M  V30 1601 C 188.267 -5.92307 -1.50384 0
M  V30 1602 C 189.265 -6.75569 -1.00473 0
M  V30 1603 O 188.953 -8.0178 -0.583452 0
M  V30 1604 H 188.685 -0.568525 -0.365725 0
M  V30 1605 H 191.239 -1.98982 -0.509444 0
M  V30 1606 H 189.469 -2.40182 -3.03067 0
M  V30 1607 H 191.158 -2.80853 -2.93047 0
M  V30 1608 H 191.924 -4.67475 -1.29197 0
M  V30 1609 H 187.803 -3.98997 -2.30916 0
M  V30 1610 H 191.347 -6.95498 -0.541084 0
M  V30 1611 H 187.244 -6.2628 -1.56346 0
M  V30 1612 H 188.012 -8.1543 -0.708275 0
M  V30 1613 N 190.675 0.682077 -1.42076 0
M  V30 1614 C 191.605 1.80796 -1.47767 0
M  V30 1615 C 192.586 1.6677 -0.334954 0
M  V30 1616 O 193.771 1.863 -0.548264 0
M  V30 1617 C 190.901 3.19038 -1.37229 0
M  V30 1618 C 189.855 3.47789 -2.49453 0
M  V30 1619 C 189.181 4.8553 -2.23975 0
M  V30 1620 C 190.481 3.45411 -3.91776 0
M  V30 1621 H 192.175 1.7629 -2.41997 0
M  V30 1622 H 189.721 0.846721 -1.16476 0
M  V30 1623 H 191.674 3.97528 -1.39821 0
M  V30 1624 H 190.398 3.24204 -0.394907 0
M  V30 1625 H 189.057 2.71657 -2.46166 0
M  V30 1626 H 188.705 4.87337 -1.24547 0
M  V30 1627 H 188.405 5.0573 -2.99184 0
M  V30 1628 H 189.929 5.66312 -2.28304 0
M  V30 1629 H 191.343 4.13882 -3.96705 0
M  V30 1630 H 189.74 3.77145 -4.66778 0
M  V30 1631 H 190.81 2.44122 -4.18966 0
M  V30 1632 N 192.153 1.28127 0.917671 0
M  V30 1633 C 193.43 1.05761 1.64542 0
M  V30 1634 C 193.81 -0.404344 2.07191 0
M  V30 1635 O 193.158 -1.38963 1.81388 0
M  V30 1636 C 193.368 2.02857 2.83989 0
M  V30 1637 C 194.716 2.32786 3.551 0
M  V30 1638 O 195.74 2.0091 2.94132 0
M  V30 1639 O 194.599 2.87169 4.64969 0
M  V30 1640 H 191.693 0.403916 0.721652 0
M  V30 1641 H 194.239 1.39431 0.967322 0
M  V30 1642 H 193.011 3.01407 2.49538 0
M  V30 1643 H 192.634 1.69809 3.59514 0
M  V30 1644 N 193.631 -1.12557 1.10312 0
M  V30 1645 C 194.578 -2.18247 0.750781 0
M  V30 1646 C 195.548 -1.63853 -0.272293 0
M  V30 1647 O 196.733 -1.90195 -0.151862 0
M  V30 1648 C 193.873 -3.44591 0.187379 0
M  V30 1649 C 192.986 -4.13046 1.2656 0
M  V30 1650 C 192.121 -5.27034 0.663978 0
M  V30 1651 C 191.16 -5.87353 1.72287 0
M  V30 1652 N 190.297 -6.92757 1.1416 0
M  V30 1653 H 195.137 -2.47732 1.65628 0
M  V30 1654 H 192.674 -1.21629 0.827337 0
M  V30 1655 H 194.632 -4.16904 -0.157148 0
M  V30 1656 H 193.262 -3.15527 -0.681355 0
M  V30 1657 H 192.314 -3.38924 1.72727 0
M  V30 1658 H 193.626 -4.53947 2.06721 0
M  V30 1659 H 192.78 -6.06104 0.268824 0
M  V30 1660 H 191.519 -4.87407 -0.169082 0
M  V30 1661 H 190.524 -5.06971 2.12746 0
M  V30 1662 H 191.749 -6.29051 2.55875 0
M  V30 1663 H 189.695 -6.5517 0.329984 0
M  V30 1664 H 189.612 -7.3225 1.88007 0
M  V30 1665 H 190.88 -7.75658 0.772956 0
M  V30 1666 N 195.109 -0.891671 -1.2995 0
M  V30 1667 C 196.355 -0.514261 -1.96171 0
M  V30 1668 C 196.688 0.935506 -1.70182 0
M  V30 1669 O 195.963 1.66204 -1.01028 0
M  V30 1670 C 196.246 -0.797719 -3.51153 0
M  V30 1671 C 196.099 -2.2986 -3.86632 0
M  V30 1672 C 197.418 -0.278749 -4.39216 0
M  V30 1673 H 194.537 -0.188314 -0.712535 0
M  V30 1674 H 197.179 -1.11689 -1.53706 0
M  V30 1675 H 195.329 -0.284826 -3.87455 0
M  V30 1676 H 197.001 -2.88042 -3.60319 0
M  V30 1677 H 195.244 -2.76257 -3.34462 0
M  V30 1678 H 195.915 -2.44753 -4.94773 0
M  V30 1679 H 198.391 -0.717825 -4.09862 0
M  V30 1680 H 197.267 -0.506353 -5.46559 0
M  V30 1681 H 197.528 0.820266 -4.34424 0
M  V30 1682 N 196.587 1.43421 -0.653314 0
M  V30 1683 C 198.003 1.56341 -0.320886 0
M  V30 1684 C 198.203 1.63696 1.17499 0
M  V30 1685 O 197.259 1.59208 1.95982 0
M  V30 1686 C 198.572 2.82424 -1.03233 0
M  V30 1687 C 200.12 2.96168 -1.01259 0
M  V30 1688 C 200.595 4.25084 -1.70492 0
M  V30 1689 N 202.086 4.31948 -1.67257 0
M  V30 1690 C 202.821 5.30466 -2.17701 0
M  V30 1691 N 202.317 6.35261 -2.76434 0
M  V30 1692 N 204.11 5.2212 -2.082 0
M  V30 1693 H 196.261 1.3689 -1.62403 0
M  V30 1694 H 198.524 0.657455 -0.682977 0
M  V30 1695 H 198.23 2.83053 -2.08744 0
M  V30 1696 H 198.104 3.72653 -0.583948 0
M  V30 1697 H 200.491 2.9508 0.0341235 0
M  V30 1698 H 200.572 2.07229 -1.49966 0
M  V30 1699 H 200.216 4.26932 -2.7512 0
M  V30 1700 H 200.146 5.1292 -1.19251 0
M  V30 1701 H 202.637 3.56838 -1.24398 0
M  V30 1702 H 202.95 7.06754 -3.12601 0
M  V30 1703 H 201.295 6.35884 -2.80495 0
M  V30 1704 H 204.486 4.39166 -1.62021 0
M  V30 1705 H 204.659 5.98739 -2.47822 0
M  V30 1706 N 198.065 0.39524 1.52563 0
M  V30 1707 C 199.028 -0.425001 2.25225 0
M  V30 1708 C 200.028 -0.985266 1.27079 0
M  V30 1709 O 201.218 -0.866332 1.5113 0
M  V30 1710 C 198.35 -1.59686 3.01186 0
M  V30 1711 H 199.543 0.211233 2.99155 0
M  V30 1712 H 197.096 0.147472 1.55603 0
M  V30 1713 H 197.831 -2.27035 2.31572 0
M  V30 1714 H 197.616 -1.20176 3.73229 0
M  V30 1715 H 199.106 -2.17743 3.5634 0
M  V30 1716 N 199.544 -1.57102 0.125237 0
M  V30 1717 C 200.474 -2.18659 -0.819174 0
M  V30 1718 C 201.455 -1.12843 -1.27281 0
M  V30 1719 O 202.64 -1.41104 -1.33429 0
M  V30 1720 C 199.77 -2.79096 -2.06695 0
M  V30 1721 C 198.724 -3.90548 -1.75088 0
M  V30 1722 C 198.05 -4.37821 -3.06948 0
M  V30 1723 C 199.35 -5.12356 -1.01435 0
M  V30 1724 H 201.044 -2.9783 -0.306202 0
M  V30 1725 H 198.59 -1.4326 -0.145839 0
M  V30 1726 H 200.543 -3.2082 -2.73226 0
M  V30 1727 H 199.267 -1.97223 -2.60328 0
M  V30 1728 H 197.926 -3.49409 -1.10944 0
M  V30 1729 H 197.574 -3.52799 -3.58527 0
M  V30 1730 H 197.274 -5.12982 -2.86571 0
M  V30 1731 H 198.798 -4.822 -3.74587 0
M  V30 1732 H 200.212 -5.5106 -1.58132 0
M  V30 1733 H 198.609 -5.9314 -0.911319 0
M  V30 1734 H 199.679 -4.849 -0.00218681 0
M  V30 1735 N 201.022 0.148545 -1.56898 0
M  V30 1736 C 201.932 1.20293 -2.01412 0
M  V30 1737 C 202.948 1.47107 -0.929273 0
M  V30 1738 O 204.124 1.58807 -1.23863 0
M  V30 1739 C 201.189 2.51682 -2.38447 0
M  V30 1740 C 200.25 2.32529 -3.60872 0
M  V30 1741 C 199.483 3.57653 -3.96132 0
M  V30 1742 O 199.706 4.63771 -3.32073 0
M  V30 1743 O 198.64 3.50408 -4.89385 0
M  V30 1744 H 202.466 0.855025 -2.91416 0
M  V30 1745 H 200.051 0.357151 -1.45068 0
M  V30 1746 H 201.933 3.29147 -2.63135 0
M  V30 1747 H 200.608 2.86006 -1.51599 0
M  V30 1748 H 199.515 1.53019 -3.41373 0
M  V30 1749 H 200.848 2.03121 -4.48333 0
M  V30 1750 N 202.5 1.5196 0.417844 0
M  V30 1751 C 203.41 1.77554 1.53336 0
M  V30 1752 C 204.426 0.660655 1.6097 0
M  V30 1753 O 205.602 0.945099 1.77848 0
M  V30 1754 C 202.667 1.91291 2.89152 0
M  V30 1755 C 201.728 3.15183 2.91475 0
M  V30 1756 C 200.961 3.28256 4.20813 0
M  V30 1757 O 201.184 2.46798 5.14244 0
M  V30 1758 O 200.118 4.21356 4.29817 0
M  V30 1759 H 203.944 2.7222 1.34647 0
M  V30 1760 H 201.529 1.36698 0.602828 0
M  V30 1761 H 203.411 2.02199 3.69721 0
M  V30 1762 H 202.086 0.998129 3.07927 0
M  V30 1763 H 200.993 3.09739 2.09791 0
M  V30 1764 H 202.326 4.06414 2.77648 0
M  V30 1765 N 203.978 -0.674533 1.42435 0
M  V30 1766 C 204.941 -1.76986 1.45632 0
M  V30 1767 C 205.941 -1.5708 0.343871 0
M  V30 1768 O 207.131 -1.63367 0.604709 0
M  V30 1769 C 204.263 -3.15623 1.28822 0
M  V30 1770 H 205.456 -1.75539 2.43158 0
M  V30 1771 H 203.009 -0.884189 1.28887 0
M  V30 1772 H 203.744 -3.22696 0.322193 0
M  V30 1773 H 203.529 -3.31475 2.09444 0
M  V30 1774 H 205.019 -3.95537 1.33942 0
M  V30 1775 N 205.456 -1.28612 -0.910864 0
M  V30 1776 C 206.404 -1.1265 -2.03501 0
M  V30 1777 C 207.398 -0.0450054 -1.6934 0
M  V30 1778 O 208.604 -0.203988 -1.7884 0
M  V30 1779 H 204.979 -0.347639 -0.666822 0
M  V30 1780 H 206.95 -2.07849 -2.14106 0
M  V30 1781 C 205.699 -0.808143 -3.38178 0
M  V30 1782 H 205.022 -1.63231 -3.6496 0
M  V30 1783 H 206.462 -0.736426 -4.17556 0
M  V30 1784 C 204.921 0.488226 -3.33344 0
M  V30 1785 O 205.451 1.51766 -3.71927 0
M  V30 1786 N 203.657 0.490009 -2.86439 0
M  V30 1787 H 203.204 -0.348161 -2.55236 0
M  V30 1788 H 203.162 1.35741 -2.83587 0
M  V30 1789 N 206.934 1.1197 -1.10907 0
M  V30 1790 C 207.897 2.16031 -0.765707 0
M  V30 1791 C 208.897 1.59393 0.212235 0
M  V30 1792 O 210.087 1.74196 -0.0115441 0
M  V30 1793 C 207.219 3.40632 -0.135053 0
M  V30 1794 H 208.412 2.47919 -1.68748 0
M  V30 1795 H 205.965 1.27061 -0.910226 0
M  V30 1796 H 206.7 3.14348 0.797218 0
M  V30 1797 H 206.485 3.8302 -0.838937 0
M  V30 1798 H 207.975 4.17505 0.0892469 0
M  V30 1799 N 208.412 0.89855 1.29475 0
M  V30 1800 C 209.689 0.443416 1.90508 0
M  V30 1801 C 210.069 -1.07685 1.81569 0
M  V30 1802 O 209.417 -1.9182 1.24166 0
M  V30 1803 C 209.627 0.956708 3.35631 0
M  V30 1804 C 210.975 0.999728 4.12663 0
M  V30 1805 O 211.999 0.904299 3.4453 0
M  V30 1806 O 210.858 1.14289 5.34416 0
M  V30 1807 H 207.952 0.138025 0.815401 0
M  V30 1808 H 210.498 0.98834 1.37949 0
M  V30 1809 H 209.27 2.00067 3.36287 0
M  V30 1810 H 208.893 0.391728 3.95666 0
M  V30 1811 N 209.89 -1.43072 0.660911 0
M  V30 1812 C 210.82 -2.33497 -0.0122829 0
M  V30 1813 C 211.801 -1.49903 -0.803925 0
M  V30 1814 O 212.986 -1.78546 -0.763864 0
M  V30 1815 C 210.116 -3.33363 -0.973994 0
M  V30 1816 C 209.07 -4.27003 -0.291928 0
M  V30 1817 C 208.396 -5.16967 -1.36562 0
M  V30 1818 C 209.696 -5.15816 0.820462 0
M  V30 1819 H 211.39 -2.90038 0.742873 0
M  V30 1820 H 208.936 -1.39461 0.358688 0
M  V30 1821 H 210.889 -3.95524 -1.45392 0
M  V30 1822 H 209.613 -2.75095 -1.7604 0
M  V30 1823 H 208.272 -3.66217 0.167623 0
M  V30 1824 H 207.92 -4.55034 -2.14366 0
M  V30 1825 H 207.62 -5.80441 -0.914454 0
M  V30 1826 H 209.144 -5.82003 -1.84675 0
M  V30 1827 H 210.558 -5.71742 0.422366 0
M  V30 1828 H 208.955 -5.8805 1.19656 0
M  V30 1829 H 210.025 -4.55045 1.67518 0
M  V30 1830 N 211.368 -0.403325 -1.52352 0
M  V30 1831 C 212.278 0.432009 -2.30588 0
M  V30 1832 C 213.294 1.05884 -1.38075 0
M  V30 1833 O 214.47 1.06161 -1.71148 0
M  V30 1834 C 211.535 1.53669 -3.10784 0
M  V30 1835 C 210.596 0.933525 -4.19027 0
M  V30 1836 C 209.829 1.98557 -4.9539 0
M  V30 1837 O 210.052 3.20283 -4.71991 0
M  V30 1838 O 208.986 1.59504 -5.80381 0
M  V30 1839 H 212.812 -0.205739 -3.03002 0
M  V30 1840 H 210.397 -0.166675 -1.48467 0
M  V30 1841 H 212.279 2.17814 -3.60742 0
M  V30 1842 H 210.954 2.15915 -2.41169 0
M  V30 1843 H 209.861 0.254954 -3.7323 0
M  V30 1844 H 211.194 0.35508 -4.90918 0
M  V30 1845 N 212.846 1.57033 -0.133567 0
M  V30 1846 C 214.092 1.95976 0.521649 0
M  V30 1847 C 214.425 1.01779 1.65393 0
M  V30 1848 O 213.7 0.0576581 1.94415 0
M  V30 1849 C 213.983 3.44738 1.04057 0
M  V30 1850 C 213.836 4.49711 -0.0892897 0
M  V30 1851 C 215.155 3.95682 1.92675 0
M  V30 1852 H 212.274 0.712579 0.188149 0
M  V30 1853 H 214.916 1.88813 -0.212076 0
M  V30 1854 H 213.066 3.50973 1.66583 0
M  V30 1855 H 214.738 4.55565 -0.725152 0
M  V30 1856 H 212.981 4.27261 -0.750378 0
M  V30 1857 H 213.652 5.51099 0.315284 0
M  V30 1858 H 216.128 3.91841 1.39998 0
M  V30 1859 H 215.004 5.00262 2.25897 0
M  V30 1860 H 215.265 3.37239 2.85872 0
M  V30 1861 N 214.325 -0.140222 1.56975 0
M  V30 1862 C 215.272 -1.17292 1.98774 0
M  V30 1863 C 216.242 -1.4232 0.856408 0
M  V30 1864 O 217.427 -1.54541 1.119 0
M  V30 1865 C 214.567 -2.49973 2.37923 0
M  V30 1866 C 213.68 -2.32062 3.64378 0
M  V30 1867 C 212.815 -3.57825 3.926 0
M  V30 1868 C 211.854 -3.3498 5.12303 0
M  V30 1869 N 210.991 -4.52891 5.36502 0
M  V30 1870 H 215.831 -0.809472 2.86795 0
M  V30 1871 H 213.368 -0.388237 1.41884 0
M  V30 1872 H 215.326 -3.27346 2.58652 0
M  V30 1873 H 213.956 -2.84252 1.52972 0
M  V30 1874 H 213.008 -1.45711 3.51387 0
M  V30 1875 H 214.32 -2.11145 4.51906 0
M  V30 1876 H 213.474 -4.43624 4.13863 0
M  V30 1877 H 212.213 -3.81753 3.03506 0
M  V30 1878 H 211.218 -2.4757 4.90906 0
M  V30 1879 H 212.443 -3.12444 6.02956 0
M  V30 1880 H 210.389 -4.76979 4.50363 0
M  V30 1881 H 210.306 -4.35001 6.18312 0
M  V30 1882 H 211.574 -5.39884 5.62268 0
M  V30 1883 N 215.803 -1.52179 -0.40978 0
M  V30 1884 C 217.052 -1.65434 -1.15388 0
M  V30 1885 C 217.365 -0.390056 -1.91671 0
M  V30 1886 O 218.571 -0.402399 -2.68501 0
M  V30 1887 C 217.027 -2.92279 -2.10003 0
M  V30 1888 C 216.635 -4.25813 -1.39239 0
M  V30 1889 C 218.379 -3.14897 -2.84675 0
M  V30 1890 C 216.286 -5.43782 -2.32498 0
M  V30 1891 H 215.216 -0.616267 -0.434432 0
M  V30 1892 H 217.867 -1.78666 -0.418401 0
M  V30 1893 H 216.249 -2.72744 -2.871 0
M  V30 1894 H 217.423 -4.55828 -0.675099 0
M  V30 1895 H 215.738 -4.09292 -0.766097 0
M  V30 1896 H 218.335 -4.0021 -3.54593 0
M  V30 1897 H 218.678 -2.29103 -3.47588 0
M  V30 1898 H 219.211 -3.34901 -2.14677 0
M  V30 1899 H 215.95 -6.3192 -1.74233 0
M  V30 1900 H 215.47 -5.18106 -3.02201 0
M  V30 1901 H 217.149 -5.76834 -2.93038 0
M  V30 1902 N 217.281 0.66697 -1.42791 0
M  V30 1903 C 218.697 0.981027 -1.25889 0
M  V30 1904 C 218.897 2.00793 -0.168695 0
M  V30 1905 O 217.953 2.48321 0.45747 0
M  V30 1906 C 219.266 1.47838 -2.61848 0
M  V30 1907 C 220.814 1.59575 -2.69267 0
M  V30 1908 C 221.289 2.12704 -4.05612 0
M  V30 1909 N 222.78 2.20026 -4.07606 0
M  V30 1910 C 223.515 2.62227 -5.09926 0
M  V30 1911 N 223.011 3.03824 -6.22626 0
M  V30 1912 N 224.804 2.62045 -4.97281 0
M  V30 1913 H 216.955 -0.0127891 -2.12396 0
M  V30 1914 H 219.218 0.0568258 -0.946295 0
M  V30 1915 H 218.924 0.798299 -3.4252 0
M  V30 1916 H 218.798 2.45579 -2.86305 0
M  V30 1917 H 221.185 2.26687 -1.88936 0
M  V30 1918 H 221.266 0.60302 -2.48591 0
M  V30 1919 H 220.91 1.46198 -4.86404 0
M  V30 1920 H 220.84 3.12782 -4.23645 0
M  V30 1921 H 223.331 1.90708 -3.2625 0
M  V30 1922 H 223.644 3.34734 -6.96544 0
M  V30 1923 H 221.989 3.01662 -6.26119 0
M  V30 1924 H 225.18 2.28916 -4.08308 0
M  V30 1925 H 225.353 2.94613 -5.77154 0
M  V30 1926 N 218.759 1.29093 0.90403 0
M  V30 1927 C 220.036 1.075 1.63411 0
M  V30 1928 C 220.416 -0.382346 2.07609 0
M  V30 1929 O 219.764 -1.37031 1.82851 0
M  V30 1930 C 219.974 2.05858 2.81822 0
M  V30 1931 C 221.322 2.36539 3.52611 0
M  V30 1932 O 222.346 2.04019 2.91984 0
M  V30 1933 O 221.205 2.92085 4.61897 0
M  V30 1934 H 218.299 0.411547 0.717327 0
M  V30 1935 H 220.845 1.40449 0.952479 0
M  V30 1936 H 219.617 3.04037 2.46327 0
M  V30 1937 H 219.24 1.73613 3.57693 0
M  V30 1938 N 220.237 -1.11381 1.11499 0
M  V30 1939 C 221.483 -1.83597 0.875423 0
M  V30 1940 C 221.838 -1.83048 -0.592555 0
M  V30 1941 O 221.131 -1.27304 -1.43193 0
M  V30 1942 C 221.325 -3.30026 1.37177 0
M  V30 1943 C 221.154 -3.44837 2.88647 0
M  V30 1944 C 219.924 -3.57825 3.56776 0
M  V30 1945 C 222.122 -3.3907 3.86699 0
M  V30 1946 N 220.104 -3.61113 4.96458 0
M  V30 1947 C 221.475 -3.48986 5.12454 0
M  V30 1948 C 223.53 -3.22605 3.7925 0
M  V30 1949 C 222.233 -3.44135 6.31636 0
M  V30 1950 C 224.259 -3.19072 4.97943 0
M  V30 1951 C 223.621 -3.29559 6.22551 0
M  V30 1952 H 219.72 -0.687044 0.37349 0
M  V30 1953 H 222.304 -1.33265 1.41946 0
M  V30 1954 H 220.475 -3.78874 0.854919 0
M  V30 1955 H 222.207 -3.90153 1.07529 0
M  V30 1956 H 218.962 -3.60414 3.07244 0
M  V30 1957 H 219.386 -3.66394 5.69284 0
M  V30 1958 H 224.028 -3.13382 2.83816 0
M  V30 1959 H 221.746 -3.52126 7.27347 0
M  V30 1960 H 225.332 -3.07498 4.93899 0
M  V30 1961 H 224.212 -3.26815 7.12855 0
M  V30 1962 N 221.715 -0.905404 -1.28997 0
M  V30 1963 C 222.945 -0.549049 -1.99171 0
M  V30 1964 C 223.353 0.87203 -1.67906 0
M  V30 1965 O 222.696 1.58796 -0.923561 0
M  V30 1966 C 222.758 -0.668306 -3.53234 0
M  V30 1967 C 222.422 -2.0574 -4.08069 0
M  V30 1968 C 223.419 -3.0292 -4.22534 0
M  V30 1969 C 221.104 -2.36833 -4.42962 0
M  V30 1970 C 223.098 -4.29314 -4.71135 0
M  V30 1971 C 220.785 -3.63467 -4.91258 0
M  V30 1972 C 221.783 -4.59522 -5.053 0
M  V30 1973 O 221.471 -5.83907 -5.52546 0
M  V30 1974 H 221.203 -0.208784 -0.64295 0
M  V30 1975 H 223.757 -1.21836 -1.65363 0
M  V30 1976 H 221.987 0.0580547 -3.86656 0
M  V30 1977 H 223.676 -0.320273 -4.04634 0
M  V30 1978 H 224.442 -2.80216 -3.95859 0
M  V30 1979 H 220.321 -1.62824 -4.31288 0
M  V30 1980 H 223.865 -5.04293 -4.8201 0
M  V30 1981 H 219.762 -3.86 -5.17372 0
M  V30 1982 H 220.53 -5.86578 -5.70849 0
M  V30 1983 N 223.193 1.4272 -0.668489 0
M  V30 1984 C 224.125 2.2914 0.052613 0
M  V30 1985 C 225.138 1.43339 0.771857 0
M  V30 1986 O 226.327 1.67123 0.627067 0
M  V30 1987 C 223.427 3.20618 1.09804 0
M  V30 1988 C 222.6 4.35039 0.45389 0
M  V30 1989 C 221.659 5.07282 1.39825 0
M  V30 1990 O 220.685 5.62024 0.900978 0
M  V30 1991 N 221.887 5.12206 2.73176 0
M  V30 1992 H 224.652 2.91668 -0.689209 0
M  V30 1993 H 222.213 1.53577 -0.512422 0
M  V30 1994 H 224.205 3.65815 1.73094 0
M  V30 1995 H 222.775 2.59585 1.74167 0
M  V30 1996 H 221.995 3.92567 -0.358396 0
M  V30 1997 H 223.283 5.088 0.00486972 0
M  V30 1998 H 222.681 4.6913 3.16122 0
M  V30 1999 H 221.238 5.61069 3.31729 0
M  V30 2000 N 224.671 0.411399 1.52136 0
M  V30 2001 C 226.087 0.0623865 1.59478 0
M  V30 2002 C 226.287 -1.42554 1.4241 0
M  V30 2003 O 225.343 -2.19263 1.2522 0
M  V30 2004 C 226.656 0.559331 2.95452 0
M  V30 2005 C 228.204 0.517503 3.08692 0
M  V30 2006 C 228.679 0.990994 4.4715 0
M  V30 2007 N 230.17 0.947908 4.53397 0
M  V30 2008 C 230.905 1.28544 5.58806 0
M  V30 2009 N 230.401 1.69454 6.71757 0
M  V30 2010 N 232.194 1.20526 5.49026 0
M  V30 2011 H 224.345 1.37982 1.61477 0
M  V30 2012 H 226.608 0.566977 0.759764 0
M  V30 2013 H 226.314 1.59938 3.1323 0
M  V30 2014 H 226.188 -0.0298014 3.77188 0
M  V30 2015 H 228.575 -0.513505 2.90598 0
M  V30 2016 H 228.656 1.14272 2.28857 0
M  V30 2017 H 228.3 2.02034 4.65988 0
M  V30 2018 H 228.23 0.34257 5.25485 0
M  V30 2019 H 230.721 0.647157 3.72317 0
M  V30 2020 H 231.034 1.93513 7.48179 0
M  V30 2021 H 229.379 1.73359 6.73032 0
M  V30 2022 H 232.57 0.884505 4.59667 0
M  V30 2023 H 232.743 1.47161 6.31069 0
M  V30 2024 N 226.149 -1.5696 0.141893 0
M  V30 2025 C 227.081 -2.13619 -0.830627 0
M  V30 2026 C 228.094 -1.08439 -1.21428 0
M  V30 2027 O 229.283 -1.35734 -1.15925 0
M  V30 2028 C 226.383 -2.63978 -2.12529 0
M  V30 2029 C 225.556 -3.93504 -1.9098 0
M  V30 2030 C 224.615 -4.29225 -3.04388 0
M  V30 2031 O 223.641 -4.97641 -2.76302 0
M  V30 2032 N 224.843 -3.88393 -4.31429 0
M  V30 2033 H 227.608 -2.97691 -0.34641 0
M  V30 2034 H 225.169 -1.61846 -0.0418375 0
M  V30 2035 H 227.161 -2.84891 -2.87436 0
M  V30 2036 H 225.731 -1.84659 -2.52229 0
M  V30 2037 H 224.951 -3.81269 -1.00139 0
M  V30 2038 H 226.239 -4.78154 -1.73914 0
M  V30 2039 H 225.637 -3.33257 -4.57117 0
M  V30 2040 H 224.194 -4.14368 -5.03133 0
M  V30 2041 N 227.627 0.131896 -1.57047 0
M  V30 2042 C 229.043 0.485031 -1.52051 0
M  V30 2043 C 229.243 1.82563 -0.85281 0
M  V30 2044 O 228.299 2.48817 -0.429694 0
M  V30 2045 C 229.612 0.481409 -2.96821 0
M  V30 2046 C 231.16 0.565868 -3.07842 0
M  V30 2047 C 231.635 0.592762 -4.54148 0
M  V30 2048 N 233.126 0.654564 -4.58552 0
M  V30 2049 C 233.861 0.696608 -5.69153 0
M  V30 2050 N 233.357 0.697078 -6.89284 0
M  V30 2051 N 235.15 0.738639 -5.57226 0
M  V30 2052 H 227.301 -0.746664 -1.98843 0
M  V30 2053 H 229.564 -0.273999 -0.90754 0
M  V30 2054 H 229.27 -0.435731 -3.4899 0
M  V30 2055 H 229.144 1.3139 -3.53577 0
M  V30 2056 H 231.531 1.47343 -2.55684 0
M  V30 2057 H 231.612 -0.29406 -2.54104 0
M  V30 2058 H 231.256 -0.310701 -5.06949 0
M  V30 2059 H 231.186 1.46939 -5.05684 0
M  V30 2060 H 233.677 0.660887 -3.72076 0
M  V30 2061 H 233.99 0.731426 -7.69331 0
M  V30 2062 H 232.335 0.66471 -6.91814 0
M  V30 2063 H 235.526 0.735545 -4.62285 0
M  V30 2064 H 235.699 0.767938 -6.43434 0
M  V30 2065 N 229.106 1.52395 0.401703 0
M  V30 2066 C 230.517 1.58899 0.980202 0
M  V30 2067 C 230.868 0.434032 1.91339 0
M  V30 2068 O 229.993 -0.444619 2.11783 0
M  V30 2069 C 230.588 2.87994 1.78451 0
M  V30 2070 C 229.147 2.96953 2.31292 0
M  V30 2071 C 228.294 2.53903 1.11483 0
M  V30 2072 H 231.245 1.57657 0.18168 0
M  V30 2073 H 231.266 2.73765 2.64259 0
M  V30 2074 H 230.778 3.72035 1.10506 0
M  V30 2075 H 228.879 2.17422 3.02586 0
M  V30 2076 H 228.992 4.01344 2.61649 0
M  V30 2077 H 227.356 2.07925 1.47104 0
M  V30 2078 H 228.139 3.40326 0.450928 0
M  V30 2079 N 230.584 -0.659388 1.43143 0
M  V30 2080 C 231.547 -1.75432 1.47501 0
M  V30 2081 C 232.547 -1.56707 0.360512 0
M  V30 2082 O 233.737 -1.62717 0.622002 0
M  V30 2083 C 230.869 -3.14239 1.32162 0
M  V30 2084 H 232.062 -1.7295 2.45006 0
M  V30 2085 H 229.615 -0.870469 1.29817 0
M  V30 2086 H 230.35 -3.22336 0.356401 0
M  V30 2087 H 230.135 -3.29235 2.12948 0
M  V30 2088 H 231.625 -3.94094 1.3813 0
M  V30 2089 N 232.062 -1.29571 -0.897171 0
M  V30 2090 C 232.972 -1.16808 -2.03453 0
M  V30 2091 C 233.988 -0.0907471 -1.73763 0
M  V30 2092 O 235.164 -0.303312 -1.99103 0
M  V30 2093 C 232.229 -0.848264 -3.36163 0
M  V30 2094 C 231.29 -2.0097 -3.79354 0
M  V30 2095 C 230.523 -1.70505 -5.05731 0
M  V30 2096 O 230.746 -0.62718 -5.66941 0
M  V30 2097 O 229.68 -2.5538 -5.45036 0
M  V30 2098 H 233.506 -2.12325 -2.17144 0
M  V30 2099 H 231.091 -1.09047 -1.02123 0
M  V30 2100 H 232.973 -0.684581 -4.15802 0
M  V30 2101 H 231.648 0.0771071 -3.23608 0
M  V30 2102 H 230.555 -2.22863 -3.00471 0
M  V30 2103 H 231.888 -2.91636 -3.96496 0
M  V30 2104 N 233.54 1.10788 -1.12088 0
M  V30 2105 C 234.789 1.82036 -0.868659 0
M  V30 2106 C 235.102 1.85929 0.607426 0
M  V30 2107 O 236.308 2.53346 0.97613 0
M  V30 2108 C 234.764 3.26951 -1.50435 0
M  V30 2109 C 234.372 3.31367 -3.01496 0
M  V30 2110 C 236.116 4.03053 -1.33225 0
M  V30 2111 C 234.023 4.7072 -3.58017 0
M  V30 2112 H 232.953 0.682108 -0.321318 0
M  V30 2113 H 235.604 1.24618 -1.34694 0
M  V30 2114 H 233.986 3.84343 -0.953735 0
M  V30 2115 H 235.16 2.83819 -3.6302 0
M  V30 2116 H 233.475 2.6875 -3.18061 0
M  V30 2117 H 236.072 5.05981 -1.72878 0
M  V30 2118 H 236.415 4.15387 -0.275529 0
M  V30 2119 H 236.948 3.52066 -1.85188 0
M  V30 2120 H 233.687 4.63585 -4.63432 0
M  V30 2121 H 233.207 5.1865 -3.01268 0
M  V30 2122 H 234.886 5.39685 -3.56859 0
M  V30 2123 N 235.018 0.912232 1.28515 0
M  V30 2124 C 235.965 0.397954 2.27343 0
M  V30 2125 C 236.935 -0.526766 1.57526 0
M  V30 2126 O 238.12 -0.449292 1.85435 0
M  V30 2127 C 235.26 -0.357263 3.43246 0
M  V30 2128 C 234.373 0.599788 4.27816 0
M  V30 2129 C 233.508 -0.173725 5.30916 0
M  V30 2130 C 232.547 0.777039 6.07148 0
M  V30 2131 N 231.684 0.0371398 7.0209 0
M  V30 2132 H 236.524 1.24577 2.70711 0
M  V30 2133 H 234.061 0.625612 1.33133 0
M  V30 2134 H 236.019 -0.8113 4.09236 0
M  V30 2135 H 234.649 -1.16943 3.00872 0
M  V30 2136 H 233.701 1.17235 3.61884 0
M  V30 2137 H 235.013 1.32704 4.80823 0
M  V30 2138 H 234.167 -0.688394 6.02782 0
M  V30 2139 H 232.906 -0.934041 4.78672 0
M  V30 2140 H 231.911 1.3031 5.34134 0
M  V30 2141 H 233.136 1.53689 6.61481 0
M  V30 2142 H 231.082 -0.705213 6.52198 0
M  V30 2143 H 230.999 0.704249 7.52713 0
M  V30 2144 H 232.267 -0.457383 7.78157 0
M  V30 2145 N 236.496 -1.42363 0.676048 0
M  V30 2146 C 237.773 -1.95183 0.127726 0
M  V30 2147 C 238.153 -1.61641 -1.35777 0
M  V30 2148 O 237.501 -0.913216 -2.09458 0
M  V30 2149 C 237.711 -3.46721 0.398199 0
M  V30 2150 C 239.059 -4.23427 0.315383 0
M  V30 2151 O 240.083 -3.54649 0.332016 0
M  V30 2152 O 238.942 -5.45888 0.25865 0
M  V30 2153 H 236.036 -0.826992 0.00359427 0
M  V30 2154 H 238.582 -1.52184 0.750864 0
M  V30 2155 H 237.354 -3.64344 1.4272 0
M  V30 2156 H 236.977 -3.96769 -0.256885 0
M  V30 2157 N 237.974 -0.419461 -1.51915 0
M  V30 2158 C 239.204 0.151915 -2.06041 0
M  V30 2159 C 239.612 1.38539 -1.28855 0
M  V30 2160 O 238.955 1.80592 -0.336463 0
M  V30 2161 C 239.017 0.557119 -3.55157 0
M  V30 2162 C 238.681 -0.567054 -4.53468 0
M  V30 2163 C 239.678 -1.43379 -4.99738 0
M  V30 2164 C 237.363 -0.742693 -4.96779 0
M  V30 2165 C 239.357 -2.46102 -5.87973 0
M  V30 2166 C 237.044 -1.77322 -5.84808 0
M  V30 2167 C 238.042 -2.63078 -6.30301 0
M  V30 2168 O 237.73 -3.64364 -7.16585 0
M  V30 2169 H 237.462 0.0193293 -0.675724 0
M  V30 2170 H 240.016 -0.592073 -1.96682 0
M  V30 2171 H 238.246 1.35355 -3.62238 0
M  V30 2172 H 239.935 1.05759 -3.9188 0
M  V30 2173 H 240.701 -1.30954 -4.66986 0
M  V30 2174 H 236.58 -0.0848307 -4.60922 0
M  V30 2175 H 240.124 -3.13071 -6.23404 0
M  V30 2176 H 236.021 -1.89773 -6.16974 0
M  V30 2177 H 236.789 -3.60731 -7.34721 0
M  V30 2178 N 239.452 1.56882 -0.150215 0
M  V30 2179 C 240.677 2.01027 0.510184 0
M  V30 2180 C 241.102 1.02966 1.57415 0
M  V30 2181 O 240.46 0.00590158 1.81299 0
M  V30 2182 C 240.508 3.43899 1.08472 0
M  V30 2183 O 239.612 3.4885 2.19948 0
M  V30 2184 H 238.953 0.652233 0.124451 0
M  V30 2185 H 241.483 2.03093 -0.247894 0
M  V30 2186 H 241.493 3.82766 1.41259 0
M  V30 2187 H 240.168 4.14776 0.305582 0
M  V30 2188 H 238.745 3.21827 1.88366 0
M  V30 2189 N 240.93 -0.123565 1.57115 0
M  V30 2190 C 242.341 -0.681198 1.73829 0
M  V30 2191 C 242.692 -1.80535 0.768214 0
M  V30 2192 O 241.817 -2.16317 -0.0599103 0
M  V30 2193 C 242.412 -1.24246 3.15196 0
M  V30 2194 C 240.971 -1.74643 3.33432 0
M  V30 2195 C 240.118 -0.644284 2.69711 0
M  V30 2196 H 243.069 0.102315 1.5837 0
M  V30 2197 H 243.09 -2.11216 3.16493 0
M  V30 2198 H 242.602 -0.424062 3.85776 0
M  V30 2199 H 240.703 -2.58974 2.67886 0
M  V30 2200 H 240.816 -1.85902 4.41562 0
M  V30 2201 H 239.18 -1.07676 2.3082 0
M  V30 2202 H 239.963 0.163058 3.42913 0
M  V30 2203 N 242.408 -1.52605 -0.393616 0
M  V30 2204 C 243.638 -1.71046 -1.15874 0
M  V30 2205 C 244.046 -0.426483 -1.84331 0
M  V30 2206 O 243.389 0.608513 -1.73329 0
M  V30 2207 C 243.451 -2.80118 -2.25332 0
M  V30 2208 C 243.115 -4.21381 -1.76881 0
M  V30 2209 C 244.112 -5.04697 -1.24808 0
M  V30 2210 C 241.797 -4.67683 -1.83244 0
M  V30 2211 C 243.791 -6.32393 -0.797387 0
M  V30 2212 C 241.478 -5.95364 -1.37787 0
M  V30 2213 C 242.476 -6.77549 -0.861208 0
M  V30 2214 O 242.164 -8.02837 -0.413252 0
M  V30 2215 H 241.896 -0.576155 -0.353583 0
M  V30 2216 H 244.45 -2.00018 -0.467123 0
M  V30 2217 H 242.68 -2.46557 -2.97904 0
M  V30 2218 H 244.369 -2.87006 -2.87023 0
M  V30 2219 H 245.135 -4.70111 -1.19252 0
M  V30 2220 H 241.014 -4.03805 -2.22401 0
M  V30 2221 H 244.558 -6.9649 -0.393437 0
M  V30 2222 H 240.455 -6.29455 -1.43026 0
M  V30 2223 H 241.223 -8.16749 -0.53515 0
M  V30 2224 N 243.887 0.651787 -1.4349 0
M  V30 2225 C 245.134 1.41167 -1.45183 0
M  V30 2226 C 245.462 1.94349 -0.0766601 0
M  V30 2227 O 244.717 1.72804 0.918555 0
M  V30 2228 C 245.016 2.60914 -2.44251 0
M  V30 2229 C 244.682 2.26142 -3.9009 0
M  V30 2230 C 243.344 2.16371 -4.2981 0
M  V30 2231 C 245.696 1.98334 -4.81989 0
M  V30 2232 C 243.024 1.7695 -5.5938 0
M  V30 2233 C 245.376 1.6041 -6.11924 0
M  V30 2234 C 244.04 1.49166 -6.5062 0
M  V30 2235 H 243.31 0.516566 -0.531263 0
M  V30 2236 H 245.957 0.741099 -1.76579 0
M  V30 2237 H 244.262 3.3311 -2.06265 0
M  V30 2238 H 245.959 3.19127 -2.42815 0
M  V30 2239 H 242.549 2.34658 -3.58655 0
M  V30 2240 H 246.733 2.04803 -4.52072 0
M  V30 2241 H 241.989 1.66831 -5.88198 0
M  V30 2242 H 246.163 1.37925 -6.82605 0
M  V30 2243 H 243.79 1.1839 -7.50925 0
M  V30 2244 N 245.365 1.30045 0.890287 0
M  V30 2245 C 246.312 1.15976 1.99545 0
M  V30 2246 C 247.282 0.0506202 1.66023 0
M  V30 2247 O 248.467 0.219847 1.89529 0
M  V30 2248 C 245.607 0.852054 3.34416 0
M  V30 2249 C 244.72 2.04255 3.80662 0
M  V30 2250 C 243.855 1.6734 5.04154 0
M  V30 2251 C 242.894 2.82916 5.42794 0
M  V30 2252 N 242.031 2.46333 6.57468 0
M  V30 2253 H 246.871 2.10524 2.10911 0
M  V30 2254 H 244.408 1.04749 1.03276 0
M  V30 2255 H 246.366 0.654296 4.12037 0
M  V30 2256 H 244.996 -0.0565502 3.2275 0
M  V30 2257 H 244.048 2.35172 2.98995 0
M  V30 2258 H 245.36 2.90826 4.05242 0
M  V30 2259 H 244.514 1.43908 5.89386 0
M  V30 2260 H 243.253 0.779308 4.81433 0
M  V30 2261 H 242.258 3.0702 4.56091 0
M  V30 2262 H 243.483 3.73004 5.6749 0
M  V30 2263 H 241.429 1.59423 6.36334 0
M  V30 2264 H 241.346 3.26436 6.81891 0
M  V30 2265 H 242.614 2.26244 7.45945 0
M  V30 2266 N 246.843 -1.10192 1.12674 0
M  V30 2267 C 248.071 -1.85983 0.906527 0
M  V30 2268 C 248.486 -1.80783 -0.544333 0
M  V30 2269 O 247.843 -1.19834 -1.37645 0
M  V30 2270 C 247.894 -3.34281 1.37618 0
M  V30 2271 O 247.615 -3.39401 2.77017 0
M  V30 2272 C 249.116 -4.26938 1.19325 0
M  V30 2273 H 246.336 -0.587716 0.323775 0
M  V30 2274 H 248.88 -1.39284 1.49734 0
M  V30 2275 H 247.035 -3.78436 0.828539 0
M  V30 2276 H 247.449 -4.31838 2.97684 0
M  V30 2277 H 248.923 -5.29181 1.57071 0
M  V30 2278 H 249.4 -4.38995 0.134097 0
M  V30 2279 H 250.006 -3.8859 1.72852 0
M  V30 2280 N 248.321 -0.919034 -1.28029 0
M  V30 2281 C 249.57 -0.550802 -1.94034 0
M  V30 2282 C 249.883 0.910877 -1.73096 0
M  V30 2283 O 251.089 1.3875 -2.33368 0
M  V30 2284 C 249.545 -0.934249 -3.47563 0
M  V30 2285 C 249.153 -2.41602 -3.7727 0
M  V30 2286 C 250.897 -0.636854 -4.19696 0
M  V30 2287 C 248.804 -2.73932 -5.24133 0
M  V30 2288 H 247.734 -0.202273 -0.726362 0
M  V30 2289 H 250.385 -1.11867 -1.45458 0
M  V30 2290 H 248.767 -0.295115 -3.94899 0
M  V30 2291 H 249.941 -3.10233 -3.40723 0
M  V30 2292 H 248.256 -2.68441 -3.18321 0
M  V30 2293 H 250.853 -0.855005 -5.2782 0
M  V30 2294 H 251.196 0.425575 -4.14119 0
M  V30 2295 H 251.729 -1.23469 -3.78154 0
M  V30 2296 H 248.468 -3.79049 -5.34792 0
M  V30 2297 H 247.988 -2.09942 -5.61858 0
M  V30 2298 H 249.667 -2.61215 -5.91925 0
M  V30 2299 N 249.799 1.42003 -0.683588 0
M  V30 2300 C 250.709 2.34597 -0.0109075 0
M  V30 2301 C 251.725 1.55576 0.779245 0
M  V30 2302 O 252.901 1.88107 0.719555 0
M  V30 2303 C 249.966 3.34199 0.922588 0
M  V30 2304 C 249.027 4.29115 0.125984 0
M  V30 2305 C 248.26 5.23959 1.01502 0
M  V30 2306 O 248.483 5.23952 2.25456 0
M  V30 2307 O 247.417 6.00053 0.47111 0
M  V30 2308 H 251.243 2.93675 -0.773853 0
M  V30 2309 H 248.828 1.42654 -0.443861 0
M  V30 2310 H 250.71 3.95365 1.45823 0
M  V30 2311 H 249.385 2.77582 1.66523 0
M  V30 2312 H 248.292 3.71335 -0.453969 0
M  V30 2313 H 249.625 4.88798 -0.577736 0
M  V30 2314 N 251.277 0.427512 1.51691 0
M  V30 2315 C 252.554 -0.201684 1.94557 0
M  V30 2316 C 252.934 -1.60981 1.36559 0
M  V30 2317 O 252.282 -2.21814 0.548702 0
M  V30 2318 C 252.492 -0.189394 3.48486 0
M  V30 2319 C 253.84 -0.39978 4.22714 0
M  V30 2320 O 254.864 -0.267945 3.55191 0
M  V30 2321 O 253.723 -0.661249 5.42485 0
M  V30 2322 H 250.817 -0.135261 0.815864 0
M  V30 2323 H 253.363 0.484782 1.62628 0
M  V30 2324 H 252.135 0.795431 3.8313 0
M  V30 2325 H 251.758 -0.919187 3.86829 0
M  V30 2326 N 252.755 -1.56801 0.158532 0
M  V30 2327 C 253.685 -2.20347 -0.772609 0
M  V30 2328 C 254.666 -1.15518 -1.24859 0
M  V30 2329 O 255.851 -1.43902 -1.30406 0
M  V30 2330 C 252.981 -2.83417 -2.00729 0
M  V30 2331 C 251.935 -3.94174 -1.66765 0
M  V30 2332 C 251.261 -4.44233 -2.97592 0
M  V30 2333 C 252.561 -5.14392 -0.905447 0
M  V30 2334 H 254.255 -2.98413 -0.242959 0
M  V30 2335 H 251.801 -1.43537 -0.115419 0
M  V30 2336 H 253.754 -3.26543 -2.6636 0
M  V30 2337 H 252.478 -2.02701 -2.56086 0
M  V30 2338 H 251.137 -3.51684 -1.03508 0
M  V30 2339 H 250.785 -3.60325 -3.50963 0
M  V30 2340 H 250.485 -5.18945 -2.75626 0
M  V30 2341 H 252.009 -4.90037 -3.64274 0
M  V30 2342 H 253.423 -5.5429 -1.46408 0
M  V30 2343 H 251.82 -5.9494 -0.7853 0
M  V30 2344 H 252.89 -4.84795 0.100668 0
M  V30 2345 N 254.233 0.115231 -1.57178 0
M  V30 2346 C 255.649 0.468877 -1.52557 0
M  V30 2347 C 255.849 1.81649 -0.872125 0
M  V30 2348 O 254.905 2.48347 -0.45606 0
M  V30 2349 C 256.218 0.4499 -2.97315 0
M  V30 2350 C 257.766 0.533185 -3.08425 0
M  V30 2351 C 258.241 0.54456 -4.54751 0
M  V30 2352 N 259.732 0.605892 -4.5922 0
M  V30 2353 C 260.467 0.636203 -5.6986 0
M  V30 2354 N 259.963 0.623931 -6.89985 0
M  V30 2355 N 261.756 0.679496 -5.57978 0
M  V30 2356 H 253.907 -0.767712 -1.9804 0
M  V30 2357 H 256.17 -0.283609 -0.904583 0
M  V30 2358 H 255.876 -0.472721 -3.48509 0
M  V30 2359 H 255.75 1.27632 -3.5495 0
M  V30 2360 H 258.137 1.44623 -2.57232 0
M  V30 2361 H 258.218 -0.320995 -2.53778 0
M  V30 2362 H 257.862 -0.364452 -5.06591 0
M  V30 2363 H 257.792 1.41568 -5.07214 0
M  V30 2364 H 260.283 0.621386 -3.72756 0
M  V30 2365 H 260.596 0.649787 -7.70063 0
M  V30 2366 H 258.941 0.591296 -6.9248 0
M  V30 2367 H 262.132 0.686472 -4.63039 0
M  V30 2368 H 262.305 0.69965 -6.44212 0
M  V30 2369 N 255.711 1.52812 0.385517 0
M  V30 2370 C 256.659 1.78482 1.49155 0
M  V30 2371 C 257.653 0.652914 1.56312 0
M  V30 2372 O 258.859 0.835464 1.59436 0
M  V30 2373 H 255.234 0.5648 0.496493 0
M  V30 2374 H 257.205 2.71095 1.24699 0
M  V30 2375 C 255.954 1.97378 2.86247 0
M  V30 2376 H 255.277 2.83907 2.81491 0
M  V30 2377 H 256.717 2.19327 3.62866 0
M  V30 2378 C 255.176 0.74728 3.28508 0
M  V30 2379 O 255.706 -0.0736232 4.01633 0
M  V30 2380 N 253.912 0.576396 2.84826 0
M  V30 2381 H 253.459 1.24555 2.25486 0
M  V30 2382 H 253.417 -0.24288 3.1346 0
M  V30 2383 N 257.189 -0.644168 1.43834 0
M  V30 2384 C 258.136 -1.75671 1.49694 0
M  V30 2385 C 259.106 -1.6246 0.345809 0
M  V30 2386 O 260.291 -1.82573 0.554234 0
M  V30 2387 C 257.431 -3.13867 1.43463 0
M  V30 2388 C 256.544 -3.38147 2.6885 0
M  V30 2389 C 255.679 -4.66241 2.54544 0
M  V30 2390 C 254.718 -4.83657 3.75157 0
M  V30 2391 N 253.855 -6.03016 3.59605 0
M  V30 2392 H 258.695 -1.69998 2.44754 0
M  V30 2393 H 256.232 -0.829458 1.21484 0
M  V30 2394 H 258.19 -3.9377 1.37843 0
M  V30 2395 H 256.82 -3.18588 0.519783 0
M  V30 2396 H 255.872 -2.52276 2.84712 0
M  V30 2397 H 257.184 -3.46899 3.58417 0
M  V30 2398 H 256.338 -5.54285 2.46683 0
M  V30 2399 H 255.077 -4.59826 1.62516 0
M  V30 2400 H 254.082 -3.94046 3.83416 0
M  V30 2401 H 255.307 -4.91896 4.68204 0
M  V30 2402 H 253.253 -5.97715 2.7032 0
M  V30 2403 H 253.17 -6.12766 4.42779 0
M  V30 2404 H 254.438 -6.93657 3.55613 0
M  V30 2405 N 258.668 -1.30515 -0.883378 0
M  V30 2406 C 259.917 -1.18795 -1.63005 0
M  V30 2407 C 260.23 0.255923 -1.93919 0
M  V30 2408 O 261.436 0.494654 -2.66956 0
M  V30 2409 C 259.892 -2.07878 -2.93794 0
M  V30 2410 C 259.5 -3.57184 -2.70414 0
M  V30 2411 C 261.244 -2.04924 -3.71761 0
M  V30 2412 C 259.151 -4.38317 -3.97029 0
M  V30 2413 H 258.081 -0.441031 -0.611562 0
M  V30 2414 H 260.732 -1.55275 -0.977854 0
M  V30 2415 H 259.114 -1.64283 -3.60315 0
M  V30 2416 H 260.288 -4.08937 -2.12384 0
M  V30 2417 H 258.603 -3.61976 -2.0582 0
M  V30 2418 H 261.2 -2.62792 -4.65665 0
M  V30 2419 H 261.543 -1.0331 -4.03277 0
M  V30 2420 H 262.076 -2.46649 -3.12104 0
M  V30 2421 H 258.815 -5.40632 -3.70671 0
M  V30 2422 H 258.335 -3.91326 -4.54559 0
M  V30 2423 H 260.014 -4.49834 -4.65036 0
M  V30 2424 N 260.146 1.09593 -1.13257 0
M  V30 2425 C 261.076 2.18214 -0.830946 0
M  V30 2426 C 262.057 1.68812 0.208966 0
M  V30 2427 O 263.242 1.9408 0.0682666 0
M  V30 2428 C 260.372 3.46051 -0.294296 0
M  V30 2429 C 259.326 4.08778 -1.26826 0
M  V30 2430 C 258.652 5.31419 -0.591449 0
M  V30 2431 C 259.952 4.51476 -2.62615 0
M  V30 2432 H 261.646 2.43703 -1.73923 0
M  V30 2433 H 259.192 1.17128 -0.837675 0
M  V30 2434 H 261.145 4.2134 -0.0709606 0
M  V30 2435 H 259.869 3.20079 0.649366 0
M  V30 2436 H 258.528 3.35505 -1.47756 0
M  V30 2437 H 258.176 5.01727 0.357633 0
M  V30 2438 H 257.876 5.74341 -1.24123 0
M  V30 2439 H 259.4 6.09433 -0.377355 0
M  V30 2440 H 260.814 5.17999 -2.45663 0
M  V30 2441 H 259.211 5.05277 -3.23752 0
M  V30 2442 H 260.281 3.63962 -3.20406 0
M  V30 2443 N 261.624 0.925811 1.2754 0
M  V30 2444 C 262.852 0.581509 1.9856 0
M  V30 2445 C 263.267 -0.840041 1.69082 0
M  V30 2446 O 262.624 -1.55805 0.950312 0
M  V30 2447 C 262.675 0.795589 3.52637 0
M  V30 2448 O 262.396 2.16121 3.81082 0
M  V30 2449 C 263.897 0.459744 4.4091 0
M  V30 2450 H 261.117 0.220538 0.633722 0
M  V30 2451 H 263.661 1.24232 1.6244 0
M  V30 2452 H 261.816 0.18161 3.86974 0
M  V30 2453 H 262.23 2.2098 4.75676 0
M  V30 2454 H 263.704 0.660244 5.48037 0
M  V30 2455 H 264.181 -0.604625 4.35018 0
M  V30 2456 H 264.787 1.05178 4.12089 0
M  V30 2457 N 263.102 -1.41638 0.69111 0
M  V30 2458 C 264.065 -2.29178 0.0319786 0
M  V30 2459 C 265.065 -1.44153 -0.712496 0
M  V30 2460 O 266.255 -1.65354 -0.548053 0
M  V30 2461 C 263.387 -3.26952 -0.965161 0
M  V30 2462 H 264.58 -2.88959 0.802681 0
M  V30 2463 H 262.133 -1.4955 0.454356 0
M  V30 2464 H 262.868 -2.72142 -1.76378 0
M  V30 2465 H 262.653 -3.89685 -0.434522 0
M  V30 2466 H 264.143 -3.92561 -1.42428 0
M  V30 2467 N 264.58 -0.43555 -1.51462 0
M  V30 2468 C 265.808 0.130242 -2.0649 0
M  V30 2469 C 266.223 1.36614 -1.30315 0
M  V30 2470 O 265.58 1.78869 -0.362223 0
M  V30 2471 C 265.631 0.454253 -3.58635 0
M  V30 2472 O 265.352 -0.73259 -4.31931 0
M  V30 2473 C 266.853 1.07091 -4.3017 0
M  V30 2474 H 264.073 0.00871669 -0.670943 0
M  V30 2475 H 266.617 -0.614117 -1.95061 0
M  V30 2476 H 264.772 1.14851 -3.69984 0
M  V30 2477 H 265.186 -0.455787 -5.22516 0
M  V30 2478 H 266.66 1.24764 -5.37716 0
M  V30 2479 H 267.137 2.05144 -3.88346 0
M  V30 2480 H 267.743 0.416089 -4.2326 0
M  V30 2481 N 266.058 1.56714 -0.166846 0
M  V30 2482 C 267.304 1.97039 0.479962 0
M  V30 2483 C 267.637 1.05264 1.63197 0
M  V30 2484 O 266.912 0.0988833 1.94248 0
M  V30 2485 C 267.195 3.46867 0.967212 0
M  V30 2486 C 267.048 4.49421 -0.18466 0
M  V30 2487 C 268.367 3.9968 1.84238 0
M  V30 2488 H 265.486 0.71641 0.172992 0
M  V30 2489 H 268.128 1.8832 -0.252079 0
M  V30 2490 H 266.278 3.54428 1.59101 0
M  V30 2491 H 267.95 4.53924 -0.821621 0
M  V30 2492 H 266.193 4.25573 -0.840837 0
M  V30 2493 H 266.864 5.51644 0.198317 0
M  V30 2494 H 269.34 3.94723 1.31655 0
M  V30 2495 H 268.216 5.04941 2.15234 0
M  V30 2496 H 268.477 3.43226 2.78654 0
M  V30 2497 N 267.536 -0.106894 1.57237 0
M  V30 2498 C 268.813 -0.843526 1.76477 0
M  V30 2499 C 269.193 -1.97499 0.745464 0
M  V30 2500 O 268.541 -2.27357 -0.228306 0
M  V30 2501 C 268.751 -1.34903 3.21873 0
M  V30 2502 C 270.099 -1.79654 3.8472 0
M  V30 2503 O 271.123 -1.44554 3.2555 0
M  V30 2504 O 269.982 -2.44515 4.88748 0
M  V30 2505 H 267.076 -0.401468 0.723016 0
M  V30 2506 H 269.622 -0.0896927 1.69463 0
M  V30 2507 H 268.394 -0.53781 3.87586 0
M  V30 2508 H 268.017 -2.16522 3.33473 0
M  V30 2509 N 269.014 -1.53014 -0.377408 0
M  V30 2510 C 269.962 -1.7927 -1.48206 0
M  V30 2511 C 270.956 -0.661195 -1.55963 0
M  V30 2512 O 272.162 -0.843908 -1.58991 0
M  V30 2513 H 268.537 -0.567425 -0.493491 0
M  V30 2514 H 270.508 -2.71753 -1.2326 0
M  V30 2515 C 269.257 -1.98894 -2.85196 0
M  V30 2516 H 268.58 -2.85395 -2.79981 0
M  V30 2517 H 270.02 -2.21249 -3.61698 0
M  V30 2518 C 268.479 -0.764691 -3.28107 0
M  V30 2519 O 269.009 0.0523226 -4.01666 0
M  V30 2520 N 267.215 -0.591493 -2.84517 0
M  V30 2521 H 266.762 -1.25749 -2.24822 0
M  V30 2522 H 266.72 0.226253 -3.13585 0
M  V30 2523 N 270.492 0.636531 -1.44174 0
M  V30 2524 C 271.455 1.73063 -1.50273 0
M  V30 2525 C 272.455 1.56113 -0.385397 0
M  V30 2526 O 273.645 1.61707 -0.64781 0
M  V30 2527 C 270.777 3.12096 -1.37145 0
M  V30 2528 H 271.97 1.69031 -2.47727 0
M  V30 2529 H 269.523 0.849706 -1.31186 0
M  V30 2530 H 270.258 3.21728 -0.407636 0
M  V30 2531 H 270.043 3.25805 -2.18159 0
M  V30 2532 H 271.533 3.91846 -1.44382 0
M  V30 2533 N 271.97 1.30982 0.876444 0
M  V30 2534 C 272.918 1.18006 2.00443 0
M  V30 2535 C 273.912 0.0898871 1.69161 0
M  V30 2536 O 275.118 0.251333 1.78237 0
M  V30 2537 H 271.493 0.365196 0.65737 0
M  V30 2538 H 273.464 2.13453 2.0852 0
M  V30 2539 C 272.213 0.897521 3.35916 0
M  V30 2540 H 271.536 1.7285 3.60504 0
M  V30 2541 H 272.976 0.846874 4.15456 0
M  V30 2542 C 271.435 -0.399674 3.34521 0
M  V30 2543 O 271.965 -1.41852 3.7582 0
M  V30 2544 N 270.171 -0.413893 2.87637 0
M  V30 2545 H 269.718 0.41571 2.54224 0
M  V30 2546 H 269.676 -1.28175 2.87086 0
M  V30 2547 N 273.449 -1.08991 1.13837 0
M  V30 2548 C 274.695 -1.81526 0.90422 0
M  V30 2549 C 275.028 -1.85706 -0.568066 0
M  V30 2550 O 274.303 -1.32855 -1.42056 0
M  V30 2551 C 274.586 -3.27447 1.49835 0
M  V30 2552 C 274.439 -3.31512 3.04006 0
M  V30 2553 C 275.758 -4.24256 1.17025 0
M  V30 2554 H 272.877 -0.659029 0.329923 0
M  V30 2555 H 275.519 -1.27644 1.40737 0
M  V30 2556 H 273.669 -3.73462 1.07044 0
M  V30 2557 H 275.341 -2.93867 3.55584 0
M  V30 2558 H 273.584 -2.70963 3.38765 0
M  V30 2559 H 274.255 -4.34329 3.40679 0
M  V30 2560 H 276.731 -3.86549 1.54009 0
M  V30 2561 H 275.607 -5.24684 1.61237 0
M  V30 2562 H 275.868 -4.42019 0.0846274 0
M  V30 2563 N 274.927 -0.932562 -1.27047 0
M  V30 2564 C 275.857 -0.452902 -2.29066 0
M  V30 2565 C 276.838 0.489338 -1.62909 0
M  V30 2566 O 278.023 0.393046 -1.90181 0
M  V30 2567 C 275.153 0.290698 -3.46081 0
M  V30 2568 C 274.107 -0.564168 -4.24265 0
M  V30 2569 C 273.433 0.308886 -5.33807 0
M  V30 2570 C 274.733 -1.83112 -4.89149 0
M  V30 2571 H 276.427 -1.30552 -2.69437 0
M  V30 2572 H 273.973 -0.629201 -1.29526 0
M  V30 2573 H 275.926 0.637233 -4.16554 0
M  V30 2574 H 274.65 1.17738 -3.0464 0
M  V30 2575 H 273.309 -0.893477 -3.55545 0
M  V30 2576 H 272.957 1.19467 -4.88607 0
M  V30 2577 H 272.657 -0.259633 -5.87026 0
M  V30 2578 H 274.181 0.650884 -6.07121 0
M  V30 2579 H 275.595 -1.55236 -5.51883 0
M  V30 2580 H 273.992 -2.34353 -5.52448 0
M  V30 2581 H 275.062 -2.54772 -4.12576 0
M  V30 2582 N 276.405 1.4127 -0.698611 0
M  V30 2583 C 277.335 2.33447 -0.049629 0
M  V30 2584 C 278.316 1.51982 0.763898 0
M  V30 2585 O 279.501 1.80509 0.716257 0
M  V30 2586 C 276.631 3.35828 0.885267 0
M  V30 2587 C 275.585 4.27627 0.178613 0
M  V30 2588 C 274.911 5.20406 1.22807 0
M  V30 2589 C 276.211 5.13459 -0.956933 0
M  V30 2590 H 277.905 2.87966 -0.81951 0
M  V30 2591 H 275.451 1.38461 -0.395538 0
M  V30 2592 H 277.404 3.9924 1.34854 0
M  V30 2593 H 276.128 2.79666 1.68685 0
M  V30 2594 H 274.787 3.65643 -0.26466 0
M  V30 2595 H 274.435 4.60558 2.02226 0
M  V30 2596 H 274.135 5.82661 0.760239 0
M  V30 2597 H 275.659 5.86695 1.69179 0
M  V30 2598 H 277.073 5.70421 -0.573805 0
M  V30 2599 H 275.47 5.8467 -1.35205 0
M  V30 2600 H 276.54 4.50443 -1.79524 0
M  V30 2601 N 277.883 0.443576 1.51229 0
M  V30 2602 C 278.815 -0.400608 2.25672 0
M  V30 2603 C 279.828 -0.980945 1.29928 0
M  V30 2604 O 281.017 -0.874024 1.55638 0
M  V30 2605 C 278.117 -1.57304 3.00181 0
M  V30 2606 C 277.29 -1.11046 4.23069 0
M  V30 2607 C 276.349 -2.15374 4.80105 0
M  V30 2608 O 275.375 -1.74554 5.41774 0
M  V30 2609 N 276.577 -3.47922 4.64683 0
M  V30 2610 H 279.342 0.23745 2.98758 0
M  V30 2611 H 276.903 0.272809 1.59585 0
M  V30 2612 H 278.895 -2.26733 3.35223 0
M  V30 2613 H 277.465 -2.11632 2.30066 0
M  V30 2614 H 276.685 -0.243019 3.9345 0
M  V30 2615 H 277.973 -0.778888 5.02803 0
M  V30 2616 H 277.371 -3.83815 4.15575 0
M  V30 2617 H 275.928 -4.13228 5.0407 0
M  V30 2618 N 279.361 -1.56624 0.175154 0
M  V30 2619 C 280.61 -1.96173 -0.468921 0
M  V30 2620 C 280.923 -1.06401 -1.64128 0
M  V30 2621 O 282.129 -1.35648 -2.35185 0
M  V30 2622 C 280.585 -3.48833 -0.885633 0
M  V30 2623 C 280.193 -4.47237 0.261343 0
M  V30 2624 C 281.937 -3.97194 -1.49791 0
M  V30 2625 C 279.844 -5.9114 -0.175214 0
M  V30 2626 H 278.774 -0.732455 -0.178958 0
M  V30 2627 H 281.425 -1.81591 0.263997 0
M  V30 2628 H 279.807 -3.58848 -1.67464 0
M  V30 2629 H 280.981 -4.4894 1.03871 0
M  V30 2630 H 279.296 -4.08956 0.783827 0
M  V30 2631 H 281.893 -5.02167 -1.83665 0
M  V30 2632 H 282.236 -3.40351 -2.39722 0
M  V30 2633 H 282.769 -3.90212 -0.773267 0
M  V30 2634 H 279.508 -6.51865 0.689414 0
M  V30 2635 H 279.028 -5.92735 -0.91786 0
M  V30 2636 H 280.707 -6.44044 -0.617792 0
M  V30 2637 N 280.839 0.0985539 -1.57292 0
M  V30 2638 C 282.116 0.834155 -1.76921 0
M  V30 2639 C 282.496 1.97101 -0.755928 0
M  V30 2640 O 281.844 2.27474 0.216245 0
M  V30 2641 C 282.054 1.33194 -3.22584 0
M  V30 2642 C 283.402 1.77611 -3.85668 0
M  V30 2643 O 284.426 1.42825 -3.26312 0
M  V30 2644 O 283.285 2.4192 -4.90038 0
M  V30 2645 H 280.379 0.397628 -0.725135 0
M  V30 2646 H 282.925 0.0807044 -1.69508 0
M  V30 2647 H 281.697 0.517248 -3.87866 0
M  V30 2648 H 281.32 2.1475 -3.34616 0
M  V30 2649 N 282.317 1.53212 0.369288 0
M  V30 2650 C 283.265 1.80054 1.47253 0
M  V30 2651 C 284.259 0.669456 1.55611 0
M  V30 2652 O 285.465 0.852328 1.58541 0
M  V30 2653 H 281.84 0.570034 0.490475 0
M  V30 2654 H 283.811 2.72403 1.21817 0
M  V30 2655 C 282.56 2.00403 2.84137 0
M  V30 2656 H 281.883 2.86876 2.78464 0
M  V30 2657 H 283.323 2.23164 3.60519 0
M  V30 2658 C 281.782 0.782081 3.27697 0
M  V30 2659 O 282.312 -0.0310205 4.01688 0
M  V30 2660 N 280.518 0.606573 2.84199 0
M  V30 2661 H 280.065 1.26939 2.24152 0
M  V30 2662 H 280.023 -0.20962 3.137 0
M  V30 2663 N 283.795 -0.628877 1.44509 0
M  V30 2664 C 284.758 -1.72263 1.51188 0
M  V30 2665 C 285.758 -1.55907 0.39367 0
M  V30 2666 O 286.948 -1.61361 0.656377 0
M  V30 2667 C 284.08 -3.11365 1.38798 0
M  V30 2668 H 285.273 -1.67714 2.4862 0
M  V30 2669 H 282.826 -0.842737 1.31634 0
M  V30 2670 H 283.561 -3.21507 0.424693 0
M  V30 2671 H 283.346 -3.24644 2.19884 0
M  V30 2672 H 284.836 -3.91075 1.46458 0
M  V30 2673 N 285.273 -1.31445 -0.869486 0
M  V30 2674 C 286.689 -1.10113 -1.15531 0
M  V30 2675 C 286.889 0.128087 -2.01092 0
M  V30 2676 O 285.945 0.817276 -2.38908 0
M  V30 2677 C 287.258 -2.37291 -1.84698 0
M  V30 2678 C 288.806 -2.42906 -1.97397 0
M  V30 2679 C 289.281 -3.69967 -2.69979 0
M  V30 2680 N 290.772 -3.70864 -2.77514 0
M  V30 2681 C 291.507 -4.65875 -3.34287 0
M  V30 2682 N 291.003 -5.71242 -3.91988 0
M  V30 2683 N 292.796 -4.53394 -3.3225 0
M  V30 2684 H 284.947 -2.1028 -0.299347 0
M  V30 2685 H 287.21 -0.927683 -0.195214 0
M  V30 2686 H 286.916 -3.27078 -1.29278 0
M  V30 2687 H 286.79 -2.47125 -2.84972 0
M  V30 2688 H 289.177 -1.53588 -2.51982 0
M  V30 2689 H 289.258 -2.37036 -0.961643 0
M  V30 2690 H 288.902 -4.59652 -2.16062 0
M  V30 2691 H 288.832 -3.73103 -3.7162 0
M  V30 2692 H 291.323 -2.94697 -2.36563 0
M  V30 2693 H 291.636 -6.39817 -4.33421 0
M  V30 2694 H 289.981 -5.75015 -3.90362 0
M  V30 2695 H 293.172 -3.70252 -2.8641 0
M  V30 2696 H 293.345 -5.27617 -3.76197 0
M  V30 2697 N 286.751 1.08385 -1.14413 0
M  V30 2698 C 287.681 2.17321 -0.854044 0
M  V30 2699 C 288.662 1.69024 0.191049 0
M  V30 2700 O 289.847 1.94141 0.0476779 0
M  V30 2701 C 286.977 3.45719 -0.330983 0
M  V30 2702 C 285.931 4.07409 -1.31155 0
M  V30 2703 C 285.257 5.30762 -0.64778 0
M  V30 2704 C 286.557 4.48665 -2.67388 0
M  V30 2705 H 288.251 2.41845 -1.76498 0
M  V30 2706 H 285.797 1.16233 -0.850051 0
M  V30 2707 H 287.75 4.21241 -0.115645 0
M  V30 2708 H 286.474 3.2075 0.615381 0
M  V30 2709 H 285.133 3.33919 -1.51306 0
M  V30 2710 H 284.781 5.02078 0.304398 0
M  V30 2711 H 284.481 5.72992 -1.30207 0
M  V30 2712 H 286.005 6.08998 -0.441972 0
M  V30 2713 H 287.419 5.15364 -2.51143 0
M  V30 2714 H 285.816 5.01814 -3.29093 0
M  V30 2715 H 286.886 3.60543 -3.24248 0
M  V30 2716 N 288.23 0.939286 1.26551 0
M  V30 2717 C 289.193 0.451987 2.24699 0
M  V30 2718 C 290.193 -0.435869 1.5478 0
M  V30 2719 O 291.383 -0.235314 1.72603 0
M  V30 2720 C 288.515 -0.348801 3.39111 0
M  V30 2721 H 289.708 1.3193 2.69322 0
M  V30 2722 H 287.261 0.721072 1.38673 0
M  V30 2723 H 287.996 -1.23444 2.99887 0
M  V30 2724 H 287.781 0.287945 3.91041 0
M  V30 2725 H 289.271 -0.679726 4.12031 0
M  V30 2726 N 289.708 -1.40897 0.706093 0
M  V30 2727 C 290.671 -2.29131 0.0562841 0
M  V30 2728 C 291.671 -1.44901 -0.697166 0
M  V30 2729 O 292.861 -1.65926 -0.530484 0
M  V30 2730 C 289.993 -3.27957 -0.93043 0
M  V30 2731 H 291.186 -2.88091 0.833284 0
M  V30 2732 H 288.739 -1.4906 0.470192 0
M  V30 2733 H 289.474 -2.73997 -1.73482 0
M  V30 2734 H 289.259 -3.90124 -0.393166 0
M  V30 2735 H 290.749 -3.94049 -1.38256 0
M  V30 2736 N 291.186 -0.45159 -1.50991 0
M  V30 2737 C 292.463 0.170707 -1.94854 0
M  V30 2738 C 292.843 1.58788 -1.39103 0
M  V30 2739 O 292.191 2.20913 -0.583921 0
M  V30 2740 C 292.401 0.133929 -3.48743 0
M  V30 2741 C 293.749 0.33248 -4.23296 0
M  V30 2742 O 294.773 0.211403 -3.55572 0
M  V30 2743 O 293.632 0.57486 -5.43468 0
M  V30 2744 H 290.726 0.122264 -0.817912 0
M  V30 2745 H 293.272 -0.510594 -1.61836 0
M  V30 2746 H 292.044 -0.856283 -3.81816 0
M  V30 2747 H 291.667 0.857529 -3.88242 0
M  V30 2748 N 292.664 1.56529 -0.183458 0
M  V30 2749 C 293.941 1.88959 0.50536 0
M  V30 2750 C 294.321 1.09523 1.80466 0
M  V30 2751 O 293.669 0.19278 2.27685 0
M  V30 2752 C 293.879 3.41162 0.73547 0
M  V30 2753 C 295.227 4.11155 1.06005 0
M  V30 2754 O 296.251 3.46548 0.823594 0
M  V30 2755 O 295.11 5.25318 1.50675 0
M  V30 2756 H 292.204 0.78441 0.261973 0
M  V30 2757 H 294.75 1.68231 -0.222802 0
M  V30 2758 H 293.522 3.90874 -0.182561 0
M  V30 2759 H 293.145 3.67543 1.51651 0
M  V30 2760 N 294.142 -0.090211 1.57342 0
M  V30 2761 C 295.389 -0.792807 1.86335 0
M  V30 2762 C 295.717 -1.78494 0.772662 0
M  V30 2763 O 294.972 -1.94305 -0.233258 0
M  V30 2764 C 295.271 -1.55222 3.21933 0
M  V30 2765 C 294.937 -0.701765 4.45406 0
M  V30 2766 C 293.599 -0.467334 4.78925 0
M  V30 2767 C 295.951 -0.11086 5.21082 0
M  V30 2768 C 293.279 0.367785 5.85546 0
M  V30 2769 C 295.631 0.711609 6.28585 0
M  V30 2770 C 294.295 0.956086 6.60617 0
M  V30 2771 H 293.565 -0.290109 0.681849 0
M  V30 2772 H 296.212 -0.0541332 1.91423 0
M  V30 2773 H 294.517 -2.3626 3.12551 0
M  V30 2774 H 296.214 -2.10032 3.41595 0
M  V30 2775 H 292.804 -0.894598 4.1916 0
M  V30 2776 H 296.988 -0.279129 4.95514 0
M  V30 2777 H 292.244 0.566128 6.08773 0
M  V30 2778 H 296.418 1.17632 6.86393 0
M  V30 2779 H 294.045 1.60499 7.43064 0
M  V30 2780 N 295.62 -1.53406 -0.361157 0
M  V30 2781 C 297.036 -1.43277 -0.703124 0
M  V30 2782 C 297.236 -0.575384 -1.9311 0
M  V30 2783 O 296.292 -0.0595362 -2.5243 0
M  V30 2784 C 297.605 -2.8653 -0.9122 0
M  V30 2785 C 299.153 -2.96191 -1.01193 0
M  V30 2786 C 299.628 -4.40514 -1.25345 0
M  V30 2787 N 301.119 -4.43962 -1.32105 0
M  V30 2788 C 301.854 -5.52746 -1.5251 0
M  V30 2789 N 301.35 -6.71567 -1.70203 0
M  V30 2790 N 303.143 -5.40331 -1.54916 0
M  V30 2791 H 295.294 -2.07654 0.446475 0
M  V30 2792 H 297.557 -0.937944 0.137715 0
M  V30 2793 H 297.263 -3.51605 -0.0816414 0
M  V30 2794 H 297.137 -3.30441 -1.81903 0
M  V30 2795 H 299.524 -2.31266 -1.83303 0
M  V30 2796 H 299.605 -2.55667 -0.0823929 0
M  V30 2797 H 299.249 -5.06014 -0.437346 0
M  V30 2798 H 299.179 -4.78614 -2.19627 0
M  V30 2799 H 301.67 -3.58332 -1.20028 0
M  V30 2800 H 301.983 -7.50241 -1.85359 0
M  V30 2801 H 300.328 -6.74545 -1.67373 0
M  V30 2802 H 303.519 -4.46465 -1.40663 0
M  V30 2803 H 303.692 -6.25173 -1.70477 0
M  V30 2804 N 297.098 0.621204 -1.44841 0
M  V30 2805 C 298.326 1.40752 -1.51646 0
M  V30 2806 C 298.741 1.88246 -0.144549 0
M  V30 2807 O 298.098 1.61422 0.851416 0
M  V30 2808 C 298.149 2.62119 -2.4895 0
M  V30 2809 O 297.87 2.16602 -3.80808 0
M  V30 2810 C 299.371 3.55135 -2.65319 0
M  V30 2811 H 296.591 0.431325 -0.514004 0
M  V30 2812 H 299.135 0.758835 -1.899 0
M  V30 2813 H 297.29 3.23058 -2.13805 0
M  V30 2814 H 297.704 2.95358 -4.33433 0
M  V30 2815 H 299.178 4.36874 -3.37409 0
M  V30 2816 H 299.655 4.04592 -1.70886 0
M  V30 2817 H 300.261 3.00058 -3.01405 0
M  V30 2818 N 298.576 1.31904 0.862503 0
M  V30 2819 C 299.523 1.20182 1.9704 0
M  V30 2820 C 300.493 0.0858247 1.65878 0
M  V30 2821 O 301.678 0.26 1.8902 0
M  V30 2822 C 298.818 0.922797 3.32533 0
M  V30 2823 C 297.931 2.12284 3.76244 0
M  V30 2824 C 297.066 1.77996 5.00491 0
M  V30 2825 C 296.105 2.94366 5.36671 0
M  V30 2826 N 295.242 2.60223 6.52095 0
M  V30 2827 H 300.082 2.14951 2.06398 0
M  V30 2828 H 297.619 1.06917 1.01031 0
M  V30 2829 H 299.577 0.741548 4.10557 0
M  V30 2830 H 298.207 0.0119227 3.22798 0
M  V30 2831 H 297.259 2.41461 2.9394 0
M  V30 2832 H 298.571 2.99357 3.98982 0
M  V30 2833 H 297.725 1.56377 5.862 0
M  V30 2834 H 296.464 0.881252 4.79672 0
M  V30 2835 H 295.469 3.16625 4.49476 0
M  V30 2836 H 296.694 3.84957 5.59451 0
M  V30 2837 H 294.64 1.72884 6.32809 0
M  V30 2838 H 294.557 3.40827 6.74814 0
M  V30 2839 H 295.825 2.42016 7.40978 0
M  V30 2840 N 300.054 -1.07777 1.14986 0
M  V30 2841 C 301.284 -1.83752 0.944402 0
M  V30 2842 C 301.692 -1.8218 -0.51058 0
M  V30 2843 O 301.035 -1.22852 -1.36576 0
M  V30 2844 C 301.097 -3.32128 1.37592 0
M  V30 2845 C 300.761 -3.57425 2.84775 0
M  V30 2846 C 301.758 -3.5173 3.8286 0
M  V30 2847 C 299.443 -3.8523 3.2234 0
M  V30 2848 C 301.437 -3.73482 5.16517 0
M  V30 2849 C 299.124 -4.06634 4.56171 0
M  V30 2850 C 300.122 -4.00754 5.53069 0
M  V30 2851 O 299.81 -4.2159 6.84483 0
M  V30 2852 H 299.542 -0.58673 0.335744 0
M  V30 2853 H 302.096 -1.36982 1.53052 0
M  V30 2854 H 300.326 -3.79686 0.733165 0
M  V30 2855 H 302.015 -3.89555 1.14024 0
M  V30 2856 H 302.781 -3.30256 3.55184 0
M  V30 2857 H 298.66 -3.88923 2.47508 0
M  V30 2858 H 302.204 -3.68808 5.92137 0
M  V30 2859 H 298.101 -4.27593 4.83564 0
M  V30 2860 H 298.869 -4.38961 6.90837 0
M  V30 2861 N 301.532 -0.945985 -1.26051 0
M  V30 2862 C 302.442 -0.465633 -2.29933 0
M  V30 2863 C 303.458 0.462761 -1.67733 0
M  V30 2864 O 304.634 0.341118 -1.9849 0
M  V30 2865 C 301.699 0.256994 -3.45746 0
M  V30 2866 C 300.76 -0.708549 -4.23412 0
M  V30 2867 C 299.993 -0.0203135 -5.33696 0
M  V30 2868 O 300.216 1.19571 -5.57726 0
M  V30 2869 O 299.15 -0.701459 -5.97799 0
M  V30 2870 H 302.976 -1.32866 -2.73094 0
M  V30 2871 H 300.561 -0.712071 -1.31339 0
M  V30 2872 H 302.443 0.663852 -4.16138 0
M  V30 2873 H 301.118 1.09533 -3.04605 0
M  V30 2874 H 300.025 -1.16545 -3.55483 0
M  V30 2875 H 301.358 -1.51465 -4.68315 0
M  V30 2876 N 303.011 1.40521 -0.713556 0
M  V30 2877 C 304.239 2.05237 -0.261775 0
M  V30 2878 C 304.654 1.53755 1.09567 0
M  V30 2879 O 304.011 0.693268 1.6882 0
M  V30 2880 C 304.062 3.60763 -0.230706 0
M  V30 2881 O 303.783 4.10345 -1.53455 0
M  V30 2882 C 305.284 4.42651 0.239874 0
M  V30 2883 H 302.504 0.660533 -0.118057 0
M  V30 2884 H 305.048 1.79967 -0.971192 0
M  V30 2885 H 303.203 3.8501 0.429661 0
M  V30 2886 H 303.617 5.04526 -1.43366 0
M  V30 2887 H 305.091 5.51599 0.210468 0
M  V30 2888 H 305.568 4.20082 1.28171 0
M  V30 2889 H 306.174 4.23507 -0.390142 0
M  V30 2890 N 304.489 0.459591 1.5075 0
M  V30 2891 C 305.399 -0.34613 2.32033 0
M  V30 2892 C 306.415 -1.00686 1.41909 0
M  V30 2893 O 307.591 -0.997361 1.7497 0
M  V30 2894 C 304.656 -1.42029 3.16273 0
M  V30 2895 C 303.717 -0.777362 4.22203 0
M  V30 2896 C 302.95 -1.80034 5.02418 0
M  V30 2897 O 303.173 -3.02544 4.83553 0
M  V30 2898 O 302.107 -1.37853 5.85901 0
M  V30 2899 H 305.933 0.318054 3.0203 0
M  V30 2900 H 303.518 0.221663 1.47746 0
M  V30 2901 H 305.4 -2.04275 3.68578 0
M  V30 2902 H 304.075 -2.06815 2.49016 0
M  V30 2903 H 302.982 -0.116256 3.73919 0
M  V30 2904 H 304.315 -0.172634 4.91897 0
M  V30 2905 N 305.967 -1.56429 0.191757 0
M  V30 2906 C 306.897 -2.21937 -0.725696 0
M  V30 2907 C 307.878 -1.1814 -1.2238 0
M  V30 2908 O 309.063 -1.46636 -1.27325 0
M  V30 2909 C 306.193 -2.87611 -1.94672 0
M  V30 2910 C 305.147 -3.97623 -1.58366 0
M  V30 2911 C 304.473 -4.50446 -2.88102 0
M  V30 2912 C 305.773 -5.16197 -0.796133 0
M  V30 2913 H 307.467 -2.98861 -0.179606 0
M  V30 2914 H 305.013 -1.43749 -0.0849464 0
M  V30 2915 H 306.966 -3.3212 -2.59373 0
M  V30 2916 H 305.69 -2.08087 -2.51728 0
M  V30 2917 H 304.349 -3.53801 -0.960247 0
M  V30 2918 H 303.997 -3.67688 -3.43241 0
M  V30 2919 H 303.697 -5.24675 -2.64556 0
M  V30 2920 H 305.221 -4.97654 -3.53798 0
M  V30 2921 H 306.635 -5.57271 -1.34618 0
M  V30 2922 H 305.032 -5.96471 -0.658928 0
M  V30 2923 H 306.102 -4.84473 0.203478 0
M  V30 2924 N 307.445 0.0818655 -1.57387 0
M  V30 2925 C 308.393 1.11712 -2.04018 0
M  V30 2926 C 309.387 1.40683 -0.94364 0
M  V30 2927 O 310.593 1.40209 -1.12878 0
M  V30 2928 H 306.968 0.377542 -0.650358 0
M  V30 2929 H 308.939 0.697614 -2.90131 0
M  V30 2930 C 307.688 2.42537 -2.49141 0
M  V30 2931 H 307.011 2.21092 -3.33104 0
M  V30 2932 H 308.451 3.13446 -2.85531 0
M  V30 2933 C 306.91 3.0778 -1.37014 0
M  V30 2934 O 307.44 3.95436 -0.706621 0
M  V30 2935 N 305.646 2.68242 -1.11779 0
M  V30 2936 H 305.193 1.97052 -1.65917 0
M  V30 2937 H 305.151 3.1222 -0.369594 0
M  V30 2938 N 308.923 1.53595 0.353017 0
M  V30 2939 C 309.853 1.83902 1.43883 0
M  V30 2940 C 310.834 0.693421 1.55324 0
M  V30 2941 O 312.019 0.944452 1.69687 0
M  V30 2942 C 309.149 2.04016 2.8106 0
M  V30 2943 C 308.103 3.19814 2.84434 0
M  V30 2944 C 307.429 3.25244 4.24406 0
M  V30 2945 C 308.729 4.58133 2.50822 0
M  V30 2946 H 310.423 2.74835 1.1877 0
M  V30 2947 H 307.969 1.32242 0.569917 0
M  V30 2948 H 309.922 2.238 3.57059 0
M  V30 2949 H 308.646 1.09804 3.07588 0
M  V30 2950 H 307.305 2.9987 2.10887 0
M  V30 2951 H 306.953 2.28646 4.48029 0
M  V30 2952 H 306.653 4.03054 4.27576 0
M  V30 2953 H 308.177 3.47228 5.0226 0
M  V30 2954 H 309.591 4.77995 3.16534 0
M  V30 2955 H 307.988 5.38276 2.6529 0
M  V30 2956 H 309.058 4.62387 1.46034 0
M  V30 2957 N 310.401 -0.613514 1.45168 0
M  V30 2958 C 311.817 -0.933629 1.29443 0
M  V30 2959 C 312.017 -2.00028 0.243101 0
M  V30 2960 O 311.073 -2.49848 -0.364992 0
M  V30 2961 C 312.386 -1.38018 2.67155 0
M  V30 2962 C 313.934 -1.49471 2.75004 0
M  V30 2963 C 314.409 -1.97503 4.13227 0
M  V30 2964 N 315.9 -2.04746 4.15491 0
M  V30 2965 C 316.635 -2.43121 5.19307 0
M  V30 2966 N 316.131 -2.80506 6.33473 0
M  V30 2967 N 317.924 -2.43408 5.06664 0
M  V30 2968 H 310.075 0.0916097 2.12202 0
M  V30 2969 H 312.338 -0.0216655 0.947752 0
M  V30 2970 H 312.044 -0.670625 3.45247 0
M  V30 2971 H 311.918 -2.34784 2.95222 0
M  V30 2972 H 314.305 -2.19519 1.9722 0
M  V30 2973 H 314.386 -0.510342 2.50657 0
M  V30 2974 H 314.03 -1.28045 4.91495 0
M  V30 2975 H 313.96 -2.96843 4.34962 0
M  V30 2976 H 316.451 -1.78468 3.33103 0
M  V30 2977 H 316.764 -3.08652 7.08487 0
M  V30 2978 H 315.109 -2.78216 6.36884 0
M  V30 2979 H 318.3 -2.13604 4.16523 0
M  V30 2980 H 318.473 -2.72989 5.87691 0
M  V30 2981 N 311.879 -1.3236 -0.855495 0
M  V30 2982 C 312.812 -1.15559 -1.96777 0
M  V30 2983 C 313.79 -0.0552681 -1.62506 0
M  V30 2984 O 314.974 -0.214419 -1.87277 0
M  V30 2985 C 312.101 -0.768851 -3.29858 0
M  V30 2986 C 311.147 -1.87429 -3.83109 0
M  V30 2987 S 311.98 -3.48243 -4.06801 0
M  V30 2988 C 313.136 -3.11539 -5.42858 0
M  V30 2989 H 313.369 -2.09717 -2.10727 0
M  V30 2990 H 310.902 -1.17011 -1.00737 0
M  V30 2991 H 312.86 -0.55248 -4.06765 0
M  V30 2992 H 311.521 0.153857 -3.13723 0
M  V30 2993 H 310.714 -1.55667 -4.79358 0
M  V30 2994 H 310.316 -2.04647 -3.13042 0
M  V30 2995 H 312.608 -2.61331 -6.2507 0
M  V30 2996 H 313.551 -4.06806 -5.79582 0
M  V30 2997 H 313.959 -2.48582 -5.06821 0
M  V30 2998 N 313.357 1.07166 -1.15556 0
M  V30 2999 C 314.582 1.84053 -0.955988 0
M  V30 3000 C 315.007 1.81586 0.490739 0
M  V30 3001 O 314.365 1.21018 1.34997 0
M  V30 3002 C 314.413 3.28957 -1.47714 0
M  V30 3003 O 313.517 4.06795 -0.677593 0
M  V30 3004 H 312.858 0.569842 -0.340847 0
M  V30 3005 H 315.388 1.35178 -1.53584 0
M  V30 3006 H 315.398 3.79788 -1.4908 0
M  V30 3007 H 314.073 3.30068 -2.53037 0
M  V30 3008 H 312.65 3.6561 -0.733721 0
M  V30 3009 N 314.835 0.952656 1.25548 0
M  V30 3010 C 316.081 0.607272 1.93494 0
M  V30 3011 C 316.414 -0.853245 1.74452 0
M  V30 3012 O 315.689 -1.61194 1.08843 0
M  V30 3013 C 315.972 0.96435 3.46947 0
M  V30 3014 C 315.825 2.48045 3.75225 0
M  V30 3015 C 317.144 0.487987 4.37386 0
M  V30 3016 H 314.263 0.222096 0.702739 0
M  V30 3017 H 316.905 1.18895 1.48203 0
M  V30 3018 H 315.055 0.469361 3.85654 0
M  V30 3019 H 316.727 3.04905 3.46166 0
M  V30 3020 H 314.97 2.919 3.209 0
M  V30 3021 H 315.641 2.6808 4.82532 0
M  V30 3022 H 318.117 0.912558 4.0597 0
M  V30 3023 H 316.993 0.766547 5.43521 0
M  V30 3024 H 317.254 -0.612063 4.37843 0
M  V30 3025 N 316.313 -1.40141 0.720998 0
M  V30 3026 C 317.223 -2.34486 0.0731031 0
M  V30 3027 C 318.239 -1.57587 -0.737723 0
M  V30 3028 O 319.415 -1.89949 -0.669429 0
M  V30 3029 C 316.48 -3.36528 -0.833656 0
M  V30 3030 C 315.541 -4.29298 -0.0121673 0
M  V30 3031 C 314.774 -5.26466 -0.875742 0
M  V30 3032 O 314.997 -5.29745 -2.11485 0
M  V30 3033 O 313.931 -6.01092 -0.31185 0
M  V30 3034 H 317.757 -2.9152 0.851444 0
M  V30 3035 H 315.342 -1.41427 0.481527 0
M  V30 3036 H 317.224 -3.99093 -1.35289 0
M  V30 3037 H 315.899 -2.81899 -1.59105 0
M  V30 3038 H 314.806 -3.70001 0.552262 0
M  V30 3039 H 316.139 -4.87094 0.707129 0
M  V30 3040 N 317.792 -0.46758 -1.50504 0
M  V30 3041 C 318.755 0.317059 -2.26996 0
M  V30 3042 C 319.755 0.923513 -1.31635 0
M  V30 3043 O 320.945 0.793239 -1.55091 0
M  V30 3044 C 318.077 1.45134 -3.08462 0
M  V30 3045 H 319.27 -0.353723 -2.97807 0
M  V30 3046 H 316.823 -0.221545 -1.54722 0
M  V30 3047 H 317.558 2.15728 -2.4214 0
M  V30 3048 H 317.343 1.02232 -3.78538 0
M  V30 3049 H 318.833 2.00493 -3.66323 0
M  V30 3050 N 319.27 1.56325 -0.20005 0
M  V30 3051 C 320.547 1.89484 0.48529 0
M  V30 3052 C 320.927 1.1143 1.79294 0
M  V30 3053 O 320.275 0.216919 2.27468 0
M  V30 3054 C 320.485 3.41923 0.699243 0
M  V30 3055 C 321.833 4.12256 1.01638 0
M  V30 3056 O 322.857 3.47402 0.786792 0
M  V30 3057 O 321.716 5.26887 1.45095 0
M  V30 3058 H 318.81 0.787144 0.253639 0
M  V30 3059 H 321.356 1.67985 -0.240633 0
M  V30 3060 H 320.128 3.90658 -0.224008 0
M  V30 3061 H 319.751 3.69131 1.47744 0
M  V30 3062 N 320.748 -0.0735177 1.57428 0
M  V30 3063 C 321.997 -0.771809 1.86349 0
M  V30 3064 C 322.31 -1.78828 0.792452 0
M  V30 3065 O 323.516 -2.53602 0.96945 0
M  V30 3066 C 321.972 -1.42358 3.30548 0
M  V30 3067 C 321.58 -0.445761 4.45777 0
M  V30 3068 C 323.324 -2.10434 3.6867 0
M  V30 3069 C 321.231 -1.10335 5.81016 0
M  V30 3070 H 320.161 -0.291999 0.695164 0
M  V30 3071 H 322.812 -0.0250749 1.83483 0
M  V30 3072 H 321.194 -2.21852 3.28021 0
M  V30 3073 H 322.368 0.319239 4.59693 0
M  V30 3074 H 320.683 0.130457 4.16196 0
M  V30 3075 H 323.28 -2.60405 4.67004 0
M  V30 3076 H 323.623 -2.90298 2.98383 0
M  V30 3077 H 324.156 -1.37773 3.7318 0
M  V30 3078 H 320.895 -0.345061 6.54591 0
M  V30 3079 H 320.415 -1.83925 5.70904 0
M  V30 3080 H 322.094 -1.62367 6.26295 0
M  V30 3081 N 322.226 -1.5378 -0.344866 0
M  V30 3082 C 323.174 -1.82373 -1.4437 0
M  V30 3083 C 324.168 -0.694128 -1.54526 0
M  V30 3084 O 325.374 -0.877442 -1.57165 0
M  V30 3085 H 321.749 -0.577765 -0.481344 0
M  V30 3086 H 323.72 -2.74306 -1.17468 0
M  V30 3087 C 322.469 -2.04898 -2.80913 0
M  V30 3088 H 321.792 -2.9127 -2.73865 0
M  V30 3089 H 323.232 -2.28871 -3.56923 0
M  V30 3090 C 321.691 -0.834116 -3.26411 0
M  V30 3091 O 322.221 -0.0328885 -4.01687 0
M  V30 3092 N 320.427 -0.65171 -2.83198 0
M  V30 3093 H 319.974 -1.30489 -2.22104 0
M  V30 3094 H 319.932 0.159686 -3.13994 0
M  V30 3095 N 323.704 0.605807 -1.45491 0
M  V30 3096 C 324.952 1.36207 -1.49305 0
M  V30 3097 C 325.273 1.94519 -0.136863 0
M  V30 3098 O 324.543 1.77261 0.833983 0
M  V30 3099 H 323.123 0.50565 -0.549843 0
M  V30 3100 H 325.785 0.711239 -1.81459 0
M  V30 3101 H 324.881 2.18058 -2.23287 0
M  V30 3102 N 325.182 1.32811 0.848464 0
M  V30 3103 C 326.112 1.24882 1.97299 0
M  V30 3104 C 327.093 0.131357 1.69592 0
M  V30 3105 O 328.278 0.319553 1.91553 0
M  V30 3106 C 325.408 0.97746 3.33261 0
M  V30 3107 C 324.362 2.05682 3.75338 0
M  V30 3108 C 323.688 1.63777 5.09 0
M  V30 3109 C 324.988 3.47254 3.90144 0
M  V30 3110 H 326.682 2.18966 2.04191 0
M  V30 3111 H 324.228 1.05413 0.981029 0
M  V30 3112 H 326.181 0.908513 4.1149 0
M  V30 3113 H 324.905 0.000980011 3.266 0
M  V30 3114 H 323.564 2.11603 2.99366 0
M  V30 3115 H 323.212 0.648569 4.98801 0
M  V30 3116 H 322.912 2.36 5.38124 0
M  V30 3117 H 324.436 1.5833 5.89715 0
M  V30 3118 H 325.85 3.43888 4.58709 0
M  V30 3119 H 324.247 4.1788 4.30693 0
M  V30 3120 H 325.317 3.86462 2.92874 0
M  V30 3121 N 326.66 -1.06551 1.16123 0
M  V30 3122 C 328.076 -1.3142 0.905585 0
M  V30 3123 C 328.276 -1.96571 -0.442964 0
M  V30 3124 O 327.332 -2.23068 -1.18308 0
M  V30 3125 C 328.645 -2.19741 2.05267 0
M  V30 3126 C 330.193 -2.33165 2.08813 0
M  V30 3127 C 330.668 -3.24838 3.22868 0
M  V30 3128 N 332.159 -3.32421 3.22568 0
M  V30 3129 C 332.894 -4.0344 4.0746 0
M  V30 3130 N 332.39 -4.77003 5.02434 0
M  V30 3131 N 334.183 -3.99464 3.95456 0
M  V30 3132 H 326.334 -0.626548 2.02949 0
M  V30 3133 H 328.597 -0.338777 0.8854 0
M  V30 3134 H 328.303 -1.79142 3.02657 0
M  V30 3135 H 328.177 -3.20313 1.99198 0
M  V30 3136 H 330.564 -2.73013 1.12018 0
M  V30 3137 H 330.645 -1.3227 2.18948 0
M  V30 3138 H 330.289 -2.85708 4.19921 0
M  V30 3139 H 330.219 -4.25707 3.0997 0
M  V30 3140 H 332.71 -2.79994 2.53795 0
M  V30 3141 H 333.023 -5.28712 5.63634 0
M  V30 3142 H 331.368 -4.75992 5.06415 0
M  V30 3143 H 334.559 -3.4111 3.20564 0
M  V30 3144 H 334.732 -4.54544 4.61837 0
M  V30 3145 N 328.138 -0.959301 -1.25041 0
M  V30 3146 C 329.554 -0.664474 -1.4511 0
M  V30 3147 C 329.754 0.776481 -1.85938 0
M  V30 3148 O 328.81 1.55128 -1.99227 0
M  V30 3149 C 330.123 -1.64139 -2.5195 0
M  V30 3150 C 331.671 -1.65309 -2.65786 0
M  V30 3151 C 332.146 -2.61777 -3.75815 0
M  V30 3152 N 333.637 -2.60169 -3.83231 0
M  V30 3153 C 334.372 -3.31489 -4.6787 0
M  V30 3154 N 333.868 -4.12298 -5.56761 0
M  V30 3155 N 335.661 -3.20354 -4.61876 0
M  V30 3156 H 327.812 -1.89043 -0.968332 0
M  V30 3157 H 330.075 -0.813408 -0.4869 0
M  V30 3158 H 329.781 -2.67086 -2.28819 0
M  V30 3159 H 329.655 -1.40756 -3.49954 0
M  V30 3160 H 332.042 -0.630778 -2.8828 0
M  V30 3161 H 332.123 -1.92753 -1.68167 0
M  V30 3162 H 331.767 -3.64137 -3.54071 0
M  V30 3163 H 331.697 -2.31616 -4.72929 0
M  V30 3164 H 334.188 -2.01507 -3.19692 0
M  V30 3165 H 334.501 -4.63625 -6.18281 0
M  V30 3166 H 332.846 -4.16395 -5.56454 0
M  V30 3167 H 336.037 -2.56692 -3.91442 0
M  V30 3168 H 336.21 -3.76201 -5.27614 0
M  V30 3169 N 329.616 1.39756 -0.72842 0
M  V30 3170 C 330.862 2.00942 -0.273892 0
M  V30 3171 C 331.195 1.57656 1.13394 0
M  V30 3172 O 330.47 0.802434 1.77176 0
M  V30 3173 C 330.753 3.58211 -0.368346 0
M  V30 3174 C 330.606 4.11534 -1.81548 0
M  V30 3175 C 331.925 4.39372 0.253054 0
M  V30 3176 H 329.044 0.730047 -0.100996 0
M  V30 3177 H 331.686 1.66056 -0.923337 0
M  V30 3178 H 329.836 3.88061 0.184588 0
M  V30 3179 H 331.508 3.92431 -2.42478 0
M  V30 3180 H 329.751 3.65341 -2.33898 0
M  V30 3181 H 330.422 5.20682 -1.83288 0
M  V30 3182 H 332.898 4.15527 -0.218224 0
M  V30 3183 H 331.774 5.48677 0.156585 0
M  V30 3184 H 332.035 4.21358 1.33826 0
M  V30 3185 N 331.094 0.475555 1.50254 0
M  V30 3186 C 332.024 -0.30611 2.31485 0
M  V30 3187 C 333.005 -0.986228 1.38591 0
M  V30 3188 O 334.19 -0.982541 1.67511 0
M  V30 3189 C 331.32 -1.38588 3.1845 0
M  V30 3190 C 330.274 -0.827115 4.19932 0
M  V30 3191 C 329.6 -2.00551 4.95665 0
M  V30 3192 C 330.9 0.16463 5.2204 0
M  V30 3193 H 332.594 0.371866 2.97082 0
M  V30 3194 H 330.14 0.180282 1.42867 0
M  V30 3195 H 332.093 -1.94023 3.74076 0
M  V30 3196 H 330.817 -2.09269 2.50747 0
M  V30 3197 H 329.476 -0.294702 3.65414 0
M  V30 3198 H 329.124 -2.6994 4.2443 0
M  V30 3199 H 328.824 -1.63784 5.64313 0
M  V30 3200 H 330.348 -2.56468 5.54127 0
M  V30 3201 H 331.762 -0.300699 5.72511 0
M  V30 3202 H 330.159 0.446813 5.98434 0
M  V30 3203 H 331.229 1.08905 4.72512 0
M  V30 3204 N 332.573 -1.56217 0.208337 0
M  V30 3205 C 333.85 -1.89739 -0.475234 0
M  V30 3206 C 334.23 -1.1238 -1.78701 0
M  V30 3207 O 333.578 -0.228979 -2.2735 0
M  V30 3208 C 333.788 -3.42289 -0.681101 0
M  V30 3209 C 335.136 -4.12789 -0.994507 0
M  V30 3210 O 336.16 -3.47814 -0.768357 0
M  V30 3211 O 335.019 -5.27649 -1.42299 0
M  V30 3212 H 332.113 -0.788478 -0.249461 0
M  V30 3213 H 334.659 -1.67855 0.249538 0
M  V30 3214 H 333.431 -3.90534 0.244722 0
M  V30 3215 H 333.054 -3.69909 -1.45785 0
M  V30 3216 N 334.051 0.0651679 -1.57465 0
M  V30 3217 C 334.961 1.09448 -2.07505 0
M  V30 3218 C 335.977 1.41974 -1.00595 0
M  V30 3219 O 337.153 1.52018 -1.32107 0
M  V30 3220 C 334.218 2.38689 -2.51453 0
M  V30 3221 C 333.279 2.13073 -3.72691 0
M  V30 3222 C 332.512 3.36152 -4.14533 0
M  V30 3223 O 332.735 4.45517 -3.56189 0
M  V30 3224 O 331.669 3.23974 -5.07272 0
M  V30 3225 H 335.495 0.69935 -2.95538 0
M  V30 3226 H 333.08 0.279752 -1.46757 0
M  V30 3227 H 334.962 3.14736 -2.80212 0
M  V30 3228 H 333.637 2.77568 -1.66546 0
M  V30 3229 H 332.544 1.34709 -3.49005 0
M  V30 3230 H 333.877 1.79071 -4.5847 0
M  V30 3231 N 335.529 1.53961 0.336706 0
M  V30 3232 C 336.459 1.85417 1.41925 0
M  V30 3233 C 337.44 0.709856 1.5458 0
M  V30 3234 O 338.625 0.962396 1.68676 0
M  V30 3235 C 335.755 2.06985 2.78881 0
M  V30 3236 C 334.709 3.22813 2.81026 0
M  V30 3237 C 334.035 3.29727 4.20932 0
M  V30 3238 C 335.335 4.60767 2.45949 0
M  V30 3239 H 337.029 2.76079 1.15848 0
M  V30 3240 H 334.575 1.32839 0.555859 0
M  V30 3241 H 336.528 2.27575 3.54665 0
M  V30 3242 H 335.252 1.13061 3.06406 0
M  V30 3243 H 333.911 3.0209 2.07695 0
M  V30 3244 H 333.559 2.33385 4.45579 0
M  V30 3245 H 333.259 4.07566 4.23277 0
M  V30 3246 H 334.783 3.52536 4.98549 0
M  V30 3247 H 336.197 4.81325 3.11446 0
M  V30 3248 H 334.594 5.4106 2.59566 0
M  V30 3249 H 335.664 4.6391 1.41122 0
M  V30 3250 N 337.007 -0.598083 1.45811 0
M  V30 3251 C 338.235 -1.38322 1.53866 0
M  V30 3252 C 338.65 -1.87992 0.174479 0
M  V30 3253 O 338.007 -1.62756 -0.825627 0
M  V30 3254 C 338.058 -2.58125 2.53089 0
M  V30 3255 O 337.779 -2.10516 3.84206 0
M  V30 3256 C 339.28 -3.50869 2.70935 0
M  V30 3257 H 336.5 -0.423093 0.520801 0
M  V30 3258 H 339.044 -0.728527 1.91083 0
M  V30 3259 H 337.199 -3.19615 2.18917 0
M  V30 3260 H 337.613 -2.88425 4.38077 0
M  V30 3261 H 339.087 -4.31451 3.44317 0
M  V30 3262 H 339.564 -4.01822 1.77301 0
M  V30 3263 H 340.17 -2.95225 3.06141 0
M  V30 3264 N 338.485 -1.33259 -0.841409 0
M  V30 3265 C 339.415 -1.25926 -1.96634 0
M  V30 3266 C 340.396 -0.140349 -1.6952 0
M  V30 3267 O 341.581 -0.329707 -1.91381 0
M  V30 3268 C 338.711 -0.99512 -3.32738 0
M  V30 3269 C 337.665 -2.0767 -3.74242 0
M  V30 3270 C 336.991 -1.66474 -5.08125 0
M  V30 3271 C 338.291 -3.49318 -3.88297 0
M  V30 3272 H 339.985 -2.20046 -2.03027 0
M  V30 3273 H 337.531 -1.05931 -0.975425 0
M  V30 3274 H 339.484 -0.930323 -4.11002 0
M  V30 3275 H 338.208 -0.0183004 -3.26595 0
M  V30 3276 H 336.867 -2.13187 -2.98239 0
M  V30 3277 H 336.515 -0.675012 -4.9845 0
M  V30 3278 H 336.215 -2.3885 -5.36865 0
M  V30 3279 H 337.739 -1.61455 -5.88867 0
M  V30 3280 H 339.153 -3.46316 -4.56879 0
M  V30 3281 H 337.55 -4.20158 -4.28471 0
M  V30 3282 H 338.62 -3.8801 -2.9082 0
M  V30 3283 N 339.963 1.05934 -1.16686 0
M  V30 3284 C 340.926 2.11669 -0.879144 0
M  V30 3285 C 341.926 1.60294 0.127445 0
M  V30 3286 O 343.116 1.7389 -0.103865 0
M  V30 3287 C 340.248 3.39438 -0.315425 0
M  V30 3288 H 341.441 2.38626 -1.81653 0
M  V30 3289 H 338.994 1.22058 -0.976299 0
M  V30 3290 H 339.729 3.18132 0.629468 0
M  V30 3291 H 339.514 3.78034 -1.04079 0
M  V30 3292 H 341.004 4.17391 -0.132189 0
M  V30 3293 N 341.441 0.965919 1.2453 0
M  V30 3294 C 342.857 0.67216 1.44756 0
M  V30 3295 C 343.057 -0.766609 1.86347 0
M  V30 3296 O 342.113 -1.5407 2.00047 0
M  V30 3297 C 343.426 1.65473 2.51076 0
M  V30 3298 C 344.974 1.66716 2.64905 0
M  V30 3299 C 345.449 2.63766 3.74421 0
M  V30 3300 N 346.94 2.62198 3.81846 0
M  V30 3301 C 347.675 3.33966 4.66106 0
M  V30 3302 N 347.171 4.15245 5.54566 0
M  V30 3303 N 348.964 3.22799 4.60171 0
M  V30 3304 H 341.115 1.89553 0.958293 0
M  V30 3305 H 343.378 0.815979 0.482579 0
M  V30 3306 H 343.084 2.68296 2.27399 0
M  V30 3307 H 342.958 1.4261 3.49202 0
M  V30 3308 H 345.345 0.646057 2.87941 0
M  V30 3309 H 345.426 1.93642 1.67142 0
M  V30 3310 H 345.07 3.6601 3.52135 0
M  V30 3311 H 345 2.34121 4.71694 0
M  V30 3312 H 347.491 2.032 3.18619 0
M  V30 3313 H 347.804 4.66898 6.15814 0
M  V30 3314 H 346.149 4.1934 5.54237 0
M  V30 3315 H 349.34 2.58764 3.90075 0
M  V30 3316 H 349.513 3.78994 5.25612 0
M  V30 3317 N 342.919 -1.39368 0.735821 0
M  V30 3318 C 343.882 -2.2896 0.104874 0
M  V30 3319 C 344.882 -1.46347 -0.666274 0
M  V30 3320 O 346.072 -1.67014 -0.49517 0
M  V30 3321 C 343.204 -3.29857 -0.860656 0
M  V30 3322 H 344.397 -2.86259 0.894205 0
M  V30 3323 H 341.95 -1.48029 0.501704 0
M  V30 3324 H 342.685 -2.77615 -1.67631 0
M  V30 3325 H 342.47 -3.9087 -0.310327 0
M  V30 3326 H 343.96 -3.96893 -1.29867 0
M  V30 3327 N 344.397 -0.483516 -1.5 0
M  V30 3328 C 345.674 0.129337 -1.95172 0
M  V30 3329 C 346.054 1.55802 -1.4244 0
M  V30 3330 O 345.402 2.19625 -0.630649 0
M  V30 3331 C 345.612 0.0599251 -3.48949 0
M  V30 3332 C 346.96 0.242617 -4.23906 0
M  V30 3333 O 347.984 0.135933 -3.55941 0
M  V30 3334 O 346.843 0.459454 -5.44565 0
M  V30 3335 H 343.937 0.104887 -0.820322 0
M  V30 3336 H 346.483 -0.544807 -1.60717 0
M  V30 3337 H 345.255 -0.937079 -3.79914 0
M  V30 3338 H 344.878 0.774984 -3.89974 0
M  V30 3339 N 345.875 1.56104 -0.216619 0
M  V30 3340 C 346.805 2.23063 0.690296 0
M  V30 3341 C 347.786 1.20072 1.20485 0
M  V30 3342 O 348.971 1.48643 1.24976 0
M  V30 3343 C 346.101 2.90672 1.90072 0
M  V30 3344 C 345.055 4.00092 1.5202 0
M  V30 3345 C 344.381 4.54972 2.80899 0
M  V30 3346 C 345.681 5.17398 0.71391 0
M  V30 3347 H 347.375 2.99109 0.132038 0
M  V30 3348 H 344.921 1.43866 0.0620664 0
M  V30 3349 H 346.874 3.36204 2.54057 0
M  V30 3350 H 345.598 2.12066 2.48386 0
M  V30 3351 H 344.257 3.55283 0.903839 0
M  V30 3352 H 343.905 3.73102 3.37348 0
M  V30 3353 H 343.605 5.28817 2.56176 0
M  V30 3354 H 345.129 5.0322 3.45836 0
M  V30 3355 H 346.543 5.59342 1.25735 0
M  V30 3356 H 344.94 5.97444 0.563951 0
M  V30 3357 H 346.01 4.84088 -0.280527 0
M  V30 3358 N 347.353 -0.0568162 1.57498 0
M  V30 3359 C 348.263 -1.08346 2.08083 0
M  V30 3360 C 349.279 -1.41439 1.01346 0
M  V30 3361 O 350.455 -1.51316 1.32912 0
M  V30 3362 C 347.52 -2.37352 2.52715 0
M  V30 3363 C 346.581 -2.11093 3.73816 0
M  V30 3364 C 345.814 -3.33949 4.1631 0
M  V30 3365 O 346.037 -4.43622 3.58547 0
M  V30 3366 O 344.971 -3.21279 5.08983 0
M  V30 3367 H 348.797 -0.683667 2.95905 0
M  V30 3368 H 346.382 -0.271965 1.46904 0
M  V30 3369 H 348.264 -3.13246 2.81877 0
M  V30 3370 H 346.939 -2.76681 1.68016 0
M  V30 3371 H 345.846 -1.32856 3.49714 0
M  V30 3372 H 347.179 -1.76637 4.59413 0
M  V30 3373 N 348.832 -1.54138 -0.328536 0
M  V30 3374 C 349.765 -1.78014 -1.4278 0
M  V30 3375 C 350.743 -0.629889 -1.49904 0
M  V30 3376 O 351.927 -0.866763 -1.6739 0
M  V30 3377 C 349.054 -1.89225 -2.80912 0
M  V30 3378 C 348.1 -3.11483 -2.91343 0
M  V30 3379 S 348.933 -4.70201 -2.56263 0
M  V30 3380 C 350.089 -4.84312 -3.96476 0
M  V30 3381 H 350.322 -2.70974 -1.22313 0
M  V30 3382 H 347.855 -1.45197 -0.525084 0
M  V30 3383 H 349.813 -1.9637 -3.60485 0
M  V30 3384 H 348.474 -0.972518 -2.98665 0
M  V30 3385 H 347.667 -3.16046 -3.92595 0
M  V30 3386 H 347.269 -3.02642 -2.19736 0
M  V30 3387 H 349.561 -4.66643 -4.91173 0
M  V30 3388 H 350.504 -5.86411 -3.96898 0
M  V30 3389 H 350.912 -4.12652 -3.85199 0
M  V30 3390 N 350.31 0.590341 -1.46126 0
M  V30 3391 C 351.242 1.71427 -1.52136 0
M  V30 3392 C 352.255 1.57542 -0.41042 0
M  V30 3393 O 353.444 1.65106 -0.678389 0
M  V30 3394 C 350.544 3.09605 -1.37834 0
M  V30 3395 C 349.717 3.49566 -2.62912 0
M  V30 3396 C 348.776 4.66773 -2.42918 0
M  V30 3397 O 347.802 4.73019 -3.1661 0
M  V30 3398 N 349.004 5.61161 -1.4859 0
M  V30 3399 H 351.769 1.66728 -2.49042 0
M  V30 3400 H 349.33 0.776113 -1.42085 0
M  V30 3401 H 351.322 3.85796 -1.22243 0
M  V30 3402 H 349.892 3.08714 -0.491393 0
M  V30 3403 H 349.112 2.63158 -2.93499 0
M  V30 3404 H 350.4 3.73028 -3.46017 0
M  V30 3405 H 349.798 5.58844 -0.87808 0
M  V30 3406 H 348.355 6.36814 -1.38965 0
M  V30 3407 N 351.788 1.33704 0.83433 0
M  V30 3408 C 353.037 1.24763 1.58484 0
M  V30 3409 C 353.35 -0.183775 1.94735 0
M  V30 3410 O 354.556 -0.395234 2.68608 0
M  V30 3411 C 353.012 2.18638 2.85876 0
M  V30 3412 C 352.62 3.66974 2.56971 0
M  V30 3413 C 354.364 2.18581 3.63899 0
M  V30 3414 C 352.271 4.5275 3.80488 0
M  V30 3415 H 351.201 0.463425 0.594772 0
M  V30 3416 H 353.852 1.58797 0.919551 0
M  V30 3417 H 352.234 1.77542 3.5397 0
M  V30 3418 H 353.408 4.16538 1.9706 0
M  V30 3419 H 351.723 3.69366 1.92244 0
M  V30 3420 H 354.32 2.79894 4.55591 0
M  V30 3421 H 354.663 1.18207 3.99165 0
M  V30 3422 H 355.196 2.58062 3.02735 0
M  V30 3423 H 351.935 5.54017 3.5035 0
M  V30 3424 H 351.455 4.07927 4.39722 0
M  V30 3425 H 353.134 4.66784 4.4802 0
M  V30 3426 N 353.266 -1.05314 1.17247 0
M  V30 3427 C 354.176 -2.16538 0.90268 0
M  V30 3428 C 355.192 -1.73523 -0.128707 0
M  V30 3429 O 356.368 -2.01337 0.0502701 0
M  V30 3430 C 353.433 -3.44167 0.418356 0
M  V30 3431 C 352.494 -4.01635 1.51618 0
M  V30 3432 C 351.727 -5.23171 1.05487 0
M  V30 3433 O 351.95 -5.70327 -0.0914715 0
M  V30 3434 O 350.884 -5.72848 1.8474 0
M  V30 3435 H 354.71 -2.42145 1.83302 0
M  V30 3436 H 352.295 -1.15037 0.953246 0
M  V30 3437 H 354.177 -4.21112 0.155726 0
M  V30 3438 H 352.852 -3.20063 -0.48385 0
M  V30 3439 H 351.759 -3.26135 1.83268 0
M  V30 3440 H 353.092 -4.30053 2.39405 0
M  V30 3441 N 354.744 -0.972509 -1.24016 0
M  V30 3442 C 355.969 -0.654417 -1.96805 0
M  V30 3443 C 356.394 0.770398 -1.716 0
M  V30 3444 O 355.752 1.52361 -0.982647 0
M  V30 3445 C 355.8 -0.941031 -3.48105 0
M  V30 3446 O 354.904 -0.0289472 -4.1239 0
M  V30 3447 H 354.245 -0.24692 -0.616382 0
M  V30 3448 H 356.775 -1.30396 -1.57664 0
M  V30 3449 H 356.785 -0.87452 -3.98517 0
M  V30 3450 H 355.46 -1.97939 -3.65777 0
M  V30 3451 H 354.037 -0.149192 -3.72601 0
M  V30 3452 N 356.222 1.38976 -0.743202 0
M  V30 3453 C 357.152 2.33171 -0.123873 0
M  V30 3454 C 358.133 1.54336 0.71516 0
M  V30 3455 O 359.318 1.82696 0.658467 0
M  V30 3456 C 356.448 3.38474 0.777978 0
M  V30 3457 C 355.402 4.27979 0.0424758 0
M  V30 3458 C 354.728 5.2405 1.06189 0
M  V30 3459 C 356.028 5.10155 -1.1198 0
M  V30 3460 H 357.722 2.85213 -0.910709 0
M  V30 3461 H 355.268 1.37133 -0.439388 0
M  V30 3462 H 357.221 4.03328 1.22084 0
M  V30 3463 H 355.945 2.84891 1.59702 0
M  V30 3464 H 354.604 3.64616 -0.380853 0
M  V30 3465 H 354.252 4.66758 1.87472 0
M  V30 3466 H 353.952 5.84785 0.574485 0
M  V30 3467 H 355.476 5.9178 1.50428 0
M  V30 3468 H 356.89 5.68307 -0.75499 0
M  V30 3469 H 355.287 5.80073 -1.53738 0
M  V30 3470 H 356.357 4.44504 -1.93764 0
M  V30 3471 N 357.7 0.491464 1.49741 0
M  V30 3472 C 358.647 -0.292027 2.28945 0
M  V30 3473 C 359.617 -0.968973 1.34908 0
M  V30 3474 O 360.802 -0.97748 1.6386 0
M  V30 3475 C 357.942 -1.35617 3.17336 0
M  V30 3476 C 357.055 -0.691957 4.26422 0
M  V30 3477 C 356.19 -1.73572 5.02042 0
M  V30 3478 C 355.229 -1.05286 6.02977 0
M  V30 3479 N 354.366 -2.0404 6.71798 0
M  V30 3480 H 359.206 0.389654 2.95442 0
M  V30 3481 H 356.743 0.204003 1.45679 0
M  V30 3482 H 358.701 -1.98502 3.66951 0
M  V30 3483 H 357.331 -2.00674 2.52844 0
M  V30 3484 H 356.383 0.0499523 3.80367 0
M  V30 3485 H 357.695 -0.153946 4.98562 0
M  V30 3486 H 356.849 -2.43987 5.55478 0
M  V30 3487 H 355.588 -2.30757 4.29654 0
M  V30 3488 H 354.593 -0.334446 5.48782 0
M  V30 3489 H 355.818 -0.487636 6.77347 0
M  V30 3490 H 353.764 -2.60205 6.02187 0
M  V30 3491 H 353.681 -1.55279 7.39881 0
M  V30 3492 H 354.949 -2.73772 7.29842 0
M  V30 3493 N 359.178 -1.55987 0.224894 0
M  V30 3494 C 360.088 -2.24066 -0.69511 0
M  V30 3495 C 361.104 -1.24939 -1.21104 0
M  V30 3496 O 362.28 -1.5776 -1.25195 0
M  V30 3497 C 359.345 -2.90983 -1.88493 0
M  V30 3498 C 358.406 -4.05462 -1.41064 0
M  V30 3499 C 357.639 -4.69179 -2.54375 0
M  V30 3500 O 357.862 -4.31895 -3.72589 0
M  V30 3501 O 356.796 -5.58108 -2.25386 0
M  V30 3502 H 360.622 -3.03353 -0.145149 0
M  V30 3503 H 358.207 -1.49399 -0.00569476 0
M  V30 3504 H 360.089 -3.33209 -2.57972 0
M  V30 3505 H 358.764 -2.14653 -2.42293 0
M  V30 3506 H 357.671 -3.67798 -0.683774 0
M  V30 3507 H 359.004 -4.83545 -0.918985 0
M  V30 3508 N 360.656 0.0484629 -1.57525 0
M  V30 3509 C 361.566 1.07241 -2.08654 0
M  V30 3510 C 362.582 1.409 -1.02095 0
M  V30 3511 O 363.758 1.50609 -1.33712 0
M  V30 3512 C 360.823 2.36008 -2.5397 0
M  V30 3513 C 359.884 2.09108 -3.7493 0
M  V30 3514 C 359.117 3.31736 -4.18075 0
M  V30 3515 O 359.34 4.41714 -3.60895 0
M  V30 3516 O 358.274 3.18576 -5.10679 0
M  V30 3517 H 362.1 0.667965 -2.96263 0
M  V30 3518 H 359.685 0.26417 -1.47046 0
M  V30 3519 H 361.567 3.11747 -2.83535 0
M  V30 3520 H 360.242 2.75786 -1.69481 0
M  V30 3521 H 359.149 1.31 -3.50414 0
M  V30 3522 H 360.482 1.74198 -4.60343 0
M  V30 3523 N 362.134 1.5431 0.320358 0
M  V30 3524 C 363.064 1.86912 1.3995 0
M  V30 3525 C 364.045 0.726211 1.53819 0
M  V30 3526 O 365.23 0.980233 1.67646 0
M  V30 3527 C 362.36 2.09932 2.7667 0
M  V30 3528 C 361.314 3.25776 2.77586 0
M  V30 3529 C 360.64 3.34173 4.17412 0
M  V30 3530 C 361.94 4.6335 2.41048 0
M  V30 3531 H 363.634 2.77292 1.12914 0
M  V30 3532 H 361.18 1.33421 0.541738 0
M  V30 3533 H 363.133 2.31324 3.52232 0
M  V30 3534 H 361.857 1.16304 3.0519 0
M  V30 3535 H 360.516 3.04276 2.04479 0
M  V30 3536 H 360.164 2.38098 4.43078 0
M  V30 3537 H 359.864 4.12033 4.18931 0
M  V30 3538 H 361.388 3.57803 4.94782 0
M  V30 3539 H 362.802 4.84602 3.06324 0
M  V30 3540 H 361.199 5.43782 2.53813 0
M  V30 3541 H 362.269 4.65381 1.36193 0
M  V30 3542 N 363.613 -0.582584 1.46437 0
M  V30 3543 C 364.576 -1.67366 1.56592 0
M  V30 3544 C 365.576 -1.54575 0.443072 0
M  V30 3545 O 366.766 -1.59191 0.707381 0
M  V30 3546 C 363.898 -3.06791 1.48634 0
M  V30 3547 H 365.091 -1.5972 2.5383 0
M  V30 3548 H 362.644 -0.800432 1.34249 0
M  V30 3549 H 363.379 -3.19993 0.526763 0
M  V30 3550 H 363.164 -3.17484 2.30101 0
M  V30 3551 H 364.654 -3.86218 1.58826 0
M  V30 3552 N 365.091 -1.34144 -0.827227 0
M  V30 3553 C 366.321 -1.29138 -1.61267 0
M  V30 3554 C 366.729 0.137597 -1.88699 0
M  V30 3555 O 366.072 1.09379 -1.47587 0
M  V30 3556 C 366.134 -2.0097 -2.9808 0
M  V30 3557 C 365.798 -3.50242 -2.93563 0
M  V30 3558 C 366.795 -4.4523 -2.68452 0
M  V30 3559 C 364.48 -3.92592 -3.13331 0
M  V30 3560 C 366.474 -5.80542 -2.63154 0
M  V30 3561 C 364.161 -5.28005 -3.07658 0
M  V30 3562 C 365.159 -6.21792 -2.82602 0
M  V30 3563 O 364.847 -7.54723 -2.76853 0
M  V30 3564 H 364.579 -0.445851 -0.508127 0
M  V30 3565 H 367.133 -1.77263 -1.03763 0
M  V30 3566 H 365.363 -1.47451 -3.57484 0
M  V30 3567 H 367.052 -1.89309 -3.5905 0
M  V30 3568 H 367.818 -4.13832 -2.52919 0
M  V30 3569 H 363.697 -3.19994 -3.31851 0
M  V30 3570 H 367.241 -6.53717 -2.43516 0
M  V30 3571 H 363.138 -5.59023 -3.22743 0
M  V30 3572 H 363.906 -7.64409 -2.92611 0
M  V30 3573 N 366.569 1.04691 -1.17803 0
M  V30 3574 C 367.499 2.14494 -0.92275 0
M  V30 3575 C 368.48 1.69546 0.137179 0
M  V30 3576 O 369.665 1.94195 -0.0141108 0
M  V30 3577 C 366.795 3.44491 -0.440803 0
M  V30 3578 C 365.749 4.03031 -1.4405 0
M  V30 3579 C 365.075 5.28432 -0.81631 0
M  V30 3580 C 366.375 4.39932 -2.81527 0
M  V30 3581 H 368.069 2.36107 -1.84103 0
M  V30 3582 H 365.615 1.1347 -0.886599 0
M  V30 3583 H 367.568 4.2066 -0.249602 0
M  V30 3584 H 366.292 3.22546 0.513025 0
M  V30 3585 H 364.951 3.28937 -1.61853 0
M  V30 3586 H 364.599 5.02792 0.144511 0
M  V30 3587 H 364.299 5.68559 -1.48371 0
M  V30 3588 H 365.823 6.07284 -0.635496 0
M  V30 3589 H 367.237 5.07113 -2.67412 0
M  V30 3590 H 365.634 4.9109 -3.44892 0
M  V30 3591 H 366.704 3.50045 -3.35554 0
M  V30 3592 N 368.047 0.979072 1.23499 0
M  V30 3593 C 368.994 0.517904 2.24914 0
M  V30 3594 C 369.964 -0.442525 1.60097 0
M  V30 3595 O 371.149 -0.350365 1.87556 0
M  V30 3596 C 368.289 -0.174813 3.44657 0
M  V30 3597 C 367.402 0.825721 4.24035 0
M  V30 3598 C 366.537 0.107946 5.3109 0
M  V30 3599 C 365.576 1.09778 6.02175 0
M  V30 3600 N 364.713 0.40925 7.00906 0
M  V30 3601 H 369.553 1.38751 2.63727 0
M  V30 3602 H 367.09 0.695303 1.2963 0
M  V30 3603 H 369.048 -0.593233 4.12961 0
M  V30 3604 H 367.678 -1.0083 3.06648 0
M  V30 3605 H 366.73 1.36253 3.55161 0
M  V30 3606 H 368.042 1.58005 4.73113 0
M  V30 3607 H 367.196 -0.367904 6.05583 0
M  V30 3608 H 365.935 -0.678994 4.8295 0
M  V30 3609 H 364.94 1.5844 5.26476 0
M  V30 3610 H 366.165 1.88536 6.52404 0
M  V30 3611 H 364.111 -0.358506 6.5502 0
M  V30 3612 H 364.028 1.10226 7.47921 0
M  V30 3613 H 365.296 -0.0442557 7.79487 0
M  V30 3614 N 369.525 -1.3858 0.750561 0
M  V30 3615 C 370.472 -2.30483 0.120835 0
M  V30 3616 C 371.442 -1.50022 -0.712923 0
M  V30 3617 O 372.627 -1.78662 -0.669676 0
M  V30 3618 C 369.767 -3.36431 -0.768666 0
M  V30 3619 C 368.88 -4.31927 0.0793922 0
M  V30 3620 C 368.015 -5.24944 -0.81283 0
M  V30 3621 C 367.054 -6.12088 0.0390447 0
M  V30 3622 N 366.191 -6.97412 -0.809969 0
M  V30 3623 H 371.031 -2.83761 0.91015 0
M  V30 3624 H 368.568 -1.39707 0.460463 0
M  V30 3625 H 370.526 -3.96462 -1.29898 0
M  V30 3626 H 369.156 -2.8457 -1.5238 0
M  V30 3627 H 368.208 -3.73382 0.727303 0
M  V30 3628 H 369.52 -4.93319 0.737401 0
M  V30 3629 H 368.674 -5.90078 -1.41042 0
M  V30 3630 H 367.413 -4.63911 -1.50458 0
M  V30 3631 H 366.418 -5.45952 0.649328 0
M  V30 3632 H 367.643 -6.75189 0.727809 0
M  V30 3633 H 365.589 -6.38931 -1.48672 0
M  V30 3634 H 365.506 -7.55712 -0.208789 0
M  V30 3635 H 366.774 -7.66959 -1.39263 0
M  V30 3636 N 371.003 -0.499398 -1.49478 0
M  V30 3637 C 371.951 0.293604 -2.3074 0
M  V30 3638 C 372.945 0.96427 -1.39277 0
M  V30 3639 O 374.151 0.892141 -1.56336 0
M  V30 3640 H 370.526 0.113541 -0.743379 0
M  V30 3641 H 372.497 -0.411772 -2.95545 0
M  V30 3642 C 371.246 1.3462 -3.20582 0
M  V30 3643 H 370.569 0.83954 -3.90886 0
M  V30 3644 H 372.009 1.87308 -3.80384 0
M  V30 3645 C 370.468 2.36351 -2.40083 0
M  V30 3646 O 370.998 3.422 -2.10385 0
M  V30 3647 N 369.204 2.0878 -2.02137 0
M  V30 3648 H 368.751 1.22723 -2.26488 0
M  V30 3649 H 368.709 2.77075 -1.48583 0
M  V30 3650 N 372.481 1.55866 -0.233164 0
M  V30 3651 C 373.431 2.17442 0.685774 0
M  V30 3652 C 374.415 1.12617 1.14918 0
M  V30 3653 O 375.607 1.3857 1.10124 0
M  V30 3654 C 372.736 2.86685 1.88856 0
M  V30 3655 C 371.822 3.98749 1.4443 0
M  V30 3656 N 372.213 5.00744 0.713364 0
M  V30 3657 C 370.511 4.11052 1.73068 0
M  V30 3658 C 371.212 5.79673 0.485205 0
M  V30 3659 N 370.188 5.33454 1.04536 0
M  V30 3660 H 373.99 2.93659 0.119022 0
M  V30 3661 H 371.504 1.62362 -0.0348995 0
M  V30 3662 H 373.501 3.29218 2.55776 0
M  V30 3663 H 372.161 2.11967 2.45967 0
M  V30 3664 H 373.172 5.16613 0.364861 0
M  V30 3665 H 369.849 3.47495 2.31416 0
M  V30 3666 H 371.239 6.71829 -0.097365 0
M  V30 3667 N 373.959 -0.0401083 1.57549 0
M  V30 3668 C 374.869 -1.06133 2.0922 0
M  V30 3669 C 375.885 -1.40356 1.0284 0
M  V30 3670 O 377.061 -1.49897 1.34509 0
M  V30 3671 C 374.126 -2.34658 2.55218 0
M  V30 3672 C 373.187 -2.07117 3.76033 0
M  V30 3673 C 372.42 -3.29514 4.19829 0
M  V30 3674 O 372.643 -4.39794 3.63232 0
M  V30 3675 O 371.577 -3.15863 5.12362 0
M  V30 3676 H 375.403 -0.652244 2.96613 0
M  V30 3677 H 372.988 -0.256368 1.47184 0
M  V30 3678 H 374.87 -3.10239 2.85184 0
M  V30 3679 H 373.545 -2.74883 1.70941 0
M  V30 3680 H 372.452 -1.29139 3.51104 0
M  V30 3681 H 373.785 -1.71754 4.61261 0
M  V30 3682 N 375.437 -1.54477 -0.31217 0
M  V30 3683 C 376.347 -1.87695 -1.4074 0
M  V30 3684 C 377.363 -0.769975 -1.56036 0
M  V30 3685 O 378.539 -1.06537 -1.70915 0
M  V30 3686 C 375.604 -2.10755 -2.75287 0
M  V30 3687 C 374.665 -3.34514 -2.69071 0
M  V30 3688 C 373.898 -3.56465 -3.97201 0
M  V30 3689 O 374.121 -2.81637 -4.96021 0
M  V30 3690 O 373.055 -4.49964 -3.9977 0
M  V30 3691 H 376.881 -2.80849 -1.15574 0
M  V30 3692 H 374.466 -1.40526 -0.507228 0
M  V30 3693 H 376.348 -2.27188 -3.54913 0
M  V30 3694 H 375.023 -1.20788 -3.0032 0
M  V30 3695 H 373.93 -3.23456 -1.87955 0
M  V30 3696 H 375.263 -4.24575 -2.48992 0
M  V30 3697 N 376.915 0.57481 -1.46744 0
M  V30 3698 C 377.825 1.711 -1.60505 0
M  V30 3699 C 378.841 1.67008 -0.488307 0
M  V30 3700 O 380.017 1.86774 -0.753495 0
M  V30 3701 C 377.082 3.07608 -1.59932 0
M  V30 3702 C 376.143 3.22904 -2.82898 0
M  V30 3703 C 375.376 4.529 -2.82343 0
M  V30 3704 O 375.599 5.37278 -1.91542 0
M  V30 3705 O 374.533 4.71611 -3.73987 0
M  V30 3706 H 378.359 1.62436 -2.56609 0
M  V30 3707 H 375.944 0.742779 -1.29627 0
M  V30 3708 H 377.826 3.88877 -1.62336 0
M  V30 3709 H 376.501 3.16692 -0.669898 0
M  V30 3710 H 375.408 2.41099 -2.86046 0
M  V30 3711 H 376.741 3.18715 -3.75076 0
M  V30 3712 N 378.394 1.34581 0.820102 0
M  V30 3713 C 379.327 1.20735 1.93644 0
M  V30 3714 C 380.305 0.0983343 1.62302 0
M  V30 3715 O 381.489 0.263997 1.86642 0
M  V30 3716 C 378.616 0.856037 3.27704 0
M  V30 3717 C 377.662 1.97521 3.78005 0
M  V30 3718 S 378.495 3.58906 3.97425 0
M  V30 3719 C 379.651 3.25822 5.34407 0
M  V30 3720 H 379.884 2.15231 2.05093 0
M  V30 3721 H 377.417 1.1964 0.97599 0
M  V30 3722 H 379.375 0.660133 4.05157 0
M  V30 3723 H 378.036 -0.0706253 3.14021 0
M  V30 3724 H 377.229 1.68321 4.75062 0
M  V30 3725 H 376.831 2.12875 3.07507 0
M  V30 3726 H 379.123 2.77812 6.17922 0
M  V30 3727 H 380.066 4.22029 5.68592 0
M  V30 3728 H 380.474 2.61932 5.00052 0
M  V30 3729 N 379.872 -1.04064 1.18357 0
M  V30 3730 C 380.82 -2.14187 0.907007 0
M  V30 3731 C 381.814 -1.68879 -0.132725 0
M  V30 3732 O 383.02 -1.79993 0.0154248 0
M  V30 3733 H 379.395 -0.699585 0.275835 0
M  V30 3734 H 381.366 -2.34711 1.84264 0
M  V30 3735 C 380.115 -3.44785 0.449254 0
M  V30 3736 H 379.438 -3.80058 1.24081 0
M  V30 3737 H 380.878 -4.22974 0.294737 0
M  V30 3738 C 379.337 -3.26391 -0.834909 0
M  V30 3739 O 379.867 -3.53973 -1.89911 0
M  V30 3740 N 378.073 -2.79726 -0.787523 0
M  V30 3741 H 377.62 -2.5748 0.0787347 0
M  V30 3742 H 377.578 -2.67798 -1.64716 0
M  V30 3743 N 381.35 -0.985608 -1.22978 0
M  V30 3744 C 382.313 -0.535071 -2.22867 0
M  V30 3745 C 383.313 0.378123 -1.56291 0
M  V30 3746 O 384.503 0.171092 -1.73358 0
M  V30 3747 C 381.635 0.222702 -3.40172 0
M  V30 3748 H 382.828 -1.41835 -2.6424 0
M  V30 3749 H 380.381 -0.772042 -1.35901 0
M  V30 3750 H 381.116 1.12229 -3.04262 0
M  V30 3751 H 380.901 -0.43288 -3.89703 0
M  V30 3752 H 382.391 0.526335 -4.1427 0
M  V30 3753 N 382.828 1.3818 -0.7579 0
M  V30 3754 C 383.758 2.33027 -0.148597 0
M  V30 3755 C 384.739 1.55085 0.69875 0
M  V30 3756 O 385.924 1.83384 0.639053 0
M  V30 3757 C 383.054 3.3928 0.742034 0
M  V30 3758 C 382.008 4.28 -0.00291946 0
M  V30 3759 C 381.334 5.25146 1.00625 0
M  V30 3760 C 382.634 5.08938 -1.17385 0
M  V30 3761 H 384.328 2.84231 -0.940909 0
M  V30 3762 H 381.874 1.36659 -0.453908 0
M  V30 3763 H 383.827 4.046 1.17799 0
M  V30 3764 H 382.551 2.86569 1.56671 0
M  V30 3765 H 381.21 3.64192 -0.419504 0
M  V30 3766 H 380.858 4.68721 1.8251 0
M  V30 3767 H 380.558 5.85361 0.512428 0
M  V30 3768 H 382.082 5.93342 1.44143 0
M  V30 3769 H 383.496 5.67474 -0.815224 0
M  V30 3770 H 381.893 5.7841 -1.59882 0
M  V30 3771 H 382.963 4.42424 -1.98468 0
M  V30 3772 N 384.306 0.507319 1.49211 0
M  V30 3773 C 385.722 0.163682 1.58758 0
M  V30 3774 C 385.922 -1.33208 1.51188 0
M  V30 3775 O 384.978 -2.10855 1.38911 0
M  V30 3776 C 386.291 0.746095 2.91297 0
M  V30 3777 C 387.839 0.712773 3.04776 0
M  V30 3778 C 388.314 1.27336 4.39943 0
M  V30 3779 N 389.805 1.23433 4.46451 0
M  V30 3780 C 390.54 1.63821 5.495 0
M  V30 3781 N 390.036 2.11832 6.5962 0
M  V30 3782 N 391.829 1.55198 5.4025 0
M  V30 3783 H 383.98 1.47972 1.52375 0
M  V30 3784 H 386.243 0.614147 0.722168 0
M  V30 3785 H 385.949 1.79534 3.02424 0
M  V30 3786 H 385.823 0.210137 3.76614 0
M  V30 3787 H 388.21 -0.327656 2.93275 0
M  V30 3788 H 388.291 1.28595 2.21127 0
M  V30 3789 H 387.935 2.3126 4.52196 0
M  V30 3790 H 387.865 0.676066 5.22242 0
M  V30 3791 H 390.356 0.882627 3.67448 0
M  V30 3792 H 390.669 2.40703 7.34358 0
M  V30 3793 H 389.014 2.1581 6.60644 0
M  V30 3794 H 392.205 1.17505 4.53112 0
M  V30 3795 H 392.378 1.86997 6.20432 0
M  V30 3796 N 385.784 -1.5574 0.241426 0
M  V30 3797 C 387.032 -1.98417 -0.384075 0
M  V30 3798 C 387.353 -1.13078 -1.58866 0
M  V30 3799 O 386.623 -0.212312 -1.94746 0
M  V30 3800 H 385.203 -0.732813 -0.144894 0
M  V30 3801 H 387.865 -1.9193 0.338943 0
M  V30 3802 H 386.961 -3.04219 -0.696939 0
M  V30 3803 N 387.262 0.0317525 -1.57568 0
M  V30 3804 C 388.194 1.06073 -2.03178 0
M  V30 3805 C 389.207 1.32627 -0.944132 0
M  V30 3806 O 390.396 1.30162 -1.22148 0
M  V30 3807 C 387.496 2.40297 -2.38978 0
M  V30 3808 C 386.669 2.33137 -3.70089 0
M  V30 3809 C 385.728 3.49787 -3.9311 0
M  V30 3810 O 384.754 3.29403 -4.64201 0
M  V30 3811 N 385.956 4.71562 -3.38541 0
M  V30 3812 H 388.721 0.672006 -2.92069 0
M  V30 3813 H 386.282 0.219745 -1.60402 0
M  V30 3814 H 388.274 3.1705 -2.51518 0
M  V30 3815 H 386.844 2.71024 -1.55771 0
M  V30 3816 H 386.064 1.415 -3.67928 0
M  V30 3817 H 387.352 2.25493 -4.56104 0
M  V30 3818 H 386.75 4.91024 -2.80912 0
M  V30 3819 H 385.307 5.45689 -3.56464 0
M  V30 3820 N 388.74 1.54641 0.303973 0
M  V30 3821 C 389.986 1.74038 1.04109 0
M  V30 3822 C 390.319 0.523051 1.87024 0
M  V30 3823 O 389.594 -0.479874 1.88487 0
M  V30 3824 C 389.877 3.02761 1.94955 0
M  V30 3825 C 389.73 4.34787 1.1524 0
M  V30 3826 C 391.049 3.27336 2.94175 0
M  V30 3827 H 388.168 0.63323 0.377079 0
M  V30 3828 H 390.81 1.87354 0.316001 0
M  V30 3829 H 388.96 2.9154 2.56782 0
M  V30 3830 H 390.632 4.57922 0.557236 0
M  V30 3831 H 388.875 4.31407 0.455053 0
M  V30 3832 H 389.546 5.21116 1.8205 0
M  V30 3833 H 392.022 3.38148 2.42477 0
M  V30 3834 H 390.898 4.18726 3.54908 0
M  V30 3835 H 391.159 2.45491 3.67677 0
M  V30 3836 N 390.218 -0.567019 1.47046 0
M  V30 3837 C 391.466 -1.322 1.52864 0
M  V30 3838 C 391.787 -1.94088 0.188388 0
M  V30 3839 O 391.057 -1.7941 -0.786693 0
M  V30 3840 H 389.637 -0.490894 0.563056 0
M  V30 3841 H 392.299 -0.662879 1.83281 0
M  V30 3842 H 391.395 -2.12062 2.2899 0
M  V30 3843 N 391.696 -1.35014 -0.812953 0
M  V30 3844 C 392.944 -1.27678 -1.56661 0
M  V30 3845 C 393.265 0.150359 -1.94419 0
M  V30 3846 O 392.535 1.08532 -1.63088 0
M  V30 3847 H 391.115 -0.469602 -0.580933 0
M  V30 3848 H 393.777 -1.69043 -0.970076 0
M  V30 3849 H 392.873 -1.88833 -2.48492 0
M  V30 3850 N 393.175 1.03435 -1.18907 0
M  V30 3851 C 394.452 1.73778 -0.89781 0
M  V30 3852 C 394.832 2.02458 0.597832 0
M  V30 3853 O 394.18 1.67482 1.55441 0
M  V30 3854 C 394.39 3.01845 -1.75187 0
M  V30 3855 C 395.738 3.7546 -1.9828 0
M  V30 3856 O 396.762 3.11759 -1.72293 0
M  V30 3857 O 395.621 4.89966 -2.42065 0
M  V30 3858 H 392.715 0.75651 -0.334098 0
M  V30 3859 H 395.261 1.09444 -1.29693 0
M  V30 3860 H 394.033 2.76836 -2.76545 0
M  V30 3861 H 393.656 3.73919 -1.35167 0
M  V30 3862 N 394.653 0.992116 1.22453 0
M  V30 3863 C 395.899 0.668523 1.91464 0
M  V30 3864 C 396.232 -0.797313 1.77078 0
M  V30 3865 O 395.507 -1.5765 1.13916 0
M  V30 3866 C 395.79 1.07424 3.43703 0
M  V30 3867 C 395.643 2.59857 3.67143 0
M  V30 3868 C 396.962 0.626891 4.35612 0
M  V30 3869 H 394.081 0.244341 0.695318 0
M  V30 3870 H 396.723 1.2355 1.44345 0
M  V30 3871 H 394.873 0.591816 3.83966 0
M  V30 3872 H 396.545 3.15764 3.3629 0
M  V30 3873 H 394.788 3.01961 3.11451 0
M  V30 3874 H 395.459 2.83296 4.73759 0
M  V30 3875 H 397.935 1.04125 4.02861 0
M  V30 3876 H 396.811 0.939076 5.40807 0
M  V30 3877 H 397.072 -0.472457 4.39568 0
M  V30 3878 N 396.131 -1.37776 0.765217 0
M  V30 3879 C 397.079 -2.32209 0.134798 0
M  V30 3880 C 398.073 -1.54607 -0.692315 0
M  V30 3881 O 399.279 -1.70052 -0.590109 0
M  V30 3882 H 395.654 -0.751591 0.0248005 0
M  V30 3883 H 397.625 -2.8297 0.947119 0
M  V30 3884 C 396.374 -3.39841 -0.735063 0
M  V30 3885 H 395.697 -3.99654 -0.107991 0
M  V30 3886 H 397.137 -4.08296 -1.14326 0
M  V30 3887 C 395.596 -2.79378 -1.88281 0
M  V30 3888 O 396.126 -2.69608 -2.97783 0
M  V30 3889 N 394.332 -2.37016 -1.68142 0
M  V30 3890 H 393.879 -2.45162 -0.790772 0
M  V30 3891 H 393.837 -1.96905 -2.45104 0
M  V30 3892 N 397.609 -0.515225 -1.4894 0
M  V30 3893 C 398.855 0.0242508 -2.02785 0
M  V30 3894 C 399.188 1.35323 -1.39289 0
M  V30 3895 O 398.463 1.87041 -0.533469 0
M  V30 3896 C 398.746 0.16184 -3.59736 0
M  V30 3897 C 398.599 -1.19127 -4.33738 0
M  V30 3898 C 399.918 0.895719 -4.30888 0
M  V30 3899 H 397.037 0.00733914 -0.736963 0
M  V30 3900 H 399.679 -0.669395 -1.77818 0
M  V30 3901 H 397.829 0.752624 -3.8114 0
M  V30 3902 H 399.501 -1.82202 -4.23792 0
M  V30 3903 H 397.744 -1.77695 -3.95736 0
M  V30 3904 H 398.415 -1.04815 -5.41957 0
M  V30 3905 H 400.891 0.394528 -4.14225 0
M  V30 3906 H 399.767 0.960859 -5.40425 0
M  V30 3907 H 400.028 1.9427 -3.97129 0
M  V30 3908 N 399.087 1.5561 -0.249682 0
M  V30 3909 C 399.997 2.25143 0.659375 0
M  V30 3910 C 401.013 1.2685 1.19101 0
M  V30 3911 O 402.189 1.59732 1.22669 0
M  V30 3912 C 399.254 2.93945 1.8384 0
M  V30 3913 C 398.315 4.07655 1.34596 0
M  V30 3914 C 397.548 4.73167 2.46878 0
M  V30 3915 O 397.771 4.37768 3.65671 0
M  V30 3916 O 396.705 5.61623 2.16478 0
M  V30 3917 H 400.531 3.03545 0.0968698 0
M  V30 3918 H 398.116 1.49389 -0.018074 0
M  V30 3919 H 399.998 3.37271 2.52638 0
M  V30 3920 H 398.673 2.18481 2.38847 0
M  V30 3921 H 397.58 3.68839 0.625174 0
M  V30 3922 H 398.913 4.84946 0.841941 0
M  V30 3923 N 400.565 -0.0233959 1.57583 0
M  V30 3924 C 401.498 -1.05549 2.02323 0
M  V30 3925 C 402.476 -1.34843 0.908626 0
M  V30 3926 O 403.66 -1.47404 1.17491 0
M  V30 3927 C 400.787 -2.38885 2.40108 0
M  V30 3928 C 399.833 -2.2541 3.62067 0
M  V30 3929 S 400.666 -1.60217 5.1097 0
M  V30 3930 C 401.822 -2.95032 5.52003 0
M  V30 3931 H 402.055 -0.674435 2.89549 0
M  V30 3932 H 399.588 -0.23355 1.52623 0
M  V30 3933 H 401.546 -3.15562 2.62547 0
M  V30 3934 H 400.207 -2.74137 1.53323 0
M  V30 3935 H 399.4 -3.23854 3.86179 0
M  V30 3936 H 399.002 -1.56876 3.39508 0
M  V30 3937 H 401.294 -3.91357 5.53033 0
M  V30 3938 H 402.237 -2.75646 6.52246 0
M  V30 3939 H 402.645 -2.97865 4.79517 0
M  V30 3940 N 402.043 -1.548 -0.295768 0
M  V30 3941 C 403.32 -1.65014 -1.05023 0
M  V30 3942 C 403.7 -0.501805 -2.05049 0
M  V30 3943 O 403.048 0.500869 -2.22943 0
M  V30 3944 C 403.258 -3.03252 -1.72741 0
M  V30 3945 C 404.606 -3.60242 -2.24746 0
M  V30 3946 O 405.63 -3.05737 -1.82765 0
M  V30 3947 O 404.489 -4.55687 -3.01681 0
M  V30 3948 H 401.583 -0.669314 -0.485744 0
M  V30 3949 H 404.129 -1.67144 -0.293438 0
M  V30 3950 H 402.901 -3.7827 -1.00138 0
M  V30 3951 H 402.524 -3.04922 -2.55163 0
M  V30 3952 N 403.521 0.559213 -1.47345 0
M  V30 3953 C 404.484 1.64854 -1.59235 0
M  V30 3954 C 405.484 1.53851 -0.467607 0
M  V30 3955 O 406.674 1.58045 -0.732617 0
M  V30 3956 C 403.806 3.04388 -1.53496 0
M  V30 3957 H 404.999 1.55662 -2.56339 0
M  V30 3958 H 402.552 0.778973 -1.35505 0
M  V30 3959 H 403.287 3.19115 -0.577604 0
M  V30 3960 H 403.072 3.13783 -2.35123 0
M  V30 3961 H 404.562 3.83642 -1.6495 0
M  V30 3962 N 404.999 1.35443 0.805782 0
M  V30 3963 C 405.962 1.28301 1.89925 0
M  V30 3964 C 406.962 0.194285 1.59622 0
M  V30 3965 O 408.152 0.448036 1.6834 0
M  V30 3966 C 405.284 0.984997 3.2636 0
M  V30 3967 H 406.477 2.2553 1.97677 0
M  V30 3968 H 404.03 1.19979 1.00173 0
M  V30 3969 H 404.765 0.016603 3.24296 0
M  V30 3970 H 404.55 1.77269 3.4974 0
M  V30 3971 H 406.04 0.960651 4.064 0
M  V30 3972 N 406.477 -1.02803 1.19454 0
M  V30 3973 C 407.888 -1.57667 0.999899 0
M  V30 3974 C 408.239 -1.91041 -0.446956 0
M  V30 3975 O 407.364 -1.70978 -1.32648 0
M  V30 3976 C 407.959 -2.86477 1.80877 0
M  V30 3977 C 406.518 -3.37911 1.65811 0
M  V30 3978 C 405.665 -2.11343 1.79526 0
M  V30 3979 H 408.616 -0.853214 1.33813 0
M  V30 3980 H 408.637 -3.57408 1.30536 0
M  V30 3981 H 408.149 -2.62155 2.86175 0
M  V30 3982 H 406.25 -3.67218 0.63102 0
M  V30 3983 H 406.363 -4.10885 2.46395 0
M  V30 3984 H 404.727 -2.23254 1.22596 0
M  V30 3985 H 405.51 -1.89461 2.86285 0
M  V30 3986 N 407.956 -0.998596 -1.21925 0
M  V30 3987 C 409.204 -0.676325 -1.90448 0
M  V30 3988 C 409.525 0.794719 -1.78071 0
M  V30 3989 O 408.795 1.5701 -1.17152 0
M  V30 3990 H 407.375 -0.247165 -0.704925 0
M  V30 3991 H 410.037 -1.26633 -1.48156 0
M  V30 3992 H 409.133 -0.943858 -2.97486 0
M  V30 3993 N 409.434 1.37368 -0.772513 0
M  V30 3994 C 410.68 1.99969 -0.337681 0
M  V30 3995 C 411.013 1.61184 1.08321 0
M  V30 3996 O 410.288 0.858395 1.74533 0
M  V30 3997 C 410.571 3.56858 -0.482121 0
M  V30 3998 C 410.424 4.0555 -1.94549 0
M  V30 3999 C 411.743 4.39955 0.113143 0
M  V30 4000 H 408.862 0.726464 -0.124171 0
M  V30 4001 H 411.504 1.63034 -0.975699 0
M  V30 4002 H 409.654 3.88452 0.0610361 0
M  V30 4003 H 411.326 3.84518 -2.54841 0
M  V30 4004 H 409.569 3.57715 -2.45403 0
M  V30 4005 H 410.24 5.14587 -1.9976 0
M  V30 4006 H 412.716 4.14623 -0.35031 0
M  V30 4007 H 411.592 5.48897 -0.0180514 0
M  V30 4008 H 411.853 4.25403 1.20354 0
M  V30 4009 N 410.912 0.523116 1.48665 0
M  V30 4010 C 412.189 -0.0775449 1.95446 0
M  V30 4011 C 412.569 -1.5197 1.4652 0
M  V30 4012 O 411.917 -2.17876 0.688657 0
M  V30 4013 C 412.127 0.0326135 3.48985 0
M  V30 4014 C 413.475 -0.130141 4.24401 0
M  V30 4015 O 414.499 -0.0415142 3.56176 0
M  V30 4016 O 413.358 -0.31491 5.45592 0
M  V30 4017 H 410.452 -0.0831012 0.822814 0
M  V30 4018 H 412.998 0.587227 1.59216 0
M  V30 4019 H 411.77 1.03748 3.77296 0
M  V30 4020 H 411.393 -0.671317 3.91892 0
M  V30 4021 N 412.39 -1.55475 0.257931 0
M  V30 4022 C 413.32 -2.24815 -0.630912 0
M  V30 4023 C 414.301 -1.23224 -1.17259 0
M  V30 4024 O 415.486 -1.51904 -1.20991 0
M  V30 4025 C 412.616 -2.95609 -1.82298 0
M  V30 4026 C 411.57 -4.03982 -1.41359 0
M  V30 4027 C 410.896 -4.6226 -2.68738 0
M  V30 4028 C 412.196 -5.19109 -0.57648 0
M  V30 4029 H 413.89 -2.99354 -0.0526878 0
M  V30 4030 H 411.436 -1.4398 -0.023901 0
M  V30 4031 H 413.389 -3.42822 -2.45054 0
M  V30 4032 H 412.113 -2.18577 -2.42676 0
M  V30 4033 H 410.772 -3.57555 -0.809324 0
M  V30 4034 H 410.42 -3.81915 -3.27338 0
M  V30 4035 H 410.12 -5.35424 -2.42065 0
M  V30 4036 H 411.644 -5.12212 -3.32372 0
M  V30 4037 H 413.058 -5.62479 -1.10861 0
M  V30 4038 H 411.455 -5.98729 -0.405351 0
M  V30 4039 H 412.525 -4.83174 0.408776 0
M  V30 4040 N 413.868 0.0150385 -1.57593 0
M  V30 4041 C 415.093 0.718067 -1.94573 0
M  V30 4042 C 415.518 1.6734 -0.859005 0
M  V30 4043 O 414.876 1.80362 0.184147 0
M  V30 4044 C 414.924 1.43918 -3.30636 0
M  V30 4045 O 414.028 2.55299 -3.23876 0
M  V30 4046 H 413.369 0.192125 -0.635597 0
M  V30 4047 H 415.899 -0.0336708 -2.04572 0
M  V30 4048 H 415.909 1.80598 -3.65853 0
M  V30 4049 H 414.584 0.738619 -4.09289 0
M  V30 4050 H 413.161 2.21058 -3.00312 0
M  V30 4051 N 415.346 1.54954 0.287554 0
M  V30 4052 C 416.762 1.46469 0.633964 0
M  V30 4053 C 416.962 0.666865 1.90145 0
M  V30 4054 O 416.018 0.179906 2.51858 0
M  V30 4055 C 417.331 2.90556 0.774454 0
M  V30 4056 C 418.879 3.00681 0.869462 0
M  V30 4057 C 419.354 4.45993 1.04184 0
M  V30 4058 N 420.845 4.4976 1.10772 0
M  V30 4059 C 421.58 5.59393 1.25964 0
M  V30 4060 N 421.076 6.78923 1.37968 0
M  V30 4061 N 422.869 5.47107 1.28959 0
M  V30 4062 H 415.02 2.05288 -0.545041 0
M  V30 4063 H 417.283 0.930305 -0.182308 0
M  V30 4064 H 416.989 3.51594 -0.086207 0
M  V30 4065 H 416.863 3.38743 1.6593 0
M  V30 4066 H 419.25 2.39749 1.7206 0
M  V30 4067 H 419.331 2.55769 -0.0396831 0
M  V30 4068 H 418.975 5.07524 0.195422 0
M  V30 4069 H 418.905 4.88548 1.96542 0
M  V30 4070 H 421.396 3.63651 1.02794 0
M  V30 4071 H 421.709 7.58231 1.49353 0
M  V30 4072 H 420.054 6.81763 1.34999 0
M  V30 4073 H 423.245 4.52668 1.19202 0
M  V30 4074 H 423.418 6.32595 1.40455 0
M  V30 4075 N 416.824 -0.551391 1.4764 0
M  V30 4076 C 418.073 -1.30467 1.53822 0
M  V30 4077 C 418.386 -1.94495 0.207661 0
M  V30 4078 O 419.592 -2.71099 0.147533 0
M  V30 4079 C 418.048 -2.36616 2.71184 0
M  V30 4080 C 417.656 -1.78754 4.10793 0
M  V30 4081 C 419.4 -3.13088 2.86663 0
M  V30 4082 C 417.307 -2.82717 5.19447 0
M  V30 4083 H 416.237 -0.490584 0.572576 0
M  V30 4084 H 418.888 -0.58494 1.73927 0
M  V30 4085 H 417.27 -3.11529 2.4447 0
M  V30 4086 H 418.444 -1.10173 4.47435 0
M  V30 4087 H 416.759 -1.14846 4.00249 0
M  V30 4088 H 419.356 -3.90736 3.65007 0
M  V30 4089 H 419.699 -3.67635 1.95321 0
M  V30 4090 H 420.232 -2.45288 3.13175 0
M  V30 4091 H 416.971 -2.33018 6.12685 0
M  V30 4092 H 416.491 -3.4969 4.87316 0
M  V30 4093 H 418.17 -3.46102 5.46646 0
M  V30 4094 N 418.302 -1.35869 -0.798587 0
M  V30 4095 C 419.232 -1.32118 -1.92528 0
M  V30 4096 C 420.213 -0.194209 -1.68988 0
M  V30 4097 O 421.398 -0.390426 -1.90235 0
M  V30 4098 C 418.528 -1.10047 -3.29404 0
M  V30 4099 C 417.482 -2.19471 -3.67446 0
M  V30 4100 C 416.808 -1.82555 -5.02571 0
M  V30 4101 C 418.108 -3.61495 -3.76987 0
M  V30 4102 H 419.802 -2.26394 -1.95924 0
M  V30 4103 H 417.348 -1.08981 -0.94123 0
M  V30 4104 H 419.301 -1.06061 -4.07835 0
M  V30 4105 H 418.025 -0.122195 -3.26371 0
M  V30 4106 H 416.684 -2.22568 -2.91306 0
M  V30 4107 H 416.332 -0.833249 -4.9605 0
M  V30 4108 H 416.032 -2.5581 -5.28995 0
M  V30 4109 H 417.556 -1.80108 -5.83432 0
M  V30 4110 H 418.97 -3.60676 -4.4563 0
M  V30 4111 H 417.367 -4.33577 -4.14887 0
M  V30 4112 H 418.437 -3.97065 -2.78329 0
M  V30 4113 N 419.78 1.02168 -1.19998 0
M  V30 4114 C 420.728 2.12717 -0.940967 0
M  V30 4115 C 421.722 1.69069 0.105841 0
M  V30 4116 O 422.928 1.79946 -0.0440583 0
M  V30 4117 H 419.303 0.695108 -0.28693 0
M  V30 4118 H 421.274 2.3175 -1.87975 0
M  V30 4119 C 420.023 3.44027 -0.504049 0
M  V30 4120 H 419.346 3.78036 -1.30112 0
M  V30 4121 H 420.786 4.22452 -0.361991 0
M  V30 4122 C 419.245 3.27678 0.782878 0
M  V30 4123 O 419.775 3.56949 1.84256 0
M  V30 4124 N 417.981 2.80943 0.742921 0
M  V30 4125 H 417.528 2.57322 -0.119687 0
M  V30 4126 H 417.486 2.70385 1.60435 0
M  V30 4127 N 421.258 1.00505 1.21394 0
M  V30 4128 C 422.168 0.574806 2.27449 0
M  V30 4129 C 423.184 -0.382206 1.6975 0
M  V30 4130 O 424.36 -0.246027 1.99892 0
M  V30 4131 C 421.425 -0.0917414 3.46579 0
M  V30 4132 C 420.486 0.909758 4.1955 0
M  V30 4133 C 419.719 0.274924 5.32991 0
M  V30 4134 O 419.942 -0.928254 5.62796 0
M  V30 4135 O 418.876 0.985877 5.93771 0
M  V30 4136 H 422.702 1.45744 2.66444 0
M  V30 4137 H 420.287 0.773923 1.27792 0
M  V30 4138 H 422.169 -0.464551 4.18832 0
M  V30 4139 H 420.844 -0.948755 3.09484 0
M  V30 4140 H 419.751 1.33372 3.49518 0
M  V30 4141 H 421.084 1.73636 4.60555 0
M  V30 4142 N 422.737 -1.36956 0.779787 0
M  V30 4143 C 423.67 -2.27896 0.117681 0
M  V30 4144 C 424.648 -1.46736 -0.700523 0
M  V30 4145 O 425.832 -1.76055 -0.673568 0
M  V30 4146 C 422.959 -3.28136 -0.839296 0
M  V30 4147 C 422.005 -4.26373 -0.10409 0
M  V30 4148 S 422.838 -5.2157 1.21348 0
M  V30 4149 C 423.994 -6.25359 0.260249 0
M  V30 4150 H 424.227 -2.83704 0.888778 0
M  V30 4151 H 421.76 -1.43352 0.57355 0
M  V30 4152 H 423.718 -3.86394 -1.38601 0
M  V30 4153 H 422.379 -2.7126 -1.58356 0
M  V30 4154 H 421.572 -4.97121 -0.82986 0
M  V30 4155 H 421.174 -3.72147 0.371858 0
M  V30 4156 H 423.466 -6.75145 -0.564435 0
M  V30 4157 H 424.409 -7.01885 0.936135 0
M  V30 4158 H 424.817 -5.64345 -0.132127 0
M  V30 4159 N 424.215 -0.530993 -1.48385 0
M  V30 4160 C 425.631 -0.188919 -1.58478 0
M  V30 4161 C 425.831 1.30786 -1.53288 0
M  V30 4162 O 424.887 2.08619 -1.42248 0
M  V30 4163 C 426.2 -0.792343 -2.90073 0
M  V30 4164 C 427.748 -0.76117 -3.03604 0
M  V30 4165 C 428.223 -1.34319 -4.37861 0
M  V30 4166 N 429.714 -1.3052 -4.44431 0
M  V30 4167 C 430.449 -1.72543 -5.46824 0
M  V30 4168 N 429.945 -2.22299 -6.56167 0
M  V30 4169 N 431.738 -1.63773 -5.37712 0
M  V30 4170 H 423.889 -1.50377 -1.50002 0
M  V30 4171 H 426.152 -0.625559 -0.712306 0
M  V30 4172 H 425.858 -1.84323 -2.99529 0
M  V30 4173 H 425.732 -0.270026 -3.76232 0
M  V30 4174 H 428.119 0.280957 -2.93759 0
M  V30 4175 H 428.2 -1.32097 -2.19053 0
M  V30 4176 H 427.844 -2.38425 -4.4846 0
M  V30 4177 H 427.774 -0.759064 -5.21101 0
M  V30 4178 H 430.265 -0.940973 -3.65997 0
M  V30 4179 H 430.578 -2.52356 -7.30436 0
M  V30 4180 H 428.923 -2.26293 -6.57127 0
M  V30 4181 H 432.114 -1.24698 -4.51185 0
M  V30 4182 H 432.287 -1.96844 -6.17379 0
M  V30 4183 N 425.693 1.55336 -0.266172 0
M  V30 4184 C 426.97 1.91372 0.404486 0
M  V30 4185 C 427.35 1.18935 1.74407 0
M  V30 4186 O 426.698 0.3132 2.26343 0
M  V30 4187 C 426.908 3.44581 0.553593 0
M  V30 4188 C 428.256 4.16196 0.840618 0
M  V30 4189 O 429.28 3.50426 0.638739 0
M  V30 4190 O 428.139 5.32567 1.22618 0
M  V30 4191 H 425.233 0.797194 0.220025 0
M  V30 4192 H 427.779 1.66813 -0.311664 0
M  V30 4193 H 426.551 3.89357 -0.389498 0
M  V30 4194 H 426.174 3.75065 1.31955 0
M  V30 4195 N 427.171 -0.0066808 1.57599 0
M  V30 4196 C 428.103 -1.02827 2.04839 0
M  V30 4197 C 429.116 -1.31108 0.965113 0
M  V30 4198 O 430.305 -1.28202 1.24203 0
M  V30 4199 C 427.405 -2.36464 2.42771 0
M  V30 4200 C 426.578 -2.27219 3.73751 0
M  V30 4201 C 425.637 -3.43489 3.98625 0
M  V30 4202 O 424.663 -3.21976 4.69382 0
M  V30 4203 N 425.865 -4.66116 3.46 0
M  V30 4204 H 428.63 -0.625455 2.93101 0
M  V30 4205 H 426.191 -0.194198 1.60731 0
M  V30 4206 H 428.183 -3.13008 2.56531 0
M  V30 4207 H 426.753 -2.68512 1.60063 0
M  V30 4208 H 425.973 -1.35629 3.70133 0
M  V30 4209 H 427.261 -2.18208 4.59633 0
M  V30 4210 H 426.659 -4.86493 2.88688 0
M  V30 4211 H 425.216 -5.39949 3.65101 0
M  V30 4212 N 428.649 -1.55105 -0.279332 0
M  V30 4213 C 429.879 -1.7917 -1.02867 0
M  V30 4214 C 430.287 -0.56204 -1.80659 0
M  V30 4215 O 429.63 0.478266 -1.77365 0
M  V30 4216 C 429.692 -2.96061 -2.03932 0
M  V30 4217 C 429.356 -4.33341 -1.45137 0
M  V30 4218 C 430.353 -5.12565 -0.870266 0
M  V30 4219 C 428.038 -4.79987 -1.48048 0
M  V30 4220 C 430.032 -6.36565 -0.326097 0
M  V30 4221 C 427.719 -6.03944 -0.932443 0
M  V30 4222 C 428.717 -6.8207 -0.356247 0
M  V30 4223 O 428.405 -8.03691 0.183412 0
M  V30 4224 H 428.137 -0.600796 -0.309872 0
M  V30 4225 H 430.691 -2.02932 -0.317468 0
M  V30 4226 H 428.921 -2.67975 -2.78794 0
M  V30 4227 H 430.61 -3.07506 -2.64943 0
M  V30 4228 H 431.376 -4.77661 -0.840521 0
M  V30 4229 H 427.255 -4.1919 -1.91835 0
M  V30 4230 H 430.799 -6.97489 0.124286 0
M  V30 4231 H 426.696 -6.3833 -0.959407 0
M  V30 4232 H 427.464 -8.18468 0.0721681 0
M  V30 4233 N 430.127 0.543554 -1.4793 0
M  V30 4234 C 431.037 1.67657 -1.64098 0
M  V30 4235 C 432.053 1.65934 -0.523622 0
M  V30 4236 O 433.229 1.85133 -0.792943 0
M  V30 4237 C 430.294 3.04146 -1.66421 0
M  V30 4238 C 429.355 3.16831 -2.89684 0
M  V30 4239 C 428.588 4.46809 -2.91886 0
M  V30 4240 O 428.811 5.33095 -2.02895 0
M  V30 4241 O 427.745 4.63573 -3.83906 0
M  V30 4242 H 431.571 1.56957 -2.59997 0
M  V30 4243 H 429.156 0.715116 -1.31173 0
M  V30 4244 H 431.038 3.85346 -1.70548 0
M  V30 4245 H 429.713 3.152 -0.736923 0
M  V30 4246 H 428.62 2.34977 -2.91095 0
M  V30 4247 H 429.953 3.10687 -3.81752 0
M  V30 4248 N 431.605 1.3629 0.791371 0
M  V30 4249 C 432.552 1.30458 1.90393 0
M  V30 4250 C 433.522 0.173632 1.6519 0
M  V30 4251 O 434.707 0.35983 1.87376 0
M  V30 4252 C 431.847 1.09777 3.27174 0
M  V30 4253 C 430.96 2.31929 3.64462 0
M  V30 4254 C 430.095 2.04276 4.90352 0
M  V30 4255 C 429.134 3.224 5.20312 0
M  V30 4256 N 428.271 2.94424 6.37385 0
M  V30 4257 H 433.111 2.25589 1.94714 0
M  V30 4258 H 430.648 1.12122 0.952216 0
M  V30 4259 H 432.606 0.958133 4.06049 0
M  V30 4260 H 431.236 0.183014 3.22281 0
M  V30 4261 H 430.288 2.56703 2.80727 0
M  V30 4262 H 431.6 3.20085 3.82553 0
M  V30 4263 H 430.754 1.87231 5.77087 0
M  V30 4264 H 429.493 1.13428 4.74326 0
M  V30 4265 H 428.498 3.40005 4.32061 0
M  V30 4266 H 429.723 4.14071 5.38258 0
M  V30 4267 H 427.669 2.06185 6.22755 0
M  V30 4268 H 427.586 3.76118 6.55798 0
M  V30 4269 H 428.854 2.80953 7.27108 0
M  V30 4270 N 433.083 -1.0153 1.20538 0
M  V30 4271 C 434.016 -2.09759 0.898695 0
M  V30 4272 C 434.994 -1.61909 -0.149733 0
M  V30 4273 O 436.178 -1.88486 -0.0230293 0
M  V30 4274 C 433.305 -3.36913 0.347512 0
M  V30 4275 C 432.351 -4.03655 1.37713 0
M  V30 4276 S 433.184 -4.47402 2.94265 0
M  V30 4277 C 434.34 -5.77756 2.40726 0
M  V30 4278 H 434.573 -2.3545 1.81523 0
M  V30 4279 H 432.106 -1.14665 1.03399 0
M  V30 4280 H 434.064 -4.10484 0.0360518 0
M  V30 4281 H 432.725 -3.09291 -0.547546 0
M  V30 4282 H 431.918 -4.9514 0.940872 0
M  V30 4283 H 431.52 -3.36313 1.63614 0
M  V30 4284 H 433.812 -6.52994 1.80569 0
M  V30 4285 H 434.755 -6.2618 3.30612 0
M  V30 4286 H 435.163 -5.34081 1.82806 0
M  V30 4287 N 434.561 -1.01147 -1.20859 0
M  V30 4288 C 435.524 -0.582224 -2.21682 0
M  V30 4289 C 436.524 0.344887 -1.57058 0
M  V30 4290 O 437.714 0.134281 -1.73682 0
M  V30 4291 C 434.846 0.150496 -3.40568 0
M  V30 4292 H 436.039 -1.47408 -2.61172 0
M  V30 4293 H 433.592 -0.800695 -1.34233 0
M  V30 4294 H 434.327 1.0575 -3.06574 0
M  V30 4295 H 434.112 -0.515444 -3.88697 0
M  V30 4296 H 435.602 0.438344 -4.15293 0
M  V30 4297 N 436.039 1.36541 -0.78704 0
M  V30 4298 C 436.949 2.3387 -0.184896 0
M  V30 4299 C 437.965 1.60927 0.661697 0
M  V30 4300 O 439.141 1.92927 0.57804 0
M  V30 4301 C 436.206 3.40122 0.672145 0
M  V30 4302 C 435.267 4.28867 -0.19267 0
M  V30 4303 C 434.5 5.30045 0.623561 0
M  V30 4304 O 434.723 5.39232 1.8597 0
M  V30 4305 O 433.657 6.01895 0.0247068 0
M  V30 4306 H 437.483 2.87126 -0.989562 0
M  V30 4307 H 435.068 1.38969 -0.548455 0
M  V30 4308 H 436.95 4.05093 1.16094 0
M  V30 4309 H 435.625 2.89169 1.45474 0
M  V30 4310 H 434.532 3.66945 -0.728166 0
M  V30 4311 H 435.865 4.83165 -0.938722 0
M  V30 4312 N 437.518 0.538854 1.48102 0
M  V30 4313 C 438.465 -0.219042 2.29758 0
M  V30 4314 C 439.435 -0.925562 1.37922 0
M  V30 4315 O 440.62 -0.924855 1.66886 0
M  V30 4316 C 437.76 -1.25452 3.2149 0
M  V30 4317 C 436.873 -0.555943 4.28408 0
M  V30 4318 C 436.008 -1.57512 5.0731 0
M  V30 4319 C 435.047 -0.860498 6.06021 0
M  V30 4320 N 434.184 -1.82564 6.77949 0
M  V30 4321 H 439.024 0.483449 2.94052 0
M  V30 4322 H 436.561 0.250247 1.44956 0
M  V30 4323 H 438.519 -1.86727 3.7308 0
M  V30 4324 H 437.149 -1.92528 2.591 0
M  V30 4325 H 436.201 0.170938 3.80016 0
M  V30 4326 H 437.513 0.00474616 4.988 0
M  V30 4327 H 436.667 -2.26191 5.62959 0
M  V30 4328 H 435.406 -2.16972 4.36778 0
M  V30 4329 H 434.411 -0.159686 5.49568 0
M  V30 4330 H 435.636 -0.271897 6.78555 0
M  V30 4331 H 433.582 -2.40915 6.10161 0
M  V30 4332 H 433.499 -1.31662 7.44447 0
M  V30 4333 H 434.767 -2.50414 7.38182 0
M  V30 4334 N 438.996 -1.55193 0.274407 0
M  V30 4335 C 439.944 -2.23924 -0.629362 0
M  V30 4336 C 440.938 -1.23602 -1.1584 0
M  V30 4337 O 442.144 -1.41535 -1.11211 0
M  V30 4338 H 438.519 -0.718637 -0.221507 0
M  V30 4339 H 440.49 -2.98388 -0.0268322 0
M  V30 4340 C 439.239 -2.97329 -1.80252 0
M  V30 4341 H 438.562 -3.74313 -1.40462 0
M  V30 4342 H 440.002 -3.48743 -2.41152 0
M  V30 4343 C 438.461 -2.0276 -2.69054 0
M  V30 4344 O 438.991 -1.57836 -3.69392 0
M  V30 4345 N 437.197 -1.69275 -2.36208 0
M  V30 4346 H 436.744 -2.06004 -1.54661 0
M  V30 4347 H 436.702 -1.06271 -2.95895 0
M  V30 4348 N 440.474 -0.00167713 -1.576 0
M  V30 4349 C 441.89 0.354422 -1.55615 0
M  V30 4350 C 442.09 1.74679 -1.00447 0
M  V30 4351 O 441.146 2.4428 -0.639022 0
M  V30 4352 C 442.459 0.22812 -2.99833 0
M  V30 4353 C 444.007 0.302934 -3.11531 0
M  V30 4354 C 444.482 0.205737 -4.57538 0
M  V30 4355 N 445.973 0.263584 -4.62449 0
M  V30 4356 C 446.708 0.211742 -5.73009 0
M  V30 4357 N 446.204 0.110399 -6.92712 0
M  V30 4358 N 447.997 0.263729 -5.61481 0
M  V30 4359 H 440.148 -0.912498 -1.918 0
M  V30 4360 H 442.411 -0.349928 -0.881053 0
M  V30 4361 H 442.117 -0.729934 -3.44042 0
M  V30 4362 H 441.991 1.00951 -3.6344 0
M  V30 4363 H 444.378 1.25143 -2.67251 0
M  V30 4364 H 444.459 -0.508357 -2.50698 0
M  V30 4365 H 444.103 -0.739225 -5.02492 0
M  V30 4366 H 444.033 1.03554 -5.16318 0
M  V30 4367 H 446.524 0.343173 -3.76339 0
M  V30 4368 H 446.837 0.0767828 -7.72762 0
M  V30 4369 H 445.182 0.0760025 -6.94958 0
M  V30 4370 H 448.373 0.34111 -4.66855 0
M  V30 4371 H 448.546 0.219862 -6.47627 0
M  V30 4372 N 441.952 1.55251 0.271103 0
M  V30 4373 C 442.899 1.88261 1.33516 0
M  V30 4374 C 443.869 0.734296 1.48988 0
M  V30 4375 O 445.054 0.985741 1.63364 0
M  V30 4376 C 442.194 2.16168 2.69008 0
M  V30 4377 C 441.307 3.43678 2.61743 0
M  V30 4378 C 440.442 3.61276 3.89427 0
M  V30 4379 C 439.481 4.82472 3.7668 0
M  V30 4380 N 438.618 4.96717 4.96202 0
M  V30 4381 H 443.458 2.79015 1.04665 0
M  V30 4382 H 440.995 1.38137 0.505618 0
M  V30 4383 H 442.953 2.30349 3.47844 0
M  V30 4384 H 441.583 1.28646 2.96057 0
M  V30 4385 H 440.635 3.37959 1.74607 0
M  V30 4386 H 441.947 4.3265 2.48224 0
M  V30 4387 H 441.101 3.75284 4.76704 0
M  V30 4388 H 439.84 2.70492 4.05814 0
M  V30 4389 H 438.845 4.68465 2.87786 0
M  V30 4390 H 440.07 5.74692 3.61809 0
M  V30 4391 H 438.016 4.08865 5.12997 0
M  V30 4392 H 437.933 5.79738 4.85222 0
M  V30 4393 H 439.201 5.15113 5.85046 0
M  V30 4394 N 443.43 -0.535701 1.48216 0
M  V30 4395 C 444.707 -1.29683 1.46429 0
M  V30 4396 C 445.087 -2.10391 0.172852 0
M  V30 4397 O 444.435 -2.12282 -0.845488 0
M  V30 4398 C 444.645 -2.18313 2.72287 0
M  V30 4399 C 445.993 -2.78639 3.20383 0
M  V30 4400 O 447.017 -2.28604 2.73164 0
M  V30 4401 O 445.876 -3.69636 4.02531 0
M  V30 4402 H 442.97 -0.585026 0.584529 0
M  V30 4403 H 445.516 -0.552827 1.60443 0
M  V30 4404 H 444.288 -1.58421 3.57797 0
M  V30 4405 H 443.911 -2.99971 2.60966 0
M  V30 4406 N 444.908 -1.36708 -0.784132 0
M  V30 4407 C 445.871 -1.31307 -1.87859 0
M  V30 4408 C 446.871 -0.219654 -1.59293 0
M  V30 4409 O 448.061 -0.47476 -1.67606 0
M  V30 4410 C 445.193 -1.03679 -3.24751 0
M  V30 4411 H 446.386 -2.28647 -1.94064 0
M  V30 4412 H 443.939 -1.21558 -0.98252 0
M  V30 4413 H 444.674 -0.0681936 -3.24228 0
M  V30 4414 H 444.459 -1.82811 -3.46876 0
M  V30 4415 H 445.949 -1.02518 -4.04821 0
M  V30 4416 N 446.386 1.0089 -1.21074 0
M  V30 4417 C 447.296 2.13039 -0.982425 0
M  V30 4418 C 448.312 1.73881 0.0642161 0
M  V30 4419 O 449.488 2.01012 -0.12496 0
M  V30 4420 C 446.553 3.42377 -0.545803 0
M  V30 4421 C 445.614 3.95731 -1.6642 0
M  V30 4422 C 444.847 5.18896 -1.24832 0
M  V30 4423 O 445.07 5.70273 -0.120265 0
M  V30 4424 O 444.004 5.65597 -2.05873 0
M  V30 4425 H 447.83 2.35175 -1.92163 0
M  V30 4426 H 445.415 1.1142 -0.995285 0
M  V30 4427 H 447.297 4.20244 -0.311912 0
M  V30 4428 H 445.972 3.21639 0.364727 0
M  V30 4429 H 444.879 3.19108 -1.95246 0
M  V30 4430 H 446.212 4.20872 -2.55201 0
M  V30 4431 N 447.864 1.01787 1.20321 0
M  V30 4432 C 448.774 0.598898 2.26827 0
M  V30 4433 C 449.79 -0.36418 1.70146 0
M  V30 4434 O 450.966 -0.224812 2.00141 0
M  V30 4435 C 448.031 -0.0549769 3.46656 0
M  V30 4436 C 447.092 0.954205 4.18561 0
M  V30 4437 C 446.325 0.331439 5.3267 0
M  V30 4438 O 446.548 -0.86851 5.63749 0
M  V30 4439 O 445.482 1.0488 5.92692 0
M  V30 4440 H 449.308 1.48562 2.64883 0
M  V30 4441 H 446.893 0.787434 1.26964 0
M  V30 4442 H 448.775 -0.420102 4.19301 0
M  V30 4443 H 447.45 -0.915876 3.10473 0
M  V30 4444 H 446.357 1.37072 3.48083 0
M  V30 4445 H 447.69 1.78511 4.58688 0
M  V30 4446 N 449.342 -1.36122 0.79427 0
M  V30 4447 C 450.588 -1.99846 0.378542 0
M  V30 4448 C 450.943 -1.61898 -1.03955 0
M  V30 4449 O 450.236 -0.866013 -1.70912 0
M  V30 4450 C 450.43 -3.5409 0.48527 0
M  V30 4451 C 450.259 -4.0702 1.91219 0
M  V30 4452 C 449.029 -4.36944 2.53787 0
M  V30 4453 C 451.227 -4.26435 2.87502 0
M  V30 4454 N 449.209 -4.75727 3.88017 0
M  V30 4455 C 450.58 -4.68077 4.06576 0
M  V30 4456 C 452.635 -4.08616 2.84495 0
M  V30 4457 C 451.338 -4.93765 5.23057 0
M  V30 4458 C 453.364 -4.35453 4.00169 0
M  V30 4459 C 452.726 -4.77355 5.17988 0
M  V30 4460 H 448.825 -0.759549 0.186034 0
M  V30 4461 H 451.409 -1.65043 1.0329 0
M  V30 4462 H 449.58 -3.88151 -0.139023 0
M  V30 4463 H 451.312 -4.04675 0.0453192 0
M  V30 4464 H 448.067 -4.26822 2.05231 0
M  V30 4465 H 448.491 -4.99396 4.57092 0
M  V30 4466 H 453.133 -3.75373 1.94564 0
M  V30 4467 H 450.851 -5.25887 6.1357 0
M  V30 4468 H 454.437 -4.2323 3.99208 0
M  V30 4469 H 453.317 -4.97718 6.06008 0
M  V30 4470 N 450.82 -0.546701 -1.47814 0
M  V30 4471 C 452.067 -0.0187407 -2.02491 0
M  V30 4472 C 452.395 1.32685 -1.42215 0
M  V30 4473 O 451.65 1.87413 -0.563454 0
M  V30 4474 C 451.949 0.134869 -3.57145 0
M  V30 4475 C 451.615 -1.13849 -4.3629 0
M  V30 4476 C 450.277 -1.48743 -4.57634 0
M  V30 4477 C 452.629 -1.98277 -4.82012 0
M  V30 4478 C 449.957 -2.67932 -5.21948 0
M  V30 4479 C 452.309 -3.16659 -5.4764 0
M  V30 4480 C 450.973 -3.51879 -5.67219 0
M  V30 4481 H 450.243 -0.0068577 -0.740968 0
M  V30 4482 H 452.89 -0.716097 -1.77607 0
M  V30 4483 H 451.195 0.915118 -3.80963 0
M  V30 4484 H 452.892 0.558556 -3.97091 0
M  V30 4485 H 449.482 -0.856767 -4.19949 0
M  V30 4486 H 453.666 -1.72628 -4.6531 0
M  V30 4487 H 448.922 -2.95401 -5.35302 0
M  V30 4488 H 453.096 -3.82374 -5.82033 0
M  V30 4489 H 450.723 -4.44331 -6.16825 0
M  V30 4490 N 452.299 1.55045 -0.282633 0
M  V30 4491 C 453.546 1.9976 0.33199 0
M  V30 4492 C 453.874 1.17105 1.55295 0
M  V30 4493 O 453.129 0.230599 1.94337 0
M  V30 4494 C 453.428 3.49422 0.750938 0
M  V30 4495 C 453.094 4.4941 -0.366228 0
M  V30 4496 C 451.756 4.76471 -0.672964 0
M  V30 4497 C 454.108 5.09054 -1.11864 0
M  V30 4498 C 451.436 5.60442 -1.73556 0
M  V30 4499 C 453.788 5.9418 -2.17102 0
M  V30 4500 C 452.452 6.19558 -2.48402 0
M  V30 4501 H 451.722 0.730974 0.121484 0
M  V30 4502 H 454.369 1.8732 -0.39791 0
M  V30 4503 H 452.674 3.59377 1.56063 0
M  V30 4504 H 454.371 3.81432 1.23736 0
M  V30 4505 H 450.961 4.2844 -0.117041 0
M  V30 4506 H 455.145 4.88165 -0.894925 0
M  V30 4507 H 450.401 5.78349 -1.983 0
M  V30 4508 H 454.575 6.39427 -2.75873 0
M  V30 4509 H 452.202 6.84417 -3.30874 0
M  V30 4510 N 453.777 0.010035 1.57597 0
M  V30 4511 C 455.005 -0.683413 1.95287 0
M  V30 4512 C 455.42 -1.66747 0.885481 0
M  V30 4513 O 454.777 -1.82003 -0.134629 0
M  V30 4514 C 454.828 -1.40652 3.33015 0
M  V30 4515 O 454.549 -0.461916 4.35658 0
M  V30 4516 C 456.05 -2.19356 3.85225 0
M  V30 4517 H 453.27 -0.189708 0.643624 0
M  V30 4518 H 455.814 0.0641359 2.04399 0
M  V30 4519 H 453.969 -2.10562 3.2518 0
M  V30 4520 H 454.383 -0.973215 5.15392 0
M  V30 4521 H 455.857 -2.65433 4.83993 0
M  V30 4522 H 456.334 -3.02457 3.18459 0
M  V30 4523 H 456.94 -1.54442 3.96267 0
M  V30 4524 N 455.255 -1.55392 -0.262866 0
M  V30 4525 C 456.202 -1.88966 -1.32516 0
M  V30 4526 C 457.172 -0.742187 -1.48596 0
M  V30 4527 O 458.357 -0.99439 -1.62839 0
M  V30 4528 C 455.497 -2.17592 -2.67858 0
M  V30 4529 C 454.61 -3.45061 -2.59917 0
M  V30 4530 C 453.745 -3.63336 -3.87505 0
M  V30 4531 C 452.784 -4.84462 -3.74116 0
M  V30 4532 N 451.921 -4.99342 -4.93561 0
M  V30 4533 H 456.761 -2.79566 -1.03184 0
M  V30 4534 H 454.298 -1.38404 -0.498285 0
M  V30 4535 H 456.256 -2.3219 -3.46617 0
M  V30 4536 H 454.886 -1.30215 -2.95371 0
M  V30 4537 H 453.938 -3.38881 -1.72812 0
M  V30 4538 H 455.25 -4.3396 -2.45926 0
M  V30 4539 H 454.404 -3.77807 -4.74707 0
M  V30 4540 H 453.143 -2.72641 -4.04374 0
M  V30 4541 H 452.148 -4.69985 -2.85297 0
M  V30 4542 H 453.373 -5.76603 -3.58757 0
M  V30 4543 H 451.319 -4.1158 -5.10821 0
M  V30 4544 H 451.236 -5.82303 -4.82141 0
M  V30 4545 H 452.504 -5.18208 -5.82306 0
M  V30 4546 N 456.733 0.527833 -1.48498 0
M  V30 4547 C 457.961 1.30823 -1.6029 0
M  V30 4548 C 458.376 1.86945 -0.263974 0
M  V30 4549 O 457.733 1.6651 0.747034 0
M  V30 4550 C 457.784 2.45756 -2.65116 0
M  V30 4551 O 457.505 1.91946 -3.93813 0
M  V30 4552 C 459.006 3.37543 -2.87367 0
M  V30 4553 H 456.226 0.397763 -0.540394 0
M  V30 4554 H 458.77 0.636529 -1.94341 0
M  V30 4555 H 456.925 3.08806 -2.33917 0
M  V30 4556 H 457.339 2.67195 -4.51339 0
M  V30 4557 H 458.813 4.14532 -3.6451 0
M  V30 4558 H 459.29 3.92905 -1.9627 0
M  V30 4559 H 459.896 2.80283 -3.19878 0
M  V30 4560 N 458.211 1.37122 0.776871 0
M  V30 4561 C 459.121 1.34651 1.9211 0
M  V30 4562 C 460.137 0.246824 1.7224 0
M  V30 4563 O 461.313 0.48134 1.95563 0
M  V30 4564 C 458.378 1.14748 3.2716 0
M  V30 4565 C 457.439 2.34308 3.5972 0
M  V30 4566 C 456.672 2.15345 4.88326 0
M  V30 4567 O 456.895 1.13507 5.58992 0
M  V30 4568 O 455.829 3.03414 5.1983 0
M  V30 4569 H 459.655 2.31013 1.97146 0
M  V30 4570 H 457.24 1.17799 0.918901 0
M  V30 4571 H 459.122 1.05616 4.0795 0
M  V30 4572 H 457.797 0.214562 3.22988 0
M  V30 4573 H 456.704 2.49011 2.79185 0
M  V30 4574 H 458.037 3.26149 3.68629 0
M  V30 4575 N 459.689 -1.00246 1.21608 0
M  V30 4576 C 460.599 -2.12515 0.993709 0
M  V30 4577 C 461.615 -1.73913 -0.0549939 0
M  V30 4578 O 462.791 -2.00943 0.135619 0
M  V30 4579 C 459.856 -3.42083 0.563953 0
M  V30 4580 C 458.917 -3.94843 1.68516 0
M  V30 4581 C 458.15 -5.18226 1.27582 0
M  V30 4582 O 458.373 -5.70201 0.150506 0
M  V30 4583 O 457.307 -5.64497 2.0887 0
M  V30 4584 H 461.133 -2.34152 1.93407 0
M  V30 4585 H 458.718 -1.10891 1.00118 0
M  V30 4586 H 460.6 -4.20073 0.334194 0
M  V30 4587 H 459.275 -3.21828 -0.347665 0
M  V30 4588 H 458.182 -3.18068 1.96935 0
M  V30 4589 H 459.515 -4.19512 2.5743 0
M  V30 4590 N 461.167 -1.02423 -1.1978 0
M  V30 4591 C 462.097 -0.62157 -2.25075 0
M  V30 4592 C 463.078 0.367148 -1.6609 0
M  V30 4593 O 464.263 0.250892 -1.92573 0
M  V30 4594 C 461.393 0.0331826 -3.47284 0
M  V30 4595 C 460.347 -0.877323 -4.18912 0
M  V30 4596 C 459.673 -0.0879296 -5.34628 0
M  V30 4597 C 460.973 -2.18892 -4.74219 0
M  V30 4598 H 462.667 -1.50179 -2.59011 0
M  V30 4599 H 460.213 -0.723547 -1.24502 0
M  V30 4600 H 462.166 0.326488 -4.20133 0
M  V30 4601 H 460.89 0.948164 -3.12534 0
M  V30 4602 H 459.549 -1.15475 -3.47938 0
M  V30 4603 H 459.197 0.828941 -4.96123 0
M  V30 4604 H 458.897 -0.694359 -5.83483 0
M  V30 4605 H 460.421 0.198743 -6.10276 0
M  V30 4606 H 461.835 -1.95746 -5.38847 0
M  V30 4607 H 460.232 -2.74686 -5.33542 0
M  V30 4608 H 461.302 -2.84674 -3.92541 0
M  V30 4609 N 462.645 1.35699 -0.801477 0
M  V30 4610 C 463.593 2.3177 -0.196317 0
M  V30 4611 C 464.587 1.56388 0.651081 0
M  V30 4612 O 465.793 1.71557 0.544815 0
M  V30 4613 H 462.168 0.750669 -0.0447189 0
M  V30 4614 H 464.139 2.8036 -1.02181 0
M  V30 4615 C 462.888 3.41671 0.644702 0
M  V30 4616 H 462.211 3.998 0.0019921 0
M  V30 4617 H 463.651 4.11184 1.0346 0
M  V30 4618 C 462.11 2.84271 1.80808 0
M  V30 4619 O 462.64 2.77408 2.9053 0
M  V30 4620 N 460.846 2.41391 1.61799 0
M  V30 4621 H 460.393 2.47173 0.725493 0
M  V30 4622 H 460.351 2.03334 2.39797 0
M  V30 4623 N 464.123 0.554532 1.47522 0
M  V30 4624 C 465.539 0.214107 1.58157 0
M  V30 4625 C 465.739 -1.28331 1.55349 0
M  V30 4626 O 464.795 -2.06329 1.45549 0
M  V30 4627 C 466.108 0.838391 2.88776 0
M  V30 4628 C 467.656 0.809374 3.02354 0
M  V30 4629 C 468.131 1.41268 4.35669 0
M  V30 4630 N 469.622 1.37574 4.42298 0
M  V30 4631 C 470.357 1.8122 5.4401 0
M  V30 4632 N 469.853 2.3271 6.52547 0
M  V30 4633 N 471.646 1.72307 5.35039 0
M  V30 4634 H 463.797 1.52744 1.4759 0
M  V30 4635 H 466.06 0.636812 0.702264 0
M  V30 4636 H 465.766 1.89065 2.96559 0
M  V30 4637 H 465.64 0.329847 3.75755 0
M  V30 4638 H 468.027 -0.234187 2.94169 0
M  V30 4639 H 468.108 1.35565 2.16924 0
M  V30 4640 H 467.752 2.45529 4.4461 0
M  V30 4641 H 467.682 0.841871 5.19827 0
M  V30 4642 H 470.173 0.999081 3.64454 0
M  V30 4643 H 470.486 2.63944 7.26329 0
M  V30 4644 H 468.831 2.36719 6.53444 0
M  V30 4645 H 472.022 1.3186 4.49144 0
M  V30 4646 H 472.195 2.06641 6.14169 0
M  V30 4647 N 465.601 -1.54893 0.290851 0
M  V30 4648 C 466.511 -2.26812 -0.59945 0
M  V30 4649 C 467.527 -1.29963 -1.15696 0
M  V30 4650 O 468.703 -1.62928 -1.18391 0
M  V30 4651 C 465.768 -2.98716 -1.75982 0
M  V30 4652 C 464.829 -4.1108 -1.2374 0
M  V30 4653 C 464.062 -4.79546 -2.34246 0
M  V30 4654 O 464.285 -4.47309 -3.53936 0
M  V30 4655 O 463.219 -5.67165 -2.01512 0
M  V30 4656 H 467.045 -3.03696 -0.0163561 0
M  V30 4657 H 464.63 -1.49289 0.0576755 0
M  V30 4658 H 466.512 -3.43851 -2.43607 0
M  V30 4659 H 465.187 -2.24737 -2.3297 0
M  V30 4660 H 464.094 -3.70367 -0.527163 0
M  V30 4661 H 465.427 -4.87007 -0.71307 0
M  V30 4662 N 467.08 -0.0183926 -1.57589 0
M  V30 4663 C 468.326 0.663543 -1.91638 0
M  V30 4664 C 468.659 1.72392 -0.894134 0
M  V30 4665 O 467.934 1.94316 0.0846449 0
M  V30 4666 C 468.217 1.28984 -3.36207 0
M  V30 4667 C 468.07 0.239761 -4.49161 0
M  V30 4668 C 469.389 2.2109 -3.80536 0
M  V30 4669 H 466.508 0.239746 -0.696915 0
M  V30 4670 H 469.15 -0.073456 -1.89858 0
M  V30 4671 H 467.3 1.91799 -3.37854 0
M  V30 4672 H 468.972 -0.390119 -4.59647 0
M  V30 4673 H 467.215 -0.435972 -4.31604 0
M  V30 4674 H 467.886 0.717383 -5.47319 0
M  V30 4675 H 470.362 1.68273 -3.80557 0
M  V30 4676 H 469.238 2.61869 -4.82406 0
M  V30 4677 H 469.499 3.09764 -3.15434 0
M  V30 4678 N 468.558 1.5553 0.254621 0
M  V30 4679 C 469.521 1.88872 1.29846 0
M  V30 4680 C 470.521 0.764591 1.41459 0
M  V30 4681 O 471.711 1.03265 1.40293 0
M  V30 4682 C 468.843 2.11032 2.67728 0
M  V30 4683 H 470.036 2.82201 1.01502 0
M  V30 4684 H 467.589 1.48303 0.493556 0
M  V30 4685 H 468.324 1.20146 3.01223 0
M  V30 4686 H 468.109 2.92895 2.60682 0
M  V30 4687 H 469.599 2.38038 3.43115 0
M  V30 4688 N 470.036 -0.519951 1.48776 0
M  V30 4689 C 471.264 -1.29971 1.60982 0
M  V30 4690 C 471.679 -1.86803 0.273885 0
M  V30 4691 O 471.036 -1.66904 -0.738193 0
M  V30 4692 C 471.087 -2.44346 2.66415 0
M  V30 4693 O 470.808 -1.89855 3.94825 0
M  V30 4694 C 472.309 -3.36014 2.89153 0
M  V30 4695 H 469.529 -0.394891 0.542496 0
M  V30 4696 H 472.073 -0.626214 1.94676 0
M  V30 4697 H 470.228 -3.07562 2.35552 0
M  V30 4698 H 470.642 -2.64798 4.5275 0
M  V30 4699 H 472.116 -4.12593 3.66703 0
M  V30 4700 H 472.593 -3.91859 1.98351 0
M  V30 4701 H 473.199 -2.78582 3.21359 0
M  V30 4702 N 471.514 -1.37532 -0.769588 0
M  V30 4703 C 472.462 -1.33561 -1.90432 0
M  V30 4704 C 473.456 -0.224027 -1.67912 0
M  V30 4705 O 474.662 -0.392174 -1.75676 0
M  V30 4706 H 471.037 -0.416279 -0.626271 0
M  V30 4707 H 473.008 -2.29348 -1.90899 0
M  V30 4708 C 471.757 -1.16162 -3.27722 0
M  V30 4709 H 471.08 -2.00951 -3.45628 0
M  V30 4710 H 472.52 -1.17434 -4.07413 0
M  V30 4711 C 470.979 0.132583 -3.36639 0
M  V30 4712 O 471.509 1.11539 -3.85904 0
M  V30 4713 N 469.715 0.184013 -2.90017 0
M  V30 4714 H 469.262 -0.616415 -2.50116 0
M  V30 4715 H 469.22 1.04956 -2.96364 0
M  V30 4716 N 472.992 0.995999 -1.22138 0
M  V30 4717 C 474.217 1.77601 -1.0711 0
M  V30 4718 C 474.642 1.84339 0.374264 0
M  V30 4719 O 474 1.29359 1.27028 0
M  V30 4720 C 474.048 3.18897 -1.68336 0
M  V30 4721 O 473.152 4.01663 -0.934928 0
M  V30 4722 H 472.493 0.547011 -0.376397 0
M  V30 4723 H 475.023 1.25137 -1.6187 0
M  V30 4724 H 475.033 3.69539 -1.72931 0
M  V30 4725 H 473.708 3.13308 -2.73516 0
M  V30 4726 H 472.285 3.60204 -0.964751 0
M  V30 4727 N 474.47 1.03057 1.19235 0
M  V30 4728 C 475.38 0.622922 2.26179 0
M  V30 4729 C 476.396 -0.346113 1.70523 0
M  V30 4730 O 477.572 -0.203572 2.00369 0
M  V30 4731 C 474.637 -0.0182063 3.46695 0
M  V30 4732 C 473.698 0.998546 4.17526 0
M  V30 4733 C 472.931 0.387917 5.32288 0
M  V30 4734 O 473.154 -0.808668 5.64639 0
M  V30 4735 O 472.088 1.1116 5.91546 0
M  V30 4736 H 475.914 1.51363 2.63292 0
M  V30 4737 H 473.499 0.800856 1.26122 0
M  V30 4738 H 475.381 -0.375606 4.19723 0
M  V30 4739 H 474.056 -0.882895 3.11427 0
M  V30 4740 H 472.963 1.40756 3.4661 0
M  V30 4741 H 474.296 1.83366 4.56769 0
M  V30 4742 N 475.948 -1.35272 0.808662 0
M  V30 4743 C 476.878 -2.32315 0.234981 0
M  V30 4744 C 477.859 -1.57572 -0.64071 0
M  V30 4745 O 479.044 -1.8563 -0.570551 0
M  V30 4746 C 476.174 -3.41801 -0.615601 0
M  V30 4747 C 475.128 -4.27694 0.161767 0
M  V30 4748 C 474.454 -5.28519 -0.810649 0
M  V30 4749 C 475.754 -5.04231 1.36193 0
M  V30 4750 H 477.448 -2.80543 1.04575 0
M  V30 4751 H 474.994 -1.3488 0.504315 0
M  V30 4752 H 476.947 -4.08693 -1.02702 0
M  V30 4753 H 475.671 -2.92186 -1.45928 0
M  V30 4754 H 474.33 -3.62384 0.554382 0
M  V30 4755 H 473.978 -4.75171 -1.64988 0
M  V30 4756 H 473.678 -5.8686 -0.294822 0
M  V30 4757 H 475.202 -5.98283 -1.22023 0
M  V30 4758 H 476.616 -5.64058 1.02528 0
M  V30 4759 H 475.013 -5.72077 1.81239 0
M  V30 4760 H 476.083 -4.34753 2.14751 0
M  V30 4761 N 477.426 -0.562348 -1.47226 0
M  V30 4762 C 478.672 -0.0402761 -2.0276 0
M  V30 4763 C 479.005 1.30823 -1.43523 0
M  V30 4764 O 478.28 1.85249 -0.592705 0
M  V30 4765 C 478.563 0.047311 -3.60069 0
M  V30 4766 C 478.416 -1.32865 -4.29729 0
M  V30 4767 C 479.735 0.758182 -4.3352 0
M  V30 4768 H 476.854 -0.0161105 -0.736824 0
M  V30 4769 H 479.496 -0.725628 -1.75598 0
M  V30 4770 H 477.646 0.630986 -3.83342 0
M  V30 4771 H 479.318 -1.95593 -4.17781 0
M  V30 4772 H 477.561 -1.90195 -3.89882 0
M  V30 4773 H 478.232 -1.22004 -5.38349 0
M  V30 4774 H 480.708 0.262546 -4.15271 0
M  V30 4775 H 479.584 0.78844 -5.43208 0
M  V30 4776 H 479.845 1.81537 -4.03109 0
M  V30 4777 N 478.904 1.54736 -0.299062 0
M  V30 4778 C 479.836 2.20891 0.61153 0
M  V30 4779 C 480.849 1.20104 1.09904 0
M  V30 4780 O 482.038 1.46707 1.01683 0
M  V30 4781 C 479.138 2.84018 1.84897 0
M  V30 4782 C 478.311 4.10719 1.50428 0
M  V30 4783 C 477.37 4.57667 2.59667 0
M  V30 4784 O 476.396 5.2291 2.24842 0
M  V30 4785 N 477.598 4.29821 3.90172 0
M  V30 4786 H 480.363 2.99666 0.0452001 0
M  V30 4787 H 477.924 1.61446 -0.121178 0
M  V30 4788 H 479.916 3.1236 2.5732 0
M  V30 4789 H 478.486 2.09095 2.32375 0
M  V30 4790 H 477.706 3.89408 0.612781 0
M  V30 4791 H 478.994 4.93223 1.24934 0
M  V30 4792 H 478.392 3.77549 4.21276 0
M  V30 4793 H 476.949 4.62877 4.58899 0
M  V30 4794 N 480.382 0.0267497 1.57577 0
M  V30 4795 C 481.607 -0.666227 1.96408 0
M  V30 4796 C 482.032 -1.65004 0.903071 0
M  V30 4797 O 481.39 -1.80787 -0.136263 0
M  V30 4798 C 481.438 -1.35101 3.34335 0
M  V30 4799 O 480.542 -2.46623 3.30531 0
M  V30 4800 H 479.883 -0.175206 0.640468 0
M  V30 4801 H 482.413 0.0878977 2.04411 0
M  V30 4802 H 482.423 -1.70834 3.70513 0
M  V30 4803 H 481.098 -0.629844 4.11103 0
M  V30 4804 H 479.675 -2.13019 3.06068 0
M  V30 4805 N 481.861 -1.55662 -0.24637 0
M  V30 4806 C 483.109 -1.77168 -0.972411 0
M  V30 4807 C 483.43 -0.590827 -1.85834 0
M  V30 4808 O 482.7 0.393365 -1.9191 0
M  V30 4809 H 481.28 -0.653405 -0.362038 0
M  V30 4810 H 483.942 -1.93101 -0.264189 0
M  V30 4811 H 483.038 -2.68335 -1.59382 0
M  V30 4812 N 483.339 0.512053 -1.4905 0
M  V30 4813 C 484.286 1.6148 -1.64902 0
M  V30 4814 C 485.256 1.58687 -0.490673 0
M  V30 4815 O 486.441 1.76842 -0.71636 0
M  V30 4816 C 483.581 2.99676 -1.71139 0
M  V30 4817 C 482.694 3.12568 -2.98203 0
M  V30 4818 C 481.829 4.4143 -2.95487 0
M  V30 4819 C 480.868 4.47916 -4.17179 0
M  V30 4820 N 480.005 5.68191 -4.12437 0
M  V30 4821 H 484.845 1.47271 -2.59066 0
M  V30 4822 H 482.382 0.716713 -1.28459 0
M  V30 4823 H 484.34 3.79761 -1.72736 0
M  V30 4824 H 482.97 3.12614 -0.804508 0
M  V30 4825 H 482.022 2.25618 -3.06269 0
M  V30 4826 H 483.334 3.1322 -3.88194 0
M  V30 4827 H 482.488 5.29825 -2.95585 0
M  V30 4828 H 481.227 4.43326 -2.03256 0
M  V30 4829 H 480.232 3.57925 -4.17337 0
M  V30 4830 H 481.457 4.47744 -5.1059 0
M  V30 4831 H 479.403 5.7095 -3.23036 0
M  V30 4832 H 479.32 5.70413 -4.96151 0
M  V30 4833 H 480.588 6.58823 -4.16621 0
M  V30 4834 N 484.817 1.37938 0.762283 0
M  V30 4835 C 486.042 1.37059 1.55659 0
M  V30 4836 C 486.467 -0.0396123 1.88058 0
M  V30 4837 O 485.825 -1.01929 1.49934 0
M  V30 4838 C 485.873 2.22494 2.83776 0
M  V30 4839 O 484.977 1.63607 3.78559 0
M  V30 4840 H 484.318 0.467892 0.47114 0
M  V30 4841 H 486.848 1.81587 0.942725 0
M  V30 4842 H 486.858 2.36045 3.32786 0
M  V30 4843 H 485.533 3.24993 2.59524 0
M  V30 4844 H 484.11 1.5915 3.37233 0
M  V30 4845 N 486.295 -0.989507 1.22664 0
M  V30 4846 C 487.205 -2.11449 1.01619 0
M  V30 4847 C 488.221 -1.73962 -0.036545 0
M  V30 4848 O 489.397 -2.00788 0.156924 0
M  V30 4849 C 486.462 -3.41465 0.600204 0
M  V30 4850 C 485.523 -3.93033 1.72695 0
M  V30 4851 C 484.756 -5.16844 1.33071 0
M  V30 4852 O 484.979 -5.7001 0.210975 0
M  V30 4853 O 483.913 -5.6225 2.14845 0
M  V30 4854 H 487.739 -2.32088 1.9588 0
M  V30 4855 H 485.324 -1.09823 1.01289 0
M  V30 4856 H 487.206 -4.19695 0.37873 0
M  V30 4857 H 485.881 -3.22178 -0.313511 0
M  V30 4858 H 484.788 -3.15961 2.00298 0
M  V30 4859 H 486.121 -4.16758 2.61865 0
M  V30 4860 N 487.773 -1.03688 -1.18687 0
M  V30 4861 C 489.022 -0.733235 -1.879 0
M  V30 4862 C 489.335 0.741745 -1.8099 0
M  V30 4863 O 490.541 1.15875 -2.4553 0
M  V30 4864 C 488.997 -1.26127 -3.37076 0
M  V30 4865 C 488.605 -2.76461 -3.52524 0
M  V30 4866 C 490.349 -1.03398 -4.11715 0
M  V30 4867 C 488.256 -3.22642 -4.95637 0
M  V30 4868 H 487.186 -0.270584 -0.703776 0
M  V30 4869 H 489.837 -1.25222 -1.34133 0
M  V30 4870 H 488.219 -0.670165 -3.90288 0
M  V30 4871 H 489.393 -3.41296 -3.09602 0
M  V30 4872 H 487.708 -2.97559 -2.91286 0
M  V30 4873 H 490.305 -1.3542 -5.17267 0
M  V30 4874 H 490.648 0.0289246 -4.1629 0
M  V30 4875 H 491.181 -1.5895 -3.64664 0
M  V30 4876 H 487.92 -4.28296 -4.96228 0
M  V30 4877 H 487.44 -2.62539 -5.39289 0
M  V30 4878 H 489.119 -3.16444 -5.64333 0
M  V30 4879 N 489.251 1.34841 -0.815825 0
M  V30 4880 C 490.476 2.03261 -0.41226 0
M  V30 4881 C 490.901 1.61055 0.971751 0
M  V30 4882 O 490.259 0.7917 1.63101 0
M  V30 4883 C 490.307 3.56914 -0.514289 0
M  V30 4884 O 489.411 4.09728 0.468675 0
M  V30 4885 H 488.752 0.641664 -0.170771 0
M  V30 4886 H 491.282 1.72241 -1.10427 0
M  V30 4887 H 491.292 4.06156 -0.387457 0
M  V30 4888 H 489.967 3.86982 -1.52375 0
M  V30 4889 H 488.544 3.71681 0.301316 0
M  V30 4890 N 490.729 0.570148 1.46925 0
M  V30 4891 C 491.639 -0.173061 2.33961 0
M  V30 4892 C 492.655 -0.898825 1.48987 0
M  V30 4893 O 493.831 -0.864825 1.81887 0
M  V30 4894 C 490.896 -1.18177 3.25937 0
M  V30 4895 C 489.957 -0.462041 4.26806 0
M  V30 4896 C 489.19 -1.4227 5.14388 0
M  V30 4897 O 489.413 -2.65842 5.04662 0
M  V30 4898 O 488.347 -0.940127 5.94513 0
M  V30 4899 H 492.173 0.541216 2.98839 0
M  V30 4900 H 489.758 0.330647 1.45695 0
M  V30 4901 H 491.64 -1.76372 3.82715 0
M  V30 4902 H 490.315 -1.87774 2.63671 0
M  V30 4903 H 489.222 0.161429 3.73752 0
M  V30 4904 H 490.555 0.192719 4.91823 0
M  V30 4905 N 492.207 -1.54576 0.307264 0
M  V30 4906 C 493.137 -2.26708 -0.55907 0
M  V30 4907 C 494.118 -1.26893 -1.1328 0
M  V30 4908 O 495.303 -1.55677 -1.16097 0
M  V30 4909 C 492.433 -3.01259 -1.72801 0
M  V30 4910 C 491.387 -4.08275 -1.28435 0
M  V30 4911 C 490.713 -4.70575 -2.53895 0
M  V30 4912 C 492.013 -5.2068 -0.411038 0
M  V30 4913 H 493.707 -2.9937 0.042576 0
M  V30 4914 H 491.253 -1.43983 0.0219173 0
M  V30 4915 H 493.206 -3.50444 -2.34023 0
M  V30 4916 H 491.93 -2.26187 -2.356 0
M  V30 4917 H 490.589 -3.59949 -0.695161 0
M  V30 4918 H 490.237 -3.92136 -3.15021 0
M  V30 4919 H 489.937 -5.42854 -2.24908 0
M  V30 4920 H 491.461 -5.22527 -3.15908 0
M  V30 4921 H 492.875 -5.65721 -0.929097 0
M  V30 4922 H 491.272 -5.99716 -0.214664 0
M  V30 4923 H 492.342 -4.81629 0.562287 0
M  V30 4924 N 493.685 -0.035106 -1.57561 0
M  V30 4925 C 495.101 0.321334 -1.56332 0
M  V30 4926 C 495.301 1.72509 -1.04129 0
M  V30 4927 O 494.357 2.4287 -0.690694 0
M  V30 4928 C 495.67 0.164469 -3.0025 0
M  V30 4929 C 497.218 0.236786 -3.12103 0
M  V30 4930 C 497.693 0.10864 -4.57871 0
M  V30 4931 N 499.184 0.165433 -4.62904 0
M  V30 4932 C 499.919 0.0901506 -5.73329 0
M  V30 4933 N 499.415 -0.0365606 -6.9279 0
M  V30 4934 N 501.208 0.144572 -5.61914 0
M  V30 4935 H 493.359 -0.952976 -1.89821 0
M  V30 4936 H 495.622 -0.368537 -0.873432 0
M  V30 4937 H 495.328 -0.802746 -3.42416 0
M  V30 4938 H 495.202 0.932194 -3.655 0
M  V30 4939 H 497.589 1.19446 -2.69845 0
M  V30 4940 H 497.67 -0.561419 -2.49563 0
M  V30 4941 H 497.314 -0.845644 -5.00811 0
M  V30 4942 H 497.244 0.925786 -5.18398 0
M  V30 4943 H 499.735 0.263269 -3.76982 0
M  V30 4944 H 500.048 -0.0871487 -7.72751 0
M  V30 4945 H 498.393 -0.0714256 -6.94963 0
M  V30 4946 H 501.584 0.242006 -4.67474 0
M  V30 4947 H 501.757 0.0824413 -6.47948 0
M  V30 4948 N 495.163 1.55791 0.238111 0
M  V30 4949 C 496.579 1.48411 0.587045 0
M  V30 4950 C 496.779 0.72702 1.87927 0
M  V30 4951 O 495.835 0.259942 2.51158 0
M  V30 4952 C 497.148 2.92873 0.681623 0
M  V30 4953 C 498.696 3.03295 0.773363 0
M  V30 4954 C 499.171 4.49082 0.899428 0
M  V30 4955 N 500.662 4.53056 0.964075 0
M  V30 4956 C 501.397 5.63117 1.08104 0
M  V30 4957 N 500.893 6.82969 1.16299 0
M  V30 4958 N 502.686 5.50933 1.11488 0
M  V30 4959 H 494.837 2.0345 -0.610076 0
M  V30 4960 H 497.1 0.924034 -0.211813 0
M  V30 4961 H 496.806 3.51142 -0.19802 0
M  V30 4962 H 496.68 3.43851 1.55069 0
M  V30 4963 H 499.067 2.45101 1.64346 0
M  V30 4964 H 499.148 2.55513 -0.121034 0
M  V30 4965 H 498.792 5.07889 0.0338586 0
M  V30 4966 H 498.722 4.94553 1.809 0
M  V30 4967 H 501.213 3.66737 0.91173 0
M  V30 4968 H 501.526 7.62598 1.25155 0
M  V30 4969 H 499.871 6.85712 1.13241 0
M  V30 4970 H 503.062 4.56231 1.0474 0
M  V30 4971 H 503.235 6.36743 1.20259 0
M  V30 4972 N 496.642 -0.504142 1.49319 0
M  V30 4973 C 497.87 -1.28256 1.62351 0
M  V30 4974 C 498.285 -1.86502 0.293682 0
M  V30 4975 O 497.642 -1.67678 -0.720449 0
M  V30 4976 C 497.693 -2.41507 2.68992 0
M  V30 4977 O 497.414 -1.85656 3.96817 0
M  V30 4978 C 498.915 -3.32929 2.927 0
M  V30 4979 H 496.135 -0.389115 0.546654 0
M  V30 4980 H 498.679 -0.605531 1.95329 0
M  V30 4981 H 496.834 -3.05046 2.38801 0
M  V30 4982 H 497.248 -2.59981 4.55533 0
M  V30 4983 H 498.722 -4.0868 3.71058 0
M  V30 4984 H 499.199 -3.89733 2.02496 0
M  V30 4985 H 499.805 -2.75158 3.24296 0
M  V30 4986 N 498.12 -1.38341 -0.754957 0
M  V30 4987 C 499.053 -1.29837 -1.87663 0
M  V30 4988 C 500.031 -0.175659 -1.61648 0
M  V30 4989 O 501.215 -0.352745 -1.8517 0
M  V30 4990 C 498.342 -1.01141 -3.23246 0
M  V30 4991 C 497.388 -2.15331 -3.6815 0
M  V30 4992 S 498.221 -3.77459 -3.79849 0
M  V30 4993 C 499.377 -3.50948 -5.18253 0
M  V30 4994 H 499.61 -2.24771 -1.9459 0
M  V30 4995 H 497.143 -1.24161 -0.917796 0
M  V30 4996 H 499.101 -0.852687 -4.01546 0
M  V30 4997 H 497.762 -0.0792784 -3.14 0
M  V30 4998 H 496.955 -1.90795 -4.6649 0
M  V30 4999 H 496.557 -2.27304 -2.97 0
M  V30 5000 H 498.849 -3.06977 -6.03963 0
M  V30 5001 H 499.792 -4.48677 -5.47809 0
M  V30 5002 H 500.2 -2.85492 -4.86985 0
M  V30 5003 N 499.598 0.982988 -1.23187 0
M  V30 5004 C 500.53 2.07729 -0.968572 0
M  V30 5005 C 501.543 1.62702 0.0564821 0
M  V30 5006 O 502.732 1.77603 -0.178733 0
M  V30 5007 C 499.832 3.36071 -0.436974 0
M  V30 5008 C 499.005 4.10081 -1.52159 0
M  V30 5009 C 498.064 5.16701 -0.99532 0
M  V30 5010 O 497.09 5.43727 -1.68373 0
M  V30 5011 N 498.292 5.80226 0.178192 0
M  V30 5012 H 501.057 2.30894 -1.9107 0
M  V30 5013 H 498.618 1.14949 -1.1401 0
M  V30 5014 H 500.61 4.04639 -0.0700051 0
M  V30 5015 H 499.18 3.09893 0.410509 0
M  V30 5016 H 498.4 3.36004 -2.06144 0
M  V30 5017 H 499.688 4.56295 -2.25105 0
M  V30 5018 H 499.086 5.60651 0.754096 0
M  V30 5019 H 497.643 6.49982 0.486449 0
M  V30 5020 N 501.076 1.04316 1.18135 0
M  V30 5021 C 502.024 0.630175 2.23901 0
M  V30 5022 C 503.018 -0.344254 1.65865 0
M  V30 5023 O 504.224 -0.211273 1.78756 0
M  V30 5024 H 500.599 0.185578 0.728742 0
M  V30 5025 H 502.57 1.53253 2.56039 0
M  V30 5026 C 501.319 0.011666 3.47698 0
M  V30 5027 H 500.642 0.752526 3.92654 0
M  V30 5028 H 502.082 -0.240046 4.2332 0
M  V30 5029 C 500.541 -1.23913 3.13285 0
M  V30 5030 O 501.071 -2.32959 3.27251 0
M  V30 5031 N 499.277 -1.13338 2.67587 0
M  V30 5032 H 498.824 -0.246006 2.56423 0
M  V30 5033 H 498.782 -1.97116 2.44934 0
M  V30 5034 N 502.554 -1.34406 0.822964 0
M  V30 5035 C 503.484 -2.32052 0.259608 0
M  V30 5036 C 504.465 -1.58243 -0.623961 0
M  V30 5037 O 505.65 -1.86224 -0.55083 0
M  V30 5038 C 502.78 -3.42434 -0.579314 0
M  V30 5039 C 501.734 -4.27499 0.20712 0
M  V30 5040 C 501.06 -5.29349 -0.754547 0
M  V30 5041 C 502.36 -5.02758 1.41533 0
M  V30 5042 H 504.054 -2.79418 1.07545 0
M  V30 5043 H 501.6 -1.34338 0.518593 0
M  V30 5044 H 503.553 -4.0976 -0.983612 0
M  V30 5045 H 502.277 -2.93717 -1.4282 0
M  V30 5046 H 500.936 -3.61776 0.592787 0
M  V30 5047 H 500.584 -4.76895 -1.59939 0
M  V30 5048 H 500.284 -5.8714 -0.232561 0
M  V30 5049 H 501.808 -5.99544 -1.1567 0
M  V30 5050 H 503.222 -5.62938 1.08504 0
M  V30 5051 H 501.619 -5.70123 1.87296 0
M  V30 5052 H 502.689 -4.32451 2.1935 0
M  V30 5053 N 504.032 -0.577932 -1.46621 0
M  V30 5054 C 504.942 0.160651 -2.34049 0
M  V30 5055 C 505.958 0.890911 -1.49462 0
M  V30 5056 O 507.134 0.855166 -1.82343 0
M  V30 5057 C 504.199 1.16447 -3.26559 0
M  V30 5058 C 503.26 0.4394 -4.27045 0
M  V30 5059 C 502.493 1.3954 -5.15135 0
M  V30 5060 O 502.716 2.63162 -5.06065 0
M  V30 5061 O 501.65 0.908585 -5.95003 0
M  V30 5062 H 505.476 -0.557057 -2.98547 0
M  V30 5063 H 503.061 -0.338369 -1.45518 0
M  V30 5064 H 504.943 1.7434 -3.83645 0
M  V30 5065 H 503.618 1.86373 -2.64663 0
M  V30 5066 H 502.525 -0.181247 -3.73661 0
M  V30 5067 H 503.858 -0.218799 -4.91713 0
M  V30 5068 N 505.51 1.54411 -0.315457 0
M  V30 5069 C 506.759 1.99599 0.290395 0
M  V30 5070 C 507.072 1.20746 1.53882 0
M  V30 5071 O 508.278 1.56272 2.22017 0
M  V30 5072 C 506.734 3.5539 0.56797 0
M  V30 5073 C 506.342 4.43068 -0.662945 0
M  V30 5074 C 508.086 4.09067 1.13422 0
M  V30 5075 C 505.993 5.90317 -0.357722 0
M  V30 5076 H 504.923 0.745592 0.112286 0
M  V30 5077 H 507.574 1.78477 -0.426418 0
M  V30 5078 H 505.956 3.72468 1.34476 0
M  V30 5079 H 507.13 4.37765 -1.43869 0
M  V30 5080 H 505.445 4.00238 -1.14884 0
M  V30 5081 H 508.042 5.16663 1.37707 0
M  V30 5082 H 508.385 3.60552 2.08106 0
M  V30 5083 H 508.918 3.95589 0.418805 0
M  V30 5084 H 505.657 6.4301 -1.27351 0
M  V30 5085 H 505.177 5.98592 0.380472 0
M  V30 5086 H 506.856 6.4699 0.0354284 0
M  V30 5087 N 506.988 0.0434614 1.5754 0
M  V30 5088 C 507.898 -0.94893 2.14552 0
M  V30 5089 C 508.914 -1.34707 1.10136 0
M  V30 5090 O 510.09 -1.42557 1.42266 0
M  V30 5091 C 507.155 -2.208 2.67298 0
M  V30 5092 C 506.216 -1.86893 3.86484 0
M  V30 5093 C 505.449 -3.06797 4.36705 0
M  V30 5094 O 505.672 -4.19921 3.86034 0
M  V30 5095 O 504.606 -2.8826 5.28384 0
M  V30 5096 H 508.432 -0.494099 2.99654 0
M  V30 5097 H 506.017 -0.177989 1.48336 0
M  V30 5098 H 507.899 -2.94686 3.01228 0
M  V30 5099 H 506.574 -2.65436 1.85272 0
M  V30 5100 H 505.481 -1.10347 3.57455 0
M  V30 5101 H 506.814 -1.47062 4.69716 0
M  V30 5102 N 508.466 -1.55915 -0.229846 0
M  V30 5103 C 509.396 -1.94754 -1.28815 0
M  V30 5104 C 510.377 -0.814657 -1.49323 0
M  V30 5105 O 511.562 -1.07631 -1.61645 0
M  V30 5106 C 508.692 -2.25705 -2.63959 0
M  V30 5107 C 507.646 -3.41406 -2.5812 0
M  V30 5108 C 506.972 -3.57941 -3.97218 0
M  V30 5109 C 508.272 -4.76616 -2.13623 0
M  V30 5110 H 509.966 -2.83404 -0.965547 0
M  V30 5111 H 507.512 -1.36353 -0.463028 0
M  V30 5112 H 509.465 -2.51467 -3.38146 0
M  V30 5113 H 508.189 -1.339 -2.9789 0
M  V30 5114 H 506.848 -3.1568 -1.86391 0
M  V30 5115 H 506.496 -2.63526 -4.28443 0
M  V30 5116 H 506.196 -4.35757 -3.94195 0
M  V30 5117 H 507.72 -3.86042 -4.73079 0
M  V30 5118 H 509.134 -5.01637 -2.77549 0
M  V30 5119 H 507.531 -5.57655 -2.21677 0
M  V30 5120 H 508.601 -4.7253 -1.08829 0
M  V30 5121 N 509.944 0.496216 -1.49584 0
M  V30 5122 C 510.876 1.61404 -1.62731 0
M  V30 5123 C 511.889 1.54613 -0.50978 0
M  V30 5124 O 513.078 1.60458 -0.782017 0
M  V30 5125 C 510.178 3.00212 -1.57245 0
M  V30 5126 C 509.351 3.32138 -2.84611 0
M  V30 5127 C 508.41 4.5038 -2.72112 0
M  V30 5128 O 507.436 4.51926 -3.46051 0
M  V30 5129 N 508.638 5.50575 -1.83977 0
M  V30 5130 H 511.403 1.50552 -2.59141 0
M  V30 5131 H 508.964 0.684182 -1.46733 0
M  V30 5132 H 510.956 3.77241 -1.4653 0
M  V30 5133 H 509.526 3.04964 -0.686729 0
M  V30 5134 H 508.746 2.4396 -3.09641 0
M  V30 5135 H 510.034 3.50268 -3.69039 0
M  V30 5136 H 509.432 5.52128 -1.23171 0
M  V30 5137 H 507.989 6.26687 -1.79182 0
M  V30 5138 N 511.423 1.38739 0.74761 0
M  V30 5139 C 512.648 1.38702 1.54197 0
M  V30 5140 C 513.073 -0.019664 1.8809 0
M  V30 5141 O 512.431 -1.00333 1.51006 0
M  V30 5142 C 512.479 2.25492 2.814 0
M  V30 5143 O 511.583 1.67613 3.76802 0
M  V30 5144 H 510.924 0.472863 0.466151 0
M  V30 5145 H 513.454 1.82577 0.923413 0
M  V30 5146 H 513.464 2.39561 3.30264 0
M  V30 5147 H 512.139 3.27727 2.56062 0
M  V30 5148 H 510.716 1.62718 3.35526 0
M  V30 5149 N 512.901 -0.976442 1.23707 0
M  V30 5150 C 513.833 -2.07212 0.979574 0
M  V30 5151 C 514.846 -1.6273 -0.0478528 0
M  V30 5152 O 516.035 -1.77506 0.18815 0
M  V30 5153 C 513.135 -3.35835 0.45479 0
M  V30 5154 C 512.308 -4.09268 1.54331 0
M  V30 5155 C 511.367 -5.16166 1.02271 0
M  V30 5156 O 510.393 -5.42827 1.71254 0
M  V30 5157 N 511.595 -5.80313 -0.147419 0
M  V30 5158 H 514.36 -2.29878 1.92292 0
M  V30 5159 H 511.921 -1.14343 1.14618 0
M  V30 5160 H 513.913 -4.04597 0.0914631 0
M  V30 5161 H 512.483 -3.10106 -0.394068 0
M  V30 5162 H 511.703 -3.34906 2.07923 0
M  V30 5163 H 512.991 -4.55095 2.27522 0
M  V30 5164 H 512.389 -5.61043 -0.724353 0
M  V30 5165 H 510.946 -6.50231 -0.451972 0
M  V30 5166 N 514.379 -1.04941 -1.1758 0
M  V30 5167 C 515.309 -0.669172 -2.23706 0
M  V30 5168 C 516.29 0.331835 -1.66832 0
M  V30 5169 O 517.475 0.209988 -1.93061 0
M  V30 5170 C 514.605 -0.0404889 -3.47276 0
M  V30 5171 C 513.559 -0.965983 -4.16957 0
M  V30 5172 C 512.885 -0.201312 -5.34321 0
M  V30 5173 C 514.185 -2.28902 -4.69469 0
M  V30 5174 H 515.879 -1.55639 -2.55767 0
M  V30 5175 H 513.425 -0.749793 -1.22939 0
M  V30 5176 H 515.378 0.237298 -4.20731 0
M  V30 5177 H 514.102 0.881658 -3.14475 0
M  V30 5178 H 512.761 -1.22829 -3.45411 0
M  V30 5179 H 512.409 0.723519 -4.97769 0
M  V30 5180 H 512.109 -0.817968 -5.81879 0
M  V30 5181 H 513.633 0.0692499 -6.10561 0
M  V30 5182 H 515.047 -2.07132 -5.34574 0
M  V30 5183 H 513.444 -2.85942 -5.27596 0
M  V30 5184 H 514.514 -2.92937 -3.86414 0
M  V30 5185 N 515.857 1.33968 -0.830081 0
M  V30 5186 C 517.082 2.02813 -0.433796 0
M  V30 5187 C 517.507 1.62076 0.954614 0
M  V30 5188 O 516.865 0.808955 1.62252 0
M  V30 5189 C 516.913 3.56348 -0.552115 0
M  V30 5190 O 516.017 4.10202 0.425191 0
M  V30 5191 H 515.358 0.639817 -0.177567 0
M  V30 5192 H 517.888 1.7106 -1.12248 0
M  V30 5193 H 517.898 4.05722 -0.430513 0
M  V30 5194 H 516.573 3.85344 -1.56471 0
M  V30 5195 H 515.15 3.71979 0.261878 0
M  V30 5196 N 517.335 0.585699 1.46312 0
M  V30 5197 C 518.268 -0.194257 2.27372 0
M  V30 5198 C 519.246 -0.894116 1.3581 0
M  V30 5199 O 520.43 -0.907402 1.65222 0
M  V30 5200 C 517.557 -1.27901 3.13622 0
M  V30 5201 C 516.603 -0.684666 4.20969 0
M  V30 5202 S 517.436 0.490745 5.33247 0
M  V30 5203 C 518.592 -0.595137 6.23064 0
M  V30 5204 H 518.825 0.493515 2.93175 0
M  V30 5205 H 516.358 0.372666 1.49835 0
M  V30 5206 H 518.316 -1.90008 3.63878 0
M  V30 5207 H 516.977 -1.93875 2.47126 0
M  V30 5208 H 516.17 -1.50015 4.81156 0
M  V30 5209 H 515.772 -0.139204 3.73741 0
M  V30 5210 H 518.064 -1.48002 6.61137 0
M  V30 5211 H 519.007 -0.0299446 7.08094 0
M  V30 5212 H 519.415 -0.900627 5.57269 0
M  V30 5213 N 518.813 -1.54241 0.323641 0
M  V30 5214 C 519.76 -2.24339 -0.542277 0
M  V30 5215 C 520.73 -1.23421 -1.11159 0
M  V30 5216 O 521.915 -1.52104 -1.15192 0
M  V30 5217 C 519.055 -3.00479 -1.69725 0
M  V30 5218 C 518.168 -4.16214 -1.15716 0
M  V30 5219 C 517.303 -4.79884 -2.27783 0
M  V30 5220 C 516.342 -5.87722 -1.71023 0
M  V30 5221 N 515.479 -6.45254 -2.76752 0
M  V30 5222 H 520.319 -2.97935 0.0620613 0
M  V30 5223 H 517.856 -1.47039 0.0423993 0
M  V30 5224 H 519.814 -3.42869 -2.3769 0
M  V30 5225 H 518.444 -2.29217 -2.27288 0
M  V30 5226 H 517.496 -3.78605 -0.369063 0
M  V30 5227 H 518.808 -4.93838 -0.701832 0
M  V30 5228 H 517.962 -5.25243 -3.03651 0
M  V30 5229 H 516.701 -4.01641 -2.76652 0
M  V30 5230 H 515.706 -5.41765 -0.936518 0
M  V30 5231 H 516.931 -6.67863 -1.2303 0
M  V30 5232 H 514.877 -5.69884 -3.24912 0
M  V30 5233 H 514.794 -7.18292 -2.35782 0
M  V30 5234 H 516.062 -6.95269 -3.5245 0
M  V30 5235 N 520.291 -0.0518155 -1.57515 0
M  V30 5236 C 521.254 0.907547 -2.10467 0
M  V30 5237 C 522.254 1.23947 -1.02439 0
M  V30 5238 O 523.444 1.17604 -1.2851 0
M  V30 5239 C 520.576 2.21723 -2.58944 0
M  V30 5240 H 521.769 0.44851 -2.96527 0
M  V30 5241 H 519.322 0.196598 -1.55059 0
M  V30 5242 H 520.057 2.72206 -1.76279 0
M  V30 5243 H 519.842 1.98935 -3.37886 0
M  V30 5244 H 521.332 2.90441 -3.00056 0
M  V30 5245 N 521.769 1.56035 0.221574 0
M  V30 5246 C 522.994 1.83476 0.967026 0
M  V30 5247 C 523.419 0.632139 1.7716 0
M  V30 5248 O 522.777 -0.419082 1.7639 0
M  V30 5249 C 522.825 3.08907 1.86034 0
M  V30 5250 O 521.929 2.876 2.95567 0
M  V30 5251 H 521.27 0.604913 0.273817 0
M  V30 5252 H 523.8 2.03247 0.234893 0
M  V30 5253 H 523.81 3.3901 2.27016 0
M  V30 5254 H 522.485 3.96068 1.26898 0
M  V30 5255 H 521.062 2.6873 2.58532 0
M  V30 5256 N 523.247 -0.488276 1.49845 0
M  V30 5257 C 524.177 -1.59675 1.70371 0
M  V30 5258 C 525.158 -1.60878 0.552473 0
M  V30 5259 O 526.343 -1.77417 0.78973 0
M  V30 5260 C 523.473 -2.98098 1.782 0
M  V30 5261 C 522.427 -3.11761 2.93239 0
M  V30 5262 C 521.753 -4.51661 2.86193 0
M  V30 5263 C 523.053 -2.90589 4.33999 0
M  V30 5264 H 524.747 -1.42752 2.63177 0
M  V30 5265 H 522.293 -0.685317 1.26647 0
M  V30 5266 H 524.246 -3.75555 1.91144 0
M  V30 5267 H 522.97 -3.16138 0.820018 0
M  V30 5268 H 521.629 -2.36732 2.79917 0
M  V30 5269 H 521.277 -4.66595 1.87877 0
M  V30 5270 H 520.977 -4.61742 3.63412 0
M  V30 5271 H 522.501 -5.31162 3.01163 0
M  V30 5272 H 523.915 -3.57807 4.47936 0
M  V30 5273 H 522.312 -3.1213 5.12538 0
M  V30 5274 H 523.382 -1.86595 4.4756 0
M  V30 5275 N 524.725 -1.39134 -0.740242 0
M  V30 5276 C 525.635 -1.39697 -1.88473 0
M  V30 5277 C 526.651 -0.292403 -1.71526 0
M  V30 5278 O 527.827 -0.533021 -1.94219 0
M  V30 5279 C 524.892 -1.23382 -3.24003 0
M  V30 5280 C 523.953 -2.43763 -3.53381 0
M  V30 5281 C 523.186 -2.28216 -4.82445 0
M  V30 5282 O 523.409 -1.28288 -5.55786 0
M  V30 5283 O 522.343 -3.1709 -5.11603 0
M  V30 5284 H 526.169 -2.36159 -1.90952 0
M  V30 5285 H 523.754 -1.20194 -0.887346 0
M  V30 5286 H 525.636 -1.16395 -4.05006 0
M  V30 5287 H 524.311 -0.300121 -3.22306 0
M  V30 5288 H 523.218 -2.56325 -2.72485 0
M  V30 5289 H 524.551 -3.35808 -3.59852 0
M  V30 5290 N 526.204 0.969867 -1.24223 0
M  V30 5291 C 527.152 2.08535 -1.03034 0
M  V30 5292 C 528.146 1.69366 0.0340379 0
M  V30 5293 O 529.352 1.79597 -0.12034 0
M  V30 5294 H 525.727 0.682313 -0.316154 0
M  V30 5295 H 527.698 2.23569 -1.97635 0
M  V30 5296 C 526.447 3.4158 -0.649509 0
M  V30 5297 H 525.77 3.72177 -1.46028 0
M  V30 5298 H 527.21 4.20536 -0.540841 0
M  V30 5299 C 525.669 3.30703 0.643194 0
M  V30 5300 O 526.199 3.64443 1.68951 0
M  V30 5301 N 524.405 2.83841 0.623095 0
M  V30 5302 H 523.952 2.56583 -0.228719 0
M  V30 5303 H 523.91 2.76946 1.48823 0
M  V30 5304 N 527.682 1.05563 1.17022 0
M  V30 5305 C 528.907 0.788437 1.91829 0
M  V30 5306 C 529.332 -0.650356 1.76499 0
M  V30 5307 O 528.69 -1.45229 1.08527 0
M  V30 5308 C 528.738 1.1786 3.40795 0
M  V30 5309 O 527.842 0.312965 4.11211 0
M  V30 5310 H 527.183 0.288794 0.597908 0
M  V30 5311 H 529.713 1.40948 1.48307 0
M  V30 5312 H 529.723 1.14697 3.91546 0
M  V30 5313 H 528.398 2.22666 3.51273 0
M  V30 5314 H 526.975 0.405515 3.70689 0
M  V30 5315 N 529.16 -1.33526 0.837174 0
M  V30 5316 C 530.09 -2.31764 0.284206 0
M  V30 5317 C 531.071 -1.58896 -0.607142 0
M  V30 5318 O 532.256 -1.86798 -0.531047 0
M  V30 5319 C 529.386 -3.43029 -0.542962 0
M  V30 5320 C 528.34 -4.27255 0.252451 0
M  V30 5321 C 527.666 -5.3012 -0.69836 0
M  V30 5322 C 528.966 -5.01229 1.46858 0
M  V30 5323 H 530.66 -2.78262 1.10502 0
M  V30 5324 H 528.206 -1.3378 0.532812 0
M  V30 5325 H 530.159 -4.1078 -0.940096 0
M  V30 5326 H 528.883 -2.95216 -1.39697 0
M  V30 5327 H 527.542 -3.61127 0.631124 0
M  V30 5328 H 527.19 -4.78564 -1.54872 0
M  V30 5329 H 526.89 -5.87353 -0.170274 0
M  V30 5330 H 528.414 -6.00737 -1.09305 0
M  V30 5331 H 529.828 -5.61756 1.14469 0
M  V30 5332 H 528.225 -5.68104 1.93333 0
M  V30 5333 H 529.295 -4.301 2.23924 0
M  V30 5334 N 530.638 -0.59345 -1.46 0
M  V30 5335 C 531.548 0.135817 -2.34207 0
M  V30 5336 C 532.564 0.875008 -1.50398 0
M  V30 5337 O 533.74 0.835778 -1.83239 0
M  V30 5338 C 530.805 1.12977 -3.27776 0
M  V30 5339 C 529.866 0.394081 -4.27487 0
M  V30 5340 C 529.099 1.34068 -5.16586 0
M  V30 5341 O 529.322 2.5778 -5.08828 0
M  V30 5342 O 528.256 0.845426 -5.95933 0
M  V30 5343 H 532.082 -0.588691 -2.9794 0
M  V30 5344 H 529.667 -0.353784 -1.45151 0
M  V30 5345 H 531.549 1.70261 -3.85473 0
M  V30 5346 H 530.224 1.83556 -2.66625 0
M  V30 5347 H 529.131 -0.220869 -3.73447 0
M  V30 5348 H 530.464 -0.270939 -4.91454 0
M  V30 5349 N 532.116 1.54067 -0.331816 0
M  V30 5350 C 533.026 2.28322 0.539104 0
M  V30 5351 C 534.042 1.32985 1.1221 0
M  V30 5352 O 535.218 1.6601 1.1403 0
M  V30 5353 C 532.283 3.03277 1.68 0
M  V30 5354 C 531.344 4.14216 1.12798 0
M  V30 5355 C 530.577 4.85588 2.2145 0
M  V30 5356 O 530.8 4.56536 3.41952 0
M  V30 5357 O 529.734 5.72309 1.86404 0
M  V30 5358 H 533.56 3.03632 -0.0641692 0
M  V30 5359 H 531.145 1.49083 -0.0972365 0
M  V30 5360 H 533.027 3.50189 2.34405 0
M  V30 5361 H 531.702 2.30834 2.2693 0
M  V30 5362 H 530.609 3.71635 0.428782 0
M  V30 5363 H 531.942 4.88727 0.583698 0
M  V30 5364 N 533.594 0.0601682 1.57485 0
M  V30 5365 C 534.822 -0.620937 1.97363 0
M  V30 5366 C 535.237 -1.63846 0.938082 0
M  V30 5367 O 534.594 -1.82339 -0.0766578 0
M  V30 5368 C 534.645 -1.29987 3.37321 0
M  V30 5369 O 534.366 -0.323081 4.36907 0
M  V30 5370 C 535.867 -2.06989 3.92008 0
M  V30 5371 H 533.087 -0.169135 0.649334 0
M  V30 5372 H 535.631 0.129132 2.04092 0
M  V30 5373 H 533.786 -2.0011 3.31715 0
M  V30 5374 H 534.2 -0.808754 5.18227 0
M  V30 5375 H 535.674 -2.49901 4.92192 0
M  V30 5376 H 536.151 -2.92173 3.2792 0
M  V30 5377 H 536.757 -1.41757 4.0098 0
M  V30 5378 N 535.072 -1.5615 -0.213296 0
M  V30 5379 C 536.019 -1.93086 -1.26437 0
M  V30 5380 C 536.989 -0.789086 -1.4616 0
M  V30 5381 O 538.174 -1.04569 -1.59593 0
M  V30 5382 C 535.314 -2.26003 -2.608 0
M  V30 5383 C 534.427 -3.53156 -2.48807 0
M  V30 5384 C 533.562 -3.7548 -3.7575 0
M  V30 5385 C 532.601 -4.96119 -3.58514 0
M  V30 5386 N 531.738 -5.14791 -4.77425 0
M  V30 5387 H 536.578 -2.82707 -0.942376 0
M  V30 5388 H 534.115 -1.39919 -0.454001 0
M  V30 5389 H 536.073 -2.431 -3.39055 0
M  V30 5390 H 534.703 -1.39546 -2.91079 0
M  V30 5391 H 533.755 -3.44207 -1.61944 0
M  V30 5392 H 535.067 -4.41565 -2.31996 0
M  V30 5393 H 534.221 -3.92718 -4.62447 0
M  V30 5394 H 532.96 -2.85368 -3.95495 0
M  V30 5395 H 531.965 -4.78823 -2.70201 0
M  V30 5396 H 533.19 -5.87724 -3.40231 0
M  V30 5397 H 531.136 -4.27623 -4.97468 0
M  V30 5398 H 531.053 -5.97347 -4.63371 0
M  V30 5399 H 532.321 -5.36471 -5.65525 0
M  V30 5400 N 536.55 0.480323 -1.50102 0
M  V30 5401 C 537.798 1.23063 -1.60312 0
M  V30 5402 C 538.119 1.92659 -0.301226 0
M  V30 5403 O 537.389 1.83691 0.680753 0
M  V30 5404 H 535.969 0.457231 -0.590719 0
M  V30 5405 H 538.631 0.554893 -1.86834 0
M  V30 5406 H 537.727 1.9835 -2.40964 0
M  V30 5407 N 538.028 1.39524 0.732853 0
M  V30 5408 C 539.444 1.21176 1.03868 0
M  V30 5409 C 539.644 0.0748448 2.01361 0
M  V30 5410 O 538.7 -0.57281 2.45917 0
M  V30 5411 C 540.013 2.54667 1.59892 0
M  V30 5412 C 541.561 2.6153 1.71962 0
M  V30 5413 C 542.036 3.95248 2.31394 0
M  V30 5414 N 543.527 3.96899 2.38801 0
M  V30 5415 C 544.262 4.97138 2.85729 0
M  V30 5416 N 543.758 6.07775 3.32537 0
M  V30 5417 N 545.551 4.84516 2.84957 0
M  V30 5418 H 537.702 2.12225 0.086304 0
M  V30 5419 H 539.965 0.942614 0.100907 0
M  V30 5420 H 539.671 3.38423 0.95721 0
M  V30 5421 H 539.545 2.74538 2.58668 0
M  V30 5422 H 541.932 1.78156 2.35254 0
M  V30 5423 H 542.013 2.45507 0.718327 0
M  V30 5424 H 541.657 4.79054 1.68729 0
M  V30 5425 H 541.587 4.08593 3.32204 0
M  V30 5426 H 544.078 3.16998 2.05719 0
M  V30 5427 H 544.391 6.8017 3.66862 0
M  V30 5428 H 542.736 6.11366 3.30541 0
M  V30 5429 H 545.927 3.97185 2.47713 0
M  V30 5430 H 546.1 5.62783 3.21215 0
M  V30 5431 N 539.506 -0.963266 1.24736 0
M  V30 5432 C 540.736 -1.73913 1.11524 0
M  V30 5433 C 541.144 -1.86218 -0.334612 0
M  V30 5434 O 540.487 -1.3531 -1.24245 0
M  V30 5435 C 540.549 -3.17501 1.68622 0
M  V30 5436 C 540.213 -3.28655 3.17546 0
M  V30 5437 C 541.21 -3.13637 4.14642 0
M  V30 5438 C 538.895 -3.52753 3.5759 0
M  V30 5439 C 540.889 -3.2255 5.49764 0
M  V30 5440 C 538.576 -3.61303 4.92852 0
M  V30 5441 C 539.574 -3.46214 5.88748 0
M  V30 5442 O 539.262 -3.5443 7.2155 0
M  V30 5443 H 538.994 -0.552057 0.390139 0
M  V30 5444 H 541.548 -1.2177 1.65412 0
M  V30 5445 H 539.778 -3.70969 1.09172 0
M  V30 5446 H 541.467 -3.76914 1.50635 0
M  V30 5447 H 542.233 -2.94899 3.85045 0
M  V30 5448 H 538.112 -3.63561 2.83451 0
M  V30 5449 H 541.656 -3.1069 6.24594 0
M  V30 5450 H 537.553 -3.79556 5.22118 0
M  V30 5451 H 538.321 -3.71116 7.29531 0
M  V30 5452 N 540.985 -1.06182 -1.16461 0
M  V30 5453 C 542.225 -0.787048 -1.8864 0
M  V30 5454 C 542.589 0.674093 -1.79778 0
M  V30 5455 O 543.79 1.06341 -2.46871 0
M  V30 5456 C 542.061 -1.2666 -3.34203 0
M  V30 5457 S 543.62 -1.12071 -4.24247 0
M  V30 5458 H 540.438 -0.285539 -0.651144 0
M  V30 5459 H 543.04 -1.35851 -1.40587 0
M  V30 5460 H 541.744 -2.32496 -3.38192 0
M  V30 5461 H 541.275 -0.689841 -3.87304 0
M  V30 5462 H 543.29 -0.0509341 -4.96174 0
M  V30 5463 N 542.463 1.3308 -0.844243 0
M  V30 5464 C 543.396 2.27075 -0.226279 0
M  V30 5465 C 544.374 1.49911 0.629716 0
M  V30 5466 O 545.558 1.79068 0.588803 0
M  V30 5467 C 542.685 3.31767 0.681782 0
M  V30 5468 C 541.731 4.26384 -0.0994565 0
M  V30 5469 S 542.564 5.15186 -1.46094 0
M  V30 5470 C 543.72 6.23405 -0.558319 0
M  V30 5471 H 543.953 2.79141 -1.02312 0
M  V30 5472 H 541.486 1.40452 -0.641292 0
M  V30 5473 H 543.444 3.92566 1.20008 0
M  V30 5474 H 542.105 2.78507 1.45234 0
M  V30 5475 H 541.298 5.00514 0.591733 0
M  V30 5476 H 540.9 3.69949 -0.548991 0
M  V30 5477 H 543.192 6.77069 0.241672 0
M  V30 5478 H 544.135 6.96619 -1.26995 0
M  V30 5479 H 544.543 5.64333 -0.13728 0
M  V30 5480 N 543.941 0.601185 1.45683 0
M  V30 5481 C 544.873 -0.159446 2.28645 0
M  V30 5482 C 545.886 -0.837882 1.39583 0
M  V30 5483 O 547.075 -0.704344 1.64016 0
M  V30 5484 C 544.175 -1.24641 3.15147 0
M  V30 5485 C 543.348 -0.656334 4.32448 0
M  V30 5486 C 542.407 -1.63337 5.00208 0
M  V30 5487 O 541.433 -1.16217 5.57209 0
M  V30 5488 N 542.635 -2.96773 4.98905 0
M  V30 5489 H 545.4 0.5524 2.94565 0
M  V30 5490 H 542.961 0.440223 1.558 0
M  V30 5491 H 544.953 -1.8997 3.57342 0
M  V30 5492 H 543.523 -1.86087 2.51178 0
M  V30 5493 H 542.743 0.174879 3.93812 0
M  V30 5494 H 544.031 -0.242211 5.08223 0
M  V30 5495 H 543.429 -3.37662 4.53873 0
M  V30 5496 H 541.986 -3.57541 5.44984 0
M  V30 5497 N 545.419 -1.53889 0.339982 0
M  V30 5498 C 546.349 -2.27843 -0.510856 0
M  V30 5499 C 547.33 -1.29267 -1.10563 0
M  V30 5500 O 548.515 -1.58104 -1.12768 0
M  V30 5501 C 545.645 -3.04857 -1.66372 0
M  V30 5502 C 544.599 -4.10907 -1.19746 0
M  V30 5503 C 543.925 -4.75855 -2.43857 0
M  V30 5504 C 545.225 -5.21435 -0.300501 0
M  V30 5505 H 546.919 -2.99212 0.106067 0
M  V30 5506 H 544.465 -1.43904 0.0524533 0
M  V30 5507 H 546.418 -3.5533 -2.26537 0
M  V30 5508 H 545.142 -2.31133 -2.30749 0
M  V30 5509 H 543.801 -3.61342 -0.618654 0
M  V30 5510 H 543.449 -3.9873 -3.06633 0
M  V30 5511 H 543.149 -5.47502 -2.13343 0
M  V30 5512 H 544.673 -5.2911 -3.04754 0
M  V30 5513 H 546.087 -5.67565 -0.80889 0
M  V30 5514 H 544.484 -6.00036 -0.0874076 0
M  V30 5515 H 545.554 -4.80328 0.664321 0
M  V30 5516 N 546.897 -0.0685191 -1.57451 0
M  V30 5517 C 547.86 0.885173 -2.11417 0
M  V30 5518 C 548.86 1.22853 -1.03748 0
M  V30 5519 O 550.05 1.16235 -1.2975 0
M  V30 5520 C 547.182 2.18964 -2.61281 0
M  V30 5521 H 548.375 0.417034 -2.96986 0
M  V30 5522 H 545.928 0.18014 -1.55258 0
M  V30 5523 H 546.663 2.70321 -1.79156 0
M  V30 5524 H 546.448 1.9534 -3.39977 0
M  V30 5525 H 547.938 2.87242 -3.0312 0
M  V30 5526 N 548.375 1.56261 0.205012 0
M  V30 5527 C 549.307 1.90266 1.27795 0
M  V30 5528 C 550.32 0.792397 1.42214 0
M  V30 5529 O 551.509 1.07077 1.42817 0
M  V30 5530 C 548.609 2.11074 2.65143 0
M  V30 5531 C 547.782 3.42176 2.7246 0
M  V30 5532 C 546.841 3.52216 3.90936 0
M  V30 5533 O 545.867 4.25119 3.78501 0
M  V30 5534 N 547.069 2.84573 5.05963 0
M  V30 5535 H 549.834 2.82896 0.989434 0
M  V30 5536 H 547.395 1.57008 0.394981 0
M  V30 5537 H 549.387 2.15089 3.4281 0
M  V30 5538 H 547.957 1.2499 2.86524 0
M  V30 5539 H 547.177 3.50116 1.81142 0
M  V30 5540 H 548.465 4.28509 2.74331 0
M  V30 5541 H 547.863 2.25152 5.18963 0
M  V30 5542 H 546.42 2.94228 5.81613 0
M  V30 5543 N 549.853 -0.472356 1.50355 0
M  V30 5544 C 551.102 -1.2213 1.60522 0
M  V30 5545 C 551.415 -1.9312 0.310466 0
M  V30 5546 O 552.621 -2.69936 0.291029 0
M  V30 5547 C 551.077 -2.21909 2.83345 0
M  V30 5548 C 550.685 -1.56727 4.19691 0
M  V30 5549 C 552.429 -2.97453 3.02856 0
M  V30 5550 C 550.336 -2.54785 5.33703 0
M  V30 5551 H 549.266 -0.459543 0.597776 0
M  V30 5552 H 551.917 -0.491922 1.76783 0
M  V30 5553 H 550.299 -2.98133 2.60639 0
M  V30 5554 H 551.473 -0.863007 4.52646 0
M  V30 5555 H 549.788 -0.934685 4.05774 0
M  V30 5556 H 552.385 -3.70838 3.85205 0
M  V30 5557 H 552.728 -3.56764 2.14534 0
M  V30 5558 H 553.261 -2.28342 3.25737 0
M  V30 5559 H 550 -2.00214 6.24175 0
M  V30 5560 H 549.52 -3.23367 5.05167 0
M  V30 5561 H 551.199 -3.16639 5.64224 0
M  V30 5562 N 551.331 -1.39911 -0.725443 0
M  V30 5563 C 552.263 -1.35301 -1.85003 0
M  V30 5564 C 553.276 -0.260102 -1.60709 0
M  V30 5565 O 554.465 -0.519749 -1.70766 0
M  V30 5566 C 551.565 -1.08039 -3.21218 0
M  V30 5567 C 550.738 -2.28793 -3.7279 0
M  V30 5568 C 549.797 -1.97841 -4.87591 0
M  V30 5569 O 548.823 -2.70616 -5.00755 0
M  V30 5570 N 550.025 -0.950367 -5.72668 0
M  V30 5571 H 552.79 -2.32218 -1.89459 0
M  V30 5572 H 550.351 -1.34137 -0.90658 0
M  V30 5573 H 552.343 -0.853354 -3.95601 0
M  V30 5574 H 550.913 -0.198229 -3.11971 0
M  V30 5575 H 550.133 -2.67388 -2.8965 0
M  V30 5576 H 551.421 -3.09317 -4.03981 0
M  V30 5577 H 550.819 -0.347436 -5.64632 0
M  V30 5578 H 549.376 -0.783232 -6.47077 0
M  V30 5579 N 552.809 0.956637 -1.25245 0
M  V30 5580 C 553.719 2.0868 -1.0719 0
M  V30 5581 C 554.735 1.73997 -0.00959074 0
M  V30 5582 O 555.911 2.00301 -0.210104 0
M  V30 5583 C 552.976 3.39754 -0.690526 0
M  V30 5584 C 552.037 3.88316 -1.83055 0
M  V30 5585 C 551.27 5.13134 -1.46728 0
M  V30 5586 O 551.493 5.6925 -0.362029 0
M  V30 5587 O 550.427 5.56356 -2.29677 0
M  V30 5588 H 554.253 2.26813 -2.01965 0
M  V30 5589 H 551.838 1.07098 -1.04165 0
M  V30 5590 H 553.72 4.18543 -0.489871 0
M  V30 5591 H 552.395 3.22896 0.227981 0
M  V30 5592 H 551.302 3.1054 -2.08604 0
M  V30 5593 H 552.635 4.09669 -2.72822 0
M  V30 5594 N 554.287 1.06798 1.15896 0
M  V30 5595 C 555.22 0.627503 2.19403 0
M  V30 5596 C 556.198 -0.352352 1.58736 0
M  V30 5597 O 557.382 -0.260111 1.86697 0
M  V30 5598 C 554.509 -0.079356 3.38607 0
M  V30 5599 C 553.555 0.858057 4.17779 0
M  V30 5600 S 554.388 2.35605 4.80885 0
M  V30 5601 C 555.544 1.66083 6.03463 0
M  V30 5602 H 555.777 1.50441 2.56427 0
M  V30 5603 H 553.31 0.881427 1.26768 0
M  V30 5604 H 555.268 -0.48095 4.07673 0
M  V30 5605 H 553.929 -0.932524 2.99938 0
M  V30 5606 H 553.122 0.310108 5.03045 0
M  V30 5607 H 552.724 1.19977 3.54234 0
M  V30 5608 H 555.016 0.969337 6.7053 0
M  V30 5609 H 555.959 2.49159 6.62816 0
M  V30 5610 H 556.367 1.14122 5.52844 0
M  V30 5611 N 555.766 -1.3263 0.851289 0
M  V30 5612 C 557.015 -1.96633 0.449267 0
M  V30 5613 C 557.328 -1.68131 -0.999562 0
M  V30 5614 O 558.534 -2.25845 -1.50685 0
M  V30 5615 C 556.99 -3.51946 0.752446 0
M  V30 5616 C 556.598 -3.89311 2.21678 0
M  V30 5617 C 558.342 -4.22437 0.417983 0
M  V30 5618 C 556.249 -5.37655 2.46336 0
M  V30 5619 H 555.179 -0.735888 0.164269 0
M  V30 5620 H 557.83 -1.51073 1.0416 0
M  V30 5621 H 556.212 -3.95899 0.0895858 0
M  V30 5622 H 557.386 -3.56378 2.92115 0
M  V30 5623 H 555.701 -3.31836 2.51543 0
M  V30 5624 H 558.298 -5.31549 0.579674 0
M  V30 5625 H 558.641 -4.11349 -0.640115 0
M  V30 5626 H 559.174 -3.84057 1.03659 0
M  V30 5627 H 555.913 -5.5376 3.50757 0
M  V30 5628 H 555.433 -5.72005 1.80473 0
M  V30 5629 H 557.112 -6.04695 2.30115 0
M  V30 5630 N 557.244 -0.608902 -1.45362 0
M  V30 5631 C 558.492 -0.104401 -2.0183 0
M  V30 5632 C 558.813 1.27007 -1.47967 0
M  V30 5633 O 558.083 1.83924 -0.674455 0
M  V30 5634 H 556.663 -0.0356042 -0.746151 0
M  V30 5635 H 559.325 -0.790596 -1.78145 0
M  V30 5636 H 558.421 -0.0551793 -3.12051 0
M  V30 5637 N 558.722 1.53707 -0.348139 0
M  V30 5638 C 559.947 2.05877 0.250883 0
M  V30 5639 C 560.372 1.22115 1.43072 0
M  V30 5640 O 559.73 0.235986 1.79758 0
M  V30 5641 C 559.778 3.54886 0.639416 0
M  V30 5642 O 558.882 3.73948 1.73888 0
M  V30 5643 H 558.223 0.662754 0.040653 0
M  V30 5644 H 560.753 1.98303 -0.503685 0
M  V30 5645 H 560.763 3.97601 0.915295 0
M  V30 5646 H 559.438 4.153 -0.223386 0
M  V30 5647 H 558.015 3.43134 1.45991 0
M  V30 5648 N 560.2 0.0768682 1.57412 0
M  V30 5649 C 561.446 -0.591961 1.93968 0
M  V30 5650 C 561.779 -1.68954 0.9575 0
M  V30 5651 O 561.054 -1.94496 -0.0124675 0
M  V30 5652 C 561.337 -1.16418 3.40762 0
M  V30 5653 C 561.19 -0.0728933 4.49741 0
M  V30 5654 C 562.509 -2.06814 3.88479 0
M  V30 5655 H 559.628 -0.213716 0.705333 0
M  V30 5656 H 562.27 0.14387 1.89455 0
M  V30 5657 H 560.42 -1.79128 3.4474 0
M  V30 5658 H 562.092 0.560446 4.57883 0
M  V30 5659 H 560.335 0.595859 4.29688 0
M  V30 5660 H 561.006 -0.513755 5.49604 0
M  V30 5661 H 563.482 -1.54033 3.8654 0
M  V30 5662 H 562.358 -2.43785 4.91793 0
M  V30 5663 H 562.619 -2.97844 3.26713 0
M  V30 5664 N 561.678 -1.56367 -0.196722 0
M  V30 5665 C 562.588 -1.97617 -1.2643 0
M  V30 5666 C 563.604 -0.883598 -1.49895 0
M  V30 5667 O 564.78 -1.18921 -1.62541 0
M  V30 5668 C 561.845 -2.30595 -2.58895 0
M  V30 5669 C 560.906 -3.53551 -2.43516 0
M  V30 5670 C 560.139 -3.84946 -3.69665 0
M  V30 5671 O 560.362 -3.17655 -4.73763 0
M  V30 5672 O 559.296 -4.78379 -3.65291 0
M  V30 5673 H 563.122 -2.88648 -0.944233 0
M  V30 5674 H 560.707 -1.43901 -0.401592 0
M  V30 5675 H 562.589 -2.52889 -3.37083 0
M  V30 5676 H 561.264 -1.42732 -2.90533 0
M  V30 5677 H 560.171 -3.36507 -1.63445 0
M  V30 5678 H 561.504 -4.41875 -2.16812 0
M  V30 5679 N 563.156 0.464375 -1.50603 0
M  V30 5680 C 564.066 1.58723 -1.72754 0
M  V30 5681 C 565.082 1.62925 -0.610844 0
M  V30 5682 O 566.258 1.8067 -0.889963 0
M  V30 5683 C 563.323 2.94897 -1.82309 0
M  V30 5684 C 562.384 3.0103 -3.06071 0
M  V30 5685 C 561.617 4.30708 -3.1516 0
M  V30 5686 O 561.84 5.2159 -2.30868 0
M  V30 5687 O 560.774 4.42571 -4.0794 0
M  V30 5688 H 564.6 1.42954 -2.67951 0
M  V30 5689 H 562.185 0.644579 -1.3478 0
M  V30 5690 H 564.067 3.75764 -1.90735 0
M  V30 5691 H 562.742 3.10851 -0.902967 0
M  V30 5692 H 561.649 2.19217 -3.03142 0
M  V30 5693 H 562.982 2.90014 -3.97684 0
M  V30 5694 N 564.634 1.40294 0.718013 0
M  V30 5695 C 565.566 1.36281 1.84283 0
M  V30 5696 C 566.579 0.268621 1.60569 0
M  V30 5697 O 567.768 0.528798 1.70487 0
M  V30 5698 C 564.868 1.09741 3.2064 0
M  V30 5699 C 564.041 2.30767 3.71571 0
M  V30 5700 C 563.1 2.00424 4.86535 0
M  V30 5701 O 562.126 2.73268 4.99313 0
M  V30 5702 N 563.328 0.980724 5.72156 0
M  V30 5703 H 566.093 2.3322 1.88225 0
M  V30 5704 H 563.654 1.34616 0.899453 0
M  V30 5705 H 565.646 0.874322 3.95143 0
M  V30 5706 H 564.216 0.214771 3.11861 0
M  V30 5707 H 563.436 2.68921 2.88228 0
M  V30 5708 H 564.724 3.11455 4.02335 0
M  V30 5709 H 564.122 0.377375 5.6444 0
M  V30 5710 H 562.679 0.817538 6.46653 0
M  V30 5711 N 566.112 -0.949982 1.2575 0
M  V30 5712 C 567.042 -2.06483 1.09028 0
M  V30 5713 C 568.023 -1.701 -0.00201532 0
M  V30 5714 O 569.208 -1.93469 0.168383 0
M  V30 5715 C 566.338 -3.39899 0.71316 0
M  V30 5716 C 565.292 -3.90309 1.75621 0
M  V30 5717 C 564.618 -5.20274 1.23365 0
M  V30 5718 C 565.918 -4.16169 3.15596 0
M  V30 5719 H 567.612 -2.20731 2.02283 0
M  V30 5720 H 565.158 -1.06066 0.973964 0
M  V30 5721 H 567.111 -4.17346 0.58309 0
M  V30 5722 H 565.835 -3.25602 -0.255091 0
M  V30 5723 H 564.494 -3.15035 1.8748 0
M  V30 5724 H 564.142 -5.02351 0.255491 0
M  V30 5725 H 563.842 -5.54971 1.93082 0
M  V30 5726 H 565.366 -6.00314 1.11607 0
M  V30 5727 H 566.78 -4.84259 3.06864 0
M  V30 5728 H 565.177 -4.62131 3.82825 0
M  V30 5729 H 566.247 -3.22273 3.6231 0
M  V30 5730 N 567.59 -1.07411 -1.15328 0
M  V30 5731 C 568.553 -0.698914 -2.18284 0
M  V30 5732 C 569.553 0.261149 -1.58665 0
M  V30 5733 O 570.743 0.0420277 -1.74149 0
M  V30 5734 C 567.875 -0.0302427 -3.40887 0
M  V30 5735 H 569.068 -1.61045 -2.52991 0
M  V30 5736 H 566.621 -0.870724 -1.298 0
M  V30 5737 H 567.356 0.893505 -3.11748 0
M  V30 5738 H 567.141 -0.720759 -3.85419 0
M  V30 5739 H 568.631 0.21759 -4.17033 0
M  V30 5740 N 569.068 1.32177 -0.85831 0
M  V30 5741 C 570 2.27688 -0.262835 0
M  V30 5742 C 571.013 1.52588 0.567513 0
M  V30 5743 O 572.202 1.74156 0.391407 0
M  V30 5744 C 569.302 3.32668 0.646937 0
M  V30 5745 C 568.475 4.37148 -0.148372 0
M  V30 5746 C 567.534 5.21686 0.687728 0
M  V30 5747 O 566.56 5.69074 0.119934 0
M  V30 5748 N 567.762 5.44892 2.00182 0
M  V30 5749 H 570.527 2.79426 -1.08356 0
M  V30 5750 H 568.088 1.45076 -0.718647 0
M  V30 5751 H 570.08 3.86134 1.2117 0
M  V30 5752 H 568.65 2.81061 1.36834 0
M  V30 5753 H 567.87 3.83915 -0.894572 0
M  V30 5754 H 569.158 5.04038 -0.694514 0
M  V30 5755 H 568.556 5.08128 2.4864 0
M  V30 5756 H 567.113 6.0134 2.51463 0
M  V30 5757 N 570.547 0.616602 1.45037 0
M  V30 5758 C 571.477 -0.0840787 2.33349 0
M  V30 5759 C 572.458 -0.849641 1.4736 0
M  V30 5760 O 573.643 -0.818407 1.76113 0
M  V30 5761 C 570.773 -1.07604 3.3021 0
M  V30 5762 C 569.727 -0.423096 4.25904 0
M  V30 5763 C 569.053 -1.52394 5.12523 0
M  V30 5764 C 570.353 0.661457 5.18095 0
M  V30 5765 H 572.047 0.653333 2.92185 0
M  V30 5766 H 569.593 0.315634 1.40498 0
M  V30 5767 H 571.546 -1.57485 3.90866 0
M  V30 5768 H 570.27 -1.84416 2.69552 0
M  V30 5769 H 568.929 0.05493 3.66559 0
M  V30 5770 H 568.577 -2.28257 4.48227 0
M  V30 5771 H 568.277 -1.09251 5.77354 0
M  V30 5772 H 569.801 -2.02485 5.76049 0
M  V30 5773 H 571.215 0.246353 5.7277 0
M  V30 5774 H 569.612 1.01517 5.91451 0
M  V30 5775 H 570.682 1.53446 4.59981 0
M  V30 5776 N 572.025 -1.5352 0.356285 0
M  V30 5777 C 573.441 -1.59599 0.00485267 0
M  V30 5778 C 573.641 -1.37179 -1.47595 0
M  V30 5779 O 572.697 -1.17234 -2.23635 0
M  V30 5780 C 574.01 -2.97277 0.452454 0
M  V30 5781 C 575.558 -3.10357 0.405881 0
M  V30 5782 C 576.033 -4.50432 0.829148 0
M  V30 5783 N 577.524 -4.5652 0.783838 0
M  V30 5784 C 578.259 -5.63077 1.08315 0
M  V30 5785 N 577.755 -6.77429 1.45126 0
M  V30 5786 N 579.548 -5.53014 1.00655 0
M  V30 5787 H 571.699 -1.66346 1.32071 0
M  V30 5788 H 573.962 -0.77971 0.539218 0
M  V30 5789 H 573.668 -3.18792 1.48542 0
M  V30 5790 H 573.542 -3.76836 -0.165762 0
M  V30 5791 H 575.929 -2.88558 -0.617934 0
M  V30 5792 H 576.01 -2.32828 1.05947 0
M  V30 5793 H 575.654 -4.72968 1.85103 0
M  V30 5794 H 575.584 -5.26378 0.152906 0
M  V30 5795 H 578.075 -3.74408 0.512513 0
M  V30 5796 H 578.388 -7.54669 1.66415 0
M  V30 5797 H 576.733 -6.78844 1.48983 0
M  V30 5798 H 579.924 -4.62557 0.718215 0
M  V30 5799 H 580.097 -6.35964 1.24315 0
M  V30 5800 N 573.503 -0.0852151 -1.57369 0
M  V30 5801 C 574.743 0.584297 -1.95871 0
M  V30 5802 C 575.107 1.6596 -0.965473 0
M  V30 5803 O 576.308 2.38561 -1.23862 0
M  V30 5804 C 574.579 1.13411 -3.38929 0
M  V30 5805 S 576.138 1.81687 -3.99419 0
M  V30 5806 H 572.956 0.19095 -0.684879 0
M  V30 5807 H 575.558 -0.162267 -1.94825 0
M  V30 5808 H 574.262 0.339845 -4.0899 0
M  V30 5809 H 573.793 1.91672 -3.43548 0
M  V30 5810 H 575.808 3.10037 -3.87417 0
M  V30 5811 N 574.981 1.5647 0.188427 0
M  V30 5812 C 575.891 1.98285 1.2538 0
M  V30 5813 C 576.907 0.891535 1.49424 0
M  V30 5814 O 578.083 1.19782 1.61908 0
M  V30 5815 C 575.148 2.31965 2.57669 0
M  V30 5816 C 574.209 3.54838 2.41638 0
M  V30 5817 C 573.442 3.86901 3.67618 0
M  V30 5818 O 573.665 3.20163 4.72072 0
M  V30 5819 O 572.599 4.80309 3.62749 0
M  V30 5820 H 576.425 2.89145 0.928912 0
M  V30 5821 H 574.01 1.44112 0.393955 0
M  V30 5822 H 575.892 2.54673 3.35737 0
M  V30 5823 H 574.567 1.44271 2.89771 0
M  V30 5824 H 573.474 3.37369 1.61658 0
M  V30 5825 H 574.807 4.43019 2.14465 0
M  V30 5826 N 576.459 -0.456382 1.50847 0
M  V30 5827 C 577.392 -1.57177 1.65441 0
M  V30 5828 C 578.37 -1.54649 0.502224 0
M  V30 5829 O 579.554 -1.74057 0.723633 0
M  V30 5830 C 576.681 -2.95763 1.65052 0
M  V30 5831 C 575.727 -3.16389 2.86007 0
M  V30 5832 S 576.56 -2.94716 4.47105 0
M  V30 5833 C 577.716 -4.35617 4.49432 0
M  V30 5834 H 577.949 -1.44561 2.59787 0
M  V30 5835 H 575.482 -0.644758 1.40293 0
M  V30 5836 H 577.44 -3.75654 1.65512 0
M  V30 5837 H 576.101 -3.05756 0.719153 0
M  V30 5838 H 575.294 -4.17667 2.82081 0
M  V30 5839 H 574.896 -2.44293 2.8319 0
M  V30 5840 H 577.188 -5.28503 4.239 0
M  V30 5841 H 578.131 -4.44582 5.51137 0
M  V30 5842 H 578.539 -4.18382 3.78967 0
M  V30 5843 N 577.937 -1.40673 -0.710563 0
M  V30 5844 C 578.847 -1.43663 -1.85467 0
M  V30 5845 C 579.863 -0.328721 -1.70867 0
M  V30 5846 O 581.039 -0.574098 -1.93044 0
M  V30 5847 C 578.104 -1.30226 -3.21313 0
M  V30 5848 C 577.165 -2.51204 -3.48131 0
M  V30 5849 C 576.398 -2.38398 -4.77495 0
M  V30 5850 O 576.621 -1.40048 -5.5294 0
M  V30 5851 O 575.555 -3.2787 -5.04762 0
M  V30 5852 H 579.381 -2.40156 -1.859 0
M  V30 5853 H 576.966 -1.22049 -0.861652 0
M  V30 5854 H 578.848 -1.2496 -4.02446 0
M  V30 5855 H 577.523 -0.368419 -3.21597 0
M  V30 5856 H 576.43 -2.62048 -2.66987 0
M  V30 5857 H 577.763 -3.43366 -3.52648 0
M  V30 5858 N 579.415 0.9433 -1.26252 0
M  V30 5859 C 580.347 2.04542 -1.03417 0
M  V30 5860 C 581.36 1.62799 0.0046911 0
M  V30 5861 O 582.549 1.76944 -0.235146 0
M  V30 5862 C 579.649 3.34511 -0.543671 0
M  V30 5863 C 578.822 4.05033 -1.65128 0
M  V30 5864 C 577.881 5.13273 -1.1592 0
M  V30 5865 O 576.907 5.38095 -1.85586 0
M  V30 5866 N 578.109 5.805 -0.00649279 0
M  V30 5867 H 580.874 2.24699 -1.98319 0
M  V30 5868 H 578.435 1.11264 -1.1761 0
M  V30 5869 H 580.427 4.04212 -0.198703 0
M  V30 5870 H 578.997 3.11042 0.311711 0
M  V30 5871 H 578.217 3.29275 -2.16729 0
M  V30 5872 H 579.505 4.48903 -2.39508 0
M  V30 5873 H 578.903 5.62767 0.575347 0
M  V30 5874 H 577.46 6.51201 0.279416 0
M  V30 5875 N 580.893 1.08022 1.14757 0
M  V30 5876 C 581.825 0.664566 2.19354 0
M  V30 5877 C 582.838 -0.286374 1.60261 0
M  V30 5878 O 584.027 -0.0746362 1.78344 0
M  V30 5879 C 581.127 -0.0434634 3.38872 0
M  V30 5880 C 580.3 0.925381 4.27499 0
M  V30 5881 C 579.359 0.253398 5.2559 0
M  V30 5882 O 578.385 0.896581 5.62094 0
M  V30 5883 N 579.587 -0.998263 5.71852 0
M  V30 5884 H 582.352 1.56438 2.55631 0
M  V30 5885 H 579.913 0.965788 1.29939 0
M  V30 5886 H 581.905 -0.503857 4.01551 0
M  V30 5887 H 580.475 -0.845321 3.00954 0
M  V30 5888 H 579.695 1.56472 3.61815 0
M  V30 5889 H 580.983 1.58203 4.8358 0
M  V30 5890 H 580.381 -1.54063 5.44317 0
M  V30 5891 H 578.938 -1.40222 6.36538 0
M  V30 5892 N 582.371 -1.3172 0.865308 0
M  V30 5893 C 583.319 -2.30569 0.306674 0
M  V30 5894 C 584.313 -1.59317 -0.575724 0
M  V30 5895 O 585.519 -1.73961 -0.462343 0
M  V30 5896 H 581.894 -0.747681 0.0804834 0
M  V30 5897 H 583.865 -2.75165 1.15441 0
M  V30 5898 C 582.614 -3.44358 -0.480952 0
M  V30 5899 H 581.937 -3.99354 0.18876 0
M  V30 5900 H 583.377 -4.15652 -0.837241 0
M  V30 5901 C 581.836 -2.92574 -1.67039 0
M  V30 5902 O 582.366 -2.90954 -2.76964 0
M  V30 5903 N 580.572 -2.48835 -1.50097 0
M  V30 5904 H 580.119 -2.50353 -0.606738 0
M  V30 5905 H 580.077 -2.14543 -2.29823 0
M  V30 5906 N 583.85 -0.624285 -1.44708 0
M  V30 5907 C 584.782 0.12305 -2.28869 0
M  V30 5908 C 585.795 0.81557 -1.40898 0
M  V30 5909 O 586.984 0.678162 -1.65116 0
M  V30 5910 C 584.084 1.19612 -3.1709 0
M  V30 5911 C 583.257 0.587452 -4.33437 0
M  V30 5912 C 582.316 1.55358 -5.02743 0
M  V30 5913 O 581.341 1.07338 -5.58988 0
M  V30 5914 N 582.543 2.88798 -5.03563 0
M  V30 5915 H 585.308 -0.599193 -2.93649 0
M  V30 5916 H 582.87 -0.464954 -1.5508 0
M  V30 5917 H 584.861 1.84261 -3.60319 0
M  V30 5918 H 583.432 1.82067 -2.54107 0
M  V30 5919 H 582.652 -0.237509 -3.93484 0
M  V30 5920 H 583.94 0.161326 -5.08544 0
M  V30 5921 H 583.338 3.30399 -4.59188 0
M  V30 5922 H 581.894 3.48826 -5.50603 0
M  V30 5923 N 585.328 1.53329 -0.364422 0
M  V30 5924 C 586.238 2.29414 0.490552 0
M  V30 5925 C 587.254 1.35335 1.09363 0
M  V30 5926 O 588.43 1.68391 1.10483 0
M  V30 5927 C 585.495 3.06772 1.61529 0
M  V30 5928 C 584.556 4.16516 1.03986 0
M  V30 5929 C 583.789 4.90176 2.111 0
M  V30 5930 O 584.012 4.63687 3.32191 0
M  V30 5931 O 582.946 5.76134 1.74222 0
M  V30 5932 H 586.772 3.03428 -0.12856 0
M  V30 5933 H 584.357 1.48843 -0.128837 0
M  V30 5934 H 586.239 3.55082 2.26924 0
M  V30 5935 H 584.914 2.35596 2.21983 0
M  V30 5936 H 583.821 3.7246 0.349856 0
M  V30 5937 H 585.154 4.89855 0.4799 0
M  V30 5938 N 586.806 0.0935595 1.57322 0
M  V30 5939 C 588.036 -0.578095 1.98347 0
M  V30 5940 C 588.444 -1.62357 0.971441 0
M  V30 5941 O 587.787 -1.83639 -0.0473959 0
M  V30 5942 C 587.849 -1.28525 3.3574 0
M  V30 5943 C 587.513 -0.390714 4.55327 0
M  V30 5944 C 588.51 0.360522 5.18648 0
M  V30 5945 C 586.195 -0.309221 5.01347 0
M  V30 5946 C 588.189 1.18125 6.26359 0
M  V30 5947 C 585.876 0.515157 6.08925 0
M  V30 5948 C 586.874 1.25904 6.71295 0
M  V30 5949 O 586.562 2.06978 7.76798 0
M  V30 5950 H 586.294 -0.159767 0.656849 0
M  V30 5951 H 588.848 0.169058 2.04703 0
M  V30 5952 H 587.078 -2.07894 3.26063 0
M  V30 5953 H 588.767 -1.85128 3.61223 0
M  V30 5954 H 589.533 0.307285 4.84026 0
M  V30 5955 H 585.412 -0.877881 4.52564 0
M  V30 5956 H 588.956 1.76236 6.74971 0
M  V30 5957 H 584.853 0.56988 6.42979 0
M  V30 5958 H 585.621 1.99644 7.93779 0
M  V30 5959 N 588.284 -1.56567 -0.180126 0
M  V30 5960 C 589.231 -1.95725 -1.22313 0
M  V30 5961 C 590.201 -0.819911 -1.44453 0
M  V30 5962 O 591.386 -1.07931 -1.57339 0
M  V30 5963 C 588.526 -2.31484 -2.55947 0
M  V30 5964 C 587.639 -3.58354 -2.4126 0
M  V30 5965 C 586.774 -3.83366 -3.67701 0
M  V30 5966 C 585.813 -5.03612 -3.47909 0
M  V30 5967 N 584.95 -5.24802 -4.66398 0
M  V30 5968 H 589.79 -2.84642 -0.882198 0
M  V30 5969 H 587.327 -1.4085 -0.42422 0
M  V30 5970 H 589.285 -2.50237 -3.33822 0
M  V30 5971 H 587.915 -1.45689 -2.88053 0
M  V30 5972 H 586.967 -3.47565 -1.54606 0
M  V30 5973 H 588.279 -4.46386 -2.22577 0
M  V30 5974 H 587.433 -4.02439 -4.54013 0
M  V30 5975 H 586.172 -2.93692 -3.89353 0
M  V30 5976 H 585.177 -4.84447 -2.59983 0
M  V30 5977 H 586.402 -5.94809 -3.27688 0
M  V30 5978 H 584.348 -4.38079 -4.88286 0
M  V30 5979 H 584.265 -6.07041 -4.50596 0
M  V30 5980 H 585.533 -5.48346 -5.54019 0
M  V30 5981 N 589.762 0.448376 -1.51087 0
M  V30 5982 C 591.011 1.19561 -1.62444 0
M  V30 5983 C 591.324 1.92602 -0.341151 0
M  V30 5984 O 592.53 2.69439 -0.333936 0
M  V30 5985 C 590.986 2.17373 -2.8684 0
M  V30 5986 C 590.594 1.5003 -4.22131 0
M  V30 5987 C 592.338 2.92597 -3.0755 0
M  V30 5988 C 590.245 2.46262 -5.37689 0
M  V30 5989 H 589.175 0.449975 -0.605011 0
M  V30 5990 H 591.826 0.463735 -1.77544 0
M  V30 5991 H 590.208 2.93948 -2.65349 0
M  V30 5992 H 591.382 0.790886 -4.53962 0
M  V30 5993 H 589.697 0.870011 -4.0721 0
M  V30 5994 H 592.294 3.64663 -3.91056 0
M  V30 5995 H 592.637 3.53306 -2.20183 0
M  V30 5996 H 593.17 2.23131 -3.29329 0
M  V30 5997 H 589.909 1.90258 -6.27281 0
M  V30 5998 H 589.429 3.15289 -5.10248 0
M  V30 5999 H 591.108 3.07623 -5.6919 0
M  V30 6000 N 591.24 1.41047 0.703093 0
M  V30 6001 C 592.17 1.45067 1.82969 0
M  V30 6002 C 593.151 0.31016 1.67248 0
M  V30 6003 O 594.336 0.520548 1.87093 0
M  V30 6004 C 591.466 1.32478 3.2104 0
M  V30 6005 C 590.42 2.44262 3.51454 0
M  V30 6006 C 589.746 2.16742 4.88801 0
M  V30 6007 C 591.046 3.86606 3.51189 0
M  V30 6008 H 592.74 2.39353 1.79863 0
M  V30 6009 H 590.286 1.15206 0.863919 0
M  V30 6010 H 592.239 1.33904 3.99559 0
M  V30 6011 H 590.963 0.346735 3.24754 0
M  V30 6012 H 589.622 2.42107 2.75282 0
M  V30 6013 H 589.27 1.17299 4.89132 0
M  V30 6014 H 588.97 2.91643 5.10116 0
M  V30 6015 H 590.494 2.19872 5.69639 0
M  V30 6016 H 591.908 3.90517 4.19725 0
M  V30 6017 H 590.305 4.61128 3.84033 0
M  V30 6018 H 591.375 4.15296 2.50315 0
M  V30 6019 N 592.718 -0.936591 1.26751 0
M  V30 6020 C 593.648 -2.05315 1.11212 0
M  V30 6021 C 594.629 -1.70092 0.0160262 0
M  V30 6022 O 595.814 -1.93279 0.188894 0
M  V30 6023 C 592.944 -3.39123 0.749171 0
M  V30 6024 C 591.898 -3.88425 1.79751 0
M  V30 6025 C 591.224 -5.18936 1.28876 0
M  V30 6026 C 592.524 -4.12798 3.19992 0
M  V30 6027 H 594.218 -2.18573 2.04613 0
M  V30 6028 H 591.764 -1.05027 0.985159 0
M  V30 6029 H 593.717 -4.16704 0.627323 0
M  V30 6030 H 592.441 -3.25855 -0.220543 0
M  V30 6031 H 591.1 -3.13028 1.90811 0
M  V30 6032 H 590.748 -5.02051 0.308757 0
M  V30 6033 H 590.448 -5.52892 1.98958 0
M  V30 6034 H 591.972 -5.99096 1.17967 0
M  V30 6035 H 593.386 -4.80977 3.11983 0
M  V30 6036 H 591.783 -4.58044 3.87705 0
M  V30 6037 H 592.853 -3.18412 3.65707 0
M  V30 6038 N 594.196 -1.08629 -1.14182 0
M  V30 6039 C 595.473 -0.73002 -1.81466 0
M  V30 6040 C 595.853 0.785996 -1.95922 0
M  V30 6041 O 595.201 1.70535 -1.52086 0
M  V30 6042 C 595.411 -1.45957 -3.17014 0
M  V30 6043 C 596.759 -1.62008 -3.92477 0
M  V30 6044 O 597.783 -1.42141 -3.26611 0
M  V30 6045 O 596.642 -1.94806 -5.106 0
M  V30 6046 H 593.736 -0.261307 -0.784632 0
M  V30 6047 H 596.282 -1.188 -1.2118 0
M  V30 6048 H 595.054 -2.49221 -3.01669 0
M  V30 6049 H 594.677 -0.993222 -3.84995 0
M  V30 6050 N 595.674 1.31259 -0.872281 0
M  V30 6051 C 596.92 1.96913 -0.485083 0
M  V30 6052 C 597.253 1.68774 0.960667 0
M  V30 6053 O 596.528 0.985495 1.67685 0
M  V30 6054 C 596.811 3.52299 -0.745502 0
M  V30 6055 C 596.664 3.90002 -2.24095 0
M  V30 6056 C 597.983 4.39582 -0.213516 0
M  V30 6057 H 595.102 0.715252 -0.177716 0
M  V30 6058 H 597.744 1.55347 -1.09395 0
M  V30 6059 H 595.894 3.87835 -0.227276 0
M  V30 6060 H 597.566 3.64555 -2.82661 0
M  V30 6061 H 595.809 3.38526 -2.71261 0
M  V30 6062 H 596.48 4.98352 -2.37381 0
M  V30 6063 H 598.956 4.10882 -0.656902 0
M  V30 6064 H 597.832 5.47251 -0.42516 0
M  V30 6065 H 598.093 4.33158 0.884666 0
M  V30 6066 N 597.152 0.631951 1.44375 0
M  V30 6067 C 598.099 -0.0724807 2.30686 0
M  V30 6068 C 599.069 -0.835975 1.43529 0
M  V30 6069 O 600.254 -0.816849 1.7243 0
M  V30 6070 C 597.394 -1.04753 3.28817 0
M  V30 6071 C 596.507 -0.282367 4.31076 0
M  V30 6072 C 595.642 -1.2493 5.163 0
M  V30 6073 C 594.681 -0.473349 6.10267 0
M  V30 6074 N 593.818 -1.39079 6.88187 0
M  V30 6075 H 598.658 0.669477 2.90383 0
M  V30 6076 H 596.195 0.341927 1.43071 0
M  V30 6077 H 598.153 -1.62623 3.842 0
M  V30 6078 H 596.783 -1.75661 2.70819 0
M  V30 6079 H 595.835 0.412268 3.78159 0
M  V30 6080 H 597.147 0.321955 4.9776 0
M  V30 6081 H 596.301 -1.89931 5.76204 0
M  V30 6082 H 595.04 -1.88755 4.49692 0
M  V30 6083 H 594.045 0.190142 5.49471 0
M  V30 6084 H 595.27 0.16019 6.78911 0
M  V30 6085 H 593.216 -2.01623 6.24247 0
M  V30 6086 H 593.133 -0.840513 7.51313 0
M  V30 6087 H 594.401 -2.02961 7.52613 0
M  V30 6088 N 598.631 -1.53133 0.372548 0
M  V30 6089 C 599.859 -2.05774 -0.215515 0
M  V30 6090 C 600.274 -1.24555 -1.41886 0
M  V30 6091 O 599.631 -0.287951 -1.80214 0
M  V30 6092 C 599.682 -3.5645 -0.602161 0
M  V30 6093 O 599.403 -4.34591 0.553359 0
M  V30 6094 C 600.904 -4.25374 -1.24787 0
M  V30 6095 H 598.124 -0.670009 -0.0364529 0
M  V30 6096 H 600.668 -1.97434 0.532934 0
M  V30 6097 H 598.823 -3.64918 -1.30052 0
M  V30 6098 H 599.237 -5.23954 0.239336 0
M  V30 6099 H 600.711 -5.32097 -1.46891 0
M  V30 6100 H 601.188 -3.79531 -2.21026 0
M  V30 6101 H 601.794 -4.21177 -0.590752 0
M  V30 6102 N 600.109 -0.101901 -1.5727 0
M  V30 6103 C 601.525 0.254739 -1.57554 0
M  V30 6104 C 601.725 1.67937 -1.11352 0
M  V30 6105 O 600.781 2.39722 -0.793081 0
M  V30 6106 C 602.094 0.036975 -3.00677 0
M  V30 6107 C 603.642 0.104199 -3.12827 0
M  V30 6108 C 604.117 -0.0856565 -4.5792 0
M  V30 6109 N 605.608 -0.0310498 -4.6319 0
M  V30 6110 C 606.343 -0.153099 -5.73196 0
M  V30 6111 N 605.839 -0.330364 -6.92012 0
M  V30 6112 N 607.632 -0.0938854 -5.62022 0
M  V30 6113 H 599.783 -1.03263 -1.85609 0
M  V30 6114 H 602.046 -0.405251 -0.857016 0
M  V30 6115 H 601.752 -0.947254 -3.38703 0
M  V30 6116 H 601.626 0.776335 -3.69124 0
M  V30 6117 H 604.013 1.07894 -2.74669 0
M  V30 6118 H 604.094 -0.666762 -2.46957 0
M  V30 6119 H 603.738 -1.05729 -4.96773 0
M  V30 6120 H 603.668 0.705082 -5.21858 0
M  V30 6121 H 606.159 0.103141 -3.77759 0
M  V30 6122 H 606.472 -0.41482 -7.71686 0
M  V30 6123 H 604.817 -0.366119 -6.94035 0
M  V30 6124 H 608.008 0.0435168 -4.6808 0
M  V30 6125 H 608.181 -0.19245 -6.47714 0
M  V30 6126 N 601.587 1.56661 0.17182 0
M  V30 6127 C 602.517 1.99401 1.21498 0
M  V30 6128 C 603.498 0.869516 1.46197 0
M  V30 6129 O 604.683 1.13556 1.57539 0
M  V30 6130 C 601.813 2.35346 2.55401 0
M  V30 6131 C 600.767 3.5075 2.45272 0
M  V30 6132 C 600.093 3.72437 3.8366 0
M  V30 6133 C 601.393 4.84216 1.95787 0
M  V30 6134 H 603.087 2.86792 0.859699 0
M  V30 6135 H 600.633 1.37977 0.412103 0
M  V30 6136 H 602.586 2.63843 3.2858 0
M  V30 6137 H 601.31 1.44864 2.92715 0
M  V30 6138 H 599.969 3.2238 1.74547 0
M  V30 6139 H 599.617 2.79246 4.18367 0
M  V30 6140 H 599.317 4.50087 3.77751 0
M  V30 6141 H 600.841 4.03334 4.58426 0
M  V30 6142 H 602.255 5.11592 2.5874 0
M  V30 6143 H 600.652 5.65498 2.00827 0
M  V30 6144 H 601.722 4.76243 0.912159 0
M  V30 6145 N 603.065 -0.440357 1.51323 0
M  V30 6146 C 603.975 -1.55955 1.75258 0
M  V30 6147 C 604.991 -1.61933 0.636687 0
M  V30 6148 O 606.167 -1.79231 0.918593 0
M  V30 6149 C 603.232 -2.9196 1.86977 0
M  V30 6150 C 602.293 -2.96122 3.10822 0
M  V30 6151 C 601.526 -4.2564 3.21973 0
M  V30 6152 O 601.749 -5.17851 2.39137 0
M  V30 6153 O 600.683 -4.36025 4.14929 0
M  V30 6154 H 604.509 -1.38673 2.70191 0
M  V30 6155 H 602.094 -0.623055 1.35788 0
M  V30 6156 H 603.976 -3.72682 1.96688 0
M  V30 6157 H 602.651 -3.09375 0.952307 0
M  V30 6158 H 601.558 -2.14366 3.06591 0
M  V30 6159 H 602.891 -2.83651 4.02247 0
M  V30 6160 N 604.543 -1.41418 -0.695603 0
M  V30 6161 C 605.475 -1.39195 -1.82092 0
M  V30 6162 C 606.488 -0.294132 -1.60121 0
M  V30 6163 O 607.677 -0.555854 -1.69625 0
M  V30 6164 C 604.777 -1.14828 -3.18854 0
M  V30 6165 C 603.95 -2.36649 -3.67853 0
M  V30 6166 C 603.009 -2.08139 -4.83285 0
M  V30 6167 O 602.035 -2.81177 -4.94902 0
M  V30 6168 N 603.237 -1.07162 -5.70523 0
M  V30 6169 H 606.002 -2.36185 -1.84491 0
M  V30 6170 H 603.563 -1.3603 -0.877923 0
M  V30 6171 H 605.555 -0.937075 -3.93702 0
M  V30 6172 H 604.125 -0.264358 -3.1148 0
M  V30 6173 H 603.345 -2.73472 -2.83913 0
M  V30 6174 H 604.633 -3.17816 -3.97329 0
M  V30 6175 H 604.031 -0.467124 -5.63768 0
M  V30 6176 H 602.588 -0.920311 -6.4527 0
M  V30 6177 N 606.021 0.929856 -1.27246 0
M  V30 6178 C 606.931 2.0636 -1.11592 0
M  V30 6179 C 607.947 1.73938 -0.046496 0
M  V30 6180 O 609.123 1.9981 -0.252544 0
M  V30 6181 C 606.188 3.38213 -0.762437 0
M  V30 6182 C 605.249 3.84346 -1.9125 0
M  V30 6183 C 604.482 5.09906 -1.57579 0
M  V30 6184 O 604.705 5.68354 -0.482694 0
M  V30 6185 O 603.639 5.51359 -2.41426 0
M  V30 6186 H 607.465 2.22478 -2.0673 0
M  V30 6187 H 605.05 1.04865 -1.06413 0
M  V30 6188 H 606.932 4.1741 -0.57854 0
M  V30 6189 H 605.607 3.23307 0.159439 0
M  V30 6190 H 604.514 3.06045 -2.15144 0
M  V30 6191 H 605.847 4.0379 -2.81451 0
M  V30 6192 N 607.499 1.09233 1.13605 0
M  V30 6193 C 608.748 0.82205 1.84188 0
M  V30 6194 C 609.061 -0.654548 1.84323 0
M  V30 6195 O 610.267 -1.04029 2.50779 0
M  V30 6196 C 608.723 1.42066 3.30674 0
M  V30 6197 C 608.331 2.92965 3.38933 0
M  V30 6198 C 610.075 1.22924 4.06313 0
M  V30 6199 C 607.982 3.45922 4.79679 0
M  V30 6200 H 606.912 0.303854 0.690064 0
M  V30 6201 H 609.563 1.31479 1.28006 0
M  V30 6202 H 607.945 0.855613 3.86646 0
M  V30 6203 H 609.119 3.55679 2.92966 0
M  V30 6204 H 607.434 3.11118 2.76757 0
M  V30 6205 H 610.031 1.59945 5.10217 0
M  V30 6206 H 610.374 0.169726 4.15954 0
M  V30 6207 H 610.907 1.76168 3.56665 0
M  V30 6208 H 607.646 4.51484 4.75229 0
M  V30 6209 H 607.166 2.87971 5.26149 0
M  V30 6210 H 608.845 3.43009 5.48592 0
M  V30 6211 N 608.977 -1.30795 0.87923 0
M  V30 6212 C 609.94 -2.26563 0.346676 0
M  V30 6213 C 610.94 -1.52578 -0.507597 0
M  V30 6214 O 612.13 -1.71318 -0.315575 0
M  V30 6215 C 609.262 -3.37115 -0.506611 0
M  V30 6216 H 610.455 -2.75183 1.19223 0
M  V30 6217 H 608.008 -1.41886 0.655598 0
M  V30 6218 H 608.743 -2.93802 -1.37299 0
M  V30 6219 H 608.528 -3.91959 0.105218 0
M  V30 6220 H 610.018 -4.08412 -0.871192 0
M  V30 6221 N 610.455 -0.639598 -1.44038 0
M  V30 6222 C 611.683 -0.154811 -2.0632 0
M  V30 6223 C 612.098 1.17406 -1.47856 0
M  V30 6224 O 611.455 1.72193 -0.604638 0
M  V30 6225 C 611.506 -0.0429958 -3.61474 0
M  V30 6226 O 611.227 -1.31932 -4.17763 0
M  V30 6227 C 612.728 0.469486 -4.40807 0
M  V30 6228 H 609.948 -0.0835862 -0.665773 0
M  V30 6229 H 612.492 -0.876397 -1.84769 0
M  V30 6230 H 610.647 0.629075 -3.82258 0
M  V30 6231 H 611.061 -1.16965 -5.11292 0
M  V30 6232 H 612.535 0.496712 -5.49761 0
M  V30 6233 H 613.012 1.49819 -4.12857 0
M  V30 6234 H 613.618 -0.169624 -4.24962 0
M  V30 6235 N 611.933 1.52934 -0.380664 0
M  V30 6236 C 613.163 2.05587 0.204302 0
M  V30 6237 C 613.571 1.25288 1.41773 0
M  V30 6238 O 612.914 0.290394 1.8139 0
M  V30 6239 C 612.976 3.53624 0.647324 0
M  V30 6240 C 612.64 4.54765 -0.451465 0
M  V30 6241 C 613.637 5.03226 -1.30614 0
M  V30 6242 C 611.322 4.98508 -0.616025 0
M  V30 6243 C 613.316 5.94046 -2.31058 0
M  V30 6244 C 611.003 5.89131 -1.62381 0
M  V30 6245 C 612.001 6.36792 -2.46952 0
M  V30 6246 O 611.689 7.25626 -3.46009 0
M  V30 6247 H 611.421 0.675013 0.0365198 0
M  V30 6248 H 613.975 1.98125 -0.541827 0
M  V30 6249 H 612.205 3.58676 1.44529 0
M  V30 6250 H 613.894 3.89061 1.15698 0
M  V30 6251 H 614.66 4.70167 -1.19027 0
M  V30 6252 H 610.539 4.60989 0.0324987 0
M  V30 6253 H 614.083 6.3117 -2.97104 0
M  V30 6254 H 609.98 6.21603 -1.7401 0
M  V30 6255 H 610.748 7.43664 -3.41916 0
M  V30 6256 N 613.412 0.11024 1.57214 0
M  V30 6257 C 614.828 -0.24638 1.57687 0
M  V30 6258 C 615.028 -1.67344 1.12241 0
M  V30 6259 O 614.084 -2.39298 0.805783 0
M  V30 6260 C 615.397 -0.0210288 3.00693 0
M  V30 6261 C 616.945 -0.0876077 3.12877 0
M  V30 6262 C 617.42 0.10994 4.57868 0
M  V30 6263 N 618.911 0.0556135 4.63167 0
M  V30 6264 C 619.646 0.183495 5.73106 0
M  V30 6265 N 619.142 0.367058 6.91827 0
M  V30 6266 N 620.935 0.123689 5.61964 0
M  V30 6267 H 613.086 1.04246 1.85058 0
M  V30 6268 H 615.349 0.40979 0.854854 0
M  V30 6269 H 615.055 0.965203 3.38196 0
M  V30 6270 H 614.929 -0.756748 3.69531 0
M  V30 6271 H 617.316 -1.06436 2.75237 0
M  V30 6272 H 617.397 0.67985 2.466 0
M  V30 6273 H 617.041 1.08362 4.96206 0
M  V30 6274 H 616.971 -0.677397 5.22225 0
M  V30 6275 H 619.462 -0.0831062 3.77809 0
M  V30 6276 H 619.775 0.455739 7.71455 0
M  V30 6277 H 618.12 0.40292 6.93831 0
M  V30 6278 H 621.311 -0.0186928 4.68096 0
M  V30 6279 H 621.484 0.226797 6.47603 0
M  V30 6280 N 614.89 -1.56749 -0.16351 0
M  V30 6281 C 616.306 -1.51043 -0.515567 0
M  V30 6282 C 616.506 -0.815855 -1.84245 0
M  V30 6283 O 615.562 -0.379477 -2.49632 0
M  V30 6284 C 616.875 -2.95791 -0.541114 0
M  V30 6285 C 618.423 -3.0664 -0.627776 0
M  V30 6286 C 618.898 -4.52861 -0.684141 0
M  V30 6287 N 620.389 -4.5714 -0.746818 0
M  V30 6288 C 621.124 -5.67634 -0.811137 0
M  V30 6289 N 620.62 -6.8774 -0.835811 0
M  V30 6290 N 622.413 -5.55624 -0.850756 0
M  V30 6291 H 614.564 -2.00307 0.70645 0
M  V30 6292 H 616.827 -0.912876 0.255659 0
M  V30 6293 H 616.533 -3.49797 0.365329 0
M  V30 6294 H 616.407 -3.50858 -1.38487 0
M  V30 6295 H 618.794 -2.52663 -1.52464 0
M  V30 6296 H 618.875 -2.54645 0.242805 0
M  V30 6297 H 618.519 -5.07472 0.2085 0
M  V30 6298 H 618.449 -5.02621 -1.57098 0
M  V30 6299 H 620.94 -3.70669 -0.735717 0
M  V30 6300 H 621.253 -7.67701 -0.886279 0
M  V30 6301 H 619.598 -6.90334 -0.803958 0
M  V30 6302 H 622.789 -4.60709 -0.828535 0
M  V30 6303 H 622.962 -6.41756 -0.897418 0
M  V30 6304 N 616.368 0.432326 -1.51554 0
M  V30 6305 C 617.298 1.53242 -1.76179 0
M  V30 6306 C 618.279 1.58717 -0.611801 0
M  V30 6307 O 619.464 1.74364 -0.855033 0
M  V30 6308 C 616.594 2.91278 -1.89141 0
M  V30 6309 C 615.548 3.00663 -3.04608 0
M  V30 6310 C 614.874 4.40728 -3.02759 0
M  V30 6311 C 616.174 2.74281 -4.44485 0
M  V30 6312 H 617.868 1.32886 -2.68294 0
M  V30 6313 H 615.414 0.637841 -1.29103 0
M  V30 6314 H 617.367 3.68203 -2.04951 0
M  V30 6315 H 616.091 3.12877 -0.936785 0
M  V30 6316 H 614.75 2.26179 -2.88511 0
M  V30 6317 H 614.398 4.59301 -2.05065 0
M  V30 6318 H 614.098 4.47936 -3.80299 0
M  V30 6319 H 615.622 5.19619 -3.20669 0
M  V30 6320 H 617.036 3.40936 -4.60907 0
M  V30 6321 H 615.433 2.92893 -5.23769 0
M  V30 6322 H 616.503 1.69856 -4.54177 0
M  V30 6323 N 617.846 1.41785 0.688094 0
M  V30 6324 C 618.776 1.47 1.8142 0
M  V30 6325 C 619.757 0.327881 1.6691 0
M  V30 6326 O 620.942 0.540362 1.86531 0
M  V30 6327 C 618.072 1.35876 3.19617 0
M  V30 6328 C 617.026 2.47976 3.48844 0
M  V30 6329 C 616.352 2.21915 4.86475 0
M  V30 6330 C 617.652 3.90309 3.47068 0
M  V30 6331 H 619.346 2.41247 1.77314 0
M  V30 6332 H 616.892 1.16116 0.851651 0
M  V30 6333 H 618.845 1.38134 3.98117 0
M  V30 6334 H 617.569 0.38116 3.24368 0
M  V30 6335 H 616.228 2.45013 2.72698 0
M  V30 6336 H 615.876 1.2248 4.8786 0
M  V30 6337 H 615.576 2.97037 5.06994 0
M  V30 6338 H 617.1 2.25901 5.67275 0
M  V30 6339 H 618.514 3.94947 4.1556 0
M  V30 6340 H 616.911 4.65175 3.7912 0
M  V30 6341 H 617.981 4.17927 2.45896 0
M  V30 6342 N 619.324 -0.923095 1.27737 0
M  V30 6343 C 620.234 -2.05765 1.12685 0
M  V30 6344 C 621.25 -1.73911 0.0557197 0
M  V30 6345 O 622.426 -1.99674 0.263137 0
M  V30 6346 C 619.491 -3.37804 0.780363 0
M  V30 6347 C 618.552 -3.83326 1.93286 0
M  V30 6348 C 617.785 -5.09064 1.60281 0
M  V30 6349 O 618.008 -5.6809 0.512828 0
M  V30 6350 O 616.942 -5.50071 2.44347 0
M  V30 6351 H 620.768 -2.21378 2.07907 0
M  V30 6352 H 618.353 -1.04299 1.06968 0
M  V30 6353 H 620.235 -4.17097 0.600668 0
M  V30 6354 H 618.91 -3.23387 -0.142291 0
M  V30 6355 H 617.817 -3.049 2.16764 0
M  V30 6356 H 619.15 -4.02292 2.83588 0
M  V30 6357 N 620.802 -1.09834 -1.13024 0
M  V30 6358 C 622.05 -0.835297 -1.8403 0
M  V30 6359 C 622.371 0.640944 -1.84165 0
M  V30 6360 O 621.641 1.46517 -1.30037 0
M  V30 6361 H 620.221 -0.306018 -0.681441 0
M  V30 6362 H 622.883 -1.38734 -1.36891 0
M  V30 6363 H 621.979 -1.19258 -2.88416 0
M  V30 6364 N 622.28 1.30327 -0.886154 0
M  V30 6365 C 623.19 2.31854 -0.357866 0
M  V30 6366 C 624.206 1.65392 0.540502 0
M  V30 6367 O 625.382 1.96683 0.433339 0
M  V30 6368 C 622.447 3.44171 0.417999 0
M  V30 6369 C 621.508 4.26257 -0.510263 0
M  V30 6370 C 620.741 5.3321 0.228669 0
M  V30 6371 O 620.964 5.51542 1.45458 0
M  V30 6372 O 619.898 6.0042 -0.421832 0
M  V30 6373 H 623.724 2.78995 -1.19982 0
M  V30 6374 H 621.309 1.34518 -0.650028 0
M  V30 6375 H 623.191 4.12588 0.857251 0
M  V30 6376 H 621.866 2.99164 1.23623 0
M  V30 6377 H 620.773 3.60533 -0.99835 0
M  V30 6378 H 622.106 4.74871 -1.29454 0
M  V30 6379 N 623.758 0.647228 1.43697 0
M  V30 6380 C 625.035 0.0883758 1.954 0
M  V30 6381 C 625.415 -1.39006 1.58873 0
M  V30 6382 O 624.763 -2.11255 0.87083 0
M  V30 6383 C 624.973 0.328263 3.47453 0
M  V30 6384 C 626.321 0.230009 4.23977 0
M  V30 6385 O 627.345 0.260496 3.55246 0
M  V30 6386 O 626.204 0.148615 5.46298 0
M  V30 6387 H 623.298 -0.0130683 0.826897 0
M  V30 6388 H 625.844 0.72005 1.53666 0
M  V30 6389 H 624.616 1.3535 3.67146 0
M  V30 6390 H 624.239 -0.336772 3.96171 0
M  V30 6391 N 625.236 -1.5273 0.388769 0
M  V30 6392 C 626.199 -2.25043 -0.434544 0
M  V30 6393 C 627.199 -1.26661 -0.990644 0
M  V30 6394 O 628.389 -1.50762 -0.872731 0
M  V30 6395 C 625.521 -3.00507 -1.60961 0
M  V30 6396 H 626.714 -2.99242 0.198549 0
M  V30 6397 H 624.267 -1.55664 0.140875 0
M  V30 6398 H 625.002 -2.30607 -2.28015 0
M  V30 6399 H 624.787 -3.72716 -1.21757 0
M  V30 6400 H 626.277 -3.55413 -2.19251 0
M  V30 6401 N 626.714 -0.118576 -1.57153 0
M  V30 6402 C 627.664 0.842924 -2.11846 0
M  V30 6403 C 628.648 1.22845 -1.03914 0
M  V30 6404 O 629.84 1.19961 -1.30148 0
M  V30 6405 C 626.969 2.09312 -2.72109 0
M  V30 6406 C 626.055 1.73198 -3.87122 0
M  V30 6407 N 626.446 1.07758 -4.94188 0
M  V30 6408 C 624.744 2.02659 -3.97298 0
M  V30 6409 C 625.445 0.907741 -5.74574 0
M  V30 6410 N 624.421 1.4326 -5.24383 0
M  V30 6411 H 628.223 0.333416 -2.92003 0
M  V30 6412 H 625.737 0.0839073 -1.62183 0
M  V30 6413 H 627.734 2.79162 -3.09635 0
M  V30 6414 H 626.394 2.60807 -1.93416 0
M  V30 6415 H 627.405 0.741613 -5.12563 0
M  V30 6416 H 624.082 2.56204 -3.29645 0
M  V30 6417 H 625.472 0.394112 -6.70743 0
M  V30 6418 N 628.193 1.56834 0.155195 0
M  V30 6419 C 629.123 2.00678 1.19376 0
M  V30 6420 C 630.104 0.884973 1.45266 0
M  V30 6421 O 631.289 1.1522 1.56326 0
M  V30 6422 C 628.419 2.38042 2.5289 0
M  V30 6423 C 627.373 3.53332 2.41538 0
M  V30 6424 C 626.699 3.76485 3.79688 0
M  V30 6425 C 627.999 4.86265 1.9064 0
M  V30 6426 H 629.693 2.87688 0.829232 0
M  V30 6427 H 627.239 1.38407 0.397445 0
M  V30 6428 H 629.192 2.67314 3.25763 0
M  V30 6429 H 627.916 1.4796 2.91162 0
M  V30 6430 H 626.575 3.24213 1.71117 0
M  V30 6431 H 626.223 2.83667 4.15382 0
M  V30 6432 H 625.923 4.54068 3.72956 0
M  V30 6433 H 627.447 4.08174 4.54122 0
M  V30 6434 H 628.861 5.14308 2.53299 0
M  V30 6435 H 627.258 5.67597 1.94818 0
M  V30 6436 H 628.328 4.77184 0.861596 0
M  V30 6437 N 629.671 -0.424282 1.51781 0
M  V30 6438 C 630.896 -1.19928 1.6921 0
M  V30 6439 C 631.321 -1.8392 0.394355 0
M  V30 6440 O 630.679 -1.69371 -0.646778 0
M  V30 6441 C 630.727 -2.24937 2.81843 0
M  V30 6442 O 629.831 -3.3073 2.46356 0
M  V30 6443 H 629.172 -0.35078 0.563781 0
M  V30 6444 H 631.702 -0.499401 1.98412 0
M  V30 6445 H 631.712 -2.69512 3.06312 0
M  V30 6446 H 630.387 -1.77742 3.76006 0
M  V30 6447 H 628.964 -2.9154 2.32505 0
M  V30 6448 N 631.149 -1.42148 -0.680565 0
M  V30 6449 C 632.374 -1.45901 -1.47403 0
M  V30 6450 C 632.799 -0.0700985 -1.87969 0
M  V30 6451 O 632.157 0.930145 -1.55621 0
M  V30 6452 C 632.205 -2.38661 -2.70321 0
M  V30 6453 O 631.309 -1.85399 -3.68376 0
M  V30 6454 H 630.65 -0.494565 -0.443059 0
M  V30 6455 H 633.18 -1.86774 -0.835251 0
M  V30 6456 H 633.19 -2.55046 -3.18458 0
M  V30 6457 H 631.865 -3.39571 -2.40134 0
M  V30 6458 H 630.442 -1.78541 -3.2738 0
M  V30 6459 N 632.627 0.916307 -1.28225 0
M  V30 6460 C 633.852 1.7043 -1.18188 0
M  V30 6461 C 634.277 1.86346 0.256274 0
M  V30 6462 O 633.635 1.37175 1.18544 0
M  V30 6463 C 633.683 3.07546 -1.88275 0
M  V30 6464 O 632.787 3.94904 -1.18848 0
M  V30 6465 H 632.128 0.521967 -0.410423 0
M  V30 6466 H 634.658 1.14589 -1.69501 0
M  V30 6467 H 634.668 3.57793 -1.96082 0
M  V30 6468 H 633.343 2.95279 -2.92887 0
M  V30 6469 H 631.92 3.53339 -1.19187 0
M  V30 6470 N 634.105 1.10431 1.1244 0
M  V30 6471 C 635.037 0.710945 2.17895 0
M  V30 6472 C 636.05 -0.252315 1.60833 0
M  V30 6473 O 637.239 -0.03679 1.78462 0
M  V30 6474 C 634.339 0.0284262 3.38888 0
M  V30 6475 C 633.512 1.01585 4.2544 0
M  V30 6476 C 632.571 0.364826 5.24934 0
M  V30 6477 O 631.597 1.01561 5.60066 0
M  V30 6478 N 632.799 -0.87674 5.73841 0
M  V30 6479 H 635.564 1.61826 2.52255 0
M  V30 6480 H 633.125 0.993132 1.27861 0
M  V30 6481 H 635.117 -0.418568 4.0253 0
M  V30 6482 H 633.687 -0.781294 3.02679 0
M  V30 6483 H 632.907 1.64111 3.58415 0
M  V30 6484 H 634.195 1.68425 4.80115 0
M  V30 6485 H 633.593 -1.42483 5.47462 0
M  V30 6486 H 632.15 -1.26688 6.39369 0
M  V30 6487 N 635.583 -1.29855 0.893053 0
M  V30 6488 C 636.83 -1.95826 0.515585 0
M  V30 6489 C 637.158 -1.70451 -0.936842 0
M  V30 6490 O 636.413 -1.00657 -1.67829 0
M  V30 6491 C 636.712 -3.49515 0.746588 0
M  V30 6492 C 636.378 -3.94955 2.17535 0
M  V30 6493 C 635.04 -4.07073 2.56603 0
M  V30 6494 C 637.392 -4.18536 3.10607 0
M  V30 6495 C 634.72 -4.40138 3.87938 0
M  V30 6496 C 637.072 -4.53073 4.41484 0
M  V30 6497 C 635.736 -4.634 4.80434 0
M  V30 6498 H 635.006 -0.71658 0.188666 0
M  V30 6499 H 637.653 -1.54574 1.13045 0
M  V30 6500 H 635.958 -3.9177 0.0487551 0
M  V30 6501 H 637.655 -3.98644 0.434009 0
M  V30 6502 H 634.245 -3.86035 1.86212 0
M  V30 6503 H 638.429 -4.08646 2.81641 0
M  V30 6504 H 633.685 -4.46335 4.17846 0
M  V30 6505 H 637.859 -4.70269 5.13634 0
M  V30 6506 H 635.486 -4.88775 5.82239 0
M  V30 6507 N 637.061 -0.65484 -1.43351 0
M  V30 6508 C 638.286 -0.175046 -2.0666 0
M  V30 6509 C 638.711 1.15104 -1.4877 0
M  V30 6510 O 638.069 1.71144 -0.598279 0
M  V30 6511 C 638.117 -0.0991544 -3.60464 0
M  V30 6512 O 637.221 0.938169 -4.01587 0
M  V30 6513 H 636.562 -0.0956148 -0.65708 0
M  V30 6514 H 639.092 -0.898222 -1.83829 0
M  V30 6515 H 639.102 0.083632 -4.07914 0
M  V30 6516 H 637.777 -1.06719 -4.01975 0
M  V30 6517 H 636.354 0.72804 -3.65724 0
M  V30 6518 N 638.539 1.52521 -0.396863 0
M  V30 6519 C 639.764 2.06571 0.185258 0
M  V30 6520 C 640.189 1.26605 1.39115 0
M  V30 6521 O 639.547 0.293055 1.78916 0
M  V30 6522 C 639.595 3.5674 0.526189 0
M  V30 6523 O 638.699 3.7929 1.61903 0
M  V30 6524 H 638.04 0.663712 0.0195474 0
M  V30 6525 H 640.57 1.966 -0.566519 0
M  V30 6526 H 640.58 4.00311 0.788338 0
M  V30 6527 H 639.255 4.14379 -0.355397 0
M  V30 6528 H 637.832 3.47605 1.35 0
M  V30 6529 N 640.017 0.126909 1.57088 0
M  V30 6530 C 641.265 -0.528123 1.95078 0
M  V30 6531 C 641.586 -1.66708 1.0116 0
M  V30 6532 O 640.856 -1.95777 0.0693527 0
M  V30 6533 H 639.436 -0.198087 0.720257 0
M  V30 6534 H 642.098 0.197703 1.93895 0
M  V30 6535 H 641.194 -0.917507 2.98309 0
M  V30 6536 N 641.495 -1.56914 -0.146875 0
M  V30 6537 C 642.72 -1.87881 -0.878386 0
M  V30 6538 C 643.145 -0.715945 -1.73942 0
M  V30 6539 O 642.503 0.334447 -1.78189 0
M  V30 6540 C 642.551 -3.17431 -1.71084 0
M  V30 6541 O 641.655 -3.01374 -2.81509 0
M  V30 6542 H 640.996 -0.617289 -0.244644 0
M  V30 6543 H 643.526 -2.04136 -0.137654 0
M  V30 6544 H 643.536 -3.49455 -2.10582 0
M  V30 6545 H 642.211 -4.01671 -1.07856 0
M  V30 6546 H 640.788 -2.80758 -2.45416 0
M  V30 6547 N 642.974 0.416227 -1.52004 0
M  V30 6548 C 643.906 1.52552 -1.71058 0
M  V30 6549 C 644.919 1.51693 -0.59102 0
M  V30 6550 O 646.108 1.56087 -0.865973 0
M  V30 6551 C 643.208 2.91455 -1.72937 0
M  V30 6552 C 642.381 3.16584 -3.01816 0
M  V30 6553 C 641.44 4.35322 -2.95603 0
M  V30 6554 O 640.466 4.32947 -3.6952 0
M  V30 6555 N 641.668 5.40049 -2.12903 0
M  V30 6556 H 644.433 1.36604 -2.66757 0
M  V30 6557 H 641.994 0.60544 -1.50153 0
M  V30 6558 H 643.986 3.68944 -1.66321 0
M  V30 6559 H 642.556 3.00895 -0.847418 0
M  V30 6560 H 641.776 2.27203 -3.22137 0
M  V30 6561 H 643.064 3.30213 -3.87088 0
M  V30 6562 H 642.462 5.44823 -1.52265 0
M  V30 6563 H 641.019 6.16308 -2.1215 0
M  V30 6564 N 644.452 1.42507 0.673017 0
M  V30 6565 C 645.677 1.4668 1.46627 0
M  V30 6566 C 646.102 0.080066 1.8793 0
M  V30 6567 O 645.46 -0.921879 1.56112 0
M  V30 6568 C 645.508 2.40091 2.69051 0
M  V30 6569 O 644.612 1.8735 3.67387 0
M  V30 6570 H 643.953 0.496908 0.44043 0
M  V30 6571 H 646.483 1.87215 0.825334 0
M  V30 6572 H 646.493 2.56731 3.17101 0
M  V30 6573 H 645.168 3.4084 2.3833 0
M  V30 6574 H 643.745 1.80274 3.26429 0
M  V30 6575 N 645.93 -0.909495 1.28709 0
M  V30 6576 C 647.155 -1.69801 1.1909 0
M  V30 6577 C 647.58 -1.86479 -0.246388 0
M  V30 6578 O 646.938 -1.37802 -1.17815 0
M  V30 6579 C 646.986 -3.06543 1.89904 0
M  V30 6580 O 646.09 -3.94268 1.2094 0
M  V30 6581 H 645.431 -0.519783 0.413185 0
M  V30 6582 H 647.961 -1.13689 1.70106 0
M  V30 6583 H 647.971 -3.56748 1.97977 0
M  V30 6584 H 646.646 -2.93722 2.94449 0
M  V30 6585 H 645.223 -3.52702 1.2106 0
M  V30 6586 N 647.408 -1.11026 -1.11852 0
M  V30 6587 C 648.824 -0.843294 -1.35502 0
M  V30 6588 C 649.024 0.534179 -1.9429 0
M  V30 6589 O 648.08 1.28585 -2.17307 0
M  V30 6590 C 649.393 -1.94793 -2.29077 0
M  V30 6591 C 650.941 -1.97709 -2.42652 0
M  V30 6592 C 651.416 -3.07364 -3.39546 0
M  V30 6593 N 652.907 -3.0671 -3.47107 0
M  V30 6594 C 653.642 -3.88197 -4.22008 0
M  V30 6595 N 653.138 -4.79635 -4.99922 0
M  V30 6596 N 654.931 -3.76391 -4.17476 0
M  V30 6597 H 647.082 -1.99805 -0.720538 0
M  V30 6598 H 649.345 -0.868633 -0.379711 0
M  V30 6599 H 649.051 -2.93971 -1.93065 0
M  V30 6600 H 648.925 -1.84039 -3.29256 0
M  V30 6601 H 651.312 -0.991604 -2.77941 0
M  V30 6602 H 651.393 -2.1254 -1.4234 0
M  V30 6603 H 651.037 -4.06136 -3.04985 0
M  V30 6604 H 650.967 -2.89774 -4.39703 0
M  V30 6605 H 653.458 -2.40457 -2.91528 0
M  V30 6606 H 653.771 -5.38357 -5.54429 0
M  V30 6607 H 652.116 -4.8366 -4.99097 0
M  V30 6608 H 655.307 -3.04303 -3.55693 0
M  V30 6609 H 655.48 -4.40131 -4.75593 0
M  V30 6610 N 648.886 1.2938 -0.899927 0
M  V30 6611 C 650.163 1.9046 -0.445443 0
M  V30 6612 C 650.543 1.81683 1.07492 0
M  V30 6613 O 649.891 1.24371 1.91688 0
M  V30 6614 C 650.101 3.35529 -0.960279 0
M  V30 6615 C 651.449 4.12556 -1.00412 0
M  V30 6616 O 652.473 3.44434 -0.907965 0
M  V30 6617 O 651.332 5.34294 -1.14857 0
M  V30 6618 H 648.426 0.815253 -0.138893 0
M  V30 6619 H 650.972 1.37844 -0.989808 0
M  V30 6620 H 649.744 3.36074 -2.00425 0
M  V30 6621 H 649.367 3.95624 -0.395939 0
M  V30 6622 N 650.364 0.662433 1.43002 0
M  V30 6623 C 651.61 0.179857 2.02001 0
M  V30 6624 C 651.943 -1.20625 1.52195 0
M  V30 6625 O 651.218 -1.80726 0.718911 0
M  V30 6626 C 651.501 0.200845 3.59539 0
M  V30 6627 C 651.354 1.62153 4.19555 0
M  V30 6628 C 652.673 -0.457738 4.37713 0
M  V30 6629 H 649.792 0.0668305 0.733964 0
M  V30 6630 H 652.434 0.84487 1.70182 0
M  V30 6631 H 650.584 -0.365411 3.86778 0
M  V30 6632 H 652.256 2.23908 4.03315 0
M  V30 6633 H 650.499 2.16601 3.75854 0
M  V30 6634 H 651.17 1.58799 5.28665 0
M  V30 6635 H 653.646 0.0241495 4.16093 0
M  V30 6636 H 652.522 -0.412363 5.47349 0
M  V30 6637 H 652.783 -1.53336 4.14657 0
M  V30 6638 N 651.842 -1.52309 0.404946 0
M  V30 6639 C 653.07 -2.06185 -0.171818 0
M  V30 6640 C 653.485 -1.27536 -1.39212 0
M  V30 6641 O 652.842 -0.326112 -1.79563 0
M  V30 6642 C 652.893 -3.57647 -0.526417 0
M  V30 6643 O 652.614 -4.3332 0.645417 0
M  V30 6644 C 654.115 -4.27925 -1.15736 0
M  V30 6645 H 651.335 -0.670632 -0.0222328 0
M  V30 6646 H 653.879 -1.96259 0.574692 0
M  V30 6647 H 652.034 -3.67595 -1.22282 0
M  V30 6648 H 652.448 -5.23328 0.35042 0
M  V30 6649 H 653.922 -5.35093 -1.35572 0
M  V30 6650 H 654.399 -3.84134 -2.12926 0
M  V30 6651 H 655.005 -4.22335 -0.501281 0
M  V30 6652 N 653.32 -0.135238 -1.57019 0
M  V30 6653 C 654.545 0.529343 -2.00531 0
M  V30 6654 C 654.97 1.58391 -1.01459 0
M  V30 6655 O 654.328 1.81296 0.0113986 0
M  V30 6656 C 654.376 1.11748 -3.42848 0
M  V30 6657 O 653.48 2.23267 -3.46736 0
M  V30 6658 H 652.821 0.130669 -0.651016 0
M  V30 6659 H 655.351 -0.228503 -2.0332 0
M  V30 6660 H 655.361 1.44905 -3.81401 0
M  V30 6661 H 654.036 0.345147 -4.14465 0
M  V30 6662 H 652.613 1.91428 -3.20015 0
M  V30 6663 N 654.798 1.5699 0.138552 0
M  V30 6664 C 656.023 1.88344 0.86841 0
M  V30 6665 C 656.448 0.725159 1.7356 0
M  V30 6666 O 655.806 -0.324992 1.78363 0
M  V30 6667 C 655.854 3.18334 1.69398 0
M  V30 6668 O 654.958 3.02863 2.79907 0
M  V30 6669 H 654.299 0.618577 0.241367 0
M  V30 6670 H 656.829 2.04207 0.126826 0
M  V30 6671 H 656.839 3.50567 2.08726 0
M  V30 6672 H 655.514 4.02238 1.05725 0
M  V30 6673 H 654.091 2.82056 2.43924 0
M  V30 6674 N 656.276 -0.40816 1.52223 0
M  V30 6675 C 657.501 -1.18127 1.70472 0
M  V30 6676 C 657.926 -1.83491 0.41384 0
M  V30 6677 O 657.284 -1.70047 -0.628778 0
M  V30 6678 C 657.332 -2.21935 2.84213 0
M  V30 6679 O 656.436 -3.28099 2.4985 0
M  V30 6680 H 655.777 -0.344781 0.56747 0
M  V30 6681 H 658.307 -0.478328 1.9893 0
M  V30 6682 H 658.317 -2.66248 3.09153 0
M  V30 6683 H 656.992 -1.73744 3.7787 0
M  V30 6684 H 655.569 -2.89058 2.35584 0
M  V30 6685 N 657.755 -1.42862 -0.66545 0
M  V30 6686 C 659.171 -1.25993 -0.979687 0
M  V30 6687 C 659.371 -0.170831 -2.00775 0
M  V30 6688 O 658.427 0.454827 -2.4837 0
M  V30 6689 C 659.74 -2.62005 -1.47559 0
M  V30 6690 C 661.288 -2.69437 -1.59288 0
M  V30 6691 C 661.763 -4.05838 -2.12272 0
M  V30 6692 N 663.254 -4.0784 -2.19592 0
M  V30 6693 C 663.989 -5.10205 -2.61684 0
M  V30 6694 N 663.485 -6.22949 -3.03161 0
M  V30 6695 N 665.278 -4.9756 -2.61516 0
M  V30 6696 H 657.429 -2.12395 0.0150493 0
M  V30 6697 H 659.692 -0.946355 -0.0558187 0
M  V30 6698 H 659.398 -3.42605 -0.794654 0
M  V30 6699 H 659.272 -2.86566 -2.45275 0
M  V30 6700 H 661.659 -1.89178 -2.26486 0
M  V30 6701 H 661.74 -2.48655 -0.600374 0
M  V30 6702 H 661.384 -4.86559 -1.4568 0
M  V30 6703 H 661.314 -4.23977 -3.12331 0
M  V30 6704 H 663.805 -3.26452 -1.90361 0
M  V30 6705 H 664.118 -6.96899 -3.33993 0
M  V30 6706 H 662.463 -6.2644 -3.00995 0
M  V30 6707 H 665.654 -4.08551 -2.28481 0
M  V30 6708 H 665.827 -5.77468 -2.93999 0
M  V30 6709 N 659.233 0.902656 -1.29189 0
M  V30 6710 C 660.165 2.01149 -1.09872 0
M  V30 6711 C 661.178 1.62732 -0.0471046 0
M  V30 6712 O 662.367 1.76107 -0.29132 0
M  V30 6713 C 659.467 3.32612 -0.649818 0
M  V30 6714 C 658.64 3.99574 -1.7793 0
M  V30 6715 C 657.699 5.09325 -1.32191 0
M  V30 6716 O 656.725 5.31919 -2.02611 0
M  V30 6717 N 657.927 5.80185 -0.191171 0
M  V30 6718 H 660.692 2.18276 -2.05368 0
M  V30 6719 H 658.253 1.07466 -1.2109 0
M  V30 6720 H 660.245 4.03375 -0.327199 0
M  V30 6721 H 658.815 3.11876 0.212597 0
M  V30 6722 H 658.035 3.22213 -2.27095 0
M  V30 6723 H 659.323 4.41056 -2.53668 0
M  V30 6724 H 658.721 5.64312 0.396016 0
M  V30 6725 H 657.278 6.5176 0.0721001 0
M  V30 6726 N 660.711 1.11618 1.11262 0
M  V30 6727 C 661.96 0.860934 1.82403 0
M  V30 6728 C 662.273 -0.615303 1.8567 0
M  V30 6729 O 663.479 -0.986861 2.52929 0
M  V30 6730 C 661.935 1.49048 3.27586 0
M  V30 6731 C 661.543 3.00089 3.32642 0
M  V30 6732 C 663.287 1.31515 4.03614 0
M  V30 6733 C 661.194 3.56019 4.72234 0
M  V30 6734 H 660.124 0.318423 0.683464 0
M  V30 6735 H 662.775 1.34165 1.25188 0
M  V30 6736 H 661.157 0.937434 3.84744 0
M  V30 6737 H 662.331 3.61813 2.85356 0
M  V30 6738 H 660.646 3.16919 2.70096 0
M  V30 6739 H 663.243 1.70732 5.0671 0
M  V30 6740 H 663.586 0.257917 4.155 0
M  V30 6741 H 664.119 1.83694 3.52848 0
M  V30 6742 H 660.858 4.61463 4.65545 0
M  V30 6743 H 660.378 2.99066 5.19923 0
M  V30 6744 H 662.057 3.54568 5.41193 0
M  V30 6745 N 662.189 -1.289 0.906776 0
M  V30 6746 C 663.605 -1.47733 0.603902 0
M  V30 6747 C 663.805 -1.82568 -0.852702 0
M  V30 6748 O 662.861 -1.92642 -1.63234 0
M  V30 6749 C 664.174 -2.58522 1.53581 0
M  V30 6750 C 665.722 -2.72394 1.54177 0
M  V30 6751 C 666.197 -3.86318 2.46013 0
M  V30 6752 N 667.688 -3.93661 2.441 0
M  V30 6753 C 668.423 -4.81177 3.11859 0
M  V30 6754 N 667.919 -5.73333 3.88923 0
M  V30 6755 N 669.712 -4.74728 3.00981 0
M  V30 6756 H 661.863 -1.04567 1.84877 0
M  V30 6757 H 664.126 -0.520118 0.792579 0
M  V30 6758 H 663.832 -2.39667 2.57396 0
M  V30 6759 H 663.706 -3.55475 1.26165 0
M  V30 6760 H 666.093 -2.90641 0.511034 0
M  V30 6761 H 666.174 -1.75993 1.85634 0
M  V30 6762 H 665.818 -3.68826 3.49185 0
M  V30 6763 H 665.748 -4.82102 2.11862 0
M  V30 6764 H 668.239 -3.27751 1.88115 0
M  V30 6765 H 668.552 -6.36923 4.37663 0
M  V30 6766 H 666.897 -5.73196 3.93029 0
M  V30 6767 H 670.088 -4.01722 2.40286 0
M  V30 6768 H 670.261 -5.42719 3.54062 0
M  V30 6769 N 663.667 -0.670007 -1.42649 0
M  V30 6770 C 664.895 -0.19854 -2.05945 0
M  V30 6771 C 665.31 1.14243 -1.50313 0
M  V30 6772 O 664.667 1.70872 -0.641027 0
M  V30 6773 C 664.718 -0.11966 -3.61302 0
M  V30 6774 O 664.439 -1.40764 -4.1487 0
M  V30 6775 C 665.94 0.375878 -4.41704 0
M  V30 6776 H 663.16 -0.0976894 -0.663851 0
M  V30 6777 H 665.704 -0.915392 -1.82868 0
M  V30 6778 H 663.859 0.547851 -3.83507 0
M  V30 6779 H 664.273 -1.27784 -5.08696 0
M  V30 6780 H 665.747 0.379988 -5.50691 0
M  V30 6781 H 666.224 1.41028 -4.15942 0
M  V30 6782 H 666.83 -0.259727 -4.24506 0
M  V30 6783 N 665.145 1.52092 -0.413018 0
M  V30 6784 C 666.092 2.27119 0.410558 0
M  V30 6785 C 667.062 1.29692 1.03774 0
M  V30 6786 O 668.247 1.58561 1.06128 0
M  V30 6787 C 665.387 3.09863 1.51918 0
M  V30 6788 C 664.5 4.22252 0.912528 0
M  V30 6789 C 663.635 4.92348 1.99417 0
M  V30 6790 C 662.674 5.96694 1.36466 0
M  V30 6791 N 661.811 6.60292 2.38661 0
M  V30 6792 H 666.651 2.97067 -0.235661 0
M  V30 6793 H 664.188 1.46542 -0.128055 0
M  V30 6794 H 666.146 3.56144 2.17295 0
M  V30 6795 H 664.776 2.42078 2.13537 0
M  V30 6796 H 663.828 3.80113 0.147697 0
M  V30 6797 H 665.14 4.9709 0.412717 0
M  V30 6798 H 664.294 5.42054 2.72512 0
M  V30 6799 H 663.033 4.17087 2.52764 0
M  V30 6800 H 662.038 5.46304 0.61906 0
M  V30 6801 H 663.263 6.73899 0.838827 0
M  V30 6802 H 661.209 5.87858 2.91134 0
M  V30 6803 H 661.126 7.30816 1.93503 0
M  V30 6804 H 662.394 7.14635 3.11314 0
M  V30 6805 N 666.623 0.143563 1.56945 0
M  V30 6806 C 667.869 -0.50916 1.96304 0
M  V30 6807 C 668.202 -1.64741 1.0283 0
M  V30 6808 O 667.477 -1.94374 0.0700361 0
M  V30 6809 C 667.76 -1.0186 3.45393 0
M  V30 6810 C 667.613 0.117923 4.49645 0
M  V30 6811 C 668.932 -1.90151 3.96901 0
M  V30 6812 H 666.051 -0.183608 0.713763 0
M  V30 6813 H 668.693 0.224095 1.88674 0
M  V30 6814 H 666.843 -1.64345 3.52027 0
M  V30 6815 H 668.515 0.754145 4.55094 0
M  V30 6816 H 666.758 0.777568 4.26774 0
M  V30 6817 H 667.429 -0.280187 5.51288 0
M  V30 6818 H 669.905 -1.375 3.92725 0
M  V30 6819 H 668.781 -2.22707 5.0169 0
M  V30 6820 H 669.042 -2.83718 3.39052 0
M  V30 6821 N 668.101 -1.57061 -0.130224 0
M  V30 6822 C 669.034 -1.94698 -1.19029 0
M  V30 6823 C 670.012 -0.815074 -1.40696 0
M  V30 6824 O 671.196 -1.07223 -1.55034 0
M  V30 6825 C 668.323 -2.23352 -2.5462 0
M  V30 6826 C 667.369 -3.45945 -2.49448 0
M  V30 6827 S 668.202 -4.98927 -1.94505 0
M  V30 6828 C 669.358 -5.30721 -3.31792 0
M  V30 6829 H 669.591 -2.84308 -0.869272 0
M  V30 6830 H 667.124 -1.50688 -0.336531 0
M  V30 6831 H 669.082 -2.40539 -3.32643 0
M  V30 6832 H 667.743 -1.34376 -2.83905 0
M  V30 6833 H 666.936 -3.63324 -3.49302 0
M  V30 6834 H 666.538 -3.28086 -1.79543 0
M  V30 6835 H 668.83 -5.25215 -4.27966 0
M  V30 6836 H 669.773 -6.32048 -3.19251 0
M  V30 6837 H 670.181 -4.5821 -3.29703 0
M  V30 6838 N 669.579 0.400081 -1.52437 0
M  V30 6839 C 670.856 1.15973 -1.57511 0
M  V30 6840 C 671.236 2.0798 -0.361572 0
M  V30 6841 O 670.584 2.19032 0.650929 0
M  V30 6842 C 670.794 1.92912 -2.90837 0
M  V30 6843 C 672.142 2.48662 -3.44169 0
M  V30 6844 O 673.166 2.03081 -2.92637 0
M  V30 6845 O 672.025 3.31894 -4.34176 0
M  V30 6846 H 669.119 0.530023 -0.634827 0
M  V30 6847 H 671.665 0.40613 -1.64769 0
M  V30 6848 H 670.437 1.25564 -3.70607 0
M  V30 6849 H 670.06 2.75257 -2.86913 0
M  V30 6850 N 671.057 1.43213 0.657864 0
M  V30 6851 C 672.303 1.44798 1.41991 0
M  V30 6852 C 672.636 0.070256 1.94073 0
M  V30 6853 O 671.911 -0.908177 1.71995 0
M  V30 6854 C 672.194 2.4865 2.60471 0
M  V30 6855 C 672.047 3.95679 2.13911 0
M  V30 6856 C 673.366 2.49292 3.62686 0
M  V30 6857 H 670.485 0.527244 0.514959 0
M  V30 6858 H 673.127 1.74733 0.74621 0
M  V30 6859 H 671.277 2.23254 3.17946 0
M  V30 6860 H 672.949 4.32116 1.61472 0
M  V30 6861 H 671.192 4.08733 1.45325 0
M  V30 6862 H 671.863 4.6395 2.99089 0
M  V30 6863 H 674.339 2.71917 3.14961 0
M  V30 6864 H 673.215 3.23907 4.43143 0
M  V30 6865 H 673.476 1.52502 4.14964 0
M  V30 6866 N 672.536 -0.895792 1.29666 0
M  V30 6867 C 673.486 -1.98736 1.1175 0
M  V30 6868 C 674.47 -1.6086 0.0357834 0
M  V30 6869 O 675.662 -1.75111 0.257926 0
M  V30 6870 C 672.791 -3.33845 0.800156 0
M  V30 6871 C 671.877 -3.78068 1.9216 0
M  V30 6872 N 672.268 -3.94489 3.16563 0
M  V30 6873 C 670.566 -4.07376 1.81552 0
M  V30 6874 C 671.267 -4.31819 3.89753 0
M  V30 6875 N 670.243 -4.41081 3.17724 0
M  V30 6876 H 674.045 -2.09507 2.06117 0
M  V30 6877 H 671.559 -1.08488 1.20848 0
M  V30 6878 H 673.556 -4.11757 0.652841 0
M  V30 6879 H 672.216 -3.24417 -0.135551 0
M  V30 6880 H 673.227 -3.79914 3.51974 0
M  V30 6881 H 669.904 -4.06483 0.952787 0
M  V30 6882 H 671.294 -4.52337 4.96831 0
M  V30 6883 N 674.014 -1.12206 -1.10668 0
M  V30 6884 C 675.291 -0.787382 -1.79052 0
M  V30 6885 C 675.671 0.723267 -1.98323 0
M  V30 6886 O 675.019 1.6561 -1.57434 0
M  V30 6887 C 675.229 -1.55968 -3.1221 0
M  V30 6888 C 676.577 -1.74413 -3.87125 0
M  V30 6889 O 677.601 -1.5246 -3.21923 0
M  V30 6890 O 676.46 -2.10952 -5.04144 0
M  V30 6891 H 673.554 -0.286137 -0.775922 0
M  V30 6892 H 676.1 -1.22595 -1.1734 0
M  V30 6893 H 674.872 -2.58692 -2.93588 0
M  V30 6894 H 674.495 -1.1152 -3.8164 0
M  V30 6895 N 675.492 1.28418 -0.913599 0
M  V30 6896 C 676.74 1.94596 -0.545594 0
M  V30 6897 C 677.061 1.7227 0.913668 0
M  V30 6898 O 676.331 1.06233 1.64595 0
M  V30 6899 H 674.911 0.720065 -0.198783 0
M  V30 6900 H 677.573 1.56404 -1.16292 0
M  V30 6901 H 676.669 3.03202 -0.739911 0
M  V30 6902 N 676.97 0.677563 1.42291 0
M  V30 6903 C 677.917 0.000947061 2.308 0
M  V30 6904 C 678.887 -0.789889 1.46116 0
M  V30 6905 O 680.072 -0.761578 1.74942 0
M  V30 6906 C 677.212 -0.942387 3.31984 0
M  V30 6907 C 676.325 -0.14508 4.31756 0
M  V30 6908 C 675.46 -1.08442 5.20013 0
M  V30 6909 C 674.499 -0.278958 6.11464 0
M  V30 6910 N 673.636 -1.17115 6.92263 0
M  V30 6911 H 678.476 0.761521 2.88106 0
M  V30 6912 H 676.013 0.38727 1.41911 0
M  V30 6913 H 677.971 -1.50317 3.89179 0
M  V30 6914 H 676.601 -1.66956 2.76271 0
M  V30 6915 H 675.653 0.532368 3.76656 0
M  V30 6916 H 676.965 0.48015 4.96484 0
M  V30 6917 H 676.119 -1.71504 5.81955 0
M  V30 6918 H 674.858 -1.74353 4.55469 0
M  V30 6919 H 673.863 0.364856 5.48588 0
M  V30 6920 H 675.088 0.376099 6.78058 0
M  V30 6921 H 673.034 -1.81661 6.30345 0
M  V30 6922 H 672.951 -0.601063 7.53607 0
M  V30 6923 H 674.219 -1.78915 7.58689 0
M  V30 6924 N 678.448 -1.51871 0.421078 0
M  V30 6925 C 679.694 -2.02237 -0.151014 0
M  V30 6926 C 680.027 -1.30554 -1.43768 0
M  V30 6927 O 679.302 -0.41546 -1.90011 0
M  V30 6928 C 679.585 -3.5802 -0.386482 0
M  V30 6929 C 679.438 -4.40339 0.9177 0
M  V30 6930 C 680.757 -4.24444 -1.16342 0
M  V30 6931 H 677.876 -0.735062 -0.0534102 0
M  V30 6932 H 680.518 -1.81656 0.556888 0
M  V30 6933 H 678.668 -3.75688 -0.989494 0
M  V30 6934 H 680.34 -4.34357 1.55344 0
M  V30 6935 H 678.583 -4.06073 1.526 0
M  V30 6936 H 679.254 -5.47451 0.707187 0
M  V30 6937 H 681.73 -4.10948 -0.652788 0
M  V30 6938 H 680.606 -5.33358 -1.29693 0
M  V30 6939 H 680.867 -3.84204 -2.18724 0
M  V30 6940 N 679.926 -0.151884 -1.56866 0
M  V30 6941 C 681.172 0.498742 -1.96572 0
M  V30 6942 C 681.505 1.64194 -1.03702 0
M  V30 6943 O 680.78 1.94334 -0.0803432 0
M  V30 6944 C 681.063 1.00027 -3.45929 0
M  V30 6945 C 680.916 -0.141767 -4.49577 0
M  V30 6946 C 682.235 1.88044 -3.97904 0
M  V30 6947 H 679.354 0.17982 -0.714726 0
M  V30 6948 H 681.996 -0.234097 -1.88552 0
M  V30 6949 H 680.146 1.62476 -3.52894 0
M  V30 6950 H 681.818 -0.778269 -4.54687 0
M  V30 6951 H 680.061 -0.80019 -4.26356 0
M  V30 6952 H 680.732 0.250947 -5.51429 0
M  V30 6953 H 683.208 1.35416 -3.93449 0
M  V30 6954 H 682.084 2.20043 -5.02864 0
M  V30 6955 H 682.345 2.81916 -3.40552 0
M  V30 6956 N 681.404 1.57128 0.121893 0
M  V30 6957 C 682.629 1.89254 0.848385 0
M  V30 6958 C 683.054 0.743527 1.72781 0
M  V30 6959 O 682.412 -0.306056 1.78698 0
M  V30 6960 C 682.46 3.20113 1.66012 0
M  V30 6961 O 681.564 3.05815 2.76679 0
M  V30 6962 H 680.905 0.621103 0.234793 0
M  V30 6963 H 683.435 2.0433 0.10516 0
M  V30 6964 H 683.445 3.52761 2.04996 0
M  V30 6965 H 682.12 4.03336 1.01452 0
M  V30 6966 H 680.697 2.84627 2.40918 0
M  V30 6967 N 682.882 -0.391992 1.52647 0
M  V30 6968 C 684.11 -1.1586 1.71418 0
M  V30 6969 C 684.525 -1.8381 0.431216 0
M  V30 6970 O 683.882 -1.7256 -0.594085 0
M  V30 6971 C 683.933 -2.20888 2.86165 0
M  V30 6972 O 683.654 -1.5571 4.09495 0
M  V30 6973 C 685.155 -3.103 3.1659 0
M  V30 6974 H 682.375 -0.347494 0.574011 0
M  V30 6975 H 684.919 -0.458972 1.99283 0
M  V30 6976 H 683.074 -2.86492 2.6077 0
M  V30 6977 H 683.488 -2.25474 4.73563 0
M  V30 6978 H 684.962 -3.8003 4.00351 0
M  V30 6979 H 685.439 -3.73639 2.30848 0
M  V30 6980 H 686.045 -2.50345 3.43813 0
M  V30 6981 N 684.36 -1.4356 -0.65026 0
M  V30 6982 C 685.31 -1.45392 -1.75628 0
M  V30 6983 C 686.294 -0.322006 -1.57645 0
M  V30 6984 O 687.486 -0.565996 -1.67707 0
M  V30 6985 C 684.615 -1.38254 -3.1423 0
M  V30 6986 C 683.701 -2.56487 -3.3775 0
M  V30 6987 N 684.092 -3.81824 -3.31729 0
M  V30 6988 C 682.39 -2.51274 -3.6848 0
M  V30 6989 C 683.091 -4.60497 -3.55412 0
M  V30 6990 N 682.067 -3.91274 -3.77367 0
M  V30 6991 H 685.869 -2.40167 -1.69402 0
M  V30 6992 H 683.383 -1.38254 -0.852037 0
M  V30 6993 H 685.38 -1.3765 -3.9352 0
M  V30 6994 H 684.04 -0.445019 -3.21636 0
M  V30 6995 H 685.051 -4.14069 -3.11074 0
M  V30 6996 H 681.728 -1.66223 -3.82983 0
M  V30 6997 H 683.118 -5.69518 -3.5651 0
M  V30 6998 N 685.838 0.888903 -1.30139 0
M  V30 6999 C 686.748 2.02705 -1.18101 0
M  V30 7000 C 687.764 1.73702 -0.101809 0
M  V30 7001 O 688.94 1.98906 -0.315984 0
M  V30 7002 C 686.005 3.35616 -0.869651 0
M  V30 7003 C 685.066 3.78067 -2.03381 0
M  V30 7004 C 684.299 5.04635 -1.73721 0
M  V30 7005 O 684.522 5.66531 -0.663267 0
M  V30 7006 O 683.456 5.43399 -2.58845 0
M  V30 7007 H 687.282 2.15788 -2.13704 0
M  V30 7008 H 684.867 1.01426 -1.09695 0
M  V30 7009 H 686.749 4.15358 -0.711043 0
M  V30 7010 H 685.424 3.23651 0.0565002 0
M  V30 7011 H 684.331 2.99046 -2.24772 0
M  V30 7012 H 685.664 3.94631 -2.94155 0
M  V30 7013 N 687.317 1.12792 1.10072 0
M  V30 7014 C 688.249 0.757003 2.16338 0
M  V30 7015 C 689.262 -0.218144 1.61332 0
M  V30 7016 O 690.451 0.0010727 1.785 0
M  V30 7017 C 687.551 0.100303 3.38752 0
M  V30 7018 C 686.724 1.10586 4.2319 0
M  V30 7019 C 685.783 0.47609 5.24042 0
M  V30 7020 O 684.809 1.13418 5.57786 0
M  V30 7021 N 686.011 -0.754823 5.75572 0
M  V30 7022 H 688.776 1.6714 2.48766 0
M  V30 7023 H 686.337 1.02003 1.25726 0
M  V30 7024 H 688.329 -0.333092 4.03327 0
M  V30 7025 H 686.899 -0.716915 3.04268 0
M  V30 7026 H 686.119 1.71677 3.54853 0
M  V30 7027 H 687.407 1.78571 4.76435 0
M  V30 7028 H 686.805 -1.30838 5.50362 0
M  V30 7029 H 685.362 -1.13098 6.41913 0
M  V30 7030 N 688.795 -1.27931 0.920396 0
M  V30 7031 C 690.041 -1.94977 0.557832 0
M  V30 7032 C 690.374 -1.72224 -0.897365 0
M  V30 7033 O 689.649 -1.04705 -1.63912 0
M  V30 7034 C 689.932 -3.49289 0.875741 0
M  V30 7035 C 689.785 -3.81416 2.38416 0
M  V30 7036 C 691.104 -4.38486 0.376517 0
M  V30 7037 H 688.223 -0.708164 0.20414 0
M  V30 7038 H 690.865 -1.5118 1.15085 0
M  V30 7039 H 689.015 -3.86724 0.371062 0
M  V30 7040 H 690.687 -3.53813 2.95997 0
M  V30 7041 H 688.93 -3.28225 2.83639 0
M  V30 7042 H 689.601 -4.89198 2.55713 0
M  V30 7043 H 692.077 -4.08161 0.808945 0
M  V30 7044 H 690.953 -5.45296 0.627976 0
M  V30 7045 H 691.214 -4.36143 -0.723293 0
M  V30 7046 N 690.273 -0.685099 -1.4193 0
M  V30 7047 C 691.203 -0.0273506 -2.33484 0
M  V30 7048 C 692.184 0.778366 -1.51246 0
M  V30 7049 O 693.369 0.733449 -1.79817 0
M  V30 7050 C 690.499 0.917272 -3.34968 0
M  V30 7051 C 689.453 0.21941 -4.27437 0
M  V30 7052 C 688.779 1.27768 -5.1921 0
M  V30 7053 C 690.079 -0.907894 -5.14349 0
M  V30 7054 H 691.773 -0.791994 -2.88735 0
M  V30 7055 H 689.319 -0.382308 -1.38832 0
M  V30 7056 H 691.272 1.38657 -3.97935 0
M  V30 7057 H 689.996 1.71346 -2.78043 0
M  V30 7058 H 688.655 -0.229757 -3.65879 0
M  V30 7059 H 688.303 2.06612 -4.58607 0
M  V30 7060 H 688.003 0.815803 -5.81909 0
M  V30 7061 H 689.527 1.7477 -5.85054 0
M  V30 7062 H 690.941 -0.519348 -5.70943 0
M  V30 7063 H 689.338 -1.2962 -5.85934 0
M  V30 7064 H 690.408 -1.75218 -4.52136 0
M  V30 7065 N 691.751 1.51645 -0.429126 0
M  V30 7066 C 693.167 1.59394 -0.080994 0
M  V30 7067 C 693.367 1.44064 1.40882 0
M  V30 7068 O 692.423 1.27771 2.17786 0
M  V30 7069 C 693.736 2.94779 -0.593773 0
M  V30 7070 C 695.284 3.08067 -0.553494 0
M  V30 7071 C 695.759 4.45963 -1.04311 0
M  V30 7072 N 697.25 4.5226 -1.00076 0
M  V30 7073 C 697.985 5.57268 -1.35056 0
M  V30 7074 N 697.481 6.69734 -1.77282 0
M  V30 7075 N 699.274 5.47582 -1.26925 0
M  V30 7076 H 691.425 1.59856 -1.39857 0
M  V30 7077 H 693.688 0.753095 -0.575805 0
M  V30 7078 H 693.394 3.11342 -1.63583 0
M  V30 7079 H 693.268 3.77197 -0.0142202 0
M  V30 7080 H 695.655 2.91177 0.479556 0
M  V30 7081 H 695.736 2.27508 -1.16935 0
M  V30 7082 H 695.38 4.63598 -2.07459 0
M  V30 7083 H 695.31 5.25049 -0.403873 0
M  V30 7084 H 697.801 3.71537 -0.690564 0
M  V30 7085 H 698.114 7.4587 -2.02232 0
M  V30 7086 H 696.459 6.70963 -1.81202 0
M  V30 7087 H 699.65 4.58604 -0.93809 0
M  V30 7088 H 699.823 6.29308 -1.54516 0
M  V30 7089 N 693.229 0.160201 1.56784 0
M  V30 7090 C 694.457 -0.494165 2.00912 0
M  V30 7091 C 694.872 -1.57548 1.04038 0
M  V30 7092 O 694.229 -1.82457 0.0394581 0
M  V30 7093 C 694.28 -1.08271 3.44905 0
M  V30 7094 O 694.001 -0.0445704 4.38077 0
M  V30 7095 C 695.502 -1.8164 4.04378 0
M  V30 7096 H 692.722 -0.127498 0.658776 0
M  V30 7097 H 695.266 0.258665 2.02858 0
M  V30 7098 H 693.421 -1.78609 3.4377 0
M  V30 7099 H 693.835 -0.477544 5.22322 0
M  V30 7100 H 695.309 -2.18094 5.07089 0
M  V30 7101 H 695.786 -2.70727 3.45838 0
M  V30 7102 H 696.392 -1.15969 4.09184 0
M  V30 7103 N 694.707 -1.5719 -0.113559 0
M  V30 7104 C 695.654 -2.00736 -1.13901 0
M  V30 7105 C 696.624 -0.88044 -1.40846 0
M  V30 7106 O 697.809 -1.14507 -1.5262 0
M  V30 7107 C 694.949 -2.42132 -2.45899 0
M  V30 7108 C 694.062 -3.68264 -2.25844 0
M  V30 7109 C 693.197 -3.98617 -3.5111 0
M  V30 7110 C 692.236 -5.17915 -3.26236 0
M  V30 7111 N 691.373 -5.44111 -4.4372 0
M  V30 7112 H 696.213 -2.88128 -0.760677 0
M  V30 7113 H 693.75 -1.42523 -0.364099 0
M  V30 7114 H 695.708 -2.6417 -3.22908 0
M  V30 7115 H 694.338 -1.57775 -2.81615 0
M  V30 7116 H 693.39 -3.53809 -1.39726 0
M  V30 7117 H 694.702 -4.55425 -2.03444 0
M  V30 7118 H 693.856 -4.21333 -4.36536 0
M  V30 7119 H 692.595 -3.09942 -3.76546 0
M  V30 7120 H 691.6 -4.95038 -2.39202 0
M  V30 7121 H 692.825 -6.08172 -3.02165 0
M  V30 7122 H 690.771 -4.58394 -4.69266 0
M  V30 7123 H 690.688 -6.25606 -4.24444 0
M  V30 7124 H 691.956 -5.71351 -5.30263 0
M  V30 7125 N 696.185 0.383891 -1.52853 0
M  V30 7126 C 697.133 1.48965 -1.7864 0
M  V30 7127 C 698.127 1.56242 -0.654577 0
M  V30 7128 O 699.333 1.59347 -0.83716 0
M  V30 7129 H 695.708 0.495892 -0.565328 0
M  V30 7130 H 697.679 1.24411 -2.71228 0
M  V30 7131 C 696.428 2.86036 -1.97683 0
M  V30 7132 H 695.751 2.81188 -2.84206 0
M  V30 7133 H 697.191 3.62632 -2.19713 0
M  V30 7134 C 695.65 3.28428 -0.750776 0
M  V30 7135 O 696.18 4.0164 0.0693491 0
M  V30 7136 N 694.386 2.84765 -0.579427 0
M  V30 7137 H 693.933 2.25353 -1.24795 0
M  V30 7138 H 693.891 3.13486 0.239544 0
M  V30 7139 O 697.702 1.52561 0.529841 0
M  V30 7140 H 698.393 1.53227 1.18495 0
M  V30 END ATOM
M  V30 BEGIN BOND
M  V30 END BOND
M  V30 END CTAB
M  END
$$$$
