drugbank_target|P02656 Apolipoprotein C-III (DB09130; DB15067)
 OpenBabel12092121053D

  0  0  0     0  0            999 V3000
M  V30 BEGIN CTAB
M  V30 COUNTS 1522 1537 0 0 0
M  V30 BEGIN ATOM
M  V30 1 H -0.908 1.98254 -0.117106 0
M  V30 2 N 0 1.576 0 0
M  V30 3 C 0.933 2.03868 1.02534 0
M  V30 4 C 1.911 0.928543 1.3348 0
M  V30 5 O 3.095 1.19667 1.45644 0
M  V30 6 C 0.222 2.43627 2.35294 0
M  V30 7 C -0.732 3.65373 2.2001 0
M  V30 8 S 0.101 5.13292 1.52614 0
M  V30 9 C 1.257 5.56322 2.86805 0
M  V30 10 H 1.49 2.90518 0.631377 0
M  V30 11 H -0.977 1.52953 0.210867 0
M  V30 12 H 0.981 2.67203 3.11629 0
M  V30 13 H -0.358 1.57376 2.7183 0
M  V30 14 H -1.165 3.90944 3.18086 0
M  V30 15 H -1.563 3.418 1.51819 0
M  V30 16 H 0.729 5.58782 3.83104 0
M  V30 17 H 1.672 6.56266 2.65933 0
M  V30 18 H 2.08 4.83886 2.90714 0
M  V30 19 N 1.4781 -0.272755 1.55222 0
M  V30 20 C 2.4101 -1.35946 1.8453 0
M  V30 21 C 3.4231 -1.45525 0.729818 0
M  V30 22 O 4.6121 -1.47337 1.00767 0
M  V30 23 C 1.7121 -2.74069 1.99347 0
M  V30 24 C 0.8851 -2.87079 3.30007 0
M  V30 25 C -0.0559 -4.05879 3.34886 0
M  V30 26 O -1.0299 -3.96626 4.08261 0
M  V30 27 N 0.1721 -5.17857 2.62307 0
M  V30 28 H 2.9371 -1.11149 2.78327 0
M  V30 29 H 0.4981 -0.462869 1.55142 0
M  V30 30 H 2.4901 -3.51838 1.99981 0
M  V30 31 H 1.0601 -2.91688 1.12415 0
M  V30 32 H 0.2801 -1.96193 3.41909 0
M  V30 33 H 1.5681 -2.92701 4.16177 0
M  V30 34 H 0.9661 -5.28261 2.02377 0
M  V30 35 H -0.4769 -5.93855 2.68663 0
M  V30 36 N 2.9562 -1.48159 -0.537278 0
M  V30 37 C 4.3672 -1.49429 -1.11928 0
M  V30 38 C 4.7182 -0.26 -1.9447 0
M  V30 39 O 3.8432 0.633489 -2.0692 0
M  V30 40 C 4.4382 -2.70758 -2.03656 0
M  V30 41 C 2.9972 -2.74923 -2.57088 0
M  V30 42 C 2.1442 -2.42835 -1.3389 0
M  V30 43 H 5.0952 -1.55381 -0.322886 0
M  V30 44 H 5.1162 -2.48861 -2.87834 0
M  V30 45 H 4.6282 -3.60575 -1.43553 0
M  V30 46 H 2.7292 -1.89296 -3.20933 0
M  V30 47 H 2.8422 -3.76157 -2.9672 0
M  V30 48 H 1.2062 -1.93836 -1.65226 0
M  V30 49 H 1.9892 -3.34884 -0.755504 0
M  V30 50 N 4.4343 0.785586 -1.36625 0
M  V30 51 C 5.8503 1.08419 -1.17122 0
M  V30 52 C 6.0503 2.015 0.00208491 0
M  V30 53 O 5.1063 2.43551 0.666278 0
M  V30 54 C 6.4193 1.69498 -2.48377 0
M  V30 55 C 7.9673 1.81821 -2.54775 0
M  V30 56 C 8.4423 2.46315 -3.86126 0
M  V30 57 N 9.9333 2.53779 -3.87492 0
M  V30 58 C 10.6683 3.045 -4.85868 0
M  V30 59 N 10.1643 3.55499 -5.94637 0
M  V30 60 N 11.9573 3.03247 -4.73284 0
M  V30 61 H 4.1083 0.167264 -2.1174 0
M  V30 62 H 6.3713 0.13682 -0.938075 0
M  V30 63 H 6.0773 1.08571 -3.34522 0
M  V30 64 H 5.9513 2.6896 -2.64462 0
M  V30 65 H 8.3383 2.41884 -1.69045 0
M  V30 66 H 8.4193 0.811532 -2.42586 0
M  V30 67 H 8.0633 1.86895 -4.72263 0
M  V30 68 H 7.9933 3.47561 -3.95612 0
M  V30 69 H 10.4843 2.17672 -3.08913 0
M  V30 70 H 10.7973 3.92562 -6.65669 0
M  V30 71 H 9.1423 3.5364 -5.98301 0
M  V30 72 H 12.3333 2.62696 -3.87438 0
M  V30 73 H 12.5063 3.42467 -5.50109 0
M  V30 74 N 5.9124 1.20967 1.01018 0
M  V30 75 C 7.1584 1.02526 1.74975 0
M  V30 76 C 7.4914 -0.4408 1.89131 0
M  V30 77 O 6.7664 -1.32718 1.42184 0
M  V30 78 C 7.0494 1.71699 3.1653 0
M  V30 79 C 6.9024 3.25791 3.10129 0
M  V30 80 C 8.2214 1.45531 4.15342 0
M  V30 81 H 5.3404 0.373863 0.635134 0
M  V30 82 H 7.9824 1.49071 1.17805 0
M  V30 83 H 6.1324 1.32128 3.65341 0
M  V30 84 H 7.8044 3.74697 2.69072 0
M  V30 85 H 6.0474 3.56363 2.47362 0
M  V30 86 H 6.7184 3.69353 4.10222 0
M  V30 87 H 9.1944 1.79872 3.75213 0
M  V30 88 H 8.0704 1.96453 5.1254 0
M  V30 89 H 8.3314 0.384237 4.40427 0
M  V30 90 N 7.3905 -1.2043 1.01659 0
M  V30 91 C 8.3205 -2.25466 0.607226 0
M  V30 92 C 9.3015 -1.65853 -0.377716 0
M  V30 93 O 10.4865 -1.92409 -0.263149 0
M  V30 94 C 7.6165 -3.47256 -0.0552949 0
M  V30 95 C 6.5705 -4.19462 0.850632 0
M  V30 96 C 5.8965 -5.34673 0.0538859 0
M  V30 97 C 7.1965 -4.75603 2.15868 0
M  V30 98 H 8.8905 -2.59962 1.48526 0
M  V30 99 H 6.4365 -1.2496 0.715605 0
M  V30 100 H 8.3895 -4.19917 -0.353233 0
M  V30 101 H 7.1135 -3.11924 -0.968045 0
M  V30 102 H 5.7725 -3.48667 1.13257 0
M  V30 103 H 5.4205 -4.95585 -0.860514 0
M  V30 104 H 5.1205 -5.83913 0.657192 0
M  V30 105 H 6.6445 -6.10138 -0.237598 0
M  V30 106 H 8.0585 -5.40083 1.92311 0
M  V30 107 H 6.4555 -5.3528 2.71284 0
M  V30 108 H 7.5255 -3.94346 2.82169 0
M  V30 109 N 8.8686 -0.792821 -1.36206 0
M  V30 110 C 9.7986 -0.207853 -2.32573 0
M  V30 111 C 10.7796 0.659055 -1.56813 0
M  V30 112 O 11.9646 0.592176 -1.84951 0
M  V30 113 C 9.0946 0.655449 -3.41059 0
M  V30 114 C 8.0486 -0.111842 -4.27854 0
M  V30 115 C 7.3746 0.872274 -5.27537 0
M  V30 116 C 8.6746 -1.30299 -5.05786 0
M  V30 117 H 10.3686 -1.01294 -2.81744 0
M  V30 118 H 7.9146 -0.48854 -1.3546 0
M  V30 119 H 9.8676 1.07464 -4.07467 0
M  V30 120 H 8.5916 1.49328 -2.90463 0
M  V30 121 H 7.2506 -0.512053 -3.63006 0
M  V30 122 H 6.8986 1.70523 -4.73214 0
M  V30 123 H 6.5986 0.363291 -5.86476 0
M  V30 124 H 8.1226 1.28996 -5.96818 0
M  V30 125 H 9.5366 -0.959379 -5.65216 0
M  V30 126 H 7.9336 -1.7455 -5.74154 0
M  V30 127 H 9.0036 -2.09663 -4.37229 0
M  V30 128 N 10.3467 1.47872 -0.545128 0
M  V30 129 C 11.5927 2.02793 -0.0166104 0
M  V30 130 C 11.9257 1.41987 1.32489 0
M  V30 131 O 11.2007 0.571045 1.85928 0
M  V30 132 C 11.4837 3.59989 0.0893294 0
M  V30 133 C 11.3367 4.3125 -1.27841 0
M  V30 134 C 12.6557 4.32606 0.808724 0
M  V30 135 H 9.7747 0.736962 -0.00751035 0
M  V30 136 H 12.4167 1.76433 -0.705085 0
M  V30 137 H 10.5667 3.82579 0.675681 0
M  V30 138 H 12.2387 4.20035 -1.90704 0
M  V30 139 H 10.4817 3.92076 -1.85632 0
M  V30 140 H 11.1527 5.39736 -1.15713 0
M  V30 141 H 13.6287 4.14936 0.310992 0
M  V30 142 H 12.5047 5.42251 0.851782 0
M  V30 143 H 12.7657 4.00963 1.86229 0
M  V30 144 N 11.8248 0.280983 1.55075 0
M  V30 145 C 13.0708 -0.33461 2.00021 0
M  V30 146 C 13.4038 -1.55063 1.16915 0
M  V30 147 O 12.6788 -1.93006 0.240646 0
M  V30 148 C 12.9618 -0.711007 3.53011 0
M  V30 149 C 12.8148 0.512766 4.46868 0
M  V30 150 C 14.1338 -1.54522 4.12081 0
M  V30 151 H 11.2528 -0.120147 0.727141 0
M  V30 152 H 13.8948 0.389097 1.85973 0
M  V30 153 H 12.0448 -1.32761 3.65112 0
M  V30 154 H 13.7168 1.15131 4.46702 0
M  V30 155 H 11.9598 1.14975 4.18286 0
M  V30 156 H 12.6308 0.205556 5.51617 0
M  V30 157 H 15.1068 -1.02442 4.03293 0
M  V30 158 H 13.9828 -1.77739 5.19327 0
M  V30 159 H 14.2438 -2.52813 3.62682 0
M  V30 160 N 13.3029 -1.57598 0.00835791 0
M  V30 161 C 14.2659 -2.07884 -0.965242 0
M  V30 162 C 15.2659 -0.989825 -1.26725 0
M  V30 163 O 16.4559 -1.25218 -1.21104 0
M  V30 164 C 13.5879 -2.52731 -2.28779 0
M  V30 165 H 14.7809 -2.95178 -0.530112 0
M  V30 166 H 12.3339 -1.54458 -0.239283 0
M  V30 167 H 13.0689 -1.68705 -2.76964 0
M  V30 168 H 12.8539 -3.32272 -2.08177 0
M  V30 169 H 14.3439 -2.91933 -2.98605 0
M  V30 170 N 14.781 0.264519 -1.55364 0
M  V30 171 C 15.711 1.33121 -1.91836 0
M  V30 172 C 16.692 1.51101 -0.781192 0
M  V30 173 O 17.877 1.64003 -1.04003 0
M  V30 174 C 15.007 2.68921 -2.19769 0
M  V30 175 C 13.961 2.65661 -3.35571 0
M  V30 176 C 13.287 4.05093 -3.49004 0
M  V30 177 C 14.587 2.24187 -4.71739 0
M  V30 178 H 16.281 1.02844 -2.81182 0
M  V30 179 H 13.827 0.493286 -1.35287 0
M  V30 180 H 15.78 3.43663 -2.43872 0
M  V30 181 H 14.504 3.00799 -1.27231 0
M  V30 182 H 13.163 1.93377 -3.1145 0
M  V30 183 H 12.811 4.34206 -2.53917 0
M  V30 184 H 12.511 4.03804 -4.26868 0
M  V30 185 H 14.035 4.81561 -3.75408 0
M  V30 186 H 15.449 2.88654 -4.9533 0
M  V30 187 H 13.846 2.34044 -5.52579 0
M  V30 188 H 14.916 1.19327 -4.69988 0
M  V30 189 N 16.2591 1.48442 0.529413 0
M  V30 190 C 17.1891 1.65902 1.64313 0
M  V30 191 C 18.1701 0.507897 1.6234 0
M  V30 192 O 19.3551 0.740503 1.79528 0
M  V30 193 C 16.4851 1.69911 3.02898 0
M  V30 194 C 15.4391 2.8453 3.19729 0
M  V30 195 C 14.7651 2.73629 4.59381 0
M  V30 196 C 16.0651 4.25821 3.02447 0
M  V30 197 H 17.7591 2.5914 1.49955 0
M  V30 198 H 15.3051 1.24709 0.719982 0
M  V30 199 H 17.2581 1.80715 3.80684 0
M  V30 200 H 15.9821 0.732524 3.18279 0
M  V30 201 H 14.6411 2.73283 2.44361 0
M  V30 202 H 14.2891 1.74938 4.71599 0
M  V30 203 H 13.9891 3.50541 4.71588 0
M  V30 204 H 15.5131 2.86401 5.39265 0
M  V30 205 H 16.9271 4.37898 3.70024 0
M  V30 206 H 15.3241 5.03735 3.26146 0
M  V30 207 H 16.3941 4.42244 1.98867 0
M  V30 208 N 17.7372 -0.778329 1.37039 0
M  V30 209 C 18.7002 -1.87301 1.32102 0
M  V30 210 C 19.7002 -1.59198 0.226405 0
M  V30 211 O 20.8902 -1.67403 0.481861 0
M  V30 212 C 18.0222 -3.24309 1.05055 0
M  V30 213 H 19.2152 -1.93093 2.29467 0
M  V30 214 H 16.7682 -0.977358 1.21973 0
M  V30 215 H 17.5032 -3.24196 0.0819373 0
M  V30 216 H 17.2882 -3.46098 1.84279 0
M  V30 217 H 18.7782 -4.04382 1.04234 0
M  V30 218 N 19.2153 -1.21501 -1.00376 0
M  V30 219 C 20.1453 -0.999478 -2.11028 0
M  V30 220 C 21.1263 0.0759671 -1.6993 0
M  V30 221 O 22.3113 -0.0841106 -1.94018 0
M  V30 222 C 19.4413 -0.564709 -3.42678 0
M  V30 223 C 18.3953 -1.58486 -3.97576 0
M  V30 224 C 17.7213 -1.00628 -5.25146 0
M  V30 225 C 19.0213 -2.97204 -4.29496 0
M  V30 226 H 20.7153 -1.92495 -2.29317 0
M  V30 227 H 18.2613 -0.92693 -1.102 0
M  V30 228 H 20.2143 -0.401091 -4.19487 0
M  V30 229 H 18.9383 0.396411 -3.24185 0
M  V30 230 H 17.5973 -1.73606 -3.22888 0
M  V30 231 H 17.2453 -0.0368439 -5.02987 0
M  V30 232 H 16.9453 -1.68771 -5.62841 0
M  V30 233 H 18.4693 -0.854015 -6.04598 0
M  V30 234 H 19.8833 -2.8552 -4.97143 0
M  V30 235 H 18.2803 -3.62372 -4.78338 0
M  V30 236 H 19.3503 -3.47956 -3.3772 0
M  V30 237 N 20.6934 1.19889 -1.02296 0
M  V30 238 C 21.6234 2.25141 -0.619174 0
M  V30 239 C 22.6044 1.66051 0.368915 0
M  V30 240 O 23.7894 1.92546 0.252941 0
M  V30 241 C 20.9194 3.4728 0.0368783 0
M  V30 242 C 19.8734 4.19005 -0.872865 0
M  V30 243 C 19.1994 5.34637 -0.0822402 0
M  V30 244 C 20.4994 4.74452 -2.18387 0
M  V30 245 H 22.1934 2.59171 -1.49903 0
M  V30 246 H 19.7394 1.24579 -0.722222 0
M  V30 247 H 21.6924 4.20098 0.330958 0
M  V30 248 H 20.4164 3.12433 0.95149 0
M  V30 249 H 19.0754 3.48061 -1.15105 0
M  V30 250 H 18.7234 4.96034 0.83422 0
M  V30 251 H 18.4234 5.83557 -0.688149 0
M  V30 252 H 19.9474 6.10255 0.205238 0
M  V30 253 H 21.3614 5.39055 -1.95172 0
M  V30 254 H 19.7584 5.33834 -2.74119 0
M  V30 255 H 20.8284 3.92844 -2.84257 0
M  V30 256 N 22.1715 0.800033 1.35784 0
M  V30 257 C 23.1345 0.211565 2.28221 0
M  V30 258 C 24.1345 -0.59728 1.49296 0
M  V30 259 O 25.3245 -0.416721 1.69142 0
M  V30 260 C 22.4565 -0.705846 3.33513 0
M  V30 261 H 23.6495 1.02677 2.81776 0
M  V30 262 H 21.2025 0.570211 1.45528 0
M  V30 263 H 21.9375 -1.54498 2.85133 0
M  V30 264 H 21.7225 -0.127655 3.91892 0
M  V30 265 H 23.2125 -1.11211 4.02519 0
M  V30 266 N 23.6496 -1.47581 0.552962 0
M  V30 267 C 24.8746 -2.07378 0.0300593 0
M  V30 268 C 25.2996 -1.40355 -1.25229 0
M  V30 269 O 24.6576 -0.477099 -1.7491 0
M  V30 270 C 24.7056 -3.60274 -0.153231 0
M  V30 271 O 23.8096 -3.94041 -1.21678 0
M  V30 272 H 23.1506 -0.662158 0.0494182 0
M  V30 273 H 25.6806 -1.89662 0.767434 0
M  V30 274 H 25.6906 -4.0633 -0.368761 0
M  V30 275 H 24.3656 -4.08455 0.783397 0
M  V30 276 H 22.9426 -3.59735 -0.982079 0
M  V30 277 N 25.1277 -0.289203 -1.54924 0
M  V30 278 C 26.0907 0.579144 -2.21762 0
M  V30 279 C 27.0907 1.07047 -1.1999 0
M  V30 280 O 28.2807 0.968384 -1.44803 0
M  V30 281 C 25.4127 1.80055 -2.8947 0
M  V30 282 H 26.6057 -0.00464908 -2.999 0
M  V30 283 H 24.1587 -0.0399306 -1.56249 0
M  V30 284 H 24.8937 2.42449 -2.15381 0
M  V30 285 H 24.6787 1.45602 -3.64064 0
M  V30 286 H 26.1687 2.41773 -3.40493 0
M  V30 287 N 26.6058 1.57591 -0.0167156 0
M  V30 288 C 28.0218 1.55946 0.339557 0
M  V30 289 C 28.2218 1.02109 1.73713 0
M  V30 290 O 27.2778 0.662303 2.43659 0
M  V30 291 C 28.5908 3.00037 0.199499 0
M  V30 292 C 30.1388 3.11805 0.273193 0
M  V30 293 C 30.6138 4.57713 0.162068 0
M  V30 294 N 32.1048 4.6268 0.219444 0
M  V30 295 C 32.8398 5.73185 0.157054 0
M  V30 296 N 32.3358 6.92786 0.0442936 0
M  V30 297 N 34.1288 5.61707 0.21014 0
M  V30 298 H 26.2798 1.90921 -0.930758 0
M  V30 299 H 28.5428 0.877674 -0.358319 0
M  V30 300 H 28.2488 3.4333 -0.76273 0
M  V30 301 H 28.1228 3.64387 0.974786 0
M  V30 302 H 30.5098 2.68433 1.22587 0
M  V30 303 H 30.5908 2.50201 -0.532256 0
M  V30 304 H 30.2348 5.01763 -0.78714 0
M  V30 305 H 30.1648 5.17283 0.986222 0
M  V30 306 H 32.6558 3.76649 0.307246 0
M  V30 307 H 32.9688 7.728 0.00304069 0
M  V30 308 H 31.3138 6.94999 0.00968457 0
M  V30 309 H 34.5048 4.6716 0.296546 0
M  V30 310 H 34.6778 6.47807 0.158054 0
M  V30 311 N 28.0839 -0.256276 1.55502 0
M  V30 312 C 29.0469 -1.30047 1.88734 0
M  V30 313 C 30.0469 -1.4154 0.763086 0
M  V30 314 O 31.2369 -1.40403 1.03115 0
M  V30 315 C 28.3689 -2.67953 2.10747 0
M  V30 316 H 29.5619 -1.01802 2.82093 0
M  V30 317 H 27.1149 -0.495134 1.4825 0
M  V30 318 H 27.8499 -3.01351 1.19825 0
M  V30 319 H 27.6349 -2.60993 2.92617 0
M  V30 320 H 29.1249 -3.43368 2.37673 0
M  V30 321 N 29.562 -1.4872 -0.521534 0
M  V30 322 C 30.787 -1.61101 -1.30618 0
M  V30 323 C 31.212 -0.274611 -1.86085 0
M  V30 324 O 30.57 0.754937 -1.64834 0
M  V30 325 C 30.618 -2.66709 -2.4269 0
M  V30 326 O 29.722 -2.24456 -3.45967 0
M  V30 327 H 29.063 -0.539921 -0.386499 0
M  V30 328 H 31.593 -1.94767 -0.626645 0
M  V30 329 H 31.603 -2.88245 -2.88754 0
M  V30 330 H 30.278 -3.63727 -2.01682 0
M  V30 331 H 28.855 -2.13168 -3.05964 0
M  V30 332 N 31.0401 0.771051 -1.3745 0
M  V30 333 C 31.9501 1.91538 -1.35464 0
M  V30 334 C 32.9661 1.72134 -0.254123 0
M  V30 335 O 34.1421 1.95358 -0.489626 0
M  V30 336 C 31.2071 3.26671 -1.16134 0
M  V30 337 C 30.2681 3.58723 -2.35831 0
M  V30 338 C 29.5011 4.87409 -2.17413 0
M  V30 339 O 29.7241 5.58506 -1.15876 0
M  V30 340 O 28.6581 5.18539 -3.05615 0
M  V30 341 H 32.4841 1.96165 -2.31847 0
M  V30 342 H 30.0691 0.9139 -1.18187 0
M  V30 343 H 31.9511 4.07499 -1.07345 0
M  V30 344 H 30.6261 3.22894 -0.228251 0
M  V30 345 H 29.5331 2.78127 -2.50192 0
M  V30 346 H 30.8661 3.67243 -3.27709 0
M  V30 347 N 32.5182 1.22032 0.997298 0
M  V30 348 C 33.4812 0.987909 2.06816 0
M  V30 349 C 34.4812 -0.0440084 1.6074 0
M  V30 350 O 35.6712 0.194053 1.73116 0
M  V30 351 C 32.8032 0.49132 3.37341 0
M  V30 352 H 33.9962 1.93803 2.28868 0
M  V30 353 H 31.5492 1.03838 1.16822 0
M  V30 354 H 32.2842 -0.463364 3.20973 0
M  V30 355 H 32.0692 1.23575 3.72118 0
M  V30 356 H 33.5592 0.348824 4.16141 0
M  V30 357 N 33.9963 -1.19345 1.0293 0
M  V30 358 C 34.9063 -2.26245 0.620515 0
M  V30 359 C 35.9223 -1.70486 -0.347928 0
M  V30 360 O 37.0983 -2.00347 -0.205704 0
M  V30 361 C 34.1633 -3.46693 -0.0218957 0
M  V30 362 C 33.2243 -4.17632 0.994102 0
M  V30 363 C 32.4573 -5.32329 0.382253 0
M  V30 364 O 32.6803 -5.64552 -0.814676 0
M  V30 365 O 31.6143 -5.91664 1.10531 0
M  V30 366 H 35.4403 -2.63453 1.51083 0
M  V30 367 H 33.0253 -1.26207 0.799513 0
M  V30 368 H 34.9073 -4.19683 -0.380072 0
M  V30 369 H 33.5823 -3.11333 -0.886209 0
M  V30 370 H 32.4893 -3.4676 1.40387 0
M  V30 371 H 33.8223 -4.56964 1.8288 0
M  V30 372 N 35.4744 -0.807222 -1.35358 0
M  V30 373 C 36.7514 -0.311126 -1.9311 0
M  V30 374 C 37.1314 1.19937 -1.73719 0
M  V30 375 O 36.4794 1.99918 -1.10657 0
M  V30 376 C 36.6894 -0.723226 -3.41424 0
M  V30 377 C 38.0374 -0.713078 -4.18569 0
M  V30 378 O 39.0614 -0.664811 -3.49941 0
M  V30 379 O 37.9204 -0.772022 -5.41019 0
M  V30 380 H 35.0144 -0.081526 -0.822972 0
M  V30 381 H 37.5604 -0.890962 -1.4443 0
M  V30 382 H 36.3324 -1.76426 -3.4927 0
M  V30 383 H 35.9554 -0.118232 -3.97424 0
M  V30 384 N 36.9525 1.47285 -0.560781 0
M  V30 385 C 37.9155 2.28535 0.174488 0
M  V30 386 C 38.9155 1.37153 0.839388 0
M  V30 387 O 40.1055 1.59748 0.694702 0
M  V30 388 C 37.2375 3.16934 1.25561 0
M  V30 389 H 38.4305 2.95012 -0.539262 0
M  V30 390 H 35.9835 1.53034 -0.317865 0
M  V30 391 H 36.7185 2.55157 2.00164 0
M  V30 392 H 36.5035 3.8419 0.783604 0
M  V30 393 H 37.9935 3.78143 1.77193 0
M  V30 394 N 38.4306 0.297415 1.54768 0
M  V30 395 C 39.6556 -0.318435 2.04941 0
M  V30 396 C 40.0806 -1.4701 1.17345 0
M  V30 397 O 39.4386 -1.80436 0.176758 0
M  V30 398 C 39.4866 -0.755749 3.52592 0
M  V30 399 O 38.5906 -1.86088 3.68028 0
M  V30 400 H 37.9316 -0.062421 0.661059 0
M  V30 401 H 40.4616 0.438215 1.99852 0
M  V30 402 H 40.4716 -1.04552 3.94376 0
M  V30 403 H 39.1466 0.0867233 4.1581 0
M  V30 404 H 37.7236 -1.57193 3.38149 0
M  V30 405 N 39.9087 -1.5758 0.0250728 0
M  V30 406 C 40.8387 -2.13007 -0.956575 0
M  V30 407 C 41.8197 -1.0452 -1.342 0
M  V30 408 O 43.0047 -1.32332 -1.42133 0
M  V30 409 C 40.1347 -2.65386 -2.24026 0
M  V30 410 C 39.0887 -3.78623 -1.99571 0
M  V30 411 C 38.4147 -4.17414 -3.3417 0
M  V30 412 C 39.7147 -5.04867 -1.33814 0
M  V30 413 H 41.4087 -2.9528 -0.494991 0
M  V30 414 H 38.9547 -1.42042 -0.236651 0
M  V30 415 H 40.9077 -3.02794 -2.93076 0
M  V30 416 H 39.6317 -1.80268 -2.72343 0
M  V30 417 H 38.2907 -3.41646 -1.32941 0
M  V30 418 H 37.9387 -3.29284 -3.80238 0
M  V30 419 H 37.6387 -4.93719 -3.18615 0
M  V30 420 H 39.1627 -4.57402 -4.04495 0
M  V30 421 H 40.5767 -5.39888 -1.92857 0
M  V30 422 H 38.9737 -5.86144 -1.28669 0
M  V30 423 H 40.0437 -4.83904 -0.310561 0
M  V30 424 N 41.3868 0.248026 -1.55636 0
M  V30 425 C 42.3168 1.31079 -1.93237 0
M  V30 426 C 43.2978 1.50264 -0.797174 0
M  V30 427 O 44.4828 1.62891 -1.05737 0
M  V30 428 C 41.6128 2.66575 -2.22609 0
M  V30 429 C 40.5668 2.62087 -3.3837 0
M  V30 430 C 39.8928 4.01369 -3.53281 0
M  V30 431 C 41.1928 2.19171 -4.7409 0
M  V30 432 H 42.8868 0.998556 -2.82257 0
M  V30 433 H 40.4328 0.47891 -1.35803 0
M  V30 434 H 42.3858 3.41057 -2.47503 0
M  V30 435 H 41.1098 2.99432 -1.30414 0
M  V30 436 H 39.7688 1.90063 -3.13483 0
M  V30 437 H 39.4168 4.31489 -2.58508 0
M  V30 438 H 39.1168 3.99254 -4.31127 0
M  V30 439 H 40.6408 4.77552 -3.80495 0
M  V30 440 H 42.0548 2.83384 -4.98363 0
M  V30 441 H 40.4518 2.2817 -5.5503 0
M  V30 442 H 41.5218 1.14336 -4.71227 0
M  V30 443 N 42.8649 1.48995 0.513639 0
M  V30 444 C 44.0899 1.61792 1.29762 0
M  V30 445 C 44.5149 0.284475 1.85936 0
M  V30 446 O 43.8729 -0.746185 1.65232 0
M  V30 447 C 43.9209 2.67993 2.41272 0
M  V30 448 O 43.0249 2.26287 3.44772 0
M  V30 449 H 42.3659 0.541963 0.38363 0
M  V30 450 H 44.8959 1.95097 0.616307 0
M  V30 451 H 44.9059 2.89772 2.87221 0
M  V30 452 H 43.5809 3.64791 1.9975 0
M  V30 453 H 42.1579 2.14788 3.04829 0
M  V30 454 N 44.343 -0.763751 1.37857 0
M  V30 455 C 45.59 -1.52257 1.33506 0
M  V30 456 C 45.918 -1.94343 -0.078022 0
M  V30 457 O 45.173 -1.64958 -1.05297 0
M  V30 458 C 45.472 -2.79499 2.22745 0
M  V30 459 C 45.138 -2.56426 3.70886 0
M  V30 460 C 43.8 -2.49842 4.11257 0
M  V30 461 C 46.152 -2.36008 4.64704 0
M  V30 462 C 43.48 -2.20841 5.43549 0
M  V30 463 C 45.832 -2.0853 5.97242 0
M  V30 464 C 44.496 -2.00396 6.36709 0
M  V30 465 H 43.766 -0.557149 0.488534 0
M  V30 466 H 46.413 -0.879073 1.70131 0
M  V30 467 H 44.718 -3.48447 1.79142 0
M  V30 468 H 46.415 -3.37413 2.16688 0
M  V30 469 H 43.005 -2.62416 3.38874 0
M  V30 470 H 47.189 -2.40079 4.34368 0
M  V30 471 H 42.445 -2.13045 5.73081 0
M  V30 472 H 46.619 -1.91732 6.69486 0
M  V30 473 H 44.246 -1.77688 7.39142 0
M  V30 474 N 45.8211 -1.22559 -0.990812 0
M  V30 475 C 46.7541 -0.940773 -2.07905 0
M  V30 476 C 47.7321 0.117082 -1.62178 0
M  V30 477 O 48.9161 -0.0149506 -1.88494 0
M  V30 478 C 46.0431 -0.415321 -3.36144 0
M  V30 479 C 45.0891 -1.45818 -4.00799 0
M  V30 480 S 45.9221 -3.03219 -4.41382 0
M  V30 481 C 47.0781 -2.52317 -5.72789 0
M  V30 482 H 47.3111 -1.8623 -2.31745 0
M  V30 483 H 44.8441 -1.05688 -1.12558 0
M  V30 484 H 46.8021 -0.118747 -4.10328 0
M  V30 485 H 45.4631 0.485121 -3.10331 0
M  V30 486 H 44.6561 -1.04044 -4.93144 0
M  V30 487 H 44.2581 -1.70356 -3.32949 0
M  V30 488 H 46.5501 -1.93688 -6.49224 0
M  V30 489 H 47.4931 -3.43161 -6.19392 0
M  V30 490 H 47.9011 -1.93529 -5.30289 0
M  V30 491 N 47.2992 1.18797 -1.03562 0
M  V30 492 C 48.2312 2.21731 -0.580337 0
M  V30 493 C 49.2442 1.59051 0.347349 0
M  V30 494 O 50.4332 1.77929 0.142669 0
M  V30 495 C 47.5332 3.38459 0.172805 0
M  V30 496 C 46.7062 4.3072 -0.761496 0
M  V30 497 C 45.7652 5.26174 -0.0525547 0
M  V30 498 O 44.7912 5.65108 -0.681333 0
M  V30 499 N 45.9932 5.67624 1.21586 0
M  V30 500 H 48.7582 2.61417 -1.46565 0
M  V30 501 H 46.3192 1.33531 -0.915476 0
M  V30 502 H 48.3112 3.99335 0.656793 0
M  V30 503 H 46.8812 2.97507 0.959602 0
M  V30 504 H 46.1012 3.67525 -1.42544 0
M  V30 505 H 47.3892 4.89267 -1.39626 0
M  V30 506 H 46.7872 5.38038 1.74732 0
M  V30 507 H 45.3442 6.30721 1.64421 0
M  V30 508 N 48.7773 0.814389 1.34928 0
M  V30 509 C 50.0253 0.397636 1.9815 0
M  V30 510 C 50.3463 -1.04069 1.64908 0
M  V30 511 O 49.6163 -1.72121 0.93548 0
M  V30 512 H 48.1963 0.144043 0.732981 0
M  V30 513 H 50.8583 1.04195 1.6471 0
M  V30 514 H 49.9543 0.509688 3.0791 0
M  V30 515 N 50.2554 -1.46986 0.568584 0
M  V30 516 C 51.4854 -2.0653 0.0539173 0
M  V30 517 C 51.8934 -1.42004 -1.25026 0
M  V30 518 O 51.2364 -0.514541 -1.76347 0
M  V30 519 C 51.2984 -3.58938 -0.200854 0
M  V30 520 C 50.9624 -4.45572 1.01559 0
M  V30 521 C 51.9594 -4.82986 1.92407 0
M  V30 522 C 49.6444 -4.8692 1.23346 0
M  V30 523 C 51.6384 -5.60559 3.03402 0
M  V30 524 C 49.3254 -5.64255 2.34649 0
M  V30 525 C 50.3234 -6.00986 3.24507 0
M  V30 526 O 50.0114 -6.76761 4.33878 0
M  V30 527 H 49.7434 -0.674292 0.0480234 0
M  V30 528 H 52.2974 -1.89812 0.784896 0
M  V30 529 H 50.5274 -3.73911 -0.986279 0
M  V30 530 H 52.2164 -4.0046 -0.662294 0
M  V30 531 H 52.9824 -4.51633 1.76785 0
M  V30 532 H 48.8614 -4.57789 0.543178 0
M  V30 533 H 52.4054 -5.89147 3.73565 0
M  V30 534 H 48.3024 -5.95021 2.5024 0
M  V30 535 H 49.0704 -6.95168 4.32068 0
M  V30 536 N 51.7335 -0.305618 -1.54608 0
M  V30 537 C 52.6665 0.610536 -2.19881 0
M  V30 538 C 53.6445 1.1294 -1.16976 0
M  V30 539 O 54.8285 1.19673 -1.45638 0
M  V30 540 C 51.9555 1.83583 -2.84631 0
M  V30 541 C 51.0015 1.4498 -4.01102 0
M  V30 542 S 51.8345 0.501793 -5.33144 0
M  V30 543 C 52.9905 1.73478 -6.01379 0
M  V30 544 H 53.2235 0.0560177 -2.97247 0
M  V30 545 H 50.7565 -0.0897434 -1.54139 0
M  V30 546 H 52.7145 2.53898 -3.22562 0
M  V30 547 H 51.3755 2.36152 -2.07102 0
M  V30 548 H 50.5685 2.36236 -4.45206 0
M  V30 549 H 50.1705 0.826553 -3.64752 0
M  V30 550 H 52.4625 2.67473 -6.22467 0
M  V30 551 H 53.4055 1.33622 -6.95378 0
M  V30 552 H 53.8135 1.9136 -5.31076 0
M  V30 553 N 53.2116 1.57565 -0.0334293 0
M  V30 554 C 54.1586 2.10478 0.946981 0
M  V30 555 C 55.1286 1.00787 1.32027 0
M  V30 556 O 56.3136 1.28232 1.41284 0
M  V30 557 C 53.4536 2.63994 2.22263 0
M  V30 558 C 52.5666 3.87709 1.90541 0
M  V30 559 C 51.7016 4.29604 3.12433 0
M  V30 560 C 50.7406 5.46065 2.76549 0
M  V30 561 N 49.8776 5.83096 3.9108 0
M  V30 562 H 54.7176 2.93963 0.488846 0
M  V30 563 H 52.2546 1.45296 0.22969 0
M  V30 564 H 54.2126 2.93114 2.96884 0
M  V30 565 H 52.8426 1.83333 2.65685 0
M  V30 566 H 51.8946 3.65291 1.06144 0
M  V30 567 H 53.2066 4.72403 1.60116 0
M  V30 568 H 52.3606 4.60182 3.9537 0
M  V30 569 H 51.0996 3.43685 3.46023 0
M  V30 570 H 50.1046 5.15176 1.92026 0
M  V30 571 H 51.3296 6.33685 2.44171 0
M  V30 572 H 49.2756 5.00132 4.24504 0
M  V30 573 H 49.1926 6.6244 3.64293 0
M  V30 574 H 50.4606 6.18282 4.74708 0
M  V30 575 N 54.6897 -0.239769 1.55765 0
M  V30 576 C 55.6397 -1.30002 1.87306 0
M  V30 577 C 56.6237 -1.43156 0.73452 0
M  V30 578 O 57.8157 -1.46277 0.99659 0
M  V30 579 C 54.9447 -2.65409 2.17745 0
M  V30 580 C 54.0307 -2.56231 3.37945 0
M  V30 581 N 54.4217 -2.16689 4.57033 0
M  V30 582 C 52.7197 -2.87229 3.41197 0
M  V30 583 C 53.4207 -2.18318 5.39177 0
M  V30 584 N 52.3967 -2.58098 4.78421 0
M  V30 585 H 56.1987 -0.984912 2.76906 0
M  V30 586 H 53.7127 -0.448381 1.56087 0
M  V30 587 H 55.7097 -3.41934 2.38509 0
M  V30 588 H 54.3697 -2.97781 1.29448 0
M  V30 589 H 55.3807 -1.88116 4.82528 0
M  V30 590 H 52.0577 -3.24094 2.63191 0
M  V30 591 H 53.4477 -1.90025 6.44469 0
M  V30 592 N 56.1678 -1.49265 -0.50573 0
M  V30 593 C 57.1308 -1.65075 -1.59006 0
M  V30 594 C 58.1308 -0.522768 -1.52065 0
M  V30 595 O 59.3208 -0.789117 -1.55302 0
M  V30 596 C 56.4528 -1.64369 -2.98656 0
M  V30 597 H 57.6458 -2.61784 -1.46319 0
M  V30 598 H 55.1988 -1.38226 -0.729616 0
M  V30 599 H 55.9338 -0.692272 -3.16825 0
M  V30 600 H 55.7188 -2.46282 -3.05103 0
M  V30 601 H 57.2088 -1.78674 -3.77446 0
M  V30 602 N 57.6459 0.756429 -1.3826 0
M  V30 603 C 58.8739 1.54565 -1.3754 0
M  V30 604 C 59.2889 1.88767 0.0355331 0
M  V30 605 O 58.6459 1.52572 1.0014 0
M  V30 606 C 58.6969 2.84654 -2.22833 0
M  V30 607 O 58.4179 2.51912 -3.5843 0
M  V30 608 C 59.9189 3.78807 -2.30261 0
M  V30 609 H 57.1389 0.478353 -0.470553 0
M  V30 610 H 59.6829 0.936381 -1.81803 0
M  V30 611 H 57.8379 3.41965 -1.8204 0
M  V30 612 H 58.2519 3.35325 -4.03308 0
M  V30 613 H 59.7259 4.67045 -2.94233 0
M  V30 614 H 60.2029 4.19038 -1.31545 0
M  V30 615 H 60.8089 3.2742 -2.71433 0
M  V30 616 N 59.124 1.23083 0.984299 0
M  V30 617 C 60.071 1.00854 2.07598 0
M  V30 618 C 61.041 -0.0726709 1.65941 0
M  V30 619 O 62.226 0.0786535 1.90638 0
M  V30 620 C 59.366 0.601645 3.39815 0
M  V30 621 C 58.479 1.75456 3.94765 0
M  V30 622 C 57.614 1.29482 5.15177 0
M  V30 623 C 56.653 2.41873 5.62284 0
M  V30 624 N 55.79 1.96885 6.73929 0
M  V30 625 H 60.63 1.943 2.25946 0
M  V30 626 H 58.167 0.968001 1.10762 0
M  V30 627 H 60.125 0.346854 4.15756 0
M  V30 628 H 58.755 -0.295803 3.21442 0
M  V30 629 H 57.807 2.12346 3.15616 0
M  V30 630 H 59.119 2.59965 4.25699 0
M  V30 631 H 58.273 0.997923 5.98437 0
M  V30 632 H 57.012 0.420046 4.85888 0
M  V30 633 H 56.017 2.72342 4.77608 0
M  V30 634 H 57.242 3.29881 5.93595 0
M  V30 635 H 55.188 1.11782 6.46406 0
M  V30 636 H 55.105 2.74956 7.04227 0
M  V30 637 H 56.373 1.70289 7.60672 0
M  V30 638 N 60.6021 -1.18246 1.0419 0
M  V30 639 C 61.8301 -1.92195 0.766072 0
M  V30 640 C 62.2451 -1.76247 -0.676933 0
M  V30 641 O 61.6021 -1.09293 -1.46155 0
M  V30 642 C 61.6531 -3.43568 1.12442 0
M  V30 643 O 61.3741 -3.59015 2.51078 0
M  V30 644 C 62.8751 -4.34613 0.873275 0
M  V30 645 H 60.0951 -0.610114 0.279288 0
M  V30 646 H 62.6391 -1.50007 1.38989 0
M  V30 647 H 60.7941 -3.8354 0.545542 0
M  V30 648 H 61.2081 -4.5273 2.64831 0
M  V30 649 H 62.6821 -5.39374 1.17385 0
M  V30 650 H 63.1591 -4.38781 -0.191909 0
M  V30 651 H 63.7651 -4.00341 1.43551 0
M  V30 652 N 62.0802 -0.821533 -1.34494 0
M  V30 653 C 63.0432 -0.247847 -2.27856 0
M  V30 654 C 64.0432 0.573453 -1.50227 0
M  V30 655 O 65.2332 0.389759 -1.69784 0
M  V30 656 C 62.3652 0.652698 -3.34593 0
M  V30 657 H 63.5582 -1.07146 -2.80107 0
M  V30 658 H 61.1112 -0.593291 -1.44602 0
M  V30 659 H 61.8462 1.49943 -2.87555 0
M  V30 660 H 61.6312 0.065292 -3.92046 0
M  V30 661 H 63.1212 1.04793 -4.04238 0
M  V30 662 N 63.5583 1.46682 -0.576371 0
M  V30 663 C 64.5053 2.30241 0.160499 0
M  V30 664 C 65.4753 1.40233 0.890162 0
M  V30 665 O 66.6603 1.69186 0.882084 0
M  V30 666 C 63.8003 3.24578 1.1723 0
M  V30 667 C 62.9133 4.29684 0.446736 0
M  V30 668 C 62.0483 5.11154 1.44551 0
M  V30 669 C 61.0873 6.08015 0.70599 0
M  V30 670 N 60.2243 6.82376 1.65251 0
M  V30 671 H 65.0643 2.92727 -0.558127 0
M  V30 672 H 62.6013 1.44272 -0.287056 0
M  V30 673 H 64.5593 3.77711 1.77172 0
M  V30 674 H 63.1893 2.63916 1.85872 0
M  V30 675 H 62.2413 3.79458 -0.267594 0
M  V30 676 H 63.5533 4.98626 -0.131686 0
M  V30 677 H 62.7073 5.68533 2.11791 0
M  V30 678 H 61.4463 4.42158 2.05786 0
M  V30 679 H 60.4513 5.49796 0.0197725 0
M  V30 680 H 61.6763 6.79028 0.09912 0
M  V30 681 H 59.6223 6.16094 2.25308 0
M  V30 682 H 59.5393 7.47556 1.12673 0
M  V30 683 H 60.8073 7.44316 2.31546 0
M  V30 684 N 65.0364 0.313813 1.54444 0
M  V30 685 C 66.3134 -0.345447 1.92525 0
M  V30 686 C 66.6934 -1.70667 1.24242 0
M  V30 687 O 66.0414 -2.25273 0.382654 0
M  V30 688 C 66.2514 -0.44737 3.46121 0
M  V30 689 C 67.5994 -0.712238 4.18584 0
M  V30 690 O 68.6234 -0.530678 3.52225 0
M  V30 691 O 67.4824 -1.06183 5.36085 0
M  V30 692 H 64.5764 -0.195407 0.803583 0
M  V30 693 H 67.1224 0.362813 1.65776 0
M  V30 694 H 65.8944 0.509043 3.87975 0
M  V30 695 H 65.5174 -1.20359 3.78945 0
M  V30 696 N 66.5145 -1.57545 0.0417849 0
M  V30 697 C 67.4775 -2.09885 -0.92093 0
M  V30 698 C 68.4775 -1.01648 -1.24596 0
M  V30 699 O 69.6675 -1.27759 -1.1842 0
M  V30 700 C 66.7995 -2.57527 -2.23367 0
M  V30 701 H 67.9925 -2.96236 -0.467382 0
M  V30 702 H 65.5455 -1.5493 -0.206467 0
M  V30 703 H 66.2805 -1.74542 -2.73323 0
M  V30 704 H 66.0655 -3.36613 -2.01083 0
M  V30 705 H 67.5555 -2.98201 -2.92346 0
M  V30 706 N 67.9926 0.231505 -1.5589 0
M  V30 707 C 68.9226 1.29022 -1.94617 0
M  V30 708 C 69.9036 1.4941 -0.813067 0
M  V30 709 O 71.0886 1.6176 -1.07459 0
M  V30 710 C 68.2186 2.64199 -2.25424 0
M  V30 711 C 67.1726 2.58484 -3.41131 0
M  V30 712 C 66.4986 3.97599 -3.57518 0
M  V30 713 C 67.7986 2.1413 -4.76388 0
M  V30 714 H 69.4926 0.968563 -2.83301 0
M  V30 715 H 67.0386 0.464479 -1.36303 0
M  V30 716 H 68.9916 3.38413 -2.51107 0
M  V30 717 H 67.7156 2.98032 -1.33583 0
M  V30 718 H 66.3746 1.86727 -3.15481 0
M  V30 719 H 66.0226 4.28723 -2.6307 0
M  V30 720 H 65.7226 3.94659 -4.35337 0
M  V30 721 H 67.2466 4.7349 -3.85538 0
M  V30 722 H 68.6606 2.78083 -5.01341 0
M  V30 723 H 67.0576 2.2227 -5.57419 0
M  V30 724 H 68.1276 1.09331 -4.72414 0
M  V30 725 N 69.4707 1.49531 0.497807 0
M  V30 726 C 70.6957 1.63159 1.28039 0
M  V30 727 C 71.1207 0.30418 1.85624 0
M  V30 728 O 70.4787 -0.728618 1.66015 0
M  V30 729 C 70.5267 2.70537 2.38416 0
M  V30 730 O 69.6307 2.29931 3.42353 0
M  V30 731 H 68.9717 0.546001 0.377861 0
M  V30 732 H 71.5017 1.9574 0.59558 0
M  V30 733 H 71.5117 2.92802 2.84132 0
M  V30 734 H 70.1867 3.6689 1.95869 0
M  V30 735 H 68.7637 2.18009 3.02533 0
M  V30 736 N 70.9488 -0.749086 1.3866 0
M  V30 737 C 72.1738 -1.54344 1.38538 0
M  V30 738 C 72.5988 -1.88088 -0.0216655 0
M  V30 739 O 71.9568 -1.50899 -1.00494 0
M  V30 740 C 72.0048 -2.8164 2.25192 0
M  V30 741 O 71.1088 -3.7698 1.67212 0
M  V30 742 H 70.4498 -0.466654 0.472367 0
M  V30 743 H 72.9798 -0.925355 1.82478 0
M  V30 744 H 72.9898 -3.30519 2.3921 0
M  V30 745 H 71.6648 -2.56411 3.27454 0
M  V30 746 H 70.2418 -3.35699 1.6236 0
M  V30 747 N 72.4269 -1.23603 -0.977757 0
M  V30 748 C 73.6729 -1.07129 -1.72195 0
M  V30 749 C 74.0059 0.390501 -1.90233 0
M  V30 750 O 73.2809 1.28902 -1.45653 0
M  V30 751 C 73.5639 -1.80031 -3.11867 0
M  V30 752 C 73.4169 -3.33899 -3.01383 0
M  V30 753 C 74.7359 -1.56492 -4.11337 0
M  V30 754 H 71.8549 -0.390571 -0.624999 0
M  V30 755 H 74.4969 -1.52142 -1.13811 0
M  V30 756 H 72.6469 -1.41768 -3.6171 0
M  V30 757 H 74.3189 -3.81699 -2.59043 0
M  V30 758 H 72.5619 -3.62796 -2.37827 0
M  V30 759 H 73.2329 -3.801 -4.00285 0
M  V30 760 H 75.7089 -1.89757 -3.70313 0
M  V30 761 H 74.5849 -2.09973 -5.07151 0
M  V30 762 H 74.8459 -0.500874 -4.39254 0
M  V30 763 N 73.905 1.17692 -1.04816 0
M  V30 764 C 74.837 2.21103 -0.603822 0
M  V30 765 C 75.85 1.59411 0.33046 0
M  V30 766 O 77.039 1.7807 0.12379 0
M  V30 767 C 74.139 3.38623 0.136898 0
M  V30 768 C 73.312 4.29888 -0.807137 0
M  V30 769 C 72.371 5.26088 -0.10836 0
M  V30 770 O 71.397 5.64353 -0.741232 0
M  V30 771 N 72.599 5.68882 1.15558 0
M  V30 772 H 75.364 2.59848 -1.49329 0
M  V30 773 H 72.925 1.32553 -0.929587 0
M  V30 774 H 74.917 4.00009 0.614401 0
M  V30 775 H 73.487 2.98508 0.927993 0
M  V30 776 H 72.707 3.65993 -1.46434 0
M  V30 777 H 73.995 4.87759 -1.44807 0
M  V30 778 H 73.393 5.39861 1.69015 0
M  V30 779 H 71.95 6.32429 1.57722 0
M  V30 780 N 75.3831 0.828654 1.34056 0
M  V30 781 C 76.2931 0.256725 2.33191 0
M  V30 782 C 77.3091 -0.611898 1.62886 0
M  V30 783 O 78.4851 -0.51844 1.94613 0
M  V30 784 C 75.5501 -0.567238 3.42028 0
M  V30 785 C 74.6111 0.324458 4.28072 0
M  V30 786 C 73.8441 -0.460274 5.31712 0
M  V30 787 O 74.0671 -1.693 5.44696 0
M  V30 788 O 73.0011 0.160391 6.01686 0
M  V30 789 H 76.8271 1.07739 2.83947 0
M  V30 790 H 74.4121 0.59093 1.37217 0
M  V30 791 H 76.2941 -1.03582 4.08471 0
M  V30 792 H 74.9691 -1.36513 2.93506 0
M  V30 793 H 73.8761 0.840659 3.64532 0
M  V30 794 H 75.2091 1.08685 4.8005 0
M  V30 795 N 76.8612 -1.46375 0.584142 0
M  V30 796 C 78.0862 -2.07268 0.0740405 0
M  V30 797 C 78.5112 -1.42979 -1.22223 0
M  V30 798 O 77.8692 -0.514092 -1.73859 0
M  V30 799 C 77.9172 -3.60518 -0.0767769 0
M  V30 800 O 77.0212 -3.96533 -1.13292 0
M  V30 801 H 76.3622 -0.660961 0.0634524 0
M  V30 802 H 78.8922 -1.87991 0.807492 0
M  V30 803 H 78.9022 -4.07021 -0.282489 0
M  V30 804 H 77.5772 -4.06702 0.86986 0
M  V30 805 H 76.1542 -3.61738 -0.905553 0
M  V30 806 N 78.3393 -0.321999 -1.54275 0
M  V30 807 C 79.2713 0.578671 -2.21775 0
M  V30 808 C 80.2843 1.08109 -1.21722 0
M  V30 809 O 81.4733 0.994938 -1.482 0
M  V30 810 C 78.5733 1.80661 -2.86731 0
M  V30 811 C 77.7463 1.44314 -4.12907 0
M  V30 812 C 76.8053 2.52845 -4.61472 0
M  V30 813 O 75.8313 2.17054 -5.2619 0
M  V30 814 N 77.0333 3.83748 -4.35566 0
M  V30 815 H 79.7983 0.000709447 -2.997 0
M  V30 816 H 77.3593 -0.145132 -1.61248 0
M  V30 817 H 79.3513 2.52655 -3.16145 0
M  V30 818 H 77.9213 2.29245 -2.12521 0
M  V30 819 H 77.1413 0.554906 -3.90275 0
M  V30 820 H 78.4293 1.17598 -4.95023 0
M  V30 821 H 77.8273 4.15625 -3.83761 0
M  V30 822 H 76.3843 4.51977 -4.69638 0
M  V30 823 N 79.8174 1.5752 -0.0501392 0
M  V30 824 C 81.0634 1.92936 0.624798 0
M  V30 825 C 81.3964 0.928685 1.70555 0
M  V30 826 O 80.6714 -0.0454779 1.94447 0
M  V30 827 C 80.9544 3.38737 1.22185 0
M  V30 828 C 80.8074 4.49552 0.149218 0
M  V30 829 C 82.1264 3.84913 2.13378 0
M  V30 830 H 79.2454 0.701604 0.225657 0
M  V30 831 H 81.8874 1.89671 -0.111693 0
M  V30 832 H 80.0374 3.4165 1.84953 0
M  V30 833 H 81.7094 4.58768 -0.482648 0
M  V30 834 H 79.9524 4.30638 -0.522841 0
M  V30 835 H 80.6234 5.48653 0.606966 0
M  V30 836 H 83.0994 3.8387 1.60572 0
M  V30 837 H 81.9754 4.87584 2.52097 0
M  V30 838 H 82.2364 3.21611 3.03346 0
M  V30 839 N 81.2955 -0.223234 1.56011 0
M  V30 840 C 82.2585 -1.26014 1.9145 0
M  V30 841 C 83.2585 -1.3989 0.792937 0
M  V30 842 O 84.4485 -1.38184 1.0607 0
M  V30 843 C 81.5805 -2.63422 2.16383 0
M  V30 844 H 82.7735 -0.95796 2.84189 0
M  V30 845 H 80.3265 -0.463576 1.49267 0
M  V30 846 H 81.0615 -2.98741 1.2619 0
M  V30 847 H 80.8465 -2.54728 2.98088 0
M  V30 848 H 82.3365 -3.38249 2.44903 0
M  V30 849 N 82.7736 -1.49793 -0.48987 0
M  V30 850 C 83.7056 -1.63413 -1.60713 0
M  V30 851 C 84.7186 -0.516329 -1.54395 0
M  V30 852 O 85.9076 -0.788812 -1.60125 0
M  V30 853 C 83.0076 -1.58516 -2.99543 0
M  V30 854 C 82.1806 -2.86016 -3.30928 0
M  V30 855 C 81.2396 -2.74018 -4.49222 0
M  V30 856 O 80.2656 -3.47964 -4.50455 0
M  V30 857 N 81.4676 -1.86309 -5.4979 0
M  V30 858 H 84.2326 -2.59777 -1.49452 0
M  V30 859 H 81.7936 -1.47022 -0.677955 0
M  V30 860 H 83.7856 -1.48128 -3.76617 0
M  V30 861 H 82.3556 -0.69965 -3.0467 0
M  V30 862 H 81.5756 -3.10672 -2.42645 0
M  V30 863 H 82.8636 -3.70521 -3.487 0
M  V30 864 H 82.2616 -1.2551 -5.51601 0
M  V30 865 H 80.8186 -1.81837 -6.25922 0
M  V30 866 N 84.2517 0.741722 -1.39055 0
M  V30 867 C 85.1837 1.8657 -1.33133 0
M  V30 868 C 86.1967 1.61001 -0.241329 0
M  V30 869 O 87.3857 1.7136 -0.499784 0
M  V30 870 C 84.4857 3.22457 -1.04283 0
M  V30 871 C 83.6587 3.75435 -2.24427 0
M  V30 872 C 82.7177 4.89867 -1.92138 0
M  V30 873 O 81.7437 5.03879 -2.64754 0
M  V30 874 N 82.9457 5.73738 -0.88347 0
M  V30 875 H 85.7107 1.92156 -2.29991 0
M  V30 876 H 83.2717 0.922172 -1.3307 0
M  V30 877 H 85.2637 3.9657 -0.807128 0
M  V30 878 H 83.8337 3.12181 -0.161807 0
M  V30 879 H 83.0537 2.92751 -2.6399 0
M  V30 880 H 84.3417 4.07563 -3.04581 0
M  V30 881 H 83.7397 5.64999 -0.281517 0
M  V30 882 H 82.2967 6.47947 -0.707662 0
M  V30 883 N 85.7298 1.2412 0.971189 0
M  V30 884 C 86.6928 1.03156 2.04674 0
M  V30 885 C 87.6928 -0.00990322 1.60797 0
M  V30 886 O 88.8828 0.230729 1.72665 0
M  V30 887 C 86.0148 0.562765 3.36223 0
M  V30 888 H 87.2078 1.98614 2.24705 0
M  V30 889 H 84.7608 1.06293 1.14593 0
M  V30 890 H 85.4958 -0.395176 3.21883 0
M  V30 891 H 85.2808 1.31441 3.69413 0
M  V30 892 H 86.7708 0.437015 4.15307 0
M  V30 893 N 87.2079 -1.17134 1.05439 0
M  V30 894 C 88.6239 -1.39454 0.776201 0
M  V30 895 C 88.8239 -1.91454 -0.628307 0
M  V30 896 O 87.8799 -2.10777 -1.39031 0
M  V30 897 C 89.1929 -2.38305 1.83388 0
M  V30 898 C 90.7409 -2.52006 1.85639 0
M  V30 899 C 91.2159 -3.54133 2.90437 0
M  V30 900 N 92.7069 -3.61653 2.89415 0
M  V30 901 C 93.4419 -4.4044 3.67152 0
M  V30 902 N 92.9379 -5.22721 4.54681 0
M  V30 903 N 94.7309 -4.35337 3.55581 0
M  V30 904 H 86.8819 -0.817134 1.96053 0
M  V30 905 H 89.1449 -0.421626 0.849079 0
M  V30 906 H 88.8509 -2.07173 2.84204 0
M  V30 907 H 88.7249 -3.37841 1.67761 0
M  V30 908 H 91.1119 -2.82447 0.85486 0
M  V30 909 H 91.1929 -1.52537 2.05344 0
M  V30 910 H 90.8369 -3.24431 3.90777 0
M  V30 911 H 90.7669 -4.53313 2.67983 0
M  V30 912 H 93.2579 -3.02909 2.25952 0
M  V30 913 H 93.5709 -5.80027 5.10674 0
M  V30 914 H 91.9159 -5.22093 4.58741 0
M  V30 915 H 95.1069 -3.70112 2.86592 0
M  V30 916 H 95.2799 -4.96494 4.1641 0
M  V30 917 N 88.686 -0.835752 -1.33615 0
M  V30 918 C 89.934 -0.429109 -1.97492 0
M  V30 919 C 90.255 1.01433 -1.66543 0
M  V30 920 O 89.525 1.70611 -0.962744 0
M  V30 921 H 88.105 -0.155686 -0.730596 0
M  V30 922 H 90.767 -1.06802 -1.63031 0
M  V30 923 H 89.863 -0.55861 -3.0706 0
M  V30 924 N 90.1641 1.46063 -0.591896 0
M  V30 925 C 91.4101 2.03203 -0.0894879 0
M  V30 926 C 91.7651 1.45407 1.25994 0
M  V30 927 O 91.0581 0.61326 1.8152 0
M  V30 928 C 91.2521 3.57391 0.0249813 0
M  V30 929 C 91.0811 4.30142 -1.3118 0
M  V30 930 C 89.8511 4.68688 -1.88838 0
M  V30 931 C 92.0491 4.63098 -2.23708 0
M  V30 932 N 90.0311 5.26228 -3.1616 0
M  V30 933 C 91.4021 5.21305 -3.3562 0
M  V30 934 C 93.4571 4.45031 -2.23274 0
M  V30 935 C 92.1601 5.63351 -4.47245 0
M  V30 936 C 94.1861 4.881 -3.33935 0
M  V30 937 C 93.5481 5.46386 -4.44569 0
M  V30 938 H 89.6471 0.778323 -0.0757431 0
M  V30 939 H 92.2311 1.78094 -0.78681 0
M  V30 940 H 90.4021 3.82195 0.69149 0
M  V30 941 H 92.1341 4.0118 0.532613 0
M  V30 942 H 88.8891 4.5174 -1.42223 0
M  V30 943 H 89.3131 5.59512 -3.8115 0
M  V30 944 H 93.9551 3.99295 -1.39008 0
M  V30 945 H 91.6731 6.08061 -5.32247 0
M  V30 946 H 95.2591 4.75866 -3.34728 0
M  V30 947 H 94.1391 5.79102 -5.28782 0
M  V30 948 N 91.6422 0.330177 1.54103 0
M  V30 949 C 92.8882 -0.270806 2.00984 0
M  V30 950 C 93.2212 -1.51265 1.21789 0
M  V30 951 O 92.4962 -1.92142 0.301927 0
M  V30 952 C 92.7792 -0.598339 3.55094 0
M  V30 953 C 92.6322 0.654674 4.4501 0
M  V30 954 C 93.9512 -1.41334 4.16789 0
M  V30 955 H 91.0702 -0.0969531 0.730595 0
M  V30 956 H 93.7122 0.448066 1.84641 0
M  V30 957 H 91.8622 -1.21078 3.69151 0
M  V30 958 H 93.5342 1.29285 4.42813 0
M  V30 959 H 91.7772 1.28224 4.14416 0
M  V30 960 H 92.4482 0.380944 5.50684 0
M  V30 961 H 94.9242 -0.895597 4.06347 0
M  V30 962 H 93.8002 -1.61127 5.24718 0
M  V30 963 H 94.0612 -2.41146 3.70541 0
M  V30 964 N 93.1203 -1.57491 0.0584922 0
M  V30 965 C 94.3483 -1.97296 -0.623037 0
M  V30 966 C 94.7633 -0.936338 -1.63946 0
M  V30 967 O 94.1203 0.0785981 -1.82331 0
M  V30 968 C 94.1713 -3.37183 -1.30345 0
M  V30 969 O 93.8923 -4.36872 -0.32773 0
M  V30 970 C 95.3933 -3.91788 -2.07406 0
M  V30 971 H 92.6133 -0.649153 -0.169826 0
M  V30 972 H 95.1573 -2.04106 0.12696 0
M  V30 973 H 93.3123 -3.31502 -2.00463 0
M  V30 974 H 93.7263 -5.18141 -0.814269 0
M  V30 975 H 95.2003 -4.91926 -2.50425 0
M  V30 976 H 95.6773 -3.27609 -2.92521 0
M  V30 977 H 96.2833 -4.00829 -1.42184 0
M  V30 978 N 94.5984 0.214957 -1.56127 0
M  V30 979 C 95.8754 0.963093 -1.70247 0
M  V30 980 C 96.2554 2.02166 -0.60764 0
M  V30 981 O 95.6034 2.25244 0.384385 0
M  V30 982 C 95.8134 1.56756 -3.11815 0
M  V30 983 C 97.1614 2.0573 -3.7143 0
M  V30 984 O 98.1854 1.66637 -3.14818 0
M  V30 985 O 97.0444 2.77603 -4.70743 0
M  V30 986 H 94.1384 0.450321 -0.693643 0
M  V30 987 H 96.6844 0.206219 -1.68442 0
M  V30 988 H 95.4564 0.803533 -3.82961 0
M  V30 989 H 95.0794 2.3898 -3.17765 0
M  V30 990 N 96.0765 1.50051 0.48192 0
M  V30 991 C 97.3245 1.60181 1.23234 0
M  V30 992 C 97.6455 0.299176 1.92691 0
M  V30 993 O 96.9155 -0.682708 1.83619 0
M  V30 994 H 95.4955 0.590232 0.457859 0
M  V30 995 H 98.1575 1.86775 0.556881 0
M  V30 996 H 97.2535 2.40753 1.98607 0
M  V30 997 N 97.5546 -0.734337 1.39446 0
M  V30 998 C 98.8016 -1.49391 1.36706 0
M  V30 999 C 99.1296 -1.94465 -0.0367813 0
M  V30 1000 O 98.3846 -1.67154 -1.01774 0
M  V30 1001 C 98.6836 -2.74711 2.28623 0
M  V30 1002 C 98.3496 -2.48501 3.76242 0
M  V30 1003 C 97.0116 -2.41062 4.16464 0
M  V30 1004 C 99.3636 -2.26098 4.69606 0
M  V30 1005 C 96.6916 -2.09262 5.48112 0
M  V30 1006 C 99.0436 -1.95814 6.01531 0
M  V30 1007 C 97.7076 -1.86845 6.40816 0
M  V30 1008 H 96.9776 -0.546661 0.500243 0
M  V30 1009 H 99.6246 -0.842788 1.71957 0
M  V30 1010 H 97.9296 -3.44569 1.86492 0
M  V30 1011 H 99.6266 -3.32741 2.23796 0
M  V30 1012 H 96.2166 -2.55169 3.44364 0
M  V30 1013 H 100.401 -2.30812 4.39363 0
M  V30 1014 H 95.6566 -2.00841 5.77471 0
M  V30 1015 H 99.8306 -1.77488 6.73403 0
M  V30 1016 H 97.4576 -1.6197 7.42745 0
M  V30 1017 N 99.0327 -1.24633 -0.964593 0
M  V30 1018 C 100.258 -1.11596 -1.74818 0
M  V30 1019 C 100.683 0.32723 -1.85232 0
M  V30 1020 O 100.041 1.23695 -1.32549 0
M  V30 1021 C 100.089 -1.76397 -3.1451 0
M  V30 1022 O 99.1927 -1.03685 -3.99153 0
M  V30 1023 H 98.5337 -0.390196 -0.537255 0
M  V30 1024 H 101.064 -1.65002 -1.20977 0
M  V30 1025 H 101.074 -1.8228 -3.65018 0
M  V30 1026 H 99.7487 -2.81401 -3.06246 0
M  V30 1027 H 98.3257 -1.05611 -3.57632 0
M  V30 1028 N 100.511 1.16574 -1.06058 0
M  V30 1029 C 101.736 1.91493 -0.796562 0
M  V30 1030 C 102.161 1.76773 0.642868 0
M  V30 1031 O 101.519 1.09142 1.44768 0
M  V30 1032 C 101.567 3.40293 -1.19303 0
M  V30 1033 O 100.671 4.11074 -0.330394 0
M  V30 1034 H 100.012 0.596678 -0.291326 0
M  V30 1035 H 102.542 1.47708 -1.41575 0
M  V30 1036 H 102.552 3.91057 -1.16356 0
M  V30 1037 H 101.227 3.50326 -2.24153 0
M  V30 1038 H 99.8038 3.70513 -0.421225 0
M  V30 1039 N 101.989 0.842826 1.3317 0
M  V30 1040 C 102.919 0.294028 2.31641 0
M  V30 1041 C 103.9 -0.600401 1.59151 0
M  V30 1042 O 105.085 -0.523124 1.87022 0
M  V30 1043 C 102.215 -0.528416 3.43257 0
M  V30 1044 C 101.169 0.27056 4.27144 0
M  V30 1045 C 100.495 -0.675881 5.30411 0
M  V30 1046 C 101.795 1.48981 5.00602 0
M  V30 1047 H 103.489 1.11681 2.77791 0
M  V30 1048 H 101.035 0.538478 1.33553 0
M  V30 1049 H 102.988 -0.922674 4.11175 0
M  V30 1050 H 101.712 -1.38445 2.95805 0
M  V30 1051 H 100.371 0.646427 3.60856 0
M  V30 1052 H 100.019 -1.52842 4.79216 0
M  V30 1053 H 99.7189 -0.145374 5.8742 0
M  V30 1054 H 101.243 -1.06757 6.01195 0
M  V30 1055 H 102.657 1.16849 5.61266 0
M  V30 1056 H 101.054 1.95739 5.6728 0
M  V30 1057 H 102.124 2.25746 4.29147 0
M  V30 1058 N 103.467 -1.45747 0.599634 0
M  V30 1059 C 104.414 -2.30467 -0.123849 0
M  V30 1060 C 105.384 -1.41632 -0.86774 0
M  V30 1061 O 106.569 -1.70568 -0.855056 0
M  V30 1062 C 103.709 -3.26402 -1.12051 0
M  V30 1063 C 102.822 -4.3034 -0.37832 0
M  V30 1064 C 101.957 -5.13389 -1.364 0
M  V30 1065 C 100.996 -6.09061 -0.609171 0
M  V30 1066 N 100.133 -6.84918 -1.54374 0
M  V30 1067 H 104.973 -2.91802 0.604627 0
M  V30 1068 H 102.51 -1.43797 0.309972 0
M  V30 1069 H 104.468 -3.80482 -1.7114 0
M  V30 1070 H 103.098 -2.66839 -1.8165 0
M  V30 1071 H 102.15 -3.78984 0.327929 0
M  V30 1072 H 103.462 -4.98354 0.210997 0
M  V30 1073 H 102.616 -5.7183 -2.02719 0
M  V30 1074 H 101.355 -4.45376 -1.98725 0
M  V30 1075 H 100.36 -5.49758 0.0676979 0
M  V30 1076 H 101.585 -6.79099 0.00891991 0
M  V30 1077 H 99.531 -6.19601 -2.15478 0
M  V30 1078 H 99.448 -7.49254 -1.00766 0
M  V30 1079 H 100.716 -7.47906 -2.19676 0
M  V30 1080 N 104.945 -0.338344 -1.53925 0
M  V30 1081 C 106.222 0.314774 -1.93051 0
M  V30 1082 C 106.602 1.68669 -1.26941 0
M  V30 1083 O 105.95 2.24636 -0.418445 0
M  V30 1084 C 106.16 0.392249 -3.46789 0
M  V30 1085 C 107.508 0.645554 -4.19664 0
M  V30 1086 O 108.532 0.474575 -3.53024 0
M  V30 1087 O 107.391 0.976408 -5.37707 0
M  V30 1088 H 104.485 0.182598 -0.80659 0
M  V30 1089 H 107.031 -0.389141 -1.65178 0
M  V30 1090 H 105.803 -0.570702 -3.87116 0
M  V30 1091 H 105.426 1.14316 -3.80812 0
M  V30 1092 N 106.423 1.57458 -0.0668435 0
M  V30 1093 C 107.653 1.97337 0.611677 0
M  V30 1094 C 108.061 0.943744 1.63982 0
M  V30 1095 O 107.404 -0.0785584 1.83532 0
M  V30 1096 C 107.466 3.33511 1.34205 0
M  V30 1097 C 107.13 4.54598 0.467941 0
M  V30 1098 C 108.127 5.19186 -0.272439 0
M  V30 1099 C 105.812 5.0075 0.39427 0
M  V30 1100 C 107.806 6.28274 -1.07476 0
M  V30 1101 C 105.493 6.09711 -0.411729 0
M  V30 1102 C 106.491 6.73335 -1.14492 0
M  V30 1103 O 106.179 7.80199 -1.93763 0
M  V30 1104 H 105.911 0.654042 0.170893 0
M  V30 1105 H 108.465 2.04961 -0.134289 0
M  V30 1106 H 106.695 3.22487 2.13398 0
M  V30 1107 H 108.384 3.58029 1.91233 0
M  V30 1108 H 109.15 4.84477 -0.225086 0
M  V30 1109 H 105.029 4.51009 0.954569 0
M  V30 1110 H 108.573 6.77866 -1.64755 0
M  V30 1111 H 104.47 6.43854 -0.460664 0
M  V30 1112 H 105.238 7.97053 -1.86142 0
M  V30 1113 N 107.901 -0.206675 1.56239 0
M  V30 1114 C 109.147 -0.925733 1.81113 0
M  V30 1115 C 109.502 -1.81368 0.642135 0
M  V30 1116 O 108.795 -1.88126 -0.363211 0
M  V30 1117 C 108.989 -1.78675 3.09532 0
M  V30 1118 C 108.818 -0.98365 4.3881 0
M  V30 1119 C 107.588 -0.672661 5.00803 0
M  V30 1120 C 109.786 -0.341847 5.13163 0
M  V30 1121 N 107.768 0.150283 6.13716 0
M  V30 1122 C 109.139 0.343815 6.19046 0
M  V30 1123 C 111.194 -0.256392 4.97239 0
M  V30 1124 C 109.897 1.10678 7.10734 0
M  V30 1125 C 111.923 0.493142 5.8934 0
M  V30 1126 C 111.285 1.16729 6.94661 0
M  V30 1127 H 107.384 -0.318524 0.714189 0
M  V30 1128 H 109.968 -0.195378 1.93717 0
M  V30 1129 H 108.139 -2.4888 2.98183 0
M  V30 1130 H 109.871 -2.44441 3.22538 0
M  V30 1131 H 106.626 -0.994294 4.63045 0
M  V30 1132 H 107.05 0.551026 6.74754 0
M  V30 1133 H 111.692 -0.763249 4.15854 0
M  V30 1134 H 109.41 1.6251 7.91591 0
M  V30 1135 H 112.996 0.560465 5.79094 0
M  V30 1136 H 111.876 1.738 7.64698 0
M  V30 1137 N 109.379 -1.50304 -0.473955 0
M  V30 1138 C 110.604 -1.65175 -1.25427 0
M  V30 1139 C 111.029 -0.333673 -1.85117 0
M  V30 1140 O 110.387 0.702114 -1.67153 0
M  V30 1141 C 110.435 -2.74295 -2.34082 0
M  V30 1142 O 109.539 -2.35349 -3.38651 0
M  V30 1143 H 108.88 -0.551944 -0.369126 0
M  V30 1144 H 111.41 -1.96662 -0.564364 0
M  V30 1145 H 111.42 -2.97285 -2.79438 0
M  V30 1146 H 110.095 -3.69959 -1.90008 0
M  V30 1147 H 108.672 -2.22794 -2.99027 0
M  V30 1148 N 110.857 0.726932 -1.39834 0
M  V30 1149 C 112.085 1.51613 -1.40787 0
M  V30 1150 C 112.5 1.88799 -0.00451505 0
M  V30 1151 O 111.857 1.54662 0.968809 0
M  V30 1152 C 111.908 2.79863 -2.28821 0
M  V30 1153 O 111.629 2.44253 -3.63692 0
M  V30 1154 C 113.13 3.73837 -2.38245 0
M  V30 1155 H 110.35 0.468264 -0.480593 0
M  V30 1156 H 112.894 0.897607 -1.83748 0
M  V30 1157 H 111.049 3.38027 -1.89252 0
M  V30 1158 H 111.463 3.26695 -4.1033 0
M  V30 1159 H 112.937 4.60699 -3.04073 0
M  V30 1160 H 113.414 4.16153 -1.40403 0
M  V30 1161 H 114.02 3.21589 -2.78317 0
M  V30 1162 N 112.336 1.25143 0.95797 0
M  V30 1163 C 113.582 1.09855 1.70469 0
M  V30 1164 C 113.915 -0.360187 1.90831 0
M  V30 1165 O 113.19 -1.26568 1.47685 0
M  V30 1166 C 113.473 1.8497 3.08963 0
M  V30 1167 C 113.326 3.38652 2.96032 0
M  V30 1168 C 114.645 1.63016 4.08795 0
M  V30 1169 H 111.764 0.400465 0.618706 0
M  V30 1170 H 114.406 1.53933 1.11376 0
M  V30 1171 H 112.556 1.47505 3.59409 0
M  V30 1172 H 114.228 3.85772 2.52938 0
M  V30 1173 H 112.471 3.66534 2.32025 0
M  V30 1174 H 113.142 3.8642 3.94187 0
M  V30 1175 H 115.618 1.95625 3.67247 0
M  V30 1176 H 114.494 2.18015 5.03747 0
M  V30 1177 H 114.755 0.570692 4.38401 0
M  V30 1178 N 113.814 -1.1601 1.06675 0
M  V30 1179 C 114.761 -2.20525 0.680967 0
M  V30 1180 C 115.731 -1.62904 -0.324283 0
M  V30 1181 O 116.916 -1.89615 -0.212294 0
M  V30 1182 C 114.056 -3.45013 0.0776551 0
M  V30 1183 C 113.169 -4.16863 1.13355 0
M  V30 1184 C 112.304 -5.2888 0.49597 0
M  V30 1185 C 111.343 -5.92537 1.53513 0
M  V30 1186 N 110.48 -6.96038 0.920631 0
M  V30 1187 H 115.32 -2.52876 1.57663 0
M  V30 1188 H 112.857 -1.24199 0.788223 0
M  V30 1189 H 114.815 -4.16193 -0.289704 0
M  V30 1190 H 113.445 -3.132 -0.781393 0
M  V30 1191 H 112.497 -3.44248 1.61857 0
M  V30 1192 H 113.809 -4.60294 1.92174 0
M  V30 1193 H 112.963 -6.06653 0.0758604 0
M  V30 1194 H 111.702 -4.86622 -0.324062 0
M  V30 1195 H 110.707 -5.13482 1.9651 0
M  V30 1196 H 111.932 -6.36873 2.35733 0
M  V30 1197 H 109.878 -6.55888 0.12138 0
M  V30 1198 H 109.795 -7.3786 1.64616 0
M  V30 1199 H 111.063 -7.77725 0.525795 0
M  V30 1200 N 115.292 -0.849877 -1.32721 0
M  V30 1201 C 116.569 -0.372405 -1.92022 0
M  V30 1202 C 116.949 1.1435 -1.77447 0
M  V30 1203 O 116.297 1.96296 -1.16962 0
M  V30 1204 C 116.507 -0.831482 -3.3895 0
M  V30 1205 C 117.855 -0.845882 -4.16089 0
M  V30 1206 O 118.879 -0.775806 -3.47649 0
M  V30 1207 O 117.738 -0.943753 -5.38289 0
M  V30 1208 H 114.832 -0.107667 -0.819961 0
M  V30 1209 H 117.378 -0.93646 -1.41522 0
M  V30 1210 H 116.15 -1.87448 -3.4348 0
M  V30 1211 H 115.773 -0.24461 -3.96847 0
M  V30 1212 N 116.77 1.45427 -0.607355 0
M  V30 1213 C 117.717 2.3053 0.111625 0
M  V30 1214 C 118.687 1.4209 0.860216 0
M  V30 1215 O 119.872 1.71019 0.845998 0
M  V30 1216 C 117.012 3.26992 1.10319 0
M  V30 1217 C 116.125 4.30535 0.355493 0
M  V30 1218 C 115.26 5.14105 1.33676 0
M  V30 1219 C 114.299 6.09376 0.576862 0
M  V30 1220 N 113.436 6.85727 1.5074 0
M  V30 1221 H 118.276 2.91477 -0.620093 0
M  V30 1222 H 115.813 1.43631 -0.317594 0
M  V30 1223 H 117.771 3.81385 1.6912 0
M  V30 1224 H 116.401 2.67799 1.80232 0
M  V30 1225 H 115.453 3.78805 -0.348023 0
M  V30 1226 H 116.765 4.98235 -0.237423 0
M  V30 1227 H 115.919 5.72897 1.99684 0
M  V30 1228 H 114.658 4.46423 1.9636 0
M  V30 1229 H 113.663 5.49715 -0.0968519 0
M  V30 1230 H 114.888 6.79085 -0.0449341 0
M  V30 1231 H 112.834 6.20735 2.12189 0
M  V30 1232 H 112.751 7.49778 0.967913 0
M  V30 1233 H 114.019 7.4906 2.15706 0
M  V30 1234 N 118.248 0.346503 1.53744 0
M  V30 1235 C 119.495 -0.249104 2.00962 0
M  V30 1236 C 119.823 -1.5032 1.23426 0
M  V30 1237 O 119.078 -1.93217 0.310761 0
M  V30 1238 C 119.377 -0.605809 3.52228 0
M  V30 1239 C 119.043 0.551747 4.47512 0
M  V30 1240 C 117.705 0.86941 4.73281 0
M  V30 1241 C 120.057 1.32818 5.03993 0
M  V30 1242 C 117.385 1.96582 5.52786 0
M  V30 1243 C 119.737 2.41486 5.84694 0
M  V30 1244 C 118.401 2.73808 6.08757 0
M  V30 1245 H 117.671 -0.0911538 0.735372 0
M  V30 1246 H 120.318 0.475027 1.85515 0
M  V30 1247 H 118.623 -1.4107 3.65522 0
M  V30 1248 H 120.32 -1.07858 3.86222 0
M  V30 1249 H 116.91 0.294102 4.2759 0
M  V30 1250 H 121.094 1.09602 4.84047 0
M  V30 1251 H 116.35 2.22045 5.69654 0
M  V30 1252 H 120.524 3.02078 6.27473 0
M  V30 1253 H 118.151 3.58892 6.7015 0
M  V30 1254 N 119.726 -1.57421 0.075193 0
M  V30 1255 C 120.951 -1.98364 -0.605515 0
M  V30 1256 C 121.376 -0.953383 -1.62149 0
M  V30 1257 O 120.734 0.0806053 -1.81121 0
M  V30 1258 C 120.782 -3.38332 -1.24756 0
M  V30 1259 O 119.886 -3.37959 -2.36342 0
M  V30 1260 H 119.227 -0.645553 -0.155428 0
M  V30 1261 H 121.757 -2.04044 0.150714 0
M  V30 1262 H 121.767 -3.75591 -1.5936 0
M  V30 1263 H 120.442 -4.12846 -0.503129 0
M  V30 1264 H 119.019 -3.12474 -2.03506 0
M  V30 1265 N 121.204 0.198386 -1.56346 0
M  V30 1266 C 122.114 1.2664 -1.97483 0
M  V30 1267 C 123.13 1.49989 -0.882002 0
M  V30 1268 O 124.306 1.62668 -1.18748 0
M  V30 1269 C 121.371 2.59141 -2.30319 0
M  V30 1270 C 120.432 2.43892 -3.53292 0
M  V30 1271 C 119.665 3.70074 -3.84553 0
M  V30 1272 O 119.888 4.74101 -3.1715 0
M  V30 1273 O 118.822 3.658 -4.7799 0
M  V30 1274 H 122.648 0.947304 -2.88548 0
M  V30 1275 H 120.233 0.403123 -1.43859 0
M  V30 1276 H 122.115 3.37352 -2.5253 0
M  V30 1277 H 120.79 2.90684 -1.42423 0
M  V30 1278 H 119.697 1.63803 -3.36332 0
M  V30 1279 H 121.03 2.17282 -4.41644 0
M  V30 1280 N 122.682 1.50554 0.465978 0
M  V30 1281 C 123.929 1.61798 1.21768 0
M  V30 1282 C 124.257 0.320696 1.91838 0
M  V30 1283 O 123.512 -0.693724 1.82992 0
M  V30 1284 C 123.811 2.75152 2.28093 0
M  V30 1285 C 123.477 4.15454 1.75239 0
M  V30 1286 C 122.139 4.53628 1.60546 0
M  V30 1287 C 124.491 5.03121 1.36083 0
M  V30 1288 C 121.819 5.77204 1.05128 0
M  V30 1289 C 124.171 6.27249 0.821056 0
M  V30 1290 C 122.835 6.64221 0.660795 0
M  V30 1291 H 122.105 0.592063 0.445582 0
M  V30 1292 H 124.752 1.84503 0.512927 0
M  V30 1293 H 123.057 2.46556 3.04496 0
M  V30 1294 H 124.754 2.81055 2.86023 0
M  V30 1295 H 121.344 3.85341 1.87644 0
M  V30 1296 H 125.528 4.74257 1.46267 0
M  V30 1297 H 120.784 6.0452 0.91462 0
M  V30 1298 H 124.958 6.94537 0.509018 0
M  V30 1299 H 122.585 7.59854 0.229226 0
M  V30 1300 N 124.16 -0.719506 1.40217 0
M  V30 1301 C 125.406 -1.48034 1.39491 0
M  V30 1302 C 125.761 -1.92399 -0.00443536 0
M  V30 1303 O 125.054 -1.64993 -0.974061 0
M  V30 1304 C 125.248 -2.72271 2.31524 0
M  V30 1305 C 125.077 -2.40055 3.80268 0
M  V30 1306 C 123.847 -2.31588 4.49105 0
M  V30 1307 C 126.045 -2.04581 4.71859 0
M  V30 1308 N 124.027 -1.92006 5.83101 0
M  V30 1309 C 125.398 -1.75568 5.94623 0
M  V30 1310 C 127.453 -1.91183 4.59732 0
M  V30 1311 C 126.156 -1.34505 7.06612 0
M  V30 1312 C 128.182 -1.51524 5.71659 0
M  V30 1313 C 127.544 -1.23406 6.93506 0
M  V30 1314 H 123.643 -0.539927 0.565688 0
M  V30 1315 H 126.227 -0.834764 1.75897 0
M  V30 1316 H 124.398 -3.34584 1.97251 0
M  V30 1317 H 126.13 -3.38584 2.21682 0
M  V30 1318 H 122.885 -2.49199 4.02737 0
M  V30 1319 H 123.309 -1.74764 6.54054 0
M  V30 1320 H 127.951 -2.11584 3.66049 0
M  V30 1321 H 125.669 -1.12846 8.00182 0
M  V30 1322 H 129.255 -1.41741 5.6427 0
M  V30 1323 H 128.135 -0.931788 7.78645 0
M  V30 1324 N 125.638 -1.25649 -0.95132 0
M  V30 1325 C 126.915 -1.01361 -1.67288 0
M  V30 1326 C 127.295 0.459135 -2.06046 0
M  V30 1327 O 126.643 1.43723 -1.7764 0
M  V30 1328 C 126.853 -1.95256 -2.89268 0
M  V30 1329 C 128.201 -2.23289 -3.61147 0
M  V30 1330 O 129.225 -1.93041 -2.99355 0
M  V30 1331 O 128.084 -2.74741 -4.72419 0
M  V30 1332 H 125.178 -0.38464 -0.732107 0
M  V30 1333 H 127.724 -1.36817 -1.00395 0
M  V30 1334 H 126.496 -2.94685 -2.57442 0
M  V30 1335 H 126.119 -1.60218 -3.6389 0
M  V30 1336 N 127.117 1.15442 -1.07289 0
M  V30 1337 C 128.047 2.22312 -0.714107 0
M  V30 1338 C 129.028 1.67467 0.298155 0
M  V30 1339 O 130.213 1.93445 0.171048 0
M  V30 1340 C 127.343 3.47124 -0.110448 0
M  V30 1341 C 126.297 4.14926 -1.04979 0
M  V30 1342 C 125.623 5.33807 -0.308924 0
M  V30 1343 C 126.923 4.64762 -2.38314 0
M  V30 1344 H 128.617 2.5258 -1.6076 0
M  V30 1345 H 126.163 1.21404 -0.77441 0
M  V30 1346 H 128.116 4.21124 0.152482 0
M  V30 1347 H 126.84 3.16187 0.81812 0
M  V30 1348 H 125.499 3.42866 -1.29764 0
M  V30 1349 H 125.147 4.99126 0.623084 0
M  V30 1350 H 124.847 5.80113 -0.935036 0
M  V30 1351 H 126.371 6.10576 -0.0537771 0
M  V30 1352 H 127.785 5.30292 -2.1786 0
M  V30 1353 H 126.182 5.21728 -2.96514 0
M  V30 1354 H 127.252 3.80434 -3.00663 0
M  V30 1355 N 128.595 0.856903 1.32268 0
M  V30 1356 C 129.872 0.382583 1.91822 0
M  V30 1357 C 130.252 -1.13407 1.78051 0
M  V30 1358 O 129.6 -1.95673 1.18001 0
M  V30 1359 C 129.81 0.849446 3.38505 0
M  V30 1360 C 131.158 0.867936 4.15634 0
M  V30 1361 O 132.182 0.794232 3.47232 0
M  V30 1362 O 131.041 0.972286 5.37781 0
M  V30 1363 H 128.135 0.112014 0.819379 0
M  V30 1364 H 130.681 0.943952 1.41024 0
M  V30 1365 H 129.453 1.89267 3.42482 0
M  V30 1366 H 129.076 0.265652 3.96712 0
M  V30 1367 N 130.073 -1.45103 0.615059 0
M  V30 1368 C 131.484 -1.85654 0.197383 0
M  V30 1369 C 131.835 -1.51433 -1.24749 0
M  V30 1370 O 130.96 -0.944608 -1.94695 0
M  V30 1371 C 131.555 -3.36972 0.351448 0
M  V30 1372 C 130.114 -3.76398 -0.011593 0
M  V30 1373 C 129.261 -2.69024 0.672394 0
M  V30 1374 H 132.212 -1.35797 0.821263 0
M  V30 1375 H 132.233 -3.78239 -0.414227 0
M  V30 1376 H 131.745 -3.61847 1.40314 0
M  V30 1377 H 129.846 -3.5714 -1.06217 0
M  V30 1378 H 129.959 -4.77532 0.387265 0
M  V30 1379 H 128.323 -2.54465 0.109284 0
M  V30 1380 H 129.106 -2.96735 1.72636 0
M  V30 1381 N 131.551 -0.354651 -1.53558 0
M  V30 1382 C 132.461 0.50515 -2.29097 0
M  V30 1383 C 133.477 1.10223 -1.34636 0
M  V30 1384 O 134.653 1.11553 -1.67684 0
M  V30 1385 C 131.718 1.63479 -3.05738 0
M  V30 1386 C 130.779 1.06636 -4.15845 0
M  V30 1387 C 130.012 2.14217 -4.88822 0
M  V30 1388 O 130.235 3.35137 -4.61562 0
M  V30 1389 O 129.169 1.77887 -5.75013 0
M  V30 1390 H 132.995 -0.109237 -3.03503 0
M  V30 1391 H 130.58 -0.119357 -1.48922 0
M  V30 1392 H 132.462 2.2918 -3.5363 0
M  V30 1393 H 131.137 2.23478 -2.34178 0
M  V30 1394 H 130.044 0.373565 -3.7223 0
M  V30 1395 H 131.377 0.511081 -4.89539 0
M  V30 1396 N 133.029 1.57378 -0.0835403 0
M  V30 1397 C 134.275 1.94217 0.583733 0
M  V30 1398 C 134.608 0.964653 1.68547 0
M  V30 1399 O 133.883 -0.00422258 1.945 0
M  V30 1400 C 134.166 3.41253 1.14972 0
M  V30 1401 C 134.019 4.49768 0.0538277 0
M  V30 1402 C 135.338 3.89352 2.05166 0
M  V30 1403 H 132.457 0.706233 0.210724 0
M  V30 1404 H 135.099 1.89392 -0.1519 0
M  V30 1405 H 133.249 3.45496 1.77665 0
M  V30 1406 H 134.921 4.57641 -0.579851 0
M  V30 1407 H 133.164 4.29432 -0.614068 0
M  V30 1408 H 133.835 5.49817 0.490452 0
M  V30 1409 H 136.311 3.87189 1.52393 0
M  V30 1410 H 135.187 4.92822 2.41698 0
M  V30 1411 H 135.448 3.27973 2.96456 0
M  V30 1412 N 134.507 -0.190092 1.56449 0
M  V30 1413 C 135.923 -0.54113 1.50146 0
M  V30 1414 C 136.123 -1.85603 0.784465 0
M  V30 1415 O 135.179 -2.5024 0.337051 0
M  V30 1416 C 136.492 -0.591241 2.9483 0
M  V30 1417 C 138.04 -0.679732 3.0553 0
M  V30 1418 C 138.515 -0.760908 4.51635 0
M  V30 1419 N 140.006 -0.824302 4.55806 0
M  V30 1420 C 140.741 -0.907365 5.66175 0
M  V30 1421 N 140.237 -0.952422 6.86222 0
M  V30 1422 N 142.03 -0.94494 5.541 0
M  V30 1423 H 134.181 0.67235 2.01478 0
M  V30 1424 H 136.444 0.240127 0.917084 0
M  V30 1425 H 136.15 0.305905 3.50367 0
M  V30 1426 H 136.024 -1.44422 3.48457 0
M  V30 1427 H 138.411 -1.56731 2.50039 0
M  V30 1428 H 138.492 0.199549 2.5502 0
M  V30 1429 H 138.136 0.122336 5.07753 0
M  V30 1430 H 138.066 -1.65606 4.99882 0
M  V30 1431 H 140.557 -0.798526 3.69367 0
M  V30 1432 H 140.87 -1.01645 7.66086 0
M  V30 1433 H 139.215 -0.921014 6.8887 0
M  V30 1434 H 142.406 -0.906612 4.59236 0
M  V30 1435 H 142.579 -1.00622 6.4014 0
M  V30 1436 N 135.985 -1.50799 -0.457987 0
M  V30 1437 C 137.396 -1.55152 -1.0385 0
M  V30 1438 C 137.747 -0.362719 -1.92818 0
M  V30 1439 O 136.872 0.522915 -2.09987 0
M  V30 1440 C 137.467 -2.81173 -1.89017 0
M  V30 1441 C 136.026 -2.88164 -2.42154 0
M  V30 1442 C 135.173 -2.49591 -1.20829 0
M  V30 1443 H 138.124 -1.56874 -0.240068 0
M  V30 1444 H 138.145 -2.63769 -2.74238 0
M  V30 1445 H 137.657 -3.67677 -1.24238 0
M  V30 1446 H 135.758 -2.06042 -3.10447 0
M  V30 1447 H 135.871 -3.91356 -2.76364 0
M  V30 1448 H 134.235 -2.02322 -1.54719 0
M  V30 1449 H 135.018 -3.38418 -0.576927 0
M  V30 1450 N 137.463 0.71206 -1.40597 0
M  V30 1451 C 138.691 1.50111 -1.42388 0
M  V30 1452 C 139.106 1.88784 -0.0245395 0
M  V30 1453 O 138.463 1.55681 0.952351 0
M  V30 1454 C 138.514 2.7742 -2.31776 0
M  V30 1455 O 138.235 2.40382 -3.66262 0
M  V30 1456 C 139.736 3.7129 -2.42196 0
M  V30 1457 H 136.956 0.46314 -0.485533 0
M  V30 1458 H 139.5 0.878068 -1.8469 0
M  V30 1459 H 137.655 3.36001 -1.92827 0
M  V30 1460 H 138.069 3.22324 -4.13772 0
M  V30 1461 H 139.543 4.57448 -3.08943 0
M  V30 1462 H 140.02 4.14641 -1.44809 0
M  V30 1463 H 140.626 3.18619 -2.81712 0
M  V30 1464 N 138.941 1.26152 0.944643 0
M  V30 1465 C 140.166 1.14363 1.7302 0
M  V30 1466 C 140.591 -0.29772 1.85729 0
M  V30 1467 O 139.949 -1.2157 1.34501 0
M  V30 1468 C 139.997 1.81378 3.11664 0
M  V30 1469 O 139.101 1.10022 3.97453 0
M  V30 1470 H 138.442 0.398694 0.53098 0
M  V30 1471 H 140.972 1.66906 1.18337 0
M  V30 1472 H 140.982 1.88064 3.62072 0
M  V30 1473 H 139.657 2.86237 3.0173 0
M  V30 1474 H 138.234 1.11287 3.55907 0
M  V30 1475 N 140.419 -1.14872 1.07899 0
M  V30 1476 C 141.382 -2.17986 0.708161 0
M  V30 1477 C 142.382 -1.58775 -0.25442 0
M  V30 1478 O 143.572 -1.74166 -0.034645 0
M  V30 1479 C 140.704 -3.40871 0.0446929 0
M  V30 1480 H 141.897 -2.52306 1.62116 0
M  V30 1481 H 139.45 -1.2943 0.876218 0
M  V30 1482 H 140.185 -3.12124 -0.880281 0
M  V30 1483 H 139.97 -3.8511 0.737091 0
M  V30 1484 H 141.46 -4.17121 -0.19991 0
M  V30 1485 N 141.898 -0.863906 -1.31812 0
M  V30 1486 C 143.144 -0.472535 -1.97218 0
M  V30 1487 C 143.477 0.971394 -1.68159 0
M  V30 1488 O 142.752 1.68309 -0.974798 0
M  V30 1489 C 143.035 -0.723054 -3.52766 0
M  V30 1490 C 142.888 -2.21608 -3.91421 0
M  V30 1491 C 144.207 -0.185522 -4.39709 0
M  V30 1492 H 141.326 -0.173158 -0.71637 0
M  V30 1493 H 143.968 -1.08403 -1.56041 0
M  V30 1494 H 142.118 -0.202577 -3.87971 0
M  V30 1495 H 143.79 -2.80334 -3.66347 0
M  V30 1496 H 142.033 -2.691 -3.40246 0
M  V30 1497 H 142.704 -2.34203 -4.99853 0
M  V30 1498 H 145.18 -0.630726 -4.11292 0
M  V30 1499 H 144.056 -0.390306 -5.47511 0
M  V30 1500 H 144.317 0.912229 -4.32586 0
M  V30 1501 N 143.376 1.44774 -0.622745 0
M  V30 1502 C 144.339 2.29069 0.0774015 0
M  V30 1503 C 145.339 1.4059 0.780461 0
M  V30 1504 O 146.529 1.62551 0.626322 0
M  V30 1505 C 143.661 3.21974 1.12006 0
M  V30 1506 H 144.854 2.92459 -0.663901 0
M  V30 1507 H 142.407 1.51548 -0.382486 0
M  V30 1508 H 143.142 2.63417 1.89162 0
M  V30 1509 H 142.927 3.87168 0.619951 0
M  V30 1510 H 144.417 3.85318 1.60995 0
M  V30 1511 N 144.854 0.36279 1.53368 0
M  V30 1512 C 145.817 -0.472679 2.24273 0
M  V30 1513 C 146.817 -1.012 1.24961 0
M  V30 1514 O 148.007 -0.898194 1.49259 0
M  V30 1515 C 145.139 -1.66039 2.97731 0
M  V30 1516 H 146.332 0.14773 2.99536 0
M  V30 1517 H 143.885 0.114434 1.55881 0
M  V30 1518 H 144.62 -2.31896 2.26704 0
M  V30 1519 H 144.405 -1.28066 3.70596 0
M  V30 1520 H 145.895 -2.25252 3.51641 0
M  V30 1521 O 146.371 -1.59827 0.231878 0
M  V30 1522 H 147.062 -1.90573 -0.346636 0
M  V30 END ATOM
M  V30 BEGIN BOND
M  V30 END BOND
M  V30 END CTAB
M  END
$$$$
